# generated using pymatgen
data_CeSe2
_symmetry_space_group_name_H-M   'P 1'
_cell_length_a   8.79730524
_cell_length_b   13.92764879
_cell_length_c   13.92764879
_cell_angle_alpha   84.27561019
_cell_angle_beta   71.58957646
_cell_angle_gamma   71.58957646
_symmetry_Int_Tables_number   1
_chemical_formula_structural   CeSe2
_chemical_formula_sum   'Ce16 Se32'
_cell_volume   1536.28442451
_cell_formula_units_Z   16
loop_
 _symmetry_equiv_pos_site_id
 _symmetry_equiv_pos_as_xyz
  1  'x, y, z'
loop_
 _atom_site_type_symbol
 _atom_site_label
 _atom_site_symmetry_multiplicity
 _atom_site_fract_x
 _atom_site_fract_y
 _atom_site_fract_z
 _atom_site_occupancy
  Ce  Ce0  1  0.12150310  0.75054879  0.49752680  1
  Ce  Ce1  1  0.36957869  0.74945121  0.00247320  1
  Ce  Ce2  1  0.37205189  0.49752680  0.74945121  1
  Ce  Ce3  1  0.61902990  0.00247320  0.75054879  1
  Ce  Ce4  1  0.87849690  0.24945121  0.50247320  1
  Ce  Ce5  1  0.63042131  0.25054879  0.99752680  1
  Ce  Ce6  1  0.62794811  0.50247320  0.25054879  1
  Ce  Ce7  1  0.38097010  0.99752680  0.24945121  1
  Ce  Ce8  1  0.62629558  0.74784833  0.50270848  1
  Ce  Ce9  1  0.87685239  0.75215167  0.99729152  1
  Ce  Ce10  1  0.87414391  0.50270848  0.75215167  1
  Ce  Ce11  1  0.12900406  0.99729152  0.74784833  1
  Ce  Ce12  1  0.37370442  0.25215167  0.49729152  1
  Ce  Ce13  1  0.12314761  0.24784833  0.00270848  1
  Ce  Ce14  1  0.12585609  0.49729152  0.24784833  1
  Ce  Ce15  1  0.87099594  0.00270848  0.25215167  1
  Se  Se0  1  0.63015121  0.89957700  0.34580597  1
  Se  Se1  1  0.87553419  0.60042300  0.15419403  1
  Se  Se2  1  0.02972821  0.34580597  0.60042300  1
  Se  Se3  1  0.97595719  0.15419403  0.89957700  1
  Se  Se4  1  0.36984879  0.10042300  0.65419403  1
  Se  Se5  1  0.12446581  0.39957700  0.84580597  1
  Se  Se6  1  0.97027179  0.65419403  0.39957700  1
  Se  Se7  1  0.02404281  0.84580597  0.10042300  1
  Se  Se8  1  0.12447830  0.90542798  0.34659620  1
  Se  Se9  1  0.37650249  0.59457202  0.15340380  1
  Se  Se10  1  0.52990628  0.34659620  0.59457202  1
  Se  Se11  1  0.47107451  0.15340380  0.90542798  1
  Se  Se12  1  0.87552170  0.09457202  0.65340380  1
  Se  Se13  1  0.62349751  0.40542798  0.84659620  1
  Se  Se14  1  0.47009372  0.65340380  0.40542798  1
  Se  Se15  1  0.52892549  0.84659620  0.09457202  1
  Se  Se16  1  0.62500275  0.59316874  0.65380102  1
  Se  Se17  1  0.87197251  0.90683126  0.84619898  1
  Se  Se18  1  0.71817149  0.65380102  0.90683126  1
  Se  Se19  1  0.27880377  0.84619898  0.59316874  1
  Se  Se20  1  0.37499725  0.40683126  0.34619898  1
  Se  Se21  1  0.12802749  0.09316874  0.15380102  1
  Se  Se22  1  0.28182851  0.34619898  0.09316874  1
  Se  Se23  1  0.72119623  0.15380102  0.40683126  1
  Se  Se24  1  0.12021505  0.60150193  0.65647868  1
  Se  Se25  1  0.37819566  0.89849807  0.84352132  1
  Se  Se26  1  0.22171698  0.65647868  0.89849807  1
  Se  Se27  1  0.77669373  0.84352132  0.60150193  1
  Se  Se28  1  0.87978495  0.39849807  0.34352132  1
  Se  Se29  1  0.62180434  0.10150193  0.15647868  1
  Se  Se30  1  0.77828302  0.34352132  0.10150193  1
  Se  Se31  1  0.22330627  0.15647868  0.39849807  1
loop_
_geom_bond_atom_site_label_1
_geom_bond_atom_site_label_2
_geom_bond_distance
_geom_bond_site_symmetry_2
Ce0 Se6 2.841030 1_455
Ce0 Se27 2.844939 1_455
Ce0 Se14 2.849756 1_555
Ce0 Se19 2.854269 1_555
Ce0 Se8 2.858143 1_555
Ce0 Se24 2.879696 1_555
Ce1 Se7 2.841029 1_555
Ce1 Se26 2.844939 1_554
Ce1 Se15 2.849756 1_555
Ce1 Se18 2.854268 1_554
Ce1 Se9 2.858143 1_555
Ce1 Se25 2.879696 1_554
Ce2 Se5 2.841030 1_555
Ce2 Se24 2.844939 1_555
Ce2 Se13 2.849756 1_555
Ce2 Se16 2.854268 1_555
Ce2 Se10 2.858143 1_555
Ce2 Se26 2.879696 1_555
Ce3 Se4 2.841029 1_555
Ce3 Se25 2.844939 1_545
Ce3 Se12 2.849756 1_555
Ce3 Se17 2.854268 1_545
Ce3 Se11 2.858143 1_555
Ce3 Se27 2.879696 1_545
Ce4 Se2 2.841030 1_655
Ce4 Se31 2.844939 1_655
Ce4 Se10 2.849756 1_555
Ce4 Se23 2.854269 1_555
Ce4 Se12 2.858143 1_555
Ce4 Se28 2.879696 1_555
Ce5 Se3 2.841029 1_555
Ce5 Se30 2.844939 1_556
Ce5 Se11 2.849756 1_555
Ce5 Se22 2.854268 1_556
Ce5 Se13 2.858143 1_555
Ce5 Se29 2.879696 1_556
Ce6 Se1 2.841030 1_555
Ce6 Se28 2.844939 1_555
Ce6 Se9 2.849756 1_555
Ce6 Se20 2.854268 1_555
Ce6 Se14 2.858143 1_555
Ce6 Se30 2.879696 1_555
Ce7 Se0 2.841029 1_555
Ce7 Se29 2.844939 1_565
Ce7 Se8 2.849756 1_555
Ce7 Se21 2.854268 1_565
Ce7 Se15 2.858143 1_555
Ce7 Se31 2.879696 1_565
Ce8 Se27 2.837022 1_555
Ce8 Se6 2.838441 1_555
Ce8 Se19 2.841725 1_555
Ce8 Se14 2.850885 1_555
Ce8 Se16 2.857547 1_555
Ce8 Se0 2.884364 1_555
Ce9 Se26 2.837022 1_655
Ce9 Se7 2.838441 1_656
Ce9 Se18 2.841726 1_555
Ce9 Se15 2.850884 1_556
Ce9 Se17 2.857547 1_555
Ce9 Se1 2.884364 1_556
Ce10 Se24 2.837022 1_655
Ce10 Se5 2.838441 1_655
Ce10 Se16 2.841725 1_555
Ce10 Se13 2.850885 1_555
Ce10 Se18 2.857547 1_555
Ce10 Se2 2.884364 1_655
Ce11 Se25 2.837022 1_555
Ce11 Se4 2.838441 1_565
Ce11 Se17 2.841725 1_455
Ce11 Se12 2.850884 1_465
Ce11 Se19 2.857547 1_555
Ce11 Se3 2.884364 1_465
Ce12 Se31 2.837022 1_555
Ce12 Se2 2.838441 1_555
Ce12 Se23 2.841725 1_555
Ce12 Se10 2.850885 1_555
Ce12 Se20 2.857547 1_555
Ce12 Se4 2.884364 1_555
Ce13 Se30 2.837022 1_455
Ce13 Se3 2.838441 1_454
Ce13 Se22 2.841726 1_555
Ce13 Se11 2.850884 1_554
Ce13 Se21 2.857547 1_555
Ce13 Se5 2.884364 1_554
Ce14 Se28 2.837022 1_455
Ce14 Se1 2.838441 1_455
Ce14 Se20 2.841725 1_555
Ce14 Se9 2.850885 1_555
Ce14 Se22 2.857547 1_555
Ce14 Se6 2.884364 1_455
Ce15 Se29 2.837022 1_555
Ce15 Se0 2.838441 1_545
Ce15 Se21 2.841725 1_655
Ce15 Se8 2.850884 1_645
Ce15 Se23 2.857547 1_555
Ce15 Se7 2.884364 1_645
