# generated using pymatgen
data_Sr2Ca14Mn14Al2O47
_symmetry_space_group_name_H-M   'P 1'
_cell_length_a   10.83523303
_cell_length_b   15.12117447
_cell_length_c   10.71740098
_cell_angle_alpha   90.00761982
_cell_angle_beta   90.48813469
_cell_angle_gamma   90.00188622
_symmetry_Int_Tables_number   1
_chemical_formula_structural   Sr2Ca14Mn14Al2O47
_chemical_formula_sum   'Sr4 Ca28 Mn28 Al4 O94'
_cell_volume   1755.89076444
_cell_formula_units_Z   2
loop_
 _symmetry_equiv_pos_site_id
 _symmetry_equiv_pos_as_xyz
  1  'x, y, z'
loop_
 _atom_site_type_symbol
 _atom_site_label
 _atom_site_symmetry_multiplicity
 _atom_site_fract_x
 _atom_site_fract_y
 _atom_site_fract_z
 _atom_site_occupancy
  Sr  Sr0  1  0.01415648  0.12463136  0.50025887  1
  Sr  Sr1  1  0.48573875  0.37588921  0.00266677  1
  Sr  Sr2  1  0.23926020  0.37675673  0.24963157  1
  Sr  Sr3  1  0.26130199  0.12482757  0.25167323  1
  Ca  Ca0  1  0.01953860  0.11988967  0.99155327  1
  Ca  Ca1  1  0.02384675  0.62548301  0.49472493  1
  Ca  Ca2  1  0.02313130  0.62542715  0.99677471  1
  Ca  Ca3  1  0.52454505  0.12861070  0.49701155  1
  Ca  Ca4  1  0.52549487  0.12541987  0.99541585  1
  Ca  Ca5  1  0.52294876  0.62476076  0.49511624  1
  Ca  Ca6  1  0.52139372  0.62511662  0.99755658  1
  Ca  Ca7  1  0.47775212  0.37505116  0.50458580  1
  Ca  Ca8  1  0.47624636  0.87400812  0.00211477  1
  Ca  Ca9  1  0.47988959  0.87017421  0.50649426  1
  Ca  Ca10  1  0.97471363  0.37930506  0.00154484  1
  Ca  Ca11  1  0.97828342  0.37546601  0.50339954  1
  Ca  Ca12  1  0.97746497  0.87457788  0.00596493  1
  Ca  Ca13  1  0.97479082  0.87483715  0.50325147  1
  Ca  Ca14  1  0.22717032  0.37572613  0.74576107  1
  Ca  Ca15  1  0.22796166  0.87495236  0.24628240  1
  Ca  Ca16  1  0.22873794  0.87500823  0.74847559  1
  Ca  Ca17  1  0.72929529  0.37323475  0.24581722  1
  Ca  Ca18  1  0.72819096  0.37462308  0.74557649  1
  Ca  Ca19  1  0.73117083  0.87342841  0.24587940  1
  Ca  Ca20  1  0.72713418  0.87558625  0.74434972  1
  Ca  Ca21  1  0.27152161  0.12506035  0.75109765  1
  Ca  Ca22  1  0.27326493  0.62576684  0.25383527  1
  Ca  Ca23  1  0.27286174  0.62561795  0.75460580  1
  Ca  Ca24  1  0.76734335  0.12168415  0.25453048  1
  Ca  Ca25  1  0.77249198  0.12506031  0.75518602  1
  Ca  Ca26  1  0.77224154  0.62505539  0.25440359  1
  Ca  Ca27  1  0.77222354  0.62516606  0.75491547  1
  Mn  Mn0  1  0.00122256  0.00083943  0.24930496  1
  Mn  Mn1  1  0.99739268  0.99735353  0.75321978  1
  Mn  Mn2  1  0.99954677  0.49944466  0.24974369  1
  Mn  Mn3  1  0.99982255  0.50062598  0.74909133  1
  Mn  Mn4  1  0.49834084  0.99956116  0.74793866  1
  Mn  Mn5  1  0.50252996  0.50243390  0.25069139  1
  Mn  Mn6  1  0.50018732  0.50061595  0.74783448  1
  Mn  Mn7  1  0.25088718  0.00133400  0.00118534  1
  Mn  Mn8  1  0.24856648  0.49947807  0.99847973  1
  Mn  Mn9  1  0.24993079  0.50140796  0.50225753  1
  Mn  Mn10  1  0.75107060  0.99843860  0.99637290  1
  Mn  Mn11  1  0.74530162  0.99912512  0.49813618  1
  Mn  Mn12  1  0.75129795  0.50176754  0.00053568  1
  Mn  Mn13  1  0.75042369  0.50018191  0.50052064  1
  Mn  Mn14  1  0.24990823  0.24843629  0.50069180  1
  Mn  Mn15  1  0.24967618  0.75010131  0.00021255  1
  Mn  Mn16  1  0.25090631  0.75227312  0.49936404  1
  Mn  Mn17  1  0.75454391  0.24903318  0.00192755  1
  Mn  Mn18  1  0.74739917  0.25057095  0.50286590  1
  Mn  Mn19  1  0.74990472  0.75033652  0.99956413  1
  Mn  Mn20  1  0.75030931  0.74951678  0.50042061  1
  Mn  Mn21  1  0.00180577  0.25014624  0.75435459  1
  Mn  Mn22  1  0.00012695  0.74992699  0.24969135  1
  Mn  Mn23  1  -0.00000848  0.75001743  0.74995937  1
  Mn  Mn24  1  0.49966709  0.24697759  0.24947860  1
  Mn  Mn25  1  0.50282792  0.24832975  0.74676206  1
  Mn  Mn26  1  0.49992005  0.75330973  0.25128010  1
  Mn  Mn27  1  0.50016073  0.74967464  0.75058880  1
  Al  Al0  1  0.51539275  0.99744253  0.22879054  1
  Al  Al1  1  0.23016435  0.99407531  0.51563510  1
  Al  Al2  1  0.27026227  0.24569234  0.98220601  1
  Al  Al3  1  0.98244940  0.25032318  0.26935178  1
  O  O0  1  0.10672788  0.26833942  0.60850557  1
  O  O1  1  0.10410551  0.77020409  0.10308467  1
  O  O2  1  0.10446020  0.77162863  0.60287471  1
  O  O3  1  0.61192307  0.26458724  0.10973841  1
  O  O4  1  0.60272695  0.26850089  0.60105693  1
  O  O5  1  0.60457242  0.77203762  0.10398199  1
  O  O6  1  0.60532792  0.76907918  0.60475994  1
  O  O7  1  0.39584704  0.23309602  0.39596317  1
  O  O8  1  0.40084222  0.22868032  0.88645220  1
  O  O9  1  0.39643917  0.73098561  0.39740825  1
  O  O10  1  0.39602377  0.73000670  0.89701472  1
  O  O11  1  0.88312058  0.23384304  0.39703842  1
  O  O12  1  0.89750036  0.23108265  0.89916722  1
  O  O13  1  0.89558363  0.72983379  0.39677086  1
  O  O14  1  0.89581684  0.72894743  0.89667321  1
  O  O15  1  0.13568133  0.23778790  0.35594319  1
  O  O16  1  0.14129376  0.23201001  0.86443121  1
  O  O17  1  0.14653597  0.73037455  0.35291760  1
  O  O18  1  0.14638252  0.72983123  0.85278898  1
  O  O19  1  0.64434453  0.22910882  0.35468917  1
  O  O20  1  0.64802757  0.23043306  0.85339062  1
  O  O21  1  0.64597436  0.73066672  0.35400988  1
  O  O22  1  0.64543998  0.72906072  0.85377986  1
  O  O23  1  0.35616732  0.26241710  0.13567122  1
  O  O24  1  0.35295707  0.26783394  0.64742178  1
  O  O25  1  0.35385844  0.77079899  0.14723008  1
  O  O26  1  0.35472043  0.77122759  0.64713747  1
  O  O27  1  0.86987222  0.27063708  0.13863126  1
  O  O28  1  0.85497367  0.27019387  0.64775816  1
  O  O29  1  0.85411060  0.77053031  0.14630936  1
  O  O30  1  0.85456795  0.77114559  0.64679670  1
  O  O31  1  0.35808487  0.48736731  0.14217214  1
  O  O32  1  0.35337356  0.48139645  0.64785944  1
  O  O33  1  0.35987719  0.98194817  0.14905710  1
  O  O34  1  0.35844593  0.98034098  0.63540965  1
  O  O35  1  0.85385902  0.47983799  0.14636476  1
  O  O36  1  0.85393510  0.47933046  0.64688519  1
  O  O37  1  0.85538281  0.98000377  0.14499451  1
  O  O38  1  0.85270958  0.98021929  0.64592880  1
  O  O39  1  0.14416409  0.01183940  0.36215180  1
  O  O40  1  0.14644447  0.01870695  0.85360823  1
  O  O41  1  0.14426977  0.52150610  0.35545374  1
  O  O42  1  0.14562884  0.52067732  0.85187295  1
  O  O43  1  0.63040551  0.02004374  0.36001895  1
  O  O44  1  0.64567076  0.02080687  0.85074253  1
  O  O45  1  0.64604858  0.52149820  0.35478895  1
  O  O46  1  0.64467637  0.52049533  0.85450740  1
  O  O47  1  0.39556366  0.02086810  0.89497566  1
  O  O48  1  0.39469072  0.51951113  0.39606290  1
  O  O49  1  0.39340362  0.51954238  0.89374112  1
  O  O50  1  0.88691990  0.01779097  0.38883156  1
  O  O51  1  0.89508909  0.01786799  0.89668786  1
  O  O52  1  0.89621954  0.51891097  0.39715504  1
  O  O53  1  0.89641832  0.51957145  0.89755906  1
  O  O54  1  0.10168458  0.48260454  0.10178854  1
  O  O55  1  0.10337778  0.48024750  0.60393796  1
  O  O56  1  0.10604641  0.98160324  0.10487328  1
  O  O57  1  0.09995738  0.97838381  0.61282201  1
  O  O58  1  0.61031457  0.48464733  0.10919990  1
  O  O59  1  0.60415805  0.48123841  0.60219062  1
  O  O60  1  0.61072679  0.97897408  0.09699507  1
  O  O61  1  0.60230429  0.97888078  0.60171101  1
  O  O62  1  0.00750194  0.37271182  0.27705578  1
  O  O63  1  0.00956721  0.37575754  0.78919461  1
  O  O64  1  0.00906459  0.87466236  0.28799863  1
  O  O65  1  0.00965499  0.87367573  0.79259640  1
  O  O66  1  0.50750477  0.37495354  0.28517696  1
  O  O67  1  0.51074877  0.37490330  0.77909538  1
  O  O68  1  0.50680882  0.88022136  0.28833247  1
  O  O69  1  0.50997630  0.87486410  0.78880463  1
  O  O70  1  0.49231701  0.11975178  0.22262728  1
  O  O71  1  0.49123511  0.12405657  0.70810003  1
  O  O72  1  0.49133336  0.62762776  0.21290308  1
  O  O73  1  0.48967226  0.62532988  0.70984657  1
  O  O74  1  0.99671190  0.13043734  0.21454316  1
  O  O75  1  0.99018554  0.12460145  0.72263443  1
  O  O76  1  0.98901422  0.62493536  0.21124040  1
  O  O77  1  0.98893140  0.62516022  0.70966119  1
  O  O78  1  0.23701179  0.12878988  0.02775752  1
  O  O79  1  0.25735846  0.11856193  0.52450121  1
  O  O80  1  0.23944335  0.62547528  0.03817295  1
  O  O81  1  0.24086323  0.62645878  0.53976165  1
  O  O82  1  0.74252111  0.12418726  0.03868950  1
  O  O83  1  0.74086705  0.12471070  0.54037950  1
  O  O84  1  0.74069534  0.62616886  0.03935004  1
  O  O85  1  0.74081044  0.62524111  0.53985517  1
  O  O86  1  0.26011342  0.37539428  0.47247770  1
  O  O87  1  0.24222478  0.36977888  0.97361615  1
  O  O88  1  0.26328848  0.87876144  0.46266169  1
  O  O89  1  0.25999241  0.87578964  0.96226561  1
  O  O90  1  0.75822183  0.37594275  0.46177187  1
  O  O91  1  0.75621722  0.37567256  0.96211370  1
  O  O92  1  0.75822062  0.87453735  0.46040162  1
  O  O93  1  0.76207295  0.87419789  0.95777805  1
loop_
_geom_bond_atom_site_label_1
_geom_bond_atom_site_label_2
_geom_bond_distance
_geom_bond_site_symmetry_2
Ca0 O51 2.282096 1_455
Ca0 O12 2.352481 1_455
Ca0 O78 2.388629 1_556
Ca0 O74 2.409994 1_456
Ca0 O40 2.539992 1_555
Ca0 O16 2.549909 1_555
Ca0 O56 2.589885 1_546
Ca1 O77 2.337601 1_455
Ca1 O13 2.345007 1_455
Ca1 O52 2.361671 1_455
Ca1 O81 2.396465 1_555
Ca1 O41 2.536757 1_555
Ca1 O17 2.574415 1_555
Ca1 O55 2.630443 1_555
Ca1 O2 2.640452 1_555
Ca2 O76 2.331172 1_456
Ca2 O14 2.340858 1_455
Ca2 O53 2.356344 1_455
Ca2 O80 2.381700 1_556
Ca2 O54 2.576753 1_556
Ca2 O18 2.587029 1_555
Ca2 O42 2.591696 1_555
Ca2 O1 2.615856 1_556
Ca3 O71 2.295005 1_555
Ca3 O7 2.363995 1_555
Ca3 O83 2.386384 1_555
Ca3 O43 2.488877 1_555
Ca3 O19 2.520937 1_555
Ca3 O4 2.533519 1_555
Ca3 O61 2.660790 1_545
Ca3 O79 2.916436 1_555
Ca3 O70 2.961404 1_555
Ca4 O8 2.366386 1_555
Ca4 O47 2.369331 1_555
Ca4 O82 2.393022 1_556
Ca4 O70 2.466037 1_556
Ca4 O44 2.576019 1_555
Ca4 O20 2.576055 1_555
Ca4 O3 2.605036 1_556
Ca4 O60 2.631618 1_546
Ca5 O73 2.332472 1_555
Ca5 O9 2.351960 1_555
Ca5 O48 2.359110 1_555
Ca5 O85 2.404791 1_555
Ca5 O45 2.552006 1_555
Ca5 O21 2.581348 1_555
Ca5 O59 2.604730 1_555
Ca5 O6 2.630812 1_555
Ca6 O72 2.333875 1_556
Ca6 O10 2.344704 1_555
Ca6 O49 2.383857 1_555
Ca6 O84 2.414331 1_556
Ca6 O46 2.583002 1_555
Ca6 O22 2.585953 1_555
Ca6 O58 2.617779 1_556
Ca6 O5 2.651511 1_556
Ca7 O4 2.339924 1_555
Ca7 O59 2.350183 1_555
Ca7 O66 2.376207 1_555
Ca7 O86 2.380244 1_555
Ca7 O7 2.594615 1_555
Ca7 O32 2.606657 1_555
Ca7 O24 2.614590 1_555
Ca7 O48 2.630083 1_555
Ca8 O69 2.318269 1_554
Ca8 O5 2.340401 1_555
Ca8 O60 2.377109 1_555
Ca8 O89 2.378337 1_554
Ca8 O25 2.578495 1_555
Ca8 O10 2.597740 1_554
Ca8 O33 2.601395 1_555
Ca8 O47 2.645360 1_564
Ca9 O6 2.295529 1_555
Ca9 O61 2.340730 1_555
Ca9 O68 2.363622 1_555
Ca9 O88 2.393083 1_555
Ca9 O26 2.526916 1_555
Ca9 O34 2.538899 1_555
Ca9 O9 2.568146 1_555
Ca10 O63 2.310750 1_654
Ca10 O54 2.336889 1_655
Ca10 O91 2.401960 1_554
Ca10 O27 2.485569 1_555
Ca10 O53 2.538692 1_554
Ca10 O35 2.543388 1_555
Ca10 O12 2.628846 1_554
Ca10 O87 2.920053 1_654
Ca10 O62 2.972736 1_655
Ca11 O55 2.341605 1_655
Ca11 O0 2.409098 1_655
Ca11 O90 2.422070 1_555
Ca11 O62 2.449410 1_655
Ca11 O36 2.584875 1_555
Ca11 O28 2.597786 1_555
Ca11 O52 2.602986 1_555
Ca11 O11 2.632075 1_555
Ca12 O65 2.316176 1_654
Ca12 O1 2.330970 1_655
Ca12 O56 2.378656 1_655
Ca12 O93 2.385987 1_554
Ca12 O37 2.558207 1_555
Ca12 O29 2.561038 1_555
Ca12 O51 2.616475 1_564
Ca12 O14 2.642998 1_554
Ca13 O64 2.339773 1_655
Ca13 O2 2.350450 1_655
Ca13 O57 2.375312 1_655
Ca13 O92 2.387265 1_555
Ca13 O30 2.560612 1_555
Ca13 O38 2.580927 1_555
Ca13 O13 2.613234 1_555
Ca13 O50 2.657792 1_565
Ca14 O32 2.355574 1_555
Ca14 O24 2.377853 1_555
Ca14 O63 2.407180 1_555
Ca14 O87 2.447734 1_555
Ca14 O0 2.543673 1_555
Ca14 O55 2.563872 1_555
Ca14 O42 2.625766 1_555
Ca14 O16 2.688263 1_555
Ca15 O25 2.343616 1_555
Ca15 O88 2.347880 1_555
Ca15 O33 2.402509 1_555
Ca15 O64 2.417316 1_555
Ca15 O56 2.570852 1_555
Ca15 O1 2.574729 1_555
Ca15 O39 2.582562 1_565
Ca15 O17 2.623287 1_555
Ca16 O89 2.313337 1_555
Ca16 O26 2.351710 1_555
Ca16 O65 2.424484 1_555
Ca16 O34 2.451498 1_555
Ca16 O57 2.543697 1_555
Ca16 O2 2.579804 1_555
Ca16 O40 2.608198 1_565
Ca16 O18 2.623500 1_555
Ca17 O90 2.333304 1_555
Ca17 O35 2.362408 1_555
Ca17 O66 2.443570 1_555
Ca17 O27 2.464966 1_555
Ca17 O3 2.531994 1_555
Ca17 O58 2.571505 1_555
Ca17 O19 2.641430 1_555
Ca17 O45 2.687221 1_555
Ca18 O91 2.337985 1_555
Ca18 O28 2.346047 1_555
Ca18 O36 2.346650 1_555
Ca18 O67 2.386294 1_555
Ca18 O59 2.594666 1_555
Ca18 O4 2.604884 1_555
Ca18 O20 2.619361 1_555
Ca18 O46 2.657935 1_555
Ca19 O29 2.314752 1_555
Ca19 O92 2.315307 1_555
Ca19 O37 2.366979 1_555
Ca19 O68 2.479162 1_555
Ca19 O5 2.551198 1_555
Ca19 O60 2.600328 1_555
Ca19 O21 2.621833 1_555
Ca19 O43 2.761474 1_565
Ca20 O93 2.315426 1_555
Ca20 O38 2.343503 1_555
Ca20 O30 2.349047 1_555
Ca20 O69 2.404708 1_555
Ca20 O6 2.557211 1_555
Ca20 O61 2.563509 1_555
Ca20 O44 2.630192 1_565
Ca20 O22 2.662013 1_555
Ca21 O40 2.378165 1_555
Ca21 O71 2.428737 1_555
Ca21 O79 2.434035 1_555
Ca21 O16 2.471962 1_555
Ca21 O8 2.547047 1_555
Ca21 O47 2.575240 1_555
Ca21 O24 2.586753 1_555
Ca21 O34 2.689321 1_545
Ca22 O80 2.337129 1_555
Ca22 O17 2.353668 1_555
Ca22 O41 2.377266 1_555
Ca22 O72 2.407037 1_555
Ca22 O48 2.569566 1_555
Ca22 O9 2.577693 1_555
Ca22 O31 2.583541 1_555
Ca22 O25 2.625829 1_555
Ca23 O81 2.325642 1_555
Ca23 O18 2.343684 1_555
Ca23 O42 2.351603 1_555
Ca23 O73 2.401675 1_555
Ca23 O49 2.543589 1_555
Ca23 O10 2.562504 1_555
Ca23 O32 2.615761 1_555
Ca23 O26 2.641803 1_555
Ca24 O82 2.326873 1_555
Ca24 O19 2.364552 1_555
Ca24 O43 2.422957 1_555
Ca24 O50 2.487447 1_555
Ca24 O74 2.529002 1_555
Ca24 O11 2.597931 1_555
Ca24 O37 2.626105 1_545
Ca24 O27 2.806101 1_555
Ca25 O83 2.324646 1_555
Ca25 O44 2.333770 1_555
Ca25 O20 2.342894 1_555
Ca25 O75 2.387369 1_555
Ca25 O51 2.580336 1_555
Ca25 O12 2.598000 1_555
Ca25 O38 2.634428 1_545
Ca25 O28 2.637919 1_555
Ca26 O84 2.327204 1_555
Ca26 O45 2.346172 1_555
Ca26 O21 2.363530 1_555
Ca26 O76 2.397768 1_555
Ca26 O13 2.566879 1_555
Ca26 O52 2.585942 1_555
Ca26 O35 2.638461 1_555
Ca26 O29 2.643096 1_555
Ca27 O85 2.327013 1_555
Ca27 O22 2.345717 1_555
Ca27 O46 2.362144 1_555
Ca27 O77 2.401691 1_555
Ca27 O14 2.555152 1_555
Ca27 O53 2.581322 1_555
Ca27 O36 2.646550 1_555
Ca27 O30 2.651314 1_555
Mn0 O56 1.949508 1_545
Mn0 O37 1.953426 1_445
Mn0 O64 1.954244 1_545
Mn0 O39 1.963972 1_555
Mn0 O50 1.966510 1_455
Mn0 O74 1.995343 1_455
Mn1 O57 1.899951 1_655
Mn1 O65 1.921587 1_655
Mn1 O51 1.928244 1_565
Mn1 O75 1.953355 1_565
Mn1 O38 1.953493 1_555
Mn1 O40 1.959682 1_665
Mn2 O62 1.940422 1_655
Mn2 O35 1.943552 1_555
Mn2 O76 1.945119 1_555
Mn2 O41 1.955348 1_655
Mn2 O54 1.958019 1_655
Mn2 O52 1.966242 1_555
Mn3 O77 1.933382 1_555
Mn3 O63 1.939194 1_655
Mn3 O42 1.942031 1_655
Mn3 O36 1.942323 1_555
Mn3 O55 1.950302 1_655
Mn3 O53 1.974726 1_555
Mn4 O71 1.931777 1_565
Mn4 O69 1.939683 1_555
Mn4 O34 1.950720 1_555
Mn4 O44 1.958418 1_565
Mn4 O61 1.962841 1_555
Mn4 O47 1.963937 1_565
Mn5 O45 1.927775 1_555
Mn5 O72 1.939552 1_555
Mn5 O58 1.940588 1_555
Mn5 O31 1.955247 1_555
Mn5 O66 1.963469 1_555
Mn5 O48 1.972384 1_555
Mn6 O32 1.932325 1_555
Mn6 O73 1.932482 1_555
Mn6 O67 1.933490 1_555
Mn6 O46 1.953917 1_555
Mn6 O59 1.954817 1_555
Mn6 O49 1.973988 1_555
Mn7 O89 1.946295 1_544
Mn7 O56 1.953628 1_545
Mn7 O78 1.954156 1_555
Mn7 O40 1.954711 1_554
Mn7 O47 1.967435 1_554
Mn7 O33 1.990071 1_545
Mn8 O31 1.944806 1_556
Mn8 O42 1.945732 1_555
Mn8 O80 1.954774 1_556
Mn8 O49 1.960875 1_555
Mn8 O54 1.963146 1_556
Mn8 O87 1.980301 1_555
Mn9 O86 1.935284 1_555
Mn9 O81 1.935783 1_555
Mn9 O32 1.937329 1_555
Mn9 O55 1.959852 1_555
Mn9 O41 1.961625 1_555
Mn9 O48 1.964933 1_555
Mn10 O60 1.894727 1_556
Mn10 O51 1.921264 1_565
Mn10 O93 1.927521 1_555
Mn10 O44 1.955624 1_565
Mn10 O82 1.957126 1_566
Mn10 O37 1.965136 1_556
Mn11 O92 1.932112 1_555
Mn11 O61 1.938030 1_555
Mn11 O43 1.951873 1_565
Mn11 O83 1.952853 1_565
Mn11 O50 1.958894 1_565
Mn11 O38 1.978326 1_555
Mn12 O84 1.930124 1_555
Mn12 O35 1.938592 1_555
Mn12 O58 1.946072 1_555
Mn12 O53 1.947461 1_554
Mn12 O91 1.951435 1_554
Mn12 O46 1.957942 1_554
Mn13 O90 1.925954 1_555
Mn13 O85 1.940401 1_555
Mn13 O36 1.946321 1_555
Mn13 O45 1.947403 1_555
Mn13 O59 1.952051 1_555
Mn13 O52 1.957773 1_555
Mn14 O24 1.943098 1_555
Mn14 O86 1.946748 1_555
Mn14 O7 1.960683 1_555
Mn14 O0 1.965456 1_555
Mn14 O79 1.981954 1_555
Mn14 O15 1.982824 1_555
Mn15 O80 1.931341 1_555
Mn15 O89 1.947041 1_554
Mn15 O18 1.952611 1_554
Mn15 O25 1.955615 1_555
Mn15 O1 1.955858 1_555
Mn15 O10 1.964661 1_554
Mn16 O9 1.952810 1_555
Mn16 O81 1.954395 1_555
Mn16 O17 1.954875 1_555
Mn16 O26 1.955810 1_555
Mn16 O88 1.957562 1_555
Mn16 O2 1.965745 1_555
Mn17 O12 1.927408 1_554
Mn17 O82 1.933160 1_555
Mn17 O27 1.945105 1_555
Mn17 O3 1.951617 1_555
Mn17 O91 1.962073 1_554
Mn17 O20 1.978361 1_554
Mn18 O11 1.881843 1_555
Mn18 O4 1.914745 1_555
Mn18 O83 1.946620 1_555
Mn18 O90 1.950064 1_555
Mn18 O28 1.956290 1_555
Mn18 O19 1.960549 1_555
Mn19 O84 1.928195 1_556
Mn19 O93 1.930549 1_555
Mn19 O22 1.948227 1_555
Mn19 O29 1.952219 1_556
Mn19 O14 1.962087 1_555
Mn19 O5 1.967158 1_556
Mn20 O85 1.929125 1_555
Mn20 O92 1.940609 1_555
Mn20 O21 1.947076 1_555
Mn20 O30 1.952894 1_555
Mn20 O13 1.957052 1_555
Mn20 O6 1.958469 1_555
Mn21 O16 1.928989 1_555
Mn21 O75 1.932452 1_455
Mn21 O63 1.937381 1_555
Mn21 O12 1.949134 1_455
Mn21 O0 1.960063 1_555
Mn21 O28 1.974175 1_455
Mn22 O64 1.932507 1_555
Mn22 O76 1.937893 1_455
Mn22 O29 1.948861 1_455
Mn22 O17 1.948885 1_555
Mn22 O1 1.965295 1_555
Mn22 O13 1.972491 1_455
Mn23 O65 1.927457 1_555
Mn23 O77 1.940174 1_455
Mn23 O30 1.943648 1_455
Mn23 O18 1.947826 1_555
Mn23 O14 1.969356 1_455
Mn23 O2 1.975735 1_555
Mn24 O19 1.942126 1_555
Mn24 O70 1.946697 1_555
Mn24 O7 1.950474 1_555
Mn24 O3 1.955613 1_555
Mn24 O66 1.974239 1_555
Mn24 O23 1.981811 1_555
Mn25 O8 1.891833 1_555
Mn25 O71 1.928105 1_555
Mn25 O4 1.931871 1_555
Mn25 O67 1.946773 1_555
Mn25 O20 1.955465 1_555
Mn25 O24 1.956569 1_555
Mn26 O25 1.946325 1_555
Mn26 O72 1.946458 1_555
Mn26 O21 1.950456 1_555
Mn26 O68 1.960946 1_555
Mn26 O9 1.963130 1_555
Mn26 O5 1.971990 1_555
Mn27 O73 1.933339 1_555
Mn27 O69 1.939483 1_555
Mn27 O22 1.941295 1_555
Mn27 O26 1.946600 1_555
Mn27 O10 1.963316 1_555
Mn27 O6 1.964103 1_555
Al0 O60 1.779032 1_555
Al0 O70 1.867394 1_565
Al0 O68 1.886532 1_555
Al0 O33 1.897339 1_555
Al0 O43 1.902053 1_565
Al1 O57 1.776715 1_555
Al1 O88 1.869442 1_555
Al1 O34 1.895422 1_555
Al1 O39 1.902713 1_565
Al1 O79 1.907527 1_565
Al2 O8 1.773657 1_555
Al2 O78 1.869783 1_556
Al2 O16 1.886438 1_555
Al2 O23 1.899825 1_556
Al2 O87 1.902893 1_555
Al3 O11 1.765869 1_555
Al3 O62 1.872162 1_655
Al3 O27 1.875112 1_555
Al3 O15 1.904626 1_655
Al3 O74 1.912199 1_555
O0 Sr0 2.655824 1_555
O3 Sr1 2.447986 1_555
O7 Sr3 2.675380 1_555
O7 Sr2 3.164327 1_555
O8 Sr1 2.707773 1_556
O11 Sr0 2.437350 1_655
O15 Sr3 2.458583 1_555
O15 Sr2 2.644956 1_555
O15 Sr0 2.662529 1_555
O23 Sr2 2.472144 1_555
O23 Sr3 2.636866 1_555
O23 Sr1 2.642281 1_555
O31 Sr2 2.409796 1_555
O31 Sr1 2.650433 1_555
O33 Sr3 2.652854 1_565
O39 Sr3 2.440879 1_555
O39 Sr0 2.668159 1_555
O41 Sr2 2.675023 1_555
O48 Sr2 3.148432 1_555
O49 Sr1 2.657660 1_556
O50 Sr0 2.430654 1_655
O54 Sr2 2.693515 1_555
O57 Sr0 2.681759 1_565
O58 Sr1 2.408990 1_555
O62 Sr2 2.531521 1_555
O66 Sr2 2.928261 1_555
O67 Sr1 2.413717 1_556
O70 Sr3 2.526182 1_555
O74 Sr3 2.892270 1_655
O75 Sr0 2.399598 1_655
O78 Sr3 2.412706 1_555
O79 Sr0 2.647319 1_555
O79 Sr3 2.926230 1_555
O86 Sr2 2.397170 1_555
O87 Sr1 2.655804 1_556
O87 Sr2 2.960483 1_556
