# generated using pymatgen
data_BeCrFe2
_symmetry_space_group_name_H-M   'P 1'
_cell_length_a   3.79904521
_cell_length_b   3.79904521
_cell_length_c   3.79904521
_cell_angle_alpha   60.00000000
_cell_angle_beta   60.00000000
_cell_angle_gamma   60.00000000
_symmetry_Int_Tables_number   1
_chemical_formula_structural   BeCrFe2
_chemical_formula_sum   'Be1 Cr1 Fe2'
_cell_volume   38.77112365
_cell_formula_units_Z   1
loop_
 _symmetry_equiv_pos_site_id
 _symmetry_equiv_pos_as_xyz
  1  'x, y, z'
loop_
 _atom_site_type_symbol
 _atom_site_label
 _atom_site_symmetry_multiplicity
 _atom_site_fract_x
 _atom_site_fract_y
 _atom_site_fract_z
 _atom_site_occupancy
  Be  Be0  1  0.50000000  0.50000000  0.50000000  1
  Cr  Cr0  1  0.00000000  -0.00000000  0.00000000  1
  Fe  Fe0  1  0.75000000  0.75000000  0.75000000  1
  Fe  Fe1  1  0.25000000  0.25000000  0.25000000  1
loop_
_geom_bond_atom_site_label_1
_geom_bond_atom_site_label_2
_geom_bond_distance
_geom_bond_site_symmetry_2
Be0 Fe1 2.326431 1_555
Be0 Fe1 2.326431 1_565
Be0 Fe1 2.326431 1_655
Be0 Fe0 2.326431 1_545
Be0 Fe0 2.326431 1_555
Be0 Fe0 2.326431 1_455
Be0 Fe0 2.326431 1_554
Be0 Fe1 2.326431 1_556
Cr0 Fe0 2.326431 1_454
Cr0 Fe1 2.326431 1_555
Cr0 Fe1 2.326431 1_545
Cr0 Fe1 2.326431 1_455
Cr0 Fe1 2.326431 1_554
Cr0 Fe0 2.326431 1_444
Cr0 Fe0 2.326431 1_544
Cr0 Fe0 2.326431 1_445
