# generated using pymatgen
data_NdCrO3
_symmetry_space_group_name_H-M   'P 1'
_cell_length_a   3.90191000
_cell_length_b   3.90191000
_cell_length_c   3.90191000
_cell_angle_alpha   90.00000000
_cell_angle_beta   90.00000000
_cell_angle_gamma   90.00000000
_symmetry_Int_Tables_number   1
_chemical_formula_structural   NdCrO3
_chemical_formula_sum   'Nd1 Cr1 O3'
_cell_volume   59.40619599
_cell_formula_units_Z   1
loop_
 _symmetry_equiv_pos_site_id
 _symmetry_equiv_pos_as_xyz
  1  'x, y, z'
loop_
 _atom_site_type_symbol
 _atom_site_label
 _atom_site_symmetry_multiplicity
 _atom_site_fract_x
 _atom_site_fract_y
 _atom_site_fract_z
 _atom_site_occupancy
  Nd  Nd0  1  0.00000000  0.00000000  0.00000000  1
  Cr  Cr0  1  0.50000000  0.50000000  0.50000000  1
  O  O0  1  0.00000000  0.50000000  0.50000000  1
  O  O1  1  0.50000000  0.00000000  0.50000000  1
  O  O2  1  0.50000000  0.50000000  0.00000000  1
loop_
_geom_bond_atom_site_label_1
_geom_bond_atom_site_label_2
_geom_bond_distance
_geom_bond_site_symmetry_2
Nd0 O0 2.759067 1_545
Nd0 O2 2.759067 1_555
Nd0 O2 2.759067 1_445
Nd0 O0 2.759067 1_554
Nd0 O2 2.759067 1_545
Nd0 O1 2.759067 1_455
Nd0 O1 2.759067 1_454
Nd0 O2 2.759067 1_455
Nd0 O0 2.759067 1_544
Nd0 O1 2.759067 1_555
Nd0 O0 2.759067 1_555
Nd0 O1 2.759067 1_554
Cr0 O0 1.950955 1_555
Cr0 O0 1.950955 1_655
Cr0 O2 1.950955 1_555
Cr0 O2 1.950955 1_556
Cr0 O1 1.950955 1_565
Cr0 O1 1.950955 1_555
