# generated using pymatgen
data_Y2Mg
_symmetry_space_group_name_H-M   'P 1'
_cell_length_a   6.66255475
_cell_length_b   6.66255475
_cell_length_c   6.66255429
_cell_angle_alpha   53.53789647
_cell_angle_beta   53.53789647
_cell_angle_gamma   53.53789830
_symmetry_Int_Tables_number   1
_chemical_formula_structural   Y2Mg
_chemical_formula_sum   'Y4 Mg2'
_cell_volume   177.50820372
_cell_formula_units_Z   2
loop_
 _symmetry_equiv_pos_site_id
 _symmetry_equiv_pos_as_xyz
  1  'x, y, z'
loop_
 _atom_site_type_symbol
 _atom_site_label
 _atom_site_symmetry_multiplicity
 _atom_site_fract_x
 _atom_site_fract_y
 _atom_site_fract_z
 _atom_site_occupancy
  Y  Y0  1  0.00000000  0.67268100  0.32731900  1
  Y  Y1  1  0.32731900  0.00000000  0.67268100  1
  Y  Y2  1  0.50000000  0.50000000  0.50000000  1
  Y  Y3  1  0.67268100  0.32731900  0.00000000  1
  Mg  Mg0  1  0.16677000  0.16677000  0.16677000  1
  Mg  Mg1  1  0.83323000  0.83323000  0.83323000  1
loop_
_geom_bond_atom_site_label_1
_geom_bond_atom_site_label_2
_geom_bond_distance
_geom_bond_site_symmetry_2
Y0 Y1 3.402475 1_564
Y0 Y3 3.402475 1_465
Y0 Y2 3.488759 1_555
Y0 Y2 3.488759 1_455
Y0 Y3 3.496673 1_456
Y0 Y1 3.496673 1_555
Y0 Y1 3.496673 1_465
Y0 Y3 3.496673 1_555
Y1 Y3 3.402475 1_456
Y1 Y2 3.488759 1_545
Y1 Y2 3.488759 1_555
Y1 Y3 3.496673 1_555
Y1 Y3 3.496673 1_546
Y2 Y3 3.488758 1_556
Y2 Y3 3.488758 1_555
Mg0 Y1 3.459024 1_554
Mg0 Y3 3.459025 1_455
Mg0 Y0 3.459025 1_545
Mg0 Y2 3.464994 1_554
Mg0 Y2 3.464995 1_545
Mg0 Y2 3.464995 1_455
Mg0 Mg1 3.464996 1_445
Mg0 Mg1 3.464996 1_454
Mg0 Mg1 3.464996 1_544
Mg0 Y1 3.487320 1_555
Mg0 Y0 3.487320 1_555
Mg0 Y3 3.487320 1_555
Mg1 Y0 3.459024 1_656
Mg1 Y3 3.459025 1_566
Mg1 Y1 3.459025 1_665
Mg1 Y2 3.464994 1_556
Mg1 Y2 3.464995 1_565
Mg1 Y2 3.464995 1_655
Mg1 Y0 3.487320 1_655
Mg1 Y1 3.487320 1_565
Mg1 Y3 3.487320 1_556
