# generated using pymatgen
data_Sr6La4Zn3(RuO10)2
_symmetry_space_group_name_H-M   'P 1'
_cell_length_a   19.88544748
_cell_length_b   5.64643529
_cell_length_c   6.95301347
_cell_angle_alpha   114.01242016
_cell_angle_beta   106.68091703
_cell_angle_gamma   44.83591570
_symmetry_Int_Tables_number   1
_chemical_formula_structural   Sr6La4Zn3(RuO10)2
_chemical_formula_sum   'Sr6 La4 Zn3 Ru2 O20'
_cell_volume   502.81416495
_cell_formula_units_Z   1
loop_
 _symmetry_equiv_pos_site_id
 _symmetry_equiv_pos_as_xyz
  1  'x, y, z'
loop_
 _atom_site_type_symbol
 _atom_site_label
 _atom_site_symmetry_multiplicity
 _atom_site_fract_x
 _atom_site_fract_y
 _atom_site_fract_z
 _atom_site_occupancy
  Sr  Sr0  1  0.39928300  0.35667000  0.71415400  1
  Sr  Sr1  1  0.40012700  0.64588400  0.28692300  1
  Sr  Sr2  1  0.60046900  0.35263800  0.71342800  1
  Sr  Sr3  1  0.80278800  0.34766600  0.71497100  1
  Sr  Sr4  1  0.79940300  0.64651700  0.28495500  1
  Sr  Sr5  1  0.00474800  0.63454600  0.27905600  1
  La  La0  1  0.19032600  0.36647500  0.72114600  1
  La  La1  1  0.19012300  0.68568300  0.27851200  1
  La  La2  1  0.60098900  0.67155800  0.28694500  1
  La  La3  1  0.00689900  0.31614100  0.72249200  1
  Zn  Zn0  1  0.99942400  0.00264400  0.00743800  1
  Zn  Zn1  1  0.20017000  0.00679300  0.01188400  1
  Zn  Zn2  1  0.59995100  0.99890700  0.99182700  1
  Ru  Ru0  1  0.39990500  0.99969300  0.99813900  1
  Ru  Ru1  1  0.80002500  0.99899900  0.99894700  1
  O  O0  1  0.10303800  0.98727500  0.99624500  1
  O  O1  1  0.00649800  0.84946000  0.65619500  1
  O  O2  1  0.10198900  0.49469100  0.99508700  1
  O  O3  1  0.20243600  0.14248200  0.36058400  1
  O  O4  1  0.30047100  0.00726700  0.00121600  1
  O  O5  1  0.19410200  0.85226000  0.63656700  1
  O  O6  1  0.30042300  0.48878300  0.99680100  1
  O  O7  1  0.40121600  0.15710600  0.32023600  1
  O  O8  1  0.49718900  0.00179600  0.99890100  1
  O  O9  1  0.39713500  0.85015700  0.68107200  1
  O  O10  1  0.49844200  0.51437800  0.00439400  1
  O  O11  1  0.59999800  0.12593900  0.33649100  1
  O  O12  1  0.70045500  0.00855900  0.00200600  1
  O  O13  1  0.59831900  0.82941600  0.64313400  1
  O  O14  1  0.70237400  0.48720200  0.99534700  1
  O  O15  1  0.79233100  0.17993200  0.32078400  1
  O  O16  1  0.89848400  0.99501300  0.99886800  1
  O  O17  1  0.80505000  0.82693100  0.67969400  1
  O  O18  1  0.89707700  0.51314800  0.00404800  1
  O  O19  1  0.00834300  0.15739200  0.36151400  1
loop_
_geom_bond_atom_site_label_1
_geom_bond_atom_site_label_2
_geom_bond_distance
_geom_bond_site_symmetry_2
La0 O3 2.297101 1_555
La0 O2 2.496530 1_555
La0 O0 2.603587 1_555
La0 O1 2.630564 1_555
La0 O5 2.666115 1_545
La0 O4 2.677430 1_556
La0 O6 2.757122 1_555
La0 O9 2.912421 1_545
La0 O5 3.083108 1_555
La1 O5 2.274984 1_555
La1 O0 2.517370 1_554
La1 O3 2.579898 1_565
La1 O19 2.604912 1_565
La1 O2 2.661995 1_554
La1 O6 2.668169 1_554
La1 O4 2.775364 1_555
La1 O7 2.974827 1_555
La1 O3 3.173668 1_555
La2 O13 2.267721 1_555
La2 O11 2.431953 1_565
La2 O14 2.628950 1_554
La2 O8 2.637444 1_564
La2 O15 2.697458 1_555
La2 O12 2.750188 1_555
La2 O10 2.766478 1_555
La2 O7 2.813567 1_565
La2 O11 3.250259 1_555
La3 O19 2.297317 1_555
La3 O1 2.489040 1_545
La3 O0 2.545338 1_545
La3 O18 2.660024 1_456
La3 O5 2.692544 1_545
La3 O2 2.697288 1_555
La3 O16 2.774337 1_455
La3 O17 2.848187 1_455
La3 O1 3.220927 1_555
O0 Zn1 1.981486 1_566
O0 Zn0 2.022832 1_466
O0 Sr5 2.696383 1_566
O1 Zn0 2.244486 1_466
O1 Sr5 2.401601 1_555
O1 Sr3 2.888432 1_465
O2 Zn1 1.979282 1_556
O2 Zn0 1.999251 1_466
O2 Sr5 2.649209 1_556
O3 Zn1 2.223002 1_555
O3 Sr1 2.816459 1_545
O3 Sr5 2.829582 1_555
O4 Ru0 1.953349 1_544
O4 Zn1 2.018991 1_555
O4 Sr1 2.709467 1_545
O4 Sr0 2.717793 1_544
O5 Zn1 2.387720 1_566
O5 Sr0 2.922509 1_555
O6 Ru0 1.949935 1_545
O6 Zn1 2.034923 1_566
O6 Sr0 2.688546 1_555
O6 Sr1 2.743899 1_556
O7 Ru0 2.045859 1_544
O7 Sr0 2.502011 1_555
O7 Sr1 2.815687 1_545
O7 Sr1 2.846671 1_555
O8 Ru0 1.941454 1_545
O8 Zn2 2.046514 1_545
O8 Sr0 2.684849 1_555
O8 Sr1 2.701528 1_556
O8 Sr2 2.708421 1_545
O9 Ru0 2.014295 1_555
O9 Sr1 2.503606 1_555
O9 Sr0 2.804728 1_565
O9 Sr0 2.857655 1_555
O9 Sr2 2.858986 1_555
O10 Ru0 1.945082 1_554
O10 Zn2 2.028652 1_544
O10 Sr1 2.681652 1_555
O10 Sr2 2.695921 1_554
O10 Sr0 2.738043 1_554
O11 Zn2 2.204124 1_544
O11 Sr2 2.404160 1_555
O11 Sr4 2.825286 1_545
O11 Sr1 2.832465 1_555
O12 Ru1 1.948179 1_544
O12 Zn2 2.018015 1_544
O12 Sr2 2.675375 1_554
O12 Sr4 2.695770 1_545
O12 Sr3 2.747687 1_544
O13 Zn2 2.214829 1_555
O13 Sr2 2.821487 1_565
O13 Sr0 2.825973 1_565
O13 Sr2 2.895467 1_555
O13 Sr3 2.904246 1_555
O14 Ru1 1.951083 1_545
O14 Zn2 2.044463 1_555
O14 Sr3 2.676129 1_555
O14 Sr2 2.686488 1_555
O14 Sr4 2.709936 1_556
O15 Ru1 2.046668 1_544
O15 Sr3 2.508315 1_555
O15 Sr4 2.821713 1_545
O15 Sr4 2.846467 1_555
O15 Sr5 2.989593 1_645
O16 Ru1 1.942162 1_555
O16 Zn0 2.021464 1_566
O16 Sr3 2.674157 1_565
O16 Sr5 2.677163 1_656
O16 Sr4 2.717783 1_566
O17 Ru1 2.028724 1_555
O17 Sr4 2.508604 1_555
O17 Sr3 2.817681 1_565
O17 Sr3 2.846851 1_555
O17 Sr2 2.875900 1_565
O18 Ru1 1.944931 1_554
O18 Zn0 2.039382 1_555
O18 Sr4 2.657202 1_555
O18 Sr3 2.687239 1_554
O18 Sr5 2.715659 1_655
O19 Zn0 2.252608 1_455
O19 Sr5 2.819155 1_545
O19 Sr5 2.924570 1_555
O19 Sr4 2.970899 1_455
