# generated using pymatgen
data_NbCrO4
_symmetry_space_group_name_H-M   'P 1'
_cell_length_a   6.50709178
_cell_length_b   6.50718280
_cell_length_c   7.77473351
_cell_angle_alpha   72.65022568
_cell_angle_beta   107.35010026
_cell_angle_gamma   95.06762436
_symmetry_Int_Tables_number   1
_chemical_formula_structural   NbCrO4
_chemical_formula_sum   'Nb4 Cr4 O16'
_cell_volume   299.92893456
_cell_formula_units_Z   4
loop_
 _symmetry_equiv_pos_site_id
 _symmetry_equiv_pos_as_xyz
  1  'x, y, z'
loop_
 _atom_site_type_symbol
 _atom_site_label
 _atom_site_symmetry_multiplicity
 _atom_site_fract_x
 _atom_site_fract_y
 _atom_site_fract_z
 _atom_site_occupancy
  Nb  Nb0  1  0.22394778  0.77606031  0.85889018  1
  Nb  Nb1  1  0.77605186  0.22393991  0.14110961  1
  Nb  Nb2  1  0.22301212  0.22301189  0.50000015  1
  Nb  Nb3  1  0.77698794  0.77698913  0.49999873  1
  Cr  Cr0  1  0.18108590  0.81891926  0.34064929  1
  Cr  Cr1  1  0.81891570  0.18107969  0.65935130  1
  Cr  Cr2  1  0.18148456  0.18148344  0.00000018  1
  Cr  Cr3  1  0.81851515  0.81851644  0.00000019  1
  O  O0  1  0.15311536  0.84688443  0.57819008  1
  O  O1  1  0.84688490  0.15311558  0.42180973  1
  O  O2  1  0.14692660  0.85307424  0.07035212  1
  O  O3  1  0.85307338  0.14692560  0.92964807  1
  O  O4  1  0.51272329  0.81771061  0.92541562  1
  O  O5  1  0.18227865  0.48727069  0.92541509  1
  O  O6  1  0.81772080  0.51272940  0.07458451  1
  O  O7  1  0.48727579  0.18228962  0.07458383  1
  O  O8  1  0.18229550  0.51222289  0.41475610  1
  O  O9  1  0.48778701  0.81770074  0.41476026  1
  O  O10  1  0.51221314  0.18229887  0.58523939  1
  O  O11  1  0.81770519  0.48777793  0.58524334  1
  O  O12  1  0.84831161  0.85279709  0.74686153  1
  O  O13  1  0.14720155  0.15168938  0.74686093  1
  O  O14  1  0.85279776  0.84831103  0.25313845  1
  O  O15  1  0.15168847  0.14720385  0.25313830  1
loop_
_geom_bond_atom_site_label_1
_geom_bond_atom_site_label_2
_geom_bond_distance
_geom_bond_site_symmetry_2
Nb0 O4 1.812710 1_555
Nb0 O5 1.812841 1_555
Nb0 O0 2.006319 1_555
Nb0 O2 2.057294 1_556
Nb0 O12 2.380975 1_455
Nb0 O13 2.380978 1_565
Nb1 O7 1.812714 1_555
Nb1 O6 1.812840 1_555
Nb1 O1 2.006318 1_555
Nb1 O3 2.057293 1_554
Nb1 O14 2.380977 1_545
Nb1 O15 2.380977 1_655
Nb2 O10 1.813922 1_555
Nb2 O8 1.814014 1_555
Nb2 O15 2.033556 1_555
Nb2 O13 2.033558 1_555
Nb2 O1 2.376449 1_455
Nb2 O0 2.376486 1_545
Nb3 O9 1.813920 1_555
Nb3 O11 1.814016 1_555
Nb3 O14 2.033552 1_555
Nb3 O12 2.033563 1_555
Nb3 O0 2.376449 1_655
Nb3 O1 2.376480 1_565
Cr0 O9 1.905057 1_555
Cr0 O8 1.905057 1_555
Cr0 O0 1.970720 1_555
Cr0 O2 1.991640 1_555
Cr0 O14 2.047088 1_455
Cr0 O15 2.047101 1_565
Cr1 O10 1.905066 1_555
Cr1 O11 1.905069 1_555
Cr1 O1 1.970720 1_555
Cr1 O3 1.991640 1_555
Cr1 O13 2.047073 1_655
Cr1 O12 2.047087 1_545
Cr2 O7 1.899323 1_555
Cr2 O5 1.899328 1_554
Cr2 O13 1.979597 1_554
Cr2 O15 1.979598 1_555
Cr2 O3 2.051303 1_454
Cr2 O2 2.051322 1_545
Cr3 O6 1.899327 1_555
Cr3 O4 1.899327 1_554
Cr3 O14 1.979591 1_555
Cr3 O12 1.979602 1_554
Cr3 O2 2.051304 1_655
Cr3 O3 2.051322 1_564
