# generated using pymatgen
data_Ba2LaTaO6
_symmetry_space_group_name_H-M   'P 1'
_cell_length_a   6.13586882
_cell_length_b   6.13586882
_cell_length_c   6.13586893
_cell_angle_alpha   60.69694089
_cell_angle_beta   60.69694089
_cell_angle_gamma   60.69694341
_symmetry_Int_Tables_number   1
_chemical_formula_structural   Ba2LaTaO6
_chemical_formula_sum   'Ba2 La1 Ta1 O6'
_cell_volume   165.91729790
_cell_formula_units_Z   1
loop_
 _symmetry_equiv_pos_site_id
 _symmetry_equiv_pos_as_xyz
  1  'x, y, z'
loop_
 _atom_site_type_symbol
 _atom_site_label
 _atom_site_symmetry_multiplicity
 _atom_site_fract_x
 _atom_site_fract_y
 _atom_site_fract_z
 _atom_site_occupancy
  Ba  Ba0  1  0.74767600  0.74767600  0.74767600  1
  Ba  Ba1  1  0.25232400  0.25232400  0.25232400  1
  La  La0  1  0.00000000  0.00000000  0.00000000  1
  Ta  Ta0  1  0.50000000  0.50000000  0.50000000  1
  O  O0  1  0.72320300  0.21441600  0.32910500  1
  O  O1  1  0.21441600  0.32910500  0.72320300  1
  O  O2  1  0.32910500  0.72320300  0.21441600  1
  O  O3  1  0.27679700  0.78558400  0.67089500  1
  O  O4  1  0.67089500  0.27679700  0.78558400  1
  O  O5  1  0.78558400  0.67089500  0.27679700  1
loop_
_geom_bond_atom_site_label_1
_geom_bond_atom_site_label_2
_geom_bond_distance
_geom_bond_site_symmetry_2
Ba0 O2 2.752671 1_556
Ba0 O0 2.752671 1_565
Ba0 O1 2.752671 1_655
Ba0 O4 3.031689 1_555
Ba0 O3 3.031689 1_555
Ba0 O5 3.031689 1_555
Ba0 O3 3.154568 1_655
Ba0 O4 3.154568 1_565
Ba0 O5 3.154569 1_556
Ba1 O4 2.752671 1_554
Ba1 O3 2.752671 1_545
Ba1 O5 2.752671 1_455
Ba1 O2 3.031689 1_555
Ba1 O0 3.031689 1_555
Ba1 O1 3.031689 1_555
Ba1 O0 3.154568 1_455
Ba1 O2 3.154568 1_545
Ba1 O1 3.154569 1_554
La0 O5 2.397783 1_445
La0 O1 2.397783 1_554
La0 O0 2.397784 1_455
La0 O3 2.397784 1_544
La0 O2 2.397784 1_545
La0 O4 2.397784 1_454
O0 Ta0 2.022256 1_555
O1 Ta0 2.022256 1_555
O2 Ta0 2.022256 1_555
O3 Ta0 2.022256 1_555
O4 Ta0 2.022256 1_555
O5 Ta0 2.022256 1_555
