# generated using pymatgen
data_Er5(In2Pt)2
_symmetry_space_group_name_H-M   'P 1'
_cell_length_a   3.61958788
_cell_length_b   7.96324105
_cell_length_c   18.00802820
_cell_angle_alpha   90.00000000
_cell_angle_beta   90.00000000
_cell_angle_gamma   90.00000000
_symmetry_Int_Tables_number   1
_chemical_formula_structural   Er5(In2Pt)2
_chemical_formula_sum   'Er10 In8 Pt4'
_cell_volume   519.05711626
_cell_formula_units_Z   2
loop_
 _symmetry_equiv_pos_site_id
 _symmetry_equiv_pos_as_xyz
  1  'x, y, z'
loop_
 _atom_site_type_symbol
 _atom_site_label
 _atom_site_symmetry_multiplicity
 _atom_site_fract_x
 _atom_site_fract_y
 _atom_site_fract_z
 _atom_site_occupancy
  Er  Er0  1  0.00000000  0.11445092  0.41564442  1
  Er  Er1  1  -0.00000000  0.88554908  0.58435558  1
  Er  Er2  1  0.00000000  0.38554908  0.91564442  1
  Er  Er3  1  0.00000000  0.61445092  0.08435558  1
  Er  Er4  1  0.00000000  0.24471561  0.22143055  1
  Er  Er5  1  -0.00000000  0.75528439  0.77856945  1
  Er  Er6  1  0.00000000  0.25528439  0.72143055  1
  Er  Er7  1  0.00000000  0.74471561  0.27856945  1
  Er  Er8  1  0.00000000  -0.00000000  -0.00000000  1
  Er  Er9  1  0.00000000  0.50000000  0.50000000  1
  In  In0  1  0.50000000  0.42542407  0.35205912  1
  In  In1  1  0.50000000  0.57457593  0.64794088  1
  In  In2  1  0.50000000  0.07457593  0.85205912  1
  In  In3  1  0.50000000  0.92542407  0.14794088  1
  In  In4  1  0.50000000  0.28916425  0.06760455  1
  In  In5  1  0.50000000  0.71083575  0.93239545  1
  In  In6  1  0.50000000  0.21083575  0.56760455  1
  In  In7  1  0.50000000  0.78916425  0.43239545  1
  Pt  Pt0  1  0.50000000  0.02726458  0.30408401  1
  Pt  Pt1  1  0.50000000  0.97273542  0.69591599  1
  Pt  Pt2  1  0.50000000  0.47273542  0.80408401  1
  Pt  Pt3  1  0.50000000  0.52726458  0.19591599  1
loop_
_geom_bond_atom_site_label_1
_geom_bond_atom_site_label_2
_geom_bond_distance
_geom_bond_site_symmetry_2
Er0 Pt0 2.791666 1_555
Er0 Pt0 2.791666 1_455
Er0 In7 3.174302 1_445
Er0 In7 3.174302 1_545
Er0 In0 3.273960 1_455
Er0 In0 3.273960 1_555
Er0 In6 3.369408 1_455
Er0 In6 3.369408 1_555
Er1 Pt1 2.791666 1_455
Er1 Pt1 2.791666 1_555
Er1 In6 3.174302 1_565
Er1 In6 3.174302 1_465
Er1 In1 3.273960 1_555
Er1 In1 3.273960 1_455
Er1 In7 3.369408 1_455
Er1 In7 3.369408 1_555
Er2 Pt2 2.791666 1_555
Er2 Pt2 2.791666 1_455
Er2 In5 3.174302 1_555
Er2 In5 3.174302 1_455
Er2 In2 3.273960 1_555
Er2 In2 3.273960 1_455
Er2 In4 3.369408 1_456
Er2 In4 3.369408 1_556
Er3 Pt3 2.791666 1_455
Er3 Pt3 2.791666 1_555
Er3 In4 3.174302 1_455
Er3 In4 3.174302 1_555
Er3 In3 3.273960 1_555
Er3 In3 3.273960 1_455
Er3 In5 3.369408 1_454
Er3 In5 3.369408 1_554
Er4 Pt0 2.913633 1_555
Er4 Pt0 2.913633 1_455
Er4 Pt3 2.923865 1_455
Er4 Pt3 2.923865 1_555
Er4 In0 3.298448 1_455
Er4 In0 3.298448 1_555
Er4 In4 3.327778 1_455
Er4 In4 3.327778 1_555
Er4 In3 3.389918 1_445
Er4 In3 3.389918 1_545
Er5 Pt1 2.913633 1_555
Er5 Pt1 2.913633 1_455
Er5 Pt2 2.923865 1_555
Er5 Pt2 2.923865 1_455
Er5 In1 3.298448 1_455
Er5 In1 3.298448 1_555
Er5 In5 3.327778 1_455
Er5 In5 3.327778 1_555
Er5 In2 3.389918 1_565
Er5 In2 3.389918 1_465
Er6 Pt2 2.913633 1_455
Er6 Pt2 2.913633 1_555
Er6 Pt1 2.923865 1_445
Er6 Pt1 2.923865 1_545
Er6 In2 3.298448 1_555
Er6 In2 3.298448 1_455
Er6 In6 3.327778 1_455
Er6 In6 3.327778 1_555
Er6 In1 3.389918 1_455
Er6 In1 3.389918 1_555
Er7 Pt3 2.913633 1_455
Er7 Pt3 2.913633 1_555
Er7 Pt0 2.923865 1_465
Er7 Pt0 2.923865 1_565
Er7 In3 3.298448 1_455
Er7 In3 3.298448 1_555
Er7 In7 3.327778 1_455
Er7 In7 3.327778 1_555
Er7 In0 3.389918 1_455
Er7 In0 3.389918 1_555
Er8 In4 3.171724 1_555
Er8 In5 3.171724 1_544
Er8 In5 3.171724 1_444
Er8 In4 3.171724 1_455
Er8 In2 3.274994 1_554
Er8 In2 3.274994 1_454
Er8 In3 3.274994 1_445
Er8 In3 3.274994 1_545
Er9 In6 3.171724 1_555
Er9 In7 3.171724 1_455
Er9 In7 3.171724 1_555
Er9 In6 3.171724 1_455
Er9 In0 3.274994 1_555
Er9 In0 3.274994 1_455
Er9 In1 3.274994 1_555
Er9 In1 3.274994 1_455
In0 Pt3 2.926444 1_555
In0 In7 3.237737 1_555
In0 Pt0 3.286236 1_555
In1 Pt2 2.926444 1_555
In1 In6 3.237737 1_555
In1 Pt1 3.286236 1_555
In2 Pt1 2.926444 1_545
In2 In5 3.237737 1_545
In2 Pt2 3.286236 1_555
In3 Pt0 2.926444 1_565
In3 In4 3.237737 1_565
In3 Pt3 3.286236 1_555
In4 Pt3 2.988987 1_555
In5 Pt2 2.988987 1_555
In6 Pt1 2.988987 1_545
In7 Pt0 2.988987 1_565
