# generated using pymatgen
data_RbMg14Si
_symmetry_space_group_name_H-M   'P 1'
_cell_length_a   6.41770533
_cell_length_b   6.41770480
_cell_length_c   10.88377620
_cell_angle_alpha   90.00000000
_cell_angle_beta   90.00000000
_cell_angle_gamma   120.00000276
_symmetry_Int_Tables_number   1
_chemical_formula_structural   RbMg14Si
_chemical_formula_sum   'Rb1 Mg14 Si1'
_cell_volume   388.21269392
_cell_formula_units_Z   1
loop_
 _symmetry_equiv_pos_site_id
 _symmetry_equiv_pos_as_xyz
  1  'x, y, z'
loop_
 _atom_site_type_symbol
 _atom_site_label
 _atom_site_symmetry_multiplicity
 _atom_site_fract_x
 _atom_site_fract_y
 _atom_site_fract_z
 _atom_site_occupancy
  Rb  Rb0  1  0.16666700  0.33333300  0.62500000  1
  Mg  Mg0  1  0.16071763  0.83035831  0.12500000  1
  Mg  Mg1  1  0.17370160  0.83685030  0.62500000  1
  Mg  Mg2  1  0.66964169  0.33928237  0.12500000  1
  Mg  Mg3  1  0.66314970  0.32629840  0.62500000  1
  Mg  Mg4  1  0.66964169  0.83035831  0.12500000  1
  Mg  Mg5  1  0.66314970  0.83685030  0.62500000  1
  Mg  Mg6  1  0.33376433  0.16623567  0.35566961  1
  Mg  Mg7  1  0.33376433  0.16623567  0.89433039  1
  Mg  Mg8  1  0.33376433  0.66752965  0.35566961  1
  Mg  Mg9  1  0.33376433  0.66752965  0.89433039  1
  Mg  Mg10  1  0.83247035  0.16623567  0.35566961  1
  Mg  Mg11  1  0.83247035  0.16623567  0.89433039  1
  Mg  Mg12  1  0.83333300  0.66666700  0.38348203  1
  Mg  Mg13  1  0.83333300  0.66666700  0.86651797  1
  Si  Si0  1  0.16666700  0.33333300  0.12500000  1
loop_
_geom_bond_atom_site_label_1
_geom_bond_atom_site_label_2
_geom_bond_distance
_geom_bond_site_symmetry_2
Mg0 Mg9 3.128700 1_554
Mg0 Mg8 3.128700 1_555
Mg0 Mg7 3.128706 1_564
Mg0 Mg6 3.128706 1_565
Mg0 Mg2 3.151580 1_455
Mg0 Mg4 3.151581 1_455
Mg0 Si0 3.209023 1_555
Mg0 Si0 3.209023 1_565
Mg0 Mg2 3.266124 1_565
Mg0 Mg4 3.266125 1_555
Mg0 Mg12 3.350413 1_455
Mg0 Mg13 3.350413 1_454
Mg1 Rb0 3.209091 1_555
Mg1 Rb0 3.209091 1_565
Mg1 Mg12 3.238570 1_455
Mg1 Mg13 3.238570 1_455
Mg1 Mg8 3.456150 1_555
Mg1 Mg9 3.456150 1_555
Mg1 Mg6 3.456156 1_565
Mg1 Mg7 3.456156 1_565
Mg2 Mg7 3.128706 1_554
Mg2 Mg6 3.128706 1_555
Mg2 Mg4 3.151580 1_555
Mg2 Si0 3.209023 1_655
Mg2 Si0 3.209023 1_555
Mg2 Mg4 3.266124 1_545
Mg3 Rb0 3.209091 1_655
Mg3 Rb0 3.209091 1_555
Mg3 Mg6 3.456156 1_555
Mg3 Mg7 3.456156 1_555
Mg4 Mg9 3.128706 1_554
Mg4 Mg8 3.128706 1_555
Mg4 Si0 3.209023 1_665
Mg4 Si0 3.209023 1_555
Mg5 Rb0 3.209091 1_555
Mg5 Rb0 3.209091 1_665
Mg5 Mg9 3.456156 1_555
Mg5 Mg8 3.456156 1_555
Mg6 Si0 3.122963 1_555
Mg6 Mg8 3.200548 1_545
Mg6 Mg8 3.217157 1_555
Mg6 Rb0 3.470261 1_555
Mg7 Si0 3.122963 1_556
Mg7 Mg9 3.200548 1_545
Mg7 Mg9 3.217157 1_555
Mg7 Rb0 3.470261 1_555
Mg8 Si0 3.122970 1_555
Mg8 Rb0 3.470267 1_555
Mg9 Si0 3.122970 1_556
Mg9 Rb0 3.470267 1_555
Mg10 Si0 3.122970 1_655
Mg10 Mg2 3.128700 1_555
Mg10 Mg4 3.128706 1_545
Mg10 Mg8 3.200548 1_545
Mg10 Mg6 3.200548 1_555
Mg10 Mg8 3.217157 1_655
Mg10 Mg6 3.217157 1_655
Mg10 Mg12 3.223102 1_545
Mg10 Mg12 3.223102 1_555
Mg10 Mg3 3.456150 1_555
Mg10 Mg5 3.456156 1_545
Mg10 Rb0 3.470267 1_655
Mg11 Si0 3.122970 1_656
Mg11 Mg2 3.128700 1_556
Mg11 Mg4 3.128706 1_546
Mg11 Mg9 3.200548 1_545
Mg11 Mg7 3.200548 1_555
Mg11 Mg9 3.217157 1_655
Mg11 Mg7 3.217157 1_655
Mg11 Mg13 3.223102 1_545
Mg11 Mg13 3.223102 1_555
Mg11 Mg3 3.456150 1_555
Mg11 Mg5 3.456156 1_545
Mg11 Rb0 3.470267 1_655
Mg12 Mg6 3.223102 1_555
Mg12 Mg6 3.223102 1_665
Mg12 Mg8 3.223102 1_555
Mg12 Mg8 3.223102 1_655
Mg12 Mg5 3.238564 1_555
Mg12 Mg3 3.238570 1_555
Mg12 Mg4 3.350407 1_555
Mg12 Mg2 3.350413 1_555
Mg13 Mg7 3.223102 1_555
Mg13 Mg7 3.223102 1_665
Mg13 Mg9 3.223102 1_555
Mg13 Mg9 3.223102 1_655
Mg13 Mg5 3.238564 1_555
Mg13 Mg3 3.238570 1_555
Mg13 Mg4 3.350407 1_556
Mg13 Mg2 3.350413 1_556
