# generated using pymatgen
data_Rb2Ba8Ca(Sb3O)2
_symmetry_space_group_name_H-M   'P 1'
_cell_length_a   9.32039882
_cell_length_b   9.96643668
_cell_length_c   10.50827467
_cell_angle_alpha   116.98546435
_cell_angle_beta   115.80262556
_cell_angle_gamma   93.49972784
_symmetry_Int_Tables_number   1
_chemical_formula_structural   Rb2Ba8Ca(Sb3O)2
_chemical_formula_sum   'Rb2 Ba8 Ca1 Sb6 O2'
_cell_volume   741.33903937
_cell_formula_units_Z   1
loop_
 _symmetry_equiv_pos_site_id
 _symmetry_equiv_pos_as_xyz
  1  'x, y, z'
loop_
 _atom_site_type_symbol
 _atom_site_label
 _atom_site_symmetry_multiplicity
 _atom_site_fract_x
 _atom_site_fract_y
 _atom_site_fract_z
 _atom_site_occupancy
  Rb  Rb0  1  0.04446300  0.03622200  0.05872800  1
  Rb  Rb1  1  0.49442200  0.49249600  0.00232700  1
  Ba  Ba0  1  0.49453900  0.68986800  0.69047800  1
  Ba  Ba1  1  0.19686600  0.98168300  0.67909400  1
  Ba  Ba2  1  0.79588100  0.02304800  0.33869400  1
  Ba  Ba3  1  0.06849400  0.49097400  0.67322600  1
  Ba  Ba4  1  0.51235400  0.31715000  0.30128900  1
  Ba  Ba5  1  0.68332800  0.05649200  0.69770500  1
  Ba  Ba6  1  0.96792700  0.51803300  0.25881700  1
  Ba  Ba7  1  0.27858300  0.77269300  0.26057000  1
  Ca  Ca0  1  0.75411300  0.41230600  0.74386500  1
  Sb  Sb0  1  0.86054700  0.72322500  0.06012600  1
  Sb  Sb1  1  0.62456900  0.10566900  0.01098800  1
  Sb  Sb2  1  0.08203400  0.32979100  0.93345000  1
  Sb  Sb3  1  0.38338500  0.89240100  0.00063000  1
  Sb  Sb4  1  0.33964300  0.25408700  0.54091600  1
  Sb  Sb5  1  0.75306400  0.72214000  0.48389300  1
  O  O0  1  0.77587100  0.31243700  0.51943100  1
  O  O1  1  0.25420400  0.74071300  0.48327300  1
loop_
_geom_bond_atom_site_label_1
_geom_bond_atom_site_label_2
_geom_bond_distance
_geom_bond_site_symmetry_2
Rb0 Sb0 3.475677 1_445
Rb0 Sb3 3.720670 1_545
Rb0 Sb2 3.766695 1_554
Rb0 Sb1 3.870853 1_455
Rb0 Sb4 3.886939 1_555
Rb1 Sb0 3.643028 1_555
Rb1 Sb2 3.698506 1_554
Rb1 Sb4 3.777971 1_554
Rb1 Sb5 3.853983 1_555
Rb1 Sb1 4.139591 1_555
Rb1 Sb3 4.184328 1_555
Ba0 O1 2.628569 1_555
Ba0 Sb3 3.604750 1_556
Ba0 Sb1 3.626613 1_566
Ba0 Sb0 3.740341 1_556
Ba0 Sb4 3.805532 1_555
Ba0 Sb5 3.964175 1_555
Ba1 O1 2.629970 1_555
Ba1 Sb1 3.600823 1_566
Ba1 Sb3 3.610278 1_556
Ba1 Sb5 3.807968 1_455
Ba1 Sb2 3.854133 1_565
Ba1 Sb4 4.008546 1_565
Ba2 O0 2.713518 1_555
Ba2 Sb0 3.417424 1_545
Ba2 Sb3 3.521042 1_545
Ba2 Sb1 3.610170 1_555
Ba2 Sb5 4.002228 1_545
Ba3 O0 2.485384 1_455
Ba3 Sb3 3.706919 1_556
Ba3 Sb2 3.712806 1_555
Ba3 Sb4 3.834339 1_555
Ba3 Sb5 4.219524 1_455
Ba4 O0 2.549460 1_555
Ba4 Sb1 3.471854 1_555
Ba4 Sb5 3.622845 1_555
Ba4 Sb3 3.644438 1_545
Ba4 Sb4 3.764092 1_555
Ba5 Sb5 3.363899 1_545
Ba5 Sb1 3.393497 1_556
Ba5 Sb2 3.462940 1_655
Ba5 Sb4 3.996755 1_555
Ba6 O1 2.579887 1_655
Ba6 Sb0 3.442222 1_555
Ba6 Sb2 3.732089 1_654
Ba6 Sb5 3.741230 1_555
Ba6 Sb1 3.916605 1_555
Ba7 O1 2.600164 1_555
Ba7 Sb0 3.396939 1_455
Ba7 Sb2 3.797007 1_554
Ba7 Sb3 3.869976 1_555
Ba7 Sb4 4.171489 1_565
Ba7 Sb5 4.198653 1_555
Ca0 O0 2.214630 1_555
Ca0 Sb0 3.006623 1_556
Ca0 Sb2 3.237217 1_655
Ca0 Sb4 3.315131 1_555
Sb1 Sb3 2.928581 1_545
