# generated using pymatgen
data_MgBi
_symmetry_space_group_name_H-M   'P 1'
_cell_length_a   12.34706612
_cell_length_b   12.34706612
_cell_length_c   10.64834154
_cell_angle_alpha   79.02291611
_cell_angle_beta   79.02291611
_cell_angle_gamma   33.56906847
_symmetry_Int_Tables_number   1
_chemical_formula_structural   MgBi
_chemical_formula_sum   'Mg16 Bi16'
_cell_volume   879.68003407
_cell_formula_units_Z   16
loop_
 _symmetry_equiv_pos_site_id
 _symmetry_equiv_pos_as_xyz
  1  'x, y, z'
loop_
 _atom_site_type_symbol
 _atom_site_label
 _atom_site_symmetry_multiplicity
 _atom_site_fract_x
 _atom_site_fract_y
 _atom_site_fract_z
 _atom_site_occupancy
  Mg  Mg0_0  1  0.43644900  0.43644900  0.39572150  1
  Mg  Mg0_1  1  0.43644900  0.43644900  0.89572150  1
  Mg  Mg0_2  1  0.43644900  0.93644900  0.39572150  1
  Mg  Mg0_3  1  0.43644900  0.93644900  0.89572150  1
  Mg  Mg0_4  1  0.93644900  0.43644900  0.39572150  1
  Mg  Mg0_5  1  0.93644900  0.43644900  0.89572150  1
  Mg  Mg0_6  1  0.93644900  0.93644900  0.39572150  1
  Mg  Mg0_7  1  0.93644900  0.93644900  0.89572150  1
  Mg  Mg1_0  1  0.06355100  0.06355100  0.10427850  1
  Mg  Mg1_1  1  0.06355100  0.06355100  0.60427850  1
  Mg  Mg1_2  1  0.06355100  0.56355100  0.10427850  1
  Mg  Mg1_3  1  0.06355100  0.56355100  0.60427850  1
  Mg  Mg1_4  1  0.56355100  0.06355100  0.10427850  1
  Mg  Mg1_5  1  0.56355100  0.06355100  0.60427850  1
  Mg  Mg1_6  1  0.56355100  0.56355100  0.10427850  1
  Mg  Mg1_7  1  0.56355100  0.56355100  0.60427850  1
  Bi  Bi0_0  1  0.30922450  0.30922450  0.36098800  1
  Bi  Bi0_1  1  0.30922450  0.30922450  0.86098800  1
  Bi  Bi0_2  1  0.30922450  0.80922450  0.36098800  1
  Bi  Bi0_3  1  0.30922450  0.80922450  0.86098800  1
  Bi  Bi0_4  1  0.80922450  0.30922450  0.36098800  1
  Bi  Bi0_5  1  0.80922450  0.30922450  0.86098800  1
  Bi  Bi0_6  1  0.80922450  0.80922450  0.36098800  1
  Bi  Bi0_7  1  0.80922450  0.80922450  0.86098800  1
  Bi  Bi1_0  1  0.19077550  0.19077550  0.13901200  1
  Bi  Bi1_1  1  0.19077550  0.19077550  0.63901200  1
  Bi  Bi1_2  1  0.19077550  0.69077550  0.13901200  1
  Bi  Bi1_3  1  0.19077550  0.69077550  0.63901200  1
  Bi  Bi1_4  1  0.69077550  0.19077550  0.13901200  1
  Bi  Bi1_5  1  0.69077550  0.19077550  0.63901200  1
  Bi  Bi1_6  1  0.69077550  0.69077550  0.13901200  1
  Bi  Bi1_7  1  0.69077550  0.69077550  0.63901200  1
loop_
_geom_bond_atom_site_label_1
_geom_bond_atom_site_label_2
_geom_bond_distance
_geom_bond_site_symmetry_2
Bi0_0 Mg0_0 3.102660 1_555
Bi0_0 Mg1_3 3.163146 1_555
Bi0_0 Mg1_5 3.163146 1_555
Bi0_0 Mg1_4 3.248020 1_555
Bi0_0 Mg1_2 3.248020 1_555
Bi0_0 Mg0_4 3.363548 1_455
Bi0_0 Mg0_2 3.363548 1_545
Bi0_0 Bi0_6 3.565504 1_545
Bi0_0 Bi0_6 3.565504 1_455
Bi0_0 Bi1_1 3.648133 1_555
Bi0_1 Mg0_1 3.102660 1_555
Bi0_1 Mg1_2 3.163146 1_556
Bi0_1 Mg1_4 3.163146 1_556
Bi0_1 Mg1_3 3.248020 1_555
Bi0_1 Mg1_5 3.248020 1_555
Bi0_1 Mg0_5 3.363548 1_455
Bi0_1 Mg0_3 3.363548 1_545
Bi0_1 Bi0_7 3.565504 1_545
Bi0_1 Bi0_7 3.565504 1_455
Bi0_1 Bi1_0 3.648133 1_556
Bi0_2 Mg0_2 3.102660 1_555
Bi0_2 Mg1_7 3.163146 1_555
Bi0_2 Mg1_1 3.163146 1_565
Bi0_2 Mg1_0 3.248020 1_565
Bi0_2 Mg1_6 3.248020 1_555
Bi0_2 Mg0_0 3.363548 1_555
Bi0_2 Mg0_6 3.363548 1_455
Bi0_2 Bi0_4 3.565504 1_555
Bi0_2 Bi0_4 3.565504 1_465
Bi0_2 Bi1_3 3.648133 1_555
Bi0_3 Mg0_3 3.102660 1_555
Bi0_3 Mg1_0 3.163146 1_566
Bi0_3 Mg1_6 3.163146 1_556
Bi0_3 Mg1_1 3.248020 1_565
Bi0_3 Mg1_7 3.248020 1_555
Bi0_3 Mg0_1 3.363548 1_555
Bi0_3 Mg0_7 3.363548 1_455
Bi0_3 Bi0_5 3.565504 1_555
Bi0_3 Bi0_5 3.565504 1_465
Bi0_3 Bi1_2 3.648133 1_556
Bi0_4 Mg0_4 3.102660 1_555
Bi0_4 Mg1_7 3.163146 1_555
Bi0_4 Mg1_1 3.163146 1_655
Bi0_4 Mg1_6 3.248020 1_555
Bi0_4 Mg1_0 3.248020 1_655
Bi0_4 Mg0_0 3.363548 1_555
Bi0_4 Mg0_6 3.363548 1_545
Bi0_4 Bi1_5 3.648133 1_555
Bi0_5 Mg0_5 3.102660 1_555
Bi0_5 Mg1_6 3.163146 1_556
Bi0_5 Mg1_0 3.163146 1_656
Bi0_5 Mg1_7 3.248020 1_555
Bi0_5 Mg1_1 3.248020 1_655
Bi0_5 Mg0_1 3.363548 1_555
Bi0_5 Mg0_7 3.363548 1_545
Bi0_5 Bi1_4 3.648133 1_556
Bi0_6 Mg0_6 3.102660 1_555
Bi0_6 Mg1_3 3.163146 1_655
Bi0_6 Mg1_5 3.163146 1_565
Bi0_6 Mg1_4 3.248020 1_565
Bi0_6 Mg1_2 3.248020 1_655
Bi0_6 Mg0_4 3.363548 1_555
Bi0_6 Mg0_2 3.363548 1_555
Bi0_6 Bi1_7 3.648133 1_555
Bi0_7 Mg0_7 3.102660 1_555
Bi0_7 Mg1_4 3.163146 1_566
Bi0_7 Mg1_2 3.163146 1_656
Bi0_7 Mg1_5 3.248020 1_565
Bi0_7 Mg1_3 3.248020 1_655
Bi0_7 Mg0_5 3.363548 1_555
Bi0_7 Mg0_3 3.363548 1_555
Bi0_7 Bi1_6 3.648133 1_556
Bi1_0 Mg1_0 3.102660 1_555
Bi1_0 Mg0_5 3.163146 1_454
Bi1_0 Mg0_3 3.163146 1_544
Bi1_0 Mg0_2 3.248020 1_545
Bi1_0 Mg0_4 3.248020 1_455
Bi1_0 Mg1_2 3.363548 1_555
Bi1_0 Mg1_4 3.363548 1_555
Bi1_0 Bi1_6 3.565504 1_545
Bi1_0 Bi1_6 3.565504 1_455
Bi1_1 Mg1_1 3.102660 1_555
Bi1_1 Mg0_4 3.163146 1_455
Bi1_1 Mg0_2 3.163146 1_545
Bi1_1 Mg0_3 3.248020 1_545
Bi1_1 Mg0_5 3.248020 1_455
Bi1_1 Mg1_3 3.363548 1_555
Bi1_1 Mg1_5 3.363548 1_555
Bi1_1 Bi1_7 3.565504 1_545
Bi1_1 Bi1_7 3.565504 1_455
Bi1_2 Mg1_2 3.102660 1_555
Bi1_2 Mg0_1 3.163146 1_554
Bi1_2 Mg0_7 3.163146 1_454
Bi1_2 Mg0_6 3.248020 1_455
Bi1_2 Mg0_0 3.248020 1_555
Bi1_2 Mg1_6 3.363548 1_555
Bi1_2 Mg1_0 3.363548 1_565
Bi1_2 Bi1_4 3.565504 1_465
Bi1_2 Bi1_4 3.565504 1_555
Bi1_3 Mg1_3 3.102660 1_555
Bi1_3 Mg0_0 3.163146 1_555
Bi1_3 Mg0_6 3.163146 1_455
Bi1_3 Mg0_7 3.248020 1_455
Bi1_3 Mg0_1 3.248020 1_555
Bi1_3 Mg1_1 3.363548 1_565
Bi1_3 Mg1_7 3.363548 1_555
Bi1_3 Bi1_5 3.565504 1_465
Bi1_3 Bi1_5 3.565504 1_555
Bi1_4 Mg1_4 3.102660 1_555
Bi1_4 Mg0_1 3.163146 1_554
Bi1_4 Mg0_7 3.163146 1_544
Bi1_4 Mg0_6 3.248020 1_545
Bi1_4 Mg0_0 3.248020 1_555
Bi1_4 Mg1_6 3.363548 1_555
Bi1_4 Mg1_0 3.363548 1_655
Bi1_5 Mg1_5 3.102660 1_555
Bi1_5 Mg0_0 3.163146 1_555
Bi1_5 Mg0_6 3.163146 1_545
Bi1_5 Mg0_1 3.248020 1_555
Bi1_5 Mg0_7 3.248020 1_545
Bi1_5 Mg1_1 3.363548 1_655
Bi1_5 Mg1_7 3.363548 1_555
Bi1_6 Mg1_6 3.102660 1_555
Bi1_6 Mg0_5 3.163146 1_554
Bi1_6 Mg0_3 3.163146 1_554
Bi1_6 Mg0_2 3.248020 1_555
Bi1_6 Mg0_4 3.248020 1_555
Bi1_6 Mg1_2 3.363548 1_655
Bi1_6 Mg1_4 3.363548 1_565
Bi1_7 Mg1_7 3.102660 1_555
Bi1_7 Mg0_4 3.163146 1_555
Bi1_7 Mg0_2 3.163146 1_555
Bi1_7 Mg0_3 3.248020 1_555
Bi1_7 Mg0_5 3.248020 1_555
Bi1_7 Mg1_3 3.363548 1_655
Bi1_7 Mg1_5 3.363548 1_565
