# generated using pymatgen
data_LaTm(Ge2Ir)2
_symmetry_space_group_name_H-M   'P 1'
_cell_length_a   9.47688778
_cell_length_b   9.47688778
_cell_length_c   9.47688778
_cell_angle_alpha   153.52755048
_cell_angle_beta   124.28946535
_cell_angle_gamma   62.70816217
_symmetry_Int_Tables_number   1
_chemical_formula_structural   LaTm(Ge2Ir)2
_chemical_formula_sum   'La2 Tm2 Ge8 Ir4'
_cell_volume   311.03570688
_cell_formula_units_Z   2
loop_
 _symmetry_equiv_pos_site_id
 _symmetry_equiv_pos_as_xyz
  1  'x, y, z'
loop_
 _atom_site_type_symbol
 _atom_site_label
 _atom_site_symmetry_multiplicity
 _atom_site_fract_x
 _atom_site_fract_y
 _atom_site_fract_z
 _atom_site_occupancy
  La  La0  1  0.26093947  -0.00000000  0.26093947  1
  La  La1  1  0.73906053  0.00000000  0.73906053  1
  Tm  Tm0  1  0.29309420  0.79309420  0.50000000  1
  Tm  Tm1  1  0.70690580  0.20690580  0.50000000  1
  Ge  Ge0  1  0.04964750  0.20161790  0.84802960  1
  Ge  Ge1  1  0.95035250  0.79838210  0.15197040  1
  Ge  Ge2  1  0.64641171  0.79838210  0.84802960  1
  Ge  Ge3  1  0.35358829  0.20161790  0.15197040  1
  Ge  Ge4  1  0.92147193  0.42147193  0.50000000  1
  Ge  Ge5  1  0.41971058  0.41971058  -0.00000000  1
  Ge  Ge6  1  0.07852807  0.57852807  0.50000000  1
  Ge  Ge7  1  0.58028942  0.58028942  -0.00000000  1
  Ir  Ir0  1  0.39642355  0.64921608  0.74720847  1
  Ir  Ir1  1  0.60357645  0.35078392  0.25279153  1
  Ir  Ir2  1  0.90200762  0.64921608  0.25279153  1
  Ir  Ir3  1  0.09799238  0.35078392  0.74720847  1
loop_
_geom_bond_atom_site_label_1
_geom_bond_atom_site_label_2
_geom_bond_distance
_geom_bond_site_symmetry_2
Ge0 Ir2 2.477736 1_456
Ge0 Ir2 2.477736 1_445
Ge0 Ir3 2.574196 1_555
Ge0 Ge3 2.691686 1_556
Ge0 Tm0 2.951605 1_545
Ge0 Tm0 2.951605 1_556
Ge0 Tm1 3.083323 1_455
Ge0 La1 3.403067 1_455
Ge1 Ir3 2.477736 1_654
Ge1 Ir3 2.477736 1_665
Ge1 Ir2 2.574196 1_555
Ge1 Ge2 2.691686 1_554
Ge1 Tm1 2.951605 1_554
Ge1 Tm1 2.951605 1_565
Ge1 Tm0 3.083323 1_655
Ge1 La0 3.403067 1_665
Ge2 Ir1 2.477735 1_566
Ge2 Ir1 2.477739 1_555
Ge2 Ir0 2.574206 1_555
Ge2 Tm1 2.951605 1_555
Ge2 Tm1 2.951605 1_566
Ge2 Tm0 3.083323 1_555
Ge2 La1 3.403067 1_565
Ge3 Ir0 2.477735 1_544
Ge3 Ir0 2.477739 1_555
Ge3 Ir1 2.574206 1_555
Ge3 Tm0 2.951605 1_555
Ge3 Tm0 2.951605 1_544
Ge3 Tm1 3.083323 1_555
Ge3 La0 3.403067 1_555
Ge4 Ir1 2.470209 1_555
Ge4 Ir3 2.470217 1_655
Ge4 La1 3.415274 1_554
Ge4 La1 3.415274 1_565
Ge4 La0 3.415274 1_655
Ge4 La0 3.415274 1_666
Ge4 Tm1 3.472950 1_555
Ge5 Ir3 2.501296 1_554
Ge5 Ir1 2.501296 1_555
Ge5 Ge7 2.599116 1_555
Ge5 Tm0 2.984705 1_544
Ge5 Tm0 2.984705 1_555
Ge5 La0 3.298397 1_554
Ge5 La0 3.298397 1_565
Ge5 La1 3.298397 1_554
Ge5 La1 3.298397 1_565
Ge6 Ir0 2.470209 1_555
Ge6 Ir2 2.470217 1_455
Ge6 La1 3.415274 1_454
Ge6 La1 3.415274 1_465
Ge6 La0 3.415274 1_566
Ge6 La0 3.415274 1_555
Ge6 Tm0 3.472950 1_555
Ge7 Ir2 2.501296 1_555
Ge7 Ir0 2.501296 1_554
Ge7 Tm1 2.984705 1_554
Ge7 Tm1 2.984705 1_565
Ge7 La0 3.298397 1_565
Ge7 La0 3.298397 1_554
Ge7 La1 3.298397 1_565
Ge7 La1 3.298397 1_554
Ir0 Tm0 3.196282 1_555
Ir0 La0 3.249053 1_566
Ir0 La0 3.249056 1_555
Ir0 Tm1 3.254563 1_566
Ir0 Tm1 3.254565 1_555
Ir1 Tm1 3.196282 1_555
Ir1 La1 3.249053 1_554
Ir1 La1 3.249056 1_565
Ir1 Tm0 3.254563 1_544
Ir1 Tm0 3.254565 1_555
Ir2 Tm0 3.196279 1_655
Ir2 La1 3.249060 1_554
Ir2 La1 3.249060 1_565
Ir2 Tm1 3.254559 1_554
Ir2 Tm1 3.254559 1_565
Ir3 Tm1 3.196279 1_455
Ir3 La0 3.249060 1_566
Ir3 La0 3.249060 1_555
Ir3 Tm0 3.254559 1_556
Ir3 Tm0 3.254559 1_545
