# generated using pymatgen
data_MoP3
_symmetry_space_group_name_H-M   'P 1'
_cell_length_a   4.28698477
_cell_length_b   4.28698477
_cell_length_c   4.28698477
_cell_angle_alpha   60.00000000
_cell_angle_beta   60.00000000
_cell_angle_gamma   60.00000000
_symmetry_Int_Tables_number   1
_chemical_formula_structural   MoP3
_chemical_formula_sum   'Mo1 P3'
_cell_volume   55.71098324
_cell_formula_units_Z   1
loop_
 _symmetry_equiv_pos_site_id
 _symmetry_equiv_pos_as_xyz
  1  'x, y, z'
loop_
 _atom_site_type_symbol
 _atom_site_label
 _atom_site_symmetry_multiplicity
 _atom_site_fract_x
 _atom_site_fract_y
 _atom_site_fract_z
 _atom_site_occupancy
  Mo  Mo0  1  0.00000000  0.00000000  0.00000000  1
  P  P0  1  0.25000000  0.25000000  0.25000000  1
  P  P1  1  0.75000000  0.75000000  0.75000000  1
  P  P2  1  0.50000000  0.50000000  0.50000000  1
loop_
_geom_bond_atom_site_label_1
_geom_bond_atom_site_label_2
_geom_bond_distance
_geom_bond_site_symmetry_2
Mo0 P0 2.625231 1_455
Mo0 P1 2.625231 1_544
Mo0 P0 2.625231 1_555
Mo0 P0 2.625231 1_554
Mo0 P1 2.625231 1_445
Mo0 P1 2.625231 1_454
Mo0 P1 2.625231 1_444
Mo0 P0 2.625231 1_545
Mo0 P2 3.031356 1_454
Mo0 P2 3.031356 1_544
Mo0 P2 3.031356 1_545
Mo0 P2 3.031356 1_445
Mo0 P2 3.031356 1_554
Mo0 P2 3.031356 1_455
P0 P2 2.625231 1_455
P0 P2 2.625231 1_545
P0 P2 2.625231 1_555
P0 P2 2.625231 1_554
P1 P2 2.625231 1_655
P1 P2 2.625231 1_565
P1 P2 2.625231 1_555
P1 P2 2.625231 1_556
