# generated using pymatgen
data_Ca2CdAs2
_symmetry_space_group_name_H-M   'P 1'
_cell_length_a   4.31662754
_cell_length_b   7.18909905
_cell_length_c   8.51082855
_cell_angle_alpha   90.00000000
_cell_angle_beta   104.69042281
_cell_angle_gamma   90.00000000
_symmetry_Int_Tables_number   1
_chemical_formula_structural   Ca2CdAs2
_chemical_formula_sum   'Ca4 Cd2 As4'
_cell_volume   255.47983892
_cell_formula_units_Z   2
loop_
 _symmetry_equiv_pos_site_id
 _symmetry_equiv_pos_as_xyz
  1  'x, y, z'
loop_
 _atom_site_type_symbol
 _atom_site_label
 _atom_site_symmetry_multiplicity
 _atom_site_fract_x
 _atom_site_fract_y
 _atom_site_fract_z
 _atom_site_occupancy
  Ca  Ca0  1  0.29998143  0.92877913  0.59996185  1
  Ca  Ca1  1  0.70001857  0.42877913  0.40003815  1
  Ca  Ca2  1  0.46714420  0.27221883  0.93429040  1
  Ca  Ca3  1  0.53285580  0.77221883  0.06570960  1
  Cd  Cd0  1  0.09853245  0.10861657  0.19706390  1
  Cd  Cd1  1  0.90146755  0.60861657  0.80293610  1
  As  As0  1  0.06424858  0.48340093  0.12849816  1
  As  As1  1  0.93575142  0.98340093  0.87150184  1
  As  As2  1  0.31969311  0.50253454  0.63938623  1
  As  As3  1  0.68030689  0.00253454  0.36061377  1
loop_
_geom_bond_atom_site_label_1
_geom_bond_atom_site_label_2
_geom_bond_distance
_geom_bond_site_symmetry_2
As0 Cd0 2.752856 1_555
As0 Cd1 2.827357 1_454
As0 Ca3 3.039191 1_455
As0 Ca3 3.039200 1_555
As0 Ca2 3.085376 1_554
As0 Ca2 3.085379 1_454
As0 Ca1 3.132076 1_555
As0 Ca1 3.132076 1_455
As1 Cd1 2.752856 1_555
As1 Cd0 2.827357 1_666
As1 Ca2 3.039191 1_665
As1 Ca2 3.039200 1_565
As1 Ca3 3.085376 1_556
As1 Ca3 3.085379 1_656
As1 Ca0 3.132076 1_555
As1 Ca0 3.132076 1_655
As2 Cd1 2.655716 1_555
As2 Cd1 2.655720 1_455
As2 Ca2 2.938693 1_555
As2 Ca1 2.970214 1_555
As2 Ca1 2.970217 1_455
As2 Ca0 3.081455 1_555
As3 Cd0 2.655716 1_555
As3 Cd0 2.655720 1_655
As3 Ca3 2.938693 1_545
As3 Ca0 2.970214 1_545
As3 Ca0 2.970217 1_645
As3 Ca1 3.081455 1_555
