# generated using pymatgen
data_Li6Mn3CoO10
_symmetry_space_group_name_H-M   'P 1'
_cell_length_a   2.94420300
_cell_length_b   5.07716128
_cell_length_c   12.64110730
_cell_angle_alpha   101.20967599
_cell_angle_beta   88.43088913
_cell_angle_gamma   104.22387441
_symmetry_Int_Tables_number   1
_chemical_formula_structural   Li6Mn3CoO10
_chemical_formula_sum   'Li6 Mn3 Co1 O10'
_cell_volume   179.63300715
_cell_formula_units_Z   1
loop_
 _symmetry_equiv_pos_site_id
 _symmetry_equiv_pos_as_xyz
  1  'x, y, z'
loop_
 _atom_site_type_symbol
 _atom_site_label
 _atom_site_symmetry_multiplicity
 _atom_site_fract_x
 _atom_site_fract_y
 _atom_site_fract_z
 _atom_site_occupancy
  Li  Li0  1  0.32199900  0.61113000  0.11291800  1
  Li  Li1  1  0.87802700  0.79029200  0.28698200  1
  Li  Li2  1  0.51006500  0.00695100  0.50132800  1
  Li  Li3  1  0.09897200  0.20353400  0.69777500  1
  Li  Li4  1  0.69193000  0.38876900  0.90071000  1
  Li  Li5  1  0.60077800  0.20136900  0.20100600  1
  Mn  Mn0  1  0.00892900  0.00155100  0.00732600  1
  Mn  Mn1  1  0.19289900  0.39898500  0.39484700  1
  Mn  Mn2  1  0.40796200  0.80313900  0.79791800  1
  Co  Co0  1  0.78507800  0.59401900  0.59884200  1
  O  O0  1  0.61526800  0.25854900  0.04387100  1
  O  O1  1  0.25620000  0.50635800  0.26437400  1
  O  O2  1  0.80843500  0.66414000  0.45278400  1
  O  O3  1  0.46583800  0.88034700  0.64950700  1
  O  O4  1  0.08517900  0.08828600  0.85428700  1
  O  O5  1  0.94451400  0.89542300  0.13761900  1
  O  O6  1  0.58650700  0.14147100  0.35819100  1
  O  O7  1  0.12218800  0.31995900  0.54650900  1
  O  O8  1  0.72539500  0.51174100  0.74407400  1
  O  O9  1  0.39383700  0.73398600  0.94913200  1
loop_
_geom_bond_atom_site_label_1
_geom_bond_atom_site_label_2
_geom_bond_distance
_geom_bond_site_symmetry_2
Li0 O5 2.002547 1_455
Li0 O5 2.023898 1_555
Li0 O1 2.076318 1_555
Li0 O0 2.196059 1_555
Li0 O9 2.265794 1_554
Li0 O0 2.440783 1_455
Li1 O1 2.002671 1_655
Li1 O1 2.020668 1_555
Li1 O5 2.051450 1_555
Li1 O6 2.193566 1_565
Li1 O2 2.297613 1_555
Li1 O6 2.447755 1_665
Li2 O6 2.042967 1_555
Li2 O3 2.086253 1_545
Li2 O7 2.096597 1_655
Li2 O2 2.117595 1_545
Li2 O7 2.158497 1_555
Li2 O2 2.358071 1_445
Li3 O7 2.103074 1_555
Li3 O8 2.110784 1_455
Li3 O8 2.116005 1_555
Li3 O3 2.162649 1_545
Li3 O4 2.166209 1_555
Li3 O3 2.170124 1_445
Li4 O0 2.032884 1_556
Li4 O4 2.057448 1_555
Li4 O4 2.120160 1_655
Li4 O9 2.127526 1_555
Li4 O8 2.181711 1_555
Li4 O9 2.364220 1_655
Li5 O0 2.060390 1_555
Li5 O6 2.065545 1_555
Li5 O1 2.076994 1_555
Li5 O5 2.079255 1_545
Li5 O1 2.212951 1_655
Li5 O5 2.216790 1_445
Mn0 O5 1.821207 1_445
Mn0 O0 1.933595 1_455
Mn0 O0 1.941382 1_555
Mn0 O9 1.998297 1_544
Mn0 O9 2.035096 1_444
Mn0 O4 2.060532 1_554
Mn1 O1 1.826200 1_555
Mn1 O6 1.935638 1_555
Mn1 O6 1.942736 1_455
Mn1 O2 1.987496 1_455
Mn1 O7 2.028806 1_555
Mn1 O2 2.030626 1_555
Mn2 O4 1.935144 1_565
Mn2 O8 1.943890 1_555
Mn2 O3 1.984432 1_555
Mn2 O9 2.007060 1_555
Mn2 O4 2.199403 1_665
Mn2 O8 2.216525 1_455
Co0 O7 1.908844 1_655
Co0 O3 1.919235 1_555
Co0 O2 1.943453 1_555
Co0 O8 1.954566 1_555
Co0 O7 2.135676 1_555
Co0 O3 2.194806 1_655
