# generated using pymatgen
data_Rb2LiNb2(TeO6)2
_symmetry_space_group_name_H-M   'P 1'
_cell_length_a   7.40988834
_cell_length_b   7.41027118
_cell_length_c   7.50613719
_cell_angle_alpha   90.00000000
_cell_angle_beta   60.43067240
_cell_angle_gamma   120.00170911
_symmetry_Int_Tables_number   1
_chemical_formula_structural   Rb2LiNb2(TeO6)2
_chemical_formula_sum   'Rb2 Li1 Nb2 Te2 O12'
_cell_volume   293.31401550
_cell_formula_units_Z   1
loop_
 _symmetry_equiv_pos_site_id
 _symmetry_equiv_pos_as_xyz
  1  'x, y, z'
loop_
 _atom_site_type_symbol
 _atom_site_label
 _atom_site_symmetry_multiplicity
 _atom_site_fract_x
 _atom_site_fract_y
 _atom_site_fract_z
 _atom_site_occupancy
  Rb  Rb0  1  0.66871200  0.33435600  0.49972900  1
  Rb  Rb1  1  0.33128800  0.66564400  0.50027100  1
  Li  Li0  1  0.00000000  0.50000000  0.00000000  1
  Nb  Nb0  1  0.50000000  0.50000000  0.00000000  1
  Nb  Nb1  1  0.50000000  0.00000000  0.00000000  1
  Te  Te0  1  0.00000000  0.00000000  0.50000000  1
  Te  Te1  1  0.00000000  0.00000000  0.00000000  1
  O  O0  1  0.86141500  0.93070700  0.32396300  1
  O  O1  1  0.63785400  0.31892700  0.92832200  1
  O  O2  1  0.25379200  0.92802100  0.92078400  1
  O  O3  1  0.24574400  0.30902800  0.31641100  1
  O  O4  1  0.25379200  0.32577100  0.92078400  1
  O  O5  1  0.24574400  0.93671600  0.31641100  1
  O  O6  1  0.13858500  0.06929300  0.67603700  1
  O  O7  1  0.36214600  0.68107300  0.07167800  1
  O  O8  1  0.74620800  0.07197900  0.07921600  1
  O  O9  1  0.75425600  0.69097200  0.68358900  1
  O  O10  1  0.74620800  0.67422900  0.07921600  1
  O  O11  1  0.75425600  0.06328400  0.68358900  1
loop_
_geom_bond_atom_site_label_1
_geom_bond_atom_site_label_2
_geom_bond_distance
_geom_bond_site_symmetry_2
Li0 O8 2.623260 1_455
Li0 O2 2.623260 1_554
Li0 O10 2.623260 1_455
Li0 O4 2.623260 1_554
Li0 O1 2.667385 1_454
Li0 O7 2.667385 1_555
Li0 Rb0 3.082489 1_455
Li0 Rb1 3.082489 1_554
Nb0 O7 1.990379 1_555
Nb0 O1 1.990379 1_554
Nb0 O4 2.015908 1_554
Nb0 O10 2.015908 1_555
Nb0 O9 2.027413 1_554
Nb0 O3 2.027413 1_555
Nb1 O7 1.990379 1_545
Nb1 O1 1.990379 1_554
Nb1 O8 2.015908 1_555
Nb1 O2 2.015908 1_544
Nb1 O11 2.027413 1_554
Nb1 O5 2.027413 1_545
O0 Te0 1.968768 1_665
O0 Te1 2.059014 1_665
O0 Rb1 2.862382 1_555
O1 Rb0 3.108504 1_555
O2 Te1 2.018442 1_566
O2 Rb0 3.107990 1_565
O3 Te0 1.952463 1_555
O3 Rb1 2.911712 1_555
O4 Te1 2.018442 1_556
O4 Rb0 3.107990 1_555
O5 Te0 1.952463 1_565
O5 Rb1 2.911712 1_555
O6 Te0 1.968768 1_555
O6 Te1 2.059014 1_556
O6 Rb0 2.862382 1_555
O7 Rb1 3.108504 1_555
O8 Te1 2.018442 1_655
O8 Rb1 3.107990 1_545
O9 Te0 1.952463 1_665
O9 Rb0 2.911712 1_555
O10 Te1 2.018442 1_665
O10 Rb1 3.107990 1_555
O11 Te0 1.952463 1_655
O11 Rb0 2.911712 1_555
