# generated using pymatgen
data_Mg6VC
_symmetry_space_group_name_H-M   'P 1'
_cell_length_a   4.53931800
_cell_length_b   5.77571400
_cell_length_c   11.75416300
_cell_angle_alpha   90.00000000
_cell_angle_beta   90.00000000
_cell_angle_gamma   90.00000000
_symmetry_Int_Tables_number   1
_chemical_formula_structural   Mg6VC
_chemical_formula_sum   'Mg12 V2 C2'
_cell_volume   308.16832436
_cell_formula_units_Z   2
loop_
 _symmetry_equiv_pos_site_id
 _symmetry_equiv_pos_as_xyz
  1  'x, y, z'
loop_
 _atom_site_type_symbol
 _atom_site_label
 _atom_site_symmetry_multiplicity
 _atom_site_fract_x
 _atom_site_fract_y
 _atom_site_fract_z
 _atom_site_occupancy
  Mg  Mg0  1  0.50000000  0.24406400  0.44229400  1
  Mg  Mg1  1  0.50000000  0.75593600  0.44229400  1
  Mg  Mg2  1  0.00000000  0.74069000  0.09432700  1
  Mg  Mg3  1  0.00000000  0.25931000  0.09432700  1
  Mg  Mg4  1  0.00000000  0.00000000  0.32770700  1
  Mg  Mg5  1  0.00000000  0.50000000  0.31973900  1
  Mg  Mg6  1  0.50000000  0.74406400  0.94229400  1
  Mg  Mg7  1  0.50000000  0.25593600  0.94229400  1
  Mg  Mg8  1  0.00000000  0.24069000  0.59432700  1
  Mg  Mg9  1  0.00000000  0.75931000  0.59432700  1
  Mg  Mg10  1  0.00000000  0.50000000  0.82770700  1
  Mg  Mg11  1  0.00000000  0.00000000  0.81973900  1
  V  V0  1  0.50000000  0.00000000  0.18087600  1
  V  V1  1  0.50000000  0.50000000  0.68087600  1
  C  C0  1  0.50000000  0.50000000  0.09843100  1
  C  C1  1  0.50000000  0.00000000  0.59843100  1
loop_
_geom_bond_atom_site_label_1
_geom_bond_atom_site_label_2
_geom_bond_distance
_geom_bond_site_symmetry_2
Mg0 Mg5 3.067833 1_655
Mg0 Mg5 3.067833 1_555
Mg0 V1 3.170077 1_555
Mg0 V0 3.380664 1_555
Mg1 Mg5 3.067833 1_655
Mg1 Mg5 3.067833 1_555
Mg1 V1 3.170077 1_555
Mg1 V0 3.380664 1_565
Mg2 V0 2.903339 1_565
Mg2 V0 2.903339 1_465
Mg2 Mg5 2.992080 1_555
Mg3 V0 2.903339 1_555
Mg3 V0 2.903339 1_455
Mg3 Mg5 2.992080 1_555
Mg4 V0 2.851315 1_555
Mg4 V0 2.851315 1_455
Mg4 Mg5 2.889375 1_545
Mg4 Mg5 2.889375 1_555
Mg6 V0 3.170077 1_566
Mg6 V1 3.380664 1_555
Mg7 V0 3.170077 1_556
Mg7 V1 3.380664 1_555
Mg8 V1 2.903339 1_555
Mg8 V1 2.903339 1_455
Mg9 V1 2.903339 1_555
Mg9 V1 2.903339 1_455
Mg10 V1 2.851315 1_555
Mg10 V1 2.851315 1_455
Mg10 Mg11 2.889375 1_555
Mg10 Mg11 2.889375 1_565
Mg11 Mg8 2.992080 1_555
Mg11 Mg9 2.992080 1_545
Mg11 Mg6 3.067833 1_445
Mg11 Mg7 3.067833 1_455
Mg11 Mg6 3.067833 1_545
Mg11 Mg7 3.067833 1_555
C0 Mg6 2.314147 1_554
C0 Mg7 2.314147 1_554
C0 Mg3 2.661994 1_555
C0 Mg3 2.661994 1_655
C0 Mg2 2.661994 1_555
C0 Mg2 2.661994 1_655
C0 V0 3.046115 1_565
C0 V0 3.046115 1_555
C1 Mg0 2.314147 1_555
C1 Mg1 2.314147 1_545
C1 Mg9 2.661994 1_645
C1 Mg9 2.661994 1_545
C1 Mg8 2.661994 1_555
C1 Mg8 2.661994 1_655
C1 V1 3.046115 1_545
C1 V1 3.046115 1_555
