# generated using pymatgen
data_Dy3(GaNi3)2
_symmetry_space_group_name_H-M   'P 1'
_cell_length_a   7.71335918
_cell_length_b   7.71335918
_cell_length_c   7.71335918
_cell_angle_alpha   109.47122063
_cell_angle_beta   109.47122063
_cell_angle_gamma   109.47122063
_symmetry_Int_Tables_number   1
_chemical_formula_structural   Dy3(GaNi3)2
_chemical_formula_sum   'Dy6 Ga4 Ni12'
_cell_volume   353.27164050
_cell_formula_units_Z   2
loop_
 _symmetry_equiv_pos_site_id
 _symmetry_equiv_pos_as_xyz
  1  'x, y, z'
loop_
 _atom_site_type_symbol
 _atom_site_label
 _atom_site_symmetry_multiplicity
 _atom_site_fract_x
 _atom_site_fract_y
 _atom_site_fract_z
 _atom_site_occupancy
  Dy  Dy0  1  0.70475800  0.70475800  0.00000000  1
  Dy  Dy1  1  0.29524200  0.00000000  0.29524200  1
  Dy  Dy2  1  0.00000000  0.29524200  0.29524200  1
  Dy  Dy3  1  0.29524200  0.29524200  0.00000000  1
  Dy  Dy4  1  0.70475800  0.00000000  0.70475800  1
  Dy  Dy5  1  0.00000000  0.70475800  0.70475800  1
  Ga  Ga0  1  0.00000000  0.00000000  0.50000000  1
  Ga  Ga1  1  0.00000000  0.50000000  0.00000000  1
  Ga  Ga2  1  0.50000000  0.00000000  0.00000000  1
  Ga  Ga3  1  0.50000000  0.50000000  0.50000000  1
  Ni  Ni0  1  0.33588900  0.33588900  0.67177900  1
  Ni  Ni1  1  0.66411100  0.00000000  0.33588900  1
  Ni  Ni2  1  0.00000000  0.66411100  0.33588900  1
  Ni  Ni3  1  0.66411100  0.33588900  0.00000000  1
  Ni  Ni4  1  0.33588900  0.67177900  0.33588900  1
  Ni  Ni5  1  0.00000000  0.33588900  0.66411100  1
  Ni  Ni6  1  0.33588900  0.66411100  0.00000000  1
  Ni  Ni7  1  0.33588900  0.00000000  0.66411100  1
  Ni  Ni8  1  0.67177900  0.33588900  0.33588900  1
  Ni  Ni9  1  0.66411100  0.66411100  0.32822100  1
  Ni  Ni10  1  0.66411100  0.32822100  0.66411100  1
  Ni  Ni11  1  0.32822100  0.66411100  0.66411100  1
loop_
_geom_bond_atom_site_label_1
_geom_bond_atom_site_label_2
_geom_bond_distance
_geom_bond_site_symmetry_2
Dy0 Ni9 2.756597 1_555
Dy0 Ni0 2.756603 1_554
Dy0 Ni3 2.756605 1_555
Dy0 Ni6 2.756605 1_555
Dy0 Ni1 3.013461 1_565
Dy0 Ni2 3.013461 1_655
Dy0 Ni10 3.013466 1_554
Dy0 Ni11 3.013466 1_554
Dy0 Ga2 3.174643 1_565
Dy0 Ga1 3.174643 1_655
Dy0 Ga0 3.174643 1_665
Dy0 Ga3 3.174643 1_554
Dy1 Ni4 2.756597 1_545
Dy1 Ni10 2.756603 1_555
Dy1 Ni1 2.756605 1_555
Dy1 Ni7 2.756605 1_555
Dy1 Ni6 3.013461 1_545
Dy1 Ni2 3.013461 1_545
Dy1 Ni8 3.013466 1_555
Dy1 Ni0 3.013466 1_555
Dy1 Ga2 3.174643 1_555
Dy1 Ga0 3.174643 1_555
Dy1 Ga3 3.174643 1_555
Dy1 Ga1 3.174643 1_545
Dy2 Ni8 2.756597 1_455
Dy2 Ni11 2.756603 1_555
Dy2 Ni2 2.756605 1_555
Dy2 Ni5 2.756605 1_555
Dy2 Ni3 3.013461 1_455
Dy2 Ni1 3.013461 1_455
Dy2 Ni4 3.013466 1_555
Dy2 Ni0 3.013466 1_555
Dy2 Ga0 3.174643 1_555
Dy2 Ga2 3.174643 1_455
Dy2 Ga3 3.174643 1_555
Dy2 Ga1 3.174643 1_555
Dy3 Ni0 2.756597 1_554
Dy3 Ni9 2.756603 1_555
Dy3 Ni3 2.756605 1_555
Dy3 Ni6 2.756605 1_555
Dy3 Ni7 3.013461 1_554
Dy3 Ni5 3.013461 1_554
Dy3 Ni4 3.013466 1_555
Dy3 Ni8 3.013466 1_555
Dy3 Ga2 3.174643 1_555
Dy3 Ga3 3.174643 1_555
Dy3 Ga0 3.174643 1_554
Dy3 Ga1 3.174643 1_555
Dy4 Ni10 2.756597 1_555
Dy4 Ni4 2.756603 1_545
Dy4 Ni7 2.756605 1_555
Dy4 Ni1 2.756605 1_555
Dy4 Ni3 3.013461 1_556
Dy4 Ni5 3.013461 1_655
Dy4 Ni11 3.013466 1_545
Dy4 Ni9 3.013466 1_545
Dy4 Ga3 3.174643 1_545
Dy4 Ga2 3.174643 1_556
Dy4 Ga1 3.174643 1_656
Dy4 Ga0 3.174643 1_655
Dy5 Ni11 2.756597 1_555
Dy5 Ni8 2.756603 1_455
Dy5 Ni5 2.756605 1_555
Dy5 Ni2 2.756605 1_555
Dy5 Ni7 3.013461 1_565
Dy5 Ni6 3.013461 1_556
Dy5 Ni10 3.013466 1_455
Dy5 Ni9 3.013466 1_455
Dy5 Ga3 3.174643 1_455
Dy5 Ga0 3.174643 1_565
Dy5 Ga2 3.174643 1_566
Dy5 Ga1 3.174643 1_556
Ga0 Ni0 2.475556 1_555
Ga0 Ni9 2.475556 1_445
Ga0 Ni5 2.475557 1_555
Ga0 Ni2 2.475557 1_545
Ga0 Ni1 2.475557 1_455
Ga0 Ni7 2.475557 1_555
Ga1 Ni10 2.475556 1_454
Ga1 Ni4 2.475556 1_555
Ga1 Ni5 2.475557 1_554
Ga1 Ni2 2.475557 1_555
Ga1 Ni3 2.475557 1_455
Ga1 Ni6 2.475557 1_555
Ga2 Ni8 2.475556 1_555
Ga2 Ni11 2.475556 1_544
Ga2 Ni7 2.475557 1_554
Ga2 Ni6 2.475557 1_545
Ga2 Ni3 2.475557 1_555
Ga2 Ni1 2.475557 1_555
Ga3 Ni11 2.475564 1_555
Ga3 Ni8 2.475564 1_555
Ga3 Ni9 2.475564 1_555
Ga3 Ni0 2.475564 1_555
Ga3 Ni10 2.475564 1_555
Ga3 Ni4 2.475564 1_555
Ni0 Ni7 2.571722 1_555
Ni0 Ni5 2.571722 1_555
Ni0 Ni11 2.571730 1_555
Ni0 Ni10 2.571730 1_555
Ni0 Ni6 2.923344 1_556
Ni0 Ni3 2.923344 1_556
Ni1 Ni8 2.571722 1_555
Ni1 Ni9 2.571722 1_545
Ni1 Ni6 2.571724 1_545
Ni1 Ni5 2.571724 1_655
Ni1 Ni10 2.923344 1_555
Ni1 Ni4 2.923344 1_545
Ni2 Ni4 2.571722 1_555
Ni2 Ni9 2.571722 1_455
Ni2 Ni7 2.571724 1_565
Ni2 Ni3 2.571724 1_455
Ni2 Ni8 2.923344 1_455
Ni3 Ni8 2.571722 1_555
Ni3 Ni7 2.571724 1_554
Ni3 Ni9 2.923344 1_555
Ni4 Ni6 2.571722 1_555
Ni4 Ni9 2.571730 1_555
Ni4 Ni7 2.923344 1_565
Ni5 Ni6 2.571724 1_556
Ni5 Ni8 2.923344 1_455
Ni6 Ni9 2.923344 1_555
Ni8 Ni9 2.571730 1_555
Ni10 Ni3 2.571722 1_556
Ni10 Ni5 2.571722 1_655
Ni10 Ni8 2.571730 1_555
Ni10 Ni7 2.923344 1_555
Ni11 Ni6 2.571722 1_556
Ni11 Ni7 2.571722 1_565
Ni11 Ni4 2.571730 1_555
Ni11 Ni5 2.923344 1_555
Ni11 Ni2 2.923344 1_555
