# generated using pymatgen
data_Ba2Bi2F11
_symmetry_space_group_name_H-M   'P 1'
_cell_length_a   7.88716590
_cell_length_b   7.88716590
_cell_length_c   15.39732100
_cell_angle_alpha   90.00000000
_cell_angle_beta   90.00000000
_cell_angle_gamma   119.99999913
_symmetry_Int_Tables_number   1
_chemical_formula_structural   Ba2Bi2F11
_chemical_formula_sum   'Ba6 Bi6 F33'
_cell_volume   829.50259868
_cell_formula_units_Z   3
loop_
 _symmetry_equiv_pos_site_id
 _symmetry_equiv_pos_as_xyz
  1  'x, y, z'
loop_
 _atom_site_type_symbol
 _atom_site_label
 _atom_site_symmetry_multiplicity
 _atom_site_fract_x
 _atom_site_fract_y
 _atom_site_fract_z
 _atom_site_occupancy
  Ba  Ba0  1  0.85295800  0.82349300  0.65140400  1
  Ba  Ba1  1  0.46834500  0.07698800  0.81571100  1
  Ba  Ba2  1  0.97053500  0.14704200  0.98473700  1
  Ba  Ba3  1  0.92301200  0.39135700  0.48237700  1
  Ba  Ba4  1  0.60864300  0.53165500  0.14904400  1
  Ba  Ba5  1  0.17650700  0.02946500  0.31807000  1
  Bi  Bi0  1  0.86164200  0.63715500  0.89558100  1
  Bi  Bi1  1  0.18062700  0.46935800  0.72885200  1
  Bi  Bi2  1  0.53064200  0.71126800  0.39551800  1
  Bi  Bi3  1  0.77551300  0.13835800  0.22891500  1
  Bi  Bi4  1  0.28873200  0.81937300  0.06218500  1
  Bi  Bi5  1  0.36284500  0.22448700  0.56224800  1
  F  F0  1  0.98324800  0.73880900  0.04332700  1
  F  F1  1  0.77545000  0.33812000  0.93783900  1
  F  F2  1  0.75556100  0.01675200  0.37666100  1
  F  F3  1  0.51247900  0.14392400  0.46671600  1
  F  F4  1  0.89617600  0.93839000  0.18738800  1
  F  F5  1  0.27613200  0.26437300  0.19258700  1
  F  F6  1  0.85607600  0.36855500  0.13338300  1
  F  F7  1  0.73562700  0.01175900  0.85925400  1
  F  F8  1  0.04221300  0.10382400  0.52072100  1
  F  F9  1  0.60884300  0.97420500  0.08653500  1
  F  F10  1  0.63144500  0.48752100  0.80005000  1
  F  F11  1  0.26119100  0.24443900  0.70999400  1
  F  F12  1  0.65932400  0.66956700  0.97914200  1
  F  F13  1  0.33885100  0.10105200  0.01373300  1
  F  F14  1  0.01024300  0.34067600  0.31247600  1
  F  F15  1  0.66188000  0.43733000  0.60450500  1
  F  F16  1  0.24238000  0.75484600  0.92190500  1
  F  F17  1  0.36536200  0.39115700  0.41986800  1
  F  F18  1  0.26297500  0.72399600  0.40300900  1
  F  F19  1  0.33043300  0.98975700  0.64580900  1
  F  F20  1  0.46102100  0.73702500  0.73634300  1
  F  F21  1  0.89894800  0.23779900  0.68040000  1
  F  F22  1  0.76220100  0.66114900  0.34706700  1
  F  F23  1  0.51246600  0.75762000  0.25523900  1
  F  F24  1  0.02579500  0.63463800  0.75320200  1
  F  F25  1  0.06161000  0.95778700  0.85405500  1
  F  F26  1  0.56267000  0.22455000  0.27117200  1
  F  F27  1  0.17615000  0.39036000  0.86233600  1
  F  F28  1  0.21420900  0.82385000  0.19566900  1
  F  F29  1  0.27600400  0.53897900  0.06967600  1
  F  F30  1  0.98824100  0.72386800  0.52592100  1
  F  F31  1  0.24515400  0.48753400  0.58857200  1
  F  F32  1  0.60964000  0.78579100  0.52900300  1
loop_
_geom_bond_atom_site_label_1
_geom_bond_atom_site_label_2
_geom_bond_distance
_geom_bond_site_symmetry_2
Ba0 F30 2.515418 1_555
Ba0 F32 2.598569 1_555
Ba0 F15 2.734788 1_555
Ba0 F8 2.804492 1_665
Ba0 F24 2.926485 1_655
Ba0 F20 3.102143 1_555
Ba0 F21 3.134241 1_565
Ba0 F10 3.268479 1_555
Ba0 F19 3.312220 1_655
Ba0 F11 3.393208 1_665
Ba0 F25 3.438489 1_655
Ba1 F7 2.498562 1_555
Ba1 F19 2.784204 1_545
Ba1 F16 2.788769 1_545
Ba1 F10 2.834070 1_555
Ba1 F25 2.916783 1_545
Ba1 F20 2.920869 1_545
Ba1 F1 2.942153 1_555
Ba1 F11 3.036648 1_555
Ba1 F13 3.251070 1_556
Ba2 F7 2.515418 1_555
Ba2 F27 2.598567 1_655
Ba2 F1 2.734784 1_555
Ba2 F25 2.804477 1_645
Ba2 F9 2.926485 1_546
Ba2 F29 3.102143 1_656
Ba2 F13 3.134241 1_656
Ba2 F6 3.268479 1_556
Ba2 F12 3.312220 1_545
Ba2 F0 3.393208 1_546
Ba2 F4 3.438489 1_546
Ba3 F30 2.498566 1_555
Ba3 F14 2.784190 1_655
Ba3 F31 2.788778 1_655
Ba3 F3 2.834070 1_555
Ba3 F8 2.916776 1_655
Ba3 F18 2.920869 1_655
Ba3 F15 2.942153 1_555
Ba3 F2 3.036640 1_555
Ba3 F21 3.251085 1_555
Ba4 F5 2.498562 1_555
Ba4 F12 2.784204 1_554
Ba4 F23 2.788778 1_555
Ba4 F6 2.834070 1_555
Ba4 F4 2.916782 1_555
Ba4 F29 2.920869 1_555
Ba4 F26 2.942153 1_555
Ba4 F0 3.036648 1_555
Ba4 F22 3.251085 1_555
Ba5 F5 2.515418 1_555
Ba5 F28 2.598564 1_545
Ba5 F26 2.734784 1_555
Ba5 F4 2.804482 1_445
Ba5 F17 2.926485 1_555
Ba5 F18 3.102143 1_545
Ba5 F22 3.134244 1_445
Ba5 F3 3.268479 1_555
Ba5 F14 3.312220 1_555
Ba5 F2 3.393212 1_455
Ba5 F8 3.438492 1_555
Bi0 F12 2.162167 1_555
Bi0 F10 2.170279 1_555
Bi0 F1 2.201101 1_555
Bi0 F25 2.302834 1_655
Bi0 F0 2.443131 1_556
Bi0 F24 2.551143 1_655
Bi0 F16 2.693719 1_655
Bi1 F27 2.142826 1_555
Bi1 F20 2.166145 1_555
Bi1 F11 2.182264 1_555
Bi1 F21 2.184107 1_455
Bi1 F31 2.207245 1_555
Bi1 F24 2.218815 1_555
Bi2 F32 2.142843 1_555
Bi2 F18 2.166149 1_555
Bi2 F2 2.182267 1_565
Bi2 F22 2.184097 1_555
Bi2 F23 2.207232 1_555
Bi2 F17 2.218808 1_555
Bi3 F14 2.162167 1_655
Bi3 F6 2.170290 1_555
Bi3 F26 2.201097 1_555
Bi3 F4 2.302832 1_545
Bi3 F2 2.443131 1_555
Bi3 F9 2.551157 1_545
Bi3 F23 2.693719 1_545
Bi4 F28 2.142831 1_555
Bi4 F29 2.166141 1_555
Bi4 F0 2.182271 1_455
Bi4 F13 2.184110 1_565
Bi4 F16 2.207246 1_554
Bi4 F9 2.218808 1_555
Bi5 F19 2.162167 1_545
Bi5 F3 2.170290 1_555
Bi5 F15 2.201097 1_555
Bi5 F8 2.302839 1_555
Bi5 F11 2.443131 1_555
Bi5 F17 2.551157 1_555
Bi5 F31 2.693719 1_555
