# generated using pymatgen
data_Mn2SbAs
_symmetry_space_group_name_H-M   'P 1'
_cell_length_a   3.93248403
_cell_length_b   3.93248403
_cell_length_c   5.86765346
_cell_angle_alpha   90.00000000
_cell_angle_beta   90.00000000
_cell_angle_gamma   120.00000013
_symmetry_Int_Tables_number   1
_chemical_formula_structural   Mn2SbAs
_chemical_formula_sum   'Mn2 Sb1 As1'
_cell_volume   78.58307565
_cell_formula_units_Z   1
loop_
 _symmetry_equiv_pos_site_id
 _symmetry_equiv_pos_as_xyz
  1  'x, y, z'
loop_
 _atom_site_type_symbol
 _atom_site_label
 _atom_site_symmetry_multiplicity
 _atom_site_fract_x
 _atom_site_fract_y
 _atom_site_fract_z
 _atom_site_occupancy
  Mn  Mn0  1  -0.00000000  0.00000000  0.23525020  1
  Mn  Mn1  1  0.00000000  -0.00000000  0.76474811  1
  Sb  Sb0  1  0.33333300  0.66666700  0.49998891  1
  As  As0  1  0.66666700  0.33333300  0.00001277  1
loop_
_geom_bond_atom_site_label_1
_geom_bond_atom_site_label_2
_geom_bond_distance
_geom_bond_site_symmetry_2
Mn0 Sb0 2.750970 1_545
Mn0 Sb0 2.750973 1_555
Mn0 Sb0 2.750973 1_445
Mn1 Sb0 2.751038 1_545
Mn1 Sb0 2.751041 1_555
Mn1 Sb0 2.751041 1_445
As0 Mn0 2.657067 1_655
As0 Mn0 2.657070 1_665
As0 Mn0 2.657070 1_555
As0 Mn1 2.657150 1_654
As0 Mn1 2.657153 1_664
As0 Mn1 2.657153 1_554
