# generated using pymatgen
data_Na2SeO2
_symmetry_space_group_name_H-M   'P 1'
_cell_length_a   8.71010661
_cell_length_b   8.71010661
_cell_length_c   8.85040481
_cell_angle_alpha   121.56189961
_cell_angle_beta   121.56189961
_cell_angle_gamma   86.34774031
_symmetry_Int_Tables_number   1
_chemical_formula_structural   Na2SeO2
_chemical_formula_sum   'Na8 Se4 O8'
_cell_volume   466.59851588
_cell_formula_units_Z   4
loop_
 _symmetry_equiv_pos_site_id
 _symmetry_equiv_pos_as_xyz
  1  'x, y, z'
loop_
 _atom_site_type_symbol
 _atom_site_label
 _atom_site_symmetry_multiplicity
 _atom_site_fract_x
 _atom_site_fract_y
 _atom_site_fract_z
 _atom_site_occupancy
  Na  Na0  1  0.34654600  0.08227000  0.71760300  1
  Na  Na1  1  0.37105800  0.63533300  0.71760300  1
  Na  Na2  1  0.91773000  0.65345400  0.28239700  1
  Na  Na3  1  0.90345400  0.66773000  0.78239700  1
  Na  Na4  1  0.36466700  0.62894200  0.28239700  1
  Na  Na5  1  0.87894200  0.11466700  0.78239700  1
  Na  Na6  1  0.33227000  0.09654600  0.21760300  1
  Na  Na7  1  0.88533300  0.12105800  0.21760300  1
  Se  Se0  1  0.62500000  0.87500000  0.75000000  1
  Se  Se1  1  0.12500000  0.87500000  0.75000000  1
  Se  Se2  1  0.12500000  0.37500000  0.25000000  1
  Se  Se3  1  0.12500000  0.87500000  0.25000000  1
  O  O0  1  0.69328300  0.70095000  0.88062900  1
  O  O1  1  0.18734700  0.17967900  0.88062900  1
  O  O2  1  0.29905000  0.30671700  0.11937100  1
  O  O3  1  0.55671700  0.04905000  0.61937100  1
  O  O4  1  0.82032100  0.81265300  0.11937100  1
  O  O5  1  0.06265300  0.57032100  0.61937100  1
  O  O6  1  0.95095000  0.44328300  0.38062900  1
  O  O7  1  0.42967900  0.93734700  0.38062900  1
loop_
_geom_bond_atom_site_label_1
_geom_bond_atom_site_label_2
_geom_bond_distance
_geom_bond_site_symmetry_2
Na0 O1 2.321089 1_555
Na0 O3 2.350734 1_555
Na0 Se3 2.893516 1_545
Na0 Se0 2.912031 1_545
Na0 Se1 2.937705 1_545
Na1 O0 2.321089 1_555
Na1 O5 2.350750 1_555
Na1 Se2 2.893517 1_555
Na1 Se1 2.912037 1_555
Na1 Se0 2.937698 1_555
Na2 O4 2.321089 1_555
Na2 O6 2.350734 1_555
Na2 Se1 2.893516 1_655
Na2 Se2 2.912031 1_655
Na2 Se3 2.937705 1_655
Na3 O5 2.321089 1_655
Na3 O0 2.350734 1_555
Na3 Se3 2.893516 1_656
Na3 Se0 2.912031 1_555
Na3 Se1 2.937705 1_655
Na4 O2 2.321089 1_555
Na4 O7 2.350750 1_555
Na4 Se0 2.893517 1_555
Na4 Se3 2.912037 1_555
Na4 Se2 2.937698 1_555
Na5 O3 2.321089 1_555
Na5 O1 2.350750 1_655
Na5 Se2 2.893517 1_656
Na5 Se1 2.912037 1_645
Na5 Se0 2.937698 1_545
Na6 O7 2.321089 1_545
Na6 O2 2.350734 1_555
Na6 Se1 2.893516 1_544
Na6 Se2 2.912031 1_555
Na6 Se3 2.937705 1_545
Na7 O6 2.321089 1_555
Na7 O4 2.350750 1_545
Na7 Se0 2.893517 1_544
Na7 Se3 2.912037 1_645
Na7 Se2 2.937698 1_655
O0 O4 1.474159 1_556
O0 Se0 2.233531 1_555
O1 O2 1.474159 1_556
O1 Se1 2.233532 1_545
O2 Se2 2.233531 1_555
O3 O7 1.474159 1_545
O3 Se0 2.233531 1_545
O4 Se3 2.233532 1_655
O5 O6 1.474159 1_455
O5 Se1 2.233532 1_555
O6 Se2 2.233531 1_655
O7 Se3 2.233532 1_555
