# generated using pymatgen
data_K6Sr2Ni5(P2O7)5
_symmetry_space_group_name_H-M   'P 1'
_cell_length_a   7.52678394
_cell_length_b   11.23836250
_cell_length_c   19.81665132
_cell_angle_alpha   90.17883105
_cell_angle_beta   89.52161698
_cell_angle_gamma   100.29317292
_symmetry_Int_Tables_number   1
_chemical_formula_structural   K6Sr2Ni5(P2O7)5
_chemical_formula_sum   'K12 Sr4 Ni10 P20 O70'
_cell_volume   1649.22829725
_cell_formula_units_Z   2
loop_
 _symmetry_equiv_pos_site_id
 _symmetry_equiv_pos_as_xyz
  1  'x, y, z'
loop_
 _atom_site_type_symbol
 _atom_site_label
 _atom_site_symmetry_multiplicity
 _atom_site_fract_x
 _atom_site_fract_y
 _atom_site_fract_z
 _atom_site_occupancy
  K  K0  1  0.89855604  0.64847303  0.09214961  1
  K  K1  1  0.59796922  0.35166586  0.59092107  1
  K  K2  1  0.10144396  0.35152697  0.90785039  1
  K  K3  1  0.40203078  0.64833414  0.40907893  1
  K  K4  1  0.45243882  0.29046025  0.39984035  1
  K  K5  1  0.04645138  0.70639230  0.89665258  1
  K  K6  1  0.54756118  0.70953975  0.60015965  1
  K  K7  1  0.95354862  0.29360770  0.10334742  1
  K  K8  1  0.59233405  0.27619286  0.80729371  1
  K  K9  1  0.91051698  0.72053453  0.30701400  1
  K  K10  1  0.40766595  0.72380714  0.19270629  1
  K  K11  1  0.08948302  0.27946547  0.69298600  1
  Sr  Sr0  1  0.92857151  0.13013837  0.29028563  1
  Sr  Sr1  1  0.57451641  0.87434713  0.78944232  1
  Sr  Sr2  1  0.07142849  0.86986163  0.70971437  1
  Sr  Sr3  1  0.42548359  0.12565287  0.21055768  1
  Ni  Ni0  1  0.85089278  0.91186034  0.46509011  1
  Ni  Ni1  1  0.64958503  0.08801767  0.96506498  1
  Ni  Ni2  1  0.14910722  0.08813966  0.53490989  1
  Ni  Ni3  1  0.35041497  0.91198233  0.03493502  1
  Ni  Ni4  1  0.50000000  0.00000000  0.50000000  1
  Ni  Ni5  1  -0.00000000  0.00000000  0.00000000  1
  Ni  Ni6  1  0.97508214  0.43047610  0.36892582  1
  Ni  Ni7  1  0.53165998  0.57018882  0.87083258  1
  Ni  Ni8  1  0.02491786  0.56952390  0.63107418  1
  Ni  Ni9  1  0.46834002  0.42981118  0.12916742  1
  P  P0  1  0.28545212  0.99412100  0.87707059  1
  P  P1  1  0.21437395  0.00528850  0.37731107  1
  P  P2  1  0.71454788  0.00587900  0.12292941  1
  P  P3  1  0.78562605  0.99471150  0.62268893  1
  P  P4  1  0.67029268  0.79406643  0.96593560  1
  P  P5  1  0.83075962  0.20615850  0.46590090  1
  P  P6  1  0.32970732  0.20593357  0.03406440  1
  P  P7  1  0.16924038  0.79384150  0.53409910  1
  P  P8  1  0.35889957  0.62517213  0.01297907  1
  P  P9  1  0.13967300  0.37492073  0.51324737  1
  P  P10  1  0.64110043  0.37482787  0.98702093  1
  P  P11  1  0.86032700  0.62507927  0.48675263  1
  P  P12  1  0.95215063  0.07891390  0.84412180  1
  P  P13  1  0.54972129  0.92102447  0.34410250  1
  P  P14  1  0.04784937  0.92108610  0.15587820  1
  P  P15  1  0.45027871  0.07897553  0.65589750  1
  P  P16  1  0.62871770  0.45718356  0.25049810  1
  P  P17  1  0.37128230  0.54281644  0.74950190  1
  P  P18  1  0.76364212  0.54298318  0.73096515  1
  P  P19  1  0.23635788  0.45701682  0.26903485  1
  O  O0  1  0.32034572  0.58146104  0.93968866  1
  O  O1  1  0.17931792  0.41889064  0.44017754  1
  O  O2  1  0.67965428  0.41853896  0.06031134  1
  O  O3  1  0.82068208  0.58110936  0.55982246  1
  O  O4  1  0.89957466  0.96514618  0.80130962  1
  O  O5  1  0.60291663  0.03510699  0.30136966  1
  O  O6  1  0.10042534  0.03485382  0.19869038  1
  O  O7  1  0.39708337  0.96489301  0.69863034  1
  O  O8  1  0.86290688  0.82382014  0.99166037  1
  O  O9  1  0.63711933  0.17566326  0.49177263  1
  O  O10  1  0.13709312  0.17617986  0.00833963  1
  O  O11  1  0.36288067  0.82433674  0.50822737  1
  O  O12  1  0.33669403  0.52456863  0.06470118  1
  O  O13  1  0.16094930  0.47491493  0.56595217  1
  O  O14  1  0.66330597  0.47543137  0.93529882  1
  O  O15  1  0.83905070  0.52508507  0.43404783  1
  O  O16  1  0.87475762  0.05764313  0.91670822  1
  O  O17  1  0.62599490  0.94222137  0.41633274  1
  O  O18  1  0.12524238  0.94235687  0.08329178  1
  O  O19  1  0.37400510  0.05777863  0.58366726  1
  O  O20  1  0.57430815  0.68809467  0.01684270  1
  O  O21  1  0.92397362  0.31203470  0.51703734  1
  O  O22  1  0.42569185  0.31190533  0.98315730  1
  O  O23  1  0.07602638  0.68796530  0.48296266  1
  O  O24  1  0.20779735  0.94686866  0.94632571  1
  O  O25  1  0.29188296  0.05320911  0.44612365  1
  O  O26  1  0.79220265  0.05313134  0.05367429  1
  O  O27  1  0.70811704  0.94679089  0.55387635  1
  O  O28  1  0.56113433  0.89729039  0.97193367  1
  O  O29  1  0.93972931  0.10322226  0.47153817  1
  O  O30  1  0.43886567  0.10270961  0.02806633  1
  O  O31  1  0.06027069  0.89677774  0.52846183  1
  O  O32  1  0.25293083  0.72564071  0.03233201  1
  O  O33  1  0.24507404  0.27442818  0.53193720  1
  O  O34  1  0.74706917  0.27435929  0.96766799  1
  O  O35  1  0.75492596  0.72557182  0.46806280  1
  O  O36  1  0.77747753  0.46440796  0.30134296  1
  O  O37  1  0.74455696  0.53563690  0.80754112  1
  O  O38  1  0.22252247  0.53559204  0.69865704  1
  O  O39  1  0.25544304  0.46436310  0.19245888  1
  O  O40  1  0.58514447  0.33727373  0.21071772  1
  O  O41  1  0.88304509  0.66069090  0.70597491  1
  O  O42  1  0.41485553  0.66272627  0.78928228  1
  O  O43  1  0.11695491  0.33930910  0.29402509  1
  O  O44  1  0.25492459  0.89058915  0.82575965  1
  O  O45  1  0.24509520  0.10813458  0.32559574  1
  O  O46  1  0.74507541  0.10941085  0.17424035  1
  O  O47  1  0.75490480  0.89186542  0.67440426  1
  O  O48  1  0.48293907  0.06035954  0.87688600  1
  O  O49  1  0.01719245  0.93895682  0.37724182  1
  O  O50  1  0.51706093  0.93964046  0.12311400  1
  O  O51  1  0.98280755  0.06104318  0.62275818  1
  O  O52  1  0.64760546  0.56078669  0.19869718  1
  O  O53  1  0.82852919  0.43753970  0.69446755  1
  O  O54  1  0.35239454  0.43921331  0.80130282  1
  O  O55  1  0.17147081  0.56246030  0.30553245  1
  O  O56  1  0.17311277  0.09794443  0.85346469  1
  O  O57  1  0.32820457  0.90175237  0.35354802  1
  O  O58  1  0.82688723  0.90205557  0.14653531  1
  O  O59  1  0.67179543  0.09824763  0.64645198  1
  O  O60  1  0.66149187  0.74210829  0.89396199  1
  O  O61  1  0.84112312  0.25843335  0.39381584  1
  O  O62  1  0.33850813  0.25789171  0.10603801  1
  O  O63  1  0.15887688  0.74156665  0.60618416  1
  O  O64  1  0.91947573  0.19566070  0.81324205  1
  O  O65  1  0.58296183  0.80439460  0.31252751  1
  O  O66  1  0.08052427  0.80433930  0.18675795  1
  O  O67  1  0.41703817  0.19560540  0.68747249  1
  O  O68  1  0.55511345  0.53906074  0.70228105  1
  O  O69  1  0.44488655  0.46093926  0.29771895  1
loop_
_geom_bond_atom_site_label_1
_geom_bond_atom_site_label_2
_geom_bond_distance
_geom_bond_site_symmetry_2
K0 O66 2.761201 1_655
K0 O8 2.853632 1_554
K0 O2 2.876781 1_555
K0 O52 2.877176 1_555
K0 O32 2.898051 1_655
K0 O20 2.972358 1_555
K0 O58 3.177214 1_555
K1 O53 2.757167 1_555
K1 O67 2.777644 1_555
K1 O9 2.834433 1_555
K1 O3 2.878675 1_555
K1 O33 2.897667 1_555
K1 O21 2.947797 1_555
K1 O68 3.100176 1_555
K1 O59 3.197844 1_555
K2 O64 2.761201 1_455
K2 O10 2.853632 1_556
K2 O0 2.876781 1_555
K2 O54 2.877176 1_555
K2 O34 2.898051 1_455
K2 O22 2.972358 1_555
K2 O56 3.177214 1_555
K3 O55 2.757167 1_555
K3 O65 2.777644 1_555
K3 O11 2.834433 1_555
K3 O1 2.878675 1_555
K3 O35 2.897667 1_555
K3 O23 2.947797 1_555
K3 O69 3.100176 1_555
K3 O57 3.197844 1_555
K4 O9 2.759246 1_555
K4 O45 2.770475 1_555
K4 O69 2.798990 1_555
K4 O1 2.823813 1_555
K4 O25 2.873344 1_555
K4 O61 3.012110 1_555
K4 O33 3.025755 1_555
K5 O44 2.746185 1_555
K5 O8 2.790598 1_455
K5 O0 2.831923 1_555
K5 O24 2.928831 1_555
K5 O60 2.996306 1_455
K5 O32 3.104396 1_556
K5 O37 3.232926 1_455
K6 O11 2.759246 1_555
K6 O47 2.770475 1_555
K6 O68 2.798990 1_555
K6 O3 2.823813 1_555
K6 O27 2.873344 1_555
K6 O63 3.012110 1_555
K6 O35 3.025755 1_555
K7 O46 2.746185 1_555
K7 O10 2.790598 1_655
K7 O2 2.831923 1_555
K7 O26 2.928831 1_555
K7 O62 2.996306 1_655
K7 O34 3.104396 1_554
K7 O39 3.232926 1_655
K8 O64 2.774522 1_555
K8 O48 2.784173 1_555
K8 O67 2.794813 1_555
K8 O54 2.796341 1_555
K8 O37 2.936046 1_555
K8 O53 3.202245 1_555
K9 O66 2.781343 1_655
K9 O65 2.793520 1_555
K9 O49 2.810700 1_655
K9 O55 2.874080 1_655
K9 O36 2.875861 1_555
K10 O66 2.774522 1_555
K10 O50 2.784173 1_555
K10 O65 2.794813 1_555
K10 O52 2.796341 1_555
K10 O39 2.936046 1_555
K10 O55 3.202245 1_555
K11 O64 2.781343 1_455
K11 O67 2.793520 1_555
K11 O51 2.810700 1_455
K11 O53 2.874080 1_455
K11 O38 2.875861 1_555
Ni0 O17 2.037447 1_555
Ni0 O31 2.054078 1_655
Ni0 O35 2.089957 1_555
Ni0 O27 2.125909 1_555
Ni0 O49 2.126214 1_655
Ni0 O29 2.138760 1_565
Ni1 O16 2.021097 1_555
Ni1 O30 2.039782 1_556
Ni1 O34 2.092232 1_555
Ni1 O28 2.132257 1_545
Ni1 O26 2.139046 1_556
Ni1 O48 2.148775 1_555
Ni2 O19 2.037447 1_555
Ni2 O29 2.054078 1_455
Ni2 O33 2.089957 1_555
Ni2 O25 2.125909 1_555
Ni2 O51 2.126214 1_455
Ni2 O31 2.138760 1_545
Ni3 O18 2.021097 1_555
Ni3 O28 2.039782 1_554
Ni3 O32 2.092232 1_555
Ni3 O30 2.132257 1_565
Ni3 O24 2.139046 1_554
Ni3 O50 2.148775 1_555
Ni4 O17 2.063262 1_545
Ni4 O19 2.063262 1_555
Ni4 O9 2.064013 1_555
Ni4 O11 2.064013 1_545
Ni4 O27 2.077955 1_545
Ni4 O25 2.077955 1_555
Ni5 O24 2.058185 1_544
Ni5 O26 2.058185 1_455
Ni5 O8 2.069549 1_444
Ni5 O10 2.069549 1_555
Ni5 O18 2.069674 1_545
Ni5 O16 2.069674 1_454
Ni6 O15 2.050034 1_555
Ni6 O61 2.073454 1_555
Ni6 O36 2.095313 1_555
Ni6 O1 2.117224 1_655
Ni6 O43 2.179027 1_655
Ni6 O55 2.271642 1_655
Ni7 O14 2.038289 1_555
Ni7 O60 2.055536 1_555
Ni7 O0 2.107684 1_555
Ni7 O37 2.115989 1_555
Ni7 O42 2.197055 1_555
Ni7 O54 2.279102 1_555
Ni8 O13 2.050034 1_555
Ni8 O63 2.073454 1_555
Ni8 O38 2.095313 1_555
Ni8 O3 2.117224 1_455
Ni8 O41 2.179027 1_455
Ni8 O53 2.271642 1_455
Ni9 O12 2.038289 1_555
Ni9 O62 2.055536 1_555
Ni9 O2 2.107684 1_555
Ni9 O39 2.115989 1_555
Ni9 O40 2.197055 1_555
Ni9 O52 2.279102 1_555
O0 P8 1.544845 1_556
O1 P9 1.540936 1_555
O2 P10 1.544845 1_554
O3 P11 1.540936 1_555
O4 P12 1.526144 1_565
O4 Sr1 2.489686 1_555
O4 Sr2 2.560890 1_655
O5 P13 1.529335 1_545
O5 Sr0 2.500774 1_555
O5 Sr3 2.568033 1_555
O6 P14 1.526144 1_545
O6 Sr3 2.489686 1_555
O6 Sr0 2.560890 1_455
O7 P15 1.529335 1_565
O7 Sr2 2.500774 1_555
O7 Sr1 2.568033 1_555
O8 P4 1.520375 1_555
O9 P5 1.521411 1_555
O10 P6 1.520375 1_555
O11 P7 1.521411 1_555
O12 P8 1.514469 1_555
O13 P9 1.520033 1_555
O14 P10 1.514469 1_555
O15 P11 1.520033 1_555
O16 P12 1.550457 1_555
O17 P13 1.548499 1_555
O18 P14 1.550457 1_555
O19 P15 1.548499 1_555
O20 P4 1.626604 1_554
O20 P8 1.651255 1_555
O21 P5 1.625096 1_555
O21 P9 1.652026 1_655
O22 P6 1.626604 1_556
O22 P10 1.651255 1_555
O23 P7 1.625096 1_555
O23 P11 1.652026 1_455
O24 P0 1.545108 1_555
O25 P1 1.544766 1_555
O26 P2 1.545108 1_555
O27 P3 1.544766 1_555
O28 P4 1.540473 1_555
O29 P5 1.537816 1_555
O30 P6 1.540473 1_555
O31 P7 1.537816 1_555
O32 P8 1.540179 1_555
O33 P9 1.539395 1_555
O34 P10 1.540179 1_555
O35 P11 1.539395 1_555
O36 P16 1.503772 1_555
O37 P18 1.524171 1_555
O38 P17 1.503772 1_555
O39 P19 1.524171 1_555
O40 P16 1.544261 1_555
O40 Sr3 2.465560 1_555
O41 P18 1.540989 1_555
O41 Sr2 2.520208 1_655
O42 P17 1.544261 1_555
O42 Sr1 2.465560 1_555
O43 P19 1.540989 1_555
O43 Sr0 2.520208 1_455
O44 P0 1.530187 1_555
O44 Sr1 2.542613 1_555
O44 Sr2 2.680449 1_555
O45 P1 1.532182 1_555
O45 Sr0 2.542849 1_455
O45 Sr3 2.633384 1_555
O46 P2 1.530187 1_555
O46 Sr3 2.542613 1_555
O46 Sr0 2.680449 1_555
O47 P3 1.532182 1_555
O47 Sr2 2.542849 1_655
O47 Sr1 2.633384 1_555
O48 P0 1.538883 1_545
O48 Sr1 2.884497 1_545
O49 P1 1.537217 1_565
O49 Sr0 2.930034 1_465
O50 P2 1.538883 1_565
O50 Sr3 2.884497 1_565
O51 P3 1.537217 1_545
O51 Sr2 2.930034 1_645
O52 P16 1.541262 1_555
O53 P18 1.536705 1_555
O54 P17 1.541262 1_555
O55 P19 1.536705 1_555
O56 P0 1.630281 1_545
O56 P12 1.650398 1_455
O57 P1 1.629676 1_565
O57 P13 1.651621 1_555
O58 P2 1.630281 1_565
O58 P14 1.650398 1_655
O59 P3 1.629676 1_545
O59 P15 1.651621 1_555
O60 P4 1.536937 1_555
O60 Sr1 2.704946 1_555
O61 P5 1.542333 1_555
O61 Sr0 2.649412 1_555
O62 P6 1.536937 1_555
O62 Sr3 2.704946 1_555
O63 P7 1.542333 1_555
O63 Sr2 2.649412 1_555
O64 P12 1.509717 1_555
O65 P13 1.510491 1_555
O66 P14 1.509717 1_555
O67 P15 1.510491 1_555
O68 P18 1.666899 1_555
O68 P17 1.670610 1_555
O69 P19 1.666899 1_555
O69 P16 1.670610 1_555
