# generated using pymatgen
data_Li9Mn2Co5O16
_symmetry_space_group_name_H-M   'P 1'
_cell_length_a   5.80963300
_cell_length_b   5.11680900
_cell_length_c   9.78090168
_cell_angle_alpha   80.81823657
_cell_angle_beta   90.00000000
_cell_angle_gamma   90.00000000
_symmetry_Int_Tables_number   1
_chemical_formula_structural   Li9Mn2Co5O16
_chemical_formula_sum   'Li9 Mn2 Co5 O16'
_cell_volume   287.02932581
_cell_formula_units_Z   1
loop_
 _symmetry_equiv_pos_site_id
 _symmetry_equiv_pos_as_xyz
  1  'x, y, z'
loop_
 _atom_site_type_symbol
 _atom_site_label
 _atom_site_symmetry_multiplicity
 _atom_site_fract_x
 _atom_site_fract_y
 _atom_site_fract_z
 _atom_site_occupancy
  Li  Li0  1  0.24363900  0.25982800  0.73412400  1
  Li  Li1  1  0.24363900  0.74017200  0.26587600  1
  Li  Li2  1  0.50000000  0.75918900  0.74000500  1
  Li  Li3  1  0.50000000  0.24081100  0.25999500  1
  Li  Li4  1  0.75636100  0.25982800  0.73412400  1
  Li  Li5  1  0.75636100  0.74017200  0.26587600  1
  Li  Li6  1  0.00000000  0.74651500  0.73588500  1
  Li  Li7  1  0.00000000  0.25348500  0.26411500  1
  Li  Li8  1  0.00000000  0.50000000  0.50000000  1
  Mn  Mn0  1  0.00000000  0.00000000  0.00000000  1
  Mn  Mn1  1  0.50000000  0.00000000  0.00000000  1
  Co  Co0  1  0.24517000  0.50000000  0.00000000  1
  Co  Co1  1  0.24330800  0.00000000  0.50000000  1
  Co  Co2  1  0.50000000  0.50000000  0.50000000  1
  Co  Co3  1  0.75483000  0.50000000  0.00000000  1
  Co  Co4  1  0.75669200  0.00000000  0.50000000  1
  O  O0  1  0.25489700  0.89444600  0.88540300  1
  O  O1  1  0.26972900  0.36122600  0.38988900  1
  O  O2  1  0.50000000  0.36470300  0.89616000  1
  O  O3  1  0.50000000  0.84645900  0.38790200  1
  O  O4  1  0.74510300  0.89444600  0.88540300  1
  O  O5  1  0.73027100  0.36122600  0.38988900  1
  O  O6  1  0.00000000  0.40055700  0.88278100  1
  O  O7  1  0.00000000  0.89203000  0.37992700  1
  O  O8  1  0.26972900  0.63877400  0.61011100  1
  O  O9  1  0.25489700  0.10555400  0.11459700  1
  O  O10  1  0.50000000  0.15354100  0.61209800  1
  O  O11  1  0.50000000  0.63529700  0.10384000  1
  O  O12  1  0.73027100  0.63877400  0.61011100  1
  O  O13  1  0.74510300  0.10555400  0.11459700  1
  O  O14  1  0.00000000  0.10797000  0.62007300  1
  O  O15  1  0.00000000  0.59944300  0.11721900  1
loop_
_geom_bond_atom_site_label_1
_geom_bond_atom_site_label_2
_geom_bond_distance
_geom_bond_site_symmetry_2
Li0 O14 2.031820 1_555
Li0 O10 2.036081 1_555
Li0 O8 2.122113 1_555
Li0 O0 2.192296 1_545
Li0 O6 2.229412 1_555
Li0 O2 2.299861 1_555
Li1 O7 2.031820 1_555
Li1 O3 2.036081 1_555
Li1 O1 2.122113 1_555
Li1 O9 2.192296 1_565
Li1 O15 2.229412 1_555
Li1 O11 2.299861 1_555
Li2 O12 2.008295 1_555
Li2 O8 2.008295 1_555
Li2 O10 2.197979 1_565
Li2 O4 2.200721 1_555
Li2 O0 2.200721 1_555
Li2 O2 2.328791 1_555
Li3 O1 2.008295 1_555
Li3 O5 2.008295 1_555
Li3 O3 2.197979 1_545
Li3 O13 2.200721 1_555
Li3 O9 2.200721 1_555
Li3 O11 2.328791 1_555
Li4 O14 2.031820 1_655
Li4 O10 2.036081 1_555
Li4 O12 2.122113 1_555
Li4 O4 2.192296 1_545
Li4 O6 2.229412 1_655
Li4 O2 2.299861 1_555
Li5 O7 2.031820 1_655
Li5 O3 2.036081 1_555
Li5 O5 2.122113 1_555
Li5 O13 2.192296 1_565
Li5 O15 2.229412 1_655
Li5 O11 2.299861 1_555
Li6 O14 2.008771 1_565
Li6 O6 2.094339 1_555
Li6 O12 2.118791 1_455
Li6 O8 2.118791 1_555
Li6 O4 2.292996 1_455
Li6 O0 2.292996 1_555
Li7 O7 2.008771 1_545
Li7 O15 2.094339 1_555
Li7 O1 2.118791 1_555
Li7 O5 2.118791 1_455
Li7 O13 2.292996 1_455
Li7 O9 2.292996 1_555
Li8 O8 2.088956 1_555
Li8 O5 2.088956 1_455
Li8 O1 2.088956 1_555
Li8 O12 2.088956 1_455
Li8 O14 2.156676 1_555
Li8 O7 2.156676 1_555
Mn0 O0 1.983476 1_544
Mn0 O9 1.983476 1_555
Mn0 O4 1.983476 1_444
Mn0 O13 1.983476 1_455
Mn0 O6 2.182960 1_554
Mn0 O15 2.182960 1_545
Mn1 O4 1.941364 1_544
Mn1 O13 1.941364 1_555
Mn1 O0 1.941364 1_544
Mn1 O9 1.941364 1_555
Mn1 O11 1.977137 1_545
Mn1 O2 1.977137 1_554
Co0 O6 1.946363 1_554
Co0 O15 1.946363 1_555
Co0 O11 1.981662 1_555
Co0 O2 1.981662 1_554
Co0 O0 2.147352 1_554
Co0 O9 2.147352 1_555
Co1 O14 1.972210 1_555
Co1 O7 1.972210 1_545
Co1 O8 1.991102 1_545
Co1 O1 1.991102 1_555
Co1 O3 2.078028 1_545
Co1 O10 2.078028 1_555
Co2 O12 1.922979 1_555
Co2 O8 1.922979 1_555
Co2 O1 1.922979 1_555
Co2 O5 1.922979 1_555
Co2 O3 1.929904 1_555
Co2 O10 1.929904 1_555
Co3 O6 1.946363 1_654
Co3 O15 1.946363 1_655
Co3 O11 1.981662 1_555
Co3 O2 1.981662 1_554
Co3 O4 2.147352 1_554
Co3 O13 2.147352 1_555
Co4 O14 1.972210 1_655
Co4 O7 1.972210 1_645
Co4 O12 1.991102 1_545
Co4 O5 1.991102 1_555
Co4 O3 2.078028 1_545
Co4 O10 2.078028 1_555
