# generated using pymatgen
data_MgZn5
_symmetry_space_group_name_H-M   'P 1'
_cell_length_a   5.38959715
_cell_length_b   5.38959715
_cell_length_c   5.38959710
_cell_angle_alpha   52.43621118
_cell_angle_beta   52.43621118
_cell_angle_gamma   52.43621802
_symmetry_Int_Tables_number   1
_chemical_formula_structural   MgZn5
_chemical_formula_sum   'Mg1 Zn5'
_cell_volume   91.04085867
_cell_formula_units_Z   1
loop_
 _symmetry_equiv_pos_site_id
 _symmetry_equiv_pos_as_xyz
  1  'x, y, z'
loop_
 _atom_site_type_symbol
 _atom_site_label
 _atom_site_symmetry_multiplicity
 _atom_site_fract_x
 _atom_site_fract_y
 _atom_site_fract_z
 _atom_site_occupancy
  Mg  Mg0  1  0.50000000  0.50000000  0.50000000  1
  Zn  Zn0  1  -0.00000000  0.67071478  0.32928522  1
  Zn  Zn1  1  0.83627446  0.83627446  0.83627446  1
  Zn  Zn2  1  0.67071478  0.32928522  -0.00000000  1
  Zn  Zn3  1  0.32928522  0.00000000  0.67071478  1
  Zn  Zn4  1  0.16372554  0.16372554  0.16372554  1
loop_
_geom_bond_atom_site_label_1
_geom_bond_atom_site_label_2
_geom_bond_distance
_geom_bond_site_symmetry_2
Mg0 Zn4 2.749723 1_556
Mg0 Zn1 2.749723 1_554
Mg0 Zn4 2.749723 1_565
Mg0 Zn1 2.749723 1_455
Mg0 Zn1 2.749723 1_545
Mg0 Zn4 2.749723 1_655
Mg0 Zn0 2.814756 1_655
Mg0 Zn3 2.814756 1_555
Mg0 Zn2 2.814756 1_555
Mg0 Zn2 2.814756 1_556
Mg0 Zn0 2.814757 1_555
Mg0 Zn3 2.814757 1_565
Zn0 Zn3 2.716029 1_564
Zn0 Zn2 2.716029 1_465
Zn0 Zn4 2.764620 1_565
Zn0 Zn1 2.764620 1_454
Zn0 Zn2 2.766265 1_456
Zn0 Zn3 2.766265 1_465
Zn0 Zn3 2.766265 1_555
Zn0 Zn2 2.766265 1_555
Zn0 Zn1 2.848531 1_455
Zn0 Zn4 2.848531 1_555
Zn1 Zn4 2.750636 1_665
Zn1 Zn4 2.750636 1_656
Zn1 Zn4 2.750636 1_566
Zn1 Zn3 2.764620 1_665
Zn1 Zn2 2.764620 1_566
Zn1 Zn2 2.848531 1_556
Zn1 Zn3 2.848531 1_565
Zn2 Zn3 2.716029 1_654
Zn2 Zn4 2.764620 1_655
Zn2 Zn3 2.766265 1_555
Zn2 Zn3 2.766265 1_564
Zn2 Zn4 2.848531 1_555
Zn3 Zn4 2.764620 1_556
Zn3 Zn4 2.848531 1_555
