# generated using pymatgen
data_Mg2SiSe4
_symmetry_space_group_name_H-M   'P 1'
_cell_length_a   6.25591605
_cell_length_b   7.83272927
_cell_length_c   13.39362675
_cell_angle_alpha   90.00000000
_cell_angle_beta   90.00000000
_cell_angle_gamma   90.00000000
_symmetry_Int_Tables_number   1
_chemical_formula_structural   Mg2SiSe4
_chemical_formula_sum   'Mg8 Si4 Se16'
_cell_volume   656.29972156
_cell_formula_units_Z   4
loop_
 _symmetry_equiv_pos_site_id
 _symmetry_equiv_pos_as_xyz
  1  'x, y, z'
loop_
 _atom_site_type_symbol
 _atom_site_label
 _atom_site_symmetry_multiplicity
 _atom_site_fract_x
 _atom_site_fract_y
 _atom_site_fract_z
 _atom_site_occupancy
  Mg  Mg0  1  0.00000000  0.50000000  -0.00000000  1
  Mg  Mg1  1  0.50000000  -0.00000000  0.50000000  1
  Mg  Mg2  1  0.00000000  -0.00000000  -0.00000000  1
  Mg  Mg3  1  0.50000000  0.50000000  0.50000000  1
  Mg  Mg4  1  0.49590974  0.75000000  0.23144787  1
  Mg  Mg5  1  0.00409026  0.75000000  0.73144787  1
  Mg  Mg6  1  0.50409026  0.25000000  0.76855213  1
  Mg  Mg7  1  0.99590974  0.25000000  0.26855213  1
  Si  Si0  1  0.90592079  0.75000000  0.41102378  1
  Si  Si1  1  0.59407921  0.75000000  0.91102378  1
  Si  Si2  1  0.09407921  0.25000000  0.58897622  1
  Si  Si3  1  0.40592079  0.25000000  0.08897622  1
  Se  Se0  1  0.26563086  0.75000000  0.40757623  1
  Se  Se1  1  0.23436914  0.75000000  0.90757623  1
  Se  Se2  1  0.73436914  0.25000000  0.59242377  1
  Se  Se3  1  0.76563086  0.25000000  0.09242377  1
  Se  Se4  1  0.75702373  0.75000000  0.56746299  1
  Se  Se5  1  0.74297627  0.75000000  0.06746299  1
  Se  Se6  1  0.24297627  0.25000000  0.43253701  1
  Se  Se7  1  0.25702373  0.25000000  0.93253701  1
  Se  Se8  1  0.75091862  0.52145104  0.33249573  1
  Se  Se9  1  0.74908138  0.97854896  0.83249573  1
  Se  Se10  1  0.24908138  0.02145104  0.66750427  1
  Se  Se11  1  0.25091862  0.47854896  0.16750427  1
  Se  Se12  1  0.24908138  0.47854896  0.66750427  1
  Se  Se13  1  0.25091862  0.02145104  0.16750427  1
  Se  Se14  1  0.75091862  0.97854896  0.33249573  1
  Se  Se15  1  0.74908138  0.52145104  0.83249573  1
loop_
_geom_bond_atom_site_label_1
_geom_bond_atom_site_label_2
_geom_bond_distance
_geom_bond_site_symmetry_2
Mg0 Se5 2.690042 1_455
Mg0 Se7 2.690042 1_554
Mg0 Se3 2.741637 1_455
Mg0 Se1 2.741637 1_554
Mg0 Se11 2.743267 1_555
Mg0 Se15 2.743267 1_454
Mg1 Se4 2.690042 1_545
Mg1 Se6 2.690042 1_555
Mg1 Se0 2.741637 1_545
Mg1 Se2 2.741637 1_555
Mg1 Se10 2.743267 1_555
Mg1 Se14 2.743267 1_545
Mg2 Se7 2.690042 1_554
Mg2 Se5 2.690042 1_445
Mg2 Se3 2.741637 1_455
Mg2 Se1 2.741637 1_544
Mg2 Se13 2.743267 1_555
Mg2 Se9 2.743267 1_444
Mg3 Se4 2.690042 1_555
Mg3 Se6 2.690042 1_555
Mg3 Se2 2.741637 1_555
Mg3 Se0 2.741637 1_555
Mg3 Se8 2.743267 1_555
Mg3 Se12 2.743267 1_555
Mg4 Se5 2.685689 1_555
Mg4 Se8 2.753433 1_555
Mg4 Se14 2.753433 1_555
Mg4 Se11 2.757393 1_555
Mg4 Se13 2.757393 1_565
Mg4 Se0 2.764094 1_555
Mg5 Se4 2.685689 1_455
Mg5 Se15 2.753433 1_455
Mg5 Se9 2.753433 1_455
Mg5 Se12 2.757393 1_555
Mg5 Se10 2.757393 1_565
Mg5 Se1 2.764094 1_555
Mg6 Se7 2.685689 1_555
Mg6 Se10 2.753433 1_555
Mg6 Se12 2.753433 1_555
Mg6 Se15 2.757393 1_555
Mg6 Se9 2.757393 1_545
Mg6 Se2 2.764094 1_555
Mg7 Se6 2.685689 1_655
Mg7 Se13 2.753433 1_655
Mg7 Se11 2.753433 1_655
Mg7 Se8 2.757393 1_555
Mg7 Se14 2.757393 1_545
Mg7 Se3 2.764094 1_555
Se0 Si0 2.250790 1_455
Se1 Si1 2.250790 1_555
Se2 Si2 2.250790 1_655
Se3 Si3 2.250790 1_555
Se4 Si0 2.293012 1_555
Se5 Si1 2.293012 1_554
Se6 Si2 2.293012 1_555
Se7 Si3 2.293012 1_556
Se8 Si0 2.291548 1_555
Se9 Si1 2.291548 1_555
Se10 Si2 2.291548 1_555
Se11 Si3 2.291548 1_555
Se12 Si2 2.291548 1_555
Se13 Si3 2.291548 1_555
Se14 Si0 2.291548 1_555
Se15 Si1 2.291548 1_555
