# generated using pymatgen
data_Ti2Be3Zn(SiO4)3
_symmetry_space_group_name_H-M   'P 1'
_cell_length_a   7.63962300
_cell_length_b   8.20372000
_cell_length_c   16.37259838
_cell_angle_alpha   60.06118487
_cell_angle_beta   90.00000000
_cell_angle_gamma   90.00000000
_symmetry_Int_Tables_number   1
_chemical_formula_structural   Ti2Be3Zn(SiO4)3
_chemical_formula_sum   'Ti8 Be12 Zn4 Si12 O48'
_cell_volume   889.19789643
_cell_formula_units_Z   4
loop_
 _symmetry_equiv_pos_site_id
 _symmetry_equiv_pos_as_xyz
  1  'x, y, z'
loop_
 _atom_site_type_symbol
 _atom_site_label
 _atom_site_symmetry_multiplicity
 _atom_site_fract_x
 _atom_site_fract_y
 _atom_site_fract_z
 _atom_site_occupancy
  Ti  Ti0  1  0.44333300  0.66455500  0.08755600  1
  Ti  Ti1  1  0.05666700  0.66455500  0.58755600  1
  Ti  Ti2  1  0.55666700  0.33544500  0.91244400  1
  Ti  Ti3  1  0.94333300  0.33544500  0.41244400  1
  Ti  Ti4  1  0.56708200  0.32751400  0.42270000  1
  Ti  Ti5  1  0.06708200  0.67248600  0.07730000  1
  Ti  Ti6  1  0.43291800  0.67248600  0.57730000  1
  Ti  Ti7  1  0.93291800  0.32751400  0.92270000  1
  Be  Be0  1  0.85000200  0.31324800  0.76287000  1
  Be  Be1  1  0.65631100  0.66679400  0.40503400  1
  Be  Be2  1  0.15631100  0.33320600  0.09496600  1
  Be  Be3  1  0.34368900  0.33320600  0.59496600  1
  Be  Be4  1  0.84368900  0.66679400  0.90503400  1
  Be  Be5  1  0.15152700  0.97478400  0.41617100  1
  Be  Be6  1  0.65152700  0.02521600  0.08382900  1
  Be  Be7  1  0.84847300  0.02521600  0.58382900  1
  Be  Be8  1  0.34847300  0.97478400  0.91617100  1
  Be  Be9  1  0.64999800  0.31324800  0.26287000  1
  Be  Be10  1  0.14999800  0.68675200  0.23713000  1
  Be  Be11  1  0.35000200  0.68675200  0.73713000  1
  Zn  Zn0  1  0.41691800  0.99712700  0.24994900  1
  Zn  Zn1  1  0.91691800  0.00287300  0.25005100  1
  Zn  Zn2  1  0.58308200  0.00287300  0.75005100  1
  Zn  Zn3  1  0.08308200  0.99712700  0.74994900  1
  Si  Si0  1  0.23241800  0.31467900  0.76900000  1
  Si  Si1  1  0.73241800  0.68532100  0.73100000  1
  Si  Si2  1  0.76758200  0.68532100  0.23100000  1
  Si  Si3  1  0.26758200  0.31467900  0.26900000  1
  Si  Si4  1  0.73323200  0.96315000  0.92689700  1
  Si  Si5  1  0.23323200  0.03685000  0.57310300  1
  Si  Si6  1  0.26676800  0.03685000  0.07310300  1
  Si  Si7  1  0.76676800  0.96315000  0.42689700  1
  Si  Si8  1  0.23258000  0.64413500  0.90722500  1
  Si  Si9  1  0.73258000  0.35586500  0.59277500  1
  Si  Si10  1  0.76742000  0.35586500  0.09277500  1
  Si  Si11  1  0.26742000  0.64413500  0.40722500  1
  O  O0  1  0.12945500  0.21387100  0.03890000  1
  O  O1  1  0.03878100  0.28151100  0.81903800  1
  O  O2  1  0.53878100  0.71848900  0.68096200  1
  O  O3  1  0.96121900  0.71848900  0.18096200  1
  O  O4  1  0.46121900  0.28151100  0.31903800  1
  O  O5  1  0.53640100  0.86752200  0.95600100  1
  O  O6  1  0.03640100  0.13247800  0.54399900  1
  O  O7  1  0.46359900  0.13247800  0.04399900  1
  O  O8  1  0.96359900  0.86752200  0.45600100  1
  O  O9  1  0.03350000  0.58850700  0.89028500  1
  O  O10  1  0.53350000  0.41149300  0.60971500  1
  O  O11  1  0.96650000  0.41149300  0.10971500  1
  O  O12  1  0.13034200  0.57573800  0.35232000  1
  O  O13  1  0.63034200  0.42426200  0.14768000  1
  O  O14  1  0.86965800  0.42426200  0.64768000  1
  O  O15  1  0.36965800  0.57573800  0.85232000  1
  O  O16  1  0.62945500  0.78612900  0.46110000  1
  O  O17  1  0.46650000  0.58850700  0.39028500  1
  O  O18  1  0.37054500  0.21387100  0.53890000  1
  O  O19  1  0.87054500  0.78612900  0.96110000  1
  O  O20  1  0.76349000  0.45653000  0.47633800  1
  O  O21  1  0.62528800  0.79447600  0.14497600  1
  O  O22  1  0.87471200  0.79447600  0.64497600  1
  O  O23  1  0.37471200  0.20552400  0.85502400  1
  O  O24  1  0.73748800  0.76286800  0.80597000  1
  O  O25  1  0.23748800  0.23713200  0.69403000  1
  O  O26  1  0.26251200  0.23713200  0.19403000  1
  O  O27  1  0.76251200  0.76286800  0.30597000  1
  O  O28  1  0.74509900  0.11390000  0.81369000  1
  O  O29  1  0.24509900  0.88610000  0.68631000  1
  O  O30  1  0.25490100  0.88610000  0.18631000  1
  O  O31  1  0.75490100  0.11390000  0.31369000  1
  O  O32  1  0.24015800  0.87147700  0.86903100  1
  O  O33  1  0.74015800  0.12852300  0.63096900  1
  O  O34  1  0.75984200  0.12852300  0.13096900  1
  O  O35  1  0.25984200  0.87147700  0.36903100  1
  O  O36  1  0.75545600  0.45382200  0.79809600  1
  O  O37  1  0.25545600  0.54617800  0.70190400  1
  O  O38  1  0.24454400  0.54617800  0.20190400  1
  O  O39  1  0.74454400  0.45382200  0.29809600  1
  O  O40  1  0.75862300  0.09069700  0.97956800  1
  O  O41  1  0.25862300  0.90930300  0.52043200  1
  O  O42  1  0.24137700  0.90930300  0.02043200  1
  O  O43  1  0.74137700  0.09069700  0.47956800  1
  O  O44  1  0.73651000  0.45653000  0.97633800  1
  O  O45  1  0.23651000  0.54347000  0.52366200  1
  O  O46  1  0.26349000  0.54347000  0.02366200  1
  O  O47  1  0.12528800  0.20552400  0.35502400  1
loop_
_geom_bond_atom_site_label_1
_geom_bond_atom_site_label_2
_geom_bond_distance
_geom_bond_site_symmetry_2
Be0 O28 1.628154 1_555
Be0 O14 1.641463 1_555
Be0 O1 1.659649 1_655
Be0 O36 1.687651 1_555
Be1 O27 1.623008 1_555
Be1 O17 1.651768 1_555
Be1 O16 1.655337 1_555
Be1 O20 1.731691 1_555
Be2 O26 1.623008 1_555
Be2 O11 1.651768 1_455
Be2 O0 1.655337 1_555
Be2 O46 1.731691 1_555
Be3 O25 1.623008 1_555
Be3 O10 1.651768 1_555
Be3 O18 1.655337 1_555
Be3 O45 1.731691 1_555
Be4 O24 1.623008 1_555
Be4 O9 1.651768 1_655
Be4 O19 1.655337 1_555
Be4 O44 1.731691 1_555
Be5 O35 1.628364 1_555
Be5 O8 1.639521 1_455
Be5 O47 1.653498 1_565
Be5 O41 1.719480 1_555
Be6 O34 1.628364 1_555
Be6 O7 1.639521 1_555
Be6 O21 1.653498 1_545
Be6 O40 1.719480 1_554
Be7 O33 1.628364 1_555
Be7 O6 1.639521 1_655
Be7 O22 1.653498 1_545
Be7 O43 1.719480 1_555
Be8 O32 1.628364 1_555
Be8 O5 1.639521 1_555
Be8 O23 1.653498 1_565
Be8 O42 1.719480 1_556
Be9 O31 1.628154 1_555
Be9 O13 1.641463 1_555
Be9 O4 1.659649 1_555
Be9 O39 1.687651 1_555
Be10 O30 1.628154 1_555
Be10 O12 1.641463 1_555
Be10 O3 1.659649 1_455
Be10 O38 1.687651 1_555
Be11 O29 1.628154 1_555
Be11 O15 1.641463 1_555
Be11 O2 1.659649 1_555
Be11 O37 1.687651 1_555
O0 Si6 1.646595 1_555
O0 Ti7 2.229948 1_454
O1 Si0 1.646534 1_555
O1 Ti7 2.077592 1_455
O2 Si1 1.646534 1_555
O2 Ti6 2.077592 1_555
O3 Si2 1.646534 1_555
O3 Ti5 2.077592 1_655
O4 Si3 1.646534 1_555
O4 Ti4 2.077592 1_555
O5 Si4 1.652433 1_555
O5 Ti0 2.082672 1_556
O6 Si5 1.652433 1_555
O6 Ti3 2.082672 1_455
O7 Si6 1.652433 1_555
O7 Ti2 2.082672 1_554
O8 Si7 1.652433 1_555
O8 Ti1 2.082672 1_655
O9 Si8 1.650651 1_555
O9 Ti7 2.079003 1_455
O10 Si9 1.650651 1_555
O10 Ti6 2.079003 1_555
O11 Si10 1.650651 1_555
O11 Ti5 2.079003 1_655
O12 Si11 1.650176 1_555
O12 Ti3 2.226931 1_455
O13 Si10 1.650176 1_555
O13 Ti0 2.226931 1_555
O14 Si9 1.650176 1_555
O14 Ti1 2.226931 1_655
O15 Si8 1.650176 1_555
O15 Ti2 2.226931 1_555
O16 Si7 1.646595 1_555
O16 Ti6 2.229948 1_555
O17 Si11 1.650651 1_555
O17 Ti4 2.079003 1_555
O18 Si5 1.646595 1_555
O18 Ti4 2.229948 1_555
O19 Si4 1.646595 1_555
O19 Ti5 2.229948 1_656
O20 Si9 1.673499 1_555
O20 Ti3 2.237411 1_555
O20 Ti4 2.251816 1_555
O21 Si2 1.645725 1_555
O21 Ti0 2.225368 1_555
O22 Si1 1.645725 1_555
O22 Ti1 2.225368 1_655
O23 Si0 1.645725 1_555
O23 Ti2 2.225368 1_555
O24 Si1 1.640820 1_555
O24 Zn2 2.075350 1_565
O25 Si0 1.640820 1_555
O25 Zn3 2.075350 1_545
O26 Si3 1.640820 1_555
O26 Zn0 2.075350 1_545
O27 Si2 1.640820 1_555
O27 Zn1 2.075350 1_565
O28 Si4 1.638632 1_545
O28 Zn2 2.096317 1_555
O29 Si5 1.638632 1_565
O29 Zn3 2.096317 1_555
O30 Si6 1.638632 1_565
O30 Zn0 2.096317 1_555
O31 Si7 1.638632 1_545
O31 Zn1 2.096317 1_555
O32 Si8 1.645808 1_555
O32 Zn3 2.073113 1_555
O33 Si9 1.645808 1_555
O33 Zn2 2.073113 1_555
O34 Si10 1.645808 1_555
O34 Zn1 2.073113 1_555
O35 Si11 1.645808 1_555
O35 Zn0 2.073113 1_555
O36 Si1 1.661960 1_555
O36 Ti2 2.222552 1_555
O36 Ti7 2.227934 1_555
O37 Si0 1.661960 1_555
O37 Ti1 2.222552 1_555
O37 Ti6 2.227934 1_555
O38 Si3 1.661960 1_555
O38 Ti0 2.222552 1_555
O38 Ti5 2.227934 1_555
O39 Si2 1.661960 1_555
O39 Ti3 2.222552 1_555
O39 Ti4 2.227934 1_555
O40 Si4 1.666383 1_545
O40 Ti7 2.146809 1_555
O40 Ti2 2.327475 1_555
O41 Si5 1.666383 1_565
O41 Ti6 2.146809 1_555
O41 Ti1 2.327475 1_555
O42 Si6 1.666383 1_565
O42 Ti5 2.146809 1_555
O42 Ti0 2.327475 1_555
O43 Si7 1.666383 1_545
O43 Ti4 2.146809 1_555
O43 Ti3 2.327475 1_555
O44 Si10 1.673499 1_556
O44 Ti2 2.237411 1_555
O44 Ti7 2.251816 1_555
O45 Si11 1.673499 1_555
O45 Ti1 2.237411 1_555
O45 Ti6 2.251816 1_555
O46 Si8 1.673499 1_554
O46 Ti0 2.237411 1_555
O46 Ti5 2.251816 1_555
O47 Si3 1.645725 1_555
O47 Ti3 2.225368 1_455
