# generated using pymatgen
data_SrErAl3SiN4O3
_symmetry_space_group_name_H-M   'P 1'
_cell_length_a   6.09595311
_cell_length_b   6.09595311
_cell_length_c   10.12712800
_cell_angle_alpha   90.00000000
_cell_angle_beta   90.00000000
_cell_angle_gamma   119.99999037
_symmetry_Int_Tables_number   1
_chemical_formula_structural   SrErAl3SiN4O3
_chemical_formula_sum   'Sr2 Er2 Al6 Si2 N8 O6'
_cell_volume   325.91189312
_cell_formula_units_Z   2
loop_
 _symmetry_equiv_pos_site_id
 _symmetry_equiv_pos_as_xyz
  1  'x, y, z'
loop_
 _atom_site_type_symbol
 _atom_site_label
 _atom_site_symmetry_multiplicity
 _atom_site_fract_x
 _atom_site_fract_y
 _atom_site_fract_z
 _atom_site_occupancy
  Sr  Sr0  1  0.66666700  0.33333300  0.55761300  1
  Sr  Sr1  1  0.33333300  0.66666700  0.05761300  1
  Er  Er0  1  0.66666700  0.33333300  0.93701700  1
  Er  Er1  1  0.33333300  0.66666700  0.43701700  1
  Al  Al0  1  0.16533900  0.33067800  0.73810700  1
  Al  Al1  1  0.16533900  0.83466100  0.73810700  1
  Al  Al2  1  0.83466100  0.66932200  0.23810700  1
  Al  Al3  1  0.66932200  0.83466100  0.73810700  1
  Al  Al4  1  0.83466100  0.16533900  0.23810700  1
  Al  Al5  1  0.33067800  0.16533900  0.23810700  1
  Si  Si0  1  0.00000000  0.00000000  0.00038300  1
  Si  Si1  1  0.00000000  0.00000000  0.50038300  1
  N  N0  1  0.00000000  0.00000000  0.81940700  1
  N  N1  1  0.00000000  0.00000000  0.31940700  1
  N  N2  1  0.15455700  0.30911400  0.55688600  1
  N  N3  1  0.15455700  0.84544300  0.55688600  1
  N  N4  1  0.84544300  0.69088600  0.05688600  1
  N  N5  1  0.69088600  0.84544300  0.55688600  1
  N  N6  1  0.84544300  0.15455700  0.05688600  1
  N  N7  1  0.30911400  0.15455700  0.05688600  1
  O  O0  1  0.49049400  0.98098800  0.79302400  1
  O  O1  1  0.49049400  0.50950600  0.79302400  1
  O  O2  1  0.50950600  0.01901200  0.29302400  1
  O  O3  1  0.01901200  0.50950600  0.79302400  1
  O  O4  1  0.50950600  0.49049400  0.29302400  1
  O  O5  1  0.98098800  0.49049400  0.29302400  1
loop_
_geom_bond_atom_site_label_1
_geom_bond_atom_site_label_2
_geom_bond_distance
_geom_bond_site_symmetry_2
Er0 N6 2.244255 1_556
Er0 N7 2.244260 1_556
Er0 N4 2.244260 1_556
Er0 O0 2.363575 1_545
Er0 O3 2.363575 1_655
Er0 O1 2.363579 1_555
Er1 N3 2.244255 1_555
Er1 N5 2.244260 1_555
Er1 N2 2.244260 1_555
Er1 O2 2.363575 1_565
Er1 O5 2.363575 1_455
Er1 O4 2.363579 1_555
Al0 O3 1.807138 1_555
Al0 O1 1.807138 1_555
Al0 N2 1.838776 1_555
Al0 N0 1.930146 1_555
Al1 O3 1.807138 1_555
Al1 O0 1.807138 1_555
Al1 N3 1.838776 1_555
Al1 N0 1.930145 1_565
Al2 O5 1.807138 1_555
Al2 O4 1.807138 1_555
Al2 N4 1.838776 1_555
Al2 N1 1.930146 1_665
Al3 O0 1.807138 1_555
Al3 O1 1.807138 1_555
Al3 N5 1.838776 1_555
Al3 N0 1.930146 1_665
Al4 O2 1.807138 1_555
Al4 O5 1.807138 1_555
Al4 N6 1.838776 1_555
Al4 N1 1.930145 1_655
Al5 O2 1.807138 1_555
Al5 O4 1.807138 1_555
Al5 N7 1.838776 1_555
Al5 N1 1.930146 1_555
N0 Si0 1.832767 1_556
N1 Si1 1.832767 1_555
N2 Si1 1.729304 1_555
N2 Sr0 3.050663 1_455
N2 Sr0 3.050669 1_555
N3 Si1 1.729304 1_565
N3 Sr0 3.050667 1_455
N3 Sr0 3.050667 1_565
N4 Si0 1.729304 1_665
N4 Sr1 3.050663 1_655
N4 Sr1 3.050669 1_555
N5 Si1 1.729304 1_665
N5 Sr0 3.050663 1_565
N5 Sr0 3.050669 1_555
N6 Si0 1.729304 1_655
N6 Sr1 3.050667 1_545
N6 Sr1 3.050667 1_655
N7 Si0 1.729304 1_555
N7 Sr1 3.050663 1_545
N7 Sr1 3.050669 1_555
O0 Sr0 3.023850 1_565
O0 Sr1 3.151730 1_556
O1 Sr0 3.023854 1_555
O1 Sr1 3.151733 1_556
O2 Sr1 3.023850 1_545
O2 Sr0 3.151730 1_555
O3 Sr0 3.023850 1_455
O3 Sr1 3.151730 1_556
O4 Sr1 3.023854 1_555
O4 Sr0 3.151733 1_555
O5 Sr1 3.023850 1_655
O5 Sr0 3.151730 1_555
