# generated using pymatgen
data_ErMoO5
_symmetry_space_group_name_H-M   'P 1'
_cell_length_a   5.31115876
_cell_length_b   6.61527916
_cell_length_c   12.44113300
_cell_angle_alpha   90.00000000
_cell_angle_beta   90.00000000
_cell_angle_gamma   110.74802225
_symmetry_Int_Tables_number   1
_chemical_formula_structural   ErMoO5
_chemical_formula_sum   'Er4 Mo4 O20'
_cell_volume   408.76855615
_cell_formula_units_Z   4
loop_
 _symmetry_equiv_pos_site_id
 _symmetry_equiv_pos_as_xyz
  1  'x, y, z'
loop_
 _atom_site_type_symbol
 _atom_site_label
 _atom_site_symmetry_multiplicity
 _atom_site_fract_x
 _atom_site_fract_y
 _atom_site_fract_z
 _atom_site_occupancy
  Er  Er0  1  0.14446200  0.78878900  0.44686200  1
  Er  Er1  1  0.85553800  0.21121100  0.55313800  1
  Er  Er2  1  0.35553800  0.71121100  0.94686200  1
  Er  Er3  1  0.64446200  0.28878900  0.05313800  1
  Mo  Mo0  1  0.94498600  0.85666800  0.13968000  1
  Mo  Mo1  1  0.05501400  0.14333200  0.86032000  1
  Mo  Mo2  1  0.55501400  0.64333200  0.63968000  1
  Mo  Mo3  1  0.44498600  0.35666800  0.36032000  1
  O  O0  1  0.05307700  0.54551600  0.08110800  1
  O  O1  1  0.94692300  0.45448400  0.91889200  1
  O  O2  1  0.44692300  0.95448400  0.58110800  1
  O  O3  1  0.55307700  0.04551600  0.41889200  1
  O  O4  1  0.85460400  0.84299400  0.57289300  1
  O  O5  1  0.14539600  0.15700600  0.42710700  1
  O  O6  1  0.64539600  0.65700600  0.07289300  1
  O  O7  1  0.35460400  0.34299400  0.92710700  1
  O  O8  1  0.26379000  0.96645700  0.06293500  1
  O  O9  1  0.73621000  0.03354300  0.93706500  1
  O  O10  1  0.23621000  0.53354300  0.56293500  1
  O  O11  1  0.76379000  0.46645700  0.43706500  1
  O  O12  1  0.99447100  0.78924800  0.27399500  1
  O  O13  1  0.00552900  0.21075200  0.72600500  1
  O  O14  1  0.50552900  0.71075200  0.77399500  1
  O  O15  1  0.49447100  0.28924800  0.22600500  1
  O  O16  1  0.15484800  0.91635400  0.84676800  1
  O  O17  1  0.84515200  0.08364600  0.15323200  1
  O  O18  1  0.34515200  0.58364600  0.34676800  1
  O  O19  1  0.65484800  0.41635400  0.65323200  1
loop_
_geom_bond_atom_site_label_1
_geom_bond_atom_site_label_2
_geom_bond_distance
_geom_bond_site_symmetry_2
Er0 O3 2.259166 1_565
Er0 O12 2.293835 1_455
Er0 O2 2.307370 1_555
Er0 O4 2.312625 1_455
Er0 O18 2.356565 1_555
Er0 O11 2.365338 1_455
Er0 O10 2.399353 1_555
Er0 O5 2.446482 1_565
Er1 O2 2.259166 1_545
Er1 O13 2.293835 1_655
Er1 O3 2.307370 1_555
Er1 O5 2.312625 1_655
Er1 O19 2.356565 1_555
Er1 O10 2.365338 1_655
Er1 O11 2.399353 1_555
Er1 O4 2.446482 1_545
Er2 O1 2.259166 1_455
Er2 O14 2.293835 1_555
Er2 O0 2.307370 1_556
Er2 O6 2.312625 1_556
Er2 O16 2.356565 1_555
Er2 O9 2.365338 1_565
Er2 O8 2.399353 1_556
Er2 O7 2.446482 1_555
Er3 O0 2.259166 1_655
Er3 O15 2.293835 1_555
Er3 O1 2.307370 1_554
Er3 O7 2.312625 1_554
Er3 O17 2.356565 1_555
Er3 O8 2.365338 1_545
Er3 O9 2.399353 1_554
Er3 O6 2.446482 1_555
Mo0 O17 1.768683 1_565
Mo0 O12 1.772961 1_555
Mo0 O8 1.853323 1_655
Mo0 O6 1.864869 1_555
Mo0 O0 2.436116 1_655
Mo1 O16 1.768683 1_545
Mo1 O13 1.772961 1_555
Mo1 O9 1.853323 1_455
Mo1 O7 1.864869 1_555
Mo1 O1 2.436116 1_455
Mo2 O19 1.768683 1_555
Mo2 O14 1.772961 1_555
Mo2 O10 1.853323 1_555
Mo2 O4 1.864869 1_555
Mo2 O2 2.436116 1_555
Mo3 O18 1.768683 1_555
Mo3 O15 1.772961 1_555
Mo3 O11 1.853323 1_555
Mo3 O5 1.864869 1_555
Mo3 O3 2.436116 1_555
