# generated using pymatgen
data_Li4V3P8O29
_symmetry_space_group_name_H-M   'P 1'
_cell_length_a   9.77681300
_cell_length_b   9.79100048
_cell_length_c   14.28856582
_cell_angle_alpha   90.02961672
_cell_angle_beta   90.15738894
_cell_angle_gamma   119.94143098
_symmetry_Int_Tables_number   1
_chemical_formula_structural   Li4V3P8O29
_chemical_formula_sum   'Li8 V6 P16 O58'
_cell_volume   1185.21459840
_cell_formula_units_Z   2
loop_
 _symmetry_equiv_pos_site_id
 _symmetry_equiv_pos_as_xyz
  1  'x, y, z'
loop_
 _atom_site_type_symbol
 _atom_site_label
 _atom_site_symmetry_multiplicity
 _atom_site_fract_x
 _atom_site_fract_y
 _atom_site_fract_z
 _atom_site_occupancy
  Li  Li0  1  0.77652800  0.68338700  0.55578600  1
  Li  Li1  1  0.92014800  0.22771900  0.55725600  1
  Li  Li2  1  0.76111900  0.08942200  0.05883900  1
  Li  Li3  1  0.32804200  0.22843200  0.06139600  1
  Li  Li4  1  0.68931100  0.91413100  0.43976300  1
  Li  Li5  1  0.31030800  0.08463700  0.55691400  1
  Li  Li6  1  0.09204000  0.32647000  0.94199800  1
  Li  Li7  1  0.98520000  0.91946700  0.01484800  1
  V  V0  1  0.56443200  0.00155000  0.24819900  1
  V  V1  1  0.43048800  0.99805100  0.75417200  1
  V  V2  1  0.56589900  0.56831400  0.75391500  1
  V  V3  1  0.43421100  0.43597100  0.24982600  1
  V  V4  1  0.99526900  0.56725000  0.24797400  1
  V  V5  1  0.00101800  0.43737200  0.74748800  1
  P  P0  1  0.91690600  0.68979400  0.84159400  1
  P  P1  1  0.77063300  0.68387000  0.33965300  1
  P  P2  1  0.91100700  0.22955000  0.34177500  1
  P  P3  1  0.66845200  0.33112400  0.12924300  1
  P  P4  1  0.66181000  0.33047600  0.63291500  1
  P  P5  1  0.77376100  0.08966500  0.84127400  1
  P  P6  1  0.68081200  0.91159100  0.66071200  1
  P  P7  1  0.31407500  0.22951900  0.84224800  1
  P  P8  1  0.69017300  0.77672500  0.15859400  1
  P  P9  1  0.32094900  0.09085700  0.34132700  1
  P  P10  1  0.21988300  0.91406300  0.16246000  1
  P  P11  1  0.33323300  0.66893900  0.36518100  1
  P  P12  1  0.33518800  0.66649500  0.86935800  1
  P  P13  1  0.08655900  0.77276300  0.66005200  1
  P  P14  1  0.22907200  0.31524400  0.66077300  1
  P  P15  1  0.08517800  0.31519900  0.16067200  1
  O  O0  1  0.99647900  0.76651700  0.57501100  1
  O  O1  1  0.91446800  0.66038200  0.33366800  1
  O  O2  1  0.79133100  0.79331600  0.07778600  1
  O  O3  1  0.74347000  0.65716100  0.82691200  1
  O  O4  1  0.91620000  0.53421100  0.82967700  1
  O  O5  1  0.81256800  0.48239400  0.17618300  1
  O  O6  1  0.90452300  0.38173200  0.32105500  1
  O  O7  1  0.99953300  0.23106700  0.07219400  1
  O  O8  1  0.91807100  0.25847600  0.83440000  1
  O  O9  1  0.66291100  0.48063200  0.67375700  1
  O  O10  1  0.61902000  0.52213900  0.31993500  1
  O  O11  1  0.81213700  0.32811800  0.67022700  1
  O  O12  1  0.67581200  0.32846500  0.02518400  1
  O  O13  1  0.65260500  0.32540800  0.52878100  1
  O  O14  1  0.68054700  0.18995900  0.17146100  1
  O  O15  1  0.47371000  0.38401100  0.82727200  1
  O  O16  1  0.51394600  0.32782800  0.16542500  1
  O  O17  1  0.74416900  0.08090900  0.33740300  1
  O  O18  1  0.79035800  0.99857100  0.75099000  1
  O  O19  1  0.75849100  0.99872600  0.57228000  1
  O  O20  1  0.77592800  0.01447000  0.93131700  1
  O  O21  1  0.61747400  0.09235600  0.82416200  1
  O  O22  1  0.51357900  0.18100000  0.67720200  1
  O  O23  1  0.65271500  0.91333400  0.16107300  1
  O  O24  1  0.48200600  0.10338400  0.31946200  1
  O  O25  1  0.34288300  0.25888500  0.32552100  1
  O  O26  1  0.78663200  0.79957000  0.25634600  1
  O  O27  1  0.75738700  0.75380500  0.43039400  1
  O  O28  1  0.23793500  0.22657300  0.57942600  1
  O  O29  1  0.66066200  0.74419100  0.66029900  1
  O  O30  1  0.52165100  0.90457500  0.67892700  1
  O  O31  1  0.34007500  0.08632300  0.83434300  1
  O  O32  1  0.48429100  0.81517300  0.32536000  1
  O  O33  1  0.37821400  0.91880000  0.16651900  1
  O  O34  1  0.19766400  0.00128400  0.08275000  1
  O  O35  1  0.25600500  0.02074200  0.43345800  1
  O  O36  1  0.20055300  0.98930400  0.25939300  1
  O  O37  1  0.25713200  0.91862900  0.66276300  1
  O  O38  1  0.48572000  0.67180300  0.82191200  1
  O  O39  1  0.53636100  0.61560500  0.17033800  1
  O  O40  1  0.33330500  0.81451000  0.82388600  1
  O  O41  1  0.34839800  0.67406100  0.97273500  1
  O  O42  1  0.33783700  0.66515700  0.46879900  1
  O  O43  1  0.18277200  0.66089400  0.32132600  1
  O  O44  1  0.38101900  0.47504000  0.67983100  1
  O  O45  1  0.33969500  0.52251900  0.31779100  1
  O  O46  1  0.08081500  0.74131300  0.16736400  1
  O  O47  1  0.00612300  0.79747000  0.75143300  1
  O  O48  1  0.99013700  0.78332800  0.92681300  1
  O  O49  1  0.09840000  0.62175100  0.67720600  1
  O  O50  1  0.18950400  0.51361900  0.83206400  1
  O  O51  1  0.08930900  0.47333400  0.17394900  1
  O  O52  1  0.25555500  0.34057500  0.15983600  1
  O  O53  1  0.23668300  0.23154100  0.93281100  1
  O  O54  1  0.20141800  0.21294400  0.75691800  1
  O  O55  1  0.08348000  0.33818300  0.65897400  1
  O  O56  1  0.99053600  0.23461100  0.43151200  1
  O  O57  1  0.00234500  0.20953900  0.25166100  1
loop_
_geom_bond_atom_site_label_1
_geom_bond_atom_site_label_2
_geom_bond_distance
_geom_bond_site_symmetry_2
Li0 O0 1.900416 1_555
Li0 O27 1.961810 1_555
Li0 O29 2.132908 1_555
Li0 O9 2.414267 1_555
Li1 O56 1.914897 1_555
Li1 O19 2.008975 1_545
Li1 O55 2.023292 1_655
Li1 O11 2.393953 1_555
Li2 O20 1.996424 1_554
Li2 O7 2.040430 1_555
Li2 O23 2.101589 1_545
Li2 O14 2.226748 1_555
Li3 O34 1.958845 1_555
Li3 O53 2.047576 1_554
Li3 O52 2.113504 1_555
Li3 O16 2.162872 1_555
Li4 O27 1.992038 1_555
Li4 O19 2.039823 1_555
Li4 O17 2.055666 1_565
Li4 O32 2.381250 1_555
Li5 O35 1.856645 1_555
Li5 O28 1.875567 1_555
Li5 O37 2.088766 1_545
Li5 O22 2.429325 1_555
Li6 O53 2.047893 1_555
Li6 O7 2.078220 1_456
Li6 O8 2.134024 1_455
Li6 O50 2.236347 1_555
Li7 O48 1.850452 1_554
Li7 O2 1.897491 1_555
Li7 O34 2.055471 1_665
O0 P13 1.481940 1_655
O1 P1 1.536619 1_555
O1 V4 1.917820 1_555
O2 P8 1.477762 1_555
O3 P0 1.574322 1_555
O3 V2 1.827612 1_555
O4 P0 1.529299 1_555
O4 V5 1.937739 1_655
O5 P3 1.593537 1_555
O5 V4 1.854934 1_555
O6 P2 1.551275 1_555
O6 V4 1.890832 1_555
O7 P15 1.510801 1_655
O8 P5 1.550871 1_555
O8 V5 1.964099 1_655
O9 P4 1.576508 1_555
O9 V2 1.940665 1_555
O10 P1 1.561489 1_555
O10 V3 1.856739 1_555
O11 P4 1.573029 1_555
O11 V5 1.946486 1_655
O12 P3 1.489633 1_555
O13 P4 1.489703 1_555
O14 P3 1.565830 1_555
O14 V0 1.952547 1_555
O15 P7 1.554107 1_555
O15 V2 1.884376 1_555
O16 P3 1.582974 1_555
O16 V3 2.002743 1_555
O17 P2 1.553137 1_555
O17 V0 1.984937 1_555
O18 P6 1.617736 1_555
O18 P5 1.621858 1_565
O19 P6 1.503606 1_555
O20 P5 1.488016 1_555
O21 P5 1.559926 1_555
O21 V1 1.870488 1_545
O22 P4 1.591025 1_555
O22 V1 1.905895 1_545
O23 P8 1.553502 1_555
O23 V0 1.946733 1_565
O24 P9 1.549853 1_555
O24 V0 1.867054 1_555
O25 P9 1.565896 1_555
O25 V3 1.853412 1_555
O26 P1 1.596930 1_555
O26 P8 1.634669 1_555
O27 P1 1.501739 1_555
O28 P14 1.478805 1_555
O29 P6 1.550121 1_555
O29 V2 2.007379 1_555
O30 P6 1.545770 1_555
O30 V1 1.899073 1_555
O31 P7 1.548814 1_555
O31 V1 1.899402 1_545
O32 P11 1.565095 1_555
O32 V0 1.933646 1_565
O33 P10 1.526293 1_555
O33 V0 1.961650 1_565
O34 P10 1.502827 1_545
O35 P9 1.475739 1_555
O36 P9 1.602398 1_565
O36 P10 1.623606 1_555
O37 P13 1.563448 1_555
O37 V1 1.963247 1_555
O38 P12 1.599198 1_555
O38 V2 1.838806 1_555
O39 P8 1.552973 1_555
O39 V3 1.906735 1_555
O40 P12 1.596951 1_555
O40 V1 1.851222 1_555
O41 P12 1.480982 1_555
O42 P11 1.482156 1_555
O43 P11 1.562693 1_555
O43 V4 1.900091 1_455
O44 P14 1.551160 1_555
O44 V2 1.887441 1_555
O45 P11 1.614729 1_555
O45 V3 1.816806 1_555
O46 P10 1.555436 1_555
O46 V4 1.874858 1_455
O47 P13 1.605314 1_555
O47 P0 1.619122 1_455
O48 P0 1.474284 1_555
O49 P13 1.559070 1_555
O49 V5 1.861532 1_555
O50 P12 1.555615 1_555
O50 V5 2.006778 1_555
O51 P15 1.540158 1_555
O51 V4 1.912558 1_455
O52 P15 1.556778 1_555
O52 V3 1.983565 1_555
O53 P7 1.505885 1_555
O54 P7 1.593744 1_555
O54 P14 1.642173 1_555
O55 P14 1.547960 1_555
O55 V5 1.994644 1_555
O56 P2 1.485628 1_555
O57 P15 1.608477 1_555
O57 P2 1.635374 1_455
