# generated using pymatgen
data_Li7Mn2(CoO4)3
_symmetry_space_group_name_H-M   'P 1'
_cell_length_a   4.98375700
_cell_length_b   4.98382166
_cell_length_c   9.81856118
_cell_angle_alpha   86.48654598
_cell_angle_beta   100.79264017
_cell_angle_gamma   117.90425716
_symmetry_Int_Tables_number   1
_chemical_formula_structural   Li7Mn2(CoO4)3
_chemical_formula_sum   'Li7 Mn2 Co3 O12'
_cell_volume   211.60999824
_cell_formula_units_Z   1
loop_
 _symmetry_equiv_pos_site_id
 _symmetry_equiv_pos_as_xyz
  1  'x, y, z'
loop_
 _atom_site_type_symbol
 _atom_site_label
 _atom_site_symmetry_multiplicity
 _atom_site_fract_x
 _atom_site_fract_y
 _atom_site_fract_z
 _atom_site_occupancy
  Li  Li0  1  0.75363800  0.99800000  0.25168700  1
  Li  Li1  1  0.58325200  0.65894100  0.74751100  1
  Li  Li2  1  0.42063000  0.34071400  0.25606500  1
  Li  Li3  1  0.07864700  0.66129800  0.25151500  1
  Li  Li4  1  0.91750300  0.34125600  0.74816000  1
  Li  Li5  1  0.24607400  0.99877000  0.74486800  1
  Li  Li6  1  0.83334700  0.66716700  0.50004300  1
  Mn  Mn0  1  0.99876800  0.99868600  0.99941500  1
  Mn  Mn1  1  0.50093000  0.99851200  0.50007000  1
  Co  Co0  1  0.66667400  0.33449500  0.00046400  1
  Co  Co1  1  0.33453700  0.66714800  0.99998500  1
  Co  Co2  1  0.16624200  0.33313200  0.49996000  1
  O  O0  1  0.01579700  0.31752500  0.11483200  1
  O  O1  1  0.88493000  0.03722200  0.61031100  1
  O  O2  1  0.68187900  0.64144200  0.11855800  1
  O  O3  1  0.35482500  0.97629200  0.11489200  1
  O  O4  1  0.23609700  0.67441000  0.60966200  1
  O  O5  1  0.51291500  0.31253700  0.61219300  1
  O  O6  1  0.42663400  0.65182200  0.39025300  1
  O  O7  1  0.32251000  0.36134000  0.88651700  1
  O  O8  1  0.15030700  0.02433200  0.38724300  1
  O  O9  1  0.78895100  0.30057800  0.39044200  1
  O  O10  1  0.64390000  0.02107900  0.88410000  1
  O  O11  1  0.98101200  0.68330300  0.88125400  1
loop_
_geom_bond_atom_site_label_1
_geom_bond_atom_site_label_2
_geom_bond_distance
_geom_bond_site_symmetry_2
Li0 O9 2.018586 1_565
Li0 O8 2.118963 1_665
Li0 O0 2.120457 1_665
Li0 O2 2.123463 1_555
Li0 O3 2.140784 1_555
Li0 O6 2.322612 1_555
Li1 O4 2.016503 1_555
Li1 O7 2.088871 1_555
Li1 O5 2.099741 1_555
Li1 O11 2.118530 1_555
Li1 O10 2.186687 1_565
Li1 O1 2.328872 1_565
Li2 O6 2.081599 1_555
Li2 O2 2.085229 1_555
Li2 O8 2.091122 1_555
Li2 O9 2.134154 1_555
Li2 O0 2.181872 1_555
Li2 O3 2.215469 1_545
Li3 O6 2.012359 1_555
Li3 O0 2.111077 1_555
Li3 O2 2.118962 1_455
Li3 O3 2.137606 1_555
Li3 O8 2.165536 1_565
Li3 O9 2.276989 1_455
Li4 O1 2.023138 1_555
Li4 O11 2.080145 1_555
Li4 O10 2.138013 1_555
Li4 O5 2.147933 1_555
Li4 O7 2.174918 1_655
Li4 O4 2.278475 1_655
Li5 O5 2.088901 1_565
Li5 O1 2.103074 1_465
Li5 O11 2.114393 1_455
Li5 O4 2.130990 1_555
Li5 O10 2.146951 1_565
Li5 O7 2.193153 1_565
Li6 O4 2.077614 1_655
Li6 O9 2.078080 1_555
Li6 O6 2.079219 1_555
Li6 O1 2.082400 1_565
Li6 O5 2.159808 1_555
Li6 O8 2.161528 1_665
Mn0 O10 1.959995 1_565
Mn0 O3 1.965507 1_656
Mn0 O0 1.968480 1_666
Mn0 O11 1.969592 1_555
Mn0 O7 2.189395 1_665
Mn0 O2 2.199403 1_556
Mn1 O5 1.940086 1_565
Mn1 O6 1.940400 1_555
Mn1 O8 1.940432 1_565
Mn1 O1 1.943076 1_565
Mn1 O4 1.957643 1_555
Mn1 O9 1.960313 1_565
Co0 O7 1.920776 1_554
Co0 O0 1.920910 1_655
Co0 O10 1.939679 1_554
Co0 O2 1.940722 1_555
Co0 O3 2.162392 1_545
Co0 O11 2.175893 1_554
Co1 O7 1.914485 1_555
Co1 O3 1.918708 1_556
Co1 O2 1.950113 1_556
Co1 O11 1.954936 1_455
Co1 O10 2.156080 1_565
Co1 O0 2.161107 1_556
Co2 O5 1.910241 1_555
Co2 O8 1.913403 1_555
Co2 O9 1.922719 1_455
Co2 O4 1.924631 1_555
Co2 O6 1.936917 1_555
Co2 O1 1.937070 1_455
