# generated using pymatgen
data_Zn(FeO2)2
_symmetry_space_group_name_H-M   'P 1'
_cell_length_a   7.74672457
_cell_length_b   7.74672457
_cell_length_c   9.26231292
_cell_angle_alpha   55.60747392
_cell_angle_beta   55.60747392
_cell_angle_gamma   21.92618502
_symmetry_Int_Tables_number   1
_chemical_formula_structural   Zn(FeO2)2
_chemical_formula_sum   'Zn2 Fe4 O8'
_cell_volume   169.76343134
_cell_formula_units_Z   2
loop_
 _symmetry_equiv_pos_site_id
 _symmetry_equiv_pos_as_xyz
  1  'x, y, z'
loop_
 _atom_site_type_symbol
 _atom_site_label
 _atom_site_symmetry_multiplicity
 _atom_site_fract_x
 _atom_site_fract_y
 _atom_site_fract_z
 _atom_site_occupancy
  Zn  Zn0  1  0.68860300  0.68860300  0.83332900  1
  Zn  Zn1  1  0.31139700  0.31139700  0.16667100  1
  Fe  Fe0  1  0.39623600  0.39623600  0.79598300  1
  Fe  Fe1  1  0.85152400  0.85152400  0.47934900  1
  Fe  Fe2  1  0.14847600  0.14847600  0.52065100  1
  Fe  Fe3  1  0.60376400  0.60376400  0.20401700  1
  O  O0  1  0.14234000  0.14234000  0.30293600  1
  O  O1  1  0.55048200  0.55048200  0.65243900  1
  O  O2  1  0.44951800  0.44951800  0.34756100  1
  O  O3  1  0.85766000  0.85766000  0.69706400  1
  O  O4  1  0.85912800  0.85912800  0.97971000  1
  O  O5  1  0.22460600  0.22460600  0.64213100  1
  O  O6  1  0.14087200  0.14087200  0.02029000  1
  O  O7  1  0.77539400  0.77539400  0.35786900  1
loop_
_geom_bond_atom_site_label_1
_geom_bond_atom_site_label_2
_geom_bond_distance
_geom_bond_site_symmetry_2
Fe0 O1 1.919057 1_555
Fe0 O3 1.993199 1_455
Fe0 O3 1.993199 1_545
Fe0 O4 2.068733 1_545
Fe0 O4 2.068733 1_455
Fe1 O2 1.946416 1_565
Fe1 O2 1.946416 1_655
Fe1 O7 2.026405 1_555
Fe1 O3 2.071651 1_555
Fe1 O5 2.195722 1_565
Fe1 O5 2.195722 1_655
Fe2 O1 1.946416 1_545
Fe2 O1 1.946416 1_455
Fe2 O5 2.026405 1_555
Fe2 O0 2.071651 1_555
Fe2 O7 2.195722 1_455
Fe2 O7 2.195722 1_545
Fe3 O2 1.919057 1_555
Fe3 O0 1.993199 1_565
Fe3 O0 1.993199 1_655
Fe3 O6 2.068733 1_565
Fe3 O6 2.068733 1_655
O0 Zn1 2.114415 1_555
O3 Zn0 2.114415 1_555
O4 Zn1 2.061451 1_566
O4 Zn1 2.061451 1_656
O5 Zn0 2.119098 1_545
O5 Zn0 2.119098 1_455
O6 Zn0 2.061451 1_454
O6 Zn0 2.061451 1_544
O7 Zn1 2.119098 1_565
O7 Zn1 2.119098 1_655
