# generated using pymatgen
data_KHfMg30O31
_symmetry_space_group_name_H-M   'P 1'
_cell_length_a   8.63220700
_cell_length_b   8.65355000
_cell_length_c   8.65476200
_cell_angle_alpha   90.00000000
_cell_angle_beta   90.00000000
_cell_angle_gamma   90.00000000
_symmetry_Int_Tables_number   1
_chemical_formula_structural   KHfMg30O31
_chemical_formula_sum   'K1 Hf1 Mg30 O31'
_cell_volume   646.50409951
_cell_formula_units_Z   1
loop_
 _symmetry_equiv_pos_site_id
 _symmetry_equiv_pos_as_xyz
  1  'x, y, z'
loop_
 _atom_site_type_symbol
 _atom_site_label
 _atom_site_symmetry_multiplicity
 _atom_site_fract_x
 _atom_site_fract_y
 _atom_site_fract_z
 _atom_site_occupancy
  K  K0  1  0.00000000  0.00014100  0.00000000  1
  Hf  Hf0  1  0.50000000  0.00054400  0.50000000  1
  Mg  Mg0  1  0.50000000  0.00278700  0.00000000  1
  Mg  Mg1  1  0.00000000  0.00009300  0.50000000  1
  Mg  Mg2  1  0.00000000  0.49961800  0.00000000  1
  Mg  Mg3  1  0.50000000  0.49859500  0.00000000  1
  Mg  Mg4  1  0.00000000  0.49993300  0.50000000  1
  Mg  Mg5  1  0.50000000  0.49935500  0.50000000  1
  Mg  Mg6  1  0.24557700  0.99986800  0.24391500  1
  Mg  Mg7  1  0.75442300  0.99986800  0.24391500  1
  Mg  Mg8  1  0.24557700  0.99986800  0.75608500  1
  Mg  Mg9  1  0.75442300  0.99986800  0.75608500  1
  Mg  Mg10  1  0.24890600  0.50005500  0.24823000  1
  Mg  Mg11  1  0.75109400  0.50005500  0.24823000  1
  Mg  Mg12  1  0.24890600  0.50005500  0.75177000  1
  Mg  Mg13  1  0.75109400  0.50005500  0.75177000  1
  Mg  Mg14  1  0.24823800  0.74740200  0.00000000  1
  Mg  Mg15  1  0.75176200  0.74740200  0.00000000  1
  Mg  Mg16  1  0.24342400  0.74357400  0.50000000  1
  Mg  Mg17  1  0.75657600  0.74357400  0.50000000  1
  Mg  Mg18  1  0.24975500  0.25227500  0.00000000  1
  Mg  Mg19  1  0.75024500  0.25227500  0.00000000  1
  Mg  Mg20  1  0.24393300  0.25648500  0.50000000  1
  Mg  Mg21  1  0.75606700  0.25648500  0.50000000  1
  Mg  Mg22  1  0.00000000  0.74785700  0.25053500  1
  Mg  Mg23  1  0.50000000  0.74516300  0.24621700  1
  Mg  Mg24  1  0.00000000  0.74785700  0.74946500  1
  Mg  Mg25  1  0.50000000  0.74516300  0.75378300  1
  Mg  Mg26  1  0.00000000  0.25218100  0.24995400  1
  Mg  Mg27  1  0.50000000  0.25412400  0.24508100  1
  Mg  Mg28  1  0.00000000  0.25218100  0.75004600  1
  Mg  Mg29  1  0.50000000  0.25412400  0.75491900  1
  O  O0  1  0.00000000  0.72644900  0.00000000  1
  O  O1  1  0.00000000  0.74711100  0.50000000  1
  O  O2  1  0.50000000  0.74943800  0.50000000  1
  O  O3  1  0.00000000  0.27346500  0.00000000  1
  O  O4  1  0.50000000  0.25387200  0.00000000  1
  O  O5  1  0.00000000  0.25289500  0.50000000  1
  O  O6  1  0.50000000  0.25080200  0.50000000  1
  O  O7  1  0.24941400  0.75144300  0.25210400  1
  O  O8  1  0.75058600  0.75144300  0.25210400  1
  O  O9  1  0.24941400  0.75144300  0.74789600  1
  O  O10  1  0.75058600  0.75144300  0.74789600  1
  O  O11  1  0.25060400  0.24845300  0.25087600  1
  O  O12  1  0.74939600  0.24845300  0.25087600  1
  O  O13  1  0.25060400  0.24845300  0.74912400  1
  O  O14  1  0.74939600  0.24845300  0.74912400  1
  O  O15  1  0.27383700  0.99984500  0.00000000  1
  O  O16  1  0.72616300  0.99984500  0.00000000  1
  O  O17  1  0.25806300  0.99991300  0.50000000  1
  O  O18  1  0.74193700  0.99991300  0.50000000  1
  O  O19  1  0.25389700  0.49906600  0.00000000  1
  O  O20  1  0.74610300  0.49906600  0.00000000  1
  O  O21  1  0.25171700  0.50004600  0.50000000  1
  O  O22  1  0.74828300  0.50004600  0.50000000  1
  O  O23  1  0.00000000  0.00004000  0.27450300  1
  O  O24  1  0.50000000  0.00119700  0.25277600  1
  O  O25  1  0.00000000  0.00004000  0.72549700  1
  O  O26  1  0.50000000  0.00119700  0.74722400  1
  O  O27  1  0.00000000  0.50000500  0.25508500  1
  O  O28  1  0.50000000  0.49864100  0.25300400  1
  O  O29  1  0.00000000  0.50000500  0.74491500  1
  O  O30  1  0.50000000  0.49864100  0.74699600  1
loop_
_geom_bond_atom_site_label_1
_geom_bond_atom_site_label_2
_geom_bond_distance
_geom_bond_site_symmetry_2
K0 O16 2.363819 1_445
K0 O15 2.363819 1_545
K0 O3 2.365223 1_555
K0 O0 2.368407 1_545
K0 O23 2.375758 1_555
K0 O25 2.375758 1_554
Hf0 O18 2.088457 1_545
Hf0 O17 2.088457 1_545
Hf0 O26 2.139672 1_555
Hf0 O24 2.139672 1_555
Hf0 O6 2.165620 1_555
Hf0 O2 2.172958 1_545
Mg0 O16 1.952452 1_545
Mg0 O15 1.952452 1_545
Mg0 O4 2.172777 1_555
Mg0 O24 2.187759 1_555
Mg0 O26 2.187759 1_554
Mg1 O25 1.951623 1_555
Mg1 O23 1.951623 1_555
Mg1 O5 2.187635 1_555
Mg1 O1 2.189192 1_545
Mg1 O17 2.227654 1_545
Mg1 O18 2.227654 1_445
Mg2 O3 1.957026 1_555
Mg2 O0 1.962893 1_555
Mg2 O19 2.191697 1_555
Mg2 O20 2.191697 1_455
Mg2 O29 2.207703 1_554
Mg2 O27 2.207703 1_555
Mg3 O4 2.117723 1_555
Mg3 O20 2.124416 1_555
Mg3 O19 2.124416 1_555
Mg3 O30 2.189689 1_554
Mg3 O28 2.189689 1_555
Mg4 O29 2.119681 1_555
Mg4 O27 2.119681 1_555
Mg4 O5 2.137756 1_555
Mg4 O1 2.138967 1_555
Mg4 O22 2.172873 1_455
Mg4 O21 2.172873 1_555
Mg5 O30 2.137701 1_555
Mg5 O28 2.137701 1_555
Mg5 O21 2.143239 1_555
Mg5 O22 2.143239 1_555
Mg5 O6 2.150866 1_555
Mg5 O2 2.164106 1_555
Mg6 O15 2.125075 1_555
Mg6 O23 2.136338 1_565
Mg6 O7 2.151181 1_555
Mg6 O11 2.152424 1_565
Mg6 O24 2.197601 1_565
Mg6 O17 2.218974 1_555
Mg7 O16 2.125075 1_555
Mg7 O23 2.136338 1_665
Mg7 O8 2.151181 1_555
Mg7 O12 2.152424 1_565
Mg7 O24 2.197601 1_565
Mg7 O18 2.218974 1_555
Mg8 O15 2.125075 1_556
Mg8 O25 2.136338 1_565
Mg8 O9 2.151181 1_555
Mg8 O13 2.152424 1_565
Mg8 O26 2.197601 1_565
Mg8 O17 2.218974 1_555
Mg9 O16 2.125075 1_556
Mg9 O25 2.136338 1_665
Mg9 O10 2.151181 1_555
Mg9 O14 2.152424 1_565
Mg9 O26 2.197601 1_565
Mg9 O18 2.218974 1_555
Mg10 O19 2.148821 1_555
Mg10 O27 2.149427 1_555
Mg10 O28 2.167924 1_555
Mg10 O7 2.175661 1_555
Mg10 O11 2.177420 1_555
Mg10 O21 2.179145 1_555
Mg11 O20 2.148821 1_555
Mg11 O27 2.149427 1_655
Mg11 O28 2.167924 1_555
Mg11 O8 2.175661 1_555
Mg11 O12 2.177420 1_555
Mg11 O22 2.179145 1_555
Mg12 O19 2.148821 1_556
Mg12 O29 2.149427 1_555
Mg12 O30 2.167924 1_555
Mg12 O9 2.175661 1_555
Mg12 O13 2.177420 1_555
Mg12 O21 2.179145 1_555
Mg13 O20 2.148821 1_556
Mg13 O29 2.149427 1_655
Mg13 O30 2.167924 1_555
Mg13 O10 2.175661 1_555
Mg13 O14 2.177420 1_555
Mg13 O22 2.179145 1_555
Mg14 O19 2.149543 1_555
Mg14 O0 2.150499 1_555
Mg14 O7 2.182204 1_555
Mg14 O9 2.182204 1_554
Mg14 O15 2.195676 1_555
Mg15 O20 2.149543 1_555
Mg15 O0 2.150499 1_655
Mg15 O10 2.182204 1_554
Mg15 O8 2.182204 1_555
Mg15 O16 2.195676 1_555
Mg16 O1 2.101509 1_555
Mg16 O21 2.108597 1_555
Mg16 O7 2.147184 1_555
Mg16 O9 2.147184 1_555
Mg16 O2 2.215398 1_555
Mg16 O17 2.221839 1_555
Mg17 O1 2.101509 1_655
Mg17 O22 2.108597 1_555
Mg17 O8 2.147184 1_555
Mg17 O10 2.147184 1_555
Mg17 O2 2.215398 1_555
Mg17 O18 2.221839 1_555
Mg18 O19 2.135918 1_555
Mg18 O4 2.160211 1_555
Mg18 O3 2.163721 1_555
Mg18 O13 2.171536 1_554
Mg18 O11 2.171536 1_555
Mg18 O15 2.194285 1_545
Mg19 O20 2.135918 1_555
Mg19 O4 2.160211 1_555
Mg19 O3 2.163721 1_655
Mg19 O12 2.171536 1_555
Mg19 O14 2.171536 1_554
Mg19 O16 2.194285 1_545
Mg20 O5 2.105909 1_555
Mg20 O21 2.108738 1_555
Mg20 O13 2.157997 1_555
Mg20 O11 2.157997 1_555
Mg20 O6 2.210970 1_555
Mg20 O17 2.223606 1_545
Mg21 O5 2.105909 1_655
Mg21 O22 2.108738 1_555
Mg21 O12 2.157997 1_555
Mg21 O14 2.157997 1_555
Mg21 O6 2.210970 1_555
Mg21 O18 2.223606 1_545
Mg22 O27 2.145161 1_555
Mg22 O7 2.153260 1_555
Mg22 O8 2.153260 1_455
Mg22 O1 2.159070 1_555
Mg22 O0 2.176220 1_555
Mg22 O23 2.192115 1_565
Mg23 O28 2.134099 1_555
Mg23 O8 2.164393 1_555
Mg23 O7 2.164393 1_555
Mg23 O2 2.196743 1_555
Mg23 O24 2.216330 1_565
Mg24 O29 2.145161 1_555
Mg24 O9 2.153260 1_555
Mg24 O10 2.153260 1_455
Mg24 O1 2.159070 1_555
Mg24 O0 2.176220 1_556
Mg24 O25 2.192115 1_565
Mg25 O30 2.134099 1_555
Mg25 O9 2.164393 1_555
Mg25 O10 2.164393 1_555
Mg25 O2 2.196743 1_555
Mg25 O26 2.216330 1_565
Mg26 O27 2.145017 1_555
Mg26 O11 2.163521 1_555
Mg26 O12 2.163521 1_455
Mg26 O5 2.164097 1_555
Mg26 O3 2.171119 1_555
Mg26 O23 2.192235 1_555
Mg27 O28 2.117051 1_555
Mg27 O4 2.121119 1_555
Mg27 O12 2.153981 1_555
Mg27 O11 2.153981 1_555
Mg27 O24 2.189729 1_555
Mg27 O6 2.206451 1_555
Mg28 O29 2.145017 1_555
Mg28 O13 2.163521 1_555
Mg28 O14 2.163521 1_455
Mg28 O5 2.164097 1_555
Mg28 O3 2.171119 1_556
Mg28 O25 2.192235 1_555
Mg29 O30 2.117051 1_555
Mg29 O4 2.121119 1_556
Mg29 O14 2.153981 1_555
Mg29 O13 2.153981 1_555
Mg29 O26 2.189729 1_555
Mg29 O6 2.206451 1_555
