# generated using pymatgen
data_BaNdNiBiO6
_symmetry_space_group_name_H-M   'P 1'
_cell_length_a   5.83737117
_cell_length_b   5.83737117
_cell_length_c   5.83737117
_cell_angle_alpha   60.00000000
_cell_angle_beta   60.00000000
_cell_angle_gamma   60.00000000
_symmetry_Int_Tables_number   1
_chemical_formula_structural   BaNdNiBiO6
_chemical_formula_sum   'Ba1 Nd1 Ni1 Bi1 O6'
_cell_volume   140.64909083
_cell_formula_units_Z   1
loop_
 _symmetry_equiv_pos_site_id
 _symmetry_equiv_pos_as_xyz
  1  'x, y, z'
loop_
 _atom_site_type_symbol
 _atom_site_label
 _atom_site_symmetry_multiplicity
 _atom_site_fract_x
 _atom_site_fract_y
 _atom_site_fract_z
 _atom_site_occupancy
  Ba  Ba0  1  0.75000000  0.75000000  0.75000000  1
  Nd  Nd0  1  0.25000000  0.25000000  0.25000000  1
  Ni  Ni0  1  0.50000000  0.50000000  0.50000000  1
  Bi  Bi0  1  0.00000000  0.00000000  0.00000000  1
  O  O0  1  0.74632722  0.25367278  0.25367278  1
  O  O1  1  0.25367278  0.74632722  0.74632722  1
  O  O2  1  0.74632722  0.25367278  0.74632722  1
  O  O3  1  0.25367278  0.74632722  0.25367278  1
  O  O4  1  0.74632722  0.74632722  0.25367278  1
  O  O5  1  0.25367278  0.25367278  0.74632722  1
loop_
_geom_bond_atom_site_label_1
_geom_bond_atom_site_label_2
_geom_bond_distance
_geom_bond_site_symmetry_2
Ba0 O1 2.918843 1_655
Ba0 O2 2.918843 1_565
Ba0 O3 2.918843 1_556
Ba0 O1 2.918843 1_555
Ba0 O0 2.918843 1_556
Ba0 O2 2.918843 1_555
Ba0 O4 2.918843 1_556
Ba0 O0 2.918843 1_565
Ba0 O3 2.918843 1_655
Ba0 O5 2.918843 1_565
Ba0 O5 2.918843 1_655
Ba0 O4 2.918843 1_555
Nd0 O3 2.918843 1_555
Nd0 O2 2.918843 1_455
Nd0 O5 2.918843 1_555
Nd0 O1 2.918843 1_545
Nd0 O0 2.918843 1_455
Nd0 O0 2.918843 1_555
Nd0 O1 2.918843 1_554
Nd0 O4 2.918843 1_455
Nd0 O4 2.918843 1_545
Nd0 O3 2.918843 1_545
Nd0 O2 2.918843 1_554
Nd0 O5 2.918843 1_554
Ni0 O4 2.033503 1_555
Ni0 O1 2.033503 1_555
Ni0 O2 2.033503 1_555
Ni0 O3 2.033503 1_555
Ni0 O0 2.033503 1_555
Ni0 O5 2.033503 1_555
Bi0 O3 2.094142 1_545
Bi0 O5 2.094142 1_554
Bi0 O0 2.094142 1_455
Bi0 O1 2.094142 1_544
Bi0 O4 2.094142 1_445
Bi0 O2 2.094142 1_454
