# generated using pymatgen
data_Mn2ZnO5
_symmetry_space_group_name_H-M   'P 1'
_cell_length_a   5.18505994
_cell_length_b   5.18505994
_cell_length_c   11.64500300
_cell_angle_alpha   90.00000000
_cell_angle_beta   90.00000000
_cell_angle_gamma   138.43990090
_symmetry_Int_Tables_number   1
_chemical_formula_structural   Mn2ZnO5
_chemical_formula_sum   'Mn4 Zn2 O10'
_cell_volume   207.69502500
_cell_formula_units_Z   2
loop_
 _symmetry_equiv_pos_site_id
 _symmetry_equiv_pos_as_xyz
  1  'x, y, z'
loop_
 _atom_site_type_symbol
 _atom_site_label
 _atom_site_symmetry_multiplicity
 _atom_site_fract_x
 _atom_site_fract_y
 _atom_site_fract_z
 _atom_site_occupancy
  Mn  Mn0  1  0.78090700  0.21909300  0.59837900  1
  Mn  Mn1  1  0.21909300  0.78090700  0.40162100  1
  Mn  Mn2  1  0.21909300  0.78090700  0.09837900  1
  Mn  Mn3  1  0.78090700  0.21909300  0.90162100  1
  Zn  Zn0  1  0.08199500  0.91800500  0.75000000  1
  Zn  Zn1  1  0.91800500  0.08199500  0.25000000  1
  O  O0  1  0.30231400  0.69768600  0.25000000  1
  O  O1  1  0.69768600  0.30231400  0.75000000  1
  O  O2  1  0.76487600  0.23512400  0.07492400  1
  O  O3  1  0.23512400  0.76487600  0.92507600  1
  O  O4  1  0.23512400  0.76487600  0.57492400  1
  O  O5  1  0.76487600  0.23512400  0.42507600  1
  O  O6  1  0.95875400  0.04124600  0.61832000  1
  O  O7  1  0.04124600  0.95875400  0.38168000  1
  O  O8  1  0.95875400  0.04124600  0.88168000  1
  O  O9  1  0.04124600  0.95875400  0.11832000  1
loop_
_geom_bond_atom_site_label_1
_geom_bond_atom_site_label_2
_geom_bond_distance
_geom_bond_site_symmetry_2
Mn0 O6 1.739888 1_555
Mn0 O4 1.911971 1_545
Mn0 O4 1.911971 1_655
Mn0 O1 1.941258 1_555
Mn0 O5 2.024090 1_555
Mn1 O7 1.739888 1_555
Mn1 O5 1.911971 1_455
Mn1 O5 1.911971 1_565
Mn1 O0 1.941258 1_555
Mn1 O4 2.024090 1_555
Mn2 O9 1.739888 1_555
Mn2 O2 1.911971 1_455
Mn2 O2 1.911971 1_565
Mn2 O0 1.941258 1_555
Mn2 O3 2.024090 1_554
Mn3 O8 1.739888 1_555
Mn3 O3 1.911971 1_545
Mn3 O3 1.911971 1_655
Mn3 O1 1.941258 1_555
Mn3 O2 2.024090 1_556
O0 Zn1 2.154570 1_455
O0 Zn1 2.154570 1_565
O1 Zn0 2.154570 1_545
O1 Zn0 2.154570 1_655
O2 Zn1 2.522059 1_555
O3 Zn0 2.522059 1_555
O4 Zn0 2.522059 1_555
O5 Zn1 2.522059 1_555
O6 Zn0 1.943995 1_645
O7 Zn1 1.943995 1_465
O8 Zn0 1.943995 1_645
O9 Zn1 1.943995 1_465
