# generated using pymatgen
data_Na2Al2Si3O14
_symmetry_space_group_name_H-M   'P 1'
_cell_length_a   13.38985904
_cell_length_b   10.22044207
_cell_length_c   9.87361210
_cell_angle_alpha   83.55427118
_cell_angle_beta   49.32968904
_cell_angle_gamma   47.11603978
_symmetry_Int_Tables_number   1
_chemical_formula_structural   Na2Al2Si3O14
_chemical_formula_sum   'Na4 Al4 Si6 O28'
_cell_volume   602.99399997
_cell_formula_units_Z   2
loop_
 _symmetry_equiv_pos_site_id
 _symmetry_equiv_pos_as_xyz
  1  'x, y, z'
loop_
 _atom_site_type_symbol
 _atom_site_label
 _atom_site_symmetry_multiplicity
 _atom_site_fract_x
 _atom_site_fract_y
 _atom_site_fract_z
 _atom_site_occupancy
  Na  Na0  1  0.14883000  0.42816900  0.93387400  1
  Na  Na1  1  0.48912700  0.93387400  0.42816900  1
  Na  Na2  1  0.82183100  0.10117000  0.76087300  1
  Na  Na3  1  0.31612600  0.76087300  0.10117000  1
  Al  Al0  1  0.42745300  0.49662900  0.76078200  1
  Al  Al1  1  0.31513600  0.76078200  0.49662900  1
  Al  Al2  1  0.75337100  0.82254700  0.93486400  1
  Al  Al3  1  0.48921800  0.93486400  0.82254700  1
  Si  Si0  1  0.75269000  0.24731000  0.24731000  1
  Si  Si1  1  0.00269000  0.49731000  0.49731000  1
  Si  Si2  1  0.42620800  0.25840500  0.99192400  1
  Si  Si3  1  0.32346300  0.99192400  0.25840500  1
  Si  Si4  1  0.99159500  0.82379200  0.92653700  1
  Si  Si5  1  0.25807600  0.92653700  0.82379200  1
  O  O0  1  0.65953700  0.28968800  0.47535900  1
  O  O1  1  0.57541600  0.47535900  0.28968800  1
  O  O2  1  0.96031200  0.59046300  0.67458400  1
  O  O3  1  0.77464100  0.67458400  0.59046300  1
  O  O4  1  0.46736700  0.37904800  0.89470000  1
  O  O5  1  0.25888400  0.89470000  0.37904800  1
  O  O6  1  0.87095200  0.78263300  0.99111600  1
  O  O7  1  0.35530000  0.99111600  0.78263300  1
  O  O8  1  0.18775800  0.62164700  0.88160400  1
  O  O9  1  0.30899100  0.88160400  0.62164700  1
  O  O10  1  0.62835300  0.06224200  0.94100900  1
  O  O11  1  0.36839600  0.94100900  0.06224200  1
  O  O12  1  0.42196800  0.15867700  0.87876200  1
  O  O13  1  0.54059200  0.87876200  0.15867700  1
  O  O14  1  0.09132300  0.82803200  0.70940800  1
  O  O15  1  0.37123800  0.70940800  0.82803200  1
  O  O16  1  0.18298300  0.44297900  0.25989800  1
  O  O17  1  0.11414100  0.25989800  0.44297900  1
  O  O18  1  0.80702100  0.06701700  0.13585900  1
  O  O19  1  0.99010200  0.13585900  0.06701700  1
  O  O20  1  0.03619500  0.82404300  0.41361800  1
  O  O21  1  0.72614400  0.41361800  0.82404300  1
  O  O22  1  0.42595700  0.21380500  0.52385600  1
  O  O23  1  0.83638200  0.52385600  0.21380500  1
  O  O24  1  0.58464400  0.07969600  0.47918900  1
  O  O25  1  0.85647100  0.47918900  0.07969600  1
  O  O26  1  0.17030400  0.66535600  0.39352900  1
  O  O27  1  0.77081100  0.39352900  0.66535600  1
loop_
_geom_bond_atom_site_label_1
_geom_bond_atom_site_label_2
_geom_bond_distance
_geom_bond_site_symmetry_2
Na0 O8 2.295942 1_555
Na0 O12 2.300117 1_555
Na0 O23 2.462750 1_456
Na0 O22 2.510965 1_555
Na0 O6 2.580840 1_455
Na1 O9 2.295942 1_555
Na1 O13 2.300125 1_555
Na1 O22 2.462750 1_565
Na1 O23 2.510965 1_555
Na1 O7 2.580845 1_555
Na2 O10 2.295942 1_555
Na2 O14 2.300123 1_645
Na2 O21 2.462750 1_555
Na2 O20 2.510965 1_645
Na2 O4 2.580846 1_555
Na3 O11 2.295942 1_555
Na3 O15 2.300115 1_554
Na3 O20 2.462750 1_555
Na3 O21 2.510965 1_554
Na3 O5 2.580836 1_555
Al0 O0 1.746517 1_555
Al0 O8 1.768303 1_555
Al0 O4 1.779978 1_555
Al0 O15 1.783716 1_555
Al1 O1 1.746517 1_555
Al1 O9 1.768303 1_555
Al1 O5 1.779983 1_555
Al1 O14 1.783707 1_555
Al2 O2 1.746517 1_555
Al2 O10 1.768303 1_565
Al2 O6 1.779987 1_555
Al2 O13 1.783713 1_556
Al3 O3 1.746517 1_555
Al3 O11 1.768303 1_556
Al3 O7 1.779975 1_555
Al3 O12 1.783706 1_565
O0 Si0 1.623702 1_555
O1 Si0 1.623702 1_555
O2 Si1 1.623702 1_655
O3 Si1 1.623702 1_655
O4 Si2 1.647768 1_555
O5 Si3 1.647774 1_555
O6 Si4 1.647765 1_555
O7 Si5 1.647777 1_555
O8 Si4 1.632615 1_455
O9 Si5 1.632615 1_555
O10 Si2 1.632615 1_555
O11 Si3 1.632615 1_555
O12 Si2 1.645496 1_555
O13 Si3 1.645484 1_555
O14 Si4 1.645488 1_455
O15 Si5 1.645489 1_555
O16 Si2 1.641109 1_554
O16 Si1 1.650137 1_555
O17 Si3 1.641111 1_545
O17 Si1 1.650132 1_555
O18 Si4 1.641104 1_544
O18 Si0 1.650142 1_555
O19 Si5 1.641109 1_644
O19 Si0 1.650131 1_555
O20 O26 1.240344 1_555
O21 O27 1.240344 1_555
O22 O24 1.240344 1_555
O23 O25 1.240344 1_555
