# generated using pymatgen
data_CeMoO4F
_symmetry_space_group_name_H-M   'P 1'
_cell_length_a   6.62164400
_cell_length_b   7.04458100
_cell_length_c   10.14842399
_cell_angle_alpha   64.30659283
_cell_angle_beta   90.00000000
_cell_angle_gamma   90.00000000
_symmetry_Int_Tables_number   1
_chemical_formula_structural   CeMoO4F
_chemical_formula_sum   'Ce4 Mo4 O16 F4'
_cell_volume   426.58497983
_cell_formula_units_Z   4
loop_
 _symmetry_equiv_pos_site_id
 _symmetry_equiv_pos_as_xyz
  1  'x, y, z'
loop_
 _atom_site_type_symbol
 _atom_site_label
 _atom_site_symmetry_multiplicity
 _atom_site_fract_x
 _atom_site_fract_y
 _atom_site_fract_z
 _atom_site_occupancy
  Ce  Ce0  1  0.63070100  0.80306500  0.42345700  1
  Ce  Ce1  1  0.86929900  0.80306500  0.92345700  1
  Ce  Ce2  1  0.36929900  0.19693500  0.57654300  1
  Ce  Ce3  1  0.13070100  0.19693500  0.07654300  1
  Mo  Mo0  1  0.63617400  0.33411000  0.83472300  1
  Mo  Mo1  1  0.86382600  0.33411000  0.33472300  1
  Mo  Mo2  1  0.36382600  0.66589000  0.16527700  1
  Mo  Mo3  1  0.13617400  0.66589000  0.66527700  1
  O  O0  1  0.66256700  0.55494300  0.87244100  1
  O  O1  1  0.83743300  0.55494300  0.37244100  1
  O  O2  1  0.33743300  0.44505700  0.12755900  1
  O  O3  1  0.16256700  0.44505700  0.62755900  1
  O  O4  1  0.90058500  0.78565500  0.58694700  1
  O  O5  1  0.59941500  0.78565500  0.08694700  1
  O  O6  1  0.09941500  0.21434500  0.41305300  1
  O  O7  1  0.40058500  0.21434500  0.91305300  1
  O  O8  1  0.60781700  0.43903900  0.63609300  1
  O  O9  1  0.89218300  0.43903900  0.13609300  1
  O  O10  1  0.39218300  0.56096100  0.36390700  1
  O  O11  1  0.10781700  0.56096100  0.86390700  1
  O  O12  1  0.85873000  0.16444600  0.91915400  1
  O  O13  1  0.64127000  0.16444600  0.41915400  1
  O  O14  1  0.14127000  0.83555400  0.08084600  1
  O  O15  1  0.35873000  0.83555400  0.58084600  1
  F  F0  1  0.88333200  0.01331800  0.25961600  1
  F  F1  1  0.61666800  0.01331800  0.75961600  1
  F  F2  1  0.11666800  0.98668200  0.74038400  1
  F  F3  1  0.38333200  0.98668200  0.24038400  1
loop_
_geom_bond_atom_site_label_1
_geom_bond_atom_site_label_2
_geom_bond_distance
_geom_bond_site_symmetry_2
Ce0 F0 2.370939 1_565
Ce0 F3 2.392513 1_555
Ce0 O4 2.405216 1_555
Ce0 O1 2.445782 1_555
Ce0 O15 2.482700 1_555
Ce0 O13 2.528120 1_565
Ce0 O8 2.541136 1_555
Ce0 O10 2.581127 1_555
Ce1 F1 2.370939 1_565
Ce1 F2 2.392513 1_655
Ce1 O5 2.405216 1_556
Ce1 O0 2.445782 1_555
Ce1 O14 2.482700 1_656
Ce1 O12 2.528120 1_565
Ce1 O9 2.541136 1_556
Ce1 O11 2.581127 1_655
Ce2 F2 2.370939 1_545
Ce2 F1 2.392513 1_555
Ce2 O6 2.405216 1_555
Ce2 O3 2.445782 1_555
Ce2 O13 2.482700 1_555
Ce2 O15 2.528120 1_545
Ce2 O10 2.541136 1_555
Ce2 O8 2.581127 1_555
Ce3 F3 2.370939 1_545
Ce3 F0 2.392513 1_455
Ce3 O7 2.405216 1_554
Ce3 O2 2.445782 1_555
Ce3 O12 2.482700 1_454
Ce3 O14 2.528120 1_545
Ce3 O11 2.541136 1_554
Ce3 O9 2.581127 1_455
Mo0 O0 1.764521 1_555
Mo0 O7 1.787662 1_555
Mo0 O8 1.831120 1_555
Mo0 O12 1.856461 1_555
Mo1 O1 1.764521 1_555
Mo1 O6 1.787662 1_655
Mo1 O9 1.831120 1_555
Mo1 O13 1.856461 1_555
Mo2 O2 1.764521 1_555
Mo2 O5 1.787662 1_555
Mo2 O10 1.831120 1_555
Mo2 O14 1.856461 1_555
Mo3 O3 1.764521 1_555
Mo3 O4 1.787662 1_455
Mo3 O11 1.831120 1_555
Mo3 O15 1.856461 1_555
