# generated using pymatgen
data_Lu2InNi2
_symmetry_space_group_name_H-M   'P 1'
_cell_length_a   6.88542542
_cell_length_b   14.47194302
_cell_length_c   14.47194302
_cell_angle_alpha   90.00000000
_cell_angle_beta   90.00000000
_cell_angle_gamma   90.00000000
_symmetry_Int_Tables_number   1
_chemical_formula_structural   Lu2InNi2
_chemical_formula_sum   'Lu32 In16 Ni32'
_cell_volume   1442.06377167
_cell_formula_units_Z   16
loop_
 _symmetry_equiv_pos_site_id
 _symmetry_equiv_pos_as_xyz
  1  'x, y, z'
loop_
 _atom_site_type_symbol
 _atom_site_label
 _atom_site_symmetry_multiplicity
 _atom_site_fract_x
 _atom_site_fract_y
 _atom_site_fract_z
 _atom_site_occupancy
  Lu  Lu0_0  1  0.25000000  0.08635403  0.33635403  1
  Lu  Lu0_1  1  0.25000000  0.08635403  0.83635403  1
  Lu  Lu0_2  1  0.25000000  0.58635403  0.33635403  1
  Lu  Lu0_3  1  0.25000000  0.58635403  0.83635403  1
  Lu  Lu0_4  1  0.75000000  0.08635403  0.33635403  1
  Lu  Lu0_5  1  0.75000000  0.08635403  0.83635403  1
  Lu  Lu0_6  1  0.75000000  0.58635403  0.33635403  1
  Lu  Lu0_7  1  0.75000000  0.58635403  0.83635403  1
  Lu  Lu1_0  1  0.25000000  0.41364597  0.16364598  1
  Lu  Lu1_1  1  0.25000000  0.41364597  0.66364597  1
  Lu  Lu1_2  1  0.25000000  0.91364597  0.16364598  1
  Lu  Lu1_3  1  0.25000000  0.91364597  0.66364597  1
  Lu  Lu1_4  1  0.75000000  0.41364597  0.16364598  1
  Lu  Lu1_5  1  0.75000000  0.41364597  0.66364597  1
  Lu  Lu1_6  1  0.75000000  0.91364597  0.16364598  1
  Lu  Lu1_7  1  0.75000000  0.91364597  0.66364597  1
  Lu  Lu2_0  1  0.25000000  0.16364598  0.08635403  1
  Lu  Lu2_1  1  0.25000000  0.16364598  0.58635403  1
  Lu  Lu2_2  1  0.25000000  0.66364597  0.08635403  1
  Lu  Lu2_3  1  0.25000000  0.66364597  0.58635403  1
  Lu  Lu2_4  1  0.75000000  0.16364598  0.08635403  1
  Lu  Lu2_5  1  0.75000000  0.16364598  0.58635403  1
  Lu  Lu2_6  1  0.75000000  0.66364597  0.08635403  1
  Lu  Lu2_7  1  0.75000000  0.66364597  0.58635403  1
  Lu  Lu3_0  1  0.25000000  0.33635403  0.41364597  1
  Lu  Lu3_1  1  0.25000000  0.33635403  0.91364597  1
  Lu  Lu3_2  1  0.25000000  0.83635403  0.41364597  1
  Lu  Lu3_3  1  0.25000000  0.83635403  0.91364597  1
  Lu  Lu3_4  1  0.75000000  0.33635403  0.41364597  1
  Lu  Lu3_5  1  0.75000000  0.33635403  0.91364597  1
  Lu  Lu3_6  1  0.75000000  0.83635403  0.41364597  1
  Lu  Lu3_7  1  0.75000000  0.83635403  0.91364597  1
  In  In0_0  1  0.00000000  0.25000000  0.25000000  1
  In  In0_1  1  0.00000000  0.25000000  0.75000000  1
  In  In0_2  1  0.00000000  0.75000000  0.25000000  1
  In  In0_3  1  0.00000000  0.75000000  0.75000000  1
  In  In0_4  1  0.50000000  0.25000000  0.25000000  1
  In  In0_5  1  0.50000000  0.25000000  0.75000000  1
  In  In0_6  1  0.50000000  0.75000000  0.25000000  1
  In  In0_7  1  0.50000000  0.75000000  0.75000000  1
  In  In1_0  1  0.00000000  0.00000000  0.00000000  1
  In  In1_1  1  0.00000000  0.00000000  0.50000000  1
  In  In1_2  1  0.00000000  0.50000000  0.00000000  1
  In  In1_3  1  0.00000000  0.50000000  0.50000000  1
  In  In1_4  1  0.50000000  0.00000000  0.00000000  1
  In  In1_5  1  0.50000000  0.00000000  0.50000000  1
  In  In1_6  1  0.50000000  0.50000000  0.00000000  1
  In  In1_7  1  0.50000000  0.50000000  0.50000000  1
  Ni  Ni0_0  1  0.00000000  0.31026609  0.06026609  1
  Ni  Ni0_1  1  0.00000000  0.31026609  0.56026608  1
  Ni  Ni0_2  1  0.00000000  0.81026608  0.06026609  1
  Ni  Ni0_3  1  0.00000000  0.81026608  0.56026608  1
  Ni  Ni0_4  1  0.50000000  0.31026609  0.06026609  1
  Ni  Ni0_5  1  0.50000000  0.31026609  0.56026608  1
  Ni  Ni0_6  1  0.50000000  0.81026608  0.06026609  1
  Ni  Ni0_7  1  0.50000000  0.81026608  0.56026608  1
  Ni  Ni1_0  1  0.00000000  0.18973392  0.43973392  1
  Ni  Ni1_1  1  0.00000000  0.18973392  0.93973392  1
  Ni  Ni1_2  1  0.00000000  0.68973392  0.43973392  1
  Ni  Ni1_3  1  0.00000000  0.68973392  0.93973392  1
  Ni  Ni1_4  1  0.50000000  0.18973392  0.43973392  1
  Ni  Ni1_5  1  0.50000000  0.18973392  0.93973392  1
  Ni  Ni1_6  1  0.50000000  0.68973392  0.43973392  1
  Ni  Ni1_7  1  0.50000000  0.68973392  0.93973392  1
  Ni  Ni2_0  1  0.00000000  0.43973392  0.31026609  1
  Ni  Ni2_1  1  0.00000000  0.43973392  0.81026608  1
  Ni  Ni2_2  1  0.00000000  0.93973392  0.31026609  1
  Ni  Ni2_3  1  0.00000000  0.93973392  0.81026608  1
  Ni  Ni2_4  1  0.50000000  0.43973392  0.31026609  1
  Ni  Ni2_5  1  0.50000000  0.43973392  0.81026608  1
  Ni  Ni2_6  1  0.50000000  0.93973392  0.31026609  1
  Ni  Ni2_7  1  0.50000000  0.93973392  0.81026608  1
  Ni  Ni3_0  1  0.00000000  0.06026609  0.18973392  1
  Ni  Ni3_1  1  0.00000000  0.06026609  0.68973392  1
  Ni  Ni3_2  1  0.00000000  0.56026608  0.18973392  1
  Ni  Ni3_3  1  0.00000000  0.56026608  0.68973392  1
  Ni  Ni3_4  1  0.50000000  0.06026609  0.18973392  1
  Ni  Ni3_5  1  0.50000000  0.06026609  0.68973392  1
  Ni  Ni3_6  1  0.50000000  0.56026608  0.18973392  1
  Ni  Ni3_7  1  0.50000000  0.56026608  0.68973392  1
loop_
_geom_bond_atom_site_label_1
_geom_bond_atom_site_label_2
_geom_bond_distance
_geom_bond_site_symmetry_2
Lu0_0 Ni1_0 2.727590 1_555
Lu0_0 Ni1_4 2.727590 1_555
Lu0_0 Ni2_2 2.758255 1_545
Lu0_0 Ni2_6 2.758255 1_545
Lu0_0 Ni3_0 2.758255 1_555
Lu0_0 Ni3_4 2.758255 1_555
Lu0_1 Ni1_1 2.727590 1_555
Lu0_1 Ni1_5 2.727590 1_555
Lu0_1 Ni2_3 2.758255 1_545
Lu0_1 Ni2_7 2.758255 1_545
Lu0_1 Ni3_1 2.758255 1_555
Lu0_1 Ni3_5 2.758255 1_555
Lu0_2 Ni1_6 2.727590 1_555
Lu0_2 Ni1_2 2.727590 1_555
Lu0_2 Ni3_2 2.758255 1_555
Lu0_2 Ni2_0 2.758255 1_555
Lu0_2 Ni3_6 2.758255 1_555
Lu0_2 Ni2_4 2.758255 1_555
Lu0_3 Ni1_3 2.727590 1_555
Lu0_3 Ni1_7 2.727590 1_555
Lu0_3 Ni2_1 2.758255 1_555
Lu0_3 Ni3_3 2.758255 1_555
Lu0_3 Ni2_5 2.758255 1_555
Lu0_3 Ni3_7 2.758255 1_555
Lu0_4 Ni1_4 2.727590 1_555
Lu0_4 Ni1_0 2.727590 1_655
Lu0_4 Ni2_2 2.758255 1_645
Lu0_4 Ni2_6 2.758255 1_545
Lu0_4 Ni3_0 2.758255 1_655
Lu0_4 Ni3_4 2.758255 1_555
Lu0_5 Ni1_5 2.727590 1_555
Lu0_5 Ni1_1 2.727590 1_655
Lu0_5 Ni2_3 2.758255 1_645
Lu0_5 Ni2_7 2.758255 1_545
Lu0_5 Ni3_1 2.758255 1_655
Lu0_5 Ni3_5 2.758255 1_555
Lu0_6 Ni1_2 2.727590 1_655
Lu0_6 Ni1_6 2.727590 1_555
Lu0_6 Ni2_0 2.758255 1_655
Lu0_6 Ni3_6 2.758255 1_555
Lu0_6 Ni2_4 2.758255 1_555
Lu0_6 Ni3_2 2.758255 1_655
Lu0_7 Ni1_3 2.727590 1_655
Lu0_7 Ni1_7 2.727590 1_555
Lu0_7 Ni3_3 2.758255 1_655
Lu0_7 Ni2_1 2.758255 1_655
Lu0_7 Ni2_5 2.758255 1_555
Lu0_7 Ni3_7 2.758255 1_555
Lu1_0 Ni0_4 2.727590 1_555
Lu1_0 Ni0_0 2.727590 1_555
Lu1_0 Ni3_2 2.758255 1_555
Lu1_0 Ni2_0 2.758255 1_555
Lu1_0 Ni3_6 2.758255 1_555
Lu1_0 Ni2_4 2.758255 1_555
Lu1_1 Ni0_1 2.727590 1_555
Lu1_1 Ni0_5 2.727590 1_555
Lu1_1 Ni2_1 2.758255 1_555
Lu1_1 Ni3_7 2.758255 1_555
Lu1_1 Ni3_3 2.758255 1_555
Lu1_1 Ni2_5 2.758255 1_555
Lu1_2 Ni0_2 2.727590 1_555
Lu1_2 Ni0_6 2.727590 1_555
Lu1_2 Ni2_2 2.758255 1_555
Lu1_2 Ni2_6 2.758255 1_555
Lu1_2 Ni3_4 2.758255 1_565
Lu1_2 Ni3_0 2.758255 1_565
Lu1_3 Ni0_3 2.727590 1_555
Lu1_3 Ni0_7 2.727590 1_555
Lu1_3 Ni2_3 2.758255 1_555
Lu1_3 Ni2_7 2.758255 1_555
Lu1_3 Ni3_5 2.758255 1_565
Lu1_3 Ni3_1 2.758255 1_565
Lu1_4 Ni0_0 2.727590 1_655
Lu1_4 Ni0_4 2.727590 1_555
Lu1_4 Ni2_0 2.758255 1_655
Lu1_4 Ni3_6 2.758255 1_555
Lu1_4 Ni2_4 2.758255 1_555
Lu1_4 Ni3_2 2.758255 1_655
Lu1_5 Ni0_1 2.727590 1_655
Lu1_5 Ni0_5 2.727590 1_555
Lu1_5 Ni3_3 2.758255 1_655
Lu1_5 Ni2_1 2.758255 1_655
Lu1_5 Ni2_5 2.758255 1_555
Lu1_5 Ni3_7 2.758255 1_555
Lu1_6 Ni0_2 2.727590 1_655
Lu1_6 Ni0_6 2.727590 1_555
Lu1_6 Ni2_2 2.758255 1_655
Lu1_6 Ni2_6 2.758255 1_555
Lu1_6 Ni3_4 2.758255 1_565
Lu1_6 Ni3_0 2.758255 1_665
Lu1_7 Ni0_3 2.727590 1_655
Lu1_7 Ni0_7 2.727590 1_555
Lu1_7 Ni2_3 2.758255 1_655
Lu1_7 Ni2_7 2.758255 1_555
Lu1_7 Ni3_5 2.758255 1_565
Lu1_7 Ni3_1 2.758255 1_665
Lu2_0 Ni3_4 2.727590 1_555
Lu2_0 Ni3_0 2.727590 1_555
Lu2_0 Ni1_1 2.758255 1_554
Lu2_0 Ni1_5 2.758255 1_554
Lu2_0 Ni0_0 2.758255 1_555
Lu2_0 Ni0_4 2.758255 1_555
Lu2_1 Ni3_1 2.727590 1_555
Lu2_1 Ni3_5 2.727590 1_555
Lu2_1 Ni1_0 2.758255 1_555
Lu2_1 Ni1_4 2.758255 1_555
Lu2_1 Ni0_1 2.758255 1_555
Lu2_1 Ni0_5 2.758255 1_555
Lu2_2 Ni3_2 2.727590 1_555
Lu2_2 Ni3_6 2.727590 1_555
Lu2_2 Ni1_3 2.758255 1_554
Lu2_2 Ni1_7 2.758255 1_554
Lu2_2 Ni0_2 2.758255 1_555
Lu2_2 Ni0_6 2.758255 1_555
Lu2_3 Ni3_3 2.727590 1_555
Lu2_3 Ni3_7 2.727590 1_555
Lu2_3 Ni1_6 2.758255 1_555
Lu2_3 Ni0_7 2.758255 1_555
Lu2_3 Ni0_3 2.758255 1_555
Lu2_3 Ni1_2 2.758255 1_555
Lu2_4 Ni3_0 2.727590 1_655
Lu2_4 Ni3_4 2.727590 1_555
Lu2_4 Ni1_1 2.758255 1_654
Lu2_4 Ni1_5 2.758255 1_554
Lu2_4 Ni0_0 2.758255 1_655
Lu2_4 Ni0_4 2.758255 1_555
Lu2_5 Ni3_1 2.727590 1_655
Lu2_5 Ni3_5 2.727590 1_555
Lu2_5 Ni1_0 2.758255 1_655
Lu2_5 Ni1_4 2.758255 1_555
Lu2_5 Ni0_1 2.758255 1_655
Lu2_5 Ni0_5 2.758255 1_555
Lu2_6 Ni3_6 2.727590 1_555
Lu2_6 Ni3_2 2.727590 1_655
Lu2_6 Ni1_3 2.758255 1_654
Lu2_6 Ni1_7 2.758255 1_554
Lu2_6 Ni0_2 2.758255 1_655
Lu2_6 Ni0_6 2.758255 1_555
Lu2_7 Ni3_7 2.727590 1_555
Lu2_7 Ni3_3 2.727590 1_655
Lu2_7 Ni1_2 2.758255 1_655
Lu2_7 Ni0_3 2.758255 1_655
Lu2_7 Ni1_6 2.758255 1_555
Lu2_7 Ni0_7 2.758255 1_555
Lu3_0 Ni2_0 2.727590 1_555
Lu3_0 Ni2_4 2.727590 1_555
Lu3_0 Ni0_5 2.758255 1_555
Lu3_0 Ni1_0 2.758255 1_555
Lu3_0 Ni1_4 2.758255 1_555
Lu3_0 Ni0_1 2.758255 1_555
Lu3_1 Ni2_5 2.727590 1_555
Lu3_1 Ni2_1 2.727590 1_555
Lu3_1 Ni1_1 2.758255 1_555
Lu3_1 Ni1_5 2.758255 1_555
Lu3_1 Ni0_4 2.758255 1_556
Lu3_1 Ni0_0 2.758255 1_556
Lu3_2 Ni2_6 2.727590 1_555
Lu3_2 Ni2_2 2.727590 1_555
Lu3_2 Ni1_6 2.758255 1_555
Lu3_2 Ni0_3 2.758255 1_555
Lu3_2 Ni0_7 2.758255 1_555
Lu3_2 Ni1_2 2.758255 1_555
Lu3_3 Ni2_7 2.727590 1_555
Lu3_3 Ni2_3 2.727590 1_555
Lu3_3 Ni1_7 2.758255 1_555
Lu3_3 Ni1_3 2.758255 1_555
Lu3_3 Ni0_2 2.758255 1_556
Lu3_3 Ni0_6 2.758255 1_556
Lu3_4 Ni2_0 2.727590 1_655
Lu3_4 Ni2_4 2.727590 1_555
Lu3_4 Ni1_0 2.758255 1_655
Lu3_4 Ni0_5 2.758255 1_555
Lu3_4 Ni1_4 2.758255 1_555
Lu3_4 Ni0_1 2.758255 1_655
Lu3_5 Ni2_5 2.727590 1_555
Lu3_5 Ni2_1 2.727590 1_655
Lu3_5 Ni1_1 2.758255 1_655
Lu3_5 Ni1_5 2.758255 1_555
Lu3_5 Ni0_0 2.758255 1_656
Lu3_5 Ni0_4 2.758255 1_556
Lu3_6 Ni2_6 2.727590 1_555
Lu3_6 Ni2_2 2.727590 1_655
Lu3_6 Ni1_2 2.758255 1_655
Lu3_6 Ni0_3 2.758255 1_655
Lu3_6 Ni1_6 2.758255 1_555
Lu3_6 Ni0_7 2.758255 1_555
Lu3_7 Ni2_7 2.727590 1_555
Lu3_7 Ni2_3 2.727590 1_655
Lu3_7 Ni1_3 2.758255 1_655
Lu3_7 Ni1_7 2.758255 1_555
Lu3_7 Ni0_6 2.758255 1_556
Lu3_7 Ni0_2 2.758255 1_656
In0_0 Ni3_0 2.881006 1_555
In0_0 Ni0_0 2.881006 1_555
In0_0 Ni1_0 2.881006 1_555
In0_0 Ni2_0 2.881006 1_555
In0_0 Lu2_0 3.183327 1_555
In0_0 Lu2_4 3.183327 1_455
In0_0 Lu3_4 3.183327 1_455
In0_0 Lu3_0 3.183327 1_555
In0_0 Lu1_0 3.183327 1_555
In0_0 Lu1_4 3.183327 1_455
In0_0 Lu0_0 3.183327 1_555
In0_0 Lu0_4 3.183327 1_455
In0_0 In0_4 3.442713 1_455
In0_0 In0_4 3.442713 1_555
In0_1 Ni2_1 2.881006 1_555
In0_1 Ni1_1 2.881006 1_555
In0_1 Ni3_1 2.881006 1_555
In0_1 Ni0_1 2.881006 1_555
In0_1 Lu3_1 3.183327 1_555
In0_1 Lu3_5 3.183327 1_455
In0_1 Lu0_1 3.183327 1_555
In0_1 Lu0_5 3.183327 1_455
In0_1 Lu1_5 3.183327 1_455
In0_1 Lu1_1 3.183327 1_555
In0_1 Lu2_5 3.183327 1_455
In0_1 Lu2_1 3.183327 1_555
In0_1 In0_5 3.442713 1_455
In0_1 In0_5 3.442713 1_555
In0_2 Ni0_2 2.881006 1_555
In0_2 Ni1_2 2.881006 1_555
In0_2 Ni2_2 2.881006 1_555
In0_2 Ni3_2 2.881006 1_555
In0_2 Lu1_6 3.183327 1_455
In0_2 Lu1_2 3.183327 1_555
In0_2 Lu3_2 3.183327 1_555
In0_2 Lu3_6 3.183327 1_455
In0_2 Lu2_2 3.183327 1_555
In0_2 Lu2_6 3.183327 1_455
In0_2 Lu0_6 3.183327 1_455
In0_2 Lu0_2 3.183327 1_555
In0_2 In0_6 3.442713 1_455
In0_2 In0_6 3.442713 1_555
In0_3 Ni2_3 2.881006 1_555
In0_3 Ni1_3 2.881006 1_555
In0_3 Ni0_3 2.881006 1_555
In0_3 Ni3_3 2.881006 1_555
In0_3 Lu3_7 3.183327 1_455
In0_3 Lu3_3 3.183327 1_555
In0_3 Lu1_3 3.183327 1_555
In0_3 Lu1_7 3.183327 1_455
In0_3 Lu0_3 3.183327 1_555
In0_3 Lu0_7 3.183327 1_455
In0_3 Lu2_7 3.183327 1_455
In0_3 Lu2_3 3.183327 1_555
In0_3 In0_7 3.442713 1_455
In0_3 In0_7 3.442713 1_555
In0_4 Ni3_4 2.881006 1_555
In0_4 Ni0_4 2.881006 1_555
In0_4 Ni1_4 2.881006 1_555
In0_4 Ni2_4 2.881006 1_555
In0_4 Lu2_0 3.183327 1_555
In0_4 Lu1_4 3.183327 1_555
In0_4 Lu2_4 3.183327 1_555
In0_4 Lu3_0 3.183327 1_555
In0_4 Lu3_4 3.183327 1_555
In0_4 Lu1_0 3.183327 1_555
In0_4 Lu0_0 3.183327 1_555
In0_4 Lu0_4 3.183327 1_555
In0_5 Ni2_5 2.881006 1_555
In0_5 Ni1_5 2.881006 1_555
In0_5 Ni3_5 2.881006 1_555
In0_5 Ni0_5 2.881006 1_555
In0_5 Lu3_1 3.183327 1_555
In0_5 Lu3_5 3.183327 1_555
In0_5 Lu0_5 3.183327 1_555
In0_5 Lu0_1 3.183327 1_555
In0_5 Lu1_1 3.183327 1_555
In0_5 Lu1_5 3.183327 1_555
In0_5 Lu2_1 3.183327 1_555
In0_5 Lu2_5 3.183327 1_555
In0_6 Ni0_6 2.881006 1_555
In0_6 Ni1_6 2.881006 1_555
In0_6 Ni2_6 2.881006 1_555
In0_6 Ni3_6 2.881006 1_555
In0_6 Lu1_6 3.183327 1_555
In0_6 Lu1_2 3.183327 1_555
In0_6 Lu3_6 3.183327 1_555
In0_6 Lu3_2 3.183327 1_555
In0_6 Lu2_2 3.183327 1_555
In0_6 Lu2_6 3.183327 1_555
In0_6 Lu0_6 3.183327 1_555
In0_6 Lu0_2 3.183327 1_555
In0_7 Ni2_7 2.881006 1_555
In0_7 Ni1_7 2.881006 1_555
In0_7 Ni0_7 2.881006 1_555
In0_7 Ni3_7 2.881006 1_555
In0_7 Lu3_7 3.183327 1_555
In0_7 Lu3_3 3.183327 1_555
In0_7 Lu1_7 3.183327 1_555
In0_7 Lu1_3 3.183327 1_555
In0_7 Lu0_3 3.183327 1_555
In0_7 Lu0_7 3.183327 1_555
In0_7 Lu2_3 3.183327 1_555
In0_7 Lu2_7 3.183327 1_555
In1_0 Ni2_3 2.881006 1_544
In1_0 Ni1_1 2.881006 1_554
In1_0 Ni3_0 2.881006 1_555
In1_0 Ni0_2 2.881006 1_545
In1_0 Lu0_5 3.183327 1_454
In1_0 Lu0_1 3.183327 1_554
In1_0 Lu3_3 3.183327 1_544
In1_0 Lu3_7 3.183327 1_444
In1_0 Lu2_0 3.183327 1_555
In1_0 Lu1_2 3.183327 1_545
In1_0 Lu2_4 3.183327 1_455
In1_0 Lu1_6 3.183327 1_445
In1_0 In1_4 3.442713 1_455
In1_0 In1_4 3.442713 1_555
In1_1 Ni2_2 2.881006 1_545
In1_1 Ni1_0 2.881006 1_555
In1_1 Ni0_3 2.881006 1_545
In1_1 Ni3_1 2.881006 1_555
In1_1 Lu3_2 3.183327 1_545
In1_1 Lu3_6 3.183327 1_445
In1_1 Lu1_7 3.183327 1_445
In1_1 Lu0_4 3.183327 1_455
In1_1 Lu1_3 3.183327 1_545
In1_1 Lu0_0 3.183327 1_555
In1_1 Lu2_5 3.183327 1_455
In1_1 Lu2_1 3.183327 1_555
In1_1 In1_5 3.442713 1_455
In1_1 In1_5 3.442713 1_555
In1_2 Ni1_3 2.881006 1_554
In1_2 Ni0_0 2.881006 1_555
In1_2 Ni3_2 2.881006 1_555
In1_2 Ni2_1 2.881006 1_554
In1_2 Lu3_1 3.183327 1_554
In1_2 Lu0_3 3.183327 1_554
In1_2 Lu3_5 3.183327 1_454
In1_2 Lu2_2 3.183327 1_555
In1_2 Lu0_7 3.183327 1_454
In1_2 Lu2_6 3.183327 1_455
In1_2 Lu1_0 3.183327 1_555
In1_2 Lu1_4 3.183327 1_455
In1_2 In1_6 3.442713 1_555
In1_2 In1_6 3.442713 1_455
In1_3 Ni2_0 2.881006 1_555
In1_3 Ni0_1 2.881006 1_555
In1_3 Ni3_3 2.881006 1_555
In1_3 Ni1_2 2.881006 1_555
In1_3 Lu2_7 3.183327 1_455
In1_3 Lu3_4 3.183327 1_455
In1_3 Lu0_6 3.183327 1_455
In1_3 Lu3_0 3.183327 1_555
In1_3 Lu0_2 3.183327 1_555
In1_3 Lu1_1 3.183327 1_555
In1_3 Lu1_5 3.183327 1_455
In1_3 Lu2_3 3.183327 1_555
In1_3 In1_7 3.442713 1_555
In1_3 In1_7 3.442713 1_455
In1_4 Ni2_7 2.881006 1_544
In1_4 Ni1_5 2.881006 1_554
In1_4 Ni0_6 2.881006 1_545
In1_4 Ni3_4 2.881006 1_555
In1_4 Lu0_1 3.183327 1_554
In1_4 Lu3_3 3.183327 1_544
In1_4 Lu3_7 3.183327 1_544
In1_4 Lu0_5 3.183327 1_554
In1_4 Lu2_0 3.183327 1_555
In1_4 Lu1_2 3.183327 1_545
In1_4 Lu2_4 3.183327 1_555
In1_4 Lu1_6 3.183327 1_545
In1_5 Ni2_6 2.881006 1_545
In1_5 Ni1_4 2.881006 1_555
In1_5 Ni0_7 2.881006 1_545
In1_5 Ni3_5 2.881006 1_555
In1_5 Lu3_2 3.183327 1_545
In1_5 Lu3_6 3.183327 1_545
In1_5 Lu1_3 3.183327 1_545
In1_5 Lu1_7 3.183327 1_545
In1_5 Lu0_0 3.183327 1_555
In1_5 Lu0_4 3.183327 1_555
In1_5 Lu2_5 3.183327 1_555
In1_5 Lu2_1 3.183327 1_555
In1_6 Ni1_7 2.881006 1_554
In1_6 Ni0_4 2.881006 1_555
In1_6 Ni2_5 2.881006 1_554
In1_6 Ni3_6 2.881006 1_555
In1_6 Lu3_1 3.183327 1_554
In1_6 Lu0_3 3.183327 1_554
In1_6 Lu2_2 3.183327 1_555
In1_6 Lu3_5 3.183327 1_554
In1_6 Lu0_7 3.183327 1_554
In1_6 Lu2_6 3.183327 1_555
In1_6 Lu1_0 3.183327 1_555
In1_6 Lu1_4 3.183327 1_555
In1_7 Ni2_4 2.881006 1_555
In1_7 Ni0_5 2.881006 1_555
In1_7 Ni1_6 2.881006 1_555
In1_7 Ni3_7 2.881006 1_555
In1_7 Lu0_6 3.183327 1_555
In1_7 Lu1_5 3.183327 1_555
In1_7 Lu2_7 3.183327 1_555
In1_7 Lu3_0 3.183327 1_555
In1_7 Lu0_2 3.183327 1_555
In1_7 Lu1_1 3.183327 1_555
In1_7 Lu2_3 3.183327 1_555
In1_7 Lu3_4 3.183327 1_555
Ni0_0 Ni1_1 2.466862 1_554
Ni0_1 Ni1_0 2.466862 1_555
Ni0_2 Ni1_3 2.466862 1_554
Ni0_3 Ni1_2 2.466862 1_555
Ni0_4 Ni1_5 2.466862 1_554
Ni0_5 Ni1_4 2.466862 1_555
Ni0_6 Ni1_7 2.466862 1_554
Ni0_7 Ni1_6 2.466862 1_555
Ni2_0 Ni3_2 2.466862 1_555
Ni2_1 Ni3_3 2.466862 1_555
Ni2_2 Ni3_0 2.466862 1_565
Ni2_3 Ni3_1 2.466862 1_565
Ni2_4 Ni3_6 2.466862 1_555
Ni2_5 Ni3_7 2.466862 1_555
Ni2_6 Ni3_4 2.466862 1_565
Ni2_7 Ni3_5 2.466862 1_565
