# generated using pymatgen
data_Ba2AuO4
_symmetry_space_group_name_H-M   'P 1'
_cell_length_a   7.59090300
_cell_length_b   7.59090300
_cell_length_c   7.01288828
_cell_angle_alpha   122.76610257
_cell_angle_beta   122.76610257
_cell_angle_gamma   90.00000000
_symmetry_Int_Tables_number   1
_chemical_formula_structural   Ba2AuO4
_chemical_formula_sum   'Ba4 Au2 O8'
_cell_volume   260.06341284
_cell_formula_units_Z   2
loop_
 _symmetry_equiv_pos_site_id
 _symmetry_equiv_pos_as_xyz
  1  'x, y, z'
loop_
 _atom_site_type_symbol
 _atom_site_label
 _atom_site_symmetry_multiplicity
 _atom_site_fract_x
 _atom_site_fract_y
 _atom_site_fract_z
 _atom_site_occupancy
  Ba  Ba0  1  0.62500000  0.87500000  0.25000000  1
  Ba  Ba1  1  0.62500000  0.37500000  0.25000000  1
  Ba  Ba2  1  0.62500000  0.37500000  0.75000000  1
  Ba  Ba3  1  0.12500000  0.37500000  0.75000000  1
  Au  Au0  1  0.00000000  0.00000000  0.00000000  1
  Au  Au1  1  0.25000000  0.75000000  0.50000000  1
  O  O0  1  0.32949500  0.06918500  0.13625700  1
  O  O1  1  0.80676200  0.06707300  0.13625700  1
  O  O2  1  0.31707300  0.07949500  0.63625700  1
  O  O3  1  0.92050500  0.68081500  0.36374300  1
  O  O4  1  0.31918500  0.55676200  0.63625700  1
  O  O5  1  0.44323800  0.68292700  0.36374300  1
  O  O6  1  0.93292700  0.67050500  0.86374300  1
  O  O7  1  0.93081500  0.19323800  0.86374300  1
loop_
_geom_bond_atom_site_label_1
_geom_bond_atom_site_label_2
_geom_bond_distance
_geom_bond_site_symmetry_2
Ba0 O1 2.667560 1_565
Ba0 O5 2.667560 1_555
Ba0 O3 2.678941 1_555
Ba0 O0 2.678941 1_565
Ba0 O7 2.771350 1_565
Ba0 O4 2.771350 1_554
Ba1 O3 2.667555 1_555
Ba1 O0 2.667555 1_555
Ba1 O1 2.678936 1_555
Ba1 O5 2.678936 1_555
Ba1 O6 2.771350 1_555
Ba1 O2 2.771350 1_554
Ba2 O7 2.667555 1_555
Ba2 O4 2.667555 1_555
Ba2 O2 2.678936 1_555
Ba2 O6 2.678936 1_555
Ba2 O3 2.771350 1_556
Ba2 O0 2.771350 1_555
Ba3 O6 2.667560 1_455
Ba3 O2 2.667560 1_555
Ba3 O7 2.678941 1_455
Ba3 O4 2.678941 1_555
Ba3 O5 2.771350 1_556
Ba3 O1 2.771350 1_455
Au0 O1 2.077146 1_455
Au0 O7 2.077146 1_454
Au0 O6 2.077146 1_444
Au0 O0 2.077146 1_555
Au1 O5 2.077146 1_555
Au1 O4 2.077146 1_555
Au1 O2 2.077146 1_565
Au1 O3 2.077146 1_455
