# generated using pymatgen
data_Li(CrS2)2
_symmetry_space_group_name_H-M   'P 1'
_cell_length_a   5.88885719
_cell_length_b   6.79398588
_cell_length_c   12.77021581
_cell_angle_alpha   90.00000000
_cell_angle_beta   90.00000000
_cell_angle_gamma   90.00000000
_symmetry_Int_Tables_number   1
_chemical_formula_structural   Li(CrS2)2
_chemical_formula_sum   'Li4 Cr8 S16'
_cell_volume   510.92117118
_cell_formula_units_Z   4
loop_
 _symmetry_equiv_pos_site_id
 _symmetry_equiv_pos_as_xyz
  1  'x, y, z'
loop_
 _atom_site_type_symbol
 _atom_site_label
 _atom_site_symmetry_multiplicity
 _atom_site_fract_x
 _atom_site_fract_y
 _atom_site_fract_z
 _atom_site_occupancy
  Li  Li0  1  0.33859759  -0.00000000  -0.00000000  1
  Li  Li1  1  0.66140241  0.50000000  0.50000000  1
  Li  Li2  1  0.01842431  -0.00000000  0.50000000  1
  Li  Li3  1  0.98157569  0.50000000  -0.00000000  1
  Cr  Cr0  1  0.99296441  -0.00000000  0.24733843  1
  Cr  Cr1  1  0.99296441  -0.00000000  0.75266157  1
  Cr  Cr2  1  0.00703559  0.50000000  0.25266157  1
  Cr  Cr3  1  0.00703559  0.50000000  0.74733843  1
  Cr  Cr4  1  0.50000000  0.25000000  0.25000000  1
  Cr  Cr5  1  0.50000000  0.75000000  0.75000000  1
  Cr  Cr6  1  0.50000000  0.75000000  0.25000000  1
  Cr  Cr7  1  0.50000000  0.25000000  0.75000000  1
  S  S0  1  0.83376068  0.25077870  0.35663104  1
  S  S1  1  0.83376068  0.74922130  0.64336896  1
  S  S2  1  0.16623932  0.75077870  0.14336896  1
  S  S3  1  0.16623932  0.24922130  0.85663104  1
  S  S4  1  0.16623932  0.24922130  0.14336896  1
  S  S5  1  0.16623932  0.75077870  0.85663104  1
  S  S6  1  0.83376068  0.74922130  0.35663104  1
  S  S7  1  0.83376068  0.25077870  0.64336896  1
  S  S8  1  0.66227051  -0.00000000  0.14306234  1
  S  S9  1  0.66227051  -0.00000000  0.85693766  1
  S  S10  1  0.33772949  0.50000000  0.35693766  1
  S  S11  1  0.33772949  0.50000000  0.64306234  1
  S  S12  1  0.32795081  -0.00000000  0.35353553  1
  S  S13  1  0.32795081  -0.00000000  0.64646447  1
  S  S14  1  0.67204919  0.50000000  0.14646447  1
  S  S15  1  0.67204919  0.50000000  0.85353553  1
loop_
_geom_bond_atom_site_label_1
_geom_bond_atom_site_label_2
_geom_bond_distance
_geom_bond_site_symmetry_2
Li0 S9 2.640223 1_554
Li0 S8 2.640223 1_555
Li0 S3 2.692430 1_554
Li0 S4 2.692430 1_555
Li0 S5 2.692430 1_544
Li0 S2 2.692430 1_545
Li1 S10 2.640223 1_555
Li1 S11 2.640223 1_555
Li1 S6 2.692430 1_555
Li1 S1 2.692430 1_555
Li1 S0 2.692430 1_555
Li1 S7 2.692430 1_555
Li2 S12 2.611662 1_555
Li2 S13 2.611662 1_555
Li2 S0 2.727174 1_455
Li2 S7 2.727174 1_455
Li2 S1 2.727174 1_445
Li2 S6 2.727174 1_445
Li3 S15 2.611662 1_554
Li3 S14 2.611662 1_555
Li3 S5 2.727174 1_654
Li3 S2 2.727174 1_655
Li3 S3 2.727174 1_654
Li3 S4 2.727174 1_655
Cr0 S8 2.359160 1_555
Cr0 S4 2.381379 1_655
Cr0 S2 2.381379 1_645
Cr0 S0 2.393700 1_555
Cr0 S6 2.393700 1_545
Cr0 S12 2.393881 1_655
Cr1 S9 2.359160 1_555
Cr1 S3 2.381379 1_655
Cr1 S5 2.381379 1_645
Cr1 S7 2.393700 1_555
Cr1 S1 2.393700 1_545
Cr1 S13 2.393881 1_655
Cr2 S10 2.359160 1_555
Cr2 S6 2.381379 1_455
Cr2 S0 2.381379 1_455
Cr2 S2 2.393700 1_555
Cr2 S4 2.393700 1_555
Cr2 S14 2.393881 1_455
Cr3 S11 2.359160 1_555
Cr3 S1 2.381379 1_455
Cr3 S7 2.381379 1_455
Cr3 S5 2.393700 1_555
Cr3 S3 2.393700 1_555
Cr3 S15 2.393881 1_455
Cr4 S14 2.378980 1_555
Cr4 S12 2.378980 1_555
Cr4 S8 2.379695 1_555
Cr4 S10 2.379695 1_555
Cr4 S4 2.391093 1_555
Cr4 S0 2.391093 1_555
Cr5 S13 2.378980 1_565
Cr5 S15 2.378980 1_555
Cr5 S11 2.379695 1_555
Cr5 S9 2.379695 1_565
Cr5 S1 2.391093 1_555
Cr5 S5 2.391093 1_555
Cr6 S14 2.378980 1_555
Cr6 S12 2.378980 1_565
Cr6 S8 2.379695 1_565
Cr6 S10 2.379695 1_555
Cr6 S6 2.391093 1_555
Cr6 S2 2.391093 1_555
Cr7 S13 2.378980 1_555
Cr7 S15 2.378980 1_555
Cr7 S11 2.379695 1_555
Cr7 S9 2.379695 1_555
Cr7 S3 2.391093 1_555
Cr7 S7 2.391093 1_555
