# generated using pymatgen
data_Li4FeS3
_symmetry_space_group_name_H-M   'P 1'
_cell_length_a   8.64959000
_cell_length_b   11.44485100
_cell_length_c   12.47485700
_cell_angle_alpha   90.00000000
_cell_angle_beta   90.00000000
_cell_angle_gamma   90.00000000
_symmetry_Int_Tables_number   1
_chemical_formula_structural   Li4FeS3
_chemical_formula_sum   'Li32 Fe8 S24'
_cell_volume   1234.92687176
_cell_formula_units_Z   8
loop_
 _symmetry_equiv_pos_site_id
 _symmetry_equiv_pos_as_xyz
  1  'x, y, z'
loop_
 _atom_site_type_symbol
 _atom_site_label
 _atom_site_symmetry_multiplicity
 _atom_site_fract_x
 _atom_site_fract_y
 _atom_site_fract_z
 _atom_site_occupancy
  Li  Li0  1  0.04417000  0.12487900  0.99178200  1
  Li  Li1  1  0.04417000  0.62487900  0.50821800  1
  Li  Li2  1  0.06416800  0.30223400  0.28808300  1
  Li  Li3  1  0.06416800  0.80223400  0.21191700  1
  Li  Li4  1  0.20838900  0.17632100  0.63983000  1
  Li  Li5  1  0.20838900  0.67632100  0.86017000  1
  Li  Li6  1  0.15720600  0.50596800  0.17727900  1
  Li  Li7  1  0.15720600  0.00596800  0.32272100  1
  Li  Li8  1  0.34279400  0.00596800  0.82272100  1
  Li  Li9  1  0.34279400  0.50596800  0.67727900  1
  Li  Li10  1  0.29161100  0.17632100  0.13983000  1
  Li  Li11  1  0.29161100  0.67632100  0.36017000  1
  Li  Li12  1  0.43583200  0.30223400  0.78808300  1
  Li  Li13  1  0.43583200  0.80223400  0.71191700  1
  Li  Li14  1  0.45583000  0.12487900  0.49178200  1
  Li  Li15  1  0.45583000  0.62487900  0.00821800  1
  Li  Li16  1  0.54417000  0.87512100  0.50821800  1
  Li  Li17  1  0.54417000  0.37512100  0.99178200  1
  Li  Li18  1  0.56416800  0.19776600  0.28808300  1
  Li  Li19  1  0.56416800  0.69776600  0.21191700  1
  Li  Li20  1  0.70838900  0.32367900  0.63983000  1
  Li  Li21  1  0.70838900  0.82367900  0.86017000  1
  Li  Li22  1  0.65720600  0.99403200  0.17727900  1
  Li  Li23  1  0.65720600  0.49403200  0.32272100  1
  Li  Li24  1  0.84279400  0.99403200  0.67727900  1
  Li  Li25  1  0.84279400  0.49403200  0.82272100  1
  Li  Li26  1  0.79161100  0.32367900  0.13983000  1
  Li  Li27  1  0.79161100  0.82367900  0.36017000  1
  Li  Li28  1  0.93583200  0.69776600  0.71191700  1
  Li  Li29  1  0.93583200  0.19776600  0.78808300  1
  Li  Li30  1  0.95583000  0.87512100  0.00821800  1
  Li  Li31  1  0.95583000  0.37512100  0.49178200  1
  Fe  Fe0  1  0.19705000  0.35095400  0.94087800  1
  Fe  Fe1  1  0.19705000  0.85095400  0.55912200  1
  Fe  Fe2  1  0.30295000  0.35095400  0.44087800  1
  Fe  Fe3  1  0.30295000  0.85095400  0.05912200  1
  Fe  Fe4  1  0.69705000  0.14904600  0.94087800  1
  Fe  Fe5  1  0.69705000  0.64904600  0.55912200  1
  Fe  Fe6  1  0.80295000  0.64904600  0.05912200  1
  Fe  Fe7  1  0.80295000  0.14904600  0.44087800  1
  S  S0  1  0.07407600  0.32226800  0.09505500  1
  S  S1  1  0.07407600  0.82226800  0.40494500  1
  S  S2  1  0.20857900  0.18897500  0.84047500  1
  S  S3  1  0.20857900  0.68897500  0.65952500  1
  S  S4  1  0.14717900  0.98861500  0.12277500  1
  S  S5  1  0.14717900  0.48861500  0.37722500  1
  S  S6  1  0.35282100  0.98861500  0.62277500  1
  S  S7  1  0.35282100  0.48861500  0.87722500  1
  S  S8  1  0.29142100  0.68897500  0.15952500  1
  S  S9  1  0.29142100  0.18897500  0.34047500  1
  S  S10  1  0.42592400  0.32226800  0.59505500  1
  S  S11  1  0.42592400  0.82226800  0.90494500  1
  S  S12  1  0.57407600  0.17773200  0.09505500  1
  S  S13  1  0.57407600  0.67773200  0.40494500  1
  S  S14  1  0.70857900  0.31102500  0.84047500  1
  S  S15  1  0.70857900  0.81102500  0.65952500  1
  S  S16  1  0.64717900  0.01138500  0.37722500  1
  S  S17  1  0.64717900  0.51138500  0.12277500  1
  S  S18  1  0.85282100  0.01138500  0.87722500  1
  S  S19  1  0.85282100  0.51138500  0.62277500  1
  S  S20  1  0.79142100  0.81102500  0.15952500  1
  S  S21  1  0.79142100  0.31102500  0.34047500  1
  S  S22  1  0.92592400  0.67773200  0.90494500  1
  S  S23  1  0.92592400  0.17773200  0.59505500  1
loop_
_geom_bond_atom_site_label_1
_geom_bond_atom_site_label_2
_geom_bond_distance
_geom_bond_site_symmetry_2
Li0 S4 2.428231 1_546
Li0 S2 2.474508 1_555
Li0 S18 2.543383 1_455
Li0 S0 2.613455 1_556
Li1 S5 2.428231 1_555
Li1 S3 2.474508 1_555
Li1 S19 2.543383 1_455
Li1 S1 2.613455 1_555
Li2 S0 2.420406 1_555
Li2 S9 2.443594 1_555
Li2 S21 2.450078 1_455
Li2 S5 2.510435 1_555
Li3 S1 2.420406 1_555
Li3 S8 2.443594 1_555
Li3 S20 2.450078 1_455
Li3 S4 2.510435 1_555
Li4 S6 2.494196 1_545
Li4 S23 2.506294 1_455
Li4 S2 2.507204 1_555
Li4 S10 2.577287 1_555
Li5 S7 2.494196 1_555
Li5 S22 2.506294 1_455
Li5 S3 2.507204 1_555
Li5 S11 2.577287 1_555
Li6 S8 2.404918 1_555
Li6 S0 2.447307 1_555
Li6 S5 2.503695 1_555
Li7 S9 2.404918 1_555
Li7 S1 2.447307 1_545
Li7 S4 2.503695 1_545
Li8 S2 2.404918 1_555
Li8 S11 2.447307 1_545
Li8 S6 2.503695 1_545
Li9 S3 2.404918 1_555
Li9 S10 2.447307 1_555
Li9 S7 2.503695 1_555
Li10 S4 2.494196 1_545
Li10 S12 2.506294 1_555
Li10 S9 2.507204 1_555
Li10 S0 2.577287 1_555
Li11 S5 2.494196 1_555
Li11 S13 2.506294 1_555
Li11 S8 2.507204 1_555
Li11 S1 2.577287 1_555
Li12 S10 2.420406 1_555
Li12 S2 2.443594 1_555
Li12 S14 2.450078 1_555
Li12 S7 2.510435 1_555
Li13 S11 2.420406 1_555
Li13 S3 2.443594 1_555
Li13 S15 2.450078 1_555
Li13 S6 2.510435 1_555
Li14 S6 2.428231 1_545
Li14 S9 2.474508 1_555
Li14 S16 2.543383 1_555
Li14 S10 2.613455 1_555
Li15 S7 2.428231 1_554
Li15 S8 2.474508 1_555
Li15 S17 2.543383 1_555
Li15 S11 2.613455 1_554
Li16 S16 2.428231 1_565
Li16 S15 2.474508 1_555
Li16 S6 2.543383 1_555
Li16 S13 2.613455 1_555
Li17 S17 2.428231 1_556
Li17 S14 2.474508 1_555
Li17 S7 2.543383 1_555
Li17 S12 2.613455 1_556
Li18 S12 2.420406 1_555
Li18 S21 2.443594 1_555
Li18 S9 2.450078 1_555
Li18 S16 2.510435 1_555
Li19 S13 2.420406 1_555
Li19 S20 2.443594 1_555
Li19 S8 2.450078 1_555
Li19 S17 2.510435 1_555
Li20 S19 2.494196 1_555
Li20 S10 2.506294 1_555
Li20 S14 2.507204 1_555
Li20 S23 2.577287 1_555
Li21 S18 2.494196 1_565
Li21 S11 2.506294 1_555
Li21 S15 2.507204 1_555
Li21 S22 2.577287 1_555
Li22 S20 2.404918 1_555
Li22 S12 2.447307 1_565
Li22 S16 2.503695 1_565
Li23 S21 2.404918 1_555
Li23 S13 2.447307 1_555
Li23 S17 2.503695 1_555
Li24 S15 2.404918 1_555
Li24 S23 2.447307 1_565
Li24 S18 2.503695 1_565
Li25 S14 2.404918 1_555
Li25 S22 2.447307 1_555
Li25 S19 2.503695 1_555
Li26 S17 2.494196 1_555
Li26 S0 2.506294 1_655
Li26 S21 2.507204 1_555
Li26 S12 2.577287 1_555
Li27 S16 2.494196 1_565
Li27 S1 2.506294 1_655
Li27 S20 2.507204 1_555
Li27 S13 2.577287 1_555
Li28 S22 2.420406 1_555
Li28 S15 2.443594 1_555
Li28 S3 2.450078 1_655
Li28 S19 2.510435 1_555
Li29 S23 2.420406 1_555
Li29 S14 2.443594 1_555
Li29 S2 2.450078 1_655
Li29 S18 2.510435 1_555
Li30 S18 2.428231 1_564
Li30 S20 2.474508 1_555
Li30 S4 2.543383 1_655
Li30 S22 2.613455 1_554
Li31 S19 2.428231 1_555
Li31 S21 2.474508 1_555
Li31 S5 2.543383 1_655
Li31 S23 2.613455 1_555
Fe0 S7 2.219940 1_555
Fe0 S0 2.222254 1_556
Fe0 S2 2.239509 1_555
Fe1 S6 2.219940 1_555
Fe1 S1 2.222254 1_555
Fe1 S3 2.239509 1_555
Fe2 S5 2.219940 1_555
Fe2 S10 2.222254 1_555
Fe2 S9 2.239509 1_555
Fe3 S4 2.219940 1_555
Fe3 S11 2.222254 1_554
Fe3 S8 2.239509 1_555
Fe4 S18 2.219940 1_555
Fe4 S12 2.222254 1_556
Fe4 S14 2.239509 1_555
Fe5 S19 2.219940 1_555
Fe5 S13 2.222254 1_555
Fe5 S15 2.239509 1_555
Fe6 S17 2.219940 1_555
Fe6 S22 2.222254 1_554
Fe6 S20 2.239509 1_555
Fe7 S16 2.219940 1_555
Fe7 S23 2.222254 1_555
Fe7 S21 2.239509 1_555
