# generated using pymatgen
data_Cs(Nb3Te4)2
_symmetry_space_group_name_H-M   'P 1'
_cell_length_a   3.70550400
_cell_length_b   10.99952000
_cell_length_c   10.99810727
_cell_angle_alpha   59.99832471
_cell_angle_beta   90.00099939
_cell_angle_gamma   90.00016618
_symmetry_Int_Tables_number   1
_chemical_formula_structural   Cs(Nb3Te4)2
_chemical_formula_sum   'Cs1 Nb6 Te8'
_cell_volume   388.20602487
_cell_formula_units_Z   1
loop_
 _symmetry_equiv_pos_site_id
 _symmetry_equiv_pos_as_xyz
  1  'x, y, z'
loop_
 _atom_site_type_symbol
 _atom_site_label
 _atom_site_symmetry_multiplicity
 _atom_site_fract_x
 _atom_site_fract_y
 _atom_site_fract_z
 _atom_site_occupancy
  Cs  Cs0  1  0.50000000  0.00000000  0.00000000  1
  Nb  Nb0  1  0.74787300  0.38786600  0.51150600  1
  Nb  Nb1  1  0.74788200  0.10066100  0.38781700  1
  Nb  Nb2  1  0.74785900  0.51149300  0.10065700  1
  Nb  Nb3  1  0.25212700  0.61213400  0.48849400  1
  Nb  Nb4  1  0.25211800  0.89933900  0.61218300  1
  Nb  Nb5  1  0.25214100  0.48850700  0.89934300  1
  Te  Te0  1  0.75492100  0.06546200  0.65578300  1
  Te  Te1  1  0.75494200  0.27873600  0.06546700  1
  Te  Te2  1  0.75491200  0.65581500  0.27871900  1
  Te  Te3  1  0.24507900  0.93453800  0.34421700  1
  Te  Te4  1  0.24505800  0.72126400  0.93453300  1
  Te  Te5  1  0.24508800  0.34418500  0.72128100  1
  Te  Te6  1  0.75073800  0.66667100  0.66666700  1
  Te  Te7  1  0.24926200  0.33332900  0.33333300  1
loop_
_geom_bond_atom_site_label_1
_geom_bond_atom_site_label_2
_geom_bond_distance
_geom_bond_site_symmetry_2
Cs0 Te2 3.607741 1_545
Cs0 Te5 3.607741 1_554
Cs0 Te3 3.607855 1_545
Cs0 Te0 3.607855 1_554
Cs0 Te1 3.608127 1_555
Cs0 Te4 3.608127 1_544
Nb0 Te2 2.774147 1_555
Nb0 Te5 2.799918 1_655
Nb0 Te5 2.813594 1_555
Nb0 Te7 2.964596 1_555
Nb0 Te7 2.971068 1_655
Nb0 Te0 3.076891 1_555
Nb1 Te0 2.773984 1_555
Nb1 Te3 2.799907 1_645
Nb1 Te3 2.813601 1_545
Nb1 Te7 2.964606 1_555
Nb1 Te7 2.970994 1_655
Nb1 Te1 3.075958 1_555
Nb2 Te1 2.774183 1_555
Nb2 Te4 2.800113 1_654
Nb2 Te4 2.813781 1_554
Nb2 Te7 2.964353 1_555
Nb2 Te7 2.970796 1_655
Nb2 Te2 3.076498 1_555
Nb3 Te5 2.774147 1_555
Nb3 Te2 2.799918 1_455
Nb3 Te2 2.813594 1_555
Nb3 Te6 2.964596 1_555
Nb3 Te6 2.971068 1_455
Nb3 Te3 3.076891 1_555
Nb4 Te3 2.773984 1_555
Nb4 Te0 2.799907 1_465
Nb4 Te0 2.813601 1_565
Nb4 Te6 2.964606 1_555
Nb4 Te6 2.970994 1_455
Nb4 Te4 3.075958 1_555
Nb5 Te4 2.774183 1_555
Nb5 Te1 2.800113 1_456
Nb5 Te1 2.813781 1_556
Nb5 Te6 2.964353 1_555
Nb5 Te6 2.970796 1_455
Nb5 Te5 3.076498 1_555
