# generated using pymatgen
data_Pr3Sn5
_symmetry_space_group_name_H-M   'P 1'
_cell_length_a   6.62070209
_cell_length_b   6.62070209
_cell_length_c   10.64965690
_cell_angle_alpha   89.98640747
_cell_angle_beta   89.98640747
_cell_angle_gamma   102.95258327
_symmetry_Int_Tables_number   1
_chemical_formula_structural   Pr3Sn5
_chemical_formula_sum   'Pr6 Sn10'
_cell_volume   454.93613204
_cell_formula_units_Z   2
loop_
 _symmetry_equiv_pos_site_id
 _symmetry_equiv_pos_as_xyz
  1  'x, y, z'
loop_
 _atom_site_type_symbol
 _atom_site_label
 _atom_site_symmetry_multiplicity
 _atom_site_fract_x
 _atom_site_fract_y
 _atom_site_fract_z
 _atom_site_occupancy
  Pr  Pr0  1  0.63665390  0.63665390  0.24991483  1
  Pr  Pr1  1  0.36332993  0.36332993  0.75007992  1
  Pr  Pr2  1  0.20071454  0.79927685  0.50000171  1
  Pr  Pr3  1  0.20078211  0.79921565  0.99999968  1
  Pr  Pr4  1  0.79927685  0.20071454  0.50000171  1
  Pr  Pr5  1  0.79921565  0.20078211  0.99999968  1
  Sn  Sn0  1  0.02725806  0.02725806  0.25010096  1
  Sn  Sn1  1  0.97275660  0.97275660  0.74989890  1
  Sn  Sn2  1  0.32260932  0.32260932  0.04874381  1
  Sn  Sn3  1  0.67738210  0.67738210  0.95123145  1
  Sn  Sn4  1  0.32278487  0.32278487  0.45137293  1
  Sn  Sn5  1  0.67721341  0.67721341  0.54865379  1
  Sn  Sn6  1  0.49365364  0.07245218  0.25011152  1
  Sn  Sn7  1  0.92757478  0.50634107  0.74988779  1
  Sn  Sn8  1  0.50634107  0.92757478  0.74988779  1
  Sn  Sn9  1  0.07245218  0.49365364  0.25011152  1
loop_
_geom_bond_atom_site_label_1
_geom_bond_atom_site_label_2
_geom_bond_distance
_geom_bond_site_symmetry_2
Pr0 Sn3 3.198434 1_554
Pr0 Sn5 3.199131 1_555
Pr0 Sn0 3.221414 1_665
Pr0 Sn6 3.232004 1_565
Pr0 Sn9 3.232004 1_655
Pr0 Sn4 3.361458 1_555
Pr0 Sn2 3.361881 1_555
Pr0 Sn9 3.642013 1_555
Pr0 Sn6 3.642013 1_555
Pr1 Sn2 3.198221 1_556
Pr1 Sn4 3.198780 1_555
Pr1 Sn1 3.221159 1_445
Pr1 Sn7 3.231766 1_455
Pr1 Sn8 3.231766 1_545
Pr1 Sn5 3.361332 1_555
Pr1 Sn3 3.361797 1_555
Pr1 Sn8 3.642292 1_555
Pr1 Sn7 3.642292 1_555
Pr2 Sn9 3.336314 1_555
Pr2 Sn8 3.336320 1_555
Pr2 Sn1 3.384708 1_455
Pr2 Sn0 3.384750 1_565
Pr2 Sn5 3.417254 1_455
Pr2 Sn4 3.417261 1_565
Pr2 Sn4 3.466571 1_555
Pr2 Sn5 3.466632 1_555
Pr2 Sn7 3.540714 1_455
Pr2 Sn6 3.540848 1_565
Pr3 Sn9 3.336941 1_556
Pr3 Sn8 3.336953 1_555
Pr3 Sn1 3.386959 1_455
Pr3 Sn0 3.386972 1_566
Pr3 Sn2 3.417013 1_566
Pr3 Sn3 3.417093 1_455
Pr3 Sn2 3.466614 1_556
Pr3 Sn3 3.466630 1_555
Pr3 Sn7 3.543856 1_455
Pr3 Sn6 3.543922 1_566
Pr4 Sn6 3.336314 1_555
Pr4 Sn7 3.336320 1_555
Pr4 Sn1 3.384708 1_545
Pr4 Sn0 3.384750 1_655
Pr4 Sn5 3.417254 1_545
Pr4 Sn4 3.417261 1_655
Pr4 Sn4 3.466571 1_555
Pr4 Sn5 3.466632 1_555
Pr4 Sn8 3.540714 1_545
Pr4 Sn9 3.540848 1_655
Pr5 Sn6 3.336941 1_556
Pr5 Sn7 3.336953 1_555
Pr5 Sn1 3.386959 1_545
Pr5 Sn0 3.386972 1_656
Pr5 Sn2 3.417013 1_656
Pr5 Sn3 3.417093 1_545
Pr5 Sn2 3.466614 1_556
Pr5 Sn3 3.466630 1_555
Pr5 Sn8 3.543856 1_545
Pr5 Sn9 3.543922 1_656
Sn0 Sn9 3.034840 1_555
Sn0 Sn6 3.034840 1_555
Sn0 Sn2 3.244643 1_555
Sn0 Sn4 3.246357 1_555
Sn1 Sn7 3.034982 1_555
Sn1 Sn8 3.034982 1_555
Sn1 Sn3 3.244614 1_555
Sn1 Sn5 3.246269 1_555
Sn2 Sn9 3.076456 1_555
Sn2 Sn6 3.076456 1_555
Sn2 Sn3 3.104354 1_554
Sn3 Sn7 3.076413 1_555
Sn3 Sn8 3.076413 1_555
Sn4 Sn9 3.075995 1_555
Sn4 Sn6 3.075995 1_555
Sn4 Sn5 3.101599 1_555
Sn5 Sn7 3.075921 1_555
Sn5 Sn8 3.075921 1_555
