# generated using pymatgen
data_LiCaGaF6
_symmetry_space_group_name_H-M   'P 1'
_cell_length_a   5.17020536
_cell_length_b   5.17020536
_cell_length_c   9.87808500
_cell_angle_alpha   90.00000000
_cell_angle_beta   90.00000000
_cell_angle_gamma   119.99999181
_symmetry_Int_Tables_number   1
_chemical_formula_structural   LiCaGaF6
_chemical_formula_sum   'Li2 Ca2 Ga2 F12'
_cell_volume   228.67517157
_cell_formula_units_Z   2
loop_
 _symmetry_equiv_pos_site_id
 _symmetry_equiv_pos_as_xyz
  1  'x, y, z'
loop_
 _atom_site_type_symbol
 _atom_site_label
 _atom_site_symmetry_multiplicity
 _atom_site_fract_x
 _atom_site_fract_y
 _atom_site_fract_z
 _atom_site_occupancy
  Li  Li0  1  0.33333300  0.66666700  0.25000000  1
  Li  Li1  1  0.66666700  0.33333300  0.75000000  1
  Ca  Ca0  1  0.00000000  0.00000000  0.00000000  1
  Ca  Ca1  1  0.00000000  0.00000000  0.50000000  1
  Ga  Ga0  1  0.66666700  0.33333300  0.25000000  1
  Ga  Ga1  1  0.33333300  0.66666700  0.75000000  1
  F  F0  1  0.98090900  0.34703800  0.14028600  1
  F  F1  1  0.01909100  0.36612900  0.64028600  1
  F  F2  1  0.63387100  0.65296200  0.64028600  1
  F  F3  1  0.34703800  0.98090900  0.64028600  1
  F  F4  1  0.65296200  0.01909100  0.35971400  1
  F  F5  1  0.65296200  0.63387100  0.14028600  1
  F  F6  1  0.36612900  0.01909100  0.14028600  1
  F  F7  1  0.36612900  0.34703800  0.35971400  1
  F  F8  1  0.34703800  0.36612900  0.85971400  1
  F  F9  1  0.98090900  0.63387100  0.35971400  1
  F  F10  1  0.01909100  0.65296200  0.85971400  1
  F  F11  1  0.63387100  0.98090900  0.85971400  1
loop_
_geom_bond_atom_site_label_1
_geom_bond_atom_site_label_2
_geom_bond_distance
_geom_bond_site_symmetry_2
Ca0 F0 2.307927 1_455
Ca0 F10 2.307927 1_544
Ca0 F6 2.307927 1_555
Ca0 F11 2.307927 1_444
Ca0 F5 2.307927 1_445
Ca0 F8 2.307927 1_554
Ca1 F4 2.307927 1_455
Ca1 F3 2.307927 1_545
Ca1 F1 2.307927 1_555
Ca1 F9 2.307927 1_445
Ca1 F2 2.307927 1_445
Ca1 F7 2.307927 1_555
F0 Ga0 1.924599 1_555
F0 Li0 2.052903 1_655
F1 Ga1 1.924601 1_555
F1 Li1 2.052901 1_455
F2 Ga1 1.924603 1_555
F2 Li1 2.052905 1_555
F3 Ga1 1.924599 1_555
F3 Li1 2.052903 1_565
F4 Ga0 1.924599 1_555
F4 Li0 2.052903 1_545
F5 Ga0 1.924603 1_555
F5 Li0 2.052905 1_555
F6 Ga0 1.924601 1_555
F6 Li0 2.052901 1_545
F7 Ga0 1.924603 1_555
F7 Li0 2.052905 1_555
F8 Ga1 1.924603 1_555
F8 Li1 2.052905 1_555
F9 Ga0 1.924601 1_555
F9 Li0 2.052901 1_655
F10 Ga1 1.924599 1_555
F10 Li1 2.052903 1_455
F11 Ga1 1.924601 1_555
F11 Li1 2.052901 1_565
