# generated using pymatgen
data_NaZnSiO4
_symmetry_space_group_name_H-M   'P 1'
_cell_length_a   5.18823800
_cell_length_b   7.52905800
_cell_length_c   9.59657000
_cell_angle_alpha   90.00000000
_cell_angle_beta   90.00000000
_cell_angle_gamma   90.00000000
_symmetry_Int_Tables_number   1
_chemical_formula_structural   NaZnSiO4
_chemical_formula_sum   'Na4 Zn4 Si4 O16'
_cell_volume   374.86644574
_cell_formula_units_Z   4
loop_
 _symmetry_equiv_pos_site_id
 _symmetry_equiv_pos_as_xyz
  1  'x, y, z'
loop_
 _atom_site_type_symbol
 _atom_site_label
 _atom_site_symmetry_multiplicity
 _atom_site_fract_x
 _atom_site_fract_y
 _atom_site_fract_z
 _atom_site_occupancy
  Na  Na0  1  0.02402700  0.21107100  0.34469100  1
  Na  Na1  1  0.52402700  0.28892900  0.65530900  1
  Na  Na2  1  0.97597300  0.71107100  0.15530900  1
  Na  Na3  1  0.47597300  0.78892900  0.84469100  1
  Zn  Zn0  1  0.47813800  0.89953800  0.49148300  1
  Zn  Zn1  1  0.97813800  0.60046200  0.50851700  1
  Zn  Zn2  1  0.52186200  0.39953800  0.00851700  1
  Zn  Zn3  1  0.02186200  0.10046200  0.99148300  1
  Si  Si0  1  0.51216700  0.01429600  0.16176300  1
  Si  Si1  1  0.01216700  0.48570400  0.83823700  1
  Si  Si2  1  0.48783300  0.51429600  0.33823700  1
  Si  Si3  1  0.98783300  0.98570400  0.66176300  1
  O  O0  1  0.82527800  0.02192700  0.15335000  1
  O  O1  1  0.32527800  0.47807300  0.84665000  1
  O  O2  1  0.17472200  0.52192700  0.34665000  1
  O  O3  1  0.67472200  0.97807300  0.65335000  1
  O  O4  1  0.41163900  0.03625000  0.32437600  1
  O  O5  1  0.91163900  0.46375000  0.67562400  1
  O  O6  1  0.58836100  0.53625000  0.17562400  1
  O  O7  1  0.08836100  0.96375000  0.82437600  1
  O  O8  1  0.63217400  0.67049100  0.43116400  1
  O  O9  1  0.13217400  0.82950900  0.56883600  1
  O  O10  1  0.36782600  0.17049100  0.06883600  1
  O  O11  1  0.86782600  0.32950900  0.93116400  1
  O  O12  1  0.61511200  0.33091100  0.40333500  1
  O  O13  1  0.11511200  0.16908900  0.59666500  1
  O  O14  1  0.38488800  0.83091100  0.09666500  1
  O  O15  1  0.88488800  0.66908900  0.90333500  1
loop_
_geom_bond_atom_site_label_1
_geom_bond_atom_site_label_2
_geom_bond_distance
_geom_bond_site_symmetry_2
Na0 O12 2.373142 1_455
Na0 O4 2.411370 1_555
Na0 O2 2.467661 1_555
Na0 O13 2.484024 1_555
Na0 O0 2.542238 1_455
Na1 O13 2.373142 1_555
Na1 O5 2.411370 1_555
Na1 O3 2.467661 1_545
Na1 O12 2.484024 1_555
Na1 O1 2.542238 1_555
Na2 O14 2.373142 1_655
Na2 O6 2.411370 1_555
Na2 O0 2.467661 1_565
Na2 O15 2.484024 1_554
Na2 O2 2.542238 1_655
Na3 O15 2.373142 1_555
Na3 O7 2.411370 1_555
Na3 O1 2.467661 1_555
Na3 O14 2.484024 1_556
Na3 O3 2.542238 1_555
O0 Si0 1.627514 1_555
O0 Zn3 1.950084 1_654
O1 Si1 1.627514 1_555
O1 Zn2 1.950084 1_556
O2 Si2 1.627514 1_555
O2 Zn1 1.950084 1_455
O3 Si3 1.627514 1_555
O3 Zn0 1.950084 1_555
O4 Si0 1.653661 1_555
O4 Zn0 1.936550 1_545
O5 Si1 1.653661 1_655
O5 Zn1 1.936550 1_555
O6 Si2 1.653661 1_555
O6 Zn2 1.936550 1_555
O7 Si3 1.653661 1_455
O7 Zn3 1.936550 1_565
O8 Si2 1.655012 1_555
O8 Zn0 1.986878 1_555
O8 Zn1 2.012675 1_555
O9 Si3 1.655012 1_455
O9 Zn1 1.986878 1_455
O9 Zn0 2.012675 1_555
O10 Si0 1.655012 1_555
O10 Zn2 1.986878 1_555
O10 Zn3 2.012675 1_554
O11 Si1 1.655012 1_655
O11 Zn3 1.986878 1_655
O11 Zn2 2.012675 1_556
O12 Si2 1.653093 1_555
O13 Si3 1.653093 1_445
O14 Si0 1.653093 1_565
O15 Si1 1.653093 1_655
