# generated using pymatgen
data_Li3Mn4O8
_symmetry_space_group_name_H-M   'P 1'
_cell_length_a   5.31428106
_cell_length_b   6.07952873
_cell_length_c   5.74651462
_cell_angle_alpha   117.73609058
_cell_angle_beta   90.09086177
_cell_angle_gamma   110.28681232
_symmetry_Int_Tables_number   1
_chemical_formula_structural   Li3Mn4O8
_chemical_formula_sum   'Li3 Mn4 O8'
_cell_volume   151.13637344
_cell_formula_units_Z   1
loop_
 _symmetry_equiv_pos_site_id
 _symmetry_equiv_pos_as_xyz
  1  'x, y, z'
loop_
 _atom_site_type_symbol
 _atom_site_label
 _atom_site_symmetry_multiplicity
 _atom_site_fract_x
 _atom_site_fract_y
 _atom_site_fract_z
 _atom_site_occupancy
  Li  Li0  1  0.51331500  0.49220900  0.24634000  1
  Li  Li1  1  0.49855600  0.99877500  0.75153900  1
  Li  Li2  1  0.49874300  0.99891300  0.24715900  1
  Mn  Mn0  1  0.00853800  0.00625600  0.50320000  1
  Mn  Mn1  1  0.00035200  0.50047300  0.99805000  1
  Mn  Mn2  1  0.98852100  0.99238200  0.99609700  1
  Mn  Mn3  1  0.00124200  0.50048200  0.50224200  1
  O  O0  1  0.77047000  0.28298000  0.14123600  1
  O  O1  1  0.80291400  0.23960800  0.61903900  1
  O  O2  1  0.20958900  0.75845500  0.38005800  1
  O  O3  1  0.21329600  0.72659100  0.86375600  1
  O  O4  1  0.77093300  0.78498200  0.62910700  1
  O  O5  1  0.77257000  0.78508000  0.15711000  1
  O  O6  1  0.22471400  0.21605000  0.86398900  1
  O  O7  1  0.22626300  0.21677200  0.35107200  1
loop_
_geom_bond_atom_site_label_1
_geom_bond_atom_site_label_2
_geom_bond_distance
_geom_bond_site_symmetry_2
Li0 O0 2.084065 1_555
Li0 O5 2.117151 1_555
Li0 O4 2.130044 1_555
Li0 O7 2.159387 1_555
Li0 O6 2.183748 1_554
Li0 O2 2.544343 1_555
Li1 O2 2.140230 1_555
Li1 O3 2.170017 1_555
Li1 O4 2.176299 1_555
Li1 O1 2.176926 1_565
Li1 O0 2.178360 1_566
Li1 O6 2.195843 1_565
Li2 O2 2.137000 1_555
Li2 O0 2.165678 1_565
Li2 O3 2.179213 1_554
Li2 O1 2.181537 1_565
Li2 O5 2.182526 1_555
Li2 O7 2.191836 1_565
Mn0 O4 1.912730 1_445
Mn0 O5 1.915618 1_445
Mn0 O7 1.938748 1_555
Mn0 O6 1.939085 1_555
Mn0 O1 1.961663 1_455
Mn0 O2 2.009522 1_545
Mn1 O3 1.917662 1_555
Mn1 O0 1.952837 1_456
Mn1 O1 1.995864 1_455
Mn1 O2 2.023232 1_556
Mn1 O6 2.279861 1_555
Mn1 O5 2.297487 1_456
Mn2 O6 1.944533 1_665
Mn2 O7 1.955703 1_666
Mn2 O5 1.961462 1_556
Mn2 O4 1.969919 1_555
Mn2 O3 2.194045 1_655
Mn2 O0 2.282715 1_566
Mn3 O3 1.932769 1_555
Mn3 O0 1.967297 1_455
Mn3 O1 1.977527 1_455
Mn3 O2 2.000485 1_555
Mn3 O7 2.280035 1_555
Mn3 O4 2.306121 1_455
