# generated using pymatgen
data_ZrMnGa
_symmetry_space_group_name_H-M   'P 1'
_cell_length_a   5.09068644
_cell_length_b   5.09068644
_cell_length_c   8.46099100
_cell_angle_alpha   90.00000000
_cell_angle_beta   90.00000000
_cell_angle_gamma   119.36346859
_symmetry_Int_Tables_number   1
_chemical_formula_structural   ZrMnGa
_chemical_formula_sum   'Zr4 Mn4 Ga4'
_cell_volume   191.09731707
_cell_formula_units_Z   4
loop_
 _symmetry_equiv_pos_site_id
 _symmetry_equiv_pos_as_xyz
  1  'x, y, z'
loop_
 _atom_site_type_symbol
 _atom_site_label
 _atom_site_symmetry_multiplicity
 _atom_site_fract_x
 _atom_site_fract_y
 _atom_site_fract_z
 _atom_site_occupancy
  Zr  Zr0  1  0.33458700  0.66541300  0.19217500  1
  Zr  Zr1  1  0.67041100  0.32958900  0.32378300  1
  Zr  Zr2  1  0.67041100  0.32958900  0.67621700  1
  Zr  Zr3  1  0.33458700  0.66541300  0.80782500  1
  Mn  Mn0  1  0.83526400  0.16473600  0.00000000  1
  Mn  Mn1  1  0.18510800  0.37507000  0.50000000  1
  Mn  Mn2  1  0.62493000  0.81489200  0.50000000  1
  Mn  Mn3  1  0.17531200  0.82468800  0.50000000  1
  Ga  Ga0  1  0.99455100  0.00544900  0.26733400  1
  Ga  Ga1  1  0.99455100  0.00544900  0.73266600  1
  Ga  Ga2  1  0.83298900  0.65415800  0.00000000  1
  Ga  Ga3  1  0.34584200  0.16701100  0.00000000  1
loop_
_geom_bond_atom_site_label_1
_geom_bond_atom_site_label_2
_geom_bond_distance
_geom_bond_site_symmetry_2
Zr0 Zr1 3.150530 1_565
Zr0 Zr1 3.150530 1_455
Zr0 Zr1 3.154596 1_555
Zr0 Zr3 3.251982 1_554
Zr1 Zr2 2.981941 1_555
Zr2 Zr3 3.150530 1_655
Zr2 Zr3 3.150530 1_545
Zr2 Zr3 3.154596 1_555
Mn0 Zr3 3.041006 1_544
Mn0 Zr3 3.041006 1_654
Mn0 Zr0 3.041006 1_545
Mn0 Zr0 3.041006 1_655
Mn0 Zr1 3.099072 1_555
Mn0 Zr2 3.099072 1_554
Mn1 Mn2 2.260503 1_555
Mn1 Mn3 2.313725 1_555
Mn1 Mn3 2.777709 1_545
Mn1 Mn2 2.879083 1_445
Mn1 Zr3 2.905873 1_555
Mn1 Zr0 2.905873 1_555
Mn1 Zr2 2.923510 1_455
Mn1 Zr1 2.923510 1_455
Mn1 Zr2 2.990159 1_555
Mn1 Zr1 2.990159 1_555
Mn2 Mn3 2.313725 1_555
Mn2 Mn3 2.777709 1_655
Mn2 Zr3 2.905873 1_555
Mn2 Zr0 2.905873 1_555
Mn2 Zr2 2.923510 1_565
Mn2 Zr1 2.923510 1_565
Mn2 Zr2 2.990159 1_555
Mn2 Zr1 2.990159 1_555
Mn3 Zr3 2.956863 1_555
Mn3 Zr0 2.956863 1_555
Mn3 Zr2 2.971310 1_565
Mn3 Zr2 2.971310 1_455
Mn3 Zr1 2.971310 1_565
Mn3 Zr1 2.971310 1_455
Ga0 Mn3 2.529678 1_645
Ga0 Mn1 2.562577 1_655
Ga0 Mn2 2.562577 1_545
Ga0 Mn0 2.660099 1_555
Ga0 Ga2 2.747420 1_545
Ga0 Ga3 2.747420 1_655
Ga0 Zr1 2.888598 1_555
Ga0 Zr0 2.997468 1_655
Ga0 Zr0 2.997468 1_545
Ga0 Zr1 3.036592 1_545
Ga0 Zr1 3.036592 1_655
Ga0 Zr0 3.055455 1_645
Ga1 Mn3 2.529678 1_645
Ga1 Mn2 2.562577 1_545
Ga1 Mn1 2.562577 1_655
Ga1 Mn0 2.660099 1_556
Ga1 Ga2 2.747420 1_546
Ga1 Ga3 2.747420 1_656
Ga1 Zr2 2.888598 1_555
Ga1 Zr3 2.997468 1_655
Ga1 Zr3 2.997468 1_545
Ga1 Zr2 3.036592 1_545
Ga1 Zr2 3.036592 1_655
Ga1 Zr3 3.055455 1_645
Ga2 Mn0 2.497193 1_555
Ga2 Ga3 2.503734 1_555
Ga2 Mn0 2.593533 1_565
Ga2 Ga3 2.635852 1_665
Ga2 Zr0 3.003981 1_655
Ga2 Zr3 3.003981 1_654
Ga2 Zr0 3.037618 1_555
Ga2 Zr3 3.037618 1_554
Ga2 Zr1 3.094982 1_555
Ga2 Zr2 3.094982 1_554
Ga3 Mn0 2.497193 1_555
Ga3 Mn0 2.593533 1_455
Ga3 Zr3 3.003981 1_544
Ga3 Zr0 3.003981 1_545
Ga3 Zr3 3.037618 1_554
Ga3 Zr0 3.037618 1_555
Ga3 Zr1 3.094982 1_555
Ga3 Zr2 3.094982 1_554
