# generated using pymatgen
data_RbMg14Zr
_symmetry_space_group_name_H-M   'P 1'
_cell_length_a   6.65160332
_cell_length_b   6.65160274
_cell_length_c   10.35322018
_cell_angle_alpha   90.00000000
_cell_angle_beta   90.00000000
_cell_angle_gamma   120.00000289
_symmetry_Int_Tables_number   1
_chemical_formula_structural   RbMg14Zr
_chemical_formula_sum   'Rb1 Mg14 Zr1'
_cell_volume   396.69681543
_cell_formula_units_Z   1
loop_
 _symmetry_equiv_pos_site_id
 _symmetry_equiv_pos_as_xyz
  1  'x, y, z'
loop_
 _atom_site_type_symbol
 _atom_site_label
 _atom_site_symmetry_multiplicity
 _atom_site_fract_x
 _atom_site_fract_y
 _atom_site_fract_z
 _atom_site_occupancy
  Rb  Rb0  1  0.16666700  0.33333300  0.62500000  1
  Mg  Mg0  1  0.16657822  0.83328861  0.12500000  1
  Mg  Mg1  1  0.17628670  0.83814285  0.62500000  1
  Mg  Mg2  1  0.66671139  0.33342178  0.12500000  1
  Mg  Mg3  1  0.66185715  0.32371330  0.62500000  1
  Mg  Mg4  1  0.66671139  0.83328861  0.12500000  1
  Mg  Mg5  1  0.66185715  0.83814285  0.62500000  1
  Mg  Mg6  1  0.33765521  0.16234479  0.35992172  1
  Mg  Mg7  1  0.33765521  0.16234479  0.89007828  1
  Mg  Mg8  1  0.33765521  0.67531141  0.35992172  1
  Mg  Mg9  1  0.33765521  0.67531141  0.89007828  1
  Mg  Mg10  1  0.82468859  0.16234479  0.35992172  1
  Mg  Mg11  1  0.82468859  0.16234479  0.89007828  1
  Mg  Mg12  1  0.83333300  0.66666700  0.37688442  1
  Mg  Mg13  1  0.83333300  0.66666700  0.87311558  1
  Zr  Zr0  1  0.16666700  0.33333300  0.12500000  1
loop_
_geom_bond_atom_site_label_1
_geom_bond_atom_site_label_2
_geom_bond_distance
_geom_bond_site_symmetry_2
Mg0 Mg9 3.083895 1_554
Mg0 Mg8 3.083895 1_555
Mg0 Mg6 3.083902 1_565
Mg0 Mg7 3.083902 1_564
Mg0 Mg13 3.238168 1_454
Mg0 Mg12 3.238168 1_455
Mg0 Mg2 3.324916 1_455
Mg0 Mg4 3.324916 1_455
Mg0 Zr0 3.325801 1_565
Mg0 Zr0 3.325801 1_555
Mg0 Mg2 3.326687 1_565
Mg0 Mg4 3.326687 1_555
Mg1 Mg3 3.229822 1_565
Mg1 Mg5 3.229822 1_555
Mg1 Mg12 3.240615 1_455
Mg1 Mg13 3.240615 1_455
Mg1 Mg9 3.319569 1_555
Mg1 Mg8 3.319569 1_555
Mg1 Mg6 3.319575 1_565
Mg1 Mg7 3.319575 1_565
Mg1 Rb0 3.326263 1_555
Mg1 Rb0 3.326263 1_565
Mg1 Mg3 3.421781 1_455
Mg1 Mg5 3.421781 1_455
Mg2 Mg7 3.083902 1_554
Mg2 Mg6 3.083902 1_555
Mg2 Mg4 3.324916 1_555
Mg2 Zr0 3.325802 1_655
Mg2 Zr0 3.325802 1_555
Mg2 Mg4 3.326687 1_545
Mg3 Mg5 3.229822 1_545
Mg3 Mg6 3.319575 1_555
Mg3 Mg7 3.319575 1_555
Mg3 Rb0 3.326263 1_655
Mg3 Rb0 3.326263 1_555
Mg3 Mg5 3.421781 1_555
Mg4 Mg8 3.083902 1_555
Mg4 Mg9 3.083902 1_554
Mg4 Zr0 3.325801 1_665
Mg4 Zr0 3.325801 1_555
Mg5 Mg8 3.319575 1_555
Mg5 Mg9 3.319575 1_555
Mg5 Rb0 3.326263 1_555
Mg5 Rb0 3.326263 1_665
Mg6 Zr0 3.129895 1_555
Mg6 Mg8 3.239553 1_545
Mg6 Rb0 3.378235 1_555
Mg6 Mg8 3.412050 1_555
Mg7 Zr0 3.129895 1_556
Mg7 Mg9 3.239553 1_545
Mg7 Rb0 3.378235 1_555
Mg7 Mg9 3.412050 1_555
Mg8 Zr0 3.129902 1_555
Mg8 Rb0 3.378242 1_555
Mg9 Zr0 3.129902 1_556
Mg9 Rb0 3.378242 1_555
Mg10 Mg2 3.083895 1_555
Mg10 Mg4 3.083902 1_545
Mg10 Zr0 3.129903 1_655
Mg10 Mg8 3.239553 1_545
Mg10 Mg6 3.239553 1_555
Mg10 Mg3 3.319569 1_555
Mg10 Mg5 3.319575 1_545
Mg10 Mg12 3.330807 1_545
Mg10 Mg12 3.330807 1_555
Mg10 Rb0 3.378242 1_655
Mg10 Mg8 3.412050 1_655
Mg10 Mg6 3.412050 1_655
Mg11 Mg2 3.083895 1_556
Mg11 Mg4 3.083902 1_546
Mg11 Zr0 3.129903 1_656
Mg11 Mg9 3.239553 1_545
Mg11 Mg7 3.239553 1_555
Mg11 Mg3 3.319569 1_555
Mg11 Mg5 3.319575 1_545
Mg11 Mg13 3.330807 1_545
Mg11 Mg13 3.330807 1_555
Mg11 Rb0 3.378242 1_655
Mg11 Mg9 3.412050 1_655
Mg11 Mg7 3.412050 1_655
Mg12 Mg4 3.238162 1_555
Mg12 Mg2 3.238168 1_555
Mg12 Mg5 3.240608 1_555
Mg12 Mg3 3.240615 1_555
Mg12 Mg6 3.330807 1_555
Mg12 Mg6 3.330807 1_665
Mg12 Mg8 3.330807 1_555
Mg12 Mg8 3.330807 1_655
Mg13 Mg4 3.238162 1_556
Mg13 Mg2 3.238168 1_556
Mg13 Mg5 3.240608 1_555
Mg13 Mg3 3.240615 1_555
Mg13 Mg7 3.330807 1_555
Mg13 Mg7 3.330807 1_665
Mg13 Mg9 3.330807 1_555
Mg13 Mg9 3.330807 1_655
