# generated using pymatgen
data_Pr3Mn2Sb3O14
_symmetry_space_group_name_H-M   'P 1'
_cell_length_a   7.40926973
_cell_length_b   7.40926973
_cell_length_c   7.40926932
_cell_angle_alpha   61.84083503
_cell_angle_beta   61.84083503
_cell_angle_gamma   61.84083553
_symmetry_Int_Tables_number   1
_chemical_formula_structural   Pr3Mn2Sb3O14
_chemical_formula_sum   'Pr3 Mn2 Sb3 O14'
_cell_volume   299.47091656
_cell_formula_units_Z   1
loop_
 _symmetry_equiv_pos_site_id
 _symmetry_equiv_pos_as_xyz
  1  'x, y, z'
loop_
 _atom_site_type_symbol
 _atom_site_label
 _atom_site_symmetry_multiplicity
 _atom_site_fract_x
 _atom_site_fract_y
 _atom_site_fract_z
 _atom_site_occupancy
  Pr  Pr0  1  0.50000000  0.50000000  0.00000000  1
  Pr  Pr1  1  0.00000000  0.50000000  0.50000000  1
  Pr  Pr2  1  0.50000000  0.00000000  0.50000000  1
  Mn  Mn0  1  0.00000000  0.00000000  0.00000000  1
  Mn  Mn1  1  0.50000000  0.50000000  0.50000000  1
  Sb  Sb0  1  0.00000000  0.00000000  0.50000000  1
  Sb  Sb1  1  0.50000000  0.00000000  0.00000000  1
  Sb  Sb2  1  0.00000000  0.50000000  0.00000000  1
  O  O0  1  0.61518600  0.61518600  0.61518600  1
  O  O1  1  0.38481400  0.38481400  0.38481400  1
  O  O2  1  0.31957800  0.92021100  0.31957800  1
  O  O3  1  0.31957800  0.31957800  0.92021100  1
  O  O4  1  0.92021100  0.31957800  0.31957800  1
  O  O5  1  0.68042200  0.07978900  0.68042200  1
  O  O6  1  0.68042200  0.68042200  0.07978900  1
  O  O7  1  0.07978900  0.68042200  0.68042200  1
  O  O8  1  0.90935800  0.35357800  0.90935800  1
  O  O9  1  0.90935800  0.90935800  0.35357800  1
  O  O10  1  0.35357800  0.90935800  0.90935800  1
  O  O11  1  0.09064200  0.64642200  0.09064200  1
  O  O12  1  0.09064200  0.09064200  0.64642200  1
  O  O13  1  0.64642200  0.09064200  0.09064200  1
loop_
_geom_bond_atom_site_label_1
_geom_bond_atom_site_label_2
_geom_bond_distance
_geom_bond_site_symmetry_2
Mn0 O12 2.206735 1_554
Mn0 O9 2.206735 1_445
Mn0 O11 2.206736 1_545
Mn0 O13 2.206736 1_455
Mn0 O10 2.206736 1_544
Mn0 O8 2.206736 1_454
Mn1 O0 2.060946 1_555
Mn1 O1 2.060946 1_555
Mn1 O3 2.664143 1_555
Mn1 O6 2.664143 1_555
Mn1 O7 2.664143 1_555
Mn1 O4 2.664143 1_555
Mn1 O5 2.664143 1_555
Mn1 O2 2.664143 1_555
O0 Pr0 2.383298 1_556
O0 Pr1 2.383298 1_655
O0 Pr2 2.383298 1_565
O1 Pr0 2.383298 1_555
O1 Pr2 2.383298 1_555
O1 Pr1 2.383298 1_555
O2 Sb1 2.044580 1_565
O2 Sb0 2.044580 1_565
O2 Pr2 2.664961 1_565
O3 Sb2 2.044580 1_556
O3 Sb1 2.044580 1_556
O3 Pr0 2.664961 1_556
O4 Sb2 2.044580 1_655
O4 Sb0 2.044580 1_655
O4 Pr1 2.664961 1_655
O5 Sb1 2.044580 1_556
O5 Sb0 2.044580 1_655
O5 Pr2 2.664961 1_555
O6 Sb1 2.044580 1_565
O6 Sb2 2.044580 1_655
O6 Pr0 2.664961 1_555
O7 Sb2 2.044580 1_556
O7 Sb0 2.044580 1_565
O7 Pr1 2.664961 1_555
O8 Sb2 1.969798 1_656
O8 Pr1 2.546909 1_655
O8 Pr0 2.546909 1_556
O9 Sb0 1.969798 1_665
O9 Pr2 2.546909 1_565
O9 Pr1 2.546909 1_655
O10 Sb1 1.969798 1_566
O10 Pr2 2.546909 1_565
O10 Pr0 2.546909 1_556
O11 Sb2 1.969798 1_555
O11 Pr1 2.546909 1_555
O11 Pr0 2.546909 1_555
O12 Sb0 1.969798 1_555
O12 Pr1 2.546909 1_555
O12 Pr2 2.546909 1_555
O13 Sb1 1.969798 1_555
O13 Pr2 2.546909 1_555
O13 Pr0 2.546909 1_555
