# generated using pymatgen
data_BaTi4O7
_symmetry_space_group_name_H-M   'P 1'
_cell_length_a   6.61120570
_cell_length_b   6.61120570
_cell_length_c   10.51402400
_cell_angle_alpha   90.00000000
_cell_angle_beta   90.00000000
_cell_angle_gamma   119.99999700
_symmetry_Int_Tables_number   1
_chemical_formula_structural   BaTi4O7
_chemical_formula_sum   'Ba2 Ti8 O14'
_cell_volume   397.97972611
_cell_formula_units_Z   2
loop_
 _symmetry_equiv_pos_site_id
 _symmetry_equiv_pos_as_xyz
  1  'x, y, z'
loop_
 _atom_site_type_symbol
 _atom_site_label
 _atom_site_symmetry_multiplicity
 _atom_site_fract_x
 _atom_site_fract_y
 _atom_site_fract_z
 _atom_site_occupancy
  Ba  Ba0  1  0.66666700  0.33333300  0.54176200  1
  Ba  Ba1  1  0.33333300  0.66666700  0.04176200  1
  Ti  Ti0  1  0.81163800  0.18836200  0.19259900  1
  Ti  Ti1  1  0.62327600  0.81163800  0.69259900  1
  Ti  Ti2  1  0.18836200  0.37672400  0.69259900  1
  Ti  Ti3  1  0.81163800  0.62327600  0.19259900  1
  Ti  Ti4  1  0.37672400  0.18836200  0.19259900  1
  Ti  Ti5  1  0.18836200  0.81163800  0.69259900  1
  Ti  Ti6  1  0.00000000  0.00000000  0.44334000  1
  Ti  Ti7  1  0.00000000  0.00000000  0.94334000  1
  O  O0  1  0.85443000  0.14557000  0.01972800  1
  O  O1  1  0.70886000  0.85443000  0.51972800  1
  O  O2  1  0.14557000  0.29114000  0.51972800  1
  O  O3  1  0.85443000  0.70886000  0.01972800  1
  O  O4  1  0.29114000  0.14557000  0.01972800  1
  O  O5  1  0.14557000  0.85443000  0.51972800  1
  O  O6  1  0.00000000  0.00000000  0.75759000  1
  O  O7  1  0.00000000  0.00000000  0.25759000  1
  O  O8  1  0.49195100  0.50804900  0.22479300  1
  O  O9  1  0.98390300  0.49195100  0.72479300  1
  O  O10  1  0.50804900  0.01609700  0.72479300  1
  O  O11  1  0.49195100  0.98390300  0.22479300  1
  O  O12  1  0.50804900  0.49195100  0.72479300  1
  O  O13  1  0.01609700  0.50804900  0.22479300  1
loop_
_geom_bond_atom_site_label_1
_geom_bond_atom_site_label_2
_geom_bond_distance
_geom_bond_site_symmetry_2
Ba0 O12 2.646191 1_555
Ba0 O9 2.646191 1_555
Ba0 O10 2.646191 1_555
Ba1 O8 2.646191 1_555
Ba1 O13 2.646191 1_555
Ba1 O11 2.646191 1_555
O0 Ti7 1.850309 1_654
O0 Ti0 1.882463 1_555
O1 Ti6 1.850309 1_665
O1 Ti1 1.882463 1_555
O2 Ti6 1.850309 1_555
O2 Ti2 1.882463 1_555
O3 Ti7 1.850309 1_664
O3 Ti3 1.882463 1_555
O4 Ti7 1.850309 1_554
O4 Ti4 1.882463 1_555
O5 Ti6 1.850309 1_565
O5 Ti5 1.882463 1_555
O6 Ti7 1.952980 1_555
O6 Ti5 2.262573 1_545
O6 Ti2 2.262573 1_555
O6 Ti1 2.262573 1_445
O7 Ti6 1.952980 1_555
O7 Ti0 2.262573 1_455
O7 Ti4 2.262573 1_555
O7 Ti3 2.262573 1_445
O8 Ti4 1.884621 1_555
O8 Ti3 1.884621 1_555
O9 Ti2 1.884615 1_655
O9 Ti5 1.884620 1_655
O10 Ti1 1.884615 1_545
O10 Ti5 1.884620 1_545
O11 Ti4 1.884615 1_565
O11 Ti0 1.884620 1_565
O12 Ti2 1.884621 1_555
O12 Ti1 1.884621 1_555
O13 Ti3 1.884615 1_455
O13 Ti0 1.884620 1_455
