# generated using pymatgen
data_Na2YbCdSb2
_symmetry_space_group_name_H-M   'P 1'
_cell_length_a   4.71419600
_cell_length_b   7.86102600
_cell_length_c   9.18646400
_cell_angle_alpha   90.00000000
_cell_angle_beta   90.00000000
_cell_angle_gamma   90.00000000
_symmetry_Int_Tables_number   1
_chemical_formula_structural   Na2YbCdSb2
_chemical_formula_sum   'Na4 Yb2 Cd2 Sb4'
_cell_volume   340.43581665
_cell_formula_units_Z   2
loop_
 _symmetry_equiv_pos_site_id
 _symmetry_equiv_pos_as_xyz
  1  'x, y, z'
loop_
 _atom_site_type_symbol
 _atom_site_label
 _atom_site_symmetry_multiplicity
 _atom_site_fract_x
 _atom_site_fract_y
 _atom_site_fract_z
 _atom_site_occupancy
  Na  Na0  1  0.50000000  0.44941300  0.57982200  1
  Na  Na1  1  0.50000000  0.94941300  0.42017800  1
  Na  Na2  1  0.00000000  0.13160100  0.66869900  1
  Na  Na3  1  0.00000000  0.63160100  0.33130100  1
  Yb  Yb0  1  0.00000000  0.50031400  0.94453500  1
  Yb  Yb1  1  0.00000000  0.00031400  0.05546500  1
  Cd  Cd0  1  0.50000000  0.83979900  0.81479200  1
  Cd  Cd1  1  0.50000000  0.33979900  0.18520800  1
  Sb  Sb0  1  0.50000000  0.21609700  0.88003700  1
  Sb  Sb1  1  0.50000000  0.71609700  0.11996300  1
  Sb  Sb2  1  0.00000000  0.23030600  0.34182400  1
  Sb  Sb3  1  0.00000000  0.73030600  0.65817600  1
loop_
_geom_bond_atom_site_label_1
_geom_bond_atom_site_label_2
_geom_bond_distance
_geom_bond_site_symmetry_2
Na0 Sb3 3.309041 1_555
Na0 Sb3 3.309041 1_655
Na0 Sb0 3.312103 1_555
Na0 Sb2 3.647295 1_655
Na0 Sb2 3.647295 1_555
Na1 Sb2 3.309041 1_665
Na1 Sb2 3.309041 1_565
Na1 Sb1 3.312103 1_555
Na1 Sb3 3.647295 1_555
Na1 Sb3 3.647295 1_655
Na2 Sb2 3.101454 1_555
Na2 Sb0 3.125113 1_455
Na2 Sb0 3.125113 1_555
Na2 Sb3 3.156071 1_545
Na3 Sb3 3.101454 1_555
Na3 Sb1 3.125113 1_455
Na3 Sb1 3.125113 1_555
Na3 Sb2 3.156071 1_555
Cd0 Sb3 2.892535 1_555
Cd0 Sb3 2.892535 1_655
Cd0 Sb1 2.967305 1_556
Cd0 Sb0 3.018200 1_565
Cd0 Yb1 3.469339 1_566
Cd0 Yb1 3.469339 1_666
Cd0 Na2 3.552308 1_565
Cd0 Na2 3.552308 1_665
Cd0 Na1 3.726110 1_555
Cd0 Na0 3.751940 1_555
Cd0 Yb0 3.754790 1_555
Cd0 Yb0 3.754790 1_655
Cd1 Sb2 2.892535 1_555
Cd1 Sb2 2.892535 1_655
Cd1 Sb0 2.967305 1_554
Cd1 Sb1 3.018200 1_555
Cd1 Yb0 3.469339 1_654
Cd1 Yb0 3.469339 1_554
Cd1 Na3 3.552308 1_555
Cd1 Na3 3.552308 1_655
Cd1 Na0 3.726110 1_555
Cd1 Na1 3.751940 1_545
Cd1 Yb1 3.754790 1_655
Cd1 Yb1 3.754790 1_555
Sb0 Yb0 3.301332 1_555
Sb0 Yb0 3.301332 1_655
Sb0 Yb1 3.321204 1_556
Sb0 Yb1 3.321204 1_656
Sb1 Yb1 3.301332 1_665
Sb1 Yb1 3.301332 1_565
Sb1 Yb0 3.321204 1_654
Sb1 Yb0 3.321204 1_554
Sb2 Yb1 3.192016 1_555
Sb3 Yb0 3.192016 1_555
