# generated using pymatgen
data_TiFe3N
_symmetry_space_group_name_H-M   'P 1'
_cell_length_a   3.73802300
_cell_length_b   3.73802300
_cell_length_c   3.73802300
_cell_angle_alpha   90.00000000
_cell_angle_beta   90.00000000
_cell_angle_gamma   90.00000000
_symmetry_Int_Tables_number   1
_chemical_formula_structural   TiFe3N
_chemical_formula_sum   'Ti1 Fe3 N1'
_cell_volume   52.23070739
_cell_formula_units_Z   1
loop_
 _symmetry_equiv_pos_site_id
 _symmetry_equiv_pos_as_xyz
  1  'x, y, z'
loop_
 _atom_site_type_symbol
 _atom_site_label
 _atom_site_symmetry_multiplicity
 _atom_site_fract_x
 _atom_site_fract_y
 _atom_site_fract_z
 _atom_site_occupancy
  Ti  Ti0  1  0.50000000  0.50000000  0.50000000  1
  Fe  Fe0  1  0.50000000  0.00000000  0.00000000  1
  Fe  Fe1  1  0.00000000  0.50000000  0.00000000  1
  Fe  Fe2  1  0.00000000  0.00000000  0.50000000  1
  N  N0  1  0.00000000  0.00000000  0.00000000  1
loop_
_geom_bond_atom_site_label_1
_geom_bond_atom_site_label_2
_geom_bond_distance
_geom_bond_site_symmetry_2
Fe0 N0 1.869012 1_555
Fe0 N0 1.869012 1_655
Fe0 Ti0 2.643181 1_544
Fe0 Ti0 2.643181 1_555
Fe0 Ti0 2.643181 1_545
Fe0 Ti0 2.643181 1_554
Fe1 N0 1.869012 1_565
Fe1 N0 1.869012 1_555
Fe1 Ti0 2.643181 1_455
Fe1 Ti0 2.643181 1_454
Fe1 Ti0 2.643181 1_555
Fe1 Ti0 2.643181 1_554
Fe2 N0 1.869012 1_555
Fe2 N0 1.869012 1_556
Fe2 Ti0 2.643181 1_455
Fe2 Ti0 2.643181 1_545
Fe2 Ti0 2.643181 1_445
Fe2 Ti0 2.643181 1_555
