# generated using pymatgen
data_CePd2Pt
_symmetry_space_group_name_H-M   'P 1'
_cell_length_a   4.14021096
_cell_length_b   4.14021096
_cell_length_c   4.15249287
_cell_angle_alpha   90.00000000
_cell_angle_beta   90.00000000
_cell_angle_gamma   90.00000000
_symmetry_Int_Tables_number   1
_chemical_formula_structural   CePd2Pt
_chemical_formula_sum   'Ce1 Pd2 Pt1'
_cell_volume   71.17932034
_cell_formula_units_Z   1
loop_
 _symmetry_equiv_pos_site_id
 _symmetry_equiv_pos_as_xyz
  1  'x, y, z'
loop_
 _atom_site_type_symbol
 _atom_site_label
 _atom_site_symmetry_multiplicity
 _atom_site_fract_x
 _atom_site_fract_y
 _atom_site_fract_z
 _atom_site_occupancy
  Ce  Ce0  1  0.00000000  -0.00000000  0.00000000  1
  Pd  Pd0  1  0.50000000  -0.00000000  0.50000000  1
  Pd  Pd1  1  0.00000000  0.50000000  0.50000000  1
  Pt  Pt0  1  0.50000000  0.50000000  -0.00000000  1
loop_
_geom_bond_atom_site_label_1
_geom_bond_atom_site_label_2
_geom_bond_distance
_geom_bond_site_symmetry_2
Ce0 Pt0 2.927571 1_555
Ce0 Pt0 2.927571 1_455
Ce0 Pt0 2.927571 1_445
Ce0 Pt0 2.927571 1_545
Ce0 Pd1 2.931917 1_554
Ce0 Pd0 2.931917 1_555
Ce0 Pd1 2.931917 1_555
Ce0 Pd0 2.931917 1_554
Ce0 Pd1 2.931917 1_545
Ce0 Pd0 2.931917 1_455
Ce0 Pd0 2.931917 1_454
Ce0 Pd1 2.931917 1_544
Pd0 Pd1 2.927571 1_655
Pd0 Pd1 2.927571 1_555
Pd0 Pd1 2.927571 1_545
Pd0 Pd1 2.927571 1_645
Pd0 Pt0 2.931917 1_555
Pd0 Pt0 2.931917 1_556
Pd0 Pt0 2.931917 1_546
Pd0 Pt0 2.931917 1_545
Pd1 Pt0 2.931917 1_555
Pd1 Pt0 2.931917 1_455
Pd1 Pt0 2.931917 1_556
Pd1 Pt0 2.931917 1_456
