# generated using pymatgen
data_Ti5InS8
_symmetry_space_group_name_H-M   'P 1'
_cell_length_a   9.04685624
_cell_length_b   9.04685624
_cell_length_c   8.92070478
_cell_angle_alpha   75.81211025
_cell_angle_beta   75.81211025
_cell_angle_gamma   21.86866059
_symmetry_Int_Tables_number   1
_chemical_formula_structural   Ti5InS8
_chemical_formula_sum   'Ti5 In1 S8'
_cell_volume   263.34537330
_cell_formula_units_Z   1
loop_
 _symmetry_equiv_pos_site_id
 _symmetry_equiv_pos_as_xyz
  1  'x, y, z'
loop_
 _atom_site_type_symbol
 _atom_site_label
 _atom_site_symmetry_multiplicity
 _atom_site_fract_x
 _atom_site_fract_y
 _atom_site_fract_z
 _atom_site_occupancy
  Ti  Ti0  1  0.79364265  0.79364265  0.85069865  1
  Ti  Ti1  1  0.20752040  0.20752040  0.14857515  1
  Ti  Ti2  1  0.50017000  0.50017000  0.49850187  1
  Ti  Ti3  1  0.16420762  0.16420762  0.50682688  1
  Ti  Ti4  1  0.83733938  0.83733938  0.49117197  1
  In  In0  1  0.00692344  0.00692344  0.98546647  1
  S  S0  1  0.25884455  0.25884455  0.66794267  1
  S  S1  1  0.74217869  0.74217869  0.33055535  1
  S  S2  1  0.92465214  0.92465214  0.66297418  1
  S  S3  1  0.07642320  0.07642320  0.33550523  1
  S  S4  1  0.58838442  0.58838442  0.67081789  1
  S  S5  1  0.41209125  0.41209125  0.32775505  1
  S  S6  1  0.66207048  0.66207048  0.00232400  1
  S  S7  1  0.33880079  0.33880079  0.99598463  1
loop_
_geom_bond_atom_site_label_1
_geom_bond_atom_site_label_2
_geom_bond_distance
_geom_bond_site_symmetry_2
S0 Ti3 2.469566 1_555
S0 Ti4 2.505626 1_545
S0 Ti4 2.505626 1_455
S0 Ti0 2.547170 1_545
S0 Ti0 2.547170 1_455
S1 Ti4 2.473918 1_555
S1 Ti3 2.499736 1_655
S1 Ti3 2.499736 1_565
S1 Ti1 2.541327 1_565
S1 Ti1 2.541327 1_655
S2 Ti2 2.431997 1_565
S2 Ti2 2.431997 1_655
S2 Ti4 2.437571 1_555
S2 Ti0 2.505059 1_555
S3 Ti2 2.431196 1_545
S3 Ti2 2.431196 1_455
S3 Ti3 2.440854 1_555
S3 Ti1 2.503163 1_555
S4 Ti3 2.432186 1_565
S4 Ti3 2.432186 1_655
S4 Ti2 2.453898 1_555
S5 Ti4 2.422180 1_545
S5 Ti4 2.422180 1_455
S5 Ti2 2.440992 1_555
S6 Ti0 2.390510 1_554
S6 Ti1 2.413468 1_655
S6 Ti1 2.413468 1_565
S7 Ti1 2.388969 1_556
S7 Ti0 2.405674 1_455
S7 Ti0 2.405674 1_545
