# generated using pymatgen
data_Li9Co7O16
_symmetry_space_group_name_H-M   'P 1'
_cell_length_a   5.07027000
_cell_length_b   5.83649272
_cell_length_c   9.94144460
_cell_angle_alpha   90.23593030
_cell_angle_beta   99.99539586
_cell_angle_gamma   106.43563660
_symmetry_Int_Tables_number   1
_chemical_formula_structural   Li9Co7O16
_chemical_formula_sum   'Li9 Co7 O16'
_cell_volume   277.44743441
_cell_formula_units_Z   1
loop_
 _symmetry_equiv_pos_site_id
 _symmetry_equiv_pos_as_xyz
  1  'x, y, z'
loop_
 _atom_site_type_symbol
 _atom_site_label
 _atom_site_symmetry_multiplicity
 _atom_site_fract_x
 _atom_site_fract_y
 _atom_site_fract_z
 _atom_site_occupancy
  Li  Li0  1  0.49838900  0.87446400  0.62503400  1
  Li  Li1  1  0.50349300  0.37585200  0.62643400  1
  Li  Li2  1  0.50161100  0.12553600  0.37496600  1
  Li  Li3  1  0.49650700  0.62414800  0.37356600  1
  Li  Li4  1  0.49271100  0.37322100  0.12038700  1
  Li  Li5  1  0.50318600  0.87672700  0.12068100  1
  Li  Li6  1  0.50728900  0.62677900  0.87961300  1
  Li  Li7  1  0.49681400  0.12327300  0.87931900  1
  Li  Li8  1  0.00000000  0.00000000  0.00000000  1
  Co  Co0  1  0.99815800  0.75280700  0.75413000  1
  Co  Co1  1  0.00000000  0.50000000  0.00000000  1
  Co  Co2  1  0.00422000  0.24873700  0.75897000  1
  Co  Co3  1  0.00000000  0.00000000  0.50000000  1
  Co  Co4  1  0.00000000  0.50000000  0.50000000  1
  Co  Co5  1  0.00184200  0.24719300  0.24587000  1
  Co  Co6  1  0.99578000  0.75126300  0.24103000  1
  O  O0  1  0.21290300  0.56553000  0.68153500  1
  O  O1  1  0.22967800  0.04540000  0.69125400  1
  O  O2  1  0.22757300  0.80714900  0.43551100  1
  O  O3  1  0.22614300  0.30712000  0.42759200  1
  O  O4  1  0.22721400  0.07252200  0.19638800  1
  O  O5  1  0.22453100  0.54156700  0.18292000  1
  O  O6  1  0.22803800  0.32020600  0.93249300  1
  O  O7  1  0.21937400  0.78811000  0.92659600  1
  O  O8  1  0.77242700  0.19285100  0.56448900  1
  O  O9  1  0.77385700  0.69288000  0.57240800  1
  O  O10  1  0.78709700  0.43447000  0.31846500  1
  O  O11  1  0.77032200  0.95460000  0.30874600  1
  O  O12  1  0.77196200  0.67979400  0.06750700  1
  O  O13  1  0.78062600  0.21189000  0.07340400  1
  O  O14  1  0.77278600  0.92747800  0.80361200  1
  O  O15  1  0.77546900  0.45843300  0.81708000  1
loop_
_geom_bond_atom_site_label_1
_geom_bond_atom_site_label_2
_geom_bond_distance
_geom_bond_site_symmetry_2
Li0 O14 2.019307 1_555
Li0 O1 2.088081 1_565
Li0 O2 2.092913 1_555
Li0 O9 2.105804 1_555
Li0 O0 2.115549 1_555
Li0 O8 2.141134 1_565
Li1 O9 2.102328 1_555
Li1 O15 2.105983 1_555
Li1 O8 2.118864 1_555
Li1 O3 2.180676 1_555
Li1 O1 2.206374 1_555
Li1 O0 2.212381 1_555
Li2 O4 2.019307 1_555
Li2 O11 2.088081 1_545
Li2 O8 2.092913 1_555
Li2 O3 2.105804 1_555
Li2 O10 2.115549 1_555
Li2 O2 2.141134 1_545
Li3 O3 2.102328 1_555
Li3 O5 2.105983 1_555
Li3 O2 2.118864 1_555
Li3 O9 2.180676 1_555
Li3 O11 2.206374 1_555
Li3 O10 2.212381 1_555
Li4 O5 2.060391 1_555
Li4 O13 2.060759 1_555
Li4 O6 2.067824 1_554
Li4 O12 2.077312 1_555
Li4 O4 2.119007 1_555
Li4 O10 2.214794 1_555
Li5 O11 2.074183 1_555
Li5 O12 2.142226 1_555
Li5 O7 2.160539 1_554
Li5 O13 2.169391 1_565
Li5 O5 2.225994 1_555
Li5 O4 2.256900 1_565
Li6 O15 2.060391 1_555
Li6 O7 2.060759 1_555
Li6 O12 2.067824 1_556
Li6 O6 2.077312 1_555
Li6 O14 2.119007 1_555
Li6 O0 2.214794 1_555
Li7 O1 2.074183 1_555
Li7 O6 2.142226 1_555
Li7 O13 2.160539 1_556
Li7 O7 2.169391 1_545
Li7 O15 2.225994 1_555
Li7 O14 2.256900 1_545
Li8 O4 2.062670 1_555
Li8 O14 2.062670 1_444
Li8 O12 2.082517 1_445
Li8 O6 2.082517 1_554
Li8 O7 2.086107 1_544
Li8 O13 2.086107 1_455
Co0 O14 1.853988 1_555
Co0 O7 1.854441 1_655
Co0 O9 1.932855 1_555
Co0 O15 1.942884 1_555
Co0 O1 1.952977 1_665
Co0 O0 1.959809 1_655
Co1 O5 1.945048 1_555
Co1 O15 1.945048 1_454
Co1 O7 1.957242 1_554
Co1 O13 1.957242 1_455
Co1 O12 1.959218 1_455
Co1 O6 1.959218 1_554
Co2 O6 1.866630 1_555
Co2 O14 2.008037 1_445
Co2 O1 2.048568 1_555
Co2 O15 2.051067 1_455
Co2 O8 2.053004 1_455
Co2 O0 2.078034 1_555
Co3 O2 1.998778 1_545
Co3 O8 1.998778 1_455
Co3 O1 2.023377 1_555
Co3 O11 2.023377 1_445
Co3 O9 2.044516 1_445
Co3 O3 2.044516 1_555
Co4 O0 1.911275 1_555
Co4 O10 1.911275 1_455
Co4 O8 2.012919 1_455
Co4 O2 2.012919 1_555
Co4 O3 2.027422 1_555
Co4 O9 2.027422 1_455
Co5 O4 1.853988 1_555
Co5 O13 1.854441 1_455
Co5 O3 1.932855 1_555
Co5 O5 1.942884 1_555
Co5 O11 1.952977 1_445
Co5 O10 1.959809 1_455
Co6 O12 1.866630 1_555
Co6 O4 2.008037 1_665
Co6 O11 2.048568 1_555
Co6 O5 2.051067 1_655
Co6 O2 2.053004 1_655
Co6 O10 2.078034 1_555
