# generated using pymatgen
data_Ba4Nd2Cd3Se10
_symmetry_space_group_name_H-M   'P 1'
_cell_length_a   9.84893161
_cell_length_b   9.84893161
_cell_length_c   28.05450100
_cell_angle_alpha   90.00000000
_cell_angle_beta   90.00000000
_cell_angle_gamma   154.17070926
_symmetry_Int_Tables_number   1
_chemical_formula_structural   Ba4Nd2Cd3Se10
_chemical_formula_sum   'Ba8 Nd4 Cd6 Se20'
_cell_volume   1185.65867588
_cell_formula_units_Z   2
loop_
 _symmetry_equiv_pos_site_id
 _symmetry_equiv_pos_as_xyz
  1  'x, y, z'
loop_
 _atom_site_type_symbol
 _atom_site_label
 _atom_site_symmetry_multiplicity
 _atom_site_fract_x
 _atom_site_fract_y
 _atom_site_fract_z
 _atom_site_occupancy
  Ba  Ba0  1  0.59423700  0.40576300  0.33893500  1
  Ba  Ba1  1  0.40576300  0.59423700  0.83893500  1
  Ba  Ba2  1  0.57510100  0.42489900  0.15758600  1
  Ba  Ba3  1  0.42489900  0.57510100  0.65758600  1
  Ba  Ba4  1  0.16589900  0.83410100  0.60962500  1
  Ba  Ba5  1  0.83410100  0.16589900  0.10962500  1
  Ba  Ba6  1  0.16556600  0.83443400  0.89216100  1
  Ba  Ba7  1  0.83443400  0.16556600  0.39216100  1
  Nd  Nd0  1  0.50296000  0.49704000  0.49967600  1
  Nd  Nd1  1  0.49704000  0.50296000  0.99967600  1
  Nd  Nd2  1  0.08248200  0.91751800  0.75380000  1
  Nd  Nd3  1  0.91751800  0.08248200  0.25380000  1
  Cd  Cd0  1  0.21467100  0.78532900  0.23142300  1
  Cd  Cd1  1  0.78532900  0.21467100  0.73142300  1
  Cd  Cd2  1  0.15568000  0.84432000  0.46130600  1
  Cd  Cd3  1  0.84432000  0.15568000  0.96130600  1
  Cd  Cd4  1  0.14821800  0.85178200  0.04515000  1
  Cd  Cd5  1  0.85178200  0.14821800  0.54515000  1
  Se  Se0  1  0.42076600  0.57923400  0.32457600  1
  Se  Se1  1  0.57923400  0.42076600  0.82457600  1
  Se  Se2  1  0.40746000  0.59254000  0.18167600  1
  Se  Se3  1  0.59254000  0.40746000  0.68167600  1
  Se  Se4  1  0.34594900  0.65405100  0.49016000  1
  Se  Se5  1  0.65405100  0.34594900  0.99016000  1
  Se  Se6  1  0.34356400  0.65643600  0.01847300  1
  Se  Se7  1  0.65643600  0.34356400  0.51847300  1
  Se  Se8  1  0.23726400  0.76273600  0.76925800  1
  Se  Se9  1  0.76273600  0.23726400  0.26925800  1
  Se  Se10  1  0.20991800  0.79008200  0.37734100  1
  Se  Se11  1  0.79008200  0.20991800  0.87734100  1
  Se  Se12  1  0.20668400  0.79331600  0.13156400  1
  Se  Se13  1  0.79331600  0.20668400  0.63156400  1
  Se  Se14  1  0.07193000  0.92807000  0.24772300  1
  Se  Se15  1  0.92807000  0.07193000  0.74772300  1
  Se  Se16  1  0.01543900  0.98456100  0.42966500  1
  Se  Se17  1  0.98456100  0.01543900  0.92966500  1
  Se  Se18  1  0.99038600  0.00961400  0.57403100  1
  Se  Se19  1  0.00961400  0.99038600  0.07403100  1
loop_
_geom_bond_atom_site_label_1
_geom_bond_atom_site_label_2
_geom_bond_distance
_geom_bond_site_symmetry_2
Ba0 Se10 3.307461 1_545
Ba0 Se10 3.307461 1_655
Ba0 Se0 3.354845 1_555
Ba0 Se14 3.402476 1_655
Ba0 Se14 3.402476 1_545
Ba0 Se16 3.689611 1_545
Ba0 Se16 3.689611 1_655
Ba0 Se9 3.779816 1_555
Ba1 Se11 3.307461 1_455
Ba1 Se11 3.307461 1_565
Ba1 Se1 3.354845 1_555
Ba1 Se15 3.402476 1_455
Ba1 Se15 3.402476 1_565
Ba1 Se17 3.689611 1_565
Ba1 Se17 3.689611 1_455
Ba1 Se8 3.779816 1_555
Ba2 Se2 3.288827 1_555
Ba2 Se14 3.353160 1_545
Ba2 Se14 3.353160 1_655
Ba2 Se12 3.429395 1_545
Ba2 Se12 3.429395 1_655
Ba2 Se19 3.452687 1_655
Ba2 Se19 3.452687 1_545
Ba3 Se3 3.288827 1_555
Ba3 Se15 3.353160 1_565
Ba3 Se15 3.353160 1_455
Ba3 Se13 3.429395 1_455
Ba3 Se13 3.429395 1_565
Ba3 Se18 3.452687 1_455
Ba3 Se18 3.452687 1_565
Ba4 Se3 3.303793 1_565
Ba4 Se3 3.303793 1_455
Ba4 Se13 3.347967 1_565
Ba4 Se13 3.347967 1_455
Ba4 Se7 3.379025 1_565
Ba4 Se7 3.379025 1_455
Ba4 Se18 3.514619 1_465
Ba5 Se2 3.303793 1_655
Ba5 Se2 3.303793 1_545
Ba5 Se12 3.347967 1_655
Ba5 Se12 3.347967 1_545
Ba5 Se6 3.379025 1_545
Ba5 Se6 3.379025 1_655
Ba5 Se19 3.514619 1_645
Ba6 Se11 3.276203 1_565
Ba6 Se11 3.276203 1_455
Ba6 Se1 3.344832 1_455
Ba6 Se1 3.344832 1_565
Ba6 Se5 3.528882 1_565
Ba6 Se5 3.528882 1_455
Ba6 Se17 3.631005 1_465
Ba6 Se8 3.712618 1_555
Ba7 Se10 3.276203 1_655
Ba7 Se10 3.276203 1_545
Ba7 Se0 3.344832 1_655
Ba7 Se0 3.344832 1_545
Ba7 Se4 3.528882 1_545
Ba7 Se4 3.528882 1_655
Ba7 Se16 3.631005 1_645
Ba7 Se9 3.712618 1_555
Nd0 Se16 2.959830 1_545
Nd0 Se16 2.959830 1_655
Nd0 Se7 2.993491 1_555
Nd0 Se4 3.026345 1_555
Nd0 Se18 3.042212 1_455
Nd0 Se18 3.042212 1_565
Nd1 Se17 2.959830 1_455
Nd1 Se17 2.959830 1_565
Nd1 Se6 2.993491 1_556
Nd1 Se5 3.026345 1_555
Nd1 Se19 3.042212 1_546
Nd1 Se19 3.042212 1_656
Nd2 Se1 2.965105 1_565
Nd2 Se1 2.965105 1_455
Nd2 Se15 2.969545 1_465
Nd2 Se3 2.996141 1_455
Nd2 Se3 2.996141 1_565
Nd2 Se8 3.003226 1_555
Nd3 Se0 2.965105 1_545
Nd3 Se0 2.965105 1_655
Nd3 Se14 2.969545 1_645
Nd3 Se2 2.996141 1_545
Nd3 Se2 2.996141 1_655
Nd3 Se9 3.003226 1_555
Cd0 Se9 2.612217 1_455
Cd0 Se9 2.612217 1_565
Cd0 Se14 2.778458 1_555
Cd0 Se12 2.805688 1_555
Cd1 Se8 2.612217 1_655
Cd1 Se8 2.612217 1_545
Cd1 Se15 2.778458 1_555
Cd1 Se13 2.805688 1_555
Cd2 Se10 2.575507 1_555
Cd2 Se7 2.723558 1_455
Cd2 Se7 2.723558 1_565
Cd2 Se16 2.835118 1_555
Cd3 Se11 2.575507 1_555
Cd3 Se6 2.723558 1_546
Cd3 Se6 2.723558 1_656
Cd3 Se17 2.835118 1_555
Cd4 Se12 2.671572 1_555
Cd4 Se5 2.690340 1_564
Cd4 Se5 2.690340 1_454
Cd4 Se19 2.781754 1_555
Cd5 Se13 2.671572 1_555
Cd5 Se4 2.690340 1_545
Cd5 Se4 2.690340 1_655
Cd5 Se18 2.781754 1_555
