# generated using pymatgen
data_Zn4Cu5(TeO6)3
_symmetry_space_group_name_H-M   'P 1'
_cell_length_a   8.73092794
_cell_length_b   8.73092794
_cell_length_c   10.54364598
_cell_angle_alpha   86.64337189
_cell_angle_beta   86.64337189
_cell_angle_gamma   60.86110039
_symmetry_Int_Tables_number   1
_chemical_formula_structural   Zn4Cu5(TeO6)3
_chemical_formula_sum   'Zn8 Cu10 Te6 O36'
_cell_volume   700.39334433
_cell_formula_units_Z   2
loop_
 _symmetry_equiv_pos_site_id
 _symmetry_equiv_pos_as_xyz
  1  'x, y, z'
loop_
 _atom_site_type_symbol
 _atom_site_label
 _atom_site_symmetry_multiplicity
 _atom_site_fract_x
 _atom_site_fract_y
 _atom_site_fract_z
 _atom_site_occupancy
  Zn  Zn0  1  0.43877800  0.51517300  0.79999400  1
  Zn  Zn1  1  0.48482700  0.56122200  0.20000600  1
  Zn  Zn2  1  0.12717000  0.82964800  0.29916000  1
  Zn  Zn3  1  0.17035200  0.87283000  0.70084000  1
  Zn  Zn4  1  0.46232100  0.13338400  0.67565300  1
  Zn  Zn5  1  0.86661600  0.53767900  0.32434700  1
  Zn  Zn6  1  0.74078900  0.85587300  0.17567400  1
  Zn  Zn7  1  0.14412700  0.25921100  0.82432600  1
  Cu  Cu0  1  0.98716900  0.01283100  0.00000000  1
  Cu  Cu1  1  0.93588700  0.74150700  0.80165200  1
  Cu  Cu2  1  0.25849300  0.06411300  0.19834800  1
  Cu  Cu3  1  0.34120500  0.33793500  0.30139500  1
  Cu  Cu4  1  0.66206500  0.65879500  0.69860500  1
  Cu  Cu5  1  0.50599400  0.19912200  0.01101100  1
  Cu  Cu6  1  0.80087800  0.49400600  0.98898900  1
  Cu  Cu7  1  0.80752900  0.89262000  0.51069600  1
  Cu  Cu8  1  0.10738000  0.19247100  0.48930400  1
  Cu  Cu9  1  0.62172000  0.37828000  0.50000000  1
  Te  Te0  1  0.80445100  0.19464000  0.25078100  1
  Te  Te1  1  0.80536000  0.19554900  0.74921900  1
  Te  Te2  1  0.13897600  0.53796900  0.05321000  1
  Te  Te3  1  0.46203100  0.86102400  0.94679000  1
  Te  Te4  1  0.14598100  0.53199700  0.55371500  1
  Te  Te5  1  0.46800300  0.85401900  0.44628500  1
  O  O0  1  0.22786600  0.61919700  0.68483600  1
  O  O1  1  0.38080300  0.77213400  0.31516400  1
  O  O2  1  0.36868200  0.43361000  0.45526200  1
  O  O3  1  0.56639000  0.63131800  0.54473800  1
  O  O4  1  0.54058500  0.96946800  0.07233900  1
  O  O5  1  0.03053200  0.45941500  0.92766100  1
  O  O6  1  0.04330700  0.75990300  0.95383200  1
  O  O7  1  0.24009700  0.95669300  0.04616800  1
  O  O8  1  0.23010400  0.61646600  0.18519300  1
  O  O9  1  0.38353400  0.76989600  0.81480700  1
  O  O10  1  0.71529300  0.43374600  0.30835500  1
  O  O11  1  0.56625400  0.28470700  0.69164500  1
  O  O12  1  0.56785300  0.28676400  0.18562200  1
  O  O13  1  0.71323600  0.43214700  0.81437800  1
  O  O14  1  0.04092200  0.10350300  0.31587200  1
  O  O15  1  0.89649700  0.95907800  0.68412800  1
  O  O16  1  0.06923800  0.42341100  0.42605600  1
  O  O17  1  0.57658900  0.93076200  0.57394400  1
  O  O18  1  0.89510900  0.95615600  0.19176600  1
  O  O19  1  0.04384400  0.10489100  0.80823400  1
  O  O20  1  0.04602400  0.75050800  0.45159100  1
  O  O21  1  0.24949200  0.95397600  0.54840900  1
  O  O22  1  0.35811900  0.43544700  0.95165800  1
  O  O23  1  0.56455300  0.64188100  0.04834200  1
  O  O24  1  0.75148400  0.11092400  0.91330800  1
  O  O25  1  0.88907600  0.24851600  0.08669200  1
  O  O26  1  0.72069400  0.13978600  0.41453700  1
  O  O27  1  0.86021400  0.27930600  0.58546300  1
  O  O28  1  0.39449300  0.08442100  0.85291600  1
  O  O29  1  0.91557900  0.60550700  0.14708400  1
  O  O30  1  0.69184500  0.78873400  0.35306400  1
  O  O31  1  0.21126600  0.30815500  0.64693600  1
  O  O32  1  0.25174000  0.30590900  0.14432600  1
  O  O33  1  0.69409100  0.74826000  0.85567400  1
  O  O34  1  0.91209900  0.64681500  0.64173500  1
  O  O35  1  0.35318500  0.08790100  0.35826500  1
loop_
_geom_bond_atom_site_label_1
_geom_bond_atom_site_label_2
_geom_bond_distance
_geom_bond_site_symmetry_2
Cu0 O25 2.053198 1_555
Cu0 O24 2.053198 1_554
Cu0 O7 2.097052 1_645
Cu0 O6 2.097052 1_644
Cu0 O18 2.249198 1_545
Cu0 O19 2.249198 1_654
Cu1 O6 1.957812 1_655
Cu1 O34 1.985214 1_555
Cu1 O15 2.097675 1_555
Cu1 O33 2.127574 1_555
Cu1 O5 2.505469 1_655
Cu1 O0 2.508237 1_655
Cu2 O7 1.957812 1_545
Cu2 O35 1.985214 1_555
Cu2 O14 2.097675 1_555
Cu2 O32 2.127574 1_555
Cu2 O4 2.505469 1_545
Cu2 O1 2.508237 1_545
Cu3 O2 1.945938 1_555
Cu3 O32 1.961971 1_555
Cu3 O12 2.127322 1_555
Cu3 O35 2.183527 1_555
Cu3 O8 2.418443 1_555
Cu3 O16 2.438555 1_555
Cu4 O3 1.945938 1_555
Cu4 O33 1.961971 1_555
Cu4 O13 2.127322 1_555
Cu4 O34 2.183527 1_555
Cu4 O9 2.418443 1_555
Cu4 O17 2.438555 1_555
Cu5 O22 1.914416 1_554
Cu5 O4 1.952188 1_545
Cu5 O24 2.115454 1_554
Cu5 O12 2.224973 1_555
Cu5 O32 2.354863 1_555
Cu5 O28 2.462537 1_554
Cu6 O23 1.914416 1_556
Cu6 O5 1.952188 1_655
Cu6 O25 2.115454 1_556
Cu6 O13 2.224973 1_555
Cu6 O33 2.354863 1_555
Cu6 O29 2.462537 1_556
Cu7 O20 1.919965 1_655
Cu7 O17 1.958518 1_555
Cu7 O26 2.121351 1_565
Cu7 O15 2.239055 1_555
Cu7 O34 2.289228 1_555
Cu7 O30 2.422894 1_555
Cu8 O21 1.919965 1_545
Cu8 O16 1.958518 1_555
Cu8 O27 2.121351 1_455
Cu8 O14 2.239055 1_555
Cu8 O35 2.289228 1_555
Cu8 O31 2.422894 1_555
Cu9 O27 2.066585 1_555
Cu9 O26 2.066585 1_555
Cu9 O3 2.095873 1_555
Cu9 O2 2.095873 1_555
Cu9 O10 2.249964 1_555
Cu9 O11 2.249964 1_555
O0 Te4 1.941937 1_555
O0 Zn3 2.033554 1_555
O0 Zn0 2.047935 1_555
O1 Te5 1.941937 1_555
O1 Zn2 2.033554 1_555
O1 Zn1 2.047935 1_555
O2 Te4 1.958973 1_555
O3 Te5 1.958973 1_555
O4 Zn6 1.906381 1_555
O4 Te3 2.001157 1_554
O5 Zn7 1.906381 1_555
O5 Te2 2.001157 1_556
O6 Te2 1.959277 1_556
O7 Te3 1.959277 1_554
O8 Te2 1.952333 1_555
O8 Zn1 2.047017 1_555
O8 Zn2 2.054840 1_555
O9 Te3 1.952333 1_555
O9 Zn0 2.047017 1_555
O9 Zn3 2.054840 1_555
O10 Zn5 1.951655 1_555
O10 Te0 1.960377 1_555
O10 Zn1 2.128846 1_555
O11 Zn4 1.951655 1_555
O11 Te1 1.960377 1_555
O11 Zn0 2.128846 1_555
O12 Te0 1.967112 1_555
O12 Zn1 2.151429 1_555
O13 Te1 1.967112 1_555
O13 Zn0 2.151429 1_555
O14 Te0 1.966944 1_455
O14 Zn2 2.143687 1_545
O15 Te1 1.966944 1_565
O15 Zn3 2.143687 1_655
O16 Zn5 1.911294 1_455
O16 Te4 2.008263 1_555
O17 Zn4 1.911294 1_565
O17 Te5 2.008263 1_555
O18 Zn6 1.950331 1_555
O18 Te0 1.959136 1_565
O18 Zn2 2.133088 1_655
O19 Zn7 1.950331 1_555
O19 Te1 1.959136 1_455
O19 Zn3 2.133088 1_545
O20 Zn2 1.943131 1_555
O20 Te4 1.951615 1_555
O21 Zn3 1.943131 1_555
O21 Te5 1.951615 1_555
O22 Zn0 1.937196 1_555
O22 Te2 1.952679 1_556
O23 Zn1 1.937196 1_555
O23 Te3 1.952679 1_554
O24 Te1 1.963130 1_555
O25 Te0 1.963130 1_555
O26 Te0 1.960005 1_555
O27 Te1 1.960005 1_555
O28 Te3 1.963132 1_545
O28 Zn7 1.993155 1_555
O28 Zn4 2.012456 1_555
O29 Te2 1.963132 1_655
O29 Zn6 1.993155 1_555
O29 Zn5 2.012456 1_555
O30 Te5 1.966280 1_555
O30 Zn5 1.997760 1_555
O30 Zn6 2.011554 1_555
O31 Te4 1.966280 1_555
O31 Zn4 1.997760 1_555
O31 Zn7 2.011554 1_555
O32 Te2 1.984321 1_555
O33 Te3 1.984321 1_555
O34 Te4 1.982299 1_655
O35 Te5 1.982299 1_545
