# generated using pymatgen
data_K2La2B2O7
_symmetry_space_group_name_H-M   'P 1'
_cell_length_a   6.73283600
_cell_length_b   10.91604500
_cell_length_c   11.50475448
_cell_angle_alpha   62.88475604
_cell_angle_beta   90.00000000
_cell_angle_gamma   90.00000000
_symmetry_Int_Tables_number   1
_chemical_formula_structural   K2La2B2O7
_chemical_formula_sum   'K8 La8 B8 O28'
_cell_volume   752.61937966
_cell_formula_units_Z   4
loop_
 _symmetry_equiv_pos_site_id
 _symmetry_equiv_pos_as_xyz
  1  'x, y, z'
loop_
 _atom_site_type_symbol
 _atom_site_label
 _atom_site_symmetry_multiplicity
 _atom_site_fract_x
 _atom_site_fract_y
 _atom_site_fract_z
 _atom_site_occupancy
  K  K0  1  0.06174200  0.26479300  0.96769200  1
  K  K1  1  0.56174200  0.23520700  0.03230800  1
  K  K2  1  0.93825800  0.73520700  0.03230800  1
  K  K3  1  0.43825800  0.76479300  0.96769200  1
  K  K4  1  0.24475500  0.44504800  0.11763400  1
  K  K5  1  0.74475500  0.05495200  0.88236600  1
  K  K6  1  0.75524500  0.55495200  0.88236600  1
  K  K7  1  0.25524500  0.94504800  0.11763400  1
  La  La0  1  0.54611700  0.18034100  0.51874600  1
  La  La1  1  0.04611700  0.31965900  0.48125400  1
  La  La2  1  0.45388300  0.81965900  0.48125400  1
  La  La3  1  0.95388300  0.68034100  0.51874600  1
  La  La4  1  0.91767800  0.08487400  0.32220900  1
  La  La5  1  0.41767800  0.41512600  0.67779100  1
  La  La6  1  0.08232200  0.91512600  0.67779100  1
  La  La7  1  0.58232200  0.58487400  0.32220900  1
  B  B0  1  0.74717100  0.41164200  0.19491500  1
  B  B1  1  0.24717100  0.08835800  0.80508500  1
  B  B2  1  0.25282900  0.58835800  0.80508500  1
  B  B3  1  0.75282900  0.91164200  0.19491500  1
  B  B4  1  0.34589700  0.14553900  0.30370100  1
  B  B5  1  0.84589700  0.35446100  0.69629900  1
  B  B6  1  0.65410300  0.85446100  0.69629900  1
  B  B7  1  0.15410300  0.64553900  0.30370100  1
  O  O0  1  0.65025900  0.53557400  0.12217900  1
  O  O1  1  0.15025900  0.96442600  0.87782100  1
  O  O2  1  0.34974100  0.46442600  0.87782100  1
  O  O3  1  0.84974100  0.03557400  0.12217900  1
  O  O4  1  0.84703600  0.33849900  0.14157600  1
  O  O5  1  0.34703600  0.16150100  0.85842400  1
  O  O6  1  0.15296400  0.66150100  0.85842400  1
  O  O7  1  0.65296400  0.83849900  0.14157600  1
  O  O8  1  0.53262900  0.08778600  0.35073600  1
  O  O9  1  0.03262900  0.41221400  0.64926400  1
  O  O10  1  0.46737100  0.91221400  0.64926400  1
  O  O11  1  0.96737100  0.58778600  0.35073600  1
  O  O12  1  0.25409800  0.14060800  0.19938500  1
  O  O13  1  0.75409800  0.35939200  0.80061500  1
  O  O14  1  0.74590200  0.85939200  0.80061500  1
  O  O15  1  0.24590200  0.64060800  0.19938500  1
  O  O16  1  0.74793500  0.28713600  0.63368400  1
  O  O17  1  0.24793500  0.21286400  0.36631600  1
  O  O18  1  0.25206500  0.71286400  0.36631600  1
  O  O19  1  0.75206500  0.78713600  0.63368400  1
  O  O20  1  0.88016500  0.09767400  0.52692600  1
  O  O21  1  0.38016500  0.40232600  0.47307400  1
  O  O22  1  0.11983500  0.90232600  0.47307400  1
  O  O23  1  0.61983500  0.59767400  0.52692600  1
  O  O24  1  0.74263200  0.36119900  0.33289300  1
  O  O25  1  0.24263200  0.13880100  0.66710700  1
  O  O26  1  0.25736800  0.63880100  0.66710700  1
  O  O27  1  0.75736800  0.86119900  0.33289300  1
loop_
_geom_bond_atom_site_label_1
_geom_bond_atom_site_label_2
_geom_bond_distance
_geom_bond_site_symmetry_2
K0 O13 2.691114 1_455
K0 O12 2.706718 1_556
K0 O3 2.720889 1_456
K0 O2 2.742985 1_555
K0 O5 2.798812 1_555
K0 O4 2.864652 1_456
K1 O12 2.691114 1_555
K1 O13 2.706718 1_554
K1 O2 2.720889 1_554
K1 O3 2.742985 1_555
K1 O4 2.798812 1_555
K1 O5 2.864652 1_554
K2 O15 2.691114 1_655
K2 O14 2.706718 1_554
K2 O1 2.720889 1_654
K2 O0 2.742985 1_555
K2 O7 2.798812 1_555
K2 O6 2.864652 1_654
K3 O14 2.691114 1_555
K3 O15 2.706718 1_556
K3 O0 2.720889 1_556
K3 O1 2.742985 1_555
K3 O6 2.798812 1_555
K3 O7 2.864652 1_556
K4 O15 2.696662 1_555
K4 O2 2.761234 1_554
K4 O17 2.828374 1_555
K4 O4 2.882205 1_455
K4 O6 2.904292 1_554
K4 O0 2.912095 1_555
K4 O12 3.013890 1_555
K5 O14 2.696662 1_545
K5 O3 2.761234 1_556
K5 O16 2.828374 1_555
K5 O5 2.882205 1_555
K5 O7 2.904292 1_546
K5 O1 2.912095 1_645
K5 O13 3.013890 1_555
K6 O13 2.696662 1_555
K6 O0 2.761234 1_556
K6 O19 2.828374 1_555
K6 O6 2.882205 1_655
K6 O4 2.904292 1_556
K6 O2 2.912095 1_555
K6 O14 3.013890 1_555
K7 O12 2.696662 1_565
K7 O1 2.761234 1_554
K7 O18 2.828374 1_555
K7 O7 2.882205 1_555
K7 O5 2.904292 1_564
K7 O3 2.912095 1_465
K7 O15 3.013890 1_555
La0 O20 2.409185 1_555
La0 O21 2.497148 1_555
La0 O16 2.521742 1_555
La0 O24 2.524309 1_555
La0 O8 2.558390 1_555
La0 O25 2.566824 1_555
La0 O17 2.581543 1_555
La0 O10 2.663873 1_545
La1 O21 2.409185 1_555
La1 O20 2.497148 1_455
La1 O17 2.521742 1_555
La1 O25 2.524309 1_555
La1 O9 2.558390 1_555
La1 O24 2.566824 1_455
La1 O16 2.581543 1_455
La1 O11 2.663873 1_455
La2 O22 2.409185 1_555
La2 O23 2.497148 1_555
La2 O18 2.521742 1_555
La2 O26 2.524309 1_555
La2 O10 2.558390 1_555
La2 O27 2.566824 1_555
La2 O19 2.581543 1_555
La2 O8 2.663873 1_565
La3 O23 2.409185 1_555
La3 O22 2.497148 1_655
La3 O19 2.521742 1_555
La3 O27 2.524309 1_555
La3 O11 2.558390 1_555
La3 O26 2.566824 1_655
La3 O18 2.581543 1_655
La3 O9 2.663873 1_655
La4 O22 2.383940 1_645
La4 O20 2.435231 1_555
La4 O12 2.591083 1_655
La4 O8 2.615176 1_555
La4 O27 2.620715 1_545
La4 O3 2.631301 1_555
La4 O4 2.639175 1_555
La4 O17 2.792852 1_655
La5 O23 2.383940 1_555
La5 O21 2.435231 1_555
La5 O13 2.591083 1_555
La5 O9 2.615176 1_555
La5 O26 2.620715 1_555
La5 O2 2.631301 1_555
La5 O5 2.639175 1_555
La5 O16 2.792852 1_555
La6 O20 2.383940 1_465
La6 O22 2.435231 1_555
La6 O14 2.591083 1_455
La6 O10 2.615176 1_555
La6 O25 2.620715 1_565
La6 O1 2.631301 1_555
La6 O6 2.639175 1_555
La6 O19 2.792852 1_455
La7 O21 2.383940 1_555
La7 O23 2.435231 1_555
La7 O15 2.591083 1_555
La7 O11 2.615176 1_555
La7 O24 2.620715 1_555
La7 O0 2.631301 1_555
La7 O7 2.639175 1_555
La7 O18 2.792852 1_555
B0 O4 1.383033 1_555
B0 O0 1.387168 1_555
B0 O24 1.423798 1_555
B1 O5 1.383033 1_555
B1 O1 1.387168 1_545
B1 O25 1.423798 1_555
B2 O6 1.383033 1_555
B2 O2 1.387168 1_555
B2 O26 1.423798 1_555
B3 O7 1.383033 1_555
B3 O3 1.387168 1_565
B3 O27 1.423798 1_555
B4 O12 1.372626 1_555
B4 O8 1.399976 1_555
B4 O17 1.405939 1_555
B5 O13 1.372626 1_555
B5 O9 1.399976 1_655
B5 O16 1.405939 1_555
B6 O14 1.372626 1_555
B6 O10 1.399976 1_555
B6 O19 1.405939 1_555
B7 O15 1.372626 1_555
B7 O11 1.399976 1_455
B7 O18 1.405939 1_555
