# generated using pymatgen
data_LaDy
_symmetry_space_group_name_H-M   'P 1'
_cell_length_a   7.41435523
_cell_length_b   7.41435523
_cell_length_c   11.75674108
_cell_angle_alpha   90.00000000
_cell_angle_beta   90.00000000
_cell_angle_gamma   120.00000310
_symmetry_Int_Tables_number   1
_chemical_formula_structural   LaDy
_chemical_formula_sum   'La8 Dy8'
_cell_volume   559.71165585
_cell_formula_units_Z   8
loop_
 _symmetry_equiv_pos_site_id
 _symmetry_equiv_pos_as_xyz
  1  'x, y, z'
loop_
 _atom_site_type_symbol
 _atom_site_label
 _atom_site_symmetry_multiplicity
 _atom_site_fract_x
 _atom_site_fract_y
 _atom_site_fract_z
 _atom_site_occupancy
  La  La0_0  1  0.00000000  0.00000000  0.00000000  1
  La  La0_1  1  0.00000000  0.00000000  0.50000000  1
  La  La0_2  1  0.00000000  0.50000000  0.00000000  1
  La  La0_3  1  0.00000000  0.50000000  0.50000000  1
  La  La0_4  1  0.50000000  0.00000000  0.00000000  1
  La  La0_5  1  0.50000000  0.00000000  0.50000000  1
  La  La0_6  1  0.50000000  0.50000000  0.00000000  1
  La  La0_7  1  0.50000000  0.50000000  0.50000000  1
  Dy  Dy0_0  1  0.16666650  0.33333350  0.25000000  1
  Dy  Dy0_1  1  0.16666650  0.33333350  0.75000000  1
  Dy  Dy0_2  1  0.16666650  0.83333350  0.25000000  1
  Dy  Dy0_3  1  0.16666650  0.83333350  0.75000000  1
  Dy  Dy0_4  1  0.66666650  0.33333350  0.25000000  1
  Dy  Dy0_5  1  0.66666650  0.33333350  0.75000000  1
  Dy  Dy0_6  1  0.66666650  0.83333350  0.25000000  1
  Dy  Dy0_7  1  0.66666650  0.83333350  0.75000000  1
loop_
_geom_bond_atom_site_label_1
_geom_bond_atom_site_label_2
_geom_bond_distance
_geom_bond_site_symmetry_2
La0_0 La0_6 3.707177 1_555
La0_0 La0_6 3.707177 1_445
La0_0 La0_2 3.707178 1_555
La0_0 La0_2 3.707178 1_545
La0_0 La0_4 3.707178 1_455
La0_0 La0_4 3.707178 1_555
La0_1 La0_7 3.707177 1_555
La0_1 La0_7 3.707177 1_445
La0_1 La0_5 3.707178 1_555
La0_1 La0_3 3.707178 1_555
La0_1 La0_3 3.707178 1_545
La0_1 La0_5 3.707178 1_455
La0_2 La0_4 3.707177 1_455
La0_2 La0_4 3.707177 1_565
La0_2 La0_6 3.707178 1_555
La0_2 La0_6 3.707178 1_455
La0_3 La0_5 3.707177 1_455
La0_3 La0_5 3.707177 1_565
La0_3 La0_7 3.707178 1_555
La0_3 La0_7 3.707178 1_455
La0_4 La0_6 3.707178 1_545
La0_4 La0_6 3.707178 1_555
La0_5 La0_7 3.707178 1_545
La0_5 La0_7 3.707178 1_555
Dy0_0 La0_2 3.635912 1_555
Dy0_0 La0_3 3.635912 1_555
Dy0_0 La0_6 3.635914 1_555
Dy0_0 La0_0 3.635914 1_555
Dy0_0 La0_1 3.635914 1_555
Dy0_0 La0_7 3.635914 1_555
Dy0_0 Dy0_6 3.707177 1_555
Dy0_0 Dy0_6 3.707177 1_445
Dy0_0 Dy0_2 3.707178 1_545
Dy0_0 Dy0_4 3.707178 1_555
Dy0_0 Dy0_4 3.707178 1_455
Dy0_0 Dy0_2 3.707178 1_555
Dy0_1 La0_2 3.635912 1_556
Dy0_1 La0_3 3.635912 1_555
Dy0_1 La0_0 3.635914 1_556
Dy0_1 La0_6 3.635914 1_556
Dy0_1 La0_1 3.635914 1_555
Dy0_1 La0_7 3.635914 1_555
Dy0_1 Dy0_7 3.707177 1_555
Dy0_1 Dy0_7 3.707177 1_445
Dy0_1 Dy0_3 3.707178 1_545
Dy0_1 Dy0_5 3.707178 1_555
Dy0_1 Dy0_5 3.707178 1_455
Dy0_1 Dy0_3 3.707178 1_555
Dy0_2 La0_0 3.635912 1_565
Dy0_2 La0_1 3.635912 1_565
Dy0_2 La0_3 3.635914 1_555
Dy0_2 La0_2 3.635914 1_555
Dy0_2 La0_5 3.635914 1_565
Dy0_2 La0_4 3.635914 1_565
Dy0_2 Dy0_4 3.707177 1_455
Dy0_2 Dy0_4 3.707177 1_565
Dy0_2 Dy0_6 3.707178 1_455
Dy0_2 Dy0_6 3.707178 1_555
Dy0_3 La0_0 3.635912 1_566
Dy0_3 La0_1 3.635912 1_565
Dy0_3 La0_2 3.635914 1_556
Dy0_3 La0_4 3.635914 1_566
Dy0_3 La0_3 3.635914 1_555
Dy0_3 La0_5 3.635914 1_565
Dy0_3 Dy0_5 3.707177 1_455
Dy0_3 Dy0_5 3.707177 1_565
Dy0_3 Dy0_7 3.707178 1_455
Dy0_3 Dy0_7 3.707178 1_555
Dy0_4 La0_6 3.635912 1_555
Dy0_4 La0_7 3.635912 1_555
Dy0_4 La0_5 3.635914 1_555
Dy0_4 La0_2 3.635914 1_655
Dy0_4 La0_3 3.635914 1_655
Dy0_4 La0_4 3.635914 1_555
Dy0_4 Dy0_6 3.707178 1_545
Dy0_4 Dy0_6 3.707178 1_555
Dy0_5 La0_6 3.635912 1_556
Dy0_5 La0_7 3.635912 1_555
Dy0_5 La0_4 3.635914 1_556
Dy0_5 La0_2 3.635914 1_656
Dy0_5 La0_3 3.635914 1_655
Dy0_5 La0_5 3.635914 1_555
Dy0_5 Dy0_7 3.707178 1_545
Dy0_5 Dy0_7 3.707178 1_555
Dy0_6 La0_5 3.635912 1_565
Dy0_6 La0_4 3.635912 1_565
Dy0_6 La0_6 3.635914 1_555
Dy0_6 La0_7 3.635914 1_555
Dy0_6 La0_0 3.635914 1_665
Dy0_6 La0_1 3.635914 1_665
Dy0_7 La0_4 3.635912 1_566
Dy0_7 La0_5 3.635912 1_565
Dy0_7 La0_6 3.635914 1_556
Dy0_7 La0_0 3.635914 1_666
Dy0_7 La0_7 3.635914 1_555
Dy0_7 La0_1 3.635914 1_665
