# generated using pymatgen
data_CeMg6Cr
_symmetry_space_group_name_H-M   'P 1'
_cell_length_a   5.03537300
_cell_length_b   6.52209600
_cell_length_c   11.41173700
_cell_angle_alpha   90.00000000
_cell_angle_beta   90.00000000
_cell_angle_gamma   90.00000000
_symmetry_Int_Tables_number   1
_chemical_formula_structural   CeMg6Cr
_chemical_formula_sum   'Ce2 Mg12 Cr2'
_cell_volume   374.77497856
_cell_formula_units_Z   2
loop_
 _symmetry_equiv_pos_site_id
 _symmetry_equiv_pos_as_xyz
  1  'x, y, z'
loop_
 _atom_site_type_symbol
 _atom_site_label
 _atom_site_symmetry_multiplicity
 _atom_site_fract_x
 _atom_site_fract_y
 _atom_site_fract_z
 _atom_site_occupancy
  Ce  Ce0  1  0.00000000  0.50000000  0.32232400  1
  Ce  Ce1  1  0.00000000  0.00000000  0.82232400  1
  Mg  Mg0  1  0.00000000  0.73868200  0.07844800  1
  Mg  Mg1  1  0.00000000  0.26131800  0.07844800  1
  Mg  Mg2  1  0.00000000  0.00000000  0.33819000  1
  Mg  Mg3  1  0.50000000  0.24139300  0.42369600  1
  Mg  Mg4  1  0.50000000  0.75860700  0.42369600  1
  Mg  Mg5  1  0.50000000  0.00000000  0.16745900  1
  Mg  Mg6  1  0.00000000  0.23868200  0.57844800  1
  Mg  Mg7  1  0.00000000  0.76131800  0.57844800  1
  Mg  Mg8  1  0.00000000  0.50000000  0.83819000  1
  Mg  Mg9  1  0.50000000  0.74139200  0.92369600  1
  Mg  Mg10  1  0.50000000  0.25860800  0.92369600  1
  Mg  Mg11  1  0.50000000  0.50000000  0.66745900  1
  Cr  Cr0  1  0.50000000  0.50000000  0.16773900  1
  Cr  Cr1  1  0.50000000  0.00000000  0.66773900  1
loop_
_geom_bond_atom_site_label_1
_geom_bond_atom_site_label_2
_geom_bond_distance
_geom_bond_site_symmetry_2
Ce0 Cr0 3.074205 1_455
Ce0 Cr0 3.074205 1_555
Ce0 Mg0 3.188839 1_555
Ce0 Mg1 3.188839 1_555
Ce0 Mg4 3.243736 1_455
Ce0 Mg4 3.243736 1_555
Ce0 Mg3 3.243736 1_455
Ce0 Mg3 3.243736 1_555
Ce0 Mg2 3.266070 1_565
Ce0 Mg2 3.266070 1_555
Ce0 Mg7 3.383438 1_555
Ce0 Mg6 3.383438 1_555
Ce1 Cr1 3.074205 1_455
Ce1 Cr1 3.074205 1_555
Ce1 Mg6 3.188839 1_555
Ce1 Mg7 3.188839 1_545
Ce1 Mg10 3.243739 1_555
Ce1 Mg10 3.243739 1_455
Ce1 Mg9 3.243739 1_545
Ce1 Mg9 3.243739 1_445
Ce1 Mg8 3.266070 1_555
Ce1 Mg8 3.266070 1_545
Ce1 Mg1 3.383438 1_556
Ce1 Mg0 3.383438 1_546
Mg0 Mg9 3.075350 1_554
Mg0 Mg9 3.075350 1_454
Mg0 Mg1 3.113414 1_555
Mg0 Mg8 3.152870 1_554
Mg0 Mg5 3.205513 1_565
Mg0 Mg5 3.205513 1_465
Mg0 Mg1 3.408682 1_565
Mg0 Mg2 3.419168 1_565
Mg1 Mg10 3.075350 1_554
Mg1 Mg10 3.075350 1_454
Mg1 Mg8 3.152870 1_554
Mg1 Mg5 3.205513 1_455
Mg1 Mg5 3.205513 1_555
Mg1 Mg2 3.419168 1_555
Mg2 Mg3 3.125632 1_455
Mg2 Mg3 3.125632 1_555
Mg2 Mg4 3.125632 1_545
Mg2 Mg4 3.125632 1_445
Mg2 Mg6 3.152870 1_555
Mg2 Mg7 3.152870 1_545
Mg2 Mg5 3.183514 1_455
Mg2 Mg5 3.183514 1_555
Mg3 Mg6 3.075350 1_655
Mg3 Mg6 3.075350 1_555
Mg3 Mg4 3.148777 1_545
Mg3 Mg5 3.321011 1_555
Mg3 Mg4 3.373319 1_555
Mg4 Mg7 3.075350 1_555
Mg4 Mg7 3.075350 1_655
Mg4 Mg5 3.321011 1_565
Mg5 Mg9 3.253157 1_544
Mg6 Mg7 3.113414 1_545
Mg6 Mg7 3.408682 1_555
Mg6 Mg8 3.419168 1_555
Mg7 Mg8 3.419168 1_555
Mg8 Mg9 3.125629 1_555
Mg8 Mg9 3.125629 1_455
Mg10 Mg8 3.125629 1_655
Mg10 Mg8 3.125629 1_555
Mg10 Mg9 3.148764 1_555
Mg10 Mg5 3.253157 1_556
Mg10 Mg11 3.321008 1_555
Mg10 Mg9 3.373332 1_545
Mg11 Mg8 3.183514 1_555
Mg11 Mg8 3.183514 1_655
Mg11 Mg7 3.205513 1_555
Mg11 Mg7 3.205513 1_655
Mg11 Mg6 3.205513 1_555
Mg11 Mg6 3.205513 1_655
Mg11 Mg4 3.253153 1_555
Mg11 Mg3 3.253153 1_555
Mg11 Mg9 3.321008 1_555
Cr0 Mg0 3.130555 1_655
Cr0 Mg1 3.130555 1_555
Cr0 Mg1 3.130555 1_655
Cr0 Mg0 3.130555 1_555
Cr0 Mg9 3.199164 1_554
Cr0 Mg10 3.199164 1_554
Cr0 Mg5 3.261050 1_565
Cr0 Mg5 3.261050 1_555
Cr0 Mg4 3.372916 1_555
Cr0 Mg3 3.372916 1_555
Cr1 Mg6 3.130555 1_555
Cr1 Mg6 3.130555 1_655
Cr1 Mg7 3.130555 1_645
Cr1 Mg7 3.130555 1_545
Cr1 Mg3 3.199167 1_555
Cr1 Mg4 3.199167 1_545
Cr1 Mg11 3.261050 1_555
Cr1 Mg11 3.261050 1_545
Cr1 Mg10 3.372919 1_555
Cr1 Mg9 3.372919 1_545
