# generated using pymatgen
data_Ca2YBiO6
_symmetry_space_group_name_H-M   'P 1'
_cell_length_a   5.87673546
_cell_length_b   5.87673546
_cell_length_c   8.54542368
_cell_angle_alpha   90.00000000
_cell_angle_beta   90.00000000
_cell_angle_gamma   90.00000000
_symmetry_Int_Tables_number   1
_chemical_formula_structural   Ca2YBiO6
_chemical_formula_sum   'Ca4 Y2 Bi2 O12'
_cell_volume   295.12492027
_cell_formula_units_Z   2
loop_
 _symmetry_equiv_pos_site_id
 _symmetry_equiv_pos_as_xyz
  1  'x, y, z'
loop_
 _atom_site_type_symbol
 _atom_site_label
 _atom_site_symmetry_multiplicity
 _atom_site_fract_x
 _atom_site_fract_y
 _atom_site_fract_z
 _atom_site_occupancy
  Ca  Ca0  1  0.50000000  0.00000000  0.75000000  1
  Ca  Ca1  1  -0.00000000  0.50000000  0.75000000  1
  Ca  Ca2  1  0.50000000  -0.00000000  0.25000000  1
  Ca  Ca3  1  0.00000000  0.50000000  0.25000000  1
  Y  Y0  1  0.50000000  0.50000000  0.00000000  1
  Y  Y1  1  -0.00000000  0.00000000  0.50000000  1
  Bi  Bi0  1  0.50000000  0.50000000  0.50000000  1
  Bi  Bi1  1  0.00000000  0.00000000  0.00000000  1
  O  O0  1  0.50000000  0.50000000  0.74539351  1
  O  O1  1  0.00000000  0.00000000  0.75460649  1
  O  O2  1  0.50000000  0.50000000  0.25460649  1
  O  O3  1  -0.00000000  -0.00000000  0.24539351  1
  O  O4  1  0.65696520  0.17340550  0.50000000  1
  O  O5  1  0.34303480  0.82659450  0.50000000  1
  O  O6  1  0.82659450  0.65696520  0.50000000  1
  O  O7  1  0.17340550  0.34303480  0.50000000  1
  O  O8  1  0.84303480  0.67340550  0.00000000  1
  O  O9  1  0.15696520  0.32659450  -0.00000000  1
  O  O10  1  0.67340550  0.15696520  -0.00000000  1
  O  O11  1  0.32659450  0.84303480  0.00000000  1
loop_
_geom_bond_atom_site_label_1
_geom_bond_atom_site_label_2
_geom_bond_distance
_geom_bond_site_symmetry_2
Ca0 O11 2.540354 1_546
Ca0 O5 2.540354 1_545
Ca0 O4 2.540354 1_555
Ca0 O10 2.540354 1_556
Ca0 O0 2.938631 1_555
Ca0 O1 2.938631 1_555
Ca0 O1 2.938631 1_655
Ca0 O0 2.938631 1_545
Ca1 O8 2.540354 1_456
Ca1 O6 2.540354 1_455
Ca1 O9 2.540354 1_556
Ca1 O7 2.540354 1_555
Ca1 O0 2.938631 1_455
Ca1 O0 2.938631 1_555
Ca1 O1 2.938631 1_555
Ca1 O1 2.938631 1_565
Ca2 O10 2.540354 1_555
Ca2 O11 2.540354 1_545
Ca2 O5 2.540354 1_545
Ca2 O4 2.540354 1_555
Ca2 O3 2.938631 1_555
Ca2 O2 2.938631 1_545
Ca2 O3 2.938631 1_655
Ca2 O2 2.938631 1_555
Ca3 O8 2.540354 1_455
Ca3 O6 2.540354 1_455
Ca3 O9 2.540354 1_555
Ca3 O7 2.540354 1_555
Ca3 O3 2.938631 1_555
Ca3 O3 2.938631 1_565
Ca3 O2 2.938631 1_455
Ca3 O2 2.938631 1_555
Bi0 O2 2.096992 1_555
Bi0 O0 2.096992 1_555
Bi0 O4 2.129472 1_555
Bi0 O5 2.129472 1_555
Bi0 O6 2.129472 1_555
Bi0 O7 2.129472 1_555
Bi1 O3 2.096992 1_555
Bi1 O1 2.096992 1_554
Bi1 O8 2.129472 1_445
Bi1 O10 2.129472 1_455
Bi1 O11 2.129472 1_545
Bi1 O9 2.129472 1_555
O0 Y0 2.175720 1_556
O1 Y1 2.175720 1_555
O2 Y0 2.175720 1_555
O3 Y1 2.175720 1_555
O4 Y1 2.258856 1_655
O5 Y1 2.258856 1_565
O6 Y1 2.258856 1_665
O7 Y1 2.258856 1_555
O8 Y0 2.258856 1_555
O9 Y0 2.258856 1_555
O10 Y0 2.258856 1_555
O11 Y0 2.258856 1_555
