# generated using pymatgen
data_Li9Mn2Co5O16
_symmetry_space_group_name_H-M   'P 1'
_cell_length_a   2.90158600
_cell_length_b   5.20086100
_cell_length_c   19.42563306
_cell_angle_alpha   84.16596321
_cell_angle_beta   90.00000000
_cell_angle_gamma   90.00000000
_symmetry_Int_Tables_number   1
_chemical_formula_structural   Li9Mn2Co5O16
_chemical_formula_sum   'Li9 Mn2 Co5 O16'
_cell_volume   291.62892776
_cell_formula_units_Z   1
loop_
 _symmetry_equiv_pos_site_id
 _symmetry_equiv_pos_as_xyz
  1  'x, y, z'
loop_
 _atom_site_type_symbol
 _atom_site_label
 _atom_site_symmetry_multiplicity
 _atom_site_fract_x
 _atom_site_fract_y
 _atom_site_fract_z
 _atom_site_occupancy
  Li  Li0  1  0.50000000  0.50552900  0.99844100  1
  Li  Li1  1  0.00000000  0.62307400  0.12818300  1
  Li  Li2  1  0.50000000  0.74383700  0.24567000  1
  Li  Li3  1  0.00000000  0.87528300  0.37564500  1
  Li  Li4  1  0.50000000  0.99326300  0.50672800  1
  Li  Li5  1  0.00000000  0.36406600  0.86753700  1
  Li  Li6  1  0.50000000  0.24632500  0.74956500  1
  Li  Li7  1  0.00000000  0.13718600  0.62841500  1
  Li  Li8  1  0.00000000  0.75243600  0.75022700  1
  Mn  Mn0  1  0.00000000  0.00422700  0.99898200  1
  Mn  Mn1  1  0.50000000  0.37343900  0.37444900  1
  Co  Co0  1  0.50000000  0.12744600  0.12858400  1
  Co  Co1  1  0.00000000  0.24726400  0.24783000  1
  Co  Co2  1  0.00000000  0.49716000  0.50440200  1
  Co  Co3  1  0.50000000  0.65634200  0.63418100  1
  Co  Co4  1  0.50000000  0.84807400  0.86582200  1
  O  O0  1  0.50000000  0.17245500  0.94600700  1
  O  O1  1  0.00000000  0.28116000  0.06261000  1
  O  O2  1  0.50000000  0.42472200  0.18576400  1
  O  O3  1  0.00000000  0.54522700  0.31975500  1
  O  O4  1  0.50000000  0.65164500  0.43622100  1
  O  O5  1  0.00000000  0.04679300  0.81840800  1
  O  O6  1  0.50000000  0.92989700  0.68269400  1
  O  O7  1  0.00000000  0.78533100  0.56431400  1
  O  O8  1  0.50000000  0.83751600  0.05530800  1
  O  O9  1  0.00000000  0.94058300  0.18424000  1
  O  O10  1  0.50000000  0.09517800  0.31566500  1
  O  O11  1  0.00000000  0.20871400  0.43002800  1
  O  O12  1  0.50000000  0.32395400  0.55516700  1
  O  O13  1  0.00000000  0.73177000  0.93886700  1
  O  O14  1  0.50000000  0.57151000  0.81913000  1
  O  O15  1  0.00000000  0.45859300  0.68116100  1
loop_
_geom_bond_atom_site_label_1
_geom_bond_atom_site_label_2
_geom_bond_distance
_geom_bond_site_symmetry_2
Li0 O0 2.096887 1_555
Li0 O13 2.133479 1_655
Li0 O13 2.133479 1_555
Li0 O8 2.142260 1_556
Li0 O1 2.173614 1_556
Li0 O1 2.173614 1_656
Li1 O2 2.045866 1_555
Li1 O2 2.045866 1_455
Li1 O9 2.068385 1_555
Li1 O8 2.243152 1_555
Li1 O8 2.243152 1_455
Li1 O1 2.290242 1_555
Li2 O9 2.080290 1_655
Li2 O9 2.080290 1_555
Li2 O2 2.121645 1_555
Li2 O3 2.222771 1_555
Li2 O3 2.222771 1_655
Li2 O10 2.385960 1_565
Li3 O11 2.120298 1_565
Li3 O10 2.121179 1_565
Li3 O10 2.121179 1_465
Li3 O3 2.122322 1_555
Li3 O4 2.136369 1_555
Li3 O4 2.136369 1_455
Li4 O12 2.042641 1_565
Li4 O7 2.068747 1_655
Li4 O7 2.068747 1_555
Li4 O11 2.289306 1_665
Li4 O11 2.289306 1_565
Li4 O4 2.351026 1_555
Li5 O14 1.986652 1_455
Li5 O14 1.986652 1_555
Li5 O5 1.988406 1_555
Li5 O0 2.261119 1_455
Li5 O0 2.261119 1_555
Li5 O13 2.473026 1_555
Li6 O5 2.165177 1_555
Li6 O5 2.165177 1_655
Li6 O15 2.188841 1_555
Li6 O15 2.188841 1_655
Li6 O6 2.197806 1_545
Li6 O14 2.269592 1_555
Li7 O6 2.036599 1_445
Li7 O6 2.036599 1_545
Li7 O15 2.047504 1_555
Li7 O12 2.189055 1_555
Li7 O12 2.189055 1_455
Li7 O7 2.315703 1_545
Li8 O6 2.105112 1_455
Li8 O6 2.105112 1_555
Li8 O5 2.123695 1_565
Li8 O14 2.127375 1_555
Li8 O14 2.127375 1_455
Li8 O15 2.133626 1_555
Mn0 O13 1.925620 1_545
Mn0 O0 1.935524 1_455
Mn0 O0 1.935524 1_555
Mn0 O8 1.964918 1_446
Mn0 O8 1.964918 1_546
Mn0 O1 1.990999 1_556
Mn1 O10 1.932437 1_555
Mn1 O11 1.953555 1_555
Mn1 O11 1.953555 1_655
Mn1 O3 1.959311 1_655
Mn1 O3 1.959311 1_555
Mn1 O4 1.971401 1_555
Co0 O2 1.993315 1_555
Co0 O9 2.001144 1_545
Co0 O9 2.001144 1_645
Co0 O1 2.044038 1_655
Co0 O1 2.044038 1_555
Co0 O8 2.176287 1_545
Co1 O2 2.045491 1_555
Co1 O2 2.045491 1_455
Co1 O10 2.062762 1_455
Co1 O10 2.062762 1_555
Co1 O9 2.114354 1_545
Co1 O3 2.189466 1_555
Co2 O12 1.925658 1_455
Co2 O12 1.925658 1_555
Co2 O7 1.988797 1_555
Co2 O4 2.070796 1_555
Co2 O4 2.070796 1_455
Co2 O11 2.185968 1_555
Co3 O6 1.784606 1_555
Co3 O15 1.950538 1_555
Co3 O15 1.950538 1_655
Co3 O7 2.052259 1_655
Co3 O7 2.052259 1_555
Co3 O12 2.425643 1_555
Co4 O14 1.776745 1_555
Co4 O5 1.956464 1_565
Co4 O5 1.956464 1_665
Co4 O13 2.075958 1_655
Co4 O13 2.075958 1_555
Co4 O0 2.409700 1_565
