# generated using pymatgen
data_K2YbSbO7
_symmetry_space_group_name_H-M   'P 1'
_cell_length_a   8.19137207
_cell_length_b   8.19137207
_cell_length_c   8.19137207
_cell_angle_alpha   120.67330137
_cell_angle_beta   119.16077545
_cell_angle_gamma   90.14873234
_symmetry_Int_Tables_number   1
_chemical_formula_structural   K2YbSbO7
_chemical_formula_sum   'K4 Yb2 Sb2 O14'
_cell_volume   389.04813148
_cell_formula_units_Z   2
loop_
 _symmetry_equiv_pos_site_id
 _symmetry_equiv_pos_as_xyz
  1  'x, y, z'
loop_
 _atom_site_type_symbol
 _atom_site_label
 _atom_site_symmetry_multiplicity
 _atom_site_fract_x
 _atom_site_fract_y
 _atom_site_fract_z
 _atom_site_occupancy
  K  K0  1  0.50000000  0.50000000  0.00000000  1
  K  K1  1  0.00000000  0.00000000  0.00000000  1
  K  K2  1  0.00000000  0.50000000  0.00000000  1
  K  K3  1  0.00000000  0.00000000  0.50000000  1
  Yb  Yb0  1  0.50000000  0.50000000  0.50000000  1
  Yb  Yb1  1  0.50000000  0.00000000  0.00000000  1
  Sb  Sb0  1  0.00000000  0.50000000  0.50000000  1
  Sb  Sb1  1  0.50000000  0.00000000  0.50000000  1
  O  O0  1  0.87647900  0.58408200  0.29239700  1
  O  O1  1  0.20831600  0.91591800  0.29239700  1
  O  O2  1  0.17281400  0.78808700  0.74278800  1
  O  O3  1  0.45470100  0.71191300  0.38472600  1
  O  O4  1  0.45470100  0.06997400  0.74278800  1
  O  O5  1  0.17281400  0.43002600  0.38472600  1
  O  O6  1  0.82718600  0.56997400  0.61527400  1
  O  O7  1  0.54529900  0.93002600  0.25721200  1
  O  O8  1  0.54529900  0.28808700  0.61527400  1
  O  O9  1  0.82718600  0.21191300  0.25721200  1
  O  O10  1  0.38371200  0.25000000  0.13371200  1
  O  O11  1  0.12352100  0.41591800  0.70760300  1
  O  O12  1  0.79168400  0.08408200  0.70760300  1
  O  O13  1  0.61628800  0.75000000  0.86628800  1
loop_
_geom_bond_atom_site_label_1
_geom_bond_atom_site_label_2
_geom_bond_distance
_geom_bond_site_symmetry_2
K0 O11 2.613253 1_554
K0 O0 2.613253 1_555
K0 O8 2.940059 1_554
K0 O3 2.940059 1_555
K0 O4 2.940066 1_554
K0 O7 2.940066 1_555
K0 O13 3.097702 1_554
K0 O10 3.097702 1_555
K1 O12 2.613254 1_454
K1 O1 2.613254 1_545
K1 O5 2.940064 1_555
K1 O6 2.940064 1_444
K1 O2 2.940066 1_544
K1 O9 2.940066 1_455
K1 O10 3.097702 1_555
K1 O13 3.097702 1_444
K2 O0 2.813711 1_455
K2 O11 2.813711 1_554
K2 O1 2.813713 1_555
K2 O12 2.813713 1_454
K2 O6 3.124690 1_454
K2 O5 3.124690 1_555
K2 O3 3.124696 1_555
K2 O8 3.124696 1_454
K3 O11 2.813711 1_555
K3 O0 2.813711 1_445
K3 O12 2.813719 1_455
K3 O1 2.813719 1_545
K3 O2 3.124697 1_545
K3 O4 3.124697 1_555
K3 O9 3.124697 1_455
K3 O7 3.124697 1_445
O0 Sb0 1.977837 1_655
O1 Sb1 1.977830 1_565
O2 Sb0 1.994649 1_555
O2 Yb1 2.318773 1_566
O3 Sb1 1.994648 1_565
O3 Yb0 2.318778 1_555
O4 Sb1 1.994649 1_555
O4 Yb1 2.318773 1_556
O5 Sb0 1.994655 1_555
O5 Yb0 2.318770 1_555
O6 Sb0 1.994655 1_655
O6 Yb0 2.318770 1_555
O7 Sb1 1.994649 1_565
O7 Yb1 2.318773 1_565
O8 Sb1 1.994648 1_555
O8 Yb0 2.318778 1_555
O9 Sb0 1.994649 1_655
O9 Yb1 2.318773 1_555
O10 Yb0 2.244789 1_555
O10 Yb1 2.244789 1_555
O11 Sb0 1.977837 1_555
O12 Sb1 1.977830 1_555
O13 Yb0 2.244789 1_555
O13 Yb1 2.244789 1_566
