# generated using pymatgen
data_Li7Co5O12
_symmetry_space_group_name_H-M   'P 1'
_cell_length_a   2.88973800
_cell_length_b   8.18853900
_cell_length_c   9.73518996
_cell_angle_alpha   65.28617712
_cell_angle_beta   90.00000000
_cell_angle_gamma   90.00000000
_symmetry_Int_Tables_number   1
_chemical_formula_structural   Li7Co5O12
_chemical_formula_sum   'Li7 Co5 O12'
_cell_volume   209.26179914
_cell_formula_units_Z   1
loop_
 _symmetry_equiv_pos_site_id
 _symmetry_equiv_pos_as_xyz
  1  'x, y, z'
loop_
 _atom_site_type_symbol
 _atom_site_label
 _atom_site_symmetry_multiplicity
 _atom_site_fract_x
 _atom_site_fract_y
 _atom_site_fract_z
 _atom_site_occupancy
  Li  Li0  1  0.00000000  0.32073500  0.33634100  1
  Li  Li1  1  0.00000000  0.67926500  0.66365900  1
  Li  Li2  1  0.00000000  0.00000000  0.00000000  1
  Li  Li3  1  0.50000000  0.83651100  0.82766200  1
  Li  Li4  1  0.50000000  0.16348900  0.17233800  1
  Li  Li5  1  0.50000000  0.50000000  0.50000000  1
  Li  Li6  1  0.50000000  0.00000000  0.50000000  1
  Co  Co0  1  0.00000000  0.15882700  0.66346200  1
  Co  Co1  1  0.00000000  0.84117300  0.33653800  1
  Co  Co2  1  0.00000000  0.50000000  0.00000000  1
  Co  Co3  1  0.50000000  0.66411700  0.17110800  1
  Co  Co4  1  0.50000000  0.33588300  0.82889200  1
  O  O0  1  0.00000000  0.93828300  0.66892500  1
  O  O1  1  0.00000000  0.26105000  0.98972700  1
  O  O2  1  0.00000000  0.60276100  0.32620800  1
  O  O3  1  0.50000000  0.42471100  0.16220700  1
  O  O4  1  0.50000000  0.76113200  0.47716100  1
  O  O5  1  0.50000000  0.09849900  0.81228000  1
  O  O6  1  0.00000000  0.73895000  0.01027300  1
  O  O7  1  0.00000000  0.06171700  0.33107500  1
  O  O8  1  0.00000000  0.39723900  0.67379200  1
  O  O9  1  0.50000000  0.23886800  0.52283900  1
  O  O10  1  0.50000000  0.57528900  0.83779300  1
  O  O11  1  0.50000000  0.90150100  0.18772000  1
loop_
_geom_bond_atom_site_label_1
_geom_bond_atom_site_label_2
_geom_bond_distance
_geom_bond_site_symmetry_2
Li0 O3 2.116475 1_555
Li0 O3 2.116475 1_455
Li0 O7 2.142918 1_555
Li0 O9 2.194470 1_555
Li0 O9 2.194470 1_455
Li0 O2 2.269908 1_555
Li1 O10 2.116475 1_455
Li1 O10 2.116475 1_555
Li1 O0 2.142918 1_555
Li1 O4 2.194470 1_455
Li1 O4 2.194470 1_555
Li1 O8 2.269908 1_555
Li2 O1 2.097774 1_554
Li2 O6 2.097774 1_545
Li2 O5 2.201228 1_454
Li2 O11 2.201228 1_445
Li2 O11 2.201228 1_545
Li2 O5 2.201228 1_554
Li3 O0 2.023205 1_655
Li3 O0 2.023205 1_555
Li3 O5 2.087130 1_565
Li3 O10 2.099704 1_555
Li3 O6 2.167653 1_556
Li3 O6 2.167653 1_656
Li4 O7 2.023205 1_555
Li4 O7 2.023205 1_655
Li4 O11 2.087130 1_545
Li4 O3 2.099704 1_555
Li4 O1 2.167653 1_654
Li4 O1 2.167653 1_554
Li5 O4 2.055280 1_555
Li5 O9 2.055280 1_555
Li5 O8 2.113715 1_655
Li5 O2 2.113715 1_655
Li5 O8 2.113715 1_555
Li5 O2 2.113715 1_555
Li6 O4 2.058869 1_545
Li6 O9 2.058869 1_555
Li6 O7 2.086276 1_655
Li6 O7 2.086276 1_555
Li6 O0 2.086276 1_545
Li6 O0 2.086276 1_645
Co0 O0 1.784352 1_545
Co0 O9 1.908165 1_555
Co0 O9 1.908165 1_455
Co0 O5 1.957595 1_555
Co0 O5 1.957595 1_455
Co0 O8 1.996382 1_555
Co1 O7 1.784352 1_565
Co1 O4 1.908165 1_455
Co1 O4 1.908165 1_555
Co1 O11 1.957595 1_455
Co1 O11 1.957595 1_555
Co1 O2 1.996382 1_555
Co2 O1 2.000528 1_554
Co2 O6 2.000528 1_555
Co2 O3 2.036490 1_555
Co2 O10 2.036490 1_554
Co2 O10 2.036490 1_454
Co2 O3 2.036490 1_455
Co3 O2 1.996402 1_555
Co3 O2 1.996402 1_655
Co3 O3 1.998165 1_555
Co3 O11 2.016799 1_555
Co3 O6 2.027922 1_655
Co3 O6 2.027922 1_555
Co4 O8 1.996402 1_555
Co4 O8 1.996402 1_655
Co4 O10 1.998165 1_555
Co4 O5 2.016799 1_555
Co4 O1 2.027922 1_655
Co4 O1 2.027922 1_555
