# generated using pymatgen
data_TaTiAlC
_symmetry_space_group_name_H-M   'P 1'
_cell_length_a   3.08781815
_cell_length_b   3.08781815
_cell_length_c   13.83835000
_cell_angle_alpha   90.00000000
_cell_angle_beta   90.00000000
_cell_angle_gamma   120.00000315
_symmetry_Int_Tables_number   1
_chemical_formula_structural   TaTiAlC
_chemical_formula_sum   'Ta2 Ti2 Al2 C2'
_cell_volume   114.26635104
_cell_formula_units_Z   2
loop_
 _symmetry_equiv_pos_site_id
 _symmetry_equiv_pos_as_xyz
  1  'x, y, z'
loop_
 _atom_site_type_symbol
 _atom_site_label
 _atom_site_symmetry_multiplicity
 _atom_site_fract_x
 _atom_site_fract_y
 _atom_site_fract_z
 _atom_site_occupancy
  Ta  Ta0  1  0.33333300  0.66666700  0.40955500  1
  Ta  Ta1  1  0.66666700  0.33333300  0.59044500  1
  Ti  Ti0  1  0.66666700  0.33333300  0.91718600  1
  Ti  Ti1  1  0.33333300  0.66666700  0.08281400  1
  Al  Al0  1  0.33333300  0.66666700  0.75440500  1
  Al  Al1  1  0.66666700  0.33333300  0.24559500  1
  C  C0  1  0.00000000  0.00000000  0.50000000  1
  C  C1  1  0.00000000  0.00000000  0.00000000  1
loop_
_geom_bond_atom_site_label_1
_geom_bond_atom_site_label_2
_geom_bond_distance
_geom_bond_site_symmetry_2
Al0 Ti0 2.872716 1_565
Al0 Ti0 2.872716 1_455
Al0 Ti0 2.872720 1_555
Al0 Ta1 2.885528 1_455
Al0 Ta1 2.885528 1_565
Al0 Ta1 2.885531 1_555
Al1 Ti1 2.872716 1_545
Al1 Ti1 2.872716 1_655
Al1 Ti1 2.872720 1_555
Al1 Ta0 2.885528 1_545
Al1 Ta0 2.885528 1_655
Al1 Ta0 2.885531 1_555
C0 Ta0 2.178239 1_545
C0 Ta1 2.178239 1_455
C0 Ta1 2.178242 1_445
C0 Ta0 2.178242 1_555
C0 Ta1 2.178242 1_555
C0 Ta0 2.178242 1_445
C1 Ti1 2.119325 1_545
C1 Ti0 2.119325 1_454
C1 Ti1 2.119327 1_555
C1 Ti0 2.119327 1_554
C1 Ti1 2.119327 1_445
C1 Ti0 2.119327 1_444
