# generated using pymatgen
data_Li7Mn2(CoO4)3
_symmetry_space_group_name_H-M   'P 1'
_cell_length_a   4.97315400
_cell_length_b   5.01757743
_cell_length_c   9.78719517
_cell_angle_alpha   100.69251763
_cell_angle_beta   87.76456740
_cell_angle_gamma   116.99180476
_symmetry_Int_Tables_number   1
_chemical_formula_structural   Li7Mn2(CoO4)3
_chemical_formula_sum   'Li7 Mn2 Co3 O12'
_cell_volume   213.55531635
_cell_formula_units_Z   1
loop_
 _symmetry_equiv_pos_site_id
 _symmetry_equiv_pos_as_xyz
  1  'x, y, z'
loop_
 _atom_site_type_symbol
 _atom_site_label
 _atom_site_symmetry_multiplicity
 _atom_site_fract_x
 _atom_site_fract_y
 _atom_site_fract_z
 _atom_site_occupancy
  Li  Li0  1  0.17820100  0.09189000  0.74340200  1
  Li  Li1  1  0.49737900  0.24639700  0.25653600  1
  Li  Li2  1  0.82298100  0.40848700  0.74125200  1
  Li  Li3  1  0.50262100  0.75360300  0.74346400  1
  Li  Li4  1  0.82179900  0.90811000  0.25659800  1
  Li  Li5  1  0.17701900  0.59151300  0.25874800  1
  Li  Li6  1  0.50000000  0.00000000  0.50000000  1
  Mn  Mn0  1  0.16946800  0.83035400  0.00049200  1
  Mn  Mn1  1  0.83053200  0.16964600  0.99950800  1
  Co  Co0  1  0.16354500  0.32118900  0.50352100  1
  Co  Co1  1  0.50000000  0.50000000  0.00000000  1
  Co  Co2  1  0.83645500  0.67881100  0.49647900  1
  O  O0  1  0.81737000  0.78582900  0.89479300  1
  O  O1  1  0.15922900  0.97621300  0.38364800  1
  O  O2  1  0.51260600  0.14751000  0.88203200  1
  O  O3  1  0.18323900  0.48002200  0.88494000  1
  O  O4  1  0.53321800  0.62525700  0.38457600  1
  O  O5  1  0.87734500  0.32258300  0.38727300  1
  O  O6  1  0.46678200  0.37474300  0.61542400  1
  O  O7  1  0.81676100  0.51997800  0.11506000  1
  O  O8  1  0.12265500  0.67741700  0.61272700  1
  O  O9  1  0.84077100  0.02378700  0.61635200  1
  O  O10  1  0.18263000  0.21417100  0.10520700  1
  O  O11  1  0.48739400  0.85249000  0.11796800  1
loop_
_geom_bond_atom_site_label_1
_geom_bond_atom_site_label_2
_geom_bond_distance
_geom_bond_site_symmetry_2
Li0 O9 1.990868 1_455
Li0 O2 2.073340 1_555
Li0 O6 2.076852 1_555
Li0 O8 2.134494 1_545
Li0 O3 2.160925 1_555
Li0 O0 2.430912 1_445
Li1 O4 2.010399 1_555
Li1 O10 2.128885 1_555
Li1 O1 2.146339 1_545
Li1 O11 2.160931 1_545
Li1 O5 2.169216 1_555
Li1 O7 2.208851 1_555
Li2 O8 2.069387 1_655
Li2 O9 2.121094 1_555
Li2 O6 2.122216 1_555
Li2 O2 2.159762 1_555
Li2 O3 2.177598 1_655
Li2 O0 2.198327 1_555
Li3 O6 2.010399 1_555
Li3 O0 2.128885 1_555
Li3 O9 2.146339 1_565
Li3 O2 2.160931 1_565
Li3 O8 2.169216 1_555
Li3 O3 2.208851 1_555
Li4 O1 1.990868 1_655
Li4 O11 2.073340 1_555
Li4 O4 2.076852 1_555
Li4 O5 2.134494 1_565
Li4 O7 2.160925 1_555
Li4 O10 2.430912 1_665
Li5 O5 2.069387 1_455
Li5 O1 2.121094 1_555
Li5 O4 2.122216 1_555
Li5 O11 2.159762 1_555
Li5 O7 2.177598 1_455
Li5 O10 2.198327 1_555
Li6 O9 2.024738 1_555
Li6 O1 2.024738 1_545
Li6 O6 2.078024 1_555
Li6 O4 2.078024 1_545
Li6 O5 2.258902 1_555
Li6 O8 2.258902 1_545
Mn0 O3 1.933691 1_554
Mn0 O11 1.941435 1_555
Mn0 O0 1.971467 1_454
Mn0 O10 1.980371 1_565
Mn0 O7 2.185017 1_455
Mn0 O2 2.203163 1_564
Mn1 O7 1.933691 1_556
Mn1 O2 1.941435 1_555
Mn1 O10 1.971467 1_656
Mn1 O0 1.980371 1_545
Mn1 O3 2.185017 1_655
Mn1 O11 2.203163 1_546
Co0 O6 1.788213 1_555
Co0 O5 1.859746 1_455
Co0 O1 1.894133 1_545
Co0 O8 1.995646 1_555
Co0 O9 2.078898 1_455
Co0 O4 2.238045 1_555
Co1 O7 1.926894 1_555
Co1 O3 1.926894 1_554
Co1 O11 1.949957 1_555
Co1 O2 1.949957 1_554
Co1 O10 1.993662 1_555
Co1 O0 1.993662 1_554
Co2 O4 1.788213 1_555
Co2 O8 1.859746 1_655
Co2 O9 1.894133 1_565
Co2 O5 1.995646 1_555
Co2 O1 2.078898 1_655
Co2 O6 2.238045 1_555
