# generated using pymatgen
data_LiH2N
_symmetry_space_group_name_H-M   'P 1'
_cell_length_a   3.68243400
_cell_length_b   4.93271400
_cell_length_c   5.51868800
_cell_angle_alpha   90.00000000
_cell_angle_beta   90.00000000
_cell_angle_gamma   90.00000000
_symmetry_Int_Tables_number   1
_chemical_formula_structural   LiH2N
_chemical_formula_sum   'Li4 H8 N4'
_cell_volume   100.24362179
_cell_formula_units_Z   4
loop_
 _symmetry_equiv_pos_site_id
 _symmetry_equiv_pos_as_xyz
  1  'x, y, z'
loop_
 _atom_site_type_symbol
 _atom_site_label
 _atom_site_symmetry_multiplicity
 _atom_site_fract_x
 _atom_site_fract_y
 _atom_site_fract_z
 _atom_site_occupancy
  Li  Li0  1  0.25000000  0.58748400  0.14399500  1
  Li  Li1  1  0.25000000  0.08748400  0.35600500  1
  Li  Li2  1  0.75000000  0.41251600  0.85600500  1
  Li  Li3  1  0.75000000  0.91251600  0.64399500  1
  H  H0  1  0.25000000  0.20704600  0.79599800  1
  H  H1  1  0.25000000  0.70704600  0.70400200  1
  H  H2  1  0.75000000  0.79295400  0.20400200  1
  H  H3  1  0.75000000  0.29295400  0.29599800  1
  H  H4  1  0.00000000  0.00000000  0.00000000  1
  H  H5  1  0.50000000  0.50000000  0.50000000  1
  H  H6  1  0.50000000  0.00000000  0.00000000  1
  H  H7  1  0.00000000  0.50000000  0.50000000  1
  N  N0  1  0.25000000  0.19796500  0.98386000  1
  N  N1  1  0.25000000  0.69796500  0.51614000  1
  N  N2  1  0.75000000  0.80203500  0.01614000  1
  N  N3  1  0.75000000  0.30203500  0.48386000  1
loop_
_geom_bond_atom_site_label_1
_geom_bond_atom_site_label_2
_geom_bond_distance
_geom_bond_site_symmetry_2
Li0 N0 2.114879 1_554
Li0 N1 2.124827 1_555
Li0 N2 2.237851 1_555
Li0 N2 2.237851 1_455
Li1 N1 2.114879 1_545
Li1 N0 2.124827 1_554
Li1 N3 2.237851 1_555
Li1 N3 2.237851 1_455
Li2 N2 2.114879 1_556
Li2 N3 2.124827 1_555
Li2 N0 2.237851 1_655
Li2 N0 2.237851 1_555
Li3 N3 2.114879 1_565
Li3 N2 2.124827 1_556
Li3 N1 2.237851 1_655
Li3 N1 2.237851 1_555
H0 N0 1.037719 1_555
H0 Li2 2.127670 1_455
H0 Li2 2.127670 1_555
H1 N1 1.037719 1_555
H1 Li3 2.127670 1_555
H1 Li3 2.127670 1_455
H2 N2 1.037719 1_555
H2 Li0 2.127670 1_655
H2 Li0 2.127670 1_555
H3 N3 1.037719 1_555
H3 Li1 2.127670 1_555
H3 Li1 2.127670 1_655
H4 N2 1.344996 1_445
H4 N0 1.344996 1_554
H4 Li3 2.212173 1_444
H4 Li1 2.212173 1_555
H5 N1 1.344996 1_555
H5 N3 1.344996 1_555
H5 Li0 2.212173 1_555
H5 Li2 2.212173 1_555
H6 N2 1.344996 1_545
H6 N0 1.344996 1_554
H6 Li3 2.212173 1_544
H6 Li1 2.212173 1_555
H7 N1 1.344996 1_555
H7 N3 1.344996 1_455
H7 Li2 2.212173 1_455
H7 Li0 2.212173 1_555
