# generated using pymatgen
data_Y2HfS5
_symmetry_space_group_name_H-M   'P 1'
_cell_length_a   7.25115172
_cell_length_b   7.72975322
_cell_length_c   11.52913282
_cell_angle_alpha   90.00000000
_cell_angle_beta   90.00000000
_cell_angle_gamma   90.00000000
_symmetry_Int_Tables_number   1
_chemical_formula_structural   Y2HfS5
_chemical_formula_sum   'Y8 Hf4 S20'
_cell_volume   646.20343690
_cell_formula_units_Z   4
loop_
 _symmetry_equiv_pos_site_id
 _symmetry_equiv_pos_as_xyz
  1  'x, y, z'
loop_
 _atom_site_type_symbol
 _atom_site_label
 _atom_site_symmetry_multiplicity
 _atom_site_fract_x
 _atom_site_fract_y
 _atom_site_fract_z
 _atom_site_occupancy
  Y  Y0  1  0.97803326  0.00248352  0.17876504  1
  Y  Y1  1  0.47803326  0.99751648  0.32123496  1
  Y  Y2  1  0.02196674  0.50248352  0.82123496  1
  Y  Y3  1  0.52196674  0.49751648  0.67876504  1
  Y  Y4  1  0.47803326  0.50248352  0.32123496  1
  Y  Y5  1  0.97803326  0.49751648  0.17876504  1
  Y  Y6  1  0.52196674  0.00248352  0.67876504  1
  Y  Y7  1  0.02196674  0.99751648  0.82123496  1
  Hf  Hf0  1  0.42491198  0.75000000  0.00549164  1
  Hf  Hf1  1  0.92491198  0.25000000  0.49450836  1
  Hf  Hf2  1  0.57508802  0.25000000  0.99450836  1
  Hf  Hf3  1  0.07508802  0.75000000  0.50549164  1
  S  S0  1  0.31117114  0.75000000  0.79332958  1
  S  S1  1  0.81117114  0.25000000  0.70667042  1
  S  S2  1  0.68882886  0.25000000  0.20667042  1
  S  S3  1  0.18882886  0.75000000  0.29332958  1
  S  S4  1  0.05374686  0.75000000  0.00362419  1
  S  S5  1  0.55374686  0.25000000  0.49637581  1
  S  S6  1  0.94625314  0.25000000  0.99637581  1
  S  S7  1  0.44625314  0.75000000  0.50362419  1
  S  S8  1  0.83326815  0.75000000  0.68068232  1
  S  S9  1  0.33326815  0.25000000  0.81931768  1
  S  S10  1  0.16673185  0.25000000  0.31931768  1
  S  S11  1  0.66673185  0.75000000  0.18068232  1
  S  S12  1  0.83982915  0.96422453  0.40712482  1
  S  S13  1  0.33982915  0.03577547  0.09287518  1
  S  S14  1  0.16017085  0.46422453  0.59287518  1
  S  S15  1  0.66017085  0.53577547  0.90712482  1
  S  S16  1  0.16017085  0.03577547  0.59287518  1
  S  S17  1  0.66017085  0.96422453  0.90712482  1
  S  S18  1  0.83982915  0.53577547  0.40712482  1
  S  S19  1  0.33982915  0.46422453  0.09287518  1
loop_
_geom_bond_atom_site_label_1
_geom_bond_atom_site_label_2
_geom_bond_distance
_geom_bond_site_symmetry_2
Hf0 S13 2.505027 1_565
Hf0 S19 2.505027 1_555
Hf0 S0 2.581347 1_554
Hf0 S15 2.634055 1_554
Hf0 S17 2.634055 1_554
Hf0 S11 2.674742 1_555
Hf0 S4 2.691461 1_555
Hf1 S18 2.505027 1_555
Hf1 S12 2.505027 1_545
Hf1 S1 2.581347 1_555
Hf1 S14 2.634055 1_655
Hf1 S16 2.634055 1_655
Hf1 S10 2.674742 1_655
Hf1 S5 2.691461 1_555
Hf2 S15 2.505027 1_555
Hf2 S17 2.505027 1_545
Hf2 S2 2.581347 1_556
Hf2 S13 2.634055 1_556
Hf2 S19 2.634055 1_556
Hf2 S9 2.674742 1_555
Hf2 S6 2.691461 1_555
Hf3 S16 2.505027 1_565
Hf3 S14 2.505027 1_555
Hf3 S3 2.581347 1_555
Hf3 S18 2.634055 1_455
Hf3 S12 2.634055 1_455
Hf3 S8 2.674742 1_455
Hf3 S7 2.691461 1_555
S0 Y6 2.808882 1_565
S0 Y3 2.808882 1_555
S0 Y7 2.856866 1_555
S0 Y2 2.856866 1_555
S1 Y7 2.808882 1_645
S1 Y2 2.808882 1_655
S1 Y6 2.856866 1_555
S1 Y3 2.856866 1_555
S2 Y4 2.808882 1_555
S2 Y1 2.808882 1_545
S2 Y0 2.856866 1_555
S2 Y5 2.856866 1_555
S3 Y0 2.808882 1_465
S3 Y5 2.808882 1_455
S3 Y1 2.856866 1_555
S3 Y4 2.856866 1_555
S4 Y2 2.852248 1_554
S4 Y7 2.852248 1_554
S4 Y0 2.861390 1_465
S4 Y5 2.861390 1_455
S5 Y6 2.852248 1_555
S5 Y3 2.852248 1_555
S5 Y4 2.861390 1_555
S5 Y1 2.861390 1_545
S6 Y0 2.852248 1_556
S6 Y5 2.852248 1_556
S6 Y7 2.861390 1_645
S6 Y2 2.861390 1_655
S7 Y4 2.852248 1_555
S7 Y1 2.852248 1_555
S7 Y6 2.861390 1_565
S7 Y3 2.861390 1_555
S8 Y7 2.856317 1_655
S8 Y2 2.856317 1_655
S8 Y6 2.984082 1_565
S8 Y3 2.984082 1_555
S9 Y6 2.856317 1_555
S9 Y3 2.856317 1_555
S9 Y7 2.984082 1_545
S9 Y2 2.984082 1_555
S10 Y0 2.856317 1_455
S10 Y5 2.856317 1_455
S10 Y1 2.984082 1_545
S10 Y4 2.984082 1_555
S11 Y1 2.856317 1_555
S11 Y4 2.856317 1_555
S11 Y0 2.984082 1_565
S11 Y5 2.984082 1_555
S12 Y1 2.815885 1_555
S12 Y0 2.832547 1_565
S13 Y0 2.815885 1_455
S13 Y1 2.832547 1_545
S14 Y3 2.815885 1_555
S14 Y2 2.832547 1_555
S15 Y2 2.815885 1_655
S15 Y3 2.832547 1_555
S16 Y6 2.815885 1_555
S16 Y7 2.832547 1_545
S17 Y7 2.815885 1_655
S17 Y6 2.832547 1_565
S18 Y4 2.815885 1_555
S18 Y5 2.832547 1_555
S19 Y5 2.815885 1_455
S19 Y4 2.832547 1_555
