# generated using pymatgen
data_Na2SiO9
_symmetry_space_group_name_H-M   'P 1'
_cell_length_a   5.94903200
_cell_length_b   6.33810600
_cell_length_c   10.37218619
_cell_angle_alpha   85.49238847
_cell_angle_beta   90.00000000
_cell_angle_gamma   90.00000000
_symmetry_Int_Tables_number   1
_chemical_formula_structural   Na2SiO9
_chemical_formula_sum   'Na4 Si2 O18'
_cell_volume   389.87977796
_cell_formula_units_Z   2
loop_
 _symmetry_equiv_pos_site_id
 _symmetry_equiv_pos_as_xyz
  1  'x, y, z'
loop_
 _atom_site_type_symbol
 _atom_site_label
 _atom_site_symmetry_multiplicity
 _atom_site_fract_x
 _atom_site_fract_y
 _atom_site_fract_z
 _atom_site_occupancy
  Na  Na0  1  0.00841100  0.09302300  0.68012300  1
  Na  Na1  1  0.50841100  0.90697700  0.31987700  1
  Na  Na2  1  0.00397100  0.41694700  0.93236900  1
  Na  Na3  1  0.50397100  0.58305300  0.06763100  1
  Si  Si0  1  0.49902400  0.21853800  0.82126800  1
  Si  Si1  1  0.99902400  0.78146200  0.17873200  1
  O  O0  1  0.33590300  0.28728100  0.69989300  1
  O  O1  1  0.83590300  0.71271900  0.30010700  1
  O  O2  1  0.45559400  0.92723600  0.84838200  1
  O  O3  1  0.95559400  0.07276400  0.15161800  1
  O  O4  1  0.37619800  0.32290300  0.93976800  1
  O  O5  1  0.87619800  0.67709700  0.06023200  1
  O  O6  1  0.76481700  0.23506000  0.81130600  1
  O  O7  1  0.26481700  0.76494000  0.18869400  1
  O  O8  1  0.56937300  0.88518300  0.63847000  1
  O  O9  1  0.06937300  0.11481700  0.36153000  1
  O  O10  1  0.92351200  0.48360900  0.56031900  1
  O  O11  1  0.42351200  0.51639100  0.43968100  1
  O  O12  1  0.94986800  0.63026500  0.63013000  1
  O  O13  1  0.44986800  0.36973500  0.36987000  1
  O  O14  1  0.37436900  0.81637600  0.62897100  1
  O  O15  1  0.87436900  0.18362400  0.37102900  1
  O  O16  1  0.26376000  0.85376300  0.80283200  1
  O  O17  1  0.76376000  0.14623700  0.19716800  1
loop_
_geom_bond_atom_site_label_1
_geom_bond_atom_site_label_2
_geom_bond_distance
_geom_bond_site_symmetry_2
Na0 O6 2.225846 1_455
Na0 O0 2.322364 1_555
Na0 O16 2.433882 1_545
Na0 O10 2.728400 1_455
Na0 O14 2.870878 1_545
Na0 O8 2.972068 1_445
Na0 O12 3.038383 1_445
Na1 O7 2.225846 1_555
Na1 O1 2.322364 1_555
Na1 O17 2.433882 1_565
Na1 O11 2.728400 1_555
Na1 O15 2.870878 1_565
Na1 O9 2.972068 1_565
Na1 O13 3.038383 1_565
Na2 O6 2.271003 1_455
Na2 O4 2.292927 1_555
Na2 O5 2.323596 1_456
Na3 O7 2.271003 1_555
Na3 O5 2.292927 1_555
Na3 O4 2.323596 1_554
O0 Si0 1.621791 1_555
O1 Si1 1.621791 1_555
O2 Si0 1.863616 1_565
O3 Si1 1.863616 1_545
O4 Si0 1.615536 1_555
O5 Si1 1.615536 1_555
O6 Si0 1.587504 1_555
O7 Si1 1.587504 1_455
O10 O12 1.232354 1_555
O11 O13 1.232354 1_555
O14 O8 1.245972 1_555
O14 O16 1.951477 1_555
O15 O9 1.245972 1_655
O15 O17 1.951477 1_555
O16 O2 1.333060 1_555
O17 O3 1.333060 1_555
