# generated using pymatgen
data_KMg14Sn
_symmetry_space_group_name_H-M   'P 1'
_cell_length_a   6.48083808
_cell_length_b   6.48083754
_cell_length_c   10.86105586
_cell_angle_alpha   90.00000000
_cell_angle_beta   90.00000000
_cell_angle_gamma   120.00000276
_symmetry_Int_Tables_number   1
_chemical_formula_structural   KMg14Sn
_chemical_formula_sum   'K1 Mg14 Sn1'
_cell_volume   395.06174041
_cell_formula_units_Z   1
loop_
 _symmetry_equiv_pos_site_id
 _symmetry_equiv_pos_as_xyz
  1  'x, y, z'
loop_
 _atom_site_type_symbol
 _atom_site_label
 _atom_site_symmetry_multiplicity
 _atom_site_fract_x
 _atom_site_fract_y
 _atom_site_fract_z
 _atom_site_occupancy
  K  K0  1  0.16666700  0.33333300  0.62500000  1
  Mg  Mg0  1  0.16363584  0.83181742  0.12500000  1
  Mg  Mg1  1  0.17321391  0.83660645  0.62500000  1
  Mg  Mg2  1  0.66818258  0.33636416  0.12500000  1
  Mg  Mg3  1  0.66339355  0.32678609  0.62500000  1
  Mg  Mg4  1  0.66818258  0.83181742  0.12500000  1
  Mg  Mg5  1  0.66339355  0.83660645  0.62500000  1
  Mg  Mg6  1  0.33676230  0.16323770  0.36707306  1
  Mg  Mg7  1  0.33676230  0.16323770  0.88292694  1
  Mg  Mg8  1  0.33676230  0.67352560  0.36707306  1
  Mg  Mg9  1  0.33676230  0.67352560  0.88292694  1
  Mg  Mg10  1  0.82647440  0.16323770  0.36707306  1
  Mg  Mg11  1  0.82647440  0.16323770  0.88292694  1
  Mg  Mg12  1  0.83333300  0.66666700  0.38150887  1
  Mg  Mg13  1  0.83333300  0.66666700  0.86849113  1
  Sn  Sn0  1  0.16666700  0.33333300  0.12500000  1
loop_
_geom_bond_atom_site_label_1
_geom_bond_atom_site_label_2
_geom_bond_distance
_geom_bond_site_symmetry_2
K0 Mg1 3.240627 1_555
K0 Mg5 3.240627 1_555
K0 Mg5 3.240627 1_445
K0 Mg1 3.240627 1_545
K0 Mg3 3.240627 1_455
K0 Mg3 3.240627 1_555
K0 Mg6 3.390163 1_555
K0 Mg7 3.390163 1_555
K0 Mg8 3.390169 1_555
K0 Mg9 3.390169 1_555
K0 Mg10 3.390169 1_455
K0 Mg11 3.390169 1_455
Mg0 Mg2 3.210952 1_455
Mg0 Mg4 3.210952 1_455
Mg0 Mg9 3.221000 1_554
Mg0 Mg8 3.221000 1_555
Mg0 Mg7 3.221007 1_564
Mg0 Mg6 3.221007 1_565
Mg0 Sn0 3.240463 1_565
Mg0 Sn0 3.240463 1_555
Mg0 Mg2 3.269885 1_565
Mg0 Mg4 3.269886 1_555
Mg0 Mg13 3.346388 1_454
Mg0 Mg12 3.346388 1_455
Mg1 Mg3 3.176775 1_565
Mg1 Mg5 3.176775 1_555
Mg1 Mg12 3.260784 1_455
Mg1 Mg13 3.260784 1_455
Mg1 Mg3 3.304063 1_455
Mg1 Mg5 3.304063 1_455
Mg1 Mg8 3.347887 1_555
Mg1 Mg9 3.347887 1_555
Mg1 Mg7 3.347893 1_565
Mg1 Mg6 3.347893 1_565
Mg2 Mg4 3.210952 1_555
Mg2 Mg7 3.221007 1_554
Mg2 Mg6 3.221007 1_555
Mg2 Sn0 3.240464 1_655
Mg2 Sn0 3.240464 1_555
Mg2 Mg4 3.269885 1_545
Mg3 Mg5 3.176775 1_545
Mg3 Mg5 3.304063 1_555
Mg3 Mg6 3.347893 1_555
Mg3 Mg7 3.347893 1_555
Mg4 Mg9 3.221007 1_554
Mg4 Mg8 3.221007 1_555
Mg4 Sn0 3.240463 1_665
Mg4 Sn0 3.240463 1_555
Mg5 Mg8 3.347893 1_555
Mg5 Mg9 3.347893 1_555
Mg6 Mg8 3.173745 1_545
Mg6 Sn0 3.249327 1_555
Mg6 Mg8 3.307093 1_555
Mg7 Mg9 3.173745 1_545
Mg7 Sn0 3.249327 1_556
Mg7 Mg9 3.307093 1_555
Mg8 Sn0 3.249333 1_555
Mg9 Sn0 3.249333 1_556
Mg10 Mg8 3.173745 1_545
Mg10 Mg6 3.173745 1_555
Mg10 Mg2 3.221000 1_555
Mg10 Mg4 3.221007 1_545
Mg10 Mg12 3.244438 1_555
Mg10 Mg12 3.244438 1_545
Mg10 Sn0 3.249333 1_655
Mg10 Mg8 3.307093 1_655
Mg10 Mg6 3.307093 1_655
Mg10 Mg3 3.347887 1_555
Mg10 Mg5 3.347893 1_545
Mg11 Mg9 3.173745 1_545
Mg11 Mg7 3.173745 1_555
Mg11 Mg2 3.221000 1_556
Mg11 Mg4 3.221007 1_546
Mg11 Mg13 3.244438 1_555
Mg11 Mg13 3.244438 1_545
Mg11 Sn0 3.249333 1_656
Mg11 Mg9 3.307093 1_655
Mg11 Mg7 3.307093 1_655
Mg11 Mg3 3.347887 1_555
Mg11 Mg5 3.347893 1_545
Mg12 Mg6 3.244438 1_555
Mg12 Mg6 3.244438 1_665
Mg12 Mg8 3.244438 1_655
Mg12 Mg8 3.244438 1_555
Mg12 Mg5 3.260778 1_555
Mg12 Mg3 3.260784 1_555
Mg12 Mg4 3.346381 1_555
Mg12 Mg2 3.346387 1_555
Mg13 Mg7 3.244438 1_555
Mg13 Mg7 3.244438 1_665
Mg13 Mg9 3.244438 1_655
Mg13 Mg9 3.244438 1_555
Mg13 Mg5 3.260778 1_555
Mg13 Mg3 3.260784 1_555
Mg13 Mg4 3.346381 1_556
Mg13 Mg2 3.346387 1_556
