# generated using pymatgen
data_Tb7RhBr12
_symmetry_space_group_name_H-M   'P 1'
_cell_length_a   9.19129512
_cell_length_b   9.19129512
_cell_length_c   9.19129445
_cell_angle_alpha   106.74217580
_cell_angle_beta   106.74217577
_cell_angle_gamma   106.74217939
_symmetry_Int_Tables_number   1
_chemical_formula_structural   Tb7RhBr12
_chemical_formula_sum   'Tb7 Rh1 Br12'
_cell_volume   651.15422464
_cell_formula_units_Z   1
loop_
 _symmetry_equiv_pos_site_id
 _symmetry_equiv_pos_as_xyz
  1  'x, y, z'
loop_
 _atom_site_type_symbol
 _atom_site_label
 _atom_site_symmetry_multiplicity
 _atom_site_fract_x
 _atom_site_fract_y
 _atom_site_fract_z
 _atom_site_occupancy
  Tb  Tb0  1  0.31007063  0.10067855  0.02151967  1
  Tb  Tb1  1  0.02151967  0.31007063  0.10067855  1
  Tb  Tb2  1  0.10067855  0.02151967  0.31007063  1
  Tb  Tb3  1  0.68992937  0.89932145  0.97848033  1
  Tb  Tb4  1  0.97848033  0.68992937  0.89932145  1
  Tb  Tb5  1  0.89932145  0.97848033  0.68992937  1
  Tb  Tb6  1  0.50000000  0.50000000  0.50000000  1
  Rh  Rh0  1  -0.00000000  0.00000000  0.00000000  1
  Br  Br0  1  0.67588795  0.22389068  0.07221396  1
  Br  Br1  1  0.07221396  0.67588795  0.22389068  1
  Br  Br2  1  0.22389068  0.07221396  0.67588795  1
  Br  Br3  1  0.32411205  0.77610932  0.92778604  1
  Br  Br4  1  0.92778604  0.32411205  0.77610932  1
  Br  Br5  1  0.77610932  0.92778604  0.32411205  1
  Br  Br6  1  0.46497941  0.16703335  0.38665679  1
  Br  Br7  1  0.38665679  0.46497941  0.16703335  1
  Br  Br8  1  0.16703335  0.38665679  0.46497941  1
  Br  Br9  1  0.53502059  0.83296665  0.61334321  1
  Br  Br10  1  0.61334321  0.53502059  0.83296665  1
  Br  Br11  1  0.83296665  0.61334321  0.53502059  1
loop_
_geom_bond_atom_site_label_1
_geom_bond_atom_site_label_2
_geom_bond_distance
_geom_bond_site_symmetry_2
Rh0 Tb5 2.658576 1_444
Rh0 Tb2 2.658576 1_555
Rh0 Tb3 2.658576 1_444
Rh0 Tb0 2.658576 1_555
Rh0 Tb1 2.658576 1_555
Rh0 Tb4 2.658576 1_444
Br0 Tb3 2.909225 1_544
Br0 Tb1 2.956343 1_655
Br0 Tb0 3.066679 1_555
Br1 Tb4 2.909224 1_454
Br1 Tb2 2.956343 1_565
Br1 Tb1 3.066679 1_555
Br2 Tb5 2.909224 1_445
Br2 Tb0 2.956343 1_556
Br2 Tb2 3.066679 1_555
Br3 Tb0 2.909225 1_566
Br3 Tb4 2.956343 1_455
Br3 Tb3 3.066679 1_555
Br4 Tb1 2.909224 1_656
Br4 Tb5 2.956343 1_545
Br4 Tb4 3.066679 1_555
Br5 Tb2 2.909224 1_665
Br5 Tb3 2.956343 1_554
Br5 Tb5 3.066679 1_555
Br6 Tb6 2.820875 1_555
Br6 Tb2 3.002597 1_555
Br6 Tb0 3.038085 1_555
Br7 Tb6 2.820875 1_555
Br7 Tb0 3.002597 1_555
Br7 Tb1 3.038085 1_555
Br8 Tb6 2.820875 1_555
Br8 Tb1 3.002597 1_555
Br8 Tb2 3.038085 1_555
Br9 Tb6 2.820875 1_555
Br9 Tb5 3.002597 1_555
Br9 Tb3 3.038085 1_555
Br10 Tb6 2.820875 1_555
Br10 Tb3 3.002597 1_555
Br10 Tb4 3.038085 1_555
Br11 Tb6 2.820875 1_555
Br11 Tb4 3.002597 1_555
Br11 Tb5 3.038085 1_555
