# generated using pymatgen
data_HoFeNi4
_symmetry_space_group_name_H-M   'P 1'
_cell_length_a   4.90788741
_cell_length_b   4.90788741
_cell_length_c   3.93856400
_cell_angle_alpha   90.00000000
_cell_angle_beta   90.00000000
_cell_angle_gamma   119.99999198
_symmetry_Int_Tables_number   1
_chemical_formula_structural   HoFeNi4
_chemical_formula_sum   'Ho1 Fe1 Ni4'
_cell_volume   82.15949388
_cell_formula_units_Z   1
loop_
 _symmetry_equiv_pos_site_id
 _symmetry_equiv_pos_as_xyz
  1  'x, y, z'
loop_
 _atom_site_type_symbol
 _atom_site_label
 _atom_site_symmetry_multiplicity
 _atom_site_fract_x
 _atom_site_fract_y
 _atom_site_fract_z
 _atom_site_occupancy
  Ho  Ho0  1  0.66666700  0.33333300  0.00000000  1
  Fe  Fe0  1  0.00000000  0.00000000  0.00000000  1
  Ni  Ni0  1  0.33333300  0.66666700  0.00000000  1
  Ni  Ni1  1  0.66608700  0.83304400  0.50000000  1
  Ni  Ni2  1  0.16695600  0.83304400  0.50000000  1
  Ni  Ni3  1  0.16695600  0.33391300  0.50000000  1
loop_
_geom_bond_atom_site_label_1
_geom_bond_atom_site_label_2
_geom_bond_distance
_geom_bond_site_symmetry_2
Ho0 Ni0 2.833568 1_545
Ho0 Ni0 2.833568 1_655
Ho0 Ni0 2.833576 1_555
Ho0 Ni3 3.146410 1_654
Ho0 Ni3 3.146410 1_655
Ho0 Ni1 3.146410 1_544
Ho0 Ni1 3.146410 1_545
Ho0 Ni2 3.146414 1_655
Ho0 Ni2 3.146414 1_654
Ho0 Ni2 3.146414 1_544
Ho0 Ni2 3.146414 1_545
Ho0 Ni3 3.146417 1_554
Ho0 Ni1 3.146417 1_554
Ho0 Ni3 3.146417 1_555
Ho0 Ni1 3.146417 1_555
Fe0 Ni2 2.427412 1_544
Fe0 Ni2 2.427412 1_545
Fe0 Ni3 2.427414 1_555
Fe0 Ni1 2.427414 1_444
Fe0 Ni1 2.427414 1_445
Fe0 Ni3 2.427414 1_554
Fe0 Ni0 2.833567 1_545
Fe0 Ho0 2.833567 1_455
Fe0 Ni0 2.833572 1_555
Fe0 Ni0 2.833572 1_445
Fe0 Ho0 2.833572 1_445
Fe0 Ho0 2.833572 1_555
Ni0 Ni2 2.424537 1_554
Ni0 Ni2 2.424537 1_555
Ni0 Ni3 2.424537 1_554
Ni0 Ni1 2.424537 1_554
Ni0 Ni3 2.424537 1_555
Ni0 Ni1 2.424537 1_555
Ni1 Ni2 2.449679 1_555
Ni1 Ni3 2.449679 1_555
Ni1 Ni2 2.458209 1_655
Ni1 Ni3 2.458209 1_665
Ni2 Ni3 2.449679 1_555
Ni2 Ni3 2.458209 1_565
