# generated using pymatgen
data_Eu5Ga3
_symmetry_space_group_name_H-M   'P 1'
_cell_length_a   9.28511399
_cell_length_b   9.28511399
_cell_length_c   6.93185611
_cell_angle_alpha   88.69209437
_cell_angle_beta   88.69209437
_cell_angle_gamma   120.37362879
_symmetry_Int_Tables_number   1
_chemical_formula_structural   Eu5Ga3
_chemical_formula_sum   'Eu10 Ga6'
_cell_volume   515.04959077
_cell_formula_units_Z   2
loop_
 _symmetry_equiv_pos_site_id
 _symmetry_equiv_pos_as_xyz
  1  'x, y, z'
loop_
 _atom_site_type_symbol
 _atom_site_label
 _atom_site_symmetry_multiplicity
 _atom_site_fract_x
 _atom_site_fract_y
 _atom_site_fract_z
 _atom_site_occupancy
  Eu  Eu0  1  0.85507600  0.14492400  0.50000000  1
  Eu  Eu1  1  0.14492400  0.85507600  0.50000000  1
  Eu  Eu2  1  0.81596100  0.18403900  0.00000000  1
  Eu  Eu3  1  0.18403800  0.81596200  0.00000000  1
  Eu  Eu4  1  0.50704800  0.75670000  0.26088100  1
  Eu  Eu5  1  0.49295200  0.24330000  0.73911900  1
  Eu  Eu6  1  0.24330000  0.49295200  0.73911900  1
  Eu  Eu7  1  0.75670000  0.50704800  0.26088100  1
  Eu  Eu8  1  0.26126000  0.26126000  0.23008300  1
  Eu  Eu9  1  0.73874000  0.73874000  0.76991700  1
  Ga  Ga0  1  0.91561700  0.91561700  0.16963200  1
  Ga  Ga1  1  0.08438300  0.08438300  0.83036800  1
  Ga  Ga2  1  0.50253900  0.09635500  0.30327700  1
  Ga  Ga3  1  0.49746100  0.90364500  0.69672300  1
  Ga  Ga4  1  0.90364500  0.49746100  0.69672300  1
  Ga  Ga5  1  0.09635500  0.50253900  0.30327700  1
loop_
_geom_bond_atom_site_label_1
_geom_bond_atom_site_label_2
_geom_bond_distance
_geom_bond_site_symmetry_2
Eu0 Ga3 3.167848 1_545
Eu0 Ga5 3.167848 1_655
Eu0 Ga1 3.386413 1_655
Eu0 Ga0 3.386413 1_545
Eu0 Ga4 3.393634 1_555
Eu0 Ga2 3.393634 1_555
Eu1 Ga4 3.167848 1_455
Eu1 Ga2 3.167848 1_565
Eu1 Ga1 3.386413 1_565
Eu1 Ga0 3.386413 1_455
Eu1 Ga5 3.393634 1_555
Eu1 Ga3 3.393634 1_555
Eu2 Ga0 3.270879 1_545
Eu2 Ga1 3.270879 1_654
Eu2 Ga2 3.286026 1_555
Eu2 Ga4 3.286026 1_554
Eu2 Ga3 3.562434 1_544
Eu2 Ga5 3.562434 1_655
Eu3 Ga0 3.270865 1_455
Eu3 Ga1 3.270865 1_564
Eu3 Ga5 3.286035 1_555
Eu3 Ga3 3.286035 1_554
Eu3 Ga2 3.562435 1_565
Eu3 Ga4 3.562435 1_454
Eu4 Ga2 3.195221 1_565
Eu4 Ga5 3.318682 1_555
Eu4 Ga0 3.340043 1_555
Eu4 Ga3 3.360930 1_555
Eu5 Ga3 3.195221 1_545
Eu5 Ga4 3.318682 1_555
Eu5 Ga1 3.340043 1_555
Eu5 Ga2 3.360930 1_555
Eu6 Ga4 3.195221 1_455
Eu6 Ga3 3.318682 1_555
Eu6 Ga1 3.340043 1_555
Eu6 Ga5 3.360930 1_555
Eu7 Ga5 3.195221 1_655
Eu7 Ga2 3.318682 1_555
Eu7 Ga0 3.340043 1_555
Eu7 Ga4 3.360930 1_555
Eu8 Ga0 3.237606 1_445
Eu8 Ga1 3.280157 1_554
Eu8 Ga5 3.332597 1_555
Eu8 Ga2 3.332597 1_555
Eu9 Ga1 3.237606 1_665
Eu9 Ga0 3.280157 1_556
Eu9 Ga4 3.332597 1_555
Eu9 Ga3 3.332597 1_555
Ga0 Ga1 2.760799 1_664
