# generated using pymatgen
data_CaSb4O9
_symmetry_space_group_name_H-M   'P 1'
_cell_length_a   5.51707100
_cell_length_b   8.93420062
_cell_length_c   9.83220220
_cell_angle_alpha   95.46459883
_cell_angle_beta   98.51408223
_cell_angle_gamma   92.53304413
_symmetry_Int_Tables_number   1
_chemical_formula_structural   CaSb4O9
_chemical_formula_sum   'Ca2 Sb8 O18'
_cell_volume   476.27895528
_cell_formula_units_Z   2
loop_
 _symmetry_equiv_pos_site_id
 _symmetry_equiv_pos_as_xyz
  1  'x, y, z'
loop_
 _atom_site_type_symbol
 _atom_site_label
 _atom_site_symmetry_multiplicity
 _atom_site_fract_x
 _atom_site_fract_y
 _atom_site_fract_z
 _atom_site_occupancy
  Ca  Ca0  1  0.19178600  0.26484500  0.23097200  1
  Ca  Ca1  1  0.80821400  0.73515500  0.76902800  1
  Sb  Sb0  1  0.75936600  0.57708400  0.43657800  1
  Sb  Sb1  1  0.28035300  0.80890700  0.50359700  1
  Sb  Sb2  1  0.61119400  0.34727100  0.97370700  1
  Sb  Sb3  1  0.32950200  0.02383300  0.84709100  1
  Sb  Sb4  1  0.67049800  0.97616700  0.15290900  1
  Sb  Sb5  1  0.71964700  0.19109300  0.49640300  1
  Sb  Sb6  1  0.24063400  0.42291600  0.56342200  1
  Sb  Sb7  1  0.38880600  0.65272900  0.02629300  1
  O  O0  1  0.56744500  0.76815400  0.19397300  1
  O  O1  1  0.43255500  0.23184600  0.80602700  1
  O  O2  1  0.06059300  0.67247500  0.96476100  1
  O  O3  1  0.89401400  0.48178000  0.61220500  1
  O  O4  1  0.99453200  0.98299200  0.83564300  1
  O  O5  1  0.95696900  0.77458500  0.56188700  1
  O  O6  1  0.93940700  0.32752500  0.03523900  1
  O  O7  1  0.10598600  0.51822000  0.38779500  1
  O  O8  1  0.00546800  0.01700800  0.16435700  1
  O  O9  1  0.04303100  0.22541500  0.43811300  1
  O  O10  1  0.55626600  0.06066000  0.31891600  1
  O  O11  1  0.47348000  0.13641200  0.04655200  1
  O  O12  1  0.53587900  0.35296000  0.40544000  1
  O  O13  1  0.43350800  0.45423800  0.11164000  1
  O  O14  1  0.56649200  0.54576200  0.88836000  1
  O  O15  1  0.52652000  0.86358800  0.95344800  1
  O  O16  1  0.46412100  0.64704000  0.59456000  1
  O  O17  1  0.44373400  0.93934000  0.68108400  1
loop_
_geom_bond_atom_site_label_1
_geom_bond_atom_site_label_2
_geom_bond_distance
_geom_bond_site_symmetry_2
Ca0 O6 2.331679 1_455
Ca0 O9 2.356185 1_555
Ca0 O8 2.389909 1_555
Ca0 O12 2.410945 1_555
Ca0 O13 2.580738 1_555
Ca0 O7 2.715138 1_555
Ca0 O11 2.759640 1_555
Ca0 O10 2.868602 1_555
Ca1 O2 2.331679 1_655
Ca1 O5 2.356185 1_555
Ca1 O4 2.389909 1_555
Ca1 O16 2.410945 1_555
Ca1 O14 2.580738 1_555
Ca1 O3 2.715138 1_555
Ca1 O15 2.759640 1_555
Ca1 O17 2.868602 1_555
O0 Sb7 1.964201 1_555
O0 Sb4 2.014327 1_555
O1 Sb2 1.964201 1_555
O1 Sb3 2.014327 1_555
O2 Sb7 1.843970 1_556
O3 Sb0 2.052995 1_555
O3 Sb6 2.115674 1_655
O4 Sb3 1.852590 1_665
O5 Sb1 1.973198 1_655
O5 Sb0 2.199587 1_555
O6 Sb2 1.843970 1_554
O7 Sb6 2.052995 1_555
O7 Sb0 2.115674 1_455
O8 Sb4 1.852590 1_445
O9 Sb5 1.973198 1_455
O9 Sb6 2.199587 1_555
O10 Sb4 1.934715 1_545
O10 Sb5 2.066361 1_555
O11 Sb4 2.100191 1_545
O11 Sb3 2.140351 1_554
O11 Sb2 2.220531 1_554
O12 Sb5 2.006640 1_555
O12 Sb0 2.275241 1_555
O12 Sb6 2.472035 1_555
O13 Sb2 1.985739 1_554
O13 Sb7 2.042205 1_555
O14 Sb7 1.985739 1_556
O14 Sb2 2.042205 1_555
O15 Sb3 2.100191 1_565
O15 Sb4 2.140351 1_556
O15 Sb7 2.220531 1_556
O16 Sb1 2.006640 1_555
O16 Sb6 2.275241 1_555
O16 Sb0 2.472035 1_555
O17 Sb3 1.934715 1_565
O17 Sb1 2.066361 1_555
