# generated using pymatgen
data_CeSi3Ir
_symmetry_space_group_name_H-M   'P 1'
_cell_length_a   5.76073572
_cell_length_b   5.76073572
_cell_length_c   5.76073572
_cell_angle_alpha   136.83561703
_cell_angle_beta   136.83561703
_cell_angle_gamma   62.69106985
_symmetry_Int_Tables_number   1
_chemical_formula_structural   CeSi3Ir
_chemical_formula_sum   'Ce1 Si3 Ir1'
_cell_volume   88.36541769
_cell_formula_units_Z   1
loop_
 _symmetry_equiv_pos_site_id
 _symmetry_equiv_pos_as_xyz
  1  'x, y, z'
loop_
 _atom_site_type_symbol
 _atom_site_label
 _atom_site_symmetry_multiplicity
 _atom_site_fract_x
 _atom_site_fract_y
 _atom_site_fract_z
 _atom_site_occupancy
  Ce  Ce0  1  0.00040696  0.00040696  -0.00000000  1
  Si  Si0  1  0.41721908  0.41721908  0.00000000  1
  Si  Si1  1  0.26694439  0.76694439  0.50000000  1
  Si  Si2  1  0.76694439  0.26694439  0.50000000  1
  Ir  Ir0  1  0.65748519  0.65748519  -0.00000000  1
loop_
_geom_bond_atom_site_label_1
_geom_bond_atom_site_label_2
_geom_bond_distance
_geom_bond_site_symmetry_2
Ce0 Si0 3.106507 1_556
Ce0 Si0 3.106507 1_444
Ce0 Si0 3.106507 1_455
Ce0 Si0 3.106507 1_545
Ce0 Si1 3.125298 1_444
Ce0 Si1 3.125298 1_545
Ce0 Si2 3.125298 1_455
Ce0 Si2 3.125298 1_444
Ce0 Si1 3.371748 1_544
Ce0 Si1 3.371748 1_555
Ce0 Si2 3.371748 1_555
Ce0 Si2 3.371748 1_454
Ce0 Ir0 3.371842 1_545
Ce0 Ir0 3.371842 1_455
Ce0 Ir0 3.371842 1_444
Ce0 Ir0 3.371842 1_556
Ce0 Ir0 3.374303 1_445
Si0 Si1 2.583927 1_555
Si0 Si2 2.583927 1_454
Si0 Si2 2.583927 1_555
Si0 Si1 2.583927 1_544
Ir0 Si0 2.364186 1_555
Ir0 Si2 2.377024 1_554
Ir0 Si1 2.377024 1_554
Ir0 Si1 2.377024 1_655
Ir0 Si2 2.377024 1_565
