# generated using pymatgen
data_SrMg6C
_symmetry_space_group_name_H-M   'P 1'
_cell_length_a   7.12819600
_cell_length_b   12.43329400
_cell_length_c   34.07953200
_cell_angle_alpha   90.00000000
_cell_angle_beta   90.00000000
_cell_angle_gamma   90.00000000
_symmetry_Int_Tables_number   1
_chemical_formula_structural   SrMg6C
_chemical_formula_sum   'Sr16 Mg96 C16'
_cell_volume   3020.36520207
_cell_formula_units_Z   16
loop_
 _symmetry_equiv_pos_site_id
 _symmetry_equiv_pos_as_xyz
  1  'x, y, z'
loop_
 _atom_site_type_symbol
 _atom_site_label
 _atom_site_symmetry_multiplicity
 _atom_site_fract_x
 _atom_site_fract_y
 _atom_site_fract_z
 _atom_site_occupancy
  Sr  Sr0_0  1  0.00000000  0.25000000  0.14211850  1
  Sr  Sr0_1  1  0.00000000  0.25000000  0.64211850  1
  Sr  Sr0_2  1  0.00000000  0.75000000  0.14211850  1
  Sr  Sr0_3  1  0.00000000  0.75000000  0.64211850  1
  Sr  Sr0_4  1  0.50000000  0.25000000  0.14211850  1
  Sr  Sr0_5  1  0.50000000  0.25000000  0.64211850  1
  Sr  Sr0_6  1  0.50000000  0.75000000  0.14211850  1
  Sr  Sr0_7  1  0.50000000  0.75000000  0.64211850  1
  Sr  Sr1_0  1  0.00000000  0.00000000  0.39211850  1
  Sr  Sr1_1  1  0.00000000  0.00000000  0.89211850  1
  Sr  Sr1_2  1  0.00000000  0.50000000  0.39211850  1
  Sr  Sr1_3  1  0.00000000  0.50000000  0.89211850  1
  Sr  Sr1_4  1  0.50000000  0.00000000  0.39211850  1
  Sr  Sr1_5  1  0.50000000  0.00000000  0.89211850  1
  Sr  Sr1_6  1  0.50000000  0.50000000  0.39211850  1
  Sr  Sr1_7  1  0.50000000  0.50000000  0.89211850  1
  Mg  Mg0_0  1  0.00000000  0.14107600  0.04603350  1
  Mg  Mg0_1  1  0.00000000  0.14107600  0.54603350  1
  Mg  Mg0_2  1  0.00000000  0.64107600  0.04603350  1
  Mg  Mg0_3  1  0.00000000  0.64107600  0.54603350  1
  Mg  Mg0_4  1  0.50000000  0.14107600  0.04603350  1
  Mg  Mg0_5  1  0.50000000  0.14107600  0.54603350  1
  Mg  Mg0_6  1  0.50000000  0.64107600  0.04603350  1
  Mg  Mg0_7  1  0.50000000  0.64107600  0.54603350  1
  Mg  Mg1_0  1  0.00000000  0.35892400  0.04603350  1
  Mg  Mg1_1  1  0.00000000  0.35892400  0.54603350  1
  Mg  Mg1_2  1  0.00000000  0.85892400  0.04603350  1
  Mg  Mg1_3  1  0.00000000  0.85892400  0.54603350  1
  Mg  Mg1_4  1  0.50000000  0.35892400  0.04603350  1
  Mg  Mg1_5  1  0.50000000  0.35892400  0.54603350  1
  Mg  Mg1_6  1  0.50000000  0.85892400  0.04603350  1
  Mg  Mg1_7  1  0.50000000  0.85892400  0.54603350  1
  Mg  Mg2_0  1  0.00000000  0.00000000  0.17279200  1
  Mg  Mg2_1  1  0.00000000  0.00000000  0.67279200  1
  Mg  Mg2_2  1  0.00000000  0.50000000  0.17279200  1
  Mg  Mg2_3  1  0.00000000  0.50000000  0.67279200  1
  Mg  Mg2_4  1  0.50000000  0.00000000  0.17279200  1
  Mg  Mg2_5  1  0.50000000  0.00000000  0.67279200  1
  Mg  Mg2_6  1  0.50000000  0.50000000  0.17279200  1
  Mg  Mg2_7  1  0.50000000  0.50000000  0.67279200  1
  Mg  Mg3_0  1  0.25000000  0.37602750  0.22892500  1
  Mg  Mg3_1  1  0.25000000  0.37602750  0.72892500  1
  Mg  Mg3_2  1  0.25000000  0.87602750  0.22892500  1
  Mg  Mg3_3  1  0.25000000  0.87602750  0.72892500  1
  Mg  Mg3_4  1  0.75000000  0.37602750  0.22892500  1
  Mg  Mg3_5  1  0.75000000  0.37602750  0.72892500  1
  Mg  Mg3_6  1  0.75000000  0.87602750  0.22892500  1
  Mg  Mg3_7  1  0.75000000  0.87602750  0.72892500  1
  Mg  Mg4_0  1  0.25000000  0.12397250  0.22892500  1
  Mg  Mg4_1  1  0.25000000  0.12397250  0.72892500  1
  Mg  Mg4_2  1  0.25000000  0.62397250  0.22892500  1
  Mg  Mg4_3  1  0.25000000  0.62397250  0.72892500  1
  Mg  Mg4_4  1  0.75000000  0.12397250  0.22892500  1
  Mg  Mg4_5  1  0.75000000  0.12397250  0.72892500  1
  Mg  Mg4_6  1  0.75000000  0.62397250  0.22892500  1
  Mg  Mg4_7  1  0.75000000  0.62397250  0.72892500  1
  Mg  Mg5_0  1  0.25000000  0.00000000  0.10273250  1
  Mg  Mg5_1  1  0.25000000  0.00000000  0.60273250  1
  Mg  Mg5_2  1  0.25000000  0.50000000  0.10273250  1
  Mg  Mg5_3  1  0.25000000  0.50000000  0.60273250  1
  Mg  Mg5_4  1  0.75000000  0.00000000  0.10273250  1
  Mg  Mg5_5  1  0.75000000  0.00000000  0.60273250  1
  Mg  Mg5_6  1  0.75000000  0.50000000  0.10273250  1
  Mg  Mg5_7  1  0.75000000  0.50000000  0.60273250  1
  Mg  Mg6_0  1  0.00000000  0.39107600  0.29603350  1
  Mg  Mg6_1  1  0.00000000  0.39107600  0.79603350  1
  Mg  Mg6_2  1  0.00000000  0.89107600  0.29603350  1
  Mg  Mg6_3  1  0.00000000  0.89107600  0.79603350  1
  Mg  Mg6_4  1  0.50000000  0.39107600  0.29603350  1
  Mg  Mg6_5  1  0.50000000  0.39107600  0.79603350  1
  Mg  Mg6_6  1  0.50000000  0.89107600  0.29603350  1
  Mg  Mg6_7  1  0.50000000  0.89107600  0.79603350  1
  Mg  Mg7_0  1  0.00000000  0.10892400  0.29603350  1
  Mg  Mg7_1  1  0.00000000  0.10892400  0.79603350  1
  Mg  Mg7_2  1  0.00000000  0.60892400  0.29603350  1
  Mg  Mg7_3  1  0.00000000  0.60892400  0.79603350  1
  Mg  Mg7_4  1  0.50000000  0.10892400  0.29603350  1
  Mg  Mg7_5  1  0.50000000  0.10892400  0.79603350  1
  Mg  Mg7_6  1  0.50000000  0.60892400  0.29603350  1
  Mg  Mg7_7  1  0.50000000  0.60892400  0.79603350  1
  Mg  Mg8_0  1  0.00000000  0.25000000  0.42279200  1
  Mg  Mg8_1  1  0.00000000  0.25000000  0.92279200  1
  Mg  Mg8_2  1  0.00000000  0.75000000  0.42279200  1
  Mg  Mg8_3  1  0.00000000  0.75000000  0.92279200  1
  Mg  Mg8_4  1  0.50000000  0.25000000  0.42279200  1
  Mg  Mg8_5  1  0.50000000  0.25000000  0.92279200  1
  Mg  Mg8_6  1  0.50000000  0.75000000  0.42279200  1
  Mg  Mg8_7  1  0.50000000  0.75000000  0.92279200  1
  Mg  Mg9_0  1  0.25000000  0.12602750  0.47892500  1
  Mg  Mg9_1  1  0.25000000  0.12602750  0.97892500  1
  Mg  Mg9_2  1  0.25000000  0.62602750  0.47892500  1
  Mg  Mg9_3  1  0.25000000  0.62602750  0.97892500  1
  Mg  Mg9_4  1  0.75000000  0.12602750  0.47892500  1
  Mg  Mg9_5  1  0.75000000  0.12602750  0.97892500  1
  Mg  Mg9_6  1  0.75000000  0.62602750  0.47892500  1
  Mg  Mg9_7  1  0.75000000  0.62602750  0.97892500  1
  Mg  Mg10_0  1  0.25000000  0.37397250  0.47892500  1
  Mg  Mg10_1  1  0.25000000  0.37397250  0.97892500  1
  Mg  Mg10_2  1  0.25000000  0.87397250  0.47892500  1
  Mg  Mg10_3  1  0.25000000  0.87397250  0.97892500  1
  Mg  Mg10_4  1  0.75000000  0.37397250  0.47892500  1
  Mg  Mg10_5  1  0.75000000  0.37397250  0.97892500  1
  Mg  Mg10_6  1  0.75000000  0.87397250  0.47892500  1
  Mg  Mg10_7  1  0.75000000  0.87397250  0.97892500  1
  Mg  Mg11_0  1  0.25000000  0.25000000  0.35273250  1
  Mg  Mg11_1  1  0.25000000  0.25000000  0.85273250  1
  Mg  Mg11_2  1  0.25000000  0.75000000  0.35273250  1
  Mg  Mg11_3  1  0.25000000  0.75000000  0.85273250  1
  Mg  Mg11_4  1  0.75000000  0.25000000  0.35273250  1
  Mg  Mg11_5  1  0.75000000  0.25000000  0.85273250  1
  Mg  Mg11_6  1  0.75000000  0.75000000  0.35273250  1
  Mg  Mg11_7  1  0.75000000  0.75000000  0.85273250  1
  C  C0_0  1  0.25000000  0.25000000  0.03243950  1
  C  C0_1  1  0.25000000  0.25000000  0.53243950  1
  C  C0_2  1  0.25000000  0.75000000  0.03243950  1
  C  C0_3  1  0.25000000  0.75000000  0.53243950  1
  C  C0_4  1  0.75000000  0.25000000  0.03243950  1
  C  C0_5  1  0.75000000  0.25000000  0.53243950  1
  C  C0_6  1  0.75000000  0.75000000  0.03243950  1
  C  C0_7  1  0.75000000  0.75000000  0.53243950  1
  C  C1_0  1  0.25000000  0.00000000  0.28243950  1
  C  C1_1  1  0.25000000  0.00000000  0.78243950  1
  C  C1_2  1  0.25000000  0.50000000  0.28243950  1
  C  C1_3  1  0.25000000  0.50000000  0.78243950  1
  C  C1_4  1  0.75000000  0.00000000  0.28243950  1
  C  C1_5  1  0.75000000  0.00000000  0.78243950  1
  C  C1_6  1  0.75000000  0.50000000  0.28243950  1
  C  C1_7  1  0.75000000  0.50000000  0.78243950  1
loop_
_geom_bond_atom_site_label_1
_geom_bond_atom_site_label_2
_geom_bond_distance
_geom_bond_site_symmetry_2
Sr0_0 Sr0_4 3.564098 1_455
Sr0_0 Sr0_4 3.564098 1_555
Sr0_1 Sr0_5 3.564098 1_555
Sr0_1 Sr0_5 3.564098 1_455
Sr0_2 Sr0_6 3.564098 1_455
Sr0_2 Sr0_6 3.564098 1_555
Sr0_3 Sr0_7 3.564098 1_455
Sr0_3 Sr0_7 3.564098 1_555
Sr1_0 Sr1_4 3.564098 1_555
Sr1_0 Sr1_4 3.564098 1_455
Sr1_1 Sr1_5 3.564098 1_455
Sr1_1 Sr1_5 3.564098 1_555
Sr1_2 Sr1_6 3.564098 1_555
Sr1_2 Sr1_6 3.564098 1_455
Sr1_3 Sr1_7 3.564098 1_555
Sr1_3 Sr1_7 3.564098 1_455
Mg0_0 Mg5_4 3.160070 1_455
Mg0_0 Mg5_0 3.160070 1_555
Mg0_0 Sr0_0 3.543536 1_555
Mg0_1 Mg5_5 3.160070 1_455
Mg0_1 Mg5_1 3.160070 1_555
Mg0_1 Sr0_1 3.543536 1_555
Mg0_2 Mg5_6 3.160070 1_455
Mg0_2 Mg5_2 3.160070 1_555
Mg0_2 Sr0_2 3.543536 1_555
Mg0_3 Mg5_7 3.160070 1_455
Mg0_3 Mg5_3 3.160070 1_555
Mg0_3 Sr0_3 3.543536 1_555
Mg0_4 Mg5_0 3.160070 1_555
Mg0_4 Mg5_4 3.160070 1_555
Mg0_4 Sr0_4 3.543536 1_555
Mg0_5 Mg5_1 3.160070 1_555
Mg0_5 Mg5_5 3.160070 1_555
Mg0_5 Sr0_5 3.543536 1_555
Mg0_6 Mg5_2 3.160070 1_555
Mg0_6 Mg5_6 3.160070 1_555
Mg0_6 Sr0_6 3.543536 1_555
Mg0_7 Mg5_3 3.160070 1_555
Mg0_7 Mg5_7 3.160070 1_555
Mg0_7 Sr0_7 3.543536 1_555
Mg1_0 Mg5_6 3.160070 1_455
Mg1_0 Mg5_2 3.160070 1_555
Mg1_0 Sr0_0 3.543536 1_555
Mg1_1 Mg5_7 3.160070 1_455
Mg1_1 Mg5_3 3.160070 1_555
Mg1_1 Sr0_1 3.543536 1_555
Mg1_2 Mg5_4 3.160070 1_465
Mg1_2 Mg5_0 3.160070 1_565
Mg1_2 Sr0_2 3.543536 1_555
Mg1_3 Mg5_5 3.160070 1_465
Mg1_3 Mg5_1 3.160070 1_565
Mg1_3 Sr0_3 3.543536 1_555
Mg1_4 Mg5_2 3.160070 1_555
Mg1_4 Mg5_6 3.160070 1_555
Mg1_4 Sr0_4 3.543536 1_555
Mg1_5 Mg5_3 3.160070 1_555
Mg1_5 Mg5_7 3.160070 1_555
Mg1_5 Sr0_5 3.543536 1_555
Mg1_6 Mg5_0 3.160070 1_565
Mg1_6 Mg5_4 3.160070 1_565
Mg1_6 Sr0_6 3.543536 1_555
Mg1_7 Mg5_1 3.160070 1_565
Mg1_7 Mg5_5 3.160070 1_565
Mg1_7 Sr0_7 3.543536 1_555
Mg2_0 Mg5_4 2.979313 1_455
Mg2_0 Mg5_0 2.979313 1_555
Mg2_0 Mg4_4 3.034977 1_455
Mg2_0 Mg4_0 3.034977 1_555
Mg2_0 Mg3_6 3.034977 1_445
Mg2_0 Mg3_2 3.034977 1_545
Mg2_0 Sr0_2 3.279391 1_545
Mg2_0 Sr0_0 3.279391 1_555
Mg2_1 Mg5_5 2.979313 1_455
Mg2_1 Mg5_1 2.979313 1_555
Mg2_1 Mg4_5 3.034977 1_455
Mg2_1 Mg4_1 3.034977 1_555
Mg2_1 Mg3_7 3.034977 1_445
Mg2_1 Mg3_3 3.034977 1_545
Mg2_1 Sr0_3 3.279391 1_545
Mg2_1 Sr0_1 3.279391 1_555
Mg2_2 Mg5_6 2.979313 1_455
Mg2_2 Mg5_2 2.979313 1_555
Mg2_2 Mg4_6 3.034977 1_455
Mg2_2 Mg4_2 3.034977 1_555
Mg2_2 Mg3_4 3.034977 1_455
Mg2_2 Mg3_0 3.034977 1_555
Mg2_2 Sr0_2 3.279391 1_555
Mg2_2 Sr0_0 3.279391 1_555
Mg2_3 Mg5_7 2.979313 1_455
Mg2_3 Mg5_3 2.979313 1_555
Mg2_3 Mg4_7 3.034977 1_455
Mg2_3 Mg4_3 3.034977 1_555
Mg2_3 Mg3_5 3.034977 1_455
Mg2_3 Mg3_1 3.034977 1_555
Mg2_3 Sr0_3 3.279391 1_555
Mg2_3 Sr0_1 3.279391 1_555
Mg2_4 Mg5_0 2.979313 1_555
Mg2_4 Mg5_4 2.979313 1_555
Mg2_4 Mg4_0 3.034977 1_555
Mg2_4 Mg4_4 3.034977 1_555
Mg2_4 Mg3_2 3.034977 1_545
Mg2_4 Mg3_6 3.034977 1_545
Mg2_4 Sr0_4 3.279391 1_555
Mg2_4 Sr0_6 3.279391 1_545
Mg2_5 Mg5_1 2.979313 1_555
Mg2_5 Mg5_5 2.979313 1_555
Mg2_5 Mg4_1 3.034977 1_555
Mg2_5 Mg4_5 3.034977 1_555
Mg2_5 Mg3_3 3.034977 1_545
Mg2_5 Mg3_7 3.034977 1_545
Mg2_5 Sr0_7 3.279391 1_545
Mg2_5 Sr0_5 3.279391 1_555
Mg2_6 Mg5_2 2.979313 1_555
Mg2_6 Mg5_6 2.979313 1_555
Mg2_6 Mg4_2 3.034977 1_555
Mg2_6 Mg4_6 3.034977 1_555
Mg2_6 Mg3_0 3.034977 1_555
Mg2_6 Mg3_4 3.034977 1_555
Mg2_6 Sr0_6 3.279391 1_555
Mg2_6 Sr0_4 3.279391 1_555
Mg2_7 Mg5_3 2.979313 1_555
Mg2_7 Mg5_7 2.979313 1_555
Mg2_7 Mg4_3 3.034977 1_555
Mg2_7 Mg4_7 3.034977 1_555
Mg2_7 Mg3_1 3.034977 1_555
Mg2_7 Mg3_5 3.034977 1_555
Mg2_7 Sr0_7 3.279391 1_555
Mg2_7 Sr0_5 3.279391 1_555
Mg3_0 Sr0_0 3.792450 1_555
Mg3_0 Sr0_4 3.792450 1_555
Mg3_1 Sr0_1 3.792450 1_555
Mg3_1 Sr0_5 3.792450 1_555
Mg3_2 Sr0_6 3.792450 1_555
Mg3_2 Sr0_2 3.792450 1_555
Mg3_3 Sr0_3 3.792450 1_555
Mg3_3 Sr0_7 3.792450 1_555
Mg3_4 Sr0_0 3.792450 1_655
Mg3_4 Sr0_4 3.792450 1_555
Mg3_5 Sr0_1 3.792450 1_655
Mg3_5 Sr0_5 3.792450 1_555
Mg3_6 Sr0_2 3.792450 1_655
Mg3_6 Sr0_6 3.792450 1_555
Mg3_7 Sr0_3 3.792450 1_655
Mg3_7 Sr0_7 3.792450 1_555
Mg4_0 Sr0_0 3.792450 1_555
Mg4_0 Sr0_4 3.792450 1_555
Mg4_1 Sr0_1 3.792450 1_555
Mg4_1 Sr0_5 3.792450 1_555
Mg4_2 Sr0_6 3.792450 1_555
Mg4_2 Sr0_2 3.792450 1_555
Mg4_3 Sr0_7 3.792450 1_555
Mg4_3 Sr0_3 3.792450 1_555
Mg4_4 Sr0_0 3.792450 1_655
Mg4_4 Sr0_4 3.792450 1_555
Mg4_5 Sr0_1 3.792450 1_655
Mg4_5 Sr0_5 3.792450 1_555
Mg4_6 Sr0_2 3.792450 1_655
Mg4_6 Sr0_6 3.792450 1_555
Mg4_7 Sr0_3 3.792450 1_655
Mg4_7 Sr0_7 3.792450 1_555
Mg5_0 Sr0_2 3.826098 1_545
Mg5_0 Sr0_0 3.826098 1_555
Mg5_0 Sr0_4 3.826098 1_555
Mg5_0 Sr0_6 3.826098 1_545
Mg5_1 Sr0_1 3.826098 1_555
Mg5_1 Sr0_7 3.826098 1_545
Mg5_1 Sr0_3 3.826098 1_545
Mg5_1 Sr0_5 3.826098 1_555
Mg5_2 Sr0_2 3.826098 1_555
Mg5_2 Sr0_0 3.826098 1_555
Mg5_2 Sr0_6 3.826098 1_555
Mg5_2 Sr0_4 3.826098 1_555
Mg5_3 Sr0_1 3.826098 1_555
Mg5_3 Sr0_7 3.826098 1_555
Mg5_3 Sr0_5 3.826098 1_555
Mg5_3 Sr0_3 3.826098 1_555
Mg5_4 Sr0_2 3.826098 1_645
Mg5_4 Sr0_0 3.826098 1_655
Mg5_4 Sr0_4 3.826098 1_555
Mg5_4 Sr0_6 3.826098 1_545
Mg5_5 Sr0_3 3.826098 1_645
Mg5_5 Sr0_1 3.826098 1_655
Mg5_5 Sr0_7 3.826098 1_545
Mg5_5 Sr0_5 3.826098 1_555
Mg5_6 Sr0_0 3.826098 1_655
Mg5_6 Sr0_2 3.826098 1_655
Mg5_6 Sr0_4 3.826098 1_555
Mg5_6 Sr0_6 3.826098 1_555
Mg5_7 Sr0_3 3.826098 1_655
Mg5_7 Sr0_1 3.826098 1_655
Mg5_7 Sr0_7 3.826098 1_555
Mg5_7 Sr0_5 3.826098 1_555
Mg6_0 Sr1_2 3.543536 1_555
Mg6_1 Sr1_3 3.543536 1_555
Mg6_2 Sr1_0 3.543536 1_565
Mg6_3 Sr1_1 3.543536 1_565
Mg6_4 Sr1_6 3.543536 1_555
Mg6_5 Sr1_7 3.543536 1_555
Mg6_6 Sr1_4 3.543536 1_565
Mg6_7 Sr1_5 3.543536 1_565
Mg7_0 Sr1_0 3.543536 1_555
Mg7_1 Sr1_1 3.543536 1_555
Mg7_2 Sr1_2 3.543536 1_555
Mg7_3 Sr1_3 3.543536 1_555
Mg7_4 Sr1_4 3.543536 1_555
Mg7_5 Sr1_5 3.543536 1_555
Mg7_6 Sr1_6 3.543536 1_555
Mg7_7 Sr1_7 3.543536 1_555
Mg8_0 Mg9_4 3.034977 1_455
Mg8_0 Mg9_0 3.034977 1_555
Mg8_0 Sr1_2 3.279391 1_555
Mg8_0 Sr1_0 3.279391 1_555
Mg8_1 Mg9_5 3.034977 1_455
Mg8_1 Mg9_1 3.034977 1_555
Mg8_1 Sr1_3 3.279391 1_555
Mg8_1 Sr1_1 3.279391 1_555
Mg8_2 Mg9_6 3.034977 1_455
Mg8_2 Mg9_2 3.034977 1_555
Mg8_2 Sr1_0 3.279391 1_565
Mg8_2 Sr1_2 3.279391 1_555
Mg8_3 Mg9_7 3.034977 1_455
Mg8_3 Mg9_3 3.034977 1_555
Mg8_3 Sr1_3 3.279391 1_555
Mg8_3 Sr1_1 3.279391 1_565
Mg8_4 Mg9_0 3.034977 1_555
Mg8_4 Mg9_4 3.034977 1_555
Mg8_4 Sr1_4 3.279391 1_555
Mg8_4 Sr1_6 3.279391 1_555
Mg8_5 Mg9_1 3.034977 1_555
Mg8_5 Mg9_5 3.034977 1_555
Mg8_5 Sr1_7 3.279391 1_555
Mg8_5 Sr1_5 3.279391 1_555
Mg8_6 Mg9_2 3.034977 1_555
Mg8_6 Mg9_6 3.034977 1_555
Mg8_6 Sr1_4 3.279391 1_565
Mg8_6 Sr1_6 3.279391 1_555
Mg8_7 Mg9_3 3.034977 1_555
Mg8_7 Mg9_7 3.034977 1_555
Mg8_7 Sr1_5 3.279391 1_565
Mg8_7 Sr1_7 3.279391 1_555
Mg9_0 Sr1_0 3.792450 1_555
Mg9_0 Sr1_4 3.792450 1_555
Mg9_1 Sr1_1 3.792450 1_555
Mg9_1 Sr1_5 3.792450 1_555
Mg9_2 Sr1_6 3.792450 1_555
Mg9_2 Sr1_2 3.792450 1_555
Mg9_3 Sr1_7 3.792450 1_555
Mg9_3 Sr1_3 3.792450 1_555
Mg9_4 Sr1_0 3.792450 1_655
Mg9_4 Sr1_4 3.792450 1_555
Mg9_5 Sr1_1 3.792450 1_655
Mg9_5 Sr1_5 3.792450 1_555
Mg9_6 Sr1_2 3.792450 1_655
Mg9_6 Sr1_6 3.792450 1_555
Mg9_7 Sr1_3 3.792450 1_655
Mg9_7 Sr1_7 3.792450 1_555
Mg10_0 Mg8_4 3.034977 1_555
Mg10_0 Mg8_0 3.034977 1_555
Mg10_0 Sr1_6 3.792450 1_555
Mg10_0 Sr1_2 3.792450 1_555
Mg10_1 Mg8_1 3.034977 1_555
Mg10_1 Mg8_5 3.034977 1_555
Mg10_1 Sr1_3 3.792450 1_555
Mg10_1 Sr1_7 3.792450 1_555
Mg10_2 Mg8_2 3.034977 1_555
Mg10_2 Mg8_6 3.034977 1_555
Mg10_2 Sr1_0 3.792450 1_565
Mg10_2 Sr1_4 3.792450 1_565
Mg10_3 Mg8_3 3.034977 1_555
Mg10_3 Mg8_7 3.034977 1_555
Mg10_3 Sr1_1 3.792450 1_565
Mg10_3 Sr1_5 3.792450 1_565
Mg10_4 Mg8_0 3.034977 1_655
Mg10_4 Mg8_4 3.034977 1_555
Mg10_4 Sr1_2 3.792450 1_655
Mg10_4 Sr1_6 3.792450 1_555
Mg10_5 Mg8_1 3.034977 1_655
Mg10_5 Mg8_5 3.034977 1_555
Mg10_5 Sr1_3 3.792450 1_655
Mg10_5 Sr1_7 3.792450 1_555
Mg10_6 Mg8_2 3.034977 1_655
Mg10_6 Mg8_6 3.034977 1_555
Mg10_6 Sr1_0 3.792450 1_665
Mg10_6 Sr1_4 3.792450 1_565
Mg10_7 Mg8_3 3.034977 1_655
Mg10_7 Mg8_7 3.034977 1_555
Mg10_7 Sr1_1 3.792450 1_665
Mg10_7 Sr1_5 3.792450 1_565
Mg11_0 Mg8_0 2.979313 1_555
Mg11_0 Mg8_4 2.979313 1_555
Mg11_0 Mg6_0 3.160070 1_555
Mg11_0 Mg6_4 3.160070 1_555
Mg11_0 Mg7_0 3.160070 1_555
Mg11_0 Mg7_4 3.160070 1_555
Mg11_0 Sr1_2 3.826098 1_555
Mg11_0 Sr1_0 3.826098 1_555
Mg11_0 Sr1_6 3.826098 1_555
Mg11_0 Sr1_4 3.826098 1_555
Mg11_1 Mg8_1 2.979313 1_555
Mg11_1 Mg8_5 2.979313 1_555
Mg11_1 Mg6_5 3.160070 1_555
Mg11_1 Mg6_1 3.160070 1_555
Mg11_1 Mg7_1 3.160070 1_555
Mg11_1 Mg7_5 3.160070 1_555
Mg11_1 Sr1_3 3.826098 1_555
Mg11_1 Sr1_7 3.826098 1_555
Mg11_1 Sr1_5 3.826098 1_555
Mg11_1 Sr1_1 3.826098 1_555
Mg11_2 Mg8_2 2.979313 1_555
Mg11_2 Mg8_6 2.979313 1_555
Mg11_2 Mg6_2 3.160070 1_555
Mg11_2 Mg6_6 3.160070 1_555
Mg11_2 Mg7_2 3.160070 1_555
Mg11_2 Mg7_6 3.160070 1_555
Mg11_2 Sr1_2 3.826098 1_555
Mg11_2 Sr1_6 3.826098 1_555
Mg11_2 Sr1_0 3.826098 1_565
Mg11_2 Sr1_4 3.826098 1_565
Mg11_3 Mg8_3 2.979313 1_555
Mg11_3 Mg8_7 2.979313 1_555
Mg11_3 Mg6_7 3.160070 1_555
Mg11_3 Mg6_3 3.160070 1_555
Mg11_3 Mg7_3 3.160070 1_555
Mg11_3 Mg7_7 3.160070 1_555
Mg11_3 Sr1_5 3.826098 1_565
Mg11_3 Sr1_3 3.826098 1_555
Mg11_3 Sr1_7 3.826098 1_555
Mg11_3 Sr1_1 3.826098 1_565
Mg11_4 Mg8_0 2.979313 1_655
Mg11_4 Mg8_4 2.979313 1_555
Mg11_4 Mg6_0 3.160070 1_655
Mg11_4 Mg6_4 3.160070 1_555
Mg11_4 Mg7_0 3.160070 1_655
Mg11_4 Mg7_4 3.160070 1_555
Mg11_4 Sr1_0 3.826098 1_655
Mg11_4 Sr1_2 3.826098 1_655
Mg11_4 Sr1_6 3.826098 1_555
Mg11_4 Sr1_4 3.826098 1_555
Mg11_5 Mg8_1 2.979313 1_655
Mg11_5 Mg8_5 2.979313 1_555
Mg11_5 Mg6_1 3.160070 1_655
Mg11_5 Mg6_5 3.160070 1_555
Mg11_5 Mg7_1 3.160070 1_655
Mg11_5 Mg7_5 3.160070 1_555
Mg11_5 Sr1_3 3.826098 1_655
Mg11_5 Sr1_1 3.826098 1_655
Mg11_5 Sr1_7 3.826098 1_555
Mg11_5 Sr1_5 3.826098 1_555
Mg11_6 Mg8_2 2.979313 1_655
Mg11_6 Mg8_6 2.979313 1_555
Mg11_6 Mg6_2 3.160070 1_655
Mg11_6 Mg6_6 3.160070 1_555
Mg11_6 Mg7_2 3.160070 1_655
Mg11_6 Mg7_6 3.160070 1_555
Mg11_6 Sr1_0 3.826098 1_665
Mg11_6 Sr1_2 3.826098 1_655
Mg11_6 Sr1_6 3.826098 1_555
Mg11_6 Sr1_4 3.826098 1_565
Mg11_7 Mg8_3 2.979313 1_655
Mg11_7 Mg8_7 2.979313 1_555
Mg11_7 Mg6_3 3.160070 1_655
Mg11_7 Mg6_7 3.160070 1_555
Mg11_7 Mg7_3 3.160070 1_655
Mg11_7 Mg7_7 3.160070 1_555
Mg11_7 Sr1_3 3.826098 1_655
Mg11_7 Sr1_1 3.826098 1_665
Mg11_7 Sr1_5 3.826098 1_565
Mg11_7 Sr1_7 3.826098 1_555
C0_0 Mg1_0 2.285697 1_555
C0_0 Mg1_4 2.285697 1_555
C0_0 Mg0_4 2.285697 1_555
C0_0 Mg0_0 2.285697 1_555
C0_0 Mg10_1 2.387872 1_554
C0_0 Mg9_1 2.387872 1_554
C0_1 Mg1_5 2.285697 1_555
C0_1 Mg1_1 2.285697 1_555
C0_1 Mg0_1 2.285697 1_555
C0_1 Mg0_5 2.285697 1_555
C0_1 Mg9_0 2.387872 1_555
C0_1 Mg10_0 2.387872 1_555
C0_2 Mg1_2 2.285697 1_555
C0_2 Mg1_6 2.285697 1_555
C0_2 Mg0_2 2.285697 1_555
C0_2 Mg0_6 2.285697 1_555
C0_2 Mg9_3 2.387872 1_554
C0_2 Mg10_3 2.387872 1_554
C0_3 Mg1_7 2.285697 1_555
C0_3 Mg1_3 2.285697 1_555
C0_3 Mg0_3 2.285697 1_555
C0_3 Mg0_7 2.285697 1_555
C0_3 Mg9_2 2.387872 1_555
C0_3 Mg10_2 2.387872 1_555
C0_4 Mg1_0 2.285697 1_655
C0_4 Mg1_4 2.285697 1_555
C0_4 Mg0_0 2.285697 1_655
C0_4 Mg0_4 2.285697 1_555
C0_4 Mg9_5 2.387872 1_554
C0_4 Mg10_5 2.387872 1_554
C0_5 Mg1_1 2.285697 1_655
C0_5 Mg1_5 2.285697 1_555
C0_5 Mg0_1 2.285697 1_655
C0_5 Mg0_5 2.285697 1_555
C0_5 Mg9_4 2.387872 1_555
C0_5 Mg10_4 2.387872 1_555
C0_6 Mg1_2 2.285697 1_655
C0_6 Mg1_6 2.285697 1_555
C0_6 Mg0_2 2.285697 1_655
C0_6 Mg0_6 2.285697 1_555
C0_6 Mg9_7 2.387872 1_554
C0_6 Mg10_7 2.387872 1_554
C0_7 Mg1_3 2.285697 1_655
C0_7 Mg1_7 2.285697 1_555
C0_7 Mg0_3 2.285697 1_655
C0_7 Mg0_7 2.285697 1_555
C0_7 Mg9_6 2.387872 1_555
C0_7 Mg10_6 2.387872 1_555
C1_0 Mg7_0 2.285697 1_555
C1_0 Mg7_4 2.285697 1_555
C1_0 Mg6_6 2.285697 1_545
C1_0 Mg6_2 2.285697 1_545
C1_0 Mg4_0 2.387872 1_555
C1_0 Mg3_2 2.387872 1_545
C1_1 Mg7_1 2.285697 1_555
C1_1 Mg7_5 2.285697 1_555
C1_1 Mg6_3 2.285697 1_545
C1_1 Mg6_7 2.285697 1_545
C1_1 Mg4_1 2.387872 1_555
C1_1 Mg3_3 2.387872 1_545
C1_2 Mg7_6 2.285697 1_555
C1_2 Mg7_2 2.285697 1_555
C1_2 Mg6_0 2.285697 1_555
C1_2 Mg6_4 2.285697 1_555
C1_2 Mg4_2 2.387872 1_555
C1_2 Mg3_0 2.387872 1_555
C1_3 Mg7_3 2.285697 1_555
C1_3 Mg7_7 2.285697 1_555
C1_3 Mg6_5 2.285697 1_555
C1_3 Mg6_1 2.285697 1_555
C1_3 Mg4_3 2.387872 1_555
C1_3 Mg3_1 2.387872 1_555
C1_4 Mg7_0 2.285697 1_655
C1_4 Mg7_4 2.285697 1_555
C1_4 Mg6_2 2.285697 1_645
C1_4 Mg6_6 2.285697 1_545
C1_4 Mg4_4 2.387872 1_555
C1_4 Mg3_6 2.387872 1_545
C1_5 Mg7_1 2.285697 1_655
C1_5 Mg7_5 2.285697 1_555
C1_5 Mg6_3 2.285697 1_645
C1_5 Mg6_7 2.285697 1_545
C1_5 Mg4_5 2.387872 1_555
C1_5 Mg3_7 2.387872 1_545
C1_6 Mg7_2 2.285697 1_655
C1_6 Mg7_6 2.285697 1_555
C1_6 Mg6_0 2.285697 1_655
C1_6 Mg6_4 2.285697 1_555
C1_6 Mg4_6 2.387872 1_555
C1_6 Mg3_4 2.387872 1_555
C1_7 Mg7_3 2.285697 1_655
C1_7 Mg7_7 2.285697 1_555
C1_7 Mg6_1 2.285697 1_655
C1_7 Mg6_5 2.285697 1_555
C1_7 Mg4_7 2.387872 1_555
C1_7 Mg3_5 2.387872 1_555
