# generated using pymatgen
data_CrHC7NO5F2
_symmetry_space_group_name_H-M   'P 1'
_cell_length_a   7.00265900
_cell_length_b   8.76262147
_cell_length_c   10.13794798
_cell_angle_alpha   92.85841949
_cell_angle_beta   109.71869915
_cell_angle_gamma   99.15224961
_symmetry_Int_Tables_number   1
_chemical_formula_structural   CrHC7NO5F2
_chemical_formula_sum   'Cr2 H2 C14 N2 O10 F4'
_cell_volume   574.54870606
_cell_formula_units_Z   2
loop_
 _symmetry_equiv_pos_site_id
 _symmetry_equiv_pos_as_xyz
  1  'x, y, z'
loop_
 _atom_site_type_symbol
 _atom_site_label
 _atom_site_symmetry_multiplicity
 _atom_site_fract_x
 _atom_site_fract_y
 _atom_site_fract_z
 _atom_site_occupancy
  Cr  Cr0  1  0.39148800  0.82115100  0.22179700  1
  Cr  Cr1  1  0.60851200  0.17884900  0.77820300  1
  H  H0  1  0.91494200  0.30463200  0.32596600  1
  H  H1  1  0.08505800  0.69536800  0.67403400  1
  C  C0  1  0.24806500  0.61244100  0.19117900  1
  C  C1  1  0.75193500  0.38755900  0.80882100  1
  C  C2  1  0.57398600  0.76268600  0.13163400  1
  C  C3  1  0.42601400  0.23731400  0.86836600  1
  C  C4  1  0.57222300  0.77371300  0.39724300  1
  C  C5  1  0.42777700  0.22628700  0.60275700  1
  C  C6  1  0.20288600  0.87276700  0.30852900  1
  C  C7  1  0.79711400  0.12723300  0.69147100  1
  C  C8  1  0.21006800  0.85775500  0.04219600  1
  C  C9  1  0.78993200  0.14224500  0.95780400  1
  C  C10  1  0.53837600  0.03742500  0.26154400  1
  C  C11  1  0.46162400  0.96257500  0.73845600  1
  C  C12  1  0.75776000  0.31416500  0.32042000  1
  C  C13  1  0.24224000  0.68583500  0.67958000  1
  N  N0  1  0.62462000  0.16918500  0.28752600  1
  N  N1  1  0.37538000  0.83081500  0.71247400  1
  O  O0  1  0.15830400  0.48609400  0.17658500  1
  O  O1  1  0.84169600  0.51390600  0.82341500  1
  O  O2  1  0.68302800  0.72697400  0.07638500  1
  O  O3  1  0.31697200  0.27302600  0.92361500  1
  O  O4  1  0.68106600  0.74174000  0.50238700  1
  O  O5  1  0.31893400  0.25826000  0.49761300  1
  O  O6  1  0.08583200  0.89984900  0.36047900  1
  O  O7  1  0.91416800  0.10015100  0.63952100  1
  O  O8  1  0.10156800  0.87683700  0.93163800  1
  O  O9  1  0.89843200  0.12316300  0.06836200  1
  F  F0  1  0.76654600  0.38304500  0.44817400  1
  F  F1  1  0.23345400  0.61695500  0.55182600  1
  F  F2  1  0.68050600  0.41043400  0.22024600  1
  F  F3  1  0.31949400  0.58956600  0.77975400  1
loop_
_geom_bond_atom_site_label_1
_geom_bond_atom_site_label_2
_geom_bond_distance
_geom_bond_site_symmetry_2
C0 O0 1.158556 1_555
C0 Cr0 1.896953 1_555
C1 O1 1.158556 1_555
C1 Cr1 1.896953 1_555
C2 O2 1.158383 1_555
C2 Cr0 1.918602 1_555
C3 O3 1.158383 1_555
C3 Cr1 1.918602 1_555
C4 O4 1.159799 1_555
C4 Cr0 1.913184 1_555
C5 O5 1.159799 1_555
C5 Cr1 1.913184 1_555
C6 O6 1.160308 1_555
C6 Cr0 1.912067 1_555
C7 O7 1.160308 1_555
C7 Cr1 1.912067 1_555
C8 O8 1.160149 1_554
C8 Cr0 1.912864 1_555
C9 O9 1.160149 1_556
C9 Cr1 1.912864 1_555
C10 N0 1.186440 1_555
C10 Cr0 1.958554 1_545
C11 N1 1.186440 1_555
C11 Cr1 1.958554 1_565
C12 H0 1.099827 1_555
C12 F2 1.376776 1_555
C12 F0 1.379122 1_555
C12 N0 1.401975 1_555
C13 H1 1.099827 1_555
C13 F3 1.376776 1_555
C13 F1 1.379122 1_555
C13 N1 1.401975 1_555
