# generated using pymatgen
data_HfInRu2
_symmetry_space_group_name_H-M   'P 1'
_cell_length_a   10.28746176
_cell_length_b   10.28746176
_cell_length_c   10.28746176
_cell_angle_alpha   122.93658410
_cell_angle_beta   119.71336385
_cell_angle_gamma   87.74358427
_symmetry_Int_Tables_number   1
_chemical_formula_structural   HfInRu2
_chemical_formula_sum   'Hf1 In1 Ru2'
_cell_volume   753.02010719
_cell_formula_units_Z   1
loop_
 _symmetry_equiv_pos_site_id
 _symmetry_equiv_pos_as_xyz
  1  'x, y, z'
loop_
 _atom_site_type_symbol
 _atom_site_label
 _atom_site_symmetry_multiplicity
 _atom_site_fract_x
 _atom_site_fract_y
 _atom_site_fract_z
 _atom_site_occupancy
  Hf  Hf0  1  0.00000000  0.50000000  0.50000000  1
  In  In0  1  0.00000000  0.00000000  0.00000000  1
  Ru  Ru0  1  0.00000000  0.27217100  0.27217100  1
  Ru  Ru1  1  0.00000000  0.72782900  0.72782900  1
loop_
_geom_bond_atom_site_label_1
_geom_bond_atom_site_label_2
_geom_bond_distance
_geom_bond_site_symmetry_2
Hf0 Ru1 2.238992 1_555
Hf0 Ru0 2.238992 1_555
In0 Ru0 2.674763 1_555
In0 Ru1 2.674763 1_544
