# generated using pymatgen
data_Na5Te2AuO28
_symmetry_space_group_name_H-M   'P 1'
_cell_length_a   4.97725377
_cell_length_b   8.85046421
_cell_length_c   13.83758660
_cell_angle_alpha   93.38593611
_cell_angle_beta   105.52851847
_cell_angle_gamma   72.41601072
_symmetry_Int_Tables_number   1
_chemical_formula_structural   Na5Te2AuO28
_chemical_formula_sum   'Na5 Te2 Au1 O28'
_cell_volume   559.70914150
_cell_formula_units_Z   1
loop_
 _symmetry_equiv_pos_site_id
 _symmetry_equiv_pos_as_xyz
  1  'x, y, z'
loop_
 _atom_site_type_symbol
 _atom_site_label
 _atom_site_symmetry_multiplicity
 _atom_site_fract_x
 _atom_site_fract_y
 _atom_site_fract_z
 _atom_site_occupancy
  Na  Na0  1  0.35155600  0.23109900  0.69068100  1
  Na  Na1  1  0.64844400  0.76890100  0.30931900  1
  Na  Na2  1  0.68276700  0.64017600  0.04555800  1
  Na  Na3  1  0.31723300  0.35982400  0.95444200  1
  Na  Na4  1  0.00000000  0.00000000  0.50000000  1
  Te  Te0  1  0.20142700  0.22478300  0.20288700  1
  Te  Te1  1  0.79857300  0.77521700  0.79711300  1
  Au  Au0  1  0.00000000  0.00000000  0.00000000  1
  O  O0  1  0.44502100  0.16336500  0.35674200  1
  O  O1  1  0.55497900  0.83663500  0.64325800  1
  O  O2  1  0.52895600  0.01111900  0.39260300  1
  O  O3  1  0.47104400  0.98888100  0.60739700  1
  O  O4  1  0.81898300  0.22183100  0.23755900  1
  O  O5  1  0.18101700  0.77816900  0.76244100  1
  O  O6  1  0.27562600  0.95119300  0.14765800  1
  O  O7  1  0.72437400  0.04880700  0.85234200  1
  O  O8  1  0.12294200  0.82127000  0.35748400  1
  O  O9  1  0.87705800  0.17873000  0.64251600  1
  O  O10  1  0.56059500  0.24325700  0.15363300  1
  O  O11  1  0.43940500  0.75674300  0.84636700  1
  O  O12  1  0.32240500  0.68971900  0.38138900  1
  O  O13  1  0.67759500  0.31028100  0.61861100  1
  O  O14  1  0.03435200  0.29050200  0.46991900  1
  O  O15  1  0.96564800  0.70949800  0.53008100  1
  O  O16  1  0.19893600  0.63052300  0.02010600  1
  O  O17  1  0.80106400  0.36947700  0.97989400  1
  O  O18  1  0.19138900  0.59746900  0.55883100  1
  O  O19  1  0.80861100  0.40253100  0.44116900  1
  O  O20  1  0.09820000  0.47175400  0.22149300  1
  O  O21  1  0.90180000  0.52824600  0.77850700  1
  O  O22  1  0.44587100  0.12972900  0.85490900  1
  O  O23  1  0.55412900  0.87027100  0.14509100  1
  O  O24  1  0.02796700  0.24118400  0.02791400  1
  O  O25  1  0.97203300  0.75881600  0.97208600  1
  O  O26  1  0.18318200  0.45044800  0.77885200  1
  O  O27  1  0.81681800  0.54955200  0.22114800  1
loop_
_geom_bond_atom_site_label_1
_geom_bond_atom_site_label_2
_geom_bond_distance
_geom_bond_site_symmetry_2
Na0 O26 2.290062 1_555
Na0 O3 2.362688 1_545
Na0 O22 2.367445 1_555
Na0 O13 2.399019 1_555
Na0 O9 2.453310 1_455
Na0 O7 2.728602 1_555
Na1 O27 2.290062 1_555
Na1 O2 2.362688 1_565
Na1 O23 2.367445 1_555
Na1 O12 2.399019 1_555
Na1 O8 2.453310 1_655
Na1 O6 2.728602 1_555
Na2 O16 2.365831 1_555
Na2 O23 2.409783 1_555
Na2 O27 2.455802 1_555
Na2 O25 2.456078 1_554
Na2 O17 2.467630 1_554
Na2 O16 2.660816 1_655
Na2 O11 2.814616 1_554
Na2 O20 2.880158 1_655
Na3 O17 2.365831 1_555
Na3 O22 2.409783 1_555
Na3 O26 2.455802 1_555
Na3 O24 2.456078 1_556
Na3 O16 2.467630 1_556
Na3 O17 2.660816 1_455
Na3 O10 2.814616 1_556
Na3 O21 2.880158 1_455
Na4 O3 2.393164 1_545
Na4 O2 2.393164 1_455
Na4 O9 2.541370 1_455
Na4 O8 2.541370 1_545
Na4 O14 2.691295 1_555
Na4 O15 2.691295 1_445
Au0 O6 2.118667 1_545
Au0 O7 2.118667 1_454
Au0 O24 2.185955 1_555
Au0 O25 2.185955 1_444
O0 O2 1.365376 1_555
O0 Te0 2.157414 1_555
O1 O3 1.365376 1_555
O1 Te1 2.157414 1_555
O4 Te0 2.091599 1_655
O5 Te1 2.091599 1_455
O6 Te0 2.444553 1_565
O7 Te1 2.444553 1_545
O10 O4 1.455189 1_555
O10 Te0 2.128182 1_555
O11 O5 1.455189 1_555
O11 Te1 2.128182 1_555
O12 O8 1.273523 1_555
O13 O9 1.273523 1_555
O14 O19 1.240130 1_455
O15 O18 1.240130 1_655
O16 O25 1.385189 1_454
O17 O24 1.385189 1_656
O20 O27 1.360040 1_455
O20 Te0 2.105665 1_555
O21 O26 1.360040 1_655
O21 Te1 2.105665 1_555
O22 O7 1.363529 1_555
O23 O6 1.363529 1_555
O24 Te0 2.339919 1_555
O25 Te1 2.339919 1_555
