# generated using pymatgen
data_Ba10Y5Cu15O32
_symmetry_space_group_name_H-M   'P 1'
_cell_length_a   5.51743900
_cell_length_b   13.25258511
_cell_length_c   14.01781538
_cell_angle_alpha   114.07744676
_cell_angle_beta   100.45847076
_cell_angle_gamma   90.37252548
_symmetry_Int_Tables_number   1
_chemical_formula_structural   Ba10Y5Cu15O32
_chemical_formula_sum   'Ba10 Y5 Cu15 O32'
_cell_volume   916.54944695
_cell_formula_units_Z   1
loop_
 _symmetry_equiv_pos_site_id
 _symmetry_equiv_pos_as_xyz
  1  'x, y, z'
loop_
 _atom_site_type_symbol
 _atom_site_label
 _atom_site_symmetry_multiplicity
 _atom_site_fract_x
 _atom_site_fract_y
 _atom_site_fract_z
 _atom_site_occupancy
  Ba  Ba0  1  0.74432500  0.19143100  0.97351600  1
  Ba  Ba1  1  0.94713000  0.19052200  0.37424800  1
  Ba  Ba2  1  0.12909200  0.19037300  0.77807500  1
  Ba  Ba3  1  0.33216500  0.19117500  0.17960200  1
  Ba  Ba4  1  0.53950600  0.19776100  0.57907300  1
  Ba  Ba5  1  0.87090800  0.80962700  0.22192500  1
  Ba  Ba6  1  0.05287000  0.80947800  0.62575200  1
  Ba  Ba7  1  0.25567500  0.80856900  0.02648400  1
  Ba  Ba8  1  0.46049400  0.80223900  0.42092700  1
  Ba  Ba9  1  0.66783500  0.80882500  0.82039800  1
  Y  Y0  1  0.79984400  0.50019700  0.10027800  1
  Y  Y1  1  0.39988200  0.49864000  0.29935800  1
  Y  Y2  1  0.00000000  0.50000000  0.50000000  1
  Y  Y3  1  0.60011800  0.50136000  0.70064200  1
  Y  Y4  1  0.20015600  0.49980300  0.89972200  1
  Cu  Cu0  1  0.67063000  0.36270100  0.84489800  1
  Cu  Cu1  1  0.27401600  0.36211300  0.04523800  1
  Cu  Cu2  1  0.87070300  0.36203300  0.24422100  1
  Cu  Cu3  1  0.47440200  0.36261400  0.44536900  1
  Cu  Cu4  1  0.07244600  0.36245400  0.64501100  1
  Cu  Cu5  1  0.72598400  0.63788700  0.95476200  1
  Cu  Cu6  1  0.32937000  0.63729900  0.15510200  1
  Cu  Cu7  1  0.92755400  0.63754600  0.35498900  1
  Cu  Cu8  1  0.52559800  0.63738600  0.55463100  1
  Cu  Cu9  1  0.12929700  0.63796700  0.75577900  1
  Cu  Cu10  1  0.60983800  0.99996300  0.70313300  1
  Cu  Cu11  1  0.18968900  0.00004600  0.89644700  1
  Cu  Cu12  1  0.81031100  0.99995400  0.10355300  1
  Cu  Cu13  1  0.39016200  0.00003700  0.29686700  1
  Cu  Cu14  1  0.00000000  0.00000000  0.50000000  1
  O  O0  1  0.97552900  0.37751000  0.95102200  1
  O  O1  1  0.57597700  0.38026600  0.15190800  1
  O  O2  1  0.17484600  0.37686500  0.35078900  1
  O  O3  1  0.77679200  0.38006900  0.55244000  1
  O  O4  1  0.37555600  0.37929300  0.75141200  1
  O  O5  1  0.02447100  0.62249000  0.04897800  1
  O  O6  1  0.62444400  0.62070700  0.24858800  1
  O  O7  1  0.22320800  0.61993100  0.44756000  1
  O  O8  1  0.82515400  0.62313500  0.64921100  1
  O  O9  1  0.42402300  0.61973400  0.84809200  1
  O  O10  1  0.47590300  0.38089400  0.95222200  1
  O  O11  1  0.07648600  0.38076700  0.15229500  1
  O  O12  1  0.67626600  0.38092200  0.35242600  1
  O  O13  1  0.27664200  0.38097400  0.55211700  1
  O  O14  1  0.87549900  0.38097800  0.75275300  1
  O  O15  1  0.52409700  0.61910600  0.04777800  1
  O  O16  1  0.12450100  0.61902200  0.24724700  1
  O  O17  1  0.72335800  0.61902600  0.44788300  1
  O  O18  1  0.32373400  0.61907800  0.64757400  1
  O  O19  1  0.92351400  0.61923300  0.84770500  1
  O  O20  1  0.60252000  0.15072500  0.75229100  1
  O  O21  1  0.25666800  0.15082000  0.96875800  1
  O  O22  1  0.80361100  0.15072200  0.15186400  1
  O  O23  1  0.45786800  0.15082000  0.36834200  1
  O  O24  1  0.02994400  0.14985000  0.55991100  1
  O  O25  1  0.74333200  0.84918000  0.03124200  1
  O  O26  1  0.39748000  0.84927500  0.24770900  1
  O  O27  1  0.97005600  0.85015000  0.44008900  1
  O  O28  1  0.54213200  0.84918000  0.63165800  1
  O  O29  1  0.19638900  0.84927800  0.84813600  1
  O  O30  1  0.89975600  0.99996600  0.79989800  1
  O  O31  1  0.10024400  0.00003400  0.20010200  1
loop_
_geom_bond_atom_site_label_1
_geom_bond_atom_site_label_2
_geom_bond_distance
_geom_bond_site_symmetry_2
Ba0 O21 2.724016 1_555
Ba0 O22 2.730244 1_556
Ba0 O20 2.875515 1_555
Ba0 O21 2.888593 1_655
Ba0 O0 2.923627 1_555
Ba0 O30 2.973927 1_545
Ba0 O11 3.012834 1_656
Ba0 O10 3.014358 1_555
Ba0 O1 3.024259 1_556
Ba1 O23 2.726848 1_555
Ba1 O24 2.826460 1_655
Ba1 O23 2.879767 1_655
Ba1 O22 2.894792 1_555
Ba1 O2 2.925326 1_655
Ba1 O31 2.965451 1_655
Ba1 O13 3.008712 1_655
Ba1 O3 3.032481 1_555
Ba1 O12 3.034287 1_555
Ba2 O20 2.726809 1_555
Ba2 O24 2.826464 1_555
Ba2 O20 2.879517 1_455
Ba2 O21 2.894806 1_555
Ba2 O0 2.934817 1_455
Ba2 O30 2.964965 1_445
Ba2 O14 3.010263 1_455
Ba2 O4 3.026726 1_555
Ba2 O10 3.034468 1_555
Ba3 O22 2.723957 1_555
Ba3 O21 2.730449 1_554
Ba3 O23 2.874032 1_555
Ba3 O22 2.888099 1_455
Ba3 O2 2.921185 1_555
Ba3 O31 2.970174 1_555
Ba3 O11 3.014044 1_555
Ba3 O12 3.015687 1_555
Ba3 O1 3.029787 1_555
Ba4 O23 2.707363 1_555
Ba4 O20 2.708620 1_555
Ba4 O24 2.818363 1_555
Ba4 O24 2.818616 1_655
Ba4 O4 2.919188 1_555
Ba4 O3 2.926264 1_555
Ba4 O13 2.955858 1_555
Ba4 O14 2.956206 1_555
Ba5 O26 2.726809 1_555
Ba5 O27 2.826464 1_555
Ba5 O26 2.879517 1_655
Ba5 O25 2.894806 1_555
Ba5 O5 2.934817 1_655
Ba5 O31 2.964965 1_665
Ba5 O16 3.010263 1_655
Ba5 O6 3.026726 1_555
Ba5 O15 3.034468 1_555
Ba6 O28 2.726848 1_555
Ba6 O27 2.826460 1_455
Ba6 O28 2.879767 1_455
Ba6 O29 2.894792 1_555
Ba6 O8 2.925326 1_455
Ba6 O30 2.965451 1_455
Ba6 O17 3.008712 1_455
Ba6 O7 3.032481 1_555
Ba6 O18 3.034287 1_555
Ba7 O25 2.724016 1_555
Ba7 O29 2.730244 1_554
Ba7 O26 2.875515 1_555
Ba7 O25 2.888593 1_455
Ba7 O5 2.923627 1_555
Ba7 O31 2.973927 1_565
Ba7 O19 3.012834 1_454
Ba7 O15 3.014358 1_555
Ba7 O9 3.024259 1_554
Ba8 O28 2.707363 1_555
Ba8 O26 2.708620 1_555
Ba8 O27 2.818363 1_555
Ba8 O27 2.818616 1_455
Ba8 O6 2.919188 1_555
Ba8 O7 2.926264 1_555
Ba8 O17 2.955858 1_555
Ba8 O16 2.956206 1_555
Ba9 O29 2.723957 1_555
Ba9 O25 2.730449 1_556
Ba9 O28 2.874032 1_555
Ba9 O29 2.888099 1_655
Ba9 O8 2.921185 1_555
Ba9 O30 2.970174 1_555
Ba9 O19 3.014044 1_555
Ba9 O18 3.015687 1_555
Ba9 O9 3.029787 1_555
Cu0 O10 1.941658 1_555
Cu0 O14 1.945909 1_555
Cu0 O4 1.970139 1_555
Cu0 O0 1.982547 1_555
Cu0 O20 2.559643 1_555
Cu1 O10 1.947128 1_554
Cu1 O11 1.948230 1_555
Cu1 O1 1.966295 1_555
Cu1 O0 1.983113 1_454
Cu1 O21 2.551334 1_554
Cu2 O12 1.949015 1_555
Cu2 O11 1.949306 1_655
Cu2 O1 1.968120 1_555
Cu2 O2 1.982989 1_655
Cu2 O22 2.551424 1_555
Cu3 O12 1.943713 1_555
Cu3 O13 1.946286 1_555
Cu3 O3 1.972920 1_555
Cu3 O2 1.984428 1_555
Cu3 O23 2.557435 1_555
Cu4 O13 1.953203 1_555
Cu4 O14 1.954188 1_455
Cu4 O3 1.970531 1_455
Cu4 O4 1.972126 1_555
Cu4 O24 2.562035 1_555
Cu5 O15 1.947128 1_556
Cu5 O19 1.948230 1_555
Cu5 O9 1.966295 1_555
Cu5 O5 1.983113 1_656
Cu5 O25 2.551334 1_556
Cu6 O15 1.941658 1_555
Cu6 O16 1.945909 1_555
Cu6 O6 1.970139 1_555
Cu6 O5 1.982547 1_555
Cu6 O26 2.559643 1_555
Cu7 O17 1.953203 1_555
Cu7 O16 1.954188 1_655
Cu7 O7 1.970531 1_655
Cu7 O6 1.972126 1_555
Cu7 O27 2.562035 1_555
Cu8 O18 1.943713 1_555
Cu8 O17 1.946286 1_555
Cu8 O7 1.972920 1_555
Cu8 O8 1.984428 1_555
Cu8 O28 2.557435 1_555
Cu9 O18 1.949015 1_555
Cu9 O19 1.949306 1_455
Cu9 O9 1.968120 1_555
Cu9 O8 1.982989 1_455
Cu9 O29 2.551424 1_555
Cu10 O20 1.831991 1_565
Cu10 O28 1.832285 1_555
Cu10 O30 1.900232 1_555
Cu11 O29 1.832549 1_545
Cu11 O21 1.832598 1_555
Cu11 O30 1.898292 1_445
Cu12 O22 1.832549 1_565
Cu12 O25 1.832598 1_555
Cu12 O31 1.898292 1_665
Cu13 O26 1.831991 1_545
Cu13 O23 1.832285 1_555
Cu13 O31 1.900232 1_555
Cu14 O24 1.805803 1_555
Cu14 O27 1.805803 1_445
O0 Y4 2.434792 1_655
O0 Y0 2.437579 1_556
O1 Y1 2.404242 1_555
O1 Y0 2.411064 1_555
O2 Y1 2.431897 1_555
O2 Y2 2.436490 1_555
O3 Y2 2.416557 1_655
O3 Y3 2.425022 1_555
O4 Y4 2.418828 1_555
O4 Y3 2.427355 1_555
O5 Y0 2.434792 1_455
O5 Y4 2.437579 1_554
O6 Y0 2.418828 1_555
O6 Y1 2.427355 1_555
O7 Y2 2.416557 1_555
O7 Y1 2.425022 1_555
O8 Y3 2.431897 1_555
O8 Y2 2.436490 1_655
O9 Y3 2.404242 1_555
O9 Y4 2.411064 1_555
O10 Y4 2.431167 1_555
O10 Y0 2.437380 1_556
O11 Y1 2.423747 1_555
O11 Y0 2.436306 1_455
O12 Y1 2.424590 1_555
O12 Y2 2.432777 1_655
O13 Y2 2.432786 1_555
O13 Y3 2.443176 1_555
O14 Y4 2.430896 1_655
O14 Y3 2.442716 1_555
O15 Y0 2.431167 1_555
O15 Y4 2.437380 1_554
O16 Y0 2.430896 1_455
O16 Y1 2.442716 1_555
O17 Y2 2.432786 1_655
O17 Y1 2.443176 1_555
O18 Y3 2.424590 1_555
O18 Y2 2.432777 1_555
O19 Y3 2.423747 1_555
O19 Y4 2.436306 1_655
