# generated using pymatgen
data_Cr3FeO6
_symmetry_space_group_name_H-M   'P 1'
_cell_length_a   10.72592564
_cell_length_b   8.99853655
_cell_length_c   10.42009113
_cell_angle_alpha   94.09130080
_cell_angle_beta   89.69253427
_cell_angle_gamma   95.40479756
_symmetry_Int_Tables_number   1
_chemical_formula_structural   Cr3FeO6
_chemical_formula_sum   'Cr24 Fe8 O48'
_cell_volume   998.69868951
_cell_formula_units_Z   8
loop_
 _symmetry_equiv_pos_site_id
 _symmetry_equiv_pos_as_xyz
  1  'x, y, z'
loop_
 _atom_site_type_symbol
 _atom_site_label
 _atom_site_symmetry_multiplicity
 _atom_site_fract_x
 _atom_site_fract_y
 _atom_site_fract_z
 _atom_site_occupancy
  Cr  Cr0  1  0.34746400  0.79181300  0.44579200  1
  Cr  Cr1  1  0.09422900  0.91614900  0.44212200  1
  Cr  Cr2  1  0.91785900  0.89337700  0.02169900  1
  Cr  Cr3  1  0.67331100  0.18998000  0.73723300  1
  Cr  Cr4  1  0.71850300  0.43442700  0.05602900  1
  Cr  Cr5  1  0.16983800  0.06664200  0.01544800  1
  Cr  Cr6  1  0.14678600  0.24411400  0.59063400  1
  Cr  Cr7  1  0.64227300  0.82999000  0.99184700  1
  Cr  Cr8  1  0.91659700  0.52549900  0.31458200  1
  Cr  Cr9  1  0.85209400  0.13044300  0.52299700  1
  Cr  Cr10  1  0.93832500  0.29194200  0.86628100  1
  Cr  Cr11  1  0.01600200  0.97339700  0.72038800  1
  Cr  Cr12  1  0.56488700  0.53826600  0.85843600  1
  Cr  Cr13  1  0.33999500  0.13467700  0.74300000  1
  Cr  Cr14  1  0.69964400  0.48835500  0.58188900  1
  Cr  Cr15  1  0.19794100  0.40562300  0.89184800  1
  Cr  Cr16  1  0.34457200  0.23882600  0.31335300  1
  Cr  Cr17  1  0.77551200  0.76226600  0.25971900  1
  Cr  Cr18  1  0.11560400  0.63186100  0.67880400  1
  Cr  Cr19  1  0.59169400  0.96496000  0.41672600  1
  Cr  Cr20  1  0.82291000  0.17766600  0.17189300  1
  Cr  Cr21  1  0.12717000  0.70786400  0.95616700  1
  Cr  Cr22  1  0.42258900  0.43290700  0.56276600  1
  Cr  Cr23  1  0.07719300  0.21105100  0.26379400  1
  Fe  Fe0  1  0.37610700  0.84895600  0.90006400  1
  Fe  Fe1  1  0.50382200  0.57997700  0.30504100  1
  Fe  Fe2  1  0.52746700  0.16346200  0.98450500  1
  Fe  Fe3  1  0.37229100  0.93328200  0.19068800  1
  Fe  Fe4  1  0.17758700  0.53533900  0.41166900  1
  Fe  Fe5  1  0.84806600  0.74992700  0.53497300  1
  Fe  Fe6  1  0.59922900  0.85492700  0.68345400  1
  Fe  Fe7  1  0.60646600  0.26990500  0.32057300  1
  O  O0  1  0.98946500  0.19353700  0.69103800  1
  O  O1  1  0.47877300  0.79846000  0.30525900  1
  O  O2  1  0.09817800  0.25277300  0.94839500  1
  O  O3  1  0.51436800  0.09811500  0.76852300  1
  O  O4  1  0.74387300  0.10652700  0.35604600  1
  O  O5  1  0.18484300  0.04686700  0.65666000  1
  O  O6  1  0.64653500  0.61898600  0.02174700  1
  O  O7  1  0.98021700  0.72996700  0.06468500  1
  O  O8  1  0.93469800  0.94658400  0.55058900  1
  O  O9  1  0.05607200  0.49562000  0.83489800  1
  O  O10  1  0.98649200  0.74486500  0.69238400  1
  O  O11  1  0.71502100  0.69235900  0.64772900  1
  O  O12  1  0.11727700  0.45747900  0.56917900  1
  O  O13  1  0.47356200  0.09642800  0.33035300  1
  O  O14  1  0.57654200  0.44399000  0.44661200  1
  O  O15  1  0.17521000  0.73516600  0.52492200  1
  O  O16  1  0.75316000  0.29660900  0.60950500  1
  O  O17  1  0.05904800  0.93418200  0.89926500  1
  O  O18  1  0.66116200  0.24600500  0.13484800  1
  O  O19  1  0.80019400  0.85663100  0.90112900  1
  O  O20  1  0.23489500  0.55322100  0.00566300  1
  O  O21  1  0.46291100  0.89465300  0.54767400  1
  O  O22  1  0.85855300  0.53710500  0.48452800  1
  O  O23  1  0.07316000  0.58146900  0.28195100  1
  O  O24  1  0.32668400  0.12555600  0.92463400  1
  O  O25  1  0.24243300  0.87105400  0.03860600  1
  O  O26  1  0.20615600  0.36360700  0.30755200  1
  O  O27  1  0.35965600  0.58301600  0.44607700  1
  O  O28  1  0.27585100  0.33549400  0.73585000  1
  O  O29  1  0.62752900  0.34095800  0.89799400  1
  O  O30  1  0.92187200  0.76142900  0.34466700  1
  O  O31  1  0.05400800  0.14242000  0.43364000  1
  O  O32  1  0.76656000  0.55176300  0.22659800  1
  O  O33  1  0.25358900  0.89335700  0.34900200  1
  O  O34  1  0.98585900  0.06974100  0.12529900  1
  O  O35  1  0.92207500  0.31524900  0.28922300  1
  O  O36  1  0.44808200  0.37195500  0.23518600  1
  O  O37  1  0.87021700  0.33622000  0.03749500  1
  O  O38  1  0.32042900  0.25632800  0.49585400  1
  O  O39  1  0.69647800  0.79042000  0.41290500  1
  O  O40  1  0.23467600  0.71310300  0.79350800  1
  O  O41  1  0.50572900  0.95323400  0.03985200  1
  O  O42  1  0.23741200  0.12246600  0.19748800  1
  O  O43  1  0.54406300  0.44875000  0.68452000  1
  O  O44  1  0.76540200  0.89769100  0.13893600  1
  O  O45  1  0.69254800  0.02958100  0.59512800  1
  O  O46  1  0.79831600  0.14190400  0.83195800  1
  O  O47  1  0.52973200  0.75690300  0.83880900  1
loop_
_geom_bond_atom_site_label_1
_geom_bond_atom_site_label_2
_geom_bond_distance
_geom_bond_site_symmetry_2
Cr0 O21 1.781797 1_555
Cr0 O33 1.783729 1_555
Cr0 O27 1.895874 1_555
Cr0 O1 2.026342 1_555
Cr0 O15 2.054136 1_555
Cr1 O33 1.981180 1_555
Cr1 O8 2.074540 1_455
Cr1 O31 2.128667 1_565
Cr1 O15 2.150851 1_555
Cr1 O30 2.391815 1_455
Cr1 O5 2.599704 1_565
Cr2 O7 1.758604 1_555
Cr2 O19 1.777551 1_554
Cr2 O34 1.939560 1_565
Cr2 O17 1.999283 1_654
Cr2 O44 2.037556 1_555
Cr3 O46 1.773004 1_555
Cr3 O16 1.854923 1_555
Cr3 O3 1.860926 1_555
Cr3 O45 2.016512 1_555
Cr3 O29 2.164508 1_555
Cr4 O37 1.925994 1_555
Cr4 O6 1.952106 1_555
Cr4 O18 1.981019 1_555
Cr4 O29 2.009060 1_554
Cr4 O32 2.044260 1_555
Cr5 O17 1.959898 1_544
Cr5 O24 1.973118 1_554
Cr5 O25 2.020626 1_545
Cr5 O42 2.045971 1_555
Cr5 O2 2.073532 1_554
Cr5 O34 2.277428 1_455
Cr6 O12 2.003233 1_555
Cr6 O0 2.013304 1_455
Cr6 O5 2.025859 1_555
Cr6 O31 2.033750 1_555
Cr6 O38 2.100831 1_555
Cr6 O28 2.124316 1_555
Cr7 O19 1.938768 1_555
Cr7 O6 1.950703 1_556
Cr7 O41 1.960619 1_556
Cr7 O47 2.038153 1_555
Cr7 O44 2.049718 1_556
Cr8 O23 1.745922 1_655
Cr8 O22 1.873087 1_555
Cr8 O35 1.897936 1_555
Cr8 O32 1.898574 1_555
Cr8 O30 2.119270 1_555
Cr9 O8 1.987879 1_545
Cr9 O45 2.026844 1_555
Cr9 O16 2.066569 1_555
Cr9 O4 2.083568 1_555
Cr9 O0 2.299477 1_555
Cr9 O31 2.348958 1_655
Cr10 O46 1.939288 1_555
Cr10 O37 1.953130 1_556
Cr10 O2 1.992165 1_655
Cr10 O0 2.066268 1_555
Cr10 O9 2.169372 1_655
Cr11 O8 1.966014 1_455
Cr11 O17 1.986368 1_555
Cr11 O5 1.995463 1_565
Cr11 O10 2.051117 1_455
Cr11 O0 2.071778 1_465
Cr12 O43 1.935210 1_555
Cr12 O6 1.977413 1_556
Cr12 O29 2.026282 1_555
Cr12 O47 2.062212 1_555
Cr13 O24 1.904278 1_555
Cr13 O3 1.952123 1_555
Cr13 O5 1.967250 1_555
Cr13 O28 1.999583 1_555
Cr14 O11 1.905854 1_555
Cr14 O16 1.910134 1_555
Cr14 O14 1.931355 1_555
Cr14 O43 1.994644 1_555
Cr14 O22 2.007710 1_555
Cr15 O20 1.734575 1_556
Cr15 O2 1.793212 1_555
Cr15 O9 1.906281 1_555
Cr15 O28 1.917614 1_555
Cr16 O36 1.791689 1_555
Cr16 O42 1.866246 1_555
Cr16 O38 1.915176 1_555
Cr16 O26 1.947635 1_555
Cr16 O13 1.989086 1_555
Cr17 O30 1.807232 1_555
Cr17 O39 1.816294 1_555
Cr17 O44 1.823737 1_555
Cr17 O32 1.894520 1_555
Cr18 O10 1.792901 1_455
Cr18 O40 1.819329 1_555
Cr18 O12 1.875320 1_555
Cr18 O15 1.983360 1_555
Cr18 O9 2.163838 1_555
Cr19 O39 2.013624 1_555
Cr19 O21 2.026931 1_555
Cr19 O13 2.064362 1_565
Cr19 O4 2.097385 1_565
Cr19 O1 2.117956 1_555
Cr19 O45 2.170924 1_565
Cr20 O35 1.925801 1_555
Cr20 O18 1.943985 1_555
Cr20 O37 2.096527 1_555
Cr20 O34 2.115890 1_555
Cr20 O4 2.205944 1_555
Cr20 O44 2.536075 1_545
Cr21 O7 1.952040 1_456
Cr21 O25 1.977919 1_556
Cr21 O20 1.987262 1_556
Cr21 O40 2.045681 1_555
Cr21 O9 2.284201 1_555
Cr21 O17 2.343111 1_555
Cr22 O43 1.812301 1_555
Cr22 O38 1.932281 1_555
Cr22 O14 2.041167 1_555
Cr22 O27 2.042932 1_555
Cr22 O28 2.536447 1_555
Cr23 O26 1.888262 1_555
Cr23 O31 1.922962 1_555
Cr23 O35 1.992796 1_455
Cr23 O34 2.043992 1_455
Cr23 O42 2.057365 1_555
Fe0 O47 1.994768 1_555
Fe0 O25 2.042016 1_556
Fe0 O40 2.122154 1_555
Fe0 O41 2.125114 1_556
Fe0 O24 2.588017 1_565
Fe1 O36 1.997668 1_555
Fe1 O1 2.009059 1_555
Fe1 O27 2.128244 1_555
Fe1 O14 2.175244 1_555
Fe2 O41 2.009181 1_546
Fe2 O29 2.094683 1_555
Fe2 O18 2.172483 1_556
Fe2 O24 2.233639 1_555
Fe2 O3 2.286809 1_555
Fe3 O33 2.108856 1_555
Fe3 O25 2.124858 1_555
Fe3 O41 2.125731 1_555
Fe3 O1 2.164226 1_555
Fe3 O13 2.205626 1_565
Fe3 O42 2.332747 1_565
Fe4 O23 1.854131 1_555
Fe4 O26 1.872271 1_555
Fe4 O12 1.915830 1_555
Fe4 O27 1.988466 1_555
Fe4 O15 2.081386 1_555
Fe5 O11 1.901268 1_555
Fe5 O8 1.916310 1_555
Fe5 O22 1.962858 1_555
Fe5 O30 2.136988 1_555
Fe5 O39 2.143411 1_555
Fe5 O10 2.224065 1_555
Fe6 O47 2.005292 1_555
Fe6 O11 2.020069 1_555
Fe6 O45 2.054052 1_565
Fe6 O21 2.111928 1_555
Fe6 O3 2.548104 1_565
Fe7 O14 2.019518 1_555
Fe7 O13 2.020214 1_555
Fe7 O18 2.021855 1_555
Fe7 O36 2.224315 1_555
Fe7 O4 2.227490 1_555
