# generated using pymatgen
data_CaMg
_symmetry_space_group_name_H-M   'P 1'
_cell_length_a   5.68728817
_cell_length_b   3.86058183
_cell_length_c   17.19845422
_cell_angle_alpha   90.00000000
_cell_angle_beta   90.00000000
_cell_angle_gamma   90.00000000
_symmetry_Int_Tables_number   1
_chemical_formula_structural   CaMg
_chemical_formula_sum   'Ca6 Mg6'
_cell_volume   377.61341206
_cell_formula_units_Z   6
loop_
 _symmetry_equiv_pos_site_id
 _symmetry_equiv_pos_as_xyz
  1  'x, y, z'
loop_
 _atom_site_type_symbol
 _atom_site_label
 _atom_site_symmetry_multiplicity
 _atom_site_fract_x
 _atom_site_fract_y
 _atom_site_fract_z
 _atom_site_occupancy
  Ca  Ca0  1  0.00000000  0.50000000  0.19039514  1
  Ca  Ca1  1  0.50000000  0.50000000  0.35823801  1
  Ca  Ca2  1  0.50000000  0.50000000  0.04295929  1
  Ca  Ca3  1  0.00000000  -0.00000000  0.69039514  1
  Ca  Ca4  1  0.50000000  0.00000000  0.85823801  1
  Ca  Ca5  1  0.50000000  0.00000000  0.54295929  1
  Mg  Mg0  1  0.00000000  0.50000000  0.50885773  1
  Mg  Mg1  1  0.00000000  -0.00000000  0.36247032  1
  Mg  Mg2  1  0.50000000  -0.00000000  0.20374551  1
  Mg  Mg3  1  0.00000000  -0.00000000  0.00885773  1
  Mg  Mg4  1  0.00000000  0.50000000  0.86247032  1
  Mg  Mg5  1  0.50000000  0.50000000  0.70374551  1
loop_
_geom_bond_atom_site_label_1
_geom_bond_atom_site_label_2
_geom_bond_distance
_geom_bond_site_symmetry_2
Ca0 Mg2 3.444569 1_455
Ca0 Mg2 3.444569 1_565
Ca0 Mg2 3.444569 1_555
Ca0 Mg2 3.444569 1_465
Ca0 Mg1 3.533303 1_555
Ca0 Mg1 3.533303 1_565
Ca0 Mg3 3.670684 1_555
Ca0 Mg3 3.670684 1_565
Ca1 Mg2 3.284181 1_555
Ca1 Mg2 3.284181 1_565
Ca1 Mg1 3.437678 1_655
Ca1 Mg1 3.437678 1_665
Ca1 Mg1 3.437678 1_555
Ca1 Mg1 3.437678 1_565
Ca1 Mg0 3.846638 1_655
Ca1 Mg0 3.846638 1_555
Ca2 Mg2 3.372353 1_565
Ca2 Mg2 3.372353 1_555
Ca2 Mg3 3.486590 1_565
Ca2 Mg3 3.486590 1_655
Ca2 Mg3 3.486590 1_665
Ca2 Mg3 3.486590 1_555
Ca3 Mg5 3.444569 1_445
Ca3 Mg5 3.444569 1_455
Ca3 Mg5 3.444569 1_555
Ca3 Mg5 3.444569 1_545
Ca3 Mg4 3.533303 1_545
Ca3 Mg4 3.533303 1_555
Ca3 Mg0 3.670684 1_555
Ca3 Mg0 3.670684 1_545
Ca4 Mg5 3.284181 1_555
Ca4 Mg5 3.284181 1_545
Ca4 Mg4 3.437678 1_645
Ca4 Mg4 3.437678 1_555
Ca4 Mg4 3.437678 1_545
Ca4 Mg4 3.437678 1_655
Ca4 Mg3 3.846638 1_656
Ca4 Mg3 3.846638 1_556
Ca5 Mg5 3.372353 1_545
Ca5 Mg5 3.372353 1_555
Ca5 Mg0 3.486590 1_545
Ca5 Mg0 3.486590 1_655
Ca5 Mg0 3.486590 1_645
Ca5 Mg0 3.486590 1_555
Mg0 Mg1 3.172463 1_555
Mg0 Mg1 3.172463 1_565
Mg3 Mg4 3.172463 1_544
Mg3 Mg4 3.172463 1_554
