# generated using pymatgen
data_NbSe2
_symmetry_space_group_name_H-M   'P 1'
_cell_length_a   3.51574606
_cell_length_b   3.51574606
_cell_length_c   26.20355334
_cell_angle_alpha   90.00000000
_cell_angle_beta   90.00000000
_cell_angle_gamma   120.00000596
_symmetry_Int_Tables_number   1
_chemical_formula_structural   NbSe2
_chemical_formula_sum   'Nb4 Se8'
_cell_volume   280.49543024
_cell_formula_units_Z   4
loop_
 _symmetry_equiv_pos_site_id
 _symmetry_equiv_pos_as_xyz
  1  'x, y, z'
loop_
 _atom_site_type_symbol
 _atom_site_label
 _atom_site_symmetry_multiplicity
 _atom_site_fract_x
 _atom_site_fract_y
 _atom_site_fract_z
 _atom_site_occupancy
  Nb  Nb0  1  0.00000000  -0.00000000  0.50000000  1
  Nb  Nb1  1  0.00000000  -0.00000000  -0.00000000  1
  Nb  Nb2  1  -0.00000000  -0.00000000  0.25000000  1
  Nb  Nb3  1  0.00000000  0.00000000  0.75000000  1
  Se  Se0  1  0.33333300  0.66666700  0.43719312  1
  Se  Se1  1  0.66666700  0.33333300  0.56280688  1
  Se  Se2  1  0.66666700  0.33333300  0.93719312  1
  Se  Se3  1  0.33333300  0.66666700  0.06280688  1
  Se  Se4  1  0.66666700  0.33333300  0.31349387  1
  Se  Se5  1  0.33333300  0.66666700  0.68650613  1
  Se  Se6  1  0.33333300  0.66666700  0.81349387  1
  Se  Se7  1  0.66666700  0.33333300  0.18650613  1
loop_
_geom_bond_atom_site_label_1
_geom_bond_atom_site_label_2
_geom_bond_distance
_geom_bond_site_symmetry_2
Nb0 Se1 2.613175 1_455
Nb0 Se0 2.613175 1_545
Nb0 Se0 2.613178 1_445
Nb0 Se0 2.613178 1_555
Nb0 Se1 2.613178 1_445
Nb0 Se1 2.613178 1_555
Nb1 Se3 2.613175 1_545
Nb1 Se2 2.613175 1_454
Nb1 Se3 2.613178 1_555
Nb1 Se3 2.613178 1_445
Nb1 Se2 2.613178 1_444
Nb1 Se2 2.613178 1_554
Nb2 Se4 2.624550 1_455
Nb2 Se7 2.624550 1_455
Nb2 Se7 2.624552 1_445
Nb2 Se4 2.624552 1_555
Nb2 Se4 2.624552 1_445
Nb2 Se7 2.624552 1_555
Nb3 Se6 2.624550 1_545
Nb3 Se5 2.624550 1_545
Nb3 Se6 2.624552 1_445
Nb3 Se5 2.624552 1_445
Nb3 Se6 2.624552 1_555
Nb3 Se5 2.624552 1_555
