# generated using pymatgen
data_Li2TiVO4
_symmetry_space_group_name_H-M   'P 1'
_cell_length_a   5.20756248
_cell_length_b   11.71115100
_cell_length_c   5.20480634
_cell_angle_alpha   90.00022613
_cell_angle_beta   68.38477689
_cell_angle_gamma   89.99966141
_symmetry_Int_Tables_number   1
_chemical_formula_structural   Li2TiVO4
_chemical_formula_sum   'Li8 Ti4 V4 O16'
_cell_volume   295.10155636
_cell_formula_units_Z   4
loop_
 _symmetry_equiv_pos_site_id
 _symmetry_equiv_pos_as_xyz
  1  'x, y, z'
loop_
 _atom_site_type_symbol
 _atom_site_label
 _atom_site_symmetry_multiplicity
 _atom_site_fract_x
 _atom_site_fract_y
 _atom_site_fract_z
 _atom_site_occupancy
  Li  Li0  1  0.49999900  0.12499900  0.99999900  1
  Li  Li1  1  0.99999900  0.37485400  0.50000300  1
  Li  Li2  1  0.50000100  0.62633100  0.99999900  1
  Li  Li3  1  0.99999900  0.87335600  0.50000200  1
  Li  Li4  1  0.49999700  0.00260100  0.50000100  1
  Li  Li5  1  0.00000100  0.24981800  0.99999700  1
  Li  Li6  1  0.50000200  0.49807700  0.50000100  1
  Li  Li7  1  0.99999700  0.74985000  0.00000200  1
  Ti  Ti0  1  0.00000300  0.12704100  0.50000500  1
  Ti  Ti1  1  0.50000500  0.37239700  0.99999800  1
  Ti  Ti2  1  0.99998300  0.62030100  0.49998800  1
  Ti  Ti3  1  0.50001900  0.87855700  0.00000400  1
  V  V0  1  0.99998800  0.50221200  0.00000200  1
  V  V1  1  0.50001400  0.75060700  0.49999100  1
  V  V2  1  0.99999500  0.99611400  0.00000300  1
  V  V3  1  0.49999600  0.25186100  0.49999800  1
  O  O0  1  0.77216000  0.12337200  0.27124100  1
  O  O1  1  0.26783300  0.37729700  0.76992400  1
  O  O2  1  0.76298600  0.62986600  0.27539200  1
  O  O3  1  0.27386800  0.87039300  0.76081600  1
  O  O4  1  0.22784200  0.12337300  0.72875400  1
  O  O5  1  0.73216900  0.37730000  0.23006700  1
  O  O6  1  0.23702400  0.62986800  0.72461900  1
  O  O7  1  0.72612400  0.87039500  0.23918400  1
  O  O8  1  0.24989700  0.99913700  0.24487800  1
  O  O9  1  0.74775600  0.24989200  0.74820500  1
  O  O10  1  0.24503800  0.50109500  0.25050600  1
  O  O11  1  0.74453700  0.74945800  0.74497200  1
  O  O12  1  0.25224300  0.24989200  0.25179400  1
  O  O13  1  0.75496300  0.50109500  0.74949700  1
  O  O14  1  0.25546500  0.74945700  0.25503200  1
  O  O15  1  0.75009800  0.99913600  0.75512600  1
loop_
_geom_bond_atom_site_label_1
_geom_bond_atom_site_label_2
_geom_bond_distance
_geom_bond_site_symmetry_2
Li0 O15 2.066482 1_545
Li0 O8 2.066510 1_546
Li0 O12 2.067776 1_556
Li0 O9 2.067794 1_555
Li0 O4 2.340145 1_555
Li0 O0 2.340149 1_556
Li1 O13 2.068687 1_555
Li1 O10 2.068717 1_655
Li1 O12 2.070227 1_655
Li1 O9 2.070229 1_555
Li1 O1 2.315928 1_655
Li1 O5 2.315976 1_555
Li2 O14 2.053641 1_556
Li2 O11 2.053654 1_555
Li2 O13 2.082897 1_555
Li2 O10 2.082928 1_556
Li2 O6 2.318972 1_555
Li2 O2 2.319063 1_556
Li3 O14 2.061844 1_655
Li3 O11 2.061845 1_555
Li3 O15 2.086494 1_555
Li3 O8 2.086515 1_655
Li3 O3 2.303117 1_655
Li3 O7 2.303160 1_555
Li4 O4 2.045346 1_555
Li4 O0 2.045388 1_555
Li4 O7 2.109243 1_545
Li4 O3 2.109277 1_545
Li4 O8 2.176073 1_545
Li4 O15 2.176086 1_545
Li5 O4 2.087954 1_555
Li5 O0 2.087983 1_456
Li5 O1 2.092287 1_555
Li5 O5 2.092289 1_456
Li5 O9 2.170547 1_455
Li5 O12 2.170556 1_556
Li6 O5 2.045675 1_555
Li6 O1 2.045693 1_555
Li6 O6 2.108270 1_555
Li6 O2 2.108270 1_555
Li6 O13 2.172710 1_555
Li6 O10 2.172719 1_555
Li7 O6 2.061281 1_654
Li7 O2 2.061303 1_555
Li7 O7 2.066080 1_555
Li7 O3 2.066084 1_654
Li7 O11 2.198341 1_554
Li7 O14 2.198375 1_655
O0 Ti0 1.966767 1_655
O0 V2 2.094696 1_545
O0 V3 2.108880 1_555
O1 Ti1 1.991420 1_555
O1 V0 2.070990 1_456
O1 V3 2.083747 1_555
O2 Ti2 1.991273 1_555
O2 V1 2.015415 1_555
O2 V0 2.123519 1_555
O3 V1 2.004962 1_555
O3 Ti3 2.006520 1_556
O3 V2 2.107971 1_456
O4 Ti0 1.966685 1_555
O4 V2 2.094768 1_446
O4 V3 2.108864 1_555
O5 Ti1 1.991365 1_554
O5 V0 2.070898 1_555
O5 V3 2.083819 1_555
O6 Ti2 1.991615 1_455
O6 V1 2.015510 1_555
O6 V0 2.123596 1_456
O7 V1 2.004889 1_555
O7 Ti3 2.006289 1_555
O7 V2 2.107958 1_555
O8 Ti3 2.022867 1_555
O8 Ti0 2.104121 1_565
O8 V2 2.131023 1_455
O9 Ti1 2.048075 1_555
O9 Ti0 2.052814 1_655
O9 V3 2.135918 1_555
O10 Ti2 2.010647 1_455
O10 Ti1 2.111664 1_554
O10 V0 2.134106 1_455
O11 Ti3 2.103308 1_556
O11 Ti2 2.105617 1_555
O11 V1 2.108005 1_555
O12 Ti1 2.048122 1_554
O12 Ti0 2.052839 1_555
O12 V3 2.135875 1_555
O13 Ti2 2.010650 1_555
O13 Ti1 2.111650 1_555
O13 V0 2.134003 1_556
O14 Ti3 2.103397 1_555
O14 Ti2 2.105650 1_455
O14 V1 2.108022 1_555
O15 Ti3 2.022793 1_556
O15 Ti0 2.104157 1_665
O15 V2 2.131009 1_556
