# generated using pymatgen
data_RbEu2Cl7
_symmetry_space_group_name_H-M   'P 1'
_cell_length_a   7.16975408
_cell_length_b   13.61036185
_cell_length_c   13.15874984
_cell_angle_alpha   90.00000000
_cell_angle_beta   90.00000000
_cell_angle_gamma   90.00000000
_symmetry_Int_Tables_number   1
_chemical_formula_structural   RbEu2Cl7
_chemical_formula_sum   'Rb4 Eu8 Cl28'
_cell_volume   1284.06959354
_cell_formula_units_Z   4
loop_
 _symmetry_equiv_pos_site_id
 _symmetry_equiv_pos_as_xyz
  1  'x, y, z'
loop_
 _atom_site_type_symbol
 _atom_site_label
 _atom_site_symmetry_multiplicity
 _atom_site_fract_x
 _atom_site_fract_y
 _atom_site_fract_z
 _atom_site_occupancy
  Rb  Rb0  1  0.75000000  0.95933169  0.19489392  1
  Rb  Rb1  1  0.25000000  0.04066831  0.80510608  1
  Rb  Rb2  1  0.25000000  0.54066831  0.69489392  1
  Rb  Rb3  1  0.75000000  0.45933169  0.30510608  1
  Eu  Eu0  1  0.75000000  0.75975519  0.54288559  1
  Eu  Eu1  1  0.25000000  0.24024481  0.45711441  1
  Eu  Eu2  1  0.25000000  0.74024481  0.04288559  1
  Eu  Eu3  1  0.75000000  0.25975519  0.95711441  1
  Eu  Eu4  1  0.75000000  0.74759537  0.84059682  1
  Eu  Eu5  1  0.25000000  0.25240463  0.15940318  1
  Eu  Eu6  1  0.25000000  0.75240463  0.34059682  1
  Eu  Eu7  1  0.75000000  0.24759537  0.65940318  1
  Cl  Cl0  1  0.98878859  0.82730108  0.69463047  1
  Cl  Cl1  1  0.01121141  0.17269892  0.30536953  1
  Cl  Cl2  1  0.01121141  0.67269892  0.19463047  1
  Cl  Cl3  1  0.48878859  0.17269892  0.30536953  1
  Cl  Cl4  1  0.98878859  0.32730108  0.80536953  1
  Cl  Cl5  1  0.51121141  0.82730108  0.69463047  1
  Cl  Cl6  1  0.51121141  0.32730108  0.80536953  1
  Cl  Cl7  1  0.48878859  0.67269892  0.19463047  1
  Cl  Cl8  1  0.98880043  0.87741563  0.42227438  1
  Cl  Cl9  1  0.01119957  0.12258437  0.57772562  1
  Cl  Cl10  1  0.01119957  0.62258437  0.92227438  1
  Cl  Cl11  1  0.48880043  0.12258437  0.57772562  1
  Cl  Cl12  1  0.98880043  0.37741563  0.07772562  1
  Cl  Cl13  1  0.51119957  0.87741563  0.42227438  1
  Cl  Cl14  1  0.51119957  0.37741563  0.07772562  1
  Cl  Cl15  1  0.48880043  0.62258437  0.92227438  1
  Cl  Cl16  1  0.99024077  0.86768080  0.95997180  1
  Cl  Cl17  1  0.00975923  0.13231920  0.04002820  1
  Cl  Cl18  1  0.00975923  0.63231920  0.45997180  1
  Cl  Cl19  1  0.49024077  0.13231920  0.04002820  1
  Cl  Cl20  1  0.99024077  0.36768080  0.54002820  1
  Cl  Cl21  1  0.50975923  0.86768080  0.95997180  1
  Cl  Cl22  1  0.50975923  0.36768080  0.54002820  1
  Cl  Cl23  1  0.49024077  0.63231920  0.45997180  1
  Cl  Cl24  1  0.75000000  0.60592787  0.68776601  1
  Cl  Cl25  1  0.25000000  0.39407213  0.31223399  1
  Cl  Cl26  1  0.25000000  0.89407213  0.18776601  1
  Cl  Cl27  1  0.75000000  0.10592787  0.81223399  1
loop_
_geom_bond_atom_site_label_1
_geom_bond_atom_site_label_2
_geom_bond_distance
_geom_bond_site_symmetry_2
Cl0 Eu0 2.786287 1_555
Cl0 Eu4 2.792346 1_555
Cl0 Rb1 3.748868 1_665
Cl1 Eu1 2.786287 1_555
Cl1 Eu5 2.792346 1_555
Cl1 Rb0 3.748868 1_445
Cl2 Eu2 2.786287 1_555
Cl2 Eu6 2.792346 1_555
Cl2 Rb3 3.748868 1_455
Cl3 Eu1 2.786287 1_555
Cl3 Eu5 2.792346 1_555
Cl3 Rb0 3.748868 1_545
Cl4 Eu3 2.786287 1_555
Cl4 Eu7 2.792346 1_555
Cl4 Rb2 3.748868 1_655
Cl5 Eu0 2.786287 1_555
Cl5 Eu4 2.792346 1_555
Cl5 Rb1 3.748868 1_565
Cl6 Eu3 2.786287 1_555
Cl6 Eu7 2.792346 1_555
Cl6 Rb2 3.748868 1_555
Cl7 Eu2 2.786287 1_555
Cl7 Eu6 2.792346 1_555
Cl7 Rb3 3.748868 1_555
Cl8 Eu6 2.749036 1_655
Cl8 Eu0 2.831038 1_555
Cl8 Rb0 3.623087 1_555
Cl9 Eu7 2.749036 1_455
Cl9 Eu1 2.831038 1_555
Cl9 Rb1 3.623087 1_555
Cl10 Eu4 2.749036 1_455
Cl10 Eu2 2.831038 1_556
Cl10 Rb2 3.623087 1_555
Cl11 Eu7 2.749036 1_555
Cl11 Eu1 2.831038 1_555
Cl11 Rb1 3.623087 1_555
Cl12 Eu5 2.749036 1_655
Cl12 Eu3 2.831038 1_554
Cl12 Rb3 3.623087 1_555
Cl13 Eu6 2.749036 1_555
Cl13 Eu0 2.831038 1_555
Cl13 Rb0 3.623087 1_555
Cl14 Eu5 2.749036 1_555
Cl14 Eu3 2.831038 1_554
Cl14 Rb3 3.623087 1_555
Cl15 Eu4 2.749036 1_555
Cl15 Eu2 2.831038 1_556
Cl15 Rb2 3.623087 1_555
Cl16 Eu2 2.768982 1_656
Cl16 Eu4 2.847046 1_555
Cl16 Rb1 3.628314 1_665
Cl16 Rb0 3.752189 1_556
Cl17 Eu3 2.768982 1_454
Cl17 Eu5 2.847046 1_555
Cl17 Rb0 3.628314 1_445
Cl17 Rb1 3.752189 1_554
Cl18 Eu0 2.768982 1_455
Cl18 Eu6 2.847046 1_555
Cl18 Rb3 3.628314 1_455
Cl18 Rb2 3.752189 1_555
Cl19 Eu3 2.768982 1_554
Cl19 Eu5 2.847046 1_555
Cl19 Rb0 3.628314 1_545
Cl19 Rb1 3.752189 1_554
Cl20 Eu1 2.768982 1_655
Cl20 Eu7 2.847046 1_555
Cl20 Rb2 3.628314 1_655
Cl20 Rb3 3.752189 1_555
Cl21 Eu2 2.768982 1_556
Cl21 Eu4 2.847046 1_555
Cl21 Rb1 3.628314 1_565
Cl21 Rb0 3.752189 1_556
Cl22 Eu1 2.768982 1_555
Cl22 Eu7 2.847046 1_555
Cl22 Rb2 3.628314 1_555
Cl22 Rb3 3.752189 1_555
Cl23 Eu0 2.768982 1_555
Cl23 Eu6 2.847046 1_555
Cl23 Rb3 3.628314 1_555
Cl23 Rb2 3.752189 1_555
Cl24 Eu4 2.786058 1_555
Cl24 Eu0 2.831587 1_555
Cl24 Rb2 3.694462 1_555
Cl24 Rb2 3.694462 1_655
Cl25 Eu5 2.786058 1_555
Cl25 Eu1 2.831587 1_555
Cl25 Rb3 3.694462 1_555
Cl25 Rb3 3.694462 1_455
Cl26 Eu6 2.786058 1_555
Cl26 Eu2 2.831587 1_555
Cl26 Rb0 3.694462 1_555
Cl26 Rb0 3.694462 1_455
Cl27 Eu7 2.786058 1_555
Cl27 Eu3 2.831587 1_555
Cl27 Rb1 3.694462 1_655
Cl27 Rb1 3.694462 1_555
