# generated using pymatgen
data_CeB2O4F
_symmetry_space_group_name_H-M   'P 1'
_cell_length_a   7.32593000
_cell_length_b   8.30488000
_cell_length_c   12.72593600
_cell_angle_alpha   90.00000000
_cell_angle_beta   90.00000000
_cell_angle_gamma   90.00000000
_symmetry_Int_Tables_number   1
_chemical_formula_structural   CeB2O4F
_chemical_formula_sum   'Ce8 B16 O32 F8'
_cell_volume   774.25828452
_cell_formula_units_Z   8
loop_
 _symmetry_equiv_pos_site_id
 _symmetry_equiv_pos_as_xyz
  1  'x, y, z'
loop_
 _atom_site_type_symbol
 _atom_site_label
 _atom_site_symmetry_multiplicity
 _atom_site_fract_x
 _atom_site_fract_y
 _atom_site_fract_z
 _atom_site_occupancy
  Ce  Ce0  1  0.24762300  0.61151900  0.47501800  1
  Ce  Ce1  1  0.75237700  0.11151900  0.02498200  1
  Ce  Ce2  1  0.25237700  0.38848100  0.97501800  1
  Ce  Ce3  1  0.74762300  0.88848100  0.52498200  1
  Ce  Ce4  1  0.75237700  0.38848100  0.52498200  1
  Ce  Ce5  1  0.24762300  0.88848100  0.97501800  1
  Ce  Ce6  1  0.74762300  0.61151900  0.02498200  1
  Ce  Ce7  1  0.25237700  0.11151900  0.47501800  1
  B  B0  1  0.34587000  0.65839400  0.17202400  1
  B  B1  1  0.65413000  0.15839400  0.32797600  1
  B  B2  1  0.15413000  0.34160600  0.67202400  1
  B  B3  1  0.84587000  0.84160600  0.82797600  1
  B  B4  1  0.65413000  0.34160600  0.82797600  1
  B  B5  1  0.34587000  0.84160600  0.67202400  1
  B  B6  1  0.84587000  0.65839400  0.32797600  1
  B  B7  1  0.15413000  0.15839400  0.17202400  1
  B  B8  1  0.26103900  0.90875600  0.27138600  1
  B  B9  1  0.73896100  0.40875600  0.22861400  1
  B  B10  1  0.23896100  0.09124400  0.77138600  1
  B  B11  1  0.76103900  0.59124400  0.72861400  1
  B  B12  1  0.73896100  0.09124400  0.72861400  1
  B  B13  1  0.26103900  0.59124400  0.77138600  1
  B  B14  1  0.76103900  0.90875600  0.22861400  1
  B  B15  1  0.23896100  0.40875600  0.27138600  1
  O  O0  1  0.42637700  0.59920900  0.08526100  1
  O  O1  1  0.57362300  0.09920900  0.41473900  1
  O  O2  1  0.07362300  0.40079100  0.58526100  1
  O  O3  1  0.92637700  0.90079100  0.91473900  1
  O  O4  1  0.57362300  0.40079100  0.91473900  1
  O  O5  1  0.42637700  0.90079100  0.58526100  1
  O  O6  1  0.92637700  0.59920900  0.41473900  1
  O  O7  1  0.07362300  0.09920900  0.08526100  1
  O  O8  1  0.31059500  0.82556800  0.17928100  1
  O  O9  1  0.68940500  0.32556800  0.32071900  1
  O  O10  1  0.18940500  0.17443200  0.67928100  1
  O  O11  1  0.81059500  0.67443200  0.82071900  1
  O  O12  1  0.68940500  0.17443200  0.82071900  1
  O  O13  1  0.31059500  0.67443200  0.67928100  1
  O  O14  1  0.81059500  0.82556800  0.32071900  1
  O  O15  1  0.18940500  0.32556800  0.17928100  1
  O  O16  1  0.29447200  0.56871400  0.25956400  1
  O  O17  1  0.70552800  0.06871400  0.24043600  1
  O  O18  1  0.20552800  0.43128600  0.75956400  1
  O  O19  1  0.79447200  0.93128600  0.74043600  1
  O  O20  1  0.70552800  0.43128600  0.74043600  1
  O  O21  1  0.29447200  0.93128600  0.75956400  1
  O  O22  1  0.79447200  0.56871400  0.24043600  1
  O  O23  1  0.20552800  0.06871400  0.25956400  1
  O  O24  1  0.27208700  0.85499000  0.37022400  1
  O  O25  1  0.72791300  0.35499000  0.12977600  1
  O  O26  1  0.22791300  0.14501000  0.87022400  1
  O  O27  1  0.77208700  0.64501000  0.62977600  1
  O  O28  1  0.72791300  0.14501000  0.62977600  1
  O  O29  1  0.27208700  0.64501000  0.87022400  1
  O  O30  1  0.77208700  0.85499000  0.12977600  1
  O  O31  1  0.22791300  0.35499000  0.37022400  1
  F  F0  1  0.06478600  0.63490800  0.04781000  1
  F  F1  1  0.93521400  0.13490800  0.45219000  1
  F  F2  1  0.43521400  0.36509200  0.54781000  1
  F  F3  1  0.56478600  0.86509200  0.95219000  1
  F  F4  1  0.93521400  0.36509200  0.95219000  1
  F  F5  1  0.06478600  0.86509200  0.54781000  1
  F  F6  1  0.56478600  0.63490800  0.45219000  1
  F  F7  1  0.43521400  0.13490800  0.04781000  1
loop_
_geom_bond_atom_site_label_1
_geom_bond_atom_site_label_2
_geom_bond_distance
_geom_bond_site_symmetry_2
Ce0 F6 2.349647 1_555
Ce0 O24 2.428804 1_555
Ce0 O6 2.477401 1_455
Ce0 O31 2.517564 1_555
Ce0 O2 2.579902 1_555
Ce0 F2 2.633460 1_555
Ce0 F5 2.662148 1_555
Ce0 O13 2.691262 1_555
Ce0 O16 2.786024 1_555
Ce1 F7 2.349647 1_555
Ce1 O25 2.428804 1_555
Ce1 O7 2.477401 1_655
Ce1 O30 2.517564 1_545
Ce1 O3 2.579902 1_544
Ce1 F3 2.633460 1_544
Ce1 F4 2.662148 1_554
Ce1 O12 2.691262 1_554
Ce1 O17 2.786024 1_555
Ce2 F4 2.349647 1_455
Ce2 O26 2.428804 1_555
Ce2 O4 2.477401 1_555
Ce2 O29 2.517564 1_555
Ce2 O0 2.579902 1_556
Ce2 F0 2.633460 1_556
Ce2 F7 2.662148 1_556
Ce2 O15 2.691262 1_556
Ce2 O18 2.786024 1_555
Ce3 F5 2.349647 1_655
Ce3 O27 2.428804 1_555
Ce3 O5 2.477401 1_555
Ce3 O28 2.517564 1_565
Ce3 O1 2.579902 1_565
Ce3 F1 2.633460 1_565
Ce3 F6 2.662148 1_555
Ce3 O14 2.691262 1_555
Ce3 O19 2.786024 1_555
Ce4 F2 2.349647 1_555
Ce4 O28 2.428804 1_555
Ce4 O2 2.477401 1_655
Ce4 O27 2.517564 1_555
Ce4 O6 2.579902 1_555
Ce4 F6 2.633460 1_555
Ce4 F1 2.662148 1_555
Ce4 O9 2.691262 1_555
Ce4 O20 2.786024 1_555
Ce5 F3 2.349647 1_555
Ce5 O29 2.428804 1_555
Ce5 O3 2.477401 1_455
Ce5 O26 2.517564 1_565
Ce5 O7 2.579902 1_566
Ce5 F7 2.633460 1_566
Ce5 F0 2.662148 1_556
Ce5 O8 2.691262 1_556
Ce5 O21 2.786024 1_555
Ce6 F0 2.349647 1_655
Ce6 O30 2.428804 1_555
Ce6 O0 2.477401 1_555
Ce6 O25 2.517564 1_555
Ce6 O4 2.579902 1_554
Ce6 F4 2.633460 1_554
Ce6 F3 2.662148 1_554
Ce6 O11 2.691262 1_554
Ce6 O22 2.786024 1_555
Ce7 F1 2.349647 1_455
Ce7 O31 2.428804 1_555
Ce7 O1 2.477401 1_555
Ce7 O24 2.517564 1_545
Ce7 O5 2.579902 1_545
Ce7 F5 2.633460 1_545
Ce7 F2 2.662148 1_555
Ce7 O10 2.691262 1_555
Ce7 O23 2.786024 1_555
B0 O0 1.344832 1_555
B0 O16 1.391955 1_555
B0 O8 1.415222 1_555
B1 O1 1.344832 1_555
B1 O17 1.391955 1_555
B1 O9 1.415222 1_555
B2 O2 1.344832 1_555
B2 O18 1.391955 1_555
B2 O10 1.415222 1_555
B3 O3 1.344832 1_555
B3 O19 1.391955 1_555
B3 O11 1.415222 1_555
B4 O4 1.344832 1_555
B4 O20 1.391955 1_555
B4 O12 1.415222 1_555
B5 O5 1.344832 1_555
B5 O21 1.391955 1_555
B5 O13 1.415222 1_555
B6 O6 1.344832 1_555
B6 O22 1.391955 1_555
B6 O14 1.415222 1_555
B7 O7 1.344832 1_555
B7 O23 1.391955 1_555
B7 O15 1.415222 1_555
B8 O24 1.337164 1_555
B8 O23 1.397407 1_565
B8 O8 1.408179 1_555
B9 O25 1.337164 1_555
B9 O22 1.397407 1_555
B9 O9 1.408179 1_555
B10 O26 1.337164 1_555
B10 O21 1.397407 1_545
B10 O10 1.408179 1_555
B11 O27 1.337164 1_555
B11 O20 1.397407 1_555
B11 O11 1.408179 1_555
B12 O28 1.337164 1_555
B12 O19 1.397407 1_545
B12 O12 1.408179 1_555
B13 O29 1.337164 1_555
B13 O18 1.397407 1_555
B13 O13 1.408179 1_555
B14 O30 1.337164 1_555
B14 O17 1.397407 1_565
B14 O14 1.408179 1_555
B15 O31 1.337164 1_555
B15 O16 1.397407 1_555
B15 O15 1.408179 1_555
