# generated using pymatgen
data_Mg149Be
_symmetry_space_group_name_H-M   'P 1'
_cell_length_a   15.88929390
_cell_length_b   15.88929821
_cell_length_c   15.57181665
_cell_angle_alpha   90.00000000
_cell_angle_beta   90.00000000
_cell_angle_gamma   120.00001328
_symmetry_Int_Tables_number   1
_chemical_formula_structural   Mg149Be
_chemical_formula_sum   'Mg149 Be1'
_cell_volume   3404.70249649
_cell_formula_units_Z   1
loop_
 _symmetry_equiv_pos_site_id
 _symmetry_equiv_pos_as_xyz
  1  'x, y, z'
loop_
 _atom_site_type_symbol
 _atom_site_label
 _atom_site_symmetry_multiplicity
 _atom_site_fract_x
 _atom_site_fract_y
 _atom_site_fract_z
 _atom_site_occupancy
  Mg  Mg0  1  0.19479586  0.00118634  -0.00000000  1
  Mg  Mg1  1  0.80639048  0.00118634  -0.00000000  1
  Mg  Mg2  1  0.99881266  0.19360952  -0.00000000  1
  Mg  Mg3  1  0.19479586  0.19360952  -0.00000000  1
  Mg  Mg4  1  0.80077144  0.19922856  -0.00000000  1
  Mg  Mg5  1  0.39845712  0.19922856  -0.00000000  1
  Mg  Mg6  1  0.59982904  0.19965808  -0.00000000  1
  Mg  Mg7  1  0.19888144  0.39776188  -0.00000000  1
  Mg  Mg8  1  0.39894489  0.39897292  -0.00000000  1
  Mg  Mg9  1  0.00002803  0.39897292  -0.00000000  1
  Mg  Mg10  1  0.80034092  0.40017096  -0.00000000  1
  Mg  Mg11  1  0.59982904  0.40017096  -0.00000000  1
  Mg  Mg12  1  0.40014061  0.59985939  -0.00000000  1
  Mg  Mg13  1  0.19971878  0.59985939  -0.00000000  1
  Mg  Mg14  1  0.00002803  0.60105511  -0.00000000  1
  Mg  Mg15  1  0.60102708  0.60105511  -0.00000000  1
  Mg  Mg16  1  0.80077144  0.60154388  -0.00000000  1
  Mg  Mg17  1  0.40014061  0.80028122  -0.00000000  1
  Mg  Mg18  1  0.19888144  0.80111956  -0.00000000  1
  Mg  Mg19  1  0.60223812  0.80111956  -0.00000000  1
  Mg  Mg20  1  0.99881266  0.80520314  -0.00000000  1
  Mg  Mg21  1  0.80639048  0.80520314  -0.00000000  1
  Mg  Mg22  1  0.60102708  0.99997197  -0.00000000  1
  Mg  Mg23  1  0.39894489  0.99997197  -0.00000000  1
  Mg  Mg24  1  0.06471267  0.12942435  0.16168505  1
  Mg  Mg25  1  0.06471267  0.93528733  0.16168505  1
  Mg  Mg26  1  0.87057465  0.93528733  0.16168505  1
  Mg  Mg27  1  0.26555593  0.33163421  0.16581762  1
  Mg  Mg28  1  0.06607828  0.33163421  0.16581762  1
  Mg  Mg29  1  0.06607828  0.73444407  0.16581762  1
  Mg  Mg30  1  0.66836579  0.73444407  0.16581762  1
  Mg  Mg31  1  0.26555593  0.93392172  0.16581762  1
  Mg  Mg32  1  0.66836579  0.93392172  0.16581762  1
  Mg  Mg33  1  0.26635633  0.53271166  0.16629555  1
  Mg  Mg34  1  0.26635633  0.73364367  0.16629555  1
  Mg  Mg35  1  0.46728734  0.73364367  0.16629555  1
  Mg  Mg36  1  0.46671036  0.53328964  0.16624887  1
  Mg  Mg37  1  0.06658028  0.53329064  0.16624887  1
  Mg  Mg38  1  0.46671036  0.93341972  0.16624887  1
  Mg  Mg39  1  0.46678831  0.13336973  0.16649759  1
  Mg  Mg40  1  0.66658142  0.13336973  0.16649759  1
  Mg  Mg41  1  0.46678831  0.33341858  0.16649759  1
  Mg  Mg42  1  0.86663027  0.33341858  0.16649759  1
  Mg  Mg43  1  0.66658142  0.53321069  0.16649759  1
  Mg  Mg44  1  0.86663027  0.53321169  0.16649759  1
  Mg  Mg45  1  0.66666700  0.33333300  0.16657034  1
  Mg  Mg46  1  0.26746960  0.13373430  0.16711305  1
  Mg  Mg47  1  0.86626470  0.13373530  0.16711305  1
  Mg  Mg48  1  0.86626470  0.73253040  0.16711305  1
  Mg  Mg49  1  0.00000000  0.00000000  0.33179652  1
  Mg  Mg50  1  0.19909818  0.99971799  0.33254454  1
  Mg  Mg51  1  0.80062082  0.99971899  0.33254454  1
  Mg  Mg52  1  0.00028101  0.19937918  0.33254454  1
  Mg  Mg53  1  0.19909818  0.19937918  0.33254454  1
  Mg  Mg54  1  0.80062082  0.80090182  0.33254454  1
  Mg  Mg55  1  0.00028101  0.80090182  0.33254454  1
  Mg  Mg56  1  0.60032395  0.99990173  0.33295509  1
  Mg  Mg57  1  0.39957778  0.99990173  0.33295509  1
  Mg  Mg58  1  0.39957778  0.39967605  0.33295509  1
  Mg  Mg59  1  0.00009827  0.39967705  0.33295509  1
  Mg  Mg60  1  0.60032395  0.60042122  0.33295509  1
  Mg  Mg61  1  0.00009827  0.60042222  0.33295509  1
  Mg  Mg62  1  0.19986807  0.39973514  0.33295668  1
  Mg  Mg63  1  0.19986807  0.80013293  0.33295668  1
  Mg  Mg64  1  0.60026486  0.80013293  0.33295668  1
  Mg  Mg65  1  0.40000709  0.59999291  0.33310063  1
  Mg  Mg66  1  0.19998583  0.59999291  0.33310063  1
  Mg  Mg67  1  0.40000709  0.80001517  0.33310063  1
  Mg  Mg68  1  0.59995538  0.19991075  0.33314697  1
  Mg  Mg69  1  0.80008925  0.40004462  0.33314697  1
  Mg  Mg70  1  0.59995538  0.40004462  0.33314697  1
  Mg  Mg71  1  0.80012965  0.19987035  0.33338137  1
  Mg  Mg72  1  0.39974069  0.19987035  0.33338137  1
  Mg  Mg73  1  0.80012965  0.60025931  0.33338137  1
  Mg  Mg74  1  0.06647232  0.13294363  0.50000000  1
  Mg  Mg75  1  0.86683724  0.13316176  0.50000000  1
  Mg  Mg76  1  0.26632453  0.13316276  0.50000000  1
  Mg  Mg77  1  0.46661189  0.13321493  0.50000000  1
  Mg  Mg78  1  0.66660404  0.13321593  0.50000000  1
  Mg  Mg79  1  0.26649124  0.33285790  0.50000000  1
  Mg  Mg80  1  0.06636666  0.33285790  0.50000000  1
  Mg  Mg81  1  0.66666700  0.33333300  0.50000000  1
  Mg  Mg82  1  0.86678407  0.33339596  0.50000000  1
  Mg  Mg83  1  0.46661189  0.33339696  0.50000000  1
  Mg  Mg84  1  0.26651827  0.53303553  0.50000000  1
  Mg  Mg85  1  0.46677796  0.53322204  0.50000000  1
  Mg  Mg86  1  0.06644509  0.53322304  0.50000000  1
  Mg  Mg87  1  0.86678407  0.53338811  0.50000000  1
  Mg  Mg88  1  0.66660404  0.53338811  0.50000000  1
  Mg  Mg89  1  0.26651827  0.73348173  0.50000000  1
  Mg  Mg90  1  0.46696447  0.73348273  0.50000000  1
  Mg  Mg91  1  0.06636666  0.73350776  0.50000000  1
  Mg  Mg92  1  0.66714110  0.73350776  0.50000000  1
  Mg  Mg93  1  0.86683724  0.73367547  0.50000000  1
  Mg  Mg94  1  0.06647232  0.93352768  0.50000000  1
  Mg  Mg95  1  0.86705637  0.93352868  0.50000000  1
  Mg  Mg96  1  0.46677796  0.93355491  0.50000000  1
  Mg  Mg97  1  0.66714110  0.93363334  0.50000000  1
  Mg  Mg98  1  0.26649124  0.93363334  0.50000000  1
  Mg  Mg99  1  0.80012965  0.19987035  0.66661863  1
  Mg  Mg100  1  0.39974069  0.19987035  0.66661863  1
  Mg  Mg101  1  0.80012965  0.60025931  0.66661863  1
  Mg  Mg102  1  0.59995538  0.19991075  0.66685303  1
  Mg  Mg103  1  0.80008925  0.40004462  0.66685303  1
  Mg  Mg104  1  0.59995538  0.40004462  0.66685303  1
  Mg  Mg105  1  0.40000709  0.59999291  0.66690037  1
  Mg  Mg106  1  0.19998583  0.59999291  0.66690037  1
  Mg  Mg107  1  0.40000709  0.80001517  0.66690037  1
  Mg  Mg108  1  0.19986807  0.39973514  0.66704332  1
  Mg  Mg109  1  0.19986807  0.80013293  0.66704332  1
  Mg  Mg110  1  0.60026486  0.80013293  0.66704332  1
  Mg  Mg111  1  0.60032395  0.99990173  0.66704391  1
  Mg  Mg112  1  0.39957778  0.99990173  0.66704391  1
  Mg  Mg113  1  0.39957778  0.39967605  0.66704391  1
  Mg  Mg114  1  0.00009827  0.39967705  0.66704391  1
  Mg  Mg115  1  0.60032395  0.60042122  0.66704391  1
  Mg  Mg116  1  0.00009827  0.60042222  0.66704391  1
  Mg  Mg117  1  0.19909818  0.99971799  0.66745546  1
  Mg  Mg118  1  0.80062082  0.99971899  0.66745546  1
  Mg  Mg119  1  0.00028101  0.19937918  0.66745546  1
  Mg  Mg120  1  0.19909818  0.19937918  0.66745546  1
  Mg  Mg121  1  0.80062082  0.80090182  0.66745546  1
  Mg  Mg122  1  0.00028101  0.80090182  0.66745546  1
  Mg  Mg123  1  0.00000000  0.00000000  0.66820348  1
  Mg  Mg124  1  0.26746960  0.13373430  0.83288695  1
  Mg  Mg125  1  0.86626470  0.13373530  0.83288695  1
  Mg  Mg126  1  0.86626470  0.73253040  0.83288695  1
  Mg  Mg127  1  0.66666700  0.33333300  0.83342966  1
  Mg  Mg128  1  0.46678831  0.13336973  0.83350241  1
  Mg  Mg129  1  0.66658142  0.13336973  0.83350241  1
  Mg  Mg130  1  0.46678831  0.33341858  0.83350241  1
  Mg  Mg131  1  0.86663027  0.33341858  0.83350241  1
  Mg  Mg132  1  0.66658142  0.53321069  0.83350241  1
  Mg  Mg133  1  0.86663027  0.53321169  0.83350241  1
  Mg  Mg134  1  0.46671036  0.53328964  0.83375013  1
  Mg  Mg135  1  0.06658028  0.53329064  0.83375013  1
  Mg  Mg136  1  0.46671036  0.93341972  0.83375013  1
  Mg  Mg137  1  0.26635633  0.53271166  0.83370445  1
  Mg  Mg138  1  0.26635633  0.73364367  0.83370445  1
  Mg  Mg139  1  0.46728734  0.73364367  0.83370445  1
  Mg  Mg140  1  0.26555593  0.33163421  0.83418338  1
  Mg  Mg141  1  0.06607828  0.33163421  0.83418338  1
  Mg  Mg142  1  0.06607828  0.73444407  0.83418338  1
  Mg  Mg143  1  0.66836579  0.73444407  0.83418338  1
  Mg  Mg144  1  0.26555593  0.93392172  0.83418338  1
  Mg  Mg145  1  0.66836579  0.93392172  0.83418338  1
  Mg  Mg146  1  0.06471267  0.12942435  0.83831495  1
  Mg  Mg147  1  0.06471267  0.93528733  0.83831495  1
  Mg  Mg148  1  0.87057465  0.93528733  0.83831495  1
  Be  Be0  1  0.00000000  0.00000000  -0.00000000  1
loop_
_geom_bond_atom_site_label_1
_geom_bond_atom_site_label_2
_geom_bond_distance
_geom_bond_site_symmetry_2
Mg0 Mg3 3.057469 1_555
Mg0 Mg147 3.089223 1_544
Mg0 Mg25 3.089223 1_545
Mg0 Mg20 3.114034 1_445
Mg0 Mg124 3.179432 1_554
Mg0 Mg46 3.179432 1_555
Mg0 Mg5 3.192329 1_555
Mg0 Mg144 3.205488 1_544
Mg0 Mg31 3.205500 1_545
Mg0 Mg18 3.211871 1_545
Mg0 Mg23 3.253475 1_545
Mg1 Mg2 3.057460 1_555
Mg1 Mg26 3.089223 1_545
Mg1 Mg148 3.089223 1_544
Mg1 Mg21 3.114036 1_545
Mg1 Mg125 3.179440 1_554
Mg1 Mg47 3.179440 1_555
Mg1 Mg4 3.192330 1_555
Mg1 Mg145 3.205487 1_544
Mg1 Mg32 3.205500 1_545
Mg1 Mg19 3.211870 1_545
Mg1 Mg22 3.253475 1_545
Mg2 Mg24 3.089239 1_655
Mg2 Mg3 3.114035 1_655
Mg2 Mg47 3.179432 1_555
Mg2 Mg4 3.192313 1_555
Mg2 Mg28 3.205500 1_655
Mg2 Mg7 3.211886 1_655
Mg2 Mg9 3.253468 1_655
Mg3 Mg46 3.179440 1_555
Mg3 Mg5 3.192329 1_555
Mg3 Mg7 3.211871 1_555
Mg3 Mg8 3.253474 1_555
Mg4 Mg47 3.165522 1_555
Mg4 Mg9 3.169929 1_655
Mg4 Mg40 3.183077 1_555
Mg4 Mg42 3.183078 1_555
Mg4 Mg6 3.196251 1_555
Mg5 Mg8 3.169930 1_555
Mg5 Mg6 3.196251 1_555
Mg7 Mg8 3.169289 1_555
Mg7 Mg9 3.169305 1_555
Mg10 Mg133 3.173871 1_554
Mg10 Mg44 3.173871 1_555
Mg10 Mg131 3.173879 1_554
Mg10 Mg42 3.173879 1_555
Mg10 Mg127 3.179826 1_554
Mg10 Mg45 3.179826 1_555
Mg10 Mg14 3.182440 1_655
Mg10 Mg9 3.182448 1_655
Mg10 Mg11 3.185992 1_555
Mg10 Mg6 3.186000 1_555
Mg10 Mg16 3.196260 1_555
Mg10 Mg4 3.196260 1_555
Mg11 Mg132 3.173863 1_554
Mg11 Mg43 3.173863 1_555
Mg11 Mg130 3.173870 1_554
Mg11 Mg41 3.173870 1_555
Mg11 Mg127 3.179842 1_554
Mg11 Mg45 3.179842 1_555
Mg11 Mg8 3.182432 1_555
Mg11 Mg15 3.182433 1_555
Mg11 Mg6 3.186009 1_555
Mg11 Mg5 3.196250 1_555
Mg11 Mg16 3.196258 1_555
Mg12 Mg36 3.171491 1_555
Mg12 Mg134 3.171503 1_554
Mg12 Mg137 3.177219 1_554
Mg12 Mg33 3.177219 1_555
Mg12 Mg139 3.177219 1_554
Mg12 Mg35 3.177219 1_555
Mg12 Mg15 3.182487 1_555
Mg12 Mg8 3.182488 1_555
Mg12 Mg13 3.184561 1_555
Mg12 Mg17 3.184562 1_555
Mg12 Mg7 3.204547 1_555
Mg12 Mg19 3.204555 1_555
Mg13 Mg37 3.171482 1_555
Mg13 Mg135 3.171495 1_554
Mg13 Mg138 3.177219 1_554
Mg13 Mg34 3.177219 1_555
Mg13 Mg137 3.177227 1_554
Mg13 Mg33 3.177227 1_555
Mg13 Mg9 3.182487 1_555
Mg13 Mg14 3.182487 1_555
Mg13 Mg17 3.184561 1_555
Mg13 Mg7 3.204556 1_555
Mg13 Mg18 3.204556 1_555
Mg14 Mg142 3.168003 1_554
Mg14 Mg29 3.168016 1_555
Mg14 Mg18 3.169305 1_555
Mg14 Mg16 3.169937 1_455
Mg14 Mg44 3.176757 1_455
Mg14 Mg37 3.180890 1_555
Mg14 Mg9 3.210944 1_555
Mg14 Mg20 3.253468 1_455
Mg15 Mg30 3.168016 1_555
Mg15 Mg19 3.169306 1_555
Mg15 Mg16 3.169921 1_555
Mg15 Mg43 3.176765 1_555
Mg15 Mg36 3.180890 1_555
Mg15 Mg8 3.210943 1_555
Mg15 Mg21 3.253467 1_555
Mg16 Mg48 3.165522 1_555
Mg16 Mg43 3.183077 1_555
Mg16 Mg44 3.183086 1_555
Mg16 Mg21 3.192298 1_555
Mg16 Mg20 3.192305 1_555
Mg17 Mg38 3.171483 1_555
Mg17 Mg34 3.177219 1_555
Mg17 Mg35 3.177219 1_555
Mg17 Mg22 3.182487 1_555
Mg17 Mg23 3.182488 1_555
Mg17 Mg19 3.204547 1_555
Mg17 Mg18 3.204547 1_555
Mg18 Mg31 3.163330 1_555
Mg18 Mg29 3.163338 1_555
Mg18 Mg23 3.169289 1_555
Mg18 Mg34 3.186544 1_555
Mg18 Mg20 3.211886 1_455
Mg19 Mg32 3.163330 1_555
Mg19 Mg30 3.163338 1_555
Mg19 Mg22 3.169290 1_555
Mg19 Mg35 3.186544 1_555
Mg19 Mg21 3.211886 1_555
Mg20 Mg21 3.057453 1_555
Mg20 Mg25 3.089231 1_655
Mg20 Mg48 3.179431 1_555
Mg20 Mg29 3.205500 1_655
Mg21 Mg26 3.089231 1_555
Mg21 Mg48 3.179424 1_555
Mg21 Mg30 3.205500 1_555
Mg22 Mg32 3.168016 1_555
Mg22 Mg4 3.169929 1_565
Mg22 Mg40 3.176757 1_565
Mg22 Mg38 3.180890 1_555
Mg22 Mg6 3.182433 1_565
Mg22 Mg23 3.210943 1_555
Mg23 Mg31 3.168015 1_555
Mg23 Mg5 3.169930 1_565
Mg23 Mg39 3.176757 1_565
Mg23 Mg38 3.180898 1_555
Mg23 Mg6 3.182432 1_565
Mg24 Mg25 3.084701 1_545
Mg24 Mg26 3.084708 1_445
Mg24 Mg3 3.089223 1_555
Mg24 Mg46 3.189095 1_555
Mg24 Mg47 3.189119 1_455
Mg24 Mg49 3.191972 1_555
Mg24 Mg27 3.202816 1_555
Mg24 Mg28 3.202825 1_555
Mg24 Mg53 3.240413 1_555
Mg24 Mg52 3.240421 1_555
Mg25 Mg26 3.084716 1_455
Mg25 Mg46 3.189095 1_565
Mg25 Mg48 3.189103 1_455
Mg25 Mg49 3.191979 1_565
Mg25 Mg31 3.202809 1_555
Mg25 Mg29 3.202809 1_555
Mg25 Mg50 3.240413 1_555
Mg25 Mg55 3.240413 1_555
Mg26 Mg48 3.189096 1_555
Mg26 Mg47 3.189112 1_565
Mg26 Mg49 3.191979 1_665
Mg26 Mg30 3.202808 1_555
Mg26 Mg32 3.202808 1_555
Mg26 Mg51 3.240413 1_555
Mg26 Mg54 3.240413 1_555
Mg27 Mg46 3.159868 1_555
Mg27 Mg7 3.163331 1_555
Mg27 Mg8 3.168015 1_555
Mg27 Mg28 3.169559 1_555
Mg27 Mg53 3.170573 1_555
Mg27 Mg41 3.183377 1_555
Mg27 Mg62 3.188025 1_555
Mg27 Mg33 3.188648 1_555
Mg27 Mg58 3.189842 1_555
Mg27 Mg36 3.200196 1_555
Mg27 Mg3 3.205500 1_555
Mg28 Mg47 3.159859 1_455
Mg28 Mg7 3.163338 1_555
Mg28 Mg9 3.168016 1_555
Mg28 Mg52 3.170573 1_555
Mg28 Mg42 3.183377 1_455
Mg28 Mg62 3.188032 1_555
Mg28 Mg33 3.188655 1_555
Mg28 Mg59 3.189850 1_555
Mg28 Mg37 3.200205 1_555
Mg29 Mg48 3.159867 1_455
Mg29 Mg31 3.169559 1_555
Mg29 Mg55 3.170573 1_555
Mg29 Mg44 3.183376 1_455
Mg29 Mg63 3.188032 1_555
Mg29 Mg34 3.188663 1_555
Mg29 Mg61 3.189842 1_555
Mg29 Mg37 3.200190 1_555
Mg30 Mg48 3.159852 1_555
Mg30 Mg32 3.169560 1_555
Mg30 Mg54 3.170572 1_555
Mg30 Mg43 3.183393 1_555
Mg30 Mg64 3.188033 1_555
Mg30 Mg35 3.188663 1_555
Mg30 Mg60 3.189850 1_555
Mg30 Mg36 3.200196 1_555
Mg31 Mg46 3.159852 1_565
Mg31 Mg50 3.170565 1_555
Mg31 Mg39 3.183376 1_565
Mg31 Mg63 3.188025 1_555
Mg31 Mg34 3.188664 1_555
Mg31 Mg57 3.189842 1_555
Mg31 Mg38 3.200205 1_555
Mg32 Mg47 3.159859 1_565
Mg32 Mg51 3.170572 1_555
Mg32 Mg40 3.183377 1_565
Mg32 Mg64 3.188025 1_555
Mg32 Mg35 3.188663 1_555
Mg32 Mg56 3.189842 1_555
Mg32 Mg38 3.200189 1_555
Mg33 Mg62 3.175440 1_555
Mg33 Mg36 3.178902 1_555
Mg33 Mg37 3.178910 1_555
Mg33 Mg65 3.182632 1_555
Mg33 Mg66 3.182641 1_555
Mg33 Mg7 3.186536 1_555
Mg33 Mg35 3.192660 1_555
Mg33 Mg34 3.192669 1_555
Mg34 Mg63 3.175448 1_555
Mg34 Mg37 3.178894 1_555
Mg34 Mg38 3.178902 1_555
Mg34 Mg67 3.182632 1_555
Mg34 Mg66 3.182633 1_555
Mg34 Mg35 3.192652 1_555
Mg35 Mg64 3.175448 1_555
Mg35 Mg38 3.178895 1_555
Mg35 Mg36 3.178911 1_555
Mg35 Mg65 3.182633 1_555
Mg35 Mg67 3.182641 1_555
Mg36 Mg41 3.176433 1_555
Mg36 Mg43 3.176440 1_555
Mg36 Mg8 3.180890 1_555
Mg36 Mg60 3.181077 1_555
Mg36 Mg58 3.181077 1_555
Mg36 Mg65 3.181277 1_555
Mg37 Mg44 3.176440 1_455
Mg37 Mg42 3.176448 1_455
Mg37 Mg9 3.180898 1_555
Mg37 Mg59 3.181077 1_555
Mg37 Mg61 3.181077 1_555
Mg37 Mg66 3.181269 1_555
Mg38 Mg40 3.176440 1_565
Mg38 Mg39 3.176449 1_565
Mg38 Mg56 3.181077 1_555
Mg38 Mg57 3.181085 1_555
Mg38 Mg67 3.181262 1_555
Mg39 Mg46 3.169948 1_555
Mg39 Mg6 3.173870 1_555
Mg39 Mg40 3.174571 1_555
Mg39 Mg45 3.176603 1_555
Mg39 Mg57 3.176763 1_545
Mg39 Mg68 3.176802 1_555
Mg39 Mg41 3.178636 1_555
Mg39 Mg72 3.182813 1_555
Mg39 Mg5 3.183078 1_555
Mg40 Mg47 3.169940 1_555
Mg40 Mg6 3.173871 1_555
Mg40 Mg45 3.176597 1_555
Mg40 Mg56 3.176763 1_545
Mg40 Mg68 3.176802 1_555
Mg40 Mg42 3.178635 1_555
Mg40 Mg71 3.182813 1_555
Mg41 Mg46 3.169956 1_555
Mg41 Mg43 3.174563 1_555
Mg41 Mg45 3.176612 1_555
Mg41 Mg8 3.176757 1_555
Mg41 Mg58 3.176763 1_555
Mg41 Mg70 3.176802 1_555
Mg41 Mg72 3.182813 1_555
Mg41 Mg5 3.183078 1_555
Mg42 Mg47 3.169941 1_555
Mg42 Mg44 3.174572 1_555
Mg42 Mg45 3.176596 1_555
Mg42 Mg9 3.176757 1_655
Mg42 Mg59 3.176763 1_655
Mg42 Mg69 3.176802 1_555
Mg42 Mg71 3.182813 1_555
Mg43 Mg48 3.169956 1_555
Mg43 Mg45 3.176597 1_555
Mg43 Mg60 3.176763 1_555
Mg43 Mg70 3.176794 1_555
Mg43 Mg44 3.178627 1_555
Mg43 Mg73 3.182813 1_555
Mg44 Mg48 3.169957 1_555
Mg44 Mg45 3.176603 1_555
Mg44 Mg61 3.176763 1_655
Mg44 Mg69 3.176802 1_555
Mg44 Mg73 3.182813 1_555
Mg45 Mg69 3.177904 1_555
Mg45 Mg68 3.177904 1_555
Mg45 Mg70 3.177912 1_555
Mg45 Mg6 3.179834 1_555
Mg46 Mg72 3.164850 1_555
Mg46 Mg5 3.165530 1_555
Mg46 Mg53 3.168191 1_555
Mg46 Mg50 3.168191 1_545
Mg47 Mg71 3.164843 1_555
Mg47 Mg52 3.168191 1_655
Mg47 Mg51 3.168192 1_545
Mg48 Mg73 3.164850 1_555
Mg48 Mg54 3.168184 1_555
Mg48 Mg55 3.168191 1_655
Mg49 Mg54 3.165786 1_445
Mg49 Mg53 3.165786 1_555
Mg49 Mg51 3.165786 1_445
Mg49 Mg52 3.165787 1_555
Mg49 Mg55 3.165787 1_545
Mg49 Mg50 3.165794 1_545
Mg49 Mg95 3.194839 1_445
Mg49 Mg74 3.194840 1_555
Mg49 Mg94 3.194848 1_545
Mg50 Mg55 3.159056 1_555
Mg50 Mg53 3.172476 1_565
Mg50 Mg63 3.177407 1_555
Mg50 Mg94 3.182788 1_555
Mg50 Mg57 3.184027 1_555
Mg50 Mg72 3.184207 1_565
Mg50 Mg76 3.189273 1_565
Mg50 Mg98 3.189541 1_555
Mg51 Mg54 3.159065 1_555
Mg51 Mg52 3.172459 1_665
Mg51 Mg64 3.177422 1_555
Mg51 Mg95 3.182788 1_555
Mg51 Mg56 3.184035 1_555
Mg51 Mg71 3.184201 1_565
Mg51 Mg75 3.189257 1_565
Mg51 Mg97 3.189556 1_555
Mg52 Mg53 3.159064 1_555
Mg52 Mg62 3.177430 1_555
Mg52 Mg74 3.182796 1_555
Mg52 Mg59 3.184052 1_555
Mg52 Mg71 3.184200 1_455
Mg52 Mg75 3.189264 1_455
Mg52 Mg80 3.189548 1_555
Mg53 Mg62 3.177423 1_555
Mg53 Mg74 3.182788 1_555
Mg53 Mg58 3.184035 1_555
Mg53 Mg72 3.184199 1_555
Mg53 Mg76 3.189257 1_555
Mg53 Mg79 3.189548 1_555
Mg54 Mg55 3.172459 1_655
Mg54 Mg64 3.177430 1_555
Mg54 Mg95 3.182796 1_555
Mg54 Mg60 3.184043 1_555
Mg54 Mg73 3.184200 1_555
Mg54 Mg93 3.189257 1_555
Mg54 Mg92 3.189556 1_555
Mg55 Mg63 3.177430 1_555
Mg55 Mg94 3.182788 1_555
Mg55 Mg61 3.184036 1_555
Mg55 Mg73 3.184199 1_455
Mg55 Mg93 3.189264 1_455
Mg55 Mg91 3.189556 1_555
Mg56 Mg64 3.173717 1_555
Mg56 Mg71 3.176073 1_565
Mg56 Mg67 3.179481 1_555
Mg56 Mg68 3.180937 1_565
Mg56 Mg97 3.181192 1_555
Mg56 Mg78 3.183007 1_565
Mg56 Mg96 3.184848 1_555
Mg56 Mg57 3.189715 1_555
Mg57 Mg63 3.173716 1_555
Mg57 Mg72 3.176075 1_565
Mg57 Mg67 3.179474 1_555
Mg57 Mg68 3.180936 1_565
Mg57 Mg98 3.181200 1_555
Mg57 Mg77 3.183000 1_565
Mg57 Mg96 3.184856 1_555
Mg58 Mg62 3.173716 1_555
Mg58 Mg72 3.176074 1_555
Mg58 Mg65 3.179490 1_555
Mg58 Mg70 3.180936 1_555
Mg58 Mg79 3.181200 1_555
Mg58 Mg83 3.183000 1_555
Mg58 Mg85 3.184848 1_555
Mg58 Mg60 3.189707 1_555
Mg59 Mg62 3.173740 1_555
Mg59 Mg71 3.176081 1_455
Mg59 Mg66 3.179481 1_555
Mg59 Mg69 3.180928 1_455
Mg59 Mg80 3.181208 1_555
Mg59 Mg82 3.183007 1_455
Mg59 Mg86 3.184848 1_555
Mg59 Mg61 3.189700 1_555
Mg60 Mg64 3.173748 1_555
Mg60 Mg73 3.176066 1_555
Mg60 Mg65 3.179497 1_555
Mg60 Mg70 3.180921 1_555
Mg60 Mg92 3.181200 1_555
Mg60 Mg88 3.183000 1_555
Mg60 Mg85 3.184848 1_555
Mg61 Mg63 3.173732 1_555
Mg61 Mg73 3.176074 1_455
Mg61 Mg66 3.179489 1_555
Mg61 Mg69 3.180936 1_455
Mg61 Mg91 3.181192 1_555
Mg61 Mg87 3.183007 1_455
Mg61 Mg86 3.184848 1_555
Mg62 Mg65 3.181012 1_555
Mg62 Mg66 3.181021 1_555
Mg62 Mg84 3.182872 1_555
Mg62 Mg79 3.184460 1_555
Mg62 Mg80 3.184467 1_555
Mg63 Mg67 3.181004 1_555
Mg63 Mg66 3.181021 1_555
Mg63 Mg89 3.182880 1_555
Mg63 Mg98 3.184460 1_555
Mg63 Mg91 3.184467 1_555
Mg64 Mg65 3.181020 1_555
Mg64 Mg67 3.181020 1_555
Mg64 Mg90 3.182872 1_555
Mg64 Mg97 3.184460 1_555
Mg64 Mg92 3.184468 1_555
Mg65 Mg66 3.178197 1_555
Mg65 Mg67 3.178213 1_555
Mg65 Mg84 3.182538 1_555
Mg65 Mg90 3.182546 1_555
Mg65 Mg85 3.182957 1_555
Mg66 Mg67 3.178204 1_555
Mg66 Mg89 3.182538 1_555
Mg66 Mg84 3.182546 1_555
Mg66 Mg86 3.182948 1_555
Mg67 Mg89 3.182538 1_555
Mg67 Mg90 3.182546 1_555
Mg67 Mg96 3.182941 1_555
Mg68 Mg69 3.179986 1_555
Mg68 Mg70 3.179987 1_555
Mg68 Mg77 3.180793 1_555
Mg68 Mg78 3.180793 1_555
Mg68 Mg71 3.180951 1_555
Mg68 Mg72 3.180951 1_555
Mg68 Mg81 3.181418 1_555
Mg69 Mg70 3.179986 1_555
Mg69 Mg82 3.180793 1_555
Mg69 Mg87 3.180793 1_555
Mg69 Mg71 3.180952 1_555
Mg69 Mg73 3.180952 1_555
Mg69 Mg81 3.181418 1_555
Mg70 Mg83 3.180793 1_555
Mg70 Mg88 3.180793 1_555
Mg70 Mg72 3.180951 1_555
Mg70 Mg73 3.180951 1_555
Mg70 Mg81 3.181426 1_555
Mg71 Mg75 3.178390 1_555
Mg71 Mg78 3.179260 1_555
Mg71 Mg82 3.179260 1_555
Mg72 Mg76 3.178389 1_555
Mg72 Mg83 3.179268 1_555
Mg72 Mg77 3.179268 1_555
Mg73 Mg93 3.178390 1_555
Mg73 Mg88 3.179260 1_555
Mg73 Mg87 3.179260 1_555
Mg74 Mg95 3.168570 1_445
Mg74 Mg94 3.168579 1_545
Mg74 Mg76 3.173771 1_555
Mg74 Mg75 3.173795 1_455
Mg74 Mg79 3.177328 1_555
Mg74 Mg80 3.177337 1_555
Mg75 Mg97 3.171699 1_545
Mg75 Mg80 3.171707 1_655
Mg75 Mg95 3.173772 1_545
Mg75 Mg99 3.178390 1_555
Mg75 Mg78 3.181995 1_555
Mg75 Mg82 3.182003 1_555
Mg76 Mg79 3.171692 1_555
Mg76 Mg98 3.171708 1_545
Mg76 Mg94 3.173787 1_545
Mg76 Mg83 3.182002 1_555
Mg76 Mg77 3.182010 1_555
Mg77 Mg96 3.173778 1_545
Mg77 Mg98 3.175502 1_545
Mg77 Mg78 3.177726 1_555
Mg77 Mg81 3.179235 1_555
Mg77 Mg83 3.180752 1_555
Mg78 Mg96 3.173785 1_545
Mg78 Mg97 3.175503 1_545
Mg78 Mg81 3.179220 1_555
Mg78 Mg99 3.179260 1_555
Mg78 Mg82 3.180719 1_555
Mg79 Mg83 3.175502 1_555
Mg79 Mg80 3.179838 1_555
Mg79 Mg84 3.180467 1_555
Mg79 Mg85 3.183030 1_555
Mg80 Mg82 3.175510 1_455
Mg80 Mg84 3.180474 1_555
Mg80 Mg86 3.183039 1_555
Mg81 Mg82 3.179219 1_555
Mg81 Mg87 3.179227 1_555
Mg81 Mg88 3.179236 1_555
Mg81 Mg83 3.179243 1_555
Mg82 Mg86 3.173793 1_655
Mg82 Mg87 3.177735 1_555
Mg82 Mg99 3.179260 1_555
Mg83 Mg85 3.173762 1_555
Mg83 Mg88 3.177726 1_555
Mg84 Mg85 3.180504 1_555
Mg84 Mg86 3.180512 1_555
Mg84 Mg89 3.184949 1_555
Mg84 Mg90 3.184956 1_555
Mg85 Mg88 3.173777 1_555
Mg85 Mg90 3.180521 1_555
Mg85 Mg92 3.183014 1_555
Mg86 Mg87 3.173785 1_455
Mg86 Mg89 3.180496 1_555
Mg86 Mg91 3.183007 1_555
Mg87 Mg91 3.175502 1_655
Mg87 Mg88 3.180719 1_555
Mg87 Mg93 3.182003 1_555
Mg88 Mg92 3.175503 1_555
Mg88 Mg93 3.181994 1_555
Mg89 Mg91 3.180475 1_555
Mg89 Mg98 3.180483 1_555
Mg89 Mg96 3.180504 1_555
Mg89 Mg90 3.184941 1_555
Mg90 Mg97 3.180458 1_555
Mg90 Mg92 3.180466 1_555
Mg90 Mg96 3.180489 1_555
Mg91 Mg93 3.171715 1_455
Mg91 Mg94 3.177337 1_555
Mg91 Mg98 3.179846 1_555
Mg92 Mg93 3.171699 1_555
Mg92 Mg95 3.177352 1_555
Mg92 Mg97 3.179855 1_555
Mg93 Mg94 3.173787 1_655
Mg93 Mg95 3.173788 1_555
Mg94 Mg95 3.168587 1_455
Mg94 Mg98 3.177320 1_555
Mg95 Mg97 3.177344 1_555
Mg96 Mg97 3.183006 1_555
Mg96 Mg98 3.183038 1_555
Mg100 Mg124 3.164850 1_555
Mg100 Mg113 3.176074 1_555
Mg100 Mg112 3.176074 1_545
Mg100 Mg76 3.178389 1_555
Mg100 Mg83 3.179268 1_555
Mg100 Mg77 3.179268 1_555
Mg100 Mg104 3.180951 1_555
Mg100 Mg102 3.180951 1_555
Mg100 Mg130 3.182813 1_555
Mg100 Mg128 3.182813 1_555
Mg100 Mg120 3.184199 1_555
Mg100 Mg117 3.184207 1_545
Mg101 Mg126 3.164850 1_555
Mg101 Mg115 3.176065 1_555
Mg101 Mg116 3.176074 1_655
Mg101 Mg93 3.178390 1_555
Mg101 Mg88 3.179260 1_555
Mg101 Mg87 3.179260 1_555
Mg101 Mg104 3.180951 1_555
Mg101 Mg103 3.180952 1_555
Mg101 Mg132 3.182813 1_555
Mg101 Mg133 3.182813 1_555
Mg101 Mg122 3.184199 1_655
Mg101 Mg121 3.184200 1_555
Mg102 Mg128 3.176802 1_555
Mg102 Mg129 3.176802 1_555
Mg102 Mg127 3.177904 1_555
Mg102 Mg103 3.179986 1_555
Mg102 Mg104 3.179987 1_555
Mg102 Mg77 3.180793 1_555
Mg102 Mg78 3.180793 1_555
Mg102 Mg112 3.180936 1_545
Mg102 Mg111 3.180937 1_545
Mg102 Mg99 3.180951 1_555
Mg102 Mg81 3.181418 1_555
Mg103 Mg131 3.176802 1_555
Mg103 Mg133 3.176802 1_555
Mg103 Mg127 3.177904 1_555
Mg103 Mg104 3.179986 1_555
Mg103 Mg82 3.180793 1_555
Mg103 Mg87 3.180793 1_555
Mg103 Mg114 3.180928 1_655
Mg103 Mg116 3.180936 1_655
Mg103 Mg99 3.180952 1_555
Mg103 Mg81 3.181418 1_555
Mg104 Mg132 3.176794 1_555
Mg104 Mg130 3.176802 1_555
Mg104 Mg127 3.177912 1_555
Mg104 Mg83 3.180793 1_555
Mg104 Mg88 3.180793 1_555
Mg104 Mg115 3.180921 1_555
Mg104 Mg113 3.180936 1_555
Mg104 Mg81 3.181426 1_555
Mg105 Mg106 3.178197 1_555
Mg105 Mg107 3.178213 1_555
Mg105 Mg113 3.179490 1_555
Mg105 Mg115 3.179497 1_555
Mg105 Mg108 3.181012 1_555
Mg105 Mg110 3.181020 1_555
Mg105 Mg134 3.181252 1_555
Mg105 Mg84 3.182551 1_555
Mg105 Mg90 3.182559 1_555
Mg105 Mg137 3.182620 1_555
Mg105 Mg139 3.182620 1_555
Mg105 Mg85 3.182969 1_555
Mg106 Mg107 3.178204 1_555
Mg106 Mg114 3.179481 1_555
Mg106 Mg116 3.179489 1_555
Mg106 Mg108 3.181021 1_555
Mg106 Mg109 3.181021 1_555
Mg106 Mg135 3.181244 1_555
Mg106 Mg89 3.182551 1_555
Mg106 Mg84 3.182559 1_555
Mg106 Mg138 3.182620 1_555
Mg106 Mg137 3.182628 1_555
Mg106 Mg86 3.182961 1_555
Mg107 Mg112 3.179474 1_555
Mg107 Mg111 3.179481 1_555
Mg107 Mg109 3.181004 1_555
Mg107 Mg110 3.181020 1_555
Mg107 Mg136 3.181236 1_555
Mg107 Mg89 3.182550 1_555
Mg107 Mg90 3.182559 1_555
Mg107 Mg138 3.182620 1_555
Mg107 Mg139 3.182628 1_555
Mg107 Mg96 3.182953 1_555
Mg108 Mg113 3.173716 1_555
Mg108 Mg114 3.173740 1_555
Mg108 Mg137 3.175440 1_555
Mg108 Mg120 3.177423 1_555
Mg108 Mg119 3.177430 1_555
Mg108 Mg84 3.182872 1_555
Mg108 Mg79 3.184460 1_555
Mg108 Mg80 3.184467 1_555
Mg108 Mg140 3.188037 1_555
Mg108 Mg141 3.188045 1_555
Mg109 Mg112 3.173716 1_555
Mg109 Mg116 3.173732 1_555
Mg109 Mg138 3.175448 1_555
Mg109 Mg117 3.177407 1_555
Mg109 Mg122 3.177430 1_555
Mg109 Mg89 3.182880 1_555
Mg109 Mg98 3.184460 1_555
Mg109 Mg91 3.184467 1_555
Mg109 Mg144 3.188037 1_555
Mg109 Mg142 3.188045 1_555
Mg110 Mg111 3.173717 1_555
Mg110 Mg115 3.173748 1_555
Mg110 Mg139 3.175448 1_555
Mg110 Mg118 3.177422 1_555
Mg110 Mg121 3.177430 1_555
Mg110 Mg90 3.182872 1_555
Mg110 Mg97 3.184460 1_555
Mg110 Mg92 3.184468 1_555
Mg110 Mg145 3.188037 1_555
Mg110 Mg143 3.188045 1_555
Mg111 Mg99 3.176073 1_565
Mg111 Mg129 3.176776 1_565
Mg111 Mg136 3.181077 1_555
Mg111 Mg97 3.181180 1_555
Mg111 Mg78 3.182995 1_565
Mg111 Mg118 3.184035 1_555
Mg111 Mg96 3.184835 1_555
Mg111 Mg112 3.189715 1_555
Mg111 Mg145 3.189867 1_555
Mg112 Mg128 3.176776 1_565
Mg112 Mg136 3.181085 1_555
Mg112 Mg98 3.181187 1_555
Mg112 Mg77 3.182987 1_565
Mg112 Mg117 3.184027 1_555
Mg112 Mg96 3.184844 1_555
Mg112 Mg144 3.189867 1_555
Mg113 Mg130 3.176776 1_555
Mg113 Mg134 3.181077 1_555
Mg113 Mg79 3.181187 1_555
Mg113 Mg83 3.182987 1_555
Mg113 Mg120 3.184035 1_555
Mg113 Mg85 3.184836 1_555
Mg113 Mg115 3.189707 1_555
Mg113 Mg140 3.189867 1_555
Mg114 Mg99 3.176081 1_455
Mg114 Mg131 3.176776 1_455
Mg114 Mg135 3.181077 1_555
Mg114 Mg80 3.181196 1_555
Mg114 Mg82 3.182994 1_455
Mg114 Mg119 3.184052 1_555
Mg114 Mg86 3.184836 1_555
Mg114 Mg116 3.189700 1_555
Mg114 Mg141 3.189875 1_555
Mg115 Mg132 3.176776 1_555
Mg115 Mg134 3.181077 1_555
Mg115 Mg92 3.181188 1_555
Mg115 Mg88 3.182987 1_555
Mg115 Mg121 3.184043 1_555
Mg115 Mg85 3.184835 1_555
Mg115 Mg143 3.189875 1_555
Mg116 Mg133 3.176776 1_455
Mg116 Mg135 3.181077 1_555
Mg116 Mg91 3.181180 1_555
Mg116 Mg87 3.182994 1_455
Mg116 Mg122 3.184036 1_555
Mg116 Mg86 3.184836 1_555
Mg116 Mg142 3.189867 1_555
Mg117 Mg122 3.159056 1_555
Mg117 Mg123 3.165794 1_565
Mg117 Mg124 3.168191 1_565
Mg117 Mg144 3.170577 1_555
Mg117 Mg120 3.172476 1_565
Mg117 Mg94 3.182788 1_555
Mg117 Mg76 3.189273 1_565
Mg117 Mg98 3.189541 1_555
Mg117 Mg147 3.240413 1_555
Mg118 Mg121 3.159065 1_555
Mg118 Mg123 3.165786 1_665
Mg118 Mg125 3.168192 1_565
Mg118 Mg145 3.170585 1_555
Mg118 Mg119 3.172459 1_665
Mg118 Mg95 3.182788 1_555
Mg118 Mg99 3.184201 1_565
Mg118 Mg75 3.189257 1_565
Mg118 Mg97 3.189556 1_555
Mg118 Mg148 3.240413 1_555
Mg119 Mg120 3.159064 1_555
Mg119 Mg123 3.165787 1_555
Mg119 Mg125 3.168191 1_455
Mg119 Mg141 3.170585 1_555
Mg119 Mg74 3.182796 1_555
Mg119 Mg99 3.184200 1_455
Mg119 Mg75 3.189264 1_455
Mg119 Mg80 3.189548 1_555
Mg119 Mg146 3.240421 1_555
Mg120 Mg123 3.165786 1_555
Mg120 Mg124 3.168191 1_555
Mg120 Mg140 3.170585 1_555
Mg120 Mg74 3.182788 1_555
Mg120 Mg76 3.189257 1_555
Mg120 Mg79 3.189548 1_555
Mg120 Mg146 3.240413 1_555
Mg121 Mg123 3.165786 1_665
Mg121 Mg126 3.168184 1_555
Mg121 Mg143 3.170585 1_555
Mg121 Mg122 3.172459 1_655
Mg121 Mg95 3.182796 1_555
Mg121 Mg93 3.189257 1_555
Mg121 Mg92 3.189556 1_555
Mg121 Mg148 3.240413 1_555
Mg122 Mg123 3.165787 1_565
Mg122 Mg126 3.168191 1_455
Mg122 Mg142 3.170585 1_555
Mg122 Mg94 3.182788 1_555
Mg122 Mg93 3.189264 1_455
Mg122 Mg91 3.189556 1_555
Mg122 Mg147 3.240413 1_555
Mg123 Mg146 3.191972 1_555
Mg123 Mg148 3.191979 1_445
Mg123 Mg147 3.191979 1_545
Mg123 Mg95 3.194839 1_445
Mg123 Mg74 3.194840 1_555
Mg123 Mg94 3.194848 1_545
Mg124 Mg144 3.159852 1_545
Mg124 Mg140 3.159868 1_555
Mg124 Mg5 3.165530 1_556
Mg124 Mg128 3.169948 1_555
Mg124 Mg130 3.169956 1_555
Mg124 Mg3 3.179440 1_556
Mg124 Mg147 3.189095 1_545
Mg124 Mg146 3.189095 1_555
Mg125 Mg141 3.159859 1_655
Mg125 Mg145 3.159859 1_545
Mg125 Mg99 3.164843 1_555
Mg125 Mg4 3.165522 1_556
Mg125 Mg129 3.169940 1_555
Mg125 Mg131 3.169941 1_555
Mg125 Mg2 3.179432 1_556
Mg125 Mg148 3.189112 1_545
Mg125 Mg146 3.189119 1_655
Mg126 Mg143 3.159852 1_555
Mg126 Mg142 3.159867 1_655
Mg126 Mg16 3.165522 1_556
Mg126 Mg132 3.169956 1_555
Mg126 Mg133 3.169957 1_555
Mg126 Mg21 3.179424 1_556
Mg126 Mg20 3.179431 1_556
Mg126 Mg148 3.189096 1_555
Mg126 Mg147 3.189103 1_655
Mg127 Mg131 3.176596 1_555
Mg127 Mg129 3.176597 1_555
Mg127 Mg132 3.176597 1_555
Mg127 Mg133 3.176603 1_555
Mg127 Mg128 3.176603 1_555
Mg127 Mg130 3.176612 1_555
Mg127 Mg6 3.179834 1_556
Mg128 Mg6 3.173870 1_556
Mg128 Mg129 3.174571 1_555
Mg128 Mg136 3.176449 1_545
Mg128 Mg23 3.176757 1_546
Mg128 Mg130 3.178636 1_555
Mg128 Mg5 3.183078 1_556
Mg128 Mg144 3.183376 1_545
Mg129 Mg6 3.173871 1_556
Mg129 Mg136 3.176440 1_545
Mg129 Mg22 3.176757 1_546
Mg129 Mg131 3.178635 1_555
Mg129 Mg99 3.182813 1_555
Mg129 Mg4 3.183077 1_556
Mg129 Mg145 3.183377 1_545
Mg130 Mg132 3.174563 1_555
Mg130 Mg134 3.176433 1_555
Mg130 Mg8 3.176757 1_556
Mg130 Mg5 3.183078 1_556
Mg130 Mg140 3.183377 1_555
Mg131 Mg133 3.174572 1_555
Mg131 Mg135 3.176448 1_655
Mg131 Mg9 3.176757 1_656
Mg131 Mg99 3.182813 1_555
Mg131 Mg4 3.183078 1_556
Mg131 Mg141 3.183377 1_655
Mg132 Mg134 3.176440 1_555
Mg132 Mg15 3.176765 1_556
Mg132 Mg133 3.178627 1_555
Mg132 Mg16 3.183077 1_556
Mg132 Mg143 3.183393 1_555
Mg133 Mg135 3.176440 1_655
Mg133 Mg14 3.176757 1_656
Mg133 Mg16 3.183086 1_556
Mg133 Mg142 3.183376 1_655
Mg134 Mg137 3.178902 1_555
Mg134 Mg139 3.178911 1_555
Mg134 Mg15 3.180903 1_556
Mg134 Mg8 3.180903 1_556
Mg134 Mg143 3.200196 1_555
Mg134 Mg140 3.200196 1_555
Mg135 Mg138 3.178894 1_555
Mg135 Mg137 3.178910 1_555
Mg135 Mg14 3.180903 1_556
Mg135 Mg9 3.180911 1_556
Mg135 Mg142 3.200190 1_555
Mg135 Mg141 3.200206 1_555
Mg136 Mg17 3.171495 1_556
Mg136 Mg139 3.178895 1_555
Mg136 Mg138 3.178902 1_555
Mg136 Mg22 3.180903 1_556
Mg136 Mg23 3.180911 1_556
Mg136 Mg145 3.200189 1_555
Mg136 Mg144 3.200205 1_555
Mg137 Mg7 3.186536 1_556
Mg137 Mg140 3.188648 1_555
Mg137 Mg141 3.188655 1_555
Mg137 Mg139 3.192660 1_555
Mg137 Mg138 3.192669 1_555
Mg138 Mg17 3.177219 1_556
Mg138 Mg18 3.186544 1_556
Mg138 Mg142 3.188663 1_555
Mg138 Mg144 3.188664 1_555
Mg138 Mg139 3.192652 1_555
Mg139 Mg17 3.177219 1_556
Mg139 Mg19 3.186544 1_556
Mg139 Mg145 3.188663 1_555
Mg139 Mg143 3.188663 1_555
Mg140 Mg7 3.163318 1_556
Mg140 Mg8 3.168003 1_556
Mg140 Mg141 3.169559 1_555
Mg140 Mg146 3.202816 1_555
Mg140 Mg3 3.205488 1_556
Mg141 Mg7 3.163325 1_556
Mg141 Mg9 3.168003 1_556
Mg141 Mg146 3.202825 1_555
Mg141 Mg2 3.205488 1_456
Mg142 Mg18 3.163325 1_556
Mg142 Mg144 3.169559 1_555
Mg142 Mg147 3.202809 1_555
Mg142 Mg20 3.205488 1_456
Mg143 Mg19 3.163326 1_556
Mg143 Mg15 3.168003 1_556
Mg143 Mg145 3.169560 1_555
Mg143 Mg148 3.202808 1_555
Mg143 Mg21 3.205487 1_556
Mg144 Mg18 3.163318 1_556
Mg144 Mg23 3.168003 1_556
Mg144 Mg147 3.202808 1_555
Mg145 Mg19 3.163318 1_556
Mg145 Mg22 3.168003 1_556
Mg145 Mg148 3.202808 1_555
Mg146 Mg147 3.084701 1_545
Mg146 Mg148 3.084708 1_445
Mg146 Mg3 3.089223 1_556
Mg146 Mg2 3.089239 1_456
Mg147 Mg148 3.084716 1_455
Mg147 Mg20 3.089231 1_456
Mg148 Mg21 3.089231 1_556
Be0 Mg24 3.083949 1_555
Be0 Mg146 3.083949 1_554
Be0 Mg148 3.083957 1_444
Be0 Mg26 3.083957 1_445
Be0 Mg25 3.083957 1_545
Be0 Mg147 3.083957 1_544
Be0 Mg3 3.085787 1_555
Be0 Mg0 3.085787 1_555
Be0 Mg1 3.085787 1_455
Be0 Mg21 3.085795 1_445
Be0 Mg20 3.085796 1_445
Be0 Mg2 3.085796 1_455
