# generated using pymatgen
data_Sr2LaMn2O7
_symmetry_space_group_name_H-M   'P 1'
_cell_length_a   3.92901400
_cell_length_b   3.92901500
_cell_length_c   10.43780179
_cell_angle_alpha   79.15088943
_cell_angle_beta   79.15149180
_cell_angle_gamma   89.99623765
_symmetry_Int_Tables_number   1
_chemical_formula_structural   Sr2LaMn2O7
_chemical_formula_sum   'Sr2 La1 Mn2 O7'
_cell_volume   155.31729882
_cell_formula_units_Z   1
loop_
 _symmetry_equiv_pos_site_id
 _symmetry_equiv_pos_as_xyz
  1  'x, y, z'
loop_
 _atom_site_type_symbol
 _atom_site_label
 _atom_site_symmetry_multiplicity
 _atom_site_fract_x
 _atom_site_fract_y
 _atom_site_fract_z
 _atom_site_occupancy
  Sr  Sr0  1  0.31667700  0.31667800  0.36664300  1
  Sr  Sr1  1  0.68332900  0.68332200  0.63335600  1
  La  La0  1  0.49999700  0.49999000  0.99999900  1
  Mn  Mn0  1  0.90191000  0.90191400  0.19618600  1
  Mn  Mn1  1  0.09809100  0.09809300  0.80380900  1
  O  O0  1  0.00000100  0.99999900  0.99999800  1
  O  O1  1  0.19373600  0.19374400  0.61248600  1
  O  O2  1  0.80626300  0.80625800  0.38751600  1
  O  O3  1  0.59165200  0.09165000  0.81664400  1
  O  O4  1  0.09165200  0.59165300  0.81664600  1
  O  O5  1  0.40834400  0.90835200  0.18336000  1
  O  O6  1  0.90834900  0.40834700  0.18335700  1
loop_
_geom_bond_atom_site_label_1
_geom_bond_atom_site_label_2
_geom_bond_distance
_geom_bond_site_symmetry_2
La0 O5 2.694825 1_546
La0 O4 2.694844 1_655
La0 O6 2.694851 1_456
La0 O3 2.694855 1_565
La0 O4 2.694938 1_555
La0 O3 2.694955 1_555
La0 O6 2.695000 1_556
La0 O5 2.695068 1_556
La0 O0 2.778128 1_645
La0 O0 2.778155 1_555
La0 O0 2.778291 1_545
La0 O0 2.778357 1_655
Mn0 O2 1.925022 1_555
Mn0 O5 1.968657 1_555
Mn0 O6 1.968671 1_555
Mn0 O6 1.968816 1_565
Mn0 O5 1.968825 1_655
Mn0 O0 1.973899 1_654
Mn1 O1 1.924951 1_555
Mn1 O3 1.968661 1_555
Mn1 O4 1.968664 1_555
Mn1 O3 1.968832 1_455
Mn1 O4 1.968833 1_545
Mn1 O0 1.973909 1_545
O1 Sr0 2.473491 1_555
O1 Sr1 2.786026 1_455
O1 Sr1 2.786106 1_545
O1 Sr1 2.786136 1_445
O1 Sr1 2.786360 1_555
O2 Sr1 2.473461 1_555
O2 Sr0 2.786053 1_655
O2 Sr0 2.786083 1_565
O2 Sr0 2.786143 1_665
O2 Sr0 2.786356 1_555
O3 Sr1 2.694364 1_545
O3 Sr1 2.694524 1_555
O4 Sr1 2.694351 1_455
O4 Sr1 2.694563 1_555
O5 Sr0 2.694316 1_565
O5 Sr0 2.694503 1_555
O6 Sr0 2.694332 1_655
O6 Sr0 2.694527 1_555
