# generated using pymatgen
data_NbVNi
_symmetry_space_group_name_H-M   'P 1'
_cell_length_a   4.88995668
_cell_length_b   4.88995668
_cell_length_c   8.06922253
_cell_angle_alpha   90.00000000
_cell_angle_beta   90.00000000
_cell_angle_gamma   119.93065514
_symmetry_Int_Tables_number   1
_chemical_formula_structural   NbVNi
_chemical_formula_sum   'Nb4 V4 Ni4'
_cell_volume   167.21506177
_cell_formula_units_Z   4
loop_
 _symmetry_equiv_pos_site_id
 _symmetry_equiv_pos_as_xyz
  1  'x, y, z'
loop_
 _atom_site_type_symbol
 _atom_site_label
 _atom_site_symmetry_multiplicity
 _atom_site_fract_x
 _atom_site_fract_y
 _atom_site_fract_z
 _atom_site_occupancy
  Nb  Nb0  1  0.32437729  0.67562271  0.18403447  1
  Nb  Nb1  1  0.65897228  0.34102772  0.30459687  1
  Nb  Nb2  1  0.65897228  0.34102772  0.69540313  1
  Nb  Nb3  1  0.32437729  0.67562271  0.81596553  1
  V  V0  1  0.84445457  0.15554543  0.00000000  1
  V  V1  1  0.16647720  0.33971511  0.50000000  1
  V  V2  1  0.66028489  0.83352280  0.50000000  1
  V  V3  1  0.17147907  0.82852093  0.50000000  1
  Ni  Ni0  1  0.99990434  0.00009566  0.24430844  1
  Ni  Ni1  1  0.99990434  0.00009566  0.75569156  1
  Ni  Ni2  1  0.84059482  0.65000236  0.00000000  1
  Ni  Ni3  1  0.34999764  0.15940518  -0.00000000  1
loop_
_geom_bond_atom_site_label_1
_geom_bond_atom_site_label_2
_geom_bond_distance
_geom_bond_site_symmetry_2
Nb0 Ni3 2.742559 1_565
Nb0 Ni2 2.742559 1_455
Nb0 Ni0 2.789933 1_465
Nb0 V3 2.859420 1_555
Nb0 V0 2.867860 1_455
Nb0 V0 2.867860 1_565
Nb0 Ni0 2.904410 1_565
Nb0 Ni0 2.904410 1_455
Nb0 V2 2.920454 1_555
Nb0 V1 2.920454 1_555
Nb0 Nb3 2.970030 1_554
Nb0 Nb1 2.982968 1_565
Nb0 Nb1 2.982968 1_455
Nb0 Ni2 2.984719 1_555
Nb0 Ni3 2.984719 1_555
Nb0 Nb1 2.995300 1_555
Nb1 Ni2 2.788108 1_555
Nb1 Ni3 2.788108 1_555
Nb1 Ni0 2.835654 1_565
Nb1 Ni0 2.835654 1_455
Nb1 V1 2.875860 1_555
Nb1 V2 2.875860 1_555
Nb1 V3 2.913385 1_545
Nb1 V3 2.913385 1_655
Nb1 V0 2.916727 1_555
Nb1 Ni0 2.927274 1_555
Nb1 V2 2.942924 1_545
Nb1 V1 2.942924 1_655
Nb1 Nb2 3.153503 1_555
Nb2 Ni3 2.788108 1_556
Nb2 Ni2 2.788108 1_556
Nb2 Ni1 2.835654 1_565
Nb2 Ni1 2.835654 1_455
Nb2 V1 2.875860 1_555
Nb2 V2 2.875860 1_555
Nb2 V3 2.913385 1_545
Nb2 V3 2.913385 1_655
Nb2 V0 2.916727 1_556
Nb2 Ni1 2.927274 1_555
Nb2 V2 2.942924 1_545
Nb2 V1 2.942924 1_655
Nb2 Nb3 2.982968 1_545
Nb2 Nb3 2.982968 1_655
Nb2 Nb3 2.995300 1_555
Nb3 Ni3 2.742559 1_566
Nb3 Ni2 2.742559 1_456
Nb3 Ni1 2.789933 1_465
Nb3 V3 2.859420 1_555
Nb3 V0 2.867860 1_566
Nb3 V0 2.867860 1_456
Nb3 Ni1 2.904410 1_455
Nb3 Ni1 2.904410 1_565
Nb3 V1 2.920454 1_555
Nb3 V2 2.920454 1_555
Nb3 Ni3 2.984719 1_556
Nb3 Ni2 2.984719 1_556
V1 V3 2.378130 1_555
V1 V2 2.417229 1_555
V1 V2 2.477852 1_445
V1 V3 2.512011 1_545
V2 V3 2.378130 1_555
V2 V3 2.512011 1_655
Ni0 V0 2.370353 1_555
Ni0 Ni2 2.468423 1_545
Ni0 Ni3 2.468423 1_655
Ni0 V2 2.515655 1_545
Ni0 V1 2.515655 1_655
Ni0 V3 2.523327 1_645
Ni1 V0 2.370353 1_556
Ni1 Ni3 2.468423 1_656
Ni1 Ni2 2.468423 1_546
Ni1 V2 2.515655 1_545
Ni1 V1 2.515655 1_655
Ni1 V3 2.523327 1_645
Ni2 Ni3 2.401513 1_555
Ni2 V0 2.427345 1_555
Ni2 V0 2.462721 1_565
Ni2 Ni3 2.493568 1_665
Ni3 V0 2.427345 1_555
Ni3 V0 2.462721 1_455
