# generated using pymatgen
data_TmMgAg
_symmetry_space_group_name_H-M   'P 1'
_cell_length_a   7.60070759
_cell_length_b   7.60070759
_cell_length_c   4.04538996
_cell_angle_alpha   90.00000000
_cell_angle_beta   90.00000000
_cell_angle_gamma   120.00000162
_symmetry_Int_Tables_number   1
_chemical_formula_structural   TmMgAg
_chemical_formula_sum   'Tm3 Mg3 Ag3'
_cell_volume   202.39466766
_cell_formula_units_Z   3
loop_
 _symmetry_equiv_pos_site_id
 _symmetry_equiv_pos_as_xyz
  1  'x, y, z'
loop_
 _atom_site_type_symbol
 _atom_site_label
 _atom_site_symmetry_multiplicity
 _atom_site_fract_x
 _atom_site_fract_y
 _atom_site_fract_z
 _atom_site_occupancy
  Tm  Tm0  1  0.58658765  0.00000000  0.00000000  1
  Tm  Tm1  1  0.00000000  0.58658765  0.00000000  1
  Tm  Tm2  1  0.41341235  0.41341235  -0.00000000  1
  Mg  Mg0  1  0.24728443  0.00000000  0.50000000  1
  Mg  Mg1  1  0.00000000  0.24728443  0.50000000  1
  Mg  Mg2  1  0.75271557  0.75271557  0.50000000  1
  Ag  Ag0  1  0.33333300  0.66666700  0.50000000  1
  Ag  Ag1  1  0.66666700  0.33333300  0.50000000  1
  Ag  Ag2  1  -0.00000000  0.00000000  -0.00000000  1
loop_
_geom_bond_atom_site_label_1
_geom_bond_atom_site_label_2
_geom_bond_distance
_geom_bond_site_symmetry_2
Ag0 Mg0 2.916118 1_565
Ag0 Mg1 2.916123 1_555
Ag0 Mg2 2.916125 1_555
Ag0 Tm1 3.055919 1_556
Ag0 Tm1 3.055919 1_555
Ag0 Tm0 3.055921 1_565
Ag0 Tm0 3.055921 1_566
Ag0 Tm2 3.055925 1_556
Ag0 Tm2 3.055925 1_555
Ag1 Mg1 2.916118 1_655
Ag1 Mg0 2.916123 1_555
Ag1 Mg2 2.916125 1_555
Ag1 Tm0 3.055919 1_555
Ag1 Tm0 3.055919 1_556
Ag1 Tm1 3.055921 1_656
Ag1 Tm1 3.055921 1_655
Ag1 Tm2 3.055925 1_556
Ag1 Tm2 3.055925 1_555
Ag2 Mg2 2.761151 1_445
Ag2 Mg2 2.761151 1_444
Ag2 Mg0 2.761151 1_555
Ag2 Mg1 2.761151 1_555
Ag2 Mg0 2.761151 1_554
Ag2 Mg1 2.761151 1_554
Ag2 Tm2 3.142226 1_555
Ag2 Tm1 3.142226 1_545
Ag2 Tm0 3.142226 1_455
