# generated using pymatgen
data_Rb2Ni(SO7)2
_symmetry_space_group_name_H-M   'P 1'
_cell_length_a   6.28712924
_cell_length_b   8.71570144
_cell_length_c   12.88975900
_cell_angle_alpha   90.00000000
_cell_angle_beta   90.00000000
_cell_angle_gamma   102.79551648
_symmetry_Int_Tables_number   1
_chemical_formula_structural   Rb2Ni(SO7)2
_chemical_formula_sum   'Rb4 Ni2 S4 O28'
_cell_volume   688.77660524
_cell_formula_units_Z   2
loop_
 _symmetry_equiv_pos_site_id
 _symmetry_equiv_pos_as_xyz
  1  'x, y, z'
loop_
 _atom_site_type_symbol
 _atom_site_label
 _atom_site_symmetry_multiplicity
 _atom_site_fract_x
 _atom_site_fract_y
 _atom_site_fract_z
 _atom_site_occupancy
  Rb  Rb0  1  0.83973900  0.63801800  0.15576200  1
  Rb  Rb1  1  0.16026100  0.36198200  0.84423800  1
  Rb  Rb2  1  0.16026100  0.86198200  0.65576200  1
  Rb  Rb3  1  0.83973900  0.13801800  0.34423800  1
  Ni  Ni0  1  0.50000000  0.00000000  0.00000000  1
  Ni  Ni1  1  0.50000000  0.50000000  0.50000000  1
  S  S0  1  0.75129500  0.60137900  0.86009300  1
  S  S1  1  0.24870500  0.39862100  0.13990600  1
  S  S2  1  0.24870500  0.89862100  0.36009400  1
  S  S3  1  0.75129500  0.10137900  0.63990700  1
  O  O0  1  0.54291800  0.62453000  0.81993300  1
  O  O1  1  0.45708200  0.37547000  0.18006700  1
  O  O2  1  0.45708200  0.87547000  0.31993300  1
  O  O3  1  0.54291800  0.12453000  0.68006700  1
  O  O4  1  0.72361700  0.95682800  0.57596900  1
  O  O5  1  0.27638300  0.04317200  0.42403100  1
  O  O6  1  0.27638300  0.54317200  0.07596900  1
  O  O7  1  0.72361700  0.45682800  0.92403100  1
  O  O8  1  0.33531700  0.87811300  0.90043300  1
  O  O9  1  0.66468300  0.12188700  0.09956700  1
  O  O10  1  0.66468300  0.62188700  0.40043300  1
  O  O11  1  0.33531700  0.37811300  0.59956700  1
  O  O12  1  0.86093500  0.73484000  0.93086100  1
  O  O13  1  0.13906500  0.26516000  0.06913900  1
  O  O14  1  0.13906500  0.76516000  0.43086100  1
  O  O15  1  0.86093500  0.23484000  0.56913900  1
  O  O16  1  0.40943800  0.61895500  0.60004300  1
  O  O17  1  0.59056200  0.38104500  0.39995700  1
  O  O18  1  0.59056200  0.88104500  0.10004300  1
  O  O19  1  0.40943800  0.11895500  0.89995700  1
  O  O20  1  0.77050000  0.98913500  0.95495900  1
  O  O21  1  0.22950000  0.01086500  0.04504100  1
  O  O22  1  0.22950000  0.51086500  0.45495900  1
  O  O23  1  0.77050000  0.48913500  0.54504100  1
  O  O24  1  0.91045300  0.60208800  0.77450400  1
  O  O25  1  0.08954700  0.39791200  0.22549600  1
  O  O26  1  0.08954700  0.89791200  0.27450400  1
  O  O27  1  0.91045300  0.10208800  0.72549600  1
loop_
_geom_bond_atom_site_label_1
_geom_bond_atom_site_label_2
_geom_bond_distance
_geom_bond_site_symmetry_2
Ni0 O21 1.819240 1_555
Ni0 O20 1.819240 1_544
Ni0 O18 1.823035 1_545
Ni0 O19 1.823035 1_554
Ni0 O9 1.833157 1_555
Ni0 O8 1.833157 1_544
Ni1 O22 1.819240 1_555
Ni1 O23 1.819240 1_555
Ni1 O16 1.823035 1_555
Ni1 O17 1.823035 1_555
Ni1 O11 1.833157 1_555
Ni1 O10 1.833157 1_555
O0 S0 1.463596 1_555
O0 Rb1 2.946839 1_555
O1 S1 1.463601 1_555
O1 Rb0 2.946839 1_555
O2 S2 1.463601 1_555
O2 Rb3 2.946839 1_565
O3 S3 1.463596 1_555
O3 Rb2 2.946839 1_545
O4 S3 1.483120 1_565
O4 Rb2 3.206667 1_655
O4 Rb3 3.382026 1_565
O5 S2 1.483112 1_545
O5 Rb3 3.206667 1_455
O5 Rb2 3.382026 1_545
O6 S1 1.483112 1_555
O6 Rb0 3.206667 1_455
O6 Rb1 3.382026 1_554
O7 S0 1.483120 1_555
O7 Rb1 3.206667 1_655
O7 Rb0 3.382026 1_556
O8 Rb2 3.332970 1_555
O9 Rb3 3.332970 1_555
O10 Rb0 3.332970 1_555
O11 Rb1 3.332970 1_555
O12 S0 1.518264 1_555
O12 Rb0 3.013935 1_556
O13 S1 1.518256 1_555
O13 Rb1 3.013935 1_554
O14 S2 1.518256 1_555
O14 Rb2 3.013935 1_555
O15 S3 1.518264 1_555
O15 Rb3 3.013935 1_555
O16 Rb2 2.987720 1_555
O17 Rb3 2.987720 1_555
O18 Rb0 2.987720 1_555
O19 Rb1 2.987720 1_555
O24 S0 1.488520 1_555
O24 Rb2 2.892133 1_655
O24 Rb1 3.018252 1_655
O25 S1 1.488529 1_555
O25 Rb3 2.892133 1_455
O25 Rb0 3.018252 1_455
O26 S2 1.488529 1_555
O26 Rb0 2.892133 1_455
O26 Rb3 3.018252 1_465
O27 S3 1.488520 1_555
O27 Rb1 2.892133 1_655
O27 Rb2 3.018252 1_645
