# generated using pymatgen
data_Nd3Si6N11
_symmetry_space_group_name_H-M   'P 1'
_cell_length_a   10.08133752
_cell_length_b   10.08133752
_cell_length_c   4.85728796
_cell_angle_alpha   90.00000000
_cell_angle_beta   90.00000000
_cell_angle_gamma   90.00000000
_symmetry_Int_Tables_number   1
_chemical_formula_structural   Nd3Si6N11
_chemical_formula_sum   'Nd6 Si12 N22'
_cell_volume   493.66252594
_cell_formula_units_Z   2
loop_
 _symmetry_equiv_pos_site_id
 _symmetry_equiv_pos_as_xyz
  1  'x, y, z'
loop_
 _atom_site_type_symbol
 _atom_site_label
 _atom_site_symmetry_multiplicity
 _atom_site_fract_x
 _atom_site_fract_y
 _atom_site_fract_z
 _atom_site_occupancy
  Nd  Nd0  1  0.18187468  0.68187468  0.00440210  1
  Nd  Nd1  1  0.81812532  0.31812532  0.00440210  1
  Nd  Nd2  1  0.68187468  0.81812532  0.00440210  1
  Nd  Nd3  1  0.31812532  0.18187468  0.00440210  1
  Nd  Nd4  1  0.00000000  0.00000000  0.98806484  1
  Nd  Nd5  1  0.50000000  0.50000000  0.98806484  1
  Si  Si0  1  0.61739544  0.11739544  0.04222295  1
  Si  Si1  1  0.38260456  0.88260456  0.04222295  1
  Si  Si2  1  0.11739544  0.38260456  0.04222295  1
  Si  Si3  1  0.88260456  0.61739544  0.04222295  1
  Si  Si4  1  0.07901474  0.20909060  0.53169373  1
  Si  Si5  1  0.92098526  0.79090940  0.53169373  1
  Si  Si6  1  0.20909060  0.92098526  0.53169373  1
  Si  Si7  1  0.42098526  0.70909060  0.53169373  1
  Si  Si8  1  0.79090940  0.07901474  0.53169373  1
  Si  Si9  1  0.57901474  0.29090940  0.53169373  1
  Si  Si10  1  0.29090940  0.42098526  0.53169373  1
  Si  Si11  1  0.70909060  0.57901474  0.53169373  1
  N  N0  1  0.17947864  0.07965871  0.64297706  1
  N  N1  1  0.82052136  0.92034129  0.64297706  1
  N  N2  1  0.07965871  0.82052136  0.64297706  1
  N  N3  1  0.32052136  0.57965871  0.64297706  1
  N  N4  1  0.92034129  0.17947864  0.64297706  1
  N  N5  1  0.67947864  0.42034129  0.64297706  1
  N  N6  1  0.42034129  0.32052136  0.64297706  1
  N  N7  1  0.57965871  0.67947864  0.64297706  1
  N  N8  1  0.00000000  0.50000000  0.07126765  1
  N  N9  1  0.50000000  0.00000000  0.07126765  1
  N  N10  1  0.07623651  0.22955315  0.17874507  1
  N  N11  1  0.92376349  0.77044685  0.17874507  1
  N  N12  1  0.22955315  0.92376349  0.17874507  1
  N  N13  1  0.42376349  0.72955315  0.17874507  1
  N  N14  1  0.77044685  0.07623651  0.17874507  1
  N  N15  1  0.57623651  0.27044685  0.17874507  1
  N  N16  1  0.27044685  0.42376349  0.17874507  1
  N  N17  1  0.72955315  0.57623651  0.17874507  1
  N  N18  1  0.65329014  0.15329014  0.69587848  1
  N  N19  1  0.34670986  0.84670986  0.69587848  1
  N  N20  1  0.15329014  0.34670986  0.69587848  1
  N  N21  1  0.84670986  0.65329014  0.69587848  1
loop_
_geom_bond_atom_site_label_1
_geom_bond_atom_site_label_2
_geom_bond_distance
_geom_bond_site_symmetry_2
N0 Si6 1.714686 1_545
N0 Si4 1.737984 1_555
N0 Nd3 2.469313 1_556
N0 Nd4 2.593917 1_555
N1 Si8 1.714686 1_565
N1 Si5 1.737984 1_555
N1 Nd2 2.469313 1_556
N1 Nd4 2.593917 1_665
N2 Si5 1.714686 1_455
N2 Si6 1.737984 1_555
N2 Nd0 2.469313 1_556
N2 Nd4 2.593917 1_565
N3 Si10 1.714686 1_555
N3 Si7 1.737984 1_555
N3 Nd0 2.469313 1_556
N3 Nd5 2.593917 1_555
N4 Si4 1.714686 1_655
N4 Si8 1.737984 1_555
N4 Nd1 2.469313 1_556
N4 Nd4 2.593917 1_655
N5 Si11 1.714686 1_555
N5 Si9 1.737984 1_555
N5 Nd1 2.469313 1_556
N5 Nd5 2.593917 1_555
N6 Si9 1.714686 1_555
N6 Si10 1.737984 1_555
N6 Nd3 2.469313 1_556
N6 Nd5 2.593917 1_555
N7 Si7 1.714686 1_555
N7 Si11 1.737984 1_555
N7 Nd2 2.469313 1_556
N7 Nd5 2.593917 1_555
N8 Si3 1.679661 1_455
N8 Si2 1.679661 1_555
N8 Nd0 2.613278 1_555
N8 Nd1 2.613278 1_455
N9 Si1 1.679661 1_545
N9 Si0 1.679661 1_555
N9 Nd2 2.613278 1_545
N9 Nd3 2.613278 1_555
N10 Si4 1.726967 1_555
N10 Si2 1.729926 1_555
N10 Nd4 2.608458 1_554
N10 Nd3 2.625786 1_555
N10 Nd1 2.878437 1_455
N11 Si5 1.726967 1_555
N11 Si3 1.729926 1_555
N11 Nd4 2.608458 1_664
N11 Nd2 2.625786 1_555
N11 Nd0 2.878437 1_655
N12 Si6 1.726967 1_555
N12 Si1 1.729926 1_555
N12 Nd4 2.608458 1_564
N12 Nd0 2.625786 1_555
N12 Nd3 2.878437 1_565
N13 Si7 1.726967 1_555
N13 Si1 1.729926 1_555
N13 Nd5 2.608458 1_554
N13 Nd0 2.625786 1_555
N13 Nd2 2.878437 1_555
N14 Si8 1.726967 1_555
N14 Si0 1.729926 1_555
N14 Nd4 2.608458 1_654
N14 Nd1 2.625786 1_555
N14 Nd2 2.878437 1_545
N15 Si9 1.726967 1_555
N15 Si0 1.729926 1_555
N15 Nd5 2.608458 1_554
N15 Nd1 2.625786 1_555
N15 Nd3 2.878437 1_555
N16 Si10 1.726967 1_555
N16 Si2 1.729926 1_555
N16 Nd5 2.608458 1_554
N16 Nd3 2.625786 1_555
N16 Nd0 2.878437 1_555
N17 Si11 1.726967 1_555
N17 Si3 1.729926 1_555
N17 Nd5 2.608458 1_554
N17 Nd2 2.625786 1_555
N17 Nd1 2.878437 1_555
N18 Si0 1.758411 1_556
N18 Si9 1.766785 1_555
N18 Si8 1.766785 1_555
N18 Nd1 2.787230 1_556
N19 Si1 1.758411 1_556
N19 Si7 1.766785 1_555
N19 Si6 1.766785 1_555
N19 Nd0 2.787230 1_556
N20 Si2 1.758411 1_556
N20 Si10 1.766785 1_555
N20 Si4 1.766785 1_555
N20 Nd3 2.787230 1_556
N21 Si3 1.758411 1_556
N21 Si5 1.766785 1_555
N21 Si11 1.766785 1_555
N21 Nd2 2.787230 1_556
