# generated using pymatgen
data_Ca(NiS2)4
_symmetry_space_group_name_H-M   'P 1'
_cell_length_a   7.52435278
_cell_length_b   7.52435278
_cell_length_c   7.52435233
_cell_angle_alpha   53.10873331
_cell_angle_beta   53.10873331
_cell_angle_gamma   53.10873686
_symmetry_Int_Tables_number   1
_chemical_formula_structural   Ca(NiS2)4
_chemical_formula_sum   'Ca1 Ni4 S8'
_cell_volume   252.58853068
_cell_formula_units_Z   1
loop_
 _symmetry_equiv_pos_site_id
 _symmetry_equiv_pos_as_xyz
  1  'x, y, z'
loop_
 _atom_site_type_symbol
 _atom_site_label
 _atom_site_symmetry_multiplicity
 _atom_site_fract_x
 _atom_site_fract_y
 _atom_site_fract_z
 _atom_site_occupancy
  Ca  Ca0  1  0.50000000  0.50000000  0.50000000  1
  Ni  Ni0  1  0.00000000  0.50000000  0.50000000  1
  Ni  Ni1  1  0.50000000  0.00000000  0.50000000  1
  Ni  Ni2  1  0.50000000  0.50000000  0.00000000  1
  Ni  Ni3  1  0.00000000  0.00000000  0.00000000  1
  S  S0  1  0.27430700  0.77009500  0.77009500  1
  S  S1  1  0.22990500  0.22990500  0.72569300  1
  S  S2  1  0.72569300  0.22990500  0.22990500  1
  S  S3  1  0.22990500  0.72569300  0.22990500  1
  S  S4  1  0.27147300  0.27147300  0.27147300  1
  S  S5  1  0.72852700  0.72852700  0.72852700  1
  S  S6  1  0.77009500  0.27430700  0.77009500  1
  S  S7  1  0.77009500  0.77009500  0.27430700  1
loop_
_geom_bond_atom_site_label_1
_geom_bond_atom_site_label_2
_geom_bond_distance
_geom_bond_site_symmetry_2
Ca0 S7 2.795697 1_555
Ca0 S1 2.795697 1_555
Ca0 S3 2.795697 1_555
Ca0 S2 2.795697 1_555
Ca0 S6 2.795697 1_555
Ca0 S0 2.795697 1_555
Ni0 S3 2.273579 1_555
Ni0 S6 2.273579 1_455
Ni0 S7 2.273579 1_455
Ni0 S1 2.273579 1_555
Ni0 S4 2.280761 1_555
Ni0 S5 2.280761 1_455
Ni1 S0 2.273579 1_545
Ni1 S2 2.273579 1_555
Ni1 S7 2.273579 1_545
Ni1 S1 2.273579 1_555
Ni1 S4 2.280761 1_555
Ni1 S5 2.280761 1_545
Ni2 S0 2.273579 1_554
Ni2 S6 2.273579 1_554
Ni2 S3 2.273579 1_555
Ni2 S2 2.273579 1_555
Ni2 S4 2.280760 1_555
Ni2 S5 2.280760 1_554
Ni3 S1 2.294445 1_554
Ni3 S7 2.294445 1_445
Ni3 S2 2.294445 1_455
Ni3 S3 2.294445 1_545
Ni3 S6 2.294445 1_454
Ni3 S0 2.294445 1_544
