# generated using pymatgen
data_ZnFeAs4(Pb2O9)2
_symmetry_space_group_name_H-M   'P 1'
_cell_length_a   6.04005700
_cell_length_b   8.06721929
_cell_length_c   9.03678522
_cell_angle_alpha   113.05190340
_cell_angle_beta   90.28840169
_cell_angle_gamma   90.58832903
_symmetry_Int_Tables_number   1
_chemical_formula_structural   ZnFeAs4(Pb2O9)2
_chemical_formula_sum   'Zn1 Fe1 As4 Pb4 O18'
_cell_volume   405.12944686
_cell_formula_units_Z   1
loop_
 _symmetry_equiv_pos_site_id
 _symmetry_equiv_pos_as_xyz
  1  'x, y, z'
loop_
 _atom_site_type_symbol
 _atom_site_label
 _atom_site_symmetry_multiplicity
 _atom_site_fract_x
 _atom_site_fract_y
 _atom_site_fract_z
 _atom_site_occupancy
  Zn  Zn0  1  0.50000000  0.00000000  0.00000000  1
  Fe  Fe0  1  0.00000000  0.00000000  0.00000000  1
  As  As0  1  0.25354000  0.01977200  0.34034400  1
  As  As1  1  0.74646000  0.98022800  0.65965600  1
  As  As2  1  0.24376000  0.43144600  0.16852200  1
  As  As3  1  0.75624000  0.56855400  0.83147800  1
  Pb  Pb0  1  0.25273100  0.30468100  0.75074900  1
  Pb  Pb1  1  0.74726900  0.69531900  0.24925100  1
  Pb  Pb2  1  0.24747100  0.72050500  0.62477800  1
  Pb  Pb3  1  0.75252900  0.27949500  0.37522200  1
  O  O0  1  0.24423500  0.88233900  0.44075800  1
  O  O1  1  0.75576500  0.11766100  0.55924200  1
  O  O2  1  0.49663500  0.98454000  0.22886100  1
  O  O3  1  0.98652700  0.01966600  0.78000700  1
  O  O4  1  0.50336500  0.01546000  0.77113900  1
  O  O5  1  0.01347300  0.98033400  0.21999300  1
  O  O6  1  0.24853800  0.51936000  0.02386000  1
  O  O7  1  0.75146200  0.48064000  0.97614000  1
  O  O8  1  0.24020800  0.19688600  0.07477600  1
  O  O9  1  0.75979200  0.80311400  0.92522400  1
  O  O10  1  0.48142000  0.49319000  0.28675800  1
  O  O11  1  0.98315100  0.49692100  0.70723700  1
  O  O12  1  0.51858000  0.50681000  0.71324200  1
  O  O13  1  0.01684900  0.50307900  0.29276300  1
  O  O14  1  0.25100200  0.24625500  0.46504000  1
  O  O15  1  0.74899800  0.75374500  0.53496000  1
  O  O16  1  0.22939000  0.84719100  0.92052100  1
  O  O17  1  0.77061000  0.15280900  0.07947900  1
loop_
_geom_bond_atom_site_label_1
_geom_bond_atom_site_label_2
_geom_bond_distance
_geom_bond_site_symmetry_2
Fe0 O17 1.818494 1_455
Fe0 O16 1.818494 1_544
Fe0 O8 2.046141 1_555
Fe0 O9 2.046141 1_444
Fe0 O3 2.056621 1_454
Fe0 O5 2.056621 1_545
As0 O0 1.686089 1_545
As0 O14 1.731091 1_555
As0 O2 1.746677 1_545
As0 O5 1.757922 1_545
As1 O1 1.686089 1_565
As1 O15 1.731091 1_555
As1 O4 1.746677 1_565
As1 O3 1.757922 1_565
As2 O6 1.714306 1_555
As2 O13 1.731059 1_555
As2 O10 1.733041 1_555
As2 O8 1.744230 1_555
As3 O7 1.714306 1_555
As3 O11 1.731059 1_555
As3 O12 1.733041 1_555
As3 O9 1.744230 1_555
O0 Pb2 2.484082 1_555
O1 Pb3 2.484082 1_555
O2 Zn0 2.120297 1_565
O2 Pb3 2.690614 1_565
O3 Pb2 2.779484 1_645
O4 Zn0 2.120297 1_556
O4 Pb2 2.690614 1_545
O5 Pb3 2.779484 1_465
O6 Pb0 2.396961 1_554
O7 Pb1 2.396961 1_556
O8 Zn0 2.159394 1_555
O9 Zn0 2.159394 1_566
O10 Pb1 2.395150 1_555
O10 Pb3 2.723330 1_555
O11 Pb0 2.394574 1_655
O11 Pb2 2.713458 1_655
O12 Pb0 2.395150 1_555
O12 Pb2 2.723330 1_555
O13 Pb1 2.394574 1_455
O13 Pb3 2.713458 1_455
O14 Pb0 2.436193 1_555
O15 Pb1 2.436193 1_555
O16 Zn0 1.990108 1_566
O16 Pb2 2.462771 1_555
O17 Zn0 1.990108 1_555
O17 Pb3 2.462771 1_555
