# generated using pymatgen
data_K8Zr6BeBr20
_symmetry_space_group_name_H-M   'P 1'
_cell_length_a   11.74991560
_cell_length_b   11.74991560
_cell_length_c   11.74991560
_cell_angle_alpha   60.00000000
_cell_angle_beta   60.00000000
_cell_angle_gamma   60.00000000
_symmetry_Int_Tables_number   1
_chemical_formula_structural   K8Zr6BeBr20
_chemical_formula_sum   'K8 Zr6 Be1 Br20'
_cell_volume   1147.06820914
_cell_formula_units_Z   1
loop_
 _symmetry_equiv_pos_site_id
 _symmetry_equiv_pos_as_xyz
  1  'x, y, z'
loop_
 _atom_site_type_symbol
 _atom_site_label
 _atom_site_symmetry_multiplicity
 _atom_site_fract_x
 _atom_site_fract_y
 _atom_site_fract_z
 _atom_site_occupancy
  K  K0  1  0.35950600  0.35950600  0.35950600  1
  K  K1  1  0.64049400  0.64049400  0.64049400  1
  K  K2  1  0.35950600  0.35950600  0.92148100  1
  K  K3  1  0.35950600  0.92148100  0.35950600  1
  K  K4  1  0.64049400  0.64049400  0.07851900  1
  K  K5  1  0.64049400  0.07851900  0.64049400  1
  K  K6  1  0.92148100  0.35950600  0.35950600  1
  K  K7  1  0.07851900  0.64049400  0.64049400  1
  Zr  Zr0  1  0.85551000  0.14449000  0.14449000  1
  Zr  Zr1  1  0.14449000  0.85551000  0.85551000  1
  Zr  Zr2  1  0.14449000  0.85551000  0.14449000  1
  Zr  Zr3  1  0.85551000  0.14449000  0.85551000  1
  Zr  Zr4  1  0.14449000  0.14449000  0.85551000  1
  Zr  Zr5  1  0.85551000  0.85551000  0.14449000  1
  Be  Be0  1  0.00000000  0.00000000  0.00000000  1
  Br  Br0  1  0.32913200  0.00000000  0.00000000  1
  Br  Br1  1  0.67086800  0.00000000  0.00000000  1
  Br  Br2  1  0.00000000  0.32913200  0.67086800  1
  Br  Br3  1  0.00000000  0.67086800  0.32913200  1
  Br  Br4  1  0.00000000  0.32913200  0.00000000  1
  Br  Br5  1  0.67086800  0.00000000  0.32913200  1
  Br  Br6  1  0.00000000  0.67086800  0.00000000  1
  Br  Br7  1  0.32913200  0.00000000  0.67086800  1
  Br  Br8  1  0.00000000  0.00000000  0.32913200  1
  Br  Br9  1  0.00000000  0.00000000  0.67086800  1
  Br  Br10  1  0.67086800  0.32913200  0.00000000  1
  Br  Br11  1  0.32913200  0.67086800  0.00000000  1
  Br  Br12  1  0.68190100  0.31809900  0.31809900  1
  Br  Br13  1  0.31809900  0.68190100  0.68190100  1
  Br  Br14  1  0.31809900  0.68190100  0.31809900  1
  Br  Br15  1  0.68190100  0.31809900  0.68190100  1
  Br  Br16  1  0.31809900  0.31809900  0.68190100  1
  Br  Br17  1  0.68190100  0.68190100  0.31809900  1
  Br  Br18  1  0.25000000  0.25000000  0.25000000  1
  Br  Br19  1  0.75000000  0.75000000  0.75000000  1
loop_
_geom_bond_atom_site_label_1
_geom_bond_atom_site_label_2
_geom_bond_distance
_geom_bond_site_symmetry_2
Be0 Zr0 2.400974 1_455
Be0 Zr5 2.400974 1_445
Be0 Zr2 2.400974 1_545
Be0 Zr3 2.400974 1_454
Be0 Zr4 2.400974 1_554
Be0 Zr1 2.400974 1_544
Br0 Zr2 2.754849 1_545
Br0 Zr4 2.754849 1_554
Br1 Zr3 2.754849 1_554
Br1 Zr5 2.754849 1_545
Br2 Zr4 2.754849 1_555
Br2 Zr3 2.754849 1_455
Br3 Zr2 2.754849 1_555
Br3 Zr5 2.754849 1_455
Br4 Zr4 2.754849 1_554
Br4 Zr0 2.754849 1_455
Br5 Zr5 2.754849 1_545
Br5 Zr0 2.754849 1_555
Br6 Zr1 2.754849 1_554
Br6 Zr5 2.754849 1_455
Br7 Zr1 2.754849 1_545
Br7 Zr4 2.754849 1_555
Br8 Zr2 2.754849 1_545
Br8 Zr0 2.754849 1_455
Br9 Zr1 2.754849 1_545
Br9 Zr3 2.754849 1_455
Br10 Zr3 2.754849 1_554
Br10 Zr0 2.754849 1_555
Br11 Zr1 2.754849 1_554
Br11 Zr2 2.754849 1_555
Br12 Zr0 2.884842 1_555
Br12 K6 3.372508 1_555
Br12 K4 3.372515 1_555
Br12 K5 3.372515 1_555
Br12 K0 3.372519 1_555
Br13 Zr1 2.884842 1_555
Br13 K7 3.372508 1_555
Br13 K3 3.372515 1_555
Br13 K2 3.372515 1_555
Br13 K1 3.372519 1_555
Br14 Zr2 2.884842 1_555
Br14 K3 3.372508 1_555
Br14 K4 3.372515 1_555
Br14 K7 3.372515 1_555
Br14 K0 3.372519 1_555
Br15 Zr3 2.884842 1_555
Br15 K5 3.372508 1_555
Br15 K2 3.372515 1_555
Br15 K6 3.372515 1_555
Br15 K1 3.372519 1_555
Br16 Zr4 2.884842 1_555
Br16 K2 3.372508 1_555
Br16 K7 3.372515 1_555
Br16 K5 3.372515 1_555
Br16 K0 3.372519 1_555
Br17 Zr5 2.884842 1_555
Br17 K4 3.372508 1_555
Br17 K3 3.372515 1_555
Br17 K6 3.372515 1_555
Br17 K1 3.372519 1_555
Br18 K0 3.151725 1_555
Br18 K2 3.151734 1_554
Br18 K3 3.151734 1_545
Br18 K6 3.151734 1_455
Br19 K1 3.151725 1_555
Br19 K4 3.151734 1_556
Br19 K5 3.151734 1_565
Br19 K7 3.151734 1_655
