# generated using pymatgen
data_Li9Mn2Co5O16
_symmetry_space_group_name_H-M   'P 1'
_cell_length_a   5.08425200
_cell_length_b   5.79119759
_cell_length_c   9.81183403
_cell_angle_alpha   97.99739262
_cell_angle_beta   96.31051714
_cell_angle_gamma   89.46064255
_symmetry_Int_Tables_number   1
_chemical_formula_structural   Li9Mn2Co5O16
_chemical_formula_sum   'Li9 Mn2 Co5 O16'
_cell_volume   284.35048032
_cell_formula_units_Z   1
loop_
 _symmetry_equiv_pos_site_id
 _symmetry_equiv_pos_as_xyz
  1  'x, y, z'
loop_
 _atom_site_type_symbol
 _atom_site_label
 _atom_site_symmetry_multiplicity
 _atom_site_fract_x
 _atom_site_fract_y
 _atom_site_fract_z
 _atom_site_occupancy
  Li  Li0  1  0.13899600  0.18163900  0.73348400  1
  Li  Li1  1  0.38114000  0.06114000  0.26708600  1
  Li  Li2  1  0.60136100  0.93360400  0.73252200  1
  Li  Li3  1  0.62761300  0.43276500  0.73792700  1
  Li  Li4  1  0.86975600  0.31669700  0.26275900  1
  Li  Li5  1  0.13466700  0.68677100  0.73005900  1
  Li  Li6  1  0.36756700  0.57070000  0.26674200  1
  Li  Li7  1  0.88912300  0.81399200  0.26719300  1
  Li  Li8  1  0.24906900  0.87445200  0.49955800  1
  Mn  Mn0  1  0.99954200  0.99520300  0.99848200  1
  Mn  Mn1  1  0.49931900  0.25188900  0.99984400  1
  Co  Co0  1  0.49983900  0.75110300  0.00184100  1
  Co  Co1  1  0.74093600  0.63088300  0.49694500  1
  Co  Co2  1  0.99882500  0.49744900  0.00041000  1
  Co  Co3  1  0.24989100  0.37483000  0.49927400  1
  Co  Co4  1  0.75950200  0.11794700  0.50380800  1
  O  O0  1  0.80492400  0.23011700  0.89429100  1
  O  O1  1  0.06581400  0.11595400  0.38622800  1
  O  O2  1  0.33691600  0.98505500  0.88021900  1
  O  O3  1  0.30465400  0.47035000  0.89206700  1
  O  O4  1  0.54773500  0.33856600  0.38992900  1
  O  O5  1  0.80541500  0.71995000  0.89781000  1
  O  O6  1  0.06810600  0.57823700  0.38656700  1
  O  O7  1  0.58574100  0.83398700  0.37801600  1
  O  O8  1  0.43073900  0.17282200  0.61124100  1
  O  O9  1  0.66260100  0.04017700  0.11775400  1
  O  O10  1  0.91474800  0.91853400  0.62468700  1
  O  O11  1  0.95255600  0.41256100  0.61141400  1
  O  O12  1  0.19209000  0.27463700  0.10403800  1
  O  O13  1  0.43558600  0.63249000  0.61258900  1
  O  O14  1  0.69448700  0.51667200  0.10973800  1
  O  O15  1  0.19074000  0.76882600  0.10547800  1
loop_
_geom_bond_atom_site_label_1
_geom_bond_atom_site_label_2
_geom_bond_distance
_geom_bond_site_symmetry_2
Li0 O8 2.003506 1_555
Li0 O10 2.018329 1_445
Li0 O11 2.072135 1_455
Li0 O2 2.120743 1_545
Li0 O3 2.222727 1_555
Li0 O0 2.431076 1_455
Li1 O4 2.003451 1_555
Li1 O7 2.030033 1_545
Li1 O1 2.082482 1_555
Li1 O9 2.148859 1_555
Li1 O12 2.280766 1_555
Li1 O15 2.294271 1_545
Li2 O10 2.002031 1_555
Li2 O8 2.072917 1_565
Li2 O2 2.072976 1_555
Li2 O13 2.091571 1_555
Li2 O5 2.324167 1_555
Li2 O0 2.335186 1_565
Li3 O13 1.978387 1_555
Li3 O8 2.011806 1_555
Li3 O11 2.165817 1_555
Li3 O0 2.172747 1_555
Li3 O5 2.243832 1_555
Li3 O3 2.340619 1_555
Li4 O1 1.979233 1_655
Li4 O6 2.008549 1_655
Li4 O14 2.135367 1_555
Li4 O4 2.157483 1_555
Li4 O9 2.183193 1_555
Li4 O12 2.370317 1_655
Li5 O11 2.002641 1_455
Li5 O13 2.011423 1_555
Li5 O10 2.055320 1_455
Li5 O3 2.253125 1_555
Li5 O2 2.281294 1_555
Li5 O5 2.461703 1_455
Li6 O7 2.012389 1_555
Li6 O6 2.019970 1_555
Li6 O4 2.071910 1_555
Li6 O15 2.191221 1_555
Li6 O12 2.288736 1_555
Li6 O14 2.377547 1_555
Li7 O7 1.976190 1_555
Li7 O6 2.061870 1_655
Li7 O1 2.111815 1_665
Li7 O14 2.299257 1_555
Li7 O9 2.308016 1_565
Li7 O15 2.312916 1_655
Li8 O1 2.059387 1_565
Li8 O13 2.066144 1_555
Li8 O6 2.072350 1_555
Li8 O8 2.078540 1_565
Li8 O7 2.184154 1_555
Li8 O10 2.196620 1_455
Mn0 O5 1.966723 1_555
Mn0 O15 1.974955 1_656
Mn0 O12 1.997590 1_666
Mn0 O0 2.003558 1_565
Mn0 O2 2.169987 1_655
Mn0 O9 2.172459 1_566
Mn1 O9 1.922306 1_556
Mn1 O2 1.937431 1_545
Mn1 O12 1.952477 1_556
Mn1 O0 1.953573 1_555
Mn1 O3 1.953731 1_555
Mn1 O14 1.957546 1_556
Co0 O5 1.944300 1_554
Co0 O15 1.957936 1_555
Co0 O9 2.017484 1_565
Co0 O14 2.021796 1_555
Co0 O3 2.023996 1_554
Co0 O2 2.038947 1_554
Co1 O7 1.878776 1_555
Co1 O13 2.020348 1_555
Co1 O11 2.030157 1_555
Co1 O4 2.059897 1_555
Co1 O6 2.080245 1_655
Co1 O10 2.080908 1_555
Co2 O5 1.939130 1_554
Co2 O12 1.945746 1_655
Co2 O0 1.951256 1_554
Co2 O15 1.960022 1_655
Co2 O3 1.970989 1_654
Co2 O14 1.971229 1_555
Co3 O8 1.880495 1_555
Co3 O6 1.892632 1_555
Co3 O13 1.920468 1_555
Co3 O1 1.920756 1_555
Co3 O4 1.943396 1_555
Co3 O11 1.958638 1_455
Co4 O10 1.876575 1_545
Co4 O4 2.036415 1_555
Co4 O1 2.036523 1_655
Co4 O7 2.056939 1_545
Co4 O8 2.071288 1_555
Co4 O11 2.071623 1_555
