# generated using pymatgen
data_KBaNa2Ti3Fe(Si2O9)2
_symmetry_space_group_name_H-M   'P 1'
_cell_length_a   5.38969300
_cell_length_b   7.13454710
_cell_length_c   10.90698580
_cell_angle_alpha   108.99237842
_cell_angle_beta   96.16186947
_cell_angle_gamma   89.99043537
_symmetry_Int_Tables_number   1
_chemical_formula_structural   KBaNa2Ti3Fe(Si2O9)2
_chemical_formula_sum   'K1 Ba1 Na2 Ti3 Fe1 Si4 O18'
_cell_volume   394.01396344
_cell_formula_units_Z   1
loop_
 _symmetry_equiv_pos_site_id
 _symmetry_equiv_pos_as_xyz
  1  'x, y, z'
loop_
 _atom_site_type_symbol
 _atom_site_label
 _atom_site_symmetry_multiplicity
 _atom_site_fract_x
 _atom_site_fract_y
 _atom_site_fract_z
 _atom_site_occupancy
  K  K0  1  0.73820400  0.71906900  0.43633400  1
  Ba  Ba0  1  0.25968900  0.27922900  0.55677400  1
  Na  Na0  1  0.00115500  0.00202300  0.00140700  1
  Na  Na1  1  0.50054300  0.74399200  0.00061800  1
  Ti  Ti0  1  0.29840700  0.86542200  0.71592100  1
  Ti  Ti1  1  0.70065800  0.14980400  0.28296600  1
  Ti  Ti2  1  0.00176500  0.50349300  0.00137600  1
  Fe  Fe0  1  0.49959400  0.27758000  0.99958100  1
  Si  Si0  1  0.80420800  0.58053400  0.72671500  1
  Si  Si1  1  0.79045000  0.14221600  0.72378900  1
  Si  Si2  1  0.21068900  0.42255600  0.27762600  1
  Si  Si3  1  0.19578600  0.85255500  0.27509800  1
  O  O0  1  0.84776300  0.64682000  0.88580800  1
  O  O1  1  0.79862600  0.22172700  0.88289900  1
  O  O2  1  0.20269700  0.34308900  0.11761700  1
  O  O3  1  0.15289500  0.76063900  0.11506100  1
  O  O4  1  0.72574100  0.50189500  0.09066400  1
  O  O5  1  0.27319600  0.40807100  0.90528800  1
  O  O6  1  0.78390700  0.33151800  0.66359900  1
  O  O7  1  0.21578600  0.66809100  0.33656300  1
  O  O8  1  0.04084200  0.64490800  0.66595200  1
  O  O9  1  0.03147400  0.02159400  0.66610900  1
  O  O10  1  0.97277300  0.35175400  0.33470700  1
  O  O11  1  0.96269600  0.98436800  0.33547800  1
  O  O12  1  0.34463500  0.97714900  0.88428900  1
  O  O13  1  0.65257800  0.09539900  0.11427900  1
  O  O14  1  0.53650200  0.64788600  0.67349900  1
  O  O15  1  0.52916500  0.01691300  0.65450800  1
  O  O16  1  0.46805500  0.35950300  0.34743300  1
  O  O17  1  0.45952100  0.98020400  0.32804100  1
loop_
_geom_bond_atom_site_label_1
_geom_bond_atom_site_label_2
_geom_bond_distance
_geom_bond_site_symmetry_2
K0 O16 2.778540 1_555
K0 O11 2.810411 1_555
K0 O10 2.846700 1_555
K0 O17 2.858805 1_555
K0 O7 2.878444 1_655
K0 O7 2.886077 1_555
K0 O15 2.954818 1_565
K0 O9 3.011273 1_665
K0 O8 3.032819 1_655
K0 O14 3.096769 1_555
Ba0 O15 2.777326 1_555
Ba0 O8 2.809676 1_555
Ba0 O9 2.838313 1_555
Ba0 O14 2.859841 1_555
Ba0 O16 2.864331 1_555
Ba0 O6 2.903553 1_455
Ba0 O6 2.913794 1_555
Ba0 O10 2.921804 1_455
Ba0 O11 2.946245 1_445
Ba0 O17 3.007854 1_545
Na0 O12 2.334607 1_544
Na0 O13 2.334799 1_455
Na0 O1 2.516853 1_454
Na0 O3 2.518490 1_545
Na0 O0 2.528366 1_444
Na0 O2 2.530909 1_555
Na1 O0 2.342749 1_554
Na1 O3 2.342757 1_555
Na1 O12 2.495495 1_554
Na1 O13 2.500722 1_565
Na1 O4 2.503740 1_555
Na1 O5 2.536129 1_554
Fe0 O4 1.933820 1_556
Fe0 O5 1.940830 1_555
Fe0 O1 2.118017 1_555
Fe0 O2 2.118214 1_556
Fe0 O13 2.184234 1_556
Fe0 O12 2.212219 1_545
O0 Si0 1.633471 1_555
O0 Ti2 1.984320 1_656
O1 Si1 1.636526 1_555
O1 Ti2 2.217194 1_656
O2 Si2 1.645879 1_555
O2 Ti2 2.176951 1_555
O3 Si3 1.642773 1_555
O3 Ti2 1.967187 1_555
O4 Ti2 1.865476 1_655
O5 Ti2 1.888496 1_556
O6 Si1 1.681791 1_555
O6 Si0 1.682285 1_555
O7 Si2 1.657102 1_555
O7 Si3 1.658853 1_555
O8 Si0 1.629889 1_455
O8 Ti0 1.994870 1_555
O9 Si1 1.626833 1_455
O9 Ti0 1.957589 1_545
O10 Si2 1.631977 1_655
O10 Ti1 1.959386 1_555
O11 Si3 1.634154 1_655
O11 Ti1 1.995390 1_565
O12 Ti0 1.737487 1_555
O13 Ti1 1.742348 1_555
O14 Si0 1.628234 1_555
O14 Ti0 1.982171 1_555
O15 Si1 1.638793 1_555
O15 Ti0 1.952992 1_545
O16 Si2 1.643833 1_555
O16 Ti1 1.951487 1_555
O17 Si3 1.632576 1_555
O17 Ti1 1.979860 1_565
