# generated using pymatgen
data_Mg6CrCO8
_symmetry_space_group_name_H-M   'P 1'
_cell_length_a   4.26698100
_cell_length_b   4.26698100
_cell_length_c   8.46668100
_cell_angle_alpha   90.00000000
_cell_angle_beta   90.00000000
_cell_angle_gamma   90.00000000
_symmetry_Int_Tables_number   1
_chemical_formula_structural   Mg6CrCO8
_chemical_formula_sum   'Mg6 Cr1 C1 O8'
_cell_volume   154.15393500
_cell_formula_units_Z   1
loop_
 _symmetry_equiv_pos_site_id
 _symmetry_equiv_pos_as_xyz
  1  'x, y, z'
loop_
 _atom_site_type_symbol
 _atom_site_label
 _atom_site_symmetry_multiplicity
 _atom_site_fract_x
 _atom_site_fract_y
 _atom_site_fract_z
 _atom_site_occupancy
  Mg  Mg0  1  0.00000000  0.00000000  0.50000000  1
  Mg  Mg1  1  0.50000000  0.50000000  0.50000000  1
  Mg  Mg2  1  0.00000000  0.50000000  0.24568300  1
  Mg  Mg3  1  0.00000000  0.50000000  0.75431700  1
  Mg  Mg4  1  0.50000000  0.00000000  0.24568300  1
  Mg  Mg5  1  0.50000000  0.00000000  0.75431700  1
  Cr  Cr0  1  0.00000000  0.00000000  0.00000000  1
  C  C0  1  0.50000000  0.50000000  0.00000000  1
  O  O0  1  0.00000000  0.00000000  0.24634600  1
  O  O1  1  0.00000000  0.00000000  0.75365400  1
  O  O2  1  0.50000000  0.50000000  0.25431300  1
  O  O3  1  0.50000000  0.50000000  0.74568700  1
  O  O4  1  0.00000000  0.50000000  0.00000000  1
  O  O5  1  0.00000000  0.50000000  0.50000000  1
  O  O6  1  0.50000000  0.00000000  0.00000000  1
  O  O7  1  0.50000000  0.00000000  0.50000000  1
loop_
_geom_bond_atom_site_label_1
_geom_bond_atom_site_label_2
_geom_bond_distance
_geom_bond_site_symmetry_2
Mg0 O7 2.133491 1_555
Mg0 O5 2.133491 1_545
Mg0 O7 2.133491 1_455
Mg0 O5 2.133491 1_555
Mg0 O1 2.147608 1_555
Mg0 O0 2.147608 1_555
Mg1 O2 2.080153 1_555
Mg1 O3 2.080153 1_555
Mg1 O7 2.133491 1_555
Mg1 O5 2.133491 1_555
Mg1 O5 2.133491 1_655
Mg1 O7 2.133491 1_565
Mg2 O4 2.080120 1_555
Mg2 O0 2.133498 1_555
Mg2 O0 2.133498 1_565
Mg2 O2 2.134741 1_455
Mg2 O2 2.134741 1_555
Mg2 O5 2.153221 1_555
Mg3 O4 2.080120 1_556
Mg3 O1 2.133498 1_555
Mg3 O1 2.133498 1_565
Mg3 O3 2.134741 1_455
Mg3 O3 2.134741 1_555
Mg3 O5 2.153221 1_555
Mg4 O6 2.080120 1_555
Mg4 O0 2.133498 1_555
Mg4 O0 2.133498 1_655
Mg4 O2 2.134741 1_555
Mg4 O2 2.134741 1_545
Mg4 O7 2.153221 1_555
Mg5 O6 2.080120 1_556
Mg5 O1 2.133498 1_555
Mg5 O1 2.133498 1_655
Mg5 O3 2.134741 1_555
Mg5 O3 2.134741 1_545
Mg5 O7 2.153221 1_555
Cr0 O0 2.085733 1_555
Cr0 O1 2.085733 1_554
Cr0 O6 2.133491 1_555
Cr0 O4 2.133491 1_555
Cr0 O6 2.133491 1_455
Cr0 O4 2.133491 1_545
C0 O6 2.133491 1_555
C0 O6 2.133491 1_565
C0 O4 2.133491 1_555
C0 O4 2.133491 1_655
C0 O2 2.153187 1_555
C0 O3 2.153187 1_554
