# generated using pymatgen
data_LaNbO2
_symmetry_space_group_name_H-M   'P 1'
_cell_length_a   7.57058813
_cell_length_b   7.57058813
_cell_length_c   7.57058813
_cell_angle_alpha   129.79291473
_cell_angle_beta   129.79291473
_cell_angle_gamma   73.73804207
_symmetry_Int_Tables_number   1
_chemical_formula_structural   LaNbO2
_chemical_formula_sum   'La4 Nb4 O8'
_cell_volume   249.91861536
_cell_formula_units_Z   4
loop_
 _symmetry_equiv_pos_site_id
 _symmetry_equiv_pos_as_xyz
  1  'x, y, z'
loop_
 _atom_site_type_symbol
 _atom_site_label
 _atom_site_symmetry_multiplicity
 _atom_site_fract_x
 _atom_site_fract_y
 _atom_site_fract_z
 _atom_site_occupancy
  La  La0  1  0.87500000  0.62500000  0.25000000  1
  La  La1  1  0.37500000  0.62500000  0.75000000  1
  La  La2  1  0.37500000  0.62500000  0.25000000  1
  La  La3  1  0.37500000  0.12500000  0.75000000  1
  Nb  Nb0  1  0.37500000  0.12500000  0.25000000  1
  Nb  Nb1  1  0.87500000  0.12500000  0.75000000  1
  Nb  Nb2  1  0.87500000  0.12500000  0.25000000  1
  Nb  Nb3  1  0.87500000  0.62500000  0.75000000  1
  O  O0  1  0.17131000  0.38497800  0.21366800  1
  O  O1  1  0.17131000  0.95764200  0.78633200  1
  O  O2  1  0.13497800  0.42131000  0.71366800  1
  O  O3  1  0.57869000  0.86502200  0.28633200  1
  O  O4  1  0.70764200  0.42131000  0.28633200  1
  O  O5  1  0.57869000  0.29235800  0.71366800  1
  O  O6  1  0.61502200  0.82869000  0.78633200  1
  O  O7  1  0.04235800  0.82869000  0.21366800  1
loop_
_geom_bond_atom_site_label_1
_geom_bond_atom_site_label_2
_geom_bond_distance
_geom_bond_site_symmetry_2
La0 O4 2.478327 1_555
La0 O7 2.478327 1_655
La0 O1 2.505350 1_655
La0 O3 2.505350 1_555
La0 O5 2.505350 1_554
La0 O0 2.505350 1_655
La1 O2 2.478327 1_555
La1 O6 2.478327 1_555
La1 O5 2.505350 1_555
La1 O0 2.505350 1_555
La1 O3 2.505350 1_556
La1 O1 2.505350 1_555
La2 O0 2.478327 1_555
La2 O3 2.478327 1_555
La2 O6 2.505350 1_555
La2 O7 2.505350 1_555
La2 O4 2.505350 1_555
La2 O2 2.505350 1_554
La3 O1 2.478327 1_545
La3 O5 2.478327 1_555
La3 O6 2.505350 1_545
La3 O4 2.505350 1_556
La3 O7 2.505350 1_545
La3 O2 2.505350 1_555
Nb0 O0 2.185765 1_555
Nb0 O5 2.185765 1_555
Nb0 O3 2.185765 1_545
Nb0 O1 2.185765 1_544
Nb1 O3 2.185765 1_545
Nb1 O5 2.185765 1_555
Nb1 O0 2.185765 1_656
Nb1 O1 2.185765 1_645
Nb2 O7 2.185765 1_645
Nb2 O2 2.185765 1_655
Nb2 O4 2.185765 1_555
Nb2 O6 2.185765 1_544
Nb3 O6 2.185765 1_555
Nb3 O2 2.185765 1_655
Nb3 O4 2.185765 1_555
Nb3 O7 2.185765 1_656
