# generated using pymatgen
data_Nd3Cu4(P2O)2
_symmetry_space_group_name_H-M   'P 1'
_cell_length_a   13.56748487
_cell_length_b   13.56748487
_cell_length_c   13.56748501
_cell_angle_alpha   163.08576481
_cell_angle_beta   163.08576054
_cell_angle_gamma   24.00884492
_symmetry_Int_Tables_number   1
_chemical_formula_structural   Nd3Cu4(P2O)2
_chemical_formula_sum   'Nd3 Cu4 P4 O2'
_cell_volume   211.34821498
_cell_formula_units_Z   1
loop_
 _symmetry_equiv_pos_site_id
 _symmetry_equiv_pos_as_xyz
  1  'x, y, z'
loop_
 _atom_site_type_symbol
 _atom_site_label
 _atom_site_symmetry_multiplicity
 _atom_site_fract_x
 _atom_site_fract_y
 _atom_site_fract_z
 _atom_site_occupancy
  Nd  Nd0  1  0.29521200  0.29521200  0.00000000  1
  Nd  Nd1  1  0.70478800  0.70478800  0.00000000  1
  Nd  Nd2  1  0.00000000  0.00000000  0.00000000  1
  Cu  Cu0  1  0.59405600  0.09405600  0.50000000  1
  Cu  Cu1  1  0.40594400  0.90594400  0.50000000  1
  Cu  Cu2  1  0.09405600  0.59405600  0.50000000  1
  Cu  Cu3  1  0.90594400  0.40594400  0.50000000  1
  P  P0  1  0.45802700  0.45802700  0.00000000  1
  P  P1  1  0.54197300  0.54197300  0.00000000  1
  P  P2  1  0.14072100  0.14072100  0.00000000  1
  P  P3  1  0.85927900  0.85927900  0.00000000  1
  O  O0  1  0.75000000  0.25000000  0.50000000  1
  O  O1  1  0.25000000  0.75000000  0.50000000  1
loop_
_geom_bond_atom_site_label_1
_geom_bond_atom_site_label_2
_geom_bond_distance
_geom_bond_site_symmetry_2
Nd0 O1 2.328401 1_555
Nd0 O1 2.328401 1_544
Nd0 O0 2.328401 1_555
Nd0 O0 2.328401 1_454
Nd0 P3 3.294602 1_545
Nd0 P3 3.294602 1_455
Nd0 P3 3.294603 1_444
Nd0 P3 3.294603 1_556
Nd1 O0 2.328401 1_554
Nd1 O0 2.328401 1_565
Nd1 O1 2.328401 1_554
Nd1 O1 2.328401 1_655
Nd1 P2 3.294602 1_655
Nd1 P2 3.294602 1_565
Nd1 P2 3.294603 1_554
Nd1 P2 3.294603 1_666
Nd2 P1 3.033805 1_455
Nd2 P1 3.033805 1_545
Nd2 P0 3.033805 1_455
Nd2 P0 3.033805 1_545
Nd2 P1 3.033806 1_444
Nd2 P1 3.033806 1_556
Nd2 P0 3.033806 1_444
Nd2 P0 3.033806 1_556
Cu0 P2 2.348509 1_656
Cu0 P2 2.348509 1_555
Cu0 P1 2.427424 1_545
Cu0 P1 2.427424 1_556
Cu0 Nd2 3.195847 1_656
Cu0 Nd2 3.195847 1_555
Cu1 P3 2.348509 1_455
Cu1 P3 2.348509 1_556
Cu1 P0 2.427424 1_566
Cu1 P0 2.427424 1_555
Cu1 Nd2 3.195847 1_565
Cu1 Nd2 3.195847 1_666
Cu2 P2 2.348509 1_566
Cu2 P2 2.348509 1_555
Cu2 P1 2.427424 1_556
Cu2 P1 2.427424 1_455
Cu2 Nd2 3.195847 1_566
Cu2 Nd2 3.195847 1_555
Cu3 P3 2.348509 1_545
Cu3 P3 2.348509 1_556
Cu3 P0 2.427424 1_656
Cu3 P0 2.427424 1_555
Cu3 Nd2 3.195847 1_655
Cu3 Nd2 3.195847 1_666
P0 P1 2.228059 1_555
