# generated using pymatgen
data_BaSrEuCrO6
_symmetry_space_group_name_H-M   'P 1'
_cell_length_a   5.85999424
_cell_length_b   5.97380938
_cell_length_c   8.35374876
_cell_angle_alpha   90.24145949
_cell_angle_beta   89.28380638
_cell_angle_gamma   89.08891014
_symmetry_Int_Tables_number   1
_chemical_formula_structural   BaSrEuCrO6
_chemical_formula_sum   'Ba2 Sr2 Eu2 Cr2 O12'
_cell_volume   292.37274744
_cell_formula_units_Z   2
loop_
 _symmetry_equiv_pos_site_id
 _symmetry_equiv_pos_as_xyz
  1  'x, y, z'
loop_
 _atom_site_type_symbol
 _atom_site_label
 _atom_site_symmetry_multiplicity
 _atom_site_fract_x
 _atom_site_fract_y
 _atom_site_fract_z
 _atom_site_occupancy
  Ba  Ba0  1  0.98839808  0.04101710  0.24897259  1
  Ba  Ba1  1  0.01160192  0.95898290  0.75102741  1
  Sr  Sr0  1  0.51084568  0.54276313  0.25381374  1
  Sr  Sr1  1  0.48915432  0.45723687  0.74618626  1
  Eu  Eu0  1  0.50000000  -0.00000000  0.00000000  1
  Eu  Eu1  1  0.00000000  0.50000000  0.50000000  1
  Cr  Cr0  1  0.00000000  0.50000000  0.00000000  1
  Cr  Cr1  1  0.50000000  -0.00000000  0.50000000  1
  O  O0  1  0.18879290  0.23826779  0.95995531  1
  O  O1  1  0.31669040  0.73082672  0.54156875  1
  O  O2  1  0.81120710  0.76173221  0.04004469  1
  O  O3  1  0.68330960  0.26917328  0.45843125  1
  O  O4  1  0.26279415  0.68558932  0.95935071  1
  O  O5  1  0.24794110  0.18512020  0.53806413  1
  O  O6  1  0.73720585  0.31441068  0.04064929  1
  O  O7  1  0.75205890  0.81487980  0.46193587  1
  O  O8  1  0.42750259  0.97789934  0.27221647  1
  O  O9  1  0.08213572  0.48530405  0.22140653  1
  O  O10  1  0.57249741  0.02210066  0.72778353  1
  O  O11  1  0.91786428  0.51469595  0.77859347  1
loop_
_geom_bond_atom_site_label_1
_geom_bond_atom_site_label_2
_geom_bond_distance
_geom_bond_site_symmetry_2
Ba0 O8 2.604463 1_645
Ba0 O7 2.631760 1_545
Ba0 O2 2.642673 1_545
Ba0 O9 2.728971 1_655
Ba0 O6 2.806101 1_555
Ba0 O3 2.817771 1_555
Ba0 O0 2.931521 1_654
Ba0 O5 3.000401 1_655
Ba1 O10 2.604463 1_465
Ba1 O5 2.631760 1_565
Ba1 O0 2.642673 1_565
Ba1 O11 2.728971 1_455
Ba1 O4 2.806101 1_555
Ba1 O1 2.817771 1_555
Ba1 O2 2.931521 1_456
Ba1 O7 3.000401 1_455
Eu0 O8 2.312851 1_545
Eu0 O10 2.312851 1_554
Eu0 O2 2.323870 1_545
Eu0 O0 2.323870 1_554
Eu0 O4 2.380058 1_544
Eu0 O6 2.380058 1_555
Eu1 O3 2.357850 1_455
Eu1 O1 2.357850 1_555
Eu1 O11 2.371630 1_455
Eu1 O9 2.371630 1_555
Eu1 O7 2.383293 1_455
Eu1 O5 2.383293 1_555
Cr0 O11 1.919004 1_454
Cr0 O9 1.919004 1_555
Cr0 O0 1.926614 1_554
Cr0 O2 1.926614 1_455
Cr0 O6 1.939170 1_455
Cr0 O4 1.939170 1_554
Cr1 O5 1.854489 1_555
Cr1 O7 1.854489 1_545
Cr1 O8 1.959238 1_545
Cr1 O10 1.959238 1_555
Cr1 O1 1.977478 1_545
Cr1 O3 1.977478 1_555
O0 Sr1 2.830618 1_555
O1 Sr1 2.574598 1_555
O1 Sr0 2.864133 1_555
O2 Sr0 2.830618 1_555
O3 Sr0 2.574598 1_555
O3 Sr1 2.864133 1_555
O4 Sr1 2.579590 1_555
O4 Sr0 2.993238 1_556
O5 Sr1 2.788173 1_555
O6 Sr0 2.579590 1_555
O6 Sr1 2.993238 1_554
O7 Sr0 2.788173 1_555
O8 Sr0 2.640744 1_555
O9 Sr0 2.558533 1_555
O10 Sr1 2.640744 1_555
O11 Sr1 2.558533 1_555
