# generated using pymatgen
data_Sr4C2N5
_symmetry_space_group_name_H-M   'P 1'
_cell_length_a   13.03188795
_cell_length_b   7.10083213
_cell_length_c   7.27368944
_cell_angle_alpha   90.00000000
_cell_angle_beta   100.88648877
_cell_angle_gamma   90.00000000
_symmetry_Int_Tables_number   1
_chemical_formula_structural   Sr4C2N5
_chemical_formula_sum   'Sr16 C8 N20'
_cell_volume   660.97384467
_cell_formula_units_Z   4
loop_
 _symmetry_equiv_pos_site_id
 _symmetry_equiv_pos_as_xyz
  1  'x, y, z'
loop_
 _atom_site_type_symbol
 _atom_site_label
 _atom_site_symmetry_multiplicity
 _atom_site_fract_x
 _atom_site_fract_y
 _atom_site_fract_z
 _atom_site_occupancy
  Sr  Sr0  1  0.03935491  0.76990865  0.00747705  1
  Sr  Sr1  1  0.96064509  0.26990865  0.49252295  1
  Sr  Sr2  1  0.96064509  0.23009135  0.99252295  1
  Sr  Sr3  1  0.03935491  0.73009135  0.50747705  1
  Sr  Sr4  1  0.17181895  0.09416616  0.76798465  1
  Sr  Sr5  1  0.82818105  0.59416616  0.73201535  1
  Sr  Sr6  1  0.82818105  0.90583384  0.23201535  1
  Sr  Sr7  1  0.17181895  0.40583384  0.26798465  1
  Sr  Sr8  1  0.38914796  0.15911138  0.52928577  1
  Sr  Sr9  1  0.61085204  0.65911138  0.97071423  1
  Sr  Sr10  1  0.61085204  0.84088862  0.47071423  1
  Sr  Sr11  1  0.38914796  0.34088862  0.02928577  1
  Sr  Sr12  1  0.67792521  0.17668450  0.84961713  1
  Sr  Sr13  1  0.32207479  0.67668450  0.65038287  1
  Sr  Sr14  1  0.32207479  0.82331550  0.15038287  1
  Sr  Sr15  1  0.67792521  0.32331550  0.34961713  1
  C  C0  1  0.13629641  0.49213892  0.78180356  1
  C  C1  1  0.86370359  0.99213892  0.71819644  1
  C  C2  1  0.86370359  0.50786108  0.21819644  1
  C  C3  1  0.13629641  0.00786108  0.28180356  1
  C  C4  1  0.53480397  0.48160991  0.61634137  1
  C  C5  1  0.46519603  0.98160991  0.88365863  1
  C  C6  1  0.46519603  0.51839009  0.38365863  1
  C  C7  1  0.53480397  0.01839009  0.11634137  1
  N  N0  1  0.79403210  0.08544199  0.57680834  1
  N  N1  1  0.20596790  0.58544199  0.92319166  1
  N  N2  1  0.20596790  0.91455801  0.42319166  1
  N  N3  1  0.79403210  0.41455801  0.07680834  1
  N  N4  1  0.03022630  0.47736920  0.78705746  1
  N  N5  1  0.96977370  0.97736920  0.71294254  1
  N  N6  1  0.96977370  0.52263080  0.21294254  1
  N  N7  1  0.03022630  0.02263080  0.28705746  1
  N  N8  1  0.17049744  0.42061397  0.62342019  1
  N  N9  1  0.82950256  0.92061397  0.87657981  1
  N  N10  1  0.82950256  0.57938603  0.37657981  1
  N  N11  1  0.17049744  0.07938603  0.12342019  1
  N  N12  1  0.63834989  0.50946485  0.64278477  1
  N  N13  1  0.36165011  0.00946485  0.85721523  1
  N  N14  1  0.36165011  0.49053515  0.35721523  1
  N  N15  1  0.63834989  0.99053515  0.14278477  1
  N  N16  1  0.47899502  0.43222811  0.74612882  1
  N  N17  1  0.52100498  0.93222811  0.75387118  1
  N  N18  1  0.52100498  0.56777189  0.25387118  1
  N  N19  1  0.47899502  0.06777189  0.24612882  1
loop_
_geom_bond_atom_site_label_1
_geom_bond_atom_site_label_2
_geom_bond_distance
_geom_bond_site_symmetry_2
C0 N4 1.393969 1_555
C0 N1 1.402944 1_555
C0 N8 1.406317 1_555
C0 Sr3 2.735007 1_555
C1 N5 1.393969 1_555
C1 N0 1.402944 1_565
C1 N9 1.406317 1_555
C1 Sr2 2.735007 1_565
C2 N6 1.393969 1_555
C2 N3 1.402944 1_555
C2 N10 1.406317 1_555
C2 Sr1 2.735007 1_555
C3 N7 1.393969 1_555
C3 N2 1.402944 1_545
C3 N11 1.406317 1_555
C3 Sr0 2.735007 1_545
C4 N12 1.341252 1_555
C4 N16 1.342557 1_555
C5 N13 1.341252 1_565
C5 N17 1.342557 1_555
C6 N14 1.341252 1_555
C6 N18 1.342557 1_555
C7 N15 1.341252 1_545
C7 N19 1.342557 1_555
N0 Sr15 2.632270 1_555
N0 Sr1 2.703493 1_555
N0 Sr12 2.789424 1_555
N0 Sr6 2.921615 1_545
N0 Sr10 2.934937 1_545
N1 Sr14 2.632270 1_556
N1 Sr0 2.703493 1_556
N1 Sr13 2.789424 1_555
N1 Sr7 2.921615 1_556
N1 Sr11 2.934937 1_556
N2 Sr13 2.632270 1_555
N2 Sr3 2.703493 1_555
N2 Sr14 2.789424 1_555
N2 Sr4 2.921615 1_565
N2 Sr8 2.934937 1_565
N3 Sr12 2.632270 1_554
N3 Sr2 2.703493 1_554
N3 Sr15 2.789424 1_555
N3 Sr5 2.921615 1_554
N3 Sr9 2.934937 1_554
N4 Sr2 2.578903 1_455
N4 Sr0 2.612973 1_556
N4 Sr1 2.616921 1_455
N4 Sr5 2.717128 1_455
N4 Sr3 2.731547 1_555
N5 Sr3 2.578903 1_655
N5 Sr1 2.612973 1_565
N5 Sr0 2.616921 1_656
N5 Sr4 2.717128 1_665
N5 Sr2 2.731547 1_565
N6 Sr0 2.578903 1_655
N6 Sr2 2.612973 1_554
N6 Sr3 2.616921 1_655
N6 Sr7 2.717128 1_655
N6 Sr1 2.731547 1_555
N7 Sr1 2.578903 1_455
N7 Sr3 2.612973 1_545
N7 Sr2 2.616921 1_454
N7 Sr6 2.717128 1_445
N7 Sr0 2.731547 1_545
N8 Sr4 2.544112 1_555
N8 Sr7 2.590762 1_555
N8 Sr13 2.664650 1_555
N8 Sr3 2.813683 1_555
N8 Sr1 2.923550 1_455
N9 Sr5 2.544112 1_555
N9 Sr6 2.590762 1_556
N9 Sr12 2.664650 1_565
N9 Sr2 2.813683 1_565
N9 Sr0 2.923550 1_656
N10 Sr6 2.544112 1_555
N10 Sr5 2.590762 1_555
N10 Sr15 2.664650 1_555
N10 Sr1 2.813683 1_555
N10 Sr3 2.923550 1_655
N11 Sr7 2.544112 1_555
N11 Sr4 2.590762 1_554
N11 Sr14 2.664650 1_545
N11 Sr0 2.813683 1_545
N11 Sr2 2.923550 1_454
N12 Sr5 2.509278 1_555
N12 Sr15 2.641169 1_555
N12 Sr10 2.657798 1_555
N12 Sr9 2.696271 1_555
N12 Sr12 2.796441 1_555
N13 Sr4 2.509278 1_555
N13 Sr14 2.641169 1_546
N13 Sr11 2.657798 1_556
N13 Sr8 2.696271 1_555
N13 Sr13 2.796441 1_545
N14 Sr7 2.509278 1_555
N14 Sr13 2.641169 1_555
N14 Sr8 2.657798 1_555
N14 Sr11 2.696271 1_555
N14 Sr14 2.796441 1_555
N15 Sr6 2.509278 1_555
N15 Sr12 2.641169 1_564
N15 Sr9 2.657798 1_554
N15 Sr10 2.696271 1_555
N15 Sr15 2.796441 1_565
N16 Sr8 2.631006 1_555
N16 Sr11 2.635233 1_556
N16 Sr13 2.672472 1_555
N16 Sr9 2.675157 1_555
N17 Sr9 2.631006 1_555
N17 Sr10 2.635233 1_555
N17 Sr12 2.672472 1_565
N17 Sr8 2.675157 1_565
N18 Sr10 2.631006 1_555
N18 Sr9 2.635233 1_554
N18 Sr15 2.672472 1_555
N18 Sr11 2.675157 1_555
N19 Sr11 2.631006 1_555
N19 Sr8 2.635233 1_555
N19 Sr14 2.672472 1_545
N19 Sr10 2.675157 1_545
