# generated using pymatgen
data_TbCu(WO4)2
_symmetry_space_group_name_H-M   'P 1'
_cell_length_a   6.84714600
_cell_length_b   10.07100293
_cell_length_c   15.37532820
_cell_angle_alpha   107.25288032
_cell_angle_beta   89.05343224
_cell_angle_gamma   108.06258210
_symmetry_Int_Tables_number   1
_chemical_formula_structural   TbCu(WO4)2
_chemical_formula_sum   'Tb6 Cu6 W12 O48'
_cell_volume   959.31219267
_cell_formula_units_Z   6
loop_
 _symmetry_equiv_pos_site_id
 _symmetry_equiv_pos_as_xyz
  1  'x, y, z'
loop_
 _atom_site_type_symbol
 _atom_site_label
 _atom_site_symmetry_multiplicity
 _atom_site_fract_x
 _atom_site_fract_y
 _atom_site_fract_z
 _atom_site_occupancy
  Tb  Tb0  1  0.19540500  0.22482700  0.01485500  1
  Tb  Tb1  1  0.80459500  0.77517300  0.98514500  1
  Tb  Tb2  1  0.03560000  0.39752300  0.67576400  1
  Tb  Tb3  1  0.96440000  0.60247700  0.32423600  1
  Tb  Tb4  1  0.35999100  0.05138800  0.34367500  1
  Tb  Tb5  1  0.64000900  0.94861200  0.65632500  1
  Cu  Cu0  1  0.50000000  0.50000000  0.50000000  1
  Cu  Cu1  1  0.00000000  0.00000000  0.50000000  1
  Cu  Cu2  1  0.17052100  0.83454400  0.83484000  1
  Cu  Cu3  1  0.82947900  0.16545600  0.16516000  1
  Cu  Cu4  1  0.32093000  0.66270000  0.16849400  1
  Cu  Cu5  1  0.67907000  0.33730000  0.83150600  1
  W  W0  1  0.35051700  0.40803400  0.28499200  1
  W  W1  1  0.64948300  0.59196600  0.71500800  1
  W  W2  1  0.19109200  0.58048100  0.94655400  1
  W  W3  1  0.80890800  0.41951900  0.05344600  1
  W  W4  1  0.16242200  0.10543700  0.74234300  1
  W  W5  1  0.83757800  0.89456300  0.25765700  1
  W  W6  1  0.50525300  0.23302100  0.60965900  1
  W  W7  1  0.49474700  0.76697900  0.39034100  1
  W  W8  1  0.33153500  0.93801000  0.06864700  1
  W  W9  1  0.66846500  0.06199000  0.93135300  1
  W  W10  1  0.02455000  0.75097600  0.60453300  1
  W  W11  1  0.97545000  0.24902400  0.39546700  1
  O  O0  1  0.59339700  0.91900700  0.00462000  1
  O  O1  1  0.40660300  0.08099300  0.99538000  1
  O  O2  1  0.95314700  0.59907400  0.66525400  1
  O  O3  1  0.04685300  0.40092600  0.33474600  1
  O  O4  1  0.12024300  0.43103200  0.00809600  1
  O  O5  1  0.87975700  0.56896800  0.99190400  1
  O  O6  1  0.71560100  0.73767400  0.65092300  1
  O  O7  1  0.28439900  0.26232600  0.34907700  1
  O  O8  1  0.43178600  0.09276200  0.68385600  1
  O  O9  1  0.56821400  0.90723800  0.31614400  1
  O  O10  1  0.72286200  0.25448100  0.91950600  1
  O  O11  1  0.27713800  0.74551900  0.08049400  1
  O  O12  1  0.37222700  0.11522300  0.49984000  1
  O  O13  1  0.62777300  0.88477700  0.50016000  1
  O  O14  1  0.75774800  0.70528400  0.82934400  1
  O  O15  1  0.24225200  0.29471600  0.17065600  1
  O  O16  1  0.92141700  0.03101900  0.92644000  1
  O  O17  1  0.07858300  0.96898100  0.07356000  1
  O  O18  1  0.92936300  0.64604700  0.48664900  1
  O  O19  1  0.07063700  0.35395300  0.51335100  1
  O  O20  1  0.08166100  0.46975900  0.83133900  1
  O  O21  1  0.91833900  0.53024100  0.16866100  1
  O  O22  1  0.16754200  0.76768500  0.93588900  1
  O  O23  1  0.83245800  0.23231500  0.06411100  1
  O  O24  1  0.55925700  0.41655700  0.58402100  1
  O  O25  1  0.44074300  0.58344300  0.41597900  1
  O  O26  1  0.89164200  0.09033100  0.25369900  1
  O  O27  1  0.10835800  0.90966900  0.74630100  1
  O  O28  1  0.53782800  0.39469500  0.05954600  1
  O  O29  1  0.46217200  0.60530500  0.94045400  1
  O  O30  1  0.55347300  0.95423300  0.81681500  1
  O  O31  1  0.44652700  0.04576700  0.18318500  1
  O  O32  1  0.24272200  0.25339000  0.67154900  1
  O  O33  1  0.75727800  0.74661000  0.32845100  1
  O  O34  1  0.75376300  0.19388800  0.60104000  1
  O  O35  1  0.24623700  0.80611200  0.39896000  1
  O  O36  1  0.00411000  0.94298400  0.60496900  1
  O  O37  1  0.99589000  0.05701600  0.39503100  1
  O  O38  1  0.27319900  0.20981500  0.85764500  1
  O  O39  1  0.72680100  0.79018500  0.14235500  1
  O  O40  1  0.67453900  0.40768700  0.73200500  1
  O  O41  1  0.32546100  0.59231300  0.26799500  1
  O  O42  1  0.90782100  0.13232400  0.74834500  1
  O  O43  1  0.09217900  0.86767600  0.25165500  1
  O  O44  1  0.37758300  0.56674600  0.71944500  1
  O  O45  1  0.62241700  0.43325400  0.28055500  1
  O  O46  1  0.29805900  0.78165700  0.60328400  1
  O  O47  1  0.70194100  0.21834300  0.39671600  1
loop_
_geom_bond_atom_site_label_1
_geom_bond_atom_site_label_2
_geom_bond_distance
_geom_bond_site_symmetry_2
Cu0 O25 1.847273 1_555
Cu0 O24 1.847273 1_555
Cu1 O36 1.869900 1_545
Cu1 O37 1.869900 1_455
Cu1 O12 2.451506 1_555
Cu1 O13 2.451506 1_445
Cu2 O27 1.853795 1_555
Cu2 O22 1.865113 1_555
Cu2 O30 2.572838 1_555
Cu3 O26 1.853795 1_555
Cu3 O23 1.865113 1_555
Cu3 O31 2.572838 1_555
Cu4 O11 1.858542 1_555
Cu4 O41 1.871475 1_555
Cu5 O10 1.858542 1_555
Cu5 O40 1.871475 1_555
O0 W9 2.022591 1_564
O0 W8 2.064783 1_555
O0 Tb1 2.303599 1_554
O1 W8 2.022591 1_546
O1 W9 2.064783 1_555
O1 Tb0 2.303599 1_556
O2 W10 1.954295 1_655
O2 W1 2.191155 1_555
O2 Tb2 2.318024 1_655
O3 W11 1.954295 1_455
O3 W0 2.191155 1_555
O3 Tb3 2.318024 1_455
O4 W2 1.942386 1_554
O4 W3 2.211241 1_455
O4 Tb0 2.319663 1_555
O5 W3 1.942386 1_556
O5 W2 2.211241 1_655
O5 Tb1 2.319663 1_555
O6 W1 1.939108 1_555
O6 W10 2.198358 1_655
O6 Tb5 2.315912 1_555
O7 W0 1.939108 1_555
O7 W11 2.198358 1_455
O7 Tb4 2.315912 1_555
O8 W6 2.011481 1_555
O8 W4 2.061500 1_555
O8 Tb5 2.284397 1_545
O9 W7 2.011481 1_555
O9 W5 2.061500 1_555
O9 Tb4 2.284397 1_565
O10 W9 1.920796 1_555
O10 W3 2.180175 1_556
O11 W8 1.920796 1_555
O11 W2 2.180175 1_554
O12 W6 1.811246 1_555
O12 Tb4 2.289792 1_555
O13 W7 1.811246 1_555
O13 Tb5 2.289792 1_555
O14 W1 1.808515 1_555
O14 Tb1 2.285152 1_555
O15 W0 1.808515 1_555
O15 Tb0 2.285152 1_555
O16 W9 1.849193 1_555
O16 Tb0 2.327415 1_656
O16 Tb1 2.858524 1_545
O17 W8 1.849193 1_555
O17 Tb1 2.327415 1_454
O17 Tb0 2.858524 1_565
O18 W10 1.817266 1_655
O18 Tb3 2.425157 1_555
O19 W11 1.817266 1_455
O19 Tb2 2.425157 1_555
O20 W2 1.815753 1_555
O20 Tb2 2.280542 1_555
O21 W3 1.815753 1_555
O21 Tb3 2.280542 1_555
O22 W2 1.995030 1_555
O22 W8 2.274674 1_556
O22 Tb1 2.602952 1_455
O23 W3 1.995030 1_555
O23 W9 2.274674 1_554
O23 Tb0 2.602952 1_655
O24 W6 1.926713 1_555
O24 W1 2.193711 1_555
O25 W7 1.926713 1_555
O25 W0 2.193711 1_555
O26 W5 1.909374 1_545
O26 W11 2.245205 1_555
O27 W4 1.909374 1_565
O27 W10 2.245205 1_555
O28 W3 1.799138 1_555
O28 Tb0 2.400976 1_555
O29 W2 1.799138 1_555
O29 Tb1 2.400976 1_555
O30 W9 1.811431 1_565
O30 Tb5 2.516526 1_555
O31 W8 1.811431 1_545
O31 Tb4 2.516526 1_555
O32 W4 2.035082 1_555
O32 W6 2.057976 1_555
O32 Tb2 2.310895 1_555
O33 W5 2.035082 1_555
O33 W7 2.057976 1_555
O33 Tb3 2.310895 1_555
O34 W6 1.856258 1_555
O34 Tb2 2.339082 1_655
O34 Tb5 2.731578 1_545
O35 W7 1.856258 1_555
O35 Tb3 2.339082 1_455
O35 Tb4 2.731578 1_565
O36 W10 1.979642 1_555
O36 W4 2.288903 1_565
O36 Tb5 2.614967 1_455
O37 W11 1.979642 1_555
O37 W5 2.288903 1_545
O37 Tb4 2.614967 1_655
O38 W4 1.807690 1_555
O38 Tb0 2.437182 1_556
O39 W5 1.807690 1_555
O39 Tb1 2.437182 1_554
O40 W1 2.007141 1_555
O40 W6 2.195740 1_555
O40 Tb2 2.627541 1_655
O41 W0 2.007141 1_555
O41 W7 2.195740 1_555
O41 Tb3 2.627541 1_455
O42 W4 1.842141 1_655
O42 Tb5 2.283987 1_545
O43 W5 1.842141 1_455
O43 Tb4 2.283987 1_565
O44 W1 1.802246 1_555
O44 Tb2 2.395202 1_555
O45 W0 1.802246 1_555
O45 Tb3 2.395202 1_555
O46 W10 1.801820 1_555
O46 Tb5 2.404727 1_555
O47 W11 1.801820 1_555
O47 Tb4 2.404727 1_555
