# generated using pymatgen
data_Y(CuO2)2
_symmetry_space_group_name_H-M   'P 1'
_cell_length_a   6.22393126
_cell_length_b   6.22393126
_cell_length_c   6.22393126
_cell_angle_alpha   60.00000000
_cell_angle_beta   60.00000000
_cell_angle_gamma   60.00000000
_symmetry_Int_Tables_number   1
_chemical_formula_structural   Y(CuO2)2
_chemical_formula_sum   'Y2 Cu4 O8'
_cell_volume   170.48232700
_cell_formula_units_Z   2
loop_
 _symmetry_equiv_pos_site_id
 _symmetry_equiv_pos_as_xyz
  1  'x, y, z'
loop_
 _atom_site_type_symbol
 _atom_site_label
 _atom_site_symmetry_multiplicity
 _atom_site_fract_x
 _atom_site_fract_y
 _atom_site_fract_z
 _atom_site_occupancy
  Y  Y0  1  0.00000000  0.00000000  0.00000000  1
  Y  Y1  1  0.25000000  0.25000000  0.25000000  1
  Cu  Cu0  1  0.62500000  0.62500000  0.62500000  1
  Cu  Cu1  1  0.62500000  0.12500000  0.62500000  1
  Cu  Cu2  1  0.12500000  0.62500000  0.62500000  1
  Cu  Cu3  1  0.62500000  0.62500000  0.12500000  1
  O  O0  1  0.42204100  0.85932000  0.85932000  1
  O  O1  1  0.39068000  0.39068000  0.82795900  1
  O  O2  1  0.39068000  0.39068000  0.39068000  1
  O  O3  1  0.39068000  0.82795900  0.39068000  1
  O  O4  1  0.85932000  0.85932000  0.42204100  1
  O  O5  1  0.82795900  0.39068000  0.39068000  1
  O  O6  1  0.85932000  0.85932000  0.85932000  1
  O  O7  1  0.85932000  0.42204100  0.85932000  1
loop_
_geom_bond_atom_site_label_1
_geom_bond_atom_site_label_2
_geom_bond_distance
_geom_bond_site_symmetry_2
Cu0 O1 2.071693 1_555
Cu0 O0 2.071693 1_555
Cu0 O4 2.071693 1_555
Cu0 O7 2.071693 1_555
Cu0 O5 2.071693 1_555
Cu0 O3 2.071693 1_555
Cu1 O1 2.071688 1_555
Cu1 O5 2.071688 1_555
Cu1 O0 2.071688 1_545
Cu1 O4 2.071688 1_545
Cu1 O6 2.071692 1_545
Cu1 O2 2.071692 1_555
Cu2 O1 2.071688 1_555
Cu2 O3 2.071688 1_555
Cu2 O7 2.071688 1_455
Cu2 O4 2.071688 1_455
Cu2 O2 2.071692 1_555
Cu2 O6 2.071692 1_455
Cu3 O5 2.071688 1_555
Cu3 O3 2.071688 1_555
Cu3 O0 2.071688 1_554
Cu3 O7 2.071688 1_554
Cu3 O2 2.071692 1_555
Cu3 O6 2.071692 1_554
O0 Y0 2.144736 1_566
O1 Y1 2.144736 1_556
O2 Y1 2.144731 1_555
O3 Y1 2.144736 1_565
O4 Y0 2.144736 1_665
O5 Y1 2.144736 1_655
O6 Y0 2.144731 1_666
O7 Y0 2.144736 1_656
