# generated using pymatgen
data_Sr3LiTaO6
_symmetry_space_group_name_H-M   'P 1'
_cell_length_a   6.84462832
_cell_length_b   6.84462832
_cell_length_c   6.84462857
_cell_angle_alpha   92.69063893
_cell_angle_beta   92.69063893
_cell_angle_gamma   92.69063317
_symmetry_Int_Tables_number   1
_chemical_formula_structural   Sr3LiTaO6
_chemical_formula_sum   'Sr6 Li2 Ta2 O12'
_cell_volume   319.56857729
_cell_formula_units_Z   2
loop_
 _symmetry_equiv_pos_site_id
 _symmetry_equiv_pos_as_xyz
  1  'x, y, z'
loop_
 _atom_site_type_symbol
 _atom_site_label
 _atom_site_symmetry_multiplicity
 _atom_site_fract_x
 _atom_site_fract_y
 _atom_site_fract_z
 _atom_site_occupancy
  Sr  Sr0  1  0.10228700  0.75000000  0.39771300  1
  Sr  Sr1  1  0.39771300  0.10228700  0.75000000  1
  Sr  Sr2  1  0.75000000  0.39771300  0.10228700  1
  Sr  Sr3  1  0.89771300  0.25000000  0.60228700  1
  Sr  Sr4  1  0.60228700  0.89771300  0.25000000  1
  Sr  Sr5  1  0.25000000  0.60228700  0.89771300  1
  Li  Li0  1  0.25000000  0.25000000  0.25000000  1
  Li  Li1  1  0.75000000  0.75000000  0.75000000  1
  Ta  Ta0  1  0.50000000  0.50000000  0.50000000  1
  Ta  Ta1  1  0.00000000  0.00000000  0.00000000  1
  O  O0  1  0.21940200  0.41971000  0.54750500  1
  O  O1  1  0.54750500  0.21940200  0.41971000  1
  O  O2  1  0.41971000  0.54750500  0.21940200  1
  O  O3  1  0.04750500  0.91971000  0.71940200  1
  O  O4  1  0.71940200  0.04750500  0.91971000  1
  O  O5  1  0.91971000  0.71940200  0.04750500  1
  O  O6  1  0.78059800  0.58029000  0.45249500  1
  O  O7  1  0.45249500  0.78059800  0.58029000  1
  O  O8  1  0.58029000  0.45249500  0.78059800  1
  O  O9  1  0.95249500  0.08029000  0.28059800  1
  O  O10  1  0.28059800  0.95249500  0.08029000  1
  O  O11  1  0.08029000  0.28059800  0.95249500  1
loop_
_geom_bond_atom_site_label_1
_geom_bond_atom_site_label_2
_geom_bond_distance
_geom_bond_site_symmetry_2
Li0 O1 2.319600 1_555
Li0 O10 2.319600 1_545
Li0 O11 2.319601 1_554
Li0 O0 2.319601 1_555
Li0 O2 2.319601 1_555
Li0 O9 2.319601 1_455
Li1 O4 2.319600 1_565
Li1 O7 2.319600 1_555
Li1 O5 2.319601 1_556
Li1 O6 2.319601 1_555
Li1 O3 2.319601 1_655
Li1 O8 2.319601 1_555
O0 Ta0 2.018096 1_555
O0 Sr3 2.493251 1_455
O0 Sr5 2.645452 1_555
O0 Sr0 2.667428 1_555
O0 Sr1 2.916126 1_555
O1 Ta0 2.018096 1_555
O1 Sr4 2.493251 1_545
O1 Sr3 2.645452 1_555
O1 Sr1 2.667428 1_555
O1 Sr2 2.916126 1_555
O2 Ta0 2.018096 1_555
O2 Sr5 2.493251 1_554
O2 Sr4 2.645452 1_555
O2 Sr2 2.667427 1_555
O2 Sr0 2.916126 1_555
O3 Ta1 2.018096 1_566
O3 Sr0 2.493251 1_555
O3 Sr1 2.645452 1_565
O3 Sr3 2.667427 1_465
O3 Sr5 2.916126 1_555
O4 Ta1 2.018096 1_656
O4 Sr1 2.493251 1_555
O4 Sr2 2.645452 1_556
O4 Sr4 2.667428 1_546
O4 Sr3 2.916126 1_555
O5 Ta1 2.018096 1_665
O5 Sr2 2.493251 1_555
O5 Sr0 2.645452 1_655
O5 Sr5 2.667428 1_654
O5 Sr4 2.916126 1_555
O6 Ta0 2.018096 1_555
O6 Sr0 2.493251 1_655
O6 Sr2 2.645452 1_555
O6 Sr3 2.667428 1_555
O6 Sr4 2.916126 1_555
O7 Ta0 2.018096 1_555
O7 Sr1 2.493251 1_565
O7 Sr0 2.645452 1_555
O7 Sr4 2.667428 1_555
O7 Sr5 2.916126 1_555
O8 Ta0 2.018096 1_555
O8 Sr2 2.493251 1_556
O8 Sr1 2.645452 1_555
O8 Sr5 2.667427 1_555
O8 Sr3 2.916126 1_555
O9 Ta1 2.018096 1_655
O9 Sr3 2.493251 1_555
O9 Sr4 2.645452 1_545
O9 Sr0 2.667427 1_645
O9 Sr2 2.916126 1_555
O10 Ta1 2.018096 1_565
O10 Sr4 2.493251 1_555
O10 Sr5 2.645452 1_554
O10 Sr1 2.667428 1_564
O10 Sr0 2.916126 1_555
O11 Ta1 2.018096 1_556
O11 Sr5 2.493251 1_555
O11 Sr3 2.645452 1_455
O11 Sr2 2.667428 1_456
O11 Sr1 2.916126 1_555
