# generated using pymatgen
data_Mn3Cu(Te2O5)4
_symmetry_space_group_name_H-M   'P 1'
_cell_length_a   8.93867700
_cell_length_b   8.93867700
_cell_length_c   13.03491100
_cell_angle_alpha   90.00000000
_cell_angle_beta   90.00000000
_cell_angle_gamma   90.00000000
_symmetry_Int_Tables_number   1
_chemical_formula_structural   Mn3Cu(Te2O5)4
_chemical_formula_sum   'Mn6 Cu2 Te16 O40'
_cell_volume   1041.48869167
_cell_formula_units_Z   2
loop_
 _symmetry_equiv_pos_site_id
 _symmetry_equiv_pos_as_xyz
  1  'x, y, z'
loop_
 _atom_site_type_symbol
 _atom_site_label
 _atom_site_symmetry_multiplicity
 _atom_site_fract_x
 _atom_site_fract_y
 _atom_site_fract_z
 _atom_site_occupancy
  Mn  Mn0  1  0.00000000  0.50000000  0.25148800  1
  Mn  Mn1  1  0.50000000  0.00000000  0.25148800  1
  Mn  Mn2  1  0.50000000  0.00000000  0.74851200  1
  Mn  Mn3  1  0.00000000  0.50000000  0.74851200  1
  Mn  Mn4  1  0.00000000  0.50000000  0.00000000  1
  Mn  Mn5  1  0.50000000  0.00000000  0.00000000  1
  Cu  Cu0  1  0.50000000  0.00000000  0.50000000  1
  Cu  Cu1  1  0.00000000  0.50000000  0.50000000  1
  Te  Te0  1  0.31380500  0.28735600  0.86538700  1
  Te  Te1  1  0.18619500  0.78735600  0.86538700  1
  Te  Te2  1  0.81380500  0.21264400  0.86538700  1
  Te  Te3  1  0.68619500  0.71264400  0.86538700  1
  Te  Te4  1  0.28414000  0.31923500  0.36863300  1
  Te  Te5  1  0.21586000  0.81923500  0.36863300  1
  Te  Te6  1  0.78414000  0.18076500  0.36863300  1
  Te  Te7  1  0.71586000  0.68076500  0.36863300  1
  Te  Te8  1  0.18076500  0.21586000  0.63136700  1
  Te  Te9  1  0.31923500  0.71586000  0.63136700  1
  Te  Te10  1  0.68076500  0.28414000  0.63136700  1
  Te  Te11  1  0.81923500  0.78414000  0.63136700  1
  Te  Te12  1  0.21264400  0.18619500  0.13461300  1
  Te  Te13  1  0.28735600  0.68619500  0.13461300  1
  Te  Te14  1  0.71264400  0.31380500  0.13461300  1
  Te  Te15  1  0.78735600  0.81380500  0.13461300  1
  O  O0  1  0.85249400  0.42128100  0.88209700  1
  O  O1  1  0.64750600  0.92128100  0.88209700  1
  O  O2  1  0.35249400  0.07871900  0.88209700  1
  O  O3  1  0.14750600  0.57871900  0.88209700  1
  O  O4  1  0.42403100  0.86558600  0.38847500  1
  O  O5  1  0.07596900  0.36558600  0.38847500  1
  O  O6  1  0.92403100  0.63441400  0.38847500  1
  O  O7  1  0.57596900  0.13441400  0.38847500  1
  O  O8  1  0.63441400  0.07596900  0.61152500  1
  O  O9  1  0.86558600  0.57596900  0.61152500  1
  O  O10  1  0.13441400  0.42403100  0.61152500  1
  O  O11  1  0.36558600  0.92403100  0.61152500  1
  O  O12  1  0.07871900  0.64750600  0.11790300  1
  O  O13  1  0.42128100  0.14750600  0.11790300  1
  O  O14  1  0.57871900  0.85249400  0.11790300  1
  O  O15  1  0.92128100  0.35249400  0.11790300  1
  O  O16  1  0.12323500  0.27544000  0.79642200  1
  O  O17  1  0.37676500  0.77544000  0.79642200  1
  O  O18  1  0.62323500  0.22456000  0.79642200  1
  O  O19  1  0.87676500  0.72456000  0.79642200  1
  O  O20  1  0.26615900  0.12942500  0.29940000  1
  O  O21  1  0.23384100  0.62942500  0.29940000  1
  O  O22  1  0.76615900  0.37057500  0.29940000  1
  O  O23  1  0.73384100  0.87057500  0.29940000  1
  O  O24  1  0.37057500  0.23384100  0.70060000  1
  O  O25  1  0.12942500  0.73384100  0.70060000  1
  O  O26  1  0.87057500  0.26615900  0.70060000  1
  O  O27  1  0.62942500  0.76615900  0.70060000  1
  O  O28  1  0.22456000  0.37676500  0.20357800  1
  O  O29  1  0.27544000  0.87676500  0.20357800  1
  O  O30  1  0.72456000  0.12323500  0.20357800  1
  O  O31  1  0.77544000  0.62323500  0.20357800  1
  O  O32  1  0.30364600  0.80364600  0.00000000  1
  O  O33  1  0.19635400  0.30364600  0.00000000  1
  O  O34  1  0.80364600  0.69635400  0.00000000  1
  O  O35  1  0.69635400  0.19635400  0.00000000  1
  O  O36  1  0.79654700  0.29654700  0.50000000  1
  O  O37  1  0.70345300  0.79654700  0.50000000  1
  O  O38  1  0.29654700  0.20345300  0.50000000  1
  O  O39  1  0.20345300  0.70345300  0.50000000  1
loop_
_geom_bond_atom_site_label_1
_geom_bond_atom_site_label_2
_geom_bond_distance
_geom_bond_site_symmetry_2
Mn0 O6 2.256790 1_455
Mn0 O5 2.256790 1_555
Mn0 O12 2.294689 1_555
Mn0 O15 2.294689 1_455
Mn0 O31 2.373302 1_455
Mn0 O28 2.373302 1_555
Mn0 O21 2.469309 1_555
Mn0 O22 2.469309 1_455
Mn1 O7 2.256790 1_555
Mn1 O4 2.256790 1_545
Mn1 O14 2.294689 1_545
Mn1 O13 2.294689 1_555
Mn1 O30 2.373302 1_555
Mn1 O29 2.373302 1_545
Mn1 O20 2.469309 1_555
Mn1 O23 2.469309 1_545
Mn2 O8 2.256790 1_555
Mn2 O11 2.256790 1_545
Mn2 O2 2.294689 1_555
Mn2 O1 2.294689 1_545
Mn2 O18 2.373302 1_555
Mn2 O17 2.373302 1_545
Mn2 O24 2.469309 1_555
Mn2 O27 2.469309 1_545
Mn3 O10 2.256790 1_555
Mn3 O9 2.256790 1_455
Mn3 O3 2.294689 1_555
Mn3 O0 2.294689 1_455
Mn3 O16 2.373302 1_555
Mn3 O19 2.373302 1_455
Mn3 O25 2.469309 1_555
Mn3 O26 2.469309 1_455
Mn4 O12 2.143712 1_555
Mn4 O15 2.143712 1_455
Mn4 O3 2.143712 1_554
Mn4 O0 2.143712 1_454
Mn4 O34 2.482150 1_455
Mn4 O33 2.482150 1_555
Mn5 O14 2.143712 1_545
Mn5 O13 2.143712 1_555
Mn5 O2 2.143712 1_554
Mn5 O1 2.143712 1_544
Mn5 O35 2.482150 1_555
Mn5 O32 2.482150 1_545
Cu0 O8 2.004491 1_555
Cu0 O11 2.004491 1_545
Cu0 O7 2.004491 1_555
Cu0 O4 2.004491 1_545
Cu0 O38 2.571890 1_555
Cu0 O37 2.571890 1_545
Cu1 O10 2.004491 1_555
Cu1 O9 2.004491 1_455
Cu1 O6 2.004491 1_455
Cu1 O5 2.004491 1_555
Cu1 O36 2.571890 1_455
Cu1 O39 2.571890 1_555
O0 Te2 1.909198 1_555
O1 Te3 1.909198 1_555
O2 Te0 1.909198 1_555
O3 Te1 1.909198 1_555
O4 Te5 1.923806 1_555
O5 Te4 1.923806 1_555
O6 Te7 1.923806 1_555
O7 Te6 1.923806 1_555
O8 Te10 1.923806 1_555
O9 Te11 1.923806 1_555
O10 Te8 1.923806 1_555
O11 Te9 1.923806 1_555
O12 Te13 1.909198 1_555
O13 Te12 1.909198 1_555
O14 Te15 1.909198 1_555
O15 Te14 1.909198 1_555
O16 Te0 1.929036 1_555
O16 Te8 2.275286 1_555
O17 Te1 1.929036 1_555
O17 Te9 2.275286 1_555
O18 Te2 1.929036 1_555
O18 Te10 2.275286 1_555
O19 Te3 1.929036 1_555
O19 Te11 2.275286 1_555
O20 Te4 1.928436 1_555
O20 Te12 2.258354 1_555
O21 Te5 1.928436 1_555
O21 Te13 2.258354 1_555
O22 Te6 1.928436 1_555
O22 Te14 2.258354 1_555
O23 Te7 1.928436 1_555
O23 Te15 2.258354 1_555
O24 Te8 1.928436 1_555
O24 Te0 2.258354 1_555
O25 Te9 1.928436 1_555
O25 Te1 2.258354 1_555
O26 Te10 1.928436 1_555
O26 Te2 2.258354 1_555
O27 Te11 1.928436 1_555
O27 Te3 2.258354 1_555
O28 Te12 1.929036 1_555
O28 Te4 2.275286 1_555
O29 Te13 1.929036 1_555
O29 Te5 2.275286 1_555
O30 Te14 1.929036 1_555
O30 Te6 2.275286 1_555
O31 Te15 1.929036 1_555
O31 Te7 2.275286 1_555
O32 Te13 2.049942 1_555
O32 Te1 2.049942 1_554
O33 Te12 2.049942 1_555
O33 Te0 2.049942 1_554
O34 Te15 2.049942 1_555
O34 Te3 2.049942 1_554
O35 Te14 2.049942 1_555
O35 Te2 2.049942 1_554
O36 Te10 2.003887 1_555
O36 Te6 2.003887 1_555
O37 Te11 2.003887 1_555
O37 Te7 2.003887 1_555
O38 Te4 2.003887 1_555
O38 Te8 2.003887 1_555
O39 Te5 2.003887 1_555
O39 Te9 2.003887 1_555
