# generated using pymatgen
data_Cs2CoAgF6
_symmetry_space_group_name_H-M   'P 1'
_cell_length_a   6.32573400
_cell_length_b   6.32573370
_cell_length_c   6.32573382
_cell_angle_alpha   59.99999956
_cell_angle_beta   59.99999905
_cell_angle_gamma   59.99999845
_symmetry_Int_Tables_number   1
_chemical_formula_structural   Cs2CoAgF6
_chemical_formula_sum   'Cs2 Co1 Ag1 F6'
_cell_volume   178.98545363
_cell_formula_units_Z   1
loop_
 _symmetry_equiv_pos_site_id
 _symmetry_equiv_pos_as_xyz
  1  'x, y, z'
loop_
 _atom_site_type_symbol
 _atom_site_label
 _atom_site_symmetry_multiplicity
 _atom_site_fract_x
 _atom_site_fract_y
 _atom_site_fract_z
 _atom_site_occupancy
  Cs  Cs0  1  0.25000000  0.25000000  0.25000000  1
  Cs  Cs1  1  0.75000000  0.75000000  0.75000000  1
  Co  Co0  1  0.00000000  0.00000000  0.00000000  1
  Ag  Ag0  1  0.50000000  0.50000000  0.50000000  1
  F  F0  1  0.22041800  0.77958200  0.22041800  1
  F  F1  1  0.77958200  0.77958200  0.22041800  1
  F  F2  1  0.77958200  0.22041800  0.77958200  1
  F  F3  1  0.77958200  0.22041800  0.22041800  1
  F  F4  1  0.22041800  0.77958200  0.77958200  1
  F  F5  1  0.22041800  0.22041800  0.77958200  1
loop_
_geom_bond_atom_site_label_1
_geom_bond_atom_site_label_2
_geom_bond_distance
_geom_bond_site_symmetry_2
Cs0 F0 3.173919 1_555
Cs0 F1 3.173919 1_455
Cs0 F4 3.173919 1_554
Cs0 F0 3.173919 1_545
Cs0 F1 3.173919 1_545
Cs0 F4 3.173919 1_545
Cs0 F2 3.173919 1_455
Cs0 F5 3.173919 1_555
Cs0 F5 3.173919 1_554
Cs0 F2 3.173919 1_554
Cs0 F3 3.173919 1_455
Cs0 F3 3.173919 1_555
Cs1 F2 3.173919 1_555
Cs1 F5 3.173919 1_655
Cs1 F3 3.173919 1_556
Cs1 F2 3.173919 1_565
Cs1 F5 3.173919 1_565
Cs1 F3 3.173919 1_565
Cs1 F1 3.173919 1_555
Cs1 F0 3.173919 1_655
Cs1 F1 3.173919 1_556
Cs1 F0 3.173919 1_556
Cs1 F4 3.173919 1_655
Cs1 F4 3.173919 1_555
Co0 F3 1.971846 1_455
Co0 F4 1.971846 1_544
Co0 F5 1.971846 1_554
Co0 F1 1.971846 1_445
Co0 F2 1.971846 1_454
Co0 F0 1.971846 1_545
Ag0 F3 2.501123 1_555
Ag0 F4 2.501123 1_555
Ag0 F0 2.501123 1_555
Ag0 F1 2.501123 1_555
Ag0 F5 2.501123 1_555
Ag0 F2 2.501123 1_555
