# generated using pymatgen
data_BaNiP2O7
_symmetry_space_group_name_H-M   'P 1'
_cell_length_a   8.80742484
_cell_length_b   9.22730807
_cell_length_c   9.49445240
_cell_angle_alpha   69.60950856
_cell_angle_beta   62.55525265
_cell_angle_gamma   98.14715794
_symmetry_Int_Tables_number   1
_chemical_formula_structural   BaNiP2O7
_chemical_formula_sum   'Ba4 Ni4 P8 O28'
_cell_volume   597.97280450
_cell_formula_units_Z   4
loop_
 _symmetry_equiv_pos_site_id
 _symmetry_equiv_pos_as_xyz
  1  'x, y, z'
loop_
 _atom_site_type_symbol
 _atom_site_label
 _atom_site_symmetry_multiplicity
 _atom_site_fract_x
 _atom_site_fract_y
 _atom_site_fract_z
 _atom_site_occupancy
  Ba  Ba0  1  0.27887000  0.82331500  0.24185100  1
  Ba  Ba1  1  0.27883600  0.32334400  0.74186100  1
  Ba  Ba2  1  0.72112400  0.67667600  0.25816100  1
  Ba  Ba3  1  0.72114300  0.17664300  0.75815900  1
  Ni  Ni0  1  0.87988300  0.98153000  0.42031000  1
  Ni  Ni1  1  0.12017300  0.51854300  0.07975600  1
  Ni  Ni2  1  0.87919300  0.48129300  0.92056000  1
  Ni  Ni3  1  0.12071300  0.01875400  0.57944700  1
  P  P0  1  0.77021700  0.08980300  0.12834200  1
  P  P1  1  0.77025100  0.58999100  0.62831400  1
  P  P2  1  0.22982300  0.41016800  0.37166400  1
  P  P3  1  0.22972900  0.91001600  0.87166800  1
  P  P4  1  0.69750300  0.25268000  0.34903600  1
  P  P5  1  0.69768900  0.75301200  0.84887800  1
  P  P6  1  0.30256900  0.24732400  0.15093100  1
  P  P7  1  0.30223200  0.74698200  0.65112100  1
  O  O0  1  0.65186400  0.96641500  0.11335400  1
  O  O1  1  0.65199100  0.46672100  0.61313200  1
  O  O2  1  0.34813500  0.53353900  0.38668800  1
  O  O3  1  0.34795300  0.03324600  0.88691600  1
  O  O4  1  0.88163100  0.51307500  0.69749600  1
  O  O5  1  0.88179200  0.01306400  0.19740800  1
  O  O6  1  0.11836300  0.98693900  0.80249200  1
  O  O7  1  0.11833000  0.48693000  0.30253500  1
  O  O8  1  0.22074200  0.84012800  0.55242700  1
  O  O9  1  0.22073000  0.34015500  0.05246000  1
  O  O10  1  0.77925200  0.65991400  0.94752400  1
  O  O11  1  0.77929300  0.15983200  0.44754600  1
  O  O12  1  0.89225700  0.25331000  0.94867100  1
  O  O13  1  0.89238200  0.75349800  0.44870200  1
  O  O14  1  0.10773100  0.24667700  0.55133900  1
  O  O15  1  0.10754500  0.74651000  0.05125600  1
  O  O16  1  0.84953200  0.41719900  0.17334600  1
  O  O17  1  0.84991900  0.91745700  0.67320100  1
  O  O18  1  0.15053800  0.08280500  0.32664400  1
  O  O19  1  0.15000900  0.58256600  0.82682600  1
  O  O20  1  0.63157900  0.13812400  0.27563000  1
  O  O21  1  0.63176300  0.63850800  0.77545400  1
  O  O22  1  0.36849600  0.36189300  0.22436500  1
  O  O23  1  0.36822100  0.86148200  0.72453900  1
  O  O24  1  0.46559200  0.21368500  0.03744000  1
  O  O25  1  0.46504900  0.71312100  0.53765100  1
  O  O26  1  0.53456500  0.28634600  0.46256200  1
  O  O27  1  0.53479700  0.78678600  0.96233500  1
loop_
_geom_bond_atom_site_label_1
_geom_bond_atom_site_label_2
_geom_bond_distance
_geom_bond_site_symmetry_2
Ba0 O27 2.749895 1_554
Ba0 O8 2.816206 1_555
Ba0 O0 2.824452 1_555
Ba0 O2 2.843603 1_555
Ba0 O13 2.862440 1_455
Ba0 O3 2.950586 1_564
Ba0 O7 2.953729 1_555
Ba0 O18 2.988361 1_565
Ba0 O15 3.026768 1_555
Ba0 O24 3.154924 1_565
Ba1 O26 2.750404 1_555
Ba1 O9 2.816469 1_556
Ba1 O1 2.825527 1_555
Ba1 O3 2.845770 1_555
Ba1 O12 2.862726 1_455
Ba1 O2 2.952208 1_555
Ba1 O6 2.953953 1_545
Ba1 O19 2.988231 1_555
Ba1 O14 3.024229 1_555
Ba1 O25 3.149958 1_555
Ba2 O25 2.749806 1_555
Ba2 O10 2.816565 1_554
Ba2 O2 2.824389 1_555
Ba2 O0 2.843231 1_555
Ba2 O15 2.861946 1_655
Ba2 O1 2.950734 1_555
Ba2 O5 2.953768 1_565
Ba2 O16 2.988571 1_555
Ba2 O13 3.025923 1_555
Ba2 O26 3.154502 1_555
Ba3 O24 2.749916 1_556
Ba3 O11 2.816486 1_555
Ba3 O3 2.825761 1_555
Ba3 O1 2.845730 1_555
Ba3 O14 2.862798 1_655
Ba3 O0 2.952522 1_546
Ba3 O4 2.954094 1_555
Ba3 O17 2.987725 1_545
Ba3 O12 3.024202 1_555
Ba3 O27 3.150683 1_545
Ni0 O11 2.014202 1_565
Ni0 O5 2.024973 1_565
Ni0 O18 2.044979 1_665
Ni0 O13 2.051798 1_555
Ni0 O17 2.137001 1_555
Ni1 O9 2.014911 1_555
Ni1 O7 2.023942 1_555
Ni1 O16 2.045146 1_455
Ni1 O15 2.051295 1_555
Ni1 O19 2.137911 1_554
Ni2 O10 2.013547 1_555
Ni2 O4 2.023694 1_555
Ni2 O19 2.046084 1_655
Ni2 O12 2.053183 1_555
Ni2 O16 2.137167 1_556
Ni3 O8 2.014085 1_545
Ni3 O6 2.023830 1_545
Ni3 O17 2.045891 1_445
Ni3 O14 2.052454 1_555
Ni3 O18 2.136748 1_555
O0 P0 1.521954 1_565
O1 P1 1.521935 1_555
O2 P2 1.521851 1_555
O3 P3 1.521905 1_545
O4 P1 1.537496 1_555
O5 P0 1.537767 1_555
O6 P3 1.537379 1_555
O7 P2 1.537538 1_555
O8 P7 1.538001 1_555
O9 P6 1.538013 1_555
O10 P5 1.538063 1_555
O11 P4 1.537953 1_555
O12 P0 1.548664 1_556
O13 P1 1.548455 1_555
O14 P2 1.548630 1_555
O15 P3 1.548373 1_554
O16 P4 1.574921 1_555
O17 P5 1.574956 1_555
O18 P6 1.574997 1_555
O19 P7 1.574904 1_555
O20 P4 1.628687 1_555
O20 P0 1.630995 1_555
O21 P5 1.628476 1_555
O21 P1 1.630850 1_555
O22 P6 1.629006 1_555
O22 P2 1.630891 1_555
O23 P7 1.628658 1_555
O23 P3 1.630907 1_555
O24 P6 1.500746 1_555
O25 P7 1.500704 1_555
O26 P4 1.500520 1_555
O27 P5 1.500617 1_555
