# generated using pymatgen
data_Tm6Mn23
_symmetry_space_group_name_H-M   'P 1'
_cell_length_a   8.41686172
_cell_length_b   8.41686172
_cell_length_c   8.41686172
_cell_angle_alpha   60.00000000
_cell_angle_beta   60.00000000
_cell_angle_gamma   60.00000000
_symmetry_Int_Tables_number   1
_chemical_formula_structural   Tm6Mn23
_chemical_formula_sum   'Tm6 Mn23'
_cell_volume   421.63395600
_cell_formula_units_Z   1
loop_
 _symmetry_equiv_pos_site_id
 _symmetry_equiv_pos_as_xyz
  1  'x, y, z'
loop_
 _atom_site_type_symbol
 _atom_site_label
 _atom_site_symmetry_multiplicity
 _atom_site_fract_x
 _atom_site_fract_y
 _atom_site_fract_z
 _atom_site_occupancy
  Tm  Tm0  1  0.70437100  0.70437100  0.29562900  1
  Tm  Tm1  1  0.29562900  0.70437100  0.29562900  1
  Tm  Tm2  1  0.70437100  0.29562900  0.29562900  1
  Tm  Tm3  1  0.29562900  0.29562900  0.70437100  1
  Tm  Tm4  1  0.70437100  0.29562900  0.70437100  1
  Tm  Tm5  1  0.29562900  0.70437100  0.70437100  1
  Mn  Mn0  1  0.00000000  0.00000000  0.00000000  1
  Mn  Mn1  1  0.00000000  0.00000000  0.50000000  1
  Mn  Mn2  1  0.50000000  0.00000000  0.50000000  1
  Mn  Mn3  1  0.00000000  0.50000000  0.50000000  1
  Mn  Mn4  1  0.50000000  0.50000000  0.00000000  1
  Mn  Mn5  1  0.00000000  0.50000000  0.00000000  1
  Mn  Mn6  1  0.50000000  0.00000000  0.00000000  1
  Mn  Mn7  1  0.87871100  0.87871100  0.36386700  1
  Mn  Mn8  1  0.87871100  0.36386700  0.87871100  1
  Mn  Mn9  1  0.36386700  0.87871100  0.87871100  1
  Mn  Mn10  1  0.87871100  0.87871100  0.87871100  1
  Mn  Mn11  1  0.12128900  0.12128900  0.63613300  1
  Mn  Mn12  1  0.12128900  0.63613300  0.12128900  1
  Mn  Mn13  1  0.63613300  0.12128900  0.12128900  1
  Mn  Mn14  1  0.12128900  0.12128900  0.12128900  1
  Mn  Mn15  1  0.67681100  0.67681100  0.96956800  1
  Mn  Mn16  1  0.67681100  0.96956800  0.67681100  1
  Mn  Mn17  1  0.96956800  0.67681100  0.67681100  1
  Mn  Mn18  1  0.67681100  0.67681100  0.67681100  1
  Mn  Mn19  1  0.32318900  0.32318900  0.03043200  1
  Mn  Mn20  1  0.32318900  0.03043200  0.32318900  1
  Mn  Mn21  1  0.03043200  0.32318900  0.32318900  1
  Mn  Mn22  1  0.32318900  0.32318900  0.32318900  1
loop_
_geom_bond_atom_site_label_1
_geom_bond_atom_site_label_2
_geom_bond_distance
_geom_bond_site_symmetry_2
Tm0 Tm2 3.440325 1_555
Tm0 Tm1 3.440325 1_555
Tm0 Tm5 3.440325 1_555
Tm0 Tm4 3.440325 1_555
Tm1 Tm2 3.440325 1_555
Tm1 Tm3 3.440325 1_555
Tm1 Tm5 3.440325 1_555
Tm2 Tm3 3.440325 1_555
Tm2 Tm4 3.440325 1_555
Tm3 Tm4 3.440325 1_555
Tm3 Tm5 3.440325 1_555
Tm4 Tm5 3.440325 1_555
Mn0 Mn14 2.500617 1_555
Mn0 Mn8 2.500617 1_454
Mn0 Mn7 2.500617 1_445
Mn0 Mn9 2.500617 1_544
Mn0 Mn12 2.500617 1_545
Mn0 Mn13 2.500617 1_455
Mn0 Mn11 2.500617 1_554
Mn0 Mn10 2.500617 1_444
Mn1 Mn20 2.438720 1_555
Mn1 Mn21 2.438720 1_555
Mn1 Mn16 2.438720 1_445
Mn1 Mn17 2.438720 1_445
Mn1 Mn10 2.603630 1_445
Mn1 Mn11 2.603630 1_555
Mn1 Mn14 2.603630 1_555
Mn1 Mn7 2.603630 1_445
Mn1 Tm5 3.024969 1_545
Mn1 Tm4 3.024969 1_455
Mn1 Tm1 3.024969 1_545
Mn1 Tm2 3.024969 1_455
Mn2 Mn22 2.438723 1_555
Mn2 Mn20 2.438728 1_555
Mn2 Mn7 2.603630 1_545
Mn2 Mn9 2.603630 1_545
Mn2 Tm3 3.024969 1_555
Mn2 Tm2 3.024969 1_555
Mn2 Tm5 3.024969 1_545
Mn2 Tm0 3.024969 1_545
Mn3 Mn8 2.603630 1_455
Mn3 Mn7 2.603630 1_455
Mn3 Tm1 3.024969 1_555
Mn3 Tm3 3.024969 1_555
Mn3 Tm4 3.024969 1_455
Mn3 Tm0 3.024969 1_455
Mn4 Mn9 2.603630 1_554
Mn4 Mn8 2.603630 1_554
Mn4 Tm1 3.024969 1_555
Mn4 Tm2 3.024969 1_555
Mn4 Tm5 3.024969 1_554
Mn4 Tm4 3.024969 1_554
Mn5 Mn8 2.603630 1_454
Mn5 Tm5 3.024969 1_554
Mn5 Tm0 3.024969 1_455
Mn5 Tm3 3.024969 1_554
Mn5 Tm2 3.024969 1_455
Mn6 Mn9 2.603630 1_544
Mn6 Tm4 3.024969 1_554
Mn6 Tm0 3.024969 1_545
Mn6 Tm1 3.024969 1_545
Mn6 Tm3 3.024969 1_554
Mn7 Tm0 2.911224 1_555
Mn7 Tm1 2.911224 1_655
Mn7 Tm2 2.911224 1_565
Mn8 Tm4 2.911224 1_555
Mn8 Tm3 2.911224 1_655
Mn8 Tm2 2.911224 1_556
Mn9 Tm5 2.911224 1_555
Mn9 Tm3 2.911224 1_565
Mn9 Tm1 2.911224 1_556
Mn10 Mn15 2.578608 1_555
Mn10 Mn17 2.578608 1_555
Mn10 Mn16 2.578608 1_555
Mn10 Mn5 2.603630 1_656
Mn10 Mn6 2.603630 1_566
Mn10 Mn11 2.887464 1_665
Mn10 Mn13 2.887464 1_566
Mn10 Mn12 2.887464 1_656
Mn10 Tm5 2.911224 1_655
Mn10 Tm4 2.911224 1_565
Mn10 Tm0 2.911224 1_556
Mn11 Mn22 2.578611 1_555
Mn11 Mn21 2.578615 1_555
Mn11 Mn20 2.578615 1_555
Mn11 Mn2 2.603630 1_555
Mn11 Mn3 2.603630 1_555
Mn11 Mn8 2.887464 1_455
Mn11 Mn9 2.887464 1_545
Mn11 Tm5 2.911224 1_545
Mn11 Tm4 2.911224 1_455
Mn11 Tm3 2.911224 1_555
Mn12 Mn22 2.578611 1_555
Mn12 Mn19 2.578615 1_555
Mn12 Mn21 2.578615 1_555
Mn12 Mn5 2.603630 1_555
Mn12 Mn4 2.603630 1_555
Mn12 Mn3 2.603630 1_555
Mn12 Mn9 2.887464 1_554
Mn12 Mn7 2.887464 1_455
Mn12 Tm5 2.911224 1_554
Mn12 Tm1 2.911224 1_555
Mn12 Tm0 2.911224 1_455
Mn13 Mn22 2.578611 1_555
Mn13 Mn19 2.578615 1_555
Mn13 Mn20 2.578615 1_555
Mn13 Mn6 2.603630 1_555
Mn13 Mn4 2.603630 1_555
Mn13 Mn2 2.603630 1_555
Mn13 Mn7 2.887464 1_545
Mn13 Mn8 2.887464 1_554
Mn13 Tm2 2.911224 1_555
Mn13 Tm4 2.911224 1_554
Mn13 Tm0 2.911224 1_545
Mn14 Mn21 2.578608 1_555
Mn14 Mn20 2.578608 1_555
Mn14 Mn19 2.578608 1_555
Mn14 Mn6 2.603630 1_555
Mn14 Mn5 2.603630 1_555
Mn14 Mn7 2.887464 1_445
Mn14 Mn8 2.887464 1_454
Mn14 Mn9 2.887464 1_544
Mn14 Tm3 2.911224 1_554
Mn14 Tm2 2.911224 1_455
Mn14 Tm1 2.911224 1_545
Mn15 Mn5 2.438720 1_656
Mn15 Mn6 2.438720 1_566
Mn15 Mn4 2.438728 1_556
Mn15 Mn16 2.464095 1_555
Mn15 Mn17 2.464095 1_555
Mn15 Mn18 2.464095 1_555
Mn15 Mn8 2.578615 1_555
Mn15 Mn9 2.578615 1_555
Mn15 Tm0 2.994403 1_556
Mn15 Tm1 2.994408 1_556
Mn15 Tm2 2.994408 1_556
Mn16 Mn6 2.438720 1_566
Mn16 Mn2 2.438728 1_565
Mn16 Mn17 2.464095 1_555
Mn16 Mn18 2.464095 1_555
Mn16 Mn7 2.578615 1_555
Mn16 Mn9 2.578615 1_555
Mn16 Tm4 2.994403 1_565
Mn16 Tm2 2.994408 1_565
Mn16 Tm3 2.994408 1_565
Mn17 Mn5 2.438720 1_656
Mn17 Mn3 2.438728 1_655
Mn17 Mn18 2.464095 1_555
Mn17 Mn7 2.578615 1_555
Mn17 Mn8 2.578615 1_555
Mn17 Tm5 2.994403 1_655
Mn17 Tm1 2.994408 1_655
Mn17 Tm3 2.994408 1_655
Mn18 Mn2 2.438723 1_565
Mn18 Mn4 2.438723 1_556
Mn18 Mn3 2.438723 1_655
Mn18 Mn9 2.578611 1_555
Mn18 Mn7 2.578611 1_555
Mn18 Mn8 2.578611 1_555
Mn18 Tm5 2.994412 1_555
Mn18 Tm4 2.994412 1_555
Mn18 Tm0 2.994412 1_555
Mn19 Mn5 2.438720 1_555
Mn19 Mn6 2.438720 1_555
Mn19 Mn4 2.438728 1_555
Mn19 Mn21 2.464095 1_555
Mn19 Mn22 2.464095 1_555
Mn19 Mn20 2.464095 1_555
Mn19 Tm3 2.994403 1_554
Mn19 Tm4 2.994408 1_554
Mn19 Tm5 2.994408 1_554
Mn20 Mn6 2.438720 1_555
Mn20 Mn21 2.464095 1_555
Mn20 Mn22 2.464095 1_555
Mn20 Tm1 2.994403 1_545
Mn20 Tm5 2.994408 1_545
Mn20 Tm0 2.994408 1_545
Mn21 Mn5 2.438720 1_555
Mn21 Mn3 2.438728 1_555
Mn21 Mn22 2.464095 1_555
Mn21 Tm2 2.994403 1_455
Mn21 Tm0 2.994408 1_455
Mn21 Tm4 2.994408 1_455
Mn22 Mn3 2.438723 1_555
Mn22 Mn4 2.438723 1_555
Mn22 Tm2 2.994412 1_555
Mn22 Tm3 2.994412 1_555
Mn22 Tm1 2.994412 1_555
