# generated using pymatgen
data_LiScH2Se2O7
_symmetry_space_group_name_H-M   'P 1'
_cell_length_a   5.60825876
_cell_length_b   16.04368120
_cell_length_c   17.57084866
_cell_angle_alpha   116.51813296
_cell_angle_beta   90.00000000
_cell_angle_gamma   90.00000000
_symmetry_Int_Tables_number   1
_chemical_formula_structural   LiScH2Se2O7
_chemical_formula_sum   'Li8 Sc8 H16 Se16 O56'
_cell_volume   1414.64488509
_cell_formula_units_Z   8
loop_
 _symmetry_equiv_pos_site_id
 _symmetry_equiv_pos_as_xyz
  1  'x, y, z'
loop_
 _atom_site_type_symbol
 _atom_site_label
 _atom_site_symmetry_multiplicity
 _atom_site_fract_x
 _atom_site_fract_y
 _atom_site_fract_z
 _atom_site_occupancy
  Li  Li0  1  0.30735802  0.82585997  0.78280700  1
  Li  Li1  1  0.30735802  0.67414003  0.21719300  1
  Li  Li2  1  0.69264198  0.17414003  0.21719300  1
  Li  Li3  1  0.69264198  0.32585997  0.78280700  1
  Li  Li4  1  0.18489029  0.44988176  0.81213458  1
  Li  Li5  1  0.18489029  0.05011824  0.18786542  1
  Li  Li6  1  0.81510971  0.55011824  0.18786542  1
  Li  Li7  1  0.81510971  0.94988176  0.81213458  1
  Sc  Sc0  1  0.43402500  0.75000000  0.50000000  1
  Sc  Sc1  1  0.56597500  0.25000000  0.50000000  1
  Sc  Sc2  1  0.99880623  0.62779215  0.75626921  1
  Sc  Sc3  1  0.99880623  0.87220785  0.24373079  1
  Sc  Sc4  1  0.00119377  0.37220785  0.24373079  1
  Sc  Sc5  1  0.00119377  0.12779215  0.75626921  1
  Sc  Sc6  1  0.50000000  0.50000000  -0.00000000  1
  Sc  Sc7  1  0.50000000  0.00000000  -0.00000000  1
  H  H0  1  0.92787383  0.34400145  0.67607493  1
  H  H1  1  0.92787383  0.15599855  0.32392507  1
  H  H2  1  0.07212617  0.65599855  0.32392507  1
  H  H3  1  0.07212617  0.84400145  0.67607493  1
  H  H4  1  0.08742834  0.28674773  0.71009541  1
  H  H5  1  0.08742834  0.21325227  0.28990459  1
  H  H6  1  0.91257166  0.71325227  0.28990459  1
  H  H7  1  0.91257166  0.78674773  0.71009541  1
  H  H8  1  0.57998294  0.45842978  0.75415211  1
  H  H9  1  0.57998294  0.04157022  0.24584789  1
  H  H10  1  0.42001706  0.54157022  0.24584789  1
  H  H11  1  0.42001706  0.95842978  0.75415211  1
  H  H12  1  0.43032976  0.37605302  0.68551946  1
  H  H13  1  0.43032976  0.12394698  0.31448054  1
  H  H14  1  0.56967024  0.62394698  0.31448054  1
  H  H15  1  0.56967024  0.87605302  0.68551946  1
  Se  Se0  1  0.50047420  0.63184207  0.64140180  1
  Se  Se1  1  0.50047420  0.86815793  0.35859820  1
  Se  Se2  1  0.49952580  0.36815793  0.35859820  1
  Se  Se3  1  0.49952580  0.13184207  0.64140180  1
  Se  Se4  1  0.06611973  0.40129582  0.56029137  1
  Se  Se5  1  0.06611973  0.09870418  0.43970863  1
  Se  Se6  1  0.93388027  0.59870418  0.43970863  1
  Se  Se7  1  0.93388027  0.90129582  0.56029137  1
  Se  Se8  1  0.00203497  0.86614648  0.94161299  1
  Se  Se9  1  0.00203497  0.63385352  0.05838701  1
  Se  Se10  1  0.99796503  0.13385352  0.05838701  1
  Se  Se11  1  0.99796503  0.36614648  0.94161299  1
  Se  Se12  1  0.49432680  0.63512023  0.87419853  1
  Se  Se13  1  0.49432680  0.86487977  0.12580147  1
  Se  Se14  1  0.50567320  0.36487977  0.12580147  1
  Se  Se15  1  0.50567320  0.13512023  0.87419853  1
  O  O0  1  0.43833748  0.69237423  0.58500461  1
  O  O1  1  0.43833748  0.80762577  0.41499539  1
  O  O2  1  0.56166252  0.30762577  0.41499539  1
  O  O3  1  0.56166252  0.19237423  0.58500461  1
  O  O4  1  0.31059566  0.34777426  0.57880828  1
  O  O5  1  0.31059566  0.15222574  0.42119172  1
  O  O6  1  0.68940434  0.65222574  0.42119172  1
  O  O7  1  0.68940434  0.84777426  0.57880828  1
  O  O8  1  0.83640826  0.34202614  0.57984979  1
  O  O9  1  0.83640826  0.15797386  0.42015021  1
  O  O10  1  0.16359174  0.65797386  0.42015021  1
  O  O11  1  0.16359174  0.84202614  0.57984979  1
  O  O12  1  0.06067136  0.50375121  0.65188122  1
  O  O13  1  0.06067136  0.99624879  0.34811878  1
  O  O14  1  0.93932864  0.49624879  0.34811878  1
  O  O15  1  0.93932864  0.00375121  0.65188122  1
  O  O16  1  0.95132098  0.75862968  0.85988935  1
  O  O17  1  0.95132098  0.74137032  0.14011065  1
  O  O18  1  0.04867902  0.24137032  0.14011065  1
  O  O19  1  0.04867902  0.25862968  0.85988935  1
  O  O20  1  0.69475154  0.57285323  0.79265319  1
  O  O21  1  0.69475154  0.92714677  0.20734681  1
  O  O22  1  0.30524846  0.42714677  0.20734681  1
  O  O23  1  0.30524846  0.07285323  0.79265319  1
  O  O24  1  0.77480243  0.67673607  0.68549131  1
  O  O25  1  0.77480243  0.82326393  0.31450869  1
  O  O26  1  0.22519757  0.32326393  0.31450869  1
  O  O27  1  0.22519757  0.17673607  0.68549131  1
  O  O28  1  0.31203380  0.68718989  0.72871750  1
  O  O29  1  0.31203380  0.81281011  0.27128250  1
  O  O30  1  0.68796620  0.31281011  0.27128250  1
  O  O31  1  0.68796620  0.18718989  0.72871750  1
  O  O32  1  0.22397576  0.58309769  0.83076364  1
  O  O33  1  0.22397576  0.91690231  0.16923636  1
  O  O34  1  0.77602424  0.41690231  0.16923636  1
  O  O35  1  0.77602424  0.08309769  0.83076364  1
  O  O36  1  0.54523959  0.58657695  0.94188732  1
  O  O37  1  0.54523959  0.91342305  0.05811268  1
  O  O38  1  0.45476041  0.41342305  0.05811268  1
  O  O39  1  0.45476041  0.08657695  0.94188732  1
  O  O40  1  0.79879993  0.93573058  0.92007864  1
  O  O41  1  0.79879993  0.56426942  0.07992136  1
  O  O42  1  0.20120007  0.06426942  0.07992136  1
  O  O43  1  0.20120007  0.43573058  0.92007864  1
  O  O44  1  0.26430761  0.89713253  0.90832966  1
  O  O45  1  0.26430761  0.60286747  0.09167034  1
  O  O46  1  0.73569239  0.10286747  0.09167034  1
  O  O47  1  0.73569239  0.39713253  0.90832966  1
  O  O48  1  0.98989381  0.34431810  0.72939214  1
  O  O49  1  0.98989381  0.15568190  0.27060786  1
  O  O50  1  0.01010619  0.65568190  0.27060786  1
  O  O51  1  0.01010619  0.84431810  0.72939214  1
  O  O52  1  0.48909061  0.40120781  0.74477162  1
  O  O53  1  0.48909061  0.09879219  0.25522838  1
  O  O54  1  0.51090939  0.59879219  0.25522838  1
  O  O55  1  0.51090939  0.90120781  0.74477162  1
loop_
_geom_bond_atom_site_label_1
_geom_bond_atom_site_label_2
_geom_bond_distance
_geom_bond_site_symmetry_2
Li0 O55 1.983073 1_555
Li0 O28 1.991352 1_555
Li0 O44 1.994543 1_555
Li0 O51 1.998964 1_555
Li1 O54 1.983073 1_555
Li1 O29 1.991352 1_555
Li1 O45 1.994543 1_555
Li1 O50 1.998964 1_555
Li2 O53 1.983073 1_555
Li2 O30 1.991352 1_555
Li2 O46 1.994543 1_555
Li2 O49 1.998964 1_555
Li3 O52 1.983073 1_555
Li3 O31 1.991352 1_555
Li3 O47 1.994543 1_555
Li3 O48 1.998964 1_555
Li4 O48 1.994814 1_455
Li4 O43 2.010420 1_555
Li4 O52 2.023850 1_555
Li4 O32 2.024457 1_555
Li5 O49 1.994814 1_455
Li5 O42 2.010420 1_555
Li5 O53 2.023850 1_555
Li5 O33 2.024457 1_545
Li6 O50 1.994814 1_655
Li6 O41 2.010420 1_555
Li6 O54 2.023850 1_555
Li6 O34 2.024457 1_555
Li7 O51 1.994814 1_655
Li7 O40 2.010420 1_555
Li7 O55 2.023850 1_555
Li7 O35 2.024457 1_565
H0 O48 0.997199 1_555
H0 O8 1.753553 1_555
H1 O49 0.997199 1_555
H1 O9 1.753553 1_555
H2 O50 0.997199 1_555
H2 O10 1.753553 1_555
H3 O51 0.997199 1_555
H3 O11 1.753553 1_555
H4 O48 0.993797 1_455
H5 O49 0.993797 1_455
H6 O50 0.993797 1_655
H7 O51 0.993797 1_655
H8 O52 0.997350 1_555
H9 O53 0.997350 1_555
H10 O54 0.997350 1_555
H11 O55 0.997350 1_555
H12 O52 0.990047 1_555
H13 O53 0.990047 1_555
H14 O54 0.990047 1_555
H15 O55 0.990047 1_555
O0 Se0 1.704675 1_555
O0 Sc0 2.078284 1_555
O1 Se1 1.704675 1_555
O1 Sc0 2.078284 1_555
O2 Se2 1.704675 1_555
O2 Sc1 2.078284 1_555
O3 Se3 1.704675 1_555
O3 Sc1 2.078284 1_555
O4 Se4 1.724106 1_555
O4 Sc1 2.118913 1_555
O5 Se5 1.724106 1_555
O5 Sc1 2.118913 1_555
O6 Se6 1.724106 1_555
O6 Sc0 2.118913 1_555
O7 Se7 1.724106 1_555
O7 Sc0 2.118913 1_555
O8 Se4 1.724470 1_655
O8 Sc1 2.144495 1_555
O9 Se5 1.724470 1_655
O9 Sc1 2.144495 1_555
O10 Se6 1.724470 1_455
O10 Sc0 2.144495 1_555
O11 Se7 1.724470 1_455
O11 Sc0 2.144495 1_555
O12 Se4 1.711898 1_555
O12 Sc2 2.045861 1_455
O13 Se5 1.711898 1_565
O13 Sc3 2.045861 1_455
O14 Se6 1.711898 1_555
O14 Sc4 2.045861 1_655
O15 Se7 1.711898 1_545
O15 Sc5 2.045861 1_655
O16 Se8 1.704852 1_655
O16 Sc2 2.092694 1_555
O17 Se9 1.704852 1_655
O17 Sc3 2.092694 1_555
O18 Se10 1.704852 1_455
O18 Sc4 2.092694 1_555
O19 Se11 1.704852 1_455
O19 Sc5 2.092694 1_555
O20 Se12 1.742483 1_555
O20 Sc2 2.143956 1_555
O21 Se13 1.742483 1_555
O21 Sc3 2.143956 1_555
O22 Se14 1.742483 1_555
O22 Sc4 2.143956 1_555
O23 Se15 1.742483 1_555
O23 Sc5 2.143956 1_555
O24 Se0 1.728486 1_555
O24 Sc2 2.147894 1_555
O25 Se1 1.728486 1_555
O25 Sc3 2.147894 1_555
O26 Se2 1.728486 1_555
O26 Sc4 2.147894 1_555
O27 Se3 1.728486 1_555
O27 Sc5 2.147894 1_555
O28 Se0 1.744323 1_555
O28 Sc2 2.154136 1_455
O29 Se1 1.744323 1_555
O29 Sc3 2.154136 1_455
O30 Se2 1.744323 1_555
O30 Sc4 2.154136 1_655
O31 Se3 1.744323 1_555
O31 Sc5 2.154136 1_655
O32 Se12 1.734683 1_555
O32 Sc2 2.158770 1_455
O33 Se13 1.734683 1_555
O33 Sc3 2.158770 1_455
O34 Se14 1.734683 1_555
O34 Sc4 2.158770 1_655
O35 Se15 1.734683 1_555
O35 Sc5 2.158770 1_655
O36 Se12 1.711655 1_555
O36 Sc6 2.074330 1_556
O37 Se13 1.711655 1_555
O37 Sc7 2.074330 1_565
O38 Se14 1.711655 1_555
O38 Sc6 2.074330 1_555
O39 Se15 1.711655 1_555
O39 Sc7 2.074330 1_556
O40 Se8 1.750947 1_655
O40 Sc7 2.133157 1_566
O41 Se9 1.750947 1_655
O41 Sc6 2.133157 1_555
O42 Se10 1.750947 1_455
O42 Sc7 2.133157 1_555
O43 Se11 1.750947 1_455
O43 Sc6 2.133157 1_556
O44 Se8 1.735594 1_555
O44 Sc7 2.166016 1_566
O45 Se9 1.735594 1_555
O45 Sc6 2.166016 1_555
O46 Se10 1.735594 1_555
O46 Sc7 2.166016 1_555
O47 Se11 1.735594 1_555
O47 Sc6 2.166016 1_556
