# generated using pymatgen
data_TeMoWSeS2
_symmetry_space_group_name_H-M   'P 1'
_cell_length_a   3.30898742
_cell_length_b   3.30898742
_cell_length_c   37.66290300
_cell_angle_alpha   90.00000000
_cell_angle_beta   90.00000000
_cell_angle_gamma   119.99998842
_symmetry_Int_Tables_number   1
_chemical_formula_structural   TeMoWSeS2
_chemical_formula_sum   'Te2 Mo2 W2 Se2 S4'
_cell_volume   357.13688512
_cell_formula_units_Z   2
loop_
 _symmetry_equiv_pos_site_id
 _symmetry_equiv_pos_as_xyz
  1  'x, y, z'
loop_
 _atom_site_type_symbol
 _atom_site_label
 _atom_site_symmetry_multiplicity
 _atom_site_fract_x
 _atom_site_fract_y
 _atom_site_fract_z
 _atom_site_occupancy
  Te  Te0  1  0.33333300  0.66666700  0.41867500  1
  Te  Te1  1  0.33333300  0.66666700  0.52069600  1
  Mo  Mo0  1  0.00000000  0.00000000  0.09393400  1
  Mo  Mo1  1  0.33333300  0.66666700  0.28174800  1
  W  W0  1  0.00000000  0.00000000  0.46966000  1
  W  W1  1  0.33333300  0.66666700  0.65754800  1
  Se  Se0  1  0.00000000  0.00000000  0.32628800  1
  Se  Se1  1  0.00000000  0.00000000  0.23723900  1
  S  S0  1  0.00000000  0.00000000  0.69826300  1
  S  S1  1  0.33333300  0.66666700  0.05331100  1
  S  S2  1  0.33333300  0.66666700  0.13455300  1
  S  S3  1  0.00000000  0.00000000  0.61683100  1
loop_
_geom_bond_atom_site_label_1
_geom_bond_atom_site_label_2
_geom_bond_distance
_geom_bond_site_symmetry_2
Te0 W0 2.708713 1_565
Te0 W0 2.708715 1_665
Te0 W0 2.708715 1_555
Te1 W0 2.710075 1_565
Te1 W0 2.710077 1_665
Te1 W0 2.710077 1_555
Mo0 S2 2.447482 1_545
Mo0 S2 2.447485 1_555
Mo0 S2 2.447485 1_445
Mo0 S1 2.447576 1_545
Mo0 S1 2.447579 1_445
Mo0 S1 2.447579 1_555
Mo1 Se1 2.541634 1_565
Mo1 Se1 2.541636 1_555
Mo1 Se1 2.541636 1_665
Mo1 Se0 2.542404 1_565
Mo1 Se0 2.542406 1_665
Mo1 Se0 2.542406 1_555
S0 W1 2.449744 1_545
S0 W1 2.449746 1_445
S0 W1 2.449746 1_555
S3 W1 2.449791 1_545
S3 W1 2.449794 1_445
S3 W1 2.449794 1_555
