# generated using pymatgen
data_Sm6Mn(SiS7)2
_symmetry_space_group_name_H-M   'P 1'
_cell_length_a   10.10873945
_cell_length_b   10.10873945
_cell_length_c   5.68307400
_cell_angle_alpha   90.00000000
_cell_angle_beta   90.00000000
_cell_angle_gamma   119.99999637
_symmetry_Int_Tables_number   1
_chemical_formula_structural   Sm6Mn(SiS7)2
_chemical_formula_sum   'Sm6 Mn1 Si2 S14'
_cell_volume   502.93048841
_cell_formula_units_Z   1
loop_
 _symmetry_equiv_pos_site_id
 _symmetry_equiv_pos_as_xyz
  1  'x, y, z'
loop_
 _atom_site_type_symbol
 _atom_site_label
 _atom_site_symmetry_multiplicity
 _atom_site_fract_x
 _atom_site_fract_y
 _atom_site_fract_z
 _atom_site_occupancy
  Sm  Sm0  1  0.12329400  0.76595300  0.25008100  1
  Sm  Sm1  1  0.23404700  0.35734200  0.25008100  1
  Sm  Sm2  1  0.64265800  0.87670600  0.25008100  1
  Sm  Sm3  1  0.87618100  0.23225500  0.75138000  1
  Sm  Sm4  1  0.76774500  0.64392600  0.75138000  1
  Sm  Sm5  1  0.35607400  0.12381900  0.75138000  1
  Mn  Mn0  1  0.00000000  0.00000000  0.48740500  1
  Si  Si0  1  0.33333300  0.66666700  0.83531600  1
  Si  Si1  1  0.66666700  0.33333300  0.33758700  1
  S  S0  1  0.33333300  0.66666700  0.46569300  1
  S  S1  1  0.66666700  0.33333300  0.96755000  1
  S  S2  1  0.08586700  0.83889100  0.72905600  1
  S  S3  1  0.16110900  0.24697600  0.72905600  1
  S  S4  1  0.75302400  0.91413300  0.72905600  1
  S  S5  1  0.91600800  0.16285100  0.24448200  1
  S  S6  1  0.83714900  0.75315700  0.24448200  1
  S  S7  1  0.24684300  0.08399200  0.24448200  1
  S  S8  1  0.40985000  0.88873700  0.98175700  1
  S  S9  1  0.11126300  0.52111300  0.98175700  1
  S  S10  1  0.47888700  0.59015000  0.98175700  1
  S  S11  1  0.58874700  0.11068600  0.48401600  1
  S  S12  1  0.88931400  0.47806100  0.48401600  1
  S  S13  1  0.52193900  0.41125300  0.48401600  1
loop_
_geom_bond_atom_site_label_1
_geom_bond_atom_site_label_2
_geom_bond_distance
_geom_bond_site_symmetry_2
Mn0 S2 2.589490 1_545
Mn0 S4 2.589490 1_445
Mn0 S3 2.589490 1_555
Mn0 S5 2.595105 1_455
Mn0 S7 2.595105 1_555
Mn0 S6 2.595105 1_445
S0 Si0 2.100595 1_555
S0 Sm0 3.024546 1_555
S0 Sm1 3.024546 1_555
S0 Sm2 3.024546 1_555
S1 Si1 2.102948 1_556
S1 Sm3 3.033625 1_555
S1 Sm5 3.033632 1_555
S1 Sm4 3.033634 1_555
S2 Sm4 2.811390 1_455
S2 Sm5 2.811679 1_565
S2 Sm0 2.894008 1_555
S2 Sm0 3.119837 1_556
S3 Sm5 2.811390 1_555
S3 Sm3 2.811679 1_455
S3 Sm1 2.894010 1_555
S3 Sm1 3.119840 1_556
S4 Sm3 2.811390 1_565
S4 Sm4 2.811679 1_555
S4 Sm2 2.894011 1_555
S4 Sm2 3.119840 1_556
S5 Sm1 2.807424 1_655
S5 Sm2 2.830291 1_545
S5 Sm3 2.964769 1_554
S5 Sm3 3.038985 1_555
S6 Sm2 2.807432 1_555
S6 Sm0 2.830286 1_655
S6 Sm4 2.964769 1_554
S6 Sm4 3.038985 1_555
S7 Sm0 2.807422 1_545
S7 Sm1 2.830296 1_555
S7 Sm5 2.964769 1_554
S7 Sm5 3.038985 1_555
S8 Si0 2.143333 1_555
S8 Sm2 2.857414 1_556
S8 Sm0 2.943042 1_556
S8 Sm5 2.991431 1_565
S9 Si0 2.143335 1_555
S9 Sm0 2.857422 1_556
S9 Sm1 2.943034 1_556
S9 Sm3 2.991431 1_455
S10 Si0 2.143342 1_555
S10 Sm1 2.857418 1_556
S10 Sm2 2.943041 1_556
S10 Sm4 2.991431 1_555
S11 Si1 2.146088 1_555
S11 Sm5 2.858435 1_555
S11 Sm3 2.948002 1_555
S11 Sm2 2.991296 1_545
S12 Si1 2.146089 1_555
S12 Sm3 2.858435 1_555
S12 Sm4 2.948002 1_555
S12 Sm0 2.991302 1_655
S13 Si1 2.146097 1_555
S13 Sm4 2.858435 1_555
S13 Sm5 2.948002 1_555
S13 Sm1 2.991305 1_555
