# generated using pymatgen
data_Na2BN
_symmetry_space_group_name_H-M   'P 1'
_cell_length_a   9.58083200
_cell_length_b   5.80666200
_cell_length_c   5.27141200
_cell_angle_alpha   90.00000000
_cell_angle_beta   90.00000000
_cell_angle_gamma   90.00000000
_symmetry_Int_Tables_number   1
_chemical_formula_structural   Na2BN
_chemical_formula_sum   'Na8 B4 N4'
_cell_volume   293.26263516
_cell_formula_units_Z   4
loop_
 _symmetry_equiv_pos_site_id
 _symmetry_equiv_pos_as_xyz
  1  'x, y, z'
loop_
 _atom_site_type_symbol
 _atom_site_label
 _atom_site_symmetry_multiplicity
 _atom_site_fract_x
 _atom_site_fract_y
 _atom_site_fract_z
 _atom_site_occupancy
  Na  Na0  1  0.75000000  0.54200100  0.50000000  1
  Na  Na1  1  0.25000000  0.45799900  0.00000000  1
  Na  Na2  1  0.25000000  0.45799900  0.50000000  1
  Na  Na3  1  0.75000000  0.54200100  0.00000000  1
  Na  Na4  1  0.48580100  0.81050000  0.25000000  1
  Na  Na5  1  0.51419900  0.18950000  0.75000000  1
  Na  Na6  1  0.01419900  0.81050000  0.75000000  1
  Na  Na7  1  0.98580100  0.18950000  0.25000000  1
  B  B0  1  0.75000000  0.03075800  0.50000000  1
  B  B1  1  0.25000000  0.96924200  0.00000000  1
  B  B2  1  0.25000000  0.96924200  0.50000000  1
  B  B3  1  0.75000000  0.03075800  0.00000000  1
  N  N0  1  0.75029800  0.93341900  0.25000000  1
  N  N1  1  0.24970200  0.06658100  0.75000000  1
  N  N2  1  0.74970200  0.93341900  0.75000000  1
  N  N3  1  0.25029800  0.06658100  0.25000000  1
loop_
_geom_bond_atom_site_label_1
_geom_bond_atom_site_label_2
_geom_bond_distance
_geom_bond_site_symmetry_2
B0 N2 1.433950 1_545
B0 N0 1.433950 1_545
B0 Na7 2.773126 1_555
B0 Na5 2.773126 1_555
B0 Na0 2.968615 1_555
B1 N1 1.433950 1_564
B1 N3 1.433950 1_565
B1 Na4 2.773126 1_555
B1 Na6 2.773126 1_554
B1 Na1 2.968615 1_555
B2 N1 1.433950 1_565
B2 N3 1.433950 1_565
B2 Na4 2.773126 1_555
B2 Na6 2.773126 1_555
B2 Na2 2.968615 1_555
B3 N2 1.433950 1_544
B3 N0 1.433950 1_545
B3 Na7 2.773126 1_555
B3 Na5 2.773126 1_554
B3 Na3 2.968615 1_555
N0 Na0 2.627263 1_555
N0 Na3 2.627263 1_555
N0 Na4 2.632700 1_555
N0 Na7 2.702231 1_565
N1 Na1 2.627263 1_556
N1 Na2 2.627263 1_555
N1 Na5 2.632700 1_555
N1 Na6 2.702231 1_545
N2 Na0 2.627263 1_555
N2 Na3 2.627263 1_556
N2 Na6 2.632700 1_655
N2 Na5 2.702231 1_565
N3 Na1 2.627263 1_555
N3 Na2 2.627263 1_555
N3 Na7 2.632700 1_455
N3 Na4 2.702231 1_545
