# generated using pymatgen
data_V3ZnO7
_symmetry_space_group_name_H-M   'P 1'
_cell_length_a   5.40715400
_cell_length_b   10.18031700
_cell_length_c   10.27496700
_cell_angle_alpha   90.00000000
_cell_angle_beta   90.00000000
_cell_angle_gamma   90.00000000
_symmetry_Int_Tables_number   1
_chemical_formula_structural   V3ZnO7
_chemical_formula_sum   'V12 Zn4 O28'
_cell_volume   565.60140033
_cell_formula_units_Z   4
loop_
 _symmetry_equiv_pos_site_id
 _symmetry_equiv_pos_as_xyz
  1  'x, y, z'
loop_
 _atom_site_type_symbol
 _atom_site_label
 _atom_site_symmetry_multiplicity
 _atom_site_fract_x
 _atom_site_fract_y
 _atom_site_fract_z
 _atom_site_occupancy
  V  V0  1  0.71533600  0.68476200  0.97003400  1
  V  V1  1  0.21533600  0.81523800  0.02996600  1
  V  V2  1  0.28466400  0.31523800  0.47003400  1
  V  V3  1  0.78466400  0.18476200  0.52996600  1
  V  V4  1  0.70711000  0.77759600  0.25000000  1
  V  V5  1  0.20711000  0.72240400  0.75000000  1
  V  V6  1  0.29289000  0.22240400  0.75000000  1
  V  V7  1  0.79289000  0.27759600  0.25000000  1
  V  V8  1  0.21533600  0.81523800  0.47003400  1
  V  V9  1  0.71533600  0.68476200  0.52996600  1
  V  V10  1  0.78466400  0.18476200  0.97003400  1
  V  V11  1  0.28466400  0.31523800  0.02996600  1
  Zn  Zn0  1  0.38081200  0.06249600  0.25000000  1
  Zn  Zn1  1  0.88081200  0.43750400  0.75000000  1
  Zn  Zn2  1  0.61918800  0.93750400  0.75000000  1
  Zn  Zn3  1  0.11918800  0.56249600  0.25000000  1
  O  O0  1  0.04578200  0.29195800  0.87938600  1
  O  O1  1  0.54578200  0.20804200  0.12061400  1
  O  O2  1  0.95421800  0.70804200  0.37938600  1
  O  O3  1  0.45421800  0.79195800  0.62061400  1
  O  O4  1  0.95421800  0.70804200  0.12061400  1
  O  O5  1  0.45421800  0.79195800  0.87938600  1
  O  O6  1  0.04578200  0.29195800  0.62061400  1
  O  O7  1  0.54578200  0.20804200  0.37938600  1
  O  O8  1  0.51858100  0.28216800  0.88565700  1
  O  O9  1  0.01858100  0.21783200  0.11434300  1
  O  O10  1  0.48141900  0.71783200  0.38565700  1
  O  O11  1  0.98141900  0.78216800  0.61434300  1
  O  O12  1  0.48141900  0.71783200  0.11434300  1
  O  O13  1  0.98141900  0.78216800  0.88565700  1
  O  O14  1  0.51858100  0.28216800  0.61434300  1
  O  O15  1  0.01858100  0.21783200  0.38565700  1
  O  O16  1  0.80697800  0.44172800  0.25000000  1
  O  O17  1  0.30697800  0.05827200  0.75000000  1
  O  O18  1  0.19302200  0.55827200  0.75000000  1
  O  O19  1  0.69302200  0.94172800  0.25000000  1
  O  O20  1  0.77491500  0.03511400  0.59787200  1
  O  O21  1  0.27491500  0.46488600  0.40212800  1
  O  O22  1  0.22508500  0.96488600  0.09787200  1
  O  O23  1  0.72508500  0.53511400  0.90212800  1
  O  O24  1  0.22508500  0.96488600  0.40212800  1
  O  O25  1  0.72508500  0.53511400  0.59787200  1
  O  O26  1  0.77491500  0.03511400  0.90212800  1
  O  O27  1  0.27491500  0.46488600  0.09787200  1
loop_
_geom_bond_atom_site_label_1
_geom_bond_atom_site_label_2
_geom_bond_distance
_geom_bond_site_symmetry_2
O0 V10 2.012934 1_455
O0 V6 2.013475 1_555
O0 V11 2.029390 1_556
O0 Zn1 2.181409 1_455
O1 V11 2.012934 1_555
O1 V7 2.013475 1_555
O1 V10 2.029390 1_554
O1 Zn0 2.181409 1_555
O2 V8 2.012934 1_655
O2 V4 2.013475 1_555
O2 V9 2.029390 1_555
O2 Zn3 2.181409 1_655
O3 V9 2.012934 1_555
O3 V5 2.013475 1_555
O3 V8 2.029390 1_555
O3 Zn2 2.181409 1_555
O4 V1 2.012934 1_655
O4 V4 2.013475 1_555
O4 V0 2.029390 1_554
O4 Zn3 2.181409 1_655
O5 V0 2.012934 1_555
O5 V5 2.013475 1_555
O5 V1 2.029390 1_556
O5 Zn2 2.181409 1_555
O6 V3 2.012934 1_455
O6 V6 2.013475 1_555
O6 V2 2.029390 1_555
O6 Zn1 2.181409 1_455
O7 V2 2.012934 1_555
O7 V7 2.013475 1_555
O7 V3 2.029390 1_555
O7 Zn0 2.181409 1_555
O8 V6 1.949947 1_555
O8 V10 1.950631 1_555
O8 V11 1.977810 1_556
O9 V7 1.949947 1_455
O9 V11 1.950631 1_555
O9 V10 1.977810 1_454
O10 V4 1.949947 1_555
O10 V8 1.950631 1_555
O10 V9 1.977810 1_555
O11 V5 1.949947 1_655
O11 V9 1.950631 1_555
O11 V8 1.977810 1_655
O12 V4 1.949947 1_555
O12 V1 1.950631 1_555
O12 V0 1.977810 1_554
O13 V5 1.949947 1_655
O13 V0 1.950631 1_555
O13 V1 1.977810 1_656
O14 V6 1.949947 1_555
O14 V3 1.950631 1_555
O14 V2 1.977810 1_555
O15 V7 1.949947 1_455
O15 V2 1.950631 1_555
O15 V3 1.977810 1_455
O16 V7 1.672651 1_555
O16 Zn3 2.088414 1_655
O17 V6 1.672651 1_555
O17 Zn2 2.088414 1_545
O18 V5 1.672651 1_555
O18 Zn1 2.088414 1_455
O19 V4 1.672651 1_555
O19 Zn0 2.088414 1_565
O20 V3 1.676470 1_555
O20 Zn2 2.034646 1_545
O21 V2 1.676470 1_555
O21 Zn3 2.034646 1_555
O22 V1 1.676470 1_555
O22 Zn0 2.034646 1_565
O23 V0 1.676470 1_555
O23 Zn1 2.034646 1_555
O24 V8 1.676470 1_555
O24 Zn0 2.034646 1_565
O25 V9 1.676470 1_555
O25 Zn1 2.034646 1_555
O26 V10 1.676470 1_555
O26 Zn2 2.034646 1_545
O27 V11 1.676470 1_555
O27 Zn3 2.034646 1_555
