# generated using pymatgen
data_CsNpAgS3
_symmetry_space_group_name_H-M   'P 1'
_cell_length_a   4.13840900
_cell_length_b   8.12517797
_cell_length_c   10.46054600
_cell_angle_alpha   90.00000000
_cell_angle_beta   90.00000000
_cell_angle_gamma   104.75377623
_symmetry_Int_Tables_number   1
_chemical_formula_structural   CsNpAgS3
_chemical_formula_sum   'Cs2 Np2 Ag2 S6'
_cell_volume   340.14196352
_cell_formula_units_Z   2
loop_
 _symmetry_equiv_pos_site_id
 _symmetry_equiv_pos_as_xyz
  1  'x, y, z'
loop_
 _atom_site_type_symbol
 _atom_site_label
 _atom_site_symmetry_multiplicity
 _atom_site_fract_x
 _atom_site_fract_y
 _atom_site_fract_z
 _atom_site_occupancy
  Cs  Cs0  1  0.73970300  0.47940600  0.25000000  1
  Cs  Cs1  1  0.26029700  0.52059400  0.75000000  1
  Np  Np0  1  0.00000000  0.00000000  0.50000000  1
  Np  Np1  1  0.00000000  0.00000000  0.00000000  1
  Ag  Ag0  1  0.45730400  0.91460900  0.25000000  1
  Ag  Ag1  1  0.54269600  0.08539100  0.75000000  1
  S  S0  1  0.05382000  0.10763900  0.25000000  1
  S  S1  1  0.94618000  0.89236100  0.75000000  1
  S  S2  1  0.38840200  0.77680300  0.46512400  1
  S  S3  1  0.61159800  0.22319700  0.53487600  1
  S  S4  1  0.38840200  0.77680300  0.03487600  1
  S  S5  1  0.61159800  0.22319700  0.96512400  1
loop_
_geom_bond_atom_site_label_1
_geom_bond_atom_site_label_2
_geom_bond_distance
_geom_bond_site_symmetry_2
Cs0 S0 3.579707 1_555
Cs0 S0 3.579709 1_655
Cs0 S3 3.596214 1_555
Cs0 S5 3.596214 1_554
Cs0 S4 3.847835 1_555
Cs0 S2 3.847835 1_555
Cs0 S4 3.847837 1_655
Cs0 S2 3.847837 1_655
Cs1 S1 3.579707 1_555
Cs1 S1 3.579709 1_455
Cs1 S4 3.596214 1_556
Cs1 S2 3.596214 1_555
Cs1 S3 3.847835 1_555
Cs1 S5 3.847835 1_555
Cs1 S5 3.847837 1_455
Cs1 S3 3.847837 1_455
Np0 S3 2.736830 1_555
Np0 S2 2.736830 1_445
Np0 S3 2.736832 1_455
Np0 S2 2.736832 1_545
Np0 S0 2.748496 1_555
Np0 S1 2.748496 1_445
Np1 S5 2.736830 1_554
Np1 S4 2.736830 1_445
Np1 S5 2.736832 1_454
Np1 S4 2.736832 1_545
Np1 S0 2.748496 1_555
Np1 S1 2.748496 1_444
Ag0 S2 2.497264 1_555
Ag0 S4 2.497264 1_555
Ag0 S0 2.565530 1_565
Ag0 S0 2.565537 1_665
Ag1 S3 2.497264 1_555
Ag1 S5 2.497264 1_555
Ag1 S1 2.565530 1_545
Ag1 S1 2.565537 1_445
