# generated using pymatgen
data_HoGa
_symmetry_space_group_name_H-M   'P 1'
_cell_length_a   4.02480726
_cell_length_b   4.30103656
_cell_length_c   5.78652173
_cell_angle_alpha   111.81697036
_cell_angle_beta   90.00000000
_cell_angle_gamma   90.00000000
_symmetry_Int_Tables_number   1
_chemical_formula_structural   HoGa
_chemical_formula_sum   'Ho2 Ga2'
_cell_volume   92.99500398
_cell_formula_units_Z   2
loop_
 _symmetry_equiv_pos_site_id
 _symmetry_equiv_pos_as_xyz
  1  'x, y, z'
loop_
 _atom_site_type_symbol
 _atom_site_label
 _atom_site_symmetry_multiplicity
 _atom_site_fract_x
 _atom_site_fract_y
 _atom_site_fract_z
 _atom_site_occupancy
  Ho  Ho0  1  0.25000000  0.13885026  0.27769953  1
  Ho  Ho1  1  0.75000000  0.86114974  0.72230047  1
  Ga  Ga0  1  0.25000000  0.42453776  0.84907452  1
  Ga  Ga1  1  0.75000000  0.57546224  0.15092548  1
loop_
_geom_bond_atom_site_label_1
_geom_bond_atom_site_label_2
_geom_bond_distance
_geom_bond_site_symmetry_2
Ga0 Ga1 2.584422 1_556
Ga0 Ga1 2.584422 1_456
Ga0 Ho1 3.022961 1_555
Ga0 Ho1 3.022961 1_455
Ga0 Ho1 3.022967 1_445
Ga0 Ho1 3.022967 1_545
Ga0 Ho0 3.069465 1_555
Ga0 Ho0 3.150667 1_566
Ga0 Ho0 3.150668 1_556
Ga1 Ho0 3.022961 1_555
Ga1 Ho0 3.022961 1_655
Ga1 Ho0 3.022967 1_665
Ga1 Ho0 3.022967 1_565
Ga1 Ho1 3.069465 1_555
Ga1 Ho1 3.150667 1_544
Ga1 Ho1 3.150668 1_554
