# generated using pymatgen
data_Pr3PBr3
_symmetry_space_group_name_H-M   'P 1'
_cell_length_a   10.33030175
_cell_length_b   10.33031090
_cell_length_c   10.33029528
_cell_angle_alpha   109.47081911
_cell_angle_beta   109.47065556
_cell_angle_gamma   109.47273466
_symmetry_Int_Tables_number   1
_chemical_formula_structural   Pr3PBr3
_chemical_formula_sum   'Pr12 P4 Br12'
_cell_volume   848.62204648
_cell_formula_units_Z   4
loop_
 _symmetry_equiv_pos_site_id
 _symmetry_equiv_pos_as_xyz
  1  'x, y, z'
loop_
 _atom_site_type_symbol
 _atom_site_label
 _atom_site_symmetry_multiplicity
 _atom_site_fract_x
 _atom_site_fract_y
 _atom_site_fract_z
 _atom_site_occupancy
  Pr  Pr0  1  0.47349487  0.48673963  0.23675598  1
  Pr  Pr1  1  0.74999543  0.23674744  0.26325045  1
  Pr  Pr2  1  0.75000247  0.01325908  0.48674203  1
  Pr  Pr3  1  0.23675021  0.47348667  0.48674060  1
  Pr  Pr4  1  0.26325585  0.75000906  0.23675422  1
  Pr  Pr5  1  0.02651598  0.26325257  0.01326229  1
  Pr  Pr6  1  0.01326491  0.02651199  0.26324930  1
  Pr  Pr7  1  0.48674687  0.75000194  0.01326111  1
  Pr  Pr8  1  0.48674285  0.23674947  0.47348817  1
  Pr  Pr9  1  0.01326160  0.48674463  0.75000063  1
  Pr  Pr10  1  0.26325525  0.01326112  0.02651724  1
  Pr  Pr11  1  0.23674802  0.26325423  0.75000063  1
  P  P0  1  0.25000219  0.25000029  0.25000199  1
  P  P1  1  0.50000586  0.00000033  0.25000244  1
  P  P2  1  0.00000228  0.25000296  0.50000666  1
  P  P3  1  0.24999952  0.49999988  -0.00000637  1
  Br  Br0  1  0.24999715  0.75701447  0.74295774  1
  Br  Br1  1  0.51405735  0.50700135  0.75700564  1
  Br  Br2  1  0.98593816  0.74300538  0.99298026  1
  Br  Br3  1  0.74296207  0.25000201  0.75701699  1
  Br  Br4  1  0.99298771  0.98594203  0.74298372  1
  Br  Br5  1  0.25000843  0.99297948  0.50703800  1
  Br  Br6  1  0.75700225  0.51406756  0.50702382  1
  Br  Br7  1  0.50701805  0.24998777  0.99295958  1
  Br  Br8  1  0.75702916  0.74297542  0.25000065  1
  Br  Br9  1  0.74296784  0.99296938  0.98594471  1
  Br  Br10  1  0.99297070  0.50702881  0.24999654  1
  Br  Br11  1  0.50701498  0.75700405  0.51406300  1
loop_
_geom_bond_atom_site_label_1
_geom_bond_atom_site_label_2
_geom_bond_distance
_geom_bond_site_symmetry_2
P0 Pr6 2.828256 1_555
P0 Pr0 2.828286 1_555
P0 Pr3 2.828349 1_555
P0 Pr10 2.828350 1_555
P0 Pr8 2.828358 1_555
P0 Pr5 2.828361 1_555
P1 Pr1 2.828346 1_555
P1 Pr2 2.828358 1_555
P1 Pr4 2.828372 1_545
P1 Pr7 2.828373 1_545
P1 Pr10 2.828478 1_555
P1 Pr8 2.828481 1_555
P2 Pr2 2.828299 1_455
P2 Pr9 2.828345 1_555
P2 Pr3 2.828415 1_555
P2 Pr11 2.828418 1_555
P2 Pr1 2.828534 1_455
P2 Pr6 2.828559 1_555
P3 Pr7 2.828317 1_555
P3 Pr9 2.828345 1_554
P3 Pr11 2.828405 1_554
P3 Pr5 2.828427 1_555
P3 Pr4 2.828564 1_555
P3 Pr0 2.828605 1_555
Br0 Pr9 3.079426 1_555
Br0 Pr7 3.079614 1_556
Br0 Pr3 3.150575 1_555
Br0 Pr10 3.150877 1_566
Br1 Pr11 3.079459 1_555
Br1 Pr3 3.079537 1_555
Br1 Pr8 3.150326 1_555
Br1 Pr7 3.150988 1_556
Br2 Pr10 3.079354 1_666
Br2 Pr4 3.079737 1_656
Br2 Pr6 3.150289 1_666
Br2 Pr9 3.150988 1_655
Br3 Pr9 3.079500 1_655
Br3 Pr2 3.079554 1_555
Br3 Pr8 3.150566 1_555
Br3 Pr5 3.150881 1_656
Br4 Pr11 3.079478 1_665
Br4 Pr5 3.079562 1_666
Br4 Pr10 3.150495 1_666
Br4 Pr2 3.150863 1_565
Br5 Pr8 3.079474 1_565
Br5 Pr6 3.079600 1_565
Br5 Pr11 3.150582 1_565
Br5 Pr4 3.150600 1_555
Br6 Pr8 3.079388 1_555
Br6 Pr1 3.079728 1_555
Br6 Pr0 3.150286 1_555
Br6 Pr9 3.150965 1_655
Br7 Pr10 3.079438 1_556
Br7 Pr0 3.079628 1_556
Br7 Pr11 3.150574 1_555
Br7 Pr1 3.150645 1_556
Br8 Pr7 3.079506 1_555
Br8 Pr2 3.079522 1_565
Br8 Pr6 3.150650 1_665
Br8 Pr0 3.150657 1_555
Br9 Pr1 3.079535 1_566
Br9 Pr6 3.079563 1_666
Br9 Pr7 3.150551 1_556
Br9 Pr5 3.150605 1_666
Br10 Pr5 3.079552 1_655
Br10 Pr3 3.079612 1_655
Br10 Pr4 3.150557 1_655
Br10 Pr1 3.150579 1_555
Br11 Pr0 3.079501 1_555
Br11 Pr4 3.079651 1_555
Br11 Pr3 3.150283 1_555
Br11 Pr2 3.150907 1_565
