# generated using pymatgen
data_Li4Mn3CoO8
_symmetry_space_group_name_H-M   'P 1'
_cell_length_a   2.86814589
_cell_length_b   19.59889747
_cell_length_c   5.43887017
_cell_angle_alpha   92.29750957
_cell_angle_beta   89.62232006
_cell_angle_gamma   85.41796663
_symmetry_Int_Tables_number   1
_chemical_formula_structural   Li4Mn3CoO8
_chemical_formula_sum   'Li8 Mn6 Co2 O16'
_cell_volume   304.49564240
_cell_formula_units_Z   2
loop_
 _symmetry_equiv_pos_site_id
 _symmetry_equiv_pos_as_xyz
  1  'x, y, z'
loop_
 _atom_site_type_symbol
 _atom_site_label
 _atom_site_symmetry_multiplicity
 _atom_site_fract_x
 _atom_site_fract_y
 _atom_site_fract_z
 _atom_site_occupancy
  Li  Li0  1  0.95685700  0.12169800  0.31608500  1
  Li  Li1  1  0.44884700  0.12347100  0.81589500  1
  Li  Li2  1  0.04262100  0.87833700  0.68421700  1
  Li  Li3  1  0.55057200  0.87654900  0.18434500  1
  Li  Li4  1  0.31533200  0.37424600  0.43967600  1
  Li  Li5  1  0.81501400  0.37422400  0.93988700  1
  Li  Li6  1  0.68450400  0.62574800  0.56035900  1
  Li  Li7  1  0.18490500  0.62577900  0.06015500  1
  Mn  Mn0  1  0.75100700  0.50000500  0.25010100  1
  Mn  Mn1  1  0.24911200  0.50001500  0.74951100  1
  Mn  Mn2  1  0.38390000  0.24820100  0.12924000  1
  Mn  Mn3  1  0.88248500  0.24865900  0.62969600  1
  Mn  Mn4  1  0.61686700  0.75178900  0.87059200  1
  Mn  Mn5  1  0.11793300  0.75130300  0.37023900  1
  Co  Co0  1  0.49971800  0.00002100  0.50016100  1
  Co  Co1  1  0.99967900  0.00003000  0.00017400  1
  O  O0  1  0.50796500  0.05661000  0.15644000  1
  O  O1  1  0.96751200  0.05331400  0.65186400  1
  O  O2  1  0.49145000  0.94343600  0.84388700  1
  O  O3  1  0.03192000  0.94672800  0.34844800  1
  O  O4  1  0.85086000  0.30647000  0.26671000  1
  O  O5  1  0.34998400  0.30706800  0.76691500  1
  O  O6  1  0.14969300  0.69347800  0.73318400  1
  O  O7  1  0.65025300  0.69288800  0.23305000  1
  O  O8  1  0.21826200  0.55835800  0.38721500  1
  O  O9  1  0.71711700  0.55833100  0.88667600  1
  O  O10  1  0.78188200  0.44165000  0.61242900  1
  O  O11  1  0.28303500  0.44168000  0.11295900  1
  O  O12  1  0.58550600  0.80993800  0.50575600  1
  O  O13  1  0.08356400  0.80992700  0.00859100  1
  O  O14  1  0.41470300  0.19002100  0.49423300  1
  O  O15  1  0.91694000  0.19002600  0.99131300  1
loop_
_geom_bond_atom_site_label_1
_geom_bond_atom_site_label_2
_geom_bond_distance
_geom_bond_site_symmetry_2
Li0 O0 2.056011 1_555
Li0 O0 2.109653 1_655
Li0 O14 2.156384 1_655
Li0 O14 2.166395 1_555
Li0 O15 2.257080 1_554
Li0 O1 2.307133 1_555
Li1 O1 2.111128 1_555
Li1 O15 2.121847 1_455
Li1 O15 2.147348 1_555
Li1 O1 2.193993 1_455
Li1 O14 2.221774 1_555
Li1 O0 2.310782 1_556
Li2 O2 2.056084 1_555
Li2 O2 2.109945 1_455
Li2 O12 2.156699 1_455
Li2 O12 2.169310 1_555
Li2 O13 2.256359 1_556
Li2 O3 2.307169 1_555
Li3 O3 2.111506 1_555
Li3 O13 2.125399 1_655
Li3 O13 2.146860 1_555
Li3 O3 2.194454 1_655
Li3 O12 2.221409 1_555
Li3 O2 2.310694 1_554
Li4 O10 2.127793 1_455
Li4 O4 2.136224 1_555
Li4 O10 2.148968 1_555
Li4 O4 2.150166 1_455
Li4 O5 2.253970 1_555
Li4 O11 2.254734 1_555
Li5 O11 2.126257 1_556
Li5 O5 2.128548 1_655
Li5 O5 2.143383 1_555
Li5 O11 2.153198 1_656
Li5 O10 2.257911 1_555
Li5 O4 2.259075 1_556
Li6 O8 2.129109 1_655
Li6 O6 2.134046 1_555
Li6 O8 2.149082 1_555
Li6 O6 2.150643 1_655
Li6 O9 2.252763 1_555
Li6 O7 2.253821 1_555
Li7 O7 2.127266 1_455
Li7 O9 2.127530 1_554
Li7 O7 2.143227 1_555
Li7 O9 2.153569 1_454
Li7 O8 2.256093 1_555
Li7 O6 2.259058 1_554
Mn0 O11 1.956903 1_655
Mn0 O8 1.958630 1_555
Mn0 O8 1.962084 1_655
Mn0 O11 1.963304 1_555
Mn0 O10 2.316502 1_555
Mn0 O9 2.321456 1_554
Mn1 O9 1.956788 1_455
Mn1 O10 1.958740 1_555
Mn1 O10 1.962115 1_455
Mn1 O9 1.963309 1_555
Mn1 O8 2.316227 1_555
Mn1 O11 2.321658 1_556
Mn2 O15 1.959048 1_554
Mn2 O4 1.959099 1_455
Mn2 O15 1.960899 1_454
Mn2 O4 1.961141 1_555
Mn2 O5 2.321821 1_554
Mn2 O14 2.327344 1_555
Mn3 O14 1.957221 1_655
Mn3 O5 1.958876 1_555
Mn3 O14 1.963452 1_555
Mn3 O5 1.963485 1_655
Mn3 O4 2.314060 1_555
Mn3 O15 2.316069 1_555
Mn4 O6 1.958947 1_655
Mn4 O13 1.959373 1_556
Mn4 O13 1.960040 1_656
Mn4 O6 1.961980 1_555
Mn4 O7 2.322790 1_556
Mn4 O12 2.326290 1_555
Mn5 O12 1.957731 1_455
Mn5 O7 1.958499 1_555
Mn5 O12 1.963081 1_555
Mn5 O7 1.963880 1_455
Mn5 O6 2.314010 1_555
Mn5 O13 2.316121 1_555
Co0 O1 1.934241 1_555
Co0 O3 1.934272 1_545
Co0 O1 1.939414 1_455
Co0 O3 1.939427 1_645
Co0 O2 2.212522 1_545
Co0 O0 2.212538 1_555
Co1 O0 1.897301 1_555
Co1 O2 1.897602 1_644
Co1 O0 2.067939 1_655
Co1 O2 2.068020 1_544
Co1 O1 2.198504 1_554
Co1 O3 2.198512 1_645
