# generated using pymatgen
data_Li9Co7O16
_symmetry_space_group_name_H-M   'P 1'
_cell_length_a   5.01559600
_cell_length_b   6.46155418
_cell_length_c   8.59418554
_cell_angle_alpha   97.15184309
_cell_angle_beta   94.98378734
_cell_angle_gamma   96.87043917
_symmetry_Int_Tables_number   1
_chemical_formula_structural   Li9Co7O16
_chemical_formula_sum   'Li9 Co7 O16'
_cell_volume   272.90554045
_cell_formula_units_Z   1
loop_
 _symmetry_equiv_pos_site_id
 _symmetry_equiv_pos_as_xyz
  1  'x, y, z'
loop_
 _atom_site_type_symbol
 _atom_site_label
 _atom_site_symmetry_multiplicity
 _atom_site_fract_x
 _atom_site_fract_y
 _atom_site_fract_z
 _atom_site_occupancy
  Li  Li0  1  0.75246600  0.19402800  0.81702800  1
  Li  Li1  1  0.25049800  0.56354200  0.43749200  1
  Li  Li2  1  0.74868300  0.92751900  0.06011300  1
  Li  Li3  1  0.25131700  0.07248100  0.93988700  1
  Li  Li4  1  0.74950200  0.43645800  0.56250800  1
  Li  Li5  1  0.24753400  0.80597200  0.18297200  1
  Li  Li6  1  0.24834200  0.31778400  0.69654100  1
  Li  Li7  1  0.75165800  0.68221600  0.30345900  1
  Li  Li8  1  0.50000000  0.50000000  0.00000000  1
  Co  Co0  1  0.99976500  0.62399500  0.87511400  1
  Co  Co1  1  0.00023500  0.37600500  0.12488600  1
  Co  Co2  1  0.50000000  0.00000000  0.50000000  1
  Co  Co3  1  0.50010600  0.74412700  0.75491600  1
  Co  Co4  1  0.00062900  0.12553700  0.37427900  1
  Co  Co5  1  0.99937100  0.87446300  0.62572100  1
  Co  Co6  1  0.49989400  0.25587300  0.24508400  1
  O  O0  1  0.10619000  0.35872500  0.91589000  1
  O  O1  1  0.61936400  0.73402100  0.54525300  1
  O  O2  1  0.14288500  0.11488300  0.16332900  1
  O  O3  1  0.64090200  0.22737400  0.05489900  1
  O  O4  1  0.14334800  0.60741900  0.66902700  1
  O  O5  1  0.61645200  0.98823500  0.29175000  1
  O  O6  1  0.63837200  0.49906500  0.78235200  1
  O  O7  1  0.11847500  0.84809400  0.40982200  1
  O  O8  1  0.38354800  0.01176500  0.70825000  1
  O  O9  1  0.85665200  0.39258100  0.33097300  1
  O  O10  1  0.35909800  0.77262600  0.94510100  1
  O  O11  1  0.85711500  0.88511700  0.83667100  1
  O  O12  1  0.38063600  0.26597900  0.45474700  1
  O  O13  1  0.89381000  0.64127500  0.08411000  1
  O  O14  1  0.88152500  0.15190600  0.59017800  1
  O  O15  1  0.36162800  0.50093500  0.21764800  1
loop_
_geom_bond_atom_site_label_1
_geom_bond_atom_site_label_2
_geom_bond_distance
_geom_bond_site_symmetry_2
Li0 O0 2.015741 1_655
Li0 O14 2.103160 1_555
Li0 O8 2.142116 1_555
Li0 O11 2.146475 1_545
Li0 O3 2.157926 1_556
Li0 O6 2.165099 1_555
Li1 O15 2.022545 1_555
Li1 O7 2.061177 1_555
Li1 O4 2.100121 1_555
Li1 O1 2.110599 1_555
Li1 O12 2.121160 1_555
Li1 O9 2.207343 1_455
Li2 O11 2.035804 1_554
Li2 O3 2.077561 1_565
Li2 O13 2.093877 1_555
Li2 O5 2.157304 1_555
Li2 O10 2.178767 1_554
Li2 O2 2.239846 1_665
Li3 O2 2.035804 1_556
Li3 O10 2.077561 1_545
Li3 O0 2.093877 1_555
Li3 O8 2.157304 1_555
Li3 O3 2.178767 1_556
Li3 O11 2.239846 1_445
Li4 O6 2.022545 1_555
Li4 O14 2.061177 1_555
Li4 O9 2.100121 1_555
Li4 O12 2.110599 1_555
Li4 O1 2.121160 1_555
Li4 O4 2.207343 1_655
Li5 O13 2.015741 1_455
Li5 O7 2.103160 1_555
Li5 O5 2.142116 1_555
Li5 O2 2.146475 1_565
Li5 O10 2.157926 1_554
Li5 O15 2.165099 1_555
Li6 O4 2.039622 1_555
Li6 O0 2.070385 1_555
Li6 O14 2.088381 1_455
Li6 O6 2.174583 1_555
Li6 O8 2.176798 1_555
Li6 O12 2.233833 1_555
Li7 O9 2.039622 1_555
Li7 O13 2.070385 1_555
Li7 O7 2.088381 1_655
Li7 O15 2.174583 1_555
Li7 O5 2.176798 1_555
Li7 O1 2.233833 1_555
Li8 O6 2.050424 1_554
Li8 O15 2.050424 1_555
Li8 O10 2.066906 1_554
Li8 O3 2.066906 1_555
Li8 O0 2.100821 1_554
Li8 O13 2.100821 1_555
Co0 O13 1.910797 1_556
Co0 O0 1.918772 1_655
Co0 O10 1.945766 1_655
Co0 O6 1.952263 1_555
Co0 O11 1.963272 1_555
Co0 O4 1.964663 1_655
Co1 O0 1.910797 1_554
Co1 O13 1.918772 1_455
Co1 O3 1.945766 1_455
Co1 O15 1.952263 1_555
Co1 O2 1.963272 1_555
Co1 O9 1.964663 1_455
Co2 O5 1.925737 1_545
Co2 O8 1.925737 1_555
Co2 O1 1.958451 1_545
Co2 O12 1.958451 1_555
Co2 O7 2.080716 1_545
Co2 O14 2.080716 1_555
Co3 O10 1.833767 1_555
Co3 O6 1.836087 1_555
Co3 O4 1.938283 1_555
Co3 O11 1.939499 1_555
Co3 O1 1.943229 1_555
Co3 O8 1.966502 1_565
Co4 O14 1.991708 1_455
Co4 O2 2.001501 1_555
Co4 O7 2.003743 1_545
Co4 O9 2.012147 1_455
Co4 O12 2.033559 1_555
Co4 O5 2.049360 1_445
Co5 O7 1.991708 1_655
Co5 O11 2.001501 1_555
Co5 O14 2.003743 1_565
Co5 O4 2.012147 1_655
Co5 O1 2.033559 1_555
Co5 O8 2.049360 1_665
Co6 O3 1.833767 1_555
Co6 O15 1.836087 1_555
Co6 O9 1.938283 1_555
Co6 O2 1.939499 1_555
Co6 O12 1.943229 1_555
Co6 O5 1.966502 1_545
