# generated using pymatgen
data_NaGa(SO4)2
_symmetry_space_group_name_H-M   'P 1'
_cell_length_a   4.75958169
_cell_length_b   4.75958169
_cell_length_c   7.29764616
_cell_angle_alpha   87.61815012
_cell_angle_beta   87.61815012
_cell_angle_gamma   65.72754864
_symmetry_Int_Tables_number   1
_chemical_formula_structural   NaGa(SO4)2
_chemical_formula_sum   'Na1 Ga1 S2 O8'
_cell_volume   150.51956396
_cell_formula_units_Z   1
loop_
 _symmetry_equiv_pos_site_id
 _symmetry_equiv_pos_as_xyz
  1  'x, y, z'
loop_
 _atom_site_type_symbol
 _atom_site_label
 _atom_site_symmetry_multiplicity
 _atom_site_fract_x
 _atom_site_fract_y
 _atom_site_fract_z
 _atom_site_occupancy
  Na  Na0  1  0.00000000  0.00000000  0.50000000  1
  Ga  Ga0  1  0.00000000  0.00000000  0.00000000  1
  S  S0  1  0.36455000  0.36455000  0.78523000  1
  S  S1  1  0.63545000  0.63545000  0.21477000  1
  O  O0  1  0.29134400  0.29134400  0.60789900  1
  O  O1  1  0.70865600  0.70865600  0.39210100  1
  O  O2  1  0.71085800  0.23852400  0.80098700  1
  O  O3  1  0.28914200  0.76147600  0.19901300  1
  O  O4  1  0.76147600  0.28914200  0.19901300  1
  O  O5  1  0.23852400  0.71085800  0.80098700  1
  O  O6  1  0.24205300  0.24205300  0.94580600  1
  O  O7  1  0.75794700  0.75794700  0.05419400  1
loop_
_geom_bond_atom_site_label_1
_geom_bond_atom_site_label_2
_geom_bond_distance
_geom_bond_site_symmetry_2
Na0 O0 2.495627 1_555
Na0 O1 2.495627 1_445
Na0 O5 2.584352 1_545
Na0 O2 2.584352 1_455
Na0 O3 2.584352 1_545
Na0 O4 2.584352 1_455
Ga0 O6 1.956124 1_554
Ga0 O7 1.956124 1_445
Ga0 O2 2.009129 1_454
Ga0 O5 2.009129 1_544
Ga0 O4 2.009129 1_455
Ga0 O3 2.009129 1_545
O0 S0 1.446467 1_555
O1 S1 1.446467 1_555
O2 S0 1.512289 1_555
O3 S1 1.512289 1_555
O4 S1 1.512289 1_555
O5 S0 1.512289 1_555
O6 S0 1.489609 1_555
O7 S1 1.489609 1_555
