# generated using pymatgen
data_Cs4(BS)9
_symmetry_space_group_name_H-M   'P 1'
_cell_length_a   10.45952196
_cell_length_b   10.44233811
_cell_length_c   10.95839501
_cell_angle_alpha   92.14199771
_cell_angle_beta   103.52662060
_cell_angle_gamma   109.72779840
_symmetry_Int_Tables_number   1
_chemical_formula_structural   Cs4(BS)9
_chemical_formula_sum   'Cs8 B18 S18'
_cell_volume   1086.51024729
_cell_formula_units_Z   2
loop_
 _symmetry_equiv_pos_site_id
 _symmetry_equiv_pos_as_xyz
  1  'x, y, z'
loop_
 _atom_site_type_symbol
 _atom_site_label
 _atom_site_symmetry_multiplicity
 _atom_site_fract_x
 _atom_site_fract_y
 _atom_site_fract_z
 _atom_site_occupancy
  Cs  Cs0  1  0.64962619  0.01016488  0.37873021  1
  Cs  Cs1  1  0.35037381  0.98983512  0.62126979  1
  Cs  Cs2  1  0.61470837  0.37057828  0.13055142  1
  Cs  Cs3  1  0.38529163  0.62942172  0.86944858  1
  Cs  Cs4  1  0.75426396  0.62102048  0.47120747  1
  Cs  Cs5  1  0.24573604  0.37897952  0.52879253  1
  Cs  Cs6  1  0.81702211  0.38138355  0.75851693  1
  Cs  Cs7  1  0.18297789  0.61861645  0.24148307  1
  B  B0  1  0.12844842  0.14132538  0.08460054  1
  B  B1  1  0.87155158  0.85867462  0.91539946  1
  B  B2  1  0.12180253  0.97599602  0.12281224  1
  B  B3  1  0.87819747  0.02400398  0.87718776  1
  B  B4  1  0.16190708  0.03168892  0.97982848  1
  B  B5  1  0.83809292  0.96831108  0.02017152  1
  B  B6  1  0.06150622  0.13334820  0.91789761  1
  B  B7  1  0.93849378  0.86665180  0.08210239  1
  B  B8  1  0.95407096  0.13937499  0.02268565  1
  B  B9  1  0.04592904  0.86062501  0.97731435  1
  B  B10  1  0.99105958  0.04105819  0.14604490  1
  B  B11  1  0.00894042  0.95894181  0.85395510  1
  B  B12  1  0.35318991  0.17887762  0.30105614  1
  B  B13  1  0.64681009  0.82112238  0.69894386  1
  B  B14  1  0.32388002  0.23078247  0.85676572  1
  B  B15  1  0.67611998  0.76921753  0.14323428  1
  B  B16  1  0.92925963  0.25678946  0.25077310  1
  B  B17  1  0.07074037  0.74321054  0.74922690  1
  S  S0  1  0.27666524  0.28180295  0.19407576  1
  S  S1  1  0.72333476  0.71819705  0.80592424  1
  S  S2  1  0.26911404  0.98915725  0.26344131  1
  S  S3  1  0.73088596  0.01084275  0.73655869  1
  S  S4  1  0.33522091  0.08539037  0.94302261  1
  S  S5  1  0.66477909  0.91460963  0.05697739  1
  S  S6  1  0.15930179  0.26910183  0.83362212  1
  S  S7  1  0.84069821  0.73089817  0.16637788  1
  S  S8  1  0.91175115  0.28590932  0.08179685  1
  S  S9  1  0.08824885  0.71409068  0.91820315  1
  S  S10  1  0.97558201  0.10746842  0.29900331  1
  S  S11  1  0.02441799  0.89253158  0.70099669  1
  S  S12  1  0.50039441  0.25738716  0.43188773  1
  S  S13  1  0.49960559  0.74261284  0.56811227  1
  S  S14  1  0.46555683  0.33009474  0.79894079  1
  S  S15  1  0.53444317  0.66990526  0.20105921  1
  S  S16  1  0.90726356  0.36862714  0.36156074  1
  S  S17  1  0.09273644  0.63137286  0.63843926  1
loop_
_geom_bond_atom_site_label_1
_geom_bond_atom_site_label_2
_geom_bond_distance
_geom_bond_site_symmetry_2
Cs0 S12 3.531795 1_555
Cs0 S10 3.541248 1_555
Cs0 S15 3.655474 1_545
Cs0 S5 3.682103 1_545
Cs0 S13 3.684024 1_545
Cs0 S2 3.810793 1_545
Cs0 S3 3.812251 1_555
Cs0 S16 3.845599 1_555
Cs1 S13 3.531795 1_555
Cs1 S11 3.541248 1_555
Cs1 S14 3.655474 1_565
Cs1 S4 3.682103 1_565
Cs1 S12 3.684024 1_565
Cs1 S3 3.810793 1_565
Cs1 S2 3.812251 1_555
Cs1 S17 3.845599 1_555
Cs2 S16 3.492083 1_555
Cs2 S4 3.534472 1_554
Cs2 S14 3.550466 1_554
Cs2 S0 3.582241 1_555
Cs2 S15 3.600848 1_555
Cs2 S8 3.649086 1_555
Cs2 S7 3.653722 1_555
Cs3 S17 3.492083 1_555
Cs3 S5 3.534472 1_556
Cs3 S15 3.550466 1_556
Cs3 S1 3.582241 1_555
Cs3 S14 3.600848 1_555
Cs3 S9 3.649086 1_555
Cs3 S6 3.653722 1_555
Cs4 S15 3.468739 1_555
Cs4 S17 3.548995 1_655
Cs4 S11 3.618434 1_655
Cs4 S13 3.652426 1_555
Cs4 S12 3.767047 1_555
Cs4 S7 3.780385 1_555
Cs4 S16 3.802780 1_555
Cs5 S14 3.468739 1_555
Cs5 S16 3.548995 1_455
Cs5 S10 3.618434 1_455
Cs5 S12 3.652426 1_555
Cs5 S13 3.767047 1_555
Cs5 S6 3.780385 1_555
Cs5 S17 3.802780 1_555
Cs6 S3 3.649210 1_555
Cs6 S14 3.667091 1_555
Cs6 S9 3.708087 1_655
Cs6 S17 3.716477 1_655
Cs6 S8 3.716826 1_556
Cs6 S1 4.003572 1_555
Cs6 S6 4.049279 1_655
Cs6 S12 4.082821 1_555
Cs7 S2 3.649210 1_555
Cs7 S15 3.667091 1_555
Cs7 S8 3.708087 1_455
Cs7 S16 3.716477 1_455
Cs7 S9 3.716826 1_554
Cs7 S0 4.003572 1_555
Cs7 S7 4.049279 1_455
Cs7 S13 4.082821 1_555
B0 S0 1.859456 1_555
B1 S1 1.859456 1_555
B2 S2 1.870376 1_555
B3 S3 1.870376 1_555
B4 S4 1.853637 1_555
B5 S5 1.853637 1_555
B6 S6 1.862688 1_555
B7 S7 1.862688 1_555
B8 S8 1.863927 1_555
B9 S9 1.863927 1_555
B10 S10 1.852709 1_555
B11 S11 1.852709 1_555
B12 S12 1.767935 1_555
B12 S0 1.845584 1_555
B12 S2 1.860463 1_545
B13 S13 1.767935 1_555
B13 S1 1.845584 1_555
B13 S3 1.860463 1_565
B14 S14 1.767445 1_555
B14 S4 1.840919 1_555
B14 S6 1.859049 1_555
B14 Cs1 3.658821 1_545
B15 S15 1.767445 1_555
B15 S5 1.840919 1_555
B15 S7 1.859049 1_555
B15 Cs0 3.658821 1_565
B16 S16 1.759771 1_555
B16 S10 1.843156 1_555
B16 S8 1.864371 1_555
B16 Cs0 3.775775 1_555
B17 S17 1.759771 1_555
B17 S11 1.843156 1_555
B17 S9 1.864371 1_555
B17 Cs1 3.775775 1_555
