# generated using pymatgen
data_Mg14TiCr
_symmetry_space_group_name_H-M   'P 1'
_cell_length_a   6.32233123
_cell_length_b   6.28799285
_cell_length_c   10.08964157
_cell_angle_alpha   90.00000000
_cell_angle_beta   90.00000000
_cell_angle_gamma   119.82050190
_symmetry_Int_Tables_number   1
_chemical_formula_structural   Mg14TiCr
_chemical_formula_sum   'Mg14 Ti1 Cr1'
_cell_volume   347.99927764
_cell_formula_units_Z   1
loop_
 _symmetry_equiv_pos_site_id
 _symmetry_equiv_pos_as_xyz
  1  'x, y, z'
loop_
 _atom_site_type_symbol
 _atom_site_label
 _atom_site_symmetry_multiplicity
 _atom_site_fract_x
 _atom_site_fract_y
 _atom_site_fract_z
 _atom_site_occupancy
  Mg  Mg0  1  0.16726801  0.33363350  0.62500000  1
  Mg  Mg1  1  0.16696740  0.83348320  0.62500000  1
  Mg  Mg2  1  0.66485157  0.32820590  0.12500000  1
  Mg  Mg3  1  0.66570175  0.33305061  0.62500000  1
  Mg  Mg4  1  0.66485157  0.83664467  0.12500000  1
  Mg  Mg5  1  0.66570175  0.83265014  0.62500000  1
  Mg  Mg6  1  0.32744487  0.16427475  0.36661498  1
  Mg  Mg7  1  0.32744487  0.16427475  0.88338502  1
  Mg  Mg8  1  0.32744487  0.66317112  0.36661498  1
  Mg  Mg9  1  0.32744487  0.66317112  0.88338502  1
  Mg  Mg10  1  0.84015730  0.17007915  0.37251006  1
  Mg  Mg11  1  0.84015730  0.17007915  0.87748994  1
  Mg  Mg12  1  0.83956973  0.66978536  0.36888604  1
  Mg  Mg13  1  0.83956973  0.66978536  0.88111396  1
  Ti  Ti0  1  0.16520704  0.33260302  0.12500000  1
  Cr  Cr0  1  0.17021738  0.83510819  0.12500000  1
loop_
_geom_bond_atom_site_label_1
_geom_bond_atom_site_label_2
_geom_bond_distance
_geom_bond_site_symmetry_2
Mg0 Mg10 3.115974 1_455
Mg0 Mg11 3.115974 1_455
Mg0 Mg1 3.143997 1_545
Mg0 Mg1 3.143997 1_555
Mg0 Mg5 3.153087 1_555
Mg0 Mg3 3.153087 1_555
Mg0 Mg7 3.166814 1_555
Mg0 Mg6 3.166814 1_555
Mg0 Mg9 3.166820 1_555
Mg0 Mg8 3.166820 1_555
Mg0 Mg5 3.169247 1_445
Mg0 Mg3 3.169247 1_455
Mg1 Mg12 3.146837 1_455
Mg1 Mg13 3.146837 1_455
Mg1 Mg3 3.155772 1_565
Mg1 Mg5 3.155772 1_555
Mg1 Mg3 3.166566 1_455
Mg1 Mg5 3.166566 1_455
Mg1 Mg9 3.170714 1_555
Mg1 Mg8 3.170714 1_555
Mg1 Mg7 3.170720 1_565
Mg1 Mg6 3.170720 1_565
Mg2 Mg6 3.060887 1_555
Mg2 Mg7 3.060887 1_554
Mg2 Mg4 3.090933 1_545
Mg2 Ti0 3.149755 1_655
Mg2 Ti0 3.172758 1_555
Mg2 Mg4 3.197059 1_555
Mg3 Mg5 3.141478 1_555
Mg3 Mg5 3.146515 1_545
Mg3 Mg7 3.199847 1_555
Mg3 Mg6 3.199847 1_555
Mg4 Mg8 3.060887 1_555
Mg4 Mg9 3.060887 1_554
Mg4 Ti0 3.149755 1_665
Mg4 Ti0 3.172758 1_555
Mg5 Mg9 3.199847 1_555
Mg5 Mg8 3.199847 1_555
Mg6 Ti0 3.032342 1_555
Mg6 Mg8 3.137057 1_555
Mg6 Mg8 3.150936 1_545
Mg7 Ti0 3.032342 1_556
Mg7 Mg9 3.137057 1_555
Mg7 Mg9 3.150936 1_545
Mg8 Ti0 3.032349 1_555
Mg9 Ti0 3.032349 1_556
Mg10 Ti0 3.068448 1_655
Mg10 Mg2 3.090232 1_555
Mg10 Mg4 3.090239 1_545
Mg10 Mg8 3.099676 1_655
Mg10 Mg6 3.099676 1_655
Mg10 Mg3 3.143364 1_555
Mg10 Mg5 3.143370 1_545
Mg10 Mg12 3.144211 1_555
Mg10 Mg12 3.144211 1_545
Mg10 Mg8 3.224092 1_545
Mg10 Mg6 3.224092 1_555
Mg11 Ti0 3.068448 1_656
Mg11 Mg2 3.090232 1_556
Mg11 Mg4 3.090239 1_546
Mg11 Mg9 3.099676 1_655
Mg11 Mg7 3.099676 1_655
Mg11 Mg3 3.143364 1_555
Mg11 Mg5 3.143370 1_545
Mg11 Mg13 3.144211 1_555
Mg11 Mg13 3.144211 1_545
Mg11 Mg9 3.224092 1_545
Mg11 Mg7 3.224092 1_555
Mg12 Mg4 3.086890 1_555
Mg12 Mg2 3.086896 1_555
Mg12 Mg6 3.105484 1_665
Mg12 Mg8 3.105485 1_655
Mg12 Mg5 3.170852 1_555
Mg12 Mg3 3.170858 1_555
Mg12 Mg6 3.217424 1_555
Mg12 Mg8 3.217425 1_555
Mg13 Mg4 3.086890 1_556
Mg13 Mg2 3.086896 1_556
Mg13 Mg7 3.105484 1_665
Mg13 Mg9 3.105485 1_655
Mg13 Mg5 3.170852 1_555
Mg13 Mg3 3.170858 1_555
Mg13 Mg7 3.217424 1_555
Mg13 Mg9 3.217425 1_555
Cr0 Mg8 3.027996 1_555
Cr0 Mg9 3.027996 1_554
Cr0 Mg6 3.028002 1_565
Cr0 Mg7 3.028002 1_564
Cr0 Mg13 3.056881 1_454
Cr0 Mg12 3.056881 1_455
Cr0 Mg2 3.122448 1_565
Cr0 Mg4 3.122448 1_555
Cr0 Ti0 3.144117 1_555
Cr0 Ti0 3.144117 1_565
Cr0 Mg2 3.199905 1_455
Cr0 Mg4 3.199905 1_455
