# generated using pymatgen
data_VCdCoO5
_symmetry_space_group_name_H-M   'P 1'
_cell_length_a   5.94092400
_cell_length_b   8.00800900
_cell_length_c   8.84148400
_cell_angle_alpha   90.00000000
_cell_angle_beta   90.00000000
_cell_angle_gamma   90.00000000
_symmetry_Int_Tables_number   1
_chemical_formula_structural   VCdCoO5
_chemical_formula_sum   'V4 Cd4 Co4 O20'
_cell_volume   420.63336134
_cell_formula_units_Z   4
loop_
 _symmetry_equiv_pos_site_id
 _symmetry_equiv_pos_as_xyz
  1  'x, y, z'
loop_
 _atom_site_type_symbol
 _atom_site_label
 _atom_site_symmetry_multiplicity
 _atom_site_fract_x
 _atom_site_fract_y
 _atom_site_fract_z
 _atom_site_occupancy
  V  V0  1  0.75000000  0.34787700  0.68223400  1
  V  V1  1  0.75000000  0.84787700  0.81776600  1
  V  V2  1  0.25000000  0.65212300  0.31776600  1
  V  V3  1  0.25000000  0.15212300  0.18223400  1
  Cd  Cd0  1  0.25000000  0.63361600  0.68078000  1
  Cd  Cd1  1  0.25000000  0.13361600  0.81922000  1
  Cd  Cd2  1  0.75000000  0.36638400  0.31922000  1
  Cd  Cd3  1  0.75000000  0.86638400  0.18078000  1
  Co  Co0  1  0.00000000  0.00000000  0.50000000  1
  Co  Co1  1  0.50000000  0.50000000  0.00000000  1
  Co  Co2  1  0.50000000  0.00000000  0.50000000  1
  Co  Co3  1  0.00000000  0.50000000  0.00000000  1
  O  O0  1  0.50492200  0.36582900  0.79433700  1
  O  O1  1  0.99507800  0.86582900  0.70566300  1
  O  O2  1  0.00492200  0.63417100  0.20566300  1
  O  O3  1  0.49507800  0.13417100  0.29433700  1
  O  O4  1  0.49507800  0.63417100  0.20566300  1
  O  O5  1  0.00492200  0.13417100  0.29433700  1
  O  O6  1  0.99507800  0.36582900  0.79433700  1
  O  O7  1  0.50492200  0.86582900  0.70566300  1
  O  O8  1  0.75000000  0.15103300  0.59273700  1
  O  O9  1  0.75000000  0.65103300  0.90726300  1
  O  O10  1  0.25000000  0.84896700  0.40726300  1
  O  O11  1  0.25000000  0.34896700  0.09273700  1
  O  O12  1  0.25000000  0.11914100  0.57313600  1
  O  O13  1  0.25000000  0.61914100  0.92686400  1
  O  O14  1  0.75000000  0.88085900  0.42686400  1
  O  O15  1  0.75000000  0.38085900  0.07313600  1
  O  O16  1  0.75000000  0.49362900  0.53966100  1
  O  O17  1  0.75000000  0.99362900  0.96033900  1
  O  O18  1  0.25000000  0.50637100  0.46033900  1
  O  O19  1  0.25000000  0.00637100  0.03966100  1
loop_
_geom_bond_atom_site_label_1
_geom_bond_atom_site_label_2
_geom_bond_distance
_geom_bond_site_symmetry_2
Cd0 O13 2.178833 1_555
Cd0 O18 2.199322 1_555
Cd0 O1 2.408320 1_455
Cd0 O7 2.408320 1_555
Cd1 O12 2.178833 1_555
Cd1 O19 2.199322 1_556
Cd1 O0 2.408320 1_555
Cd1 O6 2.408320 1_455
Cd2 O15 2.178833 1_555
Cd2 O16 2.199322 1_555
Cd2 O5 2.408320 1_655
Cd2 O3 2.408320 1_555
Cd3 O14 2.178833 1_555
Cd3 O17 2.199322 1_554
Cd3 O2 2.408320 1_655
Cd3 O4 2.408320 1_555
Co0 O12 1.879977 1_555
Co0 O14 1.879977 1_445
Co0 O8 2.083513 1_455
Co0 O10 2.083513 1_545
Co0 O5 2.112282 1_555
Co0 O1 2.112282 1_445
Co1 O15 1.879977 1_555
Co1 O13 1.879977 1_554
Co1 O9 2.083513 1_554
Co1 O11 2.083513 1_555
Co1 O0 2.112282 1_554
Co1 O4 2.112282 1_555
Co2 O12 1.879977 1_555
Co2 O14 1.879977 1_545
Co2 O8 2.083513 1_555
Co2 O10 2.083513 1_545
Co2 O3 2.112282 1_555
Co2 O7 2.112282 1_545
Co3 O15 1.879977 1_455
Co3 O13 1.879977 1_554
Co3 O9 2.083513 1_454
Co3 O11 2.083513 1_555
Co3 O2 2.112282 1_555
Co3 O6 2.112282 1_454
O0 V0 1.767191 1_555
O1 V1 1.767191 1_555
O2 V2 1.767191 1_555
O3 V3 1.767191 1_555
O4 V2 1.767191 1_555
O5 V3 1.767191 1_555
O6 V0 1.767191 1_555
O7 V1 1.767191 1_555
O8 V0 1.763787 1_555
O9 V1 1.763787 1_555
O10 V2 1.763787 1_555
O11 V3 1.763787 1_555
O16 V0 1.717941 1_555
O17 V1 1.717941 1_555
O18 V2 1.717941 1_555
O19 V3 1.717941 1_555
