# generated using pymatgen
data_Zn3As4W3O16
_symmetry_space_group_name_H-M   'P 1'
_cell_length_a   5.25264700
_cell_length_b   10.13659200
_cell_length_c   15.91168297
_cell_angle_alpha   71.63872006
_cell_angle_beta   90.00000000
_cell_angle_gamma   90.00000000
_symmetry_Int_Tables_number   1
_chemical_formula_structural   Zn3As4W3O16
_chemical_formula_sum   'Zn6 As8 W6 O32'
_cell_volume   804.06894386
_cell_formula_units_Z   2
loop_
 _symmetry_equiv_pos_site_id
 _symmetry_equiv_pos_as_xyz
  1  'x, y, z'
loop_
 _atom_site_type_symbol
 _atom_site_label
 _atom_site_symmetry_multiplicity
 _atom_site_fract_x
 _atom_site_fract_y
 _atom_site_fract_z
 _atom_site_occupancy
  Zn  Zn0  1  0.43429600  0.26024200  0.21681100  1
  Zn  Zn1  1  0.93429600  0.73975800  0.28318900  1
  Zn  Zn2  1  0.56570400  0.73975800  0.78318900  1
  Zn  Zn3  1  0.06570400  0.26024200  0.71681100  1
  Zn  Zn4  1  0.50000000  0.00000000  0.50000000  1
  Zn  Zn5  1  0.00000000  0.00000000  0.00000000  1
  As  As0  1  0.92990500  0.06929400  0.32915600  1
  As  As1  1  0.33347700  0.36163800  0.39364900  1
  As  As2  1  0.83347700  0.63836200  0.10635100  1
  As  As3  1  0.16652300  0.36163800  0.89364900  1
  As  As4  1  0.07009500  0.93070600  0.67084400  1
  As  As5  1  0.66652300  0.63836200  0.60635100  1
  As  As6  1  0.57009500  0.06929400  0.82915600  1
  As  As7  1  0.42990500  0.93070600  0.17084400  1
  W  W0  1  0.51129400  0.21964400  0.60339400  1
  W  W1  1  0.48870600  0.78035600  0.39660600  1
  W  W2  1  0.01129400  0.78035600  0.89660600  1
  W  W3  1  0.98870600  0.21964400  0.10339400  1
  W  W4  1  0.00000000  0.50000000  0.50000000  1
  W  W5  1  0.50000000  0.50000000  0.00000000  1
  O  O0  1  0.29831600  0.78286500  0.28962400  1
  O  O1  1  0.83157100  0.79093400  0.01125600  1
  O  O2  1  0.23295700  0.29512900  0.31069600  1
  O  O3  1  0.25188100  0.09977300  0.18159600  1
  O  O4  1  0.76704300  0.70487100  0.68930400  1
  O  O5  1  0.20168400  0.78286500  0.78962400  1
  O  O6  1  0.73295700  0.70487100  0.18930400  1
  O  O7  1  0.72173600  0.63420300  0.90250600  1
  O  O8  1  0.77157100  0.11119500  0.89956700  1
  O  O9  1  0.70168400  0.21713500  0.71037600  1
  O  O10  1  0.24811900  0.09977300  0.68159600  1
  O  O11  1  0.27826400  0.36579700  0.09749400  1
  O  O12  1  0.29310700  0.63144100  0.46612400  1
  O  O13  1  0.22842900  0.88880500  0.10043300  1
  O  O14  1  0.69046500  0.07519900  0.58838000  1
  O  O15  1  0.19046500  0.92480100  0.91162000  1
  O  O16  1  0.79310700  0.36855900  0.03387600  1
  O  O17  1  0.26704300  0.29512900  0.81069600  1
  O  O18  1  0.27157100  0.88880500  0.60043300  1
  O  O19  1  0.22173600  0.36579700  0.59749400  1
  O  O20  1  0.80953500  0.07519900  0.08838000  1
  O  O21  1  0.30953500  0.92480100  0.41162000  1
  O  O22  1  0.16842900  0.20906600  0.98874400  1
  O  O23  1  0.33157100  0.20906600  0.48874400  1
  O  O24  1  0.70689300  0.36855900  0.53387600  1
  O  O25  1  0.79831600  0.21713500  0.21037600  1
  O  O26  1  0.74811900  0.90022700  0.81840400  1
  O  O27  1  0.72842900  0.11119500  0.39956700  1
  O  O28  1  0.66842900  0.79093400  0.51125600  1
  O  O29  1  0.77826400  0.63420300  0.40250600  1
  O  O30  1  0.20689300  0.63144100  0.96612400  1
  O  O31  1  0.75188100  0.90022700  0.31840400  1
loop_
_geom_bond_atom_site_label_1
_geom_bond_atom_site_label_2
_geom_bond_distance
_geom_bond_site_symmetry_2
As0 O27 1.689780 1_555
As0 O31 2.006334 1_545
As0 O25 2.123958 1_555
As1 O2 1.742443 1_555
As1 O23 1.790856 1_555
As2 O6 1.742443 1_555
As2 O1 1.790856 1_555
As3 O17 1.742443 1_555
As3 O22 1.790856 1_555
As4 O18 1.689780 1_555
As4 O10 2.006334 1_565
As4 O5 2.123958 1_555
As5 O4 1.742443 1_555
As5 O28 1.790856 1_555
As6 O8 1.689780 1_555
As6 O26 2.006334 1_545
As6 O9 2.123958 1_555
As7 O13 1.689780 1_555
As7 O3 2.006334 1_565
As7 O0 2.123958 1_555
O0 W1 1.967530 1_555
O0 Zn1 1.971195 1_455
O1 W2 2.086597 1_654
O1 Zn5 2.250938 1_665
O2 Zn0 1.951401 1_555
O3 W3 1.995783 1_455
O3 Zn0 2.110005 1_555
O4 Zn2 1.951401 1_555
O5 W2 1.967530 1_555
O5 Zn2 1.971195 1_555
O6 Zn1 1.951401 1_555
O7 Zn2 2.034989 1_555
O7 W5 2.069804 1_556
O7 W2 2.104588 1_655
O8 Zn5 2.032014 1_656
O9 W0 1.967530 1_555
O9 Zn3 1.971195 1_655
O10 W0 1.995783 1_555
O10 Zn3 2.110005 1_555
O11 Zn0 2.034989 1_555
O11 W5 2.069804 1_555
O11 W3 2.104588 1_455
O12 W1 1.872366 1_555
O12 W4 1.995898 1_555
O13 Zn5 2.032014 1_565
O14 W0 1.818510 1_555
O14 Zn4 2.057884 1_555
O15 W2 1.818510 1_555
O15 Zn5 2.057884 1_566
O16 W3 1.872366 1_555
O16 W5 1.995898 1_555
O17 Zn3 1.951401 1_555
O18 Zn4 2.032014 1_565
O19 Zn3 2.034989 1_555
O19 W4 2.069804 1_555
O19 W0 2.104588 1_555
O20 W3 1.818510 1_555
O20 Zn5 2.057884 1_655
O21 W1 1.818510 1_555
O21 Zn4 2.057884 1_565
O22 W3 2.086597 1_456
O22 Zn5 2.250938 1_556
O23 W0 2.086597 1_555
O23 Zn4 2.250938 1_555
O24 W0 1.872366 1_555
O24 W4 1.995898 1_655
O25 W3 1.967530 1_555
O25 Zn0 1.971195 1_555
O26 W2 1.995783 1_655
O26 Zn2 2.110005 1_555
O27 Zn4 2.032014 1_555
O28 W1 2.086597 1_555
O28 Zn4 2.250938 1_565
O29 Zn1 2.034989 1_555
O29 W4 2.069804 1_655
O29 W1 2.104588 1_555
O30 W2 1.872366 1_555
O30 W5 1.995898 1_556
O31 W1 1.995783 1_555
O31 Zn1 2.110005 1_555
