# generated using pymatgen
data_Nd4MnSe6O
_symmetry_space_group_name_H-M   'P 1'
_cell_length_a   9.71456022
_cell_length_b   9.71456022
_cell_length_c   7.04739200
_cell_angle_alpha   90.00000000
_cell_angle_beta   90.00000000
_cell_angle_gamma   120.00000149
_symmetry_Int_Tables_number   1
_chemical_formula_structural   Nd4MnSe6O
_chemical_formula_sum   'Nd8 Mn2 Se12 O2'
_cell_volume   575.97726834
_cell_formula_units_Z   2
loop_
 _symmetry_equiv_pos_site_id
 _symmetry_equiv_pos_as_xyz
  1  'x, y, z'
loop_
 _atom_site_type_symbol
 _atom_site_label
 _atom_site_symmetry_multiplicity
 _atom_site_fract_x
 _atom_site_fract_y
 _atom_site_fract_z
 _atom_site_occupancy
  Nd  Nd0  1  0.33333300  0.66666700  0.29351100  1
  Nd  Nd1  1  0.66666700  0.33333300  0.79351100  1
  Nd  Nd2  1  0.79884200  0.20115800  0.33884700  1
  Nd  Nd3  1  0.59768500  0.79884200  0.83884700  1
  Nd  Nd4  1  0.20115800  0.40231500  0.83884700  1
  Nd  Nd5  1  0.79884200  0.59768500  0.33884700  1
  Nd  Nd6  1  0.40231500  0.20115800  0.33884700  1
  Nd  Nd7  1  0.20115800  0.79884200  0.83884700  1
  Mn  Mn0  1  0.00000000  0.00000000  0.50231200  1
  Mn  Mn1  1  0.00000000  0.00000000  0.00231200  1
  Se  Se0  1  0.46889400  0.93778700  0.55549000  1
  Se  Se1  1  0.53110600  0.06221300  0.05549000  1
  Se  Se2  1  0.93778700  0.46889400  0.05549000  1
  Se  Se3  1  0.46889400  0.53110600  0.55549000  1
  Se  Se4  1  0.06221300  0.53110600  0.55549000  1
  Se  Se5  1  0.53110600  0.46889400  0.05549000  1
  Se  Se6  1  0.87200500  0.12799500  0.73495500  1
  Se  Se7  1  0.74400900  0.87200500  0.23495500  1
  Se  Se8  1  0.12799500  0.25599100  0.23495500  1
  Se  Se9  1  0.87200500  0.74400900  0.73495500  1
  Se  Se10  1  0.25599100  0.12799500  0.73495500  1
  Se  Se11  1  0.12799500  0.87200500  0.23495500  1
  O  O0  1  0.33333300  0.66666700  0.95814200  1
  O  O1  1  0.66666700  0.33333300  0.45814200  1
loop_
_geom_bond_atom_site_label_1
_geom_bond_atom_site_label_2
_geom_bond_distance
_geom_bond_site_symmetry_2
Nd0 O0 2.363477 1_554
Nd0 Se0 2.934524 1_555
Nd0 Se4 2.934524 1_555
Nd0 Se3 2.934537 1_555
Nd0 Se7 3.479597 1_555
Nd0 Se8 3.479597 1_555
Nd0 Se11 3.479597 1_555
Nd1 O1 2.363477 1_555
Nd1 Se2 2.934524 1_556
Nd1 Se1 2.934524 1_556
Nd1 Se5 2.934537 1_556
Nd1 Se9 3.479597 1_555
Nd1 Se10 3.479597 1_555
Nd1 Se6 3.479597 1_555
Nd2 O1 2.377592 1_555
Nd2 Se1 3.010616 1_555
Nd2 Se2 3.010616 1_555
Nd2 Se6 3.050920 1_555
Nd2 Se7 3.056310 1_545
Nd2 Se8 3.056310 1_655
Nd2 Se0 3.309108 1_545
Nd2 Se4 3.309108 1_655
Nd3 O0 2.377608 1_555
Nd3 Se3 3.010616 1_555
Nd3 Se0 3.010616 1_555
Nd3 Se7 3.050913 1_556
Nd3 Se6 3.056310 1_565
Nd3 Se9 3.056310 1_555
Nd3 Se5 3.309102 1_556
Nd3 Se1 3.309119 1_566
Nd4 O0 2.377608 1_555
Nd4 Se3 3.010616 1_555
Nd4 Se4 3.010616 1_555
Nd4 Se8 3.050913 1_556
Nd4 Se6 3.056310 1_455
Nd4 Se10 3.056310 1_555
Nd4 Se5 3.309102 1_556
Nd4 Se2 3.309119 1_456
Nd5 O1 2.377608 1_555
Nd5 Se5 3.010616 1_555
Nd5 Se2 3.010616 1_555
Nd5 Se9 3.050913 1_555
Nd5 Se11 3.056310 1_655
Nd5 Se7 3.056310 1_555
Nd5 Se3 3.309102 1_555
Nd5 Se4 3.309119 1_655
Nd6 O1 2.377608 1_555
Nd6 Se5 3.010616 1_555
Nd6 Se1 3.010616 1_555
Nd6 Se10 3.050913 1_555
Nd6 Se11 3.056310 1_545
Nd6 Se8 3.056310 1_555
Nd6 Se3 3.309102 1_555
Nd6 Se0 3.309119 1_545
Nd7 O0 2.377592 1_555
Nd7 Se4 3.010616 1_555
Nd7 Se0 3.010616 1_555
Nd7 Se11 3.050920 1_556
Nd7 Se9 3.056310 1_455
Nd7 Se10 3.056310 1_565
Nd7 Se2 3.309108 1_456
Nd7 Se1 3.309108 1_566
Mn0 Se6 2.706712 1_455
Mn0 Se10 2.706719 1_555
Mn0 Se9 2.706719 1_445
Mn0 Se11 2.861527 1_545
Mn0 Se8 2.861534 1_555
Mn0 Se7 2.861534 1_445
Mn1 Se11 2.706712 1_545
Mn1 Se8 2.706719 1_555
Mn1 Se7 2.706719 1_445
Mn1 Se6 2.861527 1_454
Mn1 Se10 2.861534 1_554
Mn1 Se9 2.861534 1_444
