# generated using pymatgen
data_V2O5
_symmetry_space_group_name_H-M   'P 1'
_cell_length_a   13.01216422
_cell_length_b   11.84205109
_cell_length_c   11.92219025
_cell_angle_alpha   83.15810135
_cell_angle_beta   84.52736388
_cell_angle_gamma   89.20855951
_symmetry_Int_Tables_number   1
_chemical_formula_structural   V2O5
_chemical_formula_sum   'V30 O75'
_cell_volume   1815.69648654
_cell_formula_units_Z   15
loop_
 _symmetry_equiv_pos_site_id
 _symmetry_equiv_pos_as_xyz
  1  'x, y, z'
loop_
 _atom_site_type_symbol
 _atom_site_label
 _atom_site_symmetry_multiplicity
 _atom_site_fract_x
 _atom_site_fract_y
 _atom_site_fract_z
 _atom_site_occupancy
  V  V0  1  0.95234069  0.92700382  0.33029700  1
  V  V1  1  0.12151165  0.82860480  0.72744433  1
  V  V2  1  0.16249779  0.10931474  0.29460348  1
  V  V3  1  0.77679014  0.13811627  0.23837547  1
  V  V4  1  0.95520471  0.02102943  0.81609861  1
  V  V5  1  0.80718893  0.83130230  0.99213039  1
  V  V6  1  0.98888304  0.62001070  0.90456209  1
  V  V7  1  0.35473904  0.68075428  0.12458157  1
  V  V8  1  0.79156927  0.14553583  0.52434474  1
  V  V9  1  0.38545383  0.41376421  0.04162535  1
  V  V10  1  0.46396861  0.02141440  0.62141957  1
  V  V11  1  0.38031563  0.95891918  0.37387980  1
  V  V12  1  0.34507105  0.85327472  0.87094949  1
  V  V13  1  0.38956365  0.13694817  0.98517869  1
  V  V14  1  0.09562187  0.39687170  0.75604605  1
  V  V15  1  0.99354675  0.23125351  0.61571425  1
  V  V16  1  0.82962072  0.72117125  0.25487261  1
  V  V17  1  0.15728704  0.26064859  0.00894388  1
  V  V18  1  0.49598881  0.61271223  0.36525909  1
  V  V19  1  0.56558081  0.21446673  0.76098483  1
  V  V20  1  0.31398893  0.47344864  0.57598613  1
  V  V21  1  0.31787931  0.72357824  0.57782764  1
  V  V22  1  0.72565671  0.60941211  0.50658686  1
  V  V23  1  0.91074539  0.37486802  0.10220558  1
  V  V24  1  0.67995278  0.48894106  0.75332283  1
  V  V25  1  0.15445082  0.36355328  0.43566558  1
  V  V26  1  0.67950373  0.89788502  0.54416764  1
  V  V27  1  0.53563038  0.89121966  0.00674653  1
  V  V28  1  0.76069950  0.57669217  0.99643059  1
  V  V29  1  0.61358679  0.41822156  0.18656702  1
  O  O0  1  0.13959840  0.45911338  0.33140754  1
  O  O1  1  0.13929937  0.16099393  0.16150641  1
  O  O2  1  0.98159579  0.34656309  0.72230256  1
  O  O3  1  0.86774308  0.89659484  0.07682040  1
  O  O4  1  0.80749529  0.60980860  0.37638680  1
  O  O5  1  0.76813190  0.51686027  0.62316623  1
  O  O6  1  0.23540280  0.35795302  0.04526587  1
  O  O7  1  0.02759239  0.72621887  0.77543435  1
  O  O8  1  0.71930359  0.74855454  0.54885908  1
  O  O9  1  0.16477812  0.22361431  0.37577248  1
  O  O10  1  0.67276100  0.87401581  0.00636504  1
  O  O11  1  0.34981816  0.72721836  0.95925357  1
  O  O12  1  0.59853597  0.59284262  0.75087762  1
  O  O13  1  0.51325359  0.42130772  0.09444182  1
  O  O14  1  0.31555442  0.94807340  0.95698452  1
  O  O15  1  0.44284536  0.19491267  0.84931669  1
  O  O16  1  0.39697113  0.59969026  0.49601122  1
  O  O17  1  0.48109280  0.02835347  0.03264646  1
  O  O18  1  0.64768845  0.63564894  0.99948087  1
  O  O19  1  0.25059030  0.74157270  0.17017869  1
  O  O20  1  0.91429262  0.49648111  0.98822193  1
  O  O21  1  0.02692561  0.30597321  0.04664029  1
  O  O22  1  0.34742692  0.82185321  0.44017193  1
  O  O23  1  0.55025503  0.73501925  0.34985454  1
  O  O24  1  0.40864795  0.44835802  0.90776312  1
  O  O25  1  0.07532740  0.99672073  0.34381668  1
  O  O26  1  0.38758371  0.39791445  0.65714342  1
  O  O27  1  0.83041735  0.24810126  0.13338067  1
  O  O28  1  0.65531713  0.94668171  0.41843600  1
  O  O29  1  0.15384022  0.29721470  0.85609284  1
  O  O30  1  0.64146424  0.12854887  0.82851262  1
  O  O31  1  0.85443180  0.69403141  0.91568205  1
  O  O32  1  0.49792470  0.86977124  0.87727999  1
  O  O33  1  0.25816165  0.59705730  0.64781924  1
  O  O34  1  0.74231881  0.81361905  0.28077312  1
  O  O35  1  0.41242482  0.03884653  0.48827660  1
  O  O36  1  0.28362904  0.04077365  0.29502987  1
  O  O37  1  0.74299003  0.45591962  0.11202399  1
  O  O38  1  0.60905516  0.56408633  0.48855389  1
  O  O39  1  0.92719982  0.15422908  0.51402554  1
  O  O40  1  0.80640370  0.68332831  0.11678486  1
  O  O41  1  0.75144953  0.00486790  0.59496297  1
  O  O42  1  0.93849964  0.41934554  0.21810356  1
  O  O43  1  0.91158754  0.14289640  0.73652444  1
  O  O44  1  0.85402325  0.91737422  0.86049521  1
  O  O45  1  0.32838392  0.53466524  0.09914736  1
  O  O46  1  0.88290691  0.03582798  0.25617764  1
  O  O47  1  0.29082389  0.39358172  0.46071646  1
  O  O48  1  0.05329770  0.95783344  0.72027571  1
  O  O49  1  0.05672189  0.66166015  0.99690725  1
  O  O50  1  0.40774726  0.62947774  0.26041933  1
  O  O51  1  0.16955640  0.41885573  0.62416607  1
  O  O52  1  0.47897705  0.95131429  0.28360090  1
  O  O53  1  0.74055096  0.24267162  0.59945336  1
  O  O54  1  0.89646815  0.89997504  0.45810022  1
  O  O55  1  0.25397141  0.14693854  0.98124610  1
  O  O56  1  0.10778004  0.17791302  0.62586131  1
  O  O57  1  0.95116047  0.79382741  0.26926258  1
  O  O58  1  0.75130530  0.16899871  0.38503684  1
  O  O59  1  0.62639495  0.28818113  0.24506296  1
  O  O60  1  0.19053736  0.80643131  0.59935218  1
  O  O61  1  0.52739848  0.14953715  0.63836289  1
  O  O62  1  0.75035411  0.49656610  0.87200296  1
  O  O63  1  0.38450408  0.76681080  0.67362587  1
  O  O64  1  0.40536180  0.24274934  0.06579624  1
  O  O65  1  0.02324288  0.35039700  0.50349430  1
  O  O66  1  0.00863109  0.05541995  0.92480243  1
  O  O67  1  0.68871978  0.07094709  0.18781730  1
  O  O68  1  0.37399531  0.98407022  0.72881921  1
  O  O69  1  0.57854171  0.50660181  0.29246425  1
  O  O70  1  0.55485061  0.90943196  0.62582561  1
  O  O71  1  0.47143123  0.78929121  0.09893724  1
  O  O72  1  0.06944230  0.51702576  0.82256418  1
  O  O73  1  0.60800581  0.35726223  0.75965773  1
  O  O74  1  0.21260924  0.83022482  0.82206421  1
loop_
_geom_bond_atom_site_label_1
_geom_bond_atom_site_label_2
_geom_bond_distance
_geom_bond_site_symmetry_2
O0 V25 1.602368 1_555
O1 V2 1.684783 1_555
O1 V17 2.042250 1_555
O2 V14 1.706924 1_655
O2 V15 1.968122 1_555
O3 V5 1.610201 1_554
O4 V22 1.796295 1_555
O4 V16 1.842968 1_555
O5 V22 1.790338 1_555
O5 V24 1.839132 1_555
O6 V17 1.668431 1_555
O6 V9 2.064839 1_555
O7 V1 1.741609 1_555
O7 V6 1.901014 1_455
O8 V22 1.778199 1_555
O8 V26 1.831708 1_555
O9 V2 1.757296 1_555
O9 V25 1.879258 1_555
O10 V27 1.792796 1_555
O10 V5 1.812107 1_554
O11 V12 1.725087 1_555
O11 V7 1.989139 1_556
O12 V24 1.611966 1_555
O13 V29 1.781788 1_555
O13 V9 1.840417 1_555
O14 V12 1.627016 1_555
O15 V13 1.763392 1_555
O15 V19 1.828812 1_555
O16 V18 1.918066 1_555
O16 V20 1.954109 1_555
O16 V21 2.066578 1_555
O17 V27 1.811627 1_545
O17 V13 1.818058 1_554
O18 V28 1.618232 1_555
O19 V7 1.605178 1_555
O20 V23 1.856460 1_556
O20 V6 1.893068 1_555
O20 V28 2.199667 1_555
O21 V17 1.803984 1_555
O21 V23 1.814816 1_455
O22 V11 1.758240 1_555
O22 V21 1.905923 1_555
O23 V18 1.603197 1_555
O24 V9 1.600524 1_556
O25 V2 1.771182 1_565
O25 V0 1.840115 1_455
O26 V20 1.612515 1_555
O27 V3 1.794512 1_555
O27 V23 1.822229 1_555
O28 V26 1.599542 1_555
O29 V14 1.789301 1_555
O29 V17 1.826857 1_556
O30 V19 1.608424 1_555
O31 V6 1.946219 1_555
O31 V28 1.961966 1_555
O31 V5 2.017327 1_555
O32 V27 1.711433 1_556
O32 V12 2.010644 1_555
O33 V21 1.776383 1_555
O33 V20 1.885321 1_555
O34 V16 1.601132 1_555
O35 V10 1.770118 1_555
O35 V11 1.832412 1_545
O36 V2 1.763058 1_555
O36 V11 1.838728 1_545
O37 V29 1.861492 1_555
O37 V28 1.864595 1_554
O37 V23 2.370650 1_555
O38 V22 1.657874 1_555
O38 V18 2.200973 1_555
O39 V8 1.760967 1_555
O39 V15 1.879350 1_555
O40 V16 1.810197 1_555
O40 V28 2.149989 1_554
O40 V5 2.157890 1_554
O41 V26 1.780979 1_545
O41 V8 1.833652 1_555
O42 V23 1.609638 1_555
O43 V4 1.748917 1_555
O43 V15 1.919753 1_555
O44 V4 1.810311 1_565
O44 V5 1.823967 1_555
O45 V9 1.782976 1_555
O45 V7 1.834025 1_555
O46 V0 1.762580 1_545
O46 V3 1.835041 1_555
O47 V20 1.808467 1_555
O47 V25 1.873060 1_555
O48 V1 1.755807 1_555
O48 V4 1.842161 1_465
O49 V6 1.600423 1_455
O50 V18 1.768738 1_555
O50 V7 1.853212 1_555
O51 V14 1.756789 1_555
O51 V20 2.004780 1_555
O51 V25 2.440600 1_555
O52 V11 1.603452 1_555
O53 V8 1.636047 1_555
O54 V0 1.622217 1_555
O55 V13 1.771387 1_555
O55 V17 1.866794 1_556
O56 V15 1.616551 1_455
O57 V0 1.814702 1_555
O57 V16 1.842649 1_555
O58 V8 1.778240 1_555
O58 V3 1.827419 1_555
O59 V29 1.626276 1_555
O60 V1 1.742187 1_555
O60 V21 1.925646 1_555
O61 V10 1.778608 1_555
O61 V19 1.841788 1_555
O62 V24 1.768989 1_555
O62 V28 1.869776 1_555
O63 V21 1.630511 1_555
O63 V12 2.678661 1_555
O64 V13 1.693377 1_554
O64 V9 2.027843 1_555
O65 V25 1.818536 1_555
O65 V15 1.843002 1_455
O66 V4 1.623009 1_455
O67 V3 1.606386 1_555
O68 V10 1.673080 1_565
O68 V12 2.163601 1_555
O69 V29 1.757592 1_555
O69 V18 1.879035 1_555
O70 V10 1.764004 1_565
O70 V26 1.822575 1_555
O71 V27 1.702785 1_555
O71 V7 1.980607 1_555
O72 V14 1.724370 1_555
O72 V6 1.896077 1_455
O73 V19 1.783872 1_555
O73 V24 1.820026 1_555
O74 V1 1.714317 1_555
O74 V12 1.904611 1_555
