# generated using pymatgen
data_Al5WN7
_symmetry_space_group_name_H-M   'P 1'
_cell_length_a   11.17888600
_cell_length_b   21.16582500
_cell_length_c   5.25090300
_cell_angle_alpha   90.00000000
_cell_angle_beta   90.00000000
_cell_angle_gamma   90.00000000
_symmetry_Int_Tables_number   1
_chemical_formula_structural   Al5WN7
_chemical_formula_sum   'Al40 W8 N56'
_cell_volume   1242.41796919
_cell_formula_units_Z   8
loop_
 _symmetry_equiv_pos_site_id
 _symmetry_equiv_pos_as_xyz
  1  'x, y, z'
loop_
 _atom_site_type_symbol
 _atom_site_label
 _atom_site_symmetry_multiplicity
 _atom_site_fract_x
 _atom_site_fract_y
 _atom_site_fract_z
 _atom_site_occupancy
  Al  Al0  1  0.57942100  0.80550800  0.81109800  1
  Al  Al1  1  0.42057900  0.19449200  0.31109800  1
  Al  Al2  1  0.92057900  0.30550800  0.31109800  1
  Al  Al3  1  0.07942100  0.69449200  0.81109800  1
  Al  Al4  1  0.14959800  0.65847400  0.24527900  1
  Al  Al5  1  0.85040200  0.34152600  0.74527900  1
  Al  Al6  1  0.35040200  0.15847400  0.74527900  1
  Al  Al7  1  0.64959800  0.84152600  0.24527900  1
  Al  Al8  1  0.87732600  0.78964100  0.95458800  1
  Al  Al9  1  0.12267400  0.21035900  0.45458800  1
  Al  Al10  1  0.62267400  0.28964100  0.45458800  1
  Al  Al11  1  0.37732600  0.71035900  0.95458800  1
  Al  Al12  1  0.34583200  0.77555500  0.46546000  1
  Al  Al13  1  0.65416800  0.22444500  0.96546000  1
  Al  Al14  1  0.15416800  0.27555500  0.96546000  1
  Al  Al15  1  0.84583200  0.72444500  0.46546000  1
  Al  Al16  1  0.05135400  0.97518100  0.48593000  1
  Al  Al17  1  0.94864600  0.02481900  0.98593000  1
  Al  Al18  1  0.44864600  0.47518100  0.98593000  1
  Al  Al19  1  0.55135400  0.52481900  0.48593000  1
  Al  Al20  1  0.50202200  0.04524900  0.46258200  1
  Al  Al21  1  0.49797800  0.95475100  0.96258200  1
  Al  Al22  1  0.99797800  0.54524900  0.96258200  1
  Al  Al23  1  0.00202200  0.45475100  0.46258200  1
  Al  Al24  1  0.65617300  0.14745100  0.46820400  1
  Al  Al25  1  0.34382700  0.85254900  0.96820400  1
  Al  Al26  1  0.84382700  0.64745100  0.96820400  1
  Al  Al27  1  0.15617300  0.35254900  0.46820400  1
  Al  Al28  1  0.68276600  0.06395600  0.94261500  1
  Al  Al29  1  0.31723400  0.93604400  0.44261500  1
  Al  Al30  1  0.81723400  0.56395600  0.44261500  1
  Al  Al31  1  0.18276600  0.43604400  0.94261500  1
  Al  Al32  1  0.93842800  0.10585500  0.46338900  1
  Al  Al33  1  0.06157200  0.89414500  0.96338900  1
  Al  Al34  1  0.56157200  0.60585500  0.96338900  1
  Al  Al35  1  0.43842800  0.39414500  0.46338900  1
  Al  Al36  1  0.88771600  0.86406400  0.44682800  1
  Al  Al37  1  0.11228400  0.13593600  0.94682800  1
  Al  Al38  1  0.61228400  0.36406400  0.94682800  1
  Al  Al39  1  0.38771600  0.63593600  0.44682800  1
  W  W0  1  0.74738600  0.99176100  0.50467100  1
  W  W1  1  0.25261400  0.00823900  0.00467100  1
  W  W2  1  0.75261400  0.49176100  0.00467100  1
  W  W3  1  0.24738600  0.50823900  0.50467100  1
  W  W4  1  0.11183000  0.81999200  0.50468000  1
  W  W5  1  0.88817000  0.18000800  0.00468000  1
  W  W6  1  0.38817000  0.31999200  0.00468000  1
  W  W7  1  0.61183000  0.68000800  0.50468000  1
  N  N0  1  0.74115500  0.90711400  0.41088500  1
  N  N1  1  0.25884500  0.09288600  0.91088500  1
  N  N2  1  0.75884500  0.40711400  0.91088500  1
  N  N3  1  0.24115500  0.59288600  0.41088500  1
  N  N4  1  0.71945100  0.80210500  0.98155200  1
  N  N5  1  0.28054900  0.19789500  0.48155200  1
  N  N6  1  0.78054900  0.30210500  0.48155200  1
  N  N7  1  0.21945100  0.69789500  0.98155200  1
  N  N8  1  0.91614200  0.02058600  0.34932200  1
  N  N9  1  0.08385800  0.97941400  0.84932200  1
  N  N10  1  0.58385800  0.52058600  0.84932200  1
  N  N11  1  0.41614200  0.47941400  0.34932200  1
  N  N12  1  0.48078100  0.12817700  0.55460600  1
  N  N13  1  0.51921900  0.87182300  0.05460600  1
  N  N14  1  0.01921900  0.62817700  0.05460600  1
  N  N15  1  0.98078100  0.37182300  0.55460600  1
  N  N16  1  0.95583600  0.85122800  0.75803700  1
  N  N17  1  0.04416400  0.14877200  0.25803700  1
  N  N18  1  0.54416400  0.35122800  0.25803700  1
  N  N19  1  0.45583600  0.64877200  0.75803700  1
  N  N20  1  0.41416800  0.78580500  0.77944700  1
  N  N21  1  0.58583200  0.21419500  0.27944700  1
  N  N22  1  0.08583200  0.28580500  0.27944700  1
  N  N23  1  0.91416800  0.71419500  0.77944700  1
  N  N24  1  0.27980300  0.85074300  0.32273000  1
  N  N25  1  0.72019700  0.14925700  0.82273000  1
  N  N26  1  0.22019700  0.35074300  0.82273000  1
  N  N27  1  0.77980300  0.64925700  0.32273000  1
  N  N28  1  0.14714200  0.73168800  0.48636300  1
  N  N29  1  0.85285800  0.26831200  0.98636300  1
  N  N30  1  0.35285800  0.23168800  0.98636300  1
  N  N31  1  0.64714200  0.76831200  0.48636300  1
  N  N32  1  0.58291400  0.00825200  0.73978500  1
  N  N33  1  0.41708600  0.99174800  0.23978500  1
  N  N34  1  0.91708600  0.50825200  0.23978500  1
  N  N35  1  0.08291400  0.49174800  0.73978500  1
  N  N36  1  0.34046400  0.94343400  0.79925200  1
  N  N37  1  0.65953600  0.05656600  0.29925200  1
  N  N38  1  0.15953600  0.44343400  0.29925200  1
  N  N39  1  0.84046400  0.55656600  0.79925200  1
  N  N40  1  0.03285100  0.89767800  0.31480300  1
  N  N41  1  0.96714900  0.10232200  0.81480300  1
  N  N42  1  0.46714900  0.39767800  0.81480300  1
  N  N43  1  0.53285100  0.60232200  0.31480300  1
  N  N44  1  0.81743000  0.15508000  0.30965700  1
  N  N45  1  0.18257000  0.84492000  0.80965700  1
  N  N46  1  0.68257000  0.65508000  0.80965700  1
  N  N47  1  0.31743000  0.34492000  0.30965700  1
  N  N48  1  0.80664900  0.00516900  0.82855000  1
  N  N49  1  0.19335100  0.99483100  0.32855000  1
  N  N50  1  0.69335100  0.50516900  0.32855000  1
  N  N51  1  0.30664900  0.49483100  0.82855000  1
  N  N52  1  0.92775300  0.78676800  0.29941600  1
  N  N53  1  0.07224700  0.21323200  0.79941600  1
  N  N54  1  0.57224700  0.28676800  0.79941600  1
  N  N55  1  0.42775300  0.71323200  0.29941600  1
loop_
_geom_bond_atom_site_label_1
_geom_bond_atom_site_label_2
_geom_bond_distance
_geom_bond_site_symmetry_2
Al0 N4 1.804631 1_555
Al0 N20 1.901109 1_555
Al0 N13 2.014437 1_556
Al0 N31 2.024963 1_555
Al1 N5 1.804631 1_555
Al1 N21 1.901109 1_555
Al1 N12 2.014437 1_555
Al1 N30 2.024963 1_554
Al2 N6 1.804631 1_555
Al2 N22 1.901109 1_655
Al2 N15 2.014437 1_555
Al2 N29 2.024963 1_554
Al3 N7 1.804631 1_555
Al3 N23 1.901109 1_455
Al3 N14 2.014437 1_556
Al3 N28 2.024963 1_555
Al4 N7 1.795451 1_554
Al4 N14 1.880934 1_555
Al4 N3 1.931554 1_555
Al4 N28 2.001161 1_555
Al5 N6 1.795451 1_555
Al5 N15 1.880934 1_555
Al5 N2 1.931554 1_555
Al5 N29 2.001161 1_555
Al6 N5 1.795451 1_555
Al6 N12 1.880934 1_555
Al6 N1 1.931554 1_555
Al6 N30 2.001161 1_555
Al7 N4 1.795451 1_554
Al7 N13 1.880934 1_555
Al7 N0 1.931554 1_555
Al7 N31 2.001161 1_555
Al8 N4 1.790083 1_555
Al8 N16 1.880070 1_555
Al8 N23 1.888224 1_555
Al8 N52 1.897356 1_556
Al9 N5 1.790083 1_555
Al9 N17 1.880070 1_555
Al9 N22 1.888224 1_555
Al9 N53 1.897356 1_555
Al10 N6 1.790083 1_555
Al10 N18 1.880070 1_555
Al10 N21 1.888224 1_555
Al10 N54 1.897356 1_555
Al11 N7 1.790083 1_555
Al11 N19 1.880070 1_555
Al11 N20 1.888224 1_555
Al11 N55 1.897356 1_556
Al12 N55 1.827269 1_555
Al12 N20 1.830001 1_555
Al12 N24 1.907652 1_555
Al12 N28 2.409887 1_555
Al13 N54 1.827269 1_555
Al13 N21 1.830001 1_556
Al13 N25 1.907652 1_555
Al13 N29 2.409887 1_555
Al14 N53 1.827269 1_555
Al14 N22 1.830001 1_556
Al14 N26 1.907652 1_555
Al14 N30 2.409887 1_555
Al15 N52 1.827269 1_555
Al15 N23 1.830001 1_555
Al15 N27 1.907652 1_555
Al15 N31 2.409887 1_555
Al16 N49 1.837290 1_555
Al16 N40 1.881801 1_555
Al16 N8 1.929461 1_465
Al16 N9 1.944490 1_555
Al17 N48 1.837290 1_555
Al17 N41 1.881801 1_555
Al17 N9 1.929461 1_645
Al17 N8 1.944490 1_556
Al18 N51 1.837290 1_555
Al18 N42 1.881801 1_555
Al18 N10 1.929461 1_555
Al18 N11 1.944490 1_556
Al19 N50 1.837290 1_555
Al19 N43 1.881801 1_555
Al19 N11 1.929461 1_555
Al19 N10 1.944490 1_555
Al20 N12 1.835957 1_555
Al20 N32 1.884039 1_555
Al20 N33 1.884801 1_545
Al20 N37 1.973178 1_555
Al21 N13 1.835957 1_556
Al21 N33 1.884039 1_556
Al21 N32 1.884801 1_565
Al21 N36 1.973178 1_555
Al22 N14 1.835957 1_656
Al22 N34 1.884039 1_556
Al22 N35 1.884801 1_655
Al22 N39 1.973178 1_555
Al23 N15 1.835957 1_455
Al23 N35 1.884039 1_555
Al23 N34 1.884801 1_455
Al23 N38 1.973178 1_555
Al24 N21 1.896414 1_555
Al24 N44 1.992182 1_555
Al24 N25 1.994793 1_555
Al24 N12 2.053424 1_555
Al24 N37 2.118703 1_555
Al25 N20 1.896414 1_555
Al25 N45 1.992182 1_555
Al25 N24 1.994793 1_556
Al25 N13 2.053424 1_556
Al25 N36 2.118703 1_555
Al26 N23 1.896414 1_555
Al26 N46 1.992182 1_555
Al26 N27 1.994793 1_556
Al26 N14 2.053424 1_656
Al26 N39 2.118703 1_555
Al27 N22 1.896414 1_555
Al27 N47 1.992182 1_555
Al27 N26 1.994793 1_555
Al27 N15 2.053424 1_455
Al27 N38 2.118703 1_555
Al28 N37 1.897045 1_556
Al28 N32 1.941747 1_555
Al28 N48 1.955718 1_555
Al28 N25 1.957313 1_555
Al29 N36 1.897045 1_555
Al29 N33 1.941747 1_555
Al29 N49 1.955718 1_555
Al29 N24 1.957313 1_555
Al30 N39 1.897045 1_555
Al30 N34 1.941747 1_555
Al30 N50 1.955718 1_555
Al30 N27 1.957313 1_555
Al31 N38 1.897045 1_556
Al31 N35 1.941747 1_555
Al31 N51 1.955718 1_555
Al31 N26 1.957313 1_555
Al32 N17 1.839833 1_655
Al32 N41 1.874457 1_555
Al32 N44 1.888582 1_555
Al32 N8 1.917831 1_555
Al33 N16 1.839833 1_455
Al33 N40 1.874457 1_556
Al33 N45 1.888582 1_555
Al33 N9 1.917831 1_555
Al34 N19 1.839833 1_555
Al34 N43 1.874457 1_556
Al34 N46 1.888582 1_555
Al34 N10 1.917831 1_555
Al35 N18 1.839833 1_555
Al35 N42 1.874457 1_555
Al35 N47 1.888582 1_555
Al35 N11 1.917831 1_555
Al36 N16 1.823206 1_555
Al36 N52 1.864423 1_555
Al36 N0 1.884198 1_555
Al36 N40 1.902398 1_655
Al37 N17 1.823206 1_556
Al37 N53 1.864423 1_555
Al37 N1 1.884198 1_555
Al37 N41 1.902398 1_455
Al38 N18 1.823206 1_556
Al38 N54 1.864423 1_555
Al38 N2 1.884198 1_555
Al38 N42 1.902398 1_555
Al39 N19 1.823206 1_555
Al39 N55 1.864423 1_555
Al39 N3 1.884198 1_555
Al39 N43 1.902398 1_555
N0 W0 1.859378 1_555
N1 W1 1.859378 1_556
N2 W2 1.859378 1_556
N3 W3 1.859378 1_555
N8 W0 2.143952 1_545
N9 W1 2.143952 1_566
N10 W2 2.143952 1_556
N11 W3 2.143952 1_555
N16 W4 2.290833 1_655
N17 W5 2.290833 1_455
N18 W6 2.290833 1_555
N19 W7 2.290833 1_555
N24 W4 2.205079 1_555
N25 W5 2.205079 1_556
N26 W6 2.205079 1_556
N27 W7 2.205079 1_555
N28 W4 1.912679 1_555
N29 W5 1.912679 1_556
N30 W6 1.912679 1_556
N31 W7 1.912679 1_555
N32 W0 2.241980 1_545
N33 W1 2.241980 1_565
N34 W2 2.241980 1_555
N35 W3 2.241980 1_555
N36 W1 2.002332 1_566
N37 W0 2.002332 1_545
N38 W3 2.002332 1_555
N39 W2 2.002332 1_556
N40 W4 2.115952 1_555
N41 W5 2.115952 1_556
N42 W6 2.115952 1_556
N43 W7 2.115952 1_555
N44 W5 1.862320 1_555
N45 W4 1.862320 1_555
N46 W7 1.862320 1_555
N47 W6 1.862320 1_555
N48 W0 1.847071 1_545
N49 W1 1.847071 1_565
N50 W2 1.847071 1_555
N51 W3 1.847071 1_555
N52 W4 2.427066 1_655
N53 W5 2.427066 1_456
N54 W6 2.427066 1_556
N55 W7 2.427066 1_555
