# generated using pymatgen
data_Ce(CrSi)2
_symmetry_space_group_name_H-M   'P 1'
_cell_length_a   6.00638454
_cell_length_b   6.00638454
_cell_length_c   6.00638454
_cell_angle_alpha   141.65263299
_cell_angle_beta   141.65263299
_cell_angle_gamma   55.35239597
_symmetry_Int_Tables_number   1
_chemical_formula_structural   Ce(CrSi)2
_chemical_formula_sum   'Ce1 Cr2 Si2'
_cell_volume   82.79872244
_cell_formula_units_Z   1
loop_
 _symmetry_equiv_pos_site_id
 _symmetry_equiv_pos_as_xyz
  1  'x, y, z'
loop_
 _atom_site_type_symbol
 _atom_site_label
 _atom_site_symmetry_multiplicity
 _atom_site_fract_x
 _atom_site_fract_y
 _atom_site_fract_z
 _atom_site_occupancy
  Ce  Ce0  1  0.00000000  0.00000000  0.00000000  1
  Cr  Cr0  1  0.75000000  0.25000000  0.50000000  1
  Cr  Cr1  1  0.25000000  0.75000000  0.50000000  1
  Si  Si0  1  0.38135600  0.38135600  0.00000000  1
  Si  Si1  1  0.61864400  0.61864400  0.00000000  1
loop_
_geom_bond_atom_site_label_1
_geom_bond_atom_site_label_2
_geom_bond_distance
_geom_bond_site_symmetry_2
Ce0 Si0 3.062047 1_545
Ce0 Si1 3.062047 1_556
Ce0 Si0 3.062047 1_444
Ce0 Si0 3.062047 1_455
Ce0 Si1 3.062047 1_444
Ce0 Si0 3.062047 1_556
Ce0 Si1 3.062047 1_455
Ce0 Si1 3.062047 1_545
Ce0 Cr1 3.311333 1_444
Ce0 Cr1 3.311333 1_544
Ce0 Cr0 3.311333 1_555
Ce0 Cr1 3.311333 1_545
Ce0 Cr0 3.311333 1_454
Ce0 Cr0 3.311333 1_444
Ce0 Cr1 3.311333 1_555
Ce0 Cr0 3.311333 1_455
Cr0 Si0 2.417494 1_656
Cr0 Si0 2.417494 1_555
Cr0 Si1 2.417494 1_556
Cr0 Si1 2.417494 1_545
Cr1 Si0 2.417494 1_555
Cr1 Si0 2.417494 1_566
Cr1 Si1 2.417494 1_556
Cr1 Si1 2.417494 1_455
Si0 Si1 2.524352 1_555
