# generated using pymatgen
data_DyCdGa
_symmetry_space_group_name_H-M   'P 1'
_cell_length_a   7.19793078
_cell_length_b   7.19793078
_cell_length_c   4.37870290
_cell_angle_alpha   90.00000000
_cell_angle_beta   90.00000000
_cell_angle_gamma   120.00000093
_symmetry_Int_Tables_number   1
_chemical_formula_structural   DyCdGa
_chemical_formula_sum   'Dy3 Cd3 Ga3'
_cell_volume   196.46782545
_cell_formula_units_Z   3
loop_
 _symmetry_equiv_pos_site_id
 _symmetry_equiv_pos_as_xyz
  1  'x, y, z'
loop_
 _atom_site_type_symbol
 _atom_site_label
 _atom_site_symmetry_multiplicity
 _atom_site_fract_x
 _atom_site_fract_y
 _atom_site_fract_z
 _atom_site_occupancy
  Dy  Dy0  1  0.42361478  0.42361478  0.50000000  1
  Dy  Dy1  1  0.57638522  0.00000000  0.50000000  1
  Dy  Dy2  1  0.00000000  0.57638522  0.50000000  1
  Cd  Cd0  1  0.75078190  0.75078190  0.00000000  1
  Cd  Cd1  1  0.24921810  1.00000000  -0.00000000  1
  Cd  Cd2  1  1.00000000  0.24921810  0.00000000  1
  Ga  Ga0  1  0.66666700  0.33333300  -0.00000000  1
  Ga  Ga1  1  0.33333300  0.66666700  0.00000000  1
  Ga  Ga2  1  -0.00000000  0.00000000  0.50000000  1
loop_
_geom_bond_atom_site_label_1
_geom_bond_atom_site_label_2
_geom_bond_distance
_geom_bond_site_symmetry_2
Dy0 Ga2 3.049150 1_555
Dy0 Ga0 3.068076 1_555
Dy0 Ga1 3.068076 1_556
Dy0 Ga0 3.068076 1_556
Dy0 Ga1 3.068076 1_555
Dy0 Dy2 3.722827 1_655
Dy0 Dy1 3.722827 1_565
Dy0 Dy2 3.722827 1_555
Dy0 Dy1 3.722827 1_555
Dy1 Ga2 3.049150 1_655
Dy1 Ga0 3.068071 1_556
Dy1 Ga0 3.068071 1_555
Dy1 Ga1 3.068073 1_546
Dy1 Ga1 3.068073 1_545
Dy1 Dy2 3.722827 1_655
Dy1 Dy2 3.722827 1_545
Dy2 Ga2 3.049150 1_565
Dy2 Ga1 3.068071 1_556
Dy2 Ga1 3.068071 1_555
Dy2 Ga0 3.068073 1_456
Dy2 Ga0 3.068073 1_455
Cd0 Ga0 2.752446 1_555
Cd0 Ga1 2.752446 1_555
Cd0 Ga2 2.830402 1_665
Cd0 Ga2 2.830402 1_664
Cd0 Cd1 3.107047 1_655
Cd0 Cd2 3.107047 1_565
Cd0 Dy0 3.215422 1_554
Cd0 Dy0 3.215422 1_555
Cd0 Dy2 3.440750 1_654
Cd0 Dy2 3.440750 1_655
Cd0 Dy1 3.440750 1_565
Cd0 Dy1 3.440750 1_564
Cd1 Ga1 2.752439 1_555
Cd1 Ga0 2.752444 1_565
Cd1 Ga2 2.830402 1_564
Cd1 Ga2 2.830402 1_565
Cd1 Cd2 3.107047 1_465
Cd1 Dy1 3.215422 1_565
Cd1 Dy1 3.215422 1_564
Cd1 Dy2 3.440750 1_554
Cd1 Dy2 3.440750 1_555
Cd1 Dy0 3.440750 1_564
Cd1 Dy0 3.440750 1_565
Cd2 Ga0 2.752439 1_555
Cd2 Ga1 2.752444 1_655
Cd2 Ga2 2.830402 1_655
Cd2 Ga2 2.830402 1_654
Cd2 Dy2 3.215422 1_655
Cd2 Dy2 3.215422 1_654
Cd2 Dy1 3.440750 1_555
Cd2 Dy1 3.440750 1_554
Cd2 Dy0 3.440750 1_654
Cd2 Dy0 3.440750 1_655
