# generated using pymatgen
data_TeMoWSeS2
_symmetry_space_group_name_H-M   'P 1'
_cell_length_a   3.30573656
_cell_length_b   3.30573656
_cell_length_c   44.77606800
_cell_angle_alpha   90.00000000
_cell_angle_beta   90.00000000
_cell_angle_gamma   120.00001119
_symmetry_Int_Tables_number   1
_chemical_formula_structural   TeMoWSeS2
_chemical_formula_sum   'Te2 Mo2 W2 Se2 S4'
_cell_volume   423.75322633
_cell_formula_units_Z   2
loop_
 _symmetry_equiv_pos_site_id
 _symmetry_equiv_pos_as_xyz
  1  'x, y, z'
loop_
 _atom_site_type_symbol
 _atom_site_label
 _atom_site_symmetry_multiplicity
 _atom_site_fract_x
 _atom_site_fract_y
 _atom_site_fract_z
 _atom_site_occupancy
  Te  Te0  1  0.66666700  0.33333300  0.42930700  1
  Te  Te1  1  0.66666700  0.33333300  0.51471400  1
  Mo  Mo0  1  0.33333300  0.66666700  0.09353600  1
  Mo  Mo1  1  0.33333300  0.66666700  0.47205400  1
  W  W0  1  0.66666700  0.33333300  0.27738200  1
  W  W1  1  0.66666700  0.33333300  0.65996400  1
  Se  Se0  1  0.33333300  0.66666700  0.31506400  1
  Se  Se1  1  0.33333300  0.66666700  0.23968500  1
  S  S0  1  0.33333300  0.66666700  0.69426400  1
  S  S1  1  0.66666700  0.33333300  0.05942300  1
  S  S2  1  0.66666700  0.33333300  0.12765100  1
  S  S3  1  0.33333300  0.66666700  0.62570300  1
loop_
_geom_bond_atom_site_label_1
_geom_bond_atom_site_label_2
_geom_bond_distance
_geom_bond_site_symmetry_2
Mo0 S1 2.444527 1_455
Mo0 S1 2.444527 1_565
Mo0 S1 2.444532 1_555
Mo0 S2 2.444583 1_455
Mo0 S2 2.444583 1_565
Mo0 S2 2.444588 1_555
Mo1 Te1 2.700238 1_455
Mo1 Te1 2.700238 1_565
Mo1 Te1 2.700242 1_555
Mo1 Te0 2.702995 1_455
Mo1 Te0 2.702995 1_565
Mo1 Te0 2.702999 1_555
Se0 W0 2.547438 1_455
Se0 W0 2.547438 1_565
Se0 W0 2.547443 1_555
Se1 W0 2.547883 1_455
Se1 W0 2.547883 1_565
Se1 W0 2.547888 1_555
S0 W1 2.449768 1_455
S0 W1 2.449768 1_565
S0 W1 2.449773 1_555
S3 W1 2.448674 1_455
S3 W1 2.448674 1_565
S3 W1 2.448678 1_555
