# generated using pymatgen
data_Ta2N3
_symmetry_space_group_name_H-M   'P 1'
_cell_length_a   2.98648427
_cell_length_b   8.16377988
_cell_length_c   8.20272154
_cell_angle_alpha   90.00000000
_cell_angle_beta   90.00000000
_cell_angle_gamma   90.00000000
_symmetry_Int_Tables_number   1
_chemical_formula_structural   Ta2N3
_chemical_formula_sum   'Ta8 N12'
_cell_volume   199.99055547
_cell_formula_units_Z   4
loop_
 _symmetry_equiv_pos_site_id
 _symmetry_equiv_pos_as_xyz
  1  'x, y, z'
loop_
 _atom_site_type_symbol
 _atom_site_label
 _atom_site_symmetry_multiplicity
 _atom_site_fract_x
 _atom_site_fract_y
 _atom_site_fract_z
 _atom_site_occupancy
  Ta  Ta0  1  0.25000000  0.68698306  0.02088952  1
  Ta  Ta1  1  0.75000000  0.31301694  0.97911048  1
  Ta  Ta2  1  0.75000000  0.18698306  0.47911048  1
  Ta  Ta3  1  0.25000000  0.81301694  0.52088952  1
  Ta  Ta4  1  0.25000000  0.00503610  0.19388358  1
  Ta  Ta5  1  0.75000000  0.99496390  0.80611642  1
  Ta  Ta6  1  0.75000000  0.50503610  0.30611642  1
  Ta  Ta7  1  0.25000000  0.49496390  0.69388358  1
  N  N0  1  0.25000000  0.37466834  0.45382383  1
  N  N1  1  0.75000000  0.62533166  0.54617617  1
  N  N2  1  0.75000000  0.87466834  0.04617617  1
  N  N3  1  0.25000000  0.12533166  0.95382383  1
  N  N4  1  0.25000000  0.45141380  0.12097782  1
  N  N5  1  0.75000000  0.54858620  0.87902218  1
  N  N6  1  0.75000000  0.95141380  0.37902218  1
  N  N7  1  0.25000000  0.04858620  0.62097782  1
  N  N8  1  0.25000000  0.69960560  0.28016431  1
  N  N9  1  0.75000000  0.30039440  0.71983569  1
  N  N10  1  0.75000000  0.19960560  0.21983569  1
  N  N11  1  0.25000000  0.80039440  0.78016431  1
loop_
_geom_bond_atom_site_label_1
_geom_bond_atom_site_label_2
_geom_bond_distance
_geom_bond_site_symmetry_2
N0 Ta2 2.149534 1_555
N0 Ta2 2.149534 1_455
N0 Ta6 2.197834 1_455
N0 Ta6 2.197834 1_555
N0 Ta7 2.200450 1_555
N1 Ta3 2.149534 1_555
N1 Ta3 2.149534 1_655
N1 Ta7 2.197834 1_555
N1 Ta7 2.197834 1_655
N1 Ta6 2.200450 1_555
N2 Ta0 2.149534 1_655
N2 Ta0 2.149534 1_555
N2 Ta4 2.197834 1_565
N2 Ta4 2.197834 1_665
N2 Ta5 2.200450 1_554
N3 Ta1 2.149534 1_555
N3 Ta1 2.149534 1_455
N3 Ta5 2.197834 1_445
N3 Ta5 2.197834 1_545
N3 Ta4 2.200450 1_556
N4 Ta0 2.091049 1_555
N4 Ta6 2.174322 1_455
N4 Ta6 2.174322 1_555
N4 Ta1 2.204656 1_554
N4 Ta1 2.204656 1_454
N5 Ta1 2.091049 1_555
N5 Ta7 2.174322 1_555
N5 Ta7 2.174322 1_655
N5 Ta0 2.204656 1_656
N5 Ta0 2.204656 1_556
N6 Ta2 2.091049 1_565
N6 Ta4 2.174322 1_565
N6 Ta4 2.174322 1_665
N6 Ta3 2.204656 1_555
N6 Ta3 2.204656 1_655
N7 Ta3 2.091049 1_545
N7 Ta5 2.174322 1_445
N7 Ta5 2.174322 1_545
N7 Ta2 2.204656 1_455
N7 Ta2 2.204656 1_555
N8 Ta0 2.129254 1_555
N8 Ta3 2.180889 1_555
N8 Ta6 2.190474 1_555
N8 Ta6 2.190474 1_455
N8 Ta4 2.591963 1_565
N9 Ta1 2.129254 1_555
N9 Ta2 2.180889 1_555
N9 Ta7 2.190474 1_655
N9 Ta7 2.190474 1_555
N9 Ta5 2.591963 1_545
N10 Ta2 2.129254 1_555
N10 Ta1 2.180889 1_554
N10 Ta4 2.190474 1_555
N10 Ta4 2.190474 1_655
N10 Ta6 2.591963 1_555
N11 Ta3 2.129254 1_555
N11 Ta0 2.180889 1_556
N11 Ta5 2.190474 1_555
N11 Ta5 2.190474 1_455
N11 Ta7 2.591963 1_555
