# generated using pymatgen
data_Pu2Te4Cl2O11
_symmetry_space_group_name_H-M   'P 1'
_cell_length_a   8.16383900
_cell_length_b   9.79072371
_cell_length_c   10.64206823
_cell_angle_alpha   110.46528089
_cell_angle_beta   108.36793037
_cell_angle_gamma   97.41372580
_symmetry_Int_Tables_number   1
_chemical_formula_structural   Pu2Te4Cl2O11
_chemical_formula_sum   'Pu4 Te8 Cl4 O22'
_cell_volume   728.44514736
_cell_formula_units_Z   2
loop_
 _symmetry_equiv_pos_site_id
 _symmetry_equiv_pos_as_xyz
  1  'x, y, z'
loop_
 _atom_site_type_symbol
 _atom_site_label
 _atom_site_symmetry_multiplicity
 _atom_site_fract_x
 _atom_site_fract_y
 _atom_site_fract_z
 _atom_site_occupancy
  Pu  Pu0  1  0.38115000  0.61357700  0.61957000  1
  Pu  Pu1  1  0.61885000  0.38642300  0.38043000  1
  Pu  Pu2  1  0.12443100  0.87626500  0.88090700  1
  Pu  Pu3  1  0.87556900  0.12373500  0.11909300  1
  Te  Te0  1  0.99799000  0.76569300  0.49436200  1
  Te  Te1  1  0.00201000  0.23430700  0.50563800  1
  Te  Te2  1  0.20054800  0.53209300  0.23744400  1
  Te  Te3  1  0.79945200  0.46790700  0.76255600  1
  Te  Te4  1  0.74365200  0.99106600  0.70841800  1
  Te  Te5  1  0.25634800  0.00893400  0.29158200  1
  Te  Te6  1  0.53276500  0.74803900  0.05309500  1
  Te  Te7  1  0.46723500  0.25196100  0.94690500  1
  Cl  Cl0  1  0.90382200  0.63047300  0.12703900  1
  Cl  Cl1  1  0.09617800  0.36952700  0.87296100  1
  Cl  Cl2  1  0.63966000  0.89883000  0.39184900  1
  Cl  Cl3  1  0.36034000  0.10117000  0.60815100  1
  O  O0  1  0.69218400  0.92530000  0.08309000  1
  O  O1  1  0.30781600  0.07470000  0.91691000  1
  O  O2  1  0.05607700  0.33927100  0.17954100  1
  O  O3  1  0.94392300  0.66072900  0.82045900  1
  O  O4  1  0.56631400  0.82188400  0.66667900  1
  O  O5  1  0.43368600  0.17811600  0.33332100  1
  O  O6  1  0.16996800  0.75688700  0.66532000  1
  O  O7  1  0.83003200  0.24311300  0.33468000  1
  O  O8  1  0.92725300  0.89292900  0.66422600  1
  O  O9  1  0.07274700  0.10707100  0.33577400  1
  O  O10  1  0.82034800  0.59088000  0.43768800  1
  O  O11  1  0.17965200  0.40912000  0.56231200  1
  O  O12  1  0.16761400  0.64319500  0.41400000  1
  O  O13  1  0.83238600  0.35680500  0.58600000  1
  O  O14  1  0.89191900  0.00857800  0.89707500  1
  O  O15  1  0.10808100  0.99142200  0.10292500  1
  O  O16  1  0.40174500  0.50893800  0.38188000  1
  O  O17  1  0.59825500  0.49106200  0.61812000  1
  O  O18  1  0.33108000  0.82502200  0.04829400  1
  O  O19  1  0.66892000  0.17497800  0.95170600  1
  O  O20  1  0.46571000  0.65103300  0.84780900  1
  O  O21  1  0.53429000  0.34896700  0.15219100  1
loop_
_geom_bond_atom_site_label_1
_geom_bond_atom_site_label_2
_geom_bond_distance
_geom_bond_site_symmetry_2
Cl0 Te2 2.788574 1_655
Cl1 Te3 2.788574 1_455
Cl2 Te4 2.959427 1_555
Cl2 Te6 3.146507 1_555
Cl3 Te5 2.959427 1_555
Cl3 Te7 3.146507 1_555
O0 Te6 1.890928 1_555
O0 Pu3 2.128397 1_565
O1 Te7 1.890928 1_555
O1 Pu2 2.128397 1_545
O2 Te2 1.867802 1_555
O2 Pu3 2.165491 1_455
O3 Te3 1.867802 1_555
O3 Pu2 2.165491 1_655
O4 Te4 1.870390 1_555
O4 Pu0 2.169715 1_555
O5 Te5 1.870390 1_555
O5 Pu1 2.169715 1_555
O6 Te0 1.954418 1_455
O6 Pu2 2.354267 1_555
O6 Pu0 2.419445 1_555
O7 Te1 1.954418 1_655
O7 Pu3 2.354267 1_555
O7 Pu1 2.419445 1_555
O8 Te4 1.972558 1_555
O8 Te0 2.102851 1_555
O8 Pu2 2.434471 1_655
O9 Te5 1.972558 1_555
O9 Te1 2.102851 1_555
O9 Pu3 2.434471 1_455
O10 Te0 1.866194 1_555
O10 Pu1 2.179441 1_555
O11 Te1 1.866194 1_555
O11 Pu0 2.179441 1_555
O12 Te2 1.936627 1_555
O12 Te0 2.131944 1_455
O12 Pu0 2.465684 1_555
O13 Te3 1.936627 1_555
O13 Te1 2.131944 1_655
O13 Pu1 2.465684 1_555
O14 Te4 1.923419 1_545
O14 Pu3 2.290477 1_556
O14 Pu2 2.448561 1_645
O15 Te5 1.923419 1_565
O15 Pu2 2.290477 1_554
O15 Pu3 2.448561 1_465
O16 Te2 1.964838 1_555
O16 Pu1 2.265712 1_555
O16 Pu0 2.444713 1_555
O17 Te3 1.964838 1_555
O17 Pu0 2.265712 1_555
O17 Pu1 2.444713 1_555
O18 Te6 1.891010 1_555
O18 Pu2 2.284823 1_554
O19 Te7 1.891010 1_555
O19 Pu3 2.284823 1_556
O20 Te6 1.906738 1_556
O20 Pu0 2.183070 1_555
O21 Te7 1.906738 1_554
O21 Pu1 2.183070 1_555
