# generated using pymatgen
data_WO2
_symmetry_space_group_name_H-M   'P 1'
_cell_length_a   11.50445407
_cell_length_b   11.71865838
_cell_length_c   12.06294904
_cell_angle_alpha   90.24822717
_cell_angle_beta   87.13234626
_cell_angle_gamma   91.74499061
_symmetry_Int_Tables_number   1
_chemical_formula_structural   WO2
_chemical_formula_sum   'W34 O68'
_cell_volume   1623.49162538
_cell_formula_units_Z   34
loop_
 _symmetry_equiv_pos_site_id
 _symmetry_equiv_pos_as_xyz
  1  'x, y, z'
loop_
 _atom_site_type_symbol
 _atom_site_label
 _atom_site_symmetry_multiplicity
 _atom_site_fract_x
 _atom_site_fract_y
 _atom_site_fract_z
 _atom_site_occupancy
  W  W0  1  0.69222204  0.92467992  0.55577682  1
  W  W1  1  0.71604088  0.05838064  0.97214245  1
  W  W2  1  0.23617723  0.73208986  0.47456617  1
  W  W3  1  0.02394947  0.68977003  0.24184006  1
  W  W4  1  0.38330527  0.16212063  0.29864892  1
  W  W5  1  0.86542317  0.96160327  0.71305668  1
  W  W6  1  0.00729776  0.07710014  0.99872335  1
  W  W7  1  0.01508804  0.30600059  0.53040341  1
  W  W8  1  0.78103609  0.80448152  0.06562363  1
  W  W9  1  0.11310776  0.04656166  0.74568110  1
  W  W10  1  0.76170755  0.47552113  0.03271545  1
  W  W11  1  0.11377529  0.96168939  0.29962073  1
  W  W12  1  0.69990298  0.18183022  0.57284277  1
  W  W13  1  0.19042652  0.29550085  0.68368658  1
  W  W14  1  0.33062232  0.56138488  0.94671916  1
  W  W15  1  0.51525491  0.39557433  0.25685604  1
  W  W16  1  0.76342531  0.25021693  0.13514720  1
  W  W17  1  0.65412471  0.27244718  0.88277278  1
  W  W18  1  0.78538419  0.45627089  0.71129747  1
  W  W19  1  0.88758339  0.69409026  0.58771021  1
  W  W20  1  0.07248581  0.51523849  0.70589805  1
  W  W21  1  0.57317070  0.87071767  0.82995549  1
  W  W22  1  0.55738638  0.96691207  0.16296591  1
  W  W23  1  0.64604636  0.49575034  0.50754293  1
  W  W24  1  0.33844207  0.53391845  0.63575973  1
  W  W25  1  0.21402139  0.46809995  0.34978212  1
  W  W26  1  0.33817412  0.00705549  0.59108340  1
  W  W27  1  0.43758591  0.68173631  0.22536998  1
  W  W28  1  0.04885150  0.20612639  0.23949548  1
  W  W29  1  0.25251338  0.76670528  0.81716991  1
  W  W30  1  0.45771347  0.19158175  0.03446743  1
  W  W31  1  0.03963933  0.67317794  0.96808196  1
  W  W32  1  0.43161576  0.30764749  0.48441965  1
  W  W33  1  0.05471433  0.41774565  0.06722101  1
  O  O0  1  0.23317795  0.92302860  0.71895166  1
  O  O1  1  0.74294740  0.43377687  0.87075141  1
  O  O2  1  0.20824173  0.10134871  0.27279183  1
  O  O3  1  0.47100332  0.48297477  0.52503280  1
  O  O4  1  0.93860212  0.39493615  0.65686759  1
  O  O5  1  0.85021520  0.15834326  0.01486950  1
  O  O6  1  0.05481818  0.43246309  0.44689832  1
  O  O7  1  0.04360637  0.70512637  0.55297918  1
  O  O8  1  0.64034683  0.52726536  0.67134910  1
  O  O9  1  0.39470458  0.63101869  0.07035319  1
  O  O10  1  0.88481185  0.20392604  0.23505480  1
  O  O11  1  0.07882714  0.58713869  0.12252710  1
  O  O12  1  0.74005226  0.66055141  0.00823084  1
  O  O13  1  0.11578897  0.37764957  0.79981095  1
  O  O14  1  0.37473800  0.72728501  0.36129439  1
  O  O15  1  0.93103056  0.74610938  0.10674594  1
  O  O16  1  0.62407103  0.48039218  0.11524626  1
  O  O17  1  0.01211423  0.96908732  0.63041257  1
  O  O18  1  0.85370025  0.22362101  0.53877309  1
  O  O19  1  0.55679682  0.10933667  0.90977478  1
  O  O20  1  0.11414695  0.83501010  0.20673147  1
  O  O21  1  0.94242896  0.50713088  0.97465881  1
  O  O22  1  0.63684189  0.27057476  0.22526936  1
  O  O23  1  0.15331332  0.64793407  0.34032160  1
  O  O24  1  0.10900192  0.65042806  0.80849501  1
  O  O25  1  0.40436896  0.06566066  0.12702326  1
  O  O26  1  0.85726854  0.79438135  0.71077762  1
  O  O27  1  0.35078320  0.35012999  0.63565394  1
  O  O28  1  0.38516623  0.12758088  0.47686805  1
  O  O29  1  0.37740517  0.53122699  0.79737729  1
  O  O30  1  0.81335230  0.55332339  0.53233736  1
  O  O31  1  0.44637546  0.83082801  0.16563134  1
  O  O32  1  0.26835967  0.13610078  0.68665388  1
  O  O33  1  0.71813119  0.97397134  0.81890503  1
  O  O34  1  0.35443127  0.86492599  0.53040208  1
  O  O35  1  0.29183248  0.30649249  0.39065990  1
  O  O36  1  0.21114834  0.45241684  0.99404004  1
  O  O37  1  0.58365164  0.66693672  0.24695009  1
  O  O38  1  0.86353049  0.94893418  0.00386557  1
  O  O39  1  0.04131920  0.04991648  0.15665254  1
  O  O40  1  0.28108761  0.69132292  0.65280915  1
  O  O41  1  0.26483677  0.56006706  0.49248431  1
  O  O42  1  0.40435717  0.28634773  0.17061003  1
  O  O43  1  0.05451786  0.21157195  0.39576014  1
  O  O44  1  0.18335298  0.88911435  0.41135287  1
  O  O45  1  0.90504126  0.65867064  0.33414133  1
  O  O46  1  0.70126396  0.28294467  0.71652469  1
  O  O47  1  0.86537387  0.39445202  0.13363222  1
  O  O48  1  0.14615447  0.06725778  0.91569227  1
  O  O49  1  0.97434429  0.97626316  0.36018913  1
  O  O50  1  0.05412273  0.23527877  0.05838636  1
  O  O51  1  0.06264843  0.18433854  0.64856670  1
  O  O52  1  0.90246344  0.59573978  0.71944624  1
  O  O53  1  0.59320514  0.06713502  0.62790269  1
  O  O54  1  0.13899466  0.82077601  0.92977294  1
  O  O55  1  0.49857953  0.32670164  0.95281571  1
  O  O56  1  0.63106011  0.46910082  0.35019165  1
  O  O57  1  0.95166084  0.06563326  0.82820162  1
  O  O58  1  0.72889580  0.04690846  0.46130073  1
  O  O59  1  0.38624404  0.51522605  0.26369892  1
  O  O60  1  0.70713182  0.86861734  0.19040834  1
  O  O61  1  0.11508846  0.36414465  0.22089572  1
  O  O62  1  0.52318906  0.05763312  0.29391258  1
  O  O63  1  0.62616273  0.89369760  0.99575528  1
  O  O64  1  0.60375138  0.83945805  0.66953892  1
  O  O65  1  0.41709259  0.83046836  0.84514923  1
  O  O66  1  0.79325936  0.79103908  0.50887448  1
  O  O67  1  0.60734420  0.30754256  0.51415118  1
loop_
_geom_bond_atom_site_label_1
_geom_bond_atom_site_label_2
_geom_bond_distance
_geom_bond_site_symmetry_2
O0 W9 2.044728 1_565
O0 W26 2.135927 1_565
O0 W29 2.208865 1_555
O1 W18 1.977429 1_555
O1 W10 2.032377 1_556
O1 W17 2.123525 1_555
O2 W11 1.955873 1_545
O2 W4 2.152739 1_555
O2 W28 2.290521 1_555
O3 W23 2.015345 1_555
O3 W24 2.076285 1_555
O3 W32 2.150237 1_555
O4 W18 2.003013 1_555
O4 W7 2.023727 1_655
O4 W20 2.159023 1_655
O5 W1 1.996210 1_554
O5 W16 2.041615 1_555
O5 W6 2.068357 1_654
O6 W7 1.829059 1_555
O6 W25 2.155077 1_555
O7 W19 1.823518 1_455
O7 W2 2.377589 1_555
O8 W18 1.969009 1_555
O8 W23 2.006838 1_555
O9 W14 1.869885 1_554
O9 W27 2.039162 1_555
O10 W28 1.890013 1_655
O10 W16 1.979167 1_555
O11 W3 1.963897 1_555
O11 W33 2.106185 1_555
O11 W31 2.195190 1_554
O12 W8 1.876322 1_555
O12 W10 2.212841 1_555
O13 W13 1.882710 1_555
O13 W20 2.062155 1_555
O14 W27 1.842127 1_555
O14 W2 2.048928 1_555
O15 W8 1.962696 1_555
O15 W3 2.112091 1_655
O15 W31 2.221057 1_654
O16 W10 1.830013 1_555
O16 W15 2.279941 1_555
O17 W5 1.916498 1_455
O17 W9 2.047957 1_565
O18 W12 1.848125 1_555
O18 W7 2.064541 1_655
O19 W30 2.091310 1_556
O19 W1 2.118323 1_555
O19 W17 2.202721 1_555
O20 W11 1.856030 1_555
O20 W3 2.001926 1_555
O21 W33 2.061432 1_656
O21 W10 2.181742 1_556
O21 W31 2.214331 1_655
O22 W16 1.794441 1_555
O22 W15 2.077052 1_555
O23 W3 2.023105 1_555
O23 W2 2.141762 1_555
O23 W25 2.245373 1_555
O24 W20 2.052440 1_555
O24 W31 2.066063 1_555
O24 W29 2.114846 1_555
O25 W30 1.921257 1_555
O25 W22 2.197914 1_545
O25 W4 2.359848 1_555
O26 W19 1.914381 1_555
O26 W5 1.959145 1_555
O27 W13 1.993297 1_555
O27 W32 2.071565 1_555
O27 W24 2.162729 1_555
O28 W26 2.020203 1_555
O28 W32 2.163579 1_555
O28 W4 2.190618 1_555
O29 W14 1.889189 1_555
O29 W24 2.022779 1_555
O30 W19 1.964275 1_555
O30 W23 2.055755 1_555
O30 W18 2.446811 1_555
O31 W27 1.890749 1_555
O31 W22 2.011842 1_555
O32 W26 2.056031 1_555
O32 W13 2.097660 1_555
O32 W9 2.136162 1_555
O33 W21 2.029608 1_555
O33 W5 2.078359 1_555
O33 W1 2.092156 1_565
O34 W26 1.827463 1_565
O34 W2 2.163632 1_555
O35 W32 2.011467 1_555
O35 W25 2.187821 1_555
O35 W4 2.275299 1_555
O36 W14 1.914835 1_555
O36 W33 1.995711 1_556
O37 W27 1.727287 1_555
O38 W8 2.040487 1_555
O38 W6 2.198749 1_664
O38 W1 2.207320 1_564
O39 W6 1.992864 1_554
O39 W28 2.083341 1_555
O39 W11 2.224832 1_545
O40 W24 1.984281 1_555
O40 W29 2.180991 1_555
O40 W2 2.292019 1_555
O41 W24 1.991201 1_555
O41 W2 2.066536 1_555
O41 W25 2.124326 1_555
O42 W30 2.057184 1_555
O42 W15 2.090525 1_555
O42 W4 2.126989 1_555
O43 W28 1.890131 1_555
O43 W7 2.002391 1_555
O44 W11 1.827568 1_555
O44 W2 2.112686 1_555
O45 W3 1.750611 1_655
O46 W17 2.054334 1_555
O46 W12 2.095749 1_555
O46 W18 2.222925 1_555
O47 W10 2.007769 1_555
O47 W16 2.027374 1_555
O47 W33 2.291765 1_655
O48 W6 1.848930 1_555
O48 W9 2.115982 1_555
O49 W11 1.741951 1_655
O50 W6 2.051971 1_554
O50 W33 2.140281 1_555
O50 W28 2.210270 1_555
O51 W13 1.994566 1_555
O51 W9 2.111324 1_555
O51 W7 2.122960 1_555
O52 W19 1.984456 1_555
O52 W18 2.091148 1_555
O52 W20 2.195837 1_655
O53 W12 1.892119 1_555
O53 W0 2.201254 1_545
O54 W29 1.953854 1_555
O54 W31 2.084570 1_555
O55 W30 1.902696 1_556
O55 W17 2.057584 1_555
O56 W23 1.937639 1_555
O56 W15 1.963873 1_555
O57 W9 2.080622 1_655
O57 W5 2.109341 1_545
O57 W6 2.187026 1_655
O58 W0 1.859490 1_545
O58 W12 2.095318 1_555
O59 W27 2.068922 1_555
O59 W15 2.071036 1_555
O59 W25 2.245311 1_555
O60 W8 1.858674 1_555
O60 W22 2.141371 1_555
O61 W28 1.990124 1_555
O61 W33 2.116350 1_555
O61 W25 2.296287 1_555
O62 W22 1.931039 1_545
O62 W4 2.050014 1_555
O63 W21 2.133462 1_555
O63 W1 2.174495 1_565
O63 W8 2.291137 1_556
O63 W22 2.301595 1_556
O64 W0 1.930477 1_555
O64 W21 1.983974 1_555
O65 W21 1.842948 1_555
O65 W29 2.057373 1_555
O66 W19 1.886896 1_555
O66 W0 2.039917 1_555
O67 W12 1.996347 1_555
O67 W32 2.070856 1_555
O67 W23 2.237674 1_555
