# generated using pymatgen
data_La20Al3Si9O52
_symmetry_space_group_name_H-M   'P 1'
_cell_length_a   7.28055900
_cell_length_b   9.86561317
_cell_length_c   17.08022172
_cell_angle_alpha   90.01298026
_cell_angle_beta   90.04507120
_cell_angle_gamma   90.01068603
_symmetry_Int_Tables_number   1
_chemical_formula_structural   La20Al3Si9O52
_chemical_formula_sum   'La20 Al3 Si9 O52'
_cell_volume   1226.82370667
_cell_formula_units_Z   1
loop_
 _symmetry_equiv_pos_site_id
 _symmetry_equiv_pos_as_xyz
  1  'x, y, z'
loop_
 _atom_site_type_symbol
 _atom_site_label
 _atom_site_symmetry_multiplicity
 _atom_site_fract_x
 _atom_site_fract_y
 _atom_site_fract_z
 _atom_site_occupancy
  La  La0  1  0.50020300  0.99730300  0.33467300  1
  La  La1  1  0.50191400  0.49872300  0.83465300  1
  La  La2  1  0.99790400  0.49472700  0.16714700  1
  La  La3  1  0.99933400  0.00102700  0.66887400  1
  La  La4  1  0.74628000  0.88949300  0.12175400  1
  La  La5  1  0.74681600  0.38315600  0.62017700  1
  La  La6  1  0.74689300  0.73526800  0.49467600  1
  La  La7  1  0.74617100  0.23591800  0.99998200  1
  La  La8  1  0.74724200  0.37795500  0.38130300  1
  La  La9  1  0.74696100  0.88483700  0.88197300  1
  La  La10  1  0.24697200  0.62000000  0.38371700  1
  La  La11  1  0.24694000  0.11088700  0.87907200  1
  La  La12  1  0.24657500  0.76380100  0.00341200  1
  La  La13  1  0.24727000  0.26024300  0.50142800  1
  La  La14  1  0.24664200  0.12552300  0.11580800  1
  La  La15  1  0.24608100  0.62665500  0.61553900  1
  La  La16  1  0.99664900  0.99851400  0.33417800  1
  La  La17  1  0.99491100  0.49859200  0.83463000  1
  La  La18  1  0.49943100  0.49626000  0.16759300  1
  La  La19  1  0.49759500  0.00077700  0.66792900  1
  Al  Al0  1  0.74873900  0.21387400  0.18729500  1
  Al  Al1  1  0.74866400  0.17374800  0.79891800  1
  Al  Al2  1  0.24878000  0.88943200  0.48665800  1
  Si  Si0  1  0.74846500  0.71504000  0.68556400  1
  Si  Si1  1  0.74957400  0.67038100  0.29855400  1
  Si  Si2  1  0.74871900  0.61594700  0.01537800  1
  Si  Si3  1  0.74914800  0.11238300  0.51521900  1
  Si  Si4  1  0.24911300  0.28385800  0.31379100  1
  Si  Si5  1  0.24931100  0.78243500  0.81446600  1
  Si  Si6  1  0.24851500  0.82788000  0.20042400  1
  Si  Si7  1  0.24893500  0.33100800  0.70078700  1
  Si  Si8  1  0.24910400  0.38743600  0.98477600  1
  O  O0  1  0.94277900  0.22314800  0.12406000  1
  O  O1  1  0.93206800  0.71816200  0.62882100  1
  O  O2  1  0.93331300  0.58349600  0.32581700  1
  O  O3  1  0.94249300  0.07451400  0.82641400  1
  O  O4  1  0.93288300  0.69866400  0.04608000  1
  O  O5  1  0.93286700  0.19790700  0.54416300  1
  O  O6  1  0.43290500  0.28309400  0.37094200  1
  O  O7  1  0.43237100  0.77800000  0.87204700  1
  O  O8  1  0.43169600  0.91520700  0.17348600  1
  O  O9  1  0.43259400  0.41803100  0.67390300  1
  O  O10  1  0.44183700  0.79705100  0.45108500  1
  O  O11  1  0.43244700  0.30438300  0.95419600  1
  O  O12  1  0.74521000  0.37285600  0.23581300  1
  O  O13  1  0.74466000  0.86082000  0.73350700  1
  O  O14  1  0.74531500  0.67140300  0.20155700  1
  O  O15  1  0.74511000  0.16865500  0.69509400  1
  O  O16  1  0.74462900  0.47003900  0.06347500  1
  O  O17  1  0.74541900  0.96728100  0.56368500  1
  O  O18  1  0.24512700  0.13837900  0.26553000  1
  O  O19  1  0.24510400  0.63790200  0.76507700  1
  O  O20  1  0.24457900  0.82991400  0.29729300  1
  O  O21  1  0.24516400  0.33096600  0.79779300  1
  O  O22  1  0.24516800  0.04153800  0.43158300  1
  O  O23  1  0.24502900  0.53285800  0.93604000  1
  O  O24  1  0.73674500  0.99858000  0.00155500  1
  O  O25  1  0.73538600  0.49718000  0.49958200  1
  O  O26  1  0.23507600  0.99754800  0.99975900  1
  O  O27  1  0.23609300  0.49810700  0.50119200  1
  O  O28  1  0.55819200  0.21349400  0.12189400  1
  O  O29  1  0.56784800  0.71118900  0.62702300  1
  O  O30  1  0.56846700  0.58453600  0.32968600  1
  O  O31  1  0.55851400  0.07622600  0.83220600  1
  O  O32  1  0.56752400  0.70457800  0.04342500  1
  O  O33  1  0.56786400  0.20300700  0.54144200  1
  O  O34  1  0.06799800  0.28972900  0.37225400  1
  O  O35  1  0.06893100  0.78470100  0.87340600  1
  O  O36  1  0.06829000  0.91417900  0.16908200  1
  O  O37  1  0.06793200  0.41679700  0.66962800  1
  O  O38  1  0.05931300  0.78915200  0.45495600  1
  O  O39  1  0.06871400  0.29833200  0.95671700  1
  O  O40  1  0.75023300  0.07176400  0.24918700  1
  O  O41  1  0.75066100  0.58432000  0.74503900  1
  O  O42  1  0.75159200  0.82348600  0.33589500  1
  O  O43  1  0.74993400  0.33776500  0.83902700  1
  O  O44  1  0.75103100  0.08997400  0.41988600  1
  O  O45  1  0.75085700  0.59505900  0.92010000  1
  O  O46  1  0.25103300  0.41467500  0.25426600  1
  O  O47  1  0.25159500  0.91518900  0.75667100  1
  O  O48  1  0.25098700  0.67323800  0.16477500  1
  O  O49  1  0.25092300  0.17647200  0.66491600  1
  O  O50  1  0.25151600  0.41248500  0.07979500  1
  O  O51  1  0.25013400  0.91089100  0.58883200  1
loop_
_geom_bond_atom_site_label_1
_geom_bond_atom_site_label_2
_geom_bond_distance
_geom_bond_site_symmetry_2
La0 O40 2.447338 1_565
La0 O44 2.506731 1_565
La0 O42 2.508379 1_555
La0 O22 2.526418 1_565
La0 O20 2.568050 1_555
La0 O18 2.603629 1_565
La0 O10 2.835473 1_555
La0 O8 2.912223 1_555
La0 O6 2.928076 1_565
La1 O43 2.405975 1_555
La1 O45 2.512531 1_555
La1 O41 2.517956 1_555
La1 O23 2.572003 1_555
La1 O21 2.574145 1_555
La1 O19 2.606080 1_555
La1 O11 2.846724 1_555
La1 O7 2.873301 1_555
La1 O9 2.902361 1_555
La2 O12 2.491794 1_555
La2 O46 2.496201 1_655
La2 O50 2.509588 1_655
La2 O48 2.548970 1_655
La2 O16 2.567026 1_555
La2 O14 2.601509 1_555
La2 O0 2.807050 1_555
La2 O2 2.886854 1_555
La2 O4 2.923834 1_555
La3 O51 2.449070 1_645
La3 O47 2.517111 1_645
La3 O49 2.520855 1_655
La3 O15 2.522574 1_555
La3 O13 2.563770 1_545
La3 O17 2.598182 1_545
La3 O3 2.817509 1_555
La3 O1 2.914379 1_545
La3 O5 2.923142 1_555
La4 O24 2.319217 1_555
La4 O8 2.468620 1_555
La4 O36 2.491138 1_655
La4 O14 2.547282 1_555
La4 O32 2.609024 1_555
La4 O4 2.657691 1_555
La4 O40 2.823125 1_565
La5 O25 2.348597 1_555
La5 O15 2.473258 1_555
La5 O9 2.489487 1_555
La5 O37 2.507156 1_655
La5 O33 2.580700 1_555
La5 O5 2.619774 1_555
La5 O41 2.913022 1_555
La6 O25 2.351877 1_555
La6 O10 2.420067 1_555
La6 O38 2.432852 1_655
La6 O17 2.574398 1_555
La6 O29 2.621138 1_555
La6 O1 2.662927 1_555
La6 O42 2.848660 1_555
La7 O24 2.342638 1_546
La7 O28 2.502493 1_556
La7 O11 2.506564 1_555
La7 O39 2.538132 1_655
La7 O16 2.551477 1_556
La7 O0 2.559607 1_556
La7 O43 2.927372 1_555
La8 O25 2.339131 1_555
La8 O6 2.478528 1_555
La8 O12 2.485532 1_555
La8 O34 2.497259 1_655
La8 O30 2.573912 1_555
La8 O2 2.616709 1_555
La8 O44 2.916813 1_555
La9 O24 2.331464 1_556
La9 O31 2.483944 1_565
La9 O7 2.526655 1_555
La9 O3 2.535890 1_565
La9 O13 2.546866 1_555
La9 O35 2.548256 1_655
La9 O45 2.932352 1_555
La10 O27 2.340885 1_555
La10 O38 2.476817 1_555
La10 O2 2.513678 1_455
La10 O10 2.526543 1_555
La10 O30 2.540934 1_555
La10 O20 2.543503 1_555
La10 O46 2.998501 1_555
La11 O26 2.346963 1_545
La11 O3 2.418098 1_455
La11 O31 2.430332 1_555
La11 O21 2.577394 1_555
La11 O39 2.620071 1_555
La11 O11 2.666432 1_555
La11 O47 2.845653 1_545
La12 O26 2.308448 1_554
La12 O4 2.482407 1_455
La12 O32 2.503346 1_555
La12 O23 2.552286 1_554
La12 O35 2.577171 1_554
La12 O7 2.624623 1_554
La12 O48 2.897665 1_555
La13 O27 2.348104 1_555
La13 O22 2.465298 1_555
La13 O5 2.480515 1_455
La13 O33 2.496427 1_555
La13 O34 2.579132 1_555
La13 O6 2.617162 1_555
La13 O49 2.912427 1_555
La14 O26 2.351294 1_544
La14 O0 2.417219 1_455
La14 O28 2.430614 1_555
La14 O18 2.560432 1_555
La14 O36 2.619767 1_545
La14 O8 2.662857 1_545
La14 O50 2.897462 1_555
La15 O27 2.329537 1_555
La15 O1 2.468729 1_455
La15 O29 2.494083 1_555
La15 O19 2.556542 1_555
La15 O37 2.612277 1_555
La15 O9 2.659650 1_555
La15 O51 2.841276 1_555
La16 O40 2.417649 1_565
La16 O44 2.481755 1_565
La16 O42 2.482883 1_555
La16 O22 2.493289 1_665
La16 O20 2.534624 1_655
La16 O18 2.560203 1_665
La16 O38 2.954791 1_655
La16 O36 2.986205 1_655
La16 O34 2.990831 1_665
La17 O43 2.388190 1_555
La17 O45 2.489613 1_555
La17 O41 2.493203 1_555
La17 O23 2.534768 1_655
La17 O21 2.540232 1_655
La17 O19 2.573218 1_655
La17 O39 2.922486 1_655
La17 O35 2.948625 1_655
La17 O37 2.979589 1_655
La18 O12 2.457657 1_555
La18 O46 2.472692 1_555
La18 O50 2.486849 1_555
La18 O48 2.514696 1_555
La18 O16 2.534028 1_555
La18 O14 2.554138 1_555
La18 O28 2.928219 1_555
La18 O30 2.944945 1_555
La18 O32 2.995108 1_555
La19 O51 2.419206 1_545
La19 O15 2.490571 1_555
La19 O47 2.494484 1_545
La19 O49 2.496690 1_555
La19 O13 2.528860 1_545
La19 O17 2.557327 1_545
La19 O31 2.936111 1_555
La19 O29 2.985333 1_545
La19 O33 2.985465 1_555
Al0 O40 1.756106 1_555
Al0 O12 1.773954 1_555
Al0 O28 1.780442 1_555
Al0 O0 1.781317 1_555
Al1 O43 1.757051 1_555
Al1 O15 1.774205 1_555
Al1 O31 1.779461 1_555
Al1 O3 1.780486 1_555
Al2 O51 1.757921 1_555
Al2 O22 1.771459 1_565
Al2 O38 1.781249 1_555
Al2 O10 1.782411 1_555
O1 Si0 1.652015 1_555
O2 Si1 1.655510 1_555
O4 Si2 1.654393 1_555
O5 Si3 1.656434 1_555
O6 Si4 1.655722 1_555
O7 Si5 1.656339 1_555
O8 Si6 1.653271 1_555
O9 Si7 1.654265 1_555
O11 Si8 1.651449 1_555
O13 Si0 1.655080 1_555
O14 Si1 1.657029 1_555
O16 Si2 1.657830 1_555
O17 Si3 1.654030 1_565
O18 Si4 1.655189 1_555
O19 Si5 1.656854 1_555
O20 Si6 1.654932 1_555
O21 Si7 1.657133 1_555
O23 Si8 1.659103 1_555
O29 Si0 1.651766 1_555
O30 Si1 1.655144 1_555
O32 Si2 1.653961 1_555
O33 Si3 1.656244 1_555
O34 Si4 1.655689 1_555
O35 Si5 1.655510 1_555
O36 Si6 1.653080 1_555
O37 Si7 1.653992 1_555
O39 Si8 1.650967 1_555
O41 Si0 1.641928 1_555
O42 Si1 1.639533 1_555
O44 Si3 1.643267 1_555
O45 Si2 1.640405 1_556
O46 Si4 1.643200 1_555
O47 Si5 1.640323 1_555
O48 Si6 1.642636 1_555
O49 Si7 1.643038 1_555
O50 Si8 1.641677 1_554
