# generated using pymatgen
data_CsCeMg14
_symmetry_space_group_name_H-M   'P 1'
_cell_length_a   6.61451225
_cell_length_b   6.61451109
_cell_length_c   10.40175948
_cell_angle_alpha   90.00000000
_cell_angle_beta   90.00000000
_cell_angle_gamma   120.00000573
_symmetry_Int_Tables_number   1
_chemical_formula_structural   CsCeMg14
_chemical_formula_sum   'Cs1 Ce1 Mg14'
_cell_volume   394.12409658
_cell_formula_units_Z   1
loop_
 _symmetry_equiv_pos_site_id
 _symmetry_equiv_pos_as_xyz
  1  'x, y, z'
loop_
 _atom_site_type_symbol
 _atom_site_label
 _atom_site_symmetry_multiplicity
 _atom_site_fract_x
 _atom_site_fract_y
 _atom_site_fract_z
 _atom_site_occupancy
  Cs  Cs0  1  0.16666700  0.33333300  0.62500000  1
  Ce  Ce0  1  0.16666700  0.33333300  0.12500000  1
  Mg  Mg0  1  0.17091511  0.83545706  0.12500000  1
  Mg  Mg1  1  0.17217954  0.83608927  0.62500000  1
  Mg  Mg2  1  0.66454294  0.32908489  0.12500000  1
  Mg  Mg3  1  0.66391073  0.32782046  0.62500000  1
  Mg  Mg4  1  0.66454294  0.83545706  0.12500000  1
  Mg  Mg5  1  0.66391073  0.83608927  0.62500000  1
  Mg  Mg6  1  0.34299811  0.15700189  0.36557294  1
  Mg  Mg7  1  0.34299811  0.15700189  0.88442706  1
  Mg  Mg8  1  0.34299811  0.68599722  0.36557294  1
  Mg  Mg9  1  0.34299811  0.68599722  0.88442706  1
  Mg  Mg10  1  0.81400278  0.15700189  0.36557294  1
  Mg  Mg11  1  0.81400278  0.15700189  0.88442706  1
  Mg  Mg12  1  0.83333300  0.66666700  0.37228630  1
  Mg  Mg13  1  0.83333300  0.66666700  0.87771370  1
loop_
_geom_bond_atom_site_label_1
_geom_bond_atom_site_label_2
_geom_bond_distance
_geom_bond_site_symmetry_2
Cs0 Mg1 3.307406 1_555
Cs0 Mg5 3.307406 1_555
Cs0 Mg1 3.307406 1_545
Cs0 Mg5 3.307406 1_445
Cs0 Mg3 3.307407 1_555
Cs0 Mg3 3.307407 1_455
Cs0 Mg6 3.370900 1_555
Cs0 Mg7 3.370900 1_555
Cs0 Mg8 3.370907 1_555
Cs0 Mg9 3.370907 1_555
Cs0 Mg10 3.370907 1_455
Cs0 Mg11 3.370907 1_455
Ce0 Mg6 3.216052 1_555
Ce0 Mg7 3.216052 1_554
Ce0 Mg9 3.216059 1_554
Ce0 Mg8 3.216059 1_555
Ce0 Mg11 3.216059 1_454
Ce0 Mg10 3.216059 1_455
Ce0 Mg0 3.307345 1_545
Ce0 Mg4 3.307345 1_555
Ce0 Mg4 3.307345 1_445
Ce0 Mg0 3.307345 1_555
Ce0 Mg2 3.307346 1_555
Ce0 Mg2 3.307346 1_455
Mg0 Mg9 3.108075 1_554
Mg0 Mg8 3.108075 1_555
Mg0 Mg7 3.108081 1_564
Mg0 Mg6 3.108081 1_565
Mg0 Mg12 3.218042 1_455
Mg0 Mg13 3.218042 1_454
Mg0 Mg2 3.265107 1_565
Mg0 Mg4 3.265107 1_555
Mg0 Mg2 3.349404 1_455
Mg0 Mg4 3.349405 1_455
Mg1 Mg3 3.252561 1_565
Mg1 Mg5 3.252562 1_555
Mg1 Mg8 3.265865 1_555
Mg1 Mg9 3.265865 1_555
Mg1 Mg6 3.265871 1_565
Mg1 Mg7 3.265871 1_565
Mg1 Mg13 3.267641 1_455
Mg1 Mg12 3.267641 1_455
Mg1 Mg3 3.361950 1_455
Mg1 Mg5 3.361950 1_455
Mg2 Mg7 3.108081 1_554
Mg2 Mg6 3.108081 1_555
Mg2 Mg4 3.265107 1_545
Mg2 Mg4 3.349404 1_555
Mg3 Mg5 3.252561 1_545
Mg3 Mg6 3.265872 1_555
Mg3 Mg7 3.265872 1_555
Mg3 Mg5 3.361950 1_555
Mg4 Mg9 3.108082 1_554
Mg4 Mg8 3.108082 1_555
Mg5 Mg9 3.265872 1_555
Mg5 Mg8 3.265872 1_555
Mg6 Mg8 3.115466 1_545
Mg6 Mg8 3.499045 1_555
Mg7 Mg9 3.115466 1_545
Mg7 Mg9 3.499045 1_555
Mg10 Mg2 3.108075 1_555
Mg10 Mg4 3.108081 1_545
Mg10 Mg8 3.115466 1_545
Mg10 Mg6 3.115466 1_555
Mg10 Mg3 3.265865 1_555
Mg10 Mg5 3.265872 1_545
Mg10 Mg12 3.309845 1_555
Mg10 Mg12 3.309845 1_545
Mg10 Mg8 3.499045 1_655
Mg10 Mg6 3.499046 1_655
Mg11 Mg2 3.108075 1_556
Mg11 Mg4 3.108081 1_546
Mg11 Mg9 3.115466 1_545
Mg11 Mg7 3.115466 1_555
Mg11 Mg3 3.265865 1_555
Mg11 Mg5 3.265872 1_545
Mg11 Mg13 3.309845 1_555
Mg11 Mg13 3.309845 1_545
Mg11 Mg9 3.499045 1_655
Mg11 Mg7 3.499046 1_655
Mg12 Mg4 3.218035 1_555
Mg12 Mg2 3.218042 1_555
Mg12 Mg5 3.267634 1_555
Mg12 Mg3 3.267640 1_555
Mg12 Mg6 3.309845 1_555
Mg12 Mg6 3.309845 1_665
Mg12 Mg8 3.309846 1_555
Mg12 Mg8 3.309846 1_655
Mg13 Mg4 3.218035 1_556
Mg13 Mg2 3.218042 1_556
Mg13 Mg5 3.267634 1_555
Mg13 Mg3 3.267640 1_555
Mg13 Mg7 3.309845 1_555
Mg13 Mg7 3.309845 1_665
Mg13 Mg9 3.309846 1_555
Mg13 Mg9 3.309846 1_655
