# generated using pymatgen
data_Al4SiC4
_symmetry_space_group_name_H-M   'P 1'
_cell_length_a   3.29199226
_cell_length_b   3.29199226
_cell_length_c   21.83655400
_cell_angle_alpha   90.00000000
_cell_angle_beta   90.00000000
_cell_angle_gamma   120.00000520
_symmetry_Int_Tables_number   1
_chemical_formula_structural   Al4SiC4
_chemical_formula_sum   'Al8 Si2 C8'
_cell_volume   204.94263865
_cell_formula_units_Z   2
loop_
 _symmetry_equiv_pos_site_id
 _symmetry_equiv_pos_as_xyz
  1  'x, y, z'
loop_
 _atom_site_type_symbol
 _atom_site_label
 _atom_site_symmetry_multiplicity
 _atom_site_fract_x
 _atom_site_fract_y
 _atom_site_fract_z
 _atom_site_occupancy
  Al  Al0  1  0.00000000  0.00000000  0.84788200  1
  Al  Al1  1  0.00000000  0.00000000  0.34788200  1
  Al  Al2  1  0.66666700  0.33333300  0.76256700  1
  Al  Al3  1  0.33333300  0.66666700  0.26256700  1
  Al  Al4  1  0.66666700  0.33333300  0.95206400  1
  Al  Al5  1  0.33333300  0.66666700  0.45206400  1
  Al  Al6  1  0.66666700  0.33333300  0.54416200  1
  Al  Al7  1  0.33333300  0.66666700  0.04416200  1
  Si  Si0  1  0.00000000  0.00000000  0.66164600  1
  Si  Si1  1  0.00000000  0.00000000  0.16164600  1
  C  C0  1  0.00000000  0.00000000  0.74752100  1
  C  C1  1  0.00000000  0.00000000  0.24752100  1
  C  C2  1  0.66666700  0.33333300  0.86399700  1
  C  C3  1  0.33333300  0.66666700  0.36399700  1
  C  C4  1  0.66666700  0.33333300  0.63446100  1
  C  C5  1  0.33333300  0.66666700  0.13446100  1
  C  C6  1  0.00000000  0.00000000  0.99870000  1
  C  C7  1  0.00000000  0.00000000  0.49870000  1
loop_
_geom_bond_atom_site_label_1
_geom_bond_atom_site_label_2
_geom_bond_distance
_geom_bond_site_symmetry_2
Al0 C2 1.932933 1_455
Al0 C2 1.932935 1_445
Al0 C2 1.932935 1_555
Al0 C0 2.191538 1_555
Al1 C3 1.932933 1_545
Al1 C3 1.932935 1_555
Al1 C3 1.932935 1_445
Al1 C1 2.191538 1_555
Al2 C0 1.928819 1_655
Al2 C0 1.928822 1_665
Al2 C0 1.928822 1_555
Al2 C2 2.214882 1_555
Al3 C1 1.928819 1_565
Al3 C1 1.928822 1_555
Al3 C1 1.928822 1_665
Al3 C3 2.214882 1_555
Al4 C2 1.923080 1_555
Al4 C6 2.156264 1_655
Al4 C6 2.156266 1_555
Al4 C6 2.156266 1_665
Al5 C3 1.923080 1_555
Al5 C7 2.156264 1_565
Al5 C7 2.156266 1_555
Al5 C7 2.156266 1_665
Al6 C4 1.971819 1_555
Al6 C7 2.144275 1_655
Al6 C7 2.144278 1_665
Al6 C7 2.144278 1_555
Al7 C5 1.971819 1_555
Al7 C6 2.144275 1_564
Al7 C6 2.144278 1_554
Al7 C6 2.144278 1_664
C0 Si0 1.875214 1_555
C1 Si1 1.875214 1_555
C4 Si0 1.991178 1_655
C4 Si0 1.991181 1_555
C4 Si0 1.991181 1_665
C5 Si1 1.991178 1_565
C5 Si1 1.991181 1_665
C5 Si1 1.991181 1_555
