# generated using pymatgen
data_K2CoI4
_symmetry_space_group_name_H-M   'P 1'
_cell_length_a   8.13265001
_cell_length_b   7.79551170
_cell_length_c   9.69460889
_cell_angle_alpha   71.70667347
_cell_angle_beta   90.00000000
_cell_angle_gamma   90.00000000
_symmetry_Int_Tables_number   1
_chemical_formula_structural   K2CoI4
_chemical_formula_sum   'K4 Co2 I8'
_cell_volume   583.55878438
_cell_formula_units_Z   2
loop_
 _symmetry_equiv_pos_site_id
 _symmetry_equiv_pos_as_xyz
  1  'x, y, z'
loop_
 _atom_site_type_symbol
 _atom_site_label
 _atom_site_symmetry_multiplicity
 _atom_site_fract_x
 _atom_site_fract_y
 _atom_site_fract_z
 _atom_site_occupancy
  K  K0  1  0.75000000  0.78261459  0.55074470  1
  K  K1  1  0.25000000  0.21738541  0.44925530  1
  K  K2  1  0.75000000  0.73492415  0.06890453  1
  K  K3  1  0.25000000  0.26507585  0.93109547  1
  Co  Co0  1  0.75000000  0.21746790  0.70160967  1
  Co  Co1  1  0.25000000  0.78253210  0.29839033  1
  I  I0  1  0.75000000  0.39637521  0.42714429  1
  I  I1  1  0.25000000  0.60362479  0.57285571  1
  I  I2  1  -0.00012878  -0.00087718  0.23932365  1
  I  I3  1  0.00012878  0.00087718  0.76067635  1
  I  I4  1  0.49987122  0.00087718  0.76067635  1
  I  I5  1  0.50012878  -0.00087718  0.23932365  1
  I  I6  1  0.75000000  0.41600224  0.87157606  1
  I  I7  1  0.25000000  0.58399776  0.12842394  1
loop_
_geom_bond_atom_site_label_1
_geom_bond_atom_site_label_2
_geom_bond_distance
_geom_bond_site_symmetry_2
Co0 I0 2.587572 1_555
Co0 I4 2.590324 1_555
Co0 I3 2.590324 1_655
Co0 I6 2.590623 1_555
Co1 I1 2.587572 1_555
Co1 I2 2.590324 1_565
Co1 I5 2.590324 1_565
Co1 I7 2.590623 1_555
I0 K0 3.573015 1_555
I0 K2 3.643201 1_555
I1 K1 3.573015 1_555
I1 K3 3.643201 1_555
I2 K0 3.590861 1_445
I2 K2 3.638266 1_445
I2 K1 3.653616 1_555
I2 K3 3.671007 1_554
I3 K1 3.590861 1_555
I3 K3 3.638266 1_555
I3 K0 3.653616 1_445
I3 K2 3.671007 1_446
I4 K1 3.590861 1_555
I4 K3 3.638266 1_555
I4 K0 3.653616 1_545
I4 K2 3.671007 1_546
I5 K0 3.590861 1_545
I5 K2 3.638266 1_545
I5 K1 3.653616 1_555
I5 K3 3.671007 1_554
I6 K0 3.501668 1_555
I6 K2 3.581388 1_556
I7 K1 3.501668 1_555
I7 K3 3.581388 1_554
