# generated using pymatgen
data_Na3Th6ZnF29
_symmetry_space_group_name_H-M   'P 1'
_cell_length_a   10.14786774
_cell_length_b   10.14786774
_cell_length_c   13.32374142
_cell_angle_alpha   89.50216587
_cell_angle_beta   89.50216587
_cell_angle_gamma   59.52711440
_symmetry_Int_Tables_number   1
_chemical_formula_structural   Na3Th6ZnF29
_chemical_formula_sum   'Na6 Th12 Zn2 F58'
_cell_volume   1182.48440741
_cell_formula_units_Z   2
loop_
 _symmetry_equiv_pos_site_id
 _symmetry_equiv_pos_as_xyz
  1  'x, y, z'
loop_
 _atom_site_type_symbol
 _atom_site_label
 _atom_site_symmetry_multiplicity
 _atom_site_fract_x
 _atom_site_fract_y
 _atom_site_fract_z
 _atom_site_occupancy
  Na  Na0  1  0.00666000  0.00532000  0.73263500  1
  Na  Na1  1  0.99468000  0.99334000  0.26736500  1
  Na  Na2  1  0.33631100  0.33412700  0.40986000  1
  Na  Na3  1  0.66587300  0.66368900  0.59014000  1
  Na  Na4  1  0.33103600  0.33414100  0.91028000  1
  Na  Na5  1  0.66585900  0.66896400  0.08972000  1
  Th  Th0  1  0.66086700  0.92548000  0.84912300  1
  Th  Th1  1  0.39879900  0.67182100  0.85086000  1
  Th  Th2  1  0.92408700  0.39926700  0.85321800  1
  Th  Th3  1  0.32817900  0.60120100  0.14914000  1
  Th  Th4  1  0.07452000  0.33913300  0.15087700  1
  Th  Th5  1  0.60073300  0.07591300  0.14678200  1
  Th  Th6  1  0.92211500  0.68054300  0.35651500  1
  Th  Th7  1  0.39760700  0.92502400  0.35001100  1
  Th  Th8  1  0.67818700  0.39789400  0.35171800  1
  Th  Th9  1  0.07497600  0.60239300  0.64998900  1
  Th  Th10  1  0.31945700  0.07788500  0.64348500  1
  Th  Th11  1  0.60210600  0.32181300  0.64828200  1
  Zn  Zn0  1  0.00424000  0.99576000  0.00000000  1
  Zn  Zn1  1  0.99990500  0.00009500  0.50000000  1
  F  F0  1  0.30651500  0.56193100  0.96808900  1
  F  F1  1  0.13242300  0.29503800  0.97181200  1
  F  F2  1  0.55964800  0.13060900  0.96490400  1
  F  F3  1  0.70496200  0.86757700  0.02818800  1
  F  F4  1  0.43806900  0.69348500  0.03191100  1
  F  F5  1  0.86939100  0.44035200  0.03509600  1
  F  F6  1  0.86555400  0.69690500  0.53727800  1
  F  F7  1  0.43843400  0.87031700  0.53214900  1
  F  F8  1  0.69257400  0.43777600  0.53341400  1
  F  F9  1  0.12968300  0.56156600  0.46785100  1
  F  F10  1  0.30309500  0.13444600  0.46272200  1
  F  F11  1  0.56222400  0.30742600  0.46658600  1
  F  F12  1  0.46687700  0.41201500  0.80319300  1
  F  F13  1  0.11846000  0.46344000  0.80511400  1
  F  F14  1  0.41195700  0.11782700  0.80154600  1
  F  F15  1  0.53656000  0.88154000  0.19488600  1
  F  F16  1  0.58798500  0.53312300  0.19680700  1
  F  F17  1  0.88217300  0.58804300  0.19845400  1
  F  F18  1  0.19108400  0.68711900  0.76956000  1
  F  F19  1  0.11824400  0.19100700  0.76795700  1
  F  F20  1  0.69986400  0.11178700  0.77844400  1
  F  F21  1  0.80899300  0.88175600  0.23204400  1
  F  F22  1  0.31288100  0.80891600  0.23044000  1
  F  F23  1  0.88821300  0.30013600  0.22155600  1
  F  F24  1  0.81663700  0.10655300  0.59457400  1
  F  F25  1  0.07291400  0.81708400  0.59411400  1
  F  F26  1  0.10587100  0.07735400  0.59171100  1
  F  F27  1  0.18291600  0.92708600  0.40588600  1
  F  F28  1  0.89344700  0.18336300  0.40542600  1
  F  F29  1  0.92264600  0.89412900  0.40828900  1
  F  F30  1  0.33894700  0.48704400  0.61603300  1
  F  F31  1  0.17131700  0.34225000  0.61364600  1
  F  F32  1  0.48937700  0.17093600  0.61758300  1
  F  F33  1  0.65775000  0.82868300  0.38635400  1
  F  F34  1  0.51295600  0.66105300  0.38396700  1
  F  F35  1  0.82906400  0.51062300  0.38241700  1
  F  F36  1  0.82472700  0.66073100  0.88756200  1
  F  F37  1  0.50446400  0.83108700  0.88807600  1
  F  F38  1  0.65956600  0.51293600  0.88619900  1
  F  F39  1  0.16891300  0.49553600  0.11192400  1
  F  F40  1  0.33926900  0.17527300  0.11243800  1
  F  F41  1  0.48706400  0.34043400  0.11380100  1
  F  F42  1  0.58730800  0.87751500  0.69737100  1
  F  F43  1  0.53271700  0.58357900  0.69774800  1
  F  F44  1  0.87938100  0.53716800  0.70072300  1
  F  F45  1  0.41642100  0.46728300  0.30225200  1
  F  F46  1  0.12248500  0.41269200  0.30262900  1
  F  F47  1  0.46283200  0.12061900  0.29927700  1
  F  F48  1  0.88792000  0.81404700  0.75256800  1
  F  F49  1  0.31149600  0.88108500  0.73339700  1
  F  F50  1  0.81013100  0.30762900  0.73708900  1
  F  F51  1  0.11891500  0.68850400  0.26660300  1
  F  F52  1  0.18595300  0.11208000  0.24743200  1
  F  F53  1  0.69237100  0.18986900  0.26291100  1
  F  F54  1  0.16913600  0.89166700  0.90464300  1
  F  F55  1  0.92856000  0.17945600  0.92052200  1
  F  F56  1  0.10833300  0.83086400  0.09535700  1
  F  F57  1  0.82054400  0.07144000  0.07947800  1
loop_
_geom_bond_atom_site_label_1
_geom_bond_atom_site_label_2
_geom_bond_distance
_geom_bond_site_symmetry_2
F0 Na4 2.332980 1_555
F0 Th1 2.358753 1_555
F0 Th3 2.478103 1_556
F1 Na4 2.380890 1_555
F1 Th2 2.417883 1_455
F1 Th4 2.442360 1_556
F2 Na4 2.306720 1_555
F2 Th0 2.372246 1_545
F2 Th5 2.472597 1_556
F3 Na5 2.380890 1_555
F3 Th5 2.417883 1_565
F3 Th0 2.442360 1_554
F4 Na5 2.332980 1_555
F4 Th3 2.358753 1_555
F4 Th1 2.478103 1_554
F5 Na5 2.306720 1_555
F5 Th4 2.372246 1_655
F5 Th2 2.472597 1_554
F6 Na3 2.319387 1_555
F6 Th9 2.377938 1_655
F6 Th6 2.458427 1_555
F7 Na3 2.327005 1_555
F7 Th10 2.353464 1_565
F7 Th7 2.475841 1_555
F8 Na3 2.301496 1_555
F8 Th11 2.368548 1_555
F8 Th8 2.475646 1_555
F9 Na2 2.327005 1_555
F9 Th6 2.353464 1_455
F9 Th9 2.475841 1_555
F10 Na2 2.319387 1_555
F10 Th7 2.377938 1_545
F10 Th10 2.458427 1_555
F11 Na2 2.301496 1_555
F11 Th8 2.368548 1_555
F11 Th11 2.475646 1_555
F12 Na4 2.368890 1_555
F12 Th11 2.385516 1_555
F12 Th1 2.450659 1_555
F13 Na4 2.342696 1_555
F13 Th9 2.406032 1_555
F13 Th2 2.449311 1_455
F14 Th0 2.365937 1_545
F14 Na4 2.407917 1_555
F14 Th10 2.432195 1_555
F15 Na5 2.342696 1_555
F15 Th7 2.406032 1_555
F15 Th5 2.449311 1_565
F16 Na5 2.368890 1_555
F16 Th8 2.385516 1_555
F16 Th3 2.450659 1_555
F17 Th4 2.365937 1_655
F17 Na5 2.407917 1_555
F17 Th6 2.432195 1_555
F18 Th1 2.312016 1_555
F18 Th9 2.397810 1_555
F18 Na0 2.833800 1_565
F19 Th2 2.327743 1_455
F19 Th10 2.415430 1_555
F19 Na0 2.691313 1_555
F20 Th0 2.310693 1_545
F20 Th11 2.520996 1_555
F20 Na0 2.792741 1_655
F21 Th5 2.327750 1_565
F21 Th6 2.415421 1_555
F21 Na1 2.691310 1_555
F22 Th3 2.312016 1_555
F22 Th7 2.397810 1_555
F22 Na1 2.833800 1_455
F23 Th4 2.310693 1_655
F23 Th8 2.520996 1_555
F23 Na1 2.792741 1_545
F24 Zn1 2.039312 1_555
F24 Th11 2.280345 1_555
F24 Na0 2.485376 1_655
F25 Zn1 2.037275 1_465
F25 Th9 2.286275 1_555
F25 Na0 2.498855 1_565
F26 Zn1 2.039292 1_455
F26 Th10 2.282890 1_555
F26 Na0 2.400669 1_555
F27 Zn1 2.037275 1_465
F27 Th7 2.286275 1_555
F27 Na1 2.498855 1_455
F28 Zn1 2.039312 1_555
F28 Th8 2.280345 1_555
F28 Na1 2.485376 1_545
F29 Zn1 2.039292 1_565
F29 Th6 2.282890 1_555
F29 Na1 2.400669 1_555
F30 Th9 2.357617 1_555
F30 Th11 2.365056 1_555
F31 Th10 2.348711 1_555
F31 Th9 2.357034 1_555
F32 Th11 2.369733 1_555
F32 Th10 2.370546 1_555
F33 Th6 2.348711 1_555
F33 Th7 2.357034 1_555
F34 Th7 2.357617 1_555
F34 Th8 2.365056 1_555
F35 Th8 2.369733 1_555
F35 Th6 2.370546 1_555
F36 Th2 2.359169 1_555
F36 Th0 2.388531 1_555
F37 Th0 2.285831 1_555
F37 Th1 2.405968 1_555
F38 Th1 2.346244 1_555
F38 Th2 2.361576 1_555
F39 Th4 2.285831 1_555
F39 Th3 2.405968 1_555
F40 Th5 2.359169 1_555
F40 Th4 2.388531 1_555
F41 Th3 2.346244 1_555
F41 Th5 2.361576 1_555
F42 Th0 2.300886 1_555
F42 Na3 2.380058 1_555
F42 Th10 2.537904 1_565
F43 Th1 2.357898 1_555
F43 Na3 2.366983 1_555
F43 Th11 2.472183 1_555
F44 Th2 2.369611 1_555
F44 Na3 2.390564 1_555
F44 Th9 2.477130 1_655
F45 Th3 2.357898 1_555
F45 Na2 2.366983 1_555
F45 Th8 2.472183 1_555
F46 Th4 2.300886 1_555
F46 Na2 2.380058 1_555
F46 Th6 2.537904 1_455
F47 Th5 2.369611 1_555
F47 Na2 2.390564 1_555
F47 Th7 2.477130 1_545
F48 Th0 2.360879 1_555
F48 Th9 2.440313 1_655
F48 Na0 2.765441 1_665
F49 Th10 2.355937 1_565
F49 Th1 2.408736 1_555
F49 Na0 2.683954 1_565
F50 Th11 2.368418 1_555
F50 Th2 2.396440 1_555
F50 Na0 2.681027 1_655
F51 Th6 2.355937 1_455
F51 Th3 2.408736 1_555
F51 Na1 2.683954 1_455
F52 Th4 2.360879 1_555
F52 Th7 2.440313 1_545
F52 Na1 2.765441 1_445
F53 Th8 2.368418 1_555
F53 Th5 2.396440 1_555
F53 Na1 2.681027 1_545
F54 Zn0 1.929682 1_556
F54 Th1 2.376449 1_555
F54 Na0 2.718821 1_565
F55 Zn0 1.927151 1_646
F55 Th2 2.375940 1_555
F55 Na0 2.939304 1_655
F56 Zn0 1.929682 1_555
F56 Th3 2.376449 1_555
F56 Na1 2.718821 1_455
F57 Zn0 1.927151 1_645
F57 Th5 2.375940 1_555
F57 Na1 2.939304 1_545
