# generated using pymatgen
data_SrLaVFeO6
_symmetry_space_group_name_H-M   'P 1'
_cell_length_a   5.53857351
_cell_length_b   5.60348532
_cell_length_c   9.68247715
_cell_angle_alpha   73.14923187
_cell_angle_beta   90.55088840
_cell_angle_gamma   59.66271017
_symmetry_Int_Tables_number   1
_chemical_formula_structural   SrLaVFeO6
_chemical_formula_sum   'Sr2 La2 V2 Fe2 O12'
_cell_volume   243.74622079
_cell_formula_units_Z   2
loop_
 _symmetry_equiv_pos_site_id
 _symmetry_equiv_pos_as_xyz
  1  'x, y, z'
loop_
 _atom_site_type_symbol
 _atom_site_label
 _atom_site_symmetry_multiplicity
 _atom_site_fract_x
 _atom_site_fract_y
 _atom_site_fract_z
 _atom_site_occupancy
  Sr  Sr0  1  0.37455400  0.25012800  0.12528400  1
  Sr  Sr1  1  0.87439700  0.25021300  0.62523500  1
  La  La0  1  0.12235600  0.75177700  0.37669800  1
  La  La1  1  0.62250600  0.74982200  0.87678200  1
  V  V0  1  0.24918700  0.49998800  0.75066400  1
  V  V1  1  0.74903400  0.50042200  0.25048500  1
  Fe  Fe0  1  0.49980800  0.00031600  0.50012000  1
  Fe  Fe1  1  0.99979800  0.00015300  0.99976000  1
  O  O0  1  0.62763900  0.25023400  0.37435600  1
  O  O1  1  0.12709300  0.25033000  0.87409300  1
  O  O2  1  0.62644900  0.74841800  0.37414700  1
  O  O3  1  0.12738300  0.74780800  0.87432600  1
  O  O4  1  0.11377600  0.25680300  0.37187300  1
  O  O5  1  0.61414100  0.25715100  0.87179900  1
  O  O6  1  0.87335600  0.74865200  0.12506000  1
  O  O7  1  0.37401400  0.74900900  0.62573900  1
  O  O8  1  0.87460500  0.25079400  0.12588500  1
  O  O9  1  0.37365700  0.25239700  0.62534100  1
  O  O10  1  0.38826800  0.74237900  0.12614600  1
  O  O11  1  0.88797900  0.74320700  0.62620700  1
loop_
_geom_bond_atom_site_label_1
_geom_bond_atom_site_label_2
_geom_bond_distance
_geom_bond_site_symmetry_2
La0 O0 2.746029 1_465
La0 O11 2.753149 1_455
La0 O2 2.756095 1_455
La0 O7 2.765750 1_555
La0 O9 2.767481 1_555
La0 O8 2.778915 1_465
La0 O2 2.782893 1_555
La0 O4 2.792896 1_565
La0 O6 2.796996 1_455
La0 O0 2.797100 1_555
La0 O4 2.811656 1_555
La0 O10 2.849835 1_555
La1 O3 2.747896 1_555
La1 O10 2.751541 1_556
La1 O1 2.752777 1_565
La1 O6 2.761654 1_556
La1 O8 2.768971 1_556
La1 O7 2.784064 1_555
La1 O1 2.790480 1_655
La1 O3 2.790974 1_655
La1 O9 2.792343 1_565
La1 O5 2.798604 1_555
La1 O5 2.805964 1_565
La1 O11 2.848744 1_555
Fe0 O7 1.990531 1_545
Fe0 O9 1.991402 1_555
Fe0 O0 1.993674 1_555
Fe0 O2 1.996634 1_545
Fe0 O4 1.997245 1_555
Fe0 O11 1.997270 1_545
Fe1 O1 1.992187 1_655
Fe1 O6 1.992602 1_546
Fe1 O8 1.992872 1_556
Fe1 O3 1.994137 1_645
Fe1 O5 1.994676 1_555
Fe1 O10 1.999577 1_646
O0 V1 1.961842 1_555
O0 Sr1 2.775669 1_555
O0 Sr0 2.778038 1_555
O1 V0 1.960741 1_555
O1 Sr1 2.775211 1_455
O1 Sr0 2.779674 1_556
O2 V1 1.962887 1_555
O2 Sr0 2.775251 1_565
O2 Sr1 2.778144 1_555
O3 V0 1.962216 1_555
O3 Sr0 2.776034 1_556
O3 Sr1 2.778383 1_465
O4 V1 1.887933 1_455
O4 Sr1 2.799409 1_455
O4 Sr0 2.802075 1_555
O5 V0 1.887764 1_555
O5 Sr1 2.800374 1_555
O5 Sr0 2.801014 1_556
O6 V1 1.971791 1_555
O6 Sr0 2.769876 1_655
O6 Sr0 2.773079 1_565
O7 V0 1.974907 1_555
O7 Sr1 2.770555 1_555
O7 Sr1 2.772359 1_465
O8 V1 1.976756 1_555
O8 Sr0 2.767186 1_655
O8 Sr0 2.771409 1_555
O9 V0 1.974442 1_555
O9 Sr1 2.767236 1_555
O9 Sr1 2.771381 1_455
O10 V1 1.884382 1_555
O10 Sr0 2.799849 1_555
O10 Sr0 2.805122 1_565
O11 V0 1.886552 1_655
O11 Sr1 2.801005 1_565
O11 Sr1 2.803935 1_555
