# generated using pymatgen
data_PrFeCo4
_symmetry_space_group_name_H-M   'P 1'
_cell_length_a   5.07011664
_cell_length_b   5.07011664
_cell_length_c   3.94140900
_cell_angle_alpha   90.00000000
_cell_angle_beta   90.00000000
_cell_angle_gamma   120.00000841
_symmetry_Int_Tables_number   1
_chemical_formula_structural   PrFeCo4
_chemical_formula_sum   'Pr1 Fe1 Co4'
_cell_volume   87.74411555
_cell_formula_units_Z   1
loop_
 _symmetry_equiv_pos_site_id
 _symmetry_equiv_pos_as_xyz
  1  'x, y, z'
loop_
 _atom_site_type_symbol
 _atom_site_label
 _atom_site_symmetry_multiplicity
 _atom_site_fract_x
 _atom_site_fract_y
 _atom_site_fract_z
 _atom_site_occupancy
  Pr  Pr0  1  0.66666700  0.33333300  0.00000000  1
  Fe  Fe0  1  0.00000000  0.00000000  0.00000000  1
  Co  Co0  1  0.33333300  0.66666700  0.00000000  1
  Co  Co1  1  0.16799800  0.33599600  0.50000000  1
  Co  Co2  1  0.66400400  0.83200200  0.50000000  1
  Co  Co3  1  0.16799800  0.83200200  0.50000000  1
loop_
_geom_bond_atom_site_label_1
_geom_bond_atom_site_label_2
_geom_bond_distance
_geom_bond_site_symmetry_2
Fe0 Pr0 2.927230 1_455
Fe0 Pr0 2.927234 1_555
Fe0 Pr0 2.927234 1_445
Co0 Co3 2.447806 1_554
Co0 Co3 2.447806 1_555
Co0 Co2 2.447809 1_554
Co0 Co2 2.447809 1_555
Co0 Co1 2.447809 1_554
Co0 Co1 2.447809 1_555
Co0 Pr0 2.927230 1_455
Co0 Pr0 2.927230 1_565
Co0 Fe0 2.927230 1_565
Co0 Fe0 2.927234 1_555
Co0 Fe0 2.927234 1_665
Co0 Pr0 2.927239 1_555
Co1 Fe0 2.461749 1_555
Co1 Fe0 2.461749 1_556
Co1 Co2 2.514808 1_555
Co1 Co3 2.514808 1_555
Co1 Co2 2.555308 1_445
Co1 Co3 2.555308 1_545
Co1 Pr0 3.210969 1_456
Co1 Pr0 3.210969 1_455
Co1 Pr0 3.210973 1_555
Co1 Pr0 3.210973 1_556
Co2 Fe0 2.461749 1_665
Co2 Fe0 2.461749 1_666
Co2 Co3 2.514808 1_555
Co2 Co3 2.555308 1_655
Co2 Pr0 3.210969 1_565
Co2 Pr0 3.210969 1_566
Co2 Pr0 3.210973 1_555
Co2 Pr0 3.210973 1_556
Co3 Fe0 2.461749 1_565
Co3 Fe0 2.461749 1_566
Co3 Pr0 3.210971 1_456
Co3 Pr0 3.210971 1_455
Co3 Pr0 3.210971 1_566
Co3 Pr0 3.210971 1_565
