# generated using pymatgen
data_LiV3O4
_symmetry_space_group_name_H-M   'P 1'
_cell_length_a   5.27507373
_cell_length_b   5.96758693
_cell_length_c   6.15230280
_cell_angle_alpha   119.00104121
_cell_angle_beta   73.54162823
_cell_angle_gamma   90.00866785
_symmetry_Int_Tables_number   1
_chemical_formula_structural   LiV3O4
_chemical_formula_sum   'Li2 V6 O8'
_cell_volume   160.25822432
_cell_formula_units_Z   2
loop_
 _symmetry_equiv_pos_site_id
 _symmetry_equiv_pos_as_xyz
  1  'x, y, z'
loop_
 _atom_site_type_symbol
 _atom_site_label
 _atom_site_symmetry_multiplicity
 _atom_site_fract_x
 _atom_site_fract_y
 _atom_site_fract_z
 _atom_site_occupancy
  Li  Li0  1  0.00002200  0.00070000  0.50003900  1
  Li  Li1  1  0.00001200  0.49926400  0.50000400  1
  V  V0  1  0.50001300  0.74997700  0.00002200  1
  V  V1  1  0.50001300  0.24997700  0.00002100  1
  V  V2  1  0.50001500  0.74997300  0.50002000  1
  V  V3  1  0.99966700  0.50130300  0.00257100  1
  V  V4  1  0.00035600  0.99864200  0.99747200  1
  V  V5  1  0.50001500  0.24997400  0.50002200  1
  O  O0  1  0.74000200  0.38232000  0.76435100  1
  O  O1  1  0.73641100  0.88135900  0.76279200  1
  O  O2  1  0.26361400  0.61859700  0.23725200  1
  O  O3  1  0.26002600  0.11763700  0.23569100  1
  O  O4  1  0.24601000  0.12997000  0.75835100  1
  O  O5  1  0.24612000  0.62829700  0.75831300  1
  O  O6  1  0.75390500  0.87164800  0.24173200  1
  O  O7  1  0.75401400  0.36997200  0.24169100  1
loop_
_geom_bond_atom_site_label_1
_geom_bond_atom_site_label_2
_geom_bond_distance
_geom_bond_site_symmetry_2
Li0 O4 2.187218 1_555
Li0 O6 2.187739 1_445
Li0 O3 2.202123 1_555
Li0 O0 2.204131 1_455
Li0 O1 2.212768 1_445
Li0 O2 2.213412 1_545
Li1 O7 2.187265 1_455
Li1 O5 2.187710 1_555
Li1 O0 2.202160 1_455
Li1 O3 2.204147 1_555
Li1 O2 2.212711 1_555
Li1 O1 2.213401 1_455
O0 V0 2.096379 1_556
O0 V1 2.097283 1_556
O0 V3 2.157904 1_556
O0 V5 2.189035 1_555
O1 V0 2.092346 1_556
O1 V1 2.092979 1_566
O1 V4 2.161482 1_655
O1 V2 2.167092 1_555
O2 V0 2.092340 1_555
O2 V1 2.092990 1_555
O2 V3 2.161495 1_455
O2 V2 2.167095 1_555
O3 V0 2.096388 1_545
O3 V1 2.097266 1_555
O3 V4 2.157921 1_544
O3 V5 2.189052 1_555
O4 V4 2.120168 1_545
O4 V3 2.126672 1_456
O4 V1 2.148230 1_556
O4 V5 2.175033 1_555
O4 V2 2.182464 1_545
O5 V4 2.120589 1_555
O5 V3 2.125962 1_456
O5 V0 2.147924 1_556
O5 V5 2.175373 1_555
O5 V2 2.181469 1_555
O6 V3 2.120584 1_555
O6 V4 2.125967 1_654
O6 V0 2.147924 1_555
O6 V5 2.175374 1_565
O6 V2 2.181432 1_555
O7 V3 2.120174 1_555
O7 V4 2.126657 1_644
O7 V1 2.148221 1_555
O7 V5 2.175004 1_555
O7 V2 2.182467 1_555
