# generated using pymatgen
data_Lu5SbPd2
_symmetry_space_group_name_H-M   'P 1'
_cell_length_a   7.53096940
_cell_length_b   7.53097045
_cell_length_c   8.54146514
_cell_angle_alpha   116.15796957
_cell_angle_beta   116.15797720
_cell_angle_gamma   89.99999824
_symmetry_Int_Tables_number   1
_chemical_formula_structural   Lu5SbPd2
_chemical_formula_sum   'Lu10 Sb2 Pd4'
_cell_volume   378.75974622
_cell_formula_units_Z   2
loop_
 _symmetry_equiv_pos_site_id
 _symmetry_equiv_pos_as_xyz
  1  'x, y, z'
loop_
 _atom_site_type_symbol
 _atom_site_label
 _atom_site_symmetry_multiplicity
 _atom_site_fract_x
 _atom_site_fract_y
 _atom_site_fract_z
 _atom_site_occupancy
  Lu  Lu0  1  0.20234069  0.01210960  0.71445029  1
  Lu  Lu1  1  0.01210960  0.51210960  0.71445029  1
  Lu  Lu2  1  0.70234069  0.20234069  0.71445029  1
  Lu  Lu3  1  0.98789040  0.48789040  0.28554971  1
  Lu  Lu4  1  0.51210960  0.70234069  0.71445029  1
  Lu  Lu5  1  0.79765931  0.98789040  0.28554971  1
  Lu  Lu6  1  0.48789040  0.29765931  0.28554971  1
  Lu  Lu7  1  0.29765931  0.79765931  0.28554971  1
  Lu  Lu8  1  0.50000000  0.50000000  -0.00000000  1
  Lu  Lu9  1  -0.00000000  0.00000000  -0.00000000  1
  Sb  Sb0  1  0.25000000  0.25000000  0.50000000  1
  Sb  Sb1  1  0.75000000  0.75000000  0.50000000  1
  Pd  Pd0  1  0.36256506  0.86256506  -0.00000000  1
  Pd  Pd1  1  0.13743494  0.36256506  -0.00000000  1
  Pd  Pd2  1  0.63743494  0.13743494  0.00000000  1
  Pd  Pd3  1  0.86256506  0.63743494  0.00000000  1
loop_
_geom_bond_atom_site_label_1
_geom_bond_atom_site_label_2
_geom_bond_distance
_geom_bond_site_symmetry_2
Lu0 Pd0 2.915506 1_546
Lu0 Pd2 2.915506 1_556
Lu0 Pd1 2.920437 1_556
Lu0 Sb0 3.188526 1_555
Lu0 Sb1 3.188526 1_445
Lu1 Pd1 2.915506 1_556
Lu1 Pd3 2.915506 1_456
Lu1 Pd0 2.920437 1_556
Lu1 Sb1 3.188526 1_455
Lu1 Sb0 3.188526 1_555
Lu2 Pd1 2.915506 1_656
Lu2 Pd3 2.915507 1_556
Lu2 Pd2 2.920437 1_556
Lu2 Sb0 3.188526 1_555
Lu2 Sb1 3.188527 1_545
Lu3 Pd3 2.915506 1_555
Lu3 Pd1 2.915506 1_655
Lu3 Pd2 2.920437 1_555
Lu3 Sb0 3.188526 1_655
Lu3 Sb1 3.188526 1_555
Lu4 Pd0 2.915506 1_556
Lu4 Pd2 2.915507 1_566
Lu4 Pd3 2.920437 1_556
Lu4 Sb1 3.188526 1_555
Lu4 Sb0 3.188527 1_555
Lu5 Pd2 2.915506 1_565
Lu5 Pd0 2.915506 1_555
Lu5 Pd3 2.920437 1_555
Lu5 Sb1 3.188526 1_555
Lu5 Sb0 3.188526 1_665
Lu6 Pd2 2.915506 1_555
Lu6 Pd0 2.915507 1_545
Lu6 Pd1 2.920437 1_555
Lu6 Sb0 3.188526 1_555
Lu6 Sb1 3.188527 1_555
Lu7 Pd3 2.915506 1_455
Lu7 Pd1 2.915507 1_555
Lu7 Pd0 2.920437 1_555
Lu7 Sb1 3.188526 1_555
Lu7 Sb0 3.188527 1_565
Lu8 Pd3 2.920053 1_555
Lu8 Pd1 2.920053 1_555
Lu8 Pd2 2.920053 1_555
Lu8 Pd0 2.920053 1_555
Lu8 Sb0 3.339120 1_554
Lu8 Sb1 3.339120 1_555
Lu9 Pd2 2.920053 1_455
Lu9 Pd0 2.920053 1_545
Lu9 Pd1 2.920053 1_555
Lu9 Pd3 2.920053 1_445
Lu9 Sb0 3.339120 1_555
Lu9 Sb1 3.339120 1_444
