# generated using pymatgen
data_Eu2Cr2O5
_symmetry_space_group_name_H-M   'P 1'
_cell_length_a   8.80050116
_cell_length_b   8.80050116
_cell_length_c   8.80050116
_cell_angle_alpha   143.63652400
_cell_angle_beta   142.82230764
_cell_angle_gamma   52.98406102
_symmetry_Int_Tables_number   1
_chemical_formula_structural   Eu2Cr2O5
_chemical_formula_sum   'Eu4 Cr4 O10'
_cell_volume   242.70950247
_cell_formula_units_Z   2
loop_
 _symmetry_equiv_pos_site_id
 _symmetry_equiv_pos_as_xyz
  1  'x, y, z'
loop_
 _atom_site_type_symbol
 _atom_site_label
 _atom_site_symmetry_multiplicity
 _atom_site_fract_x
 _atom_site_fract_y
 _atom_site_fract_z
 _atom_site_occupancy
  Eu  Eu0  1  0.87594400  0.38432100  0.48011000  1
  Eu  Eu1  1  0.12405600  0.60416600  0.50837800  1
  Eu  Eu2  1  0.40421200  0.88432100  0.50837800  1
  Eu  Eu3  1  0.59578800  0.10416600  0.48011000  1
  Cr  Cr0  1  0.00000000  0.99028300  0.99028300  1
  Cr  Cr1  1  0.50000000  0.49028300  0.99028300  1
  Cr  Cr2  1  0.79544800  0.77440300  0.06985100  1
  Cr  Cr3  1  0.20455200  0.27440300  0.97895500  1
  O  O0  1  0.75897700  0.75613500  0.48901900  1
  O  O1  1  0.24102300  0.73004200  0.99715800  1
  O  O2  1  0.76711600  0.25613500  0.99715800  1
  O  O3  1  0.23288400  0.23004200  0.48901900  1
  O  O4  1  0.81816600  0.84764800  0.92492600  1
  O  O5  1  0.18183400  0.10676000  0.02948100  1
  O  O6  1  0.42272200  0.34764800  0.02948100  1
  O  O7  1  0.57727800  0.60676000  0.92492600  1
  O  O8  1  0.85786700  0.14224200  0.50010800  1
  O  O9  1  0.14213300  0.64224200  0.28437500  1
loop_
_geom_bond_atom_site_label_1
_geom_bond_atom_site_label_2
_geom_bond_distance
_geom_bond_site_symmetry_2
Eu0 O8 2.377291 1_555
Eu0 O6 2.454127 1_555
Eu0 O3 2.522037 1_655
Eu0 O1 2.541886 1_655
Eu0 O4 2.678990 1_555
Eu0 O2 2.710440 1_554
Eu0 O0 2.726264 1_555
Eu0 O4 2.864421 1_544
Eu1 O9 2.377307 1_555
Eu1 O7 2.454124 1_555
Eu1 O2 2.522036 1_454
Eu1 O0 2.541882 1_455
Eu1 O5 2.678986 1_566
Eu1 O3 2.710434 1_555
Eu1 O1 2.726255 1_555
Eu1 O5 2.864428 1_555
Eu2 O9 2.377300 1_555
Eu2 O4 2.454120 1_555
Eu2 O1 2.522040 1_554
Eu2 O3 2.541890 1_565
Eu2 O6 2.678986 1_566
Eu2 O0 2.710437 1_555
Eu2 O2 2.726261 1_565
Eu2 O6 2.864423 1_555
Eu3 O8 2.377314 1_555
Eu3 O5 2.454128 1_555
Eu3 O0 2.522036 1_545
Eu3 O2 2.541882 1_555
Eu3 O7 2.678988 1_555
Eu3 O1 2.710434 1_544
Eu3 O3 2.726255 1_555
Eu3 O7 2.864425 1_544
Cr0 O3 1.968241 1_566
Cr0 O2 1.968241 1_465
Cr0 O1 1.979257 1_555
Cr0 O0 1.979257 1_455
Cr0 O4 2.063096 1_455
Cr0 O5 2.063103 1_566
Cr1 O0 1.968241 1_556
Cr1 O1 1.968241 1_555
Cr1 O3 1.979257 1_555
Cr1 O2 1.979257 1_555
Cr1 O6 2.063087 1_556
Cr1 O7 2.063096 1_555
Cr2 O4 1.991915 1_554
Cr2 O7 1.991915 1_554
Cr2 O8 2.050329 1_565
Cr2 O9 2.076176 1_655
Cr3 O5 1.991907 1_556
Cr3 O6 1.991922 1_556
Cr3 O9 2.050332 1_556
Cr3 O8 2.076180 1_455
