# generated using pymatgen
data_Sc3Os
_symmetry_space_group_name_H-M   'P 1'
_cell_length_a   6.27574337
_cell_length_b   6.27574337
_cell_length_c   4.64685900
_cell_angle_alpha   90.00000000
_cell_angle_beta   90.00000000
_cell_angle_gamma   119.99999332
_symmetry_Int_Tables_number   1
_chemical_formula_structural   Sc3Os
_chemical_formula_sum   'Sc6 Os2'
_cell_volume   158.49680321
_cell_formula_units_Z   2
loop_
 _symmetry_equiv_pos_site_id
 _symmetry_equiv_pos_as_xyz
  1  'x, y, z'
loop_
 _atom_site_type_symbol
 _atom_site_label
 _atom_site_symmetry_multiplicity
 _atom_site_fract_x
 _atom_site_fract_y
 _atom_site_fract_z
 _atom_site_occupancy
  Sc  Sc0  1  0.82412700  0.17587300  0.75000000  1
  Sc  Sc1  1  0.35174600  0.17587300  0.75000000  1
  Sc  Sc2  1  0.82412700  0.64825400  0.75000000  1
  Sc  Sc3  1  0.17587300  0.82412700  0.25000000  1
  Sc  Sc4  1  0.64825400  0.82412700  0.25000000  1
  Sc  Sc5  1  0.17587300  0.35174600  0.25000000  1
  Os  Os0  1  0.66666700  0.33333300  0.25000000  1
  Os  Os1  1  0.33333300  0.66666700  0.75000000  1
loop_
_geom_bond_atom_site_label_1
_geom_bond_atom_site_label_2
_geom_bond_distance
_geom_bond_site_symmetry_2
Sc0 Sc1 2.964542 1_555
Sc0 Sc2 2.964542 1_555
Sc0 Sc4 3.008822 1_546
Sc0 Sc4 3.008822 1_545
Sc0 Sc5 3.008822 1_655
Sc0 Sc5 3.008822 1_656
Sc0 Sc2 3.311201 1_545
Sc0 Sc1 3.311201 1_655
Sc1 Sc2 2.964542 1_555
Sc1 Sc5 3.008822 1_556
Sc1 Sc5 3.008822 1_555
Sc1 Sc3 3.008822 1_546
Sc1 Sc3 3.008822 1_545
Sc1 Sc2 3.311202 1_445
Sc2 Sc4 3.008822 1_556
Sc2 Sc4 3.008822 1_555
Sc2 Sc3 3.008822 1_656
Sc2 Sc3 3.008822 1_655
Sc3 Sc5 2.964542 1_555
Sc3 Sc4 2.964542 1_555
Sc3 Sc4 3.311201 1_455
Sc3 Sc5 3.311201 1_565
Sc4 Sc5 2.964542 1_555
Sc4 Sc5 3.311202 1_665
Os0 Sc0 2.885795 1_555
Os0 Sc0 2.885795 1_554
Os0 Sc1 2.885799 1_554
Os0 Sc1 2.885799 1_555
Os0 Sc2 2.885799 1_554
Os0 Sc2 2.885799 1_555
Os0 Sc5 3.139464 1_655
Os0 Sc4 3.139464 1_545
Os0 Sc3 3.139467 1_655
Os0 Sc3 3.139467 1_545
Os0 Sc4 3.139470 1_555
Os0 Sc5 3.139470 1_555
Os1 Sc3 2.885795 1_555
Os1 Sc3 2.885795 1_556
Os1 Sc4 2.885799 1_556
Os1 Sc5 2.885799 1_555
Os1 Sc5 2.885799 1_556
Os1 Sc4 2.885799 1_555
Os1 Sc1 3.139464 1_565
Os1 Sc2 3.139464 1_455
Os1 Sc0 3.139467 1_565
Os1 Sc0 3.139467 1_455
Os1 Sc2 3.139470 1_555
Os1 Sc1 3.139470 1_555
