# generated using pymatgen
data_SmUTe6
_symmetry_space_group_name_H-M   'P 1'
_cell_length_a   13.33231890
_cell_length_b   13.33231890
_cell_length_c   4.38675951
_cell_angle_alpha   90.00000000
_cell_angle_beta   90.00000000
_cell_angle_gamma   161.07249844
_symmetry_Int_Tables_number   1
_chemical_formula_structural   SmUTe6
_chemical_formula_sum   'Sm1 U1 Te6'
_cell_volume   252.92857364
_cell_formula_units_Z   1
loop_
 _symmetry_equiv_pos_site_id
 _symmetry_equiv_pos_as_xyz
  1  'x, y, z'
loop_
 _atom_site_type_symbol
 _atom_site_label
 _atom_site_symmetry_multiplicity
 _atom_site_fract_x
 _atom_site_fract_y
 _atom_site_fract_z
 _atom_site_occupancy
  Sm  Sm0  1  0.83025079  0.16974921  -0.00000000  1
  U  U0  1  0.16884313  0.83115687  0.50000000  1
  Te  Te0  1  0.42568702  0.57431298  0.00000000  1
  Te  Te1  1  0.57548691  0.42451309  0.50000000  1
  Te  Te2  1  0.70522213  0.29477787  0.00000000  1
  Te  Te3  1  0.29325301  0.70674699  0.50000000  1
  Te  Te4  1  0.07545819  0.92454181  0.00000000  1
  Te  Te5  1  0.92579881  0.07420119  0.50000000  1
loop_
_geom_bond_atom_site_label_1
_geom_bond_atom_site_label_2
_geom_bond_distance
_geom_bond_site_symmetry_2
Sm0 Te3 3.250132 1_655
Sm0 Te3 3.250132 1_544
Sm0 Te3 3.250132 1_545
Sm0 Te3 3.250132 1_654
Sm0 Te2 3.288470 1_555
Sm0 Te0 3.332612 1_545
Sm0 Te0 3.332612 1_655
Sm0 Te5 3.335637 1_554
Sm0 Te5 3.335637 1_555
Te0 Te5 3.101038 1_565
Te0 Te5 3.101038 1_564
Te0 Te5 3.101038 1_455
Te0 Te5 3.101038 1_454
Te1 Te4 3.101036 1_545
Te1 Te4 3.101036 1_546
Te1 Te4 3.101036 1_656
Te1 Te4 3.101036 1_655
Te1 U0 3.291602 1_655
Te1 U0 3.291602 1_545
Te2 U0 3.245297 1_544
Te2 U0 3.245297 1_545
Te2 U0 3.245297 1_655
Te2 U0 3.245297 1_654
Te3 U0 3.272195 1_555
Te4 U0 3.292987 1_554
Te4 U0 3.292987 1_555
