# generated using pymatgen
data_SrSn3
_symmetry_space_group_name_H-M   'P 1'
_cell_length_a   12.19202952
_cell_length_b   12.19202952
_cell_length_c   12.19202981
_cell_angle_alpha   32.98655770
_cell_angle_beta   32.98655770
_cell_angle_gamma   32.98656085
_symmetry_Int_Tables_number   1
_chemical_formula_structural   SrSn3
_chemical_formula_sum   'Sr4 Sn12'
_cell_volume   478.04654434
_cell_formula_units_Z   4
loop_
 _symmetry_equiv_pos_site_id
 _symmetry_equiv_pos_as_xyz
  1  'x, y, z'
loop_
 _atom_site_type_symbol
 _atom_site_label
 _atom_site_symmetry_multiplicity
 _atom_site_fract_x
 _atom_site_fract_y
 _atom_site_fract_z
 _atom_site_occupancy
  Sr  Sr0  1  0.86106513  0.86106513  0.86106513  1
  Sr  Sr1  1  0.13893487  0.13893487  0.13893487  1
  Sr  Sr2  1  0.70216458  0.70216458  0.70216458  1
  Sr  Sr3  1  0.29783542  0.29783542  0.29783542  1
  Sn  Sn0  1  0.26124365  0.79800112  0.79800112  1
  Sn  Sn1  1  0.79800112  0.79800112  0.26124365  1
  Sn  Sn2  1  0.83897956  0.40280390  0.40280390  1
  Sn  Sn3  1  0.40280390  0.40280390  0.83897956  1
  Sn  Sn4  1  0.40280390  0.83897956  0.40280390  1
  Sn  Sn5  1  0.59719610  0.16102044  0.59719610  1
  Sn  Sn6  1  0.16102044  0.59719610  0.59719610  1
  Sn  Sn7  1  0.59719610  0.59719610  0.16102044  1
  Sn  Sn8  1  0.79800112  0.26124365  0.79800112  1
  Sn  Sn9  1  0.20199888  0.73875635  0.20199888  1
  Sn  Sn10  1  0.20199888  0.20199888  0.73875635  1
  Sn  Sn11  1  0.73875635  0.20199888  0.20199888  1
loop_
_geom_bond_atom_site_label_1
_geom_bond_atom_site_label_2
_geom_bond_distance
_geom_bond_site_symmetry_2
Sn0 Sn3 3.146659 1_555
Sn0 Sn4 3.146659 1_555
Sn0 Sn1 3.206891 1_456
Sn0 Sn8 3.206891 1_465
Sn0 Sr3 3.489553 1_565
Sn0 Sr3 3.489553 1_556
Sn0 Sr2 3.583928 1_555
Sn0 Sr0 3.659526 1_455
Sn1 Sn2 3.146659 1_555
Sn1 Sn4 3.146659 1_555
Sn1 Sn8 3.206891 1_564
Sn1 Sr3 3.489553 1_565
Sn1 Sr3 3.489553 1_655
Sn1 Sr2 3.583928 1_555
Sn1 Sr0 3.659526 1_554
Sn2 Sn3 3.019515 1_555
Sn2 Sn4 3.019515 1_555
Sn2 Sn8 3.146659 1_555
Sn2 Sr1 3.458602 1_655
Sn2 Sr0 3.542043 1_545
Sn2 Sr0 3.542043 1_554
Sn2 Sr3 3.646734 1_655
Sn3 Sn4 3.019515 1_555
Sn3 Sn8 3.146659 1_555
Sn3 Sr1 3.458602 1_556
Sn3 Sr0 3.542043 1_455
Sn3 Sr0 3.542043 1_545
Sn3 Sr3 3.646734 1_556
Sn4 Sr1 3.458602 1_565
Sn4 Sr0 3.542043 1_455
Sn4 Sr0 3.542043 1_554
Sn4 Sr3 3.646734 1_565
Sn5 Sn7 3.019515 1_555
Sn5 Sn6 3.019515 1_555
Sn5 Sr0 3.458602 1_545
Sn5 Sr1 3.542043 1_655
Sn5 Sr1 3.542043 1_556
Sn5 Sr2 3.646734 1_545
Sn6 Sn7 3.019515 1_555
Sn6 Sn9 3.146659 1_555
Sn6 Sr0 3.458602 1_455
Sn6 Sr1 3.542043 1_565
Sn6 Sr1 3.542043 1_556
Sn6 Sr2 3.646734 1_455
Sn7 Sn9 3.146659 1_555
Sn7 Sr0 3.458602 1_554
Sn7 Sr1 3.542043 1_655
Sn7 Sr1 3.542043 1_565
Sn7 Sr2 3.646734 1_554
Sn8 Sr3 3.489553 1_655
Sn8 Sr3 3.489553 1_556
Sn8 Sr2 3.583928 1_555
Sn8 Sr0 3.659526 1_545
Sn9 Sr2 3.489553 1_455
Sn9 Sr2 3.489553 1_554
Sn9 Sr3 3.583928 1_555
Sn9 Sr1 3.659526 1_565
Sn10 Sn5 3.146659 1_555
Sn10 Sn6 3.146659 1_555
Sn10 Sn11 3.206891 1_456
Sn10 Sn9 3.206891 1_546
Sn10 Sr2 3.489553 1_455
Sn10 Sr2 3.489553 1_545
Sn10 Sr3 3.583928 1_555
Sn10 Sr1 3.659526 1_556
Sn11 Sn7 3.146659 1_555
Sn11 Sn5 3.146659 1_555
Sn11 Sn9 3.206891 1_645
Sn11 Sr2 3.489553 1_545
Sn11 Sr2 3.489553 1_554
Sn11 Sr3 3.583928 1_555
Sn11 Sr1 3.659526 1_655
