# generated using pymatgen
data_MgTi
_symmetry_space_group_name_H-M   'P 1'
_cell_length_a   11.74359702
_cell_length_b   11.74359702
_cell_length_c   14.40930201
_cell_angle_alpha   75.31150708
_cell_angle_beta   75.31150708
_cell_angle_gamma   29.27880912
_symmetry_Int_Tables_number   1
_chemical_formula_structural   MgTi
_chemical_formula_sum   'Mg24 Ti24'
_cell_volume   937.89962815
_cell_formula_units_Z   24
loop_
 _symmetry_equiv_pos_site_id
 _symmetry_equiv_pos_as_xyz
  1  'x, y, z'
loop_
 _atom_site_type_symbol
 _atom_site_label
 _atom_site_symmetry_multiplicity
 _atom_site_fract_x
 _atom_site_fract_y
 _atom_site_fract_z
 _atom_site_occupancy
  Mg  Mg0_0  1  0.49998650  0.49998650  0.00299150  1
  Mg  Mg0_1  1  0.49998650  0.49998650  0.50299150  1
  Mg  Mg0_2  1  0.49998650  0.99998650  0.00299150  1
  Mg  Mg0_3  1  0.49998650  0.99998650  0.50299150  1
  Mg  Mg0_4  1  0.99998650  0.49998650  0.00299150  1
  Mg  Mg0_5  1  0.99998650  0.49998650  0.50299150  1
  Mg  Mg0_6  1  0.99998650  0.99998650  0.00299150  1
  Mg  Mg0_7  1  0.99998650  0.99998650  0.50299150  1
  Mg  Mg1_0  1  0.47092900  0.47092900  0.30273350  1
  Mg  Mg1_1  1  0.47092900  0.47092900  0.80273350  1
  Mg  Mg1_2  1  0.47092900  0.97092900  0.30273350  1
  Mg  Mg1_3  1  0.47092900  0.97092900  0.80273350  1
  Mg  Mg1_4  1  0.97092900  0.47092900  0.30273350  1
  Mg  Mg1_5  1  0.97092900  0.47092900  0.80273350  1
  Mg  Mg1_6  1  0.97092900  0.97092900  0.30273350  1
  Mg  Mg1_7  1  0.97092900  0.97092900  0.80273350  1
  Mg  Mg2_0  1  0.33590700  0.33590700  0.33077400  1
  Mg  Mg2_1  1  0.33590700  0.33590700  0.83077400  1
  Mg  Mg2_2  1  0.33590700  0.83590700  0.33077400  1
  Mg  Mg2_3  1  0.33590700  0.83590700  0.83077400  1
  Mg  Mg2_4  1  0.83590700  0.33590700  0.33077400  1
  Mg  Mg2_5  1  0.83590700  0.33590700  0.83077400  1
  Mg  Mg2_6  1  0.83590700  0.83590700  0.33077400  1
  Mg  Mg2_7  1  0.83590700  0.83590700  0.83077400  1
  Ti  Ti0_0  1  0.31201100  0.31201100  0.13285350  1
  Ti  Ti0_1  1  0.31201100  0.31201100  0.63285350  1
  Ti  Ti0_2  1  0.31201100  0.81201100  0.13285350  1
  Ti  Ti0_3  1  0.31201100  0.81201100  0.63285350  1
  Ti  Ti0_4  1  0.81201100  0.31201100  0.13285350  1
  Ti  Ti0_5  1  0.81201100  0.31201100  0.63285350  1
  Ti  Ti0_6  1  0.81201100  0.81201100  0.13285350  1
  Ti  Ti0_7  1  0.81201100  0.81201100  0.63285350  1
  Ti  Ti1_0  1  0.16120900  0.16120900  0.16228800  1
  Ti  Ti1_1  1  0.16120900  0.16120900  0.66228800  1
  Ti  Ti1_2  1  0.16120900  0.66120900  0.16228800  1
  Ti  Ti1_3  1  0.16120900  0.66120900  0.66228800  1
  Ti  Ti1_4  1  0.66120900  0.16120900  0.16228800  1
  Ti  Ti1_5  1  0.66120900  0.16120900  0.66228800  1
  Ti  Ti1_6  1  0.66120900  0.66120900  0.16228800  1
  Ti  Ti1_7  1  0.66120900  0.66120900  0.66228800  1
  Ti  Ti2_0  1  0.13662400  0.13662400  0.48502600  1
  Ti  Ti2_1  1  0.13662400  0.13662400  0.98502600  1
  Ti  Ti2_2  1  0.13662400  0.63662400  0.48502600  1
  Ti  Ti2_3  1  0.13662400  0.63662400  0.98502600  1
  Ti  Ti2_4  1  0.63662400  0.13662400  0.48502600  1
  Ti  Ti2_5  1  0.63662400  0.13662400  0.98502600  1
  Ti  Ti2_6  1  0.63662400  0.63662400  0.48502600  1
  Ti  Ti2_7  1  0.63662400  0.63662400  0.98502600  1
loop_
_geom_bond_atom_site_label_1
_geom_bond_atom_site_label_2
_geom_bond_distance
_geom_bond_site_symmetry_2
Mg0_0 Mg0_6 2.968016 1_545
Mg0_0 Mg0_6 2.968016 1_455
Mg0_0 Ti0_4 3.012111 1_555
Mg0_0 Ti0_2 3.012111 1_555
Mg0_0 Ti1_2 3.018910 1_555
Mg0_0 Ti1_4 3.018910 1_555
Mg0_0 Ti2_3 3.042248 1_554
Mg0_0 Ti2_5 3.042248 1_554
Mg0_0 Ti2_7 3.047460 1_554
Mg0_0 Mg2_3 3.103710 1_554
Mg0_0 Mg2_5 3.103710 1_554
Mg0_0 Mg1_1 3.124307 1_554
Mg0_1 Mg0_7 2.968016 1_545
Mg0_1 Mg0_7 2.968016 1_455
Mg0_1 Ti0_5 3.012111 1_555
Mg0_1 Ti0_3 3.012111 1_555
Mg0_1 Ti1_5 3.018910 1_555
Mg0_1 Ti1_3 3.018910 1_555
Mg0_1 Ti2_2 3.042248 1_555
Mg0_1 Ti2_4 3.042248 1_555
Mg0_1 Ti2_6 3.047460 1_555
Mg0_1 Mg2_2 3.103710 1_555
Mg0_1 Mg2_4 3.103710 1_555
Mg0_1 Mg1_0 3.124307 1_555
Mg0_2 Mg0_4 2.968016 1_465
Mg0_2 Mg0_4 2.968016 1_555
Mg0_2 Ti0_0 3.012111 1_565
Mg0_2 Ti0_6 3.012111 1_555
Mg0_2 Ti1_6 3.018910 1_555
Mg0_2 Ti1_0 3.018910 1_565
Mg0_2 Ti2_7 3.042248 1_554
Mg0_2 Ti2_1 3.042248 1_564
Mg0_2 Ti2_5 3.047460 1_564
Mg0_2 Mg2_1 3.103710 1_564
Mg0_2 Mg2_7 3.103710 1_554
Mg0_2 Mg1_3 3.124307 1_554
Mg0_3 Mg0_5 2.968016 1_555
Mg0_3 Mg0_5 2.968016 1_465
Mg0_3 Ti0_7 3.012111 1_555
Mg0_3 Ti0_1 3.012111 1_565
Mg0_3 Ti1_7 3.018910 1_555
Mg0_3 Ti1_1 3.018910 1_565
Mg0_3 Ti2_6 3.042248 1_555
Mg0_3 Ti2_0 3.042248 1_565
Mg0_3 Ti2_4 3.047460 1_565
Mg0_3 Mg2_6 3.103710 1_555
Mg0_3 Mg2_0 3.103710 1_565
Mg0_3 Mg1_2 3.124307 1_555
Mg0_4 Ti0_0 3.012111 1_655
Mg0_4 Ti0_6 3.012111 1_555
Mg0_4 Ti1_6 3.018910 1_555
Mg0_4 Ti1_0 3.018910 1_655
Mg0_4 Ti2_7 3.042248 1_554
Mg0_4 Ti2_1 3.042248 1_654
Mg0_4 Ti2_3 3.047460 1_654
Mg0_4 Mg2_1 3.103710 1_654
Mg0_4 Mg2_7 3.103710 1_554
Mg0_4 Mg1_5 3.124307 1_554
Mg0_5 Ti0_7 3.012111 1_555
Mg0_5 Ti0_1 3.012111 1_655
Mg0_5 Ti1_7 3.018910 1_555
Mg0_5 Ti1_1 3.018910 1_655
Mg0_5 Ti2_6 3.042248 1_555
Mg0_5 Ti2_0 3.042248 1_655
Mg0_5 Ti2_2 3.047460 1_655
Mg0_5 Mg2_6 3.103710 1_555
Mg0_5 Mg2_0 3.103710 1_655
Mg0_5 Mg1_4 3.124307 1_555
Mg0_6 Ti0_2 3.012111 1_655
Mg0_6 Ti0_4 3.012111 1_565
Mg0_6 Ti1_2 3.018910 1_655
Mg0_6 Ti1_4 3.018910 1_565
Mg0_6 Ti2_3 3.042248 1_654
Mg0_6 Ti2_5 3.042248 1_564
Mg0_6 Ti2_1 3.047460 1_664
Mg0_6 Mg2_5 3.103710 1_564
Mg0_6 Mg2_3 3.103710 1_654
Mg0_6 Mg1_7 3.124307 1_554
Mg0_7 Ti0_3 3.012111 1_655
Mg0_7 Ti0_5 3.012111 1_565
Mg0_7 Ti1_3 3.018910 1_655
Mg0_7 Ti1_5 3.018910 1_565
Mg0_7 Ti2_4 3.042248 1_565
Mg0_7 Ti2_2 3.042248 1_655
Mg0_7 Ti2_0 3.047460 1_665
Mg0_7 Mg2_4 3.103710 1_565
Mg0_7 Mg2_2 3.103710 1_655
Mg0_7 Mg1_6 3.124307 1_555
Mg1_0 Mg1_6 2.968016 1_455
Mg1_0 Mg1_6 2.968016 1_545
Mg1_0 Mg2_0 2.987996 1_555
Mg1_0 Ti1_4 3.095000 1_555
Mg1_0 Ti1_2 3.095000 1_555
Mg1_0 Mg2_2 3.121827 1_555
Mg1_0 Mg2_4 3.121827 1_555
Mg1_0 Ti0_2 3.134128 1_555
Mg1_0 Ti0_4 3.134128 1_555
Mg1_0 Ti2_2 3.183482 1_555
Mg1_0 Ti2_4 3.183482 1_555
Mg1_1 Mg1_7 2.968016 1_455
Mg1_1 Mg1_7 2.968016 1_545
Mg1_1 Mg2_1 2.987996 1_555
Mg1_1 Ti1_5 3.095000 1_555
Mg1_1 Ti1_3 3.095000 1_555
Mg1_1 Mg2_3 3.121827 1_555
Mg1_1 Mg2_5 3.121827 1_555
Mg1_1 Ti0_3 3.134128 1_555
Mg1_1 Ti0_5 3.134128 1_555
Mg1_1 Ti2_3 3.183482 1_555
Mg1_1 Ti2_5 3.183482 1_555
Mg1_2 Mg1_4 2.968016 1_465
Mg1_2 Mg1_4 2.968016 1_555
Mg1_2 Mg2_2 2.987996 1_555
Mg1_2 Ti1_6 3.095000 1_555
Mg1_2 Ti1_0 3.095000 1_565
Mg1_2 Mg2_0 3.121827 1_565
Mg1_2 Mg2_6 3.121827 1_555
Mg1_2 Ti0_0 3.134128 1_565
Mg1_2 Ti0_6 3.134128 1_555
Mg1_2 Ti2_6 3.183482 1_555
Mg1_2 Ti2_0 3.183482 1_565
Mg1_3 Mg1_5 2.968016 1_555
Mg1_3 Mg1_5 2.968016 1_465
Mg1_3 Mg2_3 2.987996 1_555
Mg1_3 Ti1_7 3.095000 1_555
Mg1_3 Ti1_1 3.095000 1_565
Mg1_3 Mg2_7 3.121827 1_555
Mg1_3 Mg2_1 3.121827 1_565
Mg1_3 Ti0_7 3.134128 1_555
Mg1_3 Ti0_1 3.134128 1_565
Mg1_3 Ti2_7 3.183482 1_555
Mg1_3 Ti2_1 3.183482 1_565
Mg1_4 Mg2_4 2.987996 1_555
Mg1_4 Ti1_6 3.095000 1_555
Mg1_4 Ti1_0 3.095000 1_655
Mg1_4 Mg2_6 3.121827 1_555
Mg1_4 Mg2_0 3.121827 1_655
Mg1_4 Ti0_0 3.134128 1_655
Mg1_4 Ti0_6 3.134128 1_555
Mg1_4 Ti2_6 3.183482 1_555
Mg1_4 Ti2_0 3.183482 1_655
Mg1_5 Mg2_5 2.987996 1_555
Mg1_5 Ti1_7 3.095000 1_555
Mg1_5 Ti1_1 3.095000 1_655
Mg1_5 Mg2_7 3.121827 1_555
Mg1_5 Mg2_1 3.121827 1_655
Mg1_5 Ti0_1 3.134128 1_655
Mg1_5 Ti0_7 3.134128 1_555
Mg1_5 Ti2_7 3.183482 1_555
Mg1_5 Ti2_1 3.183482 1_655
Mg1_6 Mg2_6 2.987996 1_555
Mg1_6 Ti1_2 3.095000 1_655
Mg1_6 Ti1_4 3.095000 1_565
Mg1_6 Mg2_2 3.121827 1_655
Mg1_6 Mg2_4 3.121827 1_565
Mg1_6 Ti0_4 3.134128 1_565
Mg1_6 Ti0_2 3.134128 1_655
Mg1_6 Ti2_4 3.183482 1_565
Mg1_6 Ti2_2 3.183482 1_655
Mg1_7 Mg2_7 2.987996 1_555
Mg1_7 Ti1_3 3.095000 1_655
Mg1_7 Ti1_5 3.095000 1_565
Mg1_7 Mg2_3 3.121827 1_655
Mg1_7 Mg2_5 3.121827 1_565
Mg1_7 Ti0_3 3.134128 1_655
Mg1_7 Ti0_5 3.134128 1_565
Mg1_7 Ti2_3 3.183482 1_655
Mg1_7 Ti2_5 3.183482 1_565
Mg2_0 Mg2_6 2.968016 1_545
Mg2_0 Mg2_6 2.968016 1_455
Mg2_0 Ti1_4 2.974402 1_555
Mg2_0 Ti1_2 2.974402 1_555
Mg2_0 Ti0_0 3.039723 1_555
Mg2_0 Ti2_2 3.132655 1_555
Mg2_0 Ti2_4 3.132655 1_555
Mg2_1 Mg2_7 2.968016 1_545
Mg2_1 Mg2_7 2.968016 1_455
Mg2_1 Ti1_5 2.974402 1_555
Mg2_1 Ti1_3 2.974402 1_555
Mg2_1 Ti0_1 3.039723 1_555
Mg2_1 Ti2_3 3.132655 1_555
Mg2_1 Ti2_5 3.132655 1_555
Mg2_2 Mg2_4 2.968016 1_555
Mg2_2 Mg2_4 2.968016 1_465
Mg2_2 Ti1_0 2.974402 1_565
Mg2_2 Ti1_6 2.974402 1_555
Mg2_2 Ti0_2 3.039723 1_555
Mg2_2 Ti2_0 3.132655 1_565
Mg2_2 Ti2_6 3.132655 1_555
Mg2_3 Mg2_5 2.968016 1_465
Mg2_3 Mg2_5 2.968016 1_555
Mg2_3 Ti1_1 2.974402 1_565
Mg2_3 Ti1_7 2.974402 1_555
Mg2_3 Ti0_3 3.039723 1_555
Mg2_3 Ti2_1 3.132655 1_565
Mg2_3 Ti2_7 3.132655 1_555
Mg2_4 Ti1_0 2.974402 1_655
Mg2_4 Ti1_6 2.974402 1_555
Mg2_4 Ti0_4 3.039723 1_555
Mg2_4 Ti2_0 3.132655 1_655
Mg2_4 Ti2_6 3.132655 1_555
Mg2_5 Ti1_1 2.974402 1_655
Mg2_5 Ti1_7 2.974402 1_555
Mg2_5 Ti0_5 3.039723 1_555
Mg2_5 Ti2_1 3.132655 1_655
Mg2_5 Ti2_7 3.132655 1_555
Mg2_6 Ti1_4 2.974402 1_565
Mg2_6 Ti1_2 2.974402 1_655
Mg2_6 Ti0_6 3.039723 1_555
Mg2_6 Ti2_4 3.132655 1_565
Mg2_6 Ti2_2 3.132655 1_655
Mg2_7 Ti1_3 2.974402 1_655
Mg2_7 Ti1_5 2.974402 1_565
Mg2_7 Ti0_7 3.039723 1_555
Mg2_7 Ti2_3 3.132655 1_655
Mg2_7 Ti2_5 3.132655 1_565
Ti0_0 Ti2_5 2.778748 1_554
Ti0_0 Ti2_3 2.778748 1_554
Ti0_0 Ti1_4 2.822218 1_555
Ti0_0 Ti1_2 2.822218 1_555
Ti0_0 Ti0_6 2.968016 1_455
Ti0_0 Ti0_6 2.968016 1_545
Ti0_0 Ti1_0 3.340944 1_555
Ti0_1 Ti2_4 2.778748 1_555
Ti0_1 Ti2_2 2.778748 1_555
Ti0_1 Ti1_5 2.822218 1_555
Ti0_1 Ti1_3 2.822218 1_555
Ti0_1 Ti0_7 2.968016 1_545
Ti0_1 Ti0_7 2.968016 1_455
Ti0_1 Ti1_1 3.340944 1_555
Ti0_2 Ti2_1 2.778748 1_564
Ti0_2 Ti2_7 2.778748 1_554
Ti0_2 Ti1_0 2.822218 1_565
Ti0_2 Ti1_6 2.822218 1_555
Ti0_2 Ti0_4 2.968016 1_465
Ti0_2 Ti0_4 2.968016 1_555
Ti0_2 Ti1_2 3.340944 1_555
Ti0_3 Ti2_0 2.778748 1_565
Ti0_3 Ti2_6 2.778748 1_555
Ti0_3 Ti1_1 2.822218 1_565
Ti0_3 Ti1_7 2.822218 1_555
Ti0_3 Ti0_5 2.968016 1_555
Ti0_3 Ti0_5 2.968016 1_465
Ti0_3 Ti1_3 3.340944 1_555
Ti0_4 Ti2_1 2.778748 1_654
Ti0_4 Ti2_7 2.778748 1_554
Ti0_4 Ti1_0 2.822218 1_655
Ti0_4 Ti1_6 2.822218 1_555
Ti0_4 Ti1_4 3.340944 1_555
Ti0_5 Ti2_0 2.778748 1_655
Ti0_5 Ti2_6 2.778748 1_555
Ti0_5 Ti1_1 2.822218 1_655
Ti0_5 Ti1_7 2.822218 1_555
Ti0_5 Ti1_5 3.340944 1_555
Ti0_6 Ti2_5 2.778748 1_564
Ti0_6 Ti2_3 2.778748 1_654
Ti0_6 Ti1_4 2.822218 1_565
Ti0_6 Ti1_2 2.822218 1_655
Ti0_6 Ti1_6 3.340944 1_555
Ti0_7 Ti2_2 2.778748 1_655
Ti0_7 Ti2_4 2.778748 1_565
Ti0_7 Ti1_3 2.822218 1_655
Ti0_7 Ti1_5 2.822218 1_565
Ti0_7 Ti1_7 3.340944 1_555
Ti1_0 Ti2_1 2.753931 1_554
Ti1_0 Ti1_6 2.968016 1_545
Ti1_0 Ti1_6 2.968016 1_455
Ti1_1 Ti2_0 2.753931 1_555
Ti1_1 Ti1_7 2.968016 1_455
Ti1_1 Ti1_7 2.968016 1_545
Ti1_2 Ti2_3 2.753931 1_554
Ti1_2 Ti1_4 2.968016 1_465
Ti1_2 Ti1_4 2.968016 1_555
Ti1_3 Ti2_2 2.753931 1_555
Ti1_3 Ti1_5 2.968016 1_465
Ti1_3 Ti1_5 2.968016 1_555
Ti1_4 Ti2_5 2.753931 1_554
Ti1_5 Ti2_4 2.753931 1_555
Ti1_6 Ti2_7 2.753931 1_554
Ti1_7 Ti2_6 2.753931 1_555
Ti2_0 Ti2_6 2.968016 1_455
Ti2_0 Ti2_6 2.968016 1_545
Ti2_1 Ti2_7 2.968016 1_545
Ti2_1 Ti2_7 2.968016 1_455
Ti2_2 Ti2_4 2.968016 1_555
Ti2_2 Ti2_4 2.968016 1_465
Ti2_3 Ti2_5 2.968016 1_555
Ti2_3 Ti2_5 2.968016 1_465
