# generated using pymatgen
data_Li4MnCo2O7
_symmetry_space_group_name_H-M   'P 1'
_cell_length_a   15.23076941
_cell_length_b   15.23076941
_cell_length_c   5.85264069
_cell_angle_alpha   84.59279815
_cell_angle_beta   84.59279815
_cell_angle_gamma   10.77572628
_symmetry_Int_Tables_number   1
_chemical_formula_structural   Li4MnCo2O7
_chemical_formula_sum   'Li8 Mn2 Co4 O14'
_cell_volume   252.69812891
_cell_formula_units_Z   2
loop_
 _symmetry_equiv_pos_site_id
 _symmetry_equiv_pos_as_xyz
  1  'x, y, z'
loop_
 _atom_site_type_symbol
 _atom_site_label
 _atom_site_symmetry_multiplicity
 _atom_site_fract_x
 _atom_site_fract_y
 _atom_site_fract_z
 _atom_site_occupancy
  Li  Li0  1  0.42836400  0.42836400  0.78825000  1
  Li  Li1  1  0.28129200  0.28129200  0.35230200  1
  Li  Li2  1  0.14675300  0.14675300  0.92983200  1
  Li  Li3  1  0.85392700  0.85392700  0.07030200  1
  Li  Li4  1  0.71287700  0.71287700  0.64370600  1
  Li  Li5  1  0.57448300  0.57448300  0.22007100  1
  Li  Li6  1  0.00216300  0.00216300  0.49910100  1
  Li  Li7  1  0.71425200  0.71425200  0.14317300  1
  Mn  Mn0  1  0.00026300  0.00026300  0.99919700  1
  Mn  Mn1  1  0.85607000  0.85607000  0.57509100  1
  Co  Co0  1  0.57327800  0.57327800  0.70744600  1
  Co  Co1  1  0.42715100  0.42715100  0.28533700  1
  Co  Co2  1  0.27697000  0.27697000  0.87312000  1
  Co  Co3  1  0.15118900  0.15118900  0.41915100  1
  O  O0  1  0.49802800  0.49802800  0.77179400  1
  O  O1  1  0.35588400  0.35588400  0.34980700  1
  O  O2  1  0.21760600  0.21760600  0.88625900  1
  O  O3  1  0.92842700  0.92842700  0.05853900  1
  O  O4  1  0.79261200  0.79261200  0.62496300  1
  O  O5  1  0.64197300  0.64197300  0.20620500  1
  O  O6  1  0.07027300  0.07027300  0.48725400  1
  O  O7  1  0.35996700  0.35996700  0.79395600  1
  O  O8  1  0.21096400  0.21096400  0.39597700  1
  O  O9  1  0.07213000  0.07213000  0.93579800  1
  O  O10  1  0.78701700  0.78701700  0.08909400  1
  O  O11  1  0.64232400  0.64232400  0.64772900  1
  O  O12  1  0.50040300  0.50040300  0.22945900  1
  O  O13  1  0.92336000  0.92336000  0.51708700  1
loop_
_geom_bond_atom_site_label_1
_geom_bond_atom_site_label_2
_geom_bond_distance
_geom_bond_site_symmetry_2
Li0 O7 2.071379 1_555
Li0 O0 2.105765 1_555
Li0 O3 2.132667 1_546
Li0 O3 2.132667 1_456
Li0 O13 2.152330 1_545
Li0 O13 2.152330 1_455
Li1 O10 2.097095 1_545
Li1 O10 2.097095 1_455
Li1 O8 2.123939 1_555
Li1 O4 2.193939 1_545
Li1 O4 2.193939 1_455
Li1 O1 2.260813 1_555
Li2 O2 2.139732 1_555
Li2 O5 2.153658 1_456
Li2 O5 2.153658 1_546
Li2 O11 2.198011 1_455
Li2 O11 2.198011 1_545
Li2 O9 2.260051 1_555
Li3 O10 2.021733 1_555
Li3 O7 2.153735 1_654
Li3 O7 2.153735 1_564
Li3 O1 2.177878 1_565
Li3 O1 2.177878 1_655
Li3 O3 2.253884 1_555
Li4 O2 2.029674 1_655
Li4 O2 2.029674 1_565
Li4 O8 2.041245 1_655
Li4 O8 2.041245 1_565
Li4 O11 2.137558 1_555
Li4 O4 2.410212 1_555
Li5 O5 2.040685 1_555
Li5 O6 2.114005 1_565
Li5 O6 2.114005 1_655
Li5 O9 2.200203 1_654
Li5 O9 2.200203 1_564
Li5 O12 2.242088 1_555
Li6 O6 2.060163 1_555
Li6 O12 2.134133 1_545
Li6 O12 2.134133 1_455
Li6 O0 2.137813 1_545
Li6 O0 2.137813 1_455
Li6 O13 2.382198 1_445
Li7 O8 2.053391 1_565
Li7 O8 2.053391 1_655
Li7 O2 2.070641 1_564
Li7 O2 2.070641 1_654
Li7 O5 2.188124 1_555
Li7 O10 2.199469 1_555
Mn0 O0 1.959148 1_545
Mn0 O0 1.959148 1_455
Mn0 O12 1.965327 1_546
Mn0 O12 1.965327 1_456
Mn0 O3 2.173372 1_446
Mn0 O9 2.175969 1_555
Mn1 O4 1.918988 1_555
Mn1 O7 1.930984 1_565
Mn1 O7 1.930984 1_655
Mn1 O1 1.945551 1_655
Mn1 O1 1.945551 1_565
Mn1 O13 2.036802 1_555
Co0 O6 1.933021 1_565
Co0 O6 1.933021 1_655
Co0 O9 1.955456 1_565
Co0 O9 1.955456 1_655
Co0 O11 2.090038 1_555
Co0 O0 2.277527 1_555
Co1 O3 1.949089 1_455
Co1 O3 1.949089 1_545
Co1 O13 1.966889 1_455
Co1 O13 1.966889 1_545
Co1 O1 2.158532 1_555
Co1 O12 2.214617 1_555
Co2 O2 1.794684 1_555
Co2 O10 1.951605 1_546
Co2 O10 1.951605 1_456
Co2 O4 2.061375 1_545
Co2 O4 2.061375 1_455
Co2 O7 2.515834 1_555
Co3 O8 1.805013 1_555
Co3 O5 1.934576 1_545
Co3 O5 1.934576 1_455
Co3 O11 1.959371 1_455
Co3 O11 1.959371 1_545
Co3 O6 2.448574 1_555
