# generated using pymatgen
data_MgAl4(HO)12
_symmetry_space_group_name_H-M   'P 1'
_cell_length_a   7.92308737
_cell_length_b   7.36420550
_cell_length_c   7.53058404
_cell_angle_alpha   106.76598958
_cell_angle_beta   141.97996665
_cell_angle_gamma   82.82135734
_symmetry_Int_Tables_number   1
_chemical_formula_structural   MgAl4(HO)12
_chemical_formula_sum   'Mg1 Al4 H12 O12'
_cell_volume   255.20405923
_cell_formula_units_Z   1
loop_
 _symmetry_equiv_pos_site_id
 _symmetry_equiv_pos_as_xyz
  1  'x, y, z'
loop_
 _atom_site_type_symbol
 _atom_site_label
 _atom_site_symmetry_multiplicity
 _atom_site_fract_x
 _atom_site_fract_y
 _atom_site_fract_z
 _atom_site_occupancy
  Mg  Mg0  1  0.56818603  0.43177841  0.52767805  1
  Al  Al0  1  0.47555526  0.85042810  0.29204584  1
  Al  Al1  1  0.51823992  0.13308150  0.69881184  1
  Al  Al2  1  -0.00878300  0.67928791  0.63189176  1
  Al  Al3  1  0.00653096  0.30961026  0.35619250  1
  H  H0  1  0.91138440  0.99453658  0.52355636  1
  H  H1  1  0.03763156  0.95650873  0.28421007  1
  H  H2  1  0.50385734  0.48901664  0.82906370  1
  H  H3  1  0.47569347  0.51394271  0.13620453  1
  H  H4  1  -0.03813737  0.61265578  0.24423638  1
  H  H5  1  0.01931155  0.37539877  0.73118944  1
  H  H6  1  0.21539123  0.11781543  0.17166717  1
  H  H7  1  0.75122657  0.85526597  0.78555018  1
  H  H8  1  0.44189243  0.87747543  0.93244161  1
  H  H9  1  0.50324439  0.21126399  0.03301913  1
  H  H10  1  0.93821855  0.33263489  0.97154824  1
  H  H11  1  0.04074491  0.63536460  0.98564693  1
  O  O0  1  0.84880362  0.90855089  0.54574115  1
  O  O1  1  0.14648622  0.07563062  0.45299029  1
  O  O2  1  0.40240071  0.38850865  0.63916932  1
  O  O3  1  0.59019456  0.58863091  0.34475692  1
  O  O4  1  0.91934923  0.56093471  0.31469998  1
  O  O5  1  0.08588089  0.42407433  0.67921087  1
  O  O6  1  0.41892619  0.11627659  0.34677762  1
  O  O7  1  0.55884041  0.87886829  0.61922393  1
  O  O8  1  0.36302691  0.79708248  0.94302898  1
  O  O9  1  0.63636476  0.17368328  0.04962693  1
  O  O10  1  0.90217119  0.22827058  0.01113590  1
  O  O11  1  0.09105106  0.75186997  0.97729237  1
loop_
_geom_bond_atom_site_label_1
_geom_bond_atom_site_label_2
_geom_bond_distance
_geom_bond_site_symmetry_2
Mg0 O2 2.128002 1_555
Mg0 O3 2.146844 1_555
Mg0 O6 2.230461 1_555
Al0 O0 1.876545 1_555
Al0 O11 1.899672 1_554
Al0 O8 1.912310 1_554
Al0 O7 1.930028 1_555
Al0 O6 1.952006 1_565
Al0 O3 2.033535 1_555
Al1 O7 1.863681 1_545
Al1 O1 1.884171 1_555
Al1 O10 1.893569 1_556
Al1 O9 1.913944 1_556
Al1 O2 1.997189 1_555
Al1 O6 2.052014 1_555
Al2 O8 1.873869 1_555
Al2 O0 1.883344 1_455
Al2 O4 1.889290 1_455
Al2 O11 1.933605 1_555
Al2 O5 1.958267 1_555
Al2 O3 2.022169 1_455
Al3 O5 1.887552 1_555
Al3 O10 1.906602 1_455
Al3 O9 1.914622 1_455
Al3 O4 1.916848 1_455
Al3 O1 1.924446 1_555
Al3 O2 1.981541 1_555
H0 O0 0.971978 1_555
H1 O1 0.973410 1_565
H2 O2 0.982774 1_555
H3 O3 0.986687 1_555
H4 O4 0.985082 1_455
H5 O5 1.006669 1_555
H6 O6 0.996548 1_555
H7 O7 0.986783 1_555
H8 O8 0.972362 1_555
H9 O9 0.971522 1_555
H10 O10 1.040351 1_556
H11 O11 1.027159 1_555
