# generated using pymatgen
data_La2MgAl
_symmetry_space_group_name_H-M   'P 1'
_cell_length_a   12.27415215
_cell_length_b   13.46349703
_cell_length_c   13.46349744
_cell_angle_alpha   66.44649064
_cell_angle_beta   62.88159920
_cell_angle_gamma   62.88159821
_symmetry_Int_Tables_number   1
_chemical_formula_structural   La2MgAl
_chemical_formula_sum   'La2 Mg1 Al1'
_cell_volume   1710.14322318
_cell_formula_units_Z   1
loop_
 _symmetry_equiv_pos_site_id
 _symmetry_equiv_pos_as_xyz
  1  'x, y, z'
loop_
 _atom_site_type_symbol
 _atom_site_label
 _atom_site_symmetry_multiplicity
 _atom_site_fract_x
 _atom_site_fract_y
 _atom_site_fract_z
 _atom_site_occupancy
  La  La0  1  0.73212355  0.00000000  0.00000000  1
  La  La1  1  0.26787645  1.00000000  1.00000000  1
  Mg  Mg0  1  -0.00000000  -0.00000000  -0.00000000  1
  Al  Al0  1  0.50000000  -0.00000000  -0.00000000  1
loop_
_geom_bond_atom_site_label_1
_geom_bond_atom_site_label_2
_geom_bond_distance
_geom_bond_site_symmetry_2
La0 Mg0 3.287956 1_655
La1 Mg0 3.287956 1_566
Al0 La0 2.849120 1_555
Al0 La1 2.849120 1_544
