# generated using pymatgen
data_La3MnO7
_symmetry_space_group_name_H-M   'P 1'
_cell_length_a   5.39407800
_cell_length_b   5.42408900
_cell_length_c   21.11332367
_cell_angle_alpha   75.27004193
_cell_angle_beta   90.00000000
_cell_angle_gamma   90.00000000
_symmetry_Int_Tables_number   1
_chemical_formula_structural   La3MnO7
_chemical_formula_sum   'La12 Mn4 O28'
_cell_volume   597.43093648
_cell_formula_units_Z   4
loop_
 _symmetry_equiv_pos_site_id
 _symmetry_equiv_pos_as_xyz
  1  'x, y, z'
loop_
 _atom_site_type_symbol
 _atom_site_label
 _atom_site_symmetry_multiplicity
 _atom_site_fract_x
 _atom_site_fract_y
 _atom_site_fract_z
 _atom_site_occupancy
  La  La0  1  0.24577900  0.41780400  0.82243400  1
  La  La1  1  0.24467800  0.07070500  0.17705200  1
  La  La2  1  0.25013000  0.24927100  0.00035300  1
  La  La3  1  0.24987000  0.24927100  0.50035300  1
  La  La4  1  0.25532200  0.07070500  0.67705200  1
  La  La5  1  0.25422100  0.41780400  0.32243400  1
  La  La6  1  0.74577900  0.58219600  0.67756600  1
  La  La7  1  0.74467800  0.92929500  0.32294800  1
  La  La8  1  0.75013000  0.75072900  0.49964700  1
  La  La9  1  0.74987000  0.75072900  0.99964700  1
  La  La10  1  0.75532200  0.92929500  0.82294800  1
  La  La11  1  0.75422100  0.58219600  0.17756600  1
  Mn  Mn0  1  0.24613700  0.65052700  0.59486000  1
  Mn  Mn1  1  0.25386300  0.65052700  0.09486000  1
  Mn  Mn2  1  0.74613700  0.34947300  0.90514000  1
  Mn  Mn3  1  0.75386300  0.34947300  0.40514000  1
  O  O0  1  0.99801800  0.59794300  0.39639800  1
  O  O1  1  0.00366500  0.40963200  0.09645000  1
  O  O2  1  0.00198200  0.40205700  0.60360200  1
  O  O3  1  0.00371000  0.89724800  0.59650200  1
  O  O4  1  0.99458600  0.09846300  0.90995600  1
  O  O5  1  0.99633500  0.59036800  0.90355000  1
  O  O6  1  0.00541400  0.90153700  0.09004400  1
  O  O7  1  0.99629000  0.10275200  0.40349800  1
  O  O8  1  0.22723000  0.72103000  0.50542700  1
  O  O9  1  0.23367900  0.56557000  0.19991200  1
  O  O10  1  0.22899500  0.98659400  0.78807100  1
  O  O11  1  0.26632100  0.56557000  0.69991200  1
  O  O12  1  0.27100500  0.98659400  0.28807100  1
  O  O13  1  0.27277000  0.72103000  0.00542700  1
  O  O14  1  0.50198200  0.59794300  0.89639800  1
  O  O15  1  0.49458600  0.90153700  0.59004400  1
  O  O16  1  0.50371000  0.10275200  0.90349800  1
  O  O17  1  0.49633500  0.40963200  0.59645000  1
  O  O18  1  0.49629000  0.89724800  0.09650200  1
  O  O19  1  0.49801800  0.40205700  0.10360200  1
  O  O20  1  0.50366500  0.59036800  0.40355000  1
  O  O21  1  0.50541400  0.09846300  0.40995600  1
  O  O22  1  0.72723000  0.27897000  0.99457300  1
  O  O23  1  0.73367900  0.43443000  0.30008800  1
  O  O24  1  0.72899500  0.01340600  0.71192900  1
  O  O25  1  0.76632100  0.43443000  0.80008800  1
  O  O26  1  0.77100500  0.01340600  0.21192900  1
  O  O27  1  0.77277000  0.27897000  0.49457300  1
loop_
_geom_bond_atom_site_label_1
_geom_bond_atom_site_label_2
_geom_bond_distance
_geom_bond_site_symmetry_2
La0 O14 2.465600 1_555
La0 O11 2.508405 1_555
La0 O16 2.509573 1_555
La0 O5 2.536691 1_455
La0 O4 2.573552 1_455
La0 O10 2.620698 1_545
La0 O25 2.626346 1_455
La0 O25 2.844834 1_555
La0 O10 2.985728 1_555
La1 O12 2.275685 1_545
La1 O19 2.466817 1_555
La1 O1 2.524843 1_555
La1 O18 2.536378 1_545
La1 O6 2.596052 1_545
La1 O26 2.655301 1_455
La1 O9 2.659140 1_545
La1 O9 2.846079 1_555
La1 O26 2.929616 1_555
La2 O22 2.579501 1_554
La2 O13 2.591056 1_555
La2 O4 2.646842 1_454
La2 O6 2.658881 1_545
La2 O16 2.740574 1_554
La2 O1 2.745542 1_555
La2 O5 2.747994 1_454
La2 O18 2.749322 1_545
La2 O22 2.826026 1_454
La2 O13 2.842502 1_545
La2 O14 2.851093 1_554
La2 O19 2.854028 1_555
La3 O27 2.579501 1_455
La3 O8 2.591056 1_555
La3 O21 2.646842 1_555
La3 O15 2.658881 1_545
La3 O7 2.740574 1_455
La3 O17 2.745542 1_555
La3 O20 2.747994 1_555
La3 O3 2.749322 1_545
La3 O27 2.826026 1_555
La3 O8 2.842502 1_545
La3 O0 2.851093 1_455
La3 O2 2.854028 1_555
La4 O10 2.275685 1_545
La4 O2 2.466817 1_555
La4 O17 2.524843 1_555
La4 O3 2.536378 1_545
La4 O15 2.596052 1_545
La4 O24 2.655301 1_555
La4 O11 2.659140 1_545
La4 O11 2.846079 1_555
La4 O24 2.929616 1_455
La5 O0 2.465600 1_455
La5 O9 2.508405 1_555
La5 O7 2.509573 1_455
La5 O20 2.536691 1_555
La5 O21 2.573552 1_555
La5 O12 2.620698 1_545
La5 O23 2.626346 1_555
La5 O23 2.844834 1_455
La5 O12 2.985728 1_555
La6 O2 2.465600 1_655
La6 O25 2.508405 1_555
La6 O3 2.509573 1_655
La6 O17 2.536691 1_555
La6 O15 2.573552 1_555
La6 O24 2.620698 1_565
La6 O11 2.626346 1_555
La6 O11 2.844834 1_655
La6 O24 2.985728 1_555
La7 O26 2.275685 1_565
La7 O0 2.466817 1_555
La7 O20 2.524843 1_555
La7 O7 2.536378 1_565
La7 O21 2.596052 1_565
La7 O12 2.655301 1_555
La7 O23 2.659140 1_565
La7 O23 2.846079 1_555
La7 O12 2.929616 1_655
La8 O8 2.579501 1_655
La8 O27 2.591056 1_555
La8 O15 2.646842 1_555
La8 O21 2.658881 1_565
La8 O3 2.740574 1_655
La8 O20 2.745542 1_555
La8 O17 2.747994 1_555
La8 O7 2.749322 1_565
La8 O8 2.826026 1_555
La8 O27 2.842502 1_565
La8 O2 2.851093 1_655
La8 O0 2.854028 1_555
La9 O13 2.579501 1_556
La9 O22 2.591056 1_555
La9 O6 2.646842 1_656
La9 O4 2.658881 1_565
La9 O18 2.740574 1_556
La9 O5 2.745542 1_555
La9 O1 2.747994 1_656
La9 O16 2.749322 1_565
La9 O13 2.826026 1_656
La9 O22 2.842502 1_565
La9 O19 2.851093 1_556
La9 O14 2.854028 1_555
La10 O24 2.275685 1_565
La10 O14 2.466817 1_555
La10 O5 2.524843 1_555
La10 O16 2.536378 1_565
La10 O4 2.596052 1_565
La10 O10 2.655301 1_655
La10 O25 2.659140 1_565
La10 O25 2.846079 1_555
La10 O10 2.929616 1_555
La11 O19 2.465600 1_555
La11 O23 2.508405 1_555
La11 O18 2.509573 1_555
La11 O1 2.536691 1_655
La11 O6 2.573552 1_655
La11 O26 2.620698 1_565
La11 O9 2.626346 1_655
La11 O9 2.844834 1_555
La11 O26 2.985728 1_555
Mn0 O8 1.831624 1_555
Mn0 O2 1.859676 1_555
Mn0 O17 1.872833 1_555
Mn0 O3 1.877678 1_555
Mn0 O15 1.894633 1_555
Mn0 O11 2.150338 1_555
Mn1 O13 1.831624 1_555
Mn1 O19 1.859676 1_555
Mn1 O1 1.872833 1_555
Mn1 O18 1.877678 1_555
Mn1 O6 1.894633 1_555
Mn1 O9 2.150338 1_555
Mn2 O22 1.831624 1_555
Mn2 O14 1.859676 1_555
Mn2 O5 1.872833 1_555
Mn2 O16 1.877678 1_555
Mn2 O4 1.894633 1_555
Mn2 O25 2.150338 1_555
Mn3 O27 1.831624 1_555
Mn3 O0 1.859676 1_555
Mn3 O20 1.872833 1_555
Mn3 O7 1.877678 1_555
Mn3 O21 1.894633 1_555
Mn3 O23 2.150338 1_555
