# generated using pymatgen
data_CeGaPt
_symmetry_space_group_name_H-M   'P 1'
_cell_length_a   4.49653810
_cell_length_b   7.14244803
_cell_length_c   7.75063271
_cell_angle_alpha   89.99501176
_cell_angle_beta   90.00000000
_cell_angle_gamma   90.00000000
_symmetry_Int_Tables_number   1
_chemical_formula_structural   CeGaPt
_chemical_formula_sum   'Ce4 Ga4 Pt4'
_cell_volume   248.92156429
_cell_formula_units_Z   4
loop_
 _symmetry_equiv_pos_site_id
 _symmetry_equiv_pos_as_xyz
  1  'x, y, z'
loop_
 _atom_site_type_symbol
 _atom_site_label
 _atom_site_symmetry_multiplicity
 _atom_site_fract_x
 _atom_site_fract_y
 _atom_site_fract_z
 _atom_site_occupancy
  Ce  Ce0  1  0.25000000  0.98061932  0.29966308  1
  Ce  Ce1  1  0.25000000  0.48055910  0.20034509  1
  Ce  Ce2  1  0.75000000  0.01937768  0.70033292  1
  Ce  Ce3  1  0.75000000  0.51944090  0.79965291  1
  Ga  Ga0  1  0.25000000  0.33021803  0.57742922  1
  Ga  Ga1  1  0.25000000  0.83001041  0.92263285  1
  Ga  Ga2  1  0.75000000  0.66978697  0.42257078  1
  Ga  Ga3  1  0.75000000  0.16998759  0.07737015  1
  Pt  Pt0  1  0.25000000  0.21889551  0.90468658  1
  Pt  Pt1  1  0.25000000  0.71888791  0.59534505  1
  Pt  Pt2  1  0.75000000  0.78110549  0.09532142  1
  Pt  Pt3  1  0.75000000  0.28111109  0.40465095  1
loop_
_geom_bond_atom_site_label_1
_geom_bond_atom_site_label_2
_geom_bond_distance
_geom_bond_site_symmetry_2
Ce0 Pt1 2.957349 1_555
Ce0 Pt2 3.097439 1_555
Ce0 Pt2 3.097439 1_455
Ce0 Ga1 3.114017 1_554
Ce0 Ga3 3.138810 1_465
Ce0 Ga3 3.138810 1_565
Ce0 Pt3 3.213026 1_565
Ce0 Pt3 3.213026 1_465
Ce0 Ga0 3.297077 1_565
Ce0 Ga2 3.300103 1_555
Ce0 Ga2 3.300103 1_455
Ce0 Pt0 3.502448 1_564
Ce1 Pt0 2.957154 1_554
Ce1 Pt3 3.096954 1_555
Ce1 Pt3 3.096954 1_455
Ce1 Ga0 3.113573 1_555
Ce1 Ga2 3.138221 1_555
Ce1 Ga2 3.138221 1_455
Ce1 Pt2 3.213262 1_455
Ce1 Pt2 3.213262 1_555
Ce1 Ga1 3.295723 1_554
Ce1 Ga3 3.299112 1_555
Ce1 Ga3 3.299112 1_455
Ce1 Pt1 3.503048 1_555
Ce2 Pt3 2.957358 1_555
Ce2 Pt0 3.097500 1_555
Ce2 Pt0 3.097500 1_655
Ce2 Ga3 3.114070 1_556
Ce2 Ga1 3.138837 1_645
Ce2 Ga1 3.138837 1_545
Ce2 Pt1 3.213017 1_545
Ce2 Pt1 3.213017 1_645
Ce2 Ga2 3.297014 1_545
Ce2 Ga0 3.300132 1_655
Ce2 Ga0 3.300132 1_555
Ce2 Pt2 3.502515 1_546
Ce3 Pt2 2.957219 1_556
Ce3 Pt1 3.096959 1_555
Ce3 Pt1 3.096959 1_655
Ce3 Ga2 3.113570 1_555
Ce3 Ga0 3.138197 1_555
Ce3 Ga0 3.138197 1_655
Ce3 Pt0 3.213277 1_555
Ce3 Pt0 3.213277 1_655
Ce3 Ga3 3.295759 1_556
Ce3 Ga1 3.299113 1_655
Ce3 Ga1 3.299113 1_555
Ce3 Pt3 3.503065 1_555
Ga0 Pt3 2.640287 1_455
Ga0 Pt3 2.640287 1_555
Ga0 Pt0 2.658090 1_555
Ga0 Pt1 2.779537 1_555
Ga1 Pt2 2.639712 1_456
Ga1 Pt2 2.639712 1_556
Ga1 Pt1 2.658020 1_555
Ga1 Pt0 2.781060 1_565
Ga2 Pt1 2.640266 1_655
Ga2 Pt1 2.640266 1_555
Ga2 Pt2 2.658023 1_555
Ga2 Pt3 2.779582 1_555
Ga3 Pt0 2.639695 1_554
Ga3 Pt0 2.639695 1_654
Ga3 Pt3 2.657971 1_555
Ga3 Pt2 2.781041 1_545
