# generated using pymatgen
data_CsNpCl2O3
_symmetry_space_group_name_H-M   'P 1'
_cell_length_a   7.58541077
_cell_length_b   8.70339400
_cell_length_c   11.42728317
_cell_angle_alpha   90.00000000
_cell_angle_beta   90.76354997
_cell_angle_gamma   90.00000000
_symmetry_Int_Tables_number   1
_chemical_formula_structural   CsNpCl2O3
_chemical_formula_sum   'Cs4 Np4 Cl8 O12'
_cell_volume   754.34874549
_cell_formula_units_Z   4
loop_
 _symmetry_equiv_pos_site_id
 _symmetry_equiv_pos_as_xyz
  1  'x, y, z'
loop_
 _atom_site_type_symbol
 _atom_site_label
 _atom_site_symmetry_multiplicity
 _atom_site_fract_x
 _atom_site_fract_y
 _atom_site_fract_z
 _atom_site_occupancy
  Cs  Cs0  1  0.75112300  0.38661400  0.15335000  1
  Cs  Cs1  1  0.74887700  0.88661400  0.34665000  1
  Cs  Cs2  1  0.24887700  0.61338600  0.84665000  1
  Cs  Cs3  1  0.25112300  0.11338600  0.65335000  1
  Np  Np0  1  0.75626300  0.40733300  0.67328400  1
  Np  Np1  1  0.74373700  0.90733300  0.82671600  1
  Np  Np2  1  0.24373700  0.59266700  0.32671600  1
  Np  Np3  1  0.25626300  0.09266700  0.17328400  1
  Cl  Cl0  1  0.74237100  0.09117500  0.61180100  1
  Cl  Cl1  1  0.75762900  0.59117500  0.88819900  1
  Cl  Cl2  1  0.25762900  0.90882500  0.38819900  1
  Cl  Cl3  1  0.24237100  0.40882500  0.11180100  1
  Cl  Cl4  1  0.67836200  0.22145700  0.87300900  1
  Cl  Cl5  1  0.82163800  0.72145700  0.62699100  1
  Cl  Cl6  1  0.32163800  0.77854300  0.12699100  1
  Cl  Cl7  1  0.17836200  0.27854300  0.37300900  1
  O  O0  1  0.51856300  0.43105300  0.67204600  1
  O  O1  1  0.98143700  0.93105300  0.82795400  1
  O  O2  1  0.48143700  0.56894700  0.32795400  1
  O  O3  1  0.01856300  0.06894700  0.17204600  1
  O  O4  1  0.98893200  0.38048600  0.70767100  1
  O  O5  1  0.51106800  0.88048600  0.79232900  1
  O  O6  1  0.01106800  0.61951400  0.29232900  1
  O  O7  1  0.48893200  0.11951400  0.20767100  1
  O  O8  1  0.77627800  0.41066300  0.51141900  1
  O  O9  1  0.72372200  0.91066300  0.98858100  1
  O  O10  1  0.22372200  0.58933700  0.48858100  1
  O  O11  1  0.27627800  0.08933700  0.01141900  1
loop_
_geom_bond_atom_site_label_1
_geom_bond_atom_site_label_2
_geom_bond_distance
_geom_bond_site_symmetry_2
Cs0 O7 3.126943 1_555
Cs0 O6 3.230408 1_655
Cs0 O2 3.285256 1_555
Cs0 O3 3.434166 1_655
Cs1 O6 3.126943 1_655
Cs1 O7 3.230408 1_565
Cs1 O3 3.285256 1_665
Cs1 O2 3.434166 1_555
Cs2 O5 3.126943 1_555
Cs2 O4 3.230408 1_455
Cs2 O0 3.285256 1_555
Cs2 O1 3.434166 1_455
Cs3 O4 3.126943 1_455
Cs3 O5 3.230408 1_545
Cs3 O1 3.285256 1_445
Cs3 O0 3.434166 1_555
Np0 O0 1.814700 1_555
Np0 O4 1.818065 1_555
Np0 O8 1.858139 1_555
Np1 O1 1.814700 1_555
Np1 O5 1.818065 1_555
Np1 O9 1.858139 1_555
Np2 O2 1.814700 1_555
Np2 O6 1.818065 1_555
Np2 O10 1.858139 1_555
Np3 O3 1.814700 1_555
Np3 O7 1.818065 1_555
Np3 O11 1.858139 1_555
Cl0 Np0 2.841535 1_555
Cl0 Np1 2.931042 1_545
Cl0 Cs1 3.515222 1_545
Cl0 Cs3 3.767678 1_555
Cl0 Cs3 3.886716 1_655
Cl1 Np1 2.841535 1_555
Cl1 Np0 2.931042 1_555
Cl1 Cs0 3.515222 1_556
Cl1 Cs2 3.767678 1_655
Cl1 Cs2 3.886716 1_555
Cl2 Np2 2.841535 1_555
Cl2 Np3 2.931042 1_565
Cl2 Cs3 3.515222 1_565
Cl2 Cs1 3.767678 1_555
Cl2 Cs1 3.886716 1_455
Cl3 Np3 2.841535 1_555
Cl3 Np2 2.931042 1_555
Cl3 Cs2 3.515222 1_554
Cl3 Cs0 3.767678 1_455
Cl3 Cs0 3.886716 1_555
Cl4 Np1 2.829700 1_545
Cl4 Np0 2.865519 1_555
Cl4 Cs0 3.547722 1_556
Cl5 Np0 2.829700 1_555
Cl5 Np1 2.865519 1_555
Cl5 Cs1 3.547722 1_555
Cl6 Np3 2.829700 1_565
Cl6 Np2 2.865519 1_555
Cl6 Cs2 3.547722 1_554
Cl7 Np2 2.829700 1_555
Cl7 Np3 2.865519 1_555
Cl7 Cs3 3.547722 1_555
