# generated using pymatgen
data_NaMnPCO7
_symmetry_space_group_name_H-M   'P 1'
_cell_length_a   6.23613300
_cell_length_b   10.41659100
_cell_length_c   10.43250010
_cell_angle_alpha   62.31965344
_cell_angle_beta   90.00000000
_cell_angle_gamma   90.00000000
_symmetry_Int_Tables_number   1
_chemical_formula_structural   NaMnPCO7
_chemical_formula_sum   'Na4 Mn4 P4 C4 O28'
_cell_volume   600.12808102
_cell_formula_units_Z   4
loop_
 _symmetry_equiv_pos_site_id
 _symmetry_equiv_pos_as_xyz
  1  'x, y, z'
loop_
 _atom_site_type_symbol
 _atom_site_label
 _atom_site_symmetry_multiplicity
 _atom_site_fract_x
 _atom_site_fract_y
 _atom_site_fract_z
 _atom_site_occupancy
  Na  Na0  1  0.54397400  0.76099700  0.24337800  1
  Na  Na1  1  0.95602600  0.76099700  0.74337800  1
  Na  Na2  1  0.04397400  0.23900300  0.25662200  1
  Na  Na3  1  0.45602600  0.23900300  0.75662200  1
  Mn  Mn0  1  0.25062300  0.65487000  0.06478000  1
  Mn  Mn1  1  0.24937700  0.65487000  0.56478000  1
  Mn  Mn2  1  0.75062300  0.34513000  0.43522000  1
  Mn  Mn3  1  0.74937700  0.34513000  0.93522000  1
  P  P0  1  0.75226700  0.56547900  0.07714400  1
  P  P1  1  0.74773300  0.56547900  0.57714400  1
  P  P2  1  0.25226700  0.43452100  0.42285600  1
  P  P3  1  0.24773300  0.43452100  0.92285600  1
  C  C0  1  0.24953500  0.91431800  0.90596800  1
  C  C1  1  0.25046500  0.91431800  0.40596800  1
  C  C2  1  0.74953500  0.08568200  0.59403200  1
  C  C3  1  0.75046500  0.08568200  0.09403200  1
  O  O0  1  0.74395500  0.95451400  0.67544200  1
  O  O1  1  0.75604500  0.95451400  0.17544200  1
  O  O2  1  0.25921100  0.85257900  0.04879900  1
  O  O3  1  0.24078900  0.85257900  0.54879900  1
  O  O4  1  0.24536800  0.81268400  0.86269100  1
  O  O5  1  0.25463200  0.81268400  0.36269100  1
  O  O6  1  0.94502400  0.66812600  0.05434700  1
  O  O7  1  0.55943000  0.66328700  0.06833500  1
  O  O8  1  0.94057000  0.66328700  0.56833500  1
  O  O9  1  0.55497600  0.66812600  0.55434700  1
  O  O10  1  0.75123300  0.52578300  0.45039300  1
  O  O11  1  0.26183800  0.57415400  0.27805600  1
  O  O12  1  0.74876700  0.52578300  0.95039300  1
  O  O13  1  0.23816200  0.57415400  0.77805600  1
  O  O14  1  0.76183800  0.42584600  0.22194400  1
  O  O15  1  0.25123300  0.47421700  0.04960700  1
  O  O16  1  0.73816200  0.42584600  0.72194400  1
  O  O17  1  0.24876700  0.47421700  0.54960700  1
  O  O18  1  0.44502400  0.33187400  0.44565300  1
  O  O19  1  0.05943000  0.33671300  0.43166500  1
  O  O20  1  0.44057000  0.33671300  0.93166500  1
  O  O21  1  0.05497600  0.33187400  0.94565300  1
  O  O22  1  0.74536800  0.18731600  0.63730900  1
  O  O23  1  0.75463200  0.18731600  0.13730900  1
  O  O24  1  0.75921100  0.14742100  0.45120100  1
  O  O25  1  0.74078900  0.14742100  0.95120100  1
  O  O26  1  0.24395500  0.04548600  0.82455800  1
  O  O27  1  0.25604500  0.04548600  0.32455800  1
loop_
_geom_bond_atom_site_label_1
_geom_bond_atom_site_label_2
_geom_bond_distance
_geom_bond_site_symmetry_2
Na0 O1 2.233245 1_555
Na0 O5 2.391159 1_555
Na0 O7 2.471198 1_555
Na0 O11 2.521960 1_555
Na0 O2 2.526878 1_555
Na0 O10 2.724279 1_555
Na0 O9 2.923947 1_555
Na1 O0 2.233245 1_555
Na1 O4 2.391159 1_655
Na1 O8 2.471198 1_555
Na1 O13 2.521960 1_655
Na1 O3 2.526878 1_655
Na1 O12 2.724279 1_555
Na1 O6 2.923947 1_556
Na2 O27 2.233245 1_555
Na2 O23 2.391159 1_455
Na2 O19 2.471198 1_555
Na2 O14 2.521960 1_455
Na2 O24 2.526878 1_455
Na2 O15 2.724279 1_555
Na2 O21 2.923947 1_554
Na3 O26 2.233245 1_555
Na3 O22 2.391159 1_555
Na3 O20 2.471198 1_555
Na3 O16 2.521960 1_555
Na3 O25 2.526878 1_555
Na3 O17 2.724279 1_555
Na3 O18 2.923947 1_555
Mn0 O6 1.910198 1_455
Mn0 O7 1.928896 1_555
Mn0 O15 1.960343 1_555
Mn0 O11 1.981004 1_555
Mn0 O4 1.982005 1_554
Mn0 O2 1.988218 1_555
Mn1 O9 1.910198 1_555
Mn1 O8 1.928896 1_455
Mn1 O17 1.960343 1_555
Mn1 O13 1.981004 1_555
Mn1 O5 1.982005 1_555
Mn1 O3 1.988218 1_555
Mn2 O18 1.910198 1_555
Mn2 O19 1.928896 1_655
Mn2 O10 1.960343 1_555
Mn2 O14 1.981004 1_555
Mn2 O22 1.982005 1_555
Mn2 O24 1.988218 1_555
Mn3 O21 1.910198 1_655
Mn3 O20 1.928896 1_555
Mn3 O12 1.960343 1_555
Mn3 O16 1.981004 1_555
Mn3 O23 1.982005 1_556
Mn3 O25 1.988218 1_555
C0 O26 1.229328 1_565
C0 O2 1.321840 1_556
C0 O4 1.330188 1_555
C1 O27 1.229328 1_565
C1 O3 1.321840 1_555
C1 O5 1.330188 1_555
C2 O0 1.229328 1_545
C2 O24 1.321840 1_555
C2 O22 1.330188 1_555
C3 O1 1.229328 1_545
C3 O25 1.321840 1_554
C3 O23 1.330188 1_555
O6 P0 1.551936 1_555
O7 P0 1.551002 1_555
O8 P1 1.551002 1_555
O9 P1 1.551936 1_555
O10 P1 1.558208 1_555
O11 P2 1.536148 1_555
O12 P0 1.558208 1_556
O13 P3 1.536148 1_555
O14 P0 1.536148 1_555
O15 P3 1.558208 1_554
O16 P1 1.536148 1_555
O17 P2 1.558208 1_555
O18 P2 1.551936 1_555
O19 P2 1.551002 1_555
O20 P3 1.551002 1_555
O21 P3 1.551936 1_555
