# generated using pymatgen
data_Tl(MoSe)3
_symmetry_space_group_name_H-M   'P 1'
_cell_length_a   9.90537219
_cell_length_b   9.90537219
_cell_length_c   4.51596800
_cell_angle_alpha   90.00000000
_cell_angle_beta   90.00000000
_cell_angle_gamma   120.00000124
_symmetry_Int_Tables_number   1
_chemical_formula_structural   Tl(MoSe)3
_chemical_formula_sum   'Tl2 Mo6 Se6'
_cell_volume   383.72763672
_cell_formula_units_Z   2
loop_
 _symmetry_equiv_pos_site_id
 _symmetry_equiv_pos_as_xyz
  1  'x, y, z'
loop_
 _atom_site_type_symbol
 _atom_site_label
 _atom_site_symmetry_multiplicity
 _atom_site_fract_x
 _atom_site_fract_y
 _atom_site_fract_z
 _atom_site_occupancy
  Tl  Tl0  1  0.33333300  0.66666700  0.75000000  1
  Tl  Tl1  1  0.66666700  0.33333300  0.25000000  1
  Mo  Mo0  1  0.97874200  0.83479800  0.75000000  1
  Mo  Mo1  1  0.85605600  0.02125800  0.75000000  1
  Mo  Mo2  1  0.16520200  0.14394400  0.75000000  1
  Mo  Mo3  1  0.02125800  0.16520200  0.25000000  1
  Mo  Mo4  1  0.14394400  0.97874200  0.25000000  1
  Mo  Mo5  1  0.83479800  0.85605600  0.25000000  1
  Se  Se0  1  0.28365500  0.95718000  0.75000000  1
  Se  Se1  1  0.67352500  0.71634500  0.75000000  1
  Se  Se2  1  0.04282000  0.32647500  0.75000000  1
  Se  Se3  1  0.71634500  0.04282000  0.25000000  1
  Se  Se4  1  0.32647500  0.28365500  0.25000000  1
  Se  Se5  1  0.95718000  0.67352500  0.25000000  1
loop_
_geom_bond_atom_site_label_1
_geom_bond_atom_site_label_2
_geom_bond_distance
_geom_bond_site_symmetry_2
Mo0 Se0 2.632546 1_655
Mo0 Se1 2.640012 1_555
Mo0 Mo2 2.670691 1_665
Mo0 Mo1 2.670691 1_565
Mo0 Se5 2.711979 1_556
Mo0 Se5 2.711979 1_555
Mo0 Mo4 2.734232 1_655
Mo0 Mo4 2.734232 1_656
Mo0 Mo5 2.734232 1_555
Mo0 Mo5 2.734232 1_556
Mo1 Se1 2.632546 1_545
Mo1 Se2 2.640012 1_655
Mo1 Mo2 2.670691 1_655
Mo1 Se3 2.711979 1_555
Mo1 Se3 2.711979 1_556
Mo1 Mo3 2.734232 1_655
Mo1 Mo3 2.734232 1_656
Mo1 Mo5 2.734232 1_545
Mo1 Mo5 2.734232 1_546
Mo2 Se2 2.632546 1_555
Mo2 Se0 2.640012 1_545
Mo2 Se4 2.711979 1_556
Mo2 Se4 2.711979 1_555
Mo2 Mo4 2.734232 1_545
Mo2 Mo4 2.734232 1_546
Mo2 Mo3 2.734232 1_556
Mo2 Mo3 2.734232 1_555
Mo3 Se3 2.632546 1_455
Mo3 Se4 2.640012 1_555
Mo3 Mo5 2.670691 1_445
Mo3 Mo4 2.670691 1_545
Mo3 Se2 2.711979 1_555
Mo3 Se2 2.711979 1_554
Mo4 Se4 2.632546 1_565
Mo4 Se5 2.640012 1_455
Mo4 Mo5 2.670691 1_455
Mo4 Se0 2.711979 1_555
Mo4 Se0 2.711979 1_554
Mo5 Se5 2.632546 1_555
Mo5 Se3 2.640012 1_565
Mo5 Se1 2.711979 1_554
Mo5 Se1 2.711979 1_555
Se0 Tl0 3.152614 1_555
Se1 Tl0 3.152624 1_555
Se2 Tl0 3.152620 1_555
Se3 Tl1 3.152614 1_555
Se4 Tl1 3.152624 1_555
Se5 Tl1 3.152620 1_555
