# generated using pymatgen
data_DyB7Mo3
_symmetry_space_group_name_H-M   'P 1'
_cell_length_a   3.09671618
_cell_length_b   11.00793521
_cell_length_c   12.85618892
_cell_angle_alpha   90.00000000
_cell_angle_beta   90.00000000
_cell_angle_gamma   90.00000000
_symmetry_Int_Tables_number   1
_chemical_formula_structural   DyB7Mo3
_chemical_formula_sum   'Dy4 B28 Mo12'
_cell_volume   438.24756699
_cell_formula_units_Z   4
loop_
 _symmetry_equiv_pos_site_id
 _symmetry_equiv_pos_as_xyz
  1  'x, y, z'
loop_
 _atom_site_type_symbol
 _atom_site_label
 _atom_site_symmetry_multiplicity
 _atom_site_fract_x
 _atom_site_fract_y
 _atom_site_fract_z
 _atom_site_occupancy
  Dy  Dy0  1  0.75000000  0.55132099  0.30812709  1
  Dy  Dy1  1  0.25000000  0.44867901  0.69187291  1
  Dy  Dy2  1  0.25000000  0.94867901  0.80812709  1
  Dy  Dy3  1  0.75000000  0.05132099  0.19187291  1
  B  B0  1  0.75000000  0.75120385  0.17333369  1
  B  B1  1  0.25000000  0.24879615  0.82666631  1
  B  B2  1  0.25000000  0.74879615  0.67333369  1
  B  B3  1  0.75000000  0.25120385  0.32666631  1
  B  B4  1  0.75000000  0.93210803  0.38424476  1
  B  B5  1  0.25000000  0.06789197  0.61575524  1
  B  B6  1  0.25000000  0.56789197  0.88424476  1
  B  B7  1  0.75000000  0.43210803  0.11575524  1
  B  B8  1  0.75000000  0.98936079  0.63707864  1
  B  B9  1  0.25000000  0.01063921  0.36292136  1
  B  B10  1  0.25000000  0.51063921  0.13707864  1
  B  B11  1  0.75000000  0.48936079  0.86292136  1
  B  B12  1  0.75000000  0.76960059  0.41828244  1
  B  B13  1  0.25000000  0.23039941  0.58171756  1
  B  B14  1  0.25000000  0.73039941  0.91828244  1
  B  B15  1  0.75000000  0.26960059  0.08171756  1
  B  B16  1  0.75000000  0.96240914  0.98203076  1
  B  B17  1  0.25000000  0.03759086  0.01796924  1
  B  B18  1  0.25000000  0.53759086  0.48203076  1
  B  B19  1  0.75000000  0.46240914  0.51796924  1
  B  B20  1  0.75000000  0.81363656  0.93344746  1
  B  B21  1  0.25000000  0.18636344  0.06655254  1
  B  B22  1  0.25000000  0.68636344  0.43344746  1
  B  B23  1  0.75000000  0.31363656  0.56655254  1
  B  B24  1  0.75000000  0.83374870  0.66681096  1
  B  B25  1  0.25000000  0.16625130  0.33318904  1
  B  B26  1  0.25000000  0.66625130  0.16681096  1
  B  B27  1  0.75000000  0.33374870  0.83318904  1
  Mo  Mo0  1  0.75000000  0.11785659  0.47313817  1
  Mo  Mo1  1  0.25000000  0.88214341  0.52686183  1
  Mo  Mo2  1  0.25000000  0.38214341  0.97313817  1
  Mo  Mo3  1  0.75000000  0.61785659  0.02686183  1
  Mo  Mo4  1  0.75000000  0.65994957  0.56393989  1
  Mo  Mo5  1  0.25000000  0.34005043  0.43606011  1
  Mo  Mo6  1  0.25000000  0.84005043  0.06393989  1
  Mo  Mo7  1  0.75000000  0.15994957  0.93606011  1
  Mo  Mo8  1  0.75000000  0.68432219  0.79827553  1
  Mo  Mo9  1  0.25000000  0.31567781  0.20172447  1
  Mo  Mo10  1  0.25000000  0.81567781  0.29827553  1
  Mo  Mo11  1  0.75000000  0.18432219  0.70172447  1
loop_
_geom_bond_atom_site_label_1
_geom_bond_atom_site_label_2
_geom_bond_distance
_geom_bond_site_symmetry_2
B0 B26 1.810788 1_655
B0 B26 1.810788 1_555
B0 Mo6 2.309081 1_655
B0 Mo6 2.309081 1_555
B0 Mo10 2.341206 1_555
B0 Mo10 2.341206 1_655
B0 Mo3 2.387597 1_555
B0 Dy0 2.800777 1_555
B0 Dy3 3.312257 1_565
B1 B27 1.810788 1_455
B1 B27 1.810788 1_555
B1 Mo7 2.309081 1_455
B1 Mo7 2.309081 1_555
B1 Mo11 2.341206 1_555
B1 Mo11 2.341206 1_455
B1 Mo2 2.387597 1_555
B1 Dy1 2.800777 1_555
B1 Dy2 3.312257 1_545
B2 B24 1.810788 1_455
B2 B24 1.810788 1_555
B2 Mo4 2.309081 1_555
B2 Mo4 2.309081 1_455
B2 Mo8 2.341206 1_455
B2 Mo8 2.341206 1_555
B2 Mo1 2.387597 1_555
B2 Dy2 2.800777 1_555
B2 Dy1 3.312257 1_555
B3 Mo5 2.309081 1_655
B3 Mo5 2.309081 1_555
B3 Mo9 2.341206 1_655
B3 Mo9 2.341206 1_555
B3 Mo0 2.387597 1_555
B3 Dy3 2.800777 1_555
B3 Dy0 3.312257 1_555
B4 B9 1.794398 1_565
B4 B9 1.794398 1_665
B4 Mo10 2.293819 1_555
B4 Mo10 2.293819 1_655
B4 Mo0 2.342412 1_565
B4 Mo1 2.462049 1_655
B4 Mo1 2.462049 1_555
B4 Dy3 2.799762 1_565
B5 B8 1.794398 1_445
B5 B8 1.794398 1_545
B5 Mo11 2.293819 1_555
B5 Mo11 2.293819 1_455
B5 Mo1 2.342412 1_545
B5 Mo0 2.462049 1_555
B5 Mo0 2.462049 1_455
B5 Dy2 2.799762 1_545
B6 Mo8 2.293819 1_555
B6 Mo8 2.293819 1_455
B6 Mo2 2.342412 1_555
B6 Mo3 2.462049 1_456
B6 Mo3 2.462049 1_556
B6 Dy1 2.799762 1_555
B7 Mo9 2.293819 1_555
B7 Mo9 2.293819 1_655
B7 Mo3 2.342412 1_555
B7 Mo2 2.462049 1_554
B7 Mo2 2.462049 1_654
B7 Dy0 2.799762 1_555
B8 Mo11 2.301427 1_565
B8 Mo1 2.407942 1_555
B8 Mo1 2.407942 1_655
B8 Mo0 2.538291 1_565
B8 Dy2 2.726480 1_555
B8 Dy2 2.726480 1_655
B9 Mo10 2.301427 1_545
B9 Mo0 2.407942 1_555
B9 Mo0 2.407942 1_455
B9 Mo1 2.538291 1_545
B9 Dy3 2.726480 1_455
B9 Dy3 2.726480 1_555
B10 B26 1.755098 1_555
B10 B7 1.794398 1_555
B10 B7 1.794398 1_455
B10 Mo9 2.301427 1_555
B10 Mo3 2.407942 1_455
B10 Mo3 2.407942 1_555
B10 Mo2 2.538291 1_554
B10 Dy0 2.726480 1_455
B10 Dy0 2.726480 1_555
B11 B27 1.755098 1_555
B11 B6 1.794398 1_655
B11 B6 1.794398 1_555
B11 Mo8 2.301427 1_555
B11 Mo2 2.407942 1_555
B11 Mo2 2.407942 1_655
B11 Mo3 2.538291 1_556
B11 Dy1 2.726480 1_555
B11 Dy1 2.726480 1_655
B12 B22 1.809689 1_655
B12 B22 1.809689 1_555
B12 B4 1.841616 1_555
B12 Mo4 2.227904 1_555
B12 Mo10 2.243883 1_555
B12 Mo10 2.243883 1_655
B12 Mo1 2.425032 1_555
B12 Mo1 2.425032 1_655
B12 Dy0 2.789094 1_555
B13 B23 1.809689 1_455
B13 B23 1.809689 1_555
B13 B5 1.841616 1_555
B13 Mo5 2.227904 1_555
B13 Mo11 2.243883 1_455
B13 Mo11 2.243883 1_555
B13 Mo0 2.425032 1_555
B13 Mo0 2.425032 1_455
B13 Dy1 2.789094 1_555
B14 B20 1.809689 1_555
B14 B20 1.809689 1_455
B14 B6 1.841616 1_555
B14 Mo6 2.227904 1_556
B14 Mo8 2.243883 1_555
B14 Mo8 2.243883 1_455
B14 Mo3 2.425032 1_456
B14 Mo3 2.425032 1_556
B14 Dy2 2.789094 1_555
B15 B21 1.809689 1_555
B15 B21 1.809689 1_655
B15 B7 1.841616 1_555
B15 Mo7 2.227904 1_554
B15 Mo9 2.243883 1_655
B15 Mo9 2.243883 1_555
B15 Mo2 2.425032 1_554
B15 Mo2 2.425032 1_654
B15 Dy3 2.789094 1_555
B16 B20 1.752744 1_555
B16 B17 1.815434 1_566
B16 B17 1.815434 1_666
B16 Mo7 2.253396 1_565
B16 Mo6 2.306619 1_656
B16 Mo6 2.306619 1_556
B16 Dy2 2.723744 1_555
B16 Dy2 2.723744 1_655
B16 Dy3 2.869824 1_566
B17 B21 1.752744 1_555
B17 Mo6 2.253396 1_545
B17 Mo7 2.306619 1_454
B17 Mo7 2.306619 1_554
B17 Dy3 2.723744 1_555
B17 Dy3 2.723744 1_455
B17 Dy2 2.869824 1_544
B18 B22 1.752744 1_555
B18 B19 1.815434 1_455
B18 B19 1.815434 1_555
B18 Mo5 2.253396 1_555
B18 Mo4 2.306619 1_555
B18 Mo4 2.306619 1_455
B18 Dy0 2.723744 1_455
B18 Dy0 2.723744 1_555
B18 Dy1 2.869824 1_555
B19 B23 1.752744 1_555
B19 Mo4 2.253396 1_555
B19 Mo5 2.306619 1_555
B19 Mo5 2.306619 1_655
B19 Dy1 2.723744 1_555
B19 Dy1 2.723744 1_655
B19 Dy0 2.869824 1_555
B20 Mo8 2.246384 1_555
B20 Mo6 2.301394 1_556
B20 Mo6 2.301394 1_656
B20 Mo3 2.467162 1_556
B20 Dy2 2.683839 1_555
B20 Dy2 2.683839 1_655
B21 Mo9 2.246384 1_555
B21 Mo7 2.301394 1_554
B21 Mo7 2.301394 1_454
B21 Mo2 2.467162 1_554
B21 Dy3 2.683839 1_555
B21 Dy3 2.683839 1_455
B22 Mo10 2.246384 1_555
B22 Mo4 2.301394 1_555
B22 Mo4 2.301394 1_455
B22 Mo1 2.467162 1_555
B22 Dy0 2.683839 1_555
B22 Dy0 2.683839 1_455
B23 Mo11 2.246384 1_555
B23 Mo5 2.301394 1_555
B23 Mo5 2.301394 1_655
B23 Mo0 2.467162 1_555
B23 Dy1 2.683839 1_655
B23 Dy1 2.683839 1_555
B24 B8 1.755098 1_555
B24 Mo4 2.325791 1_555
B24 Mo8 2.358426 1_555
B24 Mo1 2.432771 1_555
B24 Mo1 2.432771 1_655
B24 Dy2 2.701614 1_555
B24 Dy2 2.701614 1_655
B25 B9 1.755098 1_555
B25 B3 1.810788 1_455
B25 B3 1.810788 1_555
B25 Mo5 2.325791 1_555
B25 Mo9 2.358426 1_555
B25 Mo0 2.432771 1_555
B25 Mo0 2.432771 1_455
B25 Dy3 2.701614 1_555
B25 Dy3 2.701614 1_455
B26 Mo6 2.325791 1_555
B26 Mo10 2.358426 1_555
B26 Mo3 2.432771 1_455
B26 Mo3 2.432771 1_555
B26 Dy0 2.701614 1_455
B26 Dy0 2.701614 1_555
B27 Mo7 2.325791 1_555
B27 Mo11 2.358426 1_555
B27 Mo2 2.432771 1_655
B27 Mo2 2.432771 1_555
B27 Dy1 2.701614 1_555
B27 Dy1 2.701614 1_655
