# generated using pymatgen
data_LaNdNi10
_symmetry_space_group_name_H-M   'P 1'
_cell_length_a   3.93385421
_cell_length_b   4.93226401
_cell_length_c   8.54452582
_cell_angle_alpha   89.99998131
_cell_angle_beta   90.00000000
_cell_angle_gamma   90.00000000
_symmetry_Int_Tables_number   1
_chemical_formula_structural   LaNdNi10
_chemical_formula_sum   'La1 Nd1 Ni10'
_cell_volume   165.78779001
_cell_formula_units_Z   1
loop_
 _symmetry_equiv_pos_site_id
 _symmetry_equiv_pos_as_xyz
  1  'x, y, z'
loop_
 _atom_site_type_symbol
 _atom_site_label
 _atom_site_symmetry_multiplicity
 _atom_site_fract_x
 _atom_site_fract_y
 _atom_site_fract_z
 _atom_site_occupancy
  La  La0  1  -0.00000000  0.00000000  -0.00000000  1
  Nd  Nd0  1  0.00000000  0.50000000  0.50000000  1
  Ni  Ni0  1  0.00000000  1.00000000  0.33362012  1
  Ni  Ni1  1  0.00000000  0.50000000  0.83277056  1
  Ni  Ni2  1  0.00000000  0.50000000  0.16722944  1
  Ni  Ni3  1  0.00000000  0.00000000  0.66637988  1
  Ni  Ni4  1  0.50000000  0.50000000  -0.00000000  1
  Ni  Ni5  1  0.50000000  0.00000000  0.50000000  1
  Ni  Ni6  1  0.50000000  0.25171074  0.25236857  1
  Ni  Ni7  1  0.50000000  0.74828926  0.74763143  1
  Ni  Ni8  1  0.50000000  0.74828926  0.25236857  1
  Ni  Ni9  1  0.50000000  0.25171074  0.74763143  1
loop_
_geom_bond_atom_site_label_1
_geom_bond_atom_site_label_2
_geom_bond_distance
_geom_bond_site_symmetry_2
La0 Ni1 2.850184 1_554
La0 Ni2 2.850184 1_545
La0 Ni1 2.850185 1_544
La0 Ni2 2.850185 1_555
La0 Ni3 2.850626 1_554
La0 Ni0 2.850626 1_545
La0 Ni4 3.154459 1_555
La0 Ni4 3.154459 1_545
La0 Ni4 3.154459 1_445
La0 Ni4 3.154459 1_455
La0 Ni9 3.171760 1_554
La0 Ni8 3.171760 1_445
La0 Ni8 3.171760 1_545
La0 Ni9 3.171760 1_454
La0 Ni7 3.171761 1_544
La0 Ni7 3.171761 1_444
La0 Ni6 3.171761 1_555
La0 Ni6 3.171761 1_455
Nd0 Ni2 2.843367 1_555
Nd0 Ni1 2.843367 1_555
Nd0 Ni0 2.846552 1_555
Nd0 Ni3 2.846552 1_555
Nd0 Ni0 2.846553 1_545
Nd0 Ni3 2.846553 1_565
Nd0 Ni8 3.137757 1_455
Nd0 Ni9 3.137757 1_455
Nd0 Ni8 3.137757 1_555
Nd0 Ni9 3.137757 1_555
Nd0 Ni6 3.137757 1_555
Nd0 Ni7 3.137757 1_455
Nd0 Ni7 3.137757 1_555
Nd0 Ni6 3.137757 1_455
Nd0 Ni5 3.154459 1_455
Nd0 Ni5 3.154459 1_555
Nd0 Ni5 3.154459 1_565
Nd0 Ni5 3.154459 1_465
Ni0 Ni5 2.426902 1_565
Ni0 Ni5 2.426902 1_465
Ni0 Ni6 2.427370 1_565
Ni0 Ni6 2.427370 1_465
Ni0 Ni8 2.427370 1_455
Ni0 Ni8 2.427370 1_555
Ni1 Ni7 2.428525 1_555
Ni1 Ni7 2.428525 1_455
Ni1 Ni9 2.428525 1_555
Ni1 Ni9 2.428525 1_455
Ni1 Ni4 2.431162 1_456
Ni1 Ni4 2.431162 1_556
Ni2 Ni6 2.428525 1_455
Ni2 Ni6 2.428525 1_555
Ni2 Ni8 2.428525 1_455
Ni2 Ni8 2.428525 1_555
Ni2 Ni4 2.431162 1_455
Ni2 Ni4 2.431162 1_555
Ni3 Ni5 2.426902 1_555
Ni3 Ni5 2.426902 1_455
Ni3 Ni7 2.427370 1_445
Ni3 Ni7 2.427370 1_545
Ni3 Ni9 2.427370 1_555
Ni3 Ni9 2.427370 1_455
Ni4 Ni6 2.479847 1_555
Ni4 Ni7 2.479847 1_554
Ni4 Ni9 2.479848 1_554
Ni4 Ni8 2.479848 1_555
Ni5 Ni6 2.453229 1_555
Ni5 Ni7 2.453229 1_545
Ni5 Ni8 2.453230 1_545
Ni5 Ni9 2.453230 1_555
Ni6 Ni8 2.449256 1_555
Ni6 Ni8 2.483008 1_545
Ni7 Ni9 2.449256 1_555
Ni7 Ni9 2.483008 1_565
