# generated using pymatgen
data_TmAgTe2
_symmetry_space_group_name_H-M   'P 1'
_cell_length_a   4.60779919
_cell_length_b   7.09114385
_cell_length_c   7.09114385
_cell_angle_alpha   90.00000000
_cell_angle_beta   90.00000000
_cell_angle_gamma   90.00000000
_symmetry_Int_Tables_number   1
_chemical_formula_structural   TmAgTe2
_chemical_formula_sum   'Tm2 Ag2 Te4'
_cell_volume   231.70005404
_cell_formula_units_Z   2
loop_
 _symmetry_equiv_pos_site_id
 _symmetry_equiv_pos_as_xyz
  1  'x, y, z'
loop_
 _atom_site_type_symbol
 _atom_site_label
 _atom_site_symmetry_multiplicity
 _atom_site_fract_x
 _atom_site_fract_y
 _atom_site_fract_z
 _atom_site_occupancy
  Tm  Tm0  1  0.79688070  -0.00000000  0.50000000  1
  Tm  Tm1  1  0.20311930  0.50000000  0.00000000  1
  Ag  Ag0  1  0.00000000  0.50000000  0.50000000  1
  Ag  Ag1  1  0.00000000  -0.00000000  0.00000000  1
  Te  Te0  1  0.28509543  0.20175187  0.70175187  1
  Te  Te1  1  0.71490457  0.29824813  0.20175187  1
  Te  Te2  1  0.28509543  0.79824813  0.29824813  1
  Te  Te3  1  0.71490457  0.70175187  0.79824813  1
loop_
_geom_bond_atom_site_label_1
_geom_bond_atom_site_label_2
_geom_bond_distance
_geom_bond_site_symmetry_2
Ag0 Te1 2.871474 1_455
Ag0 Te0 2.871474 1_555
Ag0 Te2 2.871474 1_555
Ag0 Te3 2.871474 1_455
Ag1 Te0 2.871474 1_554
Ag1 Te3 2.871474 1_444
Ag1 Te2 2.871474 1_545
Ag1 Te1 2.871474 1_455
Te0 Tm1 3.014707 1_556
Te0 Tm0 3.025592 1_455
Te0 Tm0 3.107194 1_555
Te1 Tm0 3.014707 1_555
Te1 Tm1 3.025592 1_655
Te1 Tm1 3.107194 1_555
Te2 Tm1 3.014707 1_555
Te2 Tm0 3.025592 1_465
Te2 Tm0 3.107194 1_565
Te3 Tm0 3.014707 1_565
Te3 Tm1 3.025592 1_656
Te3 Tm1 3.107194 1_556
