# generated using pymatgen
data_ZnBi2O5
_symmetry_space_group_name_H-M   'P 1'
_cell_length_a   5.90739676
_cell_length_b   5.90739676
_cell_length_c   10.92714000
_cell_angle_alpha   90.00000000
_cell_angle_beta   90.00000000
_cell_angle_gamma   136.88741947
_symmetry_Int_Tables_number   1
_chemical_formula_structural   ZnBi2O5
_chemical_formula_sum   'Zn2 Bi4 O10'
_cell_volume   260.61260630
_cell_formula_units_Z   2
loop_
 _symmetry_equiv_pos_site_id
 _symmetry_equiv_pos_as_xyz
  1  'x, y, z'
loop_
 _atom_site_type_symbol
 _atom_site_label
 _atom_site_symmetry_multiplicity
 _atom_site_fract_x
 _atom_site_fract_y
 _atom_site_fract_z
 _atom_site_occupancy
  Zn  Zn0  1  0.18286600  0.81713400  0.75000000  1
  Zn  Zn1  1  0.81713400  0.18286600  0.25000000  1
  Bi  Bi0  1  0.85980800  0.14019200  0.57055800  1
  Bi  Bi1  1  0.14019200  0.85980800  0.42944200  1
  Bi  Bi2  1  0.14019200  0.85980800  0.07055800  1
  Bi  Bi3  1  0.85980800  0.14019200  0.92944200  1
  O  O0  1  0.24078500  0.75921500  0.25000000  1
  O  O1  1  0.75921500  0.24078500  0.75000000  1
  O  O2  1  0.69665900  0.30334100  0.07976400  1
  O  O3  1  0.30334100  0.69665900  0.92023600  1
  O  O4  1  0.30334100  0.69665900  0.57976400  1
  O  O5  1  0.69665900  0.30334100  0.42023600  1
  O  O6  1  0.05433800  0.94566200  0.61466100  1
  O  O7  1  0.94566200  0.05433800  0.38533900  1
  O  O8  1  0.05433800  0.94566200  0.88533900  1
  O  O9  1  0.94566200  0.05433800  0.11466100  1
loop_
_geom_bond_atom_site_label_1
_geom_bond_atom_site_label_2
_geom_bond_distance
_geom_bond_site_symmetry_2
Bi0 O6 2.191231 1_645
Bi0 O7 2.232987 1_555
Bi0 O1 2.250891 1_555
Bi0 O4 2.259656 1_545
Bi0 O4 2.259656 1_655
Bi0 O5 2.431473 1_555
Bi1 O7 2.191231 1_465
Bi1 O6 2.232987 1_555
Bi1 O0 2.250891 1_555
Bi1 O5 2.259656 1_455
Bi1 O5 2.259656 1_565
Bi1 O4 2.431473 1_555
Bi2 O9 2.191231 1_465
Bi2 O8 2.232987 1_554
Bi2 O0 2.250891 1_555
Bi2 O2 2.259656 1_455
Bi2 O2 2.259656 1_565
Bi2 O3 2.431473 1_554
Bi3 O8 2.191231 1_645
Bi3 O9 2.232987 1_556
Bi3 O1 2.250891 1_555
Bi3 O3 2.259656 1_655
Bi3 O3 2.259656 1_545
Bi3 O2 2.431473 1_556
O0 Zn1 2.326967 1_565
O0 Zn1 2.326967 1_455
O1 Zn0 2.326967 1_655
O1 Zn0 2.326967 1_545
O2 Zn1 2.283166 1_555
O3 Zn0 2.283166 1_555
O4 Zn0 2.283166 1_555
O5 Zn1 2.283166 1_555
O6 Zn0 2.044921 1_555
O7 Zn1 2.044921 1_555
O8 Zn0 2.044921 1_555
O9 Zn1 2.044921 1_555
