# generated using pymatgen
data_Ba4La4Cu4(BO6)3
_symmetry_space_group_name_H-M   'P 1'
_cell_length_a   7.75467600
_cell_length_b   7.75721312
_cell_length_c   8.14620670
_cell_angle_alpha   90.00000000
_cell_angle_beta   90.00000000
_cell_angle_gamma   90.00000000
_symmetry_Int_Tables_number   1
_chemical_formula_structural   Ba4La4Cu4(BO6)3
_chemical_formula_sum   'Ba4 La4 Cu4 B3 O18'
_cell_volume   490.03241181
_cell_formula_units_Z   1
loop_
 _symmetry_equiv_pos_site_id
 _symmetry_equiv_pos_as_xyz
  1  'x, y, z'
loop_
 _atom_site_type_symbol
 _atom_site_label
 _atom_site_symmetry_multiplicity
 _atom_site_fract_x
 _atom_site_fract_y
 _atom_site_fract_z
 _atom_site_occupancy
  Ba  Ba0  1  0.50711100  0.50782500  0.99672300  1
  Ba  Ba1  1  0.50711100  0.99217500  0.50327700  1
  Ba  Ba2  1  0.50711100  0.99217500  0.99672300  1
  Ba  Ba3  1  0.50711100  0.50782500  0.50327700  1
  La  La0  1  0.98847500  0.49747900  0.01460000  1
  La  La1  1  0.98847500  0.00252100  0.48540000  1
  La  La2  1  0.98847500  0.00252100  0.01460000  1
  La  La3  1  0.98847500  0.49747900  0.48540000  1
  Cu  Cu0  1  0.79858900  0.25000000  0.75000000  1
  Cu  Cu1  1  0.77827100  0.75000000  0.25000000  1
  Cu  Cu2  1  0.76105900  0.25000000  0.25000000  1
  Cu  Cu3  1  0.76186700  0.75000000  0.75000000  1
  B  B0  1  0.26890300  0.25000000  0.75000000  1
  B  B1  1  0.26372600  0.75000000  0.25000000  1
  B  B2  1  0.26787100  0.25000000  0.25000000  1
  O  O0  1  0.84846700  0.49917400  0.75000000  1
  O  O1  1  0.79621400  0.99952200  0.25000000  1
  O  O2  1  0.79621400  0.50047800  0.25000000  1
  O  O3  1  0.84846700  0.00082600  0.75000000  1
  O  O4  1  0.79091900  0.75000000  0.00628700  1
  O  O5  1  0.78648400  0.25000000  0.49644700  1
  O  O6  1  0.78648400  0.25000000  0.00355300  1
  O  O7  1  0.79091900  0.75000000  0.49371300  1
  O  O8  1  0.44792000  0.25000000  0.75000000  1
  O  O9  1  0.44259700  0.75000000  0.25000000  1
  O  O10  1  0.44714100  0.25000000  0.25000000  1
  O  O11  1  0.48400000  0.75000000  0.75000000  1
  O  O12  1  0.17905200  0.09431100  0.25000000  1
  O  O13  1  0.17905200  0.40568900  0.25000000  1
  O  O14  1  0.17791600  0.75000000  0.09749300  1
  O  O15  1  0.18205400  0.25000000  0.59980500  1
  O  O16  1  0.18205400  0.25000000  0.90019500  1
  O  O17  1  0.17791600  0.75000000  0.40250700  1
loop_
_geom_bond_atom_site_label_1
_geom_bond_atom_site_label_2
_geom_bond_distance
_geom_bond_site_symmetry_2
Ba0 O11 2.756953 1_555
Ba0 O9 2.834858 1_556
Ba0 O8 2.872320 1_555
Ba0 O4 2.894635 1_556
Ba0 O10 2.910888 1_556
Ba0 O6 2.949000 1_556
Ba0 O2 3.047352 1_556
Ba0 O14 3.274111 1_556
Ba0 O16 3.312450 1_555
Ba0 O0 3.324333 1_555
Ba0 O13 3.369956 1_556
Ba1 O11 2.756953 1_555
Ba1 O9 2.834858 1_555
Ba1 O8 2.872320 1_565
Ba1 O7 2.894635 1_555
Ba1 O10 2.910888 1_565
Ba1 O5 2.949000 1_565
Ba1 O1 3.047352 1_555
Ba1 O17 3.274111 1_555
Ba1 O15 3.312450 1_565
Ba1 O3 3.324333 1_565
Ba1 O12 3.369956 1_565
Ba2 O11 2.756953 1_555
Ba2 O9 2.834858 1_556
Ba2 O8 2.872320 1_565
Ba2 O4 2.894635 1_556
Ba2 O10 2.910888 1_566
Ba2 O6 2.949000 1_566
Ba2 O1 3.047352 1_556
Ba2 O14 3.274111 1_556
Ba2 O16 3.312450 1_565
Ba2 O3 3.324333 1_565
Ba2 O12 3.369956 1_566
Ba3 O11 2.756953 1_555
Ba3 O9 2.834858 1_555
Ba3 O8 2.872320 1_555
Ba3 O7 2.894635 1_555
Ba3 O10 2.910888 1_555
Ba3 O5 2.949000 1_555
Ba3 O2 3.047352 1_555
Ba3 O17 3.274111 1_555
Ba3 O15 3.312450 1_555
Ba3 O0 3.324333 1_555
Ba3 O13 3.369956 1_555
La0 O0 2.413519 1_554
La0 O2 2.429124 1_555
La0 O6 2.479326 1_555
La0 O4 2.487707 1_555
La0 O13 2.523554 1_655
La0 O14 2.539927 1_655
La0 O16 2.609103 1_654
La1 O3 2.413519 1_555
La1 O1 2.429124 1_545
La1 O5 2.479326 1_555
La1 O7 2.487707 1_545
La1 O12 2.523554 1_655
La1 O17 2.539927 1_645
La1 O15 2.609103 1_655
La2 O3 2.413519 1_554
La2 O1 2.429124 1_545
La2 O6 2.479326 1_555
La2 O4 2.487707 1_545
La2 O12 2.523554 1_655
La2 O14 2.539927 1_645
La2 O16 2.609103 1_654
La3 O0 2.413519 1_555
La3 O2 2.429124 1_555
La3 O5 2.479326 1_555
La3 O7 2.487707 1_555
La3 O13 2.523554 1_655
La3 O17 2.539927 1_655
La3 O15 2.609103 1_655
Cu0 O3 1.971216 1_555
Cu0 O0 1.971216 1_555
Cu0 O6 2.067627 1_556
Cu0 O5 2.067627 1_555
Cu1 O1 1.940590 1_555
Cu1 O2 1.940590 1_555
Cu1 O4 1.987758 1_555
Cu1 O7 1.987758 1_555
Cu1 O9 2.603043 1_555
Cu2 O2 1.962043 1_555
Cu2 O1 1.962043 1_545
Cu2 O6 2.017266 1_555
Cu2 O5 2.017266 1_555
Cu2 O10 2.434332 1_555
Cu3 O0 2.058343 1_555
Cu3 O3 2.058343 1_565
Cu3 O4 2.099887 1_556
Cu3 O7 2.099887 1_555
Cu3 O11 2.154769 1_555
B0 O8 1.388219 1_555
B0 O15 1.396633 1_555
B0 O16 1.396633 1_555
B1 O9 1.387087 1_555
B1 O17 1.409339 1_555
B1 O14 1.409339 1_555
B2 O10 1.390181 1_555
B2 O12 1.390311 1_555
B2 O13 1.390311 1_555
