# generated using pymatgen
data_Ge3Ir2Se3
_symmetry_space_group_name_H-M   'P 1'
_cell_length_a   8.75356100
_cell_length_b   8.75356100
_cell_length_c   8.75356100
_cell_angle_alpha   90.00000000
_cell_angle_beta   90.00000000
_cell_angle_gamma   90.00000000
_symmetry_Int_Tables_number   1
_chemical_formula_structural   Ge3Ir2Se3
_chemical_formula_sum   'Ge12 Ir8 Se12'
_cell_volume   670.74012510
_cell_formula_units_Z   4
loop_
 _symmetry_equiv_pos_site_id
 _symmetry_equiv_pos_as_xyz
  1  'x, y, z'
loop_
 _atom_site_type_symbol
 _atom_site_label
 _atom_site_symmetry_multiplicity
 _atom_site_fract_x
 _atom_site_fract_y
 _atom_site_fract_z
 _atom_site_occupancy
  Ge  Ge0  1  0.67095900  0.00000000  0.14120200  1
  Ge  Ge1  1  0.32904100  0.00000000  0.85879800  1
  Ge  Ge2  1  0.32904100  0.00000000  0.14120200  1
  Ge  Ge3  1  0.67095900  0.00000000  0.85879800  1
  Ge  Ge4  1  0.14120200  0.67095900  0.00000000  1
  Ge  Ge5  1  0.85879800  0.32904100  0.00000000  1
  Ge  Ge6  1  0.14120200  0.32904100  0.00000000  1
  Ge  Ge7  1  0.85879800  0.67095900  0.00000000  1
  Ge  Ge8  1  0.00000000  0.14120200  0.67095900  1
  Ge  Ge9  1  0.00000000  0.85879800  0.32904100  1
  Ge  Ge10  1  0.00000000  0.14120200  0.32904100  1
  Ge  Ge11  1  0.00000000  0.85879800  0.67095900  1
  Ir  Ir0  1  0.74525800  0.25474200  0.25474200  1
  Ir  Ir1  1  0.25474200  0.25474200  0.74525800  1
  Ir  Ir2  1  0.25474200  0.74525800  0.25474200  1
  Ir  Ir3  1  0.74525800  0.74525800  0.74525800  1
  Ir  Ir4  1  0.25474200  0.74525800  0.74525800  1
  Ir  Ir5  1  0.74525800  0.74525800  0.25474200  1
  Ir  Ir6  1  0.74525800  0.25474200  0.74525800  1
  Ir  Ir7  1  0.25474200  0.25474200  0.25474200  1
  Se  Se0  1  0.16118300  0.50000000  0.64883300  1
  Se  Se1  1  0.83881700  0.50000000  0.35116700  1
  Se  Se2  1  0.83881700  0.50000000  0.64883300  1
  Se  Se3  1  0.16118300  0.50000000  0.35116700  1
  Se  Se4  1  0.64883300  0.16118300  0.50000000  1
  Se  Se5  1  0.35116700  0.83881700  0.50000000  1
  Se  Se6  1  0.64883300  0.83881700  0.50000000  1
  Se  Se7  1  0.35116700  0.16118300  0.50000000  1
  Se  Se8  1  0.50000000  0.64883300  0.16118300  1
  Se  Se9  1  0.50000000  0.35116700  0.83881700  1
  Se  Se10  1  0.50000000  0.64883300  0.83881700  1
  Se  Se11  1  0.50000000  0.35116700  0.16118300  1
loop_
_geom_bond_atom_site_label_1
_geom_bond_atom_site_label_2
_geom_bond_distance
_geom_bond_site_symmetry_2
Ge0 Ge3 2.472041 1_554
Ge0 Ir0 2.526508 1_555
Ge0 Ir5 2.526508 1_545
Ge0 Ge2 2.993000 1_555
Ge1 Ge2 2.472041 1_556
Ge1 Ir1 2.526508 1_555
Ge1 Ir4 2.526508 1_545
Ge1 Ge3 2.993000 1_555
Ge2 Ir7 2.526508 1_555
Ge2 Ir2 2.526508 1_545
Ge3 Ir6 2.526508 1_555
Ge3 Ir3 2.526508 1_545
Ge4 Ge7 2.472041 1_455
Ge4 Ir2 2.526508 1_555
Ge4 Ir4 2.526508 1_554
Ge4 Ge6 2.993000 1_555
Ge5 Ge6 2.472041 1_655
Ge5 Ir0 2.526508 1_555
Ge5 Ir6 2.526508 1_554
Ge5 Ge7 2.993000 1_555
Ge6 Ir7 2.526508 1_555
Ge6 Ir1 2.526508 1_554
Ge7 Ir5 2.526508 1_555
Ge7 Ir3 2.526508 1_554
Ge8 Ir1 2.526508 1_555
Ge8 Ir6 2.526508 1_455
Ge9 Ir2 2.526508 1_555
Ge9 Ir5 2.526508 1_455
Ge10 Ge9 2.472041 1_545
Ge10 Ir7 2.526508 1_555
Ge10 Ir0 2.526508 1_455
Ge10 Ge8 2.993000 1_555
Ge11 Ge8 2.472041 1_565
Ge11 Ir4 2.526508 1_555
Ge11 Ir3 2.526508 1_455
Ge11 Ge9 2.993000 1_555
Ir0 Se11 2.447909 1_555
Ir0 Se4 2.447909 1_555
Ir0 Se1 2.447909 1_555
Ir1 Se7 2.447909 1_555
Ir1 Se0 2.447909 1_555
Ir1 Se9 2.447909 1_555
Ir2 Se3 2.447909 1_555
Ir2 Se8 2.447909 1_555
Ir2 Se5 2.447909 1_555
Ir3 Se6 2.447909 1_555
Ir3 Se10 2.447909 1_555
Ir3 Se2 2.447909 1_555
Ir4 Se0 2.447909 1_555
Ir4 Se5 2.447909 1_555
Ir4 Se10 2.447909 1_555
Ir5 Se8 2.447909 1_555
Ir5 Se1 2.447909 1_555
Ir5 Se6 2.447909 1_555
Ir6 Se4 2.447909 1_555
Ir6 Se9 2.447909 1_555
Ir6 Se2 2.447909 1_555
Ir7 Se3 2.447909 1_555
Ir7 Se11 2.447909 1_555
Ir7 Se7 2.447909 1_555
Se0 Se3 2.605637 1_555
Se0 Se2 2.821850 1_455
Se1 Se2 2.605637 1_555
Se1 Se3 2.821850 1_655
Se4 Se7 2.605637 1_555
Se4 Se6 2.821850 1_545
Se5 Se6 2.605637 1_555
Se5 Se7 2.821850 1_565
Se10 Se9 2.605637 1_555
Se10 Se8 2.821850 1_556
Se11 Se8 2.605637 1_555
Se11 Se9 2.821850 1_554
