# generated using pymatgen
data_Cu2Bi8Pb3Se3S13
_symmetry_space_group_name_H-M   'P 1'
_cell_length_a   13.63977060
_cell_length_b   13.63977060
_cell_length_c   16.65780078
_cell_angle_alpha   53.78102423
_cell_angle_beta   53.78102423
_cell_angle_gamma   17.90530699
_symmetry_Int_Tables_number   1
_chemical_formula_structural   Cu2Bi8Pb3Se3S13
_chemical_formula_sum   'Cu2 Bi8 Pb3 Se3 S13'
_cell_volume   763.54660916
_cell_formula_units_Z   1
loop_
 _symmetry_equiv_pos_site_id
 _symmetry_equiv_pos_as_xyz
  1  'x, y, z'
loop_
 _atom_site_type_symbol
 _atom_site_label
 _atom_site_symmetry_multiplicity
 _atom_site_fract_x
 _atom_site_fract_y
 _atom_site_fract_z
 _atom_site_occupancy
  Cu  Cu0  1  0.95356200  0.95356200  0.48436300  1
  Cu  Cu1  1  0.04679100  0.04679100  0.51354400  1
  Bi  Bi0  1  0.68738800  0.68738800  0.48338600  1
  Bi  Bi1  1  0.31349500  0.31349500  0.51557700  1
  Bi  Bi2  1  0.35036300  0.35036300  0.23043900  1
  Bi  Bi3  1  0.64988700  0.64988700  0.77057400  1
  Bi  Bi4  1  0.17924500  0.17924500  0.01905200  1
  Bi  Bi5  1  0.82153700  0.82153700  0.98017800  1
  Bi  Bi6  1  0.64128000  0.64128000  0.26958800  1
  Bi  Bi7  1  0.35849500  0.35849500  0.72904900  1
  Pb  Pb0  1  0.99997900  0.99997900  0.00653500  1
  Pb  Pb1  1  0.97109800  0.97109800  0.27706800  1
  Pb  Pb2  1  0.02944400  0.02944400  0.71884200  1
  Se  Se0  1  0.51859500  0.51859500  0.86052800  1
  Se  Se1  1  0.21080800  0.21080800  0.35128400  1
  Se  Se2  1  0.78976000  0.78976000  0.64807900  1
  S  S0  1  0.43083400  0.43083400  0.44145200  1
  S  S1  1  0.57045300  0.57045300  0.55450800  1
  S  S2  1  0.06381100  0.06381100  0.36114900  1
  S  S3  1  0.93613100  0.93613100  0.63701100  1
  S  S4  1  0.84120000  0.84120000  0.36865800  1
  S  S5  1  0.15835400  0.15835400  0.63201500  1
  S  S6  1  0.60701100  0.60701100  0.15032300  1
  S  S7  1  0.39264300  0.39264300  0.84847600  1
  S  S8  1  0.86290700  0.86290700  0.11673700  1
  S  S9  1  0.13950200  0.13950200  0.88221700  1
  S  S10  1  0.23521500  0.23521500  0.10930400  1
  S  S11  1  0.76525400  0.76525400  0.89078300  1
  S  S12  1  0.47495800  0.47495800  0.14928000  1
loop_
_geom_bond_atom_site_label_1
_geom_bond_atom_site_label_2
_geom_bond_distance
_geom_bond_site_symmetry_2
Cu0 S3 2.292923 1_555
Cu0 S2 2.396687 1_665
Cu0 S0 2.432117 1_655
Cu0 S0 2.432117 1_565
Cu0 Pb1 3.192956 1_555
Cu1 S2 2.293862 1_555
Cu1 S3 2.405229 1_445
Cu1 S1 2.428606 1_545
Cu1 S1 2.428606 1_455
Cu1 Pb2 3.162466 1_555
Bi0 S1 2.620450 1_555
Bi0 Se1 2.843349 1_655
Bi0 Se1 2.843349 1_565
Bi0 S5 2.988303 1_565
Bi0 S5 2.988303 1_655
Bi1 S0 2.617607 1_555
Bi1 Se2 2.845583 1_545
Bi1 Se2 2.845583 1_455
Bi1 S4 2.977663 1_545
Bi1 S4 2.977663 1_455
Bi2 S8 2.727836 1_545
Bi2 S8 2.727836 1_455
Bi2 S12 2.769518 1_555
Bi2 Se1 3.022931 1_555
Bi2 S4 3.031077 1_455
Bi2 S4 3.031077 1_545
Bi3 S9 2.723914 1_565
Bi3 S9 2.723914 1_655
Bi3 Se0 2.901767 1_555
Bi3 Se2 3.028114 1_555
Bi3 S5 3.042161 1_565
Bi3 S5 3.042161 1_655
Bi4 S10 2.692140 1_555
Bi4 S6 2.825577 1_545
Bi4 S6 2.825577 1_455
Bi4 S11 2.918589 1_544
Bi4 S11 2.918589 1_454
Bi4 S9 3.043493 1_554
Bi5 S11 2.686946 1_555
Bi5 S7 2.821521 1_565
Bi5 S7 2.821521 1_655
Bi5 S10 2.925278 1_656
Bi5 S10 2.925278 1_566
Bi5 S8 3.074275 1_556
Bi6 S6 2.644713 1_555
Bi6 S2 2.716721 1_655
Bi6 S2 2.716721 1_565
Bi6 S10 3.155362 1_565
Bi6 S10 3.155362 1_655
Bi7 S7 2.644701 1_555
Bi7 S3 2.719483 1_455
Bi7 S3 2.719483 1_545
Bi7 S11 3.158904 1_455
Bi7 S11 3.158904 1_545
Pb0 S12 2.948909 1_565
Pb0 S12 2.948909 1_655
Pb0 S8 2.983547 1_555
Pb0 S9 3.018237 1_664
Pb0 Se0 3.035265 1_564
Pb0 Se0 3.035265 1_654
Pb1 S4 2.862078 1_555
Pb1 S12 2.963541 1_655
Pb1 S12 2.963541 1_565
Pb1 S0 3.102659 1_565
Pb1 S0 3.102659 1_655
Pb2 S5 2.854527 1_555
Pb2 Se0 3.055465 1_455
Pb2 Se0 3.055465 1_545
Pb2 S1 3.098586 1_545
Pb2 S1 3.098586 1_455
