# generated using pymatgen
data_Cu2Pb5C(SO7)3
_symmetry_space_group_name_H-M   'P 1'
_cell_length_a   6.10116300
_cell_length_b   7.59142200
_cell_length_c   20.78403700
_cell_angle_alpha   90.00000000
_cell_angle_beta   90.00000000
_cell_angle_gamma   90.00000000
_symmetry_Int_Tables_number   1
_chemical_formula_structural   Cu2Pb5C(SO7)3
_chemical_formula_sum   'Cu4 Pb10 C2 S6 O42'
_cell_volume   962.64391256
_cell_formula_units_Z   2
loop_
 _symmetry_equiv_pos_site_id
 _symmetry_equiv_pos_as_xyz
  1  'x, y, z'
loop_
 _atom_site_type_symbol
 _atom_site_label
 _atom_site_symmetry_multiplicity
 _atom_site_fract_x
 _atom_site_fract_y
 _atom_site_fract_z
 _atom_site_occupancy
  Cu  Cu0  1  0.18631500  0.49646800  0.24928500  1
  Cu  Cu1  1  0.18631500  0.49646800  0.75071500  1
  Cu  Cu2  1  0.68631500  0.50353200  0.25071500  1
  Cu  Cu3  1  0.68631500  0.50353200  0.74928500  1
  Pb  Pb0  1  0.98748600  0.10676600  0.00000000  1
  Pb  Pb1  1  0.48748600  0.89323400  0.50000000  1
  Pb  Pb2  1  0.45323300  0.43132400  0.09598300  1
  Pb  Pb3  1  0.45323300  0.43132400  0.90401700  1
  Pb  Pb4  1  0.95323300  0.56867600  0.40401700  1
  Pb  Pb5  1  0.95323300  0.56867600  0.59598300  1
  Pb  Pb6  1  0.41662800  0.87636700  0.16910000  1
  Pb  Pb7  1  0.41662800  0.87636700  0.83090000  1
  Pb  Pb8  1  0.91662800  0.12363300  0.33090000  1
  Pb  Pb9  1  0.91662800  0.12363300  0.66910000  1
  C  C0  1  0.41518900  0.83577400  0.00000000  1
  C  C1  1  0.91518900  0.16422600  0.50000000  1
  S  S0  1  0.94353800  0.12208400  0.16149900  1
  S  S1  1  0.94353800  0.12208400  0.83850100  1
  S  S2  1  0.44353800  0.87791600  0.33850100  1
  S  S3  1  0.44353800  0.87791600  0.66149900  1
  S  S4  1  0.95063700  0.55731400  0.00000000  1
  S  S5  1  0.45063700  0.44268600  0.50000000  1
  O  O0  1  0.13695800  0.39133600  0.32757000  1
  O  O1  1  0.13695800  0.39133600  0.67243000  1
  O  O2  1  0.63695800  0.60866400  0.17243000  1
  O  O3  1  0.63695800  0.60866400  0.82757000  1
  O  O4  1  0.24010200  0.59548900  0.17009100  1
  O  O5  1  0.24010200  0.59548900  0.82990900  1
  O  O6  1  0.74010200  0.40451100  0.32990900  1
  O  O7  1  0.74010200  0.40451100  0.67009100  1
  O  O8  1  0.43894500  0.37156000  0.23669900  1
  O  O9  1  0.43894500  0.37156000  0.76330100  1
  O  O10  1  0.93894500  0.62844000  0.26330100  1
  O  O11  1  0.93894500  0.62844000  0.73669900  1
  O  O12  1  0.95272700  0.66421500  0.05859900  1
  O  O13  1  0.95272700  0.66421500  0.94140100  1
  O  O14  1  0.45272700  0.33578500  0.44140100  1
  O  O15  1  0.45272700  0.33578500  0.55859900  1
  O  O16  1  0.75512600  0.43039100  0.00000000  1
  O  O17  1  0.25512600  0.56960900  0.50000000  1
  O  O18  1  0.14887300  0.42798000  0.00000000  1
  O  O19  1  0.64887300  0.57202000  0.50000000  1
  O  O20  1  0.92705400  0.26417800  0.21058600  1
  O  O21  1  0.92705400  0.26417800  0.78941400  1
  O  O22  1  0.42705400  0.73582200  0.28941400  1
  O  O23  1  0.42705400  0.73582200  0.71058600  1
  O  O24  1  0.99235000  0.95330800  0.19469500  1
  O  O25  1  0.99235000  0.95330800  0.80530500  1
  O  O26  1  0.49235000  0.04669200  0.30530500  1
  O  O27  1  0.49235000  0.04669200  0.69469500  1
  O  O28  1  0.73636200  0.11126700  0.12309700  1
  O  O29  1  0.73636200  0.11126700  0.87690300  1
  O  O30  1  0.23636200  0.88873300  0.37690300  1
  O  O31  1  0.23636200  0.88873300  0.62309700  1
  O  O32  1  0.12767400  0.16285900  0.11464600  1
  O  O33  1  0.12767400  0.16285900  0.88535400  1
  O  O34  1  0.62767400  0.83714100  0.38535400  1
  O  O35  1  0.62767400  0.83714100  0.61464600  1
  O  O36  1  0.44186300  0.75333300  0.05426700  1
  O  O37  1  0.44186300  0.75333300  0.94573300  1
  O  O38  1  0.94186300  0.24666700  0.44573300  1
  O  O39  1  0.94186300  0.24666700  0.55426700  1
  O  O40  1  0.36519200  0.00166900  0.00000000  1
  O  O41  1  0.86519200  0.99833100  0.50000000  1
loop_
_geom_bond_atom_site_label_1
_geom_bond_atom_site_label_2
_geom_bond_distance
_geom_bond_site_symmetry_2
Cu0 O8 1.828466 1_555
Cu0 O10 1.834774 1_455
Cu0 O0 1.837126 1_555
Cu0 O4 1.839016 1_555
Cu0 O22 2.480844 1_555
Cu0 O20 2.501724 1_455
Cu1 O9 1.828466 1_555
Cu1 O11 1.834774 1_455
Cu1 O1 1.837126 1_555
Cu1 O5 1.839016 1_555
Cu1 O23 2.480844 1_555
Cu1 O21 2.501724 1_455
Cu2 O10 1.828466 1_555
Cu2 O8 1.834774 1_555
Cu2 O2 1.837126 1_555
Cu2 O6 1.839016 1_555
Cu2 O20 2.480844 1_555
Cu2 O22 2.501724 1_555
Cu3 O11 1.828466 1_555
Cu3 O9 1.834774 1_555
Cu3 O3 1.837126 1_555
Cu3 O7 1.839016 1_555
Cu3 O21 2.480844 1_555
Cu3 O23 2.501724 1_555
C0 O40 1.295795 1_565
C0 O36 1.300114 1_555
C0 O37 1.300114 1_554
C1 O41 1.295795 1_545
C1 O39 1.300114 1_555
C1 O38 1.300114 1_555
O0 Pb4 2.365048 1_455
O0 Pb8 2.437596 1_455
O1 Pb5 2.365048 1_455
O1 Pb9 2.437596 1_455
O2 Pb2 2.365048 1_555
O2 Pb6 2.437596 1_555
O3 Pb3 2.365048 1_555
O3 Pb7 2.437596 1_555
O4 Pb2 2.369903 1_555
O4 Pb6 2.388918 1_555
O5 Pb3 2.369903 1_555
O5 Pb7 2.388918 1_555
O6 Pb4 2.369903 1_555
O6 Pb8 2.388918 1_555
O7 Pb5 2.369903 1_555
O7 Pb9 2.388918 1_555
O12 S4 1.463586 1_555
O13 S4 1.463586 1_556
O14 S5 1.463586 1_555
O15 S5 1.463586 1_555
O16 S4 1.533382 1_555
O16 Pb2 2.715202 1_555
O16 Pb3 2.715202 1_554
O17 S5 1.533382 1_555
O17 Pb5 2.715202 1_455
O17 Pb4 2.715202 1_455
O18 S4 1.557821 1_455
O18 Pb0 2.629767 1_455
O18 Pb2 2.725544 1_555
O18 Pb3 2.725544 1_554
O19 S5 1.557821 1_555
O19 Pb1 2.629767 1_555
O19 Pb5 2.725544 1_555
O19 Pb4 2.725544 1_555
O20 S0 1.488140 1_555
O20 Pb8 2.719458 1_555
O21 S1 1.488140 1_555
O21 Pb9 2.719458 1_555
O22 S2 1.488140 1_555
O22 Pb6 2.719458 1_555
O23 S3 1.488140 1_555
O23 Pb7 2.719458 1_555
O24 S0 1.485368 1_565
O24 Pb6 2.706464 1_655
O25 S1 1.485368 1_565
O25 Pb7 2.706464 1_655
O26 S2 1.485368 1_545
O26 Pb8 2.706464 1_555
O27 S3 1.485368 1_545
O27 Pb9 2.706464 1_555
O28 S0 1.497170 1_555
O28 Pb6 2.810604 1_545
O29 S1 1.497170 1_555
O29 Pb7 2.810604 1_545
O30 S2 1.497170 1_555
O30 Pb8 2.810604 1_465
O31 S3 1.497170 1_555
O31 Pb9 2.810604 1_465
O32 S0 1.518623 1_455
O32 Pb0 2.567226 1_455
O33 S1 1.518623 1_455
O33 Pb0 2.567226 1_456
O34 S2 1.518623 1_555
O34 Pb1 2.567226 1_555
O35 S3 1.518623 1_555
O35 Pb1 2.567226 1_555
O36 Pb6 2.567561 1_555
O36 Pb2 2.594640 1_555
O37 Pb7 2.567561 1_555
O37 Pb3 2.594640 1_555
O38 Pb8 2.567561 1_555
O38 Pb4 2.594640 1_555
O39 Pb9 2.567561 1_555
O39 Pb5 2.594640 1_555
O40 Pb0 2.438650 1_455
O41 Pb1 2.438650 1_555
