# generated using pymatgen
data_Y(TiGa2)2
_symmetry_space_group_name_H-M   'P 1'
_cell_length_a   5.47809335
_cell_length_b   5.47809477
_cell_length_c   5.47809319
_cell_angle_alpha   104.23851743
_cell_angle_beta   104.23851485
_cell_angle_gamma   120.53615312
_symmetry_Int_Tables_number   1
_chemical_formula_structural   Y(TiGa2)2
_chemical_formula_sum   'Y1 Ti2 Ga4'
_cell_volume   122.95458046
_cell_formula_units_Z   1
loop_
 _symmetry_equiv_pos_site_id
 _symmetry_equiv_pos_as_xyz
  1  'x, y, z'
loop_
 _atom_site_type_symbol
 _atom_site_label
 _atom_site_symmetry_multiplicity
 _atom_site_fract_x
 _atom_site_fract_y
 _atom_site_fract_z
 _atom_site_occupancy
  Y  Y0  1  -0.00000000  0.00000000  0.00000000  1
  Ti  Ti0  1  0.75000000  0.25000000  0.50000000  1
  Ti  Ti1  1  0.25000000  0.75000000  0.50000000  1
  Ga  Ga0  1  0.69651133  0.30348867  0.00000000  1
  Ga  Ga1  1  0.69651133  0.69651133  0.39302267  1
  Ga  Ga2  1  0.30348867  0.30348867  0.60697733  1
  Ga  Ga3  1  0.30348867  0.69651133  1.00000000  1
loop_
_geom_bond_atom_site_label_1
_geom_bond_atom_site_label_2
_geom_bond_distance
_geom_bond_site_symmetry_2
Ti0 Ti1 2.716820 1_545
Ti0 Ti1 2.716820 1_655
Ga0 Ga2 2.643988 1_554
Ga0 Ga1 2.643988 1_555
Ga0 Ti0 2.785918 1_554
Ga0 Ti0 2.785918 1_555
Ga0 Ti1 2.785918 1_655
Ga0 Ti1 2.785918 1_544
Ga0 Y0 2.887350 1_655
Ga0 Ga3 2.901200 1_654
Ga0 Ga3 2.901200 1_544
Ga0 Y0 3.297946 1_555
Ga0 Y0 3.297947 1_665
Ga1 Ga3 2.643988 1_554
Ga1 Ti1 2.785918 1_655
Ga1 Ti1 2.785918 1_555
Ga1 Ti0 2.785919 1_555
Ga1 Ti0 2.785919 1_565
Ga1 Y0 2.887350 1_666
Ga1 Ga2 2.901200 1_555
Ga1 Ga2 2.901200 1_665
Ga1 Y0 3.297946 1_665
Ga1 Y0 3.297946 1_555
Ga2 Ga3 2.643988 1_555
Ga2 Ti0 2.785918 1_455
Ga2 Ti0 2.785918 1_555
Ga2 Ti1 2.785919 1_555
Ga2 Ti1 2.785919 1_545
Ga2 Y0 2.887350 1_555
Ga2 Y0 3.297946 1_556
Ga2 Y0 3.297946 1_666
Ga3 Ti1 2.785918 1_556
Ga3 Ti1 2.785918 1_555
Ga3 Ti0 2.785918 1_455
Ga3 Ti0 2.785918 1_566
Ga3 Y0 2.887350 1_566
Ga3 Y0 3.297946 1_666
Ga3 Y0 3.297947 1_556
