# generated using pymatgen
data_Tb5(Ge5Ir2)2
_symmetry_space_group_name_H-M   'P 1'
_cell_length_a   12.96876148
_cell_length_b   12.96872219
_cell_length_c   4.33414745
_cell_angle_alpha   89.99999868
_cell_angle_beta   89.99999929
_cell_angle_gamma   90.00014615
_symmetry_Int_Tables_number   1
_chemical_formula_structural   Tb5(Ge5Ir2)2
_chemical_formula_sum   'Tb10 Ge20 Ir8'
_cell_volume   728.95273893
_cell_formula_units_Z   2
loop_
 _symmetry_equiv_pos_site_id
 _symmetry_equiv_pos_as_xyz
  1  'x, y, z'
loop_
 _atom_site_type_symbol
 _atom_site_label
 _atom_site_symmetry_multiplicity
 _atom_site_fract_x
 _atom_site_fract_y
 _atom_site_fract_z
 _atom_site_occupancy
  Tb  Tb0  1  0.50001402  0.50000593  -0.00000000  1
  Tb  Tb1  1  0.00000669  0.00000242  0.00000009  1
  Tb  Tb2  1  0.67395571  0.17397328  0.50000000  1
  Tb  Tb3  1  0.32604730  0.82603847  0.49999998  1
  Tb  Tb4  1  0.17396931  0.32602611  0.49999999  1
  Tb  Tb5  1  0.82601156  0.67395591  0.49999998  1
  Tb  Tb6  1  0.88536990  0.38538903  0.50000005  1
  Tb  Tb7  1  0.11461510  0.61461048  0.49999996  1
  Tb  Tb8  1  0.38540370  0.11460301  0.49999985  1
  Tb  Tb9  1  0.61459233  0.88538993  0.50000004  1
  Ge  Ge0  1  0.56748796  0.06748727  0.00000005  1
  Ge  Ge1  1  0.43252247  0.93251773  -0.00000012  1
  Ge  Ge2  1  0.06748224  0.43251399  -0.00000002  1
  Ge  Ge3  1  0.93250903  0.56748250  0.00000001  1
  Ge  Ge4  1  0.66378759  0.70060669  -0.00000022  1
  Ge  Ge5  1  0.33621654  0.29938718  0.00000006  1
  Ge  Ge6  1  0.16378521  0.79940256  0.00000001  1
  Ge  Ge7  1  0.83620962  0.20059962  0.00000004  1
  Ge  Ge8  1  0.29940241  0.66378837  -0.00000001  1
  Ge  Ge9  1  0.70060054  0.33621253  -0.00000004  1
  Ge  Ge10  1  0.20060514  0.16378542  -0.00000008  1
  Ge  Ge11  1  0.79938813  0.83621400  0.00000016  1
  Ge  Ge12  1  0.65691152  0.50456134  0.49999997  1
  Ge  Ge13  1  0.34310209  0.49541121  0.50000005  1
  Ge  Ge14  1  0.15692911  0.99543342  0.50000004  1
  Ge  Ge15  1  0.84307484  0.00459078  0.49999998  1
  Ge  Ge16  1  0.49543999  0.65691891  0.50000007  1
  Ge  Ge17  1  0.50458700  0.34308832  0.49999994  1
  Ge  Ge18  1  0.00456708  0.15691698  0.50000002  1
  Ge  Ge19  1  0.99540509  0.84308424  0.49999999  1
  Ir  Ir0  1  0.74520643  0.52000566  0.00000003  1
  Ir  Ir1  1  0.25479559  0.47998927  -0.00000002  1
  Ir  Ir2  1  0.24522403  0.97998608  -0.00000009  1
  Ir  Ir3  1  0.75477584  0.02001738  0.00000005  1
  Ir  Ir4  1  0.47999204  0.74522438  0.00000011  1
  Ir  Ir5  1  0.52001970  0.25478243  0.00000005  1
  Ir  Ir6  1  0.02000465  0.24521067  -0.00000002  1
  Ir  Ir7  1  0.97998351  0.75478553  0.00000002  1
loop_
_geom_bond_atom_site_label_1
_geom_bond_atom_site_label_2
_geom_bond_distance
_geom_bond_site_symmetry_2
Ge0 Ge1 2.475378 1_545
Ge0 Ir3 2.505697 1_555
Ge0 Ir5 2.505776 1_555
Ge0 Tb2 2.917158 1_555
Ge0 Tb2 2.917158 1_554
Ge0 Tb8 3.262793 1_555
Ge0 Tb8 3.262794 1_554
Ge0 Tb9 3.262883 1_545
Ge0 Tb9 3.262884 1_544
Ge1 Ir4 2.505758 1_555
Ge1 Ir2 2.505825 1_555
Ge1 Tb3 2.917162 1_554
Ge1 Tb3 2.917162 1_555
Ge1 Tb9 3.262687 1_554
Ge1 Tb9 3.262688 1_555
Ge1 Tb8 3.262805 1_565
Ge1 Tb8 3.262805 1_564
Ge2 Ge3 2.475446 1_455
Ge2 Ir6 2.505906 1_555
Ge2 Ir1 2.506031 1_555
Ge2 Tb4 2.917291 1_554
Ge2 Tb4 2.917291 1_555
Ge2 Tb7 3.262942 1_555
Ge2 Tb7 3.262942 1_554
Ge2 Tb6 3.263077 1_454
Ge2 Tb6 3.263077 1_455
Ge3 Ir7 2.505892 1_555
Ge3 Ir0 2.505901 1_555
Ge3 Tb5 2.917266 1_555
Ge3 Tb5 2.917266 1_554
Ge3 Tb6 3.262929 1_554
Ge3 Tb6 3.262929 1_555
Ge3 Tb7 3.263025 1_655
Ge3 Tb7 3.263025 1_654
Ge4 Ir4 2.452830 1_555
Ge4 Ir0 2.569178 1_555
Ge4 Tb5 3.040037 1_554
Ge4 Tb5 3.040038 1_555
Ge4 Tb9 3.293327 1_554
Ge4 Tb9 3.293328 1_555
Ge4 Tb0 3.358434 1_555
Ge5 Ir5 2.452887 1_555
Ge5 Ir1 2.569202 1_555
Ge5 Tb4 3.040229 1_555
Ge5 Tb4 3.040229 1_554
Ge5 Tb8 3.293315 1_555
Ge5 Tb8 3.293317 1_554
Ge5 Tb0 3.358811 1_555
Ge6 Ir7 2.452903 1_455
Ge6 Ge8 2.487272 1_555
Ge6 Ir2 2.569073 1_555
Ge6 Tb3 3.040357 1_555
Ge6 Tb3 3.040357 1_554
Ge6 Tb7 3.293345 1_555
Ge6 Tb7 3.293346 1_554
Ge6 Tb1 3.358474 1_565
Ge7 Ir6 2.452801 1_655
Ge7 Ge9 2.487186 1_555
Ge7 Ir3 2.569031 1_555
Ge7 Tb2 3.040269 1_555
Ge7 Tb2 3.040269 1_554
Ge7 Tb6 3.293296 1_554
Ge7 Tb6 3.293296 1_555
Ge7 Tb1 3.358600 1_655
Ge8 Ir1 2.452832 1_555
Ge8 Ir4 2.569135 1_555
Ge8 Tb3 3.040258 1_554
Ge8 Tb3 3.040258 1_555
Ge8 Tb7 3.293325 1_555
Ge8 Tb7 3.293325 1_554
Ge8 Tb0 3.358627 1_555
Ge9 Ir0 2.452754 1_555
Ge9 Ir5 2.569000 1_555
Ge9 Tb2 3.040161 1_554
Ge9 Tb2 3.040161 1_555
Ge9 Tb6 3.293152 1_554
Ge9 Tb6 3.293152 1_555
Ge9 Tb0 3.358464 1_555
Ge10 Ir2 2.452875 1_545
Ge10 Ge5 2.487099 1_555
Ge10 Ir6 2.569211 1_555
Ge10 Tb4 3.040161 1_554
Ge10 Tb4 3.040162 1_555
Ge10 Tb8 3.293445 1_555
Ge10 Tb8 3.293445 1_554
Ge10 Tb1 3.358491 1_555
Ge11 Ir3 2.452906 1_565
Ge11 Ge4 2.487050 1_555
Ge11 Ir7 2.569168 1_555
Ge11 Tb5 3.040299 1_555
Ge11 Tb5 3.040300 1_554
Ge11 Tb9 3.293402 1_555
Ge11 Tb9 3.293403 1_554
Ge11 Tb1 3.358737 1_665
Ge12 Ir0 2.459171 1_555
Ge12 Ir0 2.459171 1_556
Ge12 Ge17 2.878832 1_555
Ge12 Ge16 2.879120 1_555
Ge12 Tb0 2.973209 1_555
Ge12 Tb0 2.973209 1_556
Ge12 Tb5 3.104089 1_555
Ge12 Tb6 3.341698 1_555
Ge13 Ir1 2.459217 1_556
Ge13 Ir1 2.459218 1_555
Ge13 Ge17 2.878937 1_555
Ge13 Ge16 2.879278 1_555
Ge13 Tb0 2.973347 1_556
Ge13 Tb0 2.973347 1_555
Ge13 Tb4 3.104302 1_555
Ge13 Tb7 3.342189 1_555
Ge14 Ir2 2.459174 1_556
Ge14 Ir2 2.459175 1_555
Ge14 Ge18 2.879272 1_565
Ge14 Ge19 2.879533 1_455
Ge14 Tb1 2.973434 1_565
Ge14 Tb1 2.973434 1_566
Ge14 Tb3 3.104267 1_555
Ge14 Tb8 3.341861 1_565
Ge15 Ir3 2.459177 1_555
Ge15 Ir3 2.459178 1_556
Ge15 Ge18 2.879028 1_655
Ge15 Ge19 2.879206 1_545
Ge15 Tb1 2.973522 1_655
Ge15 Tb1 2.973523 1_656
Ge15 Tb2 3.104161 1_555
Ge15 Tb9 3.342140 1_545
Ge16 Ir4 2.459238 1_555
Ge16 Ir4 2.459238 1_556
Ge16 Tb0 2.973347 1_556
Ge16 Tb0 2.973347 1_555
Ge16 Tb3 3.104259 1_555
Ge16 Tb9 3.341711 1_555
Ge17 Ir5 2.459224 1_555
Ge17 Ir5 2.459225 1_556
Ge17 Tb0 2.973388 1_555
Ge17 Tb0 2.973388 1_556
Ge17 Tb2 3.103997 1_555
Ge17 Tb8 3.342061 1_555
Ge18 Ir6 2.459155 1_556
Ge18 Ir6 2.459155 1_555
Ge18 Tb1 2.973357 1_555
Ge18 Tb1 2.973358 1_556
Ge18 Tb4 3.104243 1_555
Ge18 Tb6 3.341999 1_455
Ge19 Ir7 2.459168 1_555
Ge19 Ir7 2.459169 1_556
Ge19 Tb1 2.973400 1_665
Ge19 Tb1 2.973401 1_666
Ge19 Tb5 3.104339 1_555
Ge19 Tb7 3.342096 1_655
Ir0 Tb5 3.127386 1_555
Ir0 Tb5 3.127386 1_554
Ir0 Tb0 3.190402 1_555
Ir0 Tb6 3.323893 1_554
Ir0 Tb6 3.323893 1_555
Ir1 Tb4 3.127585 1_555
Ir1 Tb4 3.127585 1_554
Ir1 Tb0 3.190756 1_555
Ir1 Tb7 3.324045 1_555
Ir1 Tb7 3.324045 1_554
Ir2 Tb3 3.127447 1_554
Ir2 Tb3 3.127447 1_555
Ir2 Tb1 3.190743 1_565
Ir2 Tb8 3.324005 1_565
Ir2 Tb8 3.324005 1_564
Ir3 Tb2 3.127502 1_555
Ir3 Tb2 3.127502 1_554
Ir3 Tb1 3.190916 1_655
Ir3 Tb9 3.324104 1_545
Ir3 Tb9 3.324104 1_544
Ir4 Tb3 3.127385 1_555
Ir4 Tb3 3.127386 1_554
Ir4 Tb0 3.190754 1_555
Ir4 Tb9 3.323791 1_555
Ir4 Tb9 3.323792 1_554
Ir5 Tb2 3.127292 1_555
Ir5 Tb2 3.127292 1_554
Ir5 Tb0 3.190802 1_555
Ir5 Tb8 3.323996 1_555
Ir5 Tb8 3.323997 1_554
Ir6 Tb4 3.127553 1_554
Ir6 Tb4 3.127553 1_555
Ir6 Tb1 3.190595 1_555
Ir6 Tb6 3.324122 1_454
Ir6 Tb6 3.324122 1_455
Ir7 Tb5 3.127675 1_555
Ir7 Tb5 3.127675 1_554
Ir7 Tb1 3.190733 1_665
Ir7 Tb7 3.324077 1_655
Ir7 Tb7 3.324077 1_654
