# generated using pymatgen
data_MnCuAs
_symmetry_space_group_name_H-M   'P 1'
_cell_length_a   3.69949100
_cell_length_b   3.69949100
_cell_length_c   6.40842200
_cell_angle_alpha   90.00000000
_cell_angle_beta   90.00000000
_cell_angle_gamma   90.00000000
_symmetry_Int_Tables_number   1
_chemical_formula_structural   MnCuAs
_chemical_formula_sum   'Mn2 Cu2 As2'
_cell_volume   87.70716088
_cell_formula_units_Z   2
loop_
 _symmetry_equiv_pos_site_id
 _symmetry_equiv_pos_as_xyz
  1  'x, y, z'
loop_
 _atom_site_type_symbol
 _atom_site_label
 _atom_site_symmetry_multiplicity
 _atom_site_fract_x
 _atom_site_fract_y
 _atom_site_fract_z
 _atom_site_occupancy
  Mn  Mn0  1  0.00000000  0.50000000  0.16402000  1
  Mn  Mn1  1  0.50000000  0.00000000  0.83598000  1
  Cu  Cu0  1  0.00000000  0.00000000  0.50000000  1
  Cu  Cu1  1  0.50000000  0.50000000  0.50000000  1
  As  As0  1  0.00000000  0.50000000  0.77624600  1
  As  As1  1  0.50000000  0.00000000  0.22375400  1
loop_
_geom_bond_atom_site_label_1
_geom_bond_atom_site_label_2
_geom_bond_distance
_geom_bond_site_symmetry_2
Cu0 Cu1 2.615935 1_455
Cu0 Cu1 2.615935 1_445
Cu0 Cu1 2.615935 1_555
Cu0 Cu1 2.615935 1_545
Cu0 Mn0 2.838557 1_555
Cu0 Mn1 2.838557 1_455
Cu0 Mn0 2.838557 1_545
Cu0 Mn1 2.838557 1_555
Cu1 Mn0 2.838557 1_555
Cu1 Mn0 2.838557 1_655
Cu1 Mn1 2.838557 1_555
Cu1 Mn1 2.838557 1_565
As0 Mn0 2.485019 1_556
As0 Cu0 2.560376 1_565
As0 Cu1 2.560376 1_455
As0 Cu0 2.560376 1_555
As0 Cu1 2.560376 1_555
As0 Mn1 2.643795 1_555
As0 Mn1 2.643795 1_565
As0 Mn1 2.643795 1_465
As0 Mn1 2.643795 1_455
As1 Mn1 2.485019 1_554
As1 Cu0 2.560376 1_655
As1 Cu0 2.560376 1_555
As1 Cu1 2.560376 1_555
As1 Cu1 2.560376 1_545
As1 Mn0 2.643795 1_545
As1 Mn0 2.643795 1_655
As1 Mn0 2.643795 1_645
As1 Mn0 2.643795 1_555
