# generated using pymatgen
data_Li4Ni5SbO12
_symmetry_space_group_name_H-M   'P 1'
_cell_length_a   5.08322518
_cell_length_b   5.08322518
_cell_length_c   10.00678582
_cell_angle_alpha   89.75558834
_cell_angle_beta   89.75558834
_cell_angle_gamma   119.31895201
_symmetry_Int_Tables_number   1
_chemical_formula_structural   Li4Ni5SbO12
_chemical_formula_sum   'Li4 Ni5 Sb1 O12'
_cell_volume   225.43853499
_cell_formula_units_Z   1
loop_
 _symmetry_equiv_pos_site_id
 _symmetry_equiv_pos_as_xyz
  1  'x, y, z'
loop_
 _atom_site_type_symbol
 _atom_site_label
 _atom_site_symmetry_multiplicity
 _atom_site_fract_x
 _atom_site_fract_y
 _atom_site_fract_z
 _atom_site_occupancy
  Li  Li0  1  0.64783800  0.15505500  0.74795000  1
  Li  Li1  1  0.84494500  0.35216200  0.25205000  1
  Li  Li2  1  0.15505500  0.64783800  0.74795000  1
  Li  Li3  1  0.35216200  0.84494500  0.25205000  1
  Ni  Ni0  1  0.83594000  0.16406000  0.50000000  1
  Ni  Ni1  1  0.66483000  0.33517000  0.00000000  1
  Ni  Ni2  1  0.50000000  0.50000000  0.50000000  1
  Ni  Ni3  1  0.33517000  0.66483000  0.00000000  1
  Ni  Ni4  1  0.16406000  0.83594000  0.50000000  1
  Sb  Sb0  1  0.00000000  0.00000000  0.00000000  1
  O  O0  1  0.67826300  0.01661700  0.11238800  1
  O  O1  1  0.98338300  0.32173700  0.88761200  1
  O  O2  1  0.51888200  0.16186900  0.39651800  1
  O  O3  1  0.83813100  0.48111800  0.60348200  1
  O  O4  1  0.16817000  0.16817000  0.59248400  1
  O  O5  1  0.32956300  0.32956300  0.10431000  1
  O  O6  1  0.67043700  0.67043700  0.89569000  1
  O  O7  1  0.83183000  0.83183000  0.40751600  1
  O  O8  1  0.16186900  0.51888200  0.39651800  1
  O  O9  1  0.48111800  0.83813100  0.60348200  1
  O  O10  1  0.01661700  0.67826300  0.11238800  1
  O  O11  1  0.32173700  0.98338300  0.88761200  1
loop_
_geom_bond_atom_site_label_1
_geom_bond_atom_site_label_2
_geom_bond_distance
_geom_bond_site_symmetry_2
Li0 O11 2.003913 1_545
Li0 O9 2.024031 1_545
Li0 O3 2.042118 1_555
Li0 O1 2.048281 1_555
Li1 O10 2.003913 1_655
Li1 O8 2.024031 1_655
Li1 O2 2.042118 1_555
Li1 O0 2.048281 1_555
Li2 O1 2.003913 1_455
Li2 O3 2.024031 1_455
Li2 O9 2.042118 1_555
Li2 O11 2.048281 1_555
Li3 O0 2.003913 1_565
Li3 O2 2.024031 1_565
Li3 O8 2.042118 1_555
Li3 O10 2.048281 1_555
Ni0 O3 1.914861 1_555
Ni0 O2 1.914861 1_555
Ni0 O4 1.920395 1_655
Ni0 O7 1.920395 1_545
Ni0 O9 2.028116 1_545
Ni0 O8 2.028116 1_655
Ni1 O6 1.982870 1_554
Ni1 O5 1.982870 1_555
Ni1 O0 1.996232 1_555
Ni1 O1 1.996232 1_554
Ni1 O10 2.117491 1_655
Ni1 O11 2.117491 1_544
Ni2 O7 1.932307 1_555
Ni2 O4 1.932307 1_555
Ni2 O9 2.052238 1_555
Ni2 O3 2.052238 1_555
Ni2 O2 2.052238 1_555
Ni2 O8 2.052238 1_555
Ni3 O6 1.982870 1_554
Ni3 O5 1.982870 1_555
Ni3 O10 1.996232 1_555
Ni3 O11 1.996232 1_554
Ni3 O0 2.117491 1_565
Ni3 O1 2.117491 1_454
Ni4 O9 1.914861 1_555
Ni4 O8 1.914861 1_555
Ni4 O4 1.920395 1_565
Ni4 O7 1.920395 1_455
Ni4 O3 2.028116 1_455
Ni4 O2 2.028116 1_565
O0 Sb0 2.016705 1_655
O1 Sb0 2.016705 1_656
O5 Sb0 1.995943 1_555
O6 Sb0 1.995943 1_666
O10 Sb0 2.016705 1_565
O11 Sb0 2.016705 1_566
