# generated using pymatgen
data_KAlO2
_symmetry_space_group_name_H-M   'P 1'
_cell_length_a   5.50245625
_cell_length_b   5.50245625
_cell_length_c   7.72796142
_cell_angle_alpha   90.00000000
_cell_angle_beta   90.00000000
_cell_angle_gamma   90.00000000
_symmetry_Int_Tables_number   1
_chemical_formula_structural   KAlO2
_chemical_formula_sum   'K4 Al4 O8'
_cell_volume   233.97967944
_cell_formula_units_Z   4
loop_
 _symmetry_equiv_pos_site_id
 _symmetry_equiv_pos_as_xyz
  1  'x, y, z'
loop_
 _atom_site_type_symbol
 _atom_site_label
 _atom_site_symmetry_multiplicity
 _atom_site_fract_x
 _atom_site_fract_y
 _atom_site_fract_z
 _atom_site_occupancy
  K  K0  1  0.72711760  0.72711760  -0.00000000  1
  K  K1  1  0.77288240  0.22711760  0.25000000  1
  K  K2  1  0.22711760  0.77288240  0.75000000  1
  K  K3  1  0.27288240  0.27288240  0.50000000  1
  Al  Al0  1  0.71197650  0.71197650  0.50000000  1
  Al  Al1  1  0.21197650  0.78802350  0.25000000  1
  Al  Al2  1  0.78802350  0.21197650  0.75000000  1
  Al  Al3  1  0.28802350  0.28802350  -0.00000000  1
  O  O0  1  0.91265784  0.75577995  0.32650892  1
  O  O1  1  0.08734216  0.24422005  0.82650892  1
  O  O2  1  0.75577995  0.91265784  0.67349108  1
  O  O3  1  0.25577995  0.58734216  0.07650892  1
  O  O4  1  0.74422005  0.41265784  0.57650892  1
  O  O5  1  0.24422005  0.08734216  0.17349108  1
  O  O6  1  0.41265784  0.74422005  0.42349108  1
  O  O7  1  0.58734216  0.25577995  0.92349108  1
loop_
_geom_bond_atom_site_label_1
_geom_bond_atom_site_label_2
_geom_bond_distance
_geom_bond_site_symmetry_2
K0 O2 2.726527 1_554
K0 O0 2.726527 1_555
K0 O3 2.769013 1_555
K0 O7 2.769013 1_554
K0 O7 3.066440 1_564
K0 O3 3.066440 1_655
K1 O4 2.726527 1_555
K1 O7 2.726527 1_554
K1 O5 2.769013 1_655
K1 O0 2.769013 1_545
K1 O5 3.066440 1_555
K1 O0 3.066440 1_555
K2 O6 2.726527 1_555
K2 O3 2.726527 1_556
K2 O2 2.769013 1_455
K2 O1 2.769013 1_565
K2 O1 3.066440 1_555
K2 O2 3.066440 1_555
K3 O1 2.726527 1_555
K3 O5 2.726527 1_555
K3 O4 2.769013 1_555
K3 O6 2.769013 1_555
K3 O6 3.066440 1_545
K3 O4 3.066440 1_455
Al0 O0 1.753569 1_555
Al0 O2 1.753569 1_555
Al0 O4 1.758872 1_555
Al0 O6 1.758872 1_555
Al1 O6 1.753569 1_555
Al1 O3 1.753569 1_555
Al1 O0 1.758872 1_455
Al1 O5 1.758872 1_565
Al2 O4 1.753569 1_555
Al2 O7 1.753569 1_555
Al2 O2 1.758872 1_545
Al2 O1 1.758872 1_655
Al3 O5 1.753569 1_555
Al3 O1 1.753569 1_554
Al3 O3 1.758872 1_555
Al3 O7 1.758872 1_554
