# generated using pymatgen
data_Sm2GaNi2
_symmetry_space_group_name_H-M   'P 1'
_cell_length_a   4.23633392
_cell_length_b   5.36051254
_cell_length_c   5.40351026
_cell_angle_alpha   119.73328759
_cell_angle_beta   113.04118288
_cell_angle_gamma   90.00167996
_symmetry_Int_Tables_number   1
_chemical_formula_structural   Sm2GaNi2
_chemical_formula_sum   'Sm2 Ga1 Ni2'
_cell_volume   95.11411769
_cell_formula_units_Z   1
loop_
 _symmetry_equiv_pos_site_id
 _symmetry_equiv_pos_as_xyz
  1  'x, y, z'
loop_
 _atom_site_type_symbol
 _atom_site_label
 _atom_site_symmetry_multiplicity
 _atom_site_fract_x
 _atom_site_fract_y
 _atom_site_fract_z
 _atom_site_occupancy
  Sm  Sm0  1  0.79878211  0.29879680  0.59760085  1
  Sm  Sm1  1  0.20121779  0.70119639  0.40239942  1
  Ga  Ga0  1  -0.00000005  0.00000134  0.00000005  1
  Ni  Ni0  1  0.49999824  0.26294416  -0.00000365  1
  Ni  Ni1  1  0.50000190  0.73706231  0.00000433  1
loop_
_geom_bond_atom_site_label_1
_geom_bond_atom_site_label_2
_geom_bond_distance
_geom_bond_site_symmetry_2
Ga0 Ni1 2.544238 1_445
Ga0 Ni0 2.544248 1_555
Ga0 Ni1 2.544306 1_545
Ga0 Ni0 2.544316 1_455
Ga0 Sm0 3.166022 1_454
Ga0 Sm1 3.166066 1_545
Ga0 Sm1 3.166196 1_555
Ga0 Sm0 3.166239 1_444
Ga0 Sm1 3.277781 1_544
Ga0 Sm0 3.277781 1_455
Ga0 Sm1 3.280147 1_444
Ga0 Sm0 3.280148 1_555
Ni0 Ni1 2.541495 1_555
Ni0 Ni1 2.819018 1_545
Ni0 Sm0 2.872533 1_555
Ni0 Sm1 2.872652 1_544
Ni0 Sm0 2.989265 1_554
Ni0 Sm1 2.989424 1_555
Ni0 Sm0 2.991249 1_454
Ni0 Sm1 2.991300 1_655
Ni1 Sm1 2.872500 1_554
Ni1 Sm0 2.872617 1_565
Ni1 Sm1 2.989294 1_555
Ni1 Sm0 2.989454 1_554
Ni1 Sm1 2.991278 1_655
Ni1 Sm0 2.991331 1_454
