# generated using pymatgen
data_LiRh3
_symmetry_space_group_name_H-M   'P 1'
_cell_length_a   5.32119532
_cell_length_b   9.28695516
_cell_length_c   10.12020298
_cell_angle_alpha   62.68819991
_cell_angle_beta   74.75781402
_cell_angle_gamma   90.00000000
_symmetry_Int_Tables_number   1
_chemical_formula_structural   LiRh3
_chemical_formula_sum   'Li8 Rh24'
_cell_volume   424.46853499
_cell_formula_units_Z   8
loop_
 _symmetry_equiv_pos_site_id
 _symmetry_equiv_pos_as_xyz
  1  'x, y, z'
loop_
 _atom_site_type_symbol
 _atom_site_label
 _atom_site_symmetry_multiplicity
 _atom_site_fract_x
 _atom_site_fract_y
 _atom_site_fract_z
 _atom_site_occupancy
  Li  Li0_0  1  0.00000000  0.00625417  0.00000000  1
  Li  Li0_1  1  0.00000000  0.00625418  0.50000000  1
  Li  Li0_2  1  0.00000000  0.50625418  0.00000000  1
  Li  Li0_3  1  0.00000000  0.50625418  0.50000000  1
  Li  Li0_4  1  0.50000000  0.00625417  0.00000000  1
  Li  Li0_5  1  0.50000000  0.00625418  0.50000000  1
  Li  Li0_6  1  0.50000000  0.50625418  0.00000000  1
  Li  Li0_7  1  0.50000000  0.50625418  0.50000000  1
  Rh  Rh0_0  1  0.12226666  0.46942938  0.25546668  1
  Rh  Rh0_1  1  0.12226666  0.46942938  0.75546668  1
  Rh  Rh0_2  1  0.12226666  0.96942938  0.25546668  1
  Rh  Rh0_3  1  0.12226666  0.96942938  0.75546668  1
  Rh  Rh0_4  1  0.62226666  0.46942938  0.25546668  1
  Rh  Rh0_5  1  0.62226666  0.46942938  0.75546668  1
  Rh  Rh0_6  1  0.62226666  0.96942938  0.25546668  1
  Rh  Rh0_7  1  0.62226666  0.96942938  0.75546668  1
  Rh  Rh1_0  1  0.37773333  0.22489605  0.24453332  1
  Rh  Rh1_1  1  0.37773334  0.22489605  0.74453333  1
  Rh  Rh1_2  1  0.37773333  0.72489605  0.24453332  1
  Rh  Rh1_3  1  0.37773334  0.72489605  0.74453333  1
  Rh  Rh1_4  1  0.87773334  0.22489605  0.24453332  1
  Rh  Rh1_5  1  0.87773334  0.22489605  0.74453333  1
  Rh  Rh1_6  1  0.87773334  0.72489605  0.24453332  1
  Rh  Rh1_7  1  0.87773334  0.72489605  0.74453333  1
  Rh  Rh2_0  1  0.25000000  0.25092039  0.00000000  1
  Rh  Rh2_1  1  0.25000000  0.25092038  0.50000000  1
  Rh  Rh2_2  1  0.25000000  0.75092039  0.00000000  1
  Rh  Rh2_3  1  0.25000000  0.75092039  0.50000000  1
  Rh  Rh2_4  1  0.75000000  0.25092039  0.00000000  1
  Rh  Rh2_5  1  0.75000000  0.25092038  0.50000000  1
  Rh  Rh2_6  1  0.75000000  0.75092039  0.00000000  1
  Rh  Rh2_7  1  0.75000000  0.75092039  0.50000000  1
loop_
_geom_bond_atom_site_label_1
_geom_bond_atom_site_label_2
_geom_bond_distance
_geom_bond_site_symmetry_2
Li0_0 Rh1_6 2.567994 1_445
Li0_0 Rh0_3 2.567994 1_544
Li0_0 Rh2_0 2.632984 1_555
Li0_0 Rh2_4 2.632984 1_455
Li0_0 Li0_4 2.660598 1_555
Li0_0 Li0_4 2.660598 1_455
Li0_0 Rh1_1 2.701380 1_554
Li0_0 Rh1_5 2.701380 1_454
Li0_0 Rh0_6 2.701380 1_445
Li0_0 Rh0_2 2.701380 1_545
Li0_0 Rh2_2 2.718940 1_545
Li0_0 Rh2_6 2.718940 1_445
Li0_1 Rh1_7 2.567994 1_445
Li0_1 Rh0_2 2.567994 1_545
Li0_1 Rh2_1 2.632984 1_555
Li0_1 Rh2_5 2.632984 1_455
Li0_1 Li0_5 2.660598 1_555
Li0_1 Li0_5 2.660598 1_455
Li0_1 Rh1_0 2.701380 1_555
Li0_1 Rh1_4 2.701380 1_455
Li0_1 Rh0_7 2.701380 1_445
Li0_1 Rh0_3 2.701380 1_545
Li0_1 Rh2_7 2.718940 1_445
Li0_1 Rh2_3 2.718940 1_545
Li0_2 Rh1_4 2.567994 1_455
Li0_2 Rh0_1 2.567994 1_554
Li0_2 Rh2_2 2.632984 1_555
Li0_2 Rh2_6 2.632984 1_455
Li0_2 Li0_6 2.660598 1_455
Li0_2 Li0_6 2.660598 1_555
Li0_2 Rh1_3 2.701380 1_554
Li0_2 Rh1_7 2.701380 1_454
Li0_2 Rh0_4 2.701380 1_455
Li0_2 Rh0_0 2.701380 1_555
Li0_2 Rh2_0 2.718940 1_555
Li0_2 Rh2_4 2.718940 1_455
Li0_3 Rh1_5 2.567994 1_455
Li0_3 Rh0_0 2.567994 1_555
Li0_3 Rh2_3 2.632984 1_555
Li0_3 Rh2_7 2.632984 1_455
Li0_3 Li0_7 2.660598 1_555
Li0_3 Li0_7 2.660598 1_455
Li0_3 Rh1_2 2.701380 1_555
Li0_3 Rh1_6 2.701380 1_455
Li0_3 Rh0_5 2.701380 1_455
Li0_3 Rh0_1 2.701380 1_555
Li0_3 Rh2_1 2.718940 1_555
Li0_3 Rh2_5 2.718940 1_455
Li0_4 Rh1_2 2.567994 1_545
Li0_4 Rh0_7 2.567994 1_544
Li0_4 Rh2_4 2.632984 1_555
Li0_4 Rh2_0 2.632984 1_555
Li0_4 Rh1_5 2.701380 1_554
Li0_4 Rh1_1 2.701380 1_554
Li0_4 Rh0_2 2.701380 1_545
Li0_4 Rh0_6 2.701380 1_545
Li0_4 Rh2_6 2.718940 1_545
Li0_4 Rh2_2 2.718940 1_545
Li0_5 Rh1_3 2.567994 1_545
Li0_5 Rh0_6 2.567994 1_545
Li0_5 Rh2_1 2.632984 1_555
Li0_5 Rh2_5 2.632984 1_555
Li0_5 Rh1_4 2.701380 1_555
Li0_5 Rh1_0 2.701380 1_555
Li0_5 Rh0_3 2.701380 1_545
Li0_5 Rh0_7 2.701380 1_545
Li0_5 Rh2_7 2.718940 1_545
Li0_5 Rh2_3 2.718940 1_545
Li0_6 Rh1_0 2.567994 1_555
Li0_6 Rh0_5 2.567994 1_554
Li0_6 Rh2_2 2.632984 1_555
Li0_6 Rh2_6 2.632984 1_555
Li0_6 Rh1_7 2.701380 1_554
Li0_6 Rh1_3 2.701380 1_554
Li0_6 Rh0_0 2.701380 1_555
Li0_6 Rh0_4 2.701380 1_555
Li0_6 Rh2_0 2.718940 1_555
Li0_6 Rh2_4 2.718940 1_555
Li0_7 Rh1_1 2.567994 1_555
Li0_7 Rh0_4 2.567994 1_555
Li0_7 Rh2_3 2.632984 1_555
Li0_7 Rh2_7 2.632984 1_555
Li0_7 Rh1_6 2.701380 1_555
Li0_7 Rh1_2 2.701380 1_555
Li0_7 Rh0_1 2.701380 1_555
Li0_7 Rh0_5 2.701380 1_555
Li0_7 Rh2_1 2.718940 1_555
Li0_7 Rh2_5 2.718940 1_555
Rh0_0 Rh2_2 2.618013 1_555
Rh0_0 Rh2_1 2.642012 1_555
Rh0_0 Rh2_5 2.642012 1_455
Rh0_0 Rh0_4 2.660598 1_455
Rh0_0 Rh0_4 2.660598 1_555
Rh0_0 Rh1_2 2.677496 1_555
Rh0_0 Rh1_0 2.677496 1_555
Rh0_0 Rh1_6 2.677496 1_455
Rh0_0 Rh1_4 2.677496 1_455
Rh0_1 Rh2_3 2.618013 1_555
Rh0_1 Rh2_0 2.642012 1_556
Rh0_1 Rh2_4 2.642012 1_456
Rh0_1 Rh0_5 2.660598 1_555
Rh0_1 Rh0_5 2.660598 1_455
Rh0_1 Rh1_3 2.677496 1_555
Rh0_1 Rh1_1 2.677496 1_555
Rh0_1 Rh1_7 2.677496 1_455
Rh0_1 Rh1_5 2.677496 1_455
Rh0_2 Rh2_0 2.618013 1_565
Rh0_2 Rh2_3 2.642012 1_555
Rh0_2 Rh2_7 2.642012 1_455
Rh0_2 Rh0_6 2.660598 1_455
Rh0_2 Rh0_6 2.660598 1_555
Rh0_2 Rh1_0 2.677496 1_565
Rh0_2 Rh1_2 2.677496 1_555
Rh0_2 Rh1_4 2.677496 1_465
Rh0_2 Rh1_6 2.677496 1_455
Rh0_3 Rh2_1 2.618013 1_565
Rh0_3 Rh2_2 2.642012 1_556
Rh0_3 Rh2_6 2.642012 1_456
Rh0_3 Rh0_7 2.660598 1_455
Rh0_3 Rh0_7 2.660598 1_555
Rh0_3 Rh1_1 2.677496 1_565
Rh0_3 Rh1_3 2.677496 1_555
Rh0_3 Rh1_5 2.677496 1_465
Rh0_3 Rh1_7 2.677496 1_455
Rh0_4 Rh2_6 2.618013 1_555
Rh0_4 Rh2_5 2.642012 1_555
Rh0_4 Rh2_1 2.642012 1_555
Rh0_4 Rh1_6 2.677496 1_555
Rh0_4 Rh1_4 2.677496 1_555
Rh0_4 Rh1_2 2.677496 1_555
Rh0_4 Rh1_0 2.677496 1_555
Rh0_5 Rh2_7 2.618013 1_555
Rh0_5 Rh2_4 2.642012 1_556
Rh0_5 Rh2_0 2.642012 1_556
Rh0_5 Rh1_7 2.677496 1_555
Rh0_5 Rh1_5 2.677496 1_555
Rh0_5 Rh1_3 2.677496 1_555
Rh0_5 Rh1_1 2.677496 1_555
Rh0_6 Rh2_4 2.618013 1_565
Rh0_6 Rh2_7 2.642012 1_555
Rh0_6 Rh2_3 2.642012 1_555
Rh0_6 Rh1_4 2.677496 1_565
Rh0_6 Rh1_6 2.677496 1_555
Rh0_6 Rh1_0 2.677496 1_565
Rh0_6 Rh1_2 2.677496 1_555
Rh0_7 Rh2_5 2.618013 1_565
Rh0_7 Rh2_6 2.642012 1_556
Rh0_7 Rh2_2 2.642012 1_556
Rh0_7 Rh1_5 2.677496 1_565
Rh0_7 Rh1_7 2.677496 1_555
Rh0_7 Rh1_1 2.677496 1_565
Rh0_7 Rh1_3 2.677496 1_555
Rh1_0 Rh2_1 2.618013 1_555
Rh1_0 Rh2_0 2.642013 1_555
Rh1_0 Rh2_4 2.642013 1_555
Rh1_0 Rh1_4 2.660598 1_455
Rh1_0 Rh1_4 2.660598 1_555
Rh1_1 Rh2_0 2.618013 1_556
Rh1_1 Rh2_1 2.642013 1_555
Rh1_1 Rh2_5 2.642013 1_555
Rh1_1 Rh1_5 2.660598 1_455
Rh1_1 Rh1_5 2.660598 1_555
Rh1_2 Rh2_3 2.618013 1_555
Rh1_2 Rh2_2 2.642013 1_555
Rh1_2 Rh2_6 2.642013 1_555
Rh1_2 Rh1_6 2.660598 1_455
Rh1_2 Rh1_6 2.660598 1_555
Rh1_3 Rh2_2 2.618013 1_556
Rh1_3 Rh2_3 2.642013 1_555
Rh1_3 Rh2_7 2.642013 1_555
Rh1_3 Rh1_7 2.660598 1_455
Rh1_3 Rh1_7 2.660598 1_555
Rh1_4 Rh2_5 2.618013 1_555
Rh1_4 Rh2_4 2.642013 1_555
Rh1_4 Rh2_0 2.642013 1_655
Rh1_5 Rh2_4 2.618013 1_556
Rh1_5 Rh2_5 2.642013 1_555
Rh1_5 Rh2_1 2.642013 1_655
Rh1_6 Rh2_7 2.618013 1_555
Rh1_6 Rh2_6 2.642013 1_555
Rh1_6 Rh2_2 2.642013 1_655
Rh1_7 Rh2_6 2.618013 1_556
Rh1_7 Rh2_7 2.642013 1_555
Rh1_7 Rh2_3 2.642013 1_655
Rh2_0 Rh2_4 2.660598 1_555
Rh2_0 Rh2_4 2.660598 1_455
Rh2_1 Rh2_5 2.660598 1_555
Rh2_1 Rh2_5 2.660598 1_455
Rh2_2 Rh2_6 2.660598 1_455
Rh2_2 Rh2_6 2.660598 1_555
Rh2_3 Rh2_7 2.660598 1_455
Rh2_3 Rh2_7 2.660598 1_555
