# generated using pymatgen
data_Y3Pd4
_symmetry_space_group_name_H-M   'P 1'
_cell_length_a   5.72939065
_cell_length_b   7.86463663
_cell_length_c   7.86463745
_cell_angle_alpha   114.30210492
_cell_angle_beta   104.05383474
_cell_angle_gamma   104.05383624
_symmetry_Int_Tables_number   1
_chemical_formula_structural   Y3Pd4
_chemical_formula_sum   'Y6 Pd8'
_cell_volume   288.80238975
_cell_formula_units_Z   2
loop_
 _symmetry_equiv_pos_site_id
 _symmetry_equiv_pos_as_xyz
  1  'x, y, z'
loop_
 _atom_site_type_symbol
 _atom_site_label
 _atom_site_symmetry_multiplicity
 _atom_site_fract_x
 _atom_site_fract_y
 _atom_site_fract_z
 _atom_site_occupancy
  Y  Y0  1  0.40583676  0.12778420  0.37895256  1
  Y  Y1  1  0.02688520  0.62104744  0.74883164  1
  Y  Y2  1  0.27805256  0.25116836  0.87221580  1
  Y  Y3  1  0.59416324  0.87221580  0.62104744  1
  Y  Y4  1  0.97311480  0.37895256  0.25116836  1
  Y  Y5  1  0.72194744  0.74883164  0.12778420  1
  Pd  Pd0  1  0.00000000  0.00000000  0.00000000  1
  Pd  Pd1  1  0.50000000  0.00000000  0.00000000  1
  Pd  Pd2  1  0.22546027  0.67615741  0.16567126  1
  Pd  Pd3  1  0.05979001  0.83432874  0.51048615  1
  Pd  Pd4  1  0.54930386  0.48951385  0.32384259  1
  Pd  Pd5  1  0.77453973  0.32384259  0.83432874  1
  Pd  Pd6  1  0.94020999  0.16567126  0.48951385  1
  Pd  Pd7  1  0.45069614  0.51048615  0.67615741  1
loop_
_geom_bond_atom_site_label_1
_geom_bond_atom_site_label_2
_geom_bond_distance
_geom_bond_site_symmetry_2
Y0 Y3 3.469117 1_545
Y1 Y4 3.469113 1_455
Y2 Y5 3.469116 1_556
Pd0 Pd1 2.864695 1_455
Pd0 Pd1 2.864695 1_555
Pd0 Y5 2.886705 1_445
Pd0 Y2 2.886705 1_554
Pd0 Y0 2.886705 1_555
Pd0 Y3 2.886705 1_444
Pd0 Y1 2.886708 1_544
Pd0 Y4 2.886708 1_455
Pd1 Y4 2.960112 1_555
Pd1 Y1 2.960112 1_544
Pd1 Y5 2.960115 1_545
Pd1 Y2 2.960115 1_554
Pd1 Y0 2.960116 1_555
Pd1 Y3 2.960116 1_544
Pd2 Y4 2.851390 1_455
Pd2 Y5 2.875630 1_555
Pd2 Pd5 2.907439 1_454
Pd2 Pd3 2.974799 1_555
Pd2 Pd4 2.974806 1_555
Pd2 Y0 2.994823 1_565
Pd2 Y1 3.001503 1_554
Pd2 Y5 3.043214 1_455
Pd2 Y3 3.140802 1_555
Pd2 Y2 3.326617 1_554
Pd3 Y5 2.851391 1_455
Pd3 Y3 2.875624 1_555
Pd3 Pd6 2.907444 1_465
Pd3 Pd4 2.974802 1_455
Pd3 Y1 2.994823 1_555
Pd3 Y2 3.001504 1_565
Pd3 Y3 3.043219 1_455
Pd3 Y4 3.140798 1_455
Pd3 Y0 3.326614 1_565
Pd4 Y3 2.851391 1_555
Pd4 Y4 2.875619 1_555
Pd4 Pd7 2.907444 1_555
Pd4 Y2 2.994824 1_554
Pd4 Y0 3.001504 1_555
Pd4 Y4 3.043225 1_455
Pd4 Y5 3.140800 1_555
Pd4 Y1 3.326617 1_655
Pd5 Y1 2.851390 1_655
Pd5 Y2 2.875630 1_555
Pd5 Pd6 2.974799 1_555
Pd5 Pd7 2.974806 1_555
Pd5 Y3 2.994823 1_545
Pd5 Y4 3.001503 1_556
Pd5 Y2 3.043214 1_655
Pd5 Y0 3.140802 1_555
Pd5 Y5 3.326617 1_556
Pd6 Y2 2.851391 1_655
Pd6 Y0 2.875624 1_555
Pd6 Pd7 2.974802 1_655
Pd6 Y4 2.994823 1_555
Pd6 Y5 3.001504 1_545
Pd6 Y0 3.043219 1_655
Pd6 Y1 3.140798 1_655
Pd6 Y3 3.326614 1_545
Pd7 Y0 2.851391 1_555
Pd7 Y1 2.875619 1_555
Pd7 Y5 2.994824 1_556
Pd7 Y3 3.001504 1_555
Pd7 Y1 3.043225 1_655
Pd7 Y2 3.140800 1_555
Pd7 Y4 3.326617 1_455
