# generated using pymatgen
data_Ta4Ni2N
_symmetry_space_group_name_H-M   'P 1'
_cell_length_a   8.21473383
_cell_length_b   8.21473383
_cell_length_c   8.21473383
_cell_angle_alpha   60.00000000
_cell_angle_beta   60.00000000
_cell_angle_gamma   60.00000000
_symmetry_Int_Tables_number   1
_chemical_formula_structural   Ta4Ni2N
_chemical_formula_sum   'Ta16 Ni8 N4'
_cell_volume   391.98142865
_cell_formula_units_Z   4
loop_
 _symmetry_equiv_pos_site_id
 _symmetry_equiv_pos_as_xyz
  1  'x, y, z'
loop_
 _atom_site_type_symbol
 _atom_site_label
 _atom_site_symmetry_multiplicity
 _atom_site_fract_x
 _atom_site_fract_y
 _atom_site_fract_z
 _atom_site_occupancy
  Ta  Ta0  1  0.12500000  0.62500000  0.62500000  1
  Ta  Ta1  1  0.62500000  0.12500000  0.62500000  1
  Ta  Ta2  1  0.62500000  0.62500000  0.12500000  1
  Ta  Ta3  1  0.62500000  0.62500000  0.62500000  1
  Ta  Ta4  1  0.81577400  0.81577400  0.18422600  1
  Ta  Ta5  1  0.18422600  0.18422600  0.81577400  1
  Ta  Ta6  1  0.81577400  0.18422600  0.81577400  1
  Ta  Ta7  1  0.18422600  0.81577400  0.18422600  1
  Ta  Ta8  1  0.18422600  0.81577400  0.81577400  1
  Ta  Ta9  1  0.81577400  0.18422600  0.18422600  1
  Ta  Ta10  1  0.43422600  0.43422600  0.06577400  1
  Ta  Ta11  1  0.06577400  0.06577400  0.43422600  1
  Ta  Ta12  1  0.43422600  0.06577400  0.43422600  1
  Ta  Ta13  1  0.06577400  0.43422600  0.06577400  1
  Ta  Ta14  1  0.06577400  0.43422600  0.43422600  1
  Ta  Ta15  1  0.43422600  0.06577400  0.06577400  1
  Ni  Ni0  1  0.74274800  0.41908400  0.41908400  1
  Ni  Ni1  1  0.41908400  0.74274800  0.41908400  1
  Ni  Ni2  1  0.41908400  0.41908400  0.74274800  1
  Ni  Ni3  1  0.41908400  0.41908400  0.41908400  1
  Ni  Ni4  1  0.50725200  0.83091600  0.83091600  1
  Ni  Ni5  1  0.83091600  0.50725200  0.83091600  1
  Ni  Ni6  1  0.83091600  0.83091600  0.50725200  1
  Ni  Ni7  1  0.83091600  0.83091600  0.83091600  1
  N  N0  1  0.62500000  0.12500000  0.12500000  1
  N  N1  1  0.12500000  0.62500000  0.12500000  1
  N  N2  1  0.12500000  0.12500000  0.62500000  1
  N  N3  1  0.12500000  0.12500000  0.12500000  1
loop_
_geom_bond_atom_site_label_1
_geom_bond_atom_site_label_2
_geom_bond_distance
_geom_bond_site_symmetry_2
Ni0 Ta2 2.499445 1_555
Ni0 Ta1 2.499445 1_555
Ni0 Ta3 2.499445 1_555
Ni0 Ni2 2.658814 1_555
Ni0 Ni3 2.658814 1_555
Ni0 Ni1 2.658814 1_555
Ni0 Ta13 2.783524 1_655
Ni0 Ta11 2.783524 1_655
Ni0 Ta14 2.783524 1_655
Ni0 Ta4 3.035076 1_555
Ni0 Ta6 3.035076 1_555
Ni0 Ta9 3.035076 1_555
Ni1 Ta2 2.499445 1_555
Ni1 Ta3 2.499445 1_555
Ni1 Ta0 2.499445 1_555
Ni1 Ni2 2.658814 1_555
Ni1 Ni3 2.658814 1_555
Ni1 Ta12 2.783524 1_565
Ni1 Ta15 2.783524 1_565
Ni1 Ta11 2.783524 1_565
Ni1 Ta4 3.035076 1_555
Ni1 Ta7 3.035076 1_555
Ni1 Ta8 3.035076 1_555
Ni2 Ta3 2.499445 1_555
Ni2 Ta0 2.499445 1_555
Ni2 Ta1 2.499445 1_555
Ni2 Ni3 2.658814 1_555
Ni2 Ta13 2.783524 1_556
Ni2 Ta10 2.783524 1_556
Ni2 Ta15 2.783524 1_556
Ni2 Ta8 3.035076 1_555
Ni2 Ta6 3.035076 1_555
Ni2 Ta5 3.035076 1_555
Ni3 Ta2 2.499445 1_555
Ni3 Ta0 2.499445 1_555
Ni3 Ta1 2.499445 1_555
Ni3 Ta10 2.783524 1_555
Ni3 Ta14 2.783524 1_555
Ni3 Ta12 2.783524 1_555
Ni3 Ta9 3.035076 1_555
Ni3 Ta7 3.035076 1_555
Ni3 Ta5 3.035076 1_555
Ni4 Ta2 2.499445 1_556
Ni4 Ta1 2.499445 1_565
Ni4 Ta3 2.499445 1_555
Ni4 Ni6 2.658814 1_555
Ni4 Ni5 2.658814 1_555
Ni4 Ni7 2.658814 1_555
Ni4 Ta5 2.783524 1_565
Ni4 Ta7 2.783524 1_556
Ni4 Ta8 2.783524 1_555
Ni4 Ta10 3.035076 1_556
Ni4 Ta12 3.035076 1_565
Ni4 Ta15 3.035076 1_566
Ni5 Ta0 2.499445 1_655
Ni5 Ta2 2.499445 1_556
Ni5 Ta3 2.499445 1_555
Ni5 Ni6 2.658814 1_555
Ni5 Ni7 2.658814 1_555
Ni5 Ta5 2.783524 1_655
Ni5 Ta6 2.783524 1_555
Ni5 Ta9 2.783524 1_556
Ni5 Ta10 3.035076 1_556
Ni5 Ta13 3.035076 1_656
Ni5 Ta14 3.035076 1_655
Ni6 Ta0 2.499445 1_655
Ni6 Ta1 2.499445 1_565
Ni6 Ta3 2.499445 1_555
Ni6 Ni7 2.658814 1_555
Ni6 Ta4 2.783524 1_555
Ni6 Ta7 2.783524 1_655
Ni6 Ta9 2.783524 1_565
Ni6 Ta14 3.035076 1_655
Ni6 Ta12 3.035076 1_565
Ni6 Ta11 3.035076 1_665
Ni7 Ta0 2.499445 1_655
Ni7 Ta2 2.499445 1_556
Ni7 Ta1 2.499445 1_565
Ni7 Ta6 2.783524 1_565
Ni7 Ta4 2.783524 1_556
Ni7 Ta8 2.783524 1_655
Ni7 Ta15 3.035076 1_566
Ni7 Ta13 3.035076 1_656
Ni7 Ta11 3.035076 1_665
N0 Ta6 2.165879 1_554
N0 Ta9 2.165879 1_555
N0 Ta12 2.165879 1_555
N0 Ta15 2.165879 1_555
N0 Ta4 2.165879 1_545
N0 Ta10 2.165879 1_555
N1 Ta14 2.165879 1_555
N1 Ta8 2.165879 1_554
N1 Ta7 2.165879 1_555
N1 Ta4 2.165879 1_455
N1 Ta13 2.165879 1_555
N1 Ta10 2.165879 1_555
N2 Ta14 2.165879 1_555
N2 Ta8 2.165879 1_545
N2 Ta11 2.165879 1_555
N2 Ta5 2.165879 1_555
N2 Ta12 2.165879 1_555
N2 Ta6 2.165879 1_455
N3 Ta9 2.165879 1_455
N3 Ta11 2.165879 1_555
N3 Ta5 2.165879 1_554
N3 Ta15 2.165879 1_555
N3 Ta7 2.165879 1_545
N3 Ta13 2.165879 1_555
