# generated using pymatgen
data_Ce2Ta2O9
_symmetry_space_group_name_H-M   'P 1'
_cell_length_a   3.86411300
_cell_length_b   6.53846400
_cell_length_c   15.63698160
_cell_angle_alpha   65.75970542
_cell_angle_beta   90.00000000
_cell_angle_gamma   90.00000000
_symmetry_Int_Tables_number   1
_chemical_formula_structural   Ce2Ta2O9
_chemical_formula_sum   'Ce4 Ta4 O18'
_cell_volume   360.24098426
_cell_formula_units_Z   2
loop_
 _symmetry_equiv_pos_site_id
 _symmetry_equiv_pos_as_xyz
  1  'x, y, z'
loop_
 _atom_site_type_symbol
 _atom_site_label
 _atom_site_symmetry_multiplicity
 _atom_site_fract_x
 _atom_site_fract_y
 _atom_site_fract_z
 _atom_site_occupancy
  Ce  Ce0  1  0.00812100  0.30210500  0.71556900  1
  Ce  Ce1  1  0.99187900  0.69789500  0.28443100  1
  Ce  Ce2  1  0.50812100  0.69789500  0.78443100  1
  Ce  Ce3  1  0.49187900  0.30210500  0.21556900  1
  Ta  Ta0  1  0.00404900  0.76305500  0.95904800  1
  Ta  Ta1  1  0.99595100  0.23694500  0.04095200  1
  Ta  Ta2  1  0.50404900  0.23694500  0.54095200  1
  Ta  Ta3  1  0.49595100  0.76305500  0.45904800  1
  O  O0  1  0.99763100  0.48984100  0.91627300  1
  O  O1  1  0.00236900  0.51015900  0.08372700  1
  O  O2  1  0.49763100  0.51015900  0.58372700  1
  O  O3  1  0.50236900  0.48984100  0.41627300  1
  O  O4  1  0.50474500  0.34812600  0.78239300  1
  O  O5  1  0.49525500  0.65187400  0.21760700  1
  O  O6  1  0.00474500  0.65187400  0.71760700  1
  O  O7  1  0.99525500  0.34812600  0.28239300  1
  O  O8  1  0.00000000  0.00000000  0.00000000  1
  O  O9  1  0.50000000  0.00000000  0.50000000  1
  O  O10  1  0.50147800  0.74797000  0.94218600  1
  O  O11  1  0.49852200  0.25203000  0.05781400  1
  O  O12  1  0.00147800  0.25203000  0.55781400  1
  O  O13  1  0.99852200  0.74797000  0.44218600  1
  O  O14  1  0.00170600  0.93740400  0.81912600  1
  O  O15  1  0.99829400  0.06259600  0.18087400  1
  O  O16  1  0.50170600  0.06259600  0.68087400  1
  O  O17  1  0.49829400  0.93740400  0.31912600  1
loop_
_geom_bond_atom_site_label_1
_geom_bond_atom_site_label_2
_geom_bond_distance
_geom_bond_site_symmetry_2
Ce0 O4 2.263449 1_555
Ce0 O14 2.266791 1_545
Ce0 O4 2.285611 1_455
Ce0 O6 2.300256 1_555
Ce0 O12 2.618438 1_555
Ce0 O16 2.661215 1_555
Ce0 O16 2.696967 1_455
Ce0 O2 2.715840 1_555
Ce0 O2 2.772913 1_455
Ce1 O5 2.263449 1_555
Ce1 O15 2.266791 1_565
Ce1 O5 2.285611 1_655
Ce1 O7 2.300256 1_555
Ce1 O13 2.618438 1_555
Ce1 O17 2.661215 1_555
Ce1 O17 2.696967 1_655
Ce1 O3 2.715840 1_555
Ce1 O3 2.772913 1_655
Ce2 O6 2.263449 1_655
Ce2 O16 2.266791 1_565
Ce2 O6 2.285611 1_555
Ce2 O4 2.300256 1_555
Ce2 O10 2.618438 1_555
Ce2 O14 2.661215 1_655
Ce2 O14 2.696967 1_555
Ce2 O0 2.715840 1_555
Ce2 O0 2.772913 1_455
Ce3 O7 2.263449 1_455
Ce3 O17 2.266791 1_545
Ce3 O7 2.285611 1_555
Ce3 O5 2.300256 1_555
Ce3 O11 2.618438 1_555
Ce3 O15 2.661215 1_455
Ce3 O15 2.696967 1_555
Ce3 O1 2.715840 1_555
Ce3 O1 2.772913 1_655
O0 Ta1 1.971826 1_556
O0 Ta0 2.149505 1_655
O1 Ta0 1.971826 1_554
O1 Ta1 2.149505 1_455
O2 Ta3 1.971826 1_555
O2 Ta2 2.149505 1_555
O3 Ta2 1.971826 1_555
O3 Ta3 2.149505 1_555
O8 Ta1 1.903981 1_455
O8 Ta0 1.903981 1_544
O9 Ta2 1.903981 1_555
O9 Ta3 1.903981 1_545
O10 Ta0 1.948117 1_555
O10 Ta0 1.967723 1_655
O11 Ta1 1.948117 1_555
O11 Ta1 1.967723 1_455
O12 Ta2 1.948117 1_455
O12 Ta2 1.967723 1_555
O13 Ta3 1.948117 1_655
O13 Ta3 1.967723 1_555
O14 Ta0 2.009654 1_555
O15 Ta1 2.009654 1_555
O16 Ta2 2.009654 1_555
O17 Ta3 2.009654 1_555
