# generated using pymatgen
data_Pd4W
_symmetry_space_group_name_H-M   'P 1'
_cell_length_a   5.54866507
_cell_length_b   5.54866507
_cell_length_c   22.86477887
_cell_angle_alpha   90.00000000
_cell_angle_beta   96.96923917
_cell_angle_gamma   120.00000000
_symmetry_Int_Tables_number   1
_chemical_formula_structural   Pd4W
_chemical_formula_sum   'Pd32 W8'
_cell_volume   603.62838730
_cell_formula_units_Z   8
loop_
 _symmetry_equiv_pos_site_id
 _symmetry_equiv_pos_as_xyz
  1  'x, y, z'
loop_
 _atom_site_type_symbol
 _atom_site_label
 _atom_site_symmetry_multiplicity
 _atom_site_fract_x
 _atom_site_fract_y
 _atom_site_fract_z
 _atom_site_occupancy
  Pd  Pd0_0  1  0.39852649  0.19926275  0.09778975  1
  Pd  Pd0_1  1  0.39852649  0.19926275  0.59778975  1
  Pd  Pd0_2  1  0.39852649  0.69926275  0.09778975  1
  Pd  Pd0_3  1  0.39852649  0.69926275  0.59778975  1
  Pd  Pd0_4  1  0.89852649  0.19926275  0.09778975  1
  Pd  Pd0_5  1  0.89852649  0.19926275  0.59778975  1
  Pd  Pd0_6  1  0.89852649  0.69926275  0.09778975  1
  Pd  Pd0_7  1  0.89852649  0.69926275  0.59778975  1
  Pd  Pd1_0  1  0.29954009  0.39977030  0.19931090  1
  Pd  Pd1_1  1  0.29954009  0.39977030  0.69931089  1
  Pd  Pd1_2  1  0.29954009  0.89977030  0.19931090  1
  Pd  Pd1_3  1  0.29954009  0.89977030  0.69931090  1
  Pd  Pd1_4  1  0.79954009  0.39977030  0.19931090  1
  Pd  Pd1_5  1  0.79954009  0.39977030  0.69931089  1
  Pd  Pd1_6  1  0.79954009  0.89977030  0.19931090  1
  Pd  Pd1_7  1  0.79954009  0.89977030  0.69931089  1
  Pd  Pd2_0  1  0.20045990  0.10022970  0.30068911  1
  Pd  Pd2_1  1  0.20045990  0.10022970  0.80068911  1
  Pd  Pd2_2  1  0.20045990  0.60022970  0.30068911  1
  Pd  Pd2_3  1  0.20045990  0.60022970  0.80068911  1
  Pd  Pd2_4  1  0.70045990  0.10022970  0.30068911  1
  Pd  Pd2_5  1  0.70045990  0.10022970  0.80068911  1
  Pd  Pd2_6  1  0.70045990  0.60022970  0.30068911  1
  Pd  Pd2_7  1  0.70045990  0.60022970  0.80068911  1
  Pd  Pd3_0  1  0.10147350  0.30073725  0.40221026  1
  Pd  Pd3_1  1  0.10147350  0.30073725  0.90221026  1
  Pd  Pd3_2  1  0.10147350  0.80073725  0.40221026  1
  Pd  Pd3_3  1  0.10147350  0.80073725  0.90221026  1
  Pd  Pd3_4  1  0.60147350  0.30073725  0.40221026  1
  Pd  Pd3_5  1  0.60147350  0.30073725  0.90221026  1
  Pd  Pd3_6  1  0.60147350  0.80073725  0.40221026  1
  Pd  Pd3_7  1  0.60147350  0.80073725  0.90221026  1
  W  W0_0  1  0.00000000  0.00000000  0.00000000  1
  W  W0_1  1  1.00000000  0.00000000  0.50000000  1
  W  W0_2  1  0.00000000  0.50000000  0.00000000  1
  W  W0_3  1  1.00000000  0.50000000  0.50000000  1
  W  W0_4  1  0.50000000  0.00000000  0.00000000  1
  W  W0_5  1  0.50000000  0.00000000  0.50000000  1
  W  W0_6  1  0.50000000  0.50000000  0.00000000  1
  W  W0_7  1  0.50000000  0.50000000  0.50000000  1
loop_
_geom_bond_atom_site_label_1
_geom_bond_atom_site_label_2
_geom_bond_distance
_geom_bond_site_symmetry_2
Pd0_0 W0_4 2.732567 1_555
Pd0_0 W0_0 2.732569 1_555
Pd0_0 W0_6 2.732570 1_555
Pd0_0 Pd0_2 2.774333 1_545
Pd0_0 Pd0_4 2.774333 1_555
Pd0_0 Pd0_6 2.774333 1_445
Pd0_0 Pd0_4 2.774333 1_455
Pd0_0 Pd0_2 2.774333 1_555
Pd0_0 Pd0_6 2.774333 1_555
Pd0_0 Pd1_2 2.801447 1_545
Pd0_0 Pd1_4 2.801447 1_555
Pd0_0 Pd1_0 2.801451 1_555
Pd0_1 W0_5 2.732567 1_555
Pd0_1 W0_1 2.732569 1_455
Pd0_1 W0_7 2.732570 1_555
Pd0_1 Pd0_7 2.774333 1_555
Pd0_1 Pd0_3 2.774333 1_555
Pd0_1 Pd0_5 2.774333 1_555
Pd0_1 Pd0_3 2.774333 1_545
Pd0_1 Pd0_5 2.774333 1_455
Pd0_1 Pd0_7 2.774333 1_445
Pd0_1 Pd1_3 2.801447 1_545
Pd0_1 Pd1_5 2.801447 1_555
Pd0_1 Pd1_1 2.801451 1_555
Pd0_2 W0_6 2.732567 1_555
Pd0_2 W0_2 2.732569 1_555
Pd0_2 W0_4 2.732570 1_565
Pd0_2 Pd0_4 2.774333 1_565
Pd0_2 Pd0_6 2.774333 1_455
Pd0_2 Pd0_6 2.774333 1_555
Pd0_2 Pd0_4 2.774333 1_455
Pd0_2 Pd1_0 2.801447 1_555
Pd0_2 Pd1_6 2.801447 1_555
Pd0_2 Pd1_2 2.801451 1_555
Pd0_3 W0_7 2.732567 1_555
Pd0_3 W0_3 2.732569 1_455
Pd0_3 W0_5 2.732570 1_565
Pd0_3 Pd0_7 2.774333 1_555
Pd0_3 Pd0_5 2.774333 1_455
Pd0_3 Pd0_7 2.774333 1_455
Pd0_3 Pd0_5 2.774333 1_565
Pd0_3 Pd1_1 2.801447 1_555
Pd0_3 Pd1_7 2.801447 1_555
Pd0_3 Pd1_3 2.801451 1_555
Pd0_4 W0_0 2.732567 1_655
Pd0_4 W0_4 2.732569 1_555
Pd0_4 W0_2 2.732570 1_655
Pd0_4 Pd0_6 2.774333 1_545
Pd0_4 Pd0_6 2.774333 1_555
Pd0_4 Pd1_6 2.801447 1_545
Pd0_4 Pd1_0 2.801447 1_655
Pd0_4 Pd1_4 2.801451 1_555
Pd0_5 W0_1 2.732567 1_555
Pd0_5 W0_5 2.732569 1_555
Pd0_5 W0_3 2.732570 1_555
Pd0_5 Pd0_7 2.774333 1_545
Pd0_5 Pd0_7 2.774333 1_555
Pd0_5 Pd1_7 2.801447 1_545
Pd0_5 Pd1_1 2.801447 1_655
Pd0_5 Pd1_5 2.801451 1_555
Pd0_6 W0_2 2.732567 1_655
Pd0_6 W0_6 2.732569 1_555
Pd0_6 W0_0 2.732570 1_665
Pd0_6 Pd1_4 2.801447 1_555
Pd0_6 Pd1_2 2.801447 1_655
Pd0_6 Pd1_6 2.801451 1_555
Pd0_7 W0_3 2.732567 1_555
Pd0_7 W0_7 2.732569 1_555
Pd0_7 W0_1 2.732570 1_565
Pd0_7 Pd1_5 2.801447 1_555
Pd0_7 Pd1_3 2.801447 1_655
Pd0_7 Pd1_7 2.801451 1_555
Pd1_0 Pd1_6 2.774333 1_555
Pd1_0 Pd1_4 2.774333 1_455
Pd1_0 Pd1_4 2.774333 1_555
Pd1_0 Pd1_2 2.774333 1_555
Pd1_0 Pd1_2 2.774333 1_545
Pd1_0 Pd1_6 2.774333 1_445
Pd1_0 Pd2_2 2.798791 1_555
Pd1_0 Pd2_0 2.798794 1_555
Pd1_0 Pd2_6 2.798796 1_555
Pd1_1 Pd1_3 2.774333 1_545
Pd1_1 Pd1_7 2.774333 1_445
Pd1_1 Pd1_5 2.774333 1_555
Pd1_1 Pd1_5 2.774333 1_455
Pd1_1 Pd1_7 2.774333 1_555
Pd1_1 Pd1_3 2.774333 1_555
Pd1_1 Pd2_3 2.798791 1_555
Pd1_1 Pd2_1 2.798794 1_555
Pd1_1 Pd2_7 2.798796 1_555
Pd1_2 Pd1_6 2.774333 1_555
Pd1_2 Pd1_4 2.774333 1_455
Pd1_2 Pd1_6 2.774333 1_455
Pd1_2 Pd1_4 2.774333 1_565
Pd1_2 Pd2_0 2.798791 1_565
Pd1_2 Pd2_2 2.798794 1_555
Pd1_2 Pd2_4 2.798796 1_565
Pd1_3 Pd1_5 2.774333 1_565
Pd1_3 Pd1_7 2.774333 1_455
Pd1_3 Pd1_7 2.774333 1_555
Pd1_3 Pd1_5 2.774333 1_455
Pd1_3 Pd2_1 2.798791 1_565
Pd1_3 Pd2_3 2.798794 1_555
Pd1_3 Pd2_5 2.798796 1_565
Pd1_4 Pd1_6 2.774333 1_555
Pd1_4 Pd1_6 2.774333 1_545
Pd1_4 Pd2_6 2.798791 1_555
Pd1_4 Pd2_4 2.798794 1_555
Pd1_4 Pd2_2 2.798796 1_655
Pd1_5 Pd1_7 2.774333 1_545
Pd1_5 Pd1_7 2.774333 1_555
Pd1_5 Pd2_7 2.798791 1_555
Pd1_5 Pd2_5 2.798794 1_555
Pd1_5 Pd2_3 2.798796 1_655
Pd1_6 Pd2_4 2.798791 1_565
Pd1_6 Pd2_6 2.798794 1_555
Pd1_6 Pd2_0 2.798796 1_665
Pd1_7 Pd2_5 2.798791 1_565
Pd1_7 Pd2_7 2.798794 1_555
Pd1_7 Pd2_1 2.798796 1_665
Pd2_0 Pd2_2 2.774333 1_545
Pd2_0 Pd2_6 2.774333 1_445
Pd2_0 Pd2_4 2.774333 1_455
Pd2_0 Pd2_4 2.774333 1_555
Pd2_0 Pd2_6 2.774333 1_555
Pd2_0 Pd2_2 2.774333 1_555
Pd2_0 Pd3_2 2.801447 1_545
Pd2_0 Pd3_4 2.801447 1_555
Pd2_0 Pd3_0 2.801451 1_555
Pd2_1 Pd2_3 2.774333 1_555
Pd2_1 Pd2_7 2.774333 1_555
Pd2_1 Pd2_3 2.774333 1_545
Pd2_1 Pd2_5 2.774333 1_455
Pd2_1 Pd2_7 2.774333 1_445
Pd2_1 Pd2_5 2.774333 1_555
Pd2_1 Pd3_3 2.801447 1_545
Pd2_1 Pd3_5 2.801447 1_555
Pd2_1 Pd3_1 2.801451 1_555
Pd2_2 Pd2_4 2.774333 1_565
Pd2_2 Pd2_6 2.774333 1_455
Pd2_2 Pd2_6 2.774333 1_555
Pd2_2 Pd2_4 2.774333 1_455
Pd2_2 Pd3_0 2.801447 1_555
Pd2_2 Pd3_6 2.801447 1_555
Pd2_2 Pd3_2 2.801451 1_555
Pd2_3 Pd2_7 2.774333 1_455
Pd2_3 Pd2_5 2.774333 1_455
Pd2_3 Pd2_7 2.774333 1_555
Pd2_3 Pd2_5 2.774333 1_565
Pd2_3 Pd3_1 2.801447 1_555
Pd2_3 Pd3_7 2.801447 1_555
Pd2_3 Pd3_3 2.801451 1_555
Pd2_4 Pd2_6 2.774333 1_555
Pd2_4 Pd2_6 2.774333 1_545
Pd2_4 Pd3_6 2.801447 1_545
Pd2_4 Pd3_0 2.801447 1_655
Pd2_4 Pd3_4 2.801451 1_555
Pd2_5 Pd2_7 2.774333 1_555
Pd2_5 Pd2_7 2.774333 1_545
Pd2_5 Pd3_7 2.801447 1_545
Pd2_5 Pd3_1 2.801447 1_655
Pd2_5 Pd3_5 2.801451 1_555
Pd2_6 Pd3_4 2.801447 1_555
Pd2_6 Pd3_2 2.801447 1_655
Pd2_6 Pd3_6 2.801451 1_555
Pd2_7 Pd3_5 2.801447 1_555
Pd2_7 Pd3_3 2.801447 1_655
Pd2_7 Pd3_7 2.801451 1_555
Pd3_0 W0_3 2.732567 1_455
Pd3_0 W0_7 2.732569 1_555
Pd3_0 W0_1 2.732570 1_455
Pd3_0 Pd3_6 2.774333 1_555
Pd3_0 Pd3_4 2.774333 1_455
Pd3_0 Pd3_2 2.774333 1_545
Pd3_0 Pd3_2 2.774333 1_555
Pd3_0 Pd3_4 2.774333 1_555
Pd3_0 Pd3_6 2.774333 1_445
Pd3_1 W0_2 2.732567 1_556
Pd3_1 W0_6 2.732569 1_556
Pd3_1 W0_0 2.732570 1_556
Pd3_1 Pd3_3 2.774333 1_555
Pd3_1 Pd3_5 2.774333 1_455
Pd3_1 Pd3_7 2.774333 1_555
Pd3_1 Pd3_5 2.774333 1_555
Pd3_1 Pd3_7 2.774333 1_445
Pd3_1 Pd3_3 2.774333 1_545
Pd3_2 W0_1 2.732567 1_465
Pd3_2 W0_5 2.732569 1_565
Pd3_2 W0_3 2.732570 1_455
Pd3_2 Pd3_6 2.774333 1_555
Pd3_2 Pd3_4 2.774333 1_565
Pd3_2 Pd3_6 2.774333 1_455
Pd3_2 Pd3_4 2.774333 1_455
Pd3_3 W0_0 2.732567 1_566
Pd3_3 W0_4 2.732569 1_566
Pd3_3 W0_2 2.732570 1_556
Pd3_3 Pd3_7 2.774333 1_555
Pd3_3 Pd3_5 2.774333 1_565
Pd3_3 Pd3_5 2.774333 1_455
Pd3_3 Pd3_7 2.774333 1_455
Pd3_4 W0_7 2.732567 1_555
Pd3_4 W0_3 2.732569 1_555
Pd3_4 W0_5 2.732570 1_555
Pd3_4 Pd3_6 2.774333 1_555
Pd3_4 Pd3_6 2.774333 1_545
Pd3_5 W0_6 2.732567 1_556
Pd3_5 W0_2 2.732569 1_656
Pd3_5 W0_4 2.732570 1_556
Pd3_5 Pd3_7 2.774333 1_545
Pd3_5 Pd3_7 2.774333 1_555
Pd3_6 W0_5 2.732567 1_565
Pd3_6 W0_1 2.732569 1_565
Pd3_6 W0_7 2.732570 1_555
Pd3_7 W0_4 2.732567 1_566
Pd3_7 W0_0 2.732569 1_666
Pd3_7 W0_6 2.732570 1_556
W0_0 W0_4 2.774333 1_555
W0_0 W0_6 2.774333 1_555
W0_0 W0_2 2.774333 1_555
W0_0 W0_6 2.774333 1_445
W0_0 W0_2 2.774333 1_545
W0_0 W0_4 2.774333 1_455
W0_1 W0_7 2.774333 1_655
W0_1 W0_5 2.774333 1_655
W0_1 W0_3 2.774333 1_555
W0_1 W0_5 2.774333 1_555
W0_1 W0_7 2.774333 1_545
W0_1 W0_3 2.774333 1_545
W0_2 W0_4 2.774333 1_565
W0_2 W0_6 2.774333 1_555
W0_2 W0_6 2.774333 1_455
W0_2 W0_4 2.774333 1_455
W0_3 W0_7 2.774333 1_655
W0_3 W0_5 2.774333 1_555
W0_3 W0_5 2.774333 1_665
W0_3 W0_7 2.774333 1_555
W0_4 W0_6 2.774333 1_555
W0_4 W0_6 2.774333 1_545
W0_5 W0_7 2.774333 1_555
W0_5 W0_7 2.774333 1_545
