# generated using pymatgen
data_K2Mn(SO6)2
_symmetry_space_group_name_H-M   'P 1'
_cell_length_a   7.68847582
_cell_length_b   7.68847582
_cell_length_c   10.06339726
_cell_angle_alpha   86.31539620
_cell_angle_beta   86.31539620
_cell_angle_gamma   83.60170382
_symmetry_Int_Tables_number   1
_chemical_formula_structural   K2Mn(SO6)2
_chemical_formula_sum   'K4 Mn2 S4 O24'
_cell_volume   588.96809340
_cell_formula_units_Z   2
loop_
 _symmetry_equiv_pos_site_id
 _symmetry_equiv_pos_as_xyz
  1  'x, y, z'
loop_
 _atom_site_type_symbol
 _atom_site_label
 _atom_site_symmetry_multiplicity
 _atom_site_fract_x
 _atom_site_fract_y
 _atom_site_fract_z
 _atom_site_occupancy
  K  K0  1  0.90413400  0.41318600  0.75876200  1
  K  K1  1  0.41318600  0.90413400  0.75876200  1
  K  K2  1  0.09586600  0.58681400  0.24123800  1
  K  K3  1  0.58681400  0.09586600  0.24123800  1
  Mn  Mn0  1  0.00000000  0.00000000  0.00000000  1
  Mn  Mn1  1  0.50000000  0.50000000  0.50000000  1
  S  S0  1  0.29752400  0.29752400  0.95670400  1
  S  S1  1  0.70247600  0.70247600  0.04329600  1
  S  S2  1  0.78316900  0.78316900  0.52377100  1
  S  S3  1  0.21683100  0.21683100  0.47622900  1
  O  O0  1  0.21901800  0.45908200  0.88877000  1
  O  O1  1  0.45908200  0.21901800  0.88877000  1
  O  O2  1  0.78098200  0.54091800  0.11123000  1
  O  O3  1  0.54091800  0.78098200  0.11123000  1
  O  O4  1  0.95198000  0.71463700  0.57846100  1
  O  O5  1  0.71463700  0.95198000  0.57846100  1
  O  O6  1  0.04802000  0.28536300  0.42153900  1
  O  O7  1  0.28536300  0.04802000  0.42153900  1
  O  O8  1  0.16130500  0.16130500  0.94372300  1
  O  O9  1  0.83869500  0.83869500  0.05627700  1
  O  O10  1  0.68721900  0.68721900  0.90002000  1
  O  O11  1  0.31278100  0.31278100  0.09998000  1
  O  O12  1  0.65192000  0.65192000  0.57961600  1
  O  O13  1  0.34808000  0.34808000  0.42038400  1
  O  O14  1  0.20698800  0.20698800  0.62258700  1
  O  O15  1  0.79301200  0.79301200  0.37741300  1
  O  O16  1  0.32646200  0.61848800  0.60432100  1
  O  O17  1  0.61848800  0.32646200  0.60432100  1
  O  O18  1  0.67353800  0.38151200  0.39567900  1
  O  O19  1  0.38151200  0.67353800  0.39567900  1
  O  O20  1  0.81754900  0.18245100  0.00000000  1
  O  O21  1  0.18245100  0.81754900  0.00000000  1
  O  O22  1  0.98293800  0.98293800  0.81600300  1
  O  O23  1  0.01706200  0.01706200  0.18399700  1
loop_
_geom_bond_atom_site_label_1
_geom_bond_atom_site_label_2
_geom_bond_distance
_geom_bond_site_symmetry_2
K0 O0 2.890364 1_655
K0 O4 2.891882 1_555
K0 O10 2.922027 1_555
K0 O17 2.929441 1_555
K0 O14 2.976489 1_655
K0 O20 2.997633 1_556
K0 O12 3.100033 1_555
K0 O8 3.206361 1_655
K0 O22 3.315826 1_545
K1 O1 2.890364 1_565
K1 O5 2.891882 1_555
K1 O10 2.922027 1_555
K1 O16 2.929441 1_555
K1 O14 2.976489 1_565
K1 O21 2.997633 1_556
K1 O12 3.100033 1_555
K1 O8 3.206361 1_565
K1 O22 3.315826 1_455
K2 O2 2.890364 1_455
K2 O6 2.891882 1_555
K2 O11 2.922027 1_555
K2 O19 2.929441 1_555
K2 O15 2.976489 1_455
K2 O21 2.997633 1_555
K2 O13 3.100033 1_555
K2 O9 3.206361 1_455
K2 O23 3.315826 1_565
K3 O3 2.890364 1_545
K3 O7 2.891882 1_555
K3 O11 2.922027 1_555
K3 O18 2.929441 1_555
K3 O15 2.976489 1_545
K3 O20 2.997633 1_555
K3 O13 3.100033 1_555
K3 O9 3.206361 1_545
K3 O23 3.315826 1_655
Mn0 O20 1.870015 1_455
Mn0 O21 1.870015 1_545
Mn0 O23 1.878628 1_555
Mn0 O22 1.878628 1_444
Mn0 O8 1.886567 1_554
Mn0 O9 1.886567 1_445
Mn1 O16 1.839626 1_555
Mn1 O17 1.839626 1_555
Mn1 O19 1.839626 1_555
Mn1 O18 1.839626 1_555
Mn1 O13 1.978680 1_555
Mn1 O12 1.978680 1_555
O0 S0 1.466760 1_555
O1 S0 1.466760 1_555
O2 S1 1.466760 1_555
O3 S1 1.466760 1_555
O4 S2 1.472140 1_555
O5 S2 1.472140 1_555
O6 S3 1.472140 1_555
O7 S3 1.472140 1_555
O8 S0 1.578115 1_555
O9 S1 1.578115 1_555
O10 S1 1.467302 1_556
O11 S0 1.467302 1_554
O12 S2 1.559998 1_555
O13 S3 1.559998 1_555
O14 S3 1.467444 1_555
O15 S2 1.467444 1_555
