# generated using pymatgen
data_Cd3(GaN2)2
_symmetry_space_group_name_H-M   'P 1'
_cell_length_a   5.75572800
_cell_length_b   10.87635900
_cell_length_c   8.84619200
_cell_angle_alpha   90.00000000
_cell_angle_beta   90.00000000
_cell_angle_gamma   90.00000000
_symmetry_Int_Tables_number   1
_chemical_formula_structural   Cd3(GaN2)2
_chemical_formula_sum   'Cd12 Ga8 N16'
_cell_volume   553.78368571
_cell_formula_units_Z   4
loop_
 _symmetry_equiv_pos_site_id
 _symmetry_equiv_pos_as_xyz
  1  'x, y, z'
loop_
 _atom_site_type_symbol
 _atom_site_label
 _atom_site_symmetry_multiplicity
 _atom_site_fract_x
 _atom_site_fract_y
 _atom_site_fract_z
 _atom_site_occupancy
  Cd  Cd0  1  0.72038000  0.15394700  0.37987100  1
  Cd  Cd1  1  0.77962000  0.84605300  0.37987100  1
  Cd  Cd2  1  0.72038000  0.34605300  0.12012900  1
  Cd  Cd3  1  0.77962000  0.65394700  0.12012900  1
  Cd  Cd4  1  0.27962000  0.84605300  0.62012900  1
  Cd  Cd5  1  0.22038000  0.15394700  0.62012900  1
  Cd  Cd6  1  0.27962000  0.65394700  0.87987100  1
  Cd  Cd7  1  0.22038000  0.34605300  0.87987100  1
  Cd  Cd8  1  0.75000000  0.50000000  0.44958700  1
  Cd  Cd9  1  0.75000000  0.00000000  0.05041300  1
  Cd  Cd10  1  0.25000000  0.50000000  0.55041300  1
  Cd  Cd11  1  0.25000000  0.00000000  0.94958700  1
  Ga  Ga0  1  0.75000000  0.50000000  0.79288200  1
  Ga  Ga1  1  0.75000000  0.00000000  0.70711800  1
  Ga  Ga2  1  0.25000000  0.50000000  0.20711800  1
  Ga  Ga3  1  0.25000000  0.00000000  0.29288200  1
  Ga  Ga4  1  0.76874000  0.25000000  0.75000000  1
  Ga  Ga5  1  0.73126000  0.75000000  0.75000000  1
  Ga  Ga6  1  0.23126000  0.75000000  0.25000000  1
  Ga  Ga7  1  0.26874000  0.25000000  0.25000000  1
  N  N0  1  0.96938000  0.39256800  0.67328700  1
  N  N1  1  0.53062000  0.60743200  0.67328700  1
  N  N2  1  0.96938000  0.10743200  0.82671300  1
  N  N3  1  0.53062000  0.89256800  0.82671300  1
  N  N4  1  0.03062000  0.60743200  0.32671300  1
  N  N5  1  0.46938000  0.39256800  0.32671300  1
  N  N6  1  0.03062000  0.89256800  0.17328700  1
  N  N7  1  0.46938000  0.10743200  0.17328700  1
  N  N8  1  0.59990200  0.35818400  0.88381600  1
  N  N9  1  0.90009800  0.64181600  0.88381600  1
  N  N10  1  0.59990200  0.14181600  0.61618400  1
  N  N11  1  0.90009800  0.85818400  0.61618400  1
  N  N12  1  0.40009800  0.64181600  0.11618400  1
  N  N13  1  0.09990200  0.35818400  0.11618400  1
  N  N14  1  0.40009800  0.85818400  0.38381600  1
  N  N15  1  0.09990200  0.14181600  0.38381600  1
loop_
_geom_bond_atom_site_label_1
_geom_bond_atom_site_label_2
_geom_bond_distance
_geom_bond_site_symmetry_2
Cd0 N15 2.188685 1_655
Cd0 N10 2.206429 1_555
Cd0 N7 2.383854 1_555
Cd1 N14 2.188685 1_555
Cd1 N11 2.206429 1_555
Cd1 N6 2.383854 1_655
Cd2 N13 2.188685 1_655
Cd2 N8 2.206429 1_554
Cd2 N5 2.383854 1_555
Cd3 N12 2.188685 1_555
Cd3 N9 2.206429 1_554
Cd3 N4 2.383854 1_655
Cd4 N11 2.188685 1_455
Cd4 N14 2.206429 1_555
Cd4 N3 2.383854 1_555
Cd5 N10 2.188685 1_555
Cd5 N15 2.206429 1_555
Cd5 N2 2.383854 1_455
Cd6 N9 2.188685 1_455
Cd6 N12 2.206429 1_556
Cd6 N1 2.383854 1_555
Cd7 N8 2.188685 1_555
Cd7 N13 2.206429 1_556
Cd7 N0 2.383854 1_455
Cd8 N5 2.270594 1_555
Cd8 N4 2.270594 1_655
Cd8 N1 2.622161 1_555
Cd8 N0 2.622161 1_555
Cd9 N7 2.270594 1_555
Cd9 N6 2.270594 1_645
Cd9 N3 2.622161 1_544
Cd9 N2 2.622161 1_554
Cd10 N1 2.270594 1_555
Cd10 N0 2.270594 1_455
Cd10 N4 2.622161 1_555
Cd10 N5 2.622161 1_555
Cd11 N3 2.270594 1_545
Cd11 N2 2.270594 1_455
Cd11 N7 2.622161 1_556
Cd11 N6 2.622161 1_546
Ga0 N8 1.942313 1_555
Ga0 N9 1.942313 1_555
Ga0 N1 2.019651 1_555
Ga0 N0 2.019651 1_555
Ga1 N10 1.942313 1_555
Ga1 N11 1.942313 1_545
Ga1 N2 2.019651 1_555
Ga1 N3 2.019651 1_545
Ga2 N13 1.942313 1_555
Ga2 N12 1.942313 1_555
Ga2 N4 2.019651 1_555
Ga2 N5 2.019651 1_555
Ga3 N15 1.942313 1_555
Ga3 N14 1.942313 1_545
Ga3 N6 2.019651 1_545
Ga3 N7 2.019651 1_555
Ga4 N8 1.931362 1_555
Ga4 N10 1.931362 1_555
Ga4 N0 2.049043 1_555
Ga4 N2 2.049043 1_555
Ga5 N9 1.931362 1_555
Ga5 N11 1.931362 1_555
Ga5 N1 2.049043 1_555
Ga5 N3 2.049043 1_555
Ga6 N14 1.931362 1_555
Ga6 N12 1.931362 1_555
Ga6 N4 2.049043 1_555
Ga6 N6 2.049043 1_555
Ga7 N15 1.931362 1_555
Ga7 N13 1.931362 1_555
Ga7 N5 2.049043 1_555
Ga7 N7 2.049043 1_555
