# generated using pymatgen
data_CaMn(Si2O5)2
_symmetry_space_group_name_H-M   'P 1'
_cell_length_a   7.54859800
_cell_length_b   7.54859800
_cell_length_c   15.36538600
_cell_angle_alpha   90.00000000
_cell_angle_beta   90.00000000
_cell_angle_gamma   90.00000000
_symmetry_Int_Tables_number   1
_chemical_formula_structural   CaMn(Si2O5)2
_chemical_formula_sum   'Ca4 Mn4 Si16 O40'
_cell_volume   875.54015737
_cell_formula_units_Z   4
loop_
 _symmetry_equiv_pos_site_id
 _symmetry_equiv_pos_as_xyz
  1  'x, y, z'
loop_
 _atom_site_type_symbol
 _atom_site_label
 _atom_site_symmetry_multiplicity
 _atom_site_fract_x
 _atom_site_fract_y
 _atom_site_fract_z
 _atom_site_occupancy
  Ca  Ca0  1  0.50000000  0.50000000  0.50000000  1
  Ca  Ca1  1  0.00000000  0.00000000  0.50000000  1
  Ca  Ca2  1  0.00000000  0.00000000  0.00000000  1
  Ca  Ca3  1  0.50000000  0.50000000  0.00000000  1
  Mn  Mn0  1  0.50000000  0.00000000  0.57872800  1
  Mn  Mn1  1  0.00000000  0.50000000  0.92127200  1
  Mn  Mn2  1  0.00000000  0.50000000  0.42127200  1
  Mn  Mn3  1  0.50000000  0.00000000  0.07872800  1
  Si  Si0  1  0.16861400  0.25312500  0.64811900  1
  Si  Si1  1  0.83138600  0.74687500  0.64811900  1
  Si  Si2  1  0.25312500  0.16861400  0.85188100  1
  Si  Si3  1  0.75312500  0.33138600  0.64811900  1
  Si  Si4  1  0.24687500  0.66861400  0.64811900  1
  Si  Si5  1  0.33138600  0.75312500  0.85188100  1
  Si  Si6  1  0.66861400  0.24687500  0.85188100  1
  Si  Si7  1  0.74687500  0.83138600  0.85188100  1
  Si  Si8  1  0.33138600  0.24687500  0.35188100  1
  Si  Si9  1  0.66861400  0.75312500  0.35188100  1
  Si  Si10  1  0.24687500  0.33138600  0.14811900  1
  Si  Si11  1  0.74687500  0.16861400  0.35188100  1
  Si  Si12  1  0.25312500  0.83138600  0.35188100  1
  Si  Si13  1  0.16861400  0.74687500  0.14811900  1
  Si  Si14  1  0.83138600  0.25312500  0.14811900  1
  Si  Si15  1  0.75312500  0.66861400  0.14811900  1
  O  O0  1  0.24423500  0.10706000  0.58228700  1
  O  O1  1  0.75576500  0.89294000  0.58228700  1
  O  O2  1  0.10706000  0.24423500  0.91771300  1
  O  O3  1  0.60706000  0.25576500  0.58228700  1
  O  O4  1  0.39294000  0.74423500  0.58228700  1
  O  O5  1  0.25576500  0.60706000  0.91771300  1
  O  O6  1  0.74423500  0.39294000  0.91771300  1
  O  O7  1  0.89294000  0.75576500  0.91771300  1
  O  O8  1  0.25576500  0.39294000  0.41771300  1
  O  O9  1  0.74423500  0.60706000  0.41771300  1
  O  O10  1  0.39294000  0.25576500  0.08228700  1
  O  O11  1  0.89294000  0.24423500  0.41771300  1
  O  O12  1  0.10706000  0.75576500  0.41771300  1
  O  O13  1  0.24423500  0.89294000  0.08228700  1
  O  O14  1  0.75576500  0.10706000  0.08228700  1
  O  O15  1  0.25432100  0.04657600  0.37090800  1
  O  O16  1  0.60706000  0.74423500  0.08228700  1
  O  O17  1  0.75432100  0.54657600  0.62909200  1
  O  O18  1  0.45342400  0.24567900  0.87090800  1
  O  O19  1  0.95342400  0.25432100  0.62909200  1
  O  O20  1  0.04657600  0.74567900  0.62909200  1
  O  O21  1  0.25432100  0.95342400  0.87090800  1
  O  O22  1  0.74567900  0.04657600  0.87090800  1
  O  O23  1  0.54657600  0.75432100  0.87090800  1
  O  O24  1  0.70771400  0.70771400  0.25000000  1
  O  O25  1  0.79228600  0.20771400  0.25000000  1
  O  O26  1  0.20771400  0.79228600  0.25000000  1
  O  O27  1  0.29228600  0.29228600  0.25000000  1
  O  O28  1  0.79228600  0.79228600  0.75000000  1
  O  O29  1  0.70771400  0.29228600  0.75000000  1
  O  O30  1  0.29228600  0.70771400  0.75000000  1
  O  O31  1  0.20771400  0.20771400  0.75000000  1
  O  O32  1  0.95342400  0.74567900  0.12909200  1
  O  O33  1  0.75432100  0.45342400  0.12909200  1
  O  O34  1  0.24567900  0.54657600  0.12909200  1
  O  O35  1  0.45342400  0.75432100  0.37090800  1
  O  O36  1  0.54657600  0.24567900  0.37090800  1
  O  O37  1  0.04657600  0.25432100  0.12909200  1
  O  O38  1  0.74567900  0.95342400  0.37090800  1
  O  O39  1  0.24567900  0.45342400  0.62909200  1
loop_
_geom_bond_atom_site_label_1
_geom_bond_atom_site_label_2
_geom_bond_distance
_geom_bond_site_symmetry_2
Ca0 O3 2.377125 1_555
Ca0 O4 2.377125 1_555
Ca0 O8 2.377125 1_555
Ca0 O9 2.377125 1_555
Ca0 O17 2.782729 1_555
Ca0 O35 2.782729 1_555
Ca0 O36 2.782729 1_555
Ca0 O39 2.782729 1_555
Ca1 O0 2.377125 1_555
Ca1 O12 2.377125 1_545
Ca1 O1 2.377125 1_445
Ca1 O11 2.377125 1_455
Ca1 O38 2.782729 1_445
Ca1 O20 2.782729 1_545
Ca1 O19 2.782729 1_455
Ca1 O15 2.782729 1_555
Ca2 O14 2.377125 1_455
Ca2 O2 2.377125 1_554
Ca2 O7 2.377125 1_444
Ca2 O13 2.377125 1_545
Ca2 O22 2.782729 1_454
Ca2 O21 2.782729 1_544
Ca2 O32 2.782729 1_445
Ca2 O37 2.782729 1_555
Ca3 O16 2.377125 1_555
Ca3 O10 2.377125 1_555
Ca3 O5 2.377125 1_554
Ca3 O6 2.377125 1_554
Ca3 O18 2.782729 1_554
Ca3 O23 2.782729 1_554
Ca3 O33 2.782729 1_555
Ca3 O34 2.782729 1_555
Mn0 O4 2.093699 1_545
Mn0 O0 2.093699 1_555
Mn0 O1 2.093699 1_545
Mn0 O3 2.093699 1_555
Mn1 O6 2.093699 1_455
Mn1 O5 2.093699 1_555
Mn1 O2 2.093699 1_555
Mn1 O7 2.093699 1_455
Mn2 O8 2.093699 1_555
Mn2 O11 2.093699 1_455
Mn2 O12 2.093699 1_555
Mn2 O9 2.093699 1_455
Mn3 O10 2.093699 1_555
Mn3 O16 2.093699 1_545
Mn3 O13 2.093699 1_545
Mn3 O14 2.093699 1_555
O0 Si0 1.601483 1_555
O1 Si1 1.601483 1_555
O2 Si2 1.601483 1_555
O3 Si3 1.601483 1_555
O4 Si4 1.601483 1_555
O5 Si5 1.601483 1_555
O6 Si6 1.601483 1_555
O7 Si7 1.601483 1_555
O8 Si8 1.601483 1_555
O9 Si9 1.601483 1_555
O10 Si10 1.601483 1_555
O11 Si11 1.601483 1_555
O12 Si12 1.601483 1_555
O13 Si13 1.601483 1_555
O14 Si14 1.601483 1_555
O15 Si8 1.646195 1_555
O15 Si12 1.650507 1_545
O16 Si15 1.601483 1_555
O17 Si1 1.646195 1_555
O17 Si3 1.650507 1_555
O18 Si2 1.646195 1_555
O18 Si6 1.650507 1_555
O19 Si3 1.646195 1_555
O19 Si0 1.650507 1_655
O20 Si4 1.646195 1_555
O20 Si1 1.650507 1_455
O21 Si5 1.646195 1_555
O21 Si2 1.650507 1_565
O22 Si6 1.646195 1_555
O22 Si7 1.650507 1_545
O23 Si7 1.646195 1_555
O23 Si5 1.650507 1_555
O24 Si9 1.629486 1_555
O24 Si15 1.629486 1_555
O25 Si14 1.629486 1_555
O25 Si11 1.629486 1_555
O26 Si12 1.629486 1_555
O26 Si13 1.629486 1_555
O27 Si10 1.629486 1_555
O27 Si8 1.629486 1_555
O28 Si7 1.629486 1_555
O28 Si1 1.629486 1_555
O29 Si6 1.629486 1_555
O29 Si3 1.629486 1_555
O30 Si4 1.629486 1_555
O30 Si5 1.629486 1_555
O31 Si2 1.629486 1_555
O31 Si0 1.629486 1_555
O32 Si15 1.646195 1_555
O32 Si13 1.650507 1_655
O33 Si14 1.646195 1_555
O33 Si15 1.650507 1_555
O34 Si13 1.646195 1_555
O34 Si10 1.650507 1_555
O35 Si12 1.646195 1_555
O35 Si9 1.650507 1_555
O36 Si11 1.646195 1_555
O36 Si8 1.650507 1_555
O37 Si10 1.646195 1_555
O37 Si14 1.650507 1_455
O38 Si9 1.646195 1_555
O38 Si11 1.650507 1_565
O39 Si0 1.646195 1_555
O39 Si4 1.650507 1_555
