# generated using pymatgen
data_Na2HgPb
_symmetry_space_group_name_H-M   'P 1'
_cell_length_a   6.25332206
_cell_length_b   6.25332206
_cell_length_c   6.16930800
_cell_angle_alpha   90.00000000
_cell_angle_beta   90.00000000
_cell_angle_gamma   103.05065002
_symmetry_Int_Tables_number   1
_chemical_formula_structural   Na2HgPb
_chemical_formula_sum   'Na4 Hg2 Pb2'
_cell_volume   235.01369139
_cell_formula_units_Z   2
loop_
 _symmetry_equiv_pos_site_id
 _symmetry_equiv_pos_as_xyz
  1  'x, y, z'
loop_
 _atom_site_type_symbol
 _atom_site_label
 _atom_site_symmetry_multiplicity
 _atom_site_fract_x
 _atom_site_fract_y
 _atom_site_fract_z
 _atom_site_occupancy
  Na  Na0  1  0.50926300  0.13167300  0.25000000  1
  Na  Na1  1  0.86832700  0.49073700  0.75000000  1
  Na  Na2  1  0.49073700  0.86832700  0.75000000  1
  Na  Na3  1  0.13167300  0.50926300  0.25000000  1
  Hg  Hg0  1  0.00000000  0.00000000  0.50000000  1
  Hg  Hg1  1  0.00000000  0.00000000  0.00000000  1
  Pb  Pb0  1  0.66140000  0.66140000  0.25000000  1
  Pb  Pb1  1  0.33860000  0.33860000  0.75000000  1
loop_
_geom_bond_atom_site_label_1
_geom_bond_atom_site_label_2
_geom_bond_distance
_geom_bond_site_symmetry_2
Na0 Pb0 3.233394 1_555
Na0 Pb0 3.288880 1_545
Na0 Pb1 3.598901 1_555
Na0 Pb1 3.598901 1_554
Na1 Pb1 3.233394 1_555
Na1 Pb1 3.288880 1_655
Na1 Pb0 3.598901 1_556
Na1 Pb0 3.598901 1_555
Na2 Pb1 3.233394 1_555
Na2 Pb1 3.288880 1_565
Na2 Pb0 3.598901 1_555
Na2 Pb0 3.598901 1_556
Na3 Pb0 3.233394 1_555
Na3 Pb0 3.288880 1_455
Na3 Pb1 3.598901 1_555
Na3 Pb1 3.598901 1_554
Hg0 Pb1 3.052960 1_555
Hg0 Pb0 3.052960 1_445
Hg0 Hg1 3.084654 1_555
Hg0 Hg1 3.084654 1_556
Hg0 Na2 3.466136 1_445
Hg0 Na3 3.466136 1_555
Hg0 Na1 3.466136 1_445
Hg0 Na0 3.466136 1_555
Hg0 Na0 3.689858 1_455
Hg0 Na1 3.689858 1_455
Hg0 Na2 3.689858 1_545
Hg0 Na3 3.689858 1_545
Hg1 Pb1 3.052960 1_554
Hg1 Pb0 3.052960 1_445
Hg1 Na1 3.466136 1_444
Hg1 Na3 3.466136 1_555
Hg1 Na2 3.466136 1_444
Hg1 Na0 3.466136 1_555
Hg1 Na0 3.689858 1_455
Hg1 Na3 3.689858 1_545
Hg1 Na2 3.689858 1_544
Hg1 Na1 3.689858 1_454
