# generated using pymatgen
data_Sr4Mg(SO4)4
_symmetry_space_group_name_H-M   'P 1'
_cell_length_a   5.21470579
_cell_length_b   4.71765476
_cell_length_c   17.24155174
_cell_angle_alpha   90.65920677
_cell_angle_beta   90.00000000
_cell_angle_gamma   90.00000000
_symmetry_Int_Tables_number   1
_chemical_formula_structural   Sr4Mg(SO4)4
_chemical_formula_sum   'Sr4 Mg1 S4 O16'
_cell_volume   424.13447226
_cell_formula_units_Z   1
loop_
 _symmetry_equiv_pos_site_id
 _symmetry_equiv_pos_as_xyz
  1  'x, y, z'
loop_
 _atom_site_type_symbol
 _atom_site_label
 _atom_site_symmetry_multiplicity
 _atom_site_fract_x
 _atom_site_fract_y
 _atom_site_fract_z
 _atom_site_occupancy
  Sr  Sr0  1  0.25000000  0.27495693  0.62069149  1
  Sr  Sr1  1  0.25000000  0.24799749  0.03034819  1
  Sr  Sr2  1  0.75000000  0.70446171  0.46138610  1
  Sr  Sr3  1  0.75000000  0.80133418  0.87245933  1
  Mg  Mg0  1  0.75000000  -0.01088116  0.26752058  1
  S  S0  1  0.25000000  0.35879614  0.84717763  1
  S  S1  1  0.25000000  0.15669282  0.43573027  1
  S  S2  1  0.75000000  0.69382653  0.06657120  1
  S  S3  1  0.75000000  0.84003441  0.65462952  1
  O  O0  1  0.75000000  0.37730197  0.06945082  1
  O  O1  1  0.75000000  0.15511228  0.65619576  1
  O  O2  1  0.25000000  0.67402078  0.84786174  1
  O  O3  1  0.25000000  0.83946595  0.43481758  1
  O  O4  1  0.75000000  0.72435801  0.73366497  1
  O  O5  1  0.75000000  0.82593757  0.14386689  1
  O  O6  1  0.25000000  0.28162354  0.35930627  1
  O  O7  1  0.25000000  0.23535480  0.76954221  1
  O  O8  1  0.01807798  0.26592417  0.89345468  1
  O  O9  1  0.48261897  0.24642626  0.48349149  1
  O  O10  1  0.51617318  0.77948233  0.02050969  1
  O  O11  1  0.98285849  0.74297025  0.61045235  1
  O  O12  1  0.98382682  0.77948233  0.02050969  1
  O  O13  1  0.51714151  0.74297025  0.61045235  1
  O  O14  1  0.48192202  0.26592417  0.89345468  1
  O  O15  1  0.01738103  0.24642626  0.48349149  1
loop_
_geom_bond_atom_site_label_1
_geom_bond_atom_site_label_2
_geom_bond_distance
_geom_bond_site_symmetry_2
Mg0 O5 2.258367 1_545
O0 S2 1.494650 1_555
O0 Sr1 2.759615 1_655
O0 Sr1 2.759615 1_555
O1 S3 1.486363 1_545
O1 Sr0 2.738730 1_555
O1 Sr0 2.738730 1_655
O2 S0 1.487032 1_555
O2 Sr3 2.707958 1_555
O2 Sr3 2.707958 1_455
O3 S1 1.496469 1_565
O3 Sr2 2.724057 1_555
O3 Sr2 2.724057 1_455
O4 S3 1.473722 1_555
O4 Sr3 2.416293 1_555
O5 S2 1.464724 1_555
O6 S1 1.449651 1_555
O7 S0 1.453592 1_555
O7 Sr0 2.575352 1_555
O8 S0 1.516343 1_555
O8 Sr3 2.621244 1_445
O8 Sr1 2.654283 1_556
O8 Sr3 2.913143 1_455
O9 S1 1.523407 1_555
O9 Sr2 2.603384 1_555
O9 Sr0 2.660458 1_555
O9 Sr2 2.933289 1_545
O10 S2 1.512670 1_555
O10 Sr1 2.613834 1_565
O10 Sr3 2.831841 1_554
O10 Sr1 2.872631 1_555
O11 S3 1.502105 1_555
O11 Sr0 2.618339 1_655
O11 Sr2 2.846461 1_555
O11 Sr0 2.874081 1_665
O12 S2 1.512670 1_555
O12 Sr1 2.613834 1_665
O12 Sr3 2.831841 1_554
O12 Sr1 2.872631 1_655
O13 S3 1.502105 1_555
O13 Sr0 2.618339 1_555
O13 Sr2 2.846461 1_555
O13 Sr0 2.874081 1_565
O14 S0 1.516343 1_555
O14 Sr3 2.621244 1_545
O14 Sr1 2.654283 1_556
O14 Sr3 2.913143 1_555
O15 S1 1.523407 1_555
O15 Sr2 2.603384 1_455
O15 Sr0 2.660458 1_555
O15 Sr2 2.933289 1_445
