# generated using pymatgen
data_FeAgTe2
_symmetry_space_group_name_H-M   'P 1'
_cell_length_a   4.13668139
_cell_length_b   4.13668139
_cell_length_c   5.90963700
_cell_angle_alpha   90.00000000
_cell_angle_beta   90.00000000
_cell_angle_gamma   119.99999031
_symmetry_Int_Tables_number   1
_chemical_formula_structural   FeAgTe2
_chemical_formula_sum   'Fe1 Ag1 Te2'
_cell_volume   87.57812142
_cell_formula_units_Z   1
loop_
 _symmetry_equiv_pos_site_id
 _symmetry_equiv_pos_as_xyz
  1  'x, y, z'
loop_
 _atom_site_type_symbol
 _atom_site_label
 _atom_site_symmetry_multiplicity
 _atom_site_fract_x
 _atom_site_fract_y
 _atom_site_fract_z
 _atom_site_occupancy
  Fe  Fe0  1  0.00000000  0.00000000  0.00000000  1
  Ag  Ag0  1  0.00000000  0.00000000  0.50000000  1
  Te  Te0  1  0.66666700  0.33333300  0.19740300  1
  Te  Te1  1  0.33333300  0.66666700  0.80259700  1
loop_
_geom_bond_atom_site_label_1
_geom_bond_atom_site_label_2
_geom_bond_distance
_geom_bond_site_symmetry_2
Fe0 Te1 2.657996 1_544
Fe0 Te0 2.657996 1_455
Fe0 Te0 2.657999 1_555
Fe0 Te1 2.657999 1_554
Fe0 Te1 2.657999 1_444
Fe0 Te0 2.657999 1_445
Ag0 Fe0 2.954819 1_556
Ag0 Fe0 2.954819 1_555
Ag0 Te1 2.983593 1_545
Ag0 Te0 2.983593 1_455
Ag0 Te1 2.983596 1_555
Ag0 Te0 2.983596 1_555
Ag0 Te0 2.983596 1_445
Ag0 Te1 2.983596 1_445
