# generated using pymatgen
data_Mg14BSb
_symmetry_space_group_name_H-M   'P 1'
_cell_length_a   6.28897291
_cell_length_b   6.28897242
_cell_length_c   10.08655474
_cell_angle_alpha   90.00000000
_cell_angle_beta   90.00000000
_cell_angle_gamma   120.00000265
_symmetry_Int_Tables_number   1
_chemical_formula_structural   Mg14BSb
_chemical_formula_sum   'Mg14 B1 Sb1'
_cell_volume   345.48793342
_cell_formula_units_Z   1
loop_
 _symmetry_equiv_pos_site_id
 _symmetry_equiv_pos_as_xyz
  1  'x, y, z'
loop_
 _atom_site_type_symbol
 _atom_site_label
 _atom_site_symmetry_multiplicity
 _atom_site_fract_x
 _atom_site_fract_y
 _atom_site_fract_z
 _atom_site_occupancy
  Mg  Mg0  1  0.16354105  0.83177003  0.12500000  1
  Mg  Mg1  1  0.16720650  0.83360275  0.62500000  1
  Mg  Mg2  1  0.66822997  0.33645895  0.12500000  1
  Mg  Mg3  1  0.66639725  0.33279350  0.62500000  1
  Mg  Mg4  1  0.66822997  0.83177003  0.12500000  1
  Mg  Mg5  1  0.66639725  0.83360275  0.62500000  1
  Mg  Mg6  1  0.33156619  0.16843381  0.36123681  1
  Mg  Mg7  1  0.33156619  0.16843381  0.88876319  1
  Mg  Mg8  1  0.33156619  0.66313338  0.36123681  1
  Mg  Mg9  1  0.33156619  0.66313338  0.88876319  1
  Mg  Mg10  1  0.83686662  0.16843381  0.36123681  1
  Mg  Mg11  1  0.83686662  0.16843381  0.88876319  1
  Mg  Mg12  1  0.83333300  0.66666700  0.37590532  1
  Mg  Mg13  1  0.83333300  0.66666700  0.87409468  1
  B  B0  1  0.16666700  0.33333300  0.12500000  1
  Sb  Sb0  1  0.16666700  0.33333300  0.62500000  1
loop_
_geom_bond_atom_site_label_1
_geom_bond_atom_site_label_2
_geom_bond_distance
_geom_bond_site_symmetry_2
Mg0 Mg9 3.006642 1_554
Mg0 Mg8 3.006642 1_555
Mg0 Mg7 3.006648 1_564
Mg0 Mg6 3.006648 1_565
Mg0 Mg12 3.104709 1_455
Mg0 Mg13 3.104709 1_454
Mg0 Mg2 3.114998 1_455
Mg0 Mg4 3.114998 1_455
Mg0 Mg2 3.173975 1_565
Mg0 Mg4 3.173975 1_555
Mg1 Mg12 3.101502 1_455
Mg1 Mg13 3.101502 1_455
Mg1 Sb0 3.144488 1_555
Mg1 Sb0 3.144488 1_565
Mg1 Mg8 3.225524 1_555
Mg1 Mg9 3.225524 1_555
Mg1 Mg6 3.225530 1_565
Mg1 Mg7 3.225530 1_565
Mg2 Mg7 3.006649 1_554
Mg2 Mg6 3.006649 1_555
Mg2 Mg4 3.114998 1_555
Mg2 Mg4 3.173975 1_545
Mg3 Sb0 3.144488 1_655
Mg3 Sb0 3.144488 1_555
Mg3 Mg6 3.225530 1_555
Mg3 Mg7 3.225530 1_555
Mg4 Mg9 3.006649 1_554
Mg4 Mg8 3.006649 1_555
Mg5 Sb0 3.144488 1_555
Mg5 Sb0 3.144488 1_665
Mg5 Mg8 3.225530 1_555
Mg5 Mg9 3.225530 1_555
Mg6 Mg8 3.111152 1_555
Mg6 Mg8 3.177820 1_545
Mg6 Sb0 3.210055 1_555
Mg7 Mg9 3.111152 1_555
Mg7 Mg9 3.177820 1_545
Mg7 Sb0 3.210055 1_555
Mg8 Sb0 3.210061 1_555
Mg9 Sb0 3.210061 1_555
Mg10 Mg2 3.006642 1_555
Mg10 Mg4 3.006648 1_545
Mg10 Mg8 3.111152 1_655
Mg10 Mg6 3.111152 1_655
Mg10 Mg12 3.148024 1_545
Mg10 Mg12 3.148024 1_555
Mg10 Mg8 3.177820 1_545
Mg10 Mg6 3.177821 1_555
Mg10 Sb0 3.210061 1_655
Mg10 Mg3 3.225524 1_555
Mg10 Mg5 3.225530 1_545
Mg11 Mg2 3.006642 1_556
Mg11 Mg4 3.006648 1_546
Mg11 Mg9 3.111152 1_655
Mg11 Mg7 3.111152 1_655
Mg11 Mg13 3.148024 1_545
Mg11 Mg13 3.148024 1_555
Mg11 Mg9 3.177820 1_545
Mg11 Mg7 3.177821 1_555
Mg11 Sb0 3.210061 1_655
Mg11 Mg3 3.225524 1_555
Mg11 Mg5 3.225530 1_545
Mg12 Mg5 3.101496 1_555
Mg12 Mg3 3.101502 1_555
Mg12 Mg4 3.104702 1_555
Mg12 Mg2 3.104708 1_555
Mg12 Mg6 3.148024 1_665
Mg12 Mg6 3.148024 1_555
Mg12 Mg8 3.148024 1_555
Mg12 Mg8 3.148024 1_655
Mg13 Mg5 3.101496 1_555
Mg13 Mg3 3.101502 1_555
Mg13 Mg4 3.104702 1_556
Mg13 Mg2 3.104708 1_556
Mg13 Mg7 3.148024 1_665
Mg13 Mg7 3.148024 1_555
Mg13 Mg9 3.148024 1_555
Mg13 Mg9 3.148024 1_655
B0 Mg7 2.983992 1_554
B0 Mg6 2.983992 1_555
B0 Mg9 2.983998 1_554
B0 Mg8 2.983998 1_555
B0 Mg11 2.983998 1_454
B0 Mg10 2.983998 1_455
