# generated using pymatgen
data_HfAg
_symmetry_space_group_name_H-M   'P 1'
_cell_length_a   6.84374890
_cell_length_b   6.84374890
_cell_length_c   13.14344776
_cell_angle_alpha   90.00000000
_cell_angle_beta   90.00000000
_cell_angle_gamma   90.00000000
_symmetry_Int_Tables_number   1
_chemical_formula_structural   HfAg
_chemical_formula_sum   'Hf16 Ag16'
_cell_volume   615.59833533
_cell_formula_units_Z   16
loop_
 _symmetry_equiv_pos_site_id
 _symmetry_equiv_pos_as_xyz
  1  'x, y, z'
loop_
 _atom_site_type_symbol
 _atom_site_label
 _atom_site_symmetry_multiplicity
 _atom_site_fract_x
 _atom_site_fract_y
 _atom_site_fract_z
 _atom_site_occupancy
  Hf  Hf0_0  1  0.37500000  0.37500000  0.42923124  1
  Hf  Hf0_1  1  0.37500000  0.37500000  0.92923124  1
  Hf  Hf0_2  1  0.37500000  0.87500000  0.42923124  1
  Hf  Hf0_3  1  0.37500000  0.87500000  0.92923124  1
  Hf  Hf0_4  1  0.87500000  0.37500000  0.42923124  1
  Hf  Hf0_5  1  0.87500000  0.37500000  0.92923124  1
  Hf  Hf0_6  1  0.87500000  0.87500000  0.42923124  1
  Hf  Hf0_7  1  0.87500000  0.87500000  0.92923124  1
  Hf  Hf1_0  1  0.12500000  0.12500000  0.07076876  1
  Hf  Hf1_1  1  0.12500000  0.12500000  0.57076876  1
  Hf  Hf1_2  1  0.12500000  0.62500000  0.07076876  1
  Hf  Hf1_3  1  0.12500000  0.62500000  0.57076876  1
  Hf  Hf1_4  1  0.62500000  0.12500000  0.07076876  1
  Hf  Hf1_5  1  0.62500000  0.12500000  0.57076876  1
  Hf  Hf1_6  1  0.62500000  0.62500000  0.07076876  1
  Hf  Hf1_7  1  0.62500000  0.62500000  0.57076876  1
  Ag  Ag0_0  1  0.37500000  0.37500000  0.19205593  1
  Ag  Ag0_1  1  0.37500000  0.37500000  0.69205592  1
  Ag  Ag0_2  1  0.37500000  0.87500000  0.19205593  1
  Ag  Ag0_3  1  0.37500000  0.87500000  0.69205592  1
  Ag  Ag0_4  1  0.87500000  0.37500000  0.19205593  1
  Ag  Ag0_5  1  0.87500000  0.37500000  0.69205592  1
  Ag  Ag0_6  1  0.87500000  0.87500000  0.19205593  1
  Ag  Ag0_7  1  0.87500000  0.87500000  0.69205592  1
  Ag  Ag1_0  1  0.12500000  0.12500000  0.30794407  1
  Ag  Ag1_1  1  0.12500000  0.12500000  0.80794407  1
  Ag  Ag1_2  1  0.12500000  0.62500000  0.30794407  1
  Ag  Ag1_3  1  0.12500000  0.62500000  0.80794407  1
  Ag  Ag1_4  1  0.62500000  0.12500000  0.30794407  1
  Ag  Ag1_5  1  0.62500000  0.12500000  0.80794407  1
  Ag  Ag1_6  1  0.62500000  0.62500000  0.30794407  1
  Ag  Ag1_7  1  0.62500000  0.62500000  0.80794407  1
loop_
_geom_bond_atom_site_label_1
_geom_bond_atom_site_label_2
_geom_bond_distance
_geom_bond_site_symmetry_2
Hf0_0 Hf1_3 3.052097 1_555
Hf0_0 Hf1_1 3.052097 1_555
Hf0_0 Hf1_5 3.052097 1_555
Hf0_0 Hf1_7 3.052097 1_555
Hf0_0 Hf0_2 3.421874 1_555
Hf0_0 Hf0_4 3.421874 1_555
Hf0_0 Hf0_4 3.421874 1_455
Hf0_0 Hf0_2 3.421874 1_545
Hf0_1 Hf1_0 3.052097 1_556
Hf0_1 Hf1_4 3.052097 1_556
Hf0_1 Hf1_2 3.052097 1_556
Hf0_1 Hf1_6 3.052097 1_556
Hf0_1 Hf0_3 3.421874 1_555
Hf0_1 Hf0_5 3.421874 1_555
Hf0_1 Hf0_3 3.421874 1_545
Hf0_1 Hf0_5 3.421874 1_455
Hf0_2 Hf1_3 3.052097 1_555
Hf0_2 Hf1_7 3.052097 1_555
Hf0_2 Hf1_1 3.052097 1_565
Hf0_2 Hf1_5 3.052097 1_565
Hf0_2 Hf0_6 3.421874 1_555
Hf0_2 Hf0_6 3.421874 1_455
Hf0_3 Hf1_2 3.052097 1_556
Hf0_3 Hf1_0 3.052097 1_566
Hf0_3 Hf1_6 3.052097 1_556
Hf0_3 Hf1_4 3.052097 1_566
Hf0_3 Hf0_7 3.421874 1_555
Hf0_3 Hf0_7 3.421874 1_455
Hf0_4 Hf1_5 3.052097 1_555
Hf0_4 Hf1_7 3.052097 1_555
Hf0_4 Hf1_1 3.052097 1_655
Hf0_4 Hf1_3 3.052097 1_655
Hf0_4 Hf0_6 3.421874 1_555
Hf0_4 Hf0_6 3.421874 1_545
Hf0_5 Hf1_4 3.052097 1_556
Hf0_5 Hf1_6 3.052097 1_556
Hf0_5 Hf1_0 3.052097 1_656
Hf0_5 Hf1_2 3.052097 1_656
Hf0_5 Hf0_7 3.421874 1_555
Hf0_5 Hf0_7 3.421874 1_545
Hf0_6 Hf1_7 3.052097 1_555
Hf0_6 Hf1_5 3.052097 1_565
Hf0_6 Hf1_3 3.052097 1_655
Hf0_6 Hf1_1 3.052097 1_665
Hf0_7 Hf1_6 3.052097 1_556
Hf0_7 Hf1_4 3.052097 1_566
Hf0_7 Hf1_2 3.052097 1_656
Hf0_7 Hf1_0 3.052097 1_666
Hf1_0 Hf1_2 3.421874 1_555
Hf1_0 Hf1_4 3.421874 1_455
Hf1_0 Hf1_2 3.421874 1_545
Hf1_0 Hf1_4 3.421874 1_555
Hf1_1 Hf1_3 3.421874 1_555
Hf1_1 Hf1_3 3.421874 1_545
Hf1_1 Hf1_5 3.421874 1_455
Hf1_1 Hf1_5 3.421874 1_555
Hf1_2 Hf1_6 3.421874 1_455
Hf1_2 Hf1_6 3.421874 1_555
Hf1_3 Hf1_7 3.421874 1_555
Hf1_3 Hf1_7 3.421874 1_455
Hf1_4 Hf1_6 3.421874 1_555
Hf1_4 Hf1_6 3.421874 1_545
Hf1_5 Hf1_7 3.421874 1_545
Hf1_5 Hf1_7 3.421874 1_555
Ag0_0 Ag1_0 2.859136 1_555
Ag0_0 Ag1_4 2.859136 1_555
Ag0_0 Ag1_2 2.859136 1_555
Ag0_0 Ag1_6 2.859136 1_555
Ag0_0 Hf1_0 2.897562 1_555
Ag0_0 Hf1_2 2.897562 1_555
Ag0_0 Hf1_6 2.897562 1_555
Ag0_0 Hf1_4 2.897562 1_555
Ag0_0 Hf0_0 3.117301 1_555
Ag0_0 Hf0_1 3.454423 1_554
Ag0_1 Ag1_1 2.859136 1_555
Ag0_1 Ag1_3 2.859136 1_555
Ag0_1 Ag1_7 2.859136 1_555
Ag0_1 Ag1_5 2.859136 1_555
Ag0_1 Hf1_1 2.897562 1_555
Ag0_1 Hf1_5 2.897562 1_555
Ag0_1 Hf1_3 2.897562 1_555
Ag0_1 Hf1_7 2.897562 1_555
Ag0_1 Hf0_1 3.117301 1_555
Ag0_1 Hf0_0 3.454423 1_555
Ag0_2 Ag1_2 2.859136 1_555
Ag0_2 Ag1_6 2.859136 1_555
Ag0_2 Ag1_0 2.859136 1_565
Ag0_2 Ag1_4 2.859136 1_565
Ag0_2 Hf1_2 2.897562 1_555
Ag0_2 Hf1_6 2.897562 1_555
Ag0_2 Hf1_0 2.897562 1_565
Ag0_2 Hf1_4 2.897562 1_565
Ag0_2 Hf0_2 3.117301 1_555
Ag0_2 Hf0_3 3.454423 1_554
Ag0_3 Ag1_3 2.859136 1_555
Ag0_3 Ag1_7 2.859136 1_555
Ag0_3 Ag1_1 2.859136 1_565
Ag0_3 Ag1_5 2.859136 1_565
Ag0_3 Hf1_3 2.897562 1_555
Ag0_3 Hf1_1 2.897562 1_565
Ag0_3 Hf1_7 2.897562 1_555
Ag0_3 Hf1_5 2.897562 1_565
Ag0_3 Hf0_3 3.117301 1_555
Ag0_3 Hf0_2 3.454423 1_555
Ag0_4 Ag1_4 2.859136 1_555
Ag0_4 Ag1_6 2.859136 1_555
Ag0_4 Ag1_0 2.859136 1_655
Ag0_4 Ag1_2 2.859136 1_655
Ag0_4 Hf1_4 2.897562 1_555
Ag0_4 Hf1_6 2.897562 1_555
Ag0_4 Hf1_0 2.897562 1_655
Ag0_4 Hf1_2 2.897562 1_655
Ag0_4 Hf0_4 3.117301 1_555
Ag0_4 Hf0_5 3.454423 1_554
Ag0_5 Ag1_5 2.859136 1_555
Ag0_5 Ag1_7 2.859136 1_555
Ag0_5 Ag1_1 2.859136 1_655
Ag0_5 Ag1_3 2.859136 1_655
Ag0_5 Hf1_5 2.897562 1_555
Ag0_5 Hf1_1 2.897562 1_655
Ag0_5 Hf1_7 2.897562 1_555
Ag0_5 Hf1_3 2.897562 1_655
Ag0_5 Hf0_5 3.117301 1_555
Ag0_5 Hf0_4 3.454423 1_555
Ag0_6 Ag1_6 2.859136 1_555
Ag0_6 Ag1_2 2.859136 1_655
Ag0_6 Ag1_4 2.859136 1_565
Ag0_6 Ag1_0 2.859136 1_665
Ag0_6 Hf1_6 2.897562 1_555
Ag0_6 Hf1_4 2.897562 1_565
Ag0_6 Hf1_2 2.897562 1_655
Ag0_6 Hf1_0 2.897562 1_665
Ag0_6 Hf0_6 3.117301 1_555
Ag0_6 Hf0_7 3.454423 1_554
Ag0_7 Ag1_7 2.859136 1_555
Ag0_7 Ag1_5 2.859136 1_565
Ag0_7 Ag1_3 2.859136 1_655
Ag0_7 Ag1_1 2.859136 1_665
Ag0_7 Hf1_7 2.897562 1_555
Ag0_7 Hf1_3 2.897562 1_655
Ag0_7 Hf1_5 2.897562 1_565
Ag0_7 Hf1_1 2.897562 1_665
Ag0_7 Hf0_7 3.117301 1_555
Ag0_7 Hf0_6 3.454423 1_555
Ag1_0 Hf0_0 2.897562 1_555
Ag1_0 Hf0_2 2.897562 1_545
Ag1_0 Hf0_4 2.897562 1_455
Ag1_0 Hf0_6 2.897562 1_445
Ag1_0 Hf1_0 3.117301 1_555
Ag1_0 Hf1_1 3.454423 1_555
Ag1_1 Hf0_1 2.897562 1_555
Ag1_1 Hf0_3 2.897562 1_545
Ag1_1 Hf0_5 2.897562 1_455
Ag1_1 Hf0_7 2.897562 1_445
Ag1_1 Hf1_1 3.117301 1_555
Ag1_1 Hf1_0 3.454423 1_556
Ag1_2 Hf0_2 2.897562 1_555
Ag1_2 Hf0_0 2.897562 1_555
Ag1_2 Hf0_6 2.897562 1_455
Ag1_2 Hf0_4 2.897562 1_455
Ag1_2 Hf1_2 3.117301 1_555
Ag1_2 Hf1_3 3.454423 1_555
Ag1_3 Hf0_3 2.897562 1_555
Ag1_3 Hf0_7 2.897562 1_455
Ag1_3 Hf0_1 2.897562 1_555
Ag1_3 Hf0_5 2.897562 1_455
Ag1_3 Hf1_3 3.117301 1_555
Ag1_3 Hf1_2 3.454423 1_556
Ag1_4 Hf0_4 2.897562 1_555
Ag1_4 Hf0_0 2.897562 1_555
Ag1_4 Hf0_6 2.897562 1_545
Ag1_4 Hf0_2 2.897562 1_545
Ag1_4 Hf1_4 3.117301 1_555
Ag1_4 Hf1_5 3.454423 1_555
Ag1_5 Hf0_5 2.897562 1_555
Ag1_5 Hf0_1 2.897562 1_555
Ag1_5 Hf0_7 2.897562 1_545
Ag1_5 Hf0_3 2.897562 1_545
Ag1_5 Hf1_5 3.117301 1_555
Ag1_5 Hf1_4 3.454423 1_556
Ag1_6 Hf0_6 2.897562 1_555
Ag1_6 Hf0_4 2.897562 1_555
Ag1_6 Hf0_2 2.897562 1_555
Ag1_6 Hf0_0 2.897562 1_555
Ag1_6 Hf1_6 3.117301 1_555
Ag1_6 Hf1_7 3.454423 1_555
Ag1_7 Hf0_7 2.897562 1_555
Ag1_7 Hf0_3 2.897562 1_555
Ag1_7 Hf0_5 2.897562 1_555
Ag1_7 Hf0_1 2.897562 1_555
Ag1_7 Hf1_7 3.117301 1_555
Ag1_7 Hf1_6 3.454423 1_556
