# generated using pymatgen
data_Cs2TmH4
_symmetry_space_group_name_H-M   'P 1'
_cell_length_a   8.64750144
_cell_length_b   8.64750144
_cell_length_c   8.64750144
_cell_angle_alpha   150.46780659
_cell_angle_beta   150.46780659
_cell_angle_gamma   42.25514479
_symmetry_Int_Tables_number   1
_chemical_formula_structural   Cs2TmH4
_chemical_formula_sum   'Cs2 Tm1 H4'
_cell_volume   156.73320295
_cell_formula_units_Z   1
loop_
 _symmetry_equiv_pos_site_id
 _symmetry_equiv_pos_as_xyz
  1  'x, y, z'
loop_
 _atom_site_type_symbol
 _atom_site_label
 _atom_site_symmetry_multiplicity
 _atom_site_fract_x
 _atom_site_fract_y
 _atom_site_fract_z
 _atom_site_occupancy
  Cs  Cs0  1  0.34628800  0.34628800  0.00000000  1
  Cs  Cs1  1  0.65371200  0.65371200  0.00000000  1
  Tm  Tm0  1  0.00000000  0.00000000  0.00000000  1
  H  H0  1  0.13536000  0.13536000  0.00000000  1
  H  H1  1  0.86464000  0.86464000  0.00000000  1
  H  H2  1  0.50000000  0.00000000  0.50000000  1
  H  H3  1  0.00000000  0.50000000  0.50000000  1
loop_
_geom_bond_atom_site_label_1
_geom_bond_atom_site_label_2
_geom_bond_distance
_geom_bond_site_symmetry_2
Cs0 H1 3.130984 1_556
Cs0 H1 3.130984 1_444
Cs0 H1 3.130984 1_545
Cs0 H1 3.130984 1_455
Cs0 H2 3.317659 1_554
Cs0 H3 3.317659 1_655
Cs0 H2 3.317659 1_565
Cs0 H3 3.317659 1_554
Cs0 H0 3.402782 1_555
Cs1 H0 3.130984 1_655
Cs1 H0 3.130984 1_565
Cs1 H0 3.130984 1_554
Cs1 H0 3.130984 1_666
Cs1 H3 3.317659 1_655
Cs1 H2 3.317659 1_565
Cs1 H3 3.317659 1_554
Cs1 H2 3.317659 1_554
Cs1 H1 3.402782 1_555
H0 Tm0 2.183687 1_555
H1 Tm0 2.183687 1_665
H2 Tm0 2.204020 1_656
H2 Tm0 2.204020 1_555
H3 Tm0 2.204020 1_555
H3 Tm0 2.204020 1_566
