# generated using pymatgen
data_As2O3
_symmetry_space_group_name_H-M   'P 1'
_cell_length_a   4.59151966
_cell_length_b   10.95750668
_cell_length_c   13.38684271
_cell_angle_alpha   97.81873682
_cell_angle_beta   90.00000000
_cell_angle_gamma   90.00000000
_symmetry_Int_Tables_number   1
_chemical_formula_structural   As2O3
_chemical_formula_sum   'As16 O24'
_cell_volume   667.25219183
_cell_formula_units_Z   8
loop_
 _symmetry_equiv_pos_site_id
 _symmetry_equiv_pos_as_xyz
  1  'x, y, z'
loop_
 _atom_site_type_symbol
 _atom_site_label
 _atom_site_symmetry_multiplicity
 _atom_site_fract_x
 _atom_site_fract_y
 _atom_site_fract_z
 _atom_site_occupancy
  As  As0  1  0.26822850  0.40367125  0.77537600  1
  As  As1  1  0.76822850  0.59632875  0.72462400  1
  As  As2  1  0.73177150  0.59632875  0.22462400  1
  As  As3  1  0.23177150  0.40367125  0.27537600  1
  As  As4  1  0.33133576  0.34243600  0.53835823  1
  As  As5  1  0.83133576  0.65756400  0.96164177  1
  As  As6  1  0.66866424  0.65756400  0.46164177  1
  As  As7  1  0.16866424  0.34243600  0.03835823  1
  As  As8  1  0.83131418  0.09128188  0.21905582  1
  As  As9  1  0.33131418  0.90871812  0.28094418  1
  As  As10  1  0.16868582  0.90871812  0.78094418  1
  As  As11  1  0.66868582  0.09128188  0.71905582  1
  As  As12  1  0.83197245  0.15571827  0.45636184  1
  As  As13  1  0.33197245  0.84428173  0.04363816  1
  As  As14  1  0.16802755  0.84428173  0.54363816  1
  As  As15  1  0.66802755  0.15571827  0.95636184  1
  O  O0  1  0.10126319  0.51290091  0.70207890  1
  O  O1  1  0.60126319  0.48709909  0.79792110  1
  O  O2  1  0.89873681  0.48709909  0.29792110  1
  O  O3  1  0.39873681  0.51290091  0.20207890  1
  O  O4  1  0.36377443  0.30086240  0.66464480  1
  O  O5  1  0.86377443  0.69913760  0.83535520  1
  O  O6  1  0.63622557  0.69913760  0.33535520  1
  O  O7  1  0.13622557  0.30086240  0.16464480  1
  O  O8  1  0.45517036  0.19310103  0.48008667  1
  O  O9  1  0.95517036  0.80689897  0.01991333  1
  O  O10  1  0.54482964  0.80689897  0.51991333  1
  O  O11  1  0.04482964  0.19310103  0.98008667  1
  O  O12  1  0.69804289  0.96465742  0.28181584  1
  O  O13  1  0.19804289  0.03534258  0.21818416  1
  O  O14  1  0.30195711  0.03534258  0.71818416  1
  O  O15  1  0.80195711  0.96465742  0.78181584  1
  O  O16  1  0.84768899  0.20113883  0.33125229  1
  O  O17  1  0.34768899  0.79886117  0.16874771  1
  O  O18  1  0.15231101  0.79886117  0.66874771  1
  O  O19  1  0.65231101  0.20113883  0.83125229  1
  O  O20  1  0.95471559  0.30338074  0.51751013  1
  O  O21  1  0.45471559  0.69661926  0.98248987  1
  O  O22  1  0.04528441  0.69661926  0.48248987  1
  O  O23  1  0.54528441  0.30338074  0.01751013  1
loop_
_geom_bond_atom_site_label_1
_geom_bond_atom_site_label_2
_geom_bond_distance
_geom_bond_site_symmetry_2
As0 O1 1.786048 1_555
As0 O4 1.790116 1_555
As0 O0 1.817296 1_555
As1 O0 1.786048 1_655
As1 O5 1.790116 1_555
As1 O1 1.817296 1_555
As2 O3 1.786048 1_555
As2 O6 1.790116 1_555
As2 O2 1.817296 1_555
As3 O2 1.786048 1_455
As3 O7 1.790116 1_555
As3 O3 1.817296 1_555
As4 O20 1.794121 1_455
As4 O8 1.806132 1_555
As4 O4 1.815846 1_555
As5 O21 1.794121 1_555
As5 O9 1.806132 1_556
As5 O5 1.815846 1_555
As6 O22 1.794121 1_655
As6 O10 1.806132 1_555
As6 O6 1.815846 1_555
As7 O23 1.794121 1_555
As7 O11 1.806132 1_554
As7 O7 1.815846 1_555
As8 O13 1.791432 1_655
As8 O16 1.794058 1_555
As8 O12 1.822800 1_545
As9 O12 1.791432 1_555
As9 O17 1.794058 1_555
As9 O13 1.822800 1_565
As10 O15 1.791432 1_455
As10 O18 1.794058 1_555
As10 O14 1.822800 1_565
As11 O14 1.791432 1_555
As11 O19 1.794058 1_555
As11 O15 1.822800 1_545
As12 O8 1.796243 1_555
As12 O20 1.801471 1_555
As12 O16 1.812382 1_555
As13 O9 1.796243 1_455
As13 O21 1.801471 1_554
As13 O17 1.812382 1_555
As14 O10 1.796243 1_555
As14 O22 1.801471 1_555
As14 O18 1.812382 1_555
As15 O11 1.796243 1_655
As15 O23 1.801471 1_556
As15 O19 1.812382 1_555
