# generated using pymatgen
data_Na3AlCl6
_symmetry_space_group_name_H-M   'P 1'
_cell_length_a   7.09000413
_cell_length_b   7.09000413
_cell_length_c   7.09000413
_cell_angle_alpha   60.00000000
_cell_angle_beta   60.00000000
_cell_angle_gamma   60.00000000
_symmetry_Int_Tables_number   1
_chemical_formula_structural   Na3AlCl6
_chemical_formula_sum   'Na3 Al1 Cl6'
_cell_volume   252.01388356
_cell_formula_units_Z   1
loop_
 _symmetry_equiv_pos_site_id
 _symmetry_equiv_pos_as_xyz
  1  'x, y, z'
loop_
 _atom_site_type_symbol
 _atom_site_label
 _atom_site_symmetry_multiplicity
 _atom_site_fract_x
 _atom_site_fract_y
 _atom_site_fract_z
 _atom_site_occupancy
  Na  Na0  1  0.75000000  0.75000000  0.75000000  1
  Na  Na1  1  0.25000000  0.25000000  0.25000000  1
  Na  Na2  1  0.50000000  0.50000000  0.50000000  1
  Al  Al0  1  0.00000000  0.00000000  0.00000000  1
  Cl  Cl0  1  0.76775700  0.23224300  0.23224300  1
  Cl  Cl1  1  0.23224300  0.23224300  0.76775700  1
  Cl  Cl2  1  0.23224300  0.76775700  0.76775700  1
  Cl  Cl3  1  0.23224300  0.76775700  0.23224300  1
  Cl  Cl4  1  0.76775700  0.23224300  0.76775700  1
  Cl  Cl5  1  0.76775700  0.76775700  0.23224300  1
loop_
_geom_bond_atom_site_label_1
_geom_bond_atom_site_label_2
_geom_bond_distance
_geom_bond_site_symmetry_2
Al0 Cl0 2.328649 1_455
Al0 Cl5 2.328649 1_445
Al0 Cl3 2.328649 1_545
Al0 Cl2 2.328649 1_544
Al0 Cl4 2.328649 1_454
Al0 Cl1 2.328649 1_554
Cl0 Na2 2.684741 1_555
Cl1 Na2 2.684741 1_555
Cl2 Na2 2.684741 1_555
Cl3 Na2 2.684741 1_555
Cl4 Na2 2.684741 1_555
Cl5 Na2 2.684741 1_555
