# generated using pymatgen
data_LiUBr4
_symmetry_space_group_name_H-M   'P 1'
_cell_length_a   7.34779240
_cell_length_b   7.34779240
_cell_length_c   12.72381100
_cell_angle_alpha   90.00000000
_cell_angle_beta   90.00000000
_cell_angle_gamma   120.00000364
_symmetry_Int_Tables_number   1
_chemical_formula_structural   LiUBr4
_chemical_formula_sum   'Li3 U3 Br12'
_cell_volume   594.92412527
_cell_formula_units_Z   3
loop_
 _symmetry_equiv_pos_site_id
 _symmetry_equiv_pos_as_xyz
  1  'x, y, z'
loop_
 _atom_site_type_symbol
 _atom_site_label
 _atom_site_symmetry_multiplicity
 _atom_site_fract_x
 _atom_site_fract_y
 _atom_site_fract_z
 _atom_site_occupancy
  Li  Li0  1  0.00000000  0.00000000  0.00000000  1
  Li  Li1  1  0.66666700  0.33333300  0.50000000  1
  Li  Li2  1  0.33333300  0.66666700  0.50000000  1
  U  U0  1  0.66666700  0.33333300  0.00000000  1
  U  U1  1  0.33333300  0.66666700  0.00000000  1
  U  U2  1  0.00000000  0.00000000  0.50000000  1
  Br  Br0  1  0.33296500  0.33296500  0.61760200  1
  Br  Br1  1  0.66703500  0.66703500  0.38239800  1
  Br  Br2  1  0.66703500  0.00000000  0.61760200  1
  Br  Br3  1  0.33296500  0.00000000  0.38239800  1
  Br  Br4  1  0.00000000  0.66703500  0.61760200  1
  Br  Br5  1  0.00000000  0.33296500  0.38239800  1
  Br  Br6  1  0.32011500  0.32011500  0.12334200  1
  Br  Br7  1  0.67988500  0.67988500  0.87665800  1
  Br  Br8  1  0.67988500  0.00000000  0.12334200  1
  Br  Br9  1  0.32011500  0.00000000  0.87665800  1
  Br  Br10  1  0.00000000  0.67988500  0.12334200  1
  Br  Br11  1  0.00000000  0.32011500  0.87665800  1
loop_
_geom_bond_atom_site_label_1
_geom_bond_atom_site_label_2
_geom_bond_distance
_geom_bond_site_symmetry_2
Br0 U2 2.867873 1_555
Br0 Li2 2.871341 1_555
Br0 Li1 2.871341 1_555
Br1 U2 2.867873 1_665
Br1 Li2 2.871341 1_555
Br1 Li1 2.871341 1_555
Br2 U2 2.867873 1_655
Br2 Li1 2.871335 1_555
Br2 Li2 2.871338 1_545
Br3 U2 2.867873 1_555
Br3 Li2 2.871335 1_545
Br3 Li1 2.871338 1_555
Br4 U2 2.867873 1_565
Br4 Li2 2.871335 1_555
Br4 Li1 2.871338 1_455
Br5 U2 2.867873 1_555
Br5 Li1 2.871335 1_455
Br5 Li2 2.871338 1_555
Br6 Li0 2.827633 1_555
Br6 U0 2.951133 1_555
Br6 U1 2.951133 1_555
Br7 Li0 2.827633 1_666
Br7 U0 2.951133 1_556
Br7 U1 2.951133 1_556
Br8 Li0 2.827633 1_655
Br8 U0 2.951127 1_555
Br8 U1 2.951130 1_545
Br9 Li0 2.827633 1_556
Br9 U1 2.951127 1_546
Br9 U0 2.951130 1_556
Br10 Li0 2.827633 1_565
Br10 U1 2.951127 1_555
Br10 U0 2.951130 1_455
Br11 Li0 2.827633 1_556
Br11 U0 2.951127 1_456
Br11 U1 2.951130 1_556
