# generated using pymatgen
data_LaFeSb2
_symmetry_space_group_name_H-M   'P 1'
_cell_length_a   4.37936800
_cell_length_b   4.37936800
_cell_length_c   10.17537500
_cell_angle_alpha   90.00000000
_cell_angle_beta   90.00000000
_cell_angle_gamma   90.00000000
_symmetry_Int_Tables_number   1
_chemical_formula_structural   LaFeSb2
_chemical_formula_sum   'La2 Fe2 Sb4'
_cell_volume   195.15213408
_cell_formula_units_Z   2
loop_
 _symmetry_equiv_pos_site_id
 _symmetry_equiv_pos_as_xyz
  1  'x, y, z'
loop_
 _atom_site_type_symbol
 _atom_site_label
 _atom_site_symmetry_multiplicity
 _atom_site_fract_x
 _atom_site_fract_y
 _atom_site_fract_z
 _atom_site_occupancy
  La  La0  1  0.00000000  0.50000000  0.74316800  1
  La  La1  1  0.50000000  0.00000000  0.25683200  1
  Fe  Fe0  1  0.50000000  0.50000000  0.50000000  1
  Fe  Fe1  1  0.00000000  0.00000000  0.50000000  1
  Sb  Sb0  1  0.50000000  0.50000000  0.00000000  1
  Sb  Sb1  1  0.00000000  0.00000000  0.00000000  1
  Sb  Sb2  1  0.00000000  0.50000000  0.37261700  1
  Sb  Sb3  1  0.50000000  0.00000000  0.62738300  1
loop_
_geom_bond_atom_site_label_1
_geom_bond_atom_site_label_2
_geom_bond_distance
_geom_bond_site_symmetry_2
La0 Sb3 3.313229 1_465
La0 Sb3 3.313229 1_455
La0 Sb3 3.313229 1_555
La0 Sb3 3.313229 1_565
La0 Sb0 3.409454 1_556
La0 Sb1 3.409454 1_556
La0 Sb0 3.409454 1_456
La0 Sb1 3.409454 1_566
La1 Sb2 3.313229 1_655
La1 Sb2 3.313229 1_545
La1 Sb2 3.313229 1_555
La1 Sb2 3.313229 1_645
La1 Sb0 3.409454 1_545
La1 Sb1 3.409454 1_655
La1 Sb1 3.409454 1_555
La1 Sb0 3.409454 1_555
Fe0 Sb2 2.544557 1_555
Fe0 Sb2 2.544557 1_655
Fe0 Sb3 2.544557 1_555
Fe0 Sb3 2.544557 1_565
Fe0 La0 3.304089 1_655
Fe0 La0 3.304089 1_555
Fe0 La1 3.304089 1_555
Fe0 La1 3.304089 1_565
Fe1 Sb2 2.544557 1_545
Fe1 Sb2 2.544557 1_555
Fe1 Sb3 2.544557 1_555
Fe1 Sb3 2.544557 1_455
Fe1 La0 3.304089 1_545
Fe1 La0 3.304089 1_555
Fe1 La1 3.304089 1_555
Fe1 La1 3.304089 1_455
Sb0 Sb1 3.096681 1_565
Sb0 Sb1 3.096681 1_655
Sb0 Sb1 3.096681 1_555
Sb0 Sb1 3.096681 1_665
