# generated using pymatgen
data_Zn3CdGa2(AgS4)2
_symmetry_space_group_name_H-M   'P 1'
_cell_length_a   6.47597746
_cell_length_b   6.77137928
_cell_length_c   8.00445577
_cell_angle_alpha   90.20406418
_cell_angle_beta   89.97672515
_cell_angle_gamma   89.92567523
_symmetry_Int_Tables_number   1
_chemical_formula_structural   Zn3CdGa2(AgS4)2
_chemical_formula_sum   'Zn3 Cd1 Ga2 Ag2 S8'
_cell_volume   351.00323674
_cell_formula_units_Z   1
loop_
 _symmetry_equiv_pos_site_id
 _symmetry_equiv_pos_as_xyz
  1  'x, y, z'
loop_
 _atom_site_type_symbol
 _atom_site_label
 _atom_site_symmetry_multiplicity
 _atom_site_fract_x
 _atom_site_fract_y
 _atom_site_fract_z
 _atom_site_occupancy
  Zn  Zn0  1  0.00283400  0.16602800  0.75098900  1
  Zn  Zn1  1  0.50124600  0.82763600  0.25094200  1
  Zn  Zn2  1  0.50235200  0.83274000  0.74953100  1
  Cd  Cd0  1  0.00055900  0.16847300  0.24844900  1
  Ga  Ga0  1  0.50146000  0.32483600  0.50493000  1
  Ga  Ga1  1  0.00224300  0.67769400  0.99504300  1
  Ag  Ag0  1  0.00710400  0.66463000  0.50240300  1
  Ag  Ag1  1  0.50244400  0.33874800  0.99725100  1
  S  S0  1  0.85680100  0.31590300  0.51561500  1
  S  S1  1  0.36044000  0.69532100  0.99946100  1
  S  S2  1  0.40171800  0.65519400  0.50076200  1
  S  S3  1  0.89744000  0.35383900  0.98468500  1
  S  S4  1  0.39559600  0.16160400  0.26641100  1
  S  S5  1  0.36897500  0.16007200  0.73374700  1
  S  S6  1  0.86561000  0.81530200  0.23343900  1
  S  S7  1  0.87077900  0.84198100  0.76634100  1
loop_
_geom_bond_atom_site_label_1
_geom_bond_atom_site_label_2
_geom_bond_distance
_geom_bond_site_symmetry_2
Cd0 S0 2.533249 1_455
Cd0 S3 2.548886 1_454
Cd0 S6 2.549647 1_445
Cd0 S4 2.562717 1_555
Ga0 S0 2.303528 1_555
Ga0 S4 2.307555 1_555
Ga0 S5 2.313269 1_555
Ga0 S2 2.327920 1_555
Ga1 S6 2.297028 1_456
Ga1 S3 2.297636 1_455
Ga1 S7 2.308007 1_455
Ga1 S1 2.323176 1_555
Ag0 S6 2.555465 1_455
Ag0 S2 2.556254 1_555
Ag0 S0 2.557793 1_455
Ag0 S7 2.581214 1_455
Ag1 S3 2.562107 1_555
Ag1 S4 2.564906 1_556
Ag1 S5 2.577920 1_555
Ag1 S1 2.582575 1_555
S0 Zn0 2.342326 1_655
S1 Zn1 2.382651 1_556
S1 Zn2 2.393043 1_555
S2 Zn1 2.407305 1_555
S2 Zn2 2.412723 1_555
S3 Zn0 2.358413 1_655
S4 Zn1 2.364615 1_545
S5 Zn0 2.375360 1_555
S5 Zn2 2.381588 1_545
S6 Zn1 2.365061 1_555
S7 Zn0 2.359631 1_665
S7 Zn2 2.390658 1_555
