# generated using pymatgen
data_BaNa2
_symmetry_space_group_name_H-M   'P 1'
_cell_length_a   7.37131842
_cell_length_b   7.37132089
_cell_length_c   11.94717232
_cell_angle_alpha   90.00000066
_cell_angle_beta   89.99998164
_cell_angle_gamma   120.00000675
_symmetry_Int_Tables_number   1
_chemical_formula_structural   BaNa2
_chemical_formula_sum   'Ba4 Na8'
_cell_volume   562.19401667
_cell_formula_units_Z   4
loop_
 _symmetry_equiv_pos_site_id
 _symmetry_equiv_pos_as_xyz
  1  'x, y, z'
loop_
 _atom_site_type_symbol
 _atom_site_label
 _atom_site_symmetry_multiplicity
 _atom_site_fract_x
 _atom_site_fract_y
 _atom_site_fract_z
 _atom_site_occupancy
  Ba  Ba0  1  0.33333300  0.66666700  0.43844501  1
  Ba  Ba1  1  0.66666700  0.33333300  0.93846384  1
  Ba  Ba2  1  0.66666700  0.33333300  0.56160607  1
  Ba  Ba3  1  0.33333300  0.66666700  0.06152088  1
  Na  Na0  1  0.16905016  0.33810331  0.75003917  1
  Na  Na1  1  0.83095544  0.16904456  0.24994268  1
  Na  Na2  1  0.33808913  0.16904456  0.24994268  1
  Na  Na3  1  0.66189669  0.83094984  0.75003917  1
  Na  Na4  1  0.00000000  0.00000000  0.99997657  1
  Na  Na5  1  -0.00000000  -0.00000000  0.50004310  1
  Na  Na6  1  0.83095544  0.66191087  0.24994268  1
  Na  Na7  1  0.16905016  0.83094984  0.75003917  1
loop_
_geom_bond_atom_site_label_1
_geom_bond_atom_site_label_2
_geom_bond_distance
_geom_bond_site_symmetry_2
Ba0 Na0 4.272896 1_555
Ba0 Na3 4.272896 1_555
Ba0 Na7 4.272902 1_555
Ba0 Na5 4.318989 1_565
Ba0 Na5 4.318994 1_665
Ba0 Na5 4.318995 1_555
Ba0 Na6 4.319352 1_455
Ba0 Na2 4.319352 1_565
Ba0 Na1 4.319354 1_565
Ba0 Na1 4.319355 1_455
Ba0 Na6 4.319357 1_555
Ba0 Na2 4.319359 1_555
Ba0 Ba2 4.503017 1_455
Ba0 Ba2 4.503019 1_565
Ba0 Ba2 4.503031 1_555
Ba0 Ba3 4.503178 1_555
Ba1 Na1 4.271737 1_556
Ba1 Na2 4.271739 1_556
Ba1 Na6 4.271740 1_556
Ba1 Na4 4.318815 1_655
Ba1 Na4 4.318820 1_555
Ba1 Na4 4.318822 1_665
Ba1 Na0 4.318858 1_655
Ba1 Na3 4.318860 1_545
Ba1 Na7 4.318871 1_655
Ba1 Na7 4.318872 1_545
Ba1 Na0 4.318885 1_555
Ba1 Na3 4.318885 1_555
Ba1 Ba2 4.502385 1_555
Ba1 Ba3 4.502612 1_656
Ba1 Ba3 4.502613 1_546
Ba1 Ba3 4.502625 1_556
Ba2 Na1 4.273658 1_555
Ba2 Na6 4.273661 1_555
Ba2 Na2 4.273661 1_555
Ba2 Na0 4.318912 1_655
Ba2 Na3 4.318913 1_545
Ba2 Na5 4.318917 1_655
Ba2 Na5 4.318923 1_555
Ba2 Na7 4.318923 1_545
Ba2 Na5 4.318924 1_665
Ba2 Na7 4.318925 1_655
Ba2 Na0 4.318936 1_555
Ba2 Na3 4.318938 1_555
Ba3 Na3 4.271725 1_554
Ba3 Na0 4.271726 1_554
Ba3 Na7 4.271732 1_554
Ba3 Na6 4.318849 1_455
Ba3 Na2 4.318851 1_565
Ba3 Na1 4.318853 1_455
Ba3 Na1 4.318854 1_565
Ba3 Na6 4.318857 1_555
Ba3 Na2 4.318857 1_555
Ba3 Na4 4.318880 1_564
Ba3 Na4 4.318884 1_664
Ba3 Na4 4.318886 1_554
Na0 Na3 3.632929 1_555
Na0 Na7 3.632930 1_555
Na0 Na4 3.684428 1_555
Na0 Na5 3.684997 1_555
Na0 Na3 3.738390 1_445
Na0 Na7 3.738391 1_545
Na1 Na2 3.633075 1_555
Na1 Na6 3.633076 1_555
Na1 Na4 3.684653 1_654
Na1 Na5 3.685955 1_655
Na1 Na2 3.738244 1_655
Na1 Na6 3.738245 1_545
Na2 Na6 3.633075 1_555
Na2 Na4 3.684654 1_554
Na2 Na5 3.685953 1_555
Na2 Na6 3.738244 1_445
Na3 Na7 3.632929 1_555
Na3 Na4 3.684429 1_665
Na3 Na5 3.684996 1_665
Na3 Na7 3.738390 1_655
Na4 Na7 3.684417 1_545
Na4 Na6 3.684653 1_446
Na5 Na7 3.684986 1_545
Na5 Na6 3.685955 1_445
