# generated using pymatgen
data_K2Mg(BH4)4
_symmetry_space_group_name_H-M   'P 1'
_cell_length_a   8.28910200
_cell_length_b   9.87314600
_cell_length_c   14.27961686
_cell_angle_alpha   90.00000000
_cell_angle_beta   115.35488277
_cell_angle_gamma   90.00000000
_symmetry_Int_Tables_number   1
_chemical_formula_structural   K2Mg(BH4)4
_chemical_formula_sum   'K8 Mg4 B16 H64'
_cell_volume   1056.06535774
_cell_formula_units_Z   4
loop_
 _symmetry_equiv_pos_site_id
 _symmetry_equiv_pos_as_xyz
  1  'x, y, z'
loop_
 _atom_site_type_symbol
 _atom_site_label
 _atom_site_symmetry_multiplicity
 _atom_site_fract_x
 _atom_site_fract_y
 _atom_site_fract_z
 _atom_site_occupancy
  K  K0  1  0.22254200  0.65474800  0.95618000  1
  K  K1  1  0.22254200  0.84525200  0.45618000  1
  K  K2  1  0.77745800  0.34525200  0.04382000  1
  K  K3  1  0.77745800  0.15474800  0.54382000  1
  K  K4  1  0.48505100  0.01987200  0.78977100  1
  K  K5  1  0.48505100  0.48012800  0.28977100  1
  K  K6  1  0.51494900  0.98012800  0.21022900  1
  K  K7  1  0.51494900  0.51987200  0.71022900  1
  Mg  Mg0  1  0.14097400  0.28762800  0.41645400  1
  Mg  Mg1  1  0.14097400  0.21237200  0.91645400  1
  Mg  Mg2  1  0.85902600  0.71237200  0.58354600  1
  Mg  Mg3  1  0.85902600  0.78762800  0.08354600  1
  B  B0  1  0.18159600  0.71990100  0.68368800  1
  B  B1  1  0.18159600  0.78009900  0.18368800  1
  B  B2  1  0.81840400  0.28009900  0.31631200  1
  B  B3  1  0.81840400  0.21990100  0.81631200  1
  B  B4  1  0.66250100  0.83378100  0.63937300  1
  B  B5  1  0.66250100  0.66621900  0.13937300  1
  B  B6  1  0.33749900  0.16621900  0.36062700  1
  B  B7  1  0.33749900  0.33378100  0.86062700  1
  B  B8  1  0.77719800  0.02600200  0.07765100  1
  B  B9  1  0.77719800  0.47399800  0.57765100  1
  B  B10  1  0.22280200  0.97399800  0.92234900  1
  B  B11  1  0.22280200  0.52600200  0.42234900  1
  B  B12  1  0.19031700  0.34456100  0.07105000  1
  B  B13  1  0.19031700  0.15543900  0.57105000  1
  B  B14  1  0.80968300  0.65543900  0.92895000  1
  B  B15  1  0.80968300  0.84456100  0.42895000  1
  H  H0  1  0.10263600  0.63815700  0.61380800  1
  H  H1  1  0.10263600  0.86184300  0.11380800  1
  H  H2  1  0.89736400  0.36184300  0.38619200  1
  H  H3  1  0.89736400  0.13815700  0.88619200  1
  H  H4  1  0.25757200  0.65560700  0.76370300  1
  H  H5  1  0.25757200  0.84439300  0.26370300  1
  H  H6  1  0.74242800  0.34439300  0.23629700  1
  H  H7  1  0.74242800  0.15560700  0.73629700  1
  H  H8  1  0.08076100  0.80320200  0.69565500  1
  H  H9  1  0.08076100  0.69679800  0.19565500  1
  H  H10  1  0.91923900  0.19679800  0.30434500  1
  H  H11  1  0.91923900  0.30320200  0.80434500  1
  H  H12  1  0.28647400  0.78243600  0.66058700  1
  H  H13  1  0.28647400  0.71756400  0.16058700  1
  H  H14  1  0.71352600  0.21756400  0.33941300  1
  H  H15  1  0.71352600  0.28243600  0.83941300  1
  H  H16  1  0.70236600  0.95275400  0.64217800  1
  H  H17  1  0.70236600  0.54724600  0.14217800  1
  H  H18  1  0.29763400  0.04724600  0.35782200  1
  H  H19  1  0.29763400  0.45275400  0.85782200  1
  H  H20  1  0.54391800  0.81535800  0.66688900  1
  H  H21  1  0.54391800  0.68464200  0.16688900  1
  H  H22  1  0.45608200  0.18464200  0.33311100  1
  H  H23  1  0.45608200  0.31535800  0.83311100  1
  H  H24  1  0.79330000  0.77060300  0.70029100  1
  H  H25  1  0.79330000  0.72939700  0.20029100  1
  H  H26  1  0.20670000  0.22939700  0.29970900  1
  H  H27  1  0.20670000  0.27060300  0.79970900  1
  H  H28  1  0.60887400  0.78984000  0.54998800  1
  H  H29  1  0.60887400  0.71016000  0.04998800  1
  H  H30  1  0.39112600  0.21016000  0.45001200  1
  H  H31  1  0.39112600  0.28984000  0.95001200  1
  H  H32  1  0.68710400  0.95412400  0.00190100  1
  H  H33  1  0.68710400  0.54587600  0.50190100  1
  H  H34  1  0.31289600  0.04587600  0.99809900  1
  H  H35  1  0.31289600  0.45412400  0.49809900  1
  H  H36  1  0.84683500  0.95665600  0.15687600  1
  H  H37  1  0.84683500  0.54334400  0.65687600  1
  H  H38  1  0.15316500  0.04334400  0.84312400  1
  H  H39  1  0.15316500  0.45665600  0.34312400  1
  H  H40  1  0.67634100  0.10403500  0.09234800  1
  H  H41  1  0.67634100  0.39596500  0.59234800  1
  H  H42  1  0.32365900  0.89596500  0.90765200  1
  H  H43  1  0.32365900  0.60403500  0.40765200  1
  H  H44  1  0.89485100  0.08214900  0.06292300  1
  H  H45  1  0.89485100  0.41785100  0.56292300  1
  H  H46  1  0.10514900  0.91785100  0.93707700  1
  H  H47  1  0.10514900  0.58214900  0.43707700  1
  H  H48  1  0.34180400  0.38512200  0.09536400  1
  H  H49  1  0.34180400  0.11487800  0.59536400  1
  H  H50  1  0.65819600  0.61487800  0.90463600  1
  H  H51  1  0.65819600  0.88512200  0.40463600  1
  H  H52  1  0.13297200  0.37429800  0.13397400  1
  H  H53  1  0.13297200  0.12570200  0.63397400  1
  H  H54  1  0.86702800  0.62570200  0.86602600  1
  H  H55  1  0.86702800  0.87429800  0.36602600  1
  H  H56  1  0.19012700  0.21913300  0.06750300  1
  H  H57  1  0.19012700  0.28086700  0.56750300  1
  H  H58  1  0.80987300  0.78086700  0.93249700  1
  H  H59  1  0.80987300  0.71913300  0.43249700  1
  H  H60  1  0.09157200  0.39206800  0.98546500  1
  H  H61  1  0.09157200  0.10793200  0.48546500  1
  H  H62  1  0.90842800  0.60793200  0.01453500  1
  H  H63  1  0.90842800  0.89206800  0.51453500  1
loop_
_geom_bond_atom_site_label_1
_geom_bond_atom_site_label_2
_geom_bond_distance
_geom_bond_site_symmetry_2
B0 H4 1.220160 1_555
B0 H12 1.221223 1_555
B0 H0 1.231306 1_555
B0 H8 1.235538 1_555
B1 H5 1.220160 1_555
B1 H13 1.221223 1_555
B1 H1 1.231306 1_555
B1 H9 1.235538 1_555
B2 H6 1.220160 1_555
B2 H14 1.221223 1_555
B2 H2 1.231306 1_555
B2 H10 1.235538 1_555
B3 H7 1.220160 1_555
B3 H15 1.221223 1_555
B3 H3 1.231306 1_555
B3 H11 1.235538 1_555
B4 H16 1.216239 1_555
B4 H20 1.218371 1_555
B4 H24 1.230261 1_555
B4 H28 1.236542 1_555
B5 H17 1.216239 1_555
B5 H21 1.218371 1_555
B5 H25 1.230261 1_555
B5 H29 1.236542 1_555
B6 H18 1.216239 1_555
B6 H22 1.218371 1_555
B6 H26 1.230261 1_555
B6 H30 1.236542 1_555
B7 H19 1.216239 1_555
B7 H23 1.218371 1_555
B7 H27 1.230261 1_555
B7 H31 1.236542 1_555
B8 H44 1.215845 1_555
B8 H40 1.219341 1_555
B8 H36 1.233906 1_545
B8 H32 1.240776 1_545
B9 H45 1.215845 1_555
B9 H41 1.219341 1_555
B9 H37 1.233906 1_555
B9 H33 1.240776 1_555
B10 H46 1.215845 1_555
B10 H42 1.219341 1_555
B10 H38 1.233906 1_565
B10 H34 1.240776 1_565
B11 H47 1.215845 1_555
B11 H43 1.219341 1_555
B11 H39 1.233906 1_555
B11 H35 1.240776 1_555
B12 H48 1.218315 1_555
B12 H52 1.218728 1_555
B12 H60 1.235645 1_554
B12 H56 1.239378 1_555
B13 H49 1.218315 1_555
B13 H53 1.218728 1_555
B13 H61 1.235645 1_555
B13 H57 1.239378 1_555
B14 H50 1.218315 1_555
B14 H54 1.218728 1_555
B14 H62 1.235645 1_556
B14 H58 1.239378 1_555
B15 H51 1.218315 1_555
B15 H55 1.218728 1_555
B15 H63 1.235645 1_555
B15 H59 1.239378 1_555
H0 Mg2 2.013431 1_455
H1 Mg3 2.013431 1_455
H2 Mg0 2.013431 1_655
H3 Mg1 2.013431 1_655
H4 K0 2.884811 1_555
H4 K7 2.885432 1_555
H5 K1 2.884811 1_555
H5 K6 2.885432 1_555
H6 K2 2.884811 1_555
H6 K5 2.885432 1_555
H7 K3 2.884811 1_555
H7 K4 2.885432 1_555
H8 Mg2 2.055529 1_455
H9 Mg3 2.055529 1_455
H10 Mg0 2.055529 1_655
H11 Mg1 2.055529 1_655
H12 K1 2.803643 1_555
H12 K4 3.001206 1_565
H13 K0 2.803643 1_554
H13 K5 3.001206 1_555
H14 K3 2.803643 1_555
H14 K6 3.001206 1_545
H15 K2 2.803643 1_556
H15 K7 3.001206 1_555
H16 K3 2.661979 1_565
H17 K2 2.661979 1_555
H18 K1 2.661979 1_545
H19 K0 2.661979 1_555
H20 K4 2.850888 1_565
H20 K7 3.013143 1_555
H21 K5 2.850888 1_555
H21 K6 3.013143 1_555
H22 K6 2.850888 1_545
H22 K5 3.013143 1_555
H23 K7 2.850888 1_555
H23 K4 3.013143 1_555
H24 Mg2 2.045568 1_555
H25 Mg3 2.045568 1_555
H26 Mg0 2.045568 1_555
H27 Mg1 2.045568 1_555
H28 Mg2 2.064749 1_555
H28 K1 2.945304 1_555
H29 Mg3 2.064749 1_555
H29 K0 2.945304 1_554
H30 Mg0 2.064749 1_555
H30 K3 2.945304 1_555
H31 Mg1 2.064749 1_555
H31 K2 2.945304 1_556
H32 Mg3 2.160868 1_555
H32 K4 2.838503 1_564
H33 Mg2 2.160868 1_555
H33 K5 2.838503 1_555
H34 Mg1 2.160868 1_555
H34 K6 2.838503 1_546
H35 Mg0 2.160868 1_555
H35 K7 2.838503 1_555
H36 Mg3 1.995577 1_555
H37 Mg2 1.995577 1_555
H38 Mg1 1.995577 1_555
H39 Mg0 1.995577 1_555
H40 K2 2.711465 1_555
H40 K6 2.836971 1_545
H41 K3 2.711465 1_555
H41 K7 2.836971 1_555
H42 K0 2.711465 1_555
H42 K4 2.836971 1_565
H43 K1 2.711465 1_555
H43 K5 2.836971 1_555
H44 K2 2.746229 1_555
H45 K3 2.746229 1_555
H46 K0 2.746229 1_555
H47 K1 2.746229 1_555
H48 K5 2.678278 1_555
H49 K4 2.678278 1_555
H50 K7 2.678278 1_555
H51 K6 2.678278 1_555
H52 K2 2.678543 1_455
H52 K5 2.999615 1_555
H53 K3 2.678543 1_455
H53 K4 2.999615 1_555
H54 K0 2.678543 1_655
H54 K7 2.999615 1_555
H55 K1 2.678543 1_655
H55 K6 2.999615 1_555
H56 Mg1 2.017454 1_554
H57 Mg0 2.017454 1_555
H58 Mg3 2.017454 1_556
H59 Mg2 2.017454 1_555
H60 Mg1 2.152225 1_555
H60 K0 2.910051 1_555
H61 Mg0 2.152225 1_555
H61 K1 2.910051 1_545
H62 Mg3 2.152225 1_555
H62 K2 2.910051 1_555
H63 Mg2 2.152225 1_555
H63 K3 2.910051 1_565
