# generated using pymatgen
data_UCo4Sn
_symmetry_space_group_name_H-M   'P 1'
_cell_length_a   4.94047447
_cell_length_b   4.94047447
_cell_length_c   4.94047447
_cell_angle_alpha   60.00000000
_cell_angle_beta   60.00000000
_cell_angle_gamma   60.00000000
_symmetry_Int_Tables_number   1
_chemical_formula_structural   UCo4Sn
_chemical_formula_sum   'U1 Co4 Sn1'
_cell_volume   85.26896282
_cell_formula_units_Z   1
loop_
 _symmetry_equiv_pos_site_id
 _symmetry_equiv_pos_as_xyz
  1  'x, y, z'
loop_
 _atom_site_type_symbol
 _atom_site_label
 _atom_site_symmetry_multiplicity
 _atom_site_fract_x
 _atom_site_fract_y
 _atom_site_fract_z
 _atom_site_occupancy
  U  U0  1  0.00000000  0.00000000  0.00000000  1
  Co  Co0  1  0.62348400  0.12954700  0.62348400  1
  Co  Co1  1  0.62348400  0.62348400  0.62348400  1
  Co  Co2  1  0.12954700  0.62348400  0.62348400  1
  Co  Co3  1  0.62348400  0.62348400  0.12954700  1
  Sn  Sn0  1  0.25000000  0.25000000  0.25000000  1
loop_
_geom_bond_atom_site_label_1
_geom_bond_atom_site_label_2
_geom_bond_distance
_geom_bond_site_symmetry_2
Co0 Co1 2.440283 1_555
Co0 Co2 2.440283 1_555
Co0 Co3 2.440283 1_555
Co0 Co2 2.500191 1_645
Co0 Co3 2.500191 1_546
Co0 Co1 2.500191 1_545
Co0 Sn0 2.893471 1_555
Co0 Sn0 2.893475 1_556
Co0 Sn0 2.893475 1_655
Co0 U0 2.899858 1_556
Co0 U0 2.899858 1_655
Co0 U0 2.899862 1_656
Co1 Co2 2.440283 1_555
Co1 Co3 2.440283 1_555
Co1 Co3 2.500191 1_556
Co1 Co2 2.500191 1_655
Co1 Sn0 2.893473 1_565
Co1 Sn0 2.893473 1_655
Co1 Sn0 2.893473 1_556
Co1 U0 2.899860 1_656
Co1 U0 2.899860 1_665
Co1 U0 2.899860 1_566
Co2 Co3 2.440283 1_555
Co2 Co3 2.500191 1_456
Co2 Sn0 2.893471 1_555
Co2 Sn0 2.893475 1_556
Co2 Sn0 2.893475 1_565
Co2 U0 2.899858 1_556
Co2 U0 2.899858 1_565
Co2 U0 2.899862 1_566
Co3 Sn0 2.893471 1_555
Co3 Sn0 2.893475 1_655
Co3 Sn0 2.893475 1_565
Co3 U0 2.899858 1_655
Co3 U0 2.899858 1_565
Co3 U0 2.899862 1_665
Sn0 U0 3.025410 1_556
Sn0 U0 3.025410 1_555
Sn0 U0 3.025410 1_655
Sn0 U0 3.025410 1_565
