# generated using pymatgen
data_HgH3CN3
_symmetry_space_group_name_H-M   'P 1'
_cell_length_a   7.51216700
_cell_length_b   7.69610200
_cell_length_c   9.36702241
_cell_angle_alpha   76.17989564
_cell_angle_beta   90.00000000
_cell_angle_gamma   90.00000000
_symmetry_Int_Tables_number   1
_chemical_formula_structural   HgH3CN3
_chemical_formula_sum   'Hg4 H12 C4 N12'
_cell_volume   525.87125746
_cell_formula_units_Z   4
loop_
 _symmetry_equiv_pos_site_id
 _symmetry_equiv_pos_as_xyz
  1  'x, y, z'
loop_
 _atom_site_type_symbol
 _atom_site_label
 _atom_site_symmetry_multiplicity
 _atom_site_fract_x
 _atom_site_fract_y
 _atom_site_fract_z
 _atom_site_occupancy
  Hg  Hg0  1  0.63059700  0.25940500  0.67905200  1
  Hg  Hg1  1  0.13059700  0.24059500  0.32094800  1
  Hg  Hg2  1  0.36940300  0.74059500  0.32094800  1
  Hg  Hg3  1  0.86940300  0.75940500  0.67905200  1
  H  H0  1  0.58538300  0.44127400  0.88395600  1
  H  H1  1  0.08538300  0.05872600  0.11604400  1
  H  H2  1  0.41461700  0.55872600  0.11604400  1
  H  H3  1  0.91461700  0.94127400  0.88395600  1
  H  H4  1  0.38500000  0.32315000  0.86207400  1
  H  H5  1  0.88500000  0.17685000  0.13792600  1
  H  H6  1  0.61500000  0.67685000  0.13792600  1
  H  H7  1  0.11500000  0.82315000  0.86207400  1
  H  H8  1  0.56874800  0.20545500  0.96444300  1
  H  H9  1  0.06874800  0.29454500  0.03555700  1
  H  H10  1  0.43125200  0.79454500  0.03555700  1
  H  H11  1  0.93125200  0.70545500  0.96444300  1
  C  C0  1  0.53012700  0.31425800  0.87129500  1
  C  C1  1  0.03012700  0.18574200  0.12870500  1
  C  C2  1  0.46987300  0.68574200  0.12870500  1
  C  C3  1  0.96987300  0.81425800  0.87129500  1
  N  N0  1  0.65342800  0.17412600  0.39329100  1
  N  N1  1  0.15342800  0.32587400  0.60670900  1
  N  N2  1  0.34657200  0.82587400  0.60670900  1
  N  N3  1  0.84657200  0.67412600  0.39329100  1
  N  N4  1  0.57048500  0.15352800  0.29408600  1
  N  N5  1  0.07048500  0.34647200  0.70591400  1
  N  N6  1  0.42951500  0.84647200  0.70591400  1
  N  N7  1  0.92951500  0.65352800  0.29408600  1
  N  N8  1  0.75091200  0.19341800  0.49218800  1
  N  N9  1  0.25091200  0.30658200  0.50781200  1
  N  N10  1  0.24908800  0.80658200  0.50781200  1
  N  N11  1  0.74908800  0.69341800  0.49218800  1
loop_
_geom_bond_atom_site_label_1
_geom_bond_atom_site_label_2
_geom_bond_distance
_geom_bond_site_symmetry_2
Hg0 N8 2.136174 1_555
Hg1 N9 2.136174 1_555
Hg2 N10 2.136174 1_555
Hg3 N11 2.136174 1_555
C0 H0 1.094218 1_555
C0 H8 1.094342 1_555
C0 H4 1.094484 1_555
C0 Hg0 2.086557 1_555
C1 H1 1.094218 1_555
C1 H9 1.094342 1_555
C1 H5 1.094484 1_455
C1 Hg1 2.086557 1_555
C2 H2 1.094218 1_555
C2 H10 1.094342 1_555
C2 H6 1.094484 1_555
C2 Hg2 2.086557 1_555
C3 H3 1.094218 1_555
C3 H11 1.094342 1_555
C3 H7 1.094484 1_655
C3 Hg3 2.086557 1_555
N0 N4 1.160712 1_555
N0 N8 1.217458 1_555
N1 N5 1.160712 1_555
N1 N9 1.217458 1_555
N2 N6 1.160712 1_555
N3 N7 1.160712 1_555
N10 N2 1.217458 1_555
N11 N3 1.217458 1_555
