# generated using pymatgen
data_Mg6NbCu
_symmetry_space_group_name_H-M   'P 1'
_cell_length_a   4.83660600
_cell_length_b   6.05254400
_cell_length_c   10.80851100
_cell_angle_alpha   90.00000000
_cell_angle_beta   90.00000000
_cell_angle_gamma   90.00000000
_symmetry_Int_Tables_number   1
_chemical_formula_structural   Mg6NbCu
_chemical_formula_sum   'Mg12 Nb2 Cu2'
_cell_volume   316.40587182
_cell_formula_units_Z   2
loop_
 _symmetry_equiv_pos_site_id
 _symmetry_equiv_pos_as_xyz
  1  'x, y, z'
loop_
 _atom_site_type_symbol
 _atom_site_label
 _atom_site_symmetry_multiplicity
 _atom_site_fract_x
 _atom_site_fract_y
 _atom_site_fract_z
 _atom_site_occupancy
  Mg  Mg0  1  0.00000000  0.74126500  0.08551600  1
  Mg  Mg1  1  0.00000000  0.25873500  0.08551600  1
  Mg  Mg2  1  0.00000000  0.00000000  0.33061900  1
  Mg  Mg3  1  0.50000000  0.25742100  0.41861000  1
  Mg  Mg4  1  0.50000000  0.74257900  0.41861000  1
  Mg  Mg5  1  0.50000000  0.00000000  0.16686900  1
  Mg  Mg6  1  0.00000000  0.24126500  0.58551600  1
  Mg  Mg7  1  0.00000000  0.75873500  0.58551600  1
  Mg  Mg8  1  0.00000000  0.50000000  0.83061900  1
  Mg  Mg9  1  0.50000000  0.75742100  0.91861000  1
  Mg  Mg10  1  0.50000000  0.24257900  0.91861000  1
  Mg  Mg11  1  0.50000000  0.50000000  0.66686900  1
  Nb  Nb0  1  0.50000000  0.50000000  0.17795900  1
  Nb  Nb1  1  0.50000000  0.00000000  0.67795900  1
  Cu  Cu0  1  0.00000000  0.50000000  0.31630000  1
  Cu  Cu1  1  0.00000000  0.00000000  0.81630000  1
loop_
_geom_bond_atom_site_label_1
_geom_bond_atom_site_label_2
_geom_bond_distance
_geom_bond_site_symmetry_2
Mg0 Mg1 2.920534 1_555
Mg0 Nb0 2.996483 1_555
Mg0 Nb0 2.996483 1_455
Mg0 Mg5 3.012265 1_565
Mg0 Mg5 3.012265 1_465
Mg0 Mg9 3.018640 1_454
Mg0 Mg9 3.018640 1_554
Mg0 Mg2 3.077438 1_565
Mg0 Mg8 3.118127 1_554
Mg0 Mg1 3.132010 1_565
Mg1 Nb0 2.996483 1_555
Mg1 Nb0 2.996483 1_455
Mg1 Mg5 3.012265 1_555
Mg1 Mg5 3.012265 1_455
Mg1 Mg10 3.018640 1_454
Mg1 Mg10 3.018640 1_554
Mg1 Mg2 3.077438 1_555
Mg1 Mg8 3.118127 1_554
Mg2 Mg5 2.996784 1_555
Mg2 Mg5 2.996784 1_455
Mg2 Mg3 3.029887 1_555
Mg2 Mg4 3.029887 1_445
Mg2 Mg4 3.029887 1_545
Mg2 Mg3 3.029887 1_455
Mg2 Mg6 3.118127 1_555
Mg2 Mg7 3.118127 1_545
Mg3 Mg4 2.936440 1_555
Mg3 Nb0 2.986852 1_555
Mg3 Mg6 3.018640 1_555
Mg3 Mg6 3.018640 1_655
Mg3 Mg4 3.116104 1_545
Mg3 Mg5 3.135454 1_555
Mg3 Nb1 3.207074 1_555
Mg4 Nb0 2.986852 1_555
Mg4 Mg7 3.018640 1_555
Mg4 Mg7 3.018640 1_655
Mg4 Mg5 3.135454 1_565
Mg4 Nb1 3.207074 1_565
Mg5 Nb0 3.028645 1_545
Mg5 Nb0 3.028645 1_555
Mg5 Mg9 3.058729 1_544
Mg6 Mg7 2.920534 1_545
Mg6 Nb1 2.996483 1_455
Mg6 Nb1 2.996483 1_555
Mg6 Mg8 3.077438 1_555
Mg6 Mg7 3.132010 1_555
Mg7 Nb1 2.996483 1_465
Mg7 Nb1 2.996483 1_565
Mg7 Mg8 3.077438 1_555
Mg8 Mg9 3.029887 1_455
Mg8 Mg9 3.029887 1_555
Mg9 Nb1 2.986852 1_565
Mg9 Nb0 3.207074 1_556
Mg10 Mg9 2.936440 1_545
Mg10 Nb1 2.986852 1_555
Mg10 Mg8 3.029887 1_655
Mg10 Mg8 3.029887 1_555
Mg10 Mg5 3.058729 1_556
Mg10 Mg9 3.116104 1_555
Mg10 Mg11 3.135454 1_555
Mg10 Nb0 3.207074 1_556
Mg11 Mg8 2.996784 1_655
Mg11 Mg8 2.996784 1_555
Mg11 Mg7 3.012265 1_655
Mg11 Mg7 3.012265 1_555
Mg11 Mg6 3.012265 1_555
Mg11 Mg6 3.012265 1_655
Mg11 Nb1 3.028645 1_555
Mg11 Nb1 3.028645 1_565
Mg11 Mg4 3.058729 1_555
Mg11 Mg3 3.058729 1_555
Mg11 Mg9 3.135454 1_555
Cu0 Nb0 2.843236 1_455
Cu0 Nb0 2.843236 1_555
Cu0 Mg0 2.890427 1_555
Cu0 Mg1 2.890427 1_555
Cu0 Mg2 3.030227 1_555
Cu0 Mg2 3.030227 1_565
Cu0 Mg4 3.037547 1_455
Cu0 Mg3 3.037547 1_555
Cu0 Mg4 3.037547 1_555
Cu0 Mg3 3.037547 1_455
Cu0 Mg7 3.304459 1_555
Cu0 Mg6 3.304459 1_555
Cu1 Nb1 2.843236 1_555
Cu1 Nb1 2.843236 1_455
Cu1 Mg6 2.890427 1_555
Cu1 Mg7 2.890427 1_545
Cu1 Mg8 3.030227 1_545
Cu1 Mg8 3.030227 1_555
Cu1 Mg9 3.037547 1_545
Cu1 Mg9 3.037547 1_445
Cu1 Mg10 3.037547 1_555
Cu1 Mg10 3.037547 1_455
Cu1 Mg1 3.304459 1_556
Cu1 Mg0 3.304459 1_546
