# generated using pymatgen
data_Ta7Co6
_symmetry_space_group_name_H-M   'P 1'
_cell_length_a   4.95215832
_cell_length_b   4.95215832
_cell_length_c   9.18149202
_cell_angle_alpha   74.35468016
_cell_angle_beta   74.35468016
_cell_angle_gamma   59.99999574
_symmetry_Int_Tables_number   1
_chemical_formula_structural   Ta7Co6
_chemical_formula_sum   'Ta7 Co6'
_cell_volume   185.30357389
_cell_formula_units_Z   1
loop_
 _symmetry_equiv_pos_site_id
 _symmetry_equiv_pos_as_xyz
  1  'x, y, z'
loop_
 _atom_site_type_symbol
 _atom_site_label
 _atom_site_symmetry_multiplicity
 _atom_site_fract_x
 _atom_site_fract_y
 _atom_site_fract_z
 _atom_site_occupancy
  Ta  Ta0  1  0.00000000  0.00000000  0.00000000  1
  Ta  Ta1  1  0.16683600  0.16683600  0.49949200  1
  Ta  Ta2  1  0.83316400  0.83316400  0.50050800  1
  Ta  Ta3  1  0.34569800  0.34569800  0.96290600  1
  Ta  Ta4  1  0.65430200  0.65430200  0.03709400  1
  Ta  Ta5  1  0.45086100  0.45086100  0.64741600  1
  Ta  Ta6  1  0.54913900  0.54913900  0.35258400  1
  Co  Co0  1  0.58130300  0.09298900  0.23271800  1
  Co  Co1  1  0.09298900  0.09298900  0.23271800  1
  Co  Co2  1  0.09298900  0.58130300  0.23271800  1
  Co  Co3  1  0.41869700  0.90701100  0.76728200  1
  Co  Co4  1  0.90701100  0.90701100  0.76728200  1
  Co  Co5  1  0.90701100  0.41869700  0.76728200  1
loop_
_geom_bond_atom_site_label_1
_geom_bond_atom_site_label_2
_geom_bond_distance
_geom_bond_site_symmetry_2
Ta0 Ta3 2.877389 1_544
Ta0 Ta3 2.877389 1_454
Ta0 Ta4 2.877389 1_545
Ta0 Ta4 2.877389 1_455
Ta0 Ta4 2.877389 1_445
Ta0 Ta3 2.877389 1_554
Ta3 Ta5 2.752642 1_555
Ta3 Ta4 2.931485 1_546
Ta3 Ta4 2.931485 1_456
Ta3 Ta4 2.931485 1_556
Ta4 Ta6 2.752642 1_555
Ta5 Ta6 2.572402 1_555
Co0 Co2 2.418208 1_555
Co0 Co1 2.418208 1_555
Co0 Ta0 2.502612 1_655
Co0 Co2 2.533950 1_645
Co0 Co1 2.533950 1_655
Co0 Ta6 2.688088 1_545
Co0 Ta6 2.688097 1_555
Co0 Ta1 2.714211 1_555
Co0 Ta3 2.736976 1_554
Co0 Ta2 2.756693 1_545
Co0 Ta4 3.007538 1_545
Co0 Ta4 3.007542 1_555
Co1 Co2 2.418208 1_555
Co1 Ta0 2.502610 1_555
Co1 Co2 2.533950 1_545
Co1 Ta6 2.688092 1_545
Co1 Ta6 2.688092 1_455
Co1 Ta1 2.714214 1_555
Co1 Ta3 2.736978 1_554
Co1 Ta2 2.756690 1_445
Co1 Ta4 3.007540 1_545
Co1 Ta4 3.007540 1_455
Co2 Ta0 2.502612 1_565
Co2 Ta6 2.688088 1_455
Co2 Ta6 2.688097 1_555
Co2 Ta1 2.714211 1_555
Co2 Ta3 2.736976 1_554
Co2 Ta2 2.756693 1_455
Co2 Ta4 3.007538 1_455
Co2 Ta4 3.007542 1_555
Co3 Co5 2.418208 1_555
Co3 Co4 2.418208 1_555
Co3 Ta0 2.502612 1_566
Co3 Co5 2.533950 1_465
Co3 Co4 2.533950 1_455
Co3 Ta5 2.688088 1_565
Co3 Ta5 2.688097 1_555
Co3 Ta2 2.714211 1_555
Co3 Ta4 2.736976 1_556
Co3 Ta1 2.756693 1_565
Co3 Ta3 3.007538 1_565
Co3 Ta3 3.007542 1_555
Co4 Co5 2.418208 1_555
Co4 Ta0 2.502610 1_666
Co4 Co5 2.533950 1_565
Co4 Ta5 2.688092 1_655
Co4 Ta5 2.688092 1_565
Co4 Ta2 2.714214 1_555
Co4 Ta4 2.736978 1_556
Co4 Ta1 2.756690 1_665
Co4 Ta3 3.007540 1_565
Co4 Ta3 3.007540 1_655
Co5 Ta0 2.502612 1_656
Co5 Ta5 2.688088 1_655
Co5 Ta5 2.688097 1_555
Co5 Ta2 2.714211 1_555
Co5 Ta4 2.736976 1_556
Co5 Ta1 2.756693 1_655
Co5 Ta3 3.007538 1_655
Co5 Ta3 3.007542 1_555
