# generated using pymatgen
data_Ho2Re2Si2C
_symmetry_space_group_name_H-M   'P 1'
_cell_length_a   5.81395598
_cell_length_b   5.81395598
_cell_length_c   6.91169539
_cell_angle_alpha   55.14845293
_cell_angle_beta   55.14845293
_cell_angle_gamma   40.06832071
_symmetry_Int_Tables_number   1
_chemical_formula_structural   Ho2Re2Si2C
_chemical_formula_sum   'Ho2 Re2 Si2 C1'
_cell_volume   119.36846462
_cell_formula_units_Z   1
loop_
 _symmetry_equiv_pos_site_id
 _symmetry_equiv_pos_as_xyz
  1  'x, y, z'
loop_
 _atom_site_type_symbol
 _atom_site_label
 _atom_site_symmetry_multiplicity
 _atom_site_fract_x
 _atom_site_fract_y
 _atom_site_fract_z
 _atom_site_occupancy
  Ho  Ho0  1  0.42798900  0.42798900  0.29920500  1
  Ho  Ho1  1  0.57201100  0.57201100  0.70079500  1
  Re  Re0  1  0.79242100  0.79242100  0.09322700  1
  Re  Re1  1  0.20757900  0.20757900  0.90677300  1
  Si  Si0  1  0.85830600  0.85830600  0.68055700  1
  Si  Si1  1  0.14169400  0.14169400  0.31944300  1
  C  C0  1  0.00000000  0.00000000  0.00000000  1
loop_
_geom_bond_atom_site_label_1
_geom_bond_atom_site_label_2
_geom_bond_distance
_geom_bond_site_symmetry_2
Ho0 Si0 3.008825 1_455
Ho0 Si0 3.008825 1_545
Ho0 Si1 3.044512 1_555
Ho0 Si1 3.135941 1_565
Ho0 Si1 3.135941 1_655
Ho1 Si1 3.008825 1_655
Ho1 Si1 3.008825 1_565
Ho1 Si0 3.044512 1_555
Ho1 Si0 3.135941 1_455
Ho1 Si0 3.135941 1_545
Re0 Si1 2.447657 1_565
Re0 Si1 2.447657 1_655
Re0 Si0 2.481124 1_554
Re1 Si0 2.447657 1_455
Re1 Si0 2.447657 1_545
Re1 Si1 2.481124 1_556
Si0 Si1 2.532538 1_665
C0 Re0 1.944196 1_445
C0 Re1 1.944196 1_554
C0 Ho0 2.623643 1_455
C0 Ho1 2.623643 1_454
C0 Ho0 2.623643 1_545
C0 Ho1 2.623643 1_544
