# generated using pymatgen
data_Sm7Ti4(Se2O)6
_symmetry_space_group_name_H-M   'P 1'
_cell_length_a   14.25849179
_cell_length_b   14.25849179
_cell_length_c   11.19903059
_cell_angle_alpha   89.58191578
_cell_angle_beta   89.58191578
_cell_angle_gamma   15.39446971
_symmetry_Int_Tables_number   1
_chemical_formula_structural   Sm7Ti4(Se2O)6
_chemical_formula_sum   'Sm7 Ti4 Se12 O6'
_cell_volume   604.39370699
_cell_formula_units_Z   1
loop_
 _symmetry_equiv_pos_site_id
 _symmetry_equiv_pos_as_xyz
  1  'x, y, z'
loop_
 _atom_site_type_symbol
 _atom_site_label
 _atom_site_symmetry_multiplicity
 _atom_site_fract_x
 _atom_site_fract_y
 _atom_site_fract_z
 _atom_site_occupancy
  Sm  Sm0  1  0.05761300  0.05761300  0.73053900  1
  Sm  Sm1  1  0.94680800  0.94680800  0.26999100  1
  Sm  Sm2  1  0.56789100  0.56789100  0.22949200  1
  Sm  Sm3  1  0.43823500  0.43823500  0.76735300  1
  Sm  Sm4  1  0.19615500  0.19615500  0.57587000  1
  Sm  Sm5  1  0.79908700  0.79908700  0.42294800  1
  Sm  Sm6  1  0.32524900  0.32524900  0.04634600  1
  Ti  Ti0  1  0.20882300  0.20882300  0.26508600  1
  Ti  Ti1  1  0.78591200  0.78591200  0.73123800  1
  Ti  Ti2  1  0.50060800  0.50060800  0.49987900  1
  Ti  Ti3  1  0.00091300  0.00091300  0.99948600  1
  Se  Se0  1  0.43703000  0.43703000  0.04919300  1
  Se  Se1  1  0.56127300  0.56127300  0.95204100  1
  Se  Se2  1  0.33933700  0.33933700  0.62196400  1
  Se  Se3  1  0.66197400  0.66197400  0.38148800  1
  Se  Se4  1  0.06399100  0.06399100  0.45774600  1
  Se  Se5  1  0.93573400  0.93573400  0.54070200  1
  Se  Se6  1  0.75745200  0.75745200  0.15454000  1
  Se  Se7  1  0.24634000  0.24634000  0.84627400  1
  Se  Se8  1  0.13992700  0.13992700  0.13439700  1
  Se  Se9  1  0.85984700  0.85984700  0.87331200  1
  Se  Se10  1  0.36304000  0.36304000  0.28861600  1
  Se  Se11  1  0.63671400  0.63671400  0.70716100  1
  O  O0  1  0.48553900  0.48553900  0.33316100  1
  O  O1  1  0.51428300  0.51428300  0.66759800  1
  O  O2  1  0.02044700  0.02044700  0.16345700  1
  O  O3  1  0.97849900  0.97849900  0.83410200  1
  O  O4  1  0.25122200  0.25122200  0.40344200  1
  O  O5  1  0.74771700  0.74771700  0.59727000  1
loop_
_geom_bond_atom_site_label_1
_geom_bond_atom_site_label_2
_geom_bond_distance
_geom_bond_site_symmetry_2
Se0 Ti3 2.683561 1_564
Se0 Ti3 2.683561 1_654
Se0 Sm1 3.138146 1_545
Se0 Sm1 3.138146 1_455
Se0 Sm3 3.156268 1_554
Se0 Sm6 3.159331 1_555
Se1 Ti3 2.612628 1_565
Se1 Ti3 2.612628 1_655
Se1 Sm2 3.114180 1_556
Se1 Sm0 3.132901 1_655
Se1 Sm0 3.132901 1_565
Se2 Ti1 2.719750 1_455
Se2 Ti1 2.719750 1_545
Se2 Sm5 3.153701 1_545
Se2 Sm5 3.153701 1_455
Se2 Sm3 3.244896 1_555
Se3 Ti0 2.659693 1_655
Se3 Ti0 2.659693 1_565
Se3 Sm4 3.057788 1_565
Se3 Sm4 3.057788 1_655
Se3 Sm2 3.167542 1_555
Se4 Ti2 2.658156 1_545
Se4 Ti2 2.658156 1_455
Se4 Sm0 3.059004 1_555
Se4 Sm2 3.192093 1_545
Se4 Sm2 3.192093 1_455
Se5 Ti2 2.684211 1_655
Se5 Ti2 2.684211 1_565
Se5 Sm1 3.045517 1_555
Se5 Sm3 3.177678 1_655
Se5 Sm3 3.177678 1_565
Se6 Ti0 2.653935 1_655
Se6 Ti0 2.653935 1_565
Se6 Sm6 2.958374 1_565
Se6 Sm6 2.958374 1_655
Se6 Sm5 3.236044 1_555
Se7 Ti1 2.556612 1_455
Se7 Ti1 2.556612 1_545
Se7 Sm6 3.172806 1_556
Se7 Sm4 3.353356 1_555
Se8 Ti0 2.444357 1_555
Se8 Sm2 2.982223 1_455
Se8 Sm2 2.982223 1_545
Se9 Ti1 2.635554 1_555
Se9 Sm6 2.886239 1_566
Se9 Sm6 2.886239 1_656
Se9 Sm3 3.150222 1_655
Se9 Sm3 3.150222 1_565
Se10 Sm6 2.923121 1_555
Se10 Sm5 3.022699 1_545
Se10 Sm5 3.022699 1_455
Se10 Sm1 3.047534 1_455
Se10 Sm1 3.047534 1_545
Se11 Sm4 2.931625 1_565
Se11 Sm4 2.931625 1_655
Se11 Sm0 2.950272 1_655
Se11 Sm0 2.950272 1_565
O0 Ti2 1.918084 1_555
O0 Sm1 2.314535 1_545
O0 Sm1 2.314535 1_455
O0 Sm2 2.593126 1_555
O1 Ti2 1.920420 1_555
O1 Sm0 2.378269 1_565
O1 Sm0 2.378269 1_655
O1 Sm3 2.414829 1_555
O2 Ti3 1.921386 1_554
O2 Sm1 2.391151 1_445
O2 Sm2 2.450785 1_455
O2 Sm2 2.450785 1_545
O3 Ti3 1.961867 1_665
O3 Sm3 2.348026 1_655
O3 Sm3 2.348026 1_565
O3 Sm0 2.511096 1_665
O4 Ti0 1.965661 1_555
O4 Sm5 2.351374 1_455
O4 Sm5 2.351374 1_545
O4 Sm4 2.471104 1_555
O5 Ti1 1.854689 1_555
O5 Sm4 2.415166 1_565
O5 Sm4 2.415166 1_655
O5 Sm5 2.424248 1_555
