# generated using pymatgen
data_PbCI3N2
_symmetry_space_group_name_H-M   'P 1'
_cell_length_a   7.63242224
_cell_length_b   8.87964744
_cell_length_c   9.20006997
_cell_angle_alpha   61.14557446
_cell_angle_beta   90.53654137
_cell_angle_gamma   91.11185851
_symmetry_Int_Tables_number   1
_chemical_formula_structural   PbCI3N2
_chemical_formula_sum   'Pb2 C2 I6 N4'
_cell_volume   546.00489468
_cell_formula_units_Z   2
loop_
 _symmetry_equiv_pos_site_id
 _symmetry_equiv_pos_as_xyz
  1  'x, y, z'
loop_
 _atom_site_type_symbol
 _atom_site_label
 _atom_site_symmetry_multiplicity
 _atom_site_fract_x
 _atom_site_fract_y
 _atom_site_fract_z
 _atom_site_occupancy
  Pb  Pb0  1  0.49540900  0.99796700  0.00036000  1
  Pb  Pb1  1  0.99540900  0.99832700  0.99964000  1
  C  C0  1  0.34436200  0.30719000  0.30799600  1
  C  C1  1  0.84436200  0.61518600  0.69200400  1
  I  I0  1  0.24813700  0.84544800  0.31022500  1
  I  I1  1  0.25048200  0.31976300  0.84294400  1
  I  I2  1  0.24160100  0.84116800  0.84163400  1
  I  I3  1  0.74813700  0.15567300  0.68977500  1
  I  I4  1  0.74160100  0.68280300  0.15836600  1
  I  I5  1  0.75048200  0.16270700  0.15705600  1
  N  N0  1  0.34866900  0.44249600  0.17389900  1
  N  N1  1  0.34755000  0.17292300  0.44203100  1
  N  N2  1  0.84866900  0.61639500  0.82610100  1
  N  N3  1  0.84755000  0.61495300  0.55796900  1
loop_
_geom_bond_atom_site_label_1
_geom_bond_atom_site_label_2
_geom_bond_distance
_geom_bond_site_symmetry_2
C0 N1 1.234595 1_555
C0 N0 1.239042 1_555
C1 N3 1.234599 1_555
C1 N2 1.239042 1_555
I0 Pb0 3.130198 1_555
I0 Pb1 3.159571 1_454
I1 Pb1 3.143337 1_445
I1 Pb0 3.149510 1_546
I2 Pb0 3.102959 1_556
I2 Pb1 3.114850 1_455
I3 Pb1 3.130198 1_545
I3 Pb0 3.159571 1_546
I4 Pb1 3.102953 1_554
I4 Pb0 3.114844 1_555
I5 Pb0 3.143337 1_545
I5 Pb1 3.149510 1_544
