# generated using pymatgen
data_CeSiOs2C
_symmetry_space_group_name_H-M   'P 1'
_cell_length_a   5.92686982
_cell_length_b   5.92686982
_cell_length_c   7.13804400
_cell_angle_alpha   90.00000000
_cell_angle_beta   90.00000000
_cell_angle_gamma   141.01219954
_symmetry_Int_Tables_number   1
_chemical_formula_structural   CeSiOs2C
_chemical_formula_sum   'Ce2 Si2 Os4 C2'
_cell_volume   157.75661698
_cell_formula_units_Z   2
loop_
 _symmetry_equiv_pos_site_id
 _symmetry_equiv_pos_as_xyz
  1  'x, y, z'
loop_
 _atom_site_type_symbol
 _atom_site_label
 _atom_site_symmetry_multiplicity
 _atom_site_fract_x
 _atom_site_fract_y
 _atom_site_fract_z
 _atom_site_occupancy
  Ce  Ce0  1  0.55232900  0.44767100  0.25000000  1
  Ce  Ce1  1  0.44767100  0.55232900  0.75000000  1
  Si  Si0  1  0.27229800  0.72770200  0.25000000  1
  Si  Si1  1  0.72770200  0.27229800  0.75000000  1
  Os  Os0  1  0.83453500  0.16546500  0.05723900  1
  Os  Os1  1  0.16546500  0.83453500  0.94276100  1
  Os  Os2  1  0.16546500  0.83453500  0.55723900  1
  Os  Os3  1  0.83453500  0.16546500  0.44276100  1
  C  C0  1  0.00000000  0.00000000  0.00000000  1
  C  C1  1  0.00000000  0.00000000  0.50000000  1
loop_
_geom_bond_atom_site_label_1
_geom_bond_atom_site_label_2
_geom_bond_distance
_geom_bond_site_symmetry_2
Ce0 Si0 3.129136 1_555
Ce0 Si0 3.154923 1_655
Ce0 Si0 3.154923 1_545
Ce1 Si1 3.129136 1_555
Ce1 Si1 3.154923 1_565
Ce1 Si1 3.154923 1_455
Os0 Si1 2.496944 1_554
Os0 Si0 2.507725 1_655
Os0 Si0 2.507725 1_545
Os1 Si0 2.496944 1_556
Os1 Si1 2.507725 1_565
Os1 Si1 2.507725 1_455
Os2 Si0 2.496944 1_555
Os2 Si1 2.507725 1_565
Os2 Si1 2.507725 1_455
Os3 Si1 2.496944 1_555
Os3 Si0 2.507725 1_655
Os3 Si0 2.507725 1_545
C0 Os1 1.893552 1_544
C0 Os0 1.893552 1_455
C0 Ce0 2.727312 1_555
C0 Ce0 2.727312 1_445
C0 Ce1 2.727312 1_444
C0 Ce1 2.727312 1_554
C1 Os2 1.893552 1_545
C1 Os3 1.893552 1_455
C1 Ce0 2.727312 1_555
C1 Ce0 2.727312 1_445
C1 Ce1 2.727312 1_445
C1 Ce1 2.727312 1_555
