# generated using pymatgen
data_Ba(InSb2)2
_symmetry_space_group_name_H-M   'P 1'
_cell_length_a   4.58718300
_cell_length_b   10.44082900
_cell_length_c   19.87182000
_cell_angle_alpha   90.00000000
_cell_angle_beta   90.00000000
_cell_angle_gamma   90.00000000
_symmetry_Int_Tables_number   1
_chemical_formula_structural   Ba(InSb2)2
_chemical_formula_sum   'Ba4 In8 Sb16'
_cell_volume   951.74081383
_cell_formula_units_Z   4
loop_
 _symmetry_equiv_pos_site_id
 _symmetry_equiv_pos_as_xyz
  1  'x, y, z'
loop_
 _atom_site_type_symbol
 _atom_site_label
 _atom_site_symmetry_multiplicity
 _atom_site_fract_x
 _atom_site_fract_y
 _atom_site_fract_z
 _atom_site_occupancy
  Ba  Ba0  1  0.25000000  0.75249800  0.54493500  1
  Ba  Ba1  1  0.75000000  0.24750200  0.45506500  1
  Ba  Ba2  1  0.75000000  0.74750200  0.04493500  1
  Ba  Ba3  1  0.25000000  0.25249800  0.95506500  1
  In  In0  1  0.25000000  0.64951000  0.86423800  1
  In  In1  1  0.75000000  0.35049000  0.13576200  1
  In  In2  1  0.75000000  0.85049000  0.36423800  1
  In  In3  1  0.25000000  0.14951000  0.63576200  1
  In  In4  1  0.25000000  0.62280400  0.22975400  1
  In  In5  1  0.75000000  0.37719600  0.77024600  1
  In  In6  1  0.75000000  0.87719600  0.72975400  1
  In  In7  1  0.25000000  0.12280400  0.27024600  1
  Sb  Sb0  1  0.25000000  0.50074300  0.09807100  1
  Sb  Sb1  1  0.75000000  0.49925700  0.90192900  1
  Sb  Sb2  1  0.75000000  0.99925700  0.59807100  1
  Sb  Sb3  1  0.25000000  0.00074300  0.40192900  1
  Sb  Sb4  1  0.25000000  0.89804300  0.92928000  1
  Sb  Sb5  1  0.75000000  0.10195700  0.07072000  1
  Sb  Sb6  1  0.75000000  0.60195700  0.42928000  1
  Sb  Sb7  1  0.25000000  0.39804300  0.57072000  1
  Sb  Sb8  1  0.25000000  0.97785600  0.14229900  1
  Sb  Sb9  1  0.75000000  0.02214400  0.85770100  1
  Sb  Sb10  1  0.75000000  0.52214400  0.64229900  1
  Sb  Sb11  1  0.25000000  0.47785600  0.35770100  1
  Sb  Sb12  1  0.25000000  0.70572500  0.72497200  1
  Sb  Sb13  1  0.75000000  0.29427500  0.27502800  1
  Sb  Sb14  1  0.75000000  0.79427500  0.22497200  1
  Sb  Sb15  1  0.25000000  0.20572500  0.77502800  1
loop_
_geom_bond_atom_site_label_1
_geom_bond_atom_site_label_2
_geom_bond_distance
_geom_bond_site_symmetry_2
Ba0 Sb6 3.607368 1_455
Ba0 Sb6 3.607368 1_555
Ba0 Sb2 3.607379 1_455
Ba0 Sb2 3.607379 1_555
Ba0 Sb12 3.610839 1_555
Ba0 Sb7 3.736107 1_555
Ba0 Sb10 3.845576 1_455
Ba0 Sb10 3.845576 1_555
Ba0 Sb3 3.846249 1_565
Ba1 Sb7 3.607368 1_555
Ba1 Sb7 3.607368 1_655
Ba1 Sb3 3.607379 1_555
Ba1 Sb3 3.607379 1_655
Ba1 Sb13 3.610839 1_555
Ba1 Sb6 3.736107 1_555
Ba1 Sb11 3.845576 1_555
Ba1 Sb11 3.845576 1_655
Ba1 Sb2 3.846249 1_545
Ba2 Sb4 3.607368 1_554
Ba2 Sb4 3.607368 1_654
Ba2 Sb0 3.607379 1_555
Ba2 Sb0 3.607379 1_655
Ba2 Sb14 3.610839 1_555
Ba2 Sb5 3.736107 1_565
Ba2 Sb8 3.845576 1_555
Ba2 Sb8 3.845576 1_655
Ba2 Sb1 3.846249 1_554
Ba3 Sb5 3.607368 1_556
Ba3 Sb5 3.607368 1_456
Ba3 Sb1 3.607379 1_455
Ba3 Sb1 3.607379 1_555
Ba3 Sb15 3.610839 1_555
Ba3 Sb4 3.736107 1_545
Ba3 Sb9 3.845576 1_555
Ba3 Sb9 3.845576 1_455
Ba3 Sb0 3.846249 1_556
In0 Sb12 2.829023 1_555
In0 Sb1 2.877946 1_455
In0 Sb1 2.877946 1_555
In0 Sb4 2.898969 1_555
In1 Sb13 2.829023 1_555
In1 Sb0 2.877946 1_555
In1 Sb0 2.877946 1_655
In1 Sb5 2.898969 1_555
In2 Sb14 2.829023 1_555
In2 Sb3 2.877946 1_565
In2 Sb3 2.877946 1_665
In2 Sb6 2.898969 1_555
In3 Sb15 2.829023 1_555
In3 Sb2 2.877946 1_445
In3 Sb2 2.877946 1_545
In3 Sb7 2.898969 1_555
In4 Sb0 2.910616 1_555
In4 Sb14 2.911145 1_555
In4 Sb14 2.911145 1_455
In4 Sb11 2.958854 1_555
In5 Sb1 2.910616 1_555
In5 Sb15 2.911145 1_655
In5 Sb15 2.911145 1_555
In5 Sb10 2.958854 1_555
In6 Sb2 2.910616 1_555
In6 Sb12 2.911145 1_555
In6 Sb12 2.911145 1_655
In6 Sb9 2.958854 1_565
In7 Sb3 2.910616 1_555
In7 Sb13 2.911145 1_455
In7 Sb13 2.911145 1_555
In7 Sb8 2.958854 1_545
Sb4 Sb9 2.993774 1_465
Sb4 Sb9 2.993774 1_565
Sb5 Sb8 2.993774 1_545
Sb5 Sb8 2.993774 1_645
Sb10 Sb7 2.993774 1_655
Sb10 Sb7 2.993774 1_555
Sb10 Sb12 3.410784 1_555
Sb10 Sb12 3.410784 1_655
Sb11 Sb6 2.993774 1_455
Sb11 Sb6 2.993774 1_555
Sb11 Sb13 3.410784 1_455
Sb11 Sb13 3.410784 1_555
Sb14 Sb8 3.410784 1_555
Sb14 Sb8 3.410784 1_655
Sb15 Sb9 3.410784 1_455
Sb15 Sb9 3.410784 1_555
