# generated using pymatgen
data_MgCd2
_symmetry_space_group_name_H-M   'P 1'
_cell_length_a   6.25121860
_cell_length_b   32.27836618
_cell_length_c   10.06695720
_cell_angle_alpha   90.00000000
_cell_angle_beta   90.00000000
_cell_angle_gamma   90.00000000
_symmetry_Int_Tables_number   1
_chemical_formula_structural   MgCd2
_chemical_formula_sum   'Mg32 Cd64'
_cell_volume   2031.30179552
_cell_formula_units_Z   32
loop_
 _symmetry_equiv_pos_site_id
 _symmetry_equiv_pos_as_xyz
  1  'x, y, z'
loop_
 _atom_site_type_symbol
 _atom_site_label
 _atom_site_symmetry_multiplicity
 _atom_site_fract_x
 _atom_site_fract_y
 _atom_site_fract_z
 _atom_site_occupancy
  Mg  Mg0_0  1  0.25000000  0.02877912  0.12500000  1
  Mg  Mg0_1  1  0.25000000  0.02877912  0.62500000  1
  Mg  Mg0_2  1  0.25000000  0.52877912  0.12500000  1
  Mg  Mg0_3  1  0.25000000  0.52877912  0.62500000  1
  Mg  Mg0_4  1  0.75000000  0.02877912  0.12500000  1
  Mg  Mg0_5  1  0.75000000  0.02877912  0.62500000  1
  Mg  Mg0_6  1  0.75000000  0.52877912  0.12500000  1
  Mg  Mg0_7  1  0.75000000  0.52877912  0.62500000  1
  Mg  Mg1_0  1  0.00000000  0.22122088  0.37500000  1
  Mg  Mg1_1  1  0.00000000  0.22122088  0.87500000  1
  Mg  Mg1_2  1  0.00000000  0.72122087  0.37500000  1
  Mg  Mg1_3  1  0.00000000  0.72122087  0.87500000  1
  Mg  Mg1_4  1  0.50000000  0.22122088  0.37500000  1
  Mg  Mg1_5  1  0.50000000  0.22122088  0.87500000  1
  Mg  Mg1_6  1  0.50000000  0.72122087  0.37500000  1
  Mg  Mg1_7  1  0.50000000  0.72122087  0.87500000  1
  Mg  Mg2_0  1  0.00000000  0.27877913  0.12500000  1
  Mg  Mg2_1  1  0.00000000  0.27877913  0.62500000  1
  Mg  Mg2_2  1  0.00000000  0.77877913  0.12500000  1
  Mg  Mg2_3  1  0.00000000  0.77877913  0.62500000  1
  Mg  Mg2_4  1  0.50000000  0.27877913  0.12500000  1
  Mg  Mg2_5  1  0.50000000  0.27877913  0.62500000  1
  Mg  Mg2_6  1  0.50000000  0.77877913  0.12500000  1
  Mg  Mg2_7  1  0.50000000  0.77877913  0.62500000  1
  Mg  Mg3_0  1  0.25000000  0.47122087  0.37500000  1
  Mg  Mg3_1  1  0.25000000  0.47122087  0.87500000  1
  Mg  Mg3_2  1  0.25000000  0.97122087  0.37500000  1
  Mg  Mg3_3  1  0.25000000  0.97122087  0.87500000  1
  Mg  Mg3_4  1  0.75000000  0.47122087  0.37500000  1
  Mg  Mg3_5  1  0.75000000  0.47122087  0.87500000  1
  Mg  Mg3_6  1  0.75000000  0.97122087  0.37500000  1
  Mg  Mg3_7  1  0.75000000  0.97122087  0.87500000  1
  Cd  Cd0_0  1  0.25000000  0.19588682  0.12500000  1
  Cd  Cd0_1  1  0.25000000  0.19588682  0.62500000  1
  Cd  Cd0_2  1  0.25000000  0.69588682  0.12500000  1
  Cd  Cd0_3  1  0.25000000  0.69588682  0.62500000  1
  Cd  Cd0_4  1  0.75000000  0.19588682  0.12500000  1
  Cd  Cd0_5  1  0.75000000  0.19588682  0.62500000  1
  Cd  Cd0_6  1  0.75000000  0.69588682  0.12500000  1
  Cd  Cd0_7  1  0.75000000  0.69588682  0.62500000  1
  Cd  Cd1_0  1  0.00000000  0.11048342  0.12500000  1
  Cd  Cd1_1  1  0.00000000  0.11048342  0.62500000  1
  Cd  Cd1_2  1  0.00000000  0.61048342  0.12500000  1
  Cd  Cd1_3  1  0.00000000  0.61048342  0.62500000  1
  Cd  Cd1_4  1  0.50000000  0.11048342  0.12500000  1
  Cd  Cd1_5  1  0.50000000  0.11048342  0.62500000  1
  Cd  Cd1_6  1  0.50000000  0.61048342  0.12500000  1
  Cd  Cd1_7  1  0.50000000  0.61048342  0.62500000  1
  Cd  Cd2_0  1  0.25000000  0.13951658  0.37500000  1
  Cd  Cd2_1  1  0.25000000  0.13951658  0.87500000  1
  Cd  Cd2_2  1  0.25000000  0.63951657  0.37500000  1
  Cd  Cd2_3  1  0.25000000  0.63951657  0.87500000  1
  Cd  Cd2_4  1  0.75000000  0.13951658  0.37500000  1
  Cd  Cd2_5  1  0.75000000  0.13951658  0.87500000  1
  Cd  Cd2_6  1  0.75000000  0.63951657  0.37500000  1
  Cd  Cd2_7  1  0.75000000  0.63951657  0.87500000  1
  Cd  Cd3_0  1  0.00000000  0.05411318  0.37500000  1
  Cd  Cd3_1  1  0.00000000  0.05411318  0.87500000  1
  Cd  Cd3_2  1  0.00000000  0.55411318  0.37500000  1
  Cd  Cd3_3  1  0.00000000  0.55411318  0.87500000  1
  Cd  Cd3_4  1  0.50000000  0.05411318  0.37500000  1
  Cd  Cd3_5  1  0.50000000  0.05411318  0.87500000  1
  Cd  Cd3_6  1  0.50000000  0.55411318  0.37500000  1
  Cd  Cd3_7  1  0.50000000  0.55411318  0.87500000  1
  Cd  Cd4_0  1  0.00000000  0.44588682  0.12500000  1
  Cd  Cd4_1  1  0.00000000  0.44588682  0.62500000  1
  Cd  Cd4_2  1  0.00000000  0.94588682  0.12500000  1
  Cd  Cd4_3  1  0.00000000  0.94588682  0.62500000  1
  Cd  Cd4_4  1  0.50000000  0.44588682  0.12500000  1
  Cd  Cd4_5  1  0.50000000  0.44588682  0.62500000  1
  Cd  Cd4_6  1  0.50000000  0.94588682  0.12500000  1
  Cd  Cd4_7  1  0.50000000  0.94588682  0.62500000  1
  Cd  Cd5_0  1  0.25000000  0.36048343  0.12500000  1
  Cd  Cd5_1  1  0.25000000  0.36048343  0.62500000  1
  Cd  Cd5_2  1  0.25000000  0.86048343  0.12500000  1
  Cd  Cd5_3  1  0.25000000  0.86048343  0.62500000  1
  Cd  Cd5_4  1  0.75000000  0.36048343  0.12500000  1
  Cd  Cd5_5  1  0.75000000  0.36048343  0.62500000  1
  Cd  Cd5_6  1  0.75000000  0.86048343  0.12500000  1
  Cd  Cd5_7  1  0.75000000  0.86048343  0.62500000  1
  Cd  Cd6_0  1  0.00000000  0.38951657  0.37500000  1
  Cd  Cd6_1  1  0.00000000  0.38951657  0.87500000  1
  Cd  Cd6_2  1  0.00000000  0.88951658  0.37500000  1
  Cd  Cd6_3  1  0.00000000  0.88951658  0.87500000  1
  Cd  Cd6_4  1  0.50000000  0.38951657  0.37500000  1
  Cd  Cd6_5  1  0.50000000  0.38951657  0.87500000  1
  Cd  Cd6_6  1  0.50000000  0.88951658  0.37500000  1
  Cd  Cd6_7  1  0.50000000  0.88951658  0.87500000  1
  Cd  Cd7_0  1  0.25000000  0.30411318  0.37500000  1
  Cd  Cd7_1  1  0.25000000  0.30411318  0.87500000  1
  Cd  Cd7_2  1  0.25000000  0.80411318  0.37500000  1
  Cd  Cd7_3  1  0.25000000  0.80411318  0.87500000  1
  Cd  Cd7_4  1  0.75000000  0.30411318  0.37500000  1
  Cd  Cd7_5  1  0.75000000  0.30411318  0.87500000  1
  Cd  Cd7_6  1  0.75000000  0.80411318  0.37500000  1
  Cd  Cd7_7  1  0.75000000  0.80411318  0.87500000  1
loop_
_geom_bond_atom_site_label_1
_geom_bond_atom_site_label_2
_geom_bond_distance
_geom_bond_site_symmetry_2
Mg0_0 Mg0_4 3.125609 1_555
Mg0_0 Mg0_4 3.125609 1_455
Mg0_0 Mg3_2 3.128213 1_545
Mg0_0 Mg3_3 3.128213 1_544
Mg0_1 Mg0_5 3.125609 1_555
Mg0_1 Mg0_5 3.125609 1_455
Mg0_1 Mg3_3 3.128213 1_545
Mg0_1 Mg3_2 3.128213 1_545
Mg0_2 Mg0_6 3.125609 1_555
Mg0_2 Mg0_6 3.125609 1_455
Mg0_2 Mg3_0 3.128213 1_555
Mg0_2 Mg3_1 3.128213 1_554
Mg0_3 Mg0_7 3.125609 1_555
Mg0_3 Mg0_7 3.125609 1_455
Mg0_3 Mg3_1 3.128213 1_555
Mg0_3 Mg3_0 3.128213 1_555
Mg0_4 Mg3_6 3.128213 1_545
Mg0_4 Mg3_7 3.128213 1_544
Mg0_5 Mg3_7 3.128213 1_545
Mg0_5 Mg3_6 3.128213 1_545
Mg0_6 Mg3_4 3.128213 1_555
Mg0_6 Mg3_5 3.128213 1_554
Mg0_7 Mg3_5 3.128213 1_555
Mg0_7 Mg3_4 3.128213 1_555
Mg1_0 Mg1_4 3.125609 1_555
Mg1_0 Mg1_4 3.125609 1_455
Mg1_0 Mg2_0 3.128213 1_555
Mg1_0 Mg2_1 3.128213 1_555
Mg1_1 Mg1_5 3.125609 1_455
Mg1_1 Mg1_5 3.125609 1_555
Mg1_1 Mg2_1 3.128213 1_555
Mg1_1 Mg2_0 3.128213 1_556
Mg1_2 Mg1_6 3.125609 1_455
Mg1_2 Mg1_6 3.125609 1_555
Mg1_2 Mg2_2 3.128213 1_555
Mg1_2 Mg2_3 3.128213 1_555
Mg1_3 Mg1_7 3.125609 1_455
Mg1_3 Mg1_7 3.125609 1_555
Mg1_3 Mg2_3 3.128213 1_555
Mg1_3 Mg2_2 3.128213 1_556
Mg1_4 Mg2_5 3.128213 1_555
Mg1_4 Mg2_4 3.128213 1_555
Mg1_5 Mg2_5 3.128213 1_555
Mg1_5 Mg2_4 3.128213 1_556
Mg1_6 Mg2_7 3.128213 1_555
Mg1_6 Mg2_6 3.128213 1_555
Mg1_7 Mg2_7 3.128213 1_555
Mg1_7 Mg2_6 3.128213 1_556
Mg2_0 Mg2_4 3.125609 1_555
Mg2_0 Mg2_4 3.125609 1_455
Mg2_1 Mg2_5 3.125609 1_455
Mg2_1 Mg2_5 3.125609 1_555
Mg2_2 Mg2_6 3.125609 1_555
Mg2_2 Mg2_6 3.125609 1_455
Mg2_3 Mg2_7 3.125609 1_555
Mg2_3 Mg2_7 3.125609 1_455
Mg3_0 Mg3_4 3.125609 1_555
Mg3_0 Mg3_4 3.125609 1_455
Mg3_1 Mg3_5 3.125609 1_555
Mg3_1 Mg3_5 3.125609 1_455
Mg3_2 Mg3_6 3.125609 1_555
Mg3_2 Mg3_6 3.125609 1_455
Mg3_3 Mg3_7 3.125609 1_555
Mg3_3 Mg3_7 3.125609 1_455
Cd0_0 Mg1_0 3.073278 1_555
Cd0_0 Mg1_4 3.073278 1_555
Cd0_0 Mg1_5 3.073278 1_554
Cd0_0 Mg1_1 3.073278 1_554
Cd0_0 Mg2_4 3.098604 1_555
Cd0_0 Mg2_0 3.098604 1_555
Cd0_0 Cd2_0 3.105592 1_555
Cd0_0 Cd2_1 3.105592 1_554
Cd0_0 Cd0_4 3.125609 1_555
Cd0_0 Cd0_4 3.125609 1_455
Cd0_0 Cd1_0 3.168857 1_555
Cd0_0 Cd1_4 3.168857 1_555
Cd0_1 Mg1_1 3.073278 1_555
Cd0_1 Mg1_5 3.073278 1_555
Cd0_1 Mg1_0 3.073278 1_555
Cd0_1 Mg1_4 3.073278 1_555
Cd0_1 Mg2_1 3.098604 1_555
Cd0_1 Mg2_5 3.098604 1_555
Cd0_1 Cd2_1 3.105592 1_555
Cd0_1 Cd2_0 3.105592 1_555
Cd0_1 Cd0_5 3.125609 1_555
Cd0_1 Cd0_5 3.125609 1_455
Cd0_1 Cd1_1 3.168857 1_555
Cd0_1 Cd1_5 3.168857 1_555
Cd0_2 Mg1_2 3.073278 1_555
Cd0_2 Mg1_6 3.073278 1_555
Cd0_2 Mg1_3 3.073278 1_554
Cd0_2 Mg1_7 3.073278 1_554
Cd0_2 Mg2_2 3.098604 1_555
Cd0_2 Mg2_6 3.098604 1_555
Cd0_2 Cd2_2 3.105592 1_555
Cd0_2 Cd2_3 3.105592 1_554
Cd0_2 Cd0_6 3.125609 1_555
Cd0_2 Cd0_6 3.125609 1_455
Cd0_2 Cd1_2 3.168857 1_555
Cd0_2 Cd1_6 3.168857 1_555
Cd0_3 Mg1_3 3.073278 1_555
Cd0_3 Mg1_7 3.073278 1_555
Cd0_3 Mg1_2 3.073278 1_555
Cd0_3 Mg1_6 3.073278 1_555
Cd0_3 Mg2_3 3.098604 1_555
Cd0_3 Mg2_7 3.098604 1_555
Cd0_3 Cd2_3 3.105592 1_555
Cd0_3 Cd2_2 3.105592 1_555
Cd0_3 Cd0_7 3.125609 1_555
Cd0_3 Cd0_7 3.125609 1_455
Cd0_3 Cd1_3 3.168857 1_555
Cd0_3 Cd1_7 3.168857 1_555
Cd0_4 Mg1_4 3.073278 1_555
Cd0_4 Mg1_0 3.073278 1_655
Cd0_4 Mg1_5 3.073278 1_554
Cd0_4 Mg1_1 3.073278 1_654
Cd0_4 Mg2_4 3.098604 1_555
Cd0_4 Mg2_0 3.098604 1_655
Cd0_4 Cd2_4 3.105592 1_555
Cd0_4 Cd2_5 3.105592 1_554
Cd0_4 Cd1_4 3.168857 1_555
Cd0_4 Cd1_0 3.168857 1_655
Cd0_5 Mg1_5 3.073278 1_555
Cd0_5 Mg1_1 3.073278 1_655
Cd0_5 Mg1_4 3.073278 1_555
Cd0_5 Mg1_0 3.073278 1_655
Cd0_5 Mg2_5 3.098604 1_555
Cd0_5 Mg2_1 3.098604 1_655
Cd0_5 Cd2_5 3.105592 1_555
Cd0_5 Cd2_4 3.105592 1_555
Cd0_5 Cd1_5 3.168857 1_555
Cd0_5 Cd1_1 3.168857 1_655
Cd0_6 Mg1_6 3.073278 1_555
Cd0_6 Mg1_2 3.073278 1_655
Cd0_6 Mg1_7 3.073278 1_554
Cd0_6 Mg1_3 3.073278 1_654
Cd0_6 Mg2_6 3.098604 1_555
Cd0_6 Mg2_2 3.098604 1_655
Cd0_6 Cd2_6 3.105592 1_555
Cd0_6 Cd2_7 3.105592 1_554
Cd0_6 Cd1_6 3.168857 1_555
Cd0_6 Cd1_2 3.168857 1_655
Cd0_7 Mg1_7 3.073278 1_555
Cd0_7 Mg1_3 3.073278 1_655
Cd0_7 Mg1_6 3.073278 1_555
Cd0_7 Mg1_2 3.073278 1_655
Cd0_7 Mg2_7 3.098604 1_555
Cd0_7 Mg2_3 3.098604 1_655
Cd0_7 Cd2_7 3.105592 1_555
Cd0_7 Cd2_6 3.105592 1_555
Cd0_7 Cd1_7 3.168857 1_555
Cd0_7 Cd1_3 3.168857 1_655
Cd1_0 Mg0_0 3.065552 1_555
Cd1_0 Mg0_4 3.065552 1_455
Cd1_0 Cd3_0 3.105592 1_555
Cd1_0 Cd3_1 3.105592 1_554
Cd1_0 Cd2_0 3.107181 1_555
Cd1_0 Cd2_4 3.107181 1_455
Cd1_0 Cd2_1 3.107181 1_554
Cd1_0 Cd2_5 3.107181 1_454
Cd1_0 Cd1_4 3.125609 1_555
Cd1_0 Cd1_4 3.125609 1_455
Cd1_1 Mg0_1 3.065552 1_555
Cd1_1 Mg0_5 3.065552 1_455
Cd1_1 Cd3_1 3.105592 1_555
Cd1_1 Cd3_0 3.105592 1_555
Cd1_1 Cd2_1 3.107181 1_555
Cd1_1 Cd2_5 3.107181 1_455
Cd1_1 Cd2_0 3.107181 1_555
Cd1_1 Cd2_4 3.107181 1_455
Cd1_1 Cd1_5 3.125609 1_455
Cd1_1 Cd1_5 3.125609 1_555
Cd1_2 Mg0_2 3.065552 1_555
Cd1_2 Mg0_6 3.065552 1_455
Cd1_2 Cd3_2 3.105592 1_555
Cd1_2 Cd3_3 3.105592 1_554
Cd1_2 Cd2_2 3.107181 1_555
Cd1_2 Cd2_6 3.107181 1_455
Cd1_2 Cd2_3 3.107181 1_554
Cd1_2 Cd2_7 3.107181 1_454
Cd1_2 Cd1_6 3.125609 1_455
Cd1_2 Cd1_6 3.125609 1_555
Cd1_3 Mg0_3 3.065552 1_555
Cd1_3 Mg0_7 3.065552 1_455
Cd1_3 Cd3_3 3.105592 1_555
Cd1_3 Cd3_2 3.105592 1_555
Cd1_3 Cd2_3 3.107181 1_555
Cd1_3 Cd2_7 3.107181 1_455
Cd1_3 Cd2_2 3.107181 1_555
Cd1_3 Cd2_6 3.107181 1_455
Cd1_3 Cd1_7 3.125609 1_555
Cd1_3 Cd1_7 3.125609 1_455
Cd1_4 Mg0_4 3.065552 1_555
Cd1_4 Mg0_0 3.065552 1_555
Cd1_4 Cd3_4 3.105592 1_555
Cd1_4 Cd3_5 3.105592 1_554
Cd1_4 Cd2_4 3.107181 1_555
Cd1_4 Cd2_0 3.107181 1_555
Cd1_4 Cd2_5 3.107181 1_554
Cd1_4 Cd2_1 3.107181 1_554
Cd1_5 Mg0_5 3.065552 1_555
Cd1_5 Mg0_1 3.065552 1_555
Cd1_5 Cd3_5 3.105592 1_555
Cd1_5 Cd3_4 3.105592 1_555
Cd1_5 Cd2_5 3.107181 1_555
Cd1_5 Cd2_1 3.107181 1_555
Cd1_5 Cd2_4 3.107181 1_555
Cd1_5 Cd2_0 3.107181 1_555
Cd1_6 Mg0_6 3.065552 1_555
Cd1_6 Mg0_2 3.065552 1_555
Cd1_6 Cd3_6 3.105592 1_555
Cd1_6 Cd3_7 3.105592 1_554
Cd1_6 Cd2_2 3.107181 1_555
Cd1_6 Cd2_6 3.107181 1_555
Cd1_6 Cd2_7 3.107181 1_554
Cd1_6 Cd2_3 3.107181 1_554
Cd1_7 Mg0_7 3.065552 1_555
Cd1_7 Mg0_3 3.065552 1_555
Cd1_7 Cd3_7 3.105592 1_555
Cd1_7 Cd3_6 3.105592 1_555
Cd1_7 Cd2_7 3.107181 1_555
Cd1_7 Cd2_3 3.107181 1_555
Cd1_7 Cd2_2 3.107181 1_555
Cd1_7 Cd2_6 3.107181 1_555
Cd2_0 Mg1_0 3.065552 1_555
Cd2_0 Mg1_4 3.065552 1_555
Cd2_0 Cd2_4 3.125609 1_555
Cd2_0 Cd2_4 3.125609 1_455
Cd2_0 Cd3_0 3.168857 1_555
Cd2_0 Cd3_4 3.168857 1_555
Cd2_1 Mg1_5 3.065552 1_555
Cd2_1 Mg1_1 3.065552 1_555
Cd2_1 Cd2_5 3.125609 1_555
Cd2_1 Cd2_5 3.125609 1_455
Cd2_1 Cd3_1 3.168857 1_555
Cd2_1 Cd3_5 3.168857 1_555
Cd2_2 Mg1_2 3.065552 1_555
Cd2_2 Mg1_6 3.065552 1_555
Cd2_2 Cd2_6 3.125609 1_555
Cd2_2 Cd2_6 3.125609 1_455
Cd2_2 Cd3_2 3.168857 1_555
Cd2_2 Cd3_6 3.168857 1_555
Cd2_3 Mg1_7 3.065552 1_555
Cd2_3 Mg1_3 3.065552 1_555
Cd2_3 Cd2_7 3.125609 1_555
Cd2_3 Cd2_7 3.125609 1_455
Cd2_3 Cd3_7 3.168857 1_555
Cd2_3 Cd3_3 3.168857 1_555
Cd2_4 Mg1_4 3.065552 1_555
Cd2_4 Mg1_0 3.065552 1_655
Cd2_4 Cd3_4 3.168857 1_555
Cd2_4 Cd3_0 3.168857 1_655
Cd2_5 Mg1_5 3.065552 1_555
Cd2_5 Mg1_1 3.065552 1_655
Cd2_5 Cd3_5 3.168857 1_555
Cd2_5 Cd3_1 3.168857 1_655
Cd2_6 Mg1_6 3.065552 1_555
Cd2_6 Mg1_2 3.065552 1_655
Cd2_6 Cd3_6 3.168857 1_555
Cd2_6 Cd3_2 3.168857 1_655
Cd2_7 Mg1_7 3.065552 1_555
Cd2_7 Mg1_3 3.065552 1_655
Cd2_7 Cd3_7 3.168857 1_555
Cd2_7 Cd3_3 3.168857 1_655
Cd3_0 Mg0_0 3.073278 1_555
Cd3_0 Mg0_1 3.073278 1_555
Cd3_0 Mg0_4 3.073278 1_455
Cd3_0 Mg0_5 3.073278 1_455
Cd3_0 Mg3_6 3.098604 1_445
Cd3_0 Mg3_2 3.098604 1_545
Cd3_0 Cd3_4 3.125609 1_455
Cd3_0 Cd3_4 3.125609 1_555
Cd3_1 Mg0_5 3.073278 1_455
Cd3_1 Mg0_1 3.073278 1_555
Cd3_1 Mg0_0 3.073278 1_556
Cd3_1 Mg0_4 3.073278 1_456
Cd3_1 Mg3_3 3.098604 1_545
Cd3_1 Mg3_7 3.098604 1_445
Cd3_1 Cd3_5 3.125609 1_455
Cd3_1 Cd3_5 3.125609 1_555
Cd3_2 Mg0_3 3.073278 1_555
Cd3_2 Mg0_2 3.073278 1_555
Cd3_2 Mg0_6 3.073278 1_455
Cd3_2 Mg0_7 3.073278 1_455
Cd3_2 Mg3_0 3.098604 1_555
Cd3_2 Mg3_4 3.098604 1_455
Cd3_2 Cd3_6 3.125609 1_455
Cd3_2 Cd3_6 3.125609 1_555
Cd3_3 Mg0_7 3.073278 1_455
Cd3_3 Mg0_3 3.073278 1_555
Cd3_3 Mg0_2 3.073278 1_556
Cd3_3 Mg0_6 3.073278 1_456
Cd3_3 Mg3_1 3.098604 1_555
Cd3_3 Mg3_5 3.098604 1_455
Cd3_3 Cd3_7 3.125609 1_555
Cd3_3 Cd3_7 3.125609 1_455
Cd3_4 Mg0_0 3.073278 1_555
Cd3_4 Mg0_5 3.073278 1_555
Cd3_4 Mg0_4 3.073278 1_555
Cd3_4 Mg0_1 3.073278 1_555
Cd3_4 Mg3_6 3.098604 1_545
Cd3_4 Mg3_2 3.098604 1_545
Cd3_5 Mg0_5 3.073278 1_555
Cd3_5 Mg0_1 3.073278 1_555
Cd3_5 Mg0_4 3.073278 1_556
Cd3_5 Mg0_0 3.073278 1_556
Cd3_5 Mg3_7 3.098604 1_545
Cd3_5 Mg3_3 3.098604 1_545
Cd3_6 Mg0_6 3.073278 1_555
Cd3_6 Mg0_7 3.073278 1_555
Cd3_6 Mg0_3 3.073278 1_555
Cd3_6 Mg0_2 3.073278 1_555
Cd3_6 Mg3_4 3.098604 1_555
Cd3_6 Mg3_0 3.098604 1_555
Cd3_7 Mg0_7 3.073278 1_555
Cd3_7 Mg0_3 3.073278 1_555
Cd3_7 Mg0_2 3.073278 1_556
Cd3_7 Mg0_6 3.073278 1_556
Cd3_7 Mg3_5 3.098604 1_555
Cd3_7 Mg3_1 3.098604 1_555
Cd4_0 Mg3_4 3.073278 1_455
Cd4_0 Mg3_0 3.073278 1_555
Cd4_0 Mg3_1 3.073278 1_554
Cd4_0 Mg3_5 3.073278 1_454
Cd4_0 Mg0_2 3.098604 1_555
Cd4_0 Mg0_6 3.098604 1_455
Cd4_0 Cd6_0 3.105592 1_555
Cd4_0 Cd6_1 3.105592 1_554
Cd4_0 Cd4_4 3.125609 1_455
Cd4_0 Cd4_4 3.125609 1_555
Cd4_0 Cd5_0 3.168857 1_555
Cd4_0 Cd5_4 3.168857 1_455
Cd4_1 Mg3_1 3.073278 1_555
Cd4_1 Mg3_5 3.073278 1_455
Cd4_1 Mg3_4 3.073278 1_455
Cd4_1 Mg3_0 3.073278 1_555
Cd4_1 Mg0_3 3.098604 1_555
Cd4_1 Mg0_7 3.098604 1_455
Cd4_1 Cd6_1 3.105592 1_555
Cd4_1 Cd6_0 3.105592 1_555
Cd4_1 Cd4_5 3.125609 1_455
Cd4_1 Cd4_5 3.125609 1_555
Cd4_1 Cd5_5 3.168857 1_455
Cd4_1 Cd5_1 3.168857 1_555
Cd4_2 Mg3_2 3.073278 1_555
Cd4_2 Mg3_6 3.073278 1_455
Cd4_2 Mg3_3 3.073278 1_554
Cd4_2 Mg3_7 3.073278 1_454
Cd4_2 Mg0_0 3.098604 1_565
Cd4_2 Mg0_4 3.098604 1_465
Cd4_2 Cd6_2 3.105592 1_555
Cd4_2 Cd6_3 3.105592 1_554
Cd4_2 Cd4_6 3.125609 1_455
Cd4_2 Cd4_6 3.125609 1_555
Cd4_2 Cd5_2 3.168857 1_555
Cd4_2 Cd5_6 3.168857 1_455
Cd4_3 Mg3_3 3.073278 1_555
Cd4_3 Mg3_7 3.073278 1_455
Cd4_3 Mg3_2 3.073278 1_555
Cd4_3 Mg3_6 3.073278 1_455
Cd4_3 Mg0_1 3.098604 1_565
Cd4_3 Mg0_5 3.098604 1_465
Cd4_3 Cd6_3 3.105592 1_555
Cd4_3 Cd6_2 3.105592 1_555
Cd4_3 Cd4_7 3.125609 1_455
Cd4_3 Cd4_7 3.125609 1_555
Cd4_3 Cd5_3 3.168857 1_555
Cd4_3 Cd5_7 3.168857 1_455
Cd4_4 Mg3_4 3.073278 1_555
Cd4_4 Mg3_0 3.073278 1_555
Cd4_4 Mg3_1 3.073278 1_554
Cd4_4 Mg3_5 3.073278 1_554
Cd4_4 Mg0_6 3.098604 1_555
Cd4_4 Mg0_2 3.098604 1_555
Cd4_4 Cd6_4 3.105592 1_555
Cd4_4 Cd6_5 3.105592 1_554
Cd4_4 Cd5_4 3.168857 1_555
Cd4_4 Cd5_0 3.168857 1_555
Cd4_5 Mg3_1 3.073278 1_555
Cd4_5 Mg3_5 3.073278 1_555
Cd4_5 Mg3_4 3.073278 1_555
Cd4_5 Mg3_0 3.073278 1_555
Cd4_5 Mg0_7 3.098604 1_555
Cd4_5 Mg0_3 3.098604 1_555
Cd4_5 Cd6_5 3.105592 1_555
Cd4_5 Cd6_4 3.105592 1_555
Cd4_5 Cd5_5 3.168857 1_555
Cd4_5 Cd5_1 3.168857 1_555
Cd4_6 Mg3_6 3.073278 1_555
Cd4_6 Mg3_2 3.073278 1_555
Cd4_6 Mg3_7 3.073278 1_554
Cd4_6 Mg3_3 3.073278 1_554
Cd4_6 Mg0_4 3.098604 1_565
Cd4_6 Mg0_0 3.098604 1_565
Cd4_6 Cd6_6 3.105592 1_555
Cd4_6 Cd6_7 3.105592 1_554
Cd4_6 Cd5_6 3.168857 1_555
Cd4_6 Cd5_2 3.168857 1_555
Cd4_7 Mg3_3 3.073278 1_555
Cd4_7 Mg3_7 3.073278 1_555
Cd4_7 Mg3_6 3.073278 1_555
Cd4_7 Mg3_2 3.073278 1_555
Cd4_7 Mg0_5 3.098604 1_565
Cd4_7 Mg0_1 3.098604 1_565
Cd4_7 Cd6_7 3.105592 1_555
Cd4_7 Cd6_6 3.105592 1_555
Cd4_7 Cd5_7 3.168857 1_555
Cd4_7 Cd5_3 3.168857 1_555
Cd5_0 Mg2_4 3.065552 1_555
Cd5_0 Mg2_0 3.065552 1_555
Cd5_0 Cd7_0 3.105592 1_555
Cd5_0 Cd7_1 3.105592 1_554
Cd5_0 Cd6_0 3.107181 1_555
Cd5_0 Cd6_4 3.107181 1_555
Cd5_0 Cd6_5 3.107181 1_554
Cd5_0 Cd6_1 3.107181 1_554
Cd5_0 Cd5_4 3.125609 1_555
Cd5_0 Cd5_4 3.125609 1_455
Cd5_1 Mg2_1 3.065552 1_555
Cd5_1 Mg2_5 3.065552 1_555
Cd5_1 Cd7_1 3.105592 1_555
Cd5_1 Cd7_0 3.105592 1_555
Cd5_1 Cd6_1 3.107181 1_555
Cd5_1 Cd6_5 3.107181 1_555
Cd5_1 Cd6_0 3.107181 1_555
Cd5_1 Cd6_4 3.107181 1_555
Cd5_1 Cd5_5 3.125609 1_555
Cd5_1 Cd5_5 3.125609 1_455
Cd5_2 Mg2_6 3.065552 1_555
Cd5_2 Mg2_2 3.065552 1_555
Cd5_2 Cd7_2 3.105592 1_555
Cd5_2 Cd7_3 3.105592 1_554
Cd5_2 Cd6_2 3.107181 1_555
Cd5_2 Cd6_6 3.107181 1_555
Cd5_2 Cd6_3 3.107181 1_554
Cd5_2 Cd6_7 3.107181 1_554
Cd5_2 Cd5_6 3.125609 1_555
Cd5_2 Cd5_6 3.125609 1_455
Cd5_3 Mg2_3 3.065552 1_555
Cd5_3 Mg2_7 3.065552 1_555
Cd5_3 Cd7_3 3.105592 1_555
Cd5_3 Cd7_2 3.105592 1_555
Cd5_3 Cd6_7 3.107181 1_555
Cd5_3 Cd6_3 3.107181 1_555
Cd5_3 Cd6_2 3.107181 1_555
Cd5_3 Cd6_6 3.107181 1_555
Cd5_3 Cd5_7 3.125609 1_555
Cd5_3 Cd5_7 3.125609 1_455
Cd5_4 Mg2_4 3.065552 1_555
Cd5_4 Mg2_0 3.065552 1_655
Cd5_4 Cd7_4 3.105592 1_555
Cd5_4 Cd7_5 3.105592 1_554
Cd5_4 Cd6_4 3.107181 1_555
Cd5_4 Cd6_0 3.107181 1_655
Cd5_4 Cd6_5 3.107181 1_554
Cd5_4 Cd6_1 3.107181 1_654
Cd5_5 Mg2_5 3.065552 1_555
Cd5_5 Mg2_1 3.065552 1_655
Cd5_5 Cd7_5 3.105592 1_555
Cd5_5 Cd7_4 3.105592 1_555
Cd5_5 Cd6_5 3.107181 1_555
Cd5_5 Cd6_1 3.107181 1_655
Cd5_5 Cd6_4 3.107181 1_555
Cd5_5 Cd6_0 3.107181 1_655
Cd5_6 Mg2_6 3.065552 1_555
Cd5_6 Mg2_2 3.065552 1_655
Cd5_6 Cd7_6 3.105592 1_555
Cd5_6 Cd7_7 3.105592 1_554
Cd5_6 Cd6_6 3.107181 1_555
Cd5_6 Cd6_2 3.107181 1_655
Cd5_6 Cd6_7 3.107181 1_554
Cd5_6 Cd6_3 3.107181 1_654
Cd5_7 Mg2_7 3.065552 1_555
Cd5_7 Mg2_3 3.065552 1_655
Cd5_7 Cd7_7 3.105592 1_555
Cd5_7 Cd7_6 3.105592 1_555
Cd5_7 Cd6_7 3.107181 1_555
Cd5_7 Cd6_3 3.107181 1_655
Cd5_7 Cd6_6 3.107181 1_555
Cd5_7 Cd6_2 3.107181 1_655
Cd6_0 Mg3_4 3.065552 1_455
Cd6_0 Mg3_0 3.065552 1_555
Cd6_0 Cd6_4 3.125609 1_555
Cd6_0 Cd6_4 3.125609 1_455
Cd6_0 Cd7_0 3.168857 1_555
Cd6_0 Cd7_4 3.168857 1_455
Cd6_1 Mg3_1 3.065552 1_555
Cd6_1 Mg3_5 3.065552 1_455
Cd6_1 Cd6_5 3.125609 1_555
Cd6_1 Cd6_5 3.125609 1_455
Cd6_1 Cd7_5 3.168857 1_455
Cd6_1 Cd7_1 3.168857 1_555
Cd6_2 Mg3_2 3.065552 1_555
Cd6_2 Mg3_6 3.065552 1_455
Cd6_2 Cd6_6 3.125609 1_455
Cd6_2 Cd6_6 3.125609 1_555
Cd6_2 Cd7_2 3.168857 1_555
Cd6_2 Cd7_6 3.168857 1_455
Cd6_3 Mg3_3 3.065552 1_555
Cd6_3 Mg3_7 3.065552 1_455
Cd6_3 Cd6_7 3.125609 1_455
Cd6_3 Cd6_7 3.125609 1_555
Cd6_3 Cd7_3 3.168857 1_555
Cd6_3 Cd7_7 3.168857 1_455
Cd6_4 Mg3_4 3.065552 1_555
Cd6_4 Mg3_0 3.065552 1_555
Cd6_4 Cd7_4 3.168857 1_555
Cd6_4 Cd7_0 3.168857 1_555
Cd6_5 Mg3_5 3.065552 1_555
Cd6_5 Mg3_1 3.065552 1_555
Cd6_5 Cd7_5 3.168857 1_555
Cd6_5 Cd7_1 3.168857 1_555
Cd6_6 Mg3_2 3.065552 1_555
Cd6_6 Mg3_6 3.065552 1_555
Cd6_6 Cd7_6 3.168857 1_555
Cd6_6 Cd7_2 3.168857 1_555
Cd6_7 Mg3_7 3.065552 1_555
Cd6_7 Mg3_3 3.065552 1_555
Cd6_7 Cd7_7 3.168857 1_555
Cd6_7 Cd7_3 3.168857 1_555
Cd7_0 Mg2_0 3.073278 1_555
Cd7_0 Mg2_4 3.073278 1_555
Cd7_0 Mg2_1 3.073278 1_555
Cd7_0 Mg2_5 3.073278 1_555
Cd7_0 Mg1_4 3.098604 1_555
Cd7_0 Mg1_0 3.098604 1_555
Cd7_0 Cd7_4 3.125609 1_555
Cd7_0 Cd7_4 3.125609 1_455
Cd7_1 Mg2_1 3.073278 1_555
Cd7_1 Mg2_5 3.073278 1_555
Cd7_1 Mg2_4 3.073278 1_556
Cd7_1 Mg2_0 3.073278 1_556
Cd7_1 Mg1_1 3.098604 1_555
Cd7_1 Mg1_5 3.098604 1_555
Cd7_1 Cd7_5 3.125609 1_555
Cd7_1 Cd7_5 3.125609 1_455
Cd7_2 Mg2_2 3.073278 1_555
Cd7_2 Mg2_3 3.073278 1_555
Cd7_2 Mg2_6 3.073278 1_555
Cd7_2 Mg2_7 3.073278 1_555
Cd7_2 Mg1_2 3.098604 1_555
Cd7_2 Mg1_6 3.098604 1_555
Cd7_2 Cd7_6 3.125609 1_555
Cd7_2 Cd7_6 3.125609 1_455
Cd7_3 Mg2_7 3.073278 1_555
Cd7_3 Mg2_3 3.073278 1_555
Cd7_3 Mg2_2 3.073278 1_556
Cd7_3 Mg2_6 3.073278 1_556
Cd7_3 Mg1_7 3.098604 1_555
Cd7_3 Mg1_3 3.098604 1_555
Cd7_3 Cd7_7 3.125609 1_555
Cd7_3 Cd7_7 3.125609 1_455
Cd7_4 Mg2_4 3.073278 1_555
Cd7_4 Mg2_5 3.073278 1_555
Cd7_4 Mg2_0 3.073278 1_655
Cd7_4 Mg2_1 3.073278 1_655
Cd7_4 Mg1_4 3.098604 1_555
Cd7_4 Mg1_0 3.098604 1_655
Cd7_5 Mg2_5 3.073278 1_555
Cd7_5 Mg2_1 3.073278 1_655
Cd7_5 Mg2_4 3.073278 1_556
Cd7_5 Mg2_0 3.073278 1_656
Cd7_5 Mg1_5 3.098604 1_555
Cd7_5 Mg1_1 3.098604 1_655
Cd7_6 Mg2_6 3.073278 1_555
Cd7_6 Mg2_7 3.073278 1_555
Cd7_6 Mg2_2 3.073278 1_655
Cd7_6 Mg2_3 3.073278 1_655
Cd7_6 Mg1_6 3.098604 1_555
Cd7_6 Mg1_2 3.098604 1_655
Cd7_7 Mg2_7 3.073278 1_555
Cd7_7 Mg2_3 3.073278 1_655
Cd7_7 Mg2_6 3.073278 1_556
Cd7_7 Mg2_2 3.073278 1_656
Cd7_7 Mg1_7 3.098604 1_555
Cd7_7 Mg1_3 3.098604 1_655
