# generated using pymatgen
data_CsLiTa(PO4)2
_symmetry_space_group_name_H-M   'P 1'
_cell_length_a   5.10035478
_cell_length_b   5.10064207
_cell_length_c   9.78450655
_cell_angle_alpha   79.79225059
_cell_angle_beta   79.84601931
_cell_angle_gamma   62.24050902
_symmetry_Int_Tables_number   1
_chemical_formula_structural   CsLiTa(PO4)2
_chemical_formula_sum   'Cs1 Li1 Ta1 P2 O8'
_cell_volume   220.39576182
_cell_formula_units_Z   1
loop_
 _symmetry_equiv_pos_site_id
 _symmetry_equiv_pos_as_xyz
  1  'x, y, z'
loop_
 _atom_site_type_symbol
 _atom_site_label
 _atom_site_symmetry_multiplicity
 _atom_site_fract_x
 _atom_site_fract_y
 _atom_site_fract_z
 _atom_site_occupancy
  Cs  Cs0  1  0.06727000  0.06863600  0.55091100  1
  Li  Li0  1  0.87707700  0.87595900  0.26704800  1
  Ta  Ta0  1  0.99917700  0.99918300  0.98820900  1
  P  P0  1  0.60990400  0.60922200  0.17785800  1
  P  P1  1  0.38103200  0.38166800  0.81308400  1
  O  O0  1  0.76494300  0.76470000  0.06465000  1
  O  O1  1  0.23410500  0.71492000  0.84037400  1
  O  O2  1  0.35392200  0.35508100  0.66564300  1
  O  O3  1  0.27195400  0.75391700  0.15611300  1
  O  O4  1  0.75458400  0.27133800  0.15612900  1
  O  O5  1  0.22639700  0.22669700  0.92862700  1
  O  O6  1  0.65148900  0.65032000  0.32241600  1
  O  O7  1  0.71439800  0.23460900  0.84036700  1
loop_
_geom_bond_atom_site_label_1
_geom_bond_atom_site_label_2
_geom_bond_distance
_geom_bond_site_symmetry_2
Cs0 O2 2.946570 1_555
Cs0 O1 3.099889 1_545
Cs0 O7 3.100064 1_455
Cs0 O2 3.289088 1_545
Cs0 O2 3.289648 1_455
Cs0 O6 3.428988 1_455
Cs0 O6 3.442271 1_545
Li0 O6 1.932527 1_555
Li0 O3 1.980598 1_655
Li0 O4 1.981125 1_565
Li0 O0 2.381386 1_555
O0 P0 1.563694 1_555
O0 Ta0 2.028794 1_554
O1 P1 1.557542 1_555
O1 Ta0 2.035740 1_455
O2 P1 1.508593 1_555
O3 P0 1.565127 1_555
O3 Ta0 2.157721 1_454
O4 P0 1.565188 1_555
O4 Ta0 2.157617 1_544
O5 P1 1.573076 1_555
O5 Ta0 1.950482 1_445
O6 P0 1.530301 1_555
O7 P1 1.557530 1_555
O7 Ta0 2.035832 1_545
