# generated using pymatgen
data_Li2MgSiO4
_symmetry_space_group_name_H-M   'P 1'
_cell_length_a   10.80212800
_cell_length_b   5.07057200
_cell_length_c   8.10218977
_cell_angle_alpha   51.70571577
_cell_angle_beta   90.00000000
_cell_angle_gamma   90.00000000
_symmetry_Int_Tables_number   1
_chemical_formula_structural   Li2MgSiO4
_chemical_formula_sum   'Li8 Mg4 Si4 O16'
_cell_volume   348.29626298
_cell_formula_units_Z   4
loop_
 _symmetry_equiv_pos_site_id
 _symmetry_equiv_pos_as_xyz
  1  'x, y, z'
loop_
 _atom_site_type_symbol
 _atom_site_label
 _atom_site_symmetry_multiplicity
 _atom_site_fract_x
 _atom_site_fract_y
 _atom_site_fract_z
 _atom_site_occupancy
  Li  Li0  1  0.83792200  0.68898300  0.00425100  1
  Li  Li1  1  0.33792200  0.31101700  0.49574900  1
  Li  Li2  1  0.16207800  0.31101700  0.99574900  1
  Li  Li3  1  0.66207800  0.68898300  0.50425100  1
  Li  Li4  1  0.92605400  0.53288600  0.76305500  1
  Li  Li5  1  0.42605400  0.46711400  0.73694500  1
  Li  Li6  1  0.07394600  0.46711400  0.23694500  1
  Li  Li7  1  0.57394600  0.53288600  0.26305500  1
  Mg  Mg0  1  0.83552600  0.19052700  0.50154500  1
  Mg  Mg1  1  0.16447400  0.80947300  0.49845500  1
  Mg  Mg2  1  0.66447400  0.19052700  0.00154500  1
  Mg  Mg3  1  0.33552600  0.80947300  0.99845500  1
  Si  Si0  1  0.08743000  0.06339400  0.74775600  1
  Si  Si1  1  0.41257000  0.06339400  0.24775600  1
  Si  Si2  1  0.91257000  0.93660600  0.25224400  1
  Si  Si3  1  0.58743000  0.93660600  0.75224400  1
  O  O0  1  0.16138600  0.74668600  0.95913600  1
  O  O1  1  0.83861400  0.25331400  0.04086400  1
  O  O2  1  0.33861400  0.74668600  0.45913600  1
  O  O3  1  0.59106100  0.60739500  0.75525400  1
  O  O4  1  0.66138600  0.25331400  0.54086400  1
  O  O5  1  0.84060600  0.83252400  0.46639500  1
  O  O6  1  0.34060600  0.16747600  0.03360500  1
  O  O7  1  0.15939400  0.16747600  0.53360500  1
  O  O8  1  0.44314400  0.04530300  0.74864000  1
  O  O9  1  0.09106100  0.39260500  0.74474600  1
  O  O10  1  0.40893900  0.39260500  0.24474600  1
  O  O11  1  0.90893900  0.60739500  0.25525400  1
  O  O12  1  0.05685600  0.04530300  0.24864000  1
  O  O13  1  0.94314400  0.95469700  0.75136000  1
  O  O14  1  0.55685600  0.95469700  0.25136000  1
  O  O15  1  0.65939400  0.83252400  0.96639500  1
loop_
_geom_bond_atom_site_label_1
_geom_bond_atom_site_label_2
_geom_bond_distance
_geom_bond_site_symmetry_2
Li0 O11 1.962837 1_555
Li0 O13 1.970773 1_554
Li0 O15 2.016477 1_554
Li0 O1 2.038612 1_555
Li1 O10 1.962837 1_555
Li1 O8 1.970773 1_555
Li1 O7 2.016477 1_555
Li1 O2 2.038612 1_555
Li2 O9 1.962837 1_555
Li2 O12 1.970773 1_556
Li2 O6 2.016477 1_556
Li2 O0 2.038612 1_555
Li3 O3 1.962837 1_555
Li3 O14 1.970773 1_555
Li3 O5 2.016477 1_555
Li3 O4 2.038612 1_555
Li4 O9 1.958516 1_655
Li4 O1 2.003350 1_556
Li4 O13 2.089603 1_555
Li4 O5 2.100354 1_555
Li5 O3 1.958516 1_555
Li5 O2 2.003350 1_555
Li5 O8 2.089603 1_555
Li5 O6 2.100354 1_556
Li6 O11 1.958516 1_455
Li6 O0 2.003350 1_554
Li6 O12 2.089603 1_555
Li6 O7 2.100354 1_555
Li7 O10 1.958516 1_555
Li7 O4 2.003350 1_555
Li7 O14 2.089603 1_555
Li7 O15 2.100354 1_554
Mg0 O11 1.962413 1_555
Mg0 O4 1.966473 1_555
Mg0 O13 1.969348 1_545
Mg0 O5 2.005019 1_545
Mg1 O9 1.962413 1_555
Mg1 O2 1.966473 1_555
Mg1 O12 1.969348 1_565
Mg1 O7 2.005019 1_565
Mg2 O3 1.962413 1_554
Mg2 O1 1.966473 1_555
Mg2 O14 1.969348 1_545
Mg2 O15 2.005019 1_544
Mg3 O10 1.962413 1_556
Mg3 O0 1.966473 1_555
Mg3 O8 1.969348 1_565
Mg3 O6 2.005019 1_566
O0 Si0 1.655745 1_565
O1 Si2 1.655745 1_545
O2 Si1 1.655745 1_565
O3 Si3 1.654751 1_555
O4 Si3 1.655745 1_545
O5 Si2 1.660855 1_555
O6 Si1 1.660855 1_555
O7 Si0 1.660855 1_555
O8 Si3 1.647392 1_545
O9 Si0 1.654751 1_555
O10 Si1 1.654751 1_555
O11 Si2 1.654751 1_555
O12 Si2 1.647392 1_445
O13 Si0 1.647392 1_665
O14 Si1 1.647392 1_565
O15 Si3 1.660855 1_555
