# generated using pymatgen
data_Sr3La(CoO4)2
_symmetry_space_group_name_H-M   'P 1'
_cell_length_a   6.89165883
_cell_length_b   6.89165883
_cell_length_c   5.37882600
_cell_angle_alpha   90.00000000
_cell_angle_beta   90.00000000
_cell_angle_gamma   133.60058327
_symmetry_Int_Tables_number   1
_chemical_formula_structural   Sr3La(CoO4)2
_chemical_formula_sum   'Sr3 La1 Co2 O8'
_cell_volume   185.00031634
_cell_formula_units_Z   1
loop_
 _symmetry_equiv_pos_site_id
 _symmetry_equiv_pos_as_xyz
  1  'x, y, z'
loop_
 _atom_site_type_symbol
 _atom_site_label
 _atom_site_symmetry_multiplicity
 _atom_site_fract_x
 _atom_site_fract_y
 _atom_site_fract_z
 _atom_site_occupancy
  Sr  Sr0  1  0.64436900  0.35563100  0.00000000  1
  Sr  Sr1  1  0.35764500  0.64235500  0.00000000  1
  Sr  Sr2  1  0.85605400  0.14394600  0.50000000  1
  La  La0  1  0.14259400  0.85740600  0.50000000  1
  Co  Co0  1  0.49760800  0.50239200  0.50000000  1
  Co  Co1  1  0.99782200  0.00217800  0.00000000  1
  O  O0  1  0.84196500  0.15803500  0.00000000  1
  O  O1  1  0.32918800  0.67081200  0.50000000  1
  O  O2  1  0.66223500  0.33776500  0.50000000  1
  O  O3  1  0.15957400  0.84042600  0.00000000  1
  O  O4  1  0.76106000  0.75558700  0.74923800  1
  O  O5  1  0.24441300  0.23894000  0.25076200  1
  O  O6  1  0.24441300  0.23894000  0.74923800  1
  O  O7  1  0.76106000  0.75558700  0.25076200  1
loop_
_geom_bond_atom_site_label_1
_geom_bond_atom_site_label_2
_geom_bond_distance
_geom_bond_site_symmetry_2
La0 O1 2.363915 1_555
La0 O7 2.580420 1_455
La0 O5 2.580420 1_565
La0 O6 2.580420 1_565
La0 O4 2.580420 1_455
La0 O3 2.698002 1_556
La0 O3 2.698002 1_555
La0 O2 2.726260 1_455
La0 O2 2.726260 1_565
Co0 O6 1.941349 1_555
Co0 O5 1.941349 1_555
Co0 O4 1.941349 1_555
Co0 O7 1.941349 1_555
Co0 O2 2.085620 1_555
Co0 O1 2.133673 1_555
Co1 O7 1.882854 1_545
Co1 O5 1.882854 1_655
Co1 O4 1.882854 1_544
Co1 O6 1.882854 1_654
Co1 O0 1.974515 1_555
Co1 O3 2.049198 1_645
O0 Sr0 2.503297 1_555
O0 Sr2 2.695329 1_555
O0 Sr2 2.695329 1_554
O0 Sr1 2.722139 1_545
O0 Sr1 2.722139 1_655
O1 Sr1 2.713469 1_555
O1 Sr1 2.713469 1_556
O1 Sr2 2.736133 1_565
O1 Sr2 2.736133 1_455
O2 Sr2 2.455447 1_555
O2 Sr0 2.698921 1_555
O2 Sr0 2.698921 1_556
O3 Sr1 2.509314 1_555
O3 Sr0 2.721706 1_565
O3 Sr0 2.721706 1_455
O4 Sr2 2.640539 1_565
O4 Sr0 2.646923 1_556
O4 Sr1 2.676823 1_556
O5 Sr2 2.640539 1_455
O5 Sr0 2.646923 1_555
O5 Sr1 2.676823 1_555
O6 Sr2 2.640539 1_455
O6 Sr0 2.646923 1_556
O6 Sr1 2.676823 1_556
O7 Sr2 2.640539 1_565
O7 Sr0 2.646923 1_555
O7 Sr1 2.676823 1_555
