# generated using pymatgen
data_DyCuSn
_symmetry_space_group_name_H-M   'P 1'
_cell_length_a   4.51780311
_cell_length_b   4.51780311
_cell_length_c   7.38094200
_cell_angle_alpha   90.00000000
_cell_angle_beta   90.00000000
_cell_angle_gamma   119.99998690
_symmetry_Int_Tables_number   1
_chemical_formula_structural   DyCuSn
_chemical_formula_sum   'Dy2 Cu2 Sn2'
_cell_volume   130.46591991
_cell_formula_units_Z   2
loop_
 _symmetry_equiv_pos_site_id
 _symmetry_equiv_pos_as_xyz
  1  'x, y, z'
loop_
 _atom_site_type_symbol
 _atom_site_label
 _atom_site_symmetry_multiplicity
 _atom_site_fract_x
 _atom_site_fract_y
 _atom_site_fract_z
 _atom_site_occupancy
  Dy  Dy0  1  0.00000000  0.00000000  0.50000000  1
  Dy  Dy1  1  0.00000000  0.00000000  0.00000000  1
  Cu  Cu0  1  0.33333300  0.66666700  0.25000000  1
  Cu  Cu1  1  0.66666700  0.33333300  0.75000000  1
  Sn  Sn0  1  0.33333300  0.66666700  0.75000000  1
  Sn  Sn1  1  0.66666700  0.33333300  0.25000000  1
loop_
_geom_bond_atom_site_label_1
_geom_bond_atom_site_label_2
_geom_bond_distance
_geom_bond_site_symmetry_2
Dy0 Sn0 3.195058 1_545
Dy0 Sn1 3.195058 1_455
Dy0 Sn0 3.195061 1_445
Dy0 Sn0 3.195061 1_555
Dy0 Sn1 3.195061 1_555
Dy0 Sn1 3.195061 1_445
Dy1 Sn1 3.195058 1_455
Dy1 Sn0 3.195058 1_544
Dy1 Sn1 3.195061 1_555
Dy1 Sn1 3.195061 1_445
Dy1 Sn0 3.195061 1_444
Dy1 Sn0 3.195061 1_554
Cu0 Sn1 2.608353 1_455
Cu0 Sn1 2.608353 1_565
Cu0 Sn1 2.608360 1_555
Cu0 Dy1 3.195058 1_565
Cu0 Dy0 3.195058 1_565
Cu0 Dy0 3.195061 1_665
Cu0 Dy0 3.195061 1_555
Cu0 Dy1 3.195061 1_665
Cu0 Dy1 3.195061 1_555
Cu1 Sn0 2.608353 1_545
Cu1 Sn0 2.608353 1_655
Cu1 Sn0 2.608360 1_555
Cu1 Dy0 3.195058 1_655
Cu1 Dy1 3.195058 1_656
Cu1 Dy0 3.195061 1_665
Cu1 Dy1 3.195061 1_556
Cu1 Dy0 3.195061 1_555
Cu1 Dy1 3.195061 1_666
