# generated using pymatgen
data_Zn4CdSe5
_symmetry_space_group_name_H-M   'P 1'
_cell_length_a   17.12150876
_cell_length_b   17.12150876
_cell_length_c   17.12150854
_cell_angle_alpha   13.82924459
_cell_angle_beta   13.82924459
_cell_angle_gamma   13.82924623
_symmetry_Int_Tables_number   1
_chemical_formula_structural   Zn4CdSe5
_chemical_formula_sum   'Zn4 Cd1 Se5'
_cell_volume   249.55226306
_cell_formula_units_Z   1
loop_
 _symmetry_equiv_pos_site_id
 _symmetry_equiv_pos_as_xyz
  1  'x, y, z'
loop_
 _atom_site_type_symbol
 _atom_site_label
 _atom_site_symmetry_multiplicity
 _atom_site_fract_x
 _atom_site_fract_y
 _atom_site_fract_z
 _atom_site_occupancy
  Zn  Zn0  1  0.59734500  0.59734500  0.59734500  1
  Zn  Zn1  1  0.19922100  0.19922100  0.19922100  1
  Zn  Zn2  1  0.80074300  0.80074300  0.80074300  1
  Zn  Zn3  1  0.40286200  0.40286200  0.40286200  1
  Cd  Cd0  1  0.99890800  0.99890800  0.99890800  1
  Se  Se0  1  0.94638800  0.94638800  0.94638800  1
  Se  Se1  1  0.54840400  0.54840400  0.54840400  1
  Se  Se2  1  0.15013400  0.15013400  0.15013400  1
  Se  Se3  1  0.75184300  0.75184300  0.75184300  1
  Se  Se4  1  0.35415100  0.35415100  0.35415100  1
loop_
_geom_bond_atom_site_label_1
_geom_bond_atom_site_label_2
_geom_bond_distance
_geom_bond_site_symmetry_2
Cd0 Se4 2.628131 1_665
Cd0 Se4 2.628131 1_566
Cd0 Se4 2.628131 1_656
Cd0 Se0 2.671471 1_555
Se0 Zn0 2.510698 1_556
Se0 Zn0 2.510698 1_565
Se0 Zn0 2.510698 1_655
Se1 Zn0 2.489423 1_555
Se1 Zn1 2.512973 1_556
Se1 Zn1 2.512973 1_655
Se1 Zn1 2.512973 1_565
Se2 Zn1 2.496849 1_555
Se2 Zn2 2.516387 1_445
Se2 Zn2 2.516388 1_454
Se2 Zn2 2.516388 1_544
Se3 Zn2 2.487337 1_555
Se3 Zn3 2.509696 1_556
Se3 Zn3 2.509696 1_655
Se3 Zn3 2.509696 1_565
Se4 Zn3 2.477724 1_555
