# generated using pymatgen
data_CsGd2Cl7
_symmetry_space_group_name_H-M   'P 1'
_cell_length_a   7.06973334
_cell_length_b   12.84084837
_cell_length_c   13.51393170
_cell_angle_alpha   89.99997331
_cell_angle_beta   89.99982268
_cell_angle_gamma   90.00003009
_symmetry_Int_Tables_number   1
_chemical_formula_structural   CsGd2Cl7
_chemical_formula_sum   'Cs4 Gd8 Cl28'
_cell_volume   1226.81328564
_cell_formula_units_Z   4
loop_
 _symmetry_equiv_pos_site_id
 _symmetry_equiv_pos_as_xyz
  1  'x, y, z'
loop_
 _atom_site_type_symbol
 _atom_site_label
 _atom_site_symmetry_multiplicity
 _atom_site_fract_x
 _atom_site_fract_y
 _atom_site_fract_z
 _atom_site_occupancy
  Cs  Cs0  1  0.24999970  0.80382470  0.04084859  1
  Cs  Cs1  1  0.75000077  0.19617567  0.95915150  1
  Cs  Cs2  1  0.75000061  0.30382469  0.45915135  1
  Cs  Cs3  1  0.24999935  0.69617500  0.54084967  1
  Gd  Gd0  1  0.25000120  0.45889219  0.23782615  1
  Gd  Gd1  1  0.74999879  0.54110844  0.76217344  1
  Gd  Gd2  1  0.74999646  0.95889088  0.26217271  1
  Gd  Gd3  1  0.25000202  0.04110850  0.73782689  1
  Gd  Gd4  1  0.24999757  0.15541943  0.24869571  1
  Gd  Gd5  1  0.75000041  0.84458103  0.75130405  1
  Gd  Gd6  1  0.75000002  0.65542021  0.25130376  1
  Gd  Gd7  1  0.24999999  0.34458047  0.74869659  1
  Cl  Cl0  1  0.00852685  0.30547828  0.17668970  1
  Cl  Cl1  1  0.99147389  0.69452210  0.82331259  1
  Cl  Cl2  1  0.99146985  0.80547791  0.32331103  1
  Cl  Cl3  1  0.50852622  0.69452327  0.82331073  1
  Cl  Cl4  1  0.00852653  0.19452261  0.67668954  1
  Cl  Cl5  1  0.49147156  0.30547673  0.17668853  1
  Cl  Cl6  1  0.49147411  0.19452273  0.67668820  1
  Cl  Cl7  1  0.50852758  0.80547699  0.32331102  1
  Cl  Cl8  1  0.00881952  0.57525490  0.12346878  1
  Cl  Cl9  1  0.99118176  0.42474547  0.87653077  1
  Cl  Cl10  1  0.99118069  0.07525446  0.37653066  1
  Cl  Cl11  1  0.50881700  0.42474536  0.87653018  1
  Cl  Cl12  1  0.00881833  0.92474543  0.62346933  1
  Cl  Cl13  1  0.49118425  0.57525525  0.12346942  1
  Cl  Cl14  1  0.49118547  0.92474476  0.62346978  1
  Cl  Cl15  1  0.50881480  0.07525541  0.37653040  1
  Cl  Cl16  1  0.00950715  0.03861200  0.13234624  1
  Cl  Cl17  1  0.99049372  0.96138832  0.86765341  1
  Cl  Cl18  1  0.99049353  0.53861193  0.36765407  1
  Cl  Cl19  1  0.50950990  0.96138802  0.86765332  1
  Cl  Cl20  1  0.00950800  0.46138771  0.63234640  1
  Cl  Cl21  1  0.49048910  0.03861245  0.13234597  1
  Cl  Cl22  1  0.49049192  0.46138775  0.63234684  1
  Cl  Cl23  1  0.50950926  0.53861207  0.36765365  1
  Cl  Cl24  1  0.25000020  0.31028654  0.39055422  1
  Cl  Cl25  1  0.75000083  0.68971372  0.60944592  1
  Cl  Cl26  1  0.74999941  0.81028608  0.10944669  1
  Cl  Cl27  1  0.25000169  0.18971354  0.89055419  1
loop_
_geom_bond_atom_site_label_1
_geom_bond_atom_site_label_2
_geom_bond_distance
_geom_bond_site_symmetry_2
Cl0 Gd0 2.734549 1_555
Cl0 Gd4 2.752106 1_555
Cl0 Cs1 3.735356 1_454
Cl1 Gd1 2.734561 1_555
Cl1 Gd5 2.752131 1_555
Cl1 Cs0 3.735331 1_656
Cl2 Gd2 2.734544 1_555
Cl2 Gd6 2.752097 1_555
Cl2 Cs3 3.735373 1_655
Cl3 Gd1 2.734551 1_555
Cl3 Gd5 2.752110 1_555
Cl3 Cs0 3.735340 1_556
Cl4 Gd3 2.734560 1_555
Cl4 Gd7 2.752114 1_555
Cl4 Cs2 3.735352 1_455
Cl5 Gd0 2.734548 1_555
Cl5 Gd4 2.752107 1_555
Cl5 Cs1 3.735338 1_554
Cl6 Gd3 2.734547 1_555
Cl6 Gd7 2.752119 1_555
Cl6 Cs2 3.735330 1_555
Cl7 Gd2 2.734528 1_555
Cl7 Gd6 2.752098 1_555
Cl7 Cs3 3.735355 1_555
Cl8 Gd6 2.718857 1_455
Cl8 Gd0 2.743772 1_555
Cl8 Cs0 3.573276 1_555
Cl9 Gd7 2.718842 1_655
Cl9 Gd1 2.743780 1_555
Cl9 Cs1 3.573281 1_555
Cl10 Gd4 2.718841 1_655
Cl10 Gd2 2.743794 1_545
Cl10 Cs2 3.573285 1_555
Cl11 Gd7 2.718837 1_555
Cl11 Gd1 2.743764 1_555
Cl11 Cs1 3.573297 1_555
Cl12 Gd5 2.718841 1_455
Cl12 Gd3 2.743785 1_565
Cl12 Cs3 3.573286 1_555
Cl13 Gd6 2.718838 1_555
Cl13 Gd0 2.743769 1_555
Cl13 Cs0 3.573295 1_555
Cl14 Gd5 2.718828 1_555
Cl14 Gd3 2.743780 1_565
Cl14 Cs3 3.573300 1_555
Cl15 Gd4 2.718844 1_555
Cl15 Gd2 2.743782 1_545
Cl15 Cs2 3.573297 1_555
Cl16 Gd2 2.737167 1_445
Cl16 Gd4 2.759108 1_555
Cl16 Cs1 3.596890 1_454
Cl16 Cs0 3.675470 1_545
Cl17 Gd3 2.737151 1_665
Cl17 Gd5 2.759119 1_555
Cl17 Cs0 3.596892 1_656
Cl17 Cs1 3.675474 1_565
Cl18 Gd0 2.737160 1_655
Cl18 Gd6 2.759134 1_555
Cl18 Cs3 3.596891 1_655
Cl18 Cs2 3.675467 1_555
Cl19 Gd3 2.737158 1_565
Cl19 Gd5 2.759099 1_555
Cl19 Cs0 3.596897 1_556
Cl19 Cs1 3.675473 1_565
Cl20 Gd1 2.737164 1_455
Cl20 Gd7 2.759119 1_555
Cl20 Cs2 3.596891 1_455
Cl20 Cs3 3.675460 1_555
Cl21 Gd2 2.737163 1_545
Cl21 Gd4 2.759106 1_555
Cl21 Cs1 3.596895 1_554
Cl21 Cs0 3.675466 1_545
Cl22 Gd1 2.737156 1_555
Cl22 Gd7 2.759109 1_555
Cl22 Cs2 3.596894 1_555
Cl22 Cs3 3.675470 1_555
Cl23 Gd0 2.737165 1_555
Cl23 Gd6 2.759111 1_555
Cl23 Cs3 3.596902 1_555
Cl23 Cs2 3.675470 1_555
Cl24 Gd4 2.762205 1_555
Cl24 Gd0 2.810912 1_555
Cl24 Cs2 3.655337 1_455
Cl24 Cs2 3.655348 1_555
Cl25 Gd5 2.762203 1_555
Cl25 Gd1 2.810903 1_555
Cl25 Cs3 3.655326 1_655
Cl25 Cs3 3.655352 1_555
Cl26 Gd6 2.762179 1_555
Cl26 Gd2 2.810886 1_555
Cl26 Cs0 3.655345 1_655
Cl26 Cs0 3.655346 1_555
Cl27 Gd7 2.762193 1_555
Cl27 Gd3 2.810901 1_555
Cl27 Cs1 3.655340 1_555
Cl27 Cs1 3.655347 1_455
