# generated using pymatgen
data_BaSrEuVO6
_symmetry_space_group_name_H-M   'P 1'
_cell_length_a   5.89422075
_cell_length_b   5.90783664
_cell_length_c   8.32804292
_cell_angle_alpha   90.43566211
_cell_angle_beta   90.41083789
_cell_angle_gamma   90.35549618
_symmetry_Int_Tables_number   1
_chemical_formula_structural   BaSrEuVO6
_chemical_formula_sum   'Ba2 Sr2 Eu2 V2 O12'
_cell_volume   289.97836812
_cell_formula_units_Z   2
loop_
 _symmetry_equiv_pos_site_id
 _symmetry_equiv_pos_as_xyz
  1  'x, y, z'
loop_
 _atom_site_type_symbol
 _atom_site_label
 _atom_site_symmetry_multiplicity
 _atom_site_fract_x
 _atom_site_fract_y
 _atom_site_fract_z
 _atom_site_occupancy
  Ba  Ba0  1  0.50599721  0.52533290  0.24935690  1
  Ba  Ba1  1  0.49400279  0.47466710  0.75064310  1
  Sr  Sr0  1  0.99444781  0.03189761  0.25126855  1
  Sr  Sr1  1  0.00555219  0.96810239  0.74873145  1
  Eu  Eu0  1  0.00000000  0.50000000  -0.00000000  1
  Eu  Eu1  1  0.50000000  0.00000000  0.50000000  1
  V  V0  1  0.50000000  0.00000000  -0.00000000  1
  V  V1  1  0.00000000  0.50000000  0.50000000  1
  O  O0  1  0.24213553  0.19338623  0.96565412  1
  O  O1  1  0.25142416  0.70013743  0.53028807  1
  O  O2  1  0.75786447  0.80661377  0.03434588  1
  O  O3  1  0.74857584  0.29986257  0.46971193  1
  O  O4  1  0.30227589  0.74762667  0.96723830  1
  O  O5  1  0.19137053  0.23739565  0.53261824  1
  O  O6  1  0.69772411  0.25237333  0.03276170  1
  O  O7  1  0.80862947  0.76260435  0.46738176  1
  O  O8  1  0.43181792  0.99436396  0.22649884  1
  O  O9  1  0.05471610  0.48369446  0.27428523  1
  O  O10  1  0.56818208  0.00563604  0.77350116  1
  O  O11  1  0.94528390  0.51630554  0.72571477  1
loop_
_geom_bond_atom_site_label_1
_geom_bond_atom_site_label_2
_geom_bond_distance
_geom_bond_site_symmetry_2
Ba0 O6 2.671876 1_555
Ba0 O9 2.679464 1_555
Ba0 O3 2.685063 1_555
Ba0 O8 2.815579 1_555
Ba0 O2 2.867831 1_555
Ba0 O7 2.885735 1_555
Ba0 O4 2.951732 1_554
Ba0 O1 2.970627 1_555
Ba1 O4 2.671876 1_555
Ba1 O11 2.679464 1_555
Ba1 O1 2.685063 1_555
Ba1 O10 2.815579 1_555
Ba1 O0 2.867831 1_555
Ba1 O5 2.885735 1_555
Ba1 O6 2.951732 1_556
Ba1 O3 2.970627 1_555
Eu0 O11 2.307444 1_454
Eu0 O9 2.307444 1_555
Eu0 O6 2.317264 1_455
Eu0 O4 2.317264 1_554
Eu0 O0 2.330242 1_554
Eu0 O2 2.330242 1_455
Eu1 O1 2.308367 1_545
Eu1 O3 2.308367 1_555
Eu1 O8 2.310026 1_545
Eu1 O10 2.310026 1_555
Eu1 O5 2.320123 1_555
Eu1 O7 2.320123 1_545
O0 V0 1.928087 1_556
O0 Sr1 2.623705 1_545
O0 Sr0 2.960811 1_456
O1 V1 1.904253 1_555
O1 Sr1 2.817521 1_555
O2 V0 1.928087 1_565
O2 Sr0 2.623705 1_565
O2 Sr1 2.960811 1_654
O3 V1 1.904253 1_655
O3 Sr0 2.817521 1_555
O4 V0 1.903518 1_566
O4 Sr1 2.843509 1_555
O5 V1 1.943393 1_555
O5 Sr1 2.649556 1_545
O5 Sr0 2.865569 1_455
O6 V0 1.903518 1_555
O6 Sr0 2.843509 1_555
O7 V1 1.943393 1_655
O7 Sr0 2.649556 1_565
O7 Sr1 2.865569 1_655
O8 V0 1.931935 1_565
O8 Sr0 2.598385 1_465
O9 V1 1.911315 1_555
O9 Sr0 2.695687 1_455
O10 V0 1.931935 1_556
O10 Sr1 2.598385 1_645
O11 V1 1.911315 1_655
O11 Sr1 2.695687 1_655
