# generated using pymatgen
data_BaSr7Mn2(Fe3O10)2
_symmetry_space_group_name_H-M   'P 1'
_cell_length_a   11.27378279
_cell_length_b   11.45795633
_cell_length_c   17.91144054
_cell_angle_alpha   108.81047510
_cell_angle_beta   108.26089677
_cell_angle_gamma   89.79652228
_symmetry_Int_Tables_number   1
_chemical_formula_structural   BaSr7Mn2(Fe3O10)2
_chemical_formula_sum   'Ba4 Sr28 Mn8 Fe24 O80'
_cell_volume   2067.56588235
_cell_formula_units_Z   4
loop_
 _symmetry_equiv_pos_site_id
 _symmetry_equiv_pos_as_xyz
  1  'x, y, z'
loop_
 _atom_site_type_symbol
 _atom_site_label
 _atom_site_symmetry_multiplicity
 _atom_site_fract_x
 _atom_site_fract_y
 _atom_site_fract_z
 _atom_site_occupancy
  Ba  Ba0  1  0.30904500  0.06202900  0.11600400  1
  Ba  Ba1  1  0.30767700  0.56107300  0.11352900  1
  Ba  Ba2  1  0.80811800  0.06305200  0.11495500  1
  Ba  Ba3  1  0.05577800  0.80261000  0.11351000  1
  Sr  Sr0  1  0.30730400  0.06031800  0.60892500  1
  Sr  Sr1  1  0.30673000  0.55884900  0.60762000  1
  Sr  Sr2  1  0.80568400  0.06120600  0.60823100  1
  Sr  Sr3  1  0.80573600  0.56122100  0.10867600  1
  Sr  Sr4  1  0.80712100  0.55915300  0.60753200  1
  Sr  Sr5  1  0.19766000  0.43784200  0.39182700  1
  Sr  Sr6  1  0.19929900  0.43967600  0.89064000  1
  Sr  Sr7  1  0.19754300  0.93759700  0.39373600  1
  Sr  Sr8  1  0.19880200  0.94018700  0.89048600  1
  Sr  Sr9  1  0.69677400  0.43705600  0.39116200  1
  Sr  Sr10  1  0.69797800  0.43814100  0.88951700  1
  Sr  Sr11  1  0.69914200  0.93892000  0.39198500  1
  Sr  Sr12  1  0.69763300  0.93929100  0.89160100  1
  Sr  Sr13  1  0.05518200  0.29749900  0.10792700  1
  Sr  Sr14  1  0.05730800  0.29851500  0.60813800  1
  Sr  Sr15  1  0.05652000  0.79854600  0.60792700  1
  Sr  Sr16  1  0.55461800  0.29693800  0.10780200  1
  Sr  Sr17  1  0.55836300  0.29848100  0.60902000  1
  Sr  Sr18  1  0.55870400  0.79595100  0.10813900  1
  Sr  Sr19  1  0.55670200  0.79629000  0.60745800  1
  Sr  Sr20  1  0.44731300  0.20311400  0.39345900  1
  Sr  Sr21  1  0.44888100  0.20087100  0.88981500  1
  Sr  Sr22  1  0.44823800  0.70588900  0.39503000  1
  Sr  Sr23  1  0.44834700  0.69973300  0.89041800  1
  Sr  Sr24  1  0.94853300  0.20630000  0.39348500  1
  Sr  Sr25  1  0.94610900  0.20197300  0.88953400  1
  Sr  Sr26  1  0.94754700  0.70456900  0.39273400  1
  Sr  Sr27  1  0.94809300  0.69948800  0.89023000  1
  Mn  Mn0  1  0.11178700  0.09361000  0.74884900  1
  Mn  Mn1  1  0.11112800  0.59469700  0.74870200  1
  Mn  Mn2  1  0.61067600  0.59494600  0.74868300  1
  Mn  Mn3  1  0.36119600  0.40469600  0.74916300  1
  Mn  Mn4  1  0.36753700  0.90387400  0.25448400  1
  Mn  Mn5  1  0.36047100  0.90135200  0.74880000  1
  Mn  Mn6  1  0.86144900  0.40430600  0.74893300  1
  Mn  Mn7  1  0.85926200  0.90578700  0.74825300  1
  Fe  Fe0  1  0.99836200  0.99690000  0.99119900  1
  Fe  Fe1  1  0.00381200  0.00037600  0.50121000  1
  Fe  Fe2  1  0.99959200  0.49700200  0.99506000  1
  Fe  Fe3  1  0.00396000  0.50091700  0.50105100  1
  Fe  Fe4  1  0.49916200  0.99702900  0.99356900  1
  Fe  Fe5  1  0.50365600  0.00094000  0.49958800  1
  Fe  Fe6  1  0.50180500  0.49773100  0.99573000  1
  Fe  Fe7  1  0.50390800  0.49940700  0.50080600  1
  Fe  Fe8  1  0.25031600  0.24714700  0.99454400  1
  Fe  Fe9  1  0.25393000  0.25108800  0.50089800  1
  Fe  Fe10  1  0.25099600  0.74844200  0.99490500  1
  Fe  Fe11  1  0.25408700  0.75081800  0.50191900  1
  Fe  Fe12  1  0.75296200  0.25102000  0.99846100  1
  Fe  Fe13  1  0.75432100  0.25084200  0.50033800  1
  Fe  Fe14  1  0.74893300  0.74552700  0.99389200  1
  Fe  Fe15  1  0.75401400  0.75078300  0.50024300  1
  Fe  Fe16  1  0.11426900  0.09296700  0.25569700  1
  Fe  Fe17  1  0.10577600  0.58864000  0.25111200  1
  Fe  Fe18  1  0.61575900  0.09287000  0.25336100  1
  Fe  Fe19  1  0.61063700  0.08754600  0.74940300  1
  Fe  Fe20  1  0.61342800  0.59181700  0.25294100  1
  Fe  Fe21  1  0.36014800  0.41073900  0.25288500  1
  Fe  Fe22  1  0.85830700  0.41196700  0.25040200  1
  Fe  Fe23  1  0.85967200  0.90511900  0.25300500  1
  O  O0  1  0.12395400  0.12248300  0.49281200  1
  O  O1  1  0.12171100  0.12318000  0.99150100  1
  O  O2  1  0.12393100  0.62212800  0.49243700  1
  O  O3  1  0.12209600  0.62083100  0.98959400  1
  O  O4  1  0.62480000  0.12322000  0.49272900  1
  O  O5  1  0.62175500  0.12359200  0.99011800  1
  O  O6  1  0.62373200  0.62217400  0.49239300  1
  O  O7  1  0.62336400  0.62151400  0.99244300  1
  O  O8  1  0.12681000  0.37365000  0.00247200  1
  O  O9  1  0.13128500  0.37790200  0.50724900  1
  O  O10  1  0.12558300  0.87507300  0.99897200  1
  O  O11  1  0.13192000  0.87720500  0.50748300  1
  O  O12  1  0.63063900  0.37770200  0.00572900  1
  O  O13  1  0.63185400  0.37754600  0.50703500  1
  O  O14  1  0.62655400  0.87418900  0.00347700  1
  O  O15  1  0.63113000  0.87826700  0.50734600  1
  O  O16  1  0.37501400  0.12177400  0.49511200  1
  O  O17  1  0.37373800  0.12024800  0.99093900  1
  O  O18  1  0.37398600  0.62034300  0.49242400  1
  O  O19  1  0.37498200  0.62117500  0.99260900  1
  O  O20  1  0.87418500  0.12048900  0.49275800  1
  O  O21  1  0.87322900  0.12135300  0.99029700  1
  O  O22  1  0.87364900  0.62016600  0.49251000  1
  O  O23  1  0.87039800  0.61739000  0.99025300  1
  O  O24  1  0.38115700  0.37598400  0.00295400  1
  O  O25  1  0.38199800  0.38075400  0.50825600  1
  O  O26  1  0.38012800  0.87584100  0.00187000  1
  O  O27  1  0.38280800  0.88143900  0.50950900  1
  O  O28  1  0.87997900  0.37881700  0.00532800  1
  O  O29  1  0.88202900  0.38067000  0.50753100  1
  O  O30  1  0.87589200  0.87625400  0.99996200  1
  O  O31  1  0.88153200  0.88035400  0.50801300  1
  O  O32  1  0.07718000  0.09618600  0.14541700  1
  O  O33  1  0.07503600  0.08484400  0.63492600  1
  O  O34  1  0.07255000  0.58461500  0.13983900  1
  O  O35  1  0.07453900  0.58487700  0.63508800  1
  O  O36  1  0.57718800  0.09820600  0.14347500  1
  O  O37  1  0.58455600  0.09560800  0.64111400  1
  O  O38  1  0.58250300  0.59577800  0.14347900  1
  O  O39  1  0.57472900  0.58491200  0.63506700  1
  O  O40  1  0.44022000  0.40127600  0.36028600  1
  O  O41  1  0.43945700  0.41593900  0.86352900  1
  O  O42  1  0.44116200  0.91233500  0.36693700  1
  O  O43  1  0.43858200  0.91485500  0.86321500  1
  O  O44  1  0.94116400  0.40475900  0.35851900  1
  O  O45  1  0.93824700  0.41480100  0.86289700  1
  O  O46  1  0.93968600  0.90208500  0.36192200  1
  O  O47  1  0.93662200  0.91649500  0.86190700  1
  O  O48  1  0.33249000  0.30845700  0.14076600  1
  O  O49  1  0.32404000  0.30113900  0.63570200  1
  O  O50  1  0.32729200  0.81342500  0.13824200  1
  O  O51  1  0.32353800  0.79895600  0.63465600  1
  O  O52  1  0.83072200  0.30614400  0.13866800  1
  O  O53  1  0.82567200  0.30139500  0.63519700  1
  O  O54  1  0.82382100  0.79662800  0.14112100  1
  O  O55  1  0.82306700  0.80104600  0.63501000  1
  O  O56  1  0.19480100  0.20939400  0.36295800  1
  O  O57  1  0.18960700  0.19841900  0.86316300  1
  O  O58  1  0.19192100  0.70411500  0.35880500  1
  O  O59  1  0.19001300  0.69736500  0.86248400  1
  O  O60  1  0.69837100  0.20725300  0.36151800  1
  O  O61  1  0.69166900  0.20409100  0.85834300  1
  O  O62  1  0.69538700  0.70693800  0.36121800  1
  O  O63  1  0.68648700  0.69714700  0.86304100  1
  O  O64  1  0.45671000  0.05425800  0.26160500  1
  O  O65  1  0.44217200  0.05784200  0.74904000  1
  O  O66  1  0.44786300  0.56181300  0.26065700  1
  O  O67  1  0.44209200  0.56090400  0.74864600  1
  O  O68  1  0.94901700  0.05425200  0.25984700  1
  O  O69  1  0.94039200  0.05877800  0.74877900  1
  O  O70  1  0.93508300  0.56400100  0.25228200  1
  O  O71  1  0.94295200  0.56123000  0.74900300  1
  O  O72  1  0.18757300  0.43909300  0.25094500  1
  O  O73  1  0.19259300  0.43776300  0.74935600  1
  O  O74  1  0.19867200  0.94744900  0.25931700  1
  O  O75  1  0.19038100  0.93495300  0.74896800  1
  O  O76  1  0.68726500  0.43807500  0.25042700  1
  O  O77  1  0.69370000  0.44037800  0.74926400  1
  O  O78  1  0.68988000  0.93970200  0.25067000  1
  O  O79  1  0.68371200  0.93304300  0.74942800  1
loop_
_geom_bond_atom_site_label_1
_geom_bond_atom_site_label_2
_geom_bond_distance
_geom_bond_site_symmetry_2
Ba0 O64 2.647352 1_555
Ba0 O48 2.713543 1_555
Ba0 O26 2.752199 1_545
Ba0 O10 2.771173 1_544
Ba0 O1 2.823104 1_554
Ba0 O17 2.825934 1_554
Ba0 O32 2.826038 1_555
Ba0 O36 2.915061 1_555
Ba0 O50 2.998508 1_545
Ba1 O66 2.611151 1_555
Ba1 O24 2.722769 1_555
Ba1 O8 2.731440 1_555
Ba1 O50 2.779043 1_555
Ba1 O19 2.781430 1_554
Ba1 O3 2.798803 1_554
Ba1 O34 2.831469 1_555
Ba1 O38 2.979113 1_555
Ba1 O48 3.084398 1_555
Ba2 O68 2.617769 1_555
Ba2 O52 2.679132 1_555
Ba2 O30 2.745699 1_544
Ba2 O14 2.746501 1_545
Ba2 O36 2.809713 1_555
Ba2 O5 2.817968 1_554
Ba2 O21 2.821870 1_554
Ba2 O32 2.912116 1_655
Ba2 O54 3.230574 1_545
Ba3 O74 2.599470 1_555
Ba3 O34 2.682801 1_555
Ba3 O30 2.733294 1_454
Ba3 O10 2.762675 1_554
Ba3 O23 2.804329 1_454
Ba3 O3 2.805543 1_554
Ba3 O54 2.814478 1_455
Ba3 O50 2.949368 1_555
Ba3 O32 3.221721 1_565
Mn0 O33 1.919322 1_555
Mn0 O57 1.923613 1_555
Mn0 O69 1.973978 1_455
Mn0 O75 2.019820 1_545
Mn1 O35 1.910657 1_555
Mn1 O59 1.911471 1_555
Mn1 O71 1.937709 1_455
Mn1 O73 2.017934 1_555
Mn2 O39 1.910863 1_555
Mn2 O63 1.913253 1_555
Mn2 O67 1.941302 1_555
Mn2 O77 2.001689 1_555
Mn3 O49 1.904839 1_555
Mn3 O41 1.920734 1_555
Mn3 O73 1.937714 1_555
Mn3 O67 2.015660 1_555
Mn4 O42 1.892684 1_555
Mn4 O50 1.906493 1_555
Mn4 O64 1.945816 1_565
Mn4 O74 1.987381 1_555
Mn5 O51 1.911262 1_555
Mn5 O43 1.914348 1_555
Mn5 O75 1.955220 1_555
Mn5 O65 2.016862 1_565
Mn6 O53 1.908539 1_555
Mn6 O45 1.914601 1_555
Mn6 O77 1.935785 1_555
Mn6 O71 2.021570 1_555
Mn7 O55 1.906820 1_555
Mn7 O47 1.909670 1_555
Mn7 O69 1.976077 1_565
Mn7 O79 2.008067 1_555
Fe0 O21 2.002522 1_565
Fe0 O10 2.002739 1_655
Fe0 O1 2.007961 1_665
Fe0 O30 2.032527 1_555
Fe0 O47 2.077194 1_555
Fe0 O32 2.481204 1_666
Fe1 O31 2.008299 1_445
Fe1 O20 2.008497 1_455
Fe1 O11 2.018994 1_545
Fe1 O0 2.022746 1_555
Fe1 O33 2.150158 1_555
Fe1 O46 2.253621 1_445
Fe2 O28 2.003746 1_556
Fe2 O23 2.003820 1_555
Fe2 O8 2.014822 1_656
Fe2 O3 2.029355 1_655
Fe2 O45 2.123675 1_555
Fe2 O34 2.323656 1_656
Fe3 O29 2.004474 1_455
Fe3 O22 2.007052 1_455
Fe3 O9 2.011507 1_555
Fe3 O2 2.016008 1_555
Fe3 O35 2.154364 1_555
Fe3 O44 2.300361 1_455
Fe4 O17 1.995464 1_565
Fe4 O26 2.005619 1_556
Fe4 O14 2.015483 1_556
Fe4 O5 2.035315 1_565
Fe4 O43 2.095698 1_555
Fe4 O36 2.418031 1_566
Fe5 O16 2.002765 1_555
Fe5 O15 2.011648 1_545
Fe5 O4 2.018201 1_555
Fe5 O27 2.020999 1_545
Fe5 O42 2.138407 1_545
Fe5 O37 2.284568 1_555
Fe6 O7 2.002832 1_555
Fe6 O12 2.003677 1_556
Fe6 O19 2.008604 1_555
Fe6 O24 2.013179 1_556
Fe6 O41 2.123653 1_555
Fe6 O38 2.382095 1_556
Fe7 O25 2.000060 1_555
Fe7 O13 2.006978 1_555
Fe7 O18 2.017415 1_555
Fe7 O6 2.025834 1_555
Fe7 O39 2.159480 1_555
Fe7 O40 2.272191 1_555
Fe8 O17 2.008923 1_555
Fe8 O8 2.009149 1_556
Fe8 O1 2.009432 1_555
Fe8 O24 2.027447 1_556
Fe8 O57 2.112797 1_555
Fe8 O48 2.347069 1_556
Fe9 O9 2.003429 1_555
Fe9 O16 2.011168 1_555
Fe9 O25 2.019654 1_555
Fe9 O0 2.020941 1_555
Fe9 O49 2.167452 1_555
Fe9 O56 2.232916 1_555
Fe10 O26 2.012360 1_556
Fe10 O19 2.016133 1_555
Fe10 O10 2.022716 1_555
Fe10 O3 2.024226 1_555
Fe10 O59 2.127588 1_555
Fe10 O50 2.296414 1_556
Fe11 O11 1.995677 1_555
Fe11 O2 2.013425 1_555
Fe11 O18 2.014142 1_555
Fe11 O27 2.030991 1_555
Fe11 O51 2.135565 1_555
Fe11 O58 2.310985 1_555
Fe12 O28 1.999541 1_556
Fe12 O12 2.000510 1_556
Fe12 O21 2.009217 1_555
Fe12 O5 2.019470 1_555
Fe12 O52 2.252885 1_556
Fe12 O61 2.260718 1_555
Fe13 O13 2.001378 1_555
Fe13 O20 2.011256 1_555
Fe13 O4 2.012697 1_555
Fe13 O29 2.019332 1_555
Fe13 O53 2.168098 1_555
Fe13 O60 2.246850 1_555
Fe14 O7 1.997809 1_555
Fe14 O23 2.003732 1_555
Fe14 O14 2.019166 1_556
Fe14 O30 2.028977 1_555
Fe14 O63 2.104016 1_555
Fe14 O54 2.371150 1_556
Fe15 O15 2.011301 1_555
Fe15 O31 2.011645 1_555
Fe15 O22 2.011756 1_555
Fe15 O6 2.025063 1_555
Fe15 O55 2.166455 1_555
Fe15 O62 2.248157 1_555
Fe16 O56 1.886165 1_555
Fe16 O32 1.899256 1_555
Fe16 O74 1.925990 1_545
Fe16 O68 1.946033 1_455
Fe17 O34 1.894125 1_555
Fe17 O58 1.898387 1_555
Fe17 O72 1.942597 1_555
Fe17 O70 1.953518 1_455
Fe18 O60 1.891733 1_555
Fe18 O36 1.899409 1_555
Fe18 O64 1.909549 1_555
Fe18 O78 1.934131 1_545
Fe19 O37 1.901322 1_555
Fe19 O61 1.906945 1_555
Fe19 O65 1.928317 1_555
Fe19 O79 1.950011 1_545
Fe20 O62 1.894954 1_555
Fe20 O38 1.896456 1_555
Fe20 O76 1.939073 1_555
Fe20 O66 1.954005 1_555
Fe21 O40 1.890193 1_555
Fe21 O48 1.896323 1_555
Fe21 O66 1.940132 1_555
Fe21 O72 1.962761 1_555
Fe22 O44 1.896969 1_555
Fe22 O52 1.902613 1_555
Fe22 O70 1.933778 1_555
Fe22 O76 1.950423 1_555
Fe23 O46 1.887179 1_555
Fe23 O54 1.901088 1_555
Fe23 O68 1.936302 1_565
Fe23 O78 1.943720 1_555
O0 Sr7 2.609790 1_545
O0 Sr24 2.623353 1_455
O0 Sr14 2.678564 1_555
O0 Sr0 2.712222 1_555
O1 Sr25 2.618136 1_455
O1 Sr8 2.636539 1_545
O1 Sr13 2.680329 1_556
O2 Sr5 2.620945 1_555
O2 Sr26 2.623868 1_455
O2 Sr15 2.687088 1_555
O2 Sr1 2.705296 1_555
O3 Sr27 2.581046 1_455
O3 Sr6 2.605540 1_555
O4 Sr20 2.609659 1_555
O4 Sr11 2.625972 1_545
O4 Sr17 2.683626 1_555
O4 Sr2 2.690200 1_555
O5 Sr21 2.574762 1_555
O5 Sr12 2.614381 1_545
O5 Sr16 2.692640 1_556
O6 Sr22 2.603588 1_555
O6 Sr9 2.628281 1_555
O6 Sr19 2.666939 1_555
O6 Sr4 2.706785 1_555
O7 Sr23 2.611471 1_555
O7 Sr10 2.642386 1_555
O7 Sr18 2.661927 1_556
O7 Sr3 2.696979 1_556
O8 Sr25 2.644116 1_454
O8 Sr13 2.646669 1_555
O8 Sr6 2.694433 1_554
O9 Sr14 2.607358 1_555
O9 Sr1 2.615295 1_555
O9 Sr24 2.660272 1_455
O9 Sr5 2.682245 1_555
O10 Sr27 2.627600 1_455
O10 Sr8 2.637851 1_555
O11 Sr15 2.604056 1_555
O11 Sr0 2.632970 1_565
O11 Sr7 2.652249 1_555
O11 Sr26 2.680982 1_455
O12 Sr3 2.639379 1_555
O12 Sr16 2.648038 1_555
O12 Sr21 2.695393 1_554
O12 Sr10 2.704118 1_554
O13 Sr4 2.618991 1_555
O13 Sr17 2.620104 1_555
O13 Sr9 2.678846 1_555
O13 Sr20 2.686362 1_555
O14 Sr18 2.624935 1_555
O14 Sr23 2.645994 1_554
O14 Sr12 2.681136 1_554
O15 Sr19 2.614649 1_555
O15 Sr2 2.624826 1_565
O15 Sr22 2.658303 1_555
O15 Sr11 2.695013 1_555
O16 Sr20 2.622566 1_555
O16 Sr7 2.652485 1_545
O16 Sr0 2.671886 1_555
O16 Sr17 2.693988 1_555
O17 Sr8 2.606651 1_545
O17 Sr21 2.626388 1_555
O17 Sr16 2.694432 1_556
O18 Sr22 2.593899 1_555
O18 Sr5 2.631718 1_555
O18 Sr19 2.691419 1_555
O18 Sr1 2.692665 1_555
O19 Sr23 2.619377 1_555
O19 Sr6 2.626071 1_555
O19 Sr18 2.693232 1_556
O20 Sr11 2.618342 1_545
O20 Sr24 2.626458 1_555
O20 Sr2 2.691898 1_555
O20 Sr14 2.707677 1_655
O21 Sr25 2.606827 1_555
O21 Sr12 2.617962 1_545
O21 Sr13 2.701673 1_656
O22 Sr26 2.622308 1_555
O22 Sr9 2.641696 1_555
O22 Sr4 2.682647 1_555
O22 Sr15 2.708442 1_655
O23 Sr10 2.587056 1_555
O23 Sr27 2.633980 1_555
O23 Sr3 2.701387 1_556
O24 Sr16 2.637063 1_555
O24 Sr21 2.655567 1_554
O24 Sr6 2.671019 1_554
O25 Sr1 2.577542 1_555
O25 Sr17 2.633317 1_555
O25 Sr20 2.674360 1_555
O25 Sr5 2.692525 1_555
O26 Sr23 2.646076 1_554
O26 Sr8 2.661702 1_554
O26 Sr18 2.687576 1_555
O27 Sr0 2.584595 1_565
O27 Sr19 2.609200 1_555
O27 Sr22 2.659342 1_555
O27 Sr7 2.685734 1_555
O28 Sr3 2.637963 1_555
O28 Sr13 2.638756 1_655
O28 Sr10 2.684589 1_554
O28 Sr25 2.685403 1_554
O29 Sr4 2.584018 1_555
O29 Sr14 2.624363 1_655
O29 Sr24 2.654023 1_555
O29 Sr9 2.693423 1_555
O30 Sr12 2.603226 1_555
O30 Sr27 2.655467 1_555
O31 Sr2 2.607292 1_565
O31 Sr15 2.613290 1_655
O31 Sr26 2.672931 1_555
O31 Sr11 2.684940 1_555
O32 Sr13 2.592954 1_555
O33 Sr14 2.637796 1_555
O33 Sr0 2.797718 1_555
O33 Sr2 2.921545 1_455
O33 Sr15 3.155469 1_545
O34 Sr3 2.878980 1_455
O34 Sr13 3.147921 1_555
O35 Sr15 2.640886 1_555
O35 Sr1 2.808937 1_555
O35 Sr4 2.898198 1_455
O35 Sr14 3.156089 1_555
O36 Sr16 2.547602 1_555
O37 Sr17 2.563485 1_555
O37 Sr2 2.735058 1_555
O37 Sr0 2.999175 1_555
O38 Sr18 2.560972 1_555
O38 Sr3 2.774161 1_555
O39 Sr19 2.618708 1_555
O39 Sr4 2.811551 1_555
O39 Sr1 2.905233 1_555
O39 Sr17 3.160003 1_555
O40 Sr20 2.520653 1_555
O40 Sr9 2.774762 1_555
O40 Sr5 2.963098 1_555
O41 Sr21 2.649608 1_555
O41 Sr10 2.802581 1_555
O41 Sr6 2.893754 1_555
O41 Sr23 3.126929 1_555
O42 Sr22 2.568265 1_555
O42 Sr11 2.802383 1_555
O42 Sr7 2.930605 1_555
O42 Sr20 3.207998 1_565
O43 Sr23 2.657819 1_555
O43 Sr12 2.801710 1_555
O43 Sr8 2.891501 1_555
O43 Sr21 3.152996 1_565
O44 Sr24 2.540546 1_555
O44 Sr5 2.764460 1_655
O44 Sr9 2.988762 1_555
O45 Sr25 2.627619 1_555
O45 Sr6 2.826268 1_655
O45 Sr10 2.891047 1_555
O45 Sr27 3.135422 1_555
O46 Sr26 2.491498 1_555
O46 Sr7 2.786004 1_655
O46 Sr11 2.929607 1_555
O47 Sr27 2.688233 1_555
O47 Sr8 2.835513 1_655
O47 Sr12 2.900667 1_555
O47 Sr25 3.143440 1_565
O48 Sr16 2.740651 1_555
O48 Sr13 2.989701 1_555
O49 Sr0 2.640645 1_555
O49 Sr17 2.826514 1_555
O49 Sr14 2.889264 1_555
O49 Sr1 3.146820 1_555
O50 Sr18 2.818747 1_555
O51 Sr1 2.631770 1_555
O51 Sr19 2.817862 1_555
O51 Sr15 2.895966 1_555
O51 Sr0 3.169744 1_565
O52 Sr13 2.748222 1_655
O52 Sr16 2.981973 1_555
O52 Sr3 3.133958 1_555
O53 Sr2 2.633814 1_555
O53 Sr14 2.799593 1_655
O53 Sr17 2.899614 1_555
O53 Sr4 3.144225 1_555
O54 Sr3 2.563872 1_555
O54 Sr18 2.858859 1_555
O55 Sr4 2.650420 1_555
O55 Sr15 2.820220 1_655
O55 Sr19 2.884314 1_555
O55 Sr2 3.164369 1_565
O56 Sr5 2.497456 1_555
O56 Sr20 2.730743 1_555
O56 Sr24 2.995501 1_455
O57 Sr6 2.643234 1_555
O57 Sr21 2.808927 1_555
O57 Sr25 2.925744 1_455
O57 Sr8 3.147164 1_545
O58 Sr7 2.539541 1_555
O58 Sr22 2.754717 1_555
O58 Sr26 3.001098 1_455
O59 Sr8 2.659544 1_555
O59 Sr23 2.794953 1_555
O59 Sr27 2.920134 1_455
O59 Sr6 3.147704 1_555
O60 Sr9 2.513840 1_555
O60 Sr24 2.696984 1_555
O61 Sr10 2.553304 1_555
O61 Sr25 2.746807 1_555
O61 Sr21 2.965154 1_555
O62 Sr11 2.532237 1_555
O62 Sr26 2.721129 1_555
O62 Sr22 3.031971 1_555
O63 Sr12 2.649927 1_555
O63 Sr27 2.833412 1_555
O63 Sr23 2.874761 1_555
O63 Sr10 3.148829 1_555
O64 Sr20 2.460843 1_555
O65 Sr0 2.503055 1_555
O65 Sr21 2.503176 1_555
O66 Sr22 2.439141 1_555
O67 Sr1 2.501219 1_555
O67 Sr23 2.503448 1_555
O68 Sr24 2.466497 1_555
O69 Sr25 2.506711 1_555
O69 Sr2 2.508680 1_555
O70 Sr26 2.471784 1_555
O70 Sr3 2.518034 1_555
O71 Sr27 2.497252 1_555
O71 Sr4 2.509195 1_555
O72 Sr5 2.494827 1_555
O72 Sr13 2.522484 1_555
O73 Sr6 2.500895 1_555
O73 Sr14 2.503367 1_555
O74 Sr7 2.450328 1_555
O75 Sr15 2.486664 1_555
O75 Sr8 2.487765 1_555
O76 Sr9 2.493093 1_555
O76 Sr16 2.517241 1_555
O77 Sr17 2.502664 1_555
O77 Sr10 2.505870 1_555
O78 Sr11 2.503341 1_555
O78 Sr18 2.521314 1_555
O79 Sr19 2.477168 1_555
O79 Sr12 2.479232 1_555
