# generated using pymatgen
data_KVOF3
_symmetry_space_group_name_H-M   'P 1'
_cell_length_a   7.36276691
_cell_length_b   7.69979001
_cell_length_c   7.93510542
_cell_angle_alpha   60.97102564
_cell_angle_beta   102.88880243
_cell_angle_gamma   90.00416696
_symmetry_Int_Tables_number   1
_chemical_formula_structural   KVOF3
_chemical_formula_sum   'K4 V4 O4 F12'
_cell_volume   380.33133496
_cell_formula_units_Z   4
loop_
 _symmetry_equiv_pos_site_id
 _symmetry_equiv_pos_as_xyz
  1  'x, y, z'
loop_
 _atom_site_type_symbol
 _atom_site_label
 _atom_site_symmetry_multiplicity
 _atom_site_fract_x
 _atom_site_fract_y
 _atom_site_fract_z
 _atom_site_occupancy
  K  K0  1  0.76813000  0.89230900  0.21537400  1
  K  K1  1  0.23186900  0.10767100  0.78462000  1
  K  K2  1  0.14842100  0.64222500  0.71562600  1
  K  K3  1  0.85158600  0.35777400  0.28438600  1
  V  V0  1  0.31786000  0.10789200  0.29146500  1
  V  V1  1  0.68214000  0.89212800  0.70850800  1
  V  V2  1  0.31783000  0.60031900  0.29171300  1
  V  V3  1  0.68218000  0.39969300  0.70826200  1
  O  O0  1  0.28094800  0.68742300  0.05119400  1
  O  O1  1  0.28079000  0.26172000  0.05086700  1
  O  O2  1  0.71905800  0.31255900  0.94886700  1
  O  O3  1  0.71921000  0.73828500  0.94909900  1
  F  F0  1  0.37668300  0.86023500  0.27957200  1
  F  F1  1  0.62333000  0.13977800  0.72043300  1
  F  F2  1  0.27340400  0.31423400  0.37136100  1
  F  F3  1  0.72659200  0.68575800  0.62864900  1
  F  F4  1  0.59628100  0.52370600  0.38227600  1
  F  F5  1  0.59617800  0.09413800  0.38219400  1
  F  F6  1  0.40372100  0.47628900  0.61774900  1
  F  F7  1  0.40382100  0.90586400  0.61778400  1
  F  F8  1  0.07731800  0.63434700  0.32991500  1
  F  F9  1  0.07742000  0.03588900  0.32984500  1
  F  F10  1  0.92265100  0.36564900  0.67011500  1
  F  F11  1  0.92258100  0.96411400  0.67012700  1
loop_
_geom_bond_atom_site_label_1
_geom_bond_atom_site_label_2
_geom_bond_distance
_geom_bond_site_symmetry_2
K0 O2 2.844560 1_564
K0 O3 2.844816 1_554
K1 O0 2.844632 1_546
K1 O1 2.844762 1_556
K2 O1 2.808921 1_556
K2 O0 2.811359 1_556
K3 O3 2.809088 1_554
K3 O2 2.811075 1_554
O0 V2 1.640927 1_555
O1 V0 1.641740 1_555
O2 V3 1.641527 1_555
O3 V1 1.641715 1_555
F0 V0 2.006435 1_565
F0 V2 2.008388 1_555
F0 K0 3.026547 1_555
F1 V1 2.006502 1_545
F1 V3 2.008284 1_555
F1 K1 3.026619 1_555
F2 V2 2.024778 1_555
F2 V0 2.025718 1_555
F2 K1 2.960105 1_555
F2 K3 3.008944 1_455
F3 V3 2.024660 1_555
F3 V1 2.025699 1_555
F3 K0 2.960223 1_555
F3 K2 3.009022 1_655
F4 V2 1.999774 1_555
F4 V3 2.208181 1_555
F4 K3 2.717370 1_555
F4 K0 2.917057 1_555
F5 V0 1.999148 1_555
F5 V1 2.210182 1_545
F5 K3 2.716779 1_555
F5 K0 2.917975 1_545
F6 V3 1.999819 1_555
F6 V2 2.208518 1_555
F6 K2 2.717292 1_555
F6 K1 2.917136 1_555
F7 V1 1.999168 1_555
F7 V0 2.210231 1_565
F7 K2 2.716770 1_555
F7 K1 2.917950 1_565
F8 V2 1.900795 1_555
F8 K0 2.698000 1_455
F8 K3 2.811776 1_455
F8 K2 3.018399 1_555
F9 V0 1.900160 1_555
F9 K0 2.698979 1_445
F9 K3 2.811220 1_455
F9 K2 3.018795 1_545
F10 V3 1.900340 1_555
F10 K1 2.698300 1_655
F10 K2 2.811901 1_655
F10 K3 3.018542 1_555
F11 V1 1.900141 1_555
F11 K1 2.698927 1_665
F11 K2 2.811134 1_655
F11 K3 3.018627 1_565
