# generated using pymatgen
data_CeGaCu4
_symmetry_space_group_name_H-M   'P 1'
_cell_length_a   5.11691904
_cell_length_b   5.11691852
_cell_length_c   4.14443420
_cell_angle_alpha   90.00000000
_cell_angle_beta   90.00000000
_cell_angle_gamma   120.03576829
_symmetry_Int_Tables_number   1
_chemical_formula_structural   CeGaCu4
_chemical_formula_sum   'Ce1 Ga1 Cu4'
_cell_volume   93.94123898
_cell_formula_units_Z   1
loop_
 _symmetry_equiv_pos_site_id
 _symmetry_equiv_pos_as_xyz
  1  'x, y, z'
loop_
 _atom_site_type_symbol
 _atom_site_label
 _atom_site_symmetry_multiplicity
 _atom_site_fract_x
 _atom_site_fract_y
 _atom_site_fract_z
 _atom_site_occupancy
  Ce  Ce0  1  0.50000000  0.50000000  0.00000000  1
  Ga  Ga0  1  -0.00000000  -0.00000000  0.50000000  1
  Cu  Cu0  1  0.17007746  0.82992254  -0.00000000  1
  Cu  Cu1  1  0.82992254  0.17007746  -0.00000000  1
  Cu  Cu2  1  -0.00000000  0.50000000  0.50000000  1
  Cu  Cu3  1  0.50000000  -0.00000000  0.50000000  1
loop_
_geom_bond_atom_site_label_1
_geom_bond_atom_site_label_2
_geom_bond_distance
_geom_bond_site_symmetry_2
Ce0 Cu1 2.924552 1_555
Ce0 Cu0 2.924552 1_555
Ce0 Cu1 2.968430 1_565
Ce0 Cu0 2.968430 1_545
Ce0 Cu0 2.968431 1_655
Ce0 Cu1 2.968431 1_455
Ce0 Ga0 3.291310 1_554
Ce0 Ga0 3.291310 1_664
Ce0 Ga0 3.291310 1_555
Ce0 Ga0 3.291310 1_665
Ce0 Cu3 3.292385 1_554
Ce0 Cu3 3.292385 1_565
Ce0 Cu3 3.292385 1_555
Ce0 Cu3 3.292385 1_564
Ce0 Cu2 3.292385 1_554
Ce0 Cu2 3.292385 1_555
Ce0 Cu2 3.292385 1_655
Ce0 Cu2 3.292385 1_654
Cu0 Cu2 2.535875 1_554
Cu0 Cu2 2.535875 1_555
Cu0 Cu3 2.535875 1_564
Cu0 Cu3 2.535875 1_565
Cu0 Ga0 2.562621 1_565
Cu0 Ga0 2.562621 1_564
Cu0 Cu1 2.923408 1_455
Cu0 Cu1 2.923408 1_565
Cu0 Cu1 3.015256 1_465
Cu1 Cu2 2.535875 1_655
Cu1 Cu2 2.535875 1_654
Cu1 Cu3 2.535875 1_554
Cu1 Cu3 2.535875 1_555
Cu1 Ga0 2.562621 1_654
Cu1 Ga0 2.562621 1_655
Cu2 Cu3 2.557076 1_565
Cu2 Cu3 2.557076 1_455
Cu2 Ga0 2.558459 1_555
Cu2 Ga0 2.558459 1_565
Cu3 Ga0 2.558460 1_555
Cu3 Ga0 2.558460 1_655
