# generated using pymatgen
data_Ba2LuTaO6
_symmetry_space_group_name_H-M   'P 1'
_cell_length_a   5.92245501
_cell_length_b   5.92245501
_cell_length_c   5.92245501
_cell_angle_alpha   60.00000000
_cell_angle_beta   60.00000000
_cell_angle_gamma   60.00000000
_symmetry_Int_Tables_number   1
_chemical_formula_structural   Ba2LuTaO6
_chemical_formula_sum   'Ba2 Lu1 Ta1 O6'
_cell_volume   146.88935147
_cell_formula_units_Z   1
loop_
 _symmetry_equiv_pos_site_id
 _symmetry_equiv_pos_as_xyz
  1  'x, y, z'
loop_
 _atom_site_type_symbol
 _atom_site_label
 _atom_site_symmetry_multiplicity
 _atom_site_fract_x
 _atom_site_fract_y
 _atom_site_fract_z
 _atom_site_occupancy
  Ba  Ba0  1  0.75000000  0.75000000  0.75000000  1
  Ba  Ba1  1  0.25000000  0.25000000  0.25000000  1
  Lu  Lu0  1  0.50000000  0.50000000  0.50000000  1
  Ta  Ta0  1  0.00000000  -0.00000000  -0.00000000  1
  O  O0  1  0.76108060  0.76108060  0.23891940  1
  O  O1  1  0.23891940  0.76108060  0.23891940  1
  O  O2  1  0.76108060  0.23891940  0.23891940  1
  O  O3  1  0.23891940  0.23891940  0.76108060  1
  O  O4  1  0.76108060  0.23891940  0.76108060  1
  O  O5  1  0.23891940  0.76108060  0.76108060  1
loop_
_geom_bond_atom_site_label_1
_geom_bond_atom_site_label_2
_geom_bond_distance
_geom_bond_site_symmetry_2
Ba0 O5 2.962681 1_655
Ba0 O0 2.962681 1_556
Ba0 O4 2.962681 1_565
Ba0 O3 2.962681 1_655
Ba0 O1 2.962681 1_655
Ba0 O2 2.962681 1_565
Ba0 O3 2.962681 1_565
Ba0 O2 2.962681 1_556
Ba0 O1 2.962681 1_556
Ba0 O0 2.962681 1_555
Ba0 O4 2.962681 1_555
Ba0 O5 2.962681 1_555
Ba1 O2 2.962681 1_555
Ba1 O1 2.962681 1_555
Ba1 O3 2.962681 1_555
Ba1 O4 2.962681 1_554
Ba1 O5 2.962681 1_554
Ba1 O0 2.962681 1_545
Ba1 O0 2.962681 1_455
Ba1 O5 2.962681 1_545
Ba1 O4 2.962681 1_455
Ba1 O3 2.962681 1_554
Ba1 O1 2.962681 1_545
Ba1 O2 2.962681 1_455
Lu0 O5 2.186711 1_555
Lu0 O0 2.186711 1_555
Lu0 O4 2.186711 1_555
Lu0 O3 2.186711 1_555
Lu0 O2 2.186711 1_555
Lu0 O1 2.186711 1_555
O0 Ta0 2.001097 1_665
O1 Ta0 2.001097 1_565
O2 Ta0 2.001097 1_655
O3 Ta0 2.001097 1_556
O4 Ta0 2.001097 1_656
O5 Ta0 2.001097 1_566
