# generated using pymatgen
data_Mg6TiFe
_symmetry_space_group_name_H-M   'P 1'
_cell_length_a   4.78247600
_cell_length_b   6.08771000
_cell_length_c   10.98028800
_cell_angle_alpha   90.00000000
_cell_angle_beta   90.00000000
_cell_angle_gamma   90.00000000
_symmetry_Int_Tables_number   1
_chemical_formula_structural   Mg6TiFe
_chemical_formula_sum   'Mg12 Ti2 Fe2'
_cell_volume   319.68369506
_cell_formula_units_Z   2
loop_
 _symmetry_equiv_pos_site_id
 _symmetry_equiv_pos_as_xyz
  1  'x, y, z'
loop_
 _atom_site_type_symbol
 _atom_site_label
 _atom_site_symmetry_multiplicity
 _atom_site_fract_x
 _atom_site_fract_y
 _atom_site_fract_z
 _atom_site_occupancy
  Mg  Mg0  1  0.00000000  0.74062800  0.08319500  1
  Mg  Mg1  1  0.00000000  0.25937200  0.08319500  1
  Mg  Mg2  1  0.00000000  0.00000000  0.33078500  1
  Mg  Mg3  1  0.50000000  0.26039800  0.42066800  1
  Mg  Mg4  1  0.50000000  0.73960200  0.42066800  1
  Mg  Mg5  1  0.50000000  0.00000000  0.16625900  1
  Mg  Mg6  1  0.00000000  0.24062800  0.58319500  1
  Mg  Mg7  1  0.00000000  0.75937200  0.58319500  1
  Mg  Mg8  1  0.00000000  0.50000000  0.83078500  1
  Mg  Mg9  1  0.50000000  0.76039800  0.92066800  1
  Mg  Mg10  1  0.50000000  0.23960200  0.92066800  1
  Mg  Mg11  1  0.50000000  0.50000000  0.66625900  1
  Ti  Ti0  1  0.50000000  0.50000000  0.18969000  1
  Ti  Ti1  1  0.50000000  0.00000000  0.68969000  1
  Fe  Fe0  1  0.00000000  0.50000000  0.30553900  1
  Fe  Fe1  1  0.00000000  0.00000000  0.80553900  1
loop_
_geom_bond_atom_site_label_1
_geom_bond_atom_site_label_2
_geom_bond_distance
_geom_bond_site_symmetry_2
Mg0 Mg1 2.929747 1_555
Mg0 Mg9 2.986181 1_554
Mg0 Mg9 2.986181 1_454
Mg0 Mg5 3.007169 1_565
Mg0 Mg5 3.007169 1_465
Mg0 Ti0 3.038296 1_555
Mg0 Ti0 3.038296 1_455
Mg0 Mg8 3.134846 1_554
Mg0 Mg2 3.143886 1_565
Mg0 Mg1 3.157963 1_565
Mg1 Mg10 2.986181 1_554
Mg1 Mg10 2.986181 1_454
Mg1 Mg5 3.007169 1_455
Mg1 Mg5 3.007169 1_555
Mg1 Ti0 3.038296 1_555
Mg1 Ti0 3.038296 1_455
Mg1 Mg8 3.134846 1_554
Mg1 Mg2 3.143886 1_555
Mg2 Mg5 2.996934 1_555
Mg2 Mg5 2.996934 1_455
Mg2 Mg3 3.033977 1_555
Mg2 Mg3 3.033977 1_455
Mg2 Mg4 3.033977 1_545
Mg2 Mg4 3.033977 1_445
Mg2 Mg6 3.134846 1_555
Mg2 Mg7 3.134846 1_545
Mg3 Mg4 2.917255 1_555
Mg3 Ti0 2.925736 1_555
Mg3 Mg6 2.986181 1_655
Mg3 Mg6 2.986181 1_555
Mg3 Mg4 3.170455 1_545
Mg3 Mg5 3.211931 1_555
Mg3 Ti1 3.352417 1_555
Mg4 Ti0 2.925736 1_555
Mg4 Mg7 2.986181 1_655
Mg4 Mg7 2.986181 1_555
Mg4 Mg5 3.211931 1_565
Mg4 Ti1 3.352417 1_565
Mg5 Ti0 3.054709 1_545
Mg5 Ti0 3.054709 1_555
Mg5 Mg9 3.065872 1_544
Mg6 Mg7 2.929747 1_545
Mg6 Ti1 3.038296 1_555
Mg6 Ti1 3.038296 1_455
Mg6 Mg8 3.143886 1_555
Mg6 Mg7 3.157963 1_555
Mg7 Ti1 3.038296 1_465
Mg7 Ti1 3.038296 1_565
Mg7 Mg8 3.143886 1_555
Mg8 Mg9 3.033977 1_455
Mg8 Mg9 3.033977 1_555
Mg9 Ti1 2.925736 1_565
Mg9 Ti0 3.352417 1_556
Mg10 Mg9 2.917255 1_545
Mg10 Ti1 2.925736 1_555
Mg10 Mg8 3.033977 1_555
Mg10 Mg8 3.033977 1_655
Mg10 Mg5 3.065872 1_556
Mg10 Mg9 3.170455 1_555
Mg10 Mg11 3.211931 1_555
Mg10 Ti0 3.352417 1_556
Mg11 Mg8 2.996934 1_655
Mg11 Mg8 2.996934 1_555
Mg11 Mg7 3.007169 1_655
Mg11 Mg7 3.007169 1_555
Mg11 Mg6 3.007169 1_555
Mg11 Mg6 3.007169 1_655
Mg11 Ti1 3.054709 1_555
Mg11 Ti1 3.054709 1_565
Mg11 Mg4 3.065872 1_555
Mg11 Mg3 3.065872 1_555
Mg11 Mg9 3.211931 1_555
Fe0 Ti0 2.708532 1_555
Fe0 Ti0 2.708532 1_455
Fe0 Mg0 2.847155 1_555
Fe0 Mg1 2.847155 1_555
Fe0 Mg2 3.056452 1_565
Fe0 Mg2 3.056452 1_555
Fe0 Mg4 3.073058 1_455
Fe0 Mg4 3.073058 1_555
Fe0 Mg3 3.073058 1_455
Fe0 Mg3 3.073058 1_555
Fe0 Mg7 3.433368 1_555
Fe0 Mg6 3.433368 1_555
Fe1 Ti1 2.708532 1_555
Fe1 Ti1 2.708532 1_455
Fe1 Mg6 2.847155 1_555
Fe1 Mg7 2.847155 1_545
Fe1 Mg8 3.056452 1_555
Fe1 Mg8 3.056452 1_545
Fe1 Mg10 3.073058 1_555
Fe1 Mg10 3.073058 1_455
Fe1 Mg9 3.073058 1_545
Fe1 Mg9 3.073058 1_445
Fe1 Mg1 3.433368 1_556
Fe1 Mg0 3.433368 1_546
