# generated using pymatgen
data_Zr3SiMo8
_symmetry_space_group_name_H-M   'P 1'
_cell_length_a   5.36472960
_cell_length_b   5.36472960
_cell_length_c   8.59693500
_cell_angle_alpha   90.00000000
_cell_angle_beta   90.00000000
_cell_angle_gamma   119.99999504
_symmetry_Int_Tables_number   1
_chemical_formula_structural   Zr3SiMo8
_chemical_formula_sum   'Zr3 Si1 Mo8'
_cell_volume   214.27424332
_cell_formula_units_Z   1
loop_
 _symmetry_equiv_pos_site_id
 _symmetry_equiv_pos_as_xyz
  1  'x, y, z'
loop_
 _atom_site_type_symbol
 _atom_site_label
 _atom_site_symmetry_multiplicity
 _atom_site_fract_x
 _atom_site_fract_y
 _atom_site_fract_z
 _atom_site_occupancy
  Zr  Zr0  1  0.66666700  0.33333300  0.44405600  1
  Zr  Zr1  1  0.66666700  0.33333300  0.06165400  1
  Zr  Zr2  1  0.00000000  0.00000000  0.93699700  1
  Si  Si0  1  0.00000000  0.00000000  0.56470700  1
  Mo  Mo0  1  0.33333300  0.66666700  0.49797900  1
  Mo  Mo1  1  0.33333300  0.66666700  0.99673800  1
  Mo  Mo2  1  0.50391700  0.00783400  0.74502700  1
  Mo  Mo3  1  0.50391700  0.49608300  0.74502700  1
  Mo  Mo4  1  0.99216600  0.49608300  0.74502700  1
  Mo  Mo5  1  0.16256100  0.32512200  0.25424400  1
  Mo  Mo6  1  0.16256100  0.83743900  0.25424400  1
  Mo  Mo7  1  0.67487800  0.83743900  0.25424400  1
loop_
_geom_bond_atom_site_label_1
_geom_bond_atom_site_label_2
_geom_bond_distance
_geom_bond_site_symmetry_2
Si0 Zr2 3.200553 1_555
Si0 Zr0 3.266384 1_455
Si0 Zr0 3.266389 1_445
Si0 Zr0 3.266389 1_555
Mo0 Mo6 2.628414 1_555
Mo0 Mo7 2.628417 1_555
Mo0 Mo5 2.628417 1_555
Mo0 Mo2 2.650127 1_565
Mo0 Mo4 2.650127 1_455
Mo0 Mo3 2.650130 1_555
Mo0 Zr0 3.131824 1_455
Mo0 Zr0 3.131824 1_565
Mo0 Zr0 3.131833 1_555
Mo0 Si0 3.150000 1_565
Mo0 Si0 3.150005 1_665
Mo0 Si0 3.150005 1_555
Mo1 Mo2 2.682361 1_565
Mo1 Mo4 2.682361 1_455
Mo1 Mo3 2.682364 1_555
Mo1 Mo6 2.723731 1_556
Mo1 Mo7 2.723734 1_556
Mo1 Mo5 2.723734 1_556
Mo1 Zr2 3.139617 1_565
Mo1 Zr2 3.139622 1_555
Mo1 Zr2 3.139622 1_665
Mo1 Zr1 3.147201 1_456
Mo1 Zr1 3.147201 1_566
Mo1 Zr1 3.147210 1_556
Mo2 Mo3 2.619324 1_555
Mo2 Mo4 2.619324 1_555
Mo2 Mo3 2.745406 1_545
Mo2 Mo4 2.745406 1_445
Mo2 Zr0 2.996954 1_555
Mo2 Si0 3.098310 1_655
Mo2 Si0 3.098310 1_555
Mo2 Zr1 3.113896 1_556
Mo2 Zr2 3.149615 1_655
Mo2 Zr2 3.149615 1_555
Mo3 Mo4 2.619324 1_555
Mo3 Mo4 2.745406 1_455
Mo3 Zr0 2.996956 1_555
Mo3 Si0 3.098310 1_665
Mo3 Si0 3.098310 1_555
Mo3 Zr1 3.113899 1_556
Mo3 Zr2 3.149615 1_555
Mo3 Zr2 3.149615 1_665
Mo4 Zr0 2.996954 1_555
Mo4 Si0 3.098310 1_655
Mo4 Si0 3.098310 1_665
Mo4 Zr1 3.113896 1_556
Mo4 Zr2 3.149615 1_655
Mo4 Zr2 3.149615 1_665
Mo5 Mo6 2.616287 1_545
Mo5 Mo7 2.616288 1_445
Mo5 Mo6 2.748442 1_555
Mo5 Mo7 2.748442 1_555
Mo5 Si0 3.066819 1_555
Mo5 Zr2 3.117708 1_554
Mo5 Zr0 3.139952 1_455
Mo5 Zr0 3.139956 1_555
Mo5 Zr1 3.152429 1_455
Mo5 Zr1 3.152434 1_555
Mo6 Mo7 2.616287 1_455
Mo6 Mo7 2.748442 1_555
Mo6 Si0 3.066818 1_565
Mo6 Zr2 3.117708 1_564
Mo6 Zr0 3.139954 1_455
Mo6 Zr0 3.139954 1_565
Mo6 Zr1 3.152432 1_455
Mo6 Zr1 3.152432 1_565
Mo7 Si0 3.066819 1_665
Mo7 Zr2 3.117708 1_664
Mo7 Zr0 3.139952 1_565
Mo7 Zr0 3.139956 1_555
Mo7 Zr1 3.152429 1_565
Mo7 Zr1 3.152434 1_555
