# generated using pymatgen
data_KMg14Ga
_symmetry_space_group_name_H-M   'P 1'
_cell_length_a   6.43125275
_cell_length_b   6.43125222
_cell_length_c   10.50939725
_cell_angle_alpha   90.00000000
_cell_angle_beta   90.00000000
_cell_angle_gamma   120.00000275
_symmetry_Int_Tables_number   1
_chemical_formula_structural   KMg14Ga
_chemical_formula_sum   'K1 Mg14 Ga1'
_cell_volume   376.44327949
_cell_formula_units_Z   1
loop_
 _symmetry_equiv_pos_site_id
 _symmetry_equiv_pos_as_xyz
  1  'x, y, z'
loop_
 _atom_site_type_symbol
 _atom_site_label
 _atom_site_symmetry_multiplicity
 _atom_site_fract_x
 _atom_site_fract_y
 _atom_site_fract_z
 _atom_site_occupancy
  K  K0  1  0.16666700  0.33333300  0.12500000  1
  Mg  Mg0  1  0.17370218  0.83685058  0.12500000  1
  Mg  Mg1  1  0.15690767  0.82845333  0.62500000  1
  Mg  Mg2  1  0.66314942  0.32629782  0.12500000  1
  Mg  Mg3  1  0.67154667  0.34309233  0.62500000  1
  Mg  Mg4  1  0.66314942  0.83685058  0.12500000  1
  Mg  Mg5  1  0.67154667  0.82845333  0.62500000  1
  Mg  Mg6  1  0.33401013  0.16598987  0.39442179  1
  Mg  Mg7  1  0.33401013  0.16598987  0.85557821  1
  Mg  Mg8  1  0.33401013  0.66802127  0.39442179  1
  Mg  Mg9  1  0.33401013  0.66802127  0.85557821  1
  Mg  Mg10  1  0.83197873  0.16598987  0.39442179  1
  Mg  Mg11  1  0.83197873  0.16598987  0.85557821  1
  Mg  Mg12  1  0.83333300  0.66666700  0.36767415  1
  Mg  Mg13  1  0.83333300  0.66666700  0.88232585  1
  Ga  Ga0  1  0.16666700  0.33333300  0.62500000  1
loop_
_geom_bond_atom_site_label_1
_geom_bond_atom_site_label_2
_geom_bond_distance
_geom_bond_site_symmetry_2
K0 Mg0 3.215865 1_555
K0 Mg4 3.215865 1_555
K0 Mg4 3.215865 1_445
K0 Mg0 3.215865 1_545
K0 Mg2 3.215865 1_455
K0 Mg2 3.215865 1_555
K0 Mg7 3.389979 1_554
K0 Mg6 3.389979 1_555
K0 Mg8 3.389985 1_555
K0 Mg9 3.389985 1_554
K0 Mg10 3.389985 1_455
K0 Mg11 3.389985 1_454
Mg0 Mg2 3.147759 1_565
Mg0 Mg4 3.147759 1_555
Mg0 Mg12 3.177754 1_455
Mg0 Mg13 3.177754 1_454
Mg0 Mg2 3.283494 1_455
Mg0 Mg4 3.283494 1_455
Mg0 Mg8 3.373194 1_555
Mg0 Mg9 3.373194 1_554
Mg0 Mg7 3.373200 1_564
Mg0 Mg6 3.373200 1_565
Mg1 Mg8 3.067432 1_555
Mg1 Mg9 3.067432 1_555
Mg1 Mg6 3.067438 1_565
Mg1 Mg7 3.067438 1_565
Mg1 Mg3 3.121479 1_455
Mg1 Mg5 3.121479 1_455
Mg1 Mg12 3.249822 1_455
Mg1 Mg13 3.249822 1_455
Mg1 Mg3 3.309773 1_565
Mg1 Mg5 3.309773 1_555
Mg2 Mg4 3.147759 1_545
Mg2 Mg4 3.283494 1_555
Mg2 Mg7 3.373201 1_554
Mg2 Mg6 3.373201 1_555
Mg3 Mg7 3.067438 1_555
Mg3 Mg6 3.067438 1_555
Mg3 Mg5 3.121479 1_555
Mg3 Mg5 3.309773 1_545
Mg4 Mg8 3.373200 1_555
Mg4 Mg9 3.373200 1_554
Mg5 Mg8 3.067439 1_555
Mg5 Mg9 3.067439 1_555
Mg6 Mg8 3.202562 1_545
Mg6 Mg8 3.228691 1_555
Mg7 Mg9 3.202562 1_545
Mg7 Mg9 3.228691 1_555
Mg10 Mg3 3.067432 1_555
Mg10 Mg5 3.067439 1_545
Mg10 Mg8 3.202562 1_545
Mg10 Mg6 3.202562 1_555
Mg10 Mg12 3.227898 1_555
Mg10 Mg12 3.227898 1_545
Mg10 Mg8 3.228691 1_655
Mg10 Mg6 3.228691 1_655
Mg10 Mg2 3.373194 1_555
Mg10 Mg4 3.373200 1_545
Mg11 Mg3 3.067432 1_555
Mg11 Mg5 3.067439 1_545
Mg11 Mg9 3.202562 1_545
Mg11 Mg7 3.202562 1_555
Mg11 Mg13 3.227898 1_555
Mg11 Mg13 3.227898 1_545
Mg11 Mg9 3.228691 1_655
Mg11 Mg7 3.228691 1_655
Mg11 Mg2 3.373194 1_556
Mg11 Mg4 3.373200 1_546
Mg12 Mg4 3.177748 1_555
Mg12 Mg2 3.177754 1_555
Mg12 Mg6 3.227898 1_555
Mg12 Mg6 3.227898 1_665
Mg12 Mg8 3.227898 1_655
Mg12 Mg8 3.227898 1_555
Mg12 Mg5 3.249816 1_555
Mg12 Mg3 3.249822 1_555
Mg13 Mg4 3.177748 1_556
Mg13 Mg2 3.177754 1_556
Mg13 Mg7 3.227898 1_555
Mg13 Mg7 3.227898 1_665
Mg13 Mg9 3.227898 1_655
Mg13 Mg9 3.227898 1_555
Mg13 Mg5 3.249816 1_555
Mg13 Mg3 3.249822 1_555
Ga0 Mg6 3.057265 1_555
Ga0 Mg7 3.057265 1_555
Ga0 Mg9 3.057272 1_555
Ga0 Mg8 3.057272 1_555
Ga0 Mg11 3.057272 1_455
Ga0 Mg10 3.057272 1_455
Ga0 Mg1 3.216085 1_555
Ga0 Mg5 3.216085 1_445
Ga0 Mg5 3.216085 1_555
Ga0 Mg1 3.216086 1_545
Ga0 Mg3 3.216086 1_455
Ga0 Mg3 3.216086 1_555
