# generated using pymatgen
data_TmAsPt
_symmetry_space_group_name_H-M   'P 1'
_cell_length_a   4.25980668
_cell_length_b   4.25980668
_cell_length_c   15.33632600
_cell_angle_alpha   90.00000000
_cell_angle_beta   90.00000000
_cell_angle_gamma   120.00001061
_symmetry_Int_Tables_number   1
_chemical_formula_structural   TmAsPt
_chemical_formula_sum   'Tm4 As4 Pt4'
_cell_volume   241.00813280
_cell_formula_units_Z   4
loop_
 _symmetry_equiv_pos_site_id
 _symmetry_equiv_pos_as_xyz
  1  'x, y, z'
loop_
 _atom_site_type_symbol
 _atom_site_label
 _atom_site_symmetry_multiplicity
 _atom_site_fract_x
 _atom_site_fract_y
 _atom_site_fract_z
 _atom_site_occupancy
  Tm  Tm0  1  0.00000000  0.00000000  0.50000000  1
  Tm  Tm1  1  0.00000000  0.00000000  0.00000000  1
  Tm  Tm2  1  0.00000000  0.00000000  0.25000000  1
  Tm  Tm3  1  0.00000000  0.00000000  0.75000000  1
  As  As0  1  0.33333300  0.66666700  0.88492300  1
  As  As1  1  0.66666700  0.33333300  0.11507700  1
  As  As2  1  0.66666700  0.33333300  0.38492300  1
  As  As3  1  0.33333300  0.66666700  0.61507700  1
  Pt  Pt0  1  0.33333300  0.66666700  0.36429800  1
  Pt  Pt1  1  0.66666700  0.33333300  0.63570200  1
  Pt  Pt2  1  0.66666700  0.33333300  0.86429800  1
  Pt  Pt3  1  0.33333300  0.66666700  0.13570200  1
loop_
_geom_bond_atom_site_label_1
_geom_bond_atom_site_label_2
_geom_bond_distance
_geom_bond_site_symmetry_2
As0 Pt2 2.479655 1_455
As0 Pt2 2.479655 1_565
As0 Pt2 2.479663 1_555
As0 Tm1 3.027105 1_566
As0 Tm1 3.027108 1_666
As0 Tm1 3.027108 1_556
As0 Tm3 3.214082 1_565
As0 Tm3 3.214085 1_555
As0 Tm3 3.214085 1_665
As1 Pt3 2.479655 1_545
As1 Pt3 2.479655 1_655
As1 Pt3 2.479663 1_555
As1 Tm1 3.027105 1_655
As1 Tm1 3.027108 1_665
As1 Tm1 3.027108 1_555
As1 Tm2 3.214082 1_655
As1 Tm2 3.214085 1_665
As1 Tm2 3.214085 1_555
As2 Pt0 2.479655 1_545
As2 Pt0 2.479655 1_655
As2 Pt0 2.479663 1_555
As2 Tm0 3.027105 1_655
As2 Tm0 3.027108 1_665
As2 Tm0 3.027108 1_555
As2 Tm2 3.214082 1_655
As2 Tm2 3.214085 1_665
As2 Tm2 3.214085 1_555
As3 Pt1 2.479655 1_455
As3 Pt1 2.479655 1_565
As3 Pt1 2.479663 1_555
As3 Tm0 3.027105 1_565
As3 Tm0 3.027108 1_665
As3 Tm0 3.027108 1_555
As3 Tm3 3.214082 1_565
As3 Tm3 3.214085 1_555
As3 Tm3 3.214085 1_665
Pt0 Tm2 3.020155 1_565
Pt0 Tm2 3.020158 1_665
Pt0 Tm2 3.020158 1_555
Pt0 Tm0 3.221787 1_565
Pt0 Tm0 3.221789 1_665
Pt0 Tm0 3.221789 1_555
Pt1 Tm3 3.020155 1_655
Pt1 Tm3 3.020158 1_665
Pt1 Tm3 3.020158 1_555
Pt1 Tm0 3.221787 1_655
Pt1 Tm0 3.221789 1_665
Pt1 Tm0 3.221789 1_555
Pt2 Tm3 3.020155 1_655
Pt2 Tm3 3.020158 1_665
Pt2 Tm3 3.020158 1_555
Pt2 Tm1 3.221787 1_656
Pt2 Tm1 3.221789 1_556
Pt2 Tm1 3.221789 1_666
Pt3 Tm2 3.020155 1_565
Pt3 Tm2 3.020158 1_665
Pt3 Tm2 3.020158 1_555
Pt3 Tm1 3.221787 1_565
Pt3 Tm1 3.221789 1_555
Pt3 Tm1 3.221789 1_665
