# generated using pymatgen
data_KYb2Cl7
_symmetry_space_group_name_H-M   'P 1'
_cell_length_a   7.42842409
_cell_length_b   14.08335300
_cell_length_c   10.46710846
_cell_angle_alpha   90.00000000
_cell_angle_beta   90.21435064
_cell_angle_gamma   90.00000000
_symmetry_Int_Tables_number   1
_chemical_formula_structural   KYb2Cl7
_chemical_formula_sum   'K4 Yb8 Cl28'
_cell_volume   1095.03106451
_cell_formula_units_Z   4
loop_
 _symmetry_equiv_pos_site_id
 _symmetry_equiv_pos_as_xyz
  1  'x, y, z'
loop_
 _atom_site_type_symbol
 _atom_site_label
 _atom_site_symmetry_multiplicity
 _atom_site_fract_x
 _atom_site_fract_y
 _atom_site_fract_z
 _atom_site_occupancy
  K  K0  1  0.24895500  0.76059500  0.08410400  1
  K  K1  1  0.75104500  0.23940500  0.91589600  1
  K  K2  1  0.75104500  0.26059500  0.41589600  1
  K  K3  1  0.24895500  0.73940500  0.58410400  1
  Yb  Yb0  1  0.23678300  0.42723000  0.22757200  1
  Yb  Yb1  1  0.76321700  0.57277000  0.77242800  1
  Yb  Yb2  1  0.76321700  0.92723000  0.27242800  1
  Yb  Yb3  1  0.23678300  0.07277000  0.72757200  1
  Yb  Yb4  1  0.26064300  0.17110300  0.20578600  1
  Yb  Yb5  1  0.73935700  0.82889700  0.79421400  1
  Yb  Yb6  1  0.73935700  0.67110300  0.29421400  1
  Yb  Yb7  1  0.26064300  0.32889700  0.70578600  1
  Cl  Cl0  1  0.01633100  0.01699500  0.10668500  1
  Cl  Cl1  1  0.98366900  0.98300500  0.89331500  1
  Cl  Cl2  1  0.98366900  0.51699500  0.39331500  1
  Cl  Cl3  1  0.01633100  0.48300500  0.60668500  1
  Cl  Cl4  1  0.25197000  0.30427200  0.42704100  1
  Cl  Cl5  1  0.74803000  0.69572800  0.57295900  1
  Cl  Cl6  1  0.74803000  0.80427200  0.07295900  1
  Cl  Cl7  1  0.25197000  0.19572800  0.92704100  1
  Cl  Cl8  1  0.49992700  0.30894700  0.15856100  1
  Cl  Cl9  1  0.50007300  0.69105300  0.84143900  1
  Cl  Cl10  1  0.50007300  0.80894700  0.34143900  1
  Cl  Cl11  1  0.49992700  0.19105300  0.65856100  1
  Cl  Cl12  1  0.03357200  0.04625500  0.35514300  1
  Cl  Cl13  1  0.96642800  0.95374500  0.64485700  1
  Cl  Cl14  1  0.96642800  0.54625500  0.14485700  1
  Cl  Cl15  1  0.03357200  0.45374500  0.85514300  1
  Cl  Cl16  1  0.51286900  0.02516600  0.10022500  1
  Cl  Cl17  1  0.48713100  0.97483400  0.89977500  1
  Cl  Cl18  1  0.48713100  0.52516600  0.39977500  1
  Cl  Cl19  1  0.51286900  0.47483400  0.60022500  1
  Cl  Cl20  1  0.98968800  0.29279100  0.16460000  1
  Cl  Cl21  1  0.01031200  0.70720900  0.83540000  1
  Cl  Cl22  1  0.01031200  0.79279100  0.33540000  1
  Cl  Cl23  1  0.98968800  0.20720900  0.66460000  1
  Cl  Cl24  1  0.53401900  0.07492200  0.34215100  1
  Cl  Cl25  1  0.46598100  0.92507800  0.65784900  1
  Cl  Cl26  1  0.46598100  0.57492200  0.15784900  1
  Cl  Cl27  1  0.53401900  0.42507800  0.84215100  1
loop_
_geom_bond_atom_site_label_1
_geom_bond_atom_site_label_2
_geom_bond_distance
_geom_bond_site_symmetry_2
Cl0 Cl1 2.296059 1_444
Cl0 Cl12 2.635722 1_555
Cl0 Yb2 2.857899 1_445
Cl0 Yb4 3.010988 1_555
Cl1 Cl13 2.635722 1_555
Cl1 Yb3 2.857899 1_665
Cl1 Yb5 3.010988 1_555
Cl2 Cl3 2.296059 1_655
Cl2 Yb0 2.857899 1_655
Cl2 Yb6 3.010988 1_555
Cl3 Yb1 2.857899 1_455
Cl3 Yb7 3.010988 1_555
Cl4 Yb0 2.714551 1_555
Cl4 Yb7 2.938660 1_555
Cl4 Yb4 2.980945 1_555
Cl5 Yb1 2.714551 1_555
Cl5 Yb6 2.938660 1_555
Cl5 Yb5 2.980945 1_555
Cl6 Yb2 2.714551 1_555
Cl6 Yb5 2.938660 1_554
Cl6 Yb6 2.980945 1_555
Cl7 Yb3 2.714551 1_555
Cl7 Yb4 2.938660 1_556
Cl7 Yb7 2.980945 1_555
Cl8 Yb0 2.669895 1_555
Cl8 Yb4 2.679384 1_555
Cl8 K1 3.305451 1_554
Cl8 K2 3.340823 1_555
Cl9 Yb1 2.669895 1_555
Cl9 Yb5 2.679384 1_555
Cl9 K0 3.305451 1_556
Cl9 K3 3.340823 1_555
Cl10 Yb2 2.669895 1_555
Cl10 Yb6 2.679384 1_555
Cl10 K3 3.305451 1_555
Cl10 K0 3.340823 1_555
Cl11 Yb3 2.669895 1_555
Cl11 Yb7 2.679384 1_555
Cl11 K2 3.305451 1_555
Cl11 K1 3.340823 1_555
Cl12 Yb2 2.753140 1_445
Cl12 Yb4 2.898365 1_555
Cl13 Yb3 2.753140 1_665
Cl13 Yb5 2.898365 1_555
Cl14 Cl2 2.635722 1_555
Cl14 Yb0 2.753140 1_655
Cl14 Yb6 2.898365 1_555
Cl15 Cl3 2.635722 1_555
Cl15 Yb1 2.753140 1_455
Cl15 Yb7 2.898365 1_555
Cl16 Cl17 2.222199 1_544
Cl16 Cl24 2.631559 1_555
Cl16 Yb2 2.929955 1_545
Cl16 Yb4 2.995172 1_555
Cl17 Cl25 2.631559 1_555
Cl17 Yb3 2.929955 1_565
Cl17 Yb5 2.995172 1_555
Cl18 Cl19 2.222199 1_555
Cl18 Cl26 2.631559 1_555
Cl18 Yb0 2.929955 1_555
Cl18 Yb6 2.995172 1_555
Cl19 Cl27 2.631559 1_555
Cl19 Yb1 2.929955 1_555
Cl19 Yb7 2.995172 1_555
Cl20 Yb4 2.677240 1_655
Cl20 Yb0 2.716495 1_655
Cl20 K2 3.209642 1_555
Cl20 K1 3.232658 1_554
Cl21 Yb5 2.677240 1_455
Cl21 Yb1 2.716495 1_455
Cl21 K3 3.209642 1_555
Cl21 K0 3.232658 1_556
Cl22 Yb6 2.677240 1_455
Cl22 Yb2 2.716495 1_455
Cl22 K0 3.209642 1_555
Cl22 K3 3.232658 1_555
Cl23 Yb7 2.677240 1_655
Cl23 Yb3 2.716495 1_655
Cl23 K1 3.209642 1_555
Cl23 K2 3.232658 1_555
Cl24 Yb2 2.786947 1_545
Cl24 Yb4 2.823898 1_555
Cl24 K2 3.165955 1_555
Cl25 Yb3 2.786947 1_565
Cl25 Yb5 2.823898 1_555
Cl25 K3 3.165955 1_555
Cl26 Yb0 2.786947 1_555
Cl26 Yb6 2.823898 1_555
Cl26 K0 3.165955 1_555
Cl27 Yb1 2.786947 1_555
Cl27 Yb7 2.823898 1_555
Cl27 K1 3.165955 1_555
