# generated using pymatgen
data_Ho(Co2B)6
_symmetry_space_group_name_H-M   'P 1'
_cell_length_a   5.91929956
_cell_length_b   5.91929606
_cell_length_c   5.91930636
_cell_angle_alpha   104.09274193
_cell_angle_beta   104.09279655
_cell_angle_gamma   104.09265011
_symmetry_Int_Tables_number   1
_chemical_formula_structural   Ho(Co2B)6
_chemical_formula_sum   'Ho1 Co12 B6'
_cell_volume   184.72244983
_cell_formula_units_Z   1
loop_
 _symmetry_equiv_pos_site_id
 _symmetry_equiv_pos_as_xyz
  1  'x, y, z'
loop_
 _atom_site_type_symbol
 _atom_site_label
 _atom_site_symmetry_multiplicity
 _atom_site_fract_x
 _atom_site_fract_y
 _atom_site_fract_z
 _atom_site_occupancy
  Ho  Ho0  1  -0.00000000  -0.00000000  -0.00000000  1
  Co  Co0  1  0.13252958  0.86746942  0.50000000  1
  Co  Co1  1  0.50000000  0.13253258  0.86747142  1
  Co  Co2  1  0.86746842  0.50000000  0.13252858  1
  Co  Co3  1  0.50000000  0.86746742  0.13252858  1
  Co  Co4  1  0.13253158  0.50000000  0.86747142  1
  Co  Co5  1  0.86747042  0.13253058  0.50000000  1
  Co  Co6  1  0.54316810  0.81463259  0.54316810  1
  Co  Co7  1  0.54316710  0.54316710  0.81463559  1
  Co  Co8  1  0.81463359  0.54316810  0.54316810  1
  Co  Co9  1  0.45683190  0.18536741  0.45683190  1
  Co  Co10  1  0.45683290  0.45683290  0.18536441  1
  Co  Co11  1  0.18536641  0.45683190  0.45683190  1
  B  B0  1  0.23116944  0.67935583  0.23116944  1
  B  B1  1  0.23116844  0.23116844  0.67935383  1
  B  B2  1  0.67935483  0.23116944  0.23116944  1
  B  B3  1  0.76883056  0.32064417  0.76883056  1
  B  B4  1  0.76883156  0.76883156  0.32064617  1
  B  B5  1  0.32064517  0.76883056  0.76883056  1
loop_
_geom_bond_atom_site_label_1
_geom_bond_atom_site_label_2
_geom_bond_distance
_geom_bond_site_symmetry_2
Co0 Ho0 3.207814 1_566
Co0 Ho0 3.207816 1_565
Co1 Ho0 3.207811 1_556
Co1 Ho0 3.207817 1_656
Co2 Ho0 3.207808 1_665
Co2 Ho0 3.207814 1_655
Co3 Ho0 3.207811 1_665
Co3 Ho0 3.207817 1_565
Co4 Ho0 3.207808 1_556
Co4 Ho0 3.207814 1_566
Co5 Ho0 3.207814 1_655
Co5 Ho0 3.207816 1_656
Co6 Ho0 3.062306 1_666
Co7 Ho0 3.062314 1_666
Co8 Ho0 3.062306 1_666
Co9 Ho0 3.062306 1_555
Co10 Ho0 3.062314 1_555
Co11 Ho0 3.062306 1_555
B0 Co3 2.004792 1_555
B0 Co0 2.004793 1_555
B0 Co4 2.018838 1_554
B0 Co2 2.018851 1_455
B0 Co6 2.088382 1_555
B0 Co10 2.109983 1_555
B0 Co11 2.109984 1_555
B0 Ho0 2.994139 1_565
B1 Co1 2.004790 1_555
B1 Co4 2.004795 1_555
B1 Co5 2.018834 1_455
B1 Co0 2.018838 1_545
B1 Co7 2.088381 1_555
B1 Co11 2.109978 1_555
B1 Co9 2.109979 1_555
B1 Ho0 2.994148 1_556
B2 Co5 2.004793 1_555
B2 Co2 2.004797 1_555
B2 Co1 2.018837 1_554
B2 Co3 2.018854 1_545
B2 Co8 2.088382 1_555
B2 Co10 2.109978 1_555
B2 Co9 2.109980 1_555
B2 Ho0 2.994146 1_655
B3 Co1 2.004792 1_555
B3 Co5 2.004793 1_555
B3 Co2 2.018838 1_556
B3 Co4 2.018851 1_655
B3 Co9 2.088382 1_555
B3 Co7 2.109983 1_555
B3 Co8 2.109984 1_555
B3 Ho0 2.994139 1_656
B4 Co3 2.004790 1_555
B4 Co2 2.004795 1_555
B4 Co0 2.018834 1_655
B4 Co5 2.018838 1_565
B4 Co10 2.088381 1_555
B4 Co8 2.109978 1_555
B4 Co6 2.109979 1_555
B4 Ho0 2.994148 1_665
B5 Co0 2.004793 1_555
B5 Co4 2.004797 1_555
B5 Co3 2.018837 1_556
B5 Co1 2.018854 1_565
B5 Co11 2.088382 1_555
B5 Co7 2.109978 1_555
B5 Co6 2.109980 1_555
B5 Ho0 2.994146 1_566
