# generated using pymatgen
data_Li9Mn7O16
_symmetry_space_group_name_H-M   'P 1'
_cell_length_a   6.01000300
_cell_length_b   6.07553062
_cell_length_c   8.70899833
_cell_angle_alpha   70.53345978
_cell_angle_beta   88.10108212
_cell_angle_gamma   85.75381479
_symmetry_Int_Tables_number   1
_chemical_formula_structural   Li9Mn7O16
_chemical_formula_sum   'Li9 Mn7 O16'
_cell_volume   298.98684334
_cell_formula_units_Z   1
loop_
 _symmetry_equiv_pos_site_id
 _symmetry_equiv_pos_as_xyz
  1  'x, y, z'
loop_
 _atom_site_type_symbol
 _atom_site_label
 _atom_site_symmetry_multiplicity
 _atom_site_fract_x
 _atom_site_fract_y
 _atom_site_fract_z
 _atom_site_occupancy
  Li  Li0  1  0.50000000  0.50000000  0.50000000  1
  Li  Li1  1  0.75440700  0.38095000  0.25400800  1
  Li  Li2  1  0.50000000  0.00000000  0.50000000  1
  Li  Li3  1  0.75580100  0.86399200  0.25964400  1
  Li  Li4  1  0.00237300  0.74894500  0.00304400  1
  Li  Li5  1  0.99762700  0.25105500  0.99695600  1
  Li  Li6  1  0.24419900  0.13600800  0.74035600  1
  Li  Li7  1  0.24559300  0.61905000  0.74599200  1
  Li  Li8  1  0.00000000  0.50000000  0.50000000  1
  Mn  Mn0  1  0.75713500  0.62832100  0.74797300  1
  Mn  Mn1  1  0.00000000  0.00000000  0.50000000  1
  Mn  Mn2  1  0.24286500  0.37167900  0.25202700  1
  Mn  Mn3  1  0.49788500  0.25029600  0.99735800  1
  Mn  Mn4  1  0.75701900  0.13571700  0.74663800  1
  Mn  Mn5  1  0.24298100  0.86428300  0.25336200  1
  Mn  Mn6  1  0.50211500  0.74970400  0.00264200  1
  O  O0  1  0.77672200  0.77299900  0.51299600  1
  O  O1  1  0.02481000  0.62125700  0.24951700  1
  O  O2  1  0.75926500  0.23032900  0.51142700  1
  O  O3  1  0.99843600  0.10011400  0.26371600  1
  O  O4  1  0.25814500  0.97502700  0.01496600  1
  O  O5  1  0.25849100  0.48015900  0.00875300  1
  O  O6  1  0.50269800  0.36097900  0.75509900  1
  O  O7  1  0.52304400  0.86987000  0.76168500  1
  O  O8  1  0.22327800  0.22700100  0.48700400  1
  O  O9  1  0.47695600  0.13013000  0.23831500  1
  O  O10  1  0.24073500  0.76967100  0.48857300  1
  O  O11  1  0.49730200  0.63902100  0.24490100  1
  O  O12  1  0.74150900  0.51984100  0.99124700  1
  O  O13  1  0.74185500  0.02497300  0.98503400  1
  O  O14  1  0.00156400  0.89988600  0.73628400  1
  O  O15  1  0.97519000  0.37874300  0.75048300  1
loop_
_geom_bond_atom_site_label_1
_geom_bond_atom_site_label_2
_geom_bond_distance
_geom_bond_site_symmetry_2
Li0 O11 2.097399 1_555
Li0 O6 2.097399 1_555
Li0 O10 2.155396 1_555
Li0 O2 2.155396 1_555
Li0 O0 2.464912 1_555
Li0 O8 2.464912 1_555
Li1 O11 2.102088 1_555
Li1 O2 2.120664 1_555
Li1 O3 2.147284 1_555
Li1 O12 2.160971 1_554
Li1 O1 2.254598 1_655
Li1 O9 2.377296 1_555
Li2 O0 2.061444 1_545
Li2 O8 2.061444 1_555
Li2 O7 2.154512 1_545
Li2 O9 2.154512 1_555
Li2 O10 2.195921 1_545
Li2 O2 2.195921 1_555
Li3 O0 2.094017 1_555
Li3 O1 2.126189 1_655
Li3 O3 2.129040 1_565
Li3 O11 2.177826 1_555
Li3 O9 2.208312 1_565
Li3 O13 2.263927 1_564
Li4 O1 2.030126 1_555
Li4 O5 2.148789 1_555
Li4 O4 2.163037 1_555
Li4 O13 2.177286 1_464
Li4 O14 2.195086 1_554
Li4 O12 2.198896 1_454
Li5 O15 2.030126 1_555
Li5 O12 2.148789 1_555
Li5 O13 2.163037 1_555
Li5 O4 2.177286 1_646
Li5 O3 2.195086 1_556
Li5 O5 2.198896 1_656
Li6 O8 2.094017 1_555
Li6 O15 2.126189 1_455
Li6 O14 2.129040 1_545
Li6 O6 2.177826 1_555
Li6 O7 2.208312 1_545
Li6 O4 2.263927 1_546
Li7 O6 2.102088 1_555
Li7 O10 2.120664 1_555
Li7 O14 2.147284 1_555
Li7 O5 2.160971 1_556
Li7 O15 2.254598 1_455
Li7 O7 2.377296 1_555
Li8 O15 2.060894 1_455
Li8 O1 2.060894 1_555
Li8 O8 2.085659 1_555
Li8 O0 2.085659 1_455
Li8 O10 2.240610 1_555
Li8 O2 2.240610 1_455
Mn0 O15 1.924235 1_555
Mn0 O0 1.942870 1_555
Mn0 O7 1.986754 1_555
Mn0 O12 1.999315 1_555
Mn0 O14 2.264424 1_655
Mn0 O6 2.296672 1_555
Mn1 O3 1.941849 1_455
Mn1 O14 1.941849 1_545
Mn1 O2 1.960838 1_455
Mn1 O10 1.960838 1_545
Mn1 O0 1.968634 1_445
Mn1 O8 1.968634 1_555
Mn2 O1 1.924235 1_555
Mn2 O8 1.942870 1_555
Mn2 O9 1.986754 1_555
Mn2 O5 1.999315 1_555
Mn2 O3 2.264424 1_455
Mn2 O11 2.296672 1_555
Mn3 O5 1.953347 1_556
Mn3 O13 1.955950 1_555
Mn3 O9 1.981787 1_556
Mn3 O6 1.989381 1_555
Mn3 O4 2.251161 1_546
Mn3 O12 2.262809 1_555
Mn4 O2 1.934234 1_555
Mn4 O13 1.958838 1_555
Mn4 O6 1.991146 1_555
Mn4 O14 1.996648 1_645
Mn4 O15 2.055002 1_555
Mn4 O7 2.187770 1_545
Mn5 O10 1.934234 1_555
Mn5 O4 1.958838 1_555
Mn5 O11 1.991146 1_555
Mn5 O3 1.996648 1_465
Mn5 O1 2.055002 1_555
Mn5 O9 2.187770 1_565
Mn6 O12 1.953347 1_554
Mn6 O4 1.955950 1_555
Mn6 O7 1.981787 1_554
Mn6 O11 1.989381 1_555
Mn6 O13 2.251161 1_564
Mn6 O5 2.262809 1_555
