# generated using pymatgen
data_Tb4Te3N2
_symmetry_space_group_name_H-M   'P 1'
_cell_length_a   7.31724535
_cell_length_b   11.05867908
_cell_length_c   11.67184055
_cell_angle_alpha   90.00000000
_cell_angle_beta   90.00000000
_cell_angle_gamma   90.00000000
_symmetry_Int_Tables_number   1
_chemical_formula_structural   Tb4Te3N2
_chemical_formula_sum   'Tb16 Te12 N8'
_cell_volume   944.47446003
_cell_formula_units_Z   4
loop_
 _symmetry_equiv_pos_site_id
 _symmetry_equiv_pos_as_xyz
  1  'x, y, z'
loop_
 _atom_site_type_symbol
 _atom_site_label
 _atom_site_symmetry_multiplicity
 _atom_site_fract_x
 _atom_site_fract_y
 _atom_site_fract_z
 _atom_site_occupancy
  Tb  Tb0  1  0.16417703  0.38250583  0.65312536  1
  Tb  Tb1  1  0.33582297  0.38250583  0.34687464  1
  Tb  Tb2  1  0.16417703  0.11749417  0.84687464  1
  Tb  Tb3  1  0.33582297  0.11749417  0.15312536  1
  Tb  Tb4  1  0.83582297  0.61749417  0.34687464  1
  Tb  Tb5  1  0.66417703  0.61749417  0.65312536  1
  Tb  Tb6  1  0.83582297  0.88250583  0.15312536  1
  Tb  Tb7  1  0.66417703  0.88250583  0.84687464  1
  Tb  Tb8  1  0.47468816  0.32285856  0.90856940  1
  Tb  Tb9  1  0.02531184  0.32285856  0.09143060  1
  Tb  Tb10  1  0.47468816  0.17714144  0.59143060  1
  Tb  Tb11  1  0.02531184  0.17714144  0.40856940  1
  Tb  Tb12  1  0.52531184  0.67714144  0.09143060  1
  Tb  Tb13  1  0.97468816  0.67714144  0.90856940  1
  Tb  Tb14  1  0.52531184  0.82285856  0.40856940  1
  Tb  Tb15  1  0.97468816  0.82285856  0.59143060  1
  Te  Te0  1  0.25000000  0.89074849  -0.00000000  1
  Te  Te1  1  0.25000000  0.60925151  0.50000000  1
  Te  Te2  1  0.75000000  0.10925151  -0.00000000  1
  Te  Te3  1  0.75000000  0.39074849  0.50000000  1
  Te  Te4  1  0.36888219  0.58141231  0.83803411  1
  Te  Te5  1  0.13111781  0.58141231  0.16196589  1
  Te  Te6  1  0.36888219  0.91858769  0.66196589  1
  Te  Te7  1  0.13111781  0.91858769  0.33803411  1
  Te  Te8  1  0.63111781  0.41858769  0.16196589  1
  Te  Te9  1  0.86888219  0.41858769  0.83803411  1
  Te  Te10  1  0.63111781  0.08141231  0.33803411  1
  Te  Te11  1  0.86888219  0.08141231  0.66196589  1
  N  N0  1  0.25000000  0.22546438  -0.00000000  1
  N  N1  1  0.25000000  0.27453562  0.50000000  1
  N  N2  1  0.75000000  0.77453562  -0.00000000  1
  N  N3  1  0.75000000  0.72546438  0.50000000  1
  N  N4  1  0.34221638  0.25000000  0.75000000  1
  N  N5  1  0.15778362  0.25000000  0.25000000  1
  N  N6  1  0.65778362  0.75000000  0.25000000  1
  N  N7  1  0.84221638  0.75000000  0.75000000  1
loop_
_geom_bond_atom_site_label_1
_geom_bond_atom_site_label_2
_geom_bond_distance
_geom_bond_site_symmetry_2
Tb0 Te9 3.079930 1_455
Tb0 Te1 3.142649 1_555
Tb0 Te4 3.426369 1_555
Tb0 Te3 3.519565 1_455
Tb1 Te8 3.079930 1_555
Tb1 Te1 3.142649 1_555
Tb1 Te5 3.426369 1_555
Tb1 Te3 3.519565 1_555
Tb2 Te11 3.079930 1_455
Tb2 Te0 3.142649 1_546
Tb2 Te6 3.426369 1_545
Tb2 Te2 3.519565 1_456
Tb3 Te10 3.079930 1_555
Tb3 Te0 3.142649 1_545
Tb3 Te7 3.426369 1_545
Tb3 Te2 3.519565 1_555
Tb4 Te5 3.079930 1_655
Tb4 Te3 3.142649 1_555
Tb4 Te8 3.426369 1_555
Tb4 Te1 3.519565 1_655
Tb5 Te4 3.079930 1_555
Tb5 Te3 3.142649 1_555
Tb5 Te9 3.426369 1_555
Tb5 Te1 3.519565 1_555
Tb6 Te7 3.079930 1_655
Tb6 Te2 3.142649 1_565
Tb6 Te10 3.426369 1_565
Tb6 Te0 3.519565 1_655
Tb7 Te6 3.079930 1_555
Tb7 Te2 3.142649 1_566
Tb7 Te11 3.426369 1_565
Tb7 Te0 3.519565 1_556
Tb8 Te4 3.074503 1_555
Tb8 Te9 3.180935 1_555
Tb8 Te2 3.282863 1_556
Tb8 Te8 3.343399 1_556
Tb9 Te5 3.074503 1_555
Tb9 Te8 3.180935 1_455
Tb9 Te2 3.282863 1_455
Tb9 Te9 3.343399 1_454
Tb10 Te6 3.074503 1_545
Tb10 Te11 3.180935 1_555
Tb10 Te3 3.282863 1_555
Tb10 Te10 3.343399 1_555
Tb11 Te7 3.074503 1_545
Tb11 Te10 3.180935 1_455
Tb11 Te3 3.282863 1_455
Tb11 Te11 3.343399 1_455
Tb12 Te8 3.074503 1_555
Tb12 Te5 3.180935 1_555
Tb12 Te0 3.282863 1_555
Tb12 Te4 3.343399 1_554
Tb13 Te9 3.074503 1_555
Tb13 Te4 3.180935 1_655
Tb13 Te0 3.282863 1_656
Tb13 Te5 3.343399 1_656
Tb14 Te10 3.074503 1_565
Tb14 Te7 3.180935 1_555
Tb14 Te1 3.282863 1_555
Tb14 Te6 3.343399 1_555
Tb15 Te11 3.074503 1_565
Tb15 Te6 3.180935 1_655
Tb15 Te1 3.282863 1_655
Tb15 Te7 3.343399 1_655
N0 Tb8 2.236501 1_554
N0 Tb9 2.236501 1_555
N0 Tb2 2.239264 1_554
N0 Tb3 2.239264 1_555
N1 Tb10 2.236501 1_555
N1 Tb11 2.236501 1_555
N1 Tb1 2.239264 1_555
N1 Tb0 2.239264 1_555
N2 Tb13 2.236501 1_554
N2 Tb12 2.236501 1_555
N2 Tb7 2.239264 1_554
N2 Tb6 2.239264 1_555
N3 Tb15 2.236501 1_555
N3 Tb14 2.236501 1_555
N3 Tb5 2.239264 1_555
N3 Tb4 2.239264 1_555
N4 Tb10 2.239248 1_555
N4 Tb8 2.239248 1_555
N4 Tb2 2.263381 1_555
N4 Tb0 2.263381 1_555
N5 Tb11 2.239248 1_555
N5 Tb9 2.239248 1_555
N5 Tb1 2.263381 1_555
N5 Tb3 2.263381 1_555
N6 Tb14 2.239248 1_555
N6 Tb12 2.239248 1_555
N6 Tb4 2.263381 1_555
N6 Tb6 2.263381 1_555
N7 Tb15 2.239248 1_555
N7 Tb13 2.239248 1_555
N7 Tb5 2.263381 1_555
N7 Tb7 2.263381 1_555
