# generated using pymatgen
data_Li5Mn(CoO4)2
_symmetry_space_group_name_H-M   'P 1'
_cell_length_a   5.89394159
_cell_length_b   5.89394159
_cell_length_c   5.05149004
_cell_angle_alpha   72.43526792
_cell_angle_beta   72.43526792
_cell_angle_gamma   59.00898691
_symmetry_Int_Tables_number   1
_chemical_formula_structural   Li5Mn(CoO4)2
_chemical_formula_sum   'Li5 Mn1 Co2 O8'
_cell_volume   141.09796354
_cell_formula_units_Z   1
loop_
 _symmetry_equiv_pos_site_id
 _symmetry_equiv_pos_as_xyz
  1  'x, y, z'
loop_
 _atom_site_type_symbol
 _atom_site_label
 _atom_site_symmetry_multiplicity
 _atom_site_fract_x
 _atom_site_fract_y
 _atom_site_fract_z
 _atom_site_occupancy
  Li  Li0  1  0.75011500  0.74783100  0.49965200  1
  Li  Li1  1  0.99941400  0.50051600  0.99888800  1
  Li  Li2  1  0.25216900  0.24988500  0.50034800  1
  Li  Li3  1  0.49948400  0.00058600  0.00111200  1
  Li  Li4  1  0.24977700  0.75022300  0.50000000  1
  Mn  Mn0  1  0.00114300  0.99885700  0.00000000  1
  Co  Co0  1  0.49246500  0.50753500  0.00000000  1
  Co  Co1  1  0.75046600  0.24953400  0.50000000  1
  O  O0  1  0.08908500  0.12518100  0.25045000  1
  O  O1  1  0.35545600  0.87989200  0.77791200  1
  O  O2  1  0.62934700  0.58388500  0.25681300  1
  O  O3  1  0.88000500  0.35996800  0.75996800  1
  O  O4  1  0.41611500  0.37065300  0.74318700  1
  O  O5  1  0.64003200  0.11999500  0.24003200  1
  O  O6  1  0.87481900  0.91091500  0.74955000  1
  O  O7  1  0.12010800  0.64454400  0.22208800  1
loop_
_geom_bond_atom_site_label_1
_geom_bond_atom_site_label_2
_geom_bond_distance
_geom_bond_site_symmetry_2
Li0 O5 2.064966 1_565
Li0 O7 2.096338 1_655
Li0 O3 2.128898 1_555
Li0 O1 2.194258 1_555
Li0 O2 2.212671 1_555
Li0 O6 2.253353 1_555
Li1 O7 2.044883 1_656
Li1 O2 2.064923 1_556
Li1 O0 2.071860 1_656
Li1 O3 2.086776 1_555
Li1 O6 2.206077 1_555
Li1 O4 2.243293 1_655
Li2 O3 2.064966 1_455
Li2 O1 2.096338 1_545
Li2 O5 2.128898 1_555
Li2 O7 2.194258 1_555
Li2 O4 2.212671 1_555
Li2 O0 2.253353 1_555
Li3 O1 2.044883 1_544
Li3 O4 2.064923 1_554
Li3 O6 2.071860 1_544
Li3 O5 2.086776 1_555
Li3 O0 2.206077 1_555
Li3 O2 2.243293 1_545
Li4 O6 2.062473 1_455
Li4 O0 2.062473 1_565
Li4 O2 2.069942 1_555
Li4 O4 2.069942 1_555
Li4 O7 2.146737 1_555
Li4 O1 2.146737 1_555
Mn0 O1 1.914179 1_554
Mn0 O7 1.914179 1_555
Mn0 O6 1.945598 1_454
Mn0 O0 1.945598 1_565
Mn0 O5 1.977350 1_465
Mn0 O3 1.977350 1_464
Co0 O4 1.973391 1_554
Co0 O2 1.973391 1_555
Co0 O7 1.990696 1_555
Co0 O1 1.990696 1_554
Co0 O5 2.088782 1_555
Co0 O3 2.088782 1_554
Co1 O2 1.876593 1_555
Co1 O4 1.876593 1_555
Co1 O6 1.908474 1_545
Co1 O0 1.908474 1_655
Co1 O5 2.089015 1_555
Co1 O3 2.089015 1_555
