# generated using pymatgen
data_SmAlO3
_symmetry_space_group_name_H-M   'P 1'
_cell_length_a   5.31255700
_cell_length_b   5.35841300
_cell_length_c   7.53108400
_cell_angle_alpha   90.00000000
_cell_angle_beta   90.00000000
_cell_angle_gamma   90.00000000
_symmetry_Int_Tables_number   1
_chemical_formula_structural   SmAlO3
_chemical_formula_sum   'Sm4 Al4 O12'
_cell_volume   214.38642302
_cell_formula_units_Z   4
loop_
 _symmetry_equiv_pos_site_id
 _symmetry_equiv_pos_as_xyz
  1  'x, y, z'
loop_
 _atom_site_type_symbol
 _atom_site_label
 _atom_site_symmetry_multiplicity
 _atom_site_fract_x
 _atom_site_fract_y
 _atom_site_fract_z
 _atom_site_occupancy
  Sm  Sm0  1  0.49195000  0.00659200  0.25000000  1
  Sm  Sm1  1  0.00805000  0.50659200  0.75000000  1
  Sm  Sm2  1  0.99195000  0.49340800  0.25000000  1
  Sm  Sm3  1  0.50805000  0.99340800  0.75000000  1
  Al  Al0  1  0.00000000  0.00000000  0.00000000  1
  Al  Al1  1  0.50000000  0.50000000  0.00000000  1
  Al  Al2  1  0.50000000  0.50000000  0.50000000  1
  Al  Al3  1  0.00000000  0.00000000  0.50000000  1
  O  O0  1  0.24199600  0.25771700  0.03768900  1
  O  O1  1  0.25800400  0.75771700  0.96231100  1
  O  O2  1  0.74199600  0.24228300  0.46231100  1
  O  O3  1  0.75800400  0.74228300  0.53768900  1
  O  O4  1  0.75800400  0.74228300  0.96231100  1
  O  O5  1  0.74199600  0.24228300  0.03768900  1
  O  O6  1  0.25800400  0.75771700  0.53768900  1
  O  O7  1  0.24199600  0.25771700  0.46231100  1
  O  O8  1  0.00310000  0.92984600  0.25000000  1
  O  O9  1  0.49690000  0.42984600  0.75000000  1
  O  O10  1  0.50310000  0.57015400  0.25000000  1
  O  O11  1  0.99690000  0.07015400  0.75000000  1
loop_
_geom_bond_atom_site_label_1
_geom_bond_atom_site_label_2
_geom_bond_distance
_geom_bond_site_symmetry_2
Al0 O0 1.907986 1_555
Al0 O4 1.907986 1_444
Al0 O5 1.909119 1_455
Al0 O1 1.909119 1_544
Al0 O11 1.920002 1_454
Al0 O8 1.920002 1_545
Al1 O5 1.907986 1_555
Al1 O1 1.907986 1_554
Al1 O4 1.909119 1_554
Al1 O0 1.909119 1_555
Al1 O10 1.920002 1_555
Al1 O9 1.920002 1_554
Al2 O6 1.907986 1_555
Al2 O2 1.907986 1_555
Al2 O3 1.909119 1_555
Al2 O7 1.909119 1_555
Al2 O10 1.920002 1_555
Al2 O9 1.920002 1_555
Al3 O7 1.907986 1_555
Al3 O3 1.907986 1_445
Al3 O6 1.909119 1_545
Al3 O2 1.909119 1_455
Al3 O11 1.920002 1_455
Al3 O8 1.920002 1_545
O0 Sm2 2.432319 1_455
O0 Sm0 2.476007 1_555
O0 Sm1 2.831484 1_554
O0 Sm3 2.949206 1_544
O1 Sm3 2.432319 1_555
O1 Sm1 2.476007 1_555
O1 Sm0 2.831484 1_566
O1 Sm2 2.949206 1_456
O2 Sm0 2.432319 1_555
O2 Sm2 2.476007 1_555
O2 Sm3 2.831484 1_545
O2 Sm1 2.949206 1_655
O3 Sm1 2.432319 1_655
O3 Sm3 2.476007 1_555
O3 Sm2 2.831484 1_555
O3 Sm0 2.949206 1_565
O4 Sm1 2.432319 1_655
O4 Sm3 2.476007 1_555
O4 Sm2 2.831484 1_556
O4 Sm0 2.949206 1_566
O5 Sm0 2.432319 1_555
O5 Sm2 2.476007 1_555
O5 Sm3 2.831484 1_544
O5 Sm1 2.949206 1_654
O6 Sm3 2.432319 1_555
O6 Sm1 2.476007 1_555
O6 Sm0 2.831484 1_565
O6 Sm2 2.949206 1_455
O7 Sm2 2.432319 1_455
O7 Sm0 2.476007 1_555
O7 Sm1 2.831484 1_555
O7 Sm3 2.949206 1_545
O8 Sm2 2.339365 1_455
O8 Sm0 2.629401 1_565
O8 Sm0 2.746476 1_465
O8 Sm2 3.020379 1_465
O9 Sm3 2.339365 1_545
O9 Sm1 2.629401 1_555
O9 Sm1 2.746476 1_655
O9 Sm3 3.020379 1_555
O10 Sm0 2.339365 1_565
O10 Sm2 2.629401 1_555
O10 Sm2 2.746476 1_455
O10 Sm0 3.020379 1_555
O11 Sm1 2.339365 1_655
O11 Sm3 2.629401 1_545
O11 Sm3 2.746476 1_645
O11 Sm1 3.020379 1_645
