# generated using pymatgen
data_CdSnF6
_symmetry_space_group_name_H-M   'P 1'
_cell_length_a   5.80586032
_cell_length_b   5.80585969
_cell_length_c   5.80586022
_cell_angle_alpha   53.81566130
_cell_angle_beta   53.81565973
_cell_angle_gamma   53.81566849
_symmetry_Int_Tables_number   1
_chemical_formula_structural   CdSnF6
_chemical_formula_sum   'Cd1 Sn1 F6'
_cell_volume   118.38057395
_cell_formula_units_Z   1
loop_
 _symmetry_equiv_pos_site_id
 _symmetry_equiv_pos_as_xyz
  1  'x, y, z'
loop_
 _atom_site_type_symbol
 _atom_site_label
 _atom_site_symmetry_multiplicity
 _atom_site_fract_x
 _atom_site_fract_y
 _atom_site_fract_z
 _atom_site_occupancy
  Cd  Cd0  1  0.50000000  0.50000000  0.50000000  1
  Sn  Sn0  1  -0.00000000  0.00000000  0.00000000  1
  F  F0  1  0.23206133  0.91454072  0.62012287  1
  F  F1  1  0.91454072  0.62012287  0.23206133  1
  F  F2  1  0.37987713  0.76793867  0.08545928  1
  F  F3  1  0.08545928  0.37987713  0.76793867  1
  F  F4  1  0.76793867  0.08545928  0.37987713  1
  F  F5  1  0.62012287  0.23206133  0.91454072  1
loop_
_geom_bond_atom_site_label_1
_geom_bond_atom_site_label_2
_geom_bond_distance
_geom_bond_site_symmetry_2
Cd0 F3 2.231358 1_555
Cd0 F1 2.231358 1_555
Cd0 F4 2.231358 1_555
Cd0 F0 2.231358 1_555
Cd0 F5 2.231358 1_555
Cd0 F2 2.231358 1_555
F0 Sn0 1.979854 1_566
F1 Sn0 1.979854 1_665
F2 Sn0 1.979855 1_565
F3 Sn0 1.979854 1_556
F4 Sn0 1.979854 1_655
F5 Sn0 1.979855 1_656
