# generated using pymatgen
data_Ca3MgFe2(CO3)6
_symmetry_space_group_name_H-M   'P 1'
_cell_length_a   4.89479987
_cell_length_b   4.89479987
_cell_length_c   16.20628900
_cell_angle_alpha   90.00000000
_cell_angle_beta   90.00000000
_cell_angle_gamma   119.99999829
_symmetry_Int_Tables_number   1
_chemical_formula_structural   Ca3MgFe2(CO3)6
_chemical_formula_sum   'Ca3 Mg1 Fe2 C6 O18'
_cell_volume   336.26688332
_cell_formula_units_Z   1
loop_
 _symmetry_equiv_pos_site_id
 _symmetry_equiv_pos_as_xyz
  1  'x, y, z'
loop_
 _atom_site_type_symbol
 _atom_site_label
 _atom_site_symmetry_multiplicity
 _atom_site_fract_x
 _atom_site_fract_y
 _atom_site_fract_z
 _atom_site_occupancy
  Ca  Ca0  1  0.00000000  0.00000000  0.50000000  1
  Ca  Ca1  1  0.66666700  0.33333300  0.83352900  1
  Ca  Ca2  1  0.33333300  0.66666700  0.16647100  1
  Mg  Mg0  1  0.00000000  0.00000000  0.00000000  1
  Fe  Fe0  1  0.66666700  0.33333300  0.33334700  1
  Fe  Fe1  1  0.33333300  0.66666700  0.66665300  1
  C  C0  1  0.66666700  0.33333300  0.58960500  1
  C  C1  1  0.33333300  0.66666700  0.92333300  1
  C  C2  1  0.00000000  0.00000000  0.25627800  1
  C  C3  1  0.00000000  0.00000000  0.74372200  1
  C  C4  1  0.66666700  0.33333300  0.07666700  1
  C  C5  1  0.33333300  0.66666700  0.41039500  1
  O  O0  1  0.61328600  0.91505500  0.92242700  1
  O  O1  1  0.27756100  0.25137000  0.25509500  1
  O  O2  1  0.94427500  0.58460500  0.58841900  1
  O  O3  1  0.30176900  0.38671400  0.92242700  1
  O  O4  1  0.97380900  0.72243900  0.25509500  1
  O  O5  1  0.64033000  0.05572500  0.58841900  1
  O  O6  1  0.08494500  0.69823100  0.92242700  1
  O  O7  1  0.74863000  0.02619100  0.25509500  1
  O  O8  1  0.41539500  0.35967000  0.58841900  1
  O  O9  1  0.38671400  0.08494500  0.07757300  1
  O  O10  1  0.05572500  0.41539500  0.41158100  1
  O  O11  1  0.72243900  0.74863000  0.74490500  1
  O  O12  1  0.69823100  0.61328600  0.07757300  1
  O  O13  1  0.35967000  0.94427500  0.41158100  1
  O  O14  1  0.02619100  0.27756100  0.74490500  1
  O  O15  1  0.91505500  0.30176900  0.07757300  1
  O  O16  1  0.58460500  0.64033000  0.41158100  1
  O  O17  1  0.25137000  0.97380900  0.74490500  1
loop_
_geom_bond_atom_site_label_1
_geom_bond_atom_site_label_2
_geom_bond_distance
_geom_bond_site_symmetry_2
Ca0 O5 2.389003 1_455
Ca0 O13 2.389003 1_545
Ca0 O2 2.389003 1_445
Ca0 O10 2.389003 1_555
Ca0 O16 2.389003 1_445
Ca0 O8 2.389003 1_555
Ca1 O14 2.390541 1_655
Ca1 O17 2.390544 1_545
Ca1 O11 2.390545 1_555
Ca1 O0 2.408473 1_545
Ca1 O6 2.408474 1_655
Ca1 O3 2.408477 1_555
Ca2 O4 2.390541 1_455
Ca2 O7 2.390544 1_565
Ca2 O1 2.390545 1_555
Ca2 O9 2.408473 1_565
Ca2 O15 2.408474 1_455
Ca2 O12 2.408477 1_555
Mg0 O6 2.132918 1_544
Mg0 O15 2.132918 1_455
Mg0 O9 2.132918 1_555
Mg0 O0 2.132918 1_444
Mg0 O3 2.132918 1_554
Mg0 O12 2.132918 1_445
Fe0 O10 2.151865 1_655
Fe0 O13 2.151867 1_545
Fe0 O16 2.151869 1_555
Fe0 O7 2.152343 1_555
Fe0 O4 2.152346 1_555
Fe0 O1 2.152347 1_555
Fe1 O2 2.151865 1_455
Fe1 O5 2.151867 1_565
Fe1 O8 2.151869 1_555
Fe1 O17 2.152343 1_555
Fe1 O14 2.152346 1_555
Fe1 O11 2.152347 1_555
C0 O5 1.299326 1_555
C0 O2 1.299329 1_555
C0 O8 1.299331 1_555
C1 O6 1.300046 1_555
C1 O0 1.300049 1_555
C1 O3 1.300051 1_555
C2 O7 1.299399 1_455
C2 O4 1.299399 1_445
C2 O1 1.299399 1_555
C3 O17 1.299399 1_545
C3 O14 1.299399 1_555
C3 O11 1.299399 1_445
C4 O15 1.300046 1_555
C4 O9 1.300049 1_555
C4 O12 1.300051 1_555
C5 O13 1.299326 1_555
C5 O10 1.299329 1_555
C5 O16 1.299331 1_555
