# generated using pymatgen
data_KTl
_symmetry_space_group_name_H-M   'P 1'
_cell_length_a   5.36096706
_cell_length_b   5.36096706
_cell_length_c   12.60858829
_cell_angle_alpha   90.00000000
_cell_angle_beta   90.00000000
_cell_angle_gamma   119.99998743
_symmetry_Int_Tables_number   1
_chemical_formula_structural   KTl
_chemical_formula_sum   'K4 Tl4'
_cell_volume   313.82203068
_cell_formula_units_Z   4
loop_
 _symmetry_equiv_pos_site_id
 _symmetry_equiv_pos_as_xyz
  1  'x, y, z'
loop_
 _atom_site_type_symbol
 _atom_site_label
 _atom_site_symmetry_multiplicity
 _atom_site_fract_x
 _atom_site_fract_y
 _atom_site_fract_z
 _atom_site_occupancy
  K  K0  1  0.33333300  0.66666700  0.40648055  1
  K  K1  1  0.66666700  0.33333300  0.59351945  1
  K  K2  1  0.66666700  0.33333300  0.90648055  1
  K  K3  1  0.33333300  0.66666700  0.09351945  1
  Tl  Tl0  1  -0.00000000  0.00000000  0.25000000  1
  Tl  Tl1  1  -0.00000000  0.00000000  0.75000000  1
  Tl  Tl2  1  0.33333300  0.66666700  0.75000000  1
  Tl  Tl3  1  0.66666700  0.33333300  0.25000000  1
loop_
_geom_bond_atom_site_label_1
_geom_bond_atom_site_label_2
_geom_bond_distance
_geom_bond_site_symmetry_2
K0 Tl0 3.670517 1_565
K0 Tl3 3.670517 1_455
K0 Tl3 3.670517 1_565
K0 Tl0 3.670521 1_665
K0 Tl0 3.670521 1_555
K0 Tl3 3.670525 1_555
K0 K1 3.891213 1_455
K0 K1 3.891213 1_565
K0 K1 3.891219 1_555
K0 K3 3.945998 1_555
K1 Tl1 3.670517 1_655
K1 Tl2 3.670517 1_545
K1 Tl2 3.670517 1_655
K1 Tl1 3.670521 1_665
K1 Tl1 3.670521 1_555
K1 Tl2 3.670525 1_555
K1 K2 3.945998 1_555
K2 Tl1 3.670517 1_655
K2 Tl2 3.670517 1_545
K2 Tl2 3.670517 1_655
K2 Tl1 3.670521 1_555
K2 Tl1 3.670521 1_665
K2 Tl2 3.670525 1_555
K2 K3 3.891213 1_546
K2 K3 3.891213 1_656
K2 K3 3.891219 1_556
K3 Tl0 3.670517 1_565
K3 Tl3 3.670517 1_455
K3 Tl3 3.670517 1_565
K3 Tl0 3.670521 1_665
K3 Tl0 3.670521 1_555
K3 Tl3 3.670525 1_555
Tl0 Tl3 3.095152 1_455
Tl0 Tl3 3.095158 1_555
Tl0 Tl3 3.095158 1_445
Tl1 Tl2 3.095152 1_545
Tl1 Tl2 3.095158 1_555
Tl1 Tl2 3.095158 1_445
