# generated using pymatgen
data_Ba10Er5Cu15O34
_symmetry_space_group_name_H-M   'P 1'
_cell_length_a   8.61823200
_cell_length_b   8.74531176
_cell_length_c   12.44786585
_cell_angle_alpha   97.76874203
_cell_angle_beta   105.91112000
_cell_angle_gamma   91.10276123
_symmetry_Int_Tables_number   1
_chemical_formula_structural   Ba10Er5Cu15O34
_chemical_formula_sum   'Ba10 Er5 Cu15 O34'
_cell_volume   892.39815230
_cell_formula_units_Z   1
loop_
 _symmetry_equiv_pos_site_id
 _symmetry_equiv_pos_as_xyz
  1  'x, y, z'
loop_
 _atom_site_type_symbol
 _atom_site_label
 _atom_site_symmetry_multiplicity
 _atom_site_fract_x
 _atom_site_fract_y
 _atom_site_fract_z
 _atom_site_occupancy
  Ba  Ba0  1  0.71787600  0.85911100  0.81125200  1
  Ba  Ba1  1  0.32638000  0.66308700  0.81823700  1
  Ba  Ba2  1  0.92722400  0.46363300  0.81799000  1
  Ba  Ba3  1  0.52832300  0.26435000  0.81848700  1
  Ba  Ba4  1  0.13127200  0.06542000  0.81145800  1
  Ba  Ba5  1  0.47167700  0.73565000  0.18151300  1
  Ba  Ba6  1  0.07277600  0.53636700  0.18201000  1
  Ba  Ba7  1  0.67362000  0.33691300  0.18176300  1
  Ba  Ba8  1  0.28212400  0.14088900  0.18874800  1
  Ba  Ba9  1  0.86872800  0.93458000  0.18854200  1
  Er  Er0  1  0.00000000  0.00000000  0.50000000  1
  Er  Er1  1  0.40018300  0.20079500  0.50123500  1
  Er  Er2  1  0.79974400  0.40033200  0.50002700  1
  Er  Er3  1  0.20025600  0.59966800  0.49997300  1
  Er  Er4  1  0.59981700  0.79920500  0.49876500  1
  Cu  Cu0  1  0.95581600  0.72850700  0.64006300  1
  Cu  Cu1  1  0.35676200  0.92813200  0.64108100  1
  Cu  Cu2  1  0.75619300  0.12762400  0.64015600  1
  Cu  Cu3  1  0.15662000  0.32914500  0.64180600  1
  Cu  Cu4  1  0.55674400  0.52773000  0.64179400  1
  Cu  Cu5  1  0.84338000  0.67085500  0.35819400  1
  Cu  Cu6  1  0.24380700  0.87237600  0.35984400  1
  Cu  Cu7  1  0.64323800  0.07186800  0.35891900  1
  Cu  Cu8  1  0.04418400  0.27149300  0.35993700  1
  Cu  Cu9  1  0.44325600  0.47227000  0.35820600  1
  Cu  Cu10  1  0.10576000  0.78847600  0.00002000  1
  Cu  Cu11  1  0.50000000  0.00000000  0.00000000  1
  Cu  Cu12  1  0.89424000  0.21152400  0.99998000  1
  Cu  Cu13  1  0.30098200  0.39603100  0.99996000  1
  Cu  Cu14  1  0.69901800  0.60396900  0.00004000  1
  O  O0  1  0.84719100  0.92320700  0.61762000  1
  O  O1  1  0.24744100  0.12395900  0.61972200  1
  O  O2  1  0.64853400  0.32325100  0.61968000  1
  O  O3  1  0.04716900  0.52478700  0.61947000  1
  O  O4  1  0.44805800  0.72402300  0.61924900  1
  O  O5  1  0.75255900  0.87604100  0.38027800  1
  O  O6  1  0.15280900  0.07679300  0.38238000  1
  O  O7  1  0.55194200  0.27597700  0.38075100  1
  O  O8  1  0.95283100  0.47521300  0.38053000  1
  O  O9  1  0.35146600  0.67674900  0.38032000  1
  O  O10  1  0.03183300  0.78276300  0.84790600  1
  O  O11  1  0.43617500  0.96807800  0.84034500  1
  O  O12  1  0.84661400  0.15634300  0.84790900  1
  O  O13  1  0.23745900  0.36711000  0.84030000  1
  O  O14  1  0.63486700  0.56895800  0.84019500  1
  O  O15  1  0.76254100  0.63289000  0.15970000  1
  O  O16  1  0.15338600  0.84365700  0.15209100  1
  O  O17  1  0.56382500  0.03192200  0.15965500  1
  O  O18  1  0.96816700  0.21723700  0.15209400  1
  O  O19  1  0.36513300  0.43104200  0.15980500  1
  O  O20  1  0.14704500  0.82358900  0.61789000  1
  O  O21  1  0.54691700  0.02346000  0.61779700  1
  O  O22  1  0.94763400  0.22383500  0.61793100  1
  O  O23  1  0.34708100  0.42365700  0.61780400  1
  O  O24  1  0.74707800  0.62347200  0.61792100  1
  O  O25  1  0.05236600  0.77616500  0.38206900  1
  O  O26  1  0.45308300  0.97654000  0.38220300  1
  O  O27  1  0.85295500  0.17641100  0.38211000  1
  O  O28  1  0.25292200  0.37652800  0.38207900  1
  O  O29  1  0.65291900  0.57634300  0.38219600  1
  O  O30  1  0.60002900  0.80697600  0.99998300  1
  O  O31  1  0.20572400  0.58777100  0.99993300  1
  O  O32  1  0.79427600  0.41222900  0.00006700  1
  O  O33  1  0.39997100  0.19302400  0.00001700  1
loop_
_geom_bond_atom_site_label_1
_geom_bond_atom_site_label_2
_geom_bond_distance
_geom_bond_site_symmetry_2
Ba0 O14 2.720106 1_555
Ba0 O11 2.722337 1_555
Ba0 O10 2.729487 1_655
Ba0 O12 2.736192 1_565
Ba0 O30 2.887661 1_555
Ba0 O4 2.932383 1_555
Ba0 O21 3.017850 1_565
Ba0 O24 3.018740 1_555
Ba0 O0 3.029827 1_555
Ba1 O14 2.750855 1_555
Ba1 O13 2.755686 1_555
Ba1 O11 2.765305 1_555
Ba1 O10 2.861366 1_555
Ba1 O31 2.880346 1_555
Ba1 O30 2.907634 1_555
Ba1 O3 3.031417 1_555
Ba1 O4 3.046077 1_555
Ba1 O23 3.080117 1_555
Ba1 O20 3.081387 1_555
Ba2 O14 2.770480 1_555
Ba2 O13 2.771525 1_655
Ba2 O10 2.859831 1_655
Ba2 O12 2.860724 1_555
Ba2 O31 2.885009 1_655
Ba2 O32 2.886390 1_556
Ba2 O2 3.030837 1_555
Ba2 O3 3.032784 1_655
Ba2 O24 3.077550 1_555
Ba2 O22 3.077811 1_555
Ba3 O13 2.749359 1_555
Ba3 O14 2.754572 1_555
Ba3 O11 2.765466 1_545
Ba3 O12 2.862406 1_555
Ba3 O32 2.879230 1_556
Ba3 O33 2.905813 1_556
Ba3 O2 3.031948 1_555
Ba3 O1 3.044560 1_555
Ba3 O23 3.083246 1_555
Ba3 O21 3.084510 1_555
Ba4 O13 2.719969 1_555
Ba4 O11 2.722079 1_545
Ba4 O12 2.728449 1_455
Ba4 O10 2.735968 1_545
Ba4 O33 2.886041 1_556
Ba4 O1 2.929424 1_555
Ba4 O20 3.018269 1_545
Ba4 O22 3.020525 1_455
Ba4 O0 3.032379 1_445
Ba5 O15 2.749359 1_555
Ba5 O19 2.754572 1_555
Ba5 O17 2.765466 1_565
Ba5 O16 2.862406 1_555
Ba5 O31 2.879230 1_554
Ba5 O30 2.905813 1_554
Ba5 O9 3.031948 1_555
Ba5 O5 3.044560 1_555
Ba5 O29 3.083246 1_555
Ba5 O26 3.084510 1_555
Ba6 O19 2.770480 1_555
Ba6 O15 2.771525 1_455
Ba6 O18 2.859831 1_455
Ba6 O16 2.860724 1_555
Ba6 O32 2.885009 1_455
Ba6 O31 2.886390 1_554
Ba6 O9 3.030837 1_555
Ba6 O8 3.032784 1_455
Ba6 O28 3.077550 1_555
Ba6 O25 3.077811 1_555
Ba7 O19 2.750855 1_555
Ba7 O15 2.755686 1_555
Ba7 O17 2.765305 1_555
Ba7 O18 2.861366 1_555
Ba7 O32 2.880346 1_555
Ba7 O33 2.907634 1_555
Ba7 O8 3.031417 1_555
Ba7 O7 3.046077 1_555
Ba7 O29 3.080117 1_555
Ba7 O27 3.081387 1_555
Ba8 O19 2.720106 1_555
Ba8 O17 2.722337 1_555
Ba8 O18 2.729487 1_455
Ba8 O16 2.736192 1_545
Ba8 O33 2.887661 1_555
Ba8 O7 2.932383 1_555
Ba8 O26 3.017850 1_545
Ba8 O28 3.018740 1_555
Ba8 O6 3.029827 1_555
Ba9 O15 2.719969 1_555
Ba9 O17 2.722079 1_565
Ba9 O16 2.728449 1_655
Ba9 O18 2.735968 1_565
Ba9 O30 2.886041 1_554
Ba9 O5 2.929424 1_555
Ba9 O27 3.018269 1_565
Ba9 O25 3.020525 1_655
Ba9 O6 3.032379 1_665
Er0 O6 2.370227 1_555
Er0 O0 2.370227 1_445
Er0 O1 2.382323 1_555
Er0 O5 2.382323 1_445
Er0 O27 2.409828 1_455
Er0 O20 2.409828 1_545
Er0 O22 2.410575 1_455
Er0 O25 2.410575 1_545
Er1 O2 2.378324 1_555
Er1 O6 2.378626 1_555
Er1 O1 2.378679 1_555
Er1 O7 2.387712 1_555
Er1 O23 2.397373 1_555
Er1 O21 2.405694 1_555
Er1 O28 2.414909 1_555
Er1 O26 2.422537 1_545
Er2 O2 2.381777 1_555
Er2 O3 2.382658 1_655
Er2 O7 2.384015 1_555
Er2 O8 2.384996 1_555
Er2 O29 2.406157 1_555
Er2 O24 2.406826 1_555
Er2 O22 2.413187 1_555
Er2 O27 2.413733 1_555
Er3 O9 2.381777 1_555
Er3 O8 2.382658 1_455
Er3 O4 2.384015 1_555
Er3 O3 2.384996 1_555
Er3 O23 2.406157 1_555
Er3 O28 2.406826 1_555
Er3 O25 2.413187 1_555
Er3 O20 2.413733 1_555
Er4 O9 2.378324 1_555
Er4 O0 2.378626 1_555
Er4 O5 2.378679 1_555
Er4 O4 2.387712 1_555
Er4 O29 2.397373 1_555
Er4 O26 2.405694 1_555
Er4 O24 2.414909 1_555
Er4 O21 2.422537 1_565
Cu0 O20 1.934528 1_655
Cu0 O24 1.937020 1_555
Cu0 O0 1.974898 1_555
Cu0 O3 1.975047 1_655
Cu0 O10 2.464705 1_655
Cu1 O21 1.933351 1_565
Cu1 O20 1.940319 1_555
Cu1 O4 1.979720 1_555
Cu1 O1 1.984715 1_565
Cu1 O11 2.359797 1_555
Cu2 O21 1.937319 1_555
Cu2 O22 1.940711 1_555
Cu2 O2 1.975363 1_555
Cu2 O0 1.982064 1_545
Cu2 O12 2.463754 1_555
Cu3 O22 1.936260 1_455
Cu3 O23 1.936538 1_555
Cu3 O3 1.985284 1_555
Cu3 O1 1.986660 1_555
Cu3 O13 2.350762 1_555
Cu4 O23 1.936464 1_555
Cu4 O24 1.939527 1_555
Cu4 O2 1.984970 1_555
Cu4 O4 1.987712 1_555
Cu4 O14 2.349639 1_555
Cu5 O25 1.936260 1_655
Cu5 O29 1.936538 1_555
Cu5 O8 1.985284 1_555
Cu5 O5 1.986660 1_555
Cu5 O15 2.350762 1_555
Cu6 O26 1.937319 1_555
Cu6 O25 1.940711 1_555
Cu6 O9 1.975363 1_555
Cu6 O6 1.982064 1_565
Cu6 O16 2.463754 1_555
Cu7 O26 1.933351 1_545
Cu7 O27 1.940319 1_555
Cu7 O7 1.979720 1_555
Cu7 O5 1.984715 1_545
Cu7 O17 2.359797 1_555
Cu8 O27 1.934528 1_455
Cu8 O28 1.937020 1_555
Cu8 O6 1.974898 1_555
Cu8 O8 1.975047 1_455
Cu8 O18 2.464705 1_455
Cu9 O29 1.936464 1_555
Cu9 O28 1.939527 1_555
Cu9 O9 1.984970 1_555
Cu9 O7 1.987712 1_555
Cu9 O19 2.349639 1_555
Cu10 O16 1.817705 1_555
Cu10 O10 1.818100 1_554
Cu10 O31 1.970084 1_554
Cu11 O17 1.890724 1_555
Cu11 O11 1.890724 1_544
Cu11 O30 1.910161 1_544
Cu11 O33 1.910161 1_555
Cu12 O12 1.817705 1_555
Cu12 O18 1.818100 1_556
Cu12 O32 1.970084 1_556
Cu13 O31 1.881144 1_555
Cu13 O13 1.890968 1_555
Cu13 O19 1.893162 1_556
Cu13 O33 1.984441 1_556
Cu14 O32 1.881144 1_555
Cu14 O15 1.890968 1_555
Cu14 O14 1.893162 1_554
Cu14 O30 1.984441 1_554
