# generated using pymatgen
data_Lu3Si13Os4
_symmetry_space_group_name_H-M   'P 1'
_cell_length_a   8.76030900
_cell_length_b   8.76030900
_cell_length_c   8.76030900
_cell_angle_alpha   90.00000000
_cell_angle_beta   90.00000000
_cell_angle_gamma   90.00000000
_symmetry_Int_Tables_number   1
_chemical_formula_structural   Lu3Si13Os4
_chemical_formula_sum   'Lu6 Si26 Os8'
_cell_volume   672.29251426
_cell_formula_units_Z   2
loop_
 _symmetry_equiv_pos_site_id
 _symmetry_equiv_pos_as_xyz
  1  'x, y, z'
loop_
 _atom_site_type_symbol
 _atom_site_label
 _atom_site_symmetry_multiplicity
 _atom_site_fract_x
 _atom_site_fract_y
 _atom_site_fract_z
 _atom_site_occupancy
  Lu  Lu0  1  0.00000000  0.50000000  0.75000000  1
  Lu  Lu1  1  0.50000000  0.25000000  0.00000000  1
  Lu  Lu2  1  0.75000000  0.00000000  0.50000000  1
  Lu  Lu3  1  0.00000000  0.50000000  0.25000000  1
  Lu  Lu4  1  0.50000000  0.75000000  0.00000000  1
  Lu  Lu5  1  0.25000000  0.00000000  0.50000000  1
  Si  Si0  1  0.50000000  0.50000000  0.50000000  1
  Si  Si1  1  0.00000000  0.00000000  0.00000000  1
  Si  Si2  1  0.78398900  0.36220500  0.50000000  1
  Si  Si3  1  0.63779500  0.50000000  0.78398900  1
  Si  Si4  1  0.50000000  0.21601100  0.63779500  1
  Si  Si5  1  0.21601100  0.63779500  0.50000000  1
  Si  Si6  1  0.36220500  0.50000000  0.21601100  1
  Si  Si7  1  0.50000000  0.78398900  0.36220500  1
  Si  Si8  1  0.78398900  0.63779500  0.50000000  1
  Si  Si9  1  0.63779500  0.50000000  0.21601100  1
  Si  Si10  1  0.21601100  0.36220500  0.50000000  1
  Si  Si11  1  0.36220500  0.50000000  0.78398900  1
  Si  Si12  1  0.50000000  0.78398900  0.63779500  1
  Si  Si13  1  0.50000000  0.21601100  0.36220500  1
  Si  Si14  1  0.28398900  0.00000000  0.86220500  1
  Si  Si15  1  0.13779500  0.28398900  0.00000000  1
  Si  Si16  1  0.00000000  0.13779500  0.71601100  1
  Si  Si17  1  0.71601100  0.00000000  0.13779500  1
  Si  Si18  1  0.86220500  0.71601100  0.00000000  1
  Si  Si19  1  0.00000000  0.86220500  0.28398900  1
  Si  Si20  1  0.28398900  0.00000000  0.13779500  1
  Si  Si21  1  0.13779500  0.71601100  0.00000000  1
  Si  Si22  1  0.71601100  0.00000000  0.86220500  1
  Si  Si23  1  0.86220500  0.28398900  0.00000000  1
  Si  Si24  1  0.00000000  0.13779500  0.28398900  1
  Si  Si25  1  0.00000000  0.86220500  0.71601100  1
  Os  Os0  1  0.75000000  0.25000000  0.75000000  1
  Os  Os1  1  0.25000000  0.75000000  0.25000000  1
  Os  Os2  1  0.75000000  0.75000000  0.25000000  1
  Os  Os3  1  0.25000000  0.25000000  0.75000000  1
  Os  Os4  1  0.25000000  0.75000000  0.75000000  1
  Os  Os5  1  0.75000000  0.25000000  0.25000000  1
  Os  Os6  1  0.25000000  0.25000000  0.25000000  1
  Os  Os7  1  0.75000000  0.75000000  0.75000000  1
loop_
_geom_bond_atom_site_label_1
_geom_bond_atom_site_label_2
_geom_bond_distance
_geom_bond_site_symmetry_2
Lu0 Os7 3.097237 1_455
Lu0 Os3 3.097237 1_555
Lu0 Os4 3.097237 1_555
Lu0 Os0 3.097237 1_455
Lu0 Si8 3.135997 1_455
Lu0 Si18 3.135997 1_456
Lu0 Si21 3.135997 1_556
Lu0 Si2 3.135997 1_455
Lu0 Si5 3.135997 1_555
Lu0 Si23 3.135997 1_456
Lu0 Si15 3.135997 1_556
Lu0 Si10 3.135997 1_555
Lu0 Si11 3.186968 1_555
Lu0 Si25 3.186968 1_555
Lu0 Si3 3.186968 1_455
Lu0 Si16 3.186968 1_555
Lu1 Os3 3.097237 1_554
Lu1 Os5 3.097237 1_555
Lu1 Os0 3.097237 1_554
Lu1 Os6 3.097237 1_555
Lu1 Si3 3.135997 1_554
Lu1 Si14 3.135997 1_554
Lu1 Si11 3.135997 1_554
Lu1 Si20 3.135997 1_555
Lu1 Si17 3.135997 1_555
Lu1 Si22 3.135997 1_554
Lu1 Si9 3.135997 1_555
Lu1 Si6 3.135997 1_555
Lu1 Si15 3.186968 1_555
Lu1 Si13 3.186968 1_555
Lu1 Si23 3.186968 1_555
Lu1 Si4 3.186968 1_554
Lu2 Os5 3.097237 1_555
Lu2 Os2 3.097237 1_545
Lu2 Os0 3.097237 1_555
Lu2 Os7 3.097237 1_545
Lu2 Si12 3.135997 1_545
Lu2 Si16 3.135997 1_655
Lu2 Si13 3.135997 1_555
Lu2 Si7 3.135997 1_545
Lu2 Si25 3.135997 1_645
Lu2 Si4 3.135997 1_555
Lu2 Si19 3.135997 1_645
Lu2 Si24 3.135997 1_655
Lu2 Si2 3.186968 1_555
Lu2 Si22 3.186968 1_555
Lu2 Si17 3.186968 1_555
Lu2 Si8 3.186968 1_545
Lu3 Os2 3.097237 1_455
Lu3 Os1 3.097237 1_555
Lu3 Os6 3.097237 1_555
Lu3 Os5 3.097237 1_455
Lu3 Si21 3.135997 1_555
Lu3 Si8 3.135997 1_455
Lu3 Si2 3.135997 1_455
Lu3 Si18 3.135997 1_455
Lu3 Si23 3.135997 1_455
Lu3 Si5 3.135997 1_555
Lu3 Si15 3.135997 1_555
Lu3 Si10 3.135997 1_555
Lu3 Si24 3.186968 1_555
Lu3 Si19 3.186968 1_555
Lu3 Si6 3.186968 1_555
Lu3 Si9 3.186968 1_455
Lu4 Os1 3.097237 1_555
Lu4 Os2 3.097237 1_555
Lu4 Os7 3.097237 1_554
Lu4 Os4 3.097237 1_554
Lu4 Si3 3.135997 1_554
Lu4 Si20 3.135997 1_565
Lu4 Si11 3.135997 1_554
Lu4 Si17 3.135997 1_565
Lu4 Si22 3.135997 1_564
Lu4 Si14 3.135997 1_564
Lu4 Si9 3.135997 1_555
Lu4 Si6 3.135997 1_555
Lu4 Si18 3.186968 1_555
Lu4 Si7 3.186968 1_555
Lu4 Si12 3.186968 1_554
Lu4 Si21 3.186968 1_555
Lu5 Os1 3.097237 1_545
Lu5 Os6 3.097237 1_555
Lu5 Os3 3.097237 1_555
Lu5 Os4 3.097237 1_545
Lu5 Si12 3.135997 1_545
Lu5 Si25 3.135997 1_545
Lu5 Si16 3.135997 1_555
Lu5 Si13 3.135997 1_555
Lu5 Si7 3.135997 1_545
Lu5 Si4 3.135997 1_555
Lu5 Si24 3.135997 1_555
Lu5 Si19 3.135997 1_545
Lu5 Si10 3.186968 1_555
Lu5 Si20 3.186968 1_555
Lu5 Si5 3.186968 1_545
Lu5 Si14 3.186968 1_555
Si0 Si6 2.765223 1_555
Si0 Si10 2.765223 1_555
Si0 Si13 2.765223 1_555
Si0 Si5 2.765223 1_555
Si0 Si4 2.765223 1_555
Si0 Si9 2.765223 1_555
Si0 Si12 2.765223 1_555
Si0 Si2 2.765223 1_555
Si0 Si8 2.765223 1_555
Si0 Si3 2.765223 1_555
Si0 Si7 2.765223 1_555
Si0 Si11 2.765223 1_555
Si1 Si14 2.765223 1_554
Si1 Si23 2.765223 1_455
Si1 Si20 2.765223 1_555
Si1 Si15 2.765223 1_555
Si1 Si24 2.765223 1_555
Si1 Si19 2.765223 1_545
Si1 Si16 2.765223 1_554
Si1 Si21 2.765223 1_545
Si1 Si25 2.765223 1_544
Si1 Si17 2.765223 1_455
Si1 Si18 2.765223 1_445
Si1 Si22 2.765223 1_454
Os0 Si2 2.418943 1_555
Os0 Si22 2.418943 1_555
Os0 Si3 2.418943 1_555
Os0 Si16 2.418943 1_655
Os0 Si23 2.418943 1_556
Os0 Si4 2.418943 1_555
Os1 Si20 2.418943 1_565
Os1 Si7 2.418943 1_555
Os1 Si19 2.418943 1_555
Os1 Si6 2.418943 1_555
Os1 Si5 2.418943 1_555
Os1 Si21 2.418943 1_555
Os2 Si8 2.418943 1_555
Os2 Si18 2.418943 1_555
Os2 Si17 2.418943 1_565
Os2 Si7 2.418943 1_555
Os2 Si19 2.418943 1_655
Os2 Si9 2.418943 1_555
Os3 Si10 2.418943 1_555
Os3 Si16 2.418943 1_555
Os3 Si14 2.418943 1_555
Os3 Si11 2.418943 1_555
Os3 Si4 2.418943 1_555
Os3 Si15 2.418943 1_556
Os4 Si12 2.418943 1_555
Os4 Si14 2.418943 1_565
Os4 Si25 2.418943 1_555
Os4 Si5 2.418943 1_555
Os4 Si21 2.418943 1_556
Os4 Si11 2.418943 1_555
Os5 Si2 2.418943 1_555
Os5 Si24 2.418943 1_655
Os5 Si13 2.418943 1_555
Os5 Si17 2.418943 1_555
Os5 Si23 2.418943 1_555
Os5 Si9 2.418943 1_555
Os6 Si24 2.418943 1_555
Os6 Si10 2.418943 1_555
Os6 Si6 2.418943 1_555
Os6 Si13 2.418943 1_555
Os6 Si20 2.418943 1_555
Os6 Si15 2.418943 1_555
Os7 Si8 2.418943 1_555
Os7 Si12 2.418943 1_555
Os7 Si22 2.418943 1_565
Os7 Si18 2.418943 1_556
Os7 Si3 2.418943 1_555
Os7 Si25 2.418943 1_655
