# generated using pymatgen
data_Li4V3Ni2Sb3O16
_symmetry_space_group_name_H-M   'P 1'
_cell_length_a   6.13888533
_cell_length_b   6.13888533
_cell_length_c   9.81073556
_cell_angle_alpha   89.59036399
_cell_angle_beta   89.59036399
_cell_angle_gamma   59.77362274
_symmetry_Int_Tables_number   1
_chemical_formula_structural   Li4V3Ni2Sb3O16
_chemical_formula_sum   'Li4 V3 Ni2 Sb3 O16'
_cell_volume   319.44880710
_cell_formula_units_Z   1
loop_
 _symmetry_equiv_pos_site_id
 _symmetry_equiv_pos_as_xyz
  1  'x, y, z'
loop_
 _atom_site_type_symbol
 _atom_site_label
 _atom_site_symmetry_multiplicity
 _atom_site_fract_x
 _atom_site_fract_y
 _atom_site_fract_z
 _atom_site_occupancy
  Li  Li0  1  0.66265600  0.66265600  0.12499500  1
  Li  Li1  1  0.99256500  0.99256500  0.00901900  1
  Li  Li2  1  0.99363800  0.99363800  0.49377900  1
  Li  Li3  1  0.32862200  0.32862200  0.60102100  1
  V  V0  1  0.83222300  0.83222300  0.78405600  1
  V  V1  1  0.17061800  0.66206600  0.28579300  1
  V  V2  1  0.66206600  0.17061800  0.28579300  1
  Ni  Ni0  1  0.67339500  0.67339500  0.48891500  1
  Ni  Ni1  1  0.34105600  0.34105600  0.02631100  1
  Sb  Sb0  1  0.33847100  0.83146100  0.78387200  1
  Sb  Sb1  1  0.83146100  0.33847100  0.78387200  1
  Sb  Sb2  1  0.17037600  0.17037600  0.28534800  1
  O  O0  1  0.31888100  0.84580500  0.39919600  1
  O  O1  1  0.51466900  0.51466900  0.66650100  1
  O  O2  1  0.66199900  0.66199900  0.89800700  1
  O  O3  1  0.00454600  0.00454600  0.67883200  1
  O  O4  1  0.00576500  0.00576500  0.18713700  1
  O  O5  1  0.84580500  0.31888100  0.39919600  1
  O  O6  1  0.51366400  0.96678000  0.67211800  1
  O  O7  1  0.96678000  0.51366400  0.67211800  1
  O  O8  1  0.15559000  0.15559000  0.89669300  1
  O  O9  1  0.84163200  0.84163200  0.39458200  1
  O  O10  1  0.03499600  0.47872900  0.16270300  1
  O  O11  1  0.47872900  0.03499600  0.16270300  1
  O  O12  1  0.32793100  0.32793100  0.39866500  1
  O  O13  1  0.15974200  0.68994100  0.89194400  1
  O  O14  1  0.48204800  0.48204800  0.16703300  1
  O  O15  1  0.68994100  0.15974200  0.89194400  1
loop_
_geom_bond_atom_site_label_1
_geom_bond_atom_site_label_2
_geom_bond_distance
_geom_bond_site_symmetry_2
Li0 O14 1.962977 1_555
Li0 O10 2.010976 1_655
Li0 O11 2.010976 1_565
Li0 O2 2.226988 1_554
Li1 O4 1.754263 1_665
Li1 O15 1.979360 1_564
Li1 O13 1.979360 1_654
Li1 O8 2.048039 1_664
Li2 O3 1.820171 1_665
Li2 O9 1.895079 1_555
Li2 O0 1.957640 1_655
Li2 O5 1.957640 1_565
Li3 O12 1.985335 1_555
Li3 O6 2.039545 1_545
Li3 O7 2.039545 1_455
Li3 O1 2.087081 1_555
Ni0 O9 2.009083 1_555
Ni0 O5 2.079966 1_555
Ni0 O0 2.079966 1_555
Ni0 O6 2.383016 1_555
Ni0 O7 2.383016 1_555
Ni0 O1 2.416970 1_555
Ni1 O14 2.047623 1_555
Ni1 O10 2.101521 1_555
Ni1 O11 2.101521 1_555
Ni1 O15 2.268086 1_554
Ni1 O13 2.268086 1_554
Ni1 O8 2.357175 1_554
O0 Sb2 2.050017 1_565
O0 V1 2.098704 1_555
O1 Sb1 2.043100 1_555
O1 Sb0 2.043100 1_555
O2 Sb0 2.053178 1_555
O2 Sb1 2.053178 1_555
O2 V0 2.121282 1_555
O3 Sb0 2.052972 1_545
O3 Sb1 2.052972 1_455
O3 V0 2.097472 1_445
O4 Sb2 2.006664 1_555
O4 V1 2.060997 1_545
O4 V2 2.060997 1_455
O5 Sb2 2.050017 1_655
O5 V2 2.098704 1_555
O6 Sb0 1.979511 1_555
O6 V0 2.025841 1_555
O7 Sb1 1.979511 1_555
O7 V0 2.025841 1_555
O8 Sb1 2.051674 1_455
O8 Sb0 2.051674 1_545
O9 V2 2.043914 1_565
O9 V1 2.043914 1_655
O10 Sb2 2.029655 1_555
O10 V1 2.096533 1_555
O11 Sb2 2.029655 1_555
O11 V2 2.096533 1_555
O12 Sb2 2.019795 1_555
O12 V2 2.086795 1_555
O12 V1 2.086795 1_555
O13 Sb0 2.003173 1_555
O13 V0 2.043237 1_455
O14 V1 2.023170 1_555
O14 V2 2.023170 1_555
O15 Sb1 2.003173 1_555
O15 V0 2.043237 1_545
