# generated using pymatgen
data_CaTi2(CuO4)2
_symmetry_space_group_name_H-M   'P 1'
_cell_length_a   8.81999000
_cell_length_b   6.40749200
_cell_length_c   12.50329060
_cell_angle_alpha   84.16042931
_cell_angle_beta   90.00000000
_cell_angle_gamma   90.00000000
_symmetry_Int_Tables_number   1
_chemical_formula_structural   CaTi2(CuO4)2
_chemical_formula_sum   'Ca4 Ti8 Cu8 O32'
_cell_volume   702.94432432
_cell_formula_units_Z   4
loop_
 _symmetry_equiv_pos_site_id
 _symmetry_equiv_pos_as_xyz
  1  'x, y, z'
loop_
 _atom_site_type_symbol
 _atom_site_label
 _atom_site_symmetry_multiplicity
 _atom_site_fract_x
 _atom_site_fract_y
 _atom_site_fract_z
 _atom_site_occupancy
  Ca  Ca0  1  0.16579500  0.15055300  0.01828100  1
  Ca  Ca1  1  0.83420500  0.84944700  0.98171900  1
  Ca  Ca2  1  0.66579500  0.84944700  0.48171900  1
  Ca  Ca3  1  0.33420500  0.15055300  0.51828100  1
  Ti  Ti0  1  0.45912300  0.08761800  0.82952400  1
  Ti  Ti1  1  0.04087700  0.08761800  0.32952400  1
  Ti  Ti2  1  0.09031800  0.59692300  0.15148900  1
  Ti  Ti3  1  0.95912300  0.91238200  0.67047600  1
  Ti  Ti4  1  0.90968200  0.40307700  0.84851100  1
  Ti  Ti5  1  0.59031800  0.40307700  0.34851100  1
  Ti  Ti6  1  0.40968200  0.59692300  0.65148900  1
  Ti  Ti7  1  0.54087700  0.91238200  0.17047600  1
  Cu  Cu0  1  0.18327700  0.75934900  0.84428300  1
  Cu  Cu1  1  0.05630700  0.39053000  0.62928100  1
  Cu  Cu2  1  0.94369300  0.60947000  0.37071900  1
  Cu  Cu3  1  0.81672300  0.24065100  0.15571700  1
  Cu  Cu4  1  0.31672300  0.75934900  0.34428300  1
  Cu  Cu5  1  0.44369300  0.39053000  0.12928100  1
  Cu  Cu6  1  0.68327700  0.24065100  0.65571700  1
  Cu  Cu7  1  0.55630700  0.60947000  0.87071900  1
  O  O0  1  0.24020900  0.02308700  0.36214500  1
  O  O1  1  0.00408700  0.67184800  0.61499500  1
  O  O2  1  0.58147900  0.18789400  0.44680500  1
  O  O3  1  0.08147900  0.81210600  0.05319500  1
  O  O4  1  0.25979100  0.02308700  0.86214500  1
  O  O5  1  0.75979100  0.97691300  0.63785500  1
  O  O6  1  0.09481300  0.11144700  0.60954800  1
  O  O7  1  0.89131300  0.50918600  0.14302700  1
  O  O8  1  0.60868700  0.50918600  0.64302700  1
  O  O9  1  0.87917700  0.31283000  0.70453000  1
  O  O10  1  0.37917700  0.68717000  0.79547000  1
  O  O11  1  0.10868700  0.49081400  0.85697300  1
  O  O12  1  0.90518700  0.88855300  0.39045200  1
  O  O13  1  0.51252500  0.85495400  0.31777700  1
  O  O14  1  0.25737400  0.44096800  0.60189700  1
  O  O15  1  0.24262600  0.44096800  0.10189700  1
  O  O16  1  0.01252500  0.14504600  0.18222300  1
  O  O17  1  0.39131300  0.49081400  0.35697300  1
  O  O18  1  0.48747500  0.14504600  0.68222300  1
  O  O19  1  0.41852100  0.81210600  0.55319500  1
  O  O20  1  0.49591300  0.67184800  0.11499500  1
  O  O21  1  0.12082300  0.68717000  0.29547000  1
  O  O22  1  0.74020900  0.97691300  0.13785500  1
  O  O23  1  0.40518700  0.11144700  0.10954800  1
  O  O24  1  0.91852100  0.18789400  0.94680500  1
  O  O25  1  0.75737400  0.55903200  0.89810300  1
  O  O26  1  0.99591300  0.32815200  0.38500500  1
  O  O27  1  0.50408700  0.32815200  0.88500500  1
  O  O28  1  0.59481300  0.88855300  0.89045200  1
  O  O29  1  0.74262600  0.55903200  0.39810300  1
  O  O30  1  0.62082300  0.31283000  0.20453000  1
  O  O31  1  0.98747500  0.85495400  0.81777700  1
loop_
_geom_bond_atom_site_label_1
_geom_bond_atom_site_label_2
_geom_bond_distance
_geom_bond_site_symmetry_2
Ca0 O3 2.292113 1_545
Ca0 O15 2.326112 1_555
Ca0 O4 2.343067 1_554
Ca0 O24 2.359867 1_454
Ca0 O23 2.401032 1_555
Ca0 O16 2.452700 1_555
Ca0 O11 2.860086 1_554
Ca1 O24 2.292113 1_565
Ca1 O25 2.326112 1_555
Ca1 O22 2.343067 1_556
Ca1 O3 2.359867 1_656
Ca1 O28 2.401032 1_555
Ca1 O31 2.452700 1_555
Ca1 O7 2.860086 1_556
Ca2 O2 2.292113 1_565
Ca2 O29 2.326112 1_555
Ca2 O5 2.343067 1_555
Ca2 O19 2.359867 1_555
Ca2 O12 2.401032 1_555
Ca2 O13 2.452700 1_555
Ca2 O8 2.860086 1_555
Ca3 O19 2.292113 1_545
Ca3 O14 2.326112 1_555
Ca3 O0 2.343067 1_555
Ca3 O2 2.359867 1_555
Ca3 O6 2.401032 1_555
Ca3 O18 2.452700 1_555
Ca3 O17 2.860086 1_555
Cu0 O11 1.833854 1_555
Cu0 O31 1.851005 1_455
Cu0 O4 1.854147 1_565
Cu0 O10 1.905057 1_555
Cu1 O14 1.828699 1_555
Cu1 O1 1.851400 1_555
Cu1 O6 1.861111 1_555
Cu1 O9 1.865074 1_455
Cu2 O29 1.828699 1_555
Cu2 O26 1.851400 1_555
Cu2 O12 1.861111 1_555
Cu2 O21 1.865074 1_655
Cu3 O7 1.833854 1_555
Cu3 O16 1.851005 1_655
Cu3 O22 1.854147 1_545
Cu3 O30 1.905057 1_555
Cu4 O17 1.833854 1_555
Cu4 O13 1.851005 1_555
Cu4 O0 1.854147 1_565
Cu4 O21 1.905057 1_555
Cu5 O15 1.828699 1_555
Cu5 O20 1.851400 1_555
Cu5 O23 1.861111 1_555
Cu5 O30 1.865074 1_555
Cu6 O8 1.833854 1_555
Cu6 O18 1.851005 1_555
Cu6 O5 1.854147 1_545
Cu6 O9 1.905057 1_555
Cu7 O25 1.828699 1_555
Cu7 O27 1.851400 1_555
Cu7 O28 1.861111 1_555
Cu7 O10 1.865074 1_555
O0 Ti1 1.842266 1_555
O1 Ti3 1.797610 1_455
O2 Ti5 1.752925 1_555
O3 Ti2 1.752925 1_555
O4 Ti0 1.842266 1_555
O5 Ti3 1.842266 1_555
O6 Ti3 1.855216 1_445
O7 Ti2 1.849363 1_655
O8 Ti6 1.849363 1_555
O9 Ti4 1.964549 1_555
O10 Ti6 1.964549 1_555
O11 Ti4 1.849363 1_455
O12 Ti1 1.855216 1_665
O13 Ti7 1.857973 1_555
O14 Ti6 1.820364 1_555
O15 Ti2 1.820364 1_555
O16 Ti1 1.857973 1_555
O17 Ti5 1.849363 1_555
O18 Ti0 1.857973 1_555
O19 Ti6 1.752925 1_555
O20 Ti7 1.797610 1_555
O21 Ti2 1.964549 1_555
O22 Ti7 1.842266 1_555
O23 Ti7 1.855216 1_545
O24 Ti4 1.752925 1_555
O25 Ti4 1.820364 1_555
O26 Ti1 1.797610 1_655
O27 Ti0 1.797610 1_555
O28 Ti0 1.855216 1_565
O29 Ti5 1.820364 1_555
O30 Ti5 1.964549 1_555
O31 Ti3 1.857973 1_555
