# generated using pymatgen
data_LaP5
_symmetry_space_group_name_H-M   'P 1'
_cell_length_a   9.68928753
_cell_length_b   5.56078861
_cell_length_c   10.05970811
_cell_angle_alpha   76.05124794
_cell_angle_beta   90.00000000
_cell_angle_gamma   90.00000000
_symmetry_Int_Tables_number   1
_chemical_formula_structural   LaP5
_chemical_formula_sum   'La4 P20'
_cell_volume   526.03470182
_cell_formula_units_Z   4
loop_
 _symmetry_equiv_pos_site_id
 _symmetry_equiv_pos_as_xyz
  1  'x, y, z'
loop_
 _atom_site_type_symbol
 _atom_site_label
 _atom_site_symmetry_multiplicity
 _atom_site_fract_x
 _atom_site_fract_y
 _atom_site_fract_z
 _atom_site_occupancy
  La  La0  1  0.75000000  0.64608961  0.50521116  1
  La  La1  1  0.75000000  0.62348017  0.02294117  1
  La  La2  1  0.25000000  0.37651983  0.97705883  1
  La  La3  1  0.25000000  0.35391039  0.49478884  1
  P  P0  1  0.59249833  0.03197216  0.80858274  1
  P  P1  1  0.09249833  0.96802784  0.19141726  1
  P  P2  1  0.90750167  0.03197216  0.80858274  1
  P  P3  1  0.03339468  0.58797815  0.65667394  1
  P  P4  1  0.46660532  0.58797815  0.65667394  1
  P  P5  1  0.53339468  0.41202185  0.34332606  1
  P  P6  1  0.41487148  0.94536301  0.69128191  1
  P  P7  1  0.46045297  0.62448595  0.14148933  1
  P  P8  1  0.96045297  0.37551405  0.85851067  1
  P  P9  1  0.40750167  0.96802784  0.19141726  1
  P  P10  1  0.91487148  0.05463699  0.30871809  1
  P  P11  1  0.53954703  0.37551405  0.85851067  1
  P  P12  1  0.75000000  0.06635702  0.15597681  1
  P  P13  1  0.75000000  0.08766233  0.64575831  1
  P  P14  1  0.96660532  0.41202185  0.34332606  1
  P  P15  1  0.25000000  0.93364298  0.84402319  1
  P  P16  1  0.03954703  0.62448595  0.14148933  1
  P  P17  1  0.08512852  0.94536301  0.69128191  1
  P  P18  1  0.58512852  0.05463699  0.30871809  1
  P  P19  1  0.25000000  0.91233767  0.35424169  1
loop_
_geom_bond_atom_site_label_1
_geom_bond_atom_site_label_2
_geom_bond_distance
_geom_bond_site_symmetry_2
La0 P10 3.074972 1_565
La0 P18 3.074972 1_565
La0 P13 3.086292 1_555
La0 P13 3.114836 1_565
La0 P3 3.119062 1_655
La0 P4 3.119062 1_555
La0 P14 3.126164 1_555
La0 P5 3.126164 1_555
La1 P7 3.048984 1_555
La1 P16 3.048984 1_655
La1 P12 3.064319 1_555
La1 P12 3.073293 1_565
La1 P0 3.126864 1_564
La1 P2 3.126864 1_564
La1 P11 3.145657 1_554
La1 P8 3.145657 1_554
La2 P11 3.048984 1_555
La2 P8 3.048984 1_455
La2 P15 3.064319 1_555
La2 P15 3.073293 1_545
La2 P9 3.126864 1_546
La2 P1 3.126864 1_546
La2 P7 3.145657 1_556
La2 P16 3.145657 1_556
La3 P6 3.074972 1_545
La3 P17 3.074972 1_545
La3 P19 3.086292 1_555
La3 P19 3.114836 1_545
La3 P14 3.119062 1_455
La3 P5 3.119062 1_555
La3 P4 3.126164 1_555
La3 P3 3.126164 1_555
P0 P11 2.151178 1_555
P0 P6 2.204649 1_545
P0 P13 2.205268 1_555
P1 P16 2.151178 1_555
P1 P10 2.204649 1_465
P1 P19 2.205268 1_555
P2 P8 2.151178 1_555
P3 P8 2.204870 1_455
P4 P6 2.157675 1_555
P5 P7 2.204870 1_555
P7 P9 2.151178 1_555
P10 P14 2.157675 1_555
P10 P12 2.206551 1_555
P11 P4 2.204870 1_555
P12 P18 2.206551 1_555
P13 P2 2.205268 1_555
P14 P16 2.204870 1_655
P15 P17 2.206551 1_555
P15 P6 2.206551 1_555
P17 P3 2.157675 1_555
P17 P2 2.204649 1_465
P18 P5 2.157675 1_555
P18 P9 2.204649 1_545
P19 P9 2.205268 1_555
