# generated using pymatgen
data_Ge3Pb5O12
_symmetry_space_group_name_H-M   'P 1'
_cell_length_a   10.27961995
_cell_length_b   10.27961995
_cell_length_c   7.27737700
_cell_angle_alpha   90.00000000
_cell_angle_beta   90.00000000
_cell_angle_gamma   119.99999966
_symmetry_Int_Tables_number   1
_chemical_formula_structural   Ge3Pb5O12
_chemical_formula_sum   'Ge6 Pb10 O24'
_cell_volume   665.97760291
_cell_formula_units_Z   2
loop_
 _symmetry_equiv_pos_site_id
 _symmetry_equiv_pos_as_xyz
  1  'x, y, z'
loop_
 _atom_site_type_symbol
 _atom_site_label
 _atom_site_symmetry_multiplicity
 _atom_site_fract_x
 _atom_site_fract_y
 _atom_site_fract_z
 _atom_site_occupancy
  Ge  Ge0  1  0.39367500  0.01797200  0.75000000  1
  Ge  Ge1  1  0.60632500  0.98202800  0.25000000  1
  Ge  Ge2  1  0.98202800  0.37570300  0.75000000  1
  Ge  Ge3  1  0.01797200  0.62429700  0.25000000  1
  Ge  Ge4  1  0.62429700  0.60632500  0.75000000  1
  Ge  Ge5  1  0.37570300  0.39367500  0.25000000  1
  Pb  Pb0  1  0.33333300  0.66666700  0.50662200  1
  Pb  Pb1  1  0.66666700  0.33333300  0.49337800  1
  Pb  Pb2  1  0.66666700  0.33333300  0.00662200  1
  Pb  Pb3  1  0.33333300  0.66666700  0.99337800  1
  Pb  Pb4  1  0.26596300  0.25160100  0.75000000  1
  Pb  Pb5  1  0.73403700  0.74839900  0.25000000  1
  Pb  Pb6  1  0.74839900  0.01436300  0.75000000  1
  Pb  Pb7  1  0.25160100  0.98563700  0.25000000  1
  Pb  Pb8  1  0.98563700  0.73403700  0.75000000  1
  Pb  Pb9  1  0.01436300  0.26596300  0.25000000  1
  O  O0  1  0.34158700  0.09176500  0.56141800  1
  O  O1  1  0.65841300  0.90823500  0.43858200  1
  O  O2  1  0.90823500  0.24982300  0.56141800  1
  O  O3  1  0.65841300  0.90823500  0.06141800  1
  O  O4  1  0.09176500  0.75017700  0.43858200  1
  O  O5  1  0.34158700  0.09176500  0.93858200  1
  O  O6  1  0.75017700  0.65841300  0.56141800  1
  O  O7  1  0.09176500  0.75017700  0.06141800  1
  O  O8  1  0.24982300  0.34158700  0.43858200  1
  O  O9  1  0.90823500  0.24982300  0.93858200  1
  O  O10  1  0.24982300  0.34158700  0.06141800  1
  O  O11  1  0.75017700  0.65841300  0.93858200  1
  O  O12  1  0.59605700  0.11359600  0.75000000  1
  O  O13  1  0.40394300  0.88640400  0.25000000  1
  O  O14  1  0.88640400  0.48246100  0.75000000  1
  O  O15  1  0.11359600  0.51753900  0.25000000  1
  O  O16  1  0.51753900  0.40394300  0.75000000  1
  O  O17  1  0.48246100  0.59605700  0.25000000  1
  O  O18  1  0.17991800  0.49713500  0.75000000  1
  O  O19  1  0.82008200  0.50286500  0.25000000  1
  O  O20  1  0.50286500  0.68278300  0.75000000  1
  O  O21  1  0.49713500  0.31721700  0.25000000  1
  O  O22  1  0.31721700  0.82008200  0.75000000  1
  O  O23  1  0.68278300  0.17991800  0.25000000  1
loop_
_geom_bond_atom_site_label_1
_geom_bond_atom_site_label_2
_geom_bond_distance
_geom_bond_site_symmetry_2
Ge0 O5 1.775309 1_555
Ge0 O0 1.775309 1_555
Ge0 O22 1.776799 1_545
Ge0 O12 1.802597 1_555
Ge1 O1 1.775309 1_555
Ge1 O3 1.775309 1_555
Ge1 O23 1.776799 1_565
Ge1 O13 1.802597 1_555
Ge2 O9 1.775304 1_555
Ge2 O2 1.775304 1_555
Ge2 O18 1.776799 1_655
Ge2 O14 1.802597 1_555
Ge3 O4 1.775304 1_555
Ge3 O7 1.775304 1_555
Ge3 O19 1.776799 1_455
Ge3 O15 1.802597 1_555
Ge4 O11 1.775303 1_555
Ge4 O6 1.775303 1_555
Ge4 O20 1.776799 1_555
Ge4 O16 1.802597 1_555
Ge5 O8 1.775303 1_555
Ge5 O10 1.775303 1_555
Ge5 O21 1.776799 1_555
Ge5 O17 1.802597 1_555
O0 Pb7 2.484519 1_545
O0 Pb4 2.542572 1_555
O1 Pb6 2.484519 1_565
O1 Pb5 2.542572 1_555
O2 Pb9 2.484522 1_655
O2 Pb6 2.542572 1_555
O3 Pb6 2.484519 1_564
O3 Pb5 2.542572 1_555
O4 Pb8 2.484522 1_455
O4 Pb7 2.542572 1_555
O5 Pb7 2.484519 1_546
O5 Pb4 2.542572 1_555
O6 Pb5 2.484514 1_555
O6 Pb8 2.542572 1_555
O7 Pb8 2.484522 1_454
O7 Pb7 2.542572 1_555
O8 Pb4 2.484514 1_555
O8 Pb9 2.542572 1_555
O9 Pb9 2.484522 1_656
O9 Pb6 2.542572 1_555
O10 Pb4 2.484514 1_554
O10 Pb9 2.542572 1_555
O11 Pb5 2.484514 1_556
O11 Pb8 2.542572 1_555
O12 Pb6 2.256198 1_555
O12 Pb2 2.734452 1_556
O12 Pb1 2.734452 1_555
O13 Pb7 2.256198 1_555
O13 Pb0 2.734452 1_555
O13 Pb3 2.734452 1_554
O14 Pb8 2.256208 1_555
O14 Pb2 2.734453 1_556
O14 Pb1 2.734453 1_555
O15 Pb9 2.256208 1_555
O15 Pb0 2.734453 1_555
O15 Pb3 2.734453 1_554
O16 Pb4 2.256206 1_555
O16 Pb2 2.734459 1_556
O16 Pb1 2.734459 1_555
O17 Pb5 2.256206 1_555
O17 Pb3 2.734459 1_554
O17 Pb0 2.734459 1_555
O18 Pb0 2.431624 1_555
O18 Pb3 2.431624 1_555
O19 Pb1 2.431624 1_555
O19 Pb2 2.431624 1_555
O20 Pb0 2.431627 1_555
O20 Pb3 2.431627 1_555
O21 Pb1 2.431627 1_555
O21 Pb2 2.431627 1_555
O22 Pb0 2.431620 1_555
O22 Pb3 2.431620 1_555
O23 Pb1 2.431620 1_555
O23 Pb2 2.431620 1_555
