# generated using pymatgen
data_ZnBiO3
_symmetry_space_group_name_H-M   'P 1'
_cell_length_a   5.59044700
_cell_length_b   5.65178600
_cell_length_c   10.01902410
_cell_angle_alpha   57.15133302
_cell_angle_beta   90.00000000
_cell_angle_gamma   90.00000000
_symmetry_Int_Tables_number   1
_chemical_formula_structural   ZnBiO3
_chemical_formula_sum   'Zn4 Bi4 O12'
_cell_volume   265.94500714
_cell_formula_units_Z   4
loop_
 _symmetry_equiv_pos_site_id
 _symmetry_equiv_pos_as_xyz
  1  'x, y, z'
loop_
 _atom_site_type_symbol
 _atom_site_label
 _atom_site_symmetry_multiplicity
 _atom_site_fract_x
 _atom_site_fract_y
 _atom_site_fract_z
 _atom_site_occupancy
  Zn  Zn0  1  0.02037900  0.77355500  0.24801500  1
  Zn  Zn1  1  0.47962100  0.77355500  0.74801500  1
  Zn  Zn2  1  0.52037900  0.22644500  0.25198500  1
  Zn  Zn3  1  0.97962100  0.22644500  0.75198500  1
  Bi  Bi0  1  0.00000000  0.50000000  0.00000000  1
  Bi  Bi1  1  0.50000000  0.00000000  0.00000000  1
  Bi  Bi2  1  0.50000000  0.50000000  0.50000000  1
  Bi  Bi3  1  0.00000000  0.00000000  0.50000000  1
  O  O0  1  0.62752200  0.12871200  0.73395100  1
  O  O1  1  0.87247800  0.12871200  0.23395100  1
  O  O2  1  0.12752200  0.87128800  0.76604900  1
  O  O3  1  0.37247800  0.87128800  0.26604900  1
  O  O4  1  0.35458900  0.24329600  0.42505700  1
  O  O5  1  0.16877500  0.55357300  0.58510800  1
  O  O6  1  0.85458900  0.75670400  0.07494300  1
  O  O7  1  0.66877500  0.44642700  0.91489200  1
  O  O8  1  0.33122500  0.55357300  0.08510800  1
  O  O9  1  0.14541100  0.24329600  0.92505700  1
  O  O10  1  0.64541100  0.75670400  0.57494300  1
  O  O11  1  0.83122500  0.44642700  0.41489200  1
loop_
_geom_bond_atom_site_label_1
_geom_bond_atom_site_label_2
_geom_bond_distance
_geom_bond_site_symmetry_2
Bi0 O9 2.123989 1_554
Bi0 O6 2.123989 1_455
Bi0 O8 2.127825 1_555
Bi0 O7 2.127825 1_454
Bi0 O2 2.251634 1_554
Bi0 O1 2.251634 1_455
Bi1 O6 2.294353 1_545
Bi1 O9 2.294353 1_554
Bi1 O7 2.376853 1_554
Bi1 O8 2.376853 1_545
Bi1 O0 2.457439 1_554
Bi1 O3 2.457439 1_545
Bi2 O4 2.123989 1_555
Bi2 O10 2.123989 1_555
Bi2 O11 2.127825 1_555
Bi2 O5 2.127825 1_555
Bi2 O3 2.251634 1_555
Bi2 O0 2.251634 1_555
Bi3 O4 2.294353 1_555
Bi3 O10 2.294353 1_445
Bi3 O11 2.376853 1_455
Bi3 O5 2.376853 1_545
Bi3 O2 2.457439 1_545
Bi3 O1 2.457439 1_455
O0 Zn3 2.078602 1_555
O0 Zn1 2.103761 1_545
O1 Zn2 2.078602 1_555
O1 Zn0 2.103761 1_645
O2 Zn1 2.078602 1_555
O2 Zn3 2.103761 1_465
O3 Zn0 2.078602 1_555
O3 Zn2 2.103761 1_565
O4 Zn2 2.013469 1_555
O5 Zn3 1.994600 1_455
O6 Zn0 2.013469 1_655
O7 Zn1 1.994600 1_555
O8 Zn2 1.994600 1_555
O9 Zn3 2.013469 1_455
O10 Zn1 2.013469 1_555
O11 Zn0 1.994600 1_655
