# generated using pymatgen
data_KCo(PO3)3
_symmetry_space_group_name_H-M   'P 1'
_cell_length_a   7.19795800
_cell_length_b   7.61923670
_cell_length_c   10.03345858
_cell_angle_alpha   90.62311577
_cell_angle_beta   108.73399844
_cell_angle_gamma   117.28825882
_symmetry_Int_Tables_number   1
_chemical_formula_structural   KCo(PO3)3
_chemical_formula_sum   'K2 Co2 P6 O18'
_cell_volume   454.87043459
_cell_formula_units_Z   2
loop_
 _symmetry_equiv_pos_site_id
 _symmetry_equiv_pos_as_xyz
  1  'x, y, z'
loop_
 _atom_site_type_symbol
 _atom_site_label
 _atom_site_symmetry_multiplicity
 _atom_site_fract_x
 _atom_site_fract_y
 _atom_site_fract_z
 _atom_site_occupancy
  K  K0  1  0.14331700  0.44179800  0.04061700  1
  K  K1  1  0.53344000  0.45149000  0.39507400  1
  Co  Co0  1  0.67688800  0.03661600  0.47134500  1
  Co  Co1  1  0.68924400  0.54196500  0.00299900  1
  P  P0  1  0.23171300  0.09856400  0.85262900  1
  P  P1  1  0.88791000  0.33952100  0.27333900  1
  P  P2  1  0.57574200  0.15449600  0.74621000  1
  P  P3  1  0.70034900  0.83790200  0.73698400  1
  P  P4  1  0.66298900  0.89917200  0.20356800  1
  P  P5  1  0.22918700  0.93242200  0.11475400  1
  O  O0  1  0.76832500  0.88313500  0.35724600  1
  O  O1  1  0.83036200  0.28693100  0.40887800  1
  O  O2  1  0.73576900  0.41554200  0.18027500  1
  O  O3  1  0.13376900  0.45356300  0.29990000  1
  O  O4  1  0.43483700  0.89911900  0.21148600  1
  O  O5  1  0.28624800  0.96915400  0.96365200  1
  O  O6  1  0.33266100  0.31642300  0.90829900  1
  O  O7  1  0.60200000  0.80011400  0.57567700  1
  O  O8  1  0.57813400  0.16858400  0.59710900  1
  O  O9  1  0.66697500  0.66786800  0.81286000  1
  O  O10  1  0.97047100  0.00135100  0.77565300  1
  O  O11  1  0.62730200  0.97777900  0.80354700  1
  O  O12  1  0.71909400  0.33306100  0.86481400  1
  O  O13  1  0.59234000  0.73346100  0.08566900  1
  O  O14  1  0.24077900  0.11487500  0.17854500  1
  O  O15  1  0.79553100  0.11336100  0.17003400  1
  O  O16  1  0.31069700  0.05635800  0.73017900  1
  O  O17  1  0.02572700  0.72957300  0.07286100  1
loop_
_geom_bond_atom_site_label_1
_geom_bond_atom_site_label_2
_geom_bond_distance
_geom_bond_site_symmetry_2
K0 O6 2.619348 1_554
K0 O3 2.626026 1_555
K0 O12 2.703812 1_454
K0 O17 2.736940 1_555
K0 O13 2.835973 1_555
K0 O14 3.108947 1_555
K0 O4 3.215369 1_555
K0 O15 3.260313 1_455
K1 O3 2.732318 1_555
K1 O14 2.778574 1_555
K1 O1 2.903400 1_555
K1 O7 2.949871 1_555
K1 O0 3.026482 1_555
K1 O8 3.028358 1_555
K1 O2 3.034772 1_555
Co0 O1 1.946665 1_555
Co0 O7 2.036245 1_545
Co0 O0 2.066850 1_545
Co0 O8 2.076652 1_555
Co0 O4 2.505989 1_545
Co1 O17 2.028261 1_655
Co1 O2 2.038176 1_555
Co1 O9 2.137711 1_554
Co1 O13 2.140527 1_555
Co1 O6 2.190277 1_554
Co1 O12 2.226855 1_554
O0 P4 1.518357 1_555
O1 P1 1.550176 1_555
O2 P1 1.530749 1_555
O3 P1 1.496615 1_455
O4 P5 1.620015 1_555
O4 P4 1.669259 1_555
O5 P0 1.570056 1_565
O5 P5 1.687992 1_556
O6 P0 1.486097 1_555
O7 P3 1.506813 1_555
O8 P2 1.506046 1_555
O9 P3 1.472834 1_555
O10 P0 1.568000 1_655
O10 P3 1.663288 1_545
O11 P3 1.606929 1_555
O11 P2 1.618491 1_565
O12 P2 1.490188 1_555
O13 P4 1.498148 1_555
O14 P5 1.479570 1_545
O15 P4 1.573909 1_545
O15 P1 1.718605 1_555
O16 P0 1.594929 1_555
O16 P2 1.648291 1_555
O17 P5 1.491703 1_555
