# generated using pymatgen
data_Li5NiOF5
_symmetry_space_group_name_H-M   'P 1'
_cell_length_a   5.49617786
_cell_length_b   6.34160007
_cell_length_c   15.25326983
_cell_angle_alpha   90.01040717
_cell_angle_beta   89.94083872
_cell_angle_gamma   89.98789445
_symmetry_Int_Tables_number   1
_chemical_formula_structural   Li5NiOF5
_chemical_formula_sum   'Li20 Ni4 O4 F20'
_cell_volume   531.64573326
_cell_formula_units_Z   4
loop_
 _symmetry_equiv_pos_site_id
 _symmetry_equiv_pos_as_xyz
  1  'x, y, z'
loop_
 _atom_site_type_symbol
 _atom_site_label
 _atom_site_symmetry_multiplicity
 _atom_site_fract_x
 _atom_site_fract_y
 _atom_site_fract_z
 _atom_site_occupancy
  Li  Li0  1  0.33350800  0.50005500  0.33811800  1
  Li  Li1  1  0.83352400  0.74987800  0.33812700  1
  Li  Li2  1  0.33351100  0.00005500  0.33811700  1
  Li  Li3  1  0.83350500  0.24987300  0.33812700  1
  Li  Li4  1  0.33334100  0.49994900  0.66219800  1
  Li  Li5  1  0.83338700  0.75015600  0.66220000  1
  Li  Li6  1  0.33339200  0.00003300  0.66223700  1
  Li  Li7  1  0.83343400  0.25007100  0.66220600  1
  Li  Li8  1  0.16671900  0.25005100  0.50003500  1
  Li  Li9  1  0.66671500  0.50004500  0.50004200  1
  Li  Li10  1  0.16672100  0.75005800  0.50003700  1
  Li  Li11  1  0.66670900  0.00004700  0.50003900  1
  Li  Li12  1  0.16733000  0.25030200  0.17680600  1
  Li  Li13  1  0.66726200  0.49947200  0.17679000  1
  Li  Li14  1  0.16718700  0.75021500  0.17676600  1
  Li  Li15  1  0.66728800  0.99922300  0.17679500  1
  Li  Li16  1  0.16648900  0.24934100  0.82521700  1
  Li  Li17  1  0.66662000  0.50086300  0.82496300  1
  Li  Li18  1  0.16665800  0.74938300  0.82501500  1
  Li  Li19  1  0.66655800  0.00108700  0.82510600  1
  Ni  Ni0  1  0.33215400  0.49559800  0.99154100  1
  Ni  Ni1  1  0.83193200  0.75475200  0.99144400  1
  Ni  Ni2  1  0.33179900  0.99553400  0.99173700  1
  Ni  Ni3  1  0.83195500  0.25443900  0.99181000  1
  O  O0  1  0.16591700  0.24663900  0.95585800  1
  O  O1  1  0.66618300  0.50345000  0.95564600  1
  O  O2  1  0.16605600  0.74666200  0.95563600  1
  O  O3  1  0.66572100  0.00369800  0.95568800  1
  F  F0  1  0.33364100  0.50000500  0.46217800  1
  F  F1  1  0.83363500  0.74997900  0.46218100  1
  F  F2  1  0.33363700  0.00000200  0.46217500  1
  F  F3  1  0.83363100  0.24998000  0.46218500  1
  F  F4  1  0.33342400  0.49936400  0.78635500  1
  F  F5  1  0.83350000  0.75088000  0.78636200  1
  F  F6  1  0.33354800  0.99954500  0.78639800  1
  F  F7  1  0.83361900  0.25070600  0.78634500  1
  F  F8  1  0.33421800  0.50028100  0.14004800  1
  F  F9  1  0.83420700  0.74927000  0.13997300  1
  F  F10  1  0.33420100  0.00028500  0.14007800  1
  F  F11  1  0.83416400  0.24921500  0.14008200  1
  F  F12  1  0.16682300  0.25008200  0.30057300  1
  F  F13  1  0.66685600  0.49988800  0.30057000  1
  F  F14  1  0.16682700  0.75008800  0.30055400  1
  F  F15  1  0.66686000  0.99985800  0.30056200  1
  F  F16  1  0.16670800  0.25000900  0.62428500  1
  F  F17  1  0.66671300  0.50010000  0.62432100  1
  F  F18  1  0.16671600  0.75002300  0.62430800  1
  F  F19  1  0.66669200  0.00010400  0.62429500  1
loop_
_geom_bond_atom_site_label_1
_geom_bond_atom_site_label_2
_geom_bond_distance
_geom_bond_site_symmetry_2
Li16 O0 1.992778 1_555
Li17 O1 1.993407 1_555
Li18 O2 1.992475 1_555
Li19 O3 1.991869 1_555
Ni0 O0 1.903933 1_555
Ni0 O2 1.915464 1_555
Ni0 O1 1.915905 1_555
Ni1 O3 1.903959 1_565
Ni1 O1 1.915494 1_555
Ni1 O2 1.916042 1_655
Ni2 O2 1.904009 1_555
Ni2 O0 1.915001 1_565
Ni2 O3 1.916065 1_565
Ni3 O1 1.904941 1_555
Ni3 O3 1.915225 1_555
Ni3 O0 1.915766 1_655
F0 Li0 1.892322 1_555
F0 Li9 1.920148 1_555
F0 Li8 1.920298 1_555
F0 Li10 1.920327 1_555
F1 Li1 1.892230 1_555
F1 Li10 1.920174 1_655
F1 Li9 1.920207 1_555
F1 Li11 1.920417 1_565
F2 Li2 1.892291 1_555
F2 Li11 1.920137 1_555
F2 Li10 1.920253 1_545
F2 Li8 1.920306 1_555
F3 Li3 1.892291 1_555
F3 Li8 1.920157 1_655
F3 Li11 1.920174 1_555
F3 Li9 1.920370 1_555
F4 Li4 1.893805 1_555
F4 Li18 1.923448 1_555
F4 Li17 1.924266 1_555
F4 Li16 1.925353 1_555
F5 Li5 1.893882 1_555
F5 Li17 1.923957 1_555
F5 Li18 1.924275 1_655
F5 Li19 1.925283 1_565
F6 Li6 1.893865 1_565
F6 Li19 1.923763 1_565
F6 Li16 1.923794 1_565
F6 Li18 1.924815 1_555
F7 Li7 1.893531 1_555
F7 Li19 1.923100 1_555
F7 Li16 1.923795 1_655
F7 Li17 1.924583 1_555
F8 Li14 1.914844 1_555
F8 Li13 1.914901 1_555
F8 Li12 1.915372 1_555
F8 Ni0 2.265447 1_554
F9 Li14 1.914798 1_655
F9 Li13 1.914835 1_555
F9 Li15 1.915113 1_555
F9 Ni1 2.265873 1_554
F10 Li12 1.914903 1_555
F10 Li15 1.915020 1_545
F10 Li14 1.915869 1_545
F10 Ni2 2.262933 1_544
F11 Li15 1.915208 1_545
F11 Li12 1.915469 1_655
F11 Li13 1.916156 1_555
F11 Ni3 2.261927 1_554
F12 Li12 1.887851 1_555
F12 Li0 1.918744 1_555
F12 Li3 1.918878 1_455
F12 Li2 1.918883 1_555
F13 Li13 1.888050 1_555
F13 Li3 1.918777 1_555
F13 Li1 1.918843 1_555
F13 Li0 1.919007 1_555
F14 Li14 1.888171 1_555
F14 Li2 1.918792 1_565
F14 Li1 1.918886 1_455
F14 Li0 1.918987 1_555
F15 Li15 1.887854 1_555
F15 Li1 1.918669 1_555
F15 Li3 1.918950 1_565
F15 Li2 1.919044 1_565
F16 Li8 1.895219 1_555
F16 Li4 1.920120 1_555
F16 Li7 1.920320 1_455
F16 Li6 1.920476 1_555
F17 Li9 1.895661 1_555
F17 Li7 1.920542 1_555
F17 Li4 1.920632 1_555
F17 Li5 1.920678 1_555
F18 Li10 1.895539 1_555
F18 Li5 1.920475 1_455
F18 Li4 1.920549 1_555
F18 Li6 1.920673 1_565
F19 Li11 1.895310 1_555
F19 Li5 1.920141 1_545
F19 Li7 1.920538 1_555
F19 Li6 1.920552 1_555
