# generated using pymatgen
data_Cu10N3
_symmetry_space_group_name_H-M   'P 1'
_cell_length_a   5.42340791
_cell_length_b   5.42340791
_cell_length_c   6.61318100
_cell_angle_alpha   90.00000000
_cell_angle_beta   90.00000000
_cell_angle_gamma   119.99999891
_symmetry_Int_Tables_number   1
_chemical_formula_structural   Cu10N3
_chemical_formula_sum   'Cu10 N3'
_cell_volume   168.45565174
_cell_formula_units_Z   1
loop_
 _symmetry_equiv_pos_site_id
 _symmetry_equiv_pos_as_xyz
  1  'x, y, z'
loop_
 _atom_site_type_symbol
 _atom_site_label
 _atom_site_symmetry_multiplicity
 _atom_site_fract_x
 _atom_site_fract_y
 _atom_site_fract_z
 _atom_site_occupancy
  Cu  Cu0  1  0.83656600  0.67313300  0.17087200  1
  Cu  Cu1  1  0.50000000  0.00000000  0.50000000  1
  Cu  Cu2  1  0.16343400  0.32686700  0.82912800  1
  Cu  Cu3  1  0.83656600  0.16343400  0.17087200  1
  Cu  Cu4  1  0.50000000  0.50000000  0.50000000  1
  Cu  Cu5  1  0.16343400  0.83656600  0.82912800  1
  Cu  Cu6  1  0.00000000  0.50000000  0.50000000  1
  Cu  Cu7  1  0.67313300  0.83656600  0.82912800  1
  Cu  Cu8  1  0.32686700  0.16343400  0.17087200  1
  Cu  Cu9  1  0.00000000  0.00000000  0.50000000  1
  N  N0  1  0.66666700  0.33333300  0.32635300  1
  N  N1  1  0.33333300  0.66666700  0.67364700  1
  N  N2  1  0.00000000  0.00000000  0.00000000  1
loop_
_geom_bond_atom_site_label_1
_geom_bond_atom_site_label_2
_geom_bond_distance
_geom_bond_site_symmetry_2
Cu0 N0 1.898521 1_555
Cu0 N2 1.906267 1_665
Cu0 Cu9 2.663541 1_665
Cu1 N0 1.941607 1_555
Cu1 N1 1.941607 1_545
Cu1 Cu9 2.711704 1_655
Cu1 Cu9 2.711704 1_555
Cu2 N1 1.898521 1_555
Cu2 N2 1.906267 1_556
Cu2 Cu9 2.663541 1_555
Cu3 N0 1.898513 1_555
Cu3 N2 1.906271 1_655
Cu3 Cu9 2.663544 1_655
Cu4 N1 1.941610 1_555
Cu4 N0 1.941610 1_555
Cu4 Cu9 2.711704 1_665
Cu4 Cu9 2.711704 1_555
Cu5 N1 1.898513 1_555
Cu5 N2 1.906271 1_566
Cu5 Cu9 2.663544 1_565
Cu6 N0 1.941607 1_455
Cu6 N1 1.941607 1_555
Cu6 Cu9 2.711704 1_565
Cu6 Cu9 2.711704 1_555
Cu7 N1 1.898521 1_555
Cu7 N2 1.906267 1_666
Cu7 Cu9 2.663541 1_665
Cu8 N0 1.898521 1_555
Cu8 N2 1.906267 1_555
Cu8 Cu9 2.663541 1_555
