# generated using pymatgen
data_Ce3Th3Si4
_symmetry_space_group_name_H-M   'P 1'
_cell_length_a   7.81297312
_cell_length_b   7.85172168
_cell_length_c   4.19259913
_cell_angle_alpha   90.00000000
_cell_angle_beta   90.00000000
_cell_angle_gamma   89.46095200
_symmetry_Int_Tables_number   1
_chemical_formula_structural   Ce3Th3Si4
_chemical_formula_sum   'Ce3 Th3 Si4'
_cell_volume   257.18482891
_cell_formula_units_Z   1
loop_
 _symmetry_equiv_pos_site_id
 _symmetry_equiv_pos_as_xyz
  1  'x, y, z'
loop_
 _atom_site_type_symbol
 _atom_site_label
 _atom_site_symmetry_multiplicity
 _atom_site_fract_x
 _atom_site_fract_y
 _atom_site_fract_z
 _atom_site_occupancy
  Ce  Ce0  1  0.50121653  -0.00031758  0.00000000  1
  Ce  Ce1  1  0.99756517  0.50190404  0.00000000  1
  Ce  Ce2  1  0.68165734  0.67651538  0.50000000  1
  Th  Th0  1  0.31753591  0.32088840  0.50000000  1
  Th  Th1  1  0.18062108  0.82025918  0.50000000  1
  Th  Th2  1  0.82160782  0.18082825  0.50000000  1
  Si  Si0  1  0.11354506  0.11153993  -0.00000000  1
  Si  Si1  1  0.88923094  0.89201247  0.00000000  1
  Si  Si2  1  0.60838308  0.38510885  -0.00000000  1
  Si  Si3  1  0.38863907  0.61126108  -0.00000000  1
loop_
_geom_bond_atom_site_label_1
_geom_bond_atom_site_label_2
_geom_bond_distance
_geom_bond_site_symmetry_2
Ce0 Si1 3.139545 1_545
Ce0 Si0 3.145687 1_555
Ce0 Si2 3.147537 1_555
Ce0 Si3 3.182019 1_545
Ce1 Si1 3.170133 1_555
Ce1 Si3 3.181572 1_655
Ce1 Si2 3.184196 1_555
Ce1 Si0 3.187986 1_655
Ce2 Si3 3.149627 1_556
Ce2 Si3 3.149627 1_555
Ce2 Si1 3.152646 1_556
Ce2 Si1 3.152646 1_555
Ce2 Si2 3.159431 1_556
Ce2 Si2 3.159431 1_555
Si0 Si1 2.469684 1_445
Si0 Th0 3.112199 1_555
Si0 Th0 3.112199 1_554
Si0 Th2 3.141590 1_455
Si0 Th2 3.141590 1_454
Si0 Th1 3.142799 1_544
Si0 Th1 3.142799 1_545
Si1 Th2 3.129463 1_564
Si1 Th2 3.129463 1_565
Si1 Th1 3.141776 1_654
Si1 Th1 3.141776 1_655
Si2 Si3 2.458308 1_555
Si2 Th2 3.113222 1_555
Si2 Th2 3.113222 1_554
Si2 Th0 3.135922 1_554
Si2 Th0 3.135922 1_555
Si3 Th1 3.111038 1_554
Si3 Th1 3.111038 1_555
Si3 Th0 3.150393 1_554
Si3 Th0 3.150393 1_555
