# generated using pymatgen
data_Np2S5
_symmetry_space_group_name_H-M   'P 1'
_cell_length_a   7.41761751
_cell_length_b   7.53120783
_cell_length_c   9.89446120
_cell_angle_alpha   90.00029241
_cell_angle_beta   89.99990486
_cell_angle_gamma   90.00029661
_symmetry_Int_Tables_number   1
_chemical_formula_structural   Np2S5
_chemical_formula_sum   'Np8 S20'
_cell_volume   552.74041139
_cell_formula_units_Z   4
loop_
 _symmetry_equiv_pos_site_id
 _symmetry_equiv_pos_as_xyz
  1  'x, y, z'
loop_
 _atom_site_type_symbol
 _atom_site_label
 _atom_site_symmetry_multiplicity
 _atom_site_fract_x
 _atom_site_fract_y
 _atom_site_fract_z
 _atom_site_occupancy
  Np  Np0  1  0.73028612  0.98149172  0.85290930  1
  Np  Np1  1  0.26970971  0.01850554  0.14711627  1
  Np  Np2  1  0.76973339  0.48144737  0.64688245  1
  Np  Np3  1  0.26970916  0.51850470  0.85290679  1
  Np  Np4  1  0.23026124  0.51856540  0.35310011  1
  Np  Np5  1  0.73028631  0.48149347  0.14711121  1
  Np  Np6  1  0.23026989  0.01854803  0.64688340  1
  Np  Np7  1  0.76973343  0.98144141  0.35309830  1
  S  S0  1  0.59917388  0.85131105  0.60094766  1
  S  S1  1  0.40083866  0.14869834  0.39903520  1
  S  S2  1  0.90078232  0.35136632  0.89896601  1
  S  S3  1  0.40081515  0.64869013  0.60094797  1
  S  S4  1  0.09922652  0.64862980  0.10104511  1
  S  S5  1  0.59916691  0.35131204  0.39903290  1
  S  S6  1  0.09921944  0.14862535  0.89896810  1
  S  S7  1  0.90077711  0.85136756  0.10104547  1
  S  S8  1  0.63561093  0.61322839  0.89339164  1
  S  S9  1  0.36438072  0.38678026  0.10661530  1
  S  S10  1  0.86439540  0.11323699  0.60649525  1
  S  S11  1  0.36438391  0.88677362  0.89339444  1
  S  S12  1  0.13559421  0.88673788  0.39348889  1
  S  S13  1  0.63561875  0.11321951  0.10661840  1
  S  S14  1  0.13561066  0.38675682  0.60649405  1
  S  S15  1  0.86441032  0.61326592  0.39348738  1
  S  S16  1  0.00000309  0.74999871  0.75091659  1
  S  S17  1  0.00000360  0.25000134  0.24909784  1
  S  S18  1  0.49999866  0.25000026  0.74897402  1
  S  S19  1  0.49999652  0.75000107  0.25103495  1
loop_
_geom_bond_atom_site_label_1
_geom_bond_atom_site_label_2
_geom_bond_distance
_geom_bond_site_symmetry_2
Np0 S13 2.789077 1_566
Np0 S10 2.813990 1_565
Np0 S11 2.834742 1_555
Np0 S16 2.839114 1_655
Np0 S18 2.839858 1_565
Np0 S0 2.849947 1_555
Np0 S8 2.888898 1_555
Np0 S7 2.930464 1_556
Np0 S6 3.046479 1_665
Np0 S2 3.092993 1_565
Np1 S11 2.789214 1_544
Np1 S12 2.813710 1_545
Np1 S13 2.834800 1_555
Np1 S17 2.839031 1_555
Np1 S19 2.839774 1_545
Np1 S1 2.849651 1_555
Np1 S9 2.888998 1_555
Np1 S6 2.930550 1_554
Np1 S7 3.046506 1_445
Np1 S4 3.092982 1_545
Np2 S15 2.786549 1_555
Np2 S8 2.814930 1_555
Np2 S14 2.834383 1_655
Np2 S18 2.839337 1_555
Np2 S16 2.840343 1_655
Np2 S2 2.850597 1_555
Np2 S10 2.888364 1_555
Np2 S5 2.928345 1_555
Np2 S3 3.046548 1_555
Np2 S0 3.092950 1_555
Np3 S9 2.789082 1_556
Np3 S14 2.813951 1_555
Np3 S8 2.834749 1_555
Np3 S16 2.839062 1_555
Np3 S18 2.839827 1_555
Np3 S3 2.849925 1_555
Np3 S11 2.888941 1_555
Np3 S4 2.930445 1_556
Np3 S2 3.046452 1_455
Np3 S6 3.093016 1_555
Np4 S14 2.786463 1_555
Np4 S9 2.814724 1_555
Np4 S15 2.834213 1_455
Np4 S19 2.839194 1_555
Np4 S17 2.840243 1_555
Np4 S4 2.850270 1_555
Np4 S12 2.888101 1_555
Np4 S3 2.928264 1_555
Np4 S5 3.046495 1_555
Np4 S1 3.093027 1_555
Np5 S8 2.789216 1_554
Np5 S15 2.813770 1_555
Np5 S9 2.834772 1_555
Np5 S17 2.839099 1_655
Np5 S19 2.839813 1_555
Np5 S5 2.849627 1_555
Np5 S13 2.888971 1_555
Np5 S2 2.930550 1_554
Np5 S4 3.046545 1_655
Np5 S7 3.092990 1_555
Np6 S12 2.786512 1_545
Np6 S11 2.814917 1_545
Np6 S10 2.834363 1_455
Np6 S18 2.839322 1_555
Np6 S16 2.840321 1_545
Np6 S6 2.850589 1_555
Np6 S14 2.888354 1_555
Np6 S1 2.928384 1_555
Np6 S0 3.046434 1_545
Np6 S3 3.092863 1_545
Np7 S10 2.786469 1_565
Np7 S13 2.814662 1_565
Np7 S12 2.834296 1_655
Np7 S19 2.839213 1_555
Np7 S17 2.840276 1_665
Np7 S7 2.850287 1_555
Np7 S15 2.888145 1_555
Np7 S0 2.928314 1_555
Np7 S1 3.046436 1_565
Np7 S5 3.093013 1_565
S0 S3 2.119779 1_555
S1 S5 2.119582 1_555
S2 S6 2.120844 1_655
S4 S7 2.120890 1_455
