# generated using pymatgen
data_Li4Ti4Fe5O18
_symmetry_space_group_name_H-M   'P 1'
_cell_length_a   9.26965212
_cell_length_b   25.11248187
_cell_length_c   2.94053286
_cell_angle_alpha   90.13913647
_cell_angle_beta   89.66538096
_cell_angle_gamma   89.70438058
_symmetry_Int_Tables_number   1
_chemical_formula_structural   Li4Ti4Fe5O18
_chemical_formula_sum   'Li8 Ti8 Fe10 O36'
_cell_volume   684.48606215
_cell_formula_units_Z   2
loop_
 _symmetry_equiv_pos_site_id
 _symmetry_equiv_pos_as_xyz
  1  'x, y, z'
loop_
 _atom_site_type_symbol
 _atom_site_label
 _atom_site_symmetry_multiplicity
 _atom_site_fract_x
 _atom_site_fract_y
 _atom_site_fract_z
 _atom_site_occupancy
  Li  Li0  1  0.20187500  0.98305200  0.99935300  1
  Li  Li1  1  0.19482400  0.18062700  0.99945800  1
  Li  Li2  1  0.31063800  0.68219200  0.99968600  1
  Li  Li3  1  0.30002900  0.49365200  0.99661000  1
  Li  Li4  1  0.69388600  0.51002100  0.00217900  1
  Li  Li5  1  0.69149900  0.31949600  0.00093300  1
  Li  Li6  1  0.80197700  0.82039500  0.00550100  1
  Li  Li7  1  0.79807100  0.01284000  0.99954100  1
  Ti  Ti0  1  0.99577300  0.09903100  0.00093500  1
  Ti  Ti1  1  0.16243000  0.80746700  0.50271600  1
  Ti  Ti2  1  0.33228300  0.31107600  0.50130300  1
  Ti  Ti3  1  0.50813600  0.59788800  0.00049200  1
  Ti  Ti4  1  0.49097400  0.40132400  0.00055000  1
  Ti  Ti5  1  0.66934200  0.68865000  0.49960600  1
  Ti  Ti6  1  0.83892600  0.19239500  0.50120200  1
  Ti  Ti7  1  0.00431900  0.90006600  0.00366000  1
  Fe  Fe0  1  0.00052600  0.50314000  0.00016000  1
  Fe  Fe1  1  0.98829000  0.31237400  0.00028200  1
  Fe  Fe2  1  0.15850100  0.58612300  0.50008100  1
  Fe  Fe3  1  0.34705800  0.08451100  0.49560900  1
  Fe  Fe4  1  0.50686200  0.80555400  0.99755600  1
  Fe  Fe5  1  0.50014100  0.99900200  0.98583700  1
  Fe  Fe6  1  0.49400800  0.19425900  0.00147700  1
  Fe  Fe7  1  0.65529400  0.91542300  0.50685900  1
  Fe  Fe8  1  0.84007100  0.41493500  0.50088600  1
  Fe  Fe9  1  0.01186100  0.68846400  0.99993300  1
  O  O0  1  0.97420800  0.41547400  0.00399600  1
  O  O1  1  0.01257800  0.58217600  0.00179900  1
  O  O2  1  0.06784900  0.94380100  0.51055400  1
  O  O3  1  0.03941300  0.15606100  0.49724500  1
  O  O4  1  0.14948400  0.66570500  0.49901300  1
  O  O5  1  0.10622700  0.75966300  0.00360600  1
  O  O6  1  0.14718600  0.50212600  0.49905200  1
  O  O7  1  0.12827600  0.29906000  0.49948200  1
  O  O8  1  0.18871600  0.85784100  0.00566900  1
  O  O9  1  0.19434100  0.08062600  0.99755800  1
  O  O10  1  0.31007100  0.57926700  0.99944400  1
  O  O11  1  0.30891500  0.36203800  0.00211000  1
  O  O12  1  0.36634300  0.79106100  0.50019100  1
  O  O13  1  0.36049400  0.00124500  0.49002200  1
  O  O14  1  0.38349700  0.26194400  0.99987400  1
  O  O15  1  0.36651300  0.16476800  0.50128300  1
  O  O16  1  0.46621400  0.65430400  0.50176600  1
  O  O17  1  0.44009800  0.44529800  0.50175800  1
  O  O18  1  0.48961000  0.07469400  0.99310300  1
  O  O19  1  0.51276300  0.92417100  0.97135300  1
  O  O20  1  0.56951500  0.55402500  0.49824100  1
  O  O21  1  0.53531100  0.34502800  0.49750900  1
  O  O22  1  0.63151700  0.83671300  0.49686000  1
  O  O23  1  0.61734700  0.73914200  0.00057200  1
  O  O24  1  0.64080900  0.99656200  0.48863800  1
  O  O25  1  0.63266500  0.20885000  0.50084800  1
  O  O26  1  0.69321100  0.63936600  0.99810800  1
  O  O27  1  0.70043200  0.41771700  0.99623700  1
  O  O28  1  0.80391200  0.91879700  0.02669700  1
  O  O29  1  0.81115200  0.14343400  0.00056500  1
  O  O30  1  0.87257600  0.70198900  0.50094000  1
  O  O31  1  0.84698900  0.49181800  0.50167100  1
  O  O32  1  0.89196400  0.24236100  0.00014200  1
  O  O33  1  0.85191200  0.33760900  0.49987700  1
  O  O34  1  0.95991000  0.84455000  0.51244600  1
  O  O35  1  0.93038500  0.05676300  0.49937400  1
loop_
_geom_bond_atom_site_label_1
_geom_bond_atom_site_label_2
_geom_bond_distance
_geom_bond_site_symmetry_2
Li0 O13 2.116814 1_566
Li0 O13 2.144363 1_565
Li0 O2 2.146534 1_555
Li0 O2 2.184655 1_556
Li0 O9 2.450980 1_565
Li1 O3 2.141832 1_556
Li1 O3 2.160181 1_555
Li1 O15 2.191073 1_555
Li1 O15 2.211947 1_556
Li1 O9 2.511293 1_555
Li2 O4 2.131330 1_556
Li2 O4 2.144668 1_555
Li2 O16 2.161920 1_555
Li2 O16 2.183896 1_556
Li3 O6 2.050945 1_556
Li3 O6 2.053252 1_555
Li3 O10 2.152497 1_555
Li3 O17 2.287094 1_555
Li3 O17 2.319862 1_556
Li4 O31 2.086826 1_554
Li4 O31 2.097935 1_555
Li4 O20 2.153464 1_555
Li4 O20 2.181946 1_554
Li4 O27 2.318484 1_554
Li5 O33 2.138564 1_554
Li5 O33 2.144707 1_555
Li5 O21 2.144903 1_555
Li5 O21 2.172258 1_554
Li5 O27 2.468459 1_554
Li6 O34 2.145203 1_554
Li6 O22 2.171646 1_555
Li6 O34 2.182571 1_555
Li6 O22 2.219369 1_554
Li6 O28 2.471913 1_555
Li7 O24 2.084497 1_546
Li7 O24 2.139605 1_545
Li7 O35 2.210171 1_555
Li7 O35 2.215477 1_556
Li7 O28 2.363548 1_546
Fe0 O1 1.988503 1_555
Fe0 O6 1.999047 1_554
Fe0 O6 2.006013 1_555
Fe0 O31 2.064680 1_455
Fe0 O31 2.069201 1_454
Fe0 O0 2.216286 1_455
Fe1 O32 1.976045 1_555
Fe1 O7 1.983690 1_654
Fe1 O7 1.992621 1_655
Fe1 O33 2.030625 1_555
Fe1 O33 2.045217 1_554
Fe1 O0 2.591706 1_555
Fe2 O1 1.998712 1_556
Fe2 O4 1.999829 1_555
Fe2 O1 2.002544 1_555
Fe2 O10 2.035431 1_554
Fe2 O10 2.045160 1_555
Fe2 O6 2.112515 1_555
Fe3 O18 1.990569 1_554
Fe3 O18 1.991967 1_555
Fe3 O15 2.024468 1_555
Fe3 O9 2.042015 1_555
Fe3 O9 2.045323 1_554
Fe3 O13 2.094099 1_555
Fe4 O23 1.952687 1_556
Fe4 O12 1.998161 1_555
Fe4 O12 1.999669 1_556
Fe4 O22 2.027371 1_555
Fe4 O22 2.031431 1_556
Fe5 O19 1.882591 1_555
Fe5 O18 1.902878 1_565
Fe5 O24 1.953977 1_555
Fe5 O13 1.956064 1_565
Fe5 O13 1.962981 1_566
Fe5 O24 1.977910 1_556
Fe6 O14 1.980064 1_554
Fe6 O25 1.984633 1_554
Fe6 O25 1.991683 1_555
Fe6 O15 2.024659 1_555
Fe6 O15 2.032884 1_554
Fe7 O19 1.906281 1_555
Fe7 O28 1.969183 1_555
Fe7 O22 1.990149 1_555
Fe7 O24 2.042183 1_555
Fe7 O28 2.065637 1_556
Fe7 O19 2.072787 1_554
Fe8 O0 1.913154 1_555
Fe8 O31 1.932115 1_555
Fe8 O0 1.938158 1_556
Fe8 O27 1.943859 1_555
Fe8 O33 1.944376 1_555
Fe8 O27 1.975966 1_554
Fe9 O30 1.980804 1_456
Fe9 O30 1.988811 1_455
Fe9 O5 1.994575 1_556
Fe9 O4 2.022422 1_555
Fe9 O4 2.031320 1_556
O2 Ti7 1.913106 1_556
O2 Ti7 1.945183 1_555
O3 Ti6 2.066081 1_455
O3 Ti0 2.085031 1_455
O3 Ti0 2.101839 1_456
O5 Ti1 1.968093 1_555
O5 Ti1 1.971809 1_554
O7 Ti2 1.916570 1_555
O8 Ti1 1.950349 1_555
O8 Ti1 1.960927 1_554
O8 Ti7 2.006880 1_555
O9 Ti0 1.895448 1_456
O10 Ti3 1.896963 1_556
O11 Ti2 1.959003 1_554
O11 Ti4 1.959215 1_555
O11 Ti2 1.962002 1_555
O12 Ti1 1.932472 1_555
O14 Ti2 1.974513 1_556
O14 Ti2 1.976845 1_555
O16 Ti5 2.075096 1_555
O16 Ti3 2.075664 1_555
O16 Ti3 2.078444 1_556
O17 Ti4 1.895422 1_555
O17 Ti4 1.898342 1_556
O20 Ti3 1.921039 1_555
O20 Ti3 1.921990 1_556
O21 Ti2 2.070112 1_555
O21 Ti4 2.077035 1_555
O21 Ti4 2.081431 1_556
O23 Ti5 1.996608 1_554
O23 Ti5 2.001100 1_555
O25 Ti6 1.954034 1_555
O26 Ti5 1.933711 1_555
O26 Ti5 1.933875 1_556
O26 Ti3 2.011607 1_556
O27 Ti4 1.986816 1_556
O28 Ti7 1.914750 1_655
O29 Ti6 1.934381 1_554
O29 Ti6 1.934975 1_555
O29 Ti0 2.037772 1_555
O30 Ti5 1.915183 1_555
O32 Ti6 1.993625 1_554
O32 Ti6 1.998476 1_555
O34 Ti7 2.050016 1_656
O34 Ti7 2.088128 1_655
O34 Ti1 2.091282 1_655
O35 Ti0 1.909476 1_555
O35 Ti0 1.918007 1_556
