# generated using pymatgen
data_Sr10Mg2Fe3(MoO6)5
_symmetry_space_group_name_H-M   'P 1'
_cell_length_a   5.64893930
_cell_length_b   56.49603035
_cell_length_c   5.66785878
_cell_angle_alpha   119.98688290
_cell_angle_beta   119.89673598
_cell_angle_gamma   89.89852915
_symmetry_Int_Tables_number   1
_chemical_formula_structural   Sr10Mg2Fe3(MoO6)5
_chemical_formula_sum   'Sr20 Mg4 Fe6 Mo10 O60'
_cell_volume   1282.42199347
_cell_formula_units_Z   2
loop_
 _symmetry_equiv_pos_site_id
 _symmetry_equiv_pos_as_xyz
  1  'x, y, z'
loop_
 _atom_site_type_symbol
 _atom_site_label
 _atom_site_symmetry_multiplicity
 _atom_site_fract_x
 _atom_site_fract_y
 _atom_site_fract_z
 _atom_site_occupancy
  Sr  Sr0  1  0.25108095  0.07495842  0.49995712  1
  Sr  Sr1  1  0.24969107  0.17504792  0.50014813  1
  Sr  Sr2  1  0.24710025  0.27482294  0.49914879  1
  Sr  Sr3  1  0.25465299  0.37474148  0.50650499  1
  Sr  Sr4  1  0.25224948  0.47521395  0.50384024  1
  Sr  Sr5  1  0.24565861  0.57531301  0.49152521  1
  Sr  Sr6  1  0.25191721  0.67461475  0.50544548  1
  Sr  Sr7  1  0.25099225  0.77500747  0.50230295  1
  Sr  Sr8  1  0.24738284  0.87550606  0.49599703  1
  Sr  Sr9  1  0.25145681  0.97489195  0.50017335  1
  Sr  Sr10  1  0.75289975  0.02517706  0.50085121  1
  Sr  Sr11  1  0.75030893  0.12495208  0.49985187  1
  Sr  Sr12  1  0.74891905  0.22504158  0.50004288  1
  Sr  Sr13  1  0.74854319  0.32510805  0.49982665  1
  Sr  Sr14  1  0.74900775  0.52499253  0.49769705  1
  Sr  Sr15  1  0.74808279  0.62538525  0.49455452  1
  Sr  Sr16  1  0.75261716  0.42449394  0.50400297  1
  Sr  Sr17  1  0.75434139  0.72468699  0.50847479  1
  Sr  Sr18  1  0.74775052  0.82478605  0.49615976  1
  Sr  Sr19  1  0.74534701  0.92525852  0.49349501  1
  Mg  Mg0  1  0.00077157  0.00005492  -0.00007328  1
  Mg  Mg1  1  0.00031987  0.09995679  0.99980320  1
  Mg  Mg2  1  0.99968013  0.20004321  0.00019680  1
  Mg  Mg3  1  0.99922843  0.29994508  0.00007328  1
  Fe  Fe0  1  0.00116813  0.40002074  0.00087969  1
  Fe  Fe1  1  0.00040211  0.50006358  0.00034363  1
  Fe  Fe2  1  0.99770356  0.60011135  0.99771772  1
  Fe  Fe3  1  0.99959789  0.79993642  0.99965637  1
  Fe  Fe4  1  0.99883187  0.89997926  0.99912031  1
  Fe  Fe5  1  0.00229644  0.69988865  0.00228228  1
  Mo  Mo0  1  0.50076894  0.04986714  0.99908446  1
  Mo  Mo1  1  0.50000000  0.15000000  -0.00000000  1
  Mo  Mo2  1  0.49923106  0.25013286  0.00091554  1
  Mo  Mo3  1  0.49971089  0.34925196  0.99708759  1
  Mo  Mo4  1  0.50136973  0.44992995  0.00257358  1
  Mo  Mo5  1  0.49868501  0.55025567  0.99699883  1
  Mo  Mo6  1  0.50000000  0.65000000  -0.00000000  1
  Mo  Mo7  1  0.50131499  0.74974433  0.00300117  1
  Mo  Mo8  1  0.50028911  0.95074804  0.00291241  1
  Mo  Mo9  1  0.49863027  0.85007005  0.99742642  1
  O  O0  1  0.26086328  0.02570365  0.51582400  1
  O  O1  1  0.25857655  0.12570508  0.51576474  1
  O  O2  1  0.25744744  0.22585269  0.51596209  1
  O  O3  1  0.25423440  0.32628556  0.51314404  1
  O  O4  1  0.26218877  0.42515499  0.52095369  1
  O  O5  1  0.25618050  0.52525776  0.51269158  1
  O  O6  1  0.24554748  0.62607344  0.49502764  1
  O  O7  1  0.26188446  0.72507853  0.52248190  1
  O  O8  1  0.25634590  0.82506712  0.51318424  1
  O  O9  1  0.24658228  0.92562285  0.49783566  1
  O  O10  1  0.22150529  0.07024481  0.99848165  1
  O  O11  1  0.22087084  0.17035982  0.99935706  1
  O  O12  1  0.21968968  0.27039980  0.99987153  1
  O  O13  1  0.23142100  0.37156618  0.01380395  1
  O  O14  1  0.20726148  0.47083594  0.99586816  1
  O  O15  1  0.20441147  0.57121692  0.98596458  1
  O  O16  1  0.22433543  0.67136872  0.01511721  1
  O  O17  1  0.20722654  0.77071760  0.99706527  1
  O  O18  1  0.20435420  0.87105309  0.98743212  1
  O  O19  1  0.22562068  0.97073378  0.99970863  1
  O  O20  1  0.29755599  0.02211645  0.99963796  1
  O  O21  1  0.29659847  0.12214916  0.00004387  1
  O  O22  1  0.29533650  0.22218127  0.99988671  1
  O  O23  1  0.28993212  0.32194664  0.99829266  1
  O  O24  1  0.29609173  0.42109612  0.01126922  1
  O  O25  1  0.29075338  0.52142148  0.00447075  1
  O  O26  1  0.27581938  0.62156862  0.98483212  1
  O  O27  1  0.29689051  0.72098189  0.01319042  1
  O  O28  1  0.29025549  0.82121507  0.00390775  1
  O  O29  1  0.27812004  0.92175613  0.99231337  1
  O  O30  1  0.74255256  0.07414731  0.48403791  1
  O  O31  1  0.74142345  0.17429492  0.48423526  1
  O  O32  1  0.73913672  0.27429635  0.48417600  1
  O  O33  1  0.75341772  0.37437715  0.50216434  1
  O  O34  1  0.74365410  0.47493288  0.48681576  1
  O  O35  1  0.73811554  0.57492147  0.47751810  1
  O  O36  1  0.75445252  0.67392656  0.50497236  1
  O  O37  1  0.74381950  0.77474224  0.48730842  1
  O  O38  1  0.73781123  0.87484501  0.47904631  1
  O  O39  1  0.74576560  0.97371444  0.48685596  1
  O  O40  1  0.70466350  0.07781873  0.00011329  1
  O  O41  1  0.70340153  0.17785084  -0.00004387  1
  O  O42  1  0.70244401  0.27788355  0.00036204  1
  O  O43  1  0.72187996  0.37824387  0.00768663  1
  O  O44  1  0.70974451  0.47878493  0.99609225  1
  O  O45  1  0.70310949  0.57901811  0.98680958  1
  O  O46  1  0.72418062  0.67843138  0.01516788  1
  O  O47  1  0.70924662  0.77857852  0.99552925  1
  O  O48  1  0.70390827  0.87890388  0.98873078  1
  O  O49  1  0.71006788  0.97805336  0.00170734  1
  O  O50  1  0.78031032  0.02960020  0.00012847  1
  O  O51  1  0.77912916  0.12964018  0.00064294  1
  O  O52  1  0.77849471  0.22975519  0.00151835  1
  O  O53  1  0.77437932  0.32926622  0.00029137  1
  O  O54  1  0.79277346  0.52928240  0.00293473  1
  O  O55  1  0.77566457  0.62863128  0.98488279  1
  O  O56  1  0.79564580  0.42894691  0.01256788  1
  O  O57  1  0.79558853  0.72878308  0.01403542  1
  O  O58  1  0.79273852  0.82916406  0.00413184  1
  O  O59  1  0.76857900  0.92843382  0.98619605  1
loop_
_geom_bond_atom_site_label_1
_geom_bond_atom_site_label_2
_geom_bond_distance
_geom_bond_site_symmetry_2
Mg0 O39 2.062040 1_444
Mg0 O49 2.068371 1_445
Mg0 O0 2.073124 1_555
Mg0 O50 2.080697 1_455
Mg0 O19 2.085535 1_544
Mg0 O20 2.091978 1_554
Mg1 O30 2.072522 1_455
Mg1 O1 2.073318 1_556
Mg1 O51 2.089041 1_456
Mg1 O40 2.089543 1_456
Mg1 O10 2.090042 1_555
Mg1 O21 2.092021 1_556
Mg2 O2 2.072522 1_655
Mg2 O31 2.073318 1_554
Mg2 O11 2.089041 1_654
Mg2 O22 2.089543 1_654
Mg2 O52 2.090042 1_555
Mg2 O41 2.092021 1_555
Mg3 O3 2.062040 1_655
Mg3 O23 2.068371 1_654
Mg3 O32 2.073124 1_554
Mg3 O12 2.080697 1_654
Mg3 O53 2.085535 1_555
Mg3 O42 2.091978 1_555
Fe0 O56 1.996161 1_455
Fe0 O33 2.004390 1_454
Fe0 O24 2.008953 1_555
Fe0 O43 2.029587 1_455
Fe0 O13 2.072861 1_555
Fe0 O4 2.090464 1_555
Fe1 O14 2.018310 1_554
Fe1 O44 2.019956 1_454
Fe1 O54 2.021612 1_455
Fe1 O25 2.021694 1_555
Fe1 O5 2.058946 1_555
Fe1 O34 2.063785 1_454
Fe2 O15 1.998700 1_655
Fe2 O6 1.999276 1_656
Fe2 O45 2.006021 1_555
Fe2 O26 2.037827 1_655
Fe2 O55 2.047862 1_555
Fe2 O35 2.090888 1_555
Fe3 O58 2.018310 1_556
Fe3 O28 2.019956 1_656
Fe3 O17 2.021612 1_655
Fe3 O47 2.021694 1_555
Fe3 O37 2.058946 1_555
Fe3 O8 2.063785 1_656
Fe4 O18 1.996161 1_655
Fe4 O9 2.004390 1_656
Fe4 O48 2.008953 1_555
Fe4 O29 2.029587 1_655
Fe4 O59 2.072861 1_555
Fe4 O38 2.090464 1_555
Fe5 O57 1.998700 1_455
Fe5 O36 1.999276 1_454
Fe5 O27 2.006021 1_555
Fe5 O46 2.037827 1_455
Fe5 O16 2.047862 1_555
Fe5 O7 2.090888 1_555
Mo0 O0 1.941921 1_555
Mo0 O20 1.946962 1_555
Mo0 O50 1.948259 1_556
Mo0 O30 1.948709 1_556
Mo0 O10 1.950942 1_555
Mo0 O40 1.952157 1_556
Mo1 O1 1.945826 1_554
Mo1 O31 1.945826 1_555
Mo1 O11 1.949710 1_554
Mo1 O51 1.949710 1_555
Mo1 O21 1.950146 1_555
Mo1 O41 1.950146 1_555
Mo2 O32 1.941921 1_555
Mo2 O42 1.946962 1_555
Mo2 O12 1.948259 1_554
Mo2 O2 1.948709 1_554
Mo2 O52 1.950942 1_555
Mo2 O22 1.952157 1_554
Mo3 O53 1.915424 1_556
Mo3 O3 1.946068 1_555
Mo3 O23 1.951706 1_555
Mo3 O13 1.977912 1_556
Mo3 O43 2.023674 1_556
Mo3 O33 2.029609 1_556
Mo4 O4 1.935694 1_554
Mo4 O34 1.946333 1_555
Mo4 O14 2.032653 1_554
Mo4 O56 2.034255 1_555
Mo4 O24 2.035843 1_555
Mo4 O44 2.038184 1_554
Mo5 O35 1.931204 1_556
Mo5 O5 1.946586 1_555
Mo5 O15 2.032998 1_555
Mo5 O54 2.035233 1_556
Mo5 O45 2.035755 1_555
Mo5 O25 2.039727 1_556
Mo6 O16 1.978042 1_555
Mo6 O55 1.978042 1_554
Mo6 O26 1.987920 1_554
Mo6 O46 1.987920 1_555
Mo6 O6 2.030625 1_554
Mo6 O36 2.030625 1_555
Mo7 O7 1.931204 1_554
Mo7 O37 1.946586 1_555
Mo7 O57 2.032998 1_555
Mo7 O17 2.035233 1_554
Mo7 O27 2.035755 1_555
Mo7 O47 2.039727 1_554
Mo8 O19 1.915424 1_554
Mo8 O39 1.946068 1_555
Mo8 O49 1.951706 1_555
Mo8 O59 1.977912 1_554
Mo8 O29 2.023674 1_554
Mo8 O9 2.029609 1_554
Mo9 O38 1.935694 1_556
Mo9 O8 1.946333 1_555
Mo9 O58 2.032653 1_556
Mo9 O18 2.034255 1_555
Mo9 O48 2.035843 1_555
Mo9 O28 2.038184 1_556
O0 Sr10 2.822400 1_555
O0 Sr9 2.827132 1_545
O0 Sr10 2.827877 1_455
O0 Sr0 2.828287 1_555
O1 Sr0 2.822996 1_555
O1 Sr11 2.823371 1_555
O1 Sr11 2.827017 1_455
O1 Sr1 2.832526 1_555
O2 Sr2 2.814983 1_555
O2 Sr12 2.821910 1_555
O2 Sr1 2.826262 1_555
O2 Sr12 2.828478 1_455
O3 Sr3 2.756588 1_555
O3 Sr13 2.819770 1_455
O3 Sr13 2.830478 1_555
O3 Sr2 2.868411 1_555
O4 Sr3 2.807909 1_555
O4 Sr16 2.819064 1_555
O4 Sr16 2.831557 1_455
O4 Sr4 2.877345 1_555
O5 Sr4 2.802469 1_555
O5 Sr14 2.823430 1_455
O5 Sr14 2.827061 1_555
O5 Sr5 2.889030 1_555
O6 Sr6 2.713274 1_555
O6 Sr15 2.809132 1_455
O6 Sr15 2.840308 1_555
O6 Sr5 2.857894 1_555
O7 Sr6 2.803690 1_555
O7 Sr17 2.822007 1_555
O7 Sr17 2.828162 1_455
O7 Sr7 2.878987 1_555
O8 Sr7 2.797742 1_555
O8 Sr18 2.824995 1_555
O8 Sr18 2.825969 1_455
O8 Sr8 2.899022 1_555
O9 Sr9 2.777030 1_555
O9 Sr19 2.819288 1_455
O9 Sr8 2.826210 1_555
O9 Sr19 2.829784 1_555
O10 Sr10 2.616825 1_455
O10 Sr0 2.635835 1_556
O10 Sr0 3.050502 1_555
O10 Sr11 3.056511 1_556
O11 Sr11 2.631404 1_455
O11 Sr1 2.634626 1_556
O11 Sr1 3.051374 1_555
O11 Sr12 3.053765 1_556
O12 Sr12 2.630896 1_455
O12 Sr2 2.636445 1_556
O12 Sr2 3.047611 1_555
O12 Sr13 3.057202 1_556
O13 Sr3 2.642305 1_555
O13 Sr13 2.697559 1_454
O13 Sr16 2.983464 1_555
O13 Sr3 3.034567 1_554
O14 Sr16 2.610148 1_455
O14 Sr4 2.640842 1_556
O14 Sr4 3.049439 1_555
O14 Sr14 3.077935 1_556
O15 Sr14 2.607489 1_455
O15 Sr5 2.643938 1_556
O15 Sr5 3.043146 1_555
O15 Sr15 3.081677 1_556
O16 Sr6 2.615408 1_555
O16 Sr15 2.672453 1_454
O16 Sr17 3.020450 1_555
O16 Sr6 3.062859 1_554
O17 Sr17 2.595949 1_455
O17 Sr7 2.630752 1_556
O17 Sr7 3.058488 1_555
O17 Sr18 3.072654 1_556
O18 Sr18 2.612947 1_455
O18 Sr8 2.647249 1_556
O18 Sr8 3.042422 1_555
O18 Sr19 3.075592 1_556
O19 Sr9 2.654036 1_556
O19 Sr19 2.662650 1_455
O19 Sr9 3.028141 1_555
O19 Sr10 3.043992 1_566
O20 Sr9 2.630158 1_545
O20 Sr10 2.634876 1_556
O20 Sr0 3.049549 1_556
O20 Sr10 3.050285 1_455
O21 Sr0 2.632521 1_554
O21 Sr11 2.633272 1_555
O21 Sr11 3.051416 1_454
O21 Sr1 3.051950 1_555
O22 Sr1 2.629636 1_555
O22 Sr12 2.632522 1_556
O22 Sr2 3.046307 1_556
O22 Sr12 3.052592 1_455
O23 Sr2 2.634599 1_555
O23 Sr13 2.641363 1_556
O23 Sr3 3.035674 1_556
O23 Sr13 3.042369 1_455
O24 Sr16 2.602520 1_555
O24 Sr3 2.635013 1_554
O24 Sr4 3.059036 1_555
O24 Sr16 3.078764 1_454
O25 Sr14 2.604007 1_555
O25 Sr4 2.626013 1_554
O25 Sr5 3.041736 1_555
O25 Sr14 3.077450 1_454
O26 Sr5 2.626531 1_555
O26 Sr15 2.684434 1_556
O26 Sr15 2.999011 1_455
O26 Sr6 3.043474 1_556
O27 Sr17 2.604785 1_555
O27 Sr6 2.635602 1_554
O27 Sr7 3.053550 1_555
O27 Sr17 3.078408 1_454
O28 Sr18 2.599061 1_555
O28 Sr7 2.627067 1_554
O28 Sr8 3.060215 1_555
O28 Sr18 3.082315 1_454
O29 Sr8 2.634037 1_555
O29 Sr19 2.653385 1_556
O29 Sr9 3.018782 1_556
O29 Sr19 3.027363 1_455
O30 Sr10 2.814983 1_555
O30 Sr0 2.821910 1_555
O30 Sr11 2.826262 1_555
O30 Sr0 2.828478 1_655
O31 Sr12 2.822996 1_555
O31 Sr1 2.823371 1_555
O31 Sr1 2.827017 1_655
O31 Sr11 2.832526 1_555
O32 Sr2 2.822400 1_555
O32 Sr13 2.827132 1_555
O32 Sr2 2.827877 1_655
O32 Sr12 2.828287 1_555
O33 Sr13 2.777030 1_555
O33 Sr3 2.819288 1_655
O33 Sr16 2.826210 1_555
O33 Sr3 2.829784 1_555
O34 Sr14 2.797742 1_555
O34 Sr4 2.824995 1_555
O34 Sr4 2.825969 1_655
O34 Sr16 2.899022 1_555
O35 Sr15 2.803690 1_555
O35 Sr5 2.822007 1_555
O35 Sr5 2.828162 1_655
O35 Sr14 2.878987 1_555
O36 Sr15 2.713274 1_555
O36 Sr6 2.809132 1_655
O36 Sr6 2.840308 1_555
O36 Sr17 2.857894 1_555
O37 Sr18 2.802469 1_555
O37 Sr7 2.823430 1_655
O37 Sr7 2.827061 1_555
O37 Sr17 2.889030 1_555
O38 Sr19 2.807909 1_555
O38 Sr8 2.819064 1_555
O38 Sr8 2.831557 1_655
O38 Sr18 2.877345 1_555
O39 Sr19 2.756588 1_555
O39 Sr9 2.819770 1_655
O39 Sr9 2.830478 1_555
O39 Sr10 2.868411 1_565
O40 Sr11 2.629636 1_555
O40 Sr0 2.632522 1_554
O40 Sr10 3.046307 1_554
O40 Sr0 3.052592 1_655
O41 Sr12 2.632521 1_555
O41 Sr1 2.633272 1_554
O41 Sr1 3.051416 1_655
O41 Sr11 3.051950 1_554
O42 Sr13 2.630158 1_555
O42 Sr2 2.634876 1_554
O42 Sr12 3.049549 1_554
O42 Sr2 3.050285 1_655
O43 Sr16 2.634037 1_555
O43 Sr3 2.653385 1_554
O43 Sr13 3.018782 1_554
O43 Sr3 3.027363 1_655
O44 Sr4 2.599061 1_555
O44 Sr14 2.627067 1_556
O44 Sr16 3.060215 1_555
O44 Sr4 3.082315 1_656
O45 Sr5 2.604785 1_555
O45 Sr15 2.635602 1_556
O45 Sr14 3.053550 1_555
O45 Sr5 3.078408 1_656
O46 Sr17 2.626531 1_555
O46 Sr6 2.684434 1_554
O46 Sr6 2.999011 1_655
O46 Sr15 3.043474 1_554
O47 Sr7 2.604007 1_555
O47 Sr18 2.626013 1_556
O47 Sr17 3.041736 1_555
O47 Sr7 3.077450 1_656
O48 Sr8 2.602520 1_555
O48 Sr19 2.635013 1_556
O48 Sr18 3.059036 1_555
O48 Sr8 3.078764 1_656
O49 Sr10 2.634599 1_565
O49 Sr9 2.641363 1_554
O49 Sr19 3.035674 1_554
O49 Sr9 3.042369 1_655
O50 Sr0 2.630896 1_655
O50 Sr10 2.636445 1_554
O50 Sr10 3.047611 1_555
O50 Sr9 3.057202 1_544
O51 Sr1 2.631404 1_655
O51 Sr11 2.634626 1_554
O51 Sr11 3.051374 1_555
O51 Sr0 3.053765 1_554
O52 Sr2 2.616825 1_655
O52 Sr12 2.635835 1_554
O52 Sr12 3.050502 1_555
O52 Sr1 3.056511 1_554
O53 Sr13 2.654036 1_554
O53 Sr3 2.662650 1_655
O53 Sr13 3.028141 1_555
O53 Sr2 3.043992 1_554
O54 Sr5 2.595949 1_655
O54 Sr14 2.630752 1_554
O54 Sr14 3.058488 1_555
O54 Sr4 3.072654 1_554
O55 Sr15 2.615408 1_555
O55 Sr6 2.672453 1_656
O55 Sr5 3.020450 1_555
O55 Sr15 3.062859 1_556
O56 Sr4 2.612947 1_655
O56 Sr16 2.647249 1_554
O56 Sr16 3.042422 1_555
O56 Sr3 3.075592 1_554
O57 Sr7 2.607489 1_655
O57 Sr17 2.643938 1_554
O57 Sr17 3.043146 1_555
O57 Sr6 3.081677 1_554
O58 Sr8 2.610148 1_655
O58 Sr18 2.640842 1_554
O58 Sr18 3.049439 1_555
O58 Sr7 3.077935 1_554
O59 Sr19 2.642305 1_555
O59 Sr9 2.697559 1_656
O59 Sr8 2.983464 1_555
O59 Sr19 3.034567 1_556
