# generated using pymatgen
data_Ba5Li2U3O15
_symmetry_space_group_name_H-M   'P 1'
_cell_length_a   10.47800593
_cell_length_b   10.47800593
_cell_length_c   10.47800593
_cell_angle_alpha   99.54696523
_cell_angle_beta   99.54696523
_cell_angle_gamma   131.93506793
_symmetry_Int_Tables_number   1
_chemical_formula_structural   Ba5Li2U3O15
_chemical_formula_sum   'Ba10 Li4 U6 O30'
_cell_volume   781.57839219
_cell_formula_units_Z   2
loop_
 _symmetry_equiv_pos_site_id
 _symmetry_equiv_pos_as_xyz
  1  'x, y, z'
loop_
 _atom_site_type_symbol
 _atom_site_label
 _atom_site_symmetry_multiplicity
 _atom_site_fract_x
 _atom_site_fract_y
 _atom_site_fract_z
 _atom_site_occupancy
  Ba  Ba0  1  0.75000000  0.25000000  0.50000000  1
  Ba  Ba1  1  0.52643335  0.63288209  0.68260906  1
  Ba  Ba2  1  0.95027303  0.84382429  0.31739094  1
  Ba  Ba3  1  0.15617571  0.47356665  0.10644974  1
  Ba  Ba4  1  0.36711791  0.04972697  0.89355026  1
  Ba  Ba5  1  0.84382429  0.52643335  0.89355026  1
  Ba  Ba6  1  0.63288209  0.95027303  0.10644974  1
  Ba  Ba7  1  0.04972697  0.15617571  0.68260906  1
  Ba  Ba8  1  0.25000000  0.75000000  0.50000000  1
  Ba  Ba9  1  0.47356665  0.36711791  0.31739094  1
  Li  Li0  1  0.40623417  0.19350941  0.59974357  1
  Li  Li1  1  0.80649059  0.40623417  0.21272476  1
  Li  Li2  1  0.19350941  0.59376583  0.78727524  1
  Li  Li3  1  0.59376583  0.80649059  0.40025643  1
  U  U0  1  0.30186325  0.90326250  0.20512575  1
  U  U1  1  0.09673750  0.30186325  0.39860075  1
  U  U2  1  0.50000000  0.50000000  0.00000000  1
  U  U3  1  0.69813675  0.09673750  0.79487425  1
  U  U4  1  0.90326250  0.69813675  0.60139925  1
  U  U5  1  0.00000000  -0.00000000  0.00000000  1
  O  O0  1  0.53779016  0.14013068  0.20078890  1
  O  O1  1  0.33700026  0.53779016  0.39765848  1
  O  O2  1  0.76103551  0.76103551  -0.00000000  1
  O  O3  1  0.93934178  0.33700026  0.79921110  1
  O  O4  1  0.14013068  0.93934178  0.60234152  1
  O  O5  1  0.25329490  0.76027989  0.01357479  1
  O  O6  1  0.04610482  0.14441471  0.19052054  1
  O  O7  1  0.45071642  0.36066321  0.81137963  1
  O  O8  1  0.65470501  0.95323728  0.60794229  1
  O  O9  1  0.85140205  0.55196976  0.40337181  1
  O  O10  1  0.14441471  0.95389518  0.09830989  1
  O  O11  1  0.95323728  0.34529499  0.29853327  1
  O  O12  1  0.36066321  0.54928358  0.90994579  1
  O  O13  1  0.55196976  0.14859795  0.70056771  1
  O  O14  1  0.76027989  0.74670510  0.50698499  1
  O  O15  1  0.06065822  0.66299974  0.20078890  1
  O  O16  1  0.85986932  0.06065822  0.39765848  1
  O  O17  1  0.23896449  0.23896449  0.00000000  1
  O  O18  1  0.46220984  0.85986932  0.79921110  1
  O  O19  1  0.66299974  0.46220984  0.60234152  1
  O  O20  1  0.34529499  0.04676272  0.39205771  1
  O  O21  1  0.14859795  0.44803024  0.59662819  1
  O  O22  1  0.54928358  0.63933679  0.18862037  1
  O  O23  1  0.74670510  0.23972011  0.98642521  1
  O  O24  1  0.95389518  0.85558529  0.80947946  1
  O  O25  1  0.44803024  0.85140205  0.29943229  1
  O  O26  1  0.23972011  0.25329490  0.49301501  1
  O  O27  1  0.63933679  0.45071642  0.09005421  1
  O  O28  1  0.85558529  0.04610482  0.90169011  1
  O  O29  1  0.04676272  0.65470501  0.70146673  1
loop_
_geom_bond_atom_site_label_1
_geom_bond_atom_site_label_2
_geom_bond_distance
_geom_bond_site_symmetry_2
Ba0 O25 3.015188 1_545
Ba0 O9 3.015188 1_555
Ba0 O13 3.015188 1_555
Ba0 O21 3.015188 1_655
Ba0 O19 3.027791 1_555
Ba0 O0 3.027797 1_555
Ba0 O3 3.027800 1_555
Ba0 O16 3.027800 1_555
Ba0 O11 3.055553 1_555
Ba0 O29 3.055559 1_655
Ba0 O20 3.055562 1_555
Ba0 O8 3.055562 1_545
Ba1 O26 2.867025 1_555
Ba1 O21 2.868045 1_555
Ba1 O1 2.872464 1_555
Ba1 O8 2.979229 1_555
Ba1 O18 3.008355 1_555
Ba1 O14 3.021628 1_555
Ba1 O7 3.031950 1_555
Ba1 O19 3.045248 1_555
Ba1 O12 3.080480 1_555
Ba1 O28 3.166873 1_565
Ba1 O24 3.209357 1_555
Ba1 O2 3.209461 1_556
Ba2 O14 2.867025 1_555
Ba2 O9 2.868045 1_555
Ba2 O4 2.872461 1_655
Ba2 O20 2.979229 1_665
Ba2 O15 3.008347 1_655
Ba2 O26 3.021628 1_665
Ba2 O22 3.031950 1_555
Ba2 O16 3.045240 1_565
Ba2 O27 3.080485 1_555
Ba2 O10 3.166873 1_655
Ba2 O6 3.209351 1_665
Ba2 O2 3.209461 1_555
Ba3 O5 2.867031 1_555
Ba3 O25 2.868042 1_555
Ba3 O15 2.872458 1_555
Ba3 O11 2.979229 1_455
Ba3 O1 3.008334 1_555
Ba3 O23 3.021628 1_454
Ba3 O12 3.031967 1_554
Ba3 O3 3.045248 1_454
Ba3 O22 3.080489 1_555
Ba3 O6 3.166873 1_555
Ba3 O28 3.209361 1_454
Ba3 O17 3.209463 1_555
Ba4 O23 2.867025 1_555
Ba4 O13 2.868036 1_555
Ba4 O18 2.872449 1_545
Ba4 O29 2.979229 1_545
Ba4 O4 3.008338 1_545
Ba4 O5 3.021635 1_546
Ba4 O27 3.031956 1_556
Ba4 O0 3.045251 1_556
Ba4 O7 3.080484 1_555
Ba4 O24 3.166873 1_445
Ba4 O10 3.209367 1_546
Ba4 O17 3.209464 1_556
Ba5 O23 2.867031 1_555
Ba5 O13 2.868042 1_555
Ba5 O3 2.872458 1_555
Ba5 O29 2.979229 1_655
Ba5 O19 3.008334 1_555
Ba5 O5 3.021628 1_656
Ba5 O27 3.031967 1_556
Ba5 O15 3.045248 1_656
Ba5 O7 3.080489 1_555
Ba5 O24 3.166873 1_555
Ba5 O10 3.209361 1_656
Ba5 O2 3.209463 1_556
Ba6 O5 2.867025 1_555
Ba6 O25 2.868036 1_555
Ba6 O0 2.872449 1_565
Ba6 O11 2.979229 1_565
Ba6 O16 3.008338 1_565
Ba6 O23 3.021635 1_564
Ba6 O12 3.031956 1_554
Ba6 O18 3.045251 1_554
Ba6 O22 3.080484 1_555
Ba6 O6 3.166873 1_665
Ba6 O28 3.209367 1_564
Ba6 O2 3.209464 1_555
Ba7 O26 2.867025 1_555
Ba7 O21 2.868045 1_555
Ba7 O16 2.872461 1_455
Ba7 O8 2.979229 1_445
Ba7 O3 3.008347 1_455
Ba7 O14 3.021628 1_445
Ba7 O7 3.031950 1_555
Ba7 O4 3.045240 1_545
Ba7 O12 3.080485 1_555
Ba7 O28 3.166873 1_455
Ba7 O24 3.209351 1_445
Ba7 O17 3.209461 1_556
Ba8 O9 3.015188 1_455
Ba8 O25 3.015188 1_555
Ba8 O13 3.015188 1_565
Ba8 O21 3.015188 1_555
Ba8 O1 3.027791 1_555
Ba8 O18 3.027797 1_555
Ba8 O15 3.027800 1_555
Ba8 O4 3.027800 1_555
Ba8 O29 3.055553 1_555
Ba8 O11 3.055559 1_455
Ba8 O20 3.055562 1_565
Ba8 O8 3.055562 1_555
Ba9 O14 2.867025 1_555
Ba9 O9 2.868045 1_555
Ba9 O19 2.872464 1_555
Ba9 O20 2.979229 1_555
Ba9 O0 3.008355 1_555
Ba9 O26 3.021628 1_555
Ba9 O22 3.031950 1_555
Ba9 O1 3.045248 1_555
Ba9 O27 3.080480 1_555
Ba9 O10 3.166873 1_545
Ba9 O6 3.209357 1_555
Ba9 O17 3.209461 1_555
Li0 O13 2.063862 1_555
Li0 O20 2.150449 1_555
Li0 O19 2.234249 1_555
Li0 O4 2.234253 1_545
Li0 O7 2.340929 1_555
Li0 O26 2.394390 1_555
Li1 O9 2.063862 1_555
Li1 O11 2.150453 1_555
Li1 O0 2.234249 1_555
Li1 O15 2.234253 1_655
Li1 O27 2.340924 1_555
Li1 O23 2.394390 1_554
Li2 O21 2.063862 1_555
Li2 O29 2.150453 1_555
Li2 O18 2.234249 1_555
Li2 O3 2.234253 1_455
Li2 O12 2.340924 1_555
Li2 O5 2.394390 1_556
Li3 O25 2.063862 1_555
Li3 O8 2.150449 1_555
Li3 O1 2.234249 1_555
Li3 O16 2.234253 1_565
Li3 O22 2.340929 1_555
Li3 O14 2.394390 1_555
O0 U0 2.036466 1_545
O1 U1 2.036466 1_555
O2 U5 2.039424 1_665
O2 U2 2.227788 1_555
O3 U3 2.036462 1_555
O4 U4 2.036462 1_455
O5 U0 2.043663 1_555
O6 U5 2.051648 1_555
O6 U1 2.238312 1_555
O7 U2 2.000214 1_556
O8 U3 2.029079 1_565
O9 U4 2.098990 1_555
O10 U5 2.051640 1_565
O10 U0 2.238321 1_555
O11 U1 2.029075 1_655
O12 U2 2.000218 1_556
O13 U3 2.098990 1_555
O14 U4 2.043663 1_555
O15 U0 2.036462 1_555
O16 U1 2.036462 1_655
O17 U5 2.039424 1_555
O17 U2 2.227788 1_555
O18 U3 2.036466 1_565
O19 U4 2.036466 1_555
O20 U0 2.029079 1_545
O21 U1 2.098990 1_555
O22 U2 2.000214 1_555
O23 U3 2.043663 1_555
O24 U5 2.051648 1_666
O24 U4 2.238312 1_555
O25 U0 2.098990 1_555
O26 U1 2.043663 1_555
O27 U2 2.000218 1_555
O28 U5 2.051640 1_656
O28 U3 2.238321 1_555
O29 U4 2.029075 1_455
