# generated using pymatgen
data_H4W
_symmetry_space_group_name_H-M   'P 1'
_cell_length_a   3.07302567
_cell_length_b   3.07302567
_cell_length_c   7.00535653
_cell_angle_alpha   90.00000000
_cell_angle_beta   90.00000000
_cell_angle_gamma   90.00000000
_symmetry_Int_Tables_number   1
_chemical_formula_structural   H4W
_chemical_formula_sum   'H8 W2'
_cell_volume   66.15499170
_cell_formula_units_Z   2
loop_
 _symmetry_equiv_pos_site_id
 _symmetry_equiv_pos_as_xyz
  1  'x, y, z'
loop_
 _atom_site_type_symbol
 _atom_site_label
 _atom_site_symmetry_multiplicity
 _atom_site_fract_x
 _atom_site_fract_y
 _atom_site_fract_z
 _atom_site_occupancy
  H  H0  1  0.00000000  0.50000000  0.87304656  1
  H  H1  1  0.50000000  -0.00000000  0.12695344  1
  H  H2  1  -0.00000000  0.50000000  0.38210820  1
  H  H3  1  0.50000000  0.00000000  0.61789180  1
  H  H4  1  -0.00000000  0.00000000  0.71493112  1
  H  H5  1  0.50000000  0.50000000  0.28506888  1
  H  H6  1  -0.00000000  -0.00000000  0.28506888  1
  H  H7  1  0.50000000  0.50000000  0.71493112  1
  W  W0  1  0.00000000  0.50000000  0.13693942  1
  W  W1  1  0.50000000  0.00000000  0.86306058  1
loop_
_geom_bond_atom_site_label_1
_geom_bond_atom_site_label_2
_geom_bond_distance
_geom_bond_site_symmetry_2
H0 W0 1.848664 1_556
H0 W1 2.174083 1_465
H0 W1 2.174083 1_455
H0 W1 2.174083 1_565
H0 W1 2.174083 1_555
H1 W1 1.848664 1_554
H1 W0 2.174083 1_645
H1 W0 2.174083 1_555
H1 W0 2.174083 1_655
H1 W0 2.174083 1_545
H2 W0 1.717495 1_555
H3 W1 1.717495 1_555
H4 W1 1.854101 1_555
H4 W1 1.854101 1_455
H5 W0 1.854101 1_655
H5 W0 1.854101 1_555
H6 W0 1.854101 1_545
H6 W0 1.854101 1_555
H7 W1 1.854101 1_555
H7 W1 1.854101 1_565
