# generated using pymatgen
data_Na2Cu4H5(SO5)4
_symmetry_space_group_name_H-M   'P 1'
_cell_length_a   11.17354728
_cell_length_b   6.38860122
_cell_length_c   7.74511824
_cell_angle_alpha   87.74603295
_cell_angle_beta   63.30574013
_cell_angle_gamma   53.92803970
_symmetry_Int_Tables_number   1
_chemical_formula_structural   Na2Cu4H5(SO5)4
_chemical_formula_sum   'Na2 Cu4 H5 S4 O20'
_cell_volume   379.33863577
_cell_formula_units_Z   1
loop_
 _symmetry_equiv_pos_site_id
 _symmetry_equiv_pos_as_xyz
  1  'x, y, z'
loop_
 _atom_site_type_symbol
 _atom_site_label
 _atom_site_symmetry_multiplicity
 _atom_site_fract_x
 _atom_site_fract_y
 _atom_site_fract_z
 _atom_site_occupancy
  Na  Na0  1  0.00000000  0.50000000  0.50000000  1
  Na  Na1  1  0.50000000  0.50000000  0.50000000  1
  Cu  Cu0  1  0.25455600  0.99649600  0.99853400  1
  Cu  Cu1  1  0.25108200  0.49643500  0.99697400  1
  Cu  Cu2  1  0.74544400  0.00350400  0.00146600  1
  Cu  Cu3  1  0.74891800  0.50356500  0.00302600  1
  H  H0  1  0.20158800  0.30117300  0.80523800  1
  H  H1  1  0.28380100  0.70864700  0.21563800  1
  H  H2  1  0.50000000  0.50000000  0.00000000  1
  H  H3  1  0.71619900  0.29135300  0.78436200  1
  H  H4  1  0.79841200  0.69882700  0.19476200  1
  S  S0  1  0.40504100  0.08965400  0.30928200  1
  S  S1  1  0.09139200  0.91262000  0.69542200  1
  S  S2  1  0.90860800  0.08738000  0.30457800  1
  S  S3  1  0.59495900  0.91034600  0.69071800  1
  O  O0  1  0.02213200  0.16793000  0.24223100  1
  O  O1  1  0.02168300  0.78113700  0.25069500  1
  O  O2  1  0.30715800  0.19059500  0.20366500  1
  O  O3  1  0.28495000  0.21002400  0.52864900  1
  O  O4  1  0.16526300  0.33374800  0.95072000  1
  O  O5  1  0.34405100  0.65206500  0.06393700  1
  O  O6  1  0.21261200  0.79168500  0.47476700  1
  O  O7  1  0.51781900  0.17365900  0.24563300  1
  O  O8  1  0.19187900  0.80885800  0.79834500  1
  O  O9  1  0.48119300  0.21734400  0.74588200  1
  O  O10  1  0.51880700  0.78265600  0.25411800  1
  O  O11  1  0.80812100  0.19114200  0.20165500  1
  O  O12  1  0.48218100  0.82634100  0.75436700  1
  O  O13  1  0.78738800  0.20831500  0.52523300  1
  O  O14  1  0.65594900  0.34793400  0.93606300  1
  O  O15  1  0.83473700  0.66625200  0.04928000  1
  O  O16  1  0.71505000  0.78997600  0.47135100  1
  O  O17  1  0.69284200  0.80940500  0.79633500  1
  O  O18  1  0.97831700  0.21886300  0.74930500  1
  O  O19  1  0.97786800  0.83207000  0.75776900  1
loop_
_geom_bond_atom_site_label_1
_geom_bond_atom_site_label_2
_geom_bond_distance
_geom_bond_site_symmetry_2
Na0 O2 2.498926 1_555
Na0 O17 2.498926 1_455
Na0 O1 2.613860 1_555
Na0 O18 2.613860 1_455
Na0 O3 2.697207 1_555
Na0 O16 2.697207 1_455
Na0 O19 2.796310 1_455
Na0 O0 2.796310 1_555
Na1 O11 2.509396 1_555
Na1 O8 2.509396 1_555
Na1 O10 2.597784 1_555
Na1 O9 2.597784 1_555
Na1 O6 2.703837 1_555
Na1 O13 2.703837 1_555
Na1 O7 2.783781 1_555
Na1 O12 2.783781 1_555
Cu0 O4 1.874171 1_565
Cu0 O12 1.952232 1_555
Cu0 O5 1.968429 1_556
Cu0 O0 1.978783 1_566
Cu0 O2 2.501895 1_566
Cu0 O8 2.538079 1_555
Cu1 O4 1.907779 1_555
Cu1 O9 1.988372 1_555
Cu1 O1 2.001352 1_556
Cu1 O5 2.019281 1_556
Cu1 O8 2.430239 1_555
Cu1 O2 2.446725 1_556
Cu2 O15 1.874171 1_545
Cu2 O7 1.952232 1_555
Cu2 O14 1.968424 1_554
Cu2 O19 1.978783 1_544
Cu2 O17 2.501895 1_544
Cu2 O11 2.538079 1_555
Cu3 O15 1.907779 1_555
Cu3 O10 1.988372 1_555
Cu3 O18 2.001352 1_554
Cu3 O14 2.019286 1_554
Cu3 O11 2.430239 1_555
Cu3 O17 2.446725 1_554
H0 O4 0.992849 1_555
H1 O5 1.000270 1_555
H2 O14 1.222470 1_554
H2 O5 1.222470 1_555
H3 O14 1.000270 1_555
H4 O15 0.992849 1_555
O0 S2 1.518490 1_455
O1 S2 1.509239 1_465
O2 S0 1.487601 1_555
O3 S0 1.455296 1_555
O6 S1 1.464231 1_555
O7 S0 1.528534 1_555
O8 S1 1.490522 1_555
O9 S3 1.512317 1_545
O10 S0 1.512317 1_565
O11 S2 1.490522 1_555
O12 S3 1.528534 1_555
O13 S2 1.464231 1_555
O16 S3 1.455296 1_555
O17 S3 1.487601 1_555
O18 S1 1.509239 1_645
O19 S1 1.518490 1_655
