# generated using pymatgen
data_K2Li3FeO4
_symmetry_space_group_name_H-M   'P 1'
_cell_length_a   8.89607700
_cell_length_b   5.64118600
_cell_length_c   11.15351213
_cell_angle_alpha   68.97065383
_cell_angle_beta   90.00000000
_cell_angle_gamma   90.00000000
_symmetry_Int_Tables_number   1
_chemical_formula_structural   K2Li3FeO4
_chemical_formula_sum   'K8 Li12 Fe4 O16'
_cell_volume   522.45258478
_cell_formula_units_Z   4
loop_
 _symmetry_equiv_pos_site_id
 _symmetry_equiv_pos_as_xyz
  1  'x, y, z'
loop_
 _atom_site_type_symbol
 _atom_site_label
 _atom_site_symmetry_multiplicity
 _atom_site_fract_x
 _atom_site_fract_y
 _atom_site_fract_z
 _atom_site_occupancy
  K  K0  1  0.99311900  0.29354800  0.86156300  1
  K  K1  1  0.49311900  0.70645200  0.63843700  1
  K  K2  1  0.00688100  0.70645200  0.13843700  1
  K  K3  1  0.50688100  0.29354800  0.36156300  1
  K  K4  1  0.77195700  0.27963100  0.11005600  1
  K  K5  1  0.27195700  0.72036900  0.38994400  1
  K  K6  1  0.22804300  0.72036900  0.88994400  1
  K  K7  1  0.72804300  0.27963100  0.61005600  1
  Li  Li0  1  0.00818200  0.62670000  0.57098800  1
  Li  Li1  1  0.50818200  0.37330000  0.92901200  1
  Li  Li2  1  0.99181800  0.37330000  0.42901200  1
  Li  Li3  1  0.49181800  0.62670000  0.07098800  1
  Li  Li4  1  0.46593100  0.09639400  0.79706200  1
  Li  Li5  1  0.96593100  0.90360600  0.70293800  1
  Li  Li6  1  0.53406900  0.90360600  0.20293800  1
  Li  Li7  1  0.03406900  0.09639400  0.29706200  1
  Li  Li8  1  0.23896300  0.38217200  0.70064300  1
  Li  Li9  1  0.73896300  0.61782800  0.79935700  1
  Li  Li10  1  0.76103700  0.61782800  0.29935700  1
  Li  Li11  1  0.26103700  0.38217200  0.20064300  1
  Fe  Fe0  1  0.28815100  0.10168500  0.06314800  1
  Fe  Fe1  1  0.78815100  0.89831500  0.43685200  1
  Fe  Fe2  1  0.71184900  0.89831500  0.93685200  1
  Fe  Fe3  1  0.21184900  0.10168500  0.56314800  1
  O  O0  1  0.32278500  0.74539300  0.14377600  1
  O  O1  1  0.82278500  0.25460700  0.35622400  1
  O  O2  1  0.67721500  0.25460700  0.85622400  1
  O  O3  1  0.17721500  0.74539300  0.64377600  1
  O  O4  1  0.19016500  0.23482300  0.38019400  1
  O  O5  1  0.69016500  0.76517700  0.11980600  1
  O  O6  1  0.80983500  0.76517700  0.61980600  1
  O  O7  1  0.30983500  0.23482300  0.88019400  1
  O  O8  1  0.10687100  0.21800200  0.11608700  1
  O  O9  1  0.60687100  0.78199800  0.38391300  1
  O  O10  1  0.89312900  0.78199800  0.88391300  1
  O  O11  1  0.39312900  0.21800200  0.61608700  1
  O  O12  1  0.04961500  0.25814400  0.62269400  1
  O  O13  1  0.54961500  0.74185600  0.87730600  1
  O  O14  1  0.95038500  0.74185600  0.37730600  1
  O  O15  1  0.45038500  0.25814400  0.12269400  1
loop_
_geom_bond_atom_site_label_1
_geom_bond_atom_site_label_2
_geom_bond_distance
_geom_bond_site_symmetry_2
K0 O12 2.787918 1_655
K0 O2 2.821172 1_555
K0 O7 2.835841 1_655
K0 O8 2.897649 1_656
K0 O10 2.943578 1_545
K0 O10 2.989780 1_555
K1 O13 2.787918 1_555
K1 O3 2.821172 1_555
K1 O6 2.835841 1_555
K1 O9 2.897649 1_555
K1 O11 2.943578 1_565
K1 O11 2.989780 1_555
K2 O14 2.787918 1_455
K2 O0 2.821172 1_555
K2 O5 2.835841 1_455
K2 O10 2.897649 1_454
K2 O8 2.943578 1_565
K2 O8 2.989780 1_555
K3 O15 2.787918 1_555
K3 O1 2.821172 1_555
K3 O4 2.835841 1_555
K3 O11 2.897649 1_555
K3 O9 2.943578 1_545
K3 O9 2.989780 1_555
K4 O1 2.735826 1_555
K4 O15 2.864624 1_555
K4 O5 2.873581 1_555
K4 O5 2.955864 1_545
K4 O8 2.997592 1_655
K4 O2 3.005387 1_554
K4 O10 3.228791 1_554
K5 O0 2.735826 1_555
K5 O14 2.864624 1_455
K5 O4 2.873581 1_555
K5 O4 2.955864 1_565
K5 O9 2.997592 1_555
K5 O3 3.005387 1_555
K5 O11 3.228791 1_555
K6 O3 2.735826 1_555
K6 O13 2.864624 1_555
K6 O7 2.873581 1_555
K6 O7 2.955864 1_565
K6 O10 2.997592 1_455
K6 O0 3.005387 1_556
K6 O8 3.228791 1_556
K7 O2 2.735826 1_555
K7 O12 2.864624 1_655
K7 O6 2.873581 1_555
K7 O6 2.955864 1_545
K7 O11 2.997592 1_555
K7 O1 3.005387 1_555
K7 O9 3.228791 1_555
Li0 O3 1.938748 1_555
Li0 O12 1.982561 1_555
Li0 O6 2.079776 1_455
Li0 O14 2.084665 1_455
Li1 O2 1.938748 1_555
Li1 O13 1.982561 1_555
Li1 O7 2.079776 1_555
Li1 O15 2.084665 1_556
Li2 O1 1.938748 1_555
Li2 O14 1.982561 1_555
Li2 O4 2.079776 1_655
Li2 O12 2.084665 1_655
Li3 O0 1.938748 1_555
Li3 O15 1.982561 1_555
Li3 O5 2.079776 1_555
Li3 O13 2.084665 1_554
Li4 O7 1.979272 1_555
Li4 O11 1.992645 1_555
Li4 O13 2.017579 1_545
Li4 O2 2.277621 1_555
Li5 O6 1.979272 1_555
Li5 O10 1.992645 1_555
Li5 O12 2.017579 1_665
Li5 O3 2.277621 1_655
Li6 O5 1.979272 1_555
Li6 O9 1.992645 1_555
Li6 O15 2.017579 1_565
Li6 O0 2.277621 1_555
Li7 O4 1.979272 1_555
Li7 O8 1.992645 1_555
Li7 O14 2.017579 1_445
Li7 O1 2.277621 1_455
Li8 O7 1.975919 1_555
Li8 O3 1.992413 1_555
Li8 O11 2.062740 1_555
Li8 O12 2.125876 1_555
Li9 O6 1.975919 1_555
Li9 O2 1.992413 1_555
Li9 O10 2.062740 1_555
Li9 O13 2.125876 1_555
Li10 O5 1.975919 1_555
Li10 O1 1.992413 1_555
Li10 O9 2.062740 1_555
Li10 O14 2.125876 1_555
Li11 O4 1.975919 1_555
Li11 O0 1.992413 1_555
Li11 O8 2.062740 1_555
Li11 O15 2.125876 1_555
Fe0 O0 1.909493 1_545
Fe0 O8 1.912588 1_555
Fe0 O7 1.914506 1_554
Fe0 O15 1.929705 1_555
Fe1 O1 1.909493 1_565
Fe1 O9 1.912588 1_555
Fe1 O6 1.914506 1_555
Fe1 O14 1.929705 1_555
Fe2 O2 1.909493 1_565
Fe2 O10 1.912588 1_555
Fe2 O5 1.914506 1_556
Fe2 O13 1.929705 1_555
Fe3 O3 1.909493 1_545
Fe3 O11 1.912588 1_555
Fe3 O4 1.914506 1_555
Fe3 O12 1.929705 1_555
