# generated using pymatgen
data_Ni(ClO)2
_symmetry_space_group_name_H-M   'P 1'
_cell_length_a   7.08895754
_cell_length_b   7.08895754
_cell_length_c   6.68163218
_cell_angle_alpha   62.87993419
_cell_angle_beta   62.87993419
_cell_angle_gamma   57.06488146
_symmetry_Int_Tables_number   1
_chemical_formula_structural   Ni(ClO)2
_chemical_formula_sum   'Ni2 Cl4 O4'
_cell_volume   240.90590108
_cell_formula_units_Z   2
loop_
 _symmetry_equiv_pos_site_id
 _symmetry_equiv_pos_as_xyz
  1  'x, y, z'
loop_
 _atom_site_type_symbol
 _atom_site_label
 _atom_site_symmetry_multiplicity
 _atom_site_fract_x
 _atom_site_fract_y
 _atom_site_fract_z
 _atom_site_occupancy
  Ni  Ni0  1  0.25011900  0.74988100  0.00000000  1
  Ni  Ni1  1  0.74988100  0.25011900  0.00000000  1
  Cl  Cl0  1  0.93401800  0.93401800  0.84874900  1
  Cl  Cl1  1  0.06598200  0.06598200  0.15125100  1
  Cl  Cl2  1  0.46081300  0.46081300  0.80666000  1
  Cl  Cl3  1  0.53918700  0.53918700  0.19334000  1
  O  O0  1  0.01772800  0.49729700  0.40192700  1
  O  O1  1  0.50270300  0.98227200  0.59807300  1
  O  O2  1  0.98227200  0.50270300  0.59807300  1
  O  O3  1  0.49729700  0.01772800  0.40192700  1
loop_
_geom_bond_atom_site_label_1
_geom_bond_atom_site_label_2
_geom_bond_distance
_geom_bond_site_symmetry_2
Cl0 Ni0 2.329775 1_656
Cl0 Ni1 2.329775 1_566
Cl1 Ni0 2.329775 1_545
Cl1 Ni1 2.329775 1_455
Cl2 Ni1 2.329183 1_556
Cl2 Ni0 2.329183 1_556
Cl3 Ni1 2.329183 1_555
Cl3 Ni0 2.329183 1_555
O0 O2 1.231764 1_455
O1 O3 1.231764 1_565
