# generated using pymatgen
data_AgAs
_symmetry_space_group_name_H-M   'P 1'
_cell_length_a   5.92157800
_cell_length_b   9.98276400
_cell_length_c   10.34539800
_cell_angle_alpha   90.00000000
_cell_angle_beta   90.00000000
_cell_angle_gamma   90.00000000
_symmetry_Int_Tables_number   1
_chemical_formula_structural   AgAs
_chemical_formula_sum   'Ag16 As16'
_cell_volume   611.55491598
_cell_formula_units_Z   16
loop_
 _symmetry_equiv_pos_site_id
 _symmetry_equiv_pos_as_xyz
  1  'x, y, z'
loop_
 _atom_site_type_symbol
 _atom_site_label
 _atom_site_symmetry_multiplicity
 _atom_site_fract_x
 _atom_site_fract_y
 _atom_site_fract_z
 _atom_site_occupancy
  Ag  Ag0_0  1  0.00000000  0.12500000  0.08238550  1
  Ag  Ag0_1  1  0.00000000  0.12500000  0.58238550  1
  Ag  Ag0_2  1  0.00000000  0.62500000  0.08238550  1
  Ag  Ag0_3  1  0.00000000  0.62500000  0.58238550  1
  Ag  Ag0_4  1  0.50000000  0.12500000  0.08238550  1
  Ag  Ag0_5  1  0.50000000  0.12500000  0.58238550  1
  Ag  Ag0_6  1  0.50000000  0.62500000  0.08238550  1
  Ag  Ag0_7  1  0.50000000  0.62500000  0.58238550  1
  Ag  Ag1_0  1  0.00000000  0.37500000  0.41761450  1
  Ag  Ag1_1  1  0.00000000  0.37500000  0.91761450  1
  Ag  Ag1_2  1  0.00000000  0.87500000  0.41761450  1
  Ag  Ag1_3  1  0.00000000  0.87500000  0.91761450  1
  Ag  Ag1_4  1  0.50000000  0.37500000  0.41761450  1
  Ag  Ag1_5  1  0.50000000  0.37500000  0.91761450  1
  Ag  Ag1_6  1  0.50000000  0.87500000  0.41761450  1
  Ag  Ag1_7  1  0.50000000  0.87500000  0.91761450  1
  As  As0_0  1  0.25000000  0.37500000  0.16717750  1
  As  As0_1  1  0.25000000  0.37500000  0.66717750  1
  As  As0_2  1  0.25000000  0.87500000  0.16717750  1
  As  As0_3  1  0.25000000  0.87500000  0.66717750  1
  As  As0_4  1  0.75000000  0.37500000  0.16717750  1
  As  As0_5  1  0.75000000  0.37500000  0.66717750  1
  As  As0_6  1  0.75000000  0.87500000  0.16717750  1
  As  As0_7  1  0.75000000  0.87500000  0.66717750  1
  As  As1_0  1  0.25000000  0.12500000  0.33282250  1
  As  As1_1  1  0.25000000  0.12500000  0.83282250  1
  As  As1_2  1  0.25000000  0.62500000  0.33282250  1
  As  As1_3  1  0.25000000  0.62500000  0.83282250  1
  As  As1_4  1  0.75000000  0.12500000  0.33282250  1
  As  As1_5  1  0.75000000  0.12500000  0.83282250  1
  As  As1_6  1  0.75000000  0.62500000  0.33282250  1
  As  As1_7  1  0.75000000  0.62500000  0.83282250  1
loop_
_geom_bond_atom_site_label_1
_geom_bond_atom_site_label_2
_geom_bond_distance
_geom_bond_site_symmetry_2
Ag0_0 Ag0_4 2.960789 1_555
Ag0_0 Ag0_4 2.960789 1_455
Ag0_0 As1_5 2.976140 1_454
Ag0_0 As1_1 2.976140 1_554
Ag0_0 As1_4 2.983987 1_455
Ag0_0 As1_0 2.983987 1_555
Ag0_0 Ag1_1 3.022285 1_554
Ag0_0 Ag1_3 3.022285 1_544
Ag0_0 As0_4 3.031424 1_455
Ag0_0 As0_0 3.031424 1_555
Ag0_0 As0_6 3.031424 1_445
Ag0_0 As0_2 3.031424 1_545
Ag0_1 Ag0_5 2.960789 1_555
Ag0_1 Ag0_5 2.960789 1_455
Ag0_1 As1_4 2.976140 1_455
Ag0_1 As1_0 2.976140 1_555
Ag0_1 As1_1 2.983987 1_555
Ag0_1 As1_5 2.983987 1_455
Ag0_1 Ag1_0 3.022285 1_555
Ag0_1 Ag1_2 3.022285 1_545
Ag0_1 As0_5 3.031424 1_455
Ag0_1 As0_1 3.031424 1_555
Ag0_1 As0_3 3.031424 1_545
Ag0_1 As0_7 3.031424 1_445
Ag0_2 Ag0_6 2.960789 1_555
Ag0_2 Ag0_6 2.960789 1_455
Ag0_2 As1_3 2.976140 1_554
Ag0_2 As1_7 2.976140 1_454
Ag0_2 As1_6 2.983987 1_455
Ag0_2 As1_2 2.983987 1_555
Ag0_2 Ag1_3 3.022285 1_554
Ag0_2 Ag1_1 3.022285 1_554
Ag0_2 As0_6 3.031424 1_455
Ag0_2 As0_2 3.031424 1_555
Ag0_2 As0_4 3.031424 1_455
Ag0_2 As0_0 3.031424 1_555
Ag0_3 Ag0_7 2.960789 1_555
Ag0_3 Ag0_7 2.960789 1_455
Ag0_3 As1_6 2.976140 1_455
Ag0_3 As1_2 2.976140 1_555
Ag0_3 As1_7 2.983987 1_455
Ag0_3 As1_3 2.983987 1_555
Ag0_3 Ag1_2 3.022285 1_555
Ag0_3 Ag1_0 3.022285 1_555
Ag0_3 As0_3 3.031424 1_555
Ag0_3 As0_7 3.031424 1_455
Ag0_3 As0_5 3.031424 1_455
Ag0_3 As0_1 3.031424 1_555
Ag0_4 As1_1 2.976140 1_554
Ag0_4 As1_5 2.976140 1_554
Ag0_4 As1_0 2.983987 1_555
Ag0_4 As1_4 2.983987 1_555
Ag0_4 Ag1_5 3.022285 1_554
Ag0_4 Ag1_7 3.022285 1_544
Ag0_4 As0_0 3.031424 1_555
Ag0_4 As0_4 3.031424 1_555
Ag0_4 As0_2 3.031424 1_545
Ag0_4 As0_6 3.031424 1_545
Ag0_5 As1_4 2.976140 1_555
Ag0_5 As1_0 2.976140 1_555
Ag0_5 As1_1 2.983987 1_555
Ag0_5 As1_5 2.983987 1_555
Ag0_5 Ag1_4 3.022285 1_555
Ag0_5 Ag1_6 3.022285 1_545
Ag0_5 As0_1 3.031424 1_555
Ag0_5 As0_5 3.031424 1_555
Ag0_5 As0_3 3.031424 1_545
Ag0_5 As0_7 3.031424 1_545
Ag0_6 As1_3 2.976140 1_554
Ag0_6 As1_7 2.976140 1_554
Ag0_6 As1_2 2.983987 1_555
Ag0_6 As1_6 2.983987 1_555
Ag0_6 Ag1_7 3.022285 1_554
Ag0_6 Ag1_5 3.022285 1_554
Ag0_6 As0_6 3.031424 1_555
Ag0_6 As0_2 3.031424 1_555
Ag0_6 As0_0 3.031424 1_555
Ag0_6 As0_4 3.031424 1_555
Ag0_7 As1_6 2.976140 1_555
Ag0_7 As1_2 2.976140 1_555
Ag0_7 As1_3 2.983987 1_555
Ag0_7 As1_7 2.983987 1_555
Ag0_7 Ag1_6 3.022285 1_555
Ag0_7 Ag1_4 3.022285 1_555
Ag0_7 As0_3 3.031424 1_555
Ag0_7 As0_7 3.031424 1_555
Ag0_7 As0_1 3.031424 1_555
Ag0_7 As0_5 3.031424 1_555
Ag1_0 Ag1_4 2.960789 1_555
Ag1_0 Ag1_4 2.960789 1_455
Ag1_0 As0_5 2.976140 1_455
Ag1_0 As0_1 2.976140 1_555
Ag1_0 As0_4 2.983987 1_455
Ag1_0 As0_0 2.983987 1_555
Ag1_0 As1_2 3.031424 1_555
Ag1_0 As1_4 3.031424 1_455
Ag1_0 As1_0 3.031424 1_555
Ag1_0 As1_6 3.031424 1_455
Ag1_1 Ag1_5 2.960789 1_455
Ag1_1 Ag1_5 2.960789 1_555
Ag1_1 As0_4 2.976140 1_456
Ag1_1 As0_0 2.976140 1_556
Ag1_1 As0_5 2.983987 1_455
Ag1_1 As0_1 2.983987 1_555
Ag1_1 As1_1 3.031424 1_555
Ag1_1 As1_5 3.031424 1_455
Ag1_1 As1_7 3.031424 1_455
Ag1_1 As1_3 3.031424 1_555
Ag1_2 Ag1_6 2.960789 1_455
Ag1_2 Ag1_6 2.960789 1_555
Ag1_2 As0_7 2.976140 1_455
Ag1_2 As0_3 2.976140 1_555
Ag1_2 As0_6 2.983987 1_455
Ag1_2 As0_2 2.983987 1_555
Ag1_2 As1_6 3.031424 1_455
Ag1_2 As1_2 3.031424 1_555
Ag1_2 As1_0 3.031424 1_565
Ag1_2 As1_4 3.031424 1_465
Ag1_3 Ag1_7 2.960789 1_555
Ag1_3 Ag1_7 2.960789 1_455
Ag1_3 As0_2 2.976140 1_556
Ag1_3 As0_6 2.976140 1_456
Ag1_3 As0_3 2.983987 1_555
Ag1_3 As0_7 2.983987 1_455
Ag1_3 As1_3 3.031424 1_555
Ag1_3 As1_7 3.031424 1_455
Ag1_3 As1_5 3.031424 1_465
Ag1_3 As1_1 3.031424 1_565
Ag1_4 As0_5 2.976140 1_555
Ag1_4 As0_1 2.976140 1_555
Ag1_4 As0_0 2.983987 1_555
Ag1_4 As0_4 2.983987 1_555
Ag1_4 As1_2 3.031424 1_555
Ag1_4 As1_4 3.031424 1_555
Ag1_4 As1_6 3.031424 1_555
Ag1_4 As1_0 3.031424 1_555
Ag1_5 As0_0 2.976140 1_556
Ag1_5 As0_4 2.976140 1_556
Ag1_5 As0_1 2.983987 1_555
Ag1_5 As0_5 2.983987 1_555
Ag1_5 As1_1 3.031424 1_555
Ag1_5 As1_5 3.031424 1_555
Ag1_5 As1_3 3.031424 1_555
Ag1_5 As1_7 3.031424 1_555
Ag1_6 As0_3 2.976140 1_555
Ag1_6 As0_7 2.976140 1_555
Ag1_6 As0_2 2.983987 1_555
Ag1_6 As0_6 2.983987 1_555
Ag1_6 As1_2 3.031424 1_555
Ag1_6 As1_6 3.031424 1_555
Ag1_6 As1_0 3.031424 1_565
Ag1_6 As1_4 3.031424 1_565
Ag1_7 As0_2 2.976140 1_556
Ag1_7 As0_6 2.976140 1_556
Ag1_7 As0_3 2.983987 1_555
Ag1_7 As0_7 2.983987 1_555
Ag1_7 As1_7 3.031424 1_555
Ag1_7 As1_3 3.031424 1_555
Ag1_7 As1_5 3.031424 1_565
Ag1_7 As1_1 3.031424 1_565
As0_0 As0_4 2.960789 1_555
As0_0 As0_4 2.960789 1_455
As0_0 As1_2 3.027394 1_555
As0_0 As1_0 3.027394 1_555
As0_1 As0_5 2.960789 1_455
As0_1 As0_5 2.960789 1_555
As0_1 As1_3 3.027394 1_555
As0_1 As1_1 3.027394 1_555
As0_2 As0_6 2.960789 1_455
As0_2 As0_6 2.960789 1_555
As0_2 As1_2 3.027394 1_555
As0_2 As1_0 3.027394 1_565
As0_3 As0_7 2.960789 1_555
As0_3 As0_7 2.960789 1_455
As0_3 As1_3 3.027394 1_555
As0_3 As1_1 3.027394 1_565
As0_4 As1_4 3.027394 1_555
As0_4 As1_6 3.027394 1_555
As0_5 As1_7 3.027394 1_555
As0_5 As1_5 3.027394 1_555
As0_6 As1_6 3.027394 1_555
As0_6 As1_4 3.027394 1_565
As0_7 As1_7 3.027394 1_555
As0_7 As1_5 3.027394 1_565
As1_0 As1_4 2.960789 1_455
As1_0 As1_4 2.960789 1_555
As1_1 As1_5 2.960789 1_455
As1_1 As1_5 2.960789 1_555
As1_2 As1_6 2.960789 1_555
As1_2 As1_6 2.960789 1_455
As1_3 As1_7 2.960789 1_455
As1_3 As1_7 2.960789 1_555
