# generated using pymatgen
data_TeH15C5NOF6
_symmetry_space_group_name_H-M   'P 1'
_cell_length_a   7.06402800
_cell_length_b   9.05389700
_cell_length_c   23.10158734
_cell_angle_alpha   86.65720575
_cell_angle_beta   90.00000000
_cell_angle_gamma   90.00000000
_symmetry_Int_Tables_number   1
_chemical_formula_structural   TeH15C5NOF6
_chemical_formula_sum   'Te4 H60 C20 N4 O4 F24'
_cell_volume   1474.99388888
_cell_formula_units_Z   4
loop_
 _symmetry_equiv_pos_site_id
 _symmetry_equiv_pos_as_xyz
  1  'x, y, z'
loop_
 _atom_site_type_symbol
 _atom_site_label
 _atom_site_symmetry_multiplicity
 _atom_site_fract_x
 _atom_site_fract_y
 _atom_site_fract_z
 _atom_site_occupancy
  Te  Te0  1  0.74299100  0.16045100  0.31843300  1
  Te  Te1  1  0.25700900  0.83954900  0.68156700  1
  Te  Te2  1  0.24299100  0.83954900  0.18156700  1
  Te  Te3  1  0.75700900  0.16045100  0.81843300  1
  H  H0  1  0.03929100  0.63136300  0.57334400  1
  H  H1  1  0.98217700  0.57304500  0.92541600  1
  H  H2  1  0.12079300  0.81496100  0.74142300  1
  H  H3  1  0.29479100  0.08992800  0.07181900  1
  H  H4  1  0.79479100  0.91007200  0.42818100  1
  H  H5  1  0.78513700  0.90263700  0.14161300  1
  H  H6  1  0.68046400  0.59479200  0.72906300  1
  H  H7  1  0.87317300  0.41227700  0.43345800  1
  H  H8  1  0.81953600  0.59479200  0.22906300  1
  H  H9  1  0.24709500  0.02400900  0.68169300  1
  H  H10  1  0.54382700  0.17420600  0.15827800  1
  H  H11  1  0.01782300  0.42695500  0.07458400  1
  H  H12  1  0.74709500  0.97599100  0.81830700  1
  H  H13  1  0.38952100  0.32101900  0.13760900  1
  H  H14  1  0.29687600  0.74130100  0.97709600  1
  H  H15  1  0.79687600  0.25869900  0.52290400  1
  H  H16  1  0.85578900  0.46716300  0.58817800  1
  H  H17  1  0.12682700  0.58772300  0.56654200  1
  H  H18  1  0.88952100  0.67898100  0.36239100  1
  H  H19  1  0.16602700  0.11818400  0.28781600  1
  H  H20  1  0.35578900  0.53283700  0.91182200  1
  H  H21  1  0.45617300  0.82579400  0.84172200  1
  H  H22  1  0.71486300  0.90263700  0.64161300  1
  H  H23  1  0.21486300  0.09736300  0.85838700  1
  H  H24  1  0.37317300  0.58772300  0.06654200  1
  H  H25  1  0.02489400  0.86113300  0.51195400  1
  H  H26  1  0.97510600  0.13886700  0.48804600  1
  H  H27  1  0.18046400  0.40520800  0.77093700  1
  H  H28  1  0.20312400  0.74130100  0.47709600  1
  H  H29  1  0.83397300  0.88181600  0.71218400  1
  H  H30  1  0.70520900  0.91007200  0.92818100  1
  H  H31  1  0.30345500  0.58315000  0.83860400  1
  H  H32  1  0.64421100  0.46716300  0.08817800  1
  H  H33  1  0.75290500  0.97599100  0.31830700  1
  H  H34  1  0.52489400  0.13886700  0.98804600  1
  H  H35  1  0.11047900  0.32101900  0.63760900  1
  H  H36  1  0.19654500  0.58315000  0.33860400  1
  H  H37  1  0.20520900  0.08992800  0.57181900  1
  H  H38  1  0.80345500  0.41685000  0.66139600  1
  H  H39  1  0.69654500  0.41685000  0.16139600  1
  H  H40  1  0.51782300  0.57304500  0.42541600  1
  H  H41  1  0.47510600  0.86113300  0.01195400  1
  H  H42  1  0.96070900  0.36863700  0.42665600  1
  H  H43  1  0.53929100  0.36863700  0.92665600  1
  H  H44  1  0.31953600  0.40520800  0.27093700  1
  H  H45  1  0.62682700  0.41227700  0.93345800  1
  H  H46  1  0.04382700  0.82579400  0.34172200  1
  H  H47  1  0.61047900  0.67898100  0.86239100  1
  H  H48  1  0.37920700  0.81496100  0.24142300  1
  H  H49  1  0.48217700  0.42695500  0.57458400  1
  H  H50  1  0.46070900  0.63136300  0.07334400  1
  H  H51  1  0.25290500  0.02400900  0.18169300  1
  H  H52  1  0.62079300  0.18503900  0.75857700  1
  H  H53  1  0.14421100  0.53283700  0.41182200  1
  H  H54  1  0.28513700  0.09736300  0.35838700  1
  H  H55  1  0.87920700  0.18503900  0.25857700  1
  H  H56  1  0.33397300  0.11818400  0.78781600  1
  H  H57  1  0.66602700  0.88181600  0.21218400  1
  H  H58  1  0.70312400  0.25869900  0.02290400  1
  H  H59  1  0.95617300  0.17420600  0.65827800  1
  C  C0  1  0.33026400  0.15100000  0.83300100  1
  C  C1  1  0.43130700  0.80404300  0.97372600  1
  C  C2  1  0.62633400  0.32807800  0.60527200  1
  C  C3  1  0.93130700  0.19595700  0.52627400  1
  C  C4  1  0.12633400  0.67192200  0.89472800  1
  C  C5  1  0.56869300  0.19595700  0.02627400  1
  C  C6  1  0.81999500  0.37214600  0.61769600  1
  C  C7  1  0.31999500  0.62785400  0.88230400  1
  C  C8  1  0.98494900  0.26031500  0.62384200  1
  C  C9  1  0.68000500  0.37214600  0.11769600  1
  C  C10  1  0.66973600  0.84900000  0.16699900  1
  C  C11  1  0.18000500  0.62785400  0.38230400  1
  C  C12  1  0.51505100  0.26031500  0.12384200  1
  C  C13  1  0.83026400  0.84900000  0.66699900  1
  C  C14  1  0.37366600  0.67192200  0.39472800  1
  C  C15  1  0.01505100  0.73968500  0.37615800  1
  C  C16  1  0.06869300  0.80404300  0.47372600  1
  C  C17  1  0.87366600  0.32807800  0.10527200  1
  C  C18  1  0.16973600  0.15100000  0.33300100  1
  C  C19  1  0.48494900  0.73968500  0.87615800  1
  N  N0  1  0.96549500  0.81157400  0.42878800  1
  N  N1  1  0.46549500  0.18842600  0.07121200  1
  N  N2  1  0.53450500  0.81157400  0.92878800  1
  N  N3  1  0.03450500  0.18842600  0.57121200  1
  O  O0  1  0.99401600  0.85780500  0.63808000  1
  O  O1  1  0.00598400  0.14219500  0.36192000  1
  O  O2  1  0.50598400  0.85780500  0.13808000  1
  O  O3  1  0.49401600  0.14219500  0.86192000  1
  F  F0  1  0.96638600  0.13170900  0.75826600  1
  F  F1  1  0.13277100  0.48031700  0.74343400  1
  F  F2  1  0.76487900  0.69031600  0.67370800  1
  F  F3  1  0.42538100  0.79264700  0.36226200  1
  F  F4  1  0.81428200  0.98573300  0.92745300  1
  F  F5  1  0.03361400  0.86829100  0.24173400  1
  F  F6  1  0.73512100  0.69031600  0.17370800  1
  F  F7  1  0.07461900  0.79264700  0.86226200  1
  F  F8  1  0.26487900  0.30968400  0.82629200  1
  F  F9  1  0.86722900  0.51968300  0.25656600  1
  F  F10  1  0.31428200  0.01426700  0.57254700  1
  F  F11  1  0.38703100  0.51122200  0.56036900  1
  F  F12  1  0.68571800  0.98573300  0.42745300  1
  F  F13  1  0.63277100  0.51968300  0.75656600  1
  F  F14  1  0.23512100  0.30968400  0.32629200  1
  F  F15  1  0.92538100  0.20735300  0.13773800  1
  F  F16  1  0.46638600  0.86829100  0.74173400  1
  F  F17  1  0.88703100  0.48877800  0.93963100  1
  F  F18  1  0.11296900  0.51122200  0.06036900  1
  F  F19  1  0.57461900  0.20735300  0.63773800  1
  F  F20  1  0.18571800  0.01426700  0.07254700  1
  F  F21  1  0.61296900  0.48877800  0.43963100  1
  F  F22  1  0.36722900  0.48031700  0.24343400  1
  F  F23  1  0.53361400  0.13170900  0.25826600  1
loop_
_geom_bond_atom_site_label_1
_geom_bond_atom_site_label_2
_geom_bond_distance
_geom_bond_site_symmetry_2
H0 H17 0.755256 1_555
H2 Te1 1.688669 1_555
H3 N1 1.499374 1_555
H4 N0 1.499374 1_555
H9 Te1 1.671722 1_545
H12 Te3 1.671722 1_565
H24 H50 0.755256 1_555
H30 N2 1.499374 1_555
H33 Te0 1.671722 1_565
H37 N3 1.499374 1_555
H42 H7 0.755256 1_555
H43 H45 0.755256 1_555
H48 Te2 1.688669 1_555
H51 Te2 1.671722 1_545
H52 Te3 1.688669 1_555
H55 Te0 1.688669 1_555
C0 H23 1.100497 1_555
C0 H56 1.102154 1_555
C0 O3 1.335865 1_555
C0 F8 1.508483 1_555
C1 H41 1.093639 1_556
C1 H14 1.106970 1_555
C1 N2 1.267106 1_555
C2 F19 1.339812 1_555
C2 C6 1.458225 1_555
C2 H49 1.505656 1_555
C3 H26 1.093639 1_555
C3 H15 1.106970 1_555
C3 N3 1.267106 1_655
C4 F7 1.339812 1_555
C4 C7 1.458225 1_555
C4 H1 1.505656 1_455
C5 H34 1.093639 1_554
C5 H58 1.106970 1_555
C5 N1 1.267106 1_555
C6 H16 1.095718 1_555
C6 H38 1.115478 1_555
C7 H20 1.095718 1_555
C7 H31 1.115478 1_555
C8 H59 1.099848 1_555
C8 H35 1.099965 1_655
C8 N3 1.454899 1_655
C9 H32 1.095718 1_555
C9 H39 1.115478 1_555
C10 H5 1.100497 1_555
C10 H57 1.102154 1_555
C10 O2 1.335865 1_555
C10 F6 1.508483 1_555
C11 H53 1.095718 1_555
C11 H36 1.115478 1_555
C11 C14 1.458225 1_555
C12 H10 1.099848 1_555
C12 H13 1.099965 1_555
C12 N1 1.454899 1_555
C13 H22 1.100497 1_555
C13 H29 1.102154 1_555
C13 O0 1.335865 1_555
C13 F2 1.508483 1_555
C14 F3 1.339812 1_555
C14 H40 1.505656 1_555
C15 H46 1.099848 1_555
C15 H18 1.099965 1_455
C15 N0 1.454899 1_455
C16 H25 1.093639 1_555
C16 H28 1.106970 1_555
C16 N0 1.267106 1_455
C17 F15 1.339812 1_555
C17 C9 1.458225 1_555
C17 H11 1.505656 1_655
C18 H54 1.100497 1_555
C18 H19 1.102154 1_555
C18 O1 1.335865 1_555
C18 F14 1.508483 1_555
C19 H21 1.099848 1_555
C19 H47 1.099965 1_555
C19 N2 1.454899 1_555
O0 Te1 2.113906 1_655
O1 Te0 2.113906 1_455
O2 Te2 2.113906 1_555
O3 Te3 2.113906 1_555
F0 Te3 2.056561 1_555
F1 H27 0.963973 1_555
F2 H6 1.615518 1_555
F4 H30 1.030468 1_555
F5 Te2 2.056561 1_555
F6 H8 1.615518 1_555
F8 H27 1.615518 1_555
F9 H8 0.963973 1_555
F10 H37 1.030468 1_555
F11 H49 1.054724 1_555
F12 H4 1.030468 1_555
F13 H6 0.963973 1_555
F14 H44 1.615518 1_555
F16 Te1 2.056561 1_555
F17 H1 1.054724 1_555
F18 H11 1.054724 1_555
F20 H3 1.030468 1_555
F21 H40 1.054724 1_555
F22 H44 0.963973 1_555
F23 Te0 2.056561 1_555
