# generated using pymatgen
data_BaSrLuBiO6
_symmetry_space_group_name_H-M   'P 1'
_cell_length_a   6.02612500
_cell_length_b   6.02596700
_cell_length_c   10.44052868
_cell_angle_alpha   54.69470189
_cell_angle_beta   90.00000000
_cell_angle_gamma   90.00000000
_symmetry_Int_Tables_number   1
_chemical_formula_structural   BaSrLuBiO6
_chemical_formula_sum   'Ba2 Sr2 Lu2 Bi2 O12'
_cell_volume   309.40143254
_cell_formula_units_Z   2
loop_
 _symmetry_equiv_pos_site_id
 _symmetry_equiv_pos_as_xyz
  1  'x, y, z'
loop_
 _atom_site_type_symbol
 _atom_site_label
 _atom_site_symmetry_multiplicity
 _atom_site_fract_x
 _atom_site_fract_y
 _atom_site_fract_z
 _atom_site_occupancy
  Ba  Ba0  1  0.26517500  0.25317200  0.25022800  1
  Ba  Ba1  1  0.73482500  0.25317200  0.75022800  1
  Sr  Sr0  1  0.22584900  0.74302500  0.74992900  1
  Sr  Sr1  1  0.77415100  0.74302500  0.24992900  1
  Lu  Lu0  1  0.74916900  0.49955900  0.00019600  1
  Lu  Lu1  1  0.25083100  0.49955900  0.50019600  1
  Bi  Bi0  1  0.74910100  0.00035500  0.49969400  1
  Bi  Bi1  1  0.25089900  0.00035500  0.99969400  1
  O  O0  1  0.53589400  0.31891800  0.46066800  1
  O  O1  1  0.46410600  0.31891800  0.96066800  1
  O  O2  1  0.97744700  0.70232900  0.53051200  1
  O  O3  1  0.02255300  0.70232900  0.03051200  1
  O  O4  1  0.76576100  0.80591300  0.74703600  1
  O  O5  1  0.23423900  0.80591300  0.24703600  1
  O  O6  1  0.74141200  0.17207100  0.25352500  1
  O  O7  1  0.25858800  0.17207100  0.75352500  1
  O  O8  1  0.01992200  0.25482800  0.46996900  1
  O  O9  1  0.98007800  0.25482800  0.96996900  1
  O  O10  1  0.46890800  0.74983000  0.53824300  1
  O  O11  1  0.53109200  0.74983000  0.03824300  1
loop_
_geom_bond_atom_site_label_1
_geom_bond_atom_site_label_2
_geom_bond_distance
_geom_bond_site_symmetry_2
Ba0 O5 2.720958 1_545
Ba0 O8 2.733905 1_555
Ba0 O3 2.747546 1_555
Ba0 O6 2.908040 1_555
Ba0 O0 2.941391 1_555
Ba0 O11 2.960923 1_555
Ba0 O10 3.034313 1_545
Ba0 O1 3.057634 1_554
Ba0 O6 3.191013 1_455
Ba0 O5 3.316893 1_555
Ba0 O2 3.370509 1_445
Ba0 O9 3.388179 1_454
Ba1 O4 2.720958 1_545
Ba1 O9 2.733905 1_555
Ba1 O2 2.747546 1_555
Ba1 O7 2.908040 1_555
Ba1 O1 2.941391 1_555
Ba1 O10 2.960923 1_555
Ba1 O11 3.034313 1_546
Ba1 O0 3.057634 1_555
Ba1 O7 3.191013 1_655
Ba1 O4 3.316893 1_555
Ba1 O3 3.370509 1_646
Ba1 O8 3.388179 1_655
Lu0 O9 2.179137 1_554
Lu0 O3 2.180433 1_655
Lu0 O4 2.182695 1_554
Lu0 O1 2.196680 1_554
Lu0 O11 2.202657 1_555
Lu0 O6 2.204314 1_555
Lu1 O8 2.179137 1_555
Lu1 O2 2.180433 1_455
Lu1 O5 2.182695 1_555
Lu1 O0 2.196680 1_555
Lu1 O10 2.202657 1_555
Lu1 O7 2.204314 1_555
Bi0 O4 2.134071 1_545
Bi0 O2 2.134092 1_545
Bi0 O8 2.135679 1_655
Bi0 O10 2.142359 1_545
Bi0 O0 2.144233 1_555
Bi0 O6 2.145804 1_555
Bi1 O5 2.134071 1_546
Bi1 O3 2.134092 1_546
Bi1 O9 2.135679 1_455
Bi1 O11 2.142359 1_546
Bi1 O1 2.144233 1_555
Bi1 O7 2.145804 1_555
O0 Sr1 2.633313 1_555
O1 Sr0 2.633313 1_555
O2 Sr0 2.863233 1_655
O2 Sr1 3.051590 1_555
O3 Sr1 2.863233 1_455
O3 Sr0 3.051590 1_554
O4 Sr0 2.796125 1_655
O5 Sr1 2.796125 1_455
O6 Sr1 2.614749 1_545
O7 Sr0 2.614749 1_545
O8 Sr1 2.883389 1_455
O8 Sr0 3.029104 1_545
O9 Sr0 2.883389 1_655
O9 Sr1 3.029104 1_546
O10 Sr0 2.631898 1_555
O11 Sr1 2.631898 1_555
