# generated using pymatgen
data_Sr2Ca2IrO6
_symmetry_space_group_name_H-M   'P 1'
_cell_length_a   6.79431567
_cell_length_b   6.79431567
_cell_length_c   6.75636213
_cell_angle_alpha   88.43775017
_cell_angle_beta   88.43775017
_cell_angle_gamma   91.01290547
_symmetry_Int_Tables_number   1
_chemical_formula_structural   Sr2Ca2IrO6
_chemical_formula_sum   'Sr4 Ca4 Ir2 O12'
_cell_volume   311.60730815
_cell_formula_units_Z   2
loop_
 _symmetry_equiv_pos_site_id
 _symmetry_equiv_pos_as_xyz
  1  'x, y, z'
loop_
 _atom_site_type_symbol
 _atom_site_label
 _atom_site_symmetry_multiplicity
 _atom_site_fract_x
 _atom_site_fract_y
 _atom_site_fract_z
 _atom_site_occupancy
  Sr  Sr0  1  0.11443200  0.88556800  0.00000000  1
  Sr  Sr1  1  0.61401500  0.74887500  0.86323800  1
  Sr  Sr2  1  0.88523500  0.11476500  0.50000000  1
  Sr  Sr3  1  0.25112500  0.38598500  0.13676200  1
  Ca  Ca0  1  0.74859300  0.25140700  0.00000000  1
  Ca  Ca1  1  0.25106900  0.74893100  0.50000000  1
  Ca  Ca2  1  0.74896400  0.60933600  0.36080200  1
  Ca  Ca3  1  0.39066400  0.25103600  0.63919800  1
  Ir  Ir0  1  0.50109300  0.00217100  0.25119300  1
  Ir  Ir1  1  0.99782900  0.49890700  0.74880700  1
  O  O0  1  0.57886300  0.29154000  0.30697600  1
  O  O1  1  0.44990700  0.08424000  0.95738800  1
  O  O2  1  0.78724800  0.94408200  0.17305100  1
  O  O3  1  0.28817700  0.57234700  0.79729900  1
  O  O4  1  0.94639300  0.78548500  0.66717100  1
  O  O5  1  0.07557200  0.45148600  0.46073700  1
  O  O6  1  0.42765300  0.71182300  0.20270100  1
  O  O7  1  0.54851400  0.92442800  0.53926300  1
  O  O8  1  0.21451500  0.05360700  0.33282900  1
  O  O9  1  0.70846000  0.42113700  0.69302400  1
  O  O10  1  0.05591800  0.21275200  0.82694900  1
  O  O11  1  0.91576000  0.55009300  0.04261200  1
loop_
_geom_bond_atom_site_label_1
_geom_bond_atom_site_label_2
_geom_bond_distance
_geom_bond_site_symmetry_2
Ca0 O11 2.336541 1_555
Ca0 O1 2.336541 1_554
Ca0 O0 2.370107 1_555
Ca0 O9 2.370107 1_554
Ca0 O2 2.387261 1_545
Ca0 O10 2.387261 1_654
Ca1 O6 2.333372 1_555
Ca1 O3 2.333372 1_555
Ca1 O8 2.351284 1_565
Ca1 O4 2.351284 1_455
Ca1 O7 2.353212 1_555
Ca1 O5 2.353212 1_555
Ca2 O11 2.449173 1_555
Ca2 O0 2.471360 1_555
Ca2 O6 2.555800 1_555
Ca2 O9 2.558599 1_555
Ca2 O2 2.579404 1_555
Ca2 O5 2.580072 1_655
Ca2 O4 2.783176 1_555
Ca2 O7 2.836568 1_555
Ca3 O1 2.449173 1_555
Ca3 O9 2.471360 1_555
Ca3 O3 2.555800 1_555
Ca3 O0 2.558599 1_555
Ca3 O10 2.579404 1_555
Ca3 O7 2.580072 1_545
Ca3 O8 2.783176 1_555
Ca3 O5 2.836568 1_555
Ir0 O7 2.038399 1_545
Ir0 O8 2.047820 1_555
Ir0 O2 2.048670 1_545
Ir0 O6 2.063317 1_545
Ir0 O0 2.073931 1_555
Ir0 O1 2.087210 1_554
Ir1 O5 2.038399 1_655
Ir1 O4 2.047820 1_555
Ir1 O10 2.048670 1_655
Ir1 O3 2.063317 1_655
Ir1 O9 2.073931 1_555
Ir1 O11 2.087210 1_556
O0 Sr3 2.615852 1_555
O0 Sr2 2.761766 1_555
O1 Sr0 2.633348 1_546
O1 Sr1 2.640067 1_545
O1 Sr3 2.764067 1_556
O2 Sr0 2.526190 1_655
O2 Sr2 2.619210 1_565
O2 Sr1 2.785038 1_554
O3 Sr1 2.554830 1_555
O3 Sr3 2.593423 1_556
O3 Sr0 2.820923 1_556
O4 Sr2 2.524727 1_565
O4 Sr1 2.591446 1_555
O4 Sr0 2.649250 1_656
O5 Sr3 2.518236 1_555
O5 Sr2 2.611578 1_455
O6 Sr3 2.554830 1_555
O6 Sr1 2.593423 1_554
O6 Sr0 2.820923 1_555
O7 Sr1 2.518236 1_555
O7 Sr2 2.611578 1_565
O8 Sr2 2.524727 1_455
O8 Sr3 2.591446 1_555
O8 Sr0 2.649250 1_545
O9 Sr1 2.615852 1_555
O9 Sr2 2.761766 1_555
O10 Sr0 2.526190 1_546
O10 Sr2 2.619210 1_455
O10 Sr3 2.785038 1_556
O11 Sr0 2.633348 1_655
O11 Sr3 2.640067 1_655
O11 Sr1 2.764067 1_554
