# generated using pymatgen
data_CuTeO5
_symmetry_space_group_name_H-M   'P 1'
_cell_length_a   4.80301100
_cell_length_b   7.75806500
_cell_length_c   10.76740600
_cell_angle_alpha   90.00000000
_cell_angle_beta   90.00000000
_cell_angle_gamma   90.00000000
_symmetry_Int_Tables_number   1
_chemical_formula_structural   CuTeO5
_chemical_formula_sum   'Cu4 Te4 O20'
_cell_volume   401.21585260
_cell_formula_units_Z   4
loop_
 _symmetry_equiv_pos_site_id
 _symmetry_equiv_pos_as_xyz
  1  'x, y, z'
loop_
 _atom_site_type_symbol
 _atom_site_label
 _atom_site_symmetry_multiplicity
 _atom_site_fract_x
 _atom_site_fract_y
 _atom_site_fract_z
 _atom_site_occupancy
  Cu  Cu0  1  0.32030000  0.64037300  0.31858400  1
  Cu  Cu1  1  0.17970000  0.14037300  0.68141600  1
  Cu  Cu2  1  0.82030000  0.35962700  0.18141600  1
  Cu  Cu3  1  0.67970000  0.85962700  0.81858400  1
  Te  Te0  1  0.57664600  0.94127600  0.11865000  1
  Te  Te1  1  0.92335400  0.44127600  0.88135000  1
  Te  Te2  1  0.07664600  0.05872400  0.38135000  1
  Te  Te3  1  0.42335400  0.55872400  0.61865000  1
  O  O0  1  0.21452400  0.29625800  0.24681200  1
  O  O1  1  0.28547600  0.79625800  0.75318800  1
  O  O2  1  0.71452400  0.70374200  0.25318800  1
  O  O3  1  0.78547600  0.20374200  0.74681200  1
  O  O4  1  0.78666000  0.11075500  0.21604100  1
  O  O5  1  0.71334000  0.61075500  0.78395900  1
  O  O6  1  0.28666000  0.88924500  0.28395900  1
  O  O7  1  0.21334000  0.38924500  0.71604100  1
  O  O8  1  0.19625600  0.64001000  0.48892200  1
  O  O9  1  0.30374400  0.14001000  0.51107800  1
  O  O10  1  0.69625600  0.35999000  0.01107800  1
  O  O11  1  0.80374400  0.85999000  0.98892200  1
  O  O12  1  0.91747600  0.59153500  0.22581300  1
  O  O13  1  0.58252400  0.09153500  0.77418700  1
  O  O14  1  0.41747600  0.40846500  0.27418700  1
  O  O15  1  0.08252400  0.90846500  0.72581300  1
  O  O16  1  0.31068300  0.06443400  0.03866500  1
  O  O17  1  0.18931700  0.56443400  0.96133500  1
  O  O18  1  0.81068300  0.93556600  0.46133500  1
  O  O19  1  0.68931700  0.43556600  0.53866500  1
loop_
_geom_bond_atom_site_label_1
_geom_bond_atom_site_label_2
_geom_bond_distance
_geom_bond_site_symmetry_2
Cu0 O14 1.919201 1_555
Cu0 O8 1.928441 1_555
Cu0 O6 1.973057 1_555
Cu0 O2 2.079113 1_555
Cu0 O12 2.210134 1_455
Cu1 O15 1.919201 1_545
Cu1 O9 1.928441 1_555
Cu1 O7 1.973057 1_555
Cu1 O3 2.079113 1_455
Cu1 O13 2.210134 1_555
Cu2 O12 1.919201 1_555
Cu2 O10 1.928441 1_555
Cu2 O4 1.973057 1_555
Cu2 O0 2.079113 1_655
Cu2 O14 2.210134 1_555
Cu3 O13 1.919201 1_565
Cu3 O11 1.928441 1_555
Cu3 O5 1.973057 1_555
Cu3 O1 2.079113 1_555
Cu3 O15 2.210134 1_655
O0 O14 1.339726 1_555
O0 Te2 2.435773 1_555
O1 O15 1.339726 1_555
O1 Te3 2.435773 1_555
O2 Te0 2.435773 1_555
O3 Te1 2.435773 1_555
O4 Te0 1.961100 1_545
O4 Te2 2.295881 1_655
O5 Te1 1.961100 1_555
O5 Te3 2.295881 1_555
O6 Te2 1.961100 1_565
O6 Te0 2.295881 1_555
O7 Te3 1.961100 1_555
O7 Te1 2.295881 1_455
O8 Te3 1.881110 1_555
O9 Te2 1.881110 1_555
O10 Te1 1.881110 1_554
O11 Te0 1.881110 1_556
O12 O2 1.339726 1_555
O13 O3 1.339726 1_555
O16 Te0 1.812856 1_545
O17 Te1 1.812856 1_455
O18 Te2 1.812856 1_665
O19 Te3 1.812856 1_555
