# generated using pymatgen
data_Nd(Ga4Fe)2
_symmetry_space_group_name_H-M   'P 1'
_cell_length_a   4.04326000
_cell_length_b   12.68929400
_cell_length_c   14.36417600
_cell_angle_alpha   90.00000000
_cell_angle_beta   90.00000000
_cell_angle_gamma   90.00000000
_symmetry_Int_Tables_number   1
_chemical_formula_structural   Nd(Ga4Fe)2
_chemical_formula_sum   'Nd4 Ga32 Fe8'
_cell_volume   736.97006370
_cell_formula_units_Z   4
loop_
 _symmetry_equiv_pos_site_id
 _symmetry_equiv_pos_as_xyz
  1  'x, y, z'
loop_
 _atom_site_type_symbol
 _atom_site_label
 _atom_site_symmetry_multiplicity
 _atom_site_fract_x
 _atom_site_fract_y
 _atom_site_fract_z
 _atom_site_occupancy
  Nd  Nd0  1  0.00000000  0.84268100  0.18128600  1
  Nd  Nd1  1  0.00000000  0.15731900  0.81871400  1
  Nd  Nd2  1  0.00000000  0.65731900  0.68128600  1
  Nd  Nd3  1  0.00000000  0.34268100  0.31871400  1
  Ga  Ga0  1  0.00000000  0.50000000  0.50000000  1
  Ga  Ga1  1  0.00000000  0.00000000  0.00000000  1
  Ga  Ga2  1  0.50000000  0.00000000  0.50000000  1
  Ga  Ga3  1  0.50000000  0.50000000  0.00000000  1
  Ga  Ga4  1  0.50000000  0.73873700  0.32708100  1
  Ga  Ga5  1  0.50000000  0.26126300  0.67291900  1
  Ga  Ga6  1  0.50000000  0.76126300  0.82708100  1
  Ga  Ga7  1  0.50000000  0.23873700  0.17291900  1
  Ga  Ga8  1  0.50000000  0.95070000  0.31936200  1
  Ga  Ga9  1  0.50000000  0.04930000  0.68063800  1
  Ga  Ga10  1  0.50000000  0.54930000  0.81936200  1
  Ga  Ga11  1  0.50000000  0.45070000  0.18063800  1
  Ga  Ga12  1  0.50000000  0.66310600  0.12101000  1
  Ga  Ga13  1  0.50000000  0.33689400  0.87899000  1
  Ga  Ga14  1  0.50000000  0.83689400  0.62101000  1
  Ga  Ga15  1  0.50000000  0.16310600  0.37899000  1
  Ga  Ga16  1  0.00000000  0.83565400  0.45390200  1
  Ga  Ga17  1  0.00000000  0.16434600  0.54609800  1
  Ga  Ga18  1  0.00000000  0.66434600  0.95390200  1
  Ga  Ga19  1  0.00000000  0.33565400  0.04609800  1
  Ga  Ga20  1  0.00000000  0.59781900  0.24485800  1
  Ga  Ga21  1  0.00000000  0.40218100  0.75514200  1
  Ga  Ga22  1  0.00000000  0.90218100  0.74485800  1
  Ga  Ga23  1  0.00000000  0.09781900  0.25514200  1
  Ga  Ga24  1  0.50000000  0.83142900  0.01060800  1
  Ga  Ga25  1  0.50000000  0.16857100  0.98939200  1
  Ga  Ga26  1  0.50000000  0.66857100  0.51060800  1
  Ga  Ga27  1  0.50000000  0.33142900  0.48939200  1
  Ga  Ga28  1  0.50000000  0.52537100  0.36627800  1
  Ga  Ga29  1  0.50000000  0.47462900  0.63372200  1
  Ga  Ga30  1  0.50000000  0.97462900  0.86627800  1
  Ga  Ga31  1  0.50000000  0.02537100  0.13372200  1
  Fe  Fe0  1  0.00000000  0.65095200  0.40273000  1
  Fe  Fe1  1  0.00000000  0.34904800  0.59727000  1
  Fe  Fe2  1  0.00000000  0.84904800  0.90273000  1
  Fe  Fe3  1  0.00000000  0.15095200  0.09727000  1
  Fe  Fe4  1  0.00000000  0.53449700  0.09121500  1
  Fe  Fe5  1  0.00000000  0.46550300  0.90878500  1
  Fe  Fe6  1  0.00000000  0.96550300  0.59121500  1
  Fe  Fe7  1  0.00000000  0.03449700  0.40878500  1
loop_
_geom_bond_atom_site_label_1
_geom_bond_atom_site_label_2
_geom_bond_distance
_geom_bond_site_symmetry_2
Ga0 Ga28 2.807157 1_555
Ga0 Ga28 2.807157 1_455
Ga0 Ga29 2.807157 1_455
Ga0 Ga29 2.807157 1_555
Ga0 Ga27 2.947156 1_555
Ga0 Ga27 2.947156 1_455
Ga0 Ga26 2.947156 1_555
Ga0 Ga26 2.947156 1_455
Ga0 Nd2 3.281162 1_555
Ga0 Nd3 3.281162 1_555
Ga1 Ga31 2.807157 1_455
Ga1 Ga31 2.807157 1_555
Ga1 Ga30 2.807157 1_444
Ga1 Ga30 2.807157 1_544
Ga1 Ga25 2.947156 1_454
Ga1 Ga24 2.947156 1_445
Ga1 Ga25 2.947156 1_554
Ga1 Ga24 2.947156 1_545
Ga1 Nd1 3.281162 1_554
Ga1 Nd0 3.281162 1_545
Ga2 Ga9 2.669064 1_555
Ga2 Ga8 2.669064 1_545
Ga4 Ga8 2.691945 1_555
Ga4 Nd0 3.195695 1_555
Ga4 Nd0 3.195695 1_655
Ga5 Ga9 2.691945 1_555
Ga5 Nd1 3.195695 1_655
Ga5 Nd1 3.195695 1_555
Ga6 Nd2 3.195695 1_555
Ga6 Nd2 3.195695 1_655
Ga7 Nd3 3.195695 1_555
Ga7 Nd3 3.195695 1_655
Ga8 Nd0 3.146337 1_655
Ga8 Nd0 3.146337 1_555
Ga9 Nd1 3.146337 1_655
Ga9 Nd1 3.146337 1_555
Ga10 Ga3 2.669064 1_556
Ga10 Ga6 2.691945 1_555
Ga10 Ga13 2.828100 1_555
Ga10 Ga29 2.829906 1_555
Ga10 Ga21 2.902242 1_655
Ga10 Ga21 2.902242 1_555
Ga10 Nd2 3.146337 1_555
Ga10 Nd2 3.146337 1_655
Ga11 Ga3 2.669064 1_555
Ga11 Ga7 2.691945 1_555
Ga11 Ga12 2.828100 1_555
Ga11 Ga28 2.829906 1_555
Ga11 Ga20 2.902242 1_555
Ga11 Ga20 2.902242 1_655
Ga11 Nd3 3.146337 1_655
Ga11 Nd3 3.146337 1_555
Ga12 Ga24 2.660251 1_555
Ga12 Ga3 2.702782 1_555
Ga12 Ga20 2.817456 1_555
Ga12 Ga20 2.817456 1_655
Ga12 Ga4 3.111731 1_555
Ga12 Ga18 3.138313 1_554
Ga12 Ga18 3.138313 1_654
Ga12 Nd0 3.166861 1_555
Ga12 Nd0 3.166861 1_655
Ga13 Ga25 2.660251 1_555
Ga13 Ga3 2.702782 1_556
Ga13 Ga21 2.817456 1_655
Ga13 Ga21 2.817456 1_555
Ga13 Ga5 3.111731 1_555
Ga13 Ga19 3.138313 1_556
Ga13 Ga19 3.138313 1_656
Ga13 Nd1 3.166861 1_655
Ga13 Nd1 3.166861 1_555
Ga14 Ga26 2.660251 1_555
Ga14 Ga2 2.702782 1_565
Ga14 Ga22 2.817456 1_655
Ga14 Ga22 2.817456 1_555
Ga14 Ga9 2.828100 1_565
Ga14 Ga6 3.111731 1_555
Ga14 Ga16 3.138313 1_555
Ga14 Ga16 3.138313 1_655
Ga14 Nd2 3.166861 1_655
Ga14 Nd2 3.166861 1_555
Ga15 Ga27 2.660251 1_555
Ga15 Ga2 2.702782 1_555
Ga15 Ga23 2.817456 1_555
Ga15 Ga23 2.817456 1_655
Ga15 Ga8 2.828100 1_545
Ga15 Ga7 3.111731 1_555
Ga15 Ga17 3.138313 1_555
Ga15 Ga17 3.138313 1_655
Ga15 Nd3 3.166861 1_655
Ga15 Nd3 3.166861 1_555
Ga16 Ga2 2.979007 1_565
Ga16 Ga2 2.979007 1_465
Ga16 Ga4 2.986291 1_555
Ga16 Ga4 2.986291 1_455
Ga16 Ga26 3.040651 1_455
Ga16 Ga26 3.040651 1_555
Ga17 Ga2 2.979007 1_555
Ga17 Ga2 2.979007 1_455
Ga17 Ga5 2.986291 1_555
Ga17 Ga5 2.986291 1_455
Ga17 Ga27 3.040651 1_555
Ga17 Ga27 3.040651 1_455
Ga18 Ga3 2.979007 1_556
Ga18 Ga3 2.979007 1_456
Ga18 Ga6 2.986291 1_555
Ga18 Ga6 2.986291 1_455
Ga18 Ga24 3.040651 1_556
Ga18 Ga24 3.040651 1_456
Ga19 Ga3 2.979007 1_555
Ga19 Ga3 2.979007 1_455
Ga19 Ga7 2.986291 1_555
Ga19 Ga7 2.986291 1_455
Ga19 Ga25 3.040651 1_554
Ga19 Ga25 3.040651 1_454
Ga20 Ga28 2.823828 1_555
Ga20 Ga28 2.823828 1_455
Ga20 Ga4 2.946079 1_555
Ga20 Ga4 2.946079 1_455
Ga20 Nd0 3.238532 1_555
Ga20 Nd3 3.406906 1_555
Ga21 Ga29 2.823828 1_555
Ga21 Ga29 2.823828 1_455
Ga21 Ga5 2.946079 1_555
Ga21 Ga5 2.946079 1_455
Ga21 Nd1 3.238532 1_555
Ga21 Nd2 3.406906 1_555
Ga22 Ga30 2.823828 1_555
Ga22 Ga30 2.823828 1_455
Ga22 Ga9 2.902242 1_465
Ga22 Ga9 2.902242 1_565
Ga22 Ga6 2.946079 1_455
Ga22 Ga6 2.946079 1_555
Ga22 Nd2 3.238532 1_555
Ga22 Nd1 3.406906 1_565
Ga23 Ga31 2.823828 1_455
Ga23 Ga31 2.823828 1_555
Ga23 Ga8 2.902242 1_545
Ga23 Ga8 2.902242 1_445
Ga23 Ga7 2.946079 1_555
Ga23 Ga7 2.946079 1_455
Ga23 Nd3 3.238532 1_555
Ga23 Nd0 3.406906 1_545
Ga24 Ga30 2.756802 1_554
Ga24 Ga6 2.782510 1_554
Ga24 Ga31 3.030480 1_565
Ga24 Nd0 3.180873 1_655
Ga24 Nd0 3.180873 1_555
Ga25 Ga31 2.756802 1_556
Ga25 Ga7 2.782510 1_556
Ga25 Ga30 3.030480 1_545
Ga25 Nd1 3.180873 1_555
Ga25 Nd1 3.180873 1_655
Ga26 Ga28 2.756802 1_555
Ga26 Ga4 2.782510 1_555
Ga26 Ga29 3.030480 1_555
Ga26 Nd2 3.180873 1_555
Ga26 Nd2 3.180873 1_655
Ga27 Ga29 2.756802 1_555
Ga27 Ga5 2.782510 1_555
Ga27 Ga28 3.030480 1_555
Ga27 Nd3 3.180873 1_655
Ga27 Nd3 3.180873 1_555
Ga28 Ga4 2.765387 1_555
Ga28 Nd3 3.150850 1_555
Ga28 Nd3 3.150850 1_655
Ga29 Ga5 2.765387 1_555
Ga29 Nd2 3.150850 1_555
Ga29 Nd2 3.150850 1_655
Ga30 Ga6 2.765387 1_555
Ga30 Ga9 2.829906 1_565
Ga30 Nd1 3.150850 1_665
Ga30 Nd1 3.150850 1_565
Ga31 Ga7 2.765387 1_555
Ga31 Ga8 2.829906 1_545
Ga31 Nd0 3.150850 1_645
Ga31 Nd0 3.150850 1_545
Fe0 Ga20 2.365807 1_555
Fe0 Ga0 2.370911 1_555
Fe0 Ga16 2.456297 1_555
Fe0 Ga4 2.551197 1_455
Fe0 Ga4 2.551197 1_555
Fe0 Ga26 2.556984 1_555
Fe0 Ga26 2.556984 1_455
Fe0 Ga28 2.626880 1_555
Fe0 Ga28 2.626880 1_455
Fe1 Ga21 2.365807 1_555
Fe1 Ga0 2.370911 1_555
Fe1 Ga17 2.456297 1_555
Fe1 Ga5 2.551197 1_555
Fe1 Ga5 2.551197 1_455
Fe1 Ga27 2.556984 1_455
Fe1 Ga27 2.556984 1_555
Fe1 Ga29 2.626880 1_555
Fe1 Ga29 2.626880 1_455
Fe2 Ga22 2.365807 1_555
Fe2 Ga1 2.370911 1_566
Fe2 Ga18 2.456297 1_555
Fe2 Ga6 2.551197 1_455
Fe2 Ga6 2.551197 1_555
Fe2 Ga24 2.556984 1_456
Fe2 Ga24 2.556984 1_556
Fe2 Ga30 2.626880 1_455
Fe2 Ga30 2.626880 1_555
Fe3 Ga23 2.365807 1_555
Fe3 Ga1 2.370911 1_555
Fe3 Ga19 2.456297 1_555
Fe3 Ga7 2.551197 1_455
Fe3 Ga7 2.551197 1_555
Fe3 Ga25 2.556984 1_554
Fe3 Ga25 2.556984 1_454
Fe3 Ga31 2.626880 1_555
Fe3 Ga31 2.626880 1_455
Fe4 Ga20 2.348677 1_555
Fe4 Ga3 2.448531 1_555
Fe4 Ga3 2.448531 1_455
Fe4 Ga18 2.570059 1_554
Fe4 Ga19 2.605075 1_555
Fe4 Ga11 2.620602 1_555
Fe4 Ga11 2.620602 1_455
Fe4 Ga12 2.633143 1_555
Fe4 Ga12 2.633143 1_455
Fe4 Fe5 2.762837 1_554
Fe5 Ga21 2.348677 1_555
Fe5 Ga3 2.448531 1_556
Fe5 Ga3 2.448531 1_456
Fe5 Ga19 2.570059 1_556
Fe5 Ga18 2.605075 1_555
Fe5 Ga10 2.620602 1_455
Fe5 Ga10 2.620602 1_555
Fe5 Ga13 2.633143 1_555
Fe5 Ga13 2.633143 1_455
Fe6 Ga22 2.348677 1_555
Fe6 Ga2 2.448531 1_565
Fe6 Ga2 2.448531 1_465
Fe6 Ga16 2.570059 1_555
Fe6 Ga17 2.605075 1_565
Fe6 Ga9 2.620602 1_465
Fe6 Ga9 2.620602 1_565
Fe6 Ga14 2.633143 1_455
Fe6 Ga14 2.633143 1_555
Fe6 Fe7 2.762837 1_565
Fe7 Ga23 2.348677 1_555
Fe7 Ga2 2.448531 1_455
Fe7 Ga2 2.448531 1_555
Fe7 Ga17 2.570059 1_555
Fe7 Ga16 2.605075 1_545
Fe7 Ga8 2.620602 1_445
Fe7 Ga8 2.620602 1_545
Fe7 Ga15 2.633143 1_555
Fe7 Ga15 2.633143 1_455
