# generated using pymatgen
data_RbGd(MoO4)2
_symmetry_space_group_name_H-M   'P 1'
_cell_length_a   5.19432200
_cell_length_b   8.29729500
_cell_length_c   18.94408300
_cell_angle_alpha   90.00000000
_cell_angle_beta   90.00000000
_cell_angle_gamma   90.00000000
_symmetry_Int_Tables_number   1
_chemical_formula_structural   RbGd(MoO4)2
_chemical_formula_sum   'Rb4 Gd4 Mo8 O32'
_cell_volume   816.46766039
_cell_formula_units_Z   4
loop_
 _symmetry_equiv_pos_site_id
 _symmetry_equiv_pos_as_xyz
  1  'x, y, z'
loop_
 _atom_site_type_symbol
 _atom_site_label
 _atom_site_symmetry_multiplicity
 _atom_site_fract_x
 _atom_site_fract_y
 _atom_site_fract_z
 _atom_site_occupancy
  Rb  Rb0  1  0.00000000  0.75000000  0.76942000  1
  Rb  Rb1  1  0.00000000  0.25000000  0.23058000  1
  Rb  Rb2  1  0.50000000  0.25000000  0.73058000  1
  Rb  Rb3  1  0.50000000  0.75000000  0.26942000  1
  Gd  Gd0  1  0.00000000  0.75000000  0.00666900  1
  Gd  Gd1  1  0.00000000  0.25000000  0.99333100  1
  Gd  Gd2  1  0.50000000  0.25000000  0.49333100  1
  Gd  Gd3  1  0.50000000  0.75000000  0.50666900  1
  Mo  Mo0  1  0.02294200  0.51578500  0.40021600  1
  Mo  Mo1  1  0.97705800  0.48421500  0.59978400  1
  Mo  Mo2  1  0.47705800  0.01578500  0.09978400  1
  Mo  Mo3  1  0.97705800  0.98421500  0.40021600  1
  Mo  Mo4  1  0.52294200  0.98421500  0.90021600  1
  Mo  Mo5  1  0.02294200  0.01578500  0.59978400  1
  Mo  Mo6  1  0.52294200  0.48421500  0.09978400  1
  Mo  Mo7  1  0.47705800  0.51578500  0.90021600  1
  O  O0  1  0.09852100  0.97471500  0.31404800  1
  O  O1  1  0.90147900  0.02528500  0.68595200  1
  O  O2  1  0.40147900  0.47471500  0.18595200  1
  O  O3  1  0.90147900  0.52528500  0.31404800  1
  O  O4  1  0.59852100  0.52528500  0.81404800  1
  O  O5  1  0.09852100  0.47471500  0.68595200  1
  O  O6  1  0.59852100  0.02528500  0.18595200  1
  O  O7  1  0.40147900  0.97471500  0.81404800  1
  O  O8  1  0.27072500  0.84140800  0.09803100  1
  O  O9  1  0.72927500  0.15859200  0.90196900  1
  O  O10  1  0.22927500  0.34140800  0.40196900  1
  O  O11  1  0.72927500  0.65859200  0.09803100  1
  O  O12  1  0.77072500  0.65859200  0.59803100  1
  O  O13  1  0.27072500  0.34140800  0.90196900  1
  O  O14  1  0.77072500  0.15859200  0.40196900  1
  O  O15  1  0.22927500  0.84140800  0.59803100  1
  O  O16  1  0.25038400  0.50391400  0.03623300  1
  O  O17  1  0.74961600  0.49608600  0.96376700  1
  O  O18  1  0.24961600  0.00391400  0.46376700  1
  O  O19  1  0.74961600  0.99608600  0.03623300  1
  O  O20  1  0.75038400  0.99608600  0.53623300  1
  O  O21  1  0.25038400  0.00391400  0.96376700  1
  O  O22  1  0.75038400  0.49608600  0.46376700  1
  O  O23  1  0.24961600  0.50391400  0.53623300  1
  O  O24  1  0.23934000  0.68682400  0.41036700  1
  O  O25  1  0.76066000  0.31317600  0.58963300  1
  O  O26  1  0.26066000  0.18682400  0.08963300  1
  O  O27  1  0.76066000  0.81317600  0.41036700  1
  O  O28  1  0.73934000  0.81317600  0.91036700  1
  O  O29  1  0.23934000  0.18682400  0.58963300  1
  O  O30  1  0.73934000  0.31317600  0.08963300  1
  O  O31  1  0.26066000  0.68682400  0.91036700  1
loop_
_geom_bond_atom_site_label_1
_geom_bond_atom_site_label_2
_geom_bond_distance
_geom_bond_site_symmetry_2
Gd0 O31 2.331571 1_554
Gd0 O28 2.331571 1_454
Gd0 O8 2.355479 1_555
Gd0 O11 2.355479 1_455
Gd0 O19 2.484816 1_455
Gd0 O16 2.484816 1_555
Gd0 O21 2.605886 1_564
Gd0 O17 2.605886 1_454
Gd1 O30 2.331571 1_456
Gd1 O26 2.331571 1_556
Gd1 O9 2.355479 1_455
Gd1 O13 2.355479 1_555
Gd1 O21 2.484816 1_555
Gd1 O17 2.484816 1_455
Gd1 O16 2.605886 1_556
Gd1 O19 2.605886 1_446
Gd2 O25 2.331571 1_555
Gd2 O29 2.331571 1_555
Gd2 O14 2.355479 1_555
Gd2 O10 2.355479 1_555
Gd2 O18 2.484816 1_555
Gd2 O22 2.484816 1_555
Gd2 O23 2.605886 1_555
Gd2 O20 2.605886 1_545
Gd3 O27 2.331571 1_555
Gd3 O24 2.331571 1_555
Gd3 O15 2.355479 1_555
Gd3 O12 2.355479 1_555
Gd3 O23 2.484816 1_555
Gd3 O20 2.484816 1_555
Gd3 O18 2.605886 1_565
Gd3 O22 2.605886 1_555
Mo0 O3 1.751832 1_455
Mo0 O10 1.800880 1_555
Mo0 O24 1.820567 1_555
Mo0 O22 1.865606 1_455
Mo1 O5 1.751832 1_655
Mo1 O12 1.800880 1_555
Mo1 O25 1.820567 1_555
Mo1 O23 1.865606 1_655
Mo2 O6 1.751832 1_555
Mo2 O8 1.800880 1_545
Mo2 O26 1.820567 1_555
Mo2 O19 1.865606 1_545
Mo3 O0 1.751832 1_655
Mo3 O14 1.800880 1_565
Mo3 O27 1.820567 1_555
Mo3 O18 1.865606 1_665
Mo4 O7 1.751832 1_555
Mo4 O9 1.800880 1_565
Mo4 O28 1.820567 1_555
Mo4 O21 1.865606 1_565
Mo5 O1 1.751832 1_455
Mo5 O15 1.800880 1_545
Mo5 O29 1.820567 1_555
Mo5 O20 1.865606 1_445
Mo6 O2 1.751832 1_555
Mo6 O11 1.800880 1_555
Mo6 O30 1.820567 1_555
Mo6 O16 1.865606 1_555
Mo7 O4 1.751832 1_555
Mo7 O13 1.800880 1_555
Mo7 O31 1.820567 1_555
Mo7 O17 1.865606 1_555
O0 Rb1 2.824777 1_565
O0 Rb3 2.922356 1_555
O1 Rb0 2.824777 1_645
O1 Rb2 2.922356 1_555
O2 Rb3 2.824777 1_555
O2 Rb1 2.922356 1_555
O3 Rb1 2.824777 1_655
O3 Rb3 2.922356 1_555
O4 Rb2 2.824777 1_555
O4 Rb0 2.922356 1_655
O5 Rb0 2.824777 1_555
O5 Rb2 2.922356 1_555
O6 Rb3 2.824777 1_545
O6 Rb1 2.922356 1_655
O7 Rb2 2.824777 1_565
O7 Rb0 2.922356 1_555
O24 Rb3 3.039319 1_555
O25 Rb2 3.039319 1_555
O26 Rb1 3.039319 1_555
O27 Rb3 3.039319 1_555
O28 Rb0 3.039319 1_655
O29 Rb2 3.039319 1_555
O30 Rb1 3.039319 1_655
O31 Rb0 3.039319 1_555
