# generated using pymatgen
data_Y2Fe17
_symmetry_space_group_name_H-M   'P 1'
_cell_length_a   6.42258269
_cell_length_b   6.42265340
_cell_length_c   6.42264485
_cell_angle_alpha   83.45296640
_cell_angle_beta   83.45232704
_cell_angle_gamma   83.45276721
_symmetry_Int_Tables_number   1
_chemical_formula_structural   Y2Fe17
_chemical_formula_sum   'Y2 Fe17'
_cell_volume   260.11642501
_cell_formula_units_Z   1
loop_
 _symmetry_equiv_pos_site_id
 _symmetry_equiv_pos_as_xyz
  1  'x, y, z'
loop_
 _atom_site_type_symbol
 _atom_site_label
 _atom_site_symmetry_multiplicity
 _atom_site_fract_x
 _atom_site_fract_y
 _atom_site_fract_z
 _atom_site_occupancy
  Y  Y0  1  0.66035727  0.66036969  0.66035347  1
  Y  Y1  1  0.33964273  0.33963031  0.33964653  1
  Fe  Fe0  1  -0.00000000  -0.00000000  0.50000000  1
  Fe  Fe1  1  0.50000000  -0.00000000  0.00000000  1
  Fe  Fe2  1  -0.00000000  0.50000000  0.00000000  1
  Fe  Fe3  1  0.70665822  0.29333495  -0.00000149  1
  Fe  Fe4  1  0.00000110  0.70666796  0.29334063  1
  Fe  Fe5  1  0.29335647  0.00000068  0.70664250  1
  Fe  Fe6  1  -0.00000110  0.29333204  0.70665937  1
  Fe  Fe7  1  0.70664353  -0.00000068  0.29335750  1
  Fe  Fe8  1  0.29334178  0.70666505  0.00000149  1
  Fe  Fe9  1  0.34453513  0.34452480  0.84585262  1
  Fe  Fe10  1  0.84584306  0.34451689  0.34453161  1
  Fe  Fe11  1  0.34452704  0.84586824  0.34452929  1
  Fe  Fe12  1  0.65546487  0.65547520  0.15414738  1
  Fe  Fe13  1  0.15415694  0.65548311  0.65546839  1
  Fe  Fe14  1  0.65547296  0.15413176  0.65547071  1
  Fe  Fe15  1  0.90348658  0.90350628  0.90349016  1
  Fe  Fe16  1  0.09651342  0.09649372  0.09650984  1
loop_
_geom_bond_atom_site_label_1
_geom_bond_atom_site_label_2
_geom_bond_distance
_geom_bond_site_symmetry_2
Fe0 Fe4 2.425137 1_545
Fe0 Fe6 2.425137 1_555
Fe0 Fe5 2.425196 1_555
Fe0 Fe7 2.425196 1_455
Fe0 Fe14 2.468866 1_455
Fe0 Fe11 2.468866 1_545
Fe0 Fe13 2.468895 1_545
Fe0 Fe10 2.468895 1_455
Fe0 Fe16 2.615162 1_555
Fe0 Fe15 2.615162 1_445
Fe0 Y0 3.261558 1_445
Fe0 Y1 3.261558 1_555
Fe1 Fe3 2.425143 1_555
Fe1 Fe8 2.425143 1_545
Fe1 Fe7 2.425212 1_555
Fe1 Fe5 2.425212 1_554
Fe1 Fe11 2.468901 1_545
Fe1 Fe14 2.468901 1_554
Fe1 Fe9 2.468906 1_554
Fe1 Fe12 2.468906 1_545
Fe1 Fe16 2.615112 1_555
Fe1 Fe15 2.615112 1_544
Fe1 Y1 3.261585 1_555
Fe1 Y0 3.261585 1_544
Fe2 Fe8 2.425203 1_555
Fe2 Fe3 2.425203 1_455
Fe2 Fe4 2.425220 1_555
Fe2 Fe6 2.425220 1_554
Fe2 Fe9 2.468953 1_554
Fe2 Y1 3.261663 1_555
Fe2 Y0 3.261663 1_454
Fe3 Fe6 2.507884 1_654
Fe3 Fe7 2.507977 1_555
Fe3 Fe9 2.602681 1_554
Fe3 Y1 3.036247 1_555
Fe3 Y0 3.036362 1_554
Fe4 Fe8 2.507884 1_555
Fe4 Fe7 2.507936 1_465
Fe4 Y0 3.036224 1_455
Fe4 Y1 3.036345 1_555
Fe5 Fe6 2.507936 1_555
Fe5 Fe8 2.507977 1_546
Fe5 Fe9 2.547116 1_555
Fe5 Y1 3.036116 1_555
Fe5 Y0 3.036122 1_545
Fe6 Fe9 2.547147 1_555
Fe6 Y1 3.036224 1_555
Fe6 Y0 3.036345 1_455
Fe7 Y0 3.036116 1_545
Fe7 Y1 3.036122 1_555
Fe8 Fe9 2.602804 1_554
Fe8 Y0 3.036247 1_554
Fe8 Y1 3.036362 1_555
Fe9 Y0 3.079765 1_555
Fe9 Y1 3.164635 1_556
Fe9 Y1 3.258679 1_555
Fe10 Fe2 2.468992 1_655
Fe10 Fe14 2.491092 1_555
Fe10 Fe12 2.491211 1_555
Fe10 Fe7 2.547036 1_555
Fe10 Fe3 2.547100 1_555
Fe10 Fe6 2.602756 1_655
Fe10 Fe4 2.602895 1_655
Fe10 Fe16 2.660061 1_655
Fe10 Y0 3.079782 1_555
Fe10 Y1 3.164652 1_655
Fe10 Y1 3.258599 1_555
Fe11 Fe13 2.491092 1_555
Fe11 Fe12 2.491130 1_555
Fe11 Fe4 2.547097 1_555
Fe11 Fe8 2.547127 1_555
Fe11 Fe7 2.602591 1_565
Fe11 Fe5 2.602593 1_565
Fe11 Fe16 2.659899 1_565
Fe11 Y0 3.079722 1_555
Fe11 Y1 3.164448 1_565
Fe11 Y1 3.258872 1_555
Fe12 Fe2 2.468953 1_655
Fe12 Fe7 2.547116 1_565
Fe12 Fe4 2.547147 1_655
Fe12 Fe8 2.602681 1_555
Fe12 Fe3 2.602804 1_555
Fe12 Fe15 2.660056 1_554
Fe12 Y1 3.079765 1_555
Fe12 Y0 3.164635 1_554
Fe12 Y0 3.258679 1_555
Fe13 Fe2 2.468992 1_556
Fe13 Fe9 2.491211 1_555
Fe13 Fe5 2.547036 1_565
Fe13 Fe8 2.547100 1_556
Fe13 Fe4 2.602756 1_555
Fe13 Fe6 2.602895 1_555
Fe13 Fe15 2.660061 1_455
Fe13 Y1 3.079782 1_555
Fe13 Y0 3.164652 1_455
Fe13 Y0 3.258599 1_555
Fe14 Fe9 2.491130 1_555
Fe14 Fe6 2.547097 1_655
Fe14 Fe3 2.547127 1_556
Fe14 Fe5 2.602591 1_555
Fe14 Fe7 2.602593 1_555
Fe14 Fe15 2.659899 1_545
Fe14 Y1 3.079722 1_555
Fe14 Y0 3.164448 1_545
Fe14 Y0 3.258872 1_555
Fe15 Fe16 2.379379 1_666
Fe15 Fe2 2.615284 1_656
Fe15 Fe3 2.775674 1_566
Fe15 Fe6 2.775678 1_665
Fe15 Fe4 2.775841 1_656
Fe15 Fe8 2.775845 1_656
Fe15 Fe7 2.775886 1_566
Fe15 Fe5 2.775898 1_665
Fe15 Y0 2.997277 1_555
Fe16 Fe2 2.615284 1_555
Fe16 Fe9 2.660056 1_554
Fe16 Fe8 2.775674 1_545
Fe16 Fe4 2.775678 1_545
Fe16 Fe6 2.775841 1_554
Fe16 Fe3 2.775845 1_455
Fe16 Fe5 2.775886 1_554
Fe16 Fe7 2.775898 1_455
Fe16 Y1 2.997277 1_555
