# generated using pymatgen
data_TlV6PSe7
_symmetry_space_group_name_H-M   'P 1'
_cell_length_a   9.59771388
_cell_length_b   9.59771388
_cell_length_c   3.38056700
_cell_angle_alpha   90.00000000
_cell_angle_beta   90.00000000
_cell_angle_gamma   119.99999915
_symmetry_Int_Tables_number   1
_chemical_formula_structural   TlV6PSe7
_chemical_formula_sum   'Tl1 V6 P1 Se7'
_cell_volume   269.68437232
_cell_formula_units_Z   1
loop_
 _symmetry_equiv_pos_site_id
 _symmetry_equiv_pos_as_xyz
  1  'x, y, z'
loop_
 _atom_site_type_symbol
 _atom_site_label
 _atom_site_symmetry_multiplicity
 _atom_site_fract_x
 _atom_site_fract_y
 _atom_site_fract_z
 _atom_site_occupancy
  Tl  Tl0  1  0.00000000  0.00000000  0.50019600  1
  V  V0  1  0.13337600  0.50347700  0.74864400  1
  V  V1  1  0.49652300  0.62989900  0.74864400  1
  V  V2  1  0.37010100  0.86662400  0.74864400  1
  V  V3  1  0.87971700  0.50713700  0.25148300  1
  V  V4  1  0.49286300  0.37257900  0.25148300  1
  V  V5  1  0.62742100  0.12028300  0.25148300  1
  P  P0  1  0.33333300  0.66666700  0.24927800  1
  Se  Se0  1  0.29272000  0.34462700  0.75490100  1
  Se  Se1  1  0.65537300  0.94809300  0.75490100  1
  Se  Se2  1  0.05190700  0.70728000  0.75490100  1
  Se  Se3  1  0.70192000  0.65621300  0.24511100  1
  Se  Se4  1  0.34378700  0.04570800  0.24511100  1
  Se  Se5  1  0.95429200  0.29808000  0.24511100  1
  Se  Se6  1  0.66666700  0.33333300  0.75078700  1
loop_
_geom_bond_atom_site_label_1
_geom_bond_atom_site_label_2
_geom_bond_distance
_geom_bond_site_symmetry_2
P0 V2 2.445438 1_555
P0 V0 2.445441 1_555
P0 V1 2.445445 1_555
P0 V2 2.448399 1_554
P0 V0 2.448402 1_554
P0 V1 2.448406 1_554
Se0 V1 2.442827 1_555
Se0 V4 2.462658 1_556
Se0 V4 2.478469 1_555
Se0 V0 2.644871 1_555
Se0 Tl0 3.206586 1_555
Se1 V2 2.442827 1_555
Se1 V5 2.462651 1_566
Se1 V5 2.478462 1_565
Se1 V1 2.644871 1_555
Se1 Tl0 3.206586 1_665
Se2 V0 2.442827 1_555
Se2 V3 2.462655 1_456
Se2 V3 2.478466 1_455
Se2 V2 2.644871 1_555
Se2 Tl0 3.206586 1_565
Se3 V4 2.444356 1_555
Se3 V1 2.503782 1_554
Se3 V1 2.519857 1_555
Se3 V3 2.720503 1_555
Se3 Tl0 3.221141 1_665
Se4 V5 2.444361 1_555
Se4 V2 2.503789 1_544
Se4 V2 2.519864 1_545
Se4 V4 2.720486 1_555
Se4 Tl0 3.221138 1_555
Se5 V3 2.444342 1_555
Se5 V0 2.503785 1_654
Se5 V0 2.519859 1_655
Se5 V5 2.720487 1_555
Se5 Tl0 3.221147 1_655
Se6 V4 2.530208 1_555
Se6 V5 2.530208 1_555
Se6 V3 2.530208 1_555
Se6 V4 2.533350 1_556
Se6 V5 2.533350 1_556
Se6 V3 2.533350 1_556
