# generated using pymatgen
data_CaMn2V4CuO12
_symmetry_space_group_name_H-M   'P 1'
_cell_length_a   6.46278963
_cell_length_b   6.46278963
_cell_length_c   6.46278963
_cell_angle_alpha   71.21279458
_cell_angle_beta   69.73601081
_cell_angle_gamma   109.36589310
_symmetry_Int_Tables_number   1
_chemical_formula_structural   CaMn2V4CuO12
_chemical_formula_sum   'Ca1 Mn2 V4 Cu1 O12'
_cell_volume   207.76136497
_cell_formula_units_Z   1
loop_
 _symmetry_equiv_pos_site_id
 _symmetry_equiv_pos_as_xyz
  1  'x, y, z'
loop_
 _atom_site_type_symbol
 _atom_site_label
 _atom_site_symmetry_multiplicity
 _atom_site_fract_x
 _atom_site_fract_y
 _atom_site_fract_z
 _atom_site_occupancy
  Ca  Ca0  1  0.00000000  0.00000000  0.00000000  1
  Mn  Mn0  1  0.50000000  0.50000000  0.00000000  1
  Mn  Mn1  1  0.00000000  0.50000000  0.50000000  1
  V  V0  1  0.00000000  0.50000000  0.00000000  1
  V  V1  1  0.50000000  0.50000000  0.50000000  1
  V  V2  1  0.50000000  0.00000000  0.00000000  1
  V  V3  1  0.00000000  0.00000000  0.50000000  1
  Cu  Cu0  1  0.50000000  0.00000000  0.50000000  1
  O  O0  1  0.81792000  0.52461200  0.29330700  1
  O  O1  1  0.18208000  0.47538800  0.70669300  1
  O  O2  1  0.81792000  0.11122700  0.70669300  1
  O  O3  1  0.18208000  0.88877300  0.29330700  1
  O  O4  1  0.69237300  0.18886500  0.11876200  1
  O  O5  1  0.30762700  0.81113500  0.88123800  1
  O  O6  1  0.30762700  0.18886500  0.50350800  1
  O  O7  1  0.69237300  0.81113500  0.49649200  1
  O  O8  1  0.49364400  0.30387100  0.81022700  1
  O  O9  1  0.50635600  0.69612900  0.18977300  1
  O  O10  1  0.88590200  0.69612900  0.81022700  1
  O  O11  1  0.11409900  0.30387100  0.18977300  1
loop_
_geom_bond_atom_site_label_1
_geom_bond_atom_site_label_2
_geom_bond_distance
_geom_bond_site_symmetry_2
Ca0 O2 2.592901 1_454
Ca0 O3 2.592901 1_545
Ca0 O1 2.592906 1_554
Ca0 O0 2.592906 1_445
Ca0 O8 2.668734 1_554
Ca0 O9 2.668734 1_445
Ca0 O10 2.668734 1_444
Ca0 O11 2.668735 1_555
Ca0 O7 2.680935 1_445
Ca0 O4 2.680935 1_455
Ca0 O6 2.680935 1_554
Ca0 O5 2.680935 1_544
Mn0 O11 2.028356 1_555
Mn0 O10 2.028361 1_554
Mn0 O9 2.028361 1_555
Mn0 O8 2.028361 1_554
Mn1 O0 2.066532 1_455
Mn1 O1 2.066532 1_555
Mn1 O3 2.066532 1_555
Mn1 O2 2.066532 1_455
Cu0 O5 2.010173 1_545
Cu0 O6 2.010173 1_555
Cu0 O7 2.010173 1_545
Cu0 O4 2.010173 1_555
O0 V0 1.943314 1_655
O0 V1 1.943322 1_555
O1 V0 1.943314 1_556
O1 V1 1.943322 1_555
O2 V3 1.943318 1_655
O2 V2 1.943318 1_556
O3 V2 1.943318 1_565
O3 V3 1.943318 1_565
O4 V2 1.970452 1_555
O4 V0 1.970452 1_655
O5 V0 1.970452 1_556
O5 V2 1.970452 1_566
O6 V3 1.970452 1_555
O6 V1 1.970452 1_555
O7 V1 1.970452 1_555
O7 V3 1.970452 1_665
O8 V1 1.974747 1_555
O8 V2 1.974747 1_556
O9 V1 1.974747 1_555
O9 V2 1.974747 1_565
O10 V3 1.974747 1_665
O10 V0 1.974747 1_656
O11 V3 1.974745 1_555
O11 V0 1.974752 1_555
