# generated using pymatgen
data_RbNa2V5H10O19
_symmetry_space_group_name_H-M   'P 1'
_cell_length_a   8.56897357
_cell_length_b   10.30220982
_cell_length_c   11.50500483
_cell_angle_alpha   69.10943628
_cell_angle_beta   86.92896313
_cell_angle_gamma   66.73574376
_symmetry_Int_Tables_number   1
_chemical_formula_structural   RbNa2V5H10O19
_chemical_formula_sum   'Rb2 Na4 V10 H20 O38'
_cell_volume   867.21977873
_cell_formula_units_Z   2
loop_
 _symmetry_equiv_pos_site_id
 _symmetry_equiv_pos_as_xyz
  1  'x, y, z'
loop_
 _atom_site_type_symbol
 _atom_site_label
 _atom_site_symmetry_multiplicity
 _atom_site_fract_x
 _atom_site_fract_y
 _atom_site_fract_z
 _atom_site_occupancy
  Rb  Rb0  1  0.72973100  0.17832900  0.07019400  1
  Rb  Rb1  1  0.27026900  0.82167100  0.92980600  1
  Na  Na0  1  0.93602000  0.66875100  0.87129600  1
  Na  Na1  1  0.06398000  0.33124900  0.12870400  1
  Na  Na2  1  0.82377000  0.76305000  0.56399700  1
  Na  Na3  1  0.17623000  0.23695000  0.43600300  1
  V  V0  1  0.83619500  0.21554000  0.71684500  1
  V  V1  1  0.16380500  0.78446000  0.28315500  1
  V  V2  1  0.62173600  0.20359900  0.50877800  1
  V  V3  1  0.37826400  0.79640100  0.49122200  1
  V  V4  1  0.47014300  0.20921900  0.76668900  1
  V  V5  1  0.52985700  0.79078200  0.23331100  1
  V  V6  1  0.68947800  0.50084300  0.47748400  1
  V  V7  1  0.31052200  0.49915700  0.52251600  1
  V  V8  1  0.46929400  0.49449900  0.26597700  1
  V  V9  1  0.53070600  0.50550100  0.73402300  1
  H  H0  1  0.58973300  0.76789100  0.74749100  1
  H  H1  1  0.41026700  0.23210900  0.25250900  1
  H  H2  1  0.89562700  0.82333200  0.06113900  1
  H  H3  1  0.10437300  0.17666800  0.93886100  1
  H  H4  1  0.30353800  0.45931600  0.05303700  1
  H  H5  1  0.69646200  0.54068400  0.94696300  1
  H  H6  1  0.13495100  0.77746500  0.66168000  1
  H  H7  1  0.86504900  0.22253500  0.33832000  1
  H  H8  1  0.60057500  0.92813800  0.70161000  1
  H  H9  1  0.39942500  0.07186200  0.29839000  1
  H  H10  1  0.89467100  0.46914700  0.75365500  1
  H  H11  1  0.10532900  0.53085300  0.24634500  1
  H  H12  1  0.07404500  0.46345400  0.71242000  1
  H  H13  1  0.92595500  0.53654600  0.28758000  1
  H  H14  1  0.83413900  0.93467000  0.92309300  1
  H  H15  1  0.16586100  0.06533000  0.07690700  1
  H  H16  1  0.29110700  0.43316100  0.92936500  1
  H  H17  1  0.70889300  0.56683900  0.07063500  1
  H  H18  1  0.98020400  0.93129500  0.65691700  1
  H  H19  1  0.01979600  0.06870500  0.34308300  1
  O  O0  1  0.82838900  0.12652600  0.60153400  1
  O  O1  1  0.17161100  0.87347400  0.39846600  1
  O  O2  1  0.92114900  0.83445600  0.97514700  1
  O  O3  1  0.07885100  0.16554400  0.02485400  1
  O  O4  1  0.51461800  0.12515000  0.64237200  1
  O  O5  1  0.48538200  0.87485000  0.35762800  1
  O  O6  1  0.02944100  0.81941300  0.69840000  1
  O  O7  1  0.97055900  0.18058700  0.30160000  1
  O  O8  1  0.55473800  0.63044600  0.17320900  1
  O  O9  1  0.44526200  0.36955400  0.82679100  1
  O  O10  1  0.73616600  0.62934700  0.34884200  1
  O  O11  1  0.26383400  0.37065300  0.65115800  1
  O  O12  1  0.60947000  0.62977800  0.57282900  1
  O  O13  1  0.39053000  0.37022200  0.42717100  1
  O  O14  1  0.56766900  0.38137400  0.60308600  1
  O  O15  1  0.43233100  0.61862600  0.39691400  1
  O  O16  1  0.39065800  0.10317700  0.86980200  1
  O  O17  1  0.60934200  0.89682300  0.13019800  1
  O  O18  1  0.96867000  0.52584400  0.73913200  1
  O  O19  1  0.03133000  0.47415600  0.26086800  1
  O  O20  1  0.21979600  0.47480600  0.98896400  1
  O  O21  1  0.78020400  0.52519400  0.01103600  1
  O  O22  1  0.49340200  0.38501600  0.18296300  1
  O  O23  1  0.50659800  0.61498400  0.81703700  1
  O  O24  1  0.24360400  0.62540200  0.21926600  1
  O  O25  1  0.75639600  0.37459800  0.78073400  1
  O  O26  1  0.66142800  0.08729700  0.43363600  1
  O  O27  1  0.33857200  0.91270300  0.56636400  1
  O  O28  1  0.67888600  0.37185300  0.38701100  1
  O  O29  1  0.32111400  0.62814700  0.61298900  1
  O  O30  1  0.88096600  0.37113100  0.56427600  1
  O  O31  1  0.11903400  0.62886900  0.43572400  1
  O  O32  1  0.70419200  0.12382400  0.81999000  1
  O  O33  1  0.29580800  0.87617600  0.18001000  1
  O  O34  1  0.67031900  0.81713700  0.73216100  1
  O  O35  1  0.32968100  0.18286300  0.26783900  1
  O  O36  1  0.03025800  0.11510500  0.78689200  1
  O  O37  1  0.96974200  0.88489500  0.21310800  1
loop_
_geom_bond_atom_site_label_1
_geom_bond_atom_site_label_2
_geom_bond_distance
_geom_bond_site_symmetry_2
Na0 O6 2.369771 1_655
Na0 O2 2.371617 1_555
Na0 O18 2.404879 1_555
Na0 O34 2.445197 1_555
Na0 O21 2.487752 1_556
Na0 O20 2.514672 1_655
Na1 O7 2.369771 1_455
Na1 O3 2.371609 1_555
Na1 O19 2.404879 1_555
Na1 O35 2.445197 1_555
Na1 O20 2.487752 1_554
Na1 O21 2.514672 1_455
Na2 O34 2.387495 1_555
Na2 O18 2.435787 1_555
Na2 O12 2.672028 1_555
Na2 O6 2.752270 1_655
Na2 O26 2.884960 1_565
Na2 O31 2.963492 1_655
Na3 O35 2.387495 1_555
Na3 O19 2.435787 1_555
Na3 O13 2.672028 1_555
Na3 O7 2.752270 1_455
Na3 O27 2.884960 1_545
Na3 O30 2.963492 1_455
H0 O34 0.982463 1_555
H1 O35 0.982463 1_555
H2 O2 0.977501 1_554
H3 O3 0.977512 1_556
H4 O20 0.982915 1_554
H5 O21 0.982915 1_556
H6 O6 0.981472 1_555
H7 O7 0.981472 1_555
H8 O34 0.992175 1_555
H8 O4 1.735759 1_565
H9 O35 0.992175 1_555
H9 O5 1.735759 1_545
H10 O18 0.991361 1_555
H11 O19 0.991361 1_555
H12 O18 0.987716 1_455
H13 O19 0.987716 1_655
H14 O2 0.989587 1_555
H15 O3 0.989584 1_555
H16 O20 0.992696 1_555
H17 O21 0.992696 1_555
H18 O6 0.989671 1_655
H19 O7 0.989671 1_455
O0 V2 1.841879 1_555
O0 V0 1.879109 1_555
O1 V3 1.841879 1_555
O1 V1 1.879109 1_555
O2 Rb1 2.968107 1_655
O3 Rb0 2.968106 1_455
O4 V2 1.845813 1_555
O4 V4 1.872251 1_555
O5 V3 1.845813 1_555
O5 V5 1.872244 1_555
O8 V8 1.815766 1_555
O8 V5 1.942334 1_555
O9 V9 1.815766 1_555
O9 V4 1.942325 1_555
O10 V6 1.749503 1_555
O10 V5 2.002679 1_555
O11 V7 1.749503 1_555
O11 V4 2.002676 1_555
O12 V6 1.917531 1_555
O12 V3 2.028968 1_555
O12 V9 2.095045 1_555
O13 V7 1.917531 1_555
O13 V2 2.028968 1_555
O13 V8 2.095045 1_555
O14 V6 2.068163 1_555
O14 V7 2.119330 1_555
O14 V9 2.237790 1_555
O14 V2 2.332220 1_555
O14 V0 2.355625 1_555
O14 V4 2.451194 1_555
O15 V7 2.068163 1_555
O15 V6 2.119330 1_555
O15 V8 2.237790 1_555
O15 V3 2.332220 1_555
O15 V1 2.355625 1_555
O15 V5 2.451200 1_555
O16 V4 1.625321 1_555
O17 V5 1.625315 1_555
O22 V8 1.670359 1_555
O22 Rb0 2.932696 1_555
O23 V9 1.670359 1_555
O23 Rb1 2.932696 1_555
O24 V8 1.838981 1_555
O24 V1 1.900800 1_555
O25 V9 1.838981 1_555
O25 V0 1.900800 1_555
O26 V2 1.638279 1_555
O27 V3 1.638279 1_555
O28 V6 1.987333 1_555
O28 V8 1.995418 1_555
O28 V2 2.017990 1_555
O29 V7 1.987333 1_555
O29 V9 1.995418 1_555
O29 V3 2.017990 1_555
O30 V6 1.722514 1_555
O30 V0 2.050536 1_555
O31 V7 1.722514 1_555
O31 V1 2.050536 1_555
O32 V0 1.865815 1_555
O32 V4 1.877641 1_555
O33 V1 1.865815 1_555
O33 V5 1.877642 1_555
O36 V0 1.635569 1_455
O36 Rb1 2.824556 1_545
O37 V1 1.635569 1_655
O37 Rb0 2.824556 1_565
