# generated using pymatgen
data_ZnCr2O4
_symmetry_space_group_name_H-M   'P 1'
_cell_length_a   5.99667621
_cell_length_b   5.99667621
_cell_length_c   14.73908500
_cell_angle_alpha   90.00000000
_cell_angle_beta   90.00000000
_cell_angle_gamma   120.00000235
_symmetry_Int_Tables_number   1
_chemical_formula_structural   ZnCr2O4
_chemical_formula_sum   'Zn6 Cr12 O24'
_cell_volume   459.01020887
_cell_formula_units_Z   6
loop_
 _symmetry_equiv_pos_site_id
 _symmetry_equiv_pos_as_xyz
  1  'x, y, z'
loop_
 _atom_site_type_symbol
 _atom_site_label
 _atom_site_symmetry_multiplicity
 _atom_site_fract_x
 _atom_site_fract_y
 _atom_site_fract_z
 _atom_site_occupancy
  Zn  Zn0  1  0.33333300  0.66666700  0.95322200  1
  Zn  Zn1  1  0.00000000  0.00000000  0.62473200  1
  Zn  Zn2  1  0.00000000  0.00000000  0.99686000  1
  Zn  Zn3  1  0.66666700  0.33333300  0.29250600  1
  Zn  Zn4  1  0.33333300  0.66666700  0.71002000  1
  Zn  Zn5  1  0.00000000  0.00000000  0.37535700  1
  Cr  Cr0  1  0.83420100  0.66840100  0.83269200  1
  Cr  Cr1  1  0.33159900  0.16579900  0.83269200  1
  Cr  Cr2  1  0.50004000  0.00007900  0.50044300  1
  Cr  Cr3  1  0.83420100  0.16579900  0.83269200  1
  Cr  Cr4  1  0.66666700  0.33333300  0.66700100  1
  Cr  Cr5  1  0.99992100  0.49996000  0.50044300  1
  Cr  Cr6  1  0.16770200  0.33540400  0.16756000  1
  Cr  Cr7  1  0.50004000  0.49996000  0.50044300  1
  Cr  Cr8  1  0.16770200  0.83229800  0.16756000  1
  Cr  Cr9  1  0.33333300  0.66666700  0.33411100  1
  Cr  Cr10  1  0.66459600  0.83229800  0.16756000  1
  Cr  Cr11  1  0.66666700  0.33333300  0.04401500  1
  O  O0  1  0.68991900  0.84495900  0.90854100  1
  O  O1  1  0.00000000  0.00000000  0.76073800  1
  O  O2  1  0.15504100  0.84495900  0.90854100  1
  O  O3  1  0.15504100  0.31008100  0.90854100  1
  O  O4  1  0.51599600  0.03199300  0.75328400  1
  O  O5  1  0.36416500  0.18208200  0.57918000  1
  O  O6  1  0.51599600  0.48400400  0.75328400  1
  O  O7  1  0.66666700  0.33333300  0.90707300  1
  O  O8  1  0.81791800  0.18208200  0.57918000  1
  O  O9  1  0.66666700  0.33333300  0.42819700  1
  O  O10  1  0.96800700  0.48400400  0.75328400  1
  O  O11  1  0.81791800  0.63583500  0.57918000  1
  O  O12  1  0.18211400  0.36422800  0.42042400  1
  O  O13  1  0.03140000  0.51570000  0.24653500  1
  O  O14  1  0.18211400  0.81788600  0.42042400  1
  O  O15  1  0.33333300  0.66666700  0.57189600  1
  O  O16  1  0.33333300  0.66666700  0.09485600  1
  O  O17  1  0.48430000  0.51570000  0.24653500  1
  O  O18  1  0.63577200  0.81788600  0.42042400  1
  O  O19  1  0.48430000  0.96860000  0.24653500  1
  O  O20  1  0.83992800  0.67985500  0.09185100  1
  O  O21  1  0.00000000  0.00000000  0.23784800  1
  O  O22  1  0.83992800  0.16007200  0.09185100  1
  O  O23  1  0.32014500  0.16007200  0.09185100  1
loop_
_geom_bond_atom_site_label_1
_geom_bond_atom_site_label_2
_geom_bond_distance
_geom_bond_site_symmetry_2
Cr0 O2 2.008836 1_655
Cr0 O0 2.008836 1_555
Cr0 O1 2.022452 1_665
Cr0 O10 2.030679 1_555
Cr0 O6 2.030687 1_555
Cr0 O7 2.056657 1_555
Cr1 O2 2.008836 1_545
Cr1 O3 2.008836 1_555
Cr1 O1 2.022452 1_555
Cr1 O4 2.030679 1_555
Cr1 O6 2.030687 1_555
Cr1 O7 2.056657 1_555
Cr2 O8 2.022658 1_555
Cr2 O5 2.022658 1_555
Cr2 O15 2.026628 1_545
Cr2 O9 2.032027 1_555
Cr2 O18 2.033825 1_545
Cr2 O14 2.033829 1_545
Cr3 O3 2.008836 1_655
Cr3 O0 2.008836 1_545
Cr3 O1 2.022447 1_655
Cr3 O4 2.030687 1_555
Cr3 O10 2.030687 1_555
Cr3 O7 2.056657 1_555
Cr4 O4 2.016518 1_555
Cr4 O10 2.016518 1_555
Cr4 O6 2.016526 1_555
Cr4 O11 2.035544 1_555
Cr4 O5 2.035544 1_555
Cr4 O8 2.035544 1_555
Cr5 O8 2.022658 1_555
Cr5 O11 2.022658 1_555
Cr5 O15 2.026628 1_655
Cr5 O9 2.032027 1_555
Cr5 O12 2.033825 1_655
Cr5 O14 2.033829 1_655
Cr6 O17 2.018829 1_555
Cr6 O13 2.018829 1_555
Cr6 O21 2.026642 1_555
Cr6 O16 2.026789 1_555
Cr6 O22 2.036530 1_455
Cr6 O23 2.036534 1_555
Cr7 O11 2.022658 1_555
Cr7 O5 2.022658 1_555
Cr7 O15 2.026637 1_555
Cr7 O9 2.032027 1_555
Cr7 O18 2.033829 1_555
Cr7 O12 2.033829 1_555
Cr8 O13 2.018829 1_555
Cr8 O19 2.018829 1_555
Cr8 O21 2.026642 1_565
Cr8 O16 2.026785 1_555
Cr8 O23 2.036530 1_565
Cr8 O20 2.036530 1_455
Cr9 O14 2.021225 1_555
Cr9 O18 2.021229 1_555
Cr9 O12 2.021229 1_555
Cr9 O19 2.030967 1_555
Cr9 O13 2.030967 1_555
Cr9 O17 2.030971 1_555
Cr10 O17 2.018829 1_555
Cr10 O19 2.018829 1_555
Cr10 O21 2.026642 1_665
Cr10 O16 2.026789 1_555
Cr10 O22 2.036530 1_565
Cr10 O20 2.036534 1_555
Cr11 O23 1.932772 1_555
Cr11 O20 1.932772 1_555
Cr11 O22 1.932772 1_555
Cr11 O7 2.018400 1_554
O0 Zn0 1.965462 1_555
O0 Zn2 2.070679 1_665
O1 Zn1 2.004604 1_555
O2 Zn0 1.965452 1_555
O2 Zn2 2.070683 1_565
O3 Zn0 1.965462 1_555
O3 Zn2 2.070679 1_555
O4 Zn4 2.001534 1_545
O5 Zn1 2.006848 1_555
O6 Zn4 2.001534 1_555
O8 Zn1 2.006844 1_655
O9 Zn3 1.999961 1_555
O10 Zn4 2.001534 1_655
O11 Zn1 2.006848 1_665
O12 Zn5 2.004777 1_555
O13 Zn3 2.011700 1_455
O14 Zn5 2.004777 1_565
O15 Zn4 2.035821 1_555
O16 Zn0 2.087556 1_554
O17 Zn3 2.011705 1_555
O18 Zn5 2.004777 1_665
O19 Zn3 2.011700 1_565
O20 Zn2 2.173584 1_664
O21 Zn5 2.026757 1_555
O22 Zn2 2.173580 1_654
O23 Zn2 2.173584 1_554
