# generated using pymatgen
data_Sr2TaFeO6
_symmetry_space_group_name_H-M   'P 1'
_cell_length_a   5.67782421
_cell_length_b   5.67782421
_cell_length_c   9.83428001
_cell_angle_alpha   73.22134512
_cell_angle_beta   73.22134512
_cell_angle_gamma   60.00000000
_symmetry_Int_Tables_number   1
_chemical_formula_structural   Sr2TaFeO6
_chemical_formula_sum   'Sr4 Ta2 Fe2 O12'
_cell_volume   258.85754278
_cell_formula_units_Z   2
loop_
 _symmetry_equiv_pos_site_id
 _symmetry_equiv_pos_as_xyz
  1  'x, y, z'
loop_
 _atom_site_type_symbol
 _atom_site_label
 _atom_site_symmetry_multiplicity
 _atom_site_fract_x
 _atom_site_fract_y
 _atom_site_fract_z
 _atom_site_occupancy
  Sr  Sr0  1  0.00000000  0.00000000  0.00000000  1
  Sr  Sr1  1  0.50000000  0.50000000  0.50000000  1
  Sr  Sr2  1  0.25000000  0.25000000  0.25000000  1
  Sr  Sr3  1  0.75000000  0.75000000  0.75000000  1
  Ta  Ta0  1  0.62500000  0.62500000  0.12500000  1
  Ta  Ta1  1  0.12500000  0.12500000  0.62500000  1
  Fe  Fe0  1  0.37500000  0.37500000  0.87500000  1
  Fe  Fe1  1  0.87500000  0.87500000  0.37500000  1
  O  O0  1  0.99735800  0.50088100  0.00088100  1
  O  O1  1  0.49735800  0.00088100  0.50088100  1
  O  O2  1  0.25264200  0.74911900  0.24911900  1
  O  O3  1  0.75264200  0.24911900  0.74911900  1
  O  O4  1  0.74911900  0.74911900  0.24911900  1
  O  O5  1  0.24911900  0.24911900  0.74911900  1
  O  O6  1  0.50088100  0.50088100  0.00088100  1
  O  O7  1  0.00088100  0.00088100  0.50088100  1
  O  O8  1  0.50088100  0.99735800  0.00088100  1
  O  O9  1  0.00088100  0.49735800  0.50088100  1
  O  O10  1  0.74911900  0.25264200  0.24911900  1
  O  O11  1  0.24911900  0.75264200  0.74911900  1
loop_
_geom_bond_atom_site_label_1
_geom_bond_atom_site_label_2
_geom_bond_distance
_geom_bond_site_symmetry_2
Fe0 O0 2.021558 1_456
Fe0 O8 2.021558 1_546
Fe0 O11 2.021558 1_555
Fe0 O3 2.021558 1_555
Fe0 O6 2.021562 1_556
Fe0 O5 2.021562 1_555
Fe1 O9 2.021558 1_655
Fe1 O2 2.021558 1_655
Fe1 O10 2.021558 1_565
Fe1 O1 2.021558 1_565
Fe1 O7 2.021562 1_665
Fe1 O4 2.021562 1_555
O0 Ta0 1.993270 1_555
O0 Sr0 2.838945 1_665
O0 Sr2 2.838945 1_655
O0 Sr0 2.838950 1_655
O0 Sr3 2.838950 1_554
O1 Ta1 1.993270 1_555
O1 Sr1 2.838945 1_555
O1 Sr3 2.838945 1_545
O1 Sr2 2.838950 1_555
O1 Sr1 2.838950 1_545
O2 Ta0 1.993270 1_555
O2 Sr0 2.838945 1_565
O2 Sr2 2.838945 1_555
O2 Sr2 2.838950 1_565
O2 Sr1 2.838950 1_555
O3 Ta1 1.993270 1_655
O3 Sr3 2.838945 1_545
O3 Sr1 2.838945 1_555
O3 Sr0 2.838950 1_656
O3 Sr3 2.838950 1_555
O4 Ta0 1.993266 1_555
O4 Sr2 2.838947 1_565
O4 Sr2 2.838947 1_655
O4 Sr0 2.838947 1_665
O4 Sr1 2.838947 1_555
O5 Ta1 1.993266 1_555
O5 Sr3 2.838947 1_455
O5 Sr0 2.838947 1_556
O5 Sr1 2.838947 1_555
O5 Sr3 2.838947 1_545
O6 Ta0 1.993266 1_555
O6 Sr0 2.838947 1_565
O6 Sr0 2.838947 1_655
O6 Sr2 2.838947 1_555
O6 Sr3 2.838947 1_554
O7 Ta1 1.993266 1_555
O7 Sr1 2.838947 1_545
O7 Sr1 2.838947 1_455
O7 Sr3 2.838947 1_445
O7 Sr2 2.838947 1_555
O8 Ta0 1.993270 1_555
O8 Sr0 2.838945 1_665
O8 Sr2 2.838945 1_565
O8 Sr0 2.838950 1_565
O8 Sr3 2.838950 1_554
O9 Ta1 1.993270 1_555
O9 Sr3 2.838945 1_455
O9 Sr1 2.838945 1_555
O9 Sr1 2.838950 1_455
O9 Sr2 2.838950 1_555
O10 Ta0 1.993270 1_555
O10 Sr0 2.838945 1_655
O10 Sr2 2.838945 1_555
O10 Sr2 2.838950 1_655
O10 Sr1 2.838950 1_555
O11 Ta1 1.993270 1_565
O11 Sr1 2.838945 1_555
O11 Sr3 2.838945 1_455
O11 Sr3 2.838950 1_555
O11 Sr0 2.838950 1_566
