# generated using pymatgen
data_Bi14Mo5O36
_symmetry_space_group_name_H-M   'P 1'
_cell_length_a   17.68267643
_cell_length_b   17.68267643
_cell_length_c   8.76550713
_cell_angle_alpha   80.24013349
_cell_angle_beta   80.24013349
_cell_angle_gamma   18.65918818
_symmetry_Int_Tables_number   1
_chemical_formula_structural   Bi14Mo5O36
_chemical_formula_sum   'Bi14 Mo5 O36'
_cell_volume   863.84169085
_cell_formula_units_Z   1
loop_
 _symmetry_equiv_pos_site_id
 _symmetry_equiv_pos_as_xyz
  1  'x, y, z'
loop_
 _atom_site_type_symbol
 _atom_site_label
 _atom_site_symmetry_multiplicity
 _atom_site_fract_x
 _atom_site_fract_y
 _atom_site_fract_z
 _atom_site_occupancy
  Bi  Bi0  1  0.26512300  0.25052500  0.81167400  1
  Bi  Bi1  1  0.74947500  0.73487700  0.18832600  1
  Bi  Bi2  1  0.27666900  0.14453600  0.46776800  1
  Bi  Bi3  1  0.85546400  0.72333100  0.53223200  1
  Bi  Bi4  1  0.68818200  0.67092800  0.77119600  1
  Bi  Bi5  1  0.32907200  0.31181800  0.22880400  1
  Bi  Bi6  1  0.61087300  0.65029500  0.43960200  1
  Bi  Bi7  1  0.34970500  0.38912700  0.56039800  1
  Bi  Bi8  1  0.08302300  0.12518400  0.72730800  1
  Bi  Bi9  1  0.87481600  0.91697700  0.27269200  1
  Bi  Bi10  1  0.05547000  0.04751700  0.38849200  1
  Bi  Bi11  1  0.95248300  0.94453000  0.61150800  1
  Bi  Bi12  1  0.52720000  0.52725100  0.66899800  1
  Bi  Bi13  1  0.47274900  0.47280000  0.33100200  1
  Mo  Mo0  1  0.99437000  0.00563000  0.00000000  1
  Mo  Mo1  1  0.41276600  0.42940300  0.94653000  1
  Mo  Mo2  1  0.57059700  0.58723400  0.05347000  1
  Mo  Mo3  1  0.86690000  0.80870100  0.90253200  1
  Mo  Mo4  1  0.19129900  0.13310000  0.09746800  1
  O  O0  1  0.95349600  0.51124000  0.69178500  1
  O  O1  1  0.48876000  0.04650400  0.30821500  1
  O  O2  1  0.47179400  0.99035100  0.66012500  1
  O  O3  1  0.00964900  0.52820600  0.33987500  1
  O  O4  1  0.87217000  0.42797200  0.61655800  1
  O  O5  1  0.57202800  0.12783000  0.38344200  1
  O  O6  1  0.38661300  0.91827400  0.60608300  1
  O  O7  1  0.08172600  0.61338700  0.39391700  1
  O  O8  1  0.84779900  0.30118900  0.56006500  1
  O  O9  1  0.69881100  0.15220100  0.43993500  1
  O  O10  1  0.33964200  0.81287000  0.54869700  1
  O  O11  1  0.18713000  0.66035800  0.45130300  1
  O  O12  1  0.73644800  0.26355200  0.50000000  1
  O  O13  1  0.23225600  0.76774400  0.50000000  1
  O  O14  1  0.29501200  0.62293300  0.81775200  1
  O  O15  1  0.37706700  0.70498800  0.18224800  1
  O  O16  1  0.56479700  0.29352400  0.12593500  1
  O  O17  1  0.70647600  0.43520300  0.87406500  1
  O  O18  1  0.17043900  0.59429900  0.01761900  1
  O  O19  1  0.40570100  0.82956100  0.98238100  1
  O  O20  1  0.58325000  0.21760900  0.82357400  1
  O  O21  1  0.78239100  0.41675000  0.17642600  1
  O  O22  1  0.98689000  0.75783900  0.73099200  1
  O  O23  1  0.24216100  0.01311000  0.26900800  1
  O  O24  1  0.71981500  0.97087200  0.07793000  1
  O  O25  1  0.02912800  0.28018500  0.92207000  1
  O  O26  1  0.06759600  0.53995400  0.96354500  1
  O  O27  1  0.46004600  0.93240400  0.03645500  1
  O  O28  1  0.63628300  0.97678600  0.82075600  1
  O  O29  1  0.02321300  0.36371700  0.17924400  1
  O  O30  1  0.20205200  0.87282800  0.88094100  1
  O  O31  1  0.12717200  0.79794800  0.11905900  1
  O  O32  1  0.83105000  0.20907300  0.13390100  1
  O  O33  1  0.79092700  0.16895000  0.86609900  1
  O  O34  1  0.21739100  0.38641900  0.62518200  1
  O  O35  1  0.61358100  0.78260900  0.37481800  1
loop_
_geom_bond_atom_site_label_1
_geom_bond_atom_site_label_2
_geom_bond_distance
_geom_bond_site_symmetry_2
Bi0 O34 2.109913 1_555
Bi0 O2 2.203003 1_545
Bi0 O0 2.214974 1_455
Bi0 O28 2.521902 1_545
Bi0 O26 2.650592 1_555
Bi1 O35 2.109913 1_555
Bi1 O3 2.203003 1_655
Bi1 O1 2.214974 1_565
Bi1 O29 2.521911 1_655
Bi1 O27 2.650592 1_555
Bi2 O2 2.183978 1_545
Bi2 O35 2.233765 1_545
Bi2 O6 2.381725 1_545
Bi2 O1 2.398087 1_555
Bi3 O3 2.183978 1_655
Bi3 O34 2.233765 1_655
Bi3 O7 2.381725 1_655
Bi3 O0 2.398087 1_555
Bi4 O4 2.207503 1_555
Bi4 O0 2.219197 1_555
Bi4 O6 2.436446 1_555
Bi4 O2 2.436772 1_555
Bi4 O25 2.551172 1_655
Bi5 O5 2.207503 1_555
Bi5 O1 2.219197 1_555
Bi5 O7 2.436446 1_555
Bi5 O3 2.436772 1_555
Bi5 O24 2.551172 1_545
Bi6 O6 2.254996 1_555
Bi6 O4 2.269974 1_555
Bi6 O10 2.330760 1_555
Bi6 O35 2.356145 1_555
Bi6 O23 2.587836 1_565
Bi6 O8 2.656762 1_555
Bi7 O7 2.254996 1_555
Bi7 O5 2.269974 1_555
Bi7 O11 2.330760 1_555
Bi7 O34 2.356145 1_555
Bi7 O22 2.587836 1_455
Bi7 O9 2.656762 1_555
Bi8 O8 2.264259 1_455
Bi8 O4 2.269061 1_455
Bi8 O6 2.345326 1_545
Bi8 O17 2.522448 1_455
Bi8 O10 2.564794 1_545
Bi8 O30 2.698633 1_545
Bi8 O25 2.724002 1_555
Bi9 O9 2.264259 1_565
Bi9 O5 2.269061 1_565
Bi9 O7 2.345326 1_655
Bi9 O16 2.522448 1_565
Bi9 O11 2.564794 1_655
Bi9 O31 2.698633 1_655
Bi9 O24 2.724002 1_555
Bi10 O8 2.251616 1_455
Bi10 O13 2.300861 1_545
Bi10 O10 2.312487 1_545
Bi10 O12 2.435899 1_455
Bi10 O15 2.693124 1_545
Bi10 O23 2.757352 1_555
Bi11 O9 2.251616 1_565
Bi11 O13 2.300861 1_655
Bi11 O11 2.312487 1_655
Bi11 O12 2.435899 1_565
Bi11 O14 2.693124 1_655
Bi11 O22 2.757352 1_555
Bi12 O10 2.293374 1_555
Bi12 O12 2.327818 1_555
Bi12 O8 2.355266 1_555
Bi12 O13 2.436503 1_555
Bi12 O17 2.663184 1_555
Bi12 O14 2.681365 1_555
Bi12 O30 2.739115 1_555
Bi12 O33 2.812112 1_555
Bi13 O11 2.293374 1_555
Bi13 O12 2.327818 1_555
Bi13 O9 2.355266 1_555
Bi13 O13 2.436503 1_555
Bi13 O16 2.663184 1_555
Bi13 O15 2.681365 1_555
Bi13 O31 2.739115 1_555
Bi13 O32 2.812112 1_555
Mo0 O33 1.804279 1_554
Mo0 O32 1.804279 1_555
Mo0 O31 1.811183 1_645
Mo0 O30 1.811183 1_644
Mo1 O20 1.774525 1_555
Mo1 O18 1.813045 1_556
Mo1 O14 1.818201 1_555
Mo1 O16 1.840071 1_556
Mo2 O21 1.774525 1_555
Mo2 O19 1.813045 1_554
Mo2 O15 1.818201 1_555
Mo2 O17 1.840071 1_554
Mo3 O28 1.810888 1_555
Mo3 O26 1.813475 1_655
Mo3 O22 1.825528 1_555
Mo3 O24 1.832487 1_556
Mo4 O29 1.810878 1_555
Mo4 O27 1.813475 1_545
Mo4 O23 1.825528 1_555
Mo4 O25 1.832487 1_554
