# generated using pymatgen
data_Tb5Zr3(Ni4As3)4
_symmetry_space_group_name_H-M   'P 1'
_cell_length_a   3.95229500
_cell_length_b   12.82241241
_cell_length_c   12.81802365
_cell_angle_alpha   120.01132886
_cell_angle_beta   90.00000000
_cell_angle_gamma   90.00000000
_symmetry_Int_Tables_number   1
_chemical_formula_structural   Tb5Zr3(Ni4As3)4
_chemical_formula_sum   'Tb5 Zr3 Ni16 As12'
_cell_volume   562.49828805
_cell_formula_units_Z   1
loop_
 _symmetry_equiv_pos_site_id
 _symmetry_equiv_pos_as_xyz
  1  'x, y, z'
loop_
 _atom_site_type_symbol
 _atom_site_label
 _atom_site_symmetry_multiplicity
 _atom_site_fract_x
 _atom_site_fract_y
 _atom_site_fract_z
 _atom_site_occupancy
  Tb  Tb0  1  0.50000000  0.99997900  0.18311200  1
  Tb  Tb1  1  0.50000000  0.18298900  0.00000000  1
  Tb  Tb2  1  0.50000000  0.81686700  0.81688800  1
  Tb  Tb3  1  0.00000000  0.33346200  0.66670700  1
  Tb  Tb4  1  0.00000000  0.66675500  0.33329300  1
  Zr  Zr0  1  0.00000000  0.99986800  0.56193600  1
  Zr  Zr1  1  0.00000000  0.56229900  0.00000000  1
  Zr  Zr2  1  0.00000000  0.43793300  0.43806400  1
  Ni  Ni0  1  0.50000000  0.99989900  0.72272600  1
  Ni  Ni1  1  0.50000000  0.72286000  0.00000000  1
  Ni  Ni2  1  0.50000000  0.27717300  0.27727400  1
  Ni  Ni3  1  0.00000000  0.19340000  0.37590800  1
  Ni  Ni4  1  0.00000000  0.18266000  0.80665100  1
  Ni  Ni5  1  0.00000000  0.62412700  0.81768000  1
  Ni  Ni6  1  0.00000000  0.81749200  0.62409200  1
  Ni  Ni7  1  0.00000000  0.37600900  0.19334900  1
  Ni  Ni8  1  0.00000000  0.80644700  0.18232000  1
  Ni  Ni9  1  0.50000000  0.12072700  0.48145000  1
  Ni  Ni10  1  0.50000000  0.36068900  0.87927200  1
  Ni  Ni11  1  0.50000000  0.51852400  0.63910000  1
  Ni  Ni12  1  0.50000000  0.63927700  0.51855000  1
  Ni  Ni13  1  0.50000000  0.48141600  0.12072800  1
  Ni  Ni14  1  0.50000000  0.87942400  0.36090000  1
  Ni  Ni15  1  0.00000000  0.99998500  0.00000000  1
  As  As0  1  0.00000000  0.00004400  0.82110500  1
  As  As1  1  0.00000000  0.82103900  0.00000000  1
  As  As2  1  0.00000000  0.17893900  0.17889500  1
  As  As3  1  0.50000000  0.30704400  0.47855400  1
  As  As4  1  0.50000000  0.17144800  0.69307000  1
  As  As5  1  0.50000000  0.52148800  0.82845800  1
  As  As6  1  0.50000000  0.82849000  0.52144600  1
  As  As7  1  0.50000000  0.47837800  0.30693000  1
  As  As8  1  0.50000000  0.69303000  0.17154200  1
  As  As9  1  0.00000000  0.99985200  0.35558400  1
  As  As10  1  0.00000000  0.35561700  0.00000000  1
  As  As11  1  0.00000000  0.64426800  0.64441600  1
loop_
_geom_bond_atom_site_label_1
_geom_bond_atom_site_label_2
_geom_bond_distance
_geom_bond_site_symmetry_2
Ni0 Zr0 2.855189 1_555
Ni0 Zr0 2.855189 1_655
Ni0 Tb1 3.129932 1_566
Ni0 Tb2 3.130239 1_555
Ni1 Zr1 2.853722 1_655
Ni1 Zr1 2.853722 1_555
Ni1 Tb0 3.129251 1_555
Ni1 Tb2 3.129251 1_554
Ni2 Zr2 2.855193 1_655
Ni2 Zr2 2.855193 1_555
Ni2 Tb1 3.129932 1_555
Ni2 Tb0 3.130239 1_545
Ni3 Zr2 2.822618 1_555
Ni3 Tb0 3.167361 1_445
Ni3 Tb0 3.167361 1_545
Ni3 Tb3 3.228439 1_555
Ni4 Zr0 2.824583 1_545
Ni4 Tb1 3.168114 1_556
Ni4 Tb1 3.168114 1_456
Ni4 Tb3 3.229008 1_555
Ni5 Zr1 2.818395 1_556
Ni5 Tb2 3.168302 1_455
Ni5 Tb2 3.168302 1_555
Ni5 Tb3 3.228113 1_555
Ni6 Zr0 2.822606 1_555
Ni6 Tb2 3.167362 1_555
Ni6 Tb2 3.167362 1_455
Ni6 Tb4 3.228439 1_555
Ni7 Zr2 2.824580 1_555
Ni7 Tb1 3.168114 1_455
Ni7 Tb1 3.168114 1_555
Ni7 Tb4 3.229008 1_555
Ni8 Zr1 2.818395 1_555
Ni8 Tb0 3.168302 1_555
Ni8 Tb0 3.168302 1_455
Ni8 Tb4 3.228113 1_555
Ni9 Zr0 2.995066 1_645
Ni9 Zr0 2.995066 1_545
Ni9 Tb3 3.241159 1_655
Ni9 Tb3 3.241159 1_555
Ni9 Tb0 3.331385 1_545
Ni10 Zr1 2.996821 1_556
Ni10 Zr1 2.996821 1_656
Ni10 Tb3 3.240259 1_655
Ni10 Tb3 3.240259 1_555
Ni10 Tb1 3.333727 1_556
Ni11 Zr2 2.991581 1_555
Ni11 Zr2 2.991581 1_655
Ni11 Tb3 3.240559 1_655
Ni11 Tb3 3.240559 1_555
Ni11 Tb2 3.332685 1_555
Ni12 Zr2 2.995057 1_655
Ni12 Zr2 2.995057 1_555
Ni12 Tb4 3.241159 1_555
Ni12 Tb4 3.241159 1_655
Ni12 Tb2 3.331385 1_555
Ni13 Zr1 2.996829 1_555
Ni13 Zr1 2.996829 1_655
Ni13 Tb4 3.240263 1_655
Ni13 Tb4 3.240263 1_555
Ni13 Tb1 3.333715 1_555
Ni14 Zr0 2.991580 1_655
Ni14 Zr0 2.991580 1_555
Ni14 Tb4 3.240559 1_555
Ni14 Tb4 3.240559 1_655
Ni14 Tb0 3.332685 1_555
Ni15 Tb1 3.067812 1_565
Ni15 Tb1 3.067812 1_465
Ni15 Tb2 3.068286 1_554
Ni15 Tb2 3.068286 1_454
Ni15 Tb0 3.068286 1_455
Ni15 Tb0 3.068286 1_555
As0 Ni15 2.293459 1_546
As0 Ni0 2.343715 1_545
As0 Ni0 2.343715 1_445
As0 Ni6 2.437866 1_545
As0 Ni4 2.439526 1_555
As0 Tb1 3.047162 1_556
As0 Tb1 3.047162 1_456
As0 Tb2 3.049230 1_545
As0 Tb2 3.049230 1_445
As1 Ni15 2.294519 1_555
As1 Ni1 2.343068 1_455
As1 Ni1 2.343068 1_555
As1 Ni5 2.435960 1_554
As1 Ni8 2.435960 1_555
As1 Tb0 3.048189 1_455
As1 Tb0 3.048189 1_555
As1 Tb2 3.048189 1_454
As1 Tb2 3.048189 1_554
As2 Ni15 2.293459 1_545
As2 Ni2 2.343715 1_555
As2 Ni2 2.343715 1_455
As2 Ni3 2.437866 1_555
As2 Ni7 2.439526 1_555
As2 Tb1 3.047162 1_555
As2 Tb1 3.047162 1_455
As2 Tb0 3.049230 1_445
As2 Tb0 3.049230 1_545
As3 Ni9 2.407815 1_555
As3 Ni2 2.411355 1_555
As3 Ni3 2.416975 1_555
As3 Ni3 2.416975 1_655
As3 Ni11 2.450688 1_555
As3 Zr2 2.804033 1_555
As3 Zr2 2.804033 1_655
As3 Tb3 3.003198 1_555
As3 Tb3 3.003198 1_655
As4 Ni10 2.406468 1_555
As4 Ni0 2.412366 1_545
As4 Ni4 2.415792 1_655
As4 Ni4 2.415792 1_555
As4 Ni9 2.452784 1_555
As4 Zr0 2.805620 1_645
As4 Zr0 2.805620 1_545
As4 Tb3 3.006198 1_555
As4 Tb3 3.006198 1_655
As5 Ni11 2.408411 1_555
As5 Ni1 2.412980 1_556
As5 Ni5 2.416235 1_555
As5 Ni5 2.416235 1_655
As5 Ni10 2.453322 1_555
As5 Zr1 2.804071 1_556
As5 Zr1 2.804071 1_656
As5 Tb3 3.002685 1_555
As5 Tb3 3.002685 1_655
As6 Ni12 2.407815 1_555
As6 Ni0 2.411355 1_555
As6 Ni6 2.416975 1_655
As6 Ni6 2.416975 1_555
As6 Ni14 2.450688 1_555
As6 Zr0 2.804024 1_555
As6 Zr0 2.804024 1_655
As6 Tb4 3.003198 1_555
As6 Tb4 3.003198 1_655
As7 Ni13 2.406462 1_555
As7 Ni2 2.412365 1_555
As7 Ni7 2.415791 1_655
As7 Ni7 2.415791 1_555
As7 Ni12 2.452784 1_555
As7 Zr2 2.805613 1_655
As7 Zr2 2.805613 1_555
As7 Tb4 3.006198 1_555
As7 Tb4 3.006198 1_655
As8 Ni14 2.408411 1_555
As8 Ni1 2.412981 1_555
As8 Ni8 2.416235 1_555
As8 Ni8 2.416235 1_655
As8 Ni13 2.453334 1_555
As8 Zr1 2.804071 1_655
As8 Zr1 2.804071 1_555
As8 Tb4 3.002685 1_555
As8 Tb4 3.002685 1_655
As9 Ni8 2.360691 1_555
As9 Ni3 2.362247 1_565
As9 Ni14 2.529732 1_555
As9 Ni14 2.529732 1_455
As9 Ni9 2.531576 1_565
As9 Ni9 2.531576 1_465
As9 Zr0 2.644922 1_555
As9 Tb0 2.965835 1_555
As9 Tb0 2.965835 1_455
As10 Ni4 2.358463 1_554
As10 Ni7 2.358463 1_555
As10 Ni13 2.530767 1_455
As10 Ni13 2.530767 1_555
As10 Ni10 2.530771 1_554
As10 Ni10 2.530771 1_454
As10 Zr1 2.650162 1_555
As10 Tb1 2.967284 1_455
As10 Tb1 2.967284 1_555
As11 Ni5 2.360691 1_555
As11 Ni6 2.362247 1_555
As11 Ni11 2.529732 1_455
As11 Ni11 2.529732 1_555
As11 Ni12 2.531576 1_555
As11 Ni12 2.531576 1_455
As11 Zr2 2.644916 1_555
As11 Tb2 2.965835 1_555
As11 Tb2 2.965835 1_455
