# generated using pymatgen
data_InAg3(CN)6
_symmetry_space_group_name_H-M   'P 1'
_cell_length_a   7.80090893
_cell_length_b   7.80090893
_cell_length_c   7.64185600
_cell_angle_alpha   90.00000000
_cell_angle_beta   90.00000000
_cell_angle_gamma   119.99999095
_symmetry_Int_Tables_number   1
_chemical_formula_structural   InAg3(CN)6
_chemical_formula_sum   'In1 Ag3 C6 N6'
_cell_volume   402.73552220
_cell_formula_units_Z   1
loop_
 _symmetry_equiv_pos_site_id
 _symmetry_equiv_pos_as_xyz
  1  'x, y, z'
loop_
 _atom_site_type_symbol
 _atom_site_label
 _atom_site_symmetry_multiplicity
 _atom_site_fract_x
 _atom_site_fract_y
 _atom_site_fract_z
 _atom_site_occupancy
  In  In0  1  0.00000000  0.00000000  0.00000000  1
  Ag  Ag0  1  0.50000000  0.50000000  0.50000000  1
  Ag  Ag1  1  0.00000000  0.50000000  0.50000000  1
  Ag  Ag2  1  0.50000000  0.00000000  0.50000000  1
  C  C0  1  0.75526300  0.75526300  0.82558200  1
  C  C1  1  0.24473700  0.24473700  0.17441800  1
  C  C2  1  0.00000000  0.24473700  0.82558200  1
  C  C3  1  0.00000000  0.75526300  0.17441800  1
  C  C4  1  0.24473700  0.00000000  0.82558200  1
  C  C5  1  0.75526300  0.00000000  0.17441800  1
  N  N0  1  0.64638900  0.64638900  0.72060000  1
  N  N1  1  0.35361100  0.35361100  0.27940000  1
  N  N2  1  0.00000000  0.35361100  0.72060000  1
  N  N3  1  0.00000000  0.64638900  0.27940000  1
  N  N4  1  0.35361100  0.00000000  0.72060000  1
  N  N5  1  0.64638900  0.00000000  0.27940000  1
loop_
_geom_bond_atom_site_label_1
_geom_bond_atom_site_label_2
_geom_bond_distance
_geom_bond_site_symmetry_2
Ag0 N1 2.036170 1_555
Ag0 N0 2.036170 1_555
Ag1 N3 2.036170 1_555
Ag1 N2 2.036170 1_555
Ag2 N5 2.036170 1_555
Ag2 N4 2.036170 1_555
C0 N0 1.168313 1_555
C0 In0 2.328411 1_666
C1 N1 1.168313 1_555
C1 In0 2.328411 1_555
C2 N2 1.168313 1_555
C2 In0 2.328411 1_556
C3 N3 1.168313 1_555
C3 In0 2.328411 1_565
C4 N4 1.168313 1_555
C4 In0 2.328411 1_556
C5 N5 1.168313 1_555
C5 In0 2.328411 1_655
