# generated using pymatgen
data_Fe3Mo3C
_symmetry_space_group_name_H-M   'P 1'
_cell_length_a   7.82401350
_cell_length_b   7.82401350
_cell_length_c   7.82401350
_cell_angle_alpha   60.00000000
_cell_angle_beta   60.00000000
_cell_angle_gamma   60.00000000
_symmetry_Int_Tables_number   1
_chemical_formula_structural   Fe3Mo3C
_chemical_formula_sum   'Fe12 Mo12 C4'
_cell_volume   338.66769749
_cell_formula_units_Z   4
loop_
 _symmetry_equiv_pos_site_id
 _symmetry_equiv_pos_as_xyz
  1  'x, y, z'
loop_
 _atom_site_type_symbol
 _atom_site_label
 _atom_site_symmetry_multiplicity
 _atom_site_fract_x
 _atom_site_fract_y
 _atom_site_fract_z
 _atom_site_occupancy
  Fe  Fe0  1  0.12500000  0.62500000  0.62500000  1
  Fe  Fe1  1  0.62500000  0.12500000  0.62500000  1
  Fe  Fe2  1  0.62500000  0.62500000  0.12500000  1
  Fe  Fe3  1  0.62500000  0.62500000  0.62500000  1
  Fe  Fe4  1  0.73015600  0.42328100  0.42328100  1
  Fe  Fe5  1  0.42328100  0.73015600  0.42328100  1
  Fe  Fe6  1  0.42328100  0.42328100  0.73015600  1
  Fe  Fe7  1  0.42328100  0.42328100  0.42328100  1
  Fe  Fe8  1  0.51984400  0.82671900  0.82671900  1
  Fe  Fe9  1  0.82671900  0.51984400  0.82671900  1
  Fe  Fe10  1  0.82671900  0.82671900  0.51984400  1
  Fe  Fe11  1  0.82671900  0.82671900  0.82671900  1
  Mo  Mo0  1  0.79699700  0.79699700  0.20300300  1
  Mo  Mo1  1  0.20300300  0.20300300  0.79699700  1
  Mo  Mo2  1  0.79699700  0.20300300  0.79699700  1
  Mo  Mo3  1  0.20300300  0.79699700  0.20300300  1
  Mo  Mo4  1  0.20300300  0.79699700  0.79699700  1
  Mo  Mo5  1  0.79699700  0.20300300  0.20300300  1
  Mo  Mo6  1  0.45300300  0.45300300  0.04699700  1
  Mo  Mo7  1  0.04699700  0.04699700  0.45300300  1
  Mo  Mo8  1  0.45300300  0.04699700  0.45300300  1
  Mo  Mo9  1  0.04699700  0.45300300  0.04699700  1
  Mo  Mo10  1  0.04699700  0.45300300  0.45300300  1
  Mo  Mo11  1  0.45300300  0.04699700  0.04699700  1
  C  C0  1  0.62500000  0.12500000  0.12500000  1
  C  C1  1  0.12500000  0.62500000  0.12500000  1
  C  C2  1  0.12500000  0.12500000  0.62500000  1
  C  C3  1  0.12500000  0.12500000  0.12500000  1
loop_
_geom_bond_atom_site_label_1
_geom_bond_atom_site_label_2
_geom_bond_distance
_geom_bond_site_symmetry_2
Fe0 Fe5 2.356380 1_555
Fe0 Fe6 2.356380 1_555
Fe0 Fe9 2.356380 1_455
Fe0 Fe10 2.356380 1_455
Fe0 Fe11 2.356384 1_455
Fe0 Fe7 2.356384 1_555
Fe0 Mo9 2.729066 1_556
Fe0 Mo4 2.729066 1_555
Fe0 Mo7 2.729066 1_565
Fe0 Mo3 2.729066 1_555
Fe0 Mo1 2.729066 1_555
Fe0 Mo10 2.729066 1_555
Fe1 Fe6 2.356380 1_555
Fe1 Fe4 2.356380 1_555
Fe1 Fe8 2.356380 1_545
Fe1 Fe10 2.356380 1_545
Fe1 Fe11 2.356384 1_545
Fe1 Fe7 2.356384 1_555
Fe1 Mo2 2.729066 1_555
Fe1 Mo11 2.729066 1_556
Fe1 Mo7 2.729066 1_655
Fe1 Mo8 2.729066 1_555
Fe1 Mo1 2.729066 1_555
Fe1 Mo5 2.729066 1_555
Fe2 Fe4 2.356380 1_555
Fe2 Fe5 2.356380 1_555
Fe2 Fe8 2.356380 1_554
Fe2 Fe9 2.356380 1_554
Fe2 Fe7 2.356384 1_555
Fe2 Mo0 2.729066 1_555
Fe2 Mo11 2.729066 1_565
Fe2 Mo3 2.729066 1_555
Fe2 Mo9 2.729066 1_655
Fe2 Mo5 2.729066 1_555
Fe2 Mo6 2.729066 1_555
Fe3 Fe9 2.356386 1_555
Fe3 Fe8 2.356386 1_555
Fe3 Fe6 2.356386 1_555
Fe3 Fe5 2.356386 1_555
Fe3 Fe4 2.356386 1_555
Fe3 Mo6 2.729066 1_556
Fe3 Mo2 2.729066 1_555
Fe3 Mo8 2.729066 1_565
Fe3 Mo0 2.729066 1_555
Fe3 Mo10 2.729066 1_655
Fe3 Mo4 2.729066 1_555
Fe4 Fe6 2.400994 1_555
Fe4 Fe5 2.400994 1_555
Fe4 Fe7 2.400994 1_555
Fe4 Mo5 2.716947 1_555
Fe4 Mo0 2.716953 1_555
Fe4 Mo2 2.716953 1_555
Fe4 Mo7 2.731380 1_655
Fe4 Mo9 2.731380 1_655
Fe4 Mo10 2.731384 1_655
Fe5 Fe6 2.400994 1_555
Fe5 Fe7 2.400994 1_555
Fe5 Mo3 2.716947 1_555
Fe5 Mo0 2.716953 1_555
Fe5 Mo4 2.716953 1_555
Fe5 Mo7 2.731380 1_565
Fe5 Mo11 2.731380 1_565
Fe5 Mo8 2.731384 1_565
Fe6 Fe7 2.400994 1_555
Fe6 Mo1 2.716947 1_555
Fe6 Mo2 2.716953 1_555
Fe6 Mo4 2.716953 1_555
Fe6 Mo11 2.731380 1_556
Fe6 Mo9 2.731380 1_556
Fe6 Mo6 2.731384 1_556
Fe7 Mo3 2.716950 1_555
Fe7 Mo1 2.716950 1_555
Fe7 Mo5 2.716950 1_555
Fe7 Mo6 2.731377 1_555
Fe7 Mo8 2.731377 1_555
Fe7 Mo10 2.731377 1_555
Fe8 Fe9 2.400994 1_555
Fe8 Mo11 2.716947 1_566
Fe8 Mo8 2.716953 1_565
Fe8 Mo6 2.716953 1_556
Fe8 Mo1 2.731380 1_565
Fe8 Mo3 2.731380 1_556
Fe8 Mo4 2.731384 1_555
Fe9 Mo9 2.716947 1_656
Fe9 Mo10 2.716953 1_655
Fe9 Mo6 2.716953 1_556
Fe9 Mo5 2.731380 1_556
Fe9 Mo1 2.731380 1_655
Fe9 Mo2 2.731384 1_555
Fe10 Fe3 2.356386 1_555
Fe10 Fe11 2.400994 1_555
Fe10 Fe9 2.400994 1_555
Fe10 Fe8 2.400994 1_555
Fe10 Mo7 2.716947 1_665
Fe10 Mo10 2.716953 1_655
Fe10 Mo8 2.716953 1_565
Fe10 Mo3 2.731380 1_655
Fe10 Mo5 2.731380 1_565
Fe10 Mo0 2.731384 1_555
Fe11 Fe2 2.356384 1_556
Fe11 Fe9 2.400994 1_555
Fe11 Fe8 2.400994 1_555
Fe11 Mo7 2.716950 1_665
Fe11 Mo11 2.716950 1_566
Fe11 Mo9 2.716950 1_656
Fe11 Mo0 2.731377 1_556
Fe11 Mo2 2.731377 1_565
Fe11 Mo4 2.731377 1_655
C0 Mo5 2.137960 1_555
C0 Mo0 2.137960 1_545
C0 Mo2 2.137960 1_554
C0 Mo6 2.137960 1_555
C0 Mo11 2.137960 1_555
C0 Mo8 2.137960 1_555
C1 Mo3 2.137960 1_555
C1 Mo9 2.137960 1_555
C1 Mo4 2.137960 1_554
C1 Mo6 2.137960 1_555
C1 Mo0 2.137960 1_455
C1 Mo10 2.137960 1_555
C2 Mo1 2.137960 1_555
C2 Mo7 2.137960 1_555
C2 Mo4 2.137960 1_545
C2 Mo2 2.137960 1_455
C2 Mo8 2.137960 1_555
C2 Mo10 2.137960 1_555
C3 Mo11 2.137960 1_555
C3 Mo3 2.137960 1_545
C3 Mo9 2.137960 1_555
C3 Mo1 2.137960 1_554
C3 Mo7 2.137960 1_555
C3 Mo5 2.137960 1_455
