# generated using pymatgen
data_Ba(MoO2)4
_symmetry_space_group_name_H-M   'P 1'
_cell_length_a   5.90855548
_cell_length_b   5.90855548
_cell_length_c   7.88565700
_cell_angle_alpha   90.00000000
_cell_angle_beta   90.00000000
_cell_angle_gamma   119.99999422
_symmetry_Int_Tables_number   1
_chemical_formula_structural   Ba(MoO2)4
_chemical_formula_sum   'Ba1 Mo4 O8'
_cell_volume   238.41368258
_cell_formula_units_Z   1
loop_
 _symmetry_equiv_pos_site_id
 _symmetry_equiv_pos_as_xyz
  1  'x, y, z'
loop_
 _atom_site_type_symbol
 _atom_site_label
 _atom_site_symmetry_multiplicity
 _atom_site_fract_x
 _atom_site_fract_y
 _atom_site_fract_z
 _atom_site_occupancy
  Ba  Ba0  1  0.00000000  0.00000000  0.00000000  1
  Mo  Mo0  1  0.33333300  0.66666700  0.74649100  1
  Mo  Mo1  1  0.66666700  0.33333300  0.74649100  1
  Mo  Mo2  1  0.33333300  0.66666700  0.25350900  1
  Mo  Mo3  1  0.66666700  0.33333300  0.25350900  1
  O  O0  1  0.33743600  0.33743600  0.70700600  1
  O  O1  1  0.66256400  0.00000000  0.70700600  1
  O  O2  1  0.00000000  0.66256400  0.70700600  1
  O  O3  1  0.66256400  0.66256400  0.29299400  1
  O  O4  1  0.00000000  0.33743600  0.29299400  1
  O  O5  1  0.33743600  0.00000000  0.29299400  1
  O  O6  1  0.33333300  0.66666700  0.00000000  1
  O  O7  1  0.66666700  0.33333300  0.00000000  1
loop_
_geom_bond_atom_site_label_1
_geom_bond_atom_site_label_2
_geom_bond_distance
_geom_bond_site_symmetry_2
Ba0 O4 3.051763 1_555
Ba0 O5 3.051763 1_555
Ba0 O2 3.051763 1_544
Ba0 O1 3.051763 1_454
Ba0 O0 3.051763 1_554
Ba0 O3 3.051763 1_445
Ba0 O7 3.411303 1_455
Ba0 O6 3.411303 1_545
Ba0 O6 3.411308 1_555
Ba0 O7 3.411308 1_445
Ba0 O6 3.411308 1_445
Ba0 O7 3.411308 1_555
Mo0 O2 1.982116 1_555
Mo0 O1 1.982119 1_565
Mo0 O0 1.982122 1_555
Mo0 O6 1.999085 1_556
Mo1 O1 1.982116 1_555
Mo1 O2 1.982119 1_655
Mo1 O0 1.982122 1_555
Mo1 O7 1.999085 1_556
Mo2 O5 1.982116 1_565
Mo2 O4 1.982119 1_555
Mo2 O3 1.982122 1_555
Mo2 O6 1.999085 1_555
Mo3 O4 1.982116 1_655
Mo3 O5 1.982119 1_555
Mo3 O3 1.982122 1_555
Mo3 O7 1.999085 1_555
