# generated using pymatgen
data_CaAl2(SiO6)2
_symmetry_space_group_name_H-M   'P 1'
_cell_length_a   10.59640800
_cell_length_b   9.35968800
_cell_length_c   10.30362132
_cell_angle_alpha   89.97096180
_cell_angle_beta   90.00000000
_cell_angle_gamma   90.00000000
_symmetry_Int_Tables_number   1
_chemical_formula_structural   CaAl2(SiO6)2
_chemical_formula_sum   'Ca4 Al8 Si8 O48'
_cell_volume   1021.90347809
_cell_formula_units_Z   4
loop_
 _symmetry_equiv_pos_site_id
 _symmetry_equiv_pos_as_xyz
  1  'x, y, z'
loop_
 _atom_site_type_symbol
 _atom_site_label
 _atom_site_symmetry_multiplicity
 _atom_site_fract_x
 _atom_site_fract_y
 _atom_site_fract_z
 _atom_site_occupancy
  Ca  Ca0  1  0.43256500  0.71952400  0.97878500  1
  Ca  Ca1  1  0.93256500  0.28047600  0.02121500  1
  Ca  Ca2  1  0.56915100  0.26595500  0.51743200  1
  Ca  Ca3  1  0.06915100  0.73404500  0.48256800  1
  Al  Al0  1  0.36764400  0.06992000  0.08539700  1
  Al  Al1  1  0.86764400  0.93008000  0.91460300  1
  Al  Al2  1  0.62266200  0.92029400  0.41473700  1
  Al  Al3  1  0.12266200  0.07970600  0.58526300  1
  Al  Al4  1  0.66735300  0.56733400  0.11774800  1
  Al  Al5  1  0.16735300  0.43266600  0.88225200  1
  Al  Al6  1  0.33837200  0.42880500  0.38190000  1
  Al  Al7  1  0.83837200  0.57119500  0.61810000  1
  Si  Si0  1  0.38984500  0.41261500  0.07335900  1
  Si  Si1  1  0.88984500  0.58738500  0.92664100  1
  Si  Si2  1  0.61883100  0.57696400  0.42589500  1
  Si  Si3  1  0.11883100  0.42303600  0.57410500  1
  Si  Si4  1  0.63703000  0.91455800  0.09591800  1
  Si  Si5  1  0.13703000  0.08544200  0.90408200  1
  Si  Si6  1  0.35281900  0.07846300  0.40105600  1
  Si  Si7  1  0.85281900  0.92153700  0.59894400  1
  O  O0  1  0.33358700  0.04519800  0.24928700  1
  O  O1  1  0.83358700  0.95480200  0.75071300  1
  O  O2  1  0.65166700  0.94218300  0.24932300  1
  O  O3  1  0.15166700  0.05781700  0.75067700  1
  O  O4  1  0.40655900  0.24536900  0.04481200  1
  O  O5  1  0.90655900  0.75463100  0.95518800  1
  O  O6  1  0.59499700  0.74315500  0.45629900  1
  O  O7  1  0.09499700  0.25684500  0.54370100  1
  O  O8  1  0.32941200  0.44764600  0.21493900  1
  O  O9  1  0.82941200  0.55235400  0.78506100  1
  O  O10  1  0.68033900  0.54709900  0.28405000  1
  O  O11  1  0.18033900  0.45290100  0.71595000  1
  O  O12  1  0.13715000  0.25788300  0.93845500  1
  O  O13  1  0.63715000  0.74211700  0.06154500  1
  O  O14  1  0.86039300  0.74890600  0.56650500  1
  O  O15  1  0.36039300  0.25109400  0.43349500  1
  O  O16  1  0.49233800  0.95079000  0.04245100  1
  O  O17  1  0.99233800  0.04921000  0.95754900  1
  O  O18  1  0.49633000  0.03708600  0.45411700  1
  O  O19  1  0.99633000  0.96291400  0.54588300  1
  O  O20  1  0.24532900  0.00302200  0.98642600  1
  O  O21  1  0.74532900  0.99697800  0.01357400  1
  O  O22  1  0.74210900  0.99769600  0.51282500  1
  O  O23  1  0.24210900  0.00230400  0.48717500  1
  O  O24  1  0.30271500  0.50047600  0.96320200  1
  O  O25  1  0.80271500  0.49952400  0.03679800  1
  O  O26  1  0.70715100  0.49375100  0.53720900  1
  O  O27  1  0.20715100  0.50624900  0.46279100  1
  O  O28  1  0.52304000  0.50091600  0.05601900  1
  O  O29  1  0.02304000  0.49908400  0.94398100  1
  O  O30  1  0.48735400  0.48408100  0.44246600  1
  O  O31  1  0.98735400  0.51591900  0.55753400  1
  O  O32  1  0.44050200  0.18789400  0.73328500  1
  O  O33  1  0.94050200  0.81210600  0.26671500  1
  O  O34  1  0.56088600  0.67851700  0.74149200  1
  O  O35  1  0.06088600  0.32148300  0.25850800  1
  O  O36  1  0.48214100  0.58032600  0.73761000  1
  O  O37  1  0.98214100  0.41967400  0.26239000  1
  O  O38  1  0.67226800  0.32290800  0.78932500  1
  O  O39  1  0.17226800  0.67709200  0.21067500  1
  O  O40  1  0.31744700  0.82825300  0.73894600  1
  O  O41  1  0.81744700  0.17174700  0.26105400  1
  O  O42  1  0.49984600  0.07835900  0.76041400  1
  O  O43  1  0.99984600  0.92164100  0.23958600  1
  O  O44  1  0.20695300  0.74140300  0.11261000  1
  O  O45  1  0.70695300  0.25859700  0.88739000  1
  O  O46  1  0.77631800  0.23807900  0.35537700  1
  O  O47  1  0.27631800  0.76192100  0.64462300  1
loop_
_geom_bond_atom_site_label_1
_geom_bond_atom_site_label_2
_geom_bond_distance
_geom_bond_site_symmetry_2
Ca0 O13 2.339164 1_556
Ca0 O16 2.349112 1_556
Ca0 O28 2.395265 1_556
Ca0 O24 2.474417 1_555
Ca0 O44 2.767467 1_556
Ca0 O34 2.824017 1_555
Ca0 O36 2.855131 1_555
Ca0 O40 2.937343 1_555
Ca1 O12 2.339164 1_654
Ca1 O17 2.349112 1_554
Ca1 O29 2.395265 1_654
Ca1 O25 2.474417 1_555
Ca1 O45 2.767467 1_554
Ca1 O35 2.824017 1_655
Ca1 O37 2.855131 1_555
Ca1 O41 2.937343 1_555
Ca2 O30 2.348275 1_555
Ca2 O18 2.368800 1_555
Ca2 O15 2.379236 1_555
Ca2 O26 2.593482 1_555
Ca2 O32 2.708691 1_555
Ca2 O46 2.770489 1_555
Ca2 O38 3.054161 1_555
Ca3 O31 2.348275 1_455
Ca3 O19 2.368800 1_455
Ca3 O14 2.379236 1_455
Ca3 O27 2.593482 1_555
Ca3 O33 2.708691 1_455
Ca3 O47 2.770489 1_555
Ca3 O39 3.054161 1_555
Al0 O0 1.742112 1_555
Al0 O4 1.743807 1_555
Al0 O20 1.764225 1_554
Al0 O16 1.784777 1_545
Al1 O1 1.742112 1_555
Al1 O5 1.743807 1_555
Al1 O21 1.764225 1_556
Al1 O17 1.784777 1_565
Al2 O6 1.737083 1_555
Al2 O2 1.743828 1_555
Al2 O22 1.774553 1_555
Al2 O18 1.775404 1_565
Al3 O7 1.737083 1_555
Al3 O3 1.743828 1_555
Al3 O23 1.774553 1_555
Al3 O19 1.775404 1_445
Al4 O10 1.729336 1_555
Al4 O13 1.764379 1_555
Al4 O28 1.769135 1_555
Al4 O25 1.776627 1_555
Al5 O11 1.729336 1_555
Al5 O12 1.764379 1_555
Al5 O29 1.769135 1_555
Al5 O24 1.776627 1_555
Al6 O8 1.731833 1_555
Al6 O15 1.761477 1_555
Al6 O30 1.774724 1_555
Al6 O27 1.775980 1_555
Al7 O9 1.731833 1_555
Al7 O14 1.761477 1_555
Al7 O31 1.774724 1_555
Al7 O26 1.775980 1_555
O0 Si6 1.607588 1_555
O1 Si7 1.607588 1_555
O2 Si4 1.609256 1_555
O3 Si5 1.609256 1_555
O4 Si0 1.602727 1_555
O5 Si1 1.602727 1_555
O6 Si2 1.606855 1_555
O7 Si3 1.606855 1_555
O8 Si0 1.626692 1_555
O9 Si1 1.626692 1_555
O10 Si2 1.624616 1_555
O11 Si3 1.624616 1_555
O12 Si5 1.652571 1_555
O13 Si4 1.652571 1_555
O14 Si7 1.652097 1_555
O15 Si6 1.652097 1_555
O16 Si4 1.664049 1_555
O17 Si5 1.664049 1_655
O18 Si6 1.661687 1_555
O19 Si7 1.661687 1_555
O20 Si5 1.622106 1_555
O21 Si4 1.622106 1_555
O22 Si7 1.634343 1_555
O23 Si6 1.634343 1_555
O24 Si0 1.678093 1_556
O25 Si1 1.678093 1_554
O26 Si2 1.672431 1_555
O27 Si3 1.672431 1_555
O28 Si0 1.645248 1_555
O29 Si1 1.645248 1_455
O30 Si2 1.650983 1_555
O31 Si3 1.650983 1_655
O32 O42 1.234641 1_555
O33 O43 1.234641 1_555
O34 O36 1.241980 1_555
O35 O37 1.241980 1_455
O38 O45 1.231968 1_555
O39 O44 1.231968 1_555
O40 O47 1.233098 1_555
O41 O46 1.233098 1_555
