# generated using pymatgen
data_Sr3Nb3N5
_symmetry_space_group_name_H-M   'P 1'
_cell_length_a   6.20075106
_cell_length_b   8.04946553
_cell_length_c   8.21389993
_cell_angle_alpha   107.58959734
_cell_angle_beta   101.96405509
_cell_angle_gamma   102.06999369
_symmetry_Int_Tables_number   1
_chemical_formula_structural   Sr3Nb3N5
_chemical_formula_sum   'Sr6 Nb6 N10'
_cell_volume   365.72725421
_cell_formula_units_Z   2
loop_
 _symmetry_equiv_pos_site_id
 _symmetry_equiv_pos_as_xyz
  1  'x, y, z'
loop_
 _atom_site_type_symbol
 _atom_site_label
 _atom_site_symmetry_multiplicity
 _atom_site_fract_x
 _atom_site_fract_y
 _atom_site_fract_z
 _atom_site_occupancy
  Sr  Sr0  1  0.74758100  0.43450600  0.57635700  1
  Sr  Sr1  1  0.25241900  0.56549400  0.42364300  1
  Sr  Sr2  1  0.63793400  0.82629300  0.87839100  1
  Sr  Sr3  1  0.36206600  0.17370700  0.12160900  1
  Sr  Sr4  1  0.68762900  0.66996100  0.22784600  1
  Sr  Sr5  1  0.31237100  0.33003900  0.77215400  1
  Nb  Nb0  1  0.90330600  0.31720500  0.99920400  1
  Nb  Nb1  1  0.09669400  0.68279500  0.00079600  1
  Nb  Nb2  1  0.72339400  0.00912500  0.59886700  1
  Nb  Nb3  1  0.27660600  0.99087500  0.40113300  1
  Nb  Nb4  1  0.09579100  0.87176500  0.70056000  1
  Nb  Nb5  1  0.90420900  0.12823600  0.29944000  1
  N  N0  1  0.00092800  0.09929300  0.84089100  1
  N  N1  1  0.99907200  0.90070700  0.15910900  1
  N  N2  1  0.73650500  0.74712300  0.56446400  1
  N  N3  1  0.26349500  0.25287700  0.43553600  1
  N  N4  1  0.77086000  0.50946900  0.91201000  1
  N  N5  1  0.22914000  0.49053100  0.08799000  1
  N  N6  1  0.40124800  0.96420900  0.64889700  1
  N  N7  1  0.59875200  0.03579100  0.35110300  1
  N  N8  1  0.17548600  0.65649800  0.76758600  1
  N  N9  1  0.82451400  0.34350200  0.23241400  1
loop_
_geom_bond_atom_site_label_1
_geom_bond_atom_site_label_2
_geom_bond_distance
_geom_bond_site_symmetry_2
N0 Nb4 2.117707 1_545
N0 Nb0 2.127434 1_455
N0 Nb2 2.151169 1_455
N0 Sr5 2.661552 1_555
N0 Sr3 2.674619 1_556
N0 Sr2 2.935665 1_445
N1 Nb5 2.117713 1_565
N1 Nb1 2.127434 1_655
N1 Nb3 2.151169 1_655
N1 Sr4 2.661552 1_555
N1 Sr2 2.674619 1_554
N1 Sr3 2.935665 1_665
N2 Nb2 2.062832 1_565
N2 Nb4 2.138775 1_655
N2 Sr0 2.562147 1_555
N2 Sr4 2.580401 1_555
N2 Sr2 2.692926 1_555
N2 Sr1 2.861588 1_555
N3 Nb3 2.062832 1_545
N3 Nb5 2.138774 1_455
N3 Sr1 2.562147 1_555
N3 Sr5 2.580401 1_555
N3 Sr3 2.692926 1_555
N3 Sr0 2.861588 1_555
N4 Nb1 2.038563 1_656
N4 Nb0 2.130766 1_555
N4 Sr0 2.603689 1_555
N4 Sr5 2.722892 1_555
N4 Sr4 2.733814 1_556
N4 Sr2 2.910299 1_555
N5 Nb0 2.038563 1_454
N5 Nb1 2.130766 1_555
N5 Sr1 2.603689 1_555
N5 Sr4 2.722892 1_555
N5 Sr5 2.733814 1_554
N5 Sr3 2.910299 1_555
N6 Nb4 2.062988 1_555
N6 Nb2 2.101875 1_565
N6 Nb3 2.113377 1_555
N6 Sr2 2.781896 1_555
N6 Sr1 3.006642 1_555
N6 Sr5 3.017999 1_565
N7 Nb5 2.062990 1_555
N7 Nb3 2.101875 1_545
N7 Nb2 2.113377 1_555
N7 Sr3 2.781896 1_555
N7 Sr0 3.006642 1_555
N7 Sr4 3.017999 1_545
N8 Nb1 2.034475 1_556
N8 Nb4 2.090870 1_555
N8 Sr0 2.700609 1_455
N8 Sr2 2.728764 1_555
N8 Sr1 2.863485 1_555
N8 Sr5 2.933682 1_555
N9 Nb0 2.034475 1_554
N9 Nb5 2.090862 1_555
N9 Sr1 2.700609 1_655
N9 Sr3 2.728764 1_555
N9 Sr0 2.863485 1_555
N9 Sr4 2.933682 1_555
