# generated using pymatgen
data_Mg16Al12Te
_symmetry_space_group_name_H-M   'P 1'
_cell_length_a   9.10672625
_cell_length_b   9.10672625
_cell_length_c   9.10672703
_cell_angle_alpha   108.80836377
_cell_angle_beta   108.80836377
_cell_angle_gamma   108.80836484
_symmetry_Int_Tables_number   1
_chemical_formula_structural   Mg16Al12Te
_chemical_formula_sum   'Mg16 Al12 Te1'
_cell_volume   595.22714306
_cell_formula_units_Z   1
loop_
 _symmetry_equiv_pos_site_id
 _symmetry_equiv_pos_as_xyz
  1  'x, y, z'
loop_
 _atom_site_type_symbol
 _atom_site_label
 _atom_site_symmetry_multiplicity
 _atom_site_fract_x
 _atom_site_fract_y
 _atom_site_fract_z
 _atom_site_occupancy
  Mg  Mg0  1  0.60261300  0.60261300  0.29232000  1
  Mg  Mg1  1  0.31363400  0.31363400  0.70813400  1
  Mg  Mg2  1  0.01281100  0.01281100  0.01281100  1
  Mg  Mg3  1  0.00049300  0.00049300  0.65269000  1
  Mg  Mg4  1  0.67702600  0.40068000  0.99700000  1
  Mg  Mg5  1  0.60261300  0.29232000  0.60261300  1
  Mg  Mg6  1  0.99700000  0.67702600  0.40068000  1
  Mg  Mg7  1  0.00049300  0.65269000  0.00049300  1
  Mg  Mg8  1  0.70813400  0.31363400  0.31363400  1
  Mg  Mg9  1  0.40068000  0.99700000  0.67702600  1
  Mg  Mg10  1  0.99700000  0.40068000  0.67702600  1
  Mg  Mg11  1  0.31363400  0.70813400  0.31363400  1
  Mg  Mg12  1  0.65269000  0.00049300  0.00049300  1
  Mg  Mg13  1  0.67702600  0.99700000  0.40068000  1
  Mg  Mg14  1  0.29232000  0.60261300  0.60261300  1
  Mg  Mg15  1  0.40068000  0.67702600  0.99700000  1
  Al  Al0  1  0.64321000  0.64321000  0.83287200  1
  Al  Al1  1  0.81529600  0.81529600  0.18463200  1
  Al  Al2  1  0.36333000  0.17568800  0.98883200  1
  Al  Al3  1  0.83287200  0.64321000  0.64321000  1
  Al  Al4  1  0.17568800  0.98883200  0.36333000  1
  Al  Al5  1  0.18463200  0.81529600  0.81529600  1
  Al  Al6  1  0.36333000  0.98883200  0.17568800  1
  Al  Al7  1  0.98883200  0.36333000  0.17568800  1
  Al  Al8  1  0.81529600  0.18463200  0.81529600  1
  Al  Al9  1  0.98883200  0.17568800  0.36333000  1
  Al  Al10  1  0.64321000  0.83287200  0.64321000  1
  Al  Al11  1  0.17568800  0.36333000  0.98883200  1
  Te  Te0  1  0.36094000  0.36094000  0.36094000  1
loop_
_geom_bond_atom_site_label_1
_geom_bond_atom_site_label_2
_geom_bond_distance
_geom_bond_site_symmetry_2
Mg0 Te0 2.954376 1_555
Mg0 Mg8 3.118725 1_555
Mg0 Mg11 3.118725 1_555
Mg0 Mg15 3.140624 1_554
Mg0 Mg4 3.140624 1_554
Mg0 Mg6 3.169626 1_555
Mg0 Mg13 3.169626 1_555
Mg1 Mg3 3.068987 1_555
Mg1 Mg5 3.118725 1_555
Mg1 Mg14 3.118725 1_555
Mg1 Mg4 3.138558 1_555
Mg1 Mg15 3.138558 1_555
Mg1 Mg10 3.180433 1_455
Mg1 Mg9 3.180433 1_545
Mg1 Te0 3.464837 1_555
Mg2 Mg7 3.209033 1_545
Mg2 Mg3 3.209034 1_554
Mg2 Te0 3.272615 1_555
Mg3 Mg6 3.078737 1_445
Mg4 Mg7 3.078737 1_656
Mg4 Mg5 3.169626 1_555
Mg4 Mg8 3.180433 1_556
Mg4 Mg9 3.276804 1_545
Mg4 Mg6 3.276804 1_556
Mg5 Te0 2.954376 1_555
Mg5 Mg8 3.118725 1_555
Mg5 Mg9 3.140624 1_545
Mg6 Mg8 3.138558 1_555
Mg6 Mg9 3.276804 1_655
Mg8 Te0 3.464837 1_555
Mg10 Mg7 3.078737 1_656
Mg10 Mg8 3.138558 1_555
Mg10 Mg14 3.140624 1_655
Mg10 Mg5 3.169626 1_555
Mg10 Mg13 3.276804 1_545
Mg10 Mg15 3.276804 1_655
Mg11 Mg7 3.068987 1_555
Mg11 Mg14 3.118725 1_555
Mg11 Mg13 3.138558 1_555
Mg11 Mg9 3.138558 1_555
Mg11 Mg6 3.180433 1_455
Mg11 Mg15 3.180433 1_554
Mg11 Te0 3.464837 1_555
Mg12 Mg8 3.068987 1_555
Mg12 Mg15 3.078737 1_544
Mg12 Mg9 3.078737 1_544
Mg12 Mg2 3.209033 1_655
Mg13 Mg3 3.078737 1_665
Mg13 Mg5 3.140624 1_565
Mg13 Mg8 3.180433 1_565
Mg13 Mg15 3.276804 1_554
Mg14 Te0 2.954376 1_555
Mg14 Mg6 3.140624 1_455
Mg14 Mg9 3.169626 1_555
Mg14 Mg15 3.169626 1_555
Al0 Al1 2.667555 1_556
Al0 Al3 2.808922 1_555
Al0 Al10 2.808922 1_555
Al0 Mg1 3.016844 1_555
Al0 Mg5 3.026951 1_555
Al0 Mg14 3.026951 1_555
Al0 Mg12 3.074958 1_566
Al0 Mg7 3.074958 1_656
Al0 Mg15 3.078546 1_555
Al0 Mg4 3.078546 1_555
Al0 Mg2 3.305343 1_666
Al1 Al4 2.733245 1_655
Al1 Al9 2.733245 1_565
Al1 Mg0 2.914638 1_555
Al1 Mg6 3.006064 1_555
Al1 Mg13 3.006064 1_555
Al1 Mg12 3.111596 1_565
Al1 Mg7 3.111596 1_655
Al1 Mg15 3.185700 1_554
Al1 Mg4 3.185700 1_554
Al1 Mg2 3.234586 1_665
Al2 Al5 2.733245 1_545
Al2 Al6 2.767365 1_546
Al2 Mg4 2.890524 1_555
Al2 Mg9 2.971001 1_545
Al2 Mg8 3.042801 1_556
Al2 Mg3 3.124682 1_555
Al2 Mg1 3.163634 1_555
Al2 Mg2 3.168990 1_556
Al2 Te0 3.273337 1_556
Al2 Mg0 3.350782 1_556
Al3 Al5 2.667555 1_655
Al3 Mg8 3.016844 1_555
Al3 Mg5 3.026950 1_555
Al3 Mg0 3.026951 1_555
Al3 Mg3 3.074958 1_665
Al3 Mg7 3.074958 1_656
Al3 Mg10 3.078546 1_555
Al3 Mg6 3.078546 1_555
Al3 Mg2 3.305343 1_666
Al4 Al9 2.767365 1_465
Al4 Al6 2.779006 1_555
Al4 Mg9 2.890524 1_555
Al4 Mg6 2.971001 1_455
Al4 Mg1 3.042801 1_565
Al4 Mg7 3.124682 1_555
Al4 Mg11 3.163634 1_555
Al4 Mg2 3.168990 1_565
Al4 Te0 3.273337 1_565
Al4 Mg5 3.350782 1_565
Al5 Al6 2.733246 1_556
Al5 Mg14 2.914638 1_555
Al5 Mg9 3.006064 1_555
Al5 Mg15 3.006064 1_555
Al5 Mg3 3.111596 1_565
Al5 Mg7 3.111596 1_556
Al5 Mg10 3.185700 1_455
Al5 Mg6 3.185700 1_455
Al5 Mg2 3.234586 1_566
Al6 Mg13 2.890524 1_555
Al6 Mg15 2.971001 1_554
Al6 Mg8 3.042801 1_565
Al6 Mg7 3.124682 1_555
Al6 Mg11 3.163634 1_555
Al6 Mg2 3.168990 1_565
Al6 Te0 3.273337 1_565
Al6 Mg5 3.350783 1_565
Al7 Al8 2.733246 1_554
Al7 Al9 2.779006 1_555
Al7 Mg6 2.890524 1_555
Al7 Mg4 2.971001 1_554
Al7 Mg11 3.042801 1_655
Al7 Mg12 3.124682 1_555
Al7 Mg8 3.163634 1_555
Al7 Mg2 3.168990 1_655
Al7 Te0 3.273337 1_655
Al7 Mg14 3.350783 1_655
Al8 Mg5 2.914638 1_555
Al8 Mg10 3.006064 1_555
Al8 Mg4 3.006064 1_555
Al8 Mg3 3.111596 1_655
Al8 Mg12 3.111596 1_556
Al8 Mg9 3.185700 1_545
Al8 Mg13 3.185700 1_545
Al8 Mg2 3.234586 1_656
Al9 Mg10 2.890524 1_555
Al9 Mg13 2.971001 1_545
Al9 Mg1 3.042801 1_655
Al9 Mg12 3.124682 1_555
Al9 Mg8 3.163634 1_555
Al9 Mg2 3.168990 1_655
Al9 Te0 3.273337 1_655
Al9 Mg14 3.350782 1_655
Al10 Al8 2.667555 1_565
Al10 Al3 2.808922 1_555
Al10 Mg11 3.016844 1_555
Al10 Mg14 3.026950 1_555
Al10 Mg0 3.026951 1_555
Al10 Mg3 3.074958 1_665
Al10 Mg12 3.074958 1_566
Al10 Mg9 3.078546 1_555
Al10 Mg13 3.078546 1_555
Al10 Mg2 3.305343 1_666
Al11 Al8 2.733245 1_455
Al11 Al7 2.767365 1_456
Al11 Al2 2.779005 1_555
Al11 Mg15 2.890524 1_555
Al11 Mg10 2.971001 1_455
Al11 Mg11 3.042801 1_556
Al11 Mg3 3.124682 1_555
Al11 Mg1 3.163634 1_555
Al11 Mg2 3.168990 1_556
Al11 Te0 3.273337 1_556
Al11 Mg0 3.350782 1_556
