# generated using pymatgen
data_Mn2Nb2ZnO9
_symmetry_space_group_name_H-M   'P 1'
_cell_length_a   5.25458517
_cell_length_b   5.25458517
_cell_length_c   14.08709400
_cell_angle_alpha   90.00000000
_cell_angle_beta   90.00000000
_cell_angle_gamma   119.99998951
_symmetry_Int_Tables_number   1
_chemical_formula_structural   Mn2Nb2ZnO9
_chemical_formula_sum   'Mn4 Nb4 Zn2 O18'
_cell_volume   336.84411265
_cell_formula_units_Z   2
loop_
 _symmetry_equiv_pos_site_id
 _symmetry_equiv_pos_as_xyz
  1  'x, y, z'
loop_
 _atom_site_type_symbol
 _atom_site_label
 _atom_site_symmetry_multiplicity
 _atom_site_fract_x
 _atom_site_fract_y
 _atom_site_fract_z
 _atom_site_occupancy
  Mn  Mn0  1  0.33333300  0.66666700  0.00616800  1
  Mn  Mn1  1  0.33333300  0.66666700  0.50616800  1
  Mn  Mn2  1  0.66666700  0.33333300  0.00469600  1
  Mn  Mn3  1  0.66666700  0.33333300  0.50469600  1
  Nb  Nb0  1  0.00000000  0.00000000  0.64921100  1
  Nb  Nb1  1  0.00000000  0.00000000  0.14921100  1
  Nb  Nb2  1  0.00000000  0.00000000  0.86102300  1
  Nb  Nb3  1  0.00000000  0.00000000  0.36102300  1
  Zn  Zn0  1  0.33333300  0.66666700  0.26886100  1
  Zn  Zn1  1  0.33333300  0.66666700  0.76886100  1
  O  O0  1  0.65370200  0.68726500  0.58236400  1
  O  O1  1  0.01238900  0.73174300  0.75586700  1
  O  O2  1  0.64783700  0.96307200  0.42676800  1
  O  O3  1  0.31523500  0.35216300  0.42676800  1
  O  O4  1  0.03356300  0.34629800  0.58236400  1
  O  O5  1  0.71935400  0.73174300  0.25586700  1
  O  O6  1  0.03692800  0.35216300  0.92676800  1
  O  O7  1  0.31273500  0.96643700  0.58236400  1
  O  O8  1  0.31273500  0.34629800  0.08236400  1
  O  O9  1  0.03692800  0.68476500  0.42676800  1
  O  O10  1  0.64783700  0.68476500  0.92676800  1
  O  O11  1  0.65370200  0.96643700  0.08236400  1
  O  O12  1  0.71935400  0.98761100  0.75586700  1
  O  O13  1  0.26825700  0.28064600  0.75586700  1
  O  O14  1  0.26825700  0.98761100  0.25586700  1
  O  O15  1  0.03356300  0.68726500  0.08236400  1
  O  O16  1  0.01238900  0.28064600  0.25586700  1
  O  O17  1  0.31523500  0.96307200  0.92676800  1
loop_
_geom_bond_atom_site_label_1
_geom_bond_atom_site_label_2
_geom_bond_distance
_geom_bond_site_symmetry_2
Mn0 O15 1.953330 1_555
Mn0 O11 1.953332 1_555
Mn0 O8 1.953334 1_555
Mn0 O17 1.958059 1_554
Mn0 O6 1.958061 1_554
Mn0 O10 1.958063 1_554
Mn1 O7 1.953330 1_555
Mn1 O4 1.953332 1_555
Mn1 O0 1.953334 1_555
Mn1 O9 1.958059 1_555
Mn1 O2 1.958061 1_555
Mn1 O3 1.958063 1_555
Mn2 O11 2.187953 1_545
Mn2 O15 2.187956 1_655
Mn2 O8 2.187958 1_555
Mn2 O6 2.192633 1_654
Mn2 O17 2.192636 1_544
Mn2 O10 2.192638 1_554
Mn3 O4 2.187953 1_655
Mn3 O7 2.187956 1_545
Mn3 O0 2.187958 1_555
Mn3 O2 2.192633 1_545
Mn3 O9 2.192636 1_655
Mn3 O3 2.192638 1_555
Nb0 O7 1.976888 1_545
Nb0 O4 1.976888 1_555
Nb0 O0 1.976888 1_445
Nb0 O1 2.083348 1_545
Nb0 O12 2.083348 1_445
Nb0 O13 2.083348 1_555
Nb1 O15 1.976888 1_545
Nb1 O11 1.976888 1_445
Nb1 O8 1.976888 1_555
Nb1 O14 2.083348 1_545
Nb1 O16 2.083348 1_555
Nb1 O5 2.083348 1_445
Nb2 O17 1.990123 1_545
Nb2 O6 1.990123 1_555
Nb2 O10 1.990123 1_445
Nb2 O1 2.068161 1_545
Nb2 O12 2.068161 1_445
Nb2 O13 2.068161 1_555
Nb3 O9 1.990123 1_545
Nb3 O2 1.990123 1_445
Nb3 O3 1.990123 1_555
Nb3 O14 2.068161 1_545
Nb3 O16 2.068161 1_555
Nb3 O5 2.068161 1_445
O1 Zn1 1.889746 1_555
O5 Zn0 1.889752 1_555
O12 Zn1 1.889750 1_555
O13 Zn1 1.889752 1_555
O14 Zn0 1.889746 1_555
O16 Zn0 1.889750 1_555
