# generated using pymatgen
data_VZnO2
_symmetry_space_group_name_H-M   'P 1'
_cell_length_a   3.03059600
_cell_length_b   8.74635723
_cell_length_c   9.86680070
_cell_angle_alpha   112.58893526
_cell_angle_beta   95.00749427
_cell_angle_gamma   99.03206469
_symmetry_Int_Tables_number   1
_chemical_formula_structural   VZnO2
_chemical_formula_sum   'V4 Zn4 O8'
_cell_volume   235.33355088
_cell_formula_units_Z   4
loop_
 _symmetry_equiv_pos_site_id
 _symmetry_equiv_pos_as_xyz
  1  'x, y, z'
loop_
 _atom_site_type_symbol
 _atom_site_label
 _atom_site_symmetry_multiplicity
 _atom_site_fract_x
 _atom_site_fract_y
 _atom_site_fract_z
 _atom_site_occupancy
  V  V0  1  0.17160100  0.58717300  0.78611800  1
  V  V1  1  0.37071800  0.16845100  0.63319000  1
  V  V2  1  0.65261000  0.85995800  0.38677000  1
  V  V3  1  0.86975000  0.44179200  0.23630300  1
  Zn  Zn0  1  0.79832100  0.35481100  0.94788600  1
  Zn  Zn1  1  0.20962900  0.67307000  0.07299300  1
  Zn  Zn2  1  0.25435100  0.12567400  0.31546500  1
  Zn  Zn3  1  0.77510100  0.90357100  0.70601800  1
  O  O0  1  0.45580800  0.61531200  0.27810700  1
  O  O1  1  0.21206100  0.89740600  0.54713900  1
  O  O2  1  0.80618800  0.13129500  0.47242400  1
  O  O3  1  0.54959700  0.41237300  0.74230700  1
  O  O4  1  0.72950300  0.72346200  0.76318000  1
  O  O5  1  0.89608900  0.14978600  0.76684300  1
  O  O6  1  0.31397300  0.30208300  0.25215500  1
  O  O7  1  0.12859000  0.87940000  0.25376500  1
loop_
_geom_bond_atom_site_label_1
_geom_bond_atom_site_label_2
_geom_bond_distance
_geom_bond_site_symmetry_2
O0 V2 1.951677 1_555
O0 V3 2.042760 1_455
O0 V3 2.062618 1_555
O0 Zn1 2.355384 1_555
O1 V2 2.108273 1_455
O1 V2 2.121688 1_555
O1 Zn3 2.129291 1_455
O1 V1 2.143974 1_565
O1 Zn3 2.193443 1_555
O2 V1 2.113664 1_555
O2 V1 2.122377 1_655
O2 Zn2 2.138976 1_655
O2 V2 2.146322 1_545
O2 Zn2 2.159002 1_555
O3 V1 1.942924 1_555
O3 V0 1.991281 1_555
O3 V0 2.126696 1_655
O3 Zn0 2.360691 1_555
O4 Zn3 1.856496 1_555
O4 V0 1.980671 1_655
O4 V0 1.993024 1_555
O5 Zn3 1.962883 1_545
O5 V1 2.044800 1_555
O5 V1 2.063374 1_655
O5 Zn0 2.071889 1_555
O6 Zn2 1.864436 1_555
O6 V3 1.975147 1_555
O6 V3 1.989121 1_455
O7 Zn2 1.962124 1_565
O7 V2 2.040974 1_555
O7 Zn1 2.059423 1_555
O7 V2 2.063213 1_455
