# generated using pymatgen
data_Co3W3C
_symmetry_space_group_name_H-M   'P 1'
_cell_length_a   7.84631423
_cell_length_b   7.84631423
_cell_length_c   7.84631423
_cell_angle_alpha   60.00000000
_cell_angle_beta   60.00000000
_cell_angle_gamma   60.00000000
_symmetry_Int_Tables_number   1
_chemical_formula_structural   Co3W3C
_chemical_formula_sum   'Co12 W12 C4'
_cell_volume   341.57186638
_cell_formula_units_Z   4
loop_
 _symmetry_equiv_pos_site_id
 _symmetry_equiv_pos_as_xyz
  1  'x, y, z'
loop_
 _atom_site_type_symbol
 _atom_site_label
 _atom_site_symmetry_multiplicity
 _atom_site_fract_x
 _atom_site_fract_y
 _atom_site_fract_z
 _atom_site_occupancy
  Co  Co0  1  0.12500000  0.12500000  0.62500000  1
  Co  Co1  1  0.12500000  0.62500000  0.12500000  1
  Co  Co2  1  0.62500000  0.12500000  0.12500000  1
  Co  Co3  1  0.12500000  0.12500000  0.12500000  1
  Co  Co4  1  0.33013500  0.33013500  0.00959400  1
  Co  Co5  1  0.33013500  0.00959400  0.33013500  1
  Co  Co6  1  0.00959400  0.33013500  0.33013500  1
  Co  Co7  1  0.33013500  0.33013500  0.33013500  1
  Co  Co8  1  0.91986500  0.91986500  0.24040600  1
  Co  Co9  1  0.91986500  0.24040600  0.91986500  1
  Co  Co10  1  0.24040600  0.91986500  0.91986500  1
  Co  Co11  1  0.91986500  0.91986500  0.91986500  1
  W  W0  1  0.95279500  0.95279500  0.54720500  1
  W  W1  1  0.54720500  0.95279500  0.54720500  1
  W  W2  1  0.95279500  0.54720500  0.54720500  1
  W  W3  1  0.54720500  0.54720500  0.95279500  1
  W  W4  1  0.95279500  0.54720500  0.95279500  1
  W  W5  1  0.54720500  0.95279500  0.95279500  1
  W  W6  1  0.29720500  0.29720500  0.70279500  1
  W  W7  1  0.70279500  0.29720500  0.70279500  1
  W  W8  1  0.29720500  0.70279500  0.70279500  1
  W  W9  1  0.70279500  0.70279500  0.29720500  1
  W  W10  1  0.29720500  0.70279500  0.29720500  1
  W  W11  1  0.70279500  0.29720500  0.29720500  1
  C  C0  1  0.62500000  0.62500000  0.12500000  1
  C  C1  1  0.62500000  0.12500000  0.62500000  1
  C  C2  1  0.12500000  0.62500000  0.62500000  1
  C  C3  1  0.62500000  0.62500000  0.62500000  1
loop_
_geom_bond_atom_site_label_1
_geom_bond_atom_site_label_2
_geom_bond_distance
_geom_bond_site_symmetry_2
Co0 Co7 2.382648 1_555
Co0 Co11 2.382648 1_445
Co0 Co10 2.382652 1_545
Co0 Co9 2.382652 1_455
Co0 Co5 2.382652 1_555
Co0 Co6 2.382652 1_555
Co0 W2 2.738455 1_455
Co0 W1 2.738455 1_545
Co0 W6 2.738455 1_555
Co0 W8 2.738455 1_545
Co0 W7 2.738455 1_455
Co0 W0 2.738455 1_445
Co1 Co7 2.382648 1_555
Co1 Co11 2.382648 1_454
Co1 Co10 2.382652 1_554
Co1 Co8 2.382652 1_455
Co1 Co4 2.382652 1_555
Co1 Co6 2.382652 1_555
Co1 W3 2.738455 1_554
Co1 W2 2.738455 1_455
Co1 W10 2.738455 1_555
Co1 W9 2.738455 1_455
Co1 W8 2.738455 1_554
Co1 W4 2.738455 1_454
Co2 Co7 2.382648 1_555
Co2 Co8 2.382652 1_545
Co2 Co9 2.382652 1_554
Co2 Co4 2.382652 1_555
Co2 Co5 2.382652 1_555
Co2 W3 2.738455 1_554
Co2 W1 2.738455 1_545
Co2 W11 2.738455 1_555
Co2 W9 2.738455 1_545
Co2 W7 2.738455 1_554
Co2 W5 2.738455 1_544
Co3 Co6 2.382646 1_555
Co3 Co5 2.382646 1_555
Co3 Co4 2.382646 1_555
Co3 Co9 2.382646 1_454
Co3 Co8 2.382646 1_445
Co3 W5 2.738455 1_544
Co3 W0 2.738455 1_445
Co3 W4 2.738455 1_454
Co3 W10 2.738455 1_545
Co3 W6 2.738455 1_554
Co3 W11 2.738455 1_455
Co4 Co6 2.515065 1_555
Co4 Co7 2.515065 1_555
Co4 Co5 2.515065 1_555
Co4 W6 2.690549 1_554
Co4 W7 2.690553 1_554
Co4 W8 2.690553 1_554
Co4 W4 2.717193 1_454
Co4 W5 2.717193 1_544
Co4 W3 2.717200 1_554
Co5 Co6 2.515065 1_555
Co5 Co7 2.515065 1_555
Co5 W10 2.690549 1_545
Co5 W8 2.690553 1_545
Co5 W9 2.690553 1_545
Co5 W0 2.717193 1_445
Co5 W5 2.717193 1_544
Co5 W1 2.717200 1_545
Co6 Co7 2.515065 1_555
Co6 W11 2.690549 1_455
Co6 W7 2.690553 1_455
Co6 W9 2.690553 1_455
Co6 W0 2.717193 1_445
Co6 W4 2.717193 1_454
Co6 W2 2.717200 1_455
Co7 W11 2.690556 1_555
Co7 W6 2.690556 1_555
Co7 W10 2.690556 1_555
Co7 W1 2.717196 1_545
Co7 W3 2.717196 1_554
Co7 W2 2.717196 1_455
Co8 Co9 2.515065 1_564
Co8 W0 2.690549 1_555
Co8 W1 2.690553 1_555
Co8 W2 2.690553 1_555
Co8 W10 2.717193 1_655
Co8 W11 2.717193 1_565
Co8 W9 2.717200 1_555
Co9 W4 2.690549 1_555
Co9 W3 2.690553 1_555
Co9 W2 2.690553 1_555
Co9 W6 2.717193 1_655
Co9 W11 2.717193 1_556
Co9 W7 2.717200 1_555
Co10 Co3 2.382646 1_566
Co10 Co8 2.515065 1_456
Co10 Co11 2.515065 1_455
Co10 Co9 2.515065 1_465
Co10 W5 2.690549 1_555
Co10 W3 2.690553 1_555
Co10 W1 2.690553 1_555
Co10 W6 2.717193 1_565
Co10 W10 2.717193 1_556
Co10 W8 2.717200 1_555
Co11 Co2 2.382648 1_566
Co11 Co9 2.515065 1_565
Co11 Co8 2.515065 1_556
Co11 W5 2.690556 1_555
Co11 W0 2.690556 1_555
Co11 W4 2.690556 1_555
Co11 W8 2.717196 1_655
Co11 W7 2.717196 1_565
Co11 W9 2.717196 1_556
C0 W9 2.143123 1_555
C0 W11 2.143123 1_555
C0 W4 2.143123 1_554
C0 W10 2.143123 1_555
C0 W5 2.143123 1_554
C0 W3 2.143123 1_554
C1 W7 2.143123 1_555
C1 W11 2.143123 1_555
C1 W5 2.143123 1_545
C1 W6 2.143123 1_555
C1 W0 2.143123 1_545
C1 W1 2.143123 1_545
C2 W8 2.143123 1_555
C2 W0 2.143123 1_455
C2 W4 2.143123 1_455
C2 W6 2.143123 1_555
C2 W10 2.143123 1_555
C2 W2 2.143123 1_455
C3 W3 2.143123 1_555
C3 W1 2.143123 1_555
C3 W2 2.143123 1_555
C3 W8 2.143123 1_555
C3 W9 2.143123 1_555
C3 W7 2.143123 1_555
