# generated using pymatgen
data_V2P3O11
_symmetry_space_group_name_H-M   'P 1'
_cell_length_a   7.28427185
_cell_length_b   7.29437634
_cell_length_c   8.96040062
_cell_angle_alpha   70.75657449
_cell_angle_beta   109.20460415
_cell_angle_gamma   108.14896178
_symmetry_Int_Tables_number   1
_chemical_formula_structural   V2P3O11
_chemical_formula_sum   'V4 P6 O22'
_cell_volume   413.33014268
_cell_formula_units_Z   2
loop_
 _symmetry_equiv_pos_site_id
 _symmetry_equiv_pos_as_xyz
  1  'x, y, z'
loop_
 _atom_site_type_symbol
 _atom_site_label
 _atom_site_symmetry_multiplicity
 _atom_site_fract_x
 _atom_site_fract_y
 _atom_site_fract_z
 _atom_site_occupancy
  V  V0  1  0.11064482  0.36684277  0.95895523  1
  V  V1  1  0.36593491  0.11098904  0.54113092  1
  V  V2  1  0.64063351  0.88681775  0.46078322  1
  V  V3  1  0.88762649  0.64095061  0.03929180  1
  P  P0  1  0.03982125  0.04023849  0.74975057  1
  P  P1  1  0.45778215  0.67195295  0.78847709  1
  P  P2  1  0.32732143  0.54434133  0.29101147  1
  P  P3  1  0.67172401  0.45728007  0.71117784  1
  P  P4  1  0.54410476  0.32730556  0.20934555  1
  P  P5  1  0.96089030  0.96054259  0.25014905  1
  O  O0  1  0.00784142  0.85543449  0.89836201  1
  O  O1  1  0.04233630  0.22963474  0.78632859  1
  O  O2  1  0.13670589  0.97862580  0.39827699  1
  O  O3  1  0.25778224  0.61747782  0.82708338  1
  O  O4  1  0.22930603  0.04213068  0.71321555  1
  O  O5  1  0.15326093  0.54282736  0.13161798  1
  O  O6  1  0.47106994  0.84288075  0.63011543  1
  O  O7  1  0.27561302  0.37247557  0.43136198  1
  O  O8  1  0.63429639  0.72001761  0.93220349  1
  O  O9  1  0.48134675  0.48124979  0.75013431  1
  O  O10  1  0.39703924  0.74829663  0.33027312  1
  O  O11  1  0.61718101  0.25767706  0.67299559  1
  O  O12  1  0.51582847  0.51596070  0.24991709  1
  O  O13  1  0.37193399  0.27610525  0.06870616  1
  O  O14  1  0.72028047  0.63398758  0.56772892  1
  O  O15  1  0.54189079  0.15354101  0.36876424  1
  O  O16  1  0.97951400  0.13660731  0.10201004  1
  O  O17  1  0.76466394  0.94717938  0.29188484  1
  O  O18  1  0.74837018  0.39709440  0.16975384  1
  O  O19  1  0.85565977  0.00733020  0.60133065  1
  O  O20  1  0.94729938  0.76444551  0.20831483  1
  O  O21  1  0.84315923  0.47062419  0.86954325  1
loop_
_geom_bond_atom_site_label_1
_geom_bond_atom_site_label_2
_geom_bond_distance
_geom_bond_site_symmetry_2
O0 P0 1.571580 1_565
O0 V3 1.838720 1_456
O1 P0 1.514968 1_555
O1 V0 1.961060 1_555
O2 P5 1.520235 1_455
O2 V1 1.939837 1_565
O3 P1 1.510063 1_555
O3 V0 2.018880 1_555
O4 P0 1.514891 1_555
O4 V1 1.951424 1_555
O5 P2 1.567763 1_555
O5 V3 2.088086 1_455
O5 V0 2.209697 1_554
O6 P1 1.557691 1_555
O6 V1 2.133168 1_565
O6 V2 2.143882 1_555
O7 P2 1.507745 1_555
O7 V1 2.039074 1_555
O8 P1 1.536914 1_555
O8 V3 1.947286 1_556
O9 P1 1.607834 1_555
O9 P3 1.607876 1_555
O10 P2 1.533551 1_555
O10 V2 1.958018 1_555
O11 P3 1.507757 1_555
O11 V1 2.020197 1_555
O12 P4 1.619844 1_555
O12 P2 1.619854 1_555
O13 P4 1.509669 1_555
O13 V0 2.037669 1_554
O14 P3 1.536774 1_555
O14 V2 1.947301 1_555
O15 P4 1.567248 1_555
O15 V2 2.099210 1_545
O15 V1 2.205225 1_555
O16 P5 1.521828 1_545
O16 V0 1.939867 1_654
O17 P5 1.559897 1_555
O17 V2 1.874293 1_555
O18 P4 1.534689 1_555
O18 V3 1.960857 1_555
O19 P0 1.569064 1_655
O19 V2 1.840197 1_545
O20 P5 1.561147 1_555
O20 V3 1.875216 1_555
O21 P3 1.559506 1_555
O21 V0 2.122144 1_655
O21 V3 2.152405 1_556
