# generated using pymatgen
data_Sm2(Ga3Ir)3
_symmetry_space_group_name_H-M   'P 1'
_cell_length_a   7.53738553
_cell_length_b   7.53738593
_cell_length_c   9.53524239
_cell_angle_alpha   90.00030669
_cell_angle_beta   90.00030257
_cell_angle_gamma   119.75825073
_symmetry_Int_Tables_number   1
_chemical_formula_structural   Sm2(Ga3Ir)3
_chemical_formula_sum   'Sm4 Ga18 Ir6'
_cell_volume   470.28016101
_cell_formula_units_Z   2
loop_
 _symmetry_equiv_pos_site_id
 _symmetry_equiv_pos_as_xyz
  1  'x, y, z'
loop_
 _atom_site_type_symbol
 _atom_site_label
 _atom_site_symmetry_multiplicity
 _atom_site_fract_x
 _atom_site_fract_y
 _atom_site_fract_z
 _atom_site_occupancy
  Sm  Sm0  1  0.99807173  0.66920663  0.25000523  1
  Sm  Sm1  1  0.00192840  0.33079258  0.74999432  1
  Sm  Sm2  1  0.66920687  0.99807206  0.25000504  1
  Sm  Sm3  1  0.33079212  0.00192831  0.74999434  1
  Ga  Ga0  1  0.13115440  0.13115435  0.25005444  1
  Ga  Ga1  1  0.86884581  0.86884589  0.74994586  1
  Ga  Ga2  1  0.00217906  0.33447217  0.07727987  1
  Ga  Ga3  1  0.99781751  0.66552411  0.92272077  1
  Ga  Ga4  1  0.99785595  0.66551243  0.57718702  1
  Ga  Ga5  1  0.33448792  0.00214433  0.42281177  1
  Ga  Ga6  1  0.00214439  0.33448799  0.42281180  1
  Ga  Ga7  1  0.66551230  0.99785594  0.57718699  1
  Ga  Ga8  1  0.66552402  0.99781746  0.92272067  1
  Ga  Ga9  1  0.33447212  0.00217887  0.07727991  1
  Ga  Ga10  1  0.33452744  0.33452752  0.56393287  1
  Ga  Ga11  1  0.66547332  0.66547342  0.43606543  1
  Ga  Ga12  1  0.66543433  0.66543442  0.06403647  1
  Ga  Ga13  1  0.33456692  0.33456701  0.93596896  1
  Ga  Ga14  1  0.33826170  0.54348452  0.25005140  1
  Ga  Ga15  1  0.66174229  0.45652005  0.74994807  1
  Ga  Ga16  1  0.54348433  0.33826179  0.25005136  1
  Ga  Ga17  1  0.45652024  0.66174236  0.74994807  1
  Ir  Ir0  1  0.67093102  0.32906574  -0.00000034  1
  Ir  Ir1  1  0.32906582  0.67093099  -0.00000033  1
  Ir  Ir2  1  0.32905516  0.67094570  0.49999934  1
  Ir  Ir3  1  0.67094560  0.32905506  0.49999938  1
  Ir  Ir4  1  -0.00000106  -0.00000103  0.00000055  1
  Ir  Ir5  1  0.00000029  0.00000034  0.49999972  1
loop_
_geom_bond_atom_site_label_1
_geom_bond_atom_site_label_2
_geom_bond_distance
_geom_bond_site_symmetry_2
Ga0 Ir5 2.581572 1_555
Ga0 Ir4 2.582513 1_555
Ga0 Ga16 2.698107 1_555
Ga0 Ga14 2.698109 1_555
Ga0 Ga9 2.736154 1_555
Ga0 Ga2 2.736154 1_555
Ga0 Ga5 2.736304 1_555
Ga0 Ga6 2.736305 1_555
Ga0 Sm2 3.108468 1_445
Ga0 Sm0 3.108468 1_445
Ga1 Ir5 2.581581 1_665
Ga1 Ir4 2.582513 1_666
Ga1 Ga17 2.698079 1_555
Ga1 Ga15 2.698081 1_555
Ga1 Ga8 2.736159 1_555
Ga1 Ga3 2.736160 1_555
Ga1 Ga4 2.736313 1_555
Ga1 Ga7 2.736313 1_555
Ga1 Sm3 3.108459 1_665
Ga1 Sm1 3.108461 1_665
Ga2 Ir0 2.584062 1_455
Ga2 Ir1 2.615797 1_555
Ga2 Ir4 2.618745 1_555
Ga2 Ga3 2.912193 1_454
Ga2 Ga8 2.942430 1_444
Ga2 Sm2 3.020511 1_445
Ga2 Sm0 3.025993 1_455
Ga2 Sm1 3.120862 1_554
Ga3 Ir1 2.584058 1_656
Ga3 Ir0 2.615790 1_556
Ga3 Ir4 2.618754 1_666
Ga3 Ga9 2.942429 1_666
Ga3 Sm3 3.020539 1_665
Ga3 Sm1 3.025991 1_655
Ga3 Sm0 3.120852 1_556
Ga4 Ir2 2.583371 1_655
Ga4 Ir3 2.615610 1_555
Ga4 Ir5 2.618739 1_665
Ga4 Ga6 2.910873 1_655
Ga4 Ga5 2.941429 1_665
Ga4 Sm3 3.020848 1_665
Ga4 Sm1 3.026229 1_655
Ga4 Sm0 3.119875 1_555
Ga5 Ir2 2.583369 1_545
Ga5 Ir3 2.615612 1_555
Ga5 Ir5 2.618740 1_555
Ga5 Ga7 2.910873 1_545
Ga5 Sm0 3.020849 1_445
Ga5 Sm2 3.026220 1_545
Ga5 Sm3 3.119883 1_555
Ga6 Ir3 2.583369 1_455
Ga6 Ir2 2.615612 1_555
Ga6 Ir5 2.618740 1_555
Ga6 Ga7 2.941429 1_445
Ga6 Sm2 3.020849 1_445
Ga6 Sm0 3.026218 1_455
Ga6 Sm1 3.119882 1_555
Ga7 Ir3 2.583370 1_565
Ga7 Ir2 2.615608 1_555
Ga7 Ir5 2.618740 1_665
Ga7 Sm1 3.020850 1_665
Ga7 Sm3 3.026231 1_565
Ga7 Sm2 3.119877 1_555
Ga8 Ir0 2.584058 1_566
Ga8 Ir1 2.615790 1_556
Ga8 Ir4 2.618754 1_666
Ga8 Ga9 2.912193 1_566
Ga8 Sm1 3.020540 1_665
Ga8 Sm3 3.025993 1_565
Ga8 Sm2 3.120851 1_556
Ga9 Ir1 2.584061 1_545
Ga9 Ir0 2.615797 1_555
Ga9 Ir4 2.618746 1_555
Ga9 Sm0 3.020513 1_445
Ga9 Sm2 3.025992 1_545
Ga9 Sm3 3.120863 1_554
Ga10 Ir5 2.603053 1_555
Ga10 Ir2 2.628122 1_555
Ga10 Ir3 2.628122 1_555
Ga10 Ga11 2.784694 1_555
Ga10 Ga17 2.796975 1_555
Ga10 Ga15 2.796975 1_555
Ga10 Ga6 2.843668 1_555
Ga10 Ga5 2.843670 1_555
Ga10 Sm1 3.059909 1_555
Ga10 Sm3 3.059909 1_555
Ga11 Ir5 2.603054 1_665
Ga11 Ir2 2.628122 1_555
Ga11 Ir3 2.628124 1_555
Ga11 Ga14 2.796954 1_555
Ga11 Ga16 2.796954 1_555
Ga11 Ga7 2.843669 1_555
Ga11 Ga4 2.843670 1_555
Ga11 Sm0 3.059903 1_555
Ga11 Sm2 3.059905 1_555
Ga12 Ir4 2.603570 1_665
Ga12 Ir1 2.628071 1_555
Ga12 Ir0 2.628072 1_555
Ga12 Ga13 2.784973 1_554
Ga12 Ga16 2.796802 1_555
Ga12 Ga14 2.796803 1_555
Ga12 Ga8 2.844395 1_554
Ga12 Ga3 2.844395 1_554
Ga12 Sm2 3.059504 1_555
Ga12 Sm0 3.059505 1_555
Ga13 Ir4 2.603586 1_556
Ga13 Ir1 2.628041 1_556
Ga13 Ir0 2.628042 1_556
Ga13 Ga17 2.796851 1_555
Ga13 Ga15 2.796851 1_555
Ga13 Ga2 2.844388 1_556
Ga13 Ga9 2.844390 1_556
Ga13 Sm3 3.059538 1_555
Ga13 Sm1 3.059538 1_555
Ga14 Ir2 2.583438 1_555
Ga14 Ir1 2.584300 1_555
Ga14 Ga16 2.675941 1_555
Ga14 Ga2 2.766089 1_555
Ga14 Ga6 2.766204 1_555
Ga14 Sm2 3.078649 1_555
Ga14 Sm0 3.144018 1_455
Ga15 Ir3 2.583450 1_555
Ga15 Ir0 2.584310 1_556
Ga15 Ga17 2.675934 1_555
Ga15 Ga3 2.766053 1_555
Ga15 Ga4 2.766186 1_555
Ga15 Sm3 3.078681 1_555
Ga15 Sm1 3.144019 1_655
Ga16 Ir3 2.583439 1_555
Ga16 Ir0 2.584300 1_555
Ga16 Ga9 2.766090 1_555
Ga16 Ga5 2.766205 1_555
Ga16 Sm0 3.078647 1_555
Ga16 Sm2 3.144019 1_545
Ga17 Ir2 2.583451 1_555
Ga17 Ir1 2.584310 1_556
Ga17 Ga8 2.766052 1_555
Ga17 Ga7 2.766186 1_555
Ga17 Sm1 3.078681 1_555
Ga17 Sm3 3.144021 1_565
