# generated using pymatgen
data_Li3MnV(PO4)3
_symmetry_space_group_name_H-M   'P 1'
_cell_length_a   8.69781800
_cell_length_b   8.76126691
_cell_length_c   12.29604729
_cell_angle_alpha   89.98816869
_cell_angle_beta   88.86248075
_cell_angle_gamma   89.70023986
_symmetry_Int_Tables_number   1
_chemical_formula_structural   Li3MnV(PO4)3
_chemical_formula_sum   'Li12 Mn4 V4 P12 O48'
_cell_volume   936.80933410
_cell_formula_units_Z   4
loop_
 _symmetry_equiv_pos_site_id
 _symmetry_equiv_pos_as_xyz
  1  'x, y, z'
loop_
 _atom_site_type_symbol
 _atom_site_label
 _atom_site_symmetry_multiplicity
 _atom_site_fract_x
 _atom_site_fract_y
 _atom_site_fract_z
 _atom_site_occupancy
  Li  Li0  1  0.07812000  0.90503800  0.30201200  1
  Li  Li1  1  0.08171000  0.29512400  0.24101600  1
  Li  Li2  1  0.20968800  0.22630900  0.82179400  1
  Li  Li3  1  0.28976900  0.72672500  0.67824800  1
  Li  Li4  1  0.41789900  0.79701600  0.25921400  1
  Li  Li5  1  0.42362200  0.40321000  0.19799800  1
  Li  Li6  1  0.57906900  0.59554000  0.80244500  1
  Li  Li7  1  0.58398100  0.20496500  0.74124700  1
  Li  Li8  1  0.71228600  0.27320700  0.32173800  1
  Li  Li9  1  0.78749400  0.77267000  0.17850000  1
  Li  Li10  1  0.91519300  0.70205100  0.75919300  1
  Li  Li11  1  0.92230300  0.09815900  0.69783700  1
  Mn  Mn0  1  0.25394300  0.96584000  0.10643000  1
  Mn  Mn1  1  0.74645100  0.95800900  0.38996200  1
  Mn  Mn2  1  0.75249400  0.45675200  0.11037400  1
  Mn  Mn3  1  0.75465200  0.53367000  0.60513400  1
  V  V0  1  0.24694200  0.46888800  0.38978200  1
  V  V1  1  0.24605300  0.54123200  0.88857000  1
  V  V2  1  0.25280700  0.04301400  0.61130400  1
  V  V3  1  0.74656800  0.03126200  0.89106500  1
  P  P0  1  0.03833100  0.75316700  0.50659800  1
  P  P1  1  0.10526600  0.61316200  0.14702700  1
  P  P2  1  0.10465700  0.90074400  0.84855500  1
  P  P3  1  0.39541600  0.11096600  0.35555000  1
  P  P4  1  0.39570300  0.40155400  0.64837100  1
  P  P5  1  0.45897600  0.25114800  0.99396300  1
  P  P6  1  0.53737200  0.75078600  0.00520900  1
  P  P7  1  0.60500300  0.59664800  0.34566100  1
  P  P8  1  0.60679200  0.88733400  0.64512500  1
  P  P9  1  0.89624000  0.09511900  0.15066600  1
  P  P10  1  0.89272400  0.38840800  0.85729800  1
  P  P11  1  0.96038700  0.25240200  0.49411700  1
  O  O0  1  0.04927000  0.13712900  0.56571900  1
  O  O1  1  0.06597400  0.32980300  0.40759400  1
  O  O2  1  0.06815100  0.40514300  0.83570700  1
  O  O3  1  0.07675700  0.10049200  0.15205200  1
  O  O4  1  0.11565100  0.64322300  0.42485500  1
  O  O5  1  0.14800200  0.58659400  0.02721100  1
  O  O6  1  0.15071700  0.77926800  0.18085800  1
  O  O7  1  0.14877600  0.02375700  0.76014200  1
  O  O8  1  0.15717600  0.73852400  0.81124900  1
  O  O9  1  0.16550000  0.83616900  0.56986200  1
  O  O10  1  0.17018700  0.94972600  0.95505400  1
  O  O11  1  0.19272600  0.49271200  0.21719000  1
  O  O12  1  0.30718300  0.99000100  0.28994100  1
  O  O13  1  0.32971900  0.44949100  0.54072200  1
  O  O14  1  0.33201800  0.33402800  0.92943900  1
  O  O15  1  0.34240300  0.24002500  0.68668200  1
  O  O16  1  0.35218000  0.27696100  0.31981700  1
  O  O17  1  0.34974500  0.52384500  0.73687000  1
  O  O18  1  0.35523900  0.08958000  0.47644800  1
  O  O19  1  0.38436500  0.14121100  0.07727000  1
  O  O20  1  0.42571500  0.60165400  0.34475800  1
  O  O21  1  0.43121600  0.90520500  0.66529300  1
  O  O22  1  0.43305200  0.83072000  0.09329000  1
  O  O23  1  0.44838100  0.63741700  0.93394000  1
  O  O24  1  0.54754500  0.36478900  0.06578500  1
  O  O25  1  0.56312600  0.17304700  0.90640500  1
  O  O26  1  0.57213100  0.09403500  0.33485500  1
  O  O27  1  0.57532700  0.39339600  0.65122400  1
  O  O28  1  0.61324900  0.86072400  0.92250000  1
  O  O29  1  0.64353200  0.91079900  0.52369200  1
  O  O30  1  0.65022200  0.47148800  0.25726700  1
  O  O31  1  0.65140700  0.72047500  0.67938600  1
  O  O32  1  0.65353100  0.75696100  0.30691500  1
  O  O33  1  0.66375700  0.67135800  0.07026300  1
  O  O34  1  0.67132800  0.54733800  0.45260900  1
  O  O35  1  0.69382800  0.00677100  0.71536100  1
  O  O36  1  0.80373000  0.50989900  0.79169700  1
  O  O37  1  0.82994300  0.04992000  0.04236600  1
  O  O38  1  0.83302300  0.17429600  0.43099900  1
  O  O39  1  0.84734200  0.25588000  0.19067000  1
  O  O40  1  0.85018300  0.97162400  0.23879400  1
  O  O41  1  0.84927200  0.22244900  0.82143500  1
  O  O42  1  0.85951700  0.40726100  0.98020900  1
  O  O43  1  0.89009100  0.36236300  0.58121200  1
  O  O44  1  0.92554300  0.89449500  0.84593900  1
  O  O45  1  0.92984100  0.59712000  0.16749500  1
  O  O46  1  0.93646700  0.67425900  0.59493200  1
  O  O47  1  0.94805000  0.86645200  0.43402300  1
loop_
_geom_bond_atom_site_label_1
_geom_bond_atom_site_label_2
_geom_bond_distance
_geom_bond_site_symmetry_2
Li0 O6 1.946331 1_555
Li0 O47 1.989942 1_455
Li0 O12 2.132914 1_555
Li0 O40 2.219008 1_455
Li0 O3 2.516329 1_565
Li1 O11 2.005252 1_555
Li1 O3 2.027235 1_555
Li1 O1 2.072455 1_555
Li1 O39 2.171271 1_455
Li1 O16 2.566114 1_555
Li2 O14 1.960014 1_555
Li2 O2 1.992800 1_555
Li2 O7 2.007724 1_555
Li2 O15 2.008036 1_555
Li3 O9 1.977288 1_555
Li3 O8 1.984728 1_555
Li3 O17 1.988935 1_555
Li3 O21 1.999100 1_555
Li4 O12 1.974248 1_555
Li4 O20 2.010356 1_555
Li4 O22 2.063129 1_555
Li4 O32 2.169719 1_555
Li4 O6 2.538839 1_555
Li5 O16 1.955203 1_555
Li5 O24 1.960827 1_555
Li5 O11 2.160694 1_555
Li5 O30 2.200693 1_555
Li5 O20 2.506498 1_555
Li6 O31 1.962730 1_555
Li6 O23 1.990948 1_555
Li6 O36 2.091232 1_555
Li6 O17 2.258401 1_555
Li7 O27 1.989386 1_555
Li7 O35 2.000036 1_555
Li7 O25 2.054479 1_555
Li7 O15 2.238010 1_555
Li7 O41 2.532604 1_555
Li8 O38 1.924768 1_555
Li8 O39 1.980740 1_555
Li8 O30 1.986024 1_555
Li8 O26 1.997093 1_555
Li9 O33 1.945452 1_555
Li9 O32 1.948941 1_555
Li9 O45 1.972384 1_555
Li9 O40 1.977836 1_555
Li10 O36 1.983736 1_555
Li10 O44 1.998682 1_555
Li10 O46 2.039082 1_555
Li10 O8 2.236581 1_655
Li10 O31 2.517653 1_555
Li11 O41 1.963182 1_555
Li11 O0 1.976793 1_655
Li11 O35 2.153180 1_555
Li11 O7 2.222229 1_655
Mn0 O19 1.943708 1_565
Mn0 O22 1.955824 1_555
Mn0 O3 2.007098 1_565
Mn0 O10 2.017472 1_554
Mn0 O6 2.073092 1_555
Mn0 O12 2.322405 1_555
Mn1 O29 1.903011 1_555
Mn1 O47 2.008596 1_555
Mn1 O26 2.049355 1_565
Mn1 O40 2.053714 1_555
Mn1 O38 2.107805 1_565
Mn1 O32 2.201590 1_555
Mn2 O42 1.884962 1_554
Mn2 O30 2.001356 1_555
Mn2 O24 2.044867 1_555
Mn2 O33 2.091347 1_555
Mn2 O45 2.109112 1_555
Mn2 O39 2.183813 1_555
Mn3 O43 1.922183 1_555
Mn3 O46 2.011507 1_555
Mn3 O34 2.027284 1_555
Mn3 O27 2.061314 1_555
Mn3 O31 2.066712 1_555
Mn3 O36 2.350686 1_555
O0 P11 1.552826 1_455
O0 V2 2.037666 1_555
O1 P11 1.550021 1_455
O1 V0 2.004168 1_555
O2 P10 1.551252 1_455
O2 V1 2.073161 1_555
O3 P9 1.571486 1_455
O4 P0 1.535306 1_555
O4 V0 1.945618 1_555
O5 P1 1.529819 1_555
O5 V1 1.931425 1_554
O6 P1 1.568446 1_555
O7 P2 1.574145 1_545
O7 V2 2.032797 1_555
O8 P2 1.556985 1_555
O8 V1 2.122222 1_555
O9 P0 1.549258 1_555
O9 V2 2.037308 1_565
O10 P2 1.502095 1_555
O11 P1 1.566496 1_555
O11 V0 2.192758 1_555
O12 P3 1.548033 1_565
O13 P4 1.511704 1_555
O13 V0 2.010846 1_555
O14 P5 1.549929 1_555
O14 V1 2.026698 1_555
O15 P4 1.561261 1_555
O15 V2 2.118741 1_555
O16 P3 1.565283 1_555
O16 V0 2.087750 1_555
O17 P4 1.571820 1_555
O17 V1 2.061040 1_555
O18 P3 1.532009 1_555
O18 V2 1.911724 1_555
O19 P5 1.542043 1_554
O20 P7 1.560061 1_555
O20 V0 2.015397 1_555
O21 P8 1.549390 1_555
O21 V2 2.080246 1_565
O22 P6 1.562494 1_555
O23 P6 1.545626 1_556
O23 V1 2.042792 1_555
O24 P5 1.549213 1_554
O25 P5 1.550171 1_555
O25 V3 2.022833 1_555
O26 P3 1.559274 1_555
O27 P4 1.564686 1_555
O28 P6 1.541809 1_556
O28 V3 1.930429 1_565
O29 P8 1.534758 1_555
O30 P7 1.586659 1_555
O31 P8 1.570191 1_555
O32 P7 1.541371 1_555
O33 P6 1.535967 1_555
O34 P7 1.508654 1_555
O35 P8 1.564783 1_545
O35 V3 2.228149 1_555
O36 P10 1.548745 1_555
O37 P9 1.515173 1_555
O37 V3 2.017088 1_554
O38 P11 1.529737 1_555
O39 P9 1.546720 1_555
O40 P9 1.578671 1_565
O41 P10 1.569737 1_555
O41 V3 2.078816 1_555
O42 P10 1.541773 1_555
O43 P11 1.554707 1_555
O44 P2 1.560119 1_655
O44 V3 2.028162 1_565
O45 P1 1.548608 1_655
O46 P0 1.552598 1_655
O47 P0 1.554787 1_655
