# generated using pymatgen
data_Sr2FeO4
_symmetry_space_group_name_H-M   'P 1'
_cell_length_a   3.83969649
_cell_length_b   3.83969404
_cell_length_c   6.76002610
_cell_angle_alpha   106.49909484
_cell_angle_beta   106.49911334
_cell_angle_gamma   89.99998258
_symmetry_Int_Tables_number   1
_chemical_formula_structural   Sr2FeO4
_chemical_formula_sum   'Sr2 Fe1 O4'
_cell_volume   91.27293440
_cell_formula_units_Z   1
loop_
 _symmetry_equiv_pos_site_id
 _symmetry_equiv_pos_as_xyz
  1  'x, y, z'
loop_
 _atom_site_type_symbol
 _atom_site_label
 _atom_site_symmetry_multiplicity
 _atom_site_fract_x
 _atom_site_fract_y
 _atom_site_fract_z
 _atom_site_occupancy
  Sr  Sr0  1  0.64234867  0.64234767  0.28469534  1
  Sr  Sr1  1  0.35765133  0.35765233  0.71530366  1
  Fe  Fe0  1  0.00000000  0.00000000  0.00000000  1
  O  O0  1  0.84459040  0.84458940  0.68918081  1
  O  O1  1  0.15540960  0.15540760  0.31081719  1
  O  O2  1  0.00000000  0.50000000  0.00000000  1
  O  O3  1  0.50000000  0.00000000  0.00000100  1
loop_
_geom_bond_atom_site_label_1
_geom_bond_atom_site_label_2
_geom_bond_distance
_geom_bond_site_symmetry_2
Fe0 O3 1.919846 1_555
Fe0 O2 1.919847 1_555
Fe0 O2 1.919847 1_545
Fe0 O3 1.919850 1_455
Fe0 O1 1.924215 1_555
Fe0 O0 1.924227 1_444
O0 Sr0 2.504099 1_555
O0 Sr1 2.719881 1_655
O0 Sr1 2.719884 1_555
O0 Sr1 2.719890 1_665
O0 Sr1 2.719892 1_565
O1 Sr1 2.504105 1_555
O1 Sr0 2.719883 1_545
O1 Sr0 2.719884 1_445
O1 Sr0 2.719889 1_455
O1 Sr0 2.719890 1_555
O2 Sr0 2.606186 1_455
O2 Sr0 2.606191 1_555
O2 Sr1 2.606192 1_554
O2 Sr1 2.606194 1_454
O3 Sr0 2.606182 1_545
O3 Sr0 2.606185 1_555
O3 Sr1 2.606193 1_544
O3 Sr1 2.606199 1_554
