# generated using pymatgen
data_Zn5Cl2O9
_symmetry_space_group_name_H-M   'P 1'
_cell_length_a   8.12748230
_cell_length_b   8.12748230
_cell_length_c   8.12748310
_cell_angle_alpha   44.80227624
_cell_angle_beta   44.80227624
_cell_angle_gamma   44.80227624
_symmetry_Int_Tables_number   1
_chemical_formula_structural   Zn5Cl2O9
_chemical_formula_sum   'Zn5 Cl2 O9'
_cell_volume   242.53587131
_cell_formula_units_Z   1
loop_
 _symmetry_equiv_pos_site_id
 _symmetry_equiv_pos_as_xyz
  1  'x, y, z'
loop_
 _atom_site_type_symbol
 _atom_site_label
 _atom_site_symmetry_multiplicity
 _atom_site_fract_x
 _atom_site_fract_y
 _atom_site_fract_z
 _atom_site_occupancy
  Zn  Zn0  1  0.50000000  0.50000000  0.00000000  1
  Zn  Zn1  1  0.00000000  0.50000000  0.50000000  1
  Zn  Zn2  1  0.50000000  0.00000000  0.50000000  1
  Zn  Zn3  1  0.92294400  0.92294400  0.92294400  1
  Zn  Zn4  1  0.07705600  0.07705600  0.07705600  1
  Cl  Cl0  1  0.82114400  0.82114400  0.82114400  1
  Cl  Cl1  1  0.17885600  0.17885600  0.17885600  1
  O  O0  1  0.12521200  0.61316600  0.12521200  1
  O  O1  1  0.12521200  0.12521200  0.61316600  1
  O  O2  1  0.61316600  0.12521200  0.12521200  1
  O  O3  1  0.87478800  0.38683400  0.87478800  1
  O  O4  1  0.87478800  0.87478800  0.38683400  1
  O  O5  1  0.38683400  0.87478800  0.87478800  1
  O  O6  1  0.62040500  0.62040500  0.62040500  1
  O  O7  1  0.37959500  0.37959500  0.37959500  1
  O  O8  1  0.50000000  0.50000000  0.50000000  1
loop_
_geom_bond_atom_site_label_1
_geom_bond_atom_site_label_2
_geom_bond_distance
_geom_bond_site_symmetry_2
Cl0 Zn3 2.228897 1_555
Cl1 Zn4 2.228897 1_555
O0 Zn3 1.957536 1_454
O0 Zn0 2.028224 1_555
O0 Zn1 2.028225 1_555
O1 Zn3 1.957536 1_445
O1 Zn1 2.028224 1_555
O1 Zn2 2.028224 1_555
O2 Zn3 1.957536 1_544
O2 Zn0 2.028224 1_555
O2 Zn2 2.028225 1_555
O3 Zn4 1.957536 1_656
O3 Zn0 2.028224 1_556
O3 Zn1 2.028225 1_655
O4 Zn4 1.957536 1_665
O4 Zn1 2.028224 1_655
O4 Zn2 2.028224 1_565
O5 Zn4 1.957536 1_566
O5 Zn0 2.028224 1_556
O5 Zn2 2.028225 1_565
O6 Zn2 2.055162 1_565
O6 Zn1 2.055162 1_655
O6 Zn0 2.055162 1_556
O7 Zn1 2.055162 1_555
O7 Zn2 2.055162 1_555
O7 Zn0 2.055162 1_555
