# generated using pymatgen
data_PuU4C5
_symmetry_space_group_name_H-M   'P 1'
_cell_length_a   3.58230336
_cell_length_b   3.58230336
_cell_length_c   14.34588345
_cell_angle_alpha   82.82763218
_cell_angle_beta   90.00000000
_cell_angle_gamma   120.00000000
_symmetry_Int_Tables_number   1
_chemical_formula_structural   PuU4C5
_chemical_formula_sum   'Pu1 U4 C5'
_cell_volume   157.76900712
_cell_formula_units_Z   1
loop_
 _symmetry_equiv_pos_site_id
 _symmetry_equiv_pos_as_xyz
  1  'x, y, z'
loop_
 _atom_site_type_symbol
 _atom_site_label
 _atom_site_symmetry_multiplicity
 _atom_site_fract_x
 _atom_site_fract_y
 _atom_site_fract_z
 _atom_site_occupancy
  Pu  Pu0  1  0.00000000  0.00000000  0.00000000  1
  U  U0  1  0.60145900  0.20291900  0.19562200  1
  U  U1  1  0.20037300  0.40074600  0.39888100  1
  U  U2  1  0.79962700  0.59925400  0.60111900  1
  U  U3  1  0.39854100  0.79708100  0.80437800  1
  C  C0  1  0.70060900  0.40121900  0.89817200  1
  C  C1  1  0.50000000  0.00000000  0.50000000  1
  C  C2  1  0.09918800  0.19837600  0.70243700  1
  C  C3  1  0.29939100  0.59878100  0.10182800  1
  C  C4  1  0.90081200  0.80162400  0.29756300  1
loop_
_geom_bond_atom_site_label_1
_geom_bond_atom_site_label_2
_geom_bond_distance
_geom_bond_site_symmetry_2
C0 U3 2.459778 1_555
C0 U3 2.459784 1_545
C0 U3 2.459784 1_655
C0 Pu0 2.523340 1_666
C0 Pu0 2.523340 1_556
C0 Pu0 2.523343 1_656
C1 U2 2.517589 1_445
C1 U2 2.517589 1_555
C1 U2 2.517589 1_545
C1 U1 2.517589 1_655
C1 U1 2.517589 1_545
C1 U1 2.517589 1_555
C2 U2 2.519200 1_455
C2 U2 2.519200 1_555
C2 U2 2.519202 1_445
C2 U3 2.524258 1_555
C2 U3 2.524261 1_445
C2 U3 2.524263 1_545
C3 U0 2.459778 1_555
C3 U0 2.459784 1_565
C3 U0 2.459784 1_455
C3 Pu0 2.523340 1_555
C3 Pu0 2.523340 1_665
C3 Pu0 2.523343 1_565
C4 U1 2.519200 1_555
C4 U1 2.519200 1_655
C4 U1 2.519202 1_665
C4 U0 2.524258 1_555
C4 U0 2.524261 1_665
C4 U0 2.524263 1_565
