# generated using pymatgen
data_Sr4PrMn5O15
_symmetry_space_group_name_H-M   'P 1'
_cell_length_a   8.69326015
_cell_length_b   8.69326015
_cell_length_c   6.72347073
_cell_angle_alpha   74.98140079
_cell_angle_beta   74.98140079
_cell_angle_gamma   36.83389513
_symmetry_Int_Tables_number   1
_chemical_formula_structural   Sr4PrMn5O15
_chemical_formula_sum   'Sr4 Pr1 Mn5 O15'
_cell_volume   293.02988011
_cell_formula_units_Z   1
loop_
 _symmetry_equiv_pos_site_id
 _symmetry_equiv_pos_as_xyz
  1  'x, y, z'
loop_
 _atom_site_type_symbol
 _atom_site_label
 _atom_site_symmetry_multiplicity
 _atom_site_fract_x
 _atom_site_fract_y
 _atom_site_fract_z
 _atom_site_occupancy
  Sr  Sr0  1  0.10067200  0.10067200  0.09917300  1
  Sr  Sr1  1  0.70038400  0.70038400  0.70034900  1
  Sr  Sr2  1  0.29961600  0.29961600  0.29965100  1
  Sr  Sr3  1  0.89932800  0.89932800  0.90082700  1
  Pr  Pr0  1  0.50000000  0.50000000  0.50000000  1
  Mn  Mn0  1  0.50000000  0.50000000  0.00000000  1
  Mn  Mn1  1  0.29934400  0.29934400  0.80146100  1
  Mn  Mn2  1  0.89918100  0.89918100  0.39993700  1
  Mn  Mn3  1  0.10081900  0.10081900  0.60006300  1
  Mn  Mn4  1  0.70065600  0.70065600  0.19853900  1
  O  O0  1  0.30409300  0.79275900  0.79276200  1
  O  O1  1  0.11028900  0.59870700  0.59743500  1
  O  O2  1  0.69590700  0.20724100  0.20723800  1
  O  O3  1  0.88971100  0.40129300  0.40256500  1
  O  O4  1  0.50000000  0.00000000  0.00000000  1
  O  O5  1  0.40255800  0.40255800  0.89074200  1
  O  O6  1  0.20020100  0.20020100  0.69800900  1
  O  O7  1  0.79979900  0.79979900  0.30199100  1
  O  O8  1  0.00000000  0.00000000  0.50000000  1
  O  O9  1  0.59744200  0.59744200  0.10925800  1
  O  O10  1  0.20724100  0.69590700  0.20723800  1
  O  O11  1  0.00000000  0.50000000  0.00000000  1
  O  O12  1  0.59870700  0.11028900  0.59743500  1
  O  O13  1  0.79275900  0.30409300  0.79276200  1
  O  O14  1  0.40129300  0.88971100  0.40256500  1
loop_
_geom_bond_atom_site_label_1
_geom_bond_atom_site_label_2
_geom_bond_distance
_geom_bond_site_symmetry_2
Mn0 O9 1.941231 1_555
Mn0 O5 1.941231 1_554
Mn0 O2 1.942375 1_555
Mn0 O10 1.942375 1_555
Mn0 O0 1.942375 1_554
Mn0 O13 1.942375 1_554
Mn1 O11 1.933049 1_556
Mn1 O4 1.933049 1_556
Mn1 O6 1.944204 1_555
Mn1 O5 1.953852 1_555
Mn1 O12 1.956316 1_555
Mn1 O1 1.956316 1_555
Mn2 O7 1.926411 1_555
Mn2 O1 1.935469 1_655
Mn2 O12 1.935469 1_565
Mn2 O2 1.945798 1_565
Mn2 O10 1.945798 1_655
Mn2 O8 1.956975 1_665
Mn3 O6 1.926411 1_555
Mn3 O3 1.935469 1_455
Mn3 O14 1.935469 1_545
Mn3 O13 1.945798 1_455
Mn3 O0 1.945798 1_545
Mn3 O8 1.956975 1_555
Mn4 O4 1.933049 1_565
Mn4 O11 1.933049 1_655
Mn4 O7 1.944204 1_555
Mn4 O9 1.953852 1_555
Mn4 O14 1.956316 1_555
Mn4 O3 1.956316 1_555
O0 Pr0 2.678208 1_555
O0 Sr3 2.751953 1_455
O0 Sr1 2.760449 1_555
O0 Sr0 2.815863 1_566
O1 Pr0 2.670328 1_555
O1 Sr3 2.739709 1_455
O1 Sr2 2.760025 1_555
O1 Sr1 2.820488 1_455
O2 Pr0 2.678208 1_555
O2 Sr0 2.751953 1_655
O2 Sr2 2.760449 1_555
O2 Sr3 2.815863 1_544
O3 Pr0 2.670328 1_555
O3 Sr0 2.739709 1_655
O3 Sr1 2.760025 1_555
O3 Sr2 2.820488 1_655
O4 Sr3 2.738813 1_544
O4 Sr0 2.738813 1_555
O4 Sr2 2.741418 1_555
O4 Sr1 2.741418 1_544
O5 Pr0 2.679349 1_555
O5 Sr3 2.747453 1_455
O5 Sr3 2.747453 1_545
O5 Sr2 2.809274 1_556
O6 Sr2 2.731977 1_555
O6 Sr1 2.746510 1_545
O6 Sr1 2.746510 1_455
O6 Sr0 2.748020 1_556
O7 Sr1 2.731977 1_555
O7 Sr2 2.746510 1_565
O7 Sr2 2.746510 1_655
O7 Sr3 2.748020 1_554
O8 Pr0 2.746459 1_455
O8 Pr0 2.746459 1_545
O8 Sr0 2.752443 1_555
O8 Sr3 2.752443 1_445
O9 Pr0 2.679349 1_555
O9 Sr0 2.747453 1_565
O9 Sr0 2.747453 1_655
O9 Sr1 2.809274 1_554
O10 Pr0 2.678208 1_555
O10 Sr0 2.751953 1_565
O10 Sr2 2.760449 1_555
O10 Sr3 2.815863 1_454
O11 Sr3 2.738813 1_454
O11 Sr0 2.738813 1_555
O11 Sr2 2.741418 1_555
O11 Sr1 2.741418 1_454
O12 Pr0 2.670328 1_555
O12 Sr3 2.739709 1_545
O12 Sr2 2.760025 1_555
O12 Sr1 2.820488 1_545
O13 Pr0 2.678208 1_555
O13 Sr3 2.751953 1_545
O13 Sr1 2.760449 1_555
O13 Sr0 2.815863 1_656
O14 Pr0 2.670328 1_555
O14 Sr0 2.739709 1_565
O14 Sr1 2.760025 1_555
O14 Sr2 2.820488 1_565
