# generated using pymatgen
data_AgPd
_symmetry_space_group_name_H-M   'P 1'
_cell_length_a   5.62816168
_cell_length_b   5.62816168
_cell_length_c   9.35798162
_cell_angle_alpha   90.00000000
_cell_angle_beta   90.00000000
_cell_angle_gamma   119.99999296
_symmetry_Int_Tables_number   1
_chemical_formula_structural   AgPd
_chemical_formula_sum   'Ag8 Pd8'
_cell_volume   256.71188778
_cell_formula_units_Z   8
loop_
 _symmetry_equiv_pos_site_id
 _symmetry_equiv_pos_as_xyz
  1  'x, y, z'
loop_
 _atom_site_type_symbol
 _atom_site_label
 _atom_site_symmetry_multiplicity
 _atom_site_fract_x
 _atom_site_fract_y
 _atom_site_fract_z
 _atom_site_occupancy
  Ag  Ag0_0  1  0.00000000  0.00000000  0.25000000  1
  Ag  Ag0_1  1  0.00000000  0.00000000  0.75000000  1
  Ag  Ag0_2  1  0.00000000  0.50000000  0.25000000  1
  Ag  Ag0_3  1  0.00000000  0.50000000  0.75000000  1
  Ag  Ag0_4  1  0.50000000  0.00000000  0.25000000  1
  Ag  Ag0_5  1  0.50000000  0.00000000  0.75000000  1
  Ag  Ag0_6  1  0.50000000  0.50000000  0.25000000  1
  Ag  Ag0_7  1  0.50000000  0.50000000  0.75000000  1
  Pd  Pd0_0  1  0.33333350  0.16666650  0.00000000  1
  Pd  Pd0_1  1  0.33333350  0.16666650  0.50000000  1
  Pd  Pd0_2  1  0.33333350  0.66666650  0.00000000  1
  Pd  Pd0_3  1  0.33333350  0.66666650  0.50000000  1
  Pd  Pd0_4  1  0.83333350  0.16666650  0.00000000  1
  Pd  Pd0_5  1  0.83333350  0.16666650  0.50000000  1
  Pd  Pd0_6  1  0.83333350  0.66666650  0.00000000  1
  Pd  Pd0_7  1  0.83333350  0.66666650  0.50000000  1
loop_
_geom_bond_atom_site_label_1
_geom_bond_atom_site_label_2
_geom_bond_distance
_geom_bond_site_symmetry_2
Ag0_0 Ag0_4 2.814081 1_555
Ag0_0 Ag0_4 2.814081 1_455
Ag0_0 Ag0_2 2.814081 1_555
Ag0_0 Ag0_2 2.814081 1_545
Ag0_0 Ag0_6 2.814081 1_555
Ag0_0 Ag0_6 2.814081 1_445
Ag0_0 Pd0_4 2.848318 1_455
Ag0_0 Pd0_5 2.848318 1_455
Ag0_0 Pd0_6 2.848320 1_445
Ag0_0 Pd0_7 2.848320 1_445
Ag0_0 Pd0_0 2.848320 1_555
Ag0_0 Pd0_1 2.848320 1_555
Ag0_1 Ag0_5 2.814081 1_555
Ag0_1 Ag0_5 2.814081 1_455
Ag0_1 Ag0_3 2.814081 1_545
Ag0_1 Ag0_3 2.814081 1_555
Ag0_1 Ag0_7 2.814081 1_555
Ag0_1 Ag0_7 2.814081 1_445
Ag0_1 Pd0_4 2.848318 1_456
Ag0_1 Pd0_5 2.848318 1_455
Ag0_1 Pd0_6 2.848320 1_446
Ag0_1 Pd0_7 2.848320 1_445
Ag0_1 Pd0_0 2.848320 1_556
Ag0_1 Pd0_1 2.848320 1_555
Ag0_2 Ag0_6 2.814081 1_555
Ag0_2 Ag0_6 2.814081 1_455
Ag0_2 Ag0_4 2.814081 1_565
Ag0_2 Ag0_4 2.814081 1_455
Ag0_2 Pd0_6 2.848318 1_455
Ag0_2 Pd0_7 2.848318 1_455
Ag0_2 Pd0_5 2.848320 1_455
Ag0_2 Pd0_4 2.848320 1_455
Ag0_2 Pd0_3 2.848320 1_555
Ag0_2 Pd0_2 2.848320 1_555
Ag0_3 Ag0_7 2.814081 1_555
Ag0_3 Ag0_7 2.814081 1_455
Ag0_3 Ag0_5 2.814081 1_455
Ag0_3 Ag0_5 2.814081 1_565
Ag0_3 Pd0_6 2.848318 1_456
Ag0_3 Pd0_7 2.848318 1_455
Ag0_3 Pd0_2 2.848320 1_556
Ag0_3 Pd0_4 2.848320 1_456
Ag0_3 Pd0_3 2.848320 1_555
Ag0_3 Pd0_5 2.848320 1_455
Ag0_4 Ag0_6 2.814081 1_555
Ag0_4 Ag0_6 2.814081 1_545
Ag0_4 Pd0_0 2.848318 1_555
Ag0_4 Pd0_1 2.848318 1_555
Ag0_4 Pd0_5 2.848320 1_555
Ag0_4 Pd0_4 2.848320 1_555
Ag0_4 Pd0_3 2.848320 1_545
Ag0_4 Pd0_2 2.848320 1_545
Ag0_5 Ag0_7 2.814081 1_555
Ag0_5 Ag0_7 2.814081 1_545
Ag0_5 Pd0_0 2.848318 1_556
Ag0_5 Pd0_1 2.848318 1_555
Ag0_5 Pd0_5 2.848320 1_555
Ag0_5 Pd0_4 2.848320 1_556
Ag0_5 Pd0_3 2.848320 1_545
Ag0_5 Pd0_2 2.848320 1_546
Ag0_6 Pd0_3 2.848318 1_555
Ag0_6 Pd0_2 2.848318 1_555
Ag0_6 Pd0_0 2.848320 1_555
Ag0_6 Pd0_1 2.848320 1_555
Ag0_6 Pd0_6 2.848320 1_555
Ag0_6 Pd0_7 2.848320 1_555
Ag0_7 Pd0_3 2.848318 1_555
Ag0_7 Pd0_2 2.848318 1_556
Ag0_7 Pd0_0 2.848320 1_556
Ag0_7 Pd0_1 2.848320 1_555
Ag0_7 Pd0_6 2.848320 1_556
Ag0_7 Pd0_7 2.848320 1_555
Pd0_0 Pd0_4 2.814081 1_455
Pd0_0 Pd0_2 2.814081 1_545
Pd0_0 Pd0_4 2.814081 1_555
Pd0_0 Pd0_2 2.814081 1_555
Pd0_0 Pd0_6 2.814081 1_445
Pd0_0 Pd0_6 2.814081 1_555
Pd0_1 Pd0_5 2.814081 1_555
Pd0_1 Pd0_3 2.814081 1_555
Pd0_1 Pd0_5 2.814081 1_455
Pd0_1 Pd0_3 2.814081 1_545
Pd0_1 Pd0_7 2.814081 1_445
Pd0_1 Pd0_7 2.814081 1_555
Pd0_2 Pd0_6 2.814081 1_555
Pd0_2 Pd0_6 2.814081 1_455
Pd0_2 Pd0_4 2.814081 1_565
Pd0_2 Pd0_4 2.814081 1_455
Pd0_3 Pd0_7 2.814081 1_555
Pd0_3 Pd0_7 2.814081 1_455
Pd0_3 Pd0_5 2.814081 1_565
Pd0_3 Pd0_5 2.814081 1_455
Pd0_4 Pd0_6 2.814081 1_545
Pd0_4 Pd0_6 2.814081 1_555
Pd0_5 Pd0_7 2.814081 1_545
Pd0_5 Pd0_7 2.814081 1_555
