# generated using pymatgen
data_Sr2Ti2AlGaO7
_symmetry_space_group_name_H-M   'P 1'
_cell_length_a   5.16080300
_cell_length_b   5.33396784
_cell_length_c   13.62449527
_cell_angle_alpha   100.50680102
_cell_angle_beta   100.78836040
_cell_angle_gamma   90.24520109
_symmetry_Int_Tables_number   1
_chemical_formula_structural   Sr2Ti2AlGaO7
_chemical_formula_sum   'Sr4 Ti4 Al2 Ga2 O14'
_cell_volume   361.95639814
_cell_formula_units_Z   2
loop_
 _symmetry_equiv_pos_site_id
 _symmetry_equiv_pos_as_xyz
  1  'x, y, z'
loop_
 _atom_site_type_symbol
 _atom_site_label
 _atom_site_symmetry_multiplicity
 _atom_site_fract_x
 _atom_site_fract_y
 _atom_site_fract_z
 _atom_site_occupancy
  Sr  Sr0  1  0.14948300  0.13888200  0.31563600  1
  Sr  Sr1  1  0.82592000  0.83415400  0.67637200  1
  Sr  Sr2  1  0.66014300  0.66445600  0.31830600  1
  Sr  Sr3  1  0.34493400  0.30789100  0.67375600  1
  Ti  Ti0  1  0.51769700  0.93091800  0.89598500  1
  Ti  Ti1  1  0.99273000  0.57002700  0.11173500  1
  Ti  Ti2  1  0.86147500  0.42769300  0.89592000  1
  Ti  Ti3  1  0.60492700  0.07435900  0.11285900  1
  Al  Al0  1  0.41051400  0.46953200  0.98687800  1
  Al  Al1  1  0.07850300  0.98835000  0.99540800  1
  Ga  Ga0  1  0.29357000  0.66971500  0.49644800  1
  Ga  Ga1  1  0.79597400  0.30697700  0.49737100  1
  O  O0  1  0.25826900  0.91782400  0.11466900  1
  O  O1  1  0.66669300  0.64367500  0.49950300  1
  O  O2  1  0.80109900  0.84087400  0.17499000  1
  O  O3  1  0.80817000  0.27195500  0.63155000  1
  O  O4  1  0.19923400  0.69025800  0.91460100  1
  O  O5  1  0.65192500  0.64095500  0.82163300  1
  O  O6  1  0.16658100  0.33251000  0.49567300  1
  O  O7  1  0.65276600  0.13969600  0.81986700  1
  O  O8  1  0.19512800  0.18449100  0.90560300  1
  O  O9  1  0.28763900  0.82837900  0.62989600  1
  O  O10  1  0.17233300  0.70619700  0.36325300  1
  O  O11  1  0.65710100  0.14920500  0.36474000  1
  O  O12  1  0.33148100  0.40572900  0.10409000  1
  O  O13  1  0.85763200  0.34665500  0.18015600  1
loop_
_geom_bond_atom_site_label_1
_geom_bond_atom_site_label_2
_geom_bond_distance
_geom_bond_site_symmetry_2
Al0 O12 1.809229 1_556
Al0 O4 1.891195 1_555
Al0 O8 1.919402 1_555
Al1 O0 1.817689 1_556
Al1 O8 1.921207 1_565
Al1 O4 1.937863 1_555
Ga0 O10 1.851297 1_555
Ga0 O9 1.866216 1_555
Ga0 O6 1.909219 1_555
Ga0 O1 1.924424 1_555
Ga1 O11 1.855428 1_555
Ga1 O3 1.860768 1_555
Ga1 O1 1.915689 1_555
Ga1 O6 1.921645 1_655
O0 Ti3 1.977280 1_565
O0 Ti1 2.291681 1_455
O0 Sr0 2.933642 1_565
O1 Sr1 2.423439 1_555
O1 Sr2 2.485274 1_555
O2 Ti3 1.834939 1_565
O2 Ti1 1.919672 1_555
O2 Sr2 2.534435 1_555
O2 Sr0 2.646909 1_665
O3 Sr1 2.517049 1_545
O3 Sr3 2.561460 1_555
O3 Sr3 2.720288 1_655
O3 Sr1 2.946636 1_555
O4 Ti0 2.161032 1_555
O4 Ti2 2.178912 1_455
O5 Ti2 1.873115 1_555
O5 Ti0 1.897012 1_555
O5 Sr1 2.680737 1_555
O5 Sr3 2.683463 1_555
O6 Sr3 2.456121 1_555
O6 Sr0 2.466883 1_555
O7 Ti0 1.867279 1_545
O7 Ti2 1.892391 1_555
O7 Sr3 2.602145 1_555
O7 Sr1 2.604094 1_545
O8 Ti0 2.157345 1_545
O8 Ti2 2.159098 1_455
O9 Sr3 2.521175 1_565
O9 Sr1 2.576472 1_455
O9 Sr1 2.729948 1_555
O9 Sr3 2.949255 1_555
O10 Sr0 2.506208 1_565
O10 Sr2 2.598255 1_455
O10 Sr2 2.700844 1_555
O10 Sr0 2.973893 1_555
O11 Sr2 2.548231 1_545
O11 Sr0 2.577351 1_555
O11 Sr0 2.744436 1_655
O11 Sr2 2.931087 1_555
O12 Ti1 1.970570 1_455
O12 Ti3 2.272691 1_555
O12 Sr2 3.155533 1_555
O13 Ti1 1.848231 1_555
O13 Ti3 1.923927 1_555
O13 Sr0 2.573621 1_655
O13 Sr2 2.650350 1_555
