# generated using pymatgen
data_Mg2Si3
_symmetry_space_group_name_H-M   'P 1'
_cell_length_a   5.29659768
_cell_length_b   5.29659768
_cell_length_c   9.17601836
_cell_angle_alpha   68.27022967
_cell_angle_beta   68.27022967
_cell_angle_gamma   49.29320001
_symmetry_Int_Tables_number   1
_chemical_formula_structural   Mg2Si3
_chemical_formula_sum   'Mg4 Si6'
_cell_volume   178.21841081
_cell_formula_units_Z   2
loop_
 _symmetry_equiv_pos_site_id
 _symmetry_equiv_pos_as_xyz
  1  'x, y, z'
loop_
 _atom_site_type_symbol
 _atom_site_label
 _atom_site_symmetry_multiplicity
 _atom_site_fract_x
 _atom_site_fract_y
 _atom_site_fract_z
 _atom_site_occupancy
  Mg  Mg0  1  0.32259200  0.32259200  0.59505800  1
  Mg  Mg1  1  0.67740800  0.67740800  0.40494200  1
  Mg  Mg2  1  0.51267600  0.51267600  0.81944100  1
  Mg  Mg3  1  0.48732400  0.48732400  0.18055900  1
  Si  Si0  1  0.14223500  0.14223500  0.93861600  1
  Si  Si1  1  0.21049300  0.21049300  0.16046400  1
  Si  Si2  1  0.78950700  0.78950700  0.83953600  1
  Si  Si3  1  0.85776500  0.85776500  0.06138400  1
  Si  Si4  1  0.03527600  0.03527600  0.61461400  1
  Si  Si5  1  0.96472400  0.96472400  0.38538600  1
loop_
_geom_bond_atom_site_label_1
_geom_bond_atom_site_label_2
_geom_bond_distance
_geom_bond_site_symmetry_2
Mg0 Si4 2.698201 1_555
Mg0 Si5 2.882378 1_455
Mg0 Si5 2.882378 1_545
Mg0 Si0 2.914422 1_555
Mg0 Si4 3.066526 1_655
Mg0 Si4 3.066526 1_565
Mg0 Si2 3.070927 1_455
Mg0 Si2 3.070927 1_545
Mg1 Si5 2.698201 1_555
Mg1 Si4 2.882378 1_565
Mg1 Si4 2.882378 1_655
Mg1 Si3 2.914422 1_555
Mg1 Si5 3.066526 1_455
Mg1 Si5 3.066526 1_545
Mg1 Si1 3.070927 1_655
Mg1 Si1 3.070927 1_565
Mg2 Si2 2.745643 1_555
Mg2 Si4 2.850512 1_655
Mg2 Si4 2.850512 1_565
Mg2 Si0 2.956678 1_655
Mg2 Si0 2.956678 1_565
Mg2 Si2 3.034283 1_545
Mg2 Si2 3.034283 1_455
Mg2 Si3 3.055233 1_456
Mg2 Si3 3.055233 1_546
Mg3 Si1 2.745643 1_555
Mg3 Si5 2.850512 1_545
Mg3 Si5 2.850512 1_455
Mg3 Si3 2.956678 1_545
Mg3 Si3 2.956678 1_455
Mg3 Si1 3.034283 1_655
Mg3 Si1 3.034283 1_565
Mg3 Si0 3.055233 1_564
Mg3 Si0 3.055233 1_654
Si0 Si1 2.380298 1_556
Si0 Si3 2.501410 1_446
Si0 Si2 2.581796 1_455
Si0 Si2 2.581796 1_545
Si1 Si5 2.424930 1_445
Si1 Si3 2.581796 1_545
Si1 Si3 2.581796 1_455
Si2 Si3 2.380298 1_556
Si2 Si4 2.424930 1_665
Si4 Si5 2.459621 1_445
