# generated using pymatgen
data_Ba2InGaO5
_symmetry_space_group_name_H-M   'P 1'
_cell_length_a   8.99878492
_cell_length_b   8.99878492
_cell_length_c   8.99878492
_cell_angle_alpha   140.96455228
_cell_angle_beta   139.63031402
_cell_angle_gamma   57.40905938
_symmetry_Int_Tables_number   1
_chemical_formula_structural   Ba2InGaO5
_chemical_formula_sum   'Ba4 In2 Ga2 O10'
_cell_volume   294.72783353
_cell_formula_units_Z   2
loop_
 _symmetry_equiv_pos_site_id
 _symmetry_equiv_pos_as_xyz
  1  'x, y, z'
loop_
 _atom_site_type_symbol
 _atom_site_label
 _atom_site_symmetry_multiplicity
 _atom_site_fract_x
 _atom_site_fract_y
 _atom_site_fract_z
 _atom_site_occupancy
  Ba  Ba0  1  0.38753000  0.89973800  0.52488600  1
  Ba  Ba1  1  0.61247000  0.13735600  0.51220900  1
  Ba  Ba2  1  0.12514800  0.63735600  0.52488600  1
  Ba  Ba3  1  0.87485200  0.39973800  0.51220900  1
  In  In0  1  0.50000000  0.51644300  0.01644300  1
  In  In1  1  0.00000000  0.01644300  0.01644300  1
  Ga  Ga0  1  0.18476900  0.26185000  0.94661900  1
  Ga  Ga1  1  0.81523100  0.76185000  0.07708100  1
  O  O0  1  0.76052900  0.27645900  0.01567800  1
  O  O1  1  0.23947100  0.25514800  0.51593000  1
  O  O2  1  0.23921800  0.75514800  0.01567800  1
  O  O3  1  0.76078200  0.77645900  0.51593000  1
  O  O4  1  0.42384600  0.36495600  0.08128800  1
  O  O5  1  0.57615400  0.65744100  0.94110900  1
  O  O6  1  0.21633200  0.15744100  0.08128800  1
  O  O7  1  0.78366800  0.86495600  0.94110900  1
  O  O8  1  0.99019500  0.50320700  0.99340200  1
  O  O9  1  0.00980500  0.00320700  0.51301200  1
loop_
_geom_bond_atom_site_label_1
_geom_bond_atom_site_label_2
_geom_bond_distance
_geom_bond_site_symmetry_2
Ba0 O7 2.666181 1_555
Ba0 O1 2.767098 1_565
Ba0 O2 2.785854 1_555
Ba0 O9 2.936617 1_565
Ba0 O0 2.945226 1_566
Ba0 O3 2.962823 1_555
Ba0 O4 3.019848 1_566
Ba0 O8 3.092906 1_454
Ba0 O4 3.106578 1_555
Ba1 O6 2.666185 1_555
Ba1 O0 2.767098 1_556
Ba1 O3 2.785857 1_545
Ba1 O8 2.936620 1_555
Ba1 O1 2.945223 1_555
Ba1 O2 2.962823 1_545
Ba1 O5 3.019840 1_555
Ba1 O9 3.092911 1_655
Ba1 O5 3.106588 1_544
Ba2 O5 2.666185 1_555
Ba2 O3 2.767098 1_455
Ba2 O0 2.785864 1_455
Ba2 O9 2.936617 1_565
Ba2 O2 2.945237 1_556
Ba2 O1 2.962823 1_555
Ba2 O6 3.019844 1_566
Ba2 O8 3.092906 1_454
Ba2 O6 3.106580 1_555
Ba3 O4 2.666187 1_555
Ba3 O2 2.767098 1_656
Ba3 O1 2.785867 1_655
Ba3 O8 2.936609 1_555
Ba3 O3 2.945234 1_555
Ba3 O0 2.962823 1_555
Ba3 O7 3.019840 1_555
Ba3 O9 3.092900 1_655
Ba3 O7 3.106582 1_544
In0 O3 2.165461 1_555
In0 O2 2.165461 1_555
In0 O0 2.169668 1_555
In0 O1 2.169669 1_554
In0 O4 2.349450 1_555
In0 O5 2.349450 1_554
In1 O0 2.165460 1_455
In1 O1 2.165461 1_555
In1 O3 2.169669 1_444
In1 O2 2.169670 1_545
In1 O6 2.349443 1_555
In1 O7 2.349443 1_444
Ga0 O4 1.840890 1_556
Ga0 O6 1.840898 1_556
Ga0 O8 1.888442 1_455
Ga0 O9 1.897166 1_555
Ga1 O5 1.840890 1_554
Ga1 O7 1.840898 1_554
Ga1 O9 1.888442 1_665
Ga1 O8 1.897166 1_554
