# generated using pymatgen
data_Pb4CN4
_symmetry_space_group_name_H-M   'P 1'
_cell_length_a   11.34320700
_cell_length_b   3.53067700
_cell_length_c   18.01353900
_cell_angle_alpha   90.00000000
_cell_angle_beta   90.00000000
_cell_angle_gamma   90.00000000
_symmetry_Int_Tables_number   1
_chemical_formula_structural   Pb4CN4
_chemical_formula_sum   'Pb16 C4 N16'
_cell_volume   721.42782722
_cell_formula_units_Z   4
loop_
 _symmetry_equiv_pos_site_id
 _symmetry_equiv_pos_as_xyz
  1  'x, y, z'
loop_
 _atom_site_type_symbol
 _atom_site_label
 _atom_site_symmetry_multiplicity
 _atom_site_fract_x
 _atom_site_fract_y
 _atom_site_fract_z
 _atom_site_occupancy
  Pb  Pb0  1  0.56587200  0.25000000  0.92154900  1
  Pb  Pb1  1  0.06587200  0.25000000  0.57845100  1
  Pb  Pb2  1  0.43412800  0.75000000  0.07845100  1
  Pb  Pb3  1  0.93412800  0.75000000  0.42154900  1
  Pb  Pb4  1  0.63268300  0.25000000  0.46454400  1
  Pb  Pb5  1  0.13268300  0.25000000  0.03545600  1
  Pb  Pb6  1  0.36731700  0.75000000  0.53545600  1
  Pb  Pb7  1  0.86731700  0.75000000  0.96454400  1
  Pb  Pb8  1  0.78655700  0.25000000  0.79689800  1
  Pb  Pb9  1  0.28655700  0.25000000  0.70310200  1
  Pb  Pb10  1  0.21344300  0.75000000  0.20310200  1
  Pb  Pb11  1  0.71344300  0.75000000  0.29689800  1
  Pb  Pb12  1  0.92458000  0.25000000  0.17428800  1
  Pb  Pb13  1  0.42458000  0.25000000  0.32571200  1
  Pb  Pb14  1  0.07542000  0.75000000  0.82571200  1
  Pb  Pb15  1  0.57542000  0.75000000  0.67428800  1
  C  C0  1  0.67495100  0.25000000  0.10435400  1
  C  C1  1  0.17495100  0.25000000  0.39564600  1
  C  C2  1  0.32504900  0.75000000  0.89564600  1
  C  C3  1  0.82504900  0.75000000  0.60435400  1
  N  N0  1  0.57408000  0.25000000  0.13117800  1
  N  N1  1  0.07408000  0.25000000  0.36882200  1
  N  N2  1  0.42592000  0.75000000  0.86882200  1
  N  N3  1  0.92592000  0.75000000  0.63117800  1
  N  N4  1  0.77564600  0.25000000  0.07741700  1
  N  N5  1  0.27564600  0.25000000  0.42258300  1
  N  N6  1  0.22435400  0.75000000  0.92258300  1
  N  N7  1  0.72435400  0.75000000  0.57741700  1
  N  N8  1  0.79231700  0.25000000  0.37808100  1
  N  N9  1  0.29231700  0.25000000  0.12191900  1
  N  N10  1  0.20768300  0.75000000  0.62191900  1
  N  N11  1  0.70768300  0.75000000  0.87808100  1
  N  N12  1  0.95519900  0.25000000  0.87341800  1
  N  N13  1  0.45519900  0.25000000  0.62658200  1
  N  N14  1  0.04480100  0.75000000  0.12658200  1
  N  N15  1  0.54480100  0.75000000  0.37341800  1
loop_
_geom_bond_atom_site_label_1
_geom_bond_atom_site_label_2
_geom_bond_distance
_geom_bond_site_symmetry_2
C0 N4 1.240999 1_555
C0 N0 1.242044 1_555
C1 N5 1.240999 1_555
C1 N1 1.242044 1_555
C2 N6 1.240999 1_555
C2 N2 1.242044 1_555
C3 N7 1.240999 1_555
C3 N3 1.242044 1_555
N0 Pb2 2.557090 1_555
N0 Pb2 2.557090 1_545
N1 Pb3 2.557090 1_445
N1 Pb3 2.557090 1_455
N2 Pb0 2.557090 1_555
N2 Pb0 2.557090 1_565
N3 Pb1 2.557090 1_655
N3 Pb1 2.557090 1_665
N4 Pb12 2.428791 1_555
N4 Pb7 2.886480 1_554
N4 Pb7 2.886480 1_544
N5 Pb13 2.428791 1_555
N5 Pb6 2.886480 1_545
N5 Pb6 2.886480 1_555
N6 Pb14 2.428791 1_555
N6 Pb5 2.886480 1_566
N6 Pb5 2.886480 1_556
N7 Pb15 2.428791 1_555
N7 Pb4 2.886480 1_565
N7 Pb4 2.886480 1_555
N8 Pb4 2.388447 1_555
N8 Pb11 2.460787 1_545
N8 Pb11 2.460787 1_555
N8 Pb3 2.513383 1_555
N8 Pb3 2.513383 1_545
N9 Pb5 2.388447 1_555
N9 Pb10 2.460787 1_545
N9 Pb10 2.460787 1_555
N9 Pb2 2.513383 1_545
N9 Pb2 2.513383 1_555
N10 Pb6 2.388447 1_555
N10 Pb9 2.460787 1_565
N10 Pb9 2.460787 1_555
N10 Pb1 2.513383 1_565
N10 Pb1 2.513383 1_555
N11 Pb7 2.388447 1_555
N11 Pb8 2.460787 1_565
N11 Pb8 2.460787 1_555
N11 Pb0 2.513383 1_555
N11 Pb0 2.513383 1_565
N12 Pb8 2.357821 1_555
N12 Pb14 2.390515 1_645
N12 Pb14 2.390515 1_655
N12 Pb7 2.608579 1_545
N12 Pb7 2.608579 1_555
N13 Pb9 2.357821 1_555
N13 Pb15 2.390515 1_545
N13 Pb15 2.390515 1_555
N13 Pb6 2.608579 1_555
N13 Pb6 2.608579 1_545
N14 Pb10 2.357821 1_555
N14 Pb12 2.390515 1_455
N14 Pb12 2.390515 1_465
N14 Pb5 2.608579 1_555
N14 Pb5 2.608579 1_565
N15 Pb11 2.357821 1_555
N15 Pb13 2.390515 1_565
N15 Pb13 2.390515 1_555
N15 Pb4 2.608579 1_565
N15 Pb4 2.608579 1_555
