# generated using pymatgen
data_NaSrGaF6
_symmetry_space_group_name_H-M   'P 1'
_cell_length_a   5.44689400
_cell_length_b   9.37702600
_cell_length_c   10.48264300
_cell_angle_alpha   90.00000000
_cell_angle_beta   90.00000000
_cell_angle_gamma   90.00000000
_symmetry_Int_Tables_number   1
_chemical_formula_structural   NaSrGaF6
_chemical_formula_sum   'Na4 Sr4 Ga4 F24'
_cell_volume   535.40797955
_cell_formula_units_Z   4
loop_
 _symmetry_equiv_pos_site_id
 _symmetry_equiv_pos_as_xyz
  1  'x, y, z'
loop_
 _atom_site_type_symbol
 _atom_site_label
 _atom_site_symmetry_multiplicity
 _atom_site_fract_x
 _atom_site_fract_y
 _atom_site_fract_z
 _atom_site_occupancy
  Na  Na0  1  0.04383300  0.64637300  0.08297100  1
  Na  Na1  1  0.45616700  0.35362700  0.58297100  1
  Na  Na2  1  0.95616700  0.14637300  0.41702900  1
  Na  Na3  1  0.54383300  0.85362700  0.91702900  1
  Sr  Sr0  1  0.50553900  0.31448200  0.17749700  1
  Sr  Sr1  1  0.99446100  0.68551800  0.67749700  1
  Sr  Sr2  1  0.49446100  0.81448200  0.32250300  1
  Sr  Sr3  1  0.00553900  0.18551800  0.82250300  1
  Ga  Ga0  1  0.03682800  0.00089000  0.12633800  1
  Ga  Ga1  1  0.46317200  0.99911000  0.62633800  1
  Ga  Ga2  1  0.96317200  0.50089000  0.37366200  1
  Ga  Ga3  1  0.53682800  0.49911000  0.87366200  1
  F  F0  1  0.21352700  0.14103200  0.58657800  1
  F  F1  1  0.28647300  0.85896800  0.08657800  1
  F  F2  1  0.78647300  0.64103200  0.91342200  1
  F  F3  1  0.71352700  0.35896800  0.41342200  1
  F  F4  1  0.20847400  0.62075900  0.29693100  1
  F  F5  1  0.29152600  0.37924100  0.79693100  1
  F  F6  1  0.79152600  0.12075900  0.20306900  1
  F  F7  1  0.70847400  0.87924100  0.70306900  1
  F  F8  1  0.21676400  0.15765500  0.04890600  1
  F  F9  1  0.28323600  0.84234500  0.54890600  1
  F  F10  1  0.78323600  0.65765500  0.45109400  1
  F  F11  1  0.71676400  0.34234500  0.95109400  1
  F  F12  1  0.15544900  0.33981800  0.31804800  1
  F  F13  1  0.34455100  0.66018200  0.81804800  1
  F  F14  1  0.84455100  0.83981800  0.18195200  1
  F  F15  1  0.65544900  0.16018200  0.68195200  1
  F  F16  1  0.36259500  0.50428300  0.03212000  1
  F  F17  1  0.13740500  0.49571700  0.53212000  1
  F  F18  1  0.63740500  0.00428300  0.46788000  1
  F  F19  1  0.86259500  0.99571700  0.96788000  1
  F  F20  1  0.21767600  0.02167500  0.28284400  1
  F  F21  1  0.28232400  0.97832500  0.78284400  1
  F  F22  1  0.78232400  0.52167500  0.21715600  1
  F  F23  1  0.71767600  0.47832500  0.71715600  1
loop_
_geom_bond_atom_site_label_1
_geom_bond_atom_site_label_2
_geom_bond_distance
_geom_bond_site_symmetry_2
F0 Ga1 1.947765 1_545
F0 Na2 2.264169 1_455
F0 Na1 2.392117 1_555
F0 Sr3 2.752046 1_555
F1 Ga0 1.947765 1_565
F1 Na3 2.264169 1_554
F1 Na0 2.392117 1_555
F1 Sr2 2.752046 1_555
F2 Ga3 1.947765 1_555
F2 Na0 2.264169 1_656
F2 Na3 2.392117 1_555
F2 Sr1 2.752046 1_555
F3 Ga2 1.947765 1_555
F3 Na1 2.264169 1_555
F3 Na2 2.392117 1_555
F3 Sr0 2.752046 1_555
F4 Ga2 1.922403 1_455
F4 Sr2 2.407956 1_555
F4 Na0 2.427417 1_555
F5 Ga3 1.922403 1_555
F5 Sr3 2.407956 1_555
F5 Na1 2.427417 1_555
F6 Ga0 1.922403 1_655
F6 Sr0 2.407956 1_555
F6 Na2 2.427417 1_555
F7 Ga1 1.922403 1_555
F7 Sr1 2.407956 1_555
F7 Na3 2.427417 1_555
F8 Ga0 1.944298 1_555
F8 Sr0 2.540415 1_555
F8 Sr3 2.650381 1_554
F9 Ga1 1.944298 1_555
F9 Sr1 2.540415 1_455
F9 Sr2 2.650381 1_555
F10 Ga2 1.944298 1_555
F10 Sr2 2.540415 1_555
F10 Sr1 2.650381 1_555
F11 Ga3 1.944298 1_555
F11 Sr3 2.540415 1_655
F11 Sr0 2.650381 1_556
F12 Ga2 1.928203 1_455
F12 Na2 2.354823 1_455
F12 Sr0 2.421460 1_555
F13 Ga3 1.928203 1_555
F13 Na3 2.354823 1_555
F13 Sr1 2.421460 1_455
F14 Ga0 1.928203 1_665
F14 Na0 2.354823 1_655
F14 Sr2 2.421460 1_555
F15 Ga1 1.928203 1_545
F15 Na1 2.354823 1_555
F15 Sr3 2.421460 1_655
F16 Ga3 1.913668 1_554
F16 Na0 2.252553 1_555
F16 Sr0 2.469043 1_555
F17 Ga2 1.913668 1_455
F17 Na1 2.252553 1_555
F17 Sr1 2.469043 1_455
F18 Ga1 1.913668 1_545
F18 Na2 2.252553 1_555
F18 Sr2 2.469043 1_545
F19 Ga0 1.913668 1_666
F19 Na3 2.252553 1_555
F19 Sr3 2.469043 1_665
F20 Ga0 1.923509 1_555
F20 Na2 2.318354 1_455
F20 Sr2 2.494079 1_545
F21 Ga1 1.923509 1_555
F21 Na3 2.318354 1_555
F21 Sr3 2.494079 1_565
F22 Ga2 1.923509 1_555
F22 Na0 2.318354 1_655
F22 Sr0 2.494079 1_555
F23 Ga3 1.923509 1_555
F23 Na1 2.318354 1_555
F23 Sr1 2.494079 1_555
