# generated using pymatgen
data_Tm5Si3C
_symmetry_space_group_name_H-M   'P 1'
_cell_length_a   6.24417300
_cell_length_b   8.33101500
_cell_length_c   8.34353660
_cell_angle_alpha   119.95036389
_cell_angle_beta   90.00000000
_cell_angle_gamma   90.00000000
_symmetry_Int_Tables_number   1
_chemical_formula_structural   Tm5Si3C
_chemical_formula_sum   'Tm10 Si6 C2'
_cell_volume   376.07169955
_cell_formula_units_Z   2
loop_
 _symmetry_equiv_pos_site_id
 _symmetry_equiv_pos_as_xyz
  1  'x, y, z'
loop_
 _atom_site_type_symbol
 _atom_site_label
 _atom_site_symmetry_multiplicity
 _atom_site_fract_x
 _atom_site_fract_y
 _atom_site_fract_z
 _atom_site_occupancy
  Tm  Tm0  1  0.00000000  0.33316000  0.66631900  1
  Tm  Tm1  1  0.00000000  0.66684000  0.33368100  1
  Tm  Tm2  1  0.50000000  0.66684000  0.33368100  1
  Tm  Tm3  1  0.50000000  0.33316000  0.66631900  1
  Tm  Tm4  1  0.25000000  0.22361100  0.00000000  1
  Tm  Tm5  1  0.25000000  0.77580000  0.77524400  1
  Tm  Tm6  1  0.25000000  0.00055500  0.22475600  1
  Tm  Tm7  1  0.75000000  0.77638900  0.00000000  1
  Tm  Tm8  1  0.75000000  0.22420000  0.22475600  1
  Tm  Tm9  1  0.75000000  0.99944500  0.77524400  1
  Si  Si0  1  0.25000000  0.59406500  0.00000000  1
  Si  Si1  1  0.25000000  0.40562600  0.40583900  1
  Si  Si2  1  0.25000000  0.99978800  0.59416100  1
  Si  Si3  1  0.75000000  0.40593500  0.00000000  1
  Si  Si4  1  0.75000000  0.59437400  0.59416100  1
  Si  Si5  1  0.75000000  0.00021200  0.40583900  1
  C  C0  1  0.00000000  0.00000000  0.00000000  1
  C  C1  1  0.50000000  0.00000000  0.00000000  1
loop_
_geom_bond_atom_site_label_1
_geom_bond_atom_site_label_2
_geom_bond_distance
_geom_bond_site_symmetry_2
Si0 Tm6 2.940037 1_565
Si0 Tm5 2.940044 1_554
Si0 Tm3 2.978272 1_554
Si0 Tm0 2.978272 1_554
Si0 Tm1 2.978274 1_555
Si0 Tm2 2.978274 1_555
Si0 Tm4 3.086258 1_555
Si0 Tm7 3.471976 1_455
Si0 Tm7 3.471976 1_555
Si1 Tm6 2.929163 1_555
Si1 Tm4 2.939107 1_555
Si1 Tm0 2.972334 1_555
Si1 Tm3 2.972334 1_555
Si1 Tm1 2.973765 1_555
Si1 Tm2 2.973765 1_555
Si1 Tm5 3.085348 1_555
Si1 Tm8 3.469075 1_455
Si1 Tm8 3.469075 1_555
Si2 Tm5 2.929163 1_555
Si2 Tm4 2.939106 1_566
Si2 Tm1 2.972343 1_555
Si2 Tm2 2.972343 1_555
Si2 Tm3 2.973766 1_565
Si2 Tm0 2.973766 1_565
Si2 Tm6 3.085339 1_565
Si2 Tm9 3.469075 1_555
Si2 Tm9 3.469075 1_455
Si3 Tm9 2.940037 1_544
Si3 Tm8 2.940044 1_555
Si3 Tm2 2.978272 1_555
Si3 Tm1 2.978272 1_655
Si3 Tm3 2.978274 1_554
Si3 Tm0 2.978274 1_654
Si3 Tm7 3.086258 1_555
Si3 Tm4 3.471976 1_655
Si3 Tm4 3.471976 1_555
Si4 Tm9 2.929163 1_555
Si4 Tm7 2.939107 1_556
Si4 Tm1 2.972334 1_655
Si4 Tm2 2.972334 1_555
Si4 Tm3 2.973765 1_555
Si4 Tm0 2.973765 1_655
Si4 Tm8 3.085348 1_555
Si4 Tm5 3.469075 1_555
Si4 Tm5 3.469075 1_655
Si5 Tm8 2.929163 1_555
Si5 Tm7 2.939106 1_545
Si5 Tm0 2.972343 1_655
Si5 Tm3 2.972343 1_555
Si5 Tm1 2.973766 1_645
Si5 Tm2 2.973766 1_545
Si5 Tm9 3.085339 1_545
Si5 Tm6 3.469075 1_555
Si5 Tm6 3.469075 1_655
C0 Tm4 2.430489 1_555
C0 Tm7 2.430489 1_445
C0 Tm8 2.438197 1_455
C0 Tm5 2.438197 1_544
C0 Tm6 2.438200 1_555
C0 Tm9 2.438200 1_444
C1 Tm4 2.430489 1_555
C1 Tm7 2.430489 1_545
C1 Tm8 2.438197 1_555
C1 Tm5 2.438197 1_544
C1 Tm6 2.438200 1_555
C1 Tm9 2.438200 1_544
