# generated using pymatgen
data_GaBi3
_symmetry_space_group_name_H-M   'P 1'
_cell_length_a   4.91774000
_cell_length_b   4.91774000
_cell_length_c   4.91774000
_cell_angle_alpha   90.00000000
_cell_angle_beta   90.00000000
_cell_angle_gamma   90.00000000
_symmetry_Int_Tables_number   1
_chemical_formula_structural   GaBi3
_chemical_formula_sum   'Ga1 Bi3'
_cell_volume   118.93144398
_cell_formula_units_Z   1
loop_
 _symmetry_equiv_pos_site_id
 _symmetry_equiv_pos_as_xyz
  1  'x, y, z'
loop_
 _atom_site_type_symbol
 _atom_site_label
 _atom_site_symmetry_multiplicity
 _atom_site_fract_x
 _atom_site_fract_y
 _atom_site_fract_z
 _atom_site_occupancy
  Ga  Ga0  1  0.00000000  0.00000000  0.00000000  1
  Bi  Bi0  1  0.50000000  0.00000000  0.50000000  1
  Bi  Bi1  1  0.00000000  0.50000000  0.50000000  1
  Bi  Bi2  1  0.50000000  0.50000000  0.00000000  1
loop_
_geom_bond_atom_site_label_1
_geom_bond_atom_site_label_2
_geom_bond_distance
_geom_bond_site_symmetry_2
Bi0 Ga0 3.477367 1_655
Bi0 Bi1 3.477367 1_645
Bi0 Ga0 3.477367 1_656
Bi0 Ga0 3.477367 1_555
Bi0 Bi1 3.477367 1_655
Bi0 Bi2 3.477367 1_555
Bi0 Bi2 3.477367 1_545
Bi0 Ga0 3.477367 1_556
Bi0 Bi1 3.477367 1_555
Bi0 Bi2 3.477367 1_556
Bi0 Bi1 3.477367 1_545
Bi0 Bi2 3.477367 1_546
Bi1 Ga0 3.477367 1_555
Bi1 Ga0 3.477367 1_566
Bi1 Bi2 3.477367 1_455
Bi1 Bi2 3.477367 1_555
Bi1 Ga0 3.477367 1_556
Bi1 Bi2 3.477367 1_556
Bi1 Ga0 3.477367 1_565
Bi1 Bi2 3.477367 1_456
Bi2 Ga0 3.477367 1_655
Bi2 Ga0 3.477367 1_665
Bi2 Ga0 3.477367 1_555
Bi2 Ga0 3.477367 1_565
