# generated using pymatgen
data_BaMg14VO16
_symmetry_space_group_name_H-M   'P 1'
_cell_length_a   8.75447704
_cell_length_b   8.75447704
_cell_length_c   4.50233775
_cell_angle_alpha   90.00000000
_cell_angle_beta   90.00000000
_cell_angle_gamma   90.00000000
_symmetry_Int_Tables_number   1
_chemical_formula_structural   BaMg14VO16
_chemical_formula_sum   'Ba1 Mg14 V1 O16'
_cell_volume   345.06307429
_cell_formula_units_Z   1
loop_
 _symmetry_equiv_pos_site_id
 _symmetry_equiv_pos_as_xyz
  1  'x, y, z'
loop_
 _atom_site_type_symbol
 _atom_site_label
 _atom_site_symmetry_multiplicity
 _atom_site_fract_x
 _atom_site_fract_y
 _atom_site_fract_z
 _atom_site_occupancy
  Ba  Ba0  1  0.50000000  0.50000000  0.00000000  1
  Mg  Mg0  1  0.00000000  0.50000000  0.00000000  1
  Mg  Mg1  1  0.50000000  0.00000000  0.00000000  1
  Mg  Mg2  1  0.00000000  0.24902243  0.50000000  1
  Mg  Mg3  1  0.00000000  0.75097757  0.50000000  1
  Mg  Mg4  1  0.50000000  0.23545283  0.50000000  1
  Mg  Mg5  1  0.50000000  0.76454717  0.50000000  1
  Mg  Mg6  1  0.24902243  0.00000000  0.50000000  1
  Mg  Mg7  1  0.23545283  0.50000000  0.50000000  1
  Mg  Mg8  1  0.75097757  0.00000000  0.50000000  1
  Mg  Mg9  1  0.76454717  0.50000000  0.50000000  1
  Mg  Mg10  1  0.24191205  0.24191205  0.00000000  1
  Mg  Mg11  1  0.24191205  0.75808795  0.00000000  1
  Mg  Mg12  1  0.75808795  0.24191205  0.00000000  1
  Mg  Mg13  1  0.75808795  0.75808795  0.00000000  1
  V  V0  1  0.00000000  0.00000000  0.00000000  1
  O  O0  1  0.24904351  0.00000000  0.00000000  1
  O  O1  1  0.21957580  0.50000000  0.00000000  1
  O  O2  1  0.75095649  0.00000000  0.00000000  1
  O  O3  1  0.78042420  0.50000000  0.00000000  1
  O  O4  1  0.24916439  0.24916439  0.50000000  1
  O  O5  1  0.24916439  0.75083561  0.50000000  1
  O  O6  1  0.75083561  0.24916439  0.50000000  1
  O  O7  1  0.75083561  0.75083561  0.50000000  1
  O  O8  1  0.00000000  0.00000000  0.50000000  1
  O  O9  1  0.00000000  0.50000000  0.50000000  1
  O  O10  1  0.50000000  0.00000000  0.50000000  1
  O  O11  1  0.50000000  0.50000000  0.50000000  1
  O  O12  1  0.00000000  0.24904351  0.00000000  1
  O  O13  1  0.00000000  0.75095649  0.00000000  1
  O  O14  1  0.50000000  0.21957580  0.00000000  1
  O  O15  1  0.50000000  0.78042420  0.00000000  1
loop_
_geom_bond_atom_site_label_1
_geom_bond_atom_site_label_2
_geom_bond_distance
_geom_bond_site_symmetry_2
Ba0 O11 2.251169 1_554
Ba0 O11 2.251169 1_555
Ba0 O15 2.454967 1_555
Ba0 O3 2.454967 1_555
Ba0 O1 2.454967 1_555
Ba0 O14 2.454967 1_555
Mg0 O3 1.922271 1_455
Mg0 O1 1.922271 1_555
Mg0 O12 2.196993 1_555
Mg0 O13 2.196993 1_555
Mg0 O9 2.251169 1_554
Mg0 O9 2.251169 1_555
Mg1 O15 1.922271 1_545
Mg1 O14 1.922271 1_555
Mg1 O0 2.196993 1_555
Mg1 O2 2.196993 1_555
Mg1 O10 2.251169 1_554
Mg1 O10 2.251169 1_555
Mg2 O8 2.180061 1_555
Mg2 O4 2.181304 1_555
Mg2 O6 2.181304 1_455
Mg2 O9 2.197177 1_555
Mg2 O12 2.251169 1_555
Mg2 O12 2.251169 1_556
Mg3 O8 2.180061 1_565
Mg3 O5 2.181304 1_555
Mg3 O7 2.181304 1_455
Mg3 O9 2.197177 1_555
Mg3 O13 2.251169 1_555
Mg3 O13 2.251169 1_556
Mg4 O10 2.061266 1_555
Mg4 O4 2.199213 1_555
Mg4 O6 2.199213 1_555
Mg4 O14 2.255456 1_556
Mg4 O14 2.255456 1_555
Mg4 O11 2.315972 1_555
Mg5 O10 2.061266 1_565
Mg5 O5 2.199213 1_555
Mg5 O7 2.199213 1_555
Mg5 O15 2.255456 1_556
Mg5 O15 2.255456 1_555
Mg5 O11 2.315972 1_555
Mg6 O8 2.180061 1_555
Mg6 O5 2.181304 1_545
Mg6 O4 2.181304 1_555
Mg6 O10 2.197177 1_555
Mg6 O0 2.251169 1_555
Mg6 O0 2.251169 1_556
Mg7 O9 2.061266 1_555
Mg7 O4 2.199213 1_555
Mg7 O5 2.199213 1_555
Mg7 O1 2.255456 1_555
Mg7 O1 2.255456 1_556
Mg7 O11 2.315972 1_555
Mg8 O8 2.180061 1_655
Mg8 O6 2.181304 1_555
Mg8 O7 2.181304 1_545
Mg8 O10 2.197177 1_555
Mg8 O2 2.251169 1_555
Mg8 O2 2.251169 1_556
Mg9 O9 2.061266 1_655
Mg9 O7 2.199213 1_555
Mg9 O6 2.199213 1_555
Mg9 O3 2.255456 1_556
Mg9 O3 2.255456 1_555
Mg9 O11 2.315972 1_555
Mg10 O12 2.118734 1_555
Mg10 O0 2.118734 1_555
Mg10 O4 2.252959 1_554
Mg10 O4 2.252959 1_555
Mg10 O14 2.267871 1_555
Mg10 O1 2.267871 1_555
Mg11 O13 2.118734 1_555
Mg11 O0 2.118734 1_565
Mg11 O5 2.252959 1_555
Mg11 O5 2.252959 1_554
Mg11 O1 2.267871 1_555
Mg11 O15 2.267871 1_555
Mg12 O2 2.118734 1_555
Mg12 O12 2.118734 1_655
Mg12 O6 2.252959 1_554
Mg12 O6 2.252959 1_555
Mg12 O14 2.267871 1_555
Mg12 O3 2.267871 1_555
Mg13 O2 2.118734 1_565
Mg13 O13 2.118734 1_655
Mg13 O7 2.252959 1_555
Mg13 O7 2.252959 1_554
Mg13 O15 2.267871 1_555
Mg13 O3 2.267871 1_555
O0 V0 2.180246 1_555
O2 V0 2.180246 1_655
O8 V0 2.251169 1_555
O8 V0 2.251169 1_556
O12 V0 2.180246 1_555
O13 V0 2.180246 1_565
