# generated using pymatgen
data_KLi3TiO4
_symmetry_space_group_name_H-M   'P 1'
_cell_length_a   5.99215232
_cell_length_b   7.64959421
_cell_length_c   10.14883474
_cell_angle_alpha   83.46809872
_cell_angle_beta   76.41187929
_cell_angle_gamma   79.65348596
_symmetry_Int_Tables_number   1
_chemical_formula_structural   KLi3TiO4
_chemical_formula_sum   'K4 Li12 Ti4 O16'
_cell_volume   443.57652727
_cell_formula_units_Z   4
loop_
 _symmetry_equiv_pos_site_id
 _symmetry_equiv_pos_as_xyz
  1  'x, y, z'
loop_
 _atom_site_type_symbol
 _atom_site_label
 _atom_site_symmetry_multiplicity
 _atom_site_fract_x
 _atom_site_fract_y
 _atom_site_fract_z
 _atom_site_occupancy
  K  K0  1  0.00266700  0.38146400  0.88551300  1
  K  K1  1  0.99733300  0.61853600  0.11448700  1
  K  K2  1  0.04663100  0.14117900  0.62753600  1
  K  K3  1  0.95336900  0.85882100  0.37246400  1
  Li  Li0  1  0.80889700  0.05875400  0.10226500  1
  Li  Li1  1  0.19110300  0.94124600  0.89773500  1
  Li  Li2  1  0.47944900  0.32178200  0.61178300  1
  Li  Li3  1  0.52055100  0.67821800  0.38821700  1
  Li  Li4  1  0.19259500  0.17516900  0.14658600  1
  Li  Li5  1  0.80740500  0.82483100  0.85341400  1
  Li  Li6  1  0.53324500  0.42653500  0.12817500  1
  Li  Li7  1  0.46675500  0.57346500  0.87182500  1
  Li  Li8  1  0.43471300  0.04674300  0.37763100  1
  Li  Li9  1  0.56528700  0.95325700  0.62236900  1
  Li  Li10  1  0.18556300  0.44658000  0.39767800  1
  Li  Li11  1  0.81443700  0.55342000  0.60232200  1
  Ti  Ti0  1  0.83298300  0.29537300  0.35110100  1
  Ti  Ti1  1  0.16701700  0.70462700  0.64889900  1
  Ti  Ti2  1  0.44361400  0.79074400  0.13413200  1
  Ti  Ti3  1  0.55638600  0.20925600  0.86586800  1
  O  O0  1  0.63872600  0.15845200  0.46897200  1
  O  O1  1  0.36127400  0.84154800  0.53102800  1
  O  O2  1  0.18363200  0.93657200  0.09487100  1
  O  O3  1  0.81636800  0.06342800  0.90512900  1
  O  O4  1  0.34767700  0.60831500  0.25790800  1
  O  O5  1  0.65232300  0.39168500  0.74209200  1
  O  O6  1  0.13918200  0.20409100  0.34846500  1
  O  O7  1  0.86081800  0.79590900  0.65153500  1
  O  O8  1  0.19293700  0.48177200  0.58903800  1
  O  O9  1  0.80706300  0.51822800  0.41096200  1
  O  O10  1  0.37628300  0.32915000  0.01100000  1
  O  O11  1  0.62371700  0.67085000  0.98900000  1
  O  O12  1  0.82012600  0.29159600  0.17218500  1
  O  O13  1  0.17987400  0.70840400  0.82781500  1
  O  O14  1  0.39036800  0.10297900  0.77654500  1
  O  O15  1  0.60963200  0.89702100  0.22345500  1
loop_
_geom_bond_atom_site_label_1
_geom_bond_atom_site_label_2
_geom_bond_distance
_geom_bond_site_symmetry_2
K0 O10 2.774181 1_556
K0 O5 2.807638 1_455
K0 O3 2.822321 1_455
K0 O13 2.837916 1_555
K0 O12 2.907455 1_456
K0 O14 2.951161 1_555
K0 O11 2.960141 1_455
K0 O8 3.019775 1_555
K1 O11 2.774181 1_554
K1 O4 2.807638 1_655
K1 O2 2.822321 1_655
K1 O12 2.837916 1_555
K1 O13 2.907455 1_654
K1 O15 2.951161 1_555
K1 O10 2.960141 1_655
K1 O9 3.019775 1_555
K2 O6 2.758350 1_555
K2 O14 2.785980 1_555
K2 O1 2.803268 1_545
K2 O8 2.852586 1_555
K2 O5 2.862889 1_455
K2 O3 2.877749 1_455
K2 O7 3.009546 1_445
K2 O0 3.203933 1_455
K3 O7 2.758350 1_555
K3 O15 2.785980 1_555
K3 O0 2.803268 1_565
K3 O9 2.852586 1_555
K3 O4 2.862889 1_655
K3 O2 2.877749 1_655
K3 O6 3.009546 1_665
K3 O1 3.203933 1_655
Li0 O3 1.987033 1_554
Li0 O15 1.990844 1_545
Li0 O12 2.008381 1_555
Li0 O2 2.259257 1_645
Li1 O2 1.987033 1_556
Li1 O14 1.990844 1_565
Li1 O13 2.008381 1_555
Li1 O3 2.259257 1_465
Li2 O8 1.966164 1_555
Li2 O0 1.976426 1_555
Li2 O5 2.027692 1_555
Li2 O14 2.268746 1_555
Li3 O9 1.966164 1_555
Li3 O1 1.976426 1_555
Li3 O4 2.027692 1_555
Li3 O15 2.268746 1_555
Li4 O2 1.968754 1_545
Li4 O10 1.969186 1_555
Li4 O6 2.029455 1_555
Li4 O12 2.215448 1_455
Li5 O3 1.968754 1_565
Li5 O11 1.969186 1_555
Li5 O7 2.029455 1_555
Li5 O13 2.215448 1_655
Li6 O10 1.957685 1_555
Li6 O12 1.959228 1_555
Li6 O4 2.019108 1_555
Li6 O11 2.277132 1_554
Li7 O11 1.957685 1_555
Li7 O13 1.959228 1_555
Li7 O5 2.019108 1_555
Li7 O10 2.277132 1_556
Li8 O15 2.016072 1_545
Li8 O6 2.017910 1_555
Li8 O0 2.042537 1_555
Li8 O1 2.109823 1_545
Li9 O14 2.016072 1_565
Li9 O7 2.017910 1_555
Li9 O1 2.042537 1_555
Li9 O0 2.109823 1_565
Li10 O4 1.967593 1_555
Li10 O8 2.002410 1_555
Li10 O6 2.056378 1_555
Li10 O9 2.211142 1_455
Li11 O5 1.967593 1_555
Li11 O9 2.002410 1_555
Li11 O7 2.056378 1_555
Li11 O8 2.211142 1_655
O0 Ti0 1.838903 1_555
O1 Ti1 1.838903 1_555
O2 Ti2 1.842927 1_555
O3 Ti3 1.842927 1_555
O4 Ti2 1.845514 1_555
O5 Ti3 1.845514 1_555
O6 Ti0 1.837318 1_455
O7 Ti1 1.837318 1_655
O8 Ti1 1.842704 1_555
O9 Ti0 1.842704 1_555
O10 Ti3 1.838537 1_554
O11 Ti2 1.838537 1_556
O12 Ti0 1.839110 1_555
O13 Ti1 1.839110 1_555
O14 Ti3 1.831469 1_555
O15 Ti2 1.831469 1_555
