# generated using pymatgen
data_LiTi(SeO)2
_symmetry_space_group_name_H-M   'P 1'
_cell_length_a   3.46658280
_cell_length_b   3.46658280
_cell_length_c   9.61534800
_cell_angle_alpha   90.00000000
_cell_angle_beta   90.00000000
_cell_angle_gamma   120.00001527
_symmetry_Int_Tables_number   1
_chemical_formula_structural   LiTi(SeO)2
_chemical_formula_sum   'Li1 Ti1 Se2 O2'
_cell_volume   100.06880821
_cell_formula_units_Z   1
loop_
 _symmetry_equiv_pos_site_id
 _symmetry_equiv_pos_as_xyz
  1  'x, y, z'
loop_
 _atom_site_type_symbol
 _atom_site_label
 _atom_site_symmetry_multiplicity
 _atom_site_fract_x
 _atom_site_fract_y
 _atom_site_fract_z
 _atom_site_occupancy
  Li  Li0  1  0.00000000  0.00000000  0.50000000  1
  Ti  Ti0  1  0.00000000  0.00000000  0.00000000  1
  Se  Se0  1  0.66666700  0.33333300  0.83523600  1
  Se  Se1  1  0.33333300  0.66666700  0.16476400  1
  O  O0  1  0.66666700  0.33333300  0.44010000  1
  O  O1  1  0.33333300  0.66666700  0.55990000  1
loop_
_geom_bond_atom_site_label_1
_geom_bond_atom_site_label_2
_geom_bond_distance
_geom_bond_site_symmetry_2
Li0 O0 2.082655 1_455
Li0 O1 2.082655 1_545
Li0 O0 2.082658 1_555
Li0 O0 2.082658 1_445
Li0 O1 2.082658 1_445
Li0 O1 2.082658 1_555
Se0 Ti0 2.552570 1_656
Se0 Ti0 2.552572 1_556
Se0 Ti0 2.552572 1_666
Se1 Ti0 2.552570 1_565
Se1 Ti0 2.552572 1_555
Se1 Ti0 2.552572 1_665
