# generated using pymatgen
data_Ce(SbSe2)2
_symmetry_space_group_name_H-M   'P 1'
_cell_length_a   8.54693736
_cell_length_b   8.54693736
_cell_length_c   8.10619819
_cell_angle_alpha   79.93850375
_cell_angle_beta   79.93850375
_cell_angle_gamma   65.54446733
_symmetry_Int_Tables_number   1
_chemical_formula_structural   Ce(SbSe2)2
_chemical_formula_sum   'Ce2 Sb4 Se8'
_cell_volume   527.26834640
_cell_formula_units_Z   2
loop_
 _symmetry_equiv_pos_site_id
 _symmetry_equiv_pos_as_xyz
  1  'x, y, z'
loop_
 _atom_site_type_symbol
 _atom_site_label
 _atom_site_symmetry_multiplicity
 _atom_site_fract_x
 _atom_site_fract_y
 _atom_site_fract_z
 _atom_site_occupancy
  Ce  Ce0  1  0.86382400  0.86382400  0.12573100  1
  Ce  Ce1  1  0.13617600  0.13617600  0.87426900  1
  Sb  Sb0  1  0.52359300  0.52359300  0.81244800  1
  Sb  Sb1  1  0.47640700  0.47640700  0.18755200  1
  Sb  Sb2  1  0.22223100  0.22223100  0.43801300  1
  Sb  Sb3  1  0.77776900  0.77776900  0.56198700  1
  Se  Se0  1  0.67273500  0.67273500  0.34057700  1
  Se  Se1  1  0.32726500  0.32726500  0.65942300  1
  Se  Se2  1  0.95857400  0.95857400  0.79052600  1
  Se  Se3  1  0.04142600  0.04142600  0.20947400  1
  Se  Se4  1  0.52596100  0.14242800  0.22468600  1
  Se  Se5  1  0.14242800  0.52596100  0.22468600  1
  Se  Se6  1  0.47403900  0.85757200  0.77531400  1
  Se  Se7  1  0.85757200  0.47403900  0.77531400  1
loop_
_geom_bond_atom_site_label_1
_geom_bond_atom_site_label_2
_geom_bond_distance
_geom_bond_site_symmetry_2
Ce0 Se3 2.774361 1_665
Ce0 Se2 2.774935 1_554
Ce0 Se0 2.930666 1_555
Ce0 Se4 2.969361 1_565
Ce0 Se5 2.969361 1_655
Ce1 Se2 2.774361 1_445
Ce1 Se3 2.774935 1_556
Ce1 Se1 2.930666 1_555
Ce1 Se6 2.969361 1_545
Ce1 Se7 2.969361 1_455
Sb0 Se7 2.676091 1_555
Sb0 Se6 2.676091 1_555
Sb0 Sb1 2.974671 1_556
Sb0 Se1 3.309986 1_555
Sb1 Se5 2.676091 1_555
Sb1 Se4 2.676091 1_555
Sb1 Se0 3.309986 1_555
Sb2 Se1 2.574160 1_555
Sb2 Se5 2.751756 1_555
Sb2 Se4 2.751756 1_555
Sb3 Se0 2.574160 1_555
Sb3 Se6 2.751756 1_555
Sb3 Se7 2.751756 1_555
