# generated using pymatgen
data_MgGa
_symmetry_space_group_name_H-M   'P 1'
_cell_length_a   11.56007198
_cell_length_b   11.56007198
_cell_length_c   10.15757227
_cell_angle_alpha   68.57493770
_cell_angle_beta   68.57493770
_cell_angle_gamma   29.72229952
_symmetry_Int_Tables_number   1
_chemical_formula_structural   MgGa
_chemical_formula_sum   'Mg16 Ga16'
_cell_volume   623.08700194
_cell_formula_units_Z   16
loop_
 _symmetry_equiv_pos_site_id
 _symmetry_equiv_pos_as_xyz
  1  'x, y, z'
loop_
 _atom_site_type_symbol
 _atom_site_label
 _atom_site_symmetry_multiplicity
 _atom_site_fract_x
 _atom_site_fract_y
 _atom_site_fract_z
 _atom_site_occupancy
  Mg  Mg0_0  1  0.31115200  0.31115200  0.35524650  1
  Mg  Mg0_1  1  0.31115200  0.31115200  0.85524650  1
  Mg  Mg0_2  1  0.31115200  0.81115200  0.35524650  1
  Mg  Mg0_3  1  0.31115200  0.81115200  0.85524650  1
  Mg  Mg0_4  1  0.81115200  0.31115200  0.35524650  1
  Mg  Mg0_5  1  0.81115200  0.31115200  0.85524650  1
  Mg  Mg0_6  1  0.81115200  0.81115200  0.35524650  1
  Mg  Mg0_7  1  0.81115200  0.81115200  0.85524650  1
  Mg  Mg1_0  1  0.18884800  0.18884800  0.14475350  1
  Mg  Mg1_1  1  0.18884800  0.18884800  0.64475350  1
  Mg  Mg1_2  1  0.18884800  0.68884800  0.14475350  1
  Mg  Mg1_3  1  0.18884800  0.68884800  0.64475350  1
  Mg  Mg1_4  1  0.68884800  0.18884800  0.14475350  1
  Mg  Mg1_5  1  0.68884800  0.18884800  0.64475350  1
  Mg  Mg1_6  1  0.68884800  0.68884800  0.14475350  1
  Mg  Mg1_7  1  0.68884800  0.68884800  0.64475350  1
  Ga  Ga0_0  1  0.43721100  0.43721100  0.39461050  1
  Ga  Ga0_1  1  0.43721100  0.43721100  0.89461050  1
  Ga  Ga0_2  1  0.43721100  0.93721100  0.39461050  1
  Ga  Ga0_3  1  0.43721100  0.93721100  0.89461050  1
  Ga  Ga0_4  1  0.93721100  0.43721100  0.39461050  1
  Ga  Ga0_5  1  0.93721100  0.43721100  0.89461050  1
  Ga  Ga0_6  1  0.93721100  0.93721100  0.39461050  1
  Ga  Ga0_7  1  0.93721100  0.93721100  0.89461050  1
  Ga  Ga1_0  1  0.06278900  0.06278900  0.10538950  1
  Ga  Ga1_1  1  0.06278900  0.06278900  0.60538950  1
  Ga  Ga1_2  1  0.06278900  0.56278900  0.10538950  1
  Ga  Ga1_3  1  0.06278900  0.56278900  0.60538950  1
  Ga  Ga1_4  1  0.56278900  0.06278900  0.10538950  1
  Ga  Ga1_5  1  0.56278900  0.06278900  0.60538950  1
  Ga  Ga1_6  1  0.56278900  0.56278900  0.10538950  1
  Ga  Ga1_7  1  0.56278900  0.56278900  0.60538950  1
loop_
_geom_bond_atom_site_label_1
_geom_bond_atom_site_label_2
_geom_bond_distance
_geom_bond_site_symmetry_2
Mg0_0 Mg0_6 2.964898 1_545
Mg0_0 Mg0_6 2.964898 1_455
Mg0_0 Mg1_1 3.169000 1_555
Mg0_0 Mg1_4 3.209435 1_555
Mg0_0 Mg1_2 3.209435 1_555
Mg0_1 Mg0_7 2.964898 1_455
Mg0_1 Mg0_7 2.964898 1_545
Mg0_1 Mg1_0 3.169000 1_556
Mg0_1 Mg1_3 3.209435 1_555
Mg0_1 Mg1_5 3.209435 1_555
Mg0_2 Mg0_4 2.964898 1_555
Mg0_2 Mg0_4 2.964898 1_465
Mg0_2 Mg1_3 3.169000 1_555
Mg0_2 Mg1_0 3.209435 1_565
Mg0_2 Mg1_6 3.209435 1_555
Mg0_3 Mg0_5 2.964898 1_555
Mg0_3 Mg0_5 2.964898 1_465
Mg0_3 Mg1_2 3.169000 1_556
Mg0_3 Mg1_1 3.209435 1_565
Mg0_3 Mg1_7 3.209435 1_555
Mg0_4 Mg1_5 3.169000 1_555
Mg0_4 Mg1_0 3.209435 1_655
Mg0_4 Mg1_6 3.209435 1_555
Mg0_5 Mg1_4 3.169000 1_556
Mg0_5 Mg1_1 3.209435 1_655
Mg0_5 Mg1_7 3.209435 1_555
Mg0_6 Mg1_7 3.169000 1_555
Mg0_6 Mg1_2 3.209435 1_655
Mg0_6 Mg1_4 3.209435 1_565
Mg0_7 Mg1_6 3.169000 1_556
Mg0_7 Mg1_5 3.209435 1_565
Mg0_7 Mg1_3 3.209435 1_655
Mg1_0 Mg1_6 2.964898 1_455
Mg1_0 Mg1_6 2.964898 1_545
Mg1_1 Mg1_7 2.964898 1_545
Mg1_1 Mg1_7 2.964898 1_455
Mg1_2 Mg1_4 2.964898 1_465
Mg1_2 Mg1_4 2.964898 1_555
Mg1_3 Mg1_5 2.964898 1_555
Mg1_3 Mg1_5 2.964898 1_465
Ga0_0 Mg1_2 2.927450 1_555
Ga0_0 Mg1_4 2.927450 1_555
Ga0_0 Mg1_3 2.953836 1_555
Ga0_0 Mg1_5 2.953836 1_555
Ga0_0 Ga0_6 2.964898 1_455
Ga0_0 Ga0_6 2.964898 1_545
Ga0_0 Mg0_0 2.991120 1_555
Ga0_0 Mg0_2 3.031767 1_555
Ga0_0 Mg0_4 3.031767 1_555
Ga0_1 Mg1_5 2.927450 1_555
Ga0_1 Mg1_3 2.927450 1_555
Ga0_1 Mg1_4 2.953836 1_556
Ga0_1 Mg1_2 2.953836 1_556
Ga0_1 Ga0_7 2.964898 1_545
Ga0_1 Ga0_7 2.964898 1_455
Ga0_1 Mg0_1 2.991120 1_555
Ga0_1 Mg0_5 3.031767 1_555
Ga0_1 Mg0_3 3.031767 1_555
Ga0_2 Mg1_6 2.927450 1_555
Ga0_2 Mg1_0 2.927450 1_565
Ga0_2 Mg1_1 2.953836 1_565
Ga0_2 Mg1_7 2.953836 1_555
Ga0_2 Ga0_4 2.964898 1_555
Ga0_2 Ga0_4 2.964898 1_465
Ga0_2 Mg0_2 2.991120 1_555
Ga0_2 Mg0_6 3.031767 1_555
Ga0_2 Mg0_0 3.031767 1_565
Ga0_3 Mg1_7 2.927450 1_555
Ga0_3 Mg1_1 2.927450 1_565
Ga0_3 Mg1_0 2.953836 1_566
Ga0_3 Mg1_6 2.953836 1_556
Ga0_3 Ga0_5 2.964898 1_465
Ga0_3 Ga0_5 2.964898 1_555
Ga0_3 Mg0_3 2.991120 1_555
Ga0_3 Mg0_7 3.031767 1_555
Ga0_3 Mg0_1 3.031767 1_565
Ga0_4 Mg1_6 2.927450 1_555
Ga0_4 Mg1_0 2.927450 1_655
Ga0_4 Mg1_1 2.953836 1_655
Ga0_4 Mg1_7 2.953836 1_555
Ga0_4 Mg0_4 2.991120 1_555
Ga0_4 Mg0_6 3.031767 1_555
Ga0_4 Mg0_0 3.031767 1_655
Ga0_5 Mg1_7 2.927450 1_555
Ga0_5 Mg1_1 2.927450 1_655
Ga0_5 Mg1_0 2.953836 1_656
Ga0_5 Mg1_6 2.953836 1_556
Ga0_5 Mg0_5 2.991120 1_555
Ga0_5 Mg0_7 3.031767 1_555
Ga0_5 Mg0_1 3.031767 1_655
Ga0_6 Mg1_2 2.927450 1_655
Ga0_6 Mg1_4 2.927450 1_565
Ga0_6 Mg1_5 2.953836 1_565
Ga0_6 Mg1_3 2.953836 1_655
Ga0_6 Mg0_6 2.991120 1_555
Ga0_6 Mg0_2 3.031767 1_655
Ga0_6 Mg0_4 3.031767 1_565
Ga0_7 Mg1_5 2.927450 1_565
Ga0_7 Mg1_3 2.927450 1_655
Ga0_7 Mg1_4 2.953836 1_566
Ga0_7 Mg1_2 2.953836 1_656
Ga0_7 Mg0_7 2.991120 1_555
Ga0_7 Mg0_5 3.031767 1_565
Ga0_7 Mg0_3 3.031767 1_655
Ga1_0 Mg0_2 2.927450 1_545
Ga1_0 Mg0_4 2.927450 1_455
Ga1_0 Mg0_3 2.953836 1_544
Ga1_0 Mg0_5 2.953836 1_454
Ga1_0 Ga1_6 2.964898 1_545
Ga1_0 Ga1_6 2.964898 1_455
Ga1_0 Mg1_0 2.991120 1_555
Ga1_0 Mg1_2 3.031767 1_545
Ga1_0 Mg1_4 3.031767 1_455
Ga1_1 Mg0_5 2.927450 1_455
Ga1_1 Mg0_3 2.927450 1_545
Ga1_1 Mg0_2 2.953836 1_545
Ga1_1 Mg0_4 2.953836 1_455
Ga1_1 Ga1_7 2.964898 1_455
Ga1_1 Ga1_7 2.964898 1_545
Ga1_1 Mg1_1 2.991120 1_555
Ga1_1 Mg1_3 3.031767 1_545
Ga1_1 Mg1_5 3.031767 1_455
Ga1_2 Mg0_6 2.927450 1_455
Ga1_2 Mg0_0 2.927450 1_555
Ga1_2 Mg0_1 2.953836 1_554
Ga1_2 Mg0_7 2.953836 1_454
Ga1_2 Ga1_4 2.964898 1_555
Ga1_2 Ga1_4 2.964898 1_465
Ga1_2 Mg1_2 2.991120 1_555
Ga1_2 Mg1_6 3.031767 1_455
Ga1_2 Mg1_0 3.031767 1_555
Ga1_3 Mg0_7 2.927450 1_455
Ga1_3 Mg0_1 2.927450 1_555
Ga1_3 Mg0_0 2.953836 1_555
Ga1_3 Mg0_6 2.953836 1_455
Ga1_3 Ga1_5 2.964898 1_465
Ga1_3 Ga1_5 2.964898 1_555
Ga1_3 Mg1_3 2.991120 1_555
Ga1_3 Mg1_1 3.031767 1_555
Ga1_3 Mg1_7 3.031767 1_455
Ga1_4 Mg0_6 2.927450 1_545
Ga1_4 Mg0_0 2.927450 1_555
Ga1_4 Mg0_1 2.953836 1_554
Ga1_4 Mg0_7 2.953836 1_544
Ga1_4 Mg1_4 2.991120 1_555
Ga1_4 Mg1_6 3.031767 1_545
Ga1_4 Mg1_0 3.031767 1_555
Ga1_5 Mg0_7 2.927450 1_545
Ga1_5 Mg0_1 2.927450 1_555
Ga1_5 Mg0_0 2.953836 1_555
Ga1_5 Mg0_6 2.953836 1_545
Ga1_5 Mg1_5 2.991120 1_555
Ga1_5 Mg1_1 3.031767 1_555
Ga1_5 Mg1_7 3.031767 1_545
Ga1_6 Mg0_2 2.927450 1_555
Ga1_6 Mg0_4 2.927450 1_555
Ga1_6 Mg0_3 2.953836 1_554
Ga1_6 Mg0_5 2.953836 1_554
Ga1_6 Mg1_6 2.991120 1_555
Ga1_6 Mg1_4 3.031767 1_555
Ga1_6 Mg1_2 3.031767 1_555
Ga1_7 Mg0_5 2.927450 1_555
Ga1_7 Mg0_3 2.927450 1_555
Ga1_7 Mg0_4 2.953836 1_555
Ga1_7 Mg0_2 2.953836 1_555
Ga1_7 Mg1_7 2.991120 1_555
Ga1_7 Mg1_3 3.031767 1_555
Ga1_7 Mg1_5 3.031767 1_555
