# generated using pymatgen
data_La4P9Rh8
_symmetry_space_group_name_H-M   'P 1'
_cell_length_a   11.53141182
_cell_length_b   11.53141182
_cell_length_c   5.79254250
_cell_angle_alpha   90.00000000
_cell_angle_beta   90.00000000
_cell_angle_gamma   111.02353522
_symmetry_Int_Tables_number   1
_chemical_formula_structural   La4P9Rh8
_chemical_formula_sum   'La8 P18 Rh16'
_cell_volume   718.98099453
_cell_formula_units_Z   2
loop_
 _symmetry_equiv_pos_site_id
 _symmetry_equiv_pos_as_xyz
  1  'x, y, z'
loop_
 _atom_site_type_symbol
 _atom_site_label
 _atom_site_symmetry_multiplicity
 _atom_site_fract_x
 _atom_site_fract_y
 _atom_site_fract_z
 _atom_site_occupancy
  La  La0  1  0.36000519  0.63999481  0.75000000  1
  La  La1  1  0.63999481  0.36000519  0.25000000  1
  La  La2  1  0.41000761  0.13886736  0.75000000  1
  La  La3  1  0.13886736  0.41000761  0.25000000  1
  La  La4  1  0.58999239  0.86113264  0.25000000  1
  La  La5  1  0.86113264  0.58999239  0.75000000  1
  La  La6  1  0.88838466  0.11161534  0.75000000  1
  La  La7  1  0.11161534  0.88838466  0.25000000  1
  P  P0  1  0.57295638  0.42704362  0.75000000  1
  P  P1  1  0.42704362  0.57295638  0.25000000  1
  P  P2  1  0.64721680  0.78849517  0.75000000  1
  P  P3  1  0.78849517  0.64721680  0.25000000  1
  P  P4  1  0.35278320  0.21150483  0.25000000  1
  P  P5  1  0.21150483  0.35278320  0.75000000  1
  P  P6  1  0.36490315  0.88341004  0.99821406  1
  P  P7  1  0.88341004  0.36490315  0.00178594  1
  P  P8  1  0.36490315  0.88341004  0.50178594  1
  P  P9  1  0.88341004  0.36490315  0.49821406  1
  P  P10  1  0.63509685  0.11658996  0.00178594  1
  P  P11  1  0.11658996  0.63509685  0.99821406  1
  P  P12  1  0.63509685  0.11658996  0.49821406  1
  P  P13  1  0.11658996  0.63509685  0.50178594  1
  P  P14  1  0.14322892  0.01576128  0.75000000  1
  P  P15  1  0.01576128  0.14322892  0.25000000  1
  P  P16  1  0.85677108  0.98423872  0.25000000  1
  P  P17  1  0.98423872  0.85677108  0.75000000  1
  Rh  Rh0  1  0.60563586  0.60563586  0.00000000  1
  Rh  Rh1  1  0.60563586  0.60563586  0.50000000  1
  Rh  Rh2  1  0.39436414  0.39436414  -0.00000000  1
  Rh  Rh3  1  0.39436414  0.39436414  0.50000000  1
  Rh  Rh4  1  0.70871136  0.29128864  0.75000000  1
  Rh  Rh5  1  0.29128864  0.70871136  0.25000000  1
  Rh  Rh6  1  0.18422165  0.81577835  0.75000000  1
  Rh  Rh7  1  0.81577835  0.18422165  0.25000000  1
  Rh  Rh8  1  0.54637570  0.94002330  0.75000000  1
  Rh  Rh9  1  0.94002330  0.54637570  0.25000000  1
  Rh  Rh10  1  0.45362430  0.05997670  0.25000000  1
  Rh  Rh11  1  0.05997670  0.45362430  0.75000000  1
  Rh  Rh12  1  0.81948984  0.81948984  0.00000000  1
  Rh  Rh13  1  0.81948984  0.81948984  0.50000000  1
  Rh  Rh14  1  0.18051016  0.18051016  -0.00000000  1
  Rh  Rh15  1  0.18051016  0.18051016  0.50000000  1
loop_
_geom_bond_atom_site_label_1
_geom_bond_atom_site_label_2
_geom_bond_distance
_geom_bond_site_symmetry_2
La0 P2 3.135625 1_555
La0 P5 3.135625 1_555
La0 P8 3.136158 1_555
La0 P6 3.136158 1_555
La0 P13 3.136158 1_555
La0 P11 3.136158 1_555
La0 P1 3.164234 1_555
La0 P1 3.164234 1_556
La0 Rh5 3.177215 1_555
La0 Rh5 3.177215 1_556
La0 Rh2 3.328989 1_556
La0 Rh0 3.328989 1_556
La0 Rh3 3.328989 1_555
La0 Rh1 3.328989 1_555
La0 Rh6 3.341532 1_555
La0 Rh8 3.354647 1_555
La0 Rh11 3.354647 1_555
La1 P3 3.135625 1_555
La1 P4 3.135625 1_555
La1 P7 3.136158 1_555
La1 P9 3.136158 1_555
La1 P12 3.136158 1_555
La1 P10 3.136158 1_555
La1 P0 3.164234 1_555
La1 P0 3.164234 1_554
La1 Rh4 3.177215 1_554
La1 Rh4 3.177215 1_555
La1 Rh2 3.328989 1_555
La1 Rh3 3.328989 1_555
La1 Rh0 3.328989 1_555
La1 Rh1 3.328989 1_555
La1 Rh7 3.341532 1_555
La1 Rh9 3.354647 1_555
La1 Rh10 3.354647 1_555
La2 P14 2.888882 1_555
La2 P10 3.067360 1_556
La2 P12 3.067360 1_555
La2 Rh10 3.130055 1_555
La2 Rh10 3.130055 1_556
La2 P6 3.148981 1_545
La2 P8 3.148981 1_545
La2 P4 3.149921 1_556
La2 P4 3.149921 1_555
La2 P0 3.177011 1_555
La2 Rh15 3.200483 1_555
La2 Rh14 3.200483 1_556
La2 Rh8 3.212094 1_545
La2 Rh4 3.257274 1_555
La2 Rh3 3.345339 1_555
La2 Rh2 3.345339 1_556
La3 P15 2.888882 1_555
La3 P11 3.067360 1_554
La3 P13 3.067360 1_555
La3 Rh11 3.130055 1_555
La3 Rh11 3.130055 1_554
La3 P9 3.148981 1_455
La3 P7 3.148981 1_455
La3 P5 3.149921 1_554
La3 P5 3.149921 1_555
La3 P1 3.177011 1_555
La3 Rh15 3.200483 1_555
La3 Rh14 3.200483 1_555
La3 Rh9 3.212094 1_455
La3 Rh5 3.257274 1_555
La3 Rh3 3.345339 1_555
La3 Rh2 3.345339 1_555
La4 P16 2.888882 1_555
La4 P8 3.067360 1_555
La4 P6 3.067360 1_554
La4 Rh8 3.130055 1_554
La4 Rh8 3.130055 1_555
La4 P10 3.148981 1_565
La4 P12 3.148981 1_565
La4 P2 3.149921 1_555
La4 P2 3.149921 1_554
La4 P1 3.177011 1_555
La4 Rh13 3.200483 1_555
La4 Rh12 3.200483 1_555
La4 Rh10 3.212094 1_565
La4 Rh5 3.257274 1_555
La4 Rh0 3.345339 1_555
La4 Rh1 3.345339 1_555
La5 P17 2.888882 1_555
La5 P7 3.067360 1_556
La5 P9 3.067360 1_555
La5 Rh9 3.130055 1_555
La5 Rh9 3.130055 1_556
La5 P11 3.148981 1_655
La5 P13 3.148981 1_655
La5 P3 3.149921 1_556
La5 P3 3.149921 1_555
La5 P0 3.177011 1_555
La5 Rh13 3.200483 1_555
La5 Rh12 3.200483 1_556
La5 Rh11 3.212094 1_655
La5 Rh4 3.257274 1_555
La5 Rh1 3.345339 1_555
La5 Rh0 3.345339 1_556
La6 Rh7 3.208323 1_555
La6 Rh7 3.208323 1_556
La6 P15 3.208513 1_656
La6 P15 3.208513 1_655
La6 P16 3.208513 1_546
La6 P16 3.208513 1_545
La6 P7 3.283527 1_556
La6 P9 3.283527 1_555
La6 P12 3.283527 1_555
La6 P10 3.283527 1_556
La6 Rh4 3.415474 1_555
La6 Rh13 3.486497 1_545
La6 Rh12 3.486497 1_546
La6 Rh14 3.486497 1_656
La6 Rh15 3.486497 1_655
La6 P17 3.491194 1_545
La6 P14 3.491194 1_655
La6 Rh11 3.724246 1_655
La6 Rh8 3.724246 1_545
La6 P5 3.765961 1_655
La6 P2 3.765961 1_545
La7 Rh6 3.208323 1_554
La7 Rh6 3.208323 1_555
La7 P14 3.208513 1_565
La7 P14 3.208513 1_564
La7 P17 3.208513 1_455
La7 P17 3.208513 1_454
La7 P11 3.283527 1_554
La7 P8 3.283527 1_555
La7 P13 3.283527 1_555
La7 P6 3.283527 1_554
La7 Rh5 3.415474 1_555
La7 Rh13 3.486497 1_455
La7 Rh12 3.486497 1_455
La7 Rh14 3.486497 1_565
La7 Rh15 3.486497 1_565
La7 P16 3.491194 1_455
La7 P15 3.491194 1_565
La7 Rh10 3.724246 1_565
La7 Rh9 3.724246 1_455
La7 P4 3.765961 1_565
La7 P3 3.765961 1_455
P0 Rh1 2.433821 1_555
P0 Rh2 2.433821 1_556
P0 Rh3 2.433821 1_555
P0 Rh0 2.433821 1_556
P0 Rh4 2.580615 1_555
P1 Rh0 2.433821 1_555
P1 Rh1 2.433821 1_555
P1 Rh2 2.433821 1_555
P1 Rh3 2.433821 1_555
P1 Rh5 2.580615 1_555
P2 Rh13 2.379451 1_555
P2 Rh12 2.379451 1_556
P2 Rh8 2.421413 1_555
P2 Rh1 2.459242 1_555
P2 Rh0 2.459242 1_556
P3 Rh13 2.379451 1_555
P3 Rh12 2.379451 1_555
P3 Rh9 2.421413 1_555
P3 Rh0 2.459242 1_555
P3 Rh1 2.459242 1_555
P4 Rh15 2.379451 1_555
P4 Rh14 2.379451 1_555
P4 Rh10 2.421413 1_555
P4 Rh2 2.459242 1_555
P4 Rh3 2.459242 1_555
P5 Rh14 2.379451 1_556
P5 Rh15 2.379451 1_555
P5 Rh11 2.421413 1_555
P5 Rh2 2.459242 1_556
P5 Rh3 2.459242 1_555
P6 Rh5 2.383080 1_556
P6 Rh10 2.413465 1_566
P6 Rh6 2.418805 1_555
P6 Rh8 2.427415 1_555
P7 Rh4 2.383080 1_554
P7 Rh11 2.413465 1_654
P7 Rh7 2.418805 1_555
P7 Rh9 2.427415 1_555
P8 Rh5 2.383080 1_555
P8 Rh10 2.413465 1_565
P8 Rh6 2.418805 1_555
P8 Rh8 2.427415 1_555
P9 Rh4 2.383080 1_555
P9 Rh11 2.413465 1_655
P9 Rh7 2.418805 1_555
P9 Rh9 2.427415 1_555
P10 Rh4 2.383080 1_554
P10 Rh8 2.413465 1_544
P10 Rh7 2.418805 1_555
P10 Rh10 2.427415 1_555
P11 Rh5 2.383080 1_556
P11 Rh9 2.413465 1_456
P11 Rh6 2.418805 1_555
P11 Rh11 2.427415 1_555
P12 Rh4 2.383080 1_555
P12 Rh8 2.413465 1_545
P12 Rh7 2.418805 1_555
P12 Rh10 2.427415 1_555
P13 Rh5 2.383080 1_555
P13 Rh9 2.413465 1_455
P13 Rh6 2.418805 1_555
P13 Rh11 2.427415 1_555
P14 P17 2.076257 1_445
P14 Rh14 2.303281 1_556
P14 Rh15 2.303281 1_555
P14 Rh6 2.514682 1_545
P15 P16 2.076257 1_445
P15 Rh15 2.303281 1_555
P15 Rh14 2.303281 1_555
P15 Rh7 2.514682 1_455
P16 Rh13 2.303281 1_555
P16 Rh12 2.303281 1_555
P16 Rh7 2.514682 1_565
P17 Rh12 2.303281 1_556
P17 Rh13 2.303281 1_555
P17 Rh6 2.514682 1_655
