# generated using pymatgen
data_ZnCoF5
_symmetry_space_group_name_H-M   'P 1'
_cell_length_a   5.38570330
_cell_length_b   5.22384580
_cell_length_c   7.31423910
_cell_angle_alpha   96.21310467
_cell_angle_beta   109.53417905
_cell_angle_gamma   108.05597353
_symmetry_Int_Tables_number   1
_chemical_formula_structural   ZnCoF5
_chemical_formula_sum   'Zn2 Co2 F10'
_cell_volume   179.15639891
_cell_formula_units_Z   2
loop_
 _symmetry_equiv_pos_site_id
 _symmetry_equiv_pos_as_xyz
  1  'x, y, z'
loop_
 _atom_site_type_symbol
 _atom_site_label
 _atom_site_symmetry_multiplicity
 _atom_site_fract_x
 _atom_site_fract_y
 _atom_site_fract_z
 _atom_site_occupancy
  Zn  Zn0  1  0.25932400  0.53411600  0.73416000  1
  Zn  Zn1  1  0.73804600  0.46783300  0.26886100  1
  Co  Co0  1  0.99868600  0.00097400  0.00151000  1
  Co  Co1  1  0.49868700  0.00097600  0.50151000  1
  F  F0  1  0.36994000  0.11739900  0.24345400  1
  F  F1  1  0.62743400  0.88455300  0.75956600  1
  F  F2  1  0.59024900  0.73298800  0.38114600  1
  F  F3  1  0.86269100  0.19028500  0.14612600  1
  F  F4  1  0.78545300  0.66324600  0.05741100  1
  F  F5  1  0.14780100  0.71186300  0.46986300  1
  F  F6  1  0.21192100  0.33870000  0.94560900  1
  F  F7  1  0.84957300  0.29009100  0.53315600  1
  F  F8  1  0.13468200  0.81166300  0.85689600  1
  F  F9  1  0.40712800  0.26896800  0.62187400  1
loop_
_geom_bond_atom_site_label_1
_geom_bond_atom_site_label_2
_geom_bond_distance
_geom_bond_site_symmetry_2
Co0 F8 1.836828 1_644
Co0 F3 1.836834 1_555
Co0 F6 1.952627 1_654
Co0 F4 1.952630 1_545
Co0 F1 2.036259 1_544
Co0 F0 2.036263 1_655
Co1 F2 1.851895 1_545
Co1 F9 1.851900 1_555
Co1 F5 1.941220 1_545
Co1 F7 1.941227 1_555
Co1 F1 2.011946 1_545
Co1 F0 2.011946 1_555
F0 Zn1 2.178600 1_555
F1 Zn0 2.178624 1_555
F2 Zn1 2.025114 1_555
F3 Zn1 2.020710 1_555
F4 Zn1 1.985808 1_555
F5 Zn1 2.082622 1_455
F5 Zn0 2.217583 1_555
F6 Zn0 1.985805 1_555
F7 Zn0 2.082607 1_655
F7 Zn1 2.217558 1_555
F8 Zn0 2.020698 1_555
F9 Zn0 2.025117 1_555
