# generated using pymatgen
data_NaSr2Ta3O9
_symmetry_space_group_name_H-M   'P 1'
_cell_length_a   5.71354738
_cell_length_b   5.71354738
_cell_length_c   6.99427400
_cell_angle_alpha   90.00000000
_cell_angle_beta   90.00000000
_cell_angle_gamma   119.99999284
_symmetry_Int_Tables_number   1
_chemical_formula_structural   NaSr2Ta3O9
_chemical_formula_sum   'Na1 Sr2 Ta3 O9'
_cell_volume   197.73564795
_cell_formula_units_Z   1
loop_
 _symmetry_equiv_pos_site_id
 _symmetry_equiv_pos_as_xyz
  1  'x, y, z'
loop_
 _atom_site_type_symbol
 _atom_site_label
 _atom_site_symmetry_multiplicity
 _atom_site_fract_x
 _atom_site_fract_y
 _atom_site_fract_z
 _atom_site_occupancy
  Na  Na0  1  0.00000000  0.00000000  0.00000000  1
  Sr  Sr0  1  0.66666700  0.33333300  0.32946400  1
  Sr  Sr1  1  0.33333300  0.66666700  0.67053600  1
  Ta  Ta0  1  0.00000000  0.00000000  0.50000000  1
  Ta  Ta1  1  0.66666700  0.33333300  0.83616800  1
  Ta  Ta2  1  0.33333300  0.66666700  0.16383200  1
  O  O0  1  0.83158800  0.16841200  0.66341500  1
  O  O1  1  0.50000000  0.50000000  0.00000000  1
  O  O2  1  0.16841200  0.83158800  0.33658500  1
  O  O3  1  0.66317600  0.83158800  0.33658500  1
  O  O4  1  0.33682400  0.16841200  0.66341500  1
  O  O5  1  0.00000000  0.50000000  0.00000000  1
  O  O6  1  0.83158800  0.66317600  0.66341500  1
  O  O7  1  0.50000000  0.00000000  0.00000000  1
  O  O8  1  0.16841200  0.33682400  0.33658500  1
loop_
_geom_bond_atom_site_label_1
_geom_bond_atom_site_label_2
_geom_bond_distance
_geom_bond_site_symmetry_2
Na0 O5 2.856774 1_545
Na0 O7 2.856774 1_555
Na0 O5 2.856774 1_555
Na0 O7 2.856774 1_455
Na0 O1 2.856774 1_445
Na0 O1 2.856774 1_555
Na0 O2 2.884400 1_545
Na0 O0 2.884400 1_454
Na0 O4 2.884400 1_554
Na0 O3 2.884400 1_445
Na0 O6 2.884400 1_444
Na0 O8 2.884400 1_555
O0 Ta0 2.020900 1_655
O0 Ta1 2.030675 1_555
O0 Sr0 2.849456 1_555
O0 Sr1 2.857260 1_545
O0 Sr1 2.857260 1_655
O1 Ta2 2.008345 1_555
O1 Ta1 2.008345 1_554
O1 Sr1 2.833810 1_554
O1 Sr0 2.833810 1_555
O2 Ta0 2.020900 1_565
O2 Ta2 2.030675 1_555
O2 Sr1 2.849456 1_555
O2 Sr0 2.857260 1_565
O2 Sr0 2.857260 1_455
O3 Ta0 2.020900 1_665
O3 Ta2 2.030679 1_555
O3 Sr1 2.849459 1_555
O3 Sr0 2.857257 1_565
O3 Sr0 2.857263 1_555
O4 Ta0 2.020900 1_555
O4 Ta1 2.030679 1_555
O4 Sr0 2.849459 1_555
O4 Sr1 2.857257 1_545
O4 Sr1 2.857263 1_555
O5 Ta2 2.008341 1_555
O5 Ta1 2.008341 1_454
O5 Sr1 2.833807 1_554
O5 Sr0 2.833807 1_455
O6 Ta0 2.020900 1_665
O6 Ta1 2.030679 1_555
O6 Sr0 2.849459 1_555
O6 Sr1 2.857257 1_655
O6 Sr1 2.857263 1_555
O7 Ta1 2.008341 1_554
O7 Ta2 2.008341 1_545
O7 Sr1 2.833807 1_544
O7 Sr0 2.833807 1_555
O8 Ta0 2.020900 1_555
O8 Ta2 2.030679 1_555
O8 Sr1 2.849459 1_555
O8 Sr0 2.857257 1_455
O8 Sr0 2.857263 1_555
