# generated using pymatgen
data_CrIr3
_symmetry_space_group_name_H-M   'P 1'
_cell_length_a   5.42535599
_cell_length_b   5.42535599
_cell_length_c   4.31903022
_cell_angle_alpha   90.00000000
_cell_angle_beta   90.00000000
_cell_angle_gamma   119.99999847
_symmetry_Int_Tables_number   1
_chemical_formula_structural   CrIr3
_chemical_formula_sum   'Cr2 Ir6'
_cell_volume   110.09646180
_cell_formula_units_Z   2
loop_
 _symmetry_equiv_pos_site_id
 _symmetry_equiv_pos_as_xyz
  1  'x, y, z'
loop_
 _atom_site_type_symbol
 _atom_site_label
 _atom_site_symmetry_multiplicity
 _atom_site_fract_x
 _atom_site_fract_y
 _atom_site_fract_z
 _atom_site_occupancy
  Cr  Cr0  1  0.33333300  0.66666700  0.75000000  1
  Cr  Cr1  1  0.66666700  0.33333300  0.25000000  1
  Ir  Ir0  1  0.16784111  0.33568122  0.25000000  1
  Ir  Ir1  1  0.66431878  0.83215889  0.25000000  1
  Ir  Ir2  1  0.16784111  0.83215889  0.25000000  1
  Ir  Ir3  1  0.83215889  0.66431878  0.75000000  1
  Ir  Ir4  1  0.33568122  0.16784111  0.75000000  1
  Ir  Ir5  1  0.83215889  0.16784111  0.75000000  1
loop_
_geom_bond_atom_site_label_1
_geom_bond_atom_site_label_2
_geom_bond_distance
_geom_bond_site_symmetry_2
Cr0 Ir2 2.661188 1_556
Cr0 Ir2 2.661188 1_555
Cr0 Ir1 2.661194 1_555
Cr0 Ir0 2.661194 1_556
Cr0 Ir1 2.661194 1_556
Cr0 Ir0 2.661194 1_555
Cr0 Ir3 2.712700 1_555
Cr0 Ir4 2.712700 1_555
Cr0 Ir4 2.712700 1_565
Cr0 Ir3 2.712700 1_455
Cr0 Ir5 2.712700 1_565
Cr0 Ir5 2.712700 1_455
Cr1 Ir5 2.661188 1_554
Cr1 Ir5 2.661188 1_555
Cr1 Ir4 2.661194 1_555
Cr1 Ir4 2.661194 1_554
Cr1 Ir3 2.661194 1_555
Cr1 Ir3 2.661194 1_554
Cr1 Ir0 2.712700 1_555
Cr1 Ir1 2.712700 1_555
Cr1 Ir0 2.712700 1_655
Cr1 Ir1 2.712700 1_545
Cr1 Ir2 2.712700 1_655
Cr1 Ir2 2.712700 1_545
Ir0 Ir4 2.674143 1_555
Ir0 Ir4 2.674143 1_554
Ir0 Ir5 2.674149 1_455
Ir0 Ir5 2.674149 1_454
Ir0 Ir2 2.693568 1_555
Ir0 Ir1 2.693568 1_555
Ir0 Ir2 2.731788 1_545
Ir0 Ir1 2.731788 1_445
Ir1 Ir3 2.674143 1_555
Ir1 Ir3 2.674143 1_554
Ir1 Ir5 2.674149 1_564
Ir1 Ir5 2.674149 1_565
Ir1 Ir2 2.693568 1_555
Ir1 Ir2 2.731788 1_655
Ir2 Ir4 2.674149 1_565
Ir2 Ir4 2.674149 1_564
Ir2 Ir3 2.674149 1_455
Ir2 Ir3 2.674149 1_454
Ir3 Ir5 2.693568 1_555
Ir3 Ir4 2.693568 1_555
Ir3 Ir5 2.731788 1_565
Ir3 Ir4 2.731788 1_665
Ir4 Ir5 2.693568 1_555
Ir4 Ir5 2.731788 1_455
