# generated using pymatgen
data_SiC2
_symmetry_space_group_name_H-M   'P 1'
_cell_length_a   4.78620300
_cell_length_b   4.78620300
_cell_length_c   4.78620300
_cell_angle_alpha   90.00000000
_cell_angle_beta   90.00000000
_cell_angle_gamma   90.00000000
_symmetry_Int_Tables_number   1
_chemical_formula_structural   SiC2
_chemical_formula_sum   'Si4 C8'
_cell_volume   109.64108988
_cell_formula_units_Z   4
loop_
 _symmetry_equiv_pos_site_id
 _symmetry_equiv_pos_as_xyz
  1  'x, y, z'
loop_
 _atom_site_type_symbol
 _atom_site_label
 _atom_site_symmetry_multiplicity
 _atom_site_fract_x
 _atom_site_fract_y
 _atom_site_fract_z
 _atom_site_occupancy
  Si  Si0  1  0.50000000  0.50000000  0.00000000  1
  Si  Si1  1  0.50000000  0.00000000  0.50000000  1
  Si  Si2  1  0.00000000  0.50000000  0.50000000  1
  Si  Si3  1  0.00000000  0.00000000  0.00000000  1
  C  C0  1  0.08221000  0.91779000  0.41779000  1
  C  C1  1  0.91779000  0.41779000  0.08221000  1
  C  C2  1  0.41779000  0.08221000  0.91779000  1
  C  C3  1  0.58221000  0.58221000  0.58221000  1
  C  C4  1  0.91779000  0.08221000  0.58221000  1
  C  C5  1  0.08221000  0.58221000  0.91779000  1
  C  C6  1  0.58221000  0.91779000  0.08221000  1
  C  C7  1  0.41779000  0.41779000  0.41779000  1
loop_
_geom_bond_atom_site_label_1
_geom_bond_atom_site_label_2
_geom_bond_distance
_geom_bond_site_symmetry_2
C0 C4 1.363033 1_465
C0 Si1 2.075609 1_565
C0 Si3 2.075609 1_565
C0 Si2 2.075609 1_555
C1 C5 1.363033 1_654
C1 Si3 2.075609 1_655
C1 Si2 2.075609 1_655
C1 Si0 2.075609 1_555
C2 C6 1.363033 1_546
C2 Si0 2.075609 1_556
C2 Si3 2.075609 1_556
C2 Si1 2.075609 1_555
C3 C7 1.363033 1_555
C3 Si1 2.075609 1_565
C3 Si2 2.075609 1_655
C3 Si0 2.075609 1_556
C4 Si3 2.075609 1_656
C4 Si2 2.075609 1_655
C4 Si1 2.075609 1_555
C5 Si3 2.075609 1_566
C5 Si0 2.075609 1_556
C5 Si2 2.075609 1_555
C6 Si1 2.075609 1_565
C6 Si3 2.075609 1_665
C6 Si0 2.075609 1_555
C7 Si2 2.075609 1_555
C7 Si0 2.075609 1_555
C7 Si1 2.075609 1_555
