# generated using pymatgen
data_Li5Mn3O8
_symmetry_space_group_name_H-M   'P 1'
_cell_length_a   2.88070500
_cell_length_b   5.09258538
_cell_length_c   10.37875498
_cell_angle_alpha   98.24672498
_cell_angle_beta   90.00104232
_cell_angle_gamma   73.56801948
_symmetry_Int_Tables_number   1
_chemical_formula_structural   Li5Mn3O8
_chemical_formula_sum   'Li5 Mn3 O8'
_cell_volume   144.39787385
_cell_formula_units_Z   1
loop_
 _symmetry_equiv_pos_site_id
 _symmetry_equiv_pos_as_xyz
  1  'x, y, z'
loop_
 _atom_site_type_symbol
 _atom_site_label
 _atom_site_symmetry_multiplicity
 _atom_site_fract_x
 _atom_site_fract_y
 _atom_site_fract_z
 _atom_site_occupancy
  Li  Li0  1  0.24219100  0.51581700  0.14200000  1
  Li  Li1  1  0.75775600  0.48436600  0.35798900  1
  Li  Li2  1  0.26436300  0.47109900  0.60587100  1
  Li  Li3  1  0.73572000  0.52880100  0.89421900  1
  Li  Li4  1  0.49989900  0.00021200  0.24994400  1
  Mn  Mn0  1  0.98220400  0.03539100  0.01622900  1
  Mn  Mn1  1  0.01753900  0.96461300  0.48375200  1
  Mn  Mn2  1  0.50023400  0.99985700  0.75006700  1
  O  O0  1  0.37475800  0.25044900  0.94738600  1
  O  O1  1  0.87593000  0.24821700  0.17443500  1
  O  O2  1  0.40080700  0.19810700  0.44167800  1
  O  O3  1  0.89802200  0.20418000  0.67654500  1
  O  O4  1  0.12397100  0.75191600  0.32546400  1
  O  O5  1  0.62516800  0.74954200  0.55252100  1
  O  O6  1  0.10245000  0.79544200  0.82357600  1
  O  O7  1  0.59898900  0.80199000  0.05832500  1
loop_
_geom_bond_atom_site_label_1
_geom_bond_atom_site_label_2
_geom_bond_distance
_geom_bond_site_symmetry_2
Li0 O1 2.006837 1_555
Li0 O1 2.007183 1_455
Li0 O4 2.073385 1_555
Li0 O0 2.230904 1_554
Li0 O7 2.268278 1_555
Li0 O7 2.268600 1_455
Li1 O4 2.007066 1_555
Li1 O4 2.007119 1_655
Li1 O1 2.074268 1_555
Li1 O5 2.229790 1_555
Li1 O2 2.268597 1_655
Li1 O2 2.268985 1_555
Li2 O2 2.000626 1_555
Li2 O5 2.110882 1_455
Li2 O5 2.111084 1_555
Li2 O3 2.144082 1_455
Li2 O3 2.144756 1_555
Li2 O6 2.558264 1_555
Li3 O7 2.000466 1_556
Li3 O0 2.109679 1_655
Li3 O0 2.110319 1_555
Li3 O6 2.143239 1_555
Li3 O6 2.143532 1_655
Li3 O3 2.558671 1_555
Li4 O7 2.077683 1_545
Li4 O2 2.078228 1_555
Li4 O1 2.107067 1_455
Li4 O1 2.107294 1_555
Li4 O4 2.107933 1_645
Li4 O4 2.108327 1_545
Mn0 O1 1.807289 1_555
Mn0 O7 1.927095 1_545
Mn0 O7 1.927369 1_645
Mn0 O0 1.977936 1_554
Mn0 O0 1.978373 1_654
Mn0 O6 2.161205 1_644
Mn1 O4 1.807712 1_555
Mn1 O2 1.927367 1_465
Mn1 O2 1.927521 1_565
Mn1 O5 1.977701 1_455
Mn1 O5 1.978005 1_555
Mn1 O3 2.161679 1_465
Mn2 O3 1.969892 1_565
Mn2 O3 1.970018 1_465
Mn2 O6 1.970121 1_655
Mn2 O6 1.970172 1_555
Mn2 O0 2.223187 1_565
Mn2 O5 2.224606 1_555
