# generated using pymatgen
data_Mg3Ti2(GeO4)3
_symmetry_space_group_name_H-M   'P 1'
_cell_length_a   10.56342973
_cell_length_b   10.56342973
_cell_length_c   10.56342973
_cell_angle_alpha   109.47122063
_cell_angle_beta   109.47122063
_cell_angle_gamma   109.47122063
_symmetry_Int_Tables_number   1
_chemical_formula_structural   Mg3Ti2(GeO4)3
_chemical_formula_sum   'Mg12 Ti8 Ge12 O48'
_cell_volume   907.38783506
_cell_formula_units_Z   4
loop_
 _symmetry_equiv_pos_site_id
 _symmetry_equiv_pos_as_xyz
  1  'x, y, z'
loop_
 _atom_site_type_symbol
 _atom_site_label
 _atom_site_symmetry_multiplicity
 _atom_site_fract_x
 _atom_site_fract_y
 _atom_site_fract_z
 _atom_site_occupancy
  Mg  Mg0  1  0.25000000  0.87500000  0.62500000  1
  Mg  Mg1  1  0.75000000  0.62500000  0.87500000  1
  Mg  Mg2  1  0.62500000  0.87500000  0.75000000  1
  Mg  Mg3  1  0.87500000  0.62500000  0.25000000  1
  Mg  Mg4  1  0.62500000  0.25000000  0.87500000  1
  Mg  Mg5  1  0.87500000  0.75000000  0.62500000  1
  Mg  Mg6  1  0.75000000  0.12500000  0.37500000  1
  Mg  Mg7  1  0.25000000  0.37500000  0.12500000  1
  Mg  Mg8  1  0.37500000  0.12500000  0.25000000  1
  Mg  Mg9  1  0.12500000  0.37500000  0.75000000  1
  Mg  Mg10  1  0.37500000  0.75000000  0.12500000  1
  Mg  Mg11  1  0.12500000  0.25000000  0.37500000  1
  Ti  Ti0  1  0.50000000  0.50000000  0.50000000  1
  Ti  Ti1  1  0.50000000  0.00000000  0.50000000  1
  Ti  Ti2  1  0.00000000  0.50000000  0.50000000  1
  Ti  Ti3  1  0.50000000  0.50000000  0.00000000  1
  Ti  Ti4  1  0.00000000  0.00000000  0.50000000  1
  Ti  Ti5  1  0.00000000  0.50000000  0.00000000  1
  Ti  Ti6  1  0.50000000  0.00000000  0.00000000  1
  Ti  Ti7  1  0.00000000  0.00000000  0.00000000  1
  Ge  Ge0  1  0.12500000  0.75000000  0.87500000  1
  Ge  Ge1  1  0.87500000  0.25000000  0.12500000  1
  Ge  Ge2  1  0.62500000  0.37500000  0.25000000  1
  Ge  Ge3  1  0.75000000  0.87500000  0.12500000  1
  Ge  Ge4  1  0.87500000  0.12500000  0.75000000  1
  Ge  Ge5  1  0.25000000  0.62500000  0.37500000  1
  Ge  Ge6  1  0.75000000  0.37500000  0.62500000  1
  Ge  Ge7  1  0.25000000  0.12500000  0.87500000  1
  Ge  Ge8  1  0.12500000  0.87500000  0.25000000  1
  Ge  Ge9  1  0.37500000  0.62500000  0.75000000  1
  Ge  Ge10  1  0.62500000  0.75000000  0.37500000  1
  Ge  Ge11  1  0.37500000  0.25000000  0.62500000  1
  O  O0  1  0.41778200  0.81748200  0.79042600  1
  O  O1  1  0.87264400  0.39970000  0.08221800  1
  O  O2  1  0.10030000  0.97294400  0.68251800  1
  O  O3  1  0.52705600  0.62735600  0.70957400  1
  O  O4  1  0.68251800  0.08221800  0.70957400  1
  O  O5  1  0.62735600  0.70957400  0.52705600  1
  O  O6  1  0.62735600  0.41778200  0.10030000  1
  O  O7  1  0.70957400  0.52705600  0.62735600  1
  O  O8  1  0.81748200  0.52705600  0.39970000  1
  O  O9  1  0.97294400  0.79042600  0.87264400  1
  O  O10  1  0.79042600  0.87264400  0.97294400  1
  O  O11  1  0.70957400  0.68251800  0.08221800  1
  O  O12  1  0.41778200  0.10030000  0.62735600  1
  O  O13  1  0.39970000  0.81748200  0.52705600  1
  O  O14  1  0.08221800  0.70957400  0.68251800  1
  O  O15  1  0.10030000  0.62735600  0.41778200  1
  O  O16  1  0.52705600  0.39970000  0.81748200  1
  O  O17  1  0.08221800  0.87264400  0.39970000  1
  O  O18  1  0.97294400  0.68251800  0.10030000  1
  O  O19  1  0.18251800  0.47294400  0.60030000  1
  O  O20  1  0.68251800  0.10030000  0.97294400  1
  O  O21  1  0.79042600  0.41778200  0.81748200  1
  O  O22  1  0.39970000  0.08221800  0.87264400  1
  O  O23  1  0.87264400  0.97294400  0.79042600  1
  O  O24  1  0.58221800  0.18251800  0.20957400  1
  O  O25  1  0.12735600  0.60030000  0.91778200  1
  O  O26  1  0.89970000  0.02705600  0.31748200  1
  O  O27  1  0.47294400  0.37264400  0.29042600  1
  O  O28  1  0.31748200  0.91778200  0.29042600  1
  O  O29  1  0.37264400  0.29042600  0.47294400  1
  O  O30  1  0.37264400  0.58221800  0.89970000  1
  O  O31  1  0.29042600  0.47294400  0.37264400  1
  O  O32  1  0.12735600  0.02705600  0.20957400  1
  O  O33  1  0.60030000  0.91778200  0.12735600  1
  O  O34  1  0.20957400  0.58221800  0.18251800  1
  O  O35  1  0.18251800  0.20957400  0.58221800  1
  O  O36  1  0.31748200  0.89970000  0.02705600  1
  O  O37  1  0.02705600  0.31748200  0.89970000  1
  O  O38  1  0.91778200  0.12735600  0.60030000  1
  O  O39  1  0.47294400  0.60030000  0.18251800  1
  O  O40  1  0.89970000  0.37264400  0.58221800  1
  O  O41  1  0.91778200  0.29042600  0.31748200  1
  O  O42  1  0.60030000  0.18251800  0.47294400  1
  O  O43  1  0.58221800  0.89970000  0.37264400  1
  O  O44  1  0.29042600  0.31748200  0.91778200  1
  O  O45  1  0.20957400  0.12735600  0.02705600  1
  O  O46  1  0.02705600  0.20957400  0.12735600  1
  O  O47  1  0.81748200  0.79042600  0.41778200  1
loop_
_geom_bond_atom_site_label_1
_geom_bond_atom_site_label_2
_geom_bond_distance
_geom_bond_site_symmetry_2
Mg0 O22 2.291822 1_565
Mg0 O2 2.291822 1_555
Mg0 O15 2.291822 1_555
Mg0 O13 2.291822 1_555
Mg0 O14 2.434136 1_555
Mg0 O17 2.434136 1_555
Mg0 O0 2.434136 1_555
Mg0 O12 2.434136 1_565
Mg1 O11 2.291822 1_556
Mg1 O7 2.291822 1_555
Mg1 O10 2.291822 1_555
Mg1 O21 2.291822 1_555
Mg1 O16 2.434136 1_555
Mg1 O18 2.434136 1_556
Mg1 O3 2.434136 1_555
Mg1 O9 2.434136 1_555
Mg2 O4 2.291822 1_565
Mg2 O3 2.291822 1_555
Mg2 O23 2.291822 1_555
Mg2 O0 2.291822 1_555
Mg2 O13 2.434136 1_555
Mg2 O10 2.434136 1_555
Mg2 O5 2.434136 1_555
Mg2 O20 2.434136 1_565
Mg3 O17 2.291822 1_655
Mg3 O18 2.291822 1_555
Mg3 O6 2.291822 1_555
Mg3 O8 2.291822 1_555
Mg3 O11 2.434136 1_555
Mg3 O47 2.434136 1_555
Mg3 O1 2.434136 1_555
Mg3 O15 2.434136 1_655
Mg4 O1 2.291822 1_556
Mg4 O16 2.291822 1_555
Mg4 O12 2.291822 1_555
Mg4 O20 2.291822 1_555
Mg4 O21 2.434136 1_555
Mg4 O22 2.434136 1_555
Mg4 O4 2.434136 1_555
Mg4 O6 2.434136 1_556
Mg5 O14 2.291822 1_655
Mg5 O9 2.291822 1_555
Mg5 O5 2.291822 1_555
Mg5 O47 2.291822 1_555
Mg5 O2 2.434136 1_655
Mg5 O23 2.434136 1_555
Mg5 O7 2.434136 1_555
Mg5 O8 2.434136 1_555
Mg6 O40 2.291822 1_555
Mg6 O33 2.291822 1_545
Mg6 O42 2.291822 1_555
Mg6 O26 2.291822 1_555
Mg6 O38 2.434136 1_555
Mg6 O43 2.434136 1_545
Mg6 O24 2.434136 1_555
Mg6 O41 2.434136 1_555
Mg7 O31 2.291822 1_555
Mg7 O45 2.291822 1_555
Mg7 O34 2.291822 1_555
Mg7 O44 2.291822 1_554
Mg7 O39 2.434136 1_555
Mg7 O37 2.434136 1_554
Mg7 O46 2.434136 1_555
Mg7 O27 2.434136 1_555
Mg8 O27 2.291822 1_555
Mg8 O32 2.291822 1_555
Mg8 O24 2.291822 1_555
Mg8 O28 2.291822 1_545
Mg8 O42 2.434136 1_555
Mg8 O36 2.434136 1_545
Mg8 O45 2.434136 1_555
Mg8 O29 2.434136 1_555
Mg9 O30 2.291822 1_555
Mg9 O38 2.291822 1_455
Mg9 O37 2.291822 1_555
Mg9 O19 2.291822 1_555
Mg9 O40 2.434136 1_455
Mg9 O25 2.434136 1_555
Mg9 O35 2.434136 1_555
Mg9 O44 2.434136 1_555
Mg10 O43 2.291822 1_555
Mg10 O25 2.291822 1_554
Mg10 O39 2.291822 1_555
Mg10 O36 2.291822 1_555
Mg10 O30 2.434136 1_554
Mg10 O33 2.434136 1_555
Mg10 O34 2.434136 1_555
Mg10 O28 2.434136 1_555
Mg11 O29 2.291822 1_555
Mg11 O46 2.291822 1_555
Mg11 O35 2.291822 1_555
Mg11 O41 2.291822 1_455
Mg11 O26 2.434136 1_455
Mg11 O19 2.434136 1_555
Mg11 O32 2.434136 1_555
Mg11 O31 2.434136 1_555
Ge0 O9 1.789045 1_455
Ge0 O36 1.789045 1_556
Ge0 O25 1.789045 1_555
Ge0 O14 1.789045 1_555
Ge1 O46 1.789045 1_655
Ge1 O41 1.789045 1_555
Ge1 O1 1.789045 1_555
Ge1 O20 1.789045 1_554
Ge2 O24 1.789045 1_555
Ge2 O8 1.789045 1_555
Ge2 O6 1.789045 1_555
Ge2 O27 1.789045 1_555
Ge3 O10 1.789045 1_554
Ge3 O26 1.789045 1_565
Ge3 O11 1.789045 1_555
Ge3 O33 1.789045 1_555
Ge4 O23 1.789045 1_545
Ge4 O37 1.789045 1_655
Ge4 O4 1.789045 1_555
Ge4 O38 1.789045 1_555
Ge5 O15 1.789045 1_555
Ge5 O34 1.789045 1_555
Ge5 O31 1.789045 1_555
Ge5 O13 1.789045 1_555
Ge6 O7 1.789045 1_555
Ge6 O42 1.789045 1_555
Ge6 O40 1.789045 1_555
Ge6 O21 1.789045 1_555
Ge7 O45 1.789045 1_556
Ge7 O44 1.789045 1_555
Ge7 O22 1.789045 1_555
Ge7 O2 1.789045 1_545
Ge8 O28 1.789045 1_555
Ge8 O32 1.789045 1_565
Ge8 O18 1.789045 1_455
Ge8 O17 1.789045 1_555
Ge9 O3 1.789045 1_555
Ge9 O19 1.789045 1_555
Ge9 O30 1.789045 1_555
Ge9 O0 1.789045 1_555
Ge10 O5 1.789045 1_555
Ge10 O39 1.789045 1_555
Ge10 O43 1.789045 1_555
Ge10 O47 1.789045 1_555
Ge11 O35 1.789045 1_555
Ge11 O16 1.789045 1_555
Ge11 O12 1.789045 1_555
Ge11 O29 1.789045 1_555
O0 Ti6 2.031967 1_566
O1 Ti5 2.031967 1_655
O2 Ti4 2.031967 1_565
O3 Ti0 2.031967 1_555
O4 Ti1 2.031967 1_555
O5 Ti0 2.031967 1_555
O6 Ti3 2.031967 1_555
O7 Ti0 2.031967 1_555
O8 Ti2 2.031967 1_655
O9 Ti7 2.031967 1_666
O10 Ti7 2.031967 1_666
O11 Ti3 2.031967 1_555
O12 Ti1 2.031967 1_555
O13 Ti1 2.031967 1_565
O14 Ti2 2.031967 1_555
O15 Ti2 2.031967 1_555
O16 Ti3 2.031967 1_556
O17 Ti4 2.031967 1_565
O18 Ti5 2.031967 1_655
O19 Ti2 2.031967 1_555
O20 Ti6 2.031967 1_556
O21 Ti5 2.031967 1_656
O22 Ti6 2.031967 1_556
O23 Ti7 2.031967 1_666
O24 Ti6 2.031967 1_555
O25 Ti5 2.031967 1_556
O26 Ti4 2.031967 1_655
O27 Ti0 2.031967 1_555
O28 Ti1 2.031967 1_565
O29 Ti0 2.031967 1_555
O30 Ti3 2.031967 1_556
O31 Ti0 2.031967 1_555
O32 Ti7 2.031967 1_555
O33 Ti6 2.031967 1_565
O34 Ti5 2.031967 1_555
O35 Ti4 2.031967 1_555
O36 Ti6 2.031967 1_565
O37 Ti5 2.031967 1_556
O38 Ti4 2.031967 1_655
O39 Ti3 2.031967 1_555
O40 Ti2 2.031967 1_655
O41 Ti2 2.031967 1_655
O42 Ti1 2.031967 1_555
O43 Ti1 2.031967 1_565
O44 Ti3 2.031967 1_556
O45 Ti7 2.031967 1_555
O46 Ti7 2.031967 1_555
O47 Ti4 2.031967 1_665
