# generated using pymatgen
data_ZrTe
_symmetry_space_group_name_H-M   'P 1'
_cell_length_a   3.80775083
_cell_length_b   3.80775093
_cell_length_c   3.86683113
_cell_angle_alpha   90.00000000
_cell_angle_beta   90.00000000
_cell_angle_gamma   120.00004130
_symmetry_Int_Tables_number   1
_chemical_formula_structural   ZrTe
_chemical_formula_sum   'Zr1 Te1'
_cell_volume   48.55374260
_cell_formula_units_Z   1
loop_
 _symmetry_equiv_pos_site_id
 _symmetry_equiv_pos_as_xyz
  1  'x, y, z'
loop_
 _atom_site_type_symbol
 _atom_site_label
 _atom_site_symmetry_multiplicity
 _atom_site_fract_x
 _atom_site_fract_y
 _atom_site_fract_z
 _atom_site_occupancy
  Zr  Zr0  1  -0.00000003  0.00000005  0.00000000  1
  Te  Te0  1  0.33333303  0.66666695  0.50000000  1
loop_
_geom_bond_atom_site_label_1
_geom_bond_atom_site_label_2
_geom_bond_distance
_geom_bond_site_symmetry_2
Te0 Zr0 2.927641 1_566
Te0 Zr0 2.927641 1_565
Te0 Zr0 2.927641 1_555
Te0 Zr0 2.927641 1_556
Te0 Zr0 2.927641 1_665
Te0 Zr0 2.927641 1_666
