# generated using pymatgen
data_ZnFeS2
_symmetry_space_group_name_H-M   'P 1'
_cell_length_a   6.65631757
_cell_length_b   6.65631757
_cell_length_c   6.65631799
_cell_angle_alpha   33.34488454
_cell_angle_beta   33.34488454
_cell_angle_gamma   33.34488137
_symmetry_Int_Tables_number   1
_chemical_formula_structural   ZnFeS2
_chemical_formula_sum   'Zn1 Fe1 S2'
_cell_volume   79.34316751
_cell_formula_units_Z   1
loop_
 _symmetry_equiv_pos_site_id
 _symmetry_equiv_pos_as_xyz
  1  'x, y, z'
loop_
 _atom_site_type_symbol
 _atom_site_label
 _atom_site_symmetry_multiplicity
 _atom_site_fract_x
 _atom_site_fract_y
 _atom_site_fract_z
 _atom_site_occupancy
  Zn  Zn0  1  0.99975400  0.99975400  0.99975400  1
  Fe  Fe0  1  0.49971200  0.49971200  0.49971200  1
  S  S0  1  0.87448100  0.87448100  0.87448100  1
  S  S1  1  0.37605200  0.37605200  0.37605200  1
loop_
_geom_bond_atom_site_label_1
_geom_bond_atom_site_label_2
_geom_bond_distance
_geom_bond_site_symmetry_2
Fe0 S1 2.329919 1_555
Fe0 S0 2.339248 1_545
Fe0 S0 2.339248 1_455
Fe0 S0 2.339249 1_554
S0 Zn0 2.360310 1_555
S1 Zn0 2.349020 1_454
S1 Zn0 2.349020 1_544
S1 Zn0 2.349020 1_445
