# generated using pymatgen
data_Mn2Ge3Pd4
_symmetry_space_group_name_H-M   'P 1'
_cell_length_a   3.17574393
_cell_length_b   6.96267006
_cell_length_c   49.88621764
_cell_angle_alpha   90.03649100
_cell_angle_beta   90.00000000
_cell_angle_gamma   90.00000000
_symmetry_Int_Tables_number   1
_chemical_formula_structural   Mn2Ge3Pd4
_chemical_formula_sum   'Mn16 Ge24 Pd32'
_cell_volume   1103.06671919
_cell_formula_units_Z   8
loop_
 _symmetry_equiv_pos_site_id
 _symmetry_equiv_pos_as_xyz
  1  'x, y, z'
loop_
 _atom_site_type_symbol
 _atom_site_label
 _atom_site_symmetry_multiplicity
 _atom_site_fract_x
 _atom_site_fract_y
 _atom_site_fract_z
 _atom_site_occupancy
  Mn  Mn0  1  0.25000000  0.48778086  0.26324966  1
  Mn  Mn1  1  0.25000000  0.48697547  0.59647253  1
  Mn  Mn2  1  0.25000000  0.48697180  0.92982243  1
  Mn  Mn3  1  0.25000000  0.98773758  0.23676354  1
  Mn  Mn4  1  0.25000000  0.98823999  0.56993146  1
  Mn  Mn5  1  0.25000000  0.98826476  0.90327749  1
  Mn  Mn6  1  0.75000000  0.51262674  0.07006383  1
  Mn  Mn7  1  0.75000000  0.51281377  0.40341149  1
  Mn  Mn8  1  0.75000000  0.51264692  0.73672329  1
  Mn  Mn9  1  0.75000000  0.01283387  0.09664435  1
  Mn  Mn10  1  0.75000000  0.01280946  0.42992401  1
  Mn  Mn11  1  0.75000000  0.01284130  0.76331480  1
  Mn  Mn12  1  0.25000000  0.39550485  0.18817067  1
  Mn  Mn13  1  0.25000000  0.39540611  0.52151285  1
  Mn  Mn14  1  0.25000000  0.39526518  0.85484365  1
  Mn  Mn15  1  0.25000000  0.89567960  0.31181721  1
  Ge  Ge0  1  0.75000000  0.30017175  0.22787552  1
  Ge  Ge1  1  0.75000000  0.29995525  0.56123940  1
  Ge  Ge2  1  0.75000000  0.29997963  0.89457819  1
  Ge  Ge3  1  0.75000000  0.80012624  0.27213407  1
  Ge  Ge4  1  0.75000000  0.79955774  0.60540249  1
  Ge  Ge5  1  0.75000000  0.79956018  0.93873556  1
  Ge  Ge6  1  0.25000000  0.70063510  0.10537750  1
  Ge  Ge7  1  0.25000000  0.70058537  0.43871567  1
  Ge  Ge8  1  0.25000000  0.70060726  0.77204236  1
  Ge  Ge9  1  0.25000000  0.20065319  0.06127687  1
  Ge  Ge10  1  0.25000000  0.20058352  0.39461109  1
  Ge  Ge11  1  0.25000000  0.20062577  0.72793904  1
  Ge  Ge12  1  0.25000000  0.25183436  0.31619865  1
  Ge  Ge13  1  0.25000000  0.25462991  0.64957844  1
  Ge  Ge14  1  0.25000000  0.25462223  0.98291358  1
  Ge  Ge15  1  0.25000000  0.75194324  0.18381562  1
  Ge  Ge16  1  0.25000000  0.75199930  0.51712256  1
  Ge  Ge17  1  0.25000000  0.75209572  0.85046247  1
  Ge  Ge18  1  0.75000000  0.74541936  0.01707653  1
  Ge  Ge19  1  0.75000000  0.74608989  0.35056336  1
  Ge  Ge20  1  0.75000000  0.74541694  0.68374311  1
  Ge  Ge21  1  0.75000000  0.24600199  0.14945421  1
  Ge  Ge22  1  0.75000000  0.24606920  0.48273924  1
  Ge  Ge23  1  0.75000000  0.24598683  0.81608308  1
  Pd  Pd0  1  0.75000000  0.03947156  0.19159459  1
  Pd  Pd1  1  0.75000000  0.03948718  0.52491903  1
  Pd  Pd2  1  0.75000000  0.03947435  0.85825838  1
  Pd  Pd3  1  0.75000000  0.53942895  0.30840041  1
  Pd  Pd4  1  0.75000000  0.53710208  0.64182272  1
  Pd  Pd5  1  0.75000000  0.53712464  0.97515935  1
  Pd  Pd6  1  0.25000000  0.96406838  0.14188161  1
  Pd  Pd7  1  0.25000000  0.96406773  0.47522642  1
  Pd  Pd8  1  0.25000000  0.96414927  0.80854708  1
  Pd  Pd9  1  0.25000000  0.46290651  0.02482590  1
  Pd  Pd10  1  0.25000000  0.46404086  0.35811246  1
  Pd  Pd11  1  0.25000000  0.46291558  0.69149469  1
  Pd  Pd12  1  0.75000000  0.16800868  0.27632479  1
  Pd  Pd13  1  0.75000000  0.16961784  0.60974583  1
  Pd  Pd14  1  0.75000000  0.16960822  0.94307749  1
  Pd  Pd15  1  0.75000000  0.66793532  0.22365505  1
  Pd  Pd16  1  0.75000000  0.66768442  0.55694565  1
  Pd  Pd17  1  0.75000000  0.66765023  0.89027240  1
  Pd  Pd18  1  0.25000000  0.83062367  0.05686225  1
  Pd  Pd19  1  0.25000000  0.83014937  0.39021393  1
  Pd  Pd20  1  0.25000000  0.83059837  0.72353530  1
  Pd  Pd21  1  0.25000000  0.33008165  0.10981748  1
  Pd  Pd22  1  0.25000000  0.33016811  0.44311832  1
  Pd  Pd23  1  0.25000000  0.33004063  0.77647420  1
  Pd  Pd24  1  0.25000000  0.89663854  0.64525732  1
  Pd  Pd25  1  0.25000000  0.89663393  0.97859305  1
  Pd  Pd26  1  0.75000000  0.60342362  0.14538230  1
  Pd  Pd27  1  0.75000000  0.60352397  0.47875360  1
  Pd  Pd28  1  0.75000000  0.60347154  0.81205364  1
  Pd  Pd29  1  0.75000000  0.10343343  0.02139402  1
  Pd  Pd30  1  0.75000000  0.10350492  0.35459818  1
  Pd  Pd31  1  0.75000000  0.10341823  0.68806065  1
loop_
_geom_bond_atom_site_label_1
_geom_bond_atom_site_label_2
_geom_bond_distance
_geom_bond_site_symmetry_2
Mn0 Pd3 2.779016 1_555
Mn0 Pd3 2.779016 1_455
Mn0 Pd12 2.811726 1_555
Mn0 Pd12 2.811726 1_455
Mn0 Pd15 2.828324 1_455
Mn0 Pd15 2.828324 1_555
Mn1 Pd4 2.785744 1_555
Mn1 Pd4 2.785744 1_455
Mn1 Pd13 2.800756 1_455
Mn1 Pd13 2.800756 1_555
Mn1 Pd16 2.827682 1_455
Mn1 Pd16 2.827682 1_555
Mn2 Pd5 2.785229 1_555
Mn2 Pd5 2.785229 1_455
Mn2 Pd14 2.800573 1_455
Mn2 Pd14 2.800573 1_555
Mn2 Pd17 2.828393 1_455
Mn2 Pd17 2.828393 1_555
Mn3 Pd0 2.780201 1_565
Mn3 Pd0 2.780201 1_465
Mn3 Pd15 2.811620 1_455
Mn3 Pd15 2.811620 1_555
Mn3 Pd12 2.826406 1_565
Mn3 Pd12 2.826406 1_465
Mn4 Pd1 2.773436 1_465
Mn4 Pd1 2.773436 1_565
Mn4 Pd16 2.814362 1_555
Mn4 Pd16 2.814362 1_455
Mn4 Pd13 2.838651 1_465
Mn4 Pd13 2.838651 1_565
Mn5 Pd2 2.773672 1_565
Mn5 Pd2 2.773672 1_465
Mn5 Pd17 2.814909 1_555
Mn5 Pd17 2.814909 1_455
Mn5 Pd14 2.838043 1_465
Mn5 Pd14 2.838043 1_565
Mn6 Pd9 2.780846 1_655
Mn6 Pd9 2.780846 1_555
Mn6 Pd18 2.803425 1_555
Mn6 Pd18 2.803425 1_655
Mn6 Pd21 2.841287 1_555
Mn6 Pd21 2.841287 1_655
Mn7 Pd10 2.782511 1_655
Mn7 Pd10 2.782511 1_555
Mn7 Pd19 2.799742 1_555
Mn7 Pd19 2.799742 1_655
Mn7 Pd22 2.839971 1_655
Mn7 Pd22 2.839971 1_555
Mn8 Pd11 2.780478 1_555
Mn8 Pd11 2.780478 1_655
Mn8 Pd20 2.803015 1_555
Mn8 Pd20 2.803015 1_655
Mn8 Pd23 2.841383 1_555
Mn8 Pd23 2.841383 1_655
Mn9 Pd6 2.780354 1_645
Mn9 Pd6 2.780354 1_545
Mn9 Pd21 2.798311 1_555
Mn9 Pd21 2.798311 1_655
Mn9 Pd18 2.840106 1_645
Mn9 Pd18 2.840106 1_545
Mn10 Pd7 2.782972 1_645
Mn10 Pd7 2.782972 1_545
Mn10 Pd22 2.799168 1_555
Mn10 Pd22 2.799168 1_655
Mn10 Pd19 2.838999 1_645
Mn10 Pd19 2.838999 1_545
Mn11 Pd8 2.780089 1_645
Mn11 Pd8 2.780089 1_545
Mn11 Pd23 2.797885 1_655
Mn11 Pd23 2.797885 1_555
Mn11 Pd20 2.840118 1_545
Mn11 Pd20 2.840118 1_645
Mn12 Pd0 2.948933 1_455
Mn12 Pd0 2.948933 1_555
Mn12 Pd26 3.029410 1_555
Mn12 Pd26 3.029410 1_455
Mn12 Pd15 3.041154 1_455
Mn12 Pd15 3.041154 1_555
Mn13 Pd1 2.948212 1_555
Mn13 Pd1 2.948212 1_455
Mn13 Pd27 3.029050 1_455
Mn13 Pd27 3.029050 1_555
Mn13 Pd16 3.038997 1_455
Mn13 Pd16 3.038997 1_555
Mn14 Pd2 2.947487 1_455
Mn14 Pd2 2.947487 1_555
Mn14 Pd28 3.030426 1_555
Mn14 Pd28 3.030426 1_455
Mn14 Pd17 3.039343 1_455
Mn14 Pd17 3.039343 1_555
Mn15 Pd3 2.950002 1_555
Mn15 Pd3 2.950002 1_455
Mn15 Pd30 3.027540 1_565
Mn15 Pd30 3.027540 1_465
Mn15 Pd12 3.042353 1_565
Mn15 Pd12 3.042353 1_465
Ge0 Pd0 2.562510 1_555
Ge0 Pd15 2.569391 1_555
Ge0 Pd12 2.586748 1_555
Ge0 Mn12 2.624286 1_555
Ge0 Mn12 2.624286 1_655
Ge0 Mn0 2.709026 1_555
Ge0 Mn0 2.709026 1_655
Ge0 Mn3 2.729729 1_545
Ge0 Mn3 2.729729 1_645
Ge1 Pd1 2.562756 1_555
Ge1 Pd16 2.569457 1_555
Ge1 Pd13 2.584916 1_555
Ge1 Mn13 2.625311 1_555
Ge1 Mn13 2.625311 1_655
Ge1 Mn1 2.702474 1_655
Ge1 Mn1 2.702474 1_555
Ge1 Mn4 2.724163 1_545
Ge1 Mn4 2.724163 1_645
Ge2 Pd2 2.562920 1_555
Ge2 Pd17 2.569101 1_555
Ge2 Pd14 2.584666 1_555
Ge2 Mn14 2.625321 1_555
Ge2 Mn14 2.625321 1_655
Ge2 Mn2 2.702741 1_555
Ge2 Mn2 2.702741 1_655
Ge2 Mn5 2.724219 1_645
Ge2 Mn5 2.724219 1_545
Ge3 Pd3 2.563615 1_555
Ge3 Pd12 2.569829 1_565
Ge3 Pd15 2.587109 1_555
Ge3 Mn15 2.623218 1_555
Ge3 Mn15 2.623218 1_655
Ge3 Mn3 2.709999 1_555
Ge3 Mn3 2.709999 1_655
Ge3 Mn0 2.728757 1_555
Ge3 Mn0 2.728757 1_655
Ge4 Pd4 2.577712 1_555
Ge4 Pd16 2.585290 1_555
Ge4 Pd13 2.585563 1_565
Ge4 Pd24 2.632392 1_655
Ge4 Pd24 2.632392 1_555
Ge4 Mn4 2.716869 1_655
Ge4 Mn4 2.716869 1_555
Ge4 Mn1 2.730440 1_655
Ge4 Mn1 2.730440 1_555
Ge5 Pd5 2.577738 1_555
Ge5 Pd14 2.585474 1_565
Ge5 Pd17 2.585675 1_555
Ge5 Pd25 2.632480 1_555
Ge5 Pd25 2.632480 1_655
Ge5 Mn5 2.716523 1_555
Ge5 Mn5 2.716523 1_655
Ge5 Mn2 2.730338 1_555
Ge5 Mn2 2.730338 1_655
Ge6 Pd6 2.583846 1_555
Ge6 Pd18 2.584475 1_555
Ge6 Pd21 2.589672 1_555
Ge6 Pd26 2.638931 1_455
Ge6 Pd26 2.638931 1_555
Ge6 Mn6 2.708404 1_455
Ge6 Mn6 2.708404 1_555
Ge6 Mn9 2.727174 1_565
Ge6 Mn9 2.727174 1_465
Ge7 Pd19 2.582808 1_555
Ge7 Pd7 2.584322 1_555
Ge7 Pd22 2.588567 1_555
Ge7 Pd27 2.639913 1_455
Ge7 Pd27 2.639913 1_555
Ge7 Mn7 2.707300 1_455
Ge7 Mn7 2.707300 1_555
Ge7 Mn10 2.727784 1_565
Ge7 Mn10 2.727784 1_465
Ge8 Pd20 2.584098 1_555
Ge8 Pd8 2.584405 1_555
Ge8 Pd23 2.589728 1_555
Ge8 Pd28 2.639040 1_455
Ge8 Pd28 2.639040 1_555
Ge8 Mn8 2.708418 1_555
Ge8 Mn8 2.708418 1_455
Ge8 Mn11 2.727325 1_465
Ge8 Mn11 2.727325 1_565
Ge9 Pd9 2.577795 1_555
Ge9 Pd21 2.583219 1_555
Ge9 Pd18 2.585649 1_545
Ge9 Pd29 2.633696 1_555
Ge9 Pd29 2.633696 1_455
Ge9 Mn9 2.710599 1_555
Ge9 Mn9 2.710599 1_455
Ge9 Mn6 2.725911 1_455
Ge9 Mn6 2.725911 1_555
Ge10 Pd22 2.582038 1_555
Ge10 Pd10 2.585419 1_555
Ge10 Pd19 2.588383 1_545
Ge10 Pd30 2.638348 1_455
Ge10 Pd30 2.638348 1_555
Ge10 Mn10 2.708675 1_555
Ge10 Mn10 2.708675 1_455
Ge10 Mn7 2.727443 1_555
Ge10 Mn7 2.727443 1_455
Ge11 Pd11 2.577742 1_555
Ge11 Pd23 2.582931 1_555
Ge11 Pd20 2.585589 1_545
Ge11 Pd31 2.633506 1_455
Ge11 Pd31 2.633506 1_555
Ge11 Mn11 2.710751 1_555
Ge11 Mn11 2.710751 1_455
Ge11 Mn8 2.726154 1_455
Ge11 Mn8 2.726154 1_555
Ge12 Mn15 2.489264 1_545
Ge12 Pd10 2.559511 1_555
Ge12 Pd3 2.585224 1_455
Ge12 Pd3 2.585224 1_555
Ge12 Pd12 2.610986 1_455
Ge12 Pd12 2.610986 1_555
Ge12 Pd30 2.694443 1_555
Ge12 Pd30 2.694443 1_455
Ge13 Pd24 2.501743 1_545
Ge13 Pd11 2.543963 1_555
Ge13 Pd4 2.557371 1_555
Ge13 Pd4 2.557371 1_455
Ge13 Pd13 2.611275 1_455
Ge13 Pd13 2.611275 1_555
Ge13 Pd31 2.705134 1_555
Ge13 Pd31 2.705134 1_455
Ge14 Pd25 2.501719 1_545
Ge14 Pd9 2.543797 1_556
Ge14 Pd5 2.557522 1_555
Ge14 Pd5 2.557522 1_455
Ge14 Pd14 2.611410 1_555
Ge14 Pd14 2.611410 1_455
Ge14 Pd29 2.705009 1_456
Ge14 Pd29 2.705009 1_556
Ge15 Mn12 2.491392 1_555
Ge15 Pd6 2.561544 1_555
Ge15 Pd0 2.584338 1_565
Ge15 Pd0 2.584338 1_465
Ge15 Pd15 2.610529 1_455
Ge15 Pd15 2.610529 1_555
Ge15 Pd26 2.695213 1_555
Ge15 Pd26 2.695213 1_455
Ge16 Mn13 2.492621 1_555
Ge16 Pd7 2.559772 1_555
Ge16 Pd1 2.584251 1_465
Ge16 Pd1 2.584251 1_565
Ge16 Pd16 2.610389 1_555
Ge16 Pd16 2.610389 1_455
Ge16 Pd27 2.692812 1_455
Ge16 Pd27 2.692812 1_555
Ge17 Mn14 2.494227 1_555
Ge17 Pd8 2.560497 1_555
Ge17 Pd2 2.583658 1_565
Ge17 Pd2 2.583658 1_465
Ge17 Pd17 2.610094 1_555
Ge17 Pd17 2.610094 1_455
Ge17 Pd28 2.694623 1_455
Ge17 Pd28 2.694623 1_555
Ge18 Pd29 2.501885 1_565
Ge18 Pd5 2.544037 1_554
Ge18 Pd9 2.557541 1_655
Ge18 Pd9 2.557541 1_555
Ge18 Pd18 2.609799 1_555
Ge18 Pd18 2.609799 1_655
Ge18 Pd25 2.705187 1_554
Ge18 Pd25 2.705187 1_654
Ge19 Pd30 2.496562 1_565
Ge19 Pd3 2.547684 1_555
Ge19 Pd10 2.553560 1_555
Ge19 Pd10 2.553560 1_655
Ge19 Pd19 2.602876 1_655
Ge19 Pd19 2.602876 1_555
Ge19 Mn15 2.710132 1_555
Ge19 Mn15 2.710132 1_655
Ge20 Pd31 2.501796 1_565
Ge20 Pd4 2.544249 1_555
Ge20 Pd11 2.557496 1_555
Ge20 Pd11 2.557496 1_655
Ge20 Pd20 2.610008 1_555
Ge20 Pd20 2.610008 1_655
Ge20 Pd24 2.705287 1_555
Ge20 Pd24 2.705287 1_655
Ge21 Pd26 2.497014 1_555
Ge21 Pd0 2.547754 1_555
Ge21 Pd6 2.552746 1_645
Ge21 Pd6 2.552746 1_545
Ge21 Pd21 2.602950 1_655
Ge21 Pd21 2.602950 1_555
Ge21 Mn12 2.707897 1_555
Ge21 Mn12 2.707897 1_655
Ge22 Pd27 2.496895 1_555
Ge22 Pd1 2.549580 1_555
Ge22 Pd7 2.552671 1_545
Ge22 Pd7 2.552671 1_645
Ge22 Pd22 2.602381 1_555
Ge22 Pd22 2.602381 1_655
Ge22 Mn13 2.709487 1_655
Ge22 Mn13 2.709487 1_555
Ge23 Pd28 2.497279 1_555
Ge23 Pd2 2.549122 1_555
Ge23 Pd8 2.551963 1_645
Ge23 Pd8 2.551963 1_545
Ge23 Pd23 2.601854 1_655
Ge23 Pd23 2.601854 1_555
Ge23 Mn14 2.708867 1_655
Ge23 Mn14 2.708867 1_555
