# generated using pymatgen
data_Ce2CdAs2O
_symmetry_space_group_name_H-M   'P 1'
_cell_length_a   3.22864300
_cell_length_b   3.22864300
_cell_length_c   15.00861200
_cell_angle_alpha   90.00000000
_cell_angle_beta   90.00000000
_cell_angle_gamma   90.00000000
_symmetry_Int_Tables_number   1
_chemical_formula_structural   Ce2CdAs2O
_chemical_formula_sum   'Ce2 Cd1 As2 O1'
_cell_volume   156.45180698
_cell_formula_units_Z   1
loop_
 _symmetry_equiv_pos_site_id
 _symmetry_equiv_pos_as_xyz
  1  'x, y, z'
loop_
 _atom_site_type_symbol
 _atom_site_label
 _atom_site_symmetry_multiplicity
 _atom_site_fract_x
 _atom_site_fract_y
 _atom_site_fract_z
 _atom_site_occupancy
  Ce  Ce0  1  0.50000000  0.50000000  0.63706000  1
  Ce  Ce1  1  0.50000000  0.50000000  0.36294000  1
  Cd  Cd0  1  0.50000000  0.50000000  0.00000000  1
  As  As0  1  0.50000000  0.50000000  0.17001900  1
  As  As1  1  0.50000000  0.50000000  0.82998100  1
  O  O0  1  0.50000000  0.50000000  0.50000000  1
loop_
_geom_bond_atom_site_label_1
_geom_bond_atom_site_label_2
_geom_bond_distance
_geom_bond_site_symmetry_2
Ce0 O0 2.057080 1_555
Ce1 O0 2.057080 1_555
As0 Cd0 2.551749 1_555
As0 Ce1 2.895476 1_555
As1 Cd0 2.551749 1_556
As1 Ce0 2.895476 1_555
