# generated using pymatgen
data_Sb5IO7
_symmetry_space_group_name_H-M   'P 1'
_cell_length_a   7.31681945
_cell_length_b   13.97151354
_cell_length_c   12.31064000
_cell_angle_alpha   90.00000000
_cell_angle_beta   90.00000000
_cell_angle_gamma   106.28863504
_symmetry_Int_Tables_number   1
_chemical_formula_structural   Sb5IO7
_chemical_formula_sum   'Sb20 I4 O28'
_cell_volume   1207.96610146
_cell_formula_units_Z   4
loop_
 _symmetry_equiv_pos_site_id
 _symmetry_equiv_pos_as_xyz
  1  'x, y, z'
loop_
 _atom_site_type_symbol
 _atom_site_label
 _atom_site_symmetry_multiplicity
 _atom_site_fract_x
 _atom_site_fract_y
 _atom_site_fract_z
 _atom_site_occupancy
  Sb  Sb0  1  0.92749700  0.04591500  0.22236700  1
  Sb  Sb1  1  0.42749700  0.54591500  0.77763300  1
  Sb  Sb2  1  0.03467400  0.12344500  0.70428200  1
  Sb  Sb3  1  0.53467400  0.62344500  0.29571800  1
  Sb  Sb4  1  0.45685300  0.29357900  0.19347800  1
  Sb  Sb5  1  0.95685300  0.79357900  0.80652200  1
  Sb  Sb6  1  0.40595100  0.28504000  0.76575200  1
  Sb  Sb7  1  0.90595100  0.78504000  0.23424800  1
  Sb  Sb8  1  0.94655300  0.44668100  0.32553800  1
  Sb  Sb9  1  0.44655300  0.94668100  0.67446200  1
  Sb  Sb10  1  0.94558200  0.38952700  0.72715600  1
  Sb  Sb11  1  0.44558200  0.88952700  0.27284400  1
  Sb  Sb12  1  0.26726000  0.46811700  0.08584900  1
  Sb  Sb13  1  0.76726000  0.96811700  0.91415100  1
  Sb  Sb14  1  0.34460900  0.39333400  0.46113100  1
  Sb  Sb15  1  0.84460900  0.89333400  0.53886900  1
  Sb  Sb16  1  0.77833100  0.57552700  0.55519800  1
  Sb  Sb17  1  0.27833100  0.07552700  0.44480200  1
  Sb  Sb18  1  0.81298300  0.54996900  0.93485000  1
  Sb  Sb19  1  0.31298300  0.04996900  0.06515000  1
  I  I0  1  0.69170400  0.22492300  0.94183800  1
  I  I1  1  0.19170400  0.72492300  0.05816200  1
  I  I2  1  0.82179200  0.24283700  0.40823800  1
  I  I3  1  0.32179200  0.74283700  0.59176200  1
  O  O0  1  0.29920700  0.14927500  0.18118900  1
  O  O1  1  0.79920700  0.64927500  0.81881100  1
  O  O2  1  0.23327300  0.40811100  0.73897100  1
  O  O3  1  0.73327300  0.90811100  0.26102900  1
  O  O4  1  0.47598600  0.50155200  0.19916300  1
  O  O5  1  0.97598600  0.00155200  0.80083700  1
  O  O6  1  0.59130900  0.50387700  0.42869100  1
  O  O7  1  0.09130900  0.00387700  0.57130900  1
  O  O8  1  0.55418400  0.51456700  0.64663700  1
  O  O9  1  0.05418400  0.01456700  0.35336300  1
  O  O10  1  0.55270400  0.47083000  0.87927900  1
  O  O11  1  0.05270400  0.97083000  0.12072100  1
  O  O12  1  0.02786500  0.44300800  0.17502200  1
  O  O13  1  0.52786500  0.94300800  0.82497800  1
  O  O14  1  0.20180300  0.48027100  0.39189800  1
  O  O15  1  0.70180300  0.98027100  0.60810200  1
  O  O16  1  0.91784200  0.47584600  0.59984800  1
  O  O17  1  0.41784200  0.97584600  0.40015200  1
  O  O18  1  0.97767700  0.48972700  0.84405900  1
  O  O19  1  0.47767700  0.98972700  0.15594100  1
  O  O20  1  0.27257000  0.32862000  0.09457400  1
  O  O21  1  0.77257000  0.82862000  0.90542600  1
  O  O22  1  0.33406500  0.30150900  0.33712700  1
  O  O23  1  0.83406500  0.80150900  0.66287300  1
  O  O24  1  0.31107200  0.18169200  0.64710700  1
  O  O25  1  0.81107200  0.68169200  0.35289300  1
  O  O26  1  0.17762200  0.20301900  0.83763000  1
  O  O27  1  0.67762200  0.70301900  0.16237000  1
loop_
_geom_bond_atom_site_label_1
_geom_bond_atom_site_label_2
_geom_bond_distance
_geom_bond_site_symmetry_2
I0 Sb6 3.280410 1_555
I0 Sb19 3.486901 1_556
I1 Sb7 3.280410 1_455
I1 Sb18 3.486901 1_454
I2 Sb8 2.919348 1_555
I3 Sb9 2.919348 1_555
O0 Sb19 2.013528 1_555
O0 Sb4 2.028223 1_555
O1 Sb18 2.013528 1_555
O1 Sb5 2.028223 1_555
O2 Sb10 2.052544 1_455
O2 Sb1 2.101938 1_555
O2 Sb6 2.424937 1_555
O3 Sb11 2.052544 1_555
O3 Sb0 2.101938 1_565
O3 Sb7 2.424937 1_555
O4 Sb3 2.021726 1_555
O4 Sb12 2.023940 1_555
O5 Sb2 2.021726 1_655
O5 Sb13 2.023940 1_545
O6 Sb14 2.058937 1_555
O6 Sb16 2.128772 1_555
O6 Sb3 2.455703 1_555
O7 Sb15 2.058937 1_445
O7 Sb17 2.128772 1_555
O7 Sb2 2.455703 1_555
O8 Sb1 1.969623 1_555
O8 Sb16 1.974519 1_555
O9 Sb0 1.969623 1_455
O9 Sb17 1.974519 1_555
O10 Sb1 2.011145 1_555
O10 Sb18 2.033757 1_555
O11 Sb0 2.011145 1_465
O11 Sb19 2.033757 1_565
O12 Sb8 1.951189 1_455
O12 Sb12 2.012864 1_555
O13 Sb9 1.951189 1_555
O13 Sb13 2.012864 1_555
O14 Sb8 1.970777 1_455
O14 Sb14 2.001374 1_555
O15 Sb9 1.970777 1_555
O15 Sb15 2.001374 1_555
O16 Sb16 2.020195 1_555
O16 Sb10 2.022180 1_555
O17 Sb17 2.020195 1_565
O17 Sb11 2.022180 1_555
O18 Sb10 1.975281 1_555
O18 Sb18 1.994670 1_555
O19 Sb11 1.975281 1_555
O19 Sb19 1.994670 1_565
O20 Sb12 1.963177 1_555
O20 Sb4 1.977512 1_555
O21 Sb13 1.963177 1_555
O21 Sb5 1.977512 1_555
O22 Sb14 1.981606 1_555
O22 Sb4 2.000636 1_555
O23 Sb15 1.981606 1_555
O23 Sb5 2.000636 1_555
O24 Sb6 2.034184 1_555
O24 Sb2 2.079518 1_555
O25 Sb7 2.034184 1_555
O25 Sb3 2.079518 1_555
O26 Sb6 1.952771 1_555
O26 Sb2 2.091063 1_555
O27 Sb7 1.952771 1_555
O27 Sb3 2.091063 1_555
