# generated using pymatgen
data_Dy3(CoGe2)2
_symmetry_space_group_name_H-M   'P 1'
_cell_length_a   5.64949871
_cell_length_b   5.64949871
_cell_length_c   8.01737192
_cell_angle_alpha   73.54951679
_cell_angle_beta   73.54951679
_cell_angle_gamma   43.37893893
_symmetry_Int_Tables_number   1
_chemical_formula_structural   Dy3(CoGe2)2
_chemical_formula_sum   'Dy3 Co2 Ge4'
_cell_volume   167.38910452
_cell_formula_units_Z   1
loop_
 _symmetry_equiv_pos_site_id
 _symmetry_equiv_pos_as_xyz
  1  'x, y, z'
loop_
 _atom_site_type_symbol
 _atom_site_label
 _atom_site_symmetry_multiplicity
 _atom_site_fract_x
 _atom_site_fract_y
 _atom_site_fract_z
 _atom_site_occupancy
  Dy  Dy0  1  0.37490940  0.37490940  0.69150590  1
  Dy  Dy1  1  0.62509060  0.62509060  0.30849410  1
  Dy  Dy2  1  0.00000000  0.00000000  -0.00000000  1
  Co  Co0  1  0.31536642  0.31536642  0.36162058  1
  Co  Co1  1  0.68463358  0.68463358  0.63837942  1
  Ge  Ge0  1  0.09804211  0.09804211  0.59725259  1
  Ge  Ge1  1  0.90195789  0.90195789  0.40274741  1
  Ge  Ge2  1  0.71038424  0.71038424  0.92050216  1
  Ge  Ge3  1  0.28961576  0.28961576  0.07949784  1
loop_
_geom_bond_atom_site_label_1
_geom_bond_atom_site_label_2
_geom_bond_distance
_geom_bond_site_symmetry_2
Dy0 Ge3 2.963160 1_556
Dy0 Ge2 2.963250 1_455
Dy0 Ge2 2.963250 1_545
Dy0 Ge0 3.056066 1_655
Dy0 Ge0 3.056066 1_565
Dy0 Ge1 3.065769 1_545
Dy0 Ge1 3.065769 1_455
Dy0 Ge0 3.218637 1_555
Dy1 Ge2 2.963160 1_554
Dy1 Ge3 2.963250 1_565
Dy1 Ge3 2.963250 1_655
Dy1 Ge1 3.056066 1_455
Dy1 Ge1 3.056066 1_545
Dy1 Ge0 3.065769 1_565
Dy1 Ge0 3.065769 1_655
Dy1 Ge1 3.218637 1_555
Dy2 Ge2 2.964197 1_454
Dy2 Ge2 2.964197 1_544
Dy2 Ge3 2.964197 1_545
Dy2 Ge3 2.964197 1_455
Dy2 Ge1 3.075700 1_445
Dy2 Ge0 3.075700 1_554
Dy2 Ge3 3.291395 1_555
Dy2 Ge2 3.291395 1_444
Co0 Ge1 2.340375 1_455
Co0 Ge1 2.340375 1_545
Co0 Ge3 2.358377 1_555
Co0 Ge0 2.479450 1_555
Co0 Dy0 2.897176 1_555
Co0 Dy1 3.008376 1_545
Co0 Dy1 3.008376 1_455
Co0 Dy1 3.148242 1_555
Co1 Ge0 2.340375 1_565
Co1 Ge0 2.340375 1_655
Co1 Ge2 2.358377 1_555
Co1 Ge1 2.479450 1_555
Co1 Dy1 2.897176 1_555
Co1 Dy0 3.008376 1_655
Co1 Dy0 3.008376 1_565
Co1 Dy0 3.148242 1_555
Ge0 Ge1 2.937146 1_445
Ge2 Ge3 2.706040 1_566
Ge2 Ge3 2.706040 1_656
