# generated using pymatgen
data_BaNa2(Ge4O9)2
_symmetry_space_group_name_H-M   'P 1'
_cell_length_a   11.71300824
_cell_length_b   11.71300824
_cell_length_c   19.55809639
_cell_angle_alpha   90.00000000
_cell_angle_beta   90.00000000
_cell_angle_gamma   120.00000329
_symmetry_Int_Tables_number   1
_chemical_formula_structural   BaNa2(Ge4O9)2
_chemical_formula_sum   'Ba6 Na12 Ge48 O108'
_cell_volume   2323.77511843
_cell_formula_units_Z   6
loop_
 _symmetry_equiv_pos_site_id
 _symmetry_equiv_pos_as_xyz
  1  'x, y, z'
loop_
 _atom_site_type_symbol
 _atom_site_label
 _atom_site_symmetry_multiplicity
 _atom_site_fract_x
 _atom_site_fract_y
 _atom_site_fract_z
 _atom_site_occupancy
  Ba  Ba0  1  0.66577602  0.66577602  0.75000000  1
  Ba  Ba1  1  0.33422398  0.33422398  0.25000000  1
  Ba  Ba2  1  0.00000000  0.33422398  0.75000000  1
  Ba  Ba3  1  1.00000000  0.66577602  0.25000000  1
  Ba  Ba4  1  0.33422398  0.00000000  0.75000000  1
  Ba  Ba5  1  0.66577602  1.00000000  0.25000000  1
  Na  Na0  1  0.99301394  0.32972525  0.96337620  1
  Na  Na1  1  0.00698606  0.67027475  0.03662380  1
  Na  Na2  1  0.33671131  0.00698606  0.96337620  1
  Na  Na3  1  0.66328869  0.67027475  0.53662380  1
  Na  Na4  1  0.66328869  0.99301394  0.03662380  1
  Na  Na5  1  0.33671131  0.32972525  0.46337620  1
  Na  Na6  1  0.67027475  0.66328869  0.96337620  1
  Na  Na7  1  0.32972525  0.99301394  0.53662380  1
  Na  Na8  1  0.32972525  0.33671131  0.03662380  1
  Na  Na9  1  0.67027475  0.00698606  0.46337620  1
  Na  Na10  1  0.00698606  0.33671131  0.53662380  1
  Na  Na11  1  0.99301394  0.66328869  0.46337620  1
  Ge  Ge0  1  0.66666700  0.33333300  0.97725760  1
  Ge  Ge1  1  0.33333300  0.66666700  0.02274240  1
  Ge  Ge2  1  0.33333300  0.66666700  0.52274240  1
  Ge  Ge3  1  0.66666700  0.33333300  0.47725760  1
  Ge  Ge4  1  0.66666700  0.33333300  0.72717584  1
  Ge  Ge5  1  0.33333300  0.66666700  0.27282416  1
  Ge  Ge6  1  0.33333300  0.66666700  0.77282416  1
  Ge  Ge7  1  0.66666700  0.33333300  0.22717584  1
  Ge  Ge8  1  -0.00000000  -0.00000000  -0.00000000  1
  Ge  Ge9  1  -0.00000000  -0.00000000  0.50000000  1
  Ge  Ge10  1  0.82634614  0.00385349  0.87433646  1
  Ge  Ge11  1  0.17365386  0.99614651  0.12566354  1
  Ge  Ge12  1  0.17750735  0.17365386  0.87433646  1
  Ge  Ge13  1  0.82249265  0.99614651  0.62566354  1
  Ge  Ge14  1  0.82249265  0.82634614  0.12566354  1
  Ge  Ge15  1  0.17750735  0.00385349  0.37433646  1
  Ge  Ge16  1  0.99614651  0.82249265  0.87433646  1
  Ge  Ge17  1  0.00385349  0.82634614  0.62566354  1
  Ge  Ge18  1  0.00385349  0.17750735  0.12566354  1
  Ge  Ge19  1  0.99614651  0.17365386  0.37433646  1
  Ge  Ge20  1  0.17365386  0.17750735  0.62566354  1
  Ge  Ge21  1  0.82634614  0.82249265  0.37433646  1
  Ge  Ge22  1  0.66110711  0.14590557  0.85196900  1
  Ge  Ge23  1  0.33889289  0.85409443  0.14803100  1
  Ge  Ge24  1  0.48479845  0.33889289  0.85196900  1
  Ge  Ge25  1  0.51520155  0.85409443  0.64803100  1
  Ge  Ge26  1  0.51520155  0.66110711  0.14803100  1
  Ge  Ge27  1  0.48479845  0.14590557  0.35196900  1
  Ge  Ge28  1  0.85409443  0.51520155  0.85196900  1
  Ge  Ge29  1  0.14590557  0.66110711  0.64803100  1
  Ge  Ge30  1  0.14590557  0.48479845  0.14803100  1
  Ge  Ge31  1  0.85409443  0.33889289  0.35196900  1
  Ge  Ge32  1  0.33889289  0.48479845  0.64803100  1
  Ge  Ge33  1  0.66110711  0.51520155  0.35196900  1
  Ge  Ge34  1  0.51119965  0.84618577  0.89336249  1
  Ge  Ge35  1  0.48880035  0.15381423  0.10663751  1
  Ge  Ge36  1  0.33498613  0.48880035  0.89336249  1
  Ge  Ge37  1  0.66501387  0.15381423  0.60663751  1
  Ge  Ge38  1  0.66501387  0.51119965  0.10663751  1
  Ge  Ge39  1  0.33498613  0.84618577  0.39336249  1
  Ge  Ge40  1  0.15381423  0.66501387  0.89336249  1
  Ge  Ge41  1  0.84618577  0.51119965  0.60663751  1
  Ge  Ge42  1  0.84618577  0.33498613  0.10663751  1
  Ge  Ge43  1  0.15381423  0.48880035  0.39336249  1
  Ge  Ge44  1  0.48880035  0.33498613  0.60663751  1
  Ge  Ge45  1  0.51119965  0.66501387  0.39336249  1
  Ge  Ge46  1  -0.00000000  -0.00000000  0.75000000  1
  Ge  Ge47  1  -0.00000000  -0.00000000  0.25000000  1
  O  O0  1  0.73533510  0.24581389  0.92340775  1
  O  O1  1  0.26466490  0.75418611  0.07659225  1
  O  O2  1  0.51047879  0.26466490  0.92340775  1
  O  O3  1  0.48952121  0.75418611  0.57659225  1
  O  O4  1  0.48952121  0.73533510  0.07659225  1
  O  O5  1  0.51047879  0.24581389  0.42340775  1
  O  O6  1  0.75418611  0.48952121  0.92340775  1
  O  O7  1  0.24581389  0.73533510  0.57659225  1
  O  O8  1  0.24581389  0.51047879  0.07659225  1
  O  O9  1  0.75418611  0.26466490  0.42340775  1
  O  O10  1  0.26466490  0.51047879  0.57659225  1
  O  O11  1  0.73533510  0.48952121  0.42340775  1
  O  O12  1  0.67623367  0.89367469  0.92089104  1
  O  O13  1  0.32376633  0.10632531  0.07910896  1
  O  O14  1  0.21744102  0.32376633  0.92089104  1
  O  O15  1  0.78255898  0.10632531  0.57910896  1
  O  O16  1  0.78255898  0.67623367  0.07910896  1
  O  O17  1  0.21744102  0.89367469  0.42089104  1
  O  O18  1  0.10632531  0.78255898  0.92089104  1
  O  O19  1  0.89367469  0.67623367  0.57910896  1
  O  O20  1  0.89367469  0.21744102  0.07910896  1
  O  O21  1  0.10632531  0.32376633  0.42089104  1
  O  O22  1  0.32376633  0.21744102  0.57910896  1
  O  O23  1  0.67623367  0.78255898  0.42089104  1
  O  O24  1  0.81798391  0.40665976  0.78260910  1
  O  O25  1  0.18201609  0.59334024  0.21739090  1
  O  O26  1  0.58867586  0.18201609  0.78260910  1
  O  O27  1  0.41132414  0.59334024  0.71739090  1
  O  O28  1  0.41132414  0.81798391  0.21739090  1
  O  O29  1  0.58867586  0.40665976  0.28260910  1
  O  O30  1  0.59334024  0.41132414  0.78260910  1
  O  O31  1  0.40665976  0.81798391  0.71739090  1
  O  O32  1  0.40665976  0.58867586  0.21739090  1
  O  O33  1  0.59334024  0.18201609  0.28260910  1
  O  O34  1  0.18201609  0.58867586  0.71739090  1
  O  O35  1  0.81798391  0.41132414  0.28260910  1
  O  O36  1  0.93736187  0.09135108  0.94179894  1
  O  O37  1  0.06263813  0.90864892  0.05820106  1
  O  O38  1  0.15398921  0.06263813  0.94179894  1
  O  O39  1  0.84601079  0.90864892  0.55820106  1
  O  O40  1  0.84601079  0.93736187  0.05820106  1
  O  O41  1  0.15398921  0.09135108  0.44179894  1
  O  O42  1  0.90864892  0.84601079  0.94179894  1
  O  O43  1  0.09135108  0.93736187  0.55820106  1
  O  O44  1  0.09135108  0.15398921  0.05820106  1
  O  O45  1  0.90864892  0.06263813  0.44179894  1
  O  O46  1  0.06263813  0.15398921  0.55820106  1
  O  O47  1  0.93736187  0.84601079  0.44179894  1
  O  O48  1  0.79322423  0.11799244  0.82720638  1
  O  O49  1  0.20677577  0.88200756  0.17279362  1
  O  O50  1  0.32476820  0.20677577  0.82720638  1
  O  O51  1  0.67523180  0.88200756  0.67279362  1
  O  O52  1  0.67523180  0.79322423  0.17279362  1
  O  O53  1  0.32476820  0.11799244  0.32720638  1
  O  O54  1  0.88200756  0.67523180  0.82720638  1
  O  O55  1  0.11799244  0.79322423  0.67279362  1
  O  O56  1  0.11799244  0.32476820  0.17279362  1
  O  O57  1  0.88200756  0.20677577  0.32720638  1
  O  O58  1  0.20677577  0.32476820  0.67279362  1
  O  O59  1  0.79322423  0.67523180  0.32720638  1
  O  O60  1  0.47920244  0.48707405  0.86633782  1
  O  O61  1  0.52079756  0.51292595  0.13366218  1
  O  O62  1  0.00787161  0.52079756  0.86633782  1
  O  O63  1  0.99212839  0.51292595  0.63366218  1
  O  O64  1  0.99212839  0.47920244  0.13366218  1
  O  O65  1  0.00787161  0.48707405  0.36633782  1
  O  O66  1  0.51292595  0.99212839  0.86633782  1
  O  O67  1  0.48707405  0.47920244  0.63366218  1
  O  O68  1  0.48707405  0.00787161  0.13366218  1
  O  O69  1  0.51292595  0.52079756  0.36633782  1
  O  O70  1  0.52079756  0.00787161  0.63366218  1
  O  O71  1  0.47920244  0.99212839  0.36633782  1
  O  O72  1  0.84785501  0.91137017  0.80887455  1
  O  O73  1  0.15214499  0.08862983  0.19112545  1
  O  O74  1  0.06351517  0.15214499  0.80887455  1
  O  O75  1  0.93648483  0.08862983  0.69112545  1
  O  O76  1  0.93648483  0.84785501  0.19112545  1
  O  O77  1  0.06351517  0.91137017  0.30887455  1
  O  O78  1  0.08862983  0.93648483  0.80887455  1
  O  O79  1  0.91137017  0.84785501  0.69112545  1
  O  O80  1  0.91137017  0.06351517  0.19112545  1
  O  O81  1  0.08862983  0.15214499  0.30887455  1
  O  O82  1  0.15214499  0.06351517  0.69112545  1
  O  O83  1  0.84785501  0.93648483  0.30887455  1
  O  O84  1  0.40202507  0.57942506  0.96861900  1
  O  O85  1  0.59797493  0.42057494  0.03138100  1
  O  O86  1  0.17739999  0.59797493  0.96861900  1
  O  O87  1  0.82260001  0.42057494  0.53138100  1
  O  O88  1  0.82260001  0.40202507  0.03138100  1
  O  O89  1  0.17739999  0.57942506  0.46861900  1
  O  O90  1  0.42057494  0.82260001  0.96861900  1
  O  O91  1  0.57942506  0.40202507  0.53138100  1
  O  O92  1  0.57942506  0.17739999  0.03138100  1
  O  O93  1  0.42057494  0.59797493  0.46861900  1
  O  O94  1  0.59797493  0.17739999  0.53138100  1
  O  O95  1  0.40202507  0.82260001  0.46861900  1
  O  O96  1  0.48579011  0.72897481  0.82982202  1
  O  O97  1  0.51420989  0.27102519  0.17017798  1
  O  O98  1  0.24318470  0.51420989  0.82982202  1
  O  O99  1  0.75681530  0.27102519  0.67017798  1
  O  O100  1  0.75681530  0.48579011  0.17017798  1
  O  O101  1  0.24318470  0.72897481  0.32982202  1
  O  O102  1  0.27102519  0.75681530  0.82982202  1
  O  O103  1  0.72897481  0.48579011  0.67017798  1
  O  O104  1  0.72897481  0.24318470  0.17017798  1
  O  O105  1  0.27102519  0.51420989  0.32982202  1
  O  O106  1  0.51420989  0.24318470  0.67017798  1
  O  O107  1  0.48579011  0.75681530  0.32982202  1
loop_
_geom_bond_atom_site_label_1
_geom_bond_atom_site_label_2
_geom_bond_distance
_geom_bond_site_symmetry_2
Ba0 O30 2.735083 1_555
Ba0 O27 2.735083 1_555
Ba0 O72 2.830965 1_555
Ba0 O79 2.830965 1_555
Ba0 O51 2.902854 1_555
Ba0 O54 2.902854 1_555
Ba0 O103 2.998365 1_555
Ba0 O96 2.998365 1_555
Ba0 O60 3.124086 1_555
Ba0 O67 3.124086 1_555
Ba1 O29 2.735083 1_555
Ba1 O32 2.735083 1_555
Ba1 O81 2.830965 1_555
Ba1 O73 2.830965 1_555
Ba1 O56 2.902854 1_555
Ba1 O53 2.902854 1_555
Ba1 O97 2.998365 1_555
Ba1 O105 2.998365 1_555
Ba1 O69 3.124086 1_555
Ba1 O61 3.124086 1_555
Ba2 O34 2.735083 1_555
Ba2 O24 2.735083 1_455
Ba2 O75 2.830965 1_455
Ba2 O74 2.830965 1_555
Ba2 O48 2.902854 1_455
Ba2 O58 2.902854 1_555
Ba2 O98 2.998364 1_555
Ba2 O99 2.998365 1_455
Ba2 O62 3.124086 1_555
Ba2 O63 3.124086 1_455
Ba3 O35 2.735083 1_555
Ba3 O25 2.735083 1_655
Ba3 O77 2.830965 1_655
Ba3 O76 2.830965 1_555
Ba3 O49 2.902854 1_655
Ba3 O59 2.902854 1_555
Ba3 O100 2.998364 1_555
Ba3 O101 2.998365 1_655
Ba3 O64 3.124086 1_555
Ba3 O65 3.124086 1_655
Ba4 O26 2.735083 1_555
Ba4 O31 2.735083 1_545
Ba4 O78 2.830965 1_545
Ba4 O82 2.830965 1_555
Ba4 O55 2.902854 1_545
Ba4 O50 2.902854 1_555
Ba4 O106 2.998364 1_555
Ba4 O102 2.998365 1_545
Ba4 O70 3.124086 1_555
Ba4 O66 3.124086 1_545
Ba5 O28 2.735083 1_555
Ba5 O33 2.735083 1_565
Ba5 O80 2.830965 1_565
Ba5 O83 2.830965 1_555
Ba5 O57 2.902854 1_565
Ba5 O52 2.902854 1_555
Ba5 O107 2.998364 1_555
Ba5 O104 2.998365 1_565
Ba5 O71 3.124086 1_555
Ba5 O68 3.124086 1_565
Na0 O36 2.564894 1_555
Na0 O20 2.583946 1_556
Na0 O0 2.778510 1_555
Na0 O86 2.785905 1_655
Na0 O14 2.790867 1_655
Na0 O88 2.856709 1_556
Na0 O62 2.872553 1_655
Na1 O37 2.564894 1_555
Na1 O18 2.583946 1_554
Na1 O1 2.778510 1_555
Na1 O88 2.785905 1_455
Na1 O16 2.790867 1_455
Na1 O86 2.856709 1_554
Na1 O64 2.872553 1_455
Na2 O38 2.564894 1_555
Na2 O13 2.583946 1_556
Na2 O2 2.778510 1_555
Na2 O90 2.785905 1_545
Na2 O18 2.790867 1_545
Na2 O92 2.856709 1_556
Na2 O66 2.872553 1_545
Na3 O39 2.564894 1_555
Na3 O23 2.583946 1_555
Na3 O3 2.778510 1_555
Na3 O91 2.785905 1_555
Na3 O19 2.790867 1_555
Na3 O93 2.856709 1_555
Na3 O67 2.872553 1_555
Na4 O40 2.564894 1_555
Na4 O12 2.583946 1_554
Na4 O4 2.778510 1_555
Na4 O92 2.785905 1_565
Na4 O20 2.790867 1_565
Na4 O90 2.856709 1_554
Na4 O68 2.872553 1_565
Na5 O41 2.564894 1_555
Na5 O22 2.583946 1_555
Na5 O5 2.778510 1_555
Na5 O93 2.785905 1_555
Na5 O21 2.790867 1_555
Na5 O91 2.856709 1_555
Na5 O69 2.872553 1_555
Na6 O42 2.564894 1_555
Na6 O16 2.583946 1_556
Na6 O6 2.778510 1_555
Na6 O84 2.785905 1_555
Na6 O12 2.790867 1_555
Na6 O85 2.856709 1_556
Na6 O60 2.872553 1_555
Na7 O43 2.564894 1_555
Na7 O17 2.583946 1_555
Na7 O7 2.778510 1_555
Na7 O94 2.785905 1_565
Na7 O22 2.790867 1_565
Na7 O95 2.856709 1_555
Na7 O70 2.872553 1_565
Na8 O44 2.564894 1_555
Na8 O14 2.583946 1_554
Na8 O8 2.778510 1_555
Na8 O85 2.785905 1_555
Na8 O13 2.790867 1_555
Na8 O84 2.856709 1_554
Na8 O61 2.872553 1_555
Na9 O45 2.564894 1_555
Na9 O15 2.583946 1_555
Na9 O9 2.778510 1_555
Na9 O95 2.785905 1_545
Na9 O23 2.790867 1_545
Na9 O94 2.856709 1_555
Na9 O71 2.872553 1_545
Na10 O46 2.564894 1_555
Na10 O21 2.583946 1_555
Na10 O10 2.778510 1_555
Na10 O87 2.785905 1_455
Na10 O15 2.790867 1_455
Na10 O89 2.856709 1_555
Na10 O63 2.872553 1_455
Na11 O47 2.564894 1_555
Na11 O19 2.583946 1_555
Na11 O11 2.778510 1_555
Na11 O89 2.785905 1_655
Na11 O17 2.790867 1_655
Na11 O87 2.856709 1_555
Na11 O65 2.872553 1_655
Ge0 O0 1.905652 1_555
Ge0 O6 1.905660 1_555
Ge0 O2 1.905661 1_555
Ge0 O88 1.906372 1_556
Ge0 O92 1.906373 1_556
Ge0 O85 1.906381 1_556
Ge1 O1 1.905652 1_555
Ge1 O8 1.905660 1_555
Ge1 O4 1.905661 1_555
Ge1 O86 1.906372 1_554
Ge1 O90 1.906373 1_554
Ge1 O84 1.906381 1_554
Ge2 O7 1.905652 1_555
Ge2 O3 1.905660 1_555
Ge2 O10 1.905661 1_555
Ge2 O95 1.906372 1_555
Ge2 O89 1.906373 1_555
Ge2 O93 1.906381 1_555
Ge3 O9 1.905652 1_555
Ge3 O5 1.905660 1_555
Ge3 O11 1.905661 1_555
Ge3 O94 1.906372 1_555
Ge3 O87 1.906373 1_555
Ge3 O91 1.906381 1_555
Ge4 O24 1.879403 1_555
Ge4 O26 1.879403 1_555
Ge4 O30 1.879412 1_555
Ge4 O99 1.913346 1_555
Ge4 O106 1.913353 1_555
Ge4 O103 1.913354 1_555
Ge5 O25 1.879403 1_555
Ge5 O28 1.879403 1_555
Ge5 O32 1.879412 1_555
Ge5 O101 1.913346 1_555
Ge5 O107 1.913353 1_555
Ge5 O105 1.913354 1_555
Ge6 O31 1.879403 1_555
Ge6 O34 1.879403 1_555
Ge6 O27 1.879412 1_555
Ge6 O102 1.913346 1_555
Ge6 O98 1.913353 1_555
Ge6 O96 1.913354 1_555
Ge7 O33 1.879403 1_555
Ge7 O35 1.879403 1_555
Ge7 O29 1.879412 1_555
Ge7 O104 1.913346 1_555
Ge7 O100 1.913353 1_555
Ge7 O97 1.913354 1_555
Ge8 O44 1.940089 1_555
Ge8 O42 1.940089 1_444
Ge8 O40 1.940089 1_445
Ge8 O38 1.940089 1_554
Ge8 O36 1.940089 1_454
Ge8 O37 1.940089 1_545
Ge9 O41 1.940089 1_555
Ge9 O39 1.940089 1_445
Ge9 O47 1.940089 1_445
Ge9 O46 1.940089 1_555
Ge9 O43 1.940089 1_545
Ge9 O45 1.940089 1_455
Ge10 O72 1.774548 1_545
Ge10 O36 1.774670 1_555
Ge10 O48 1.818288 1_555
Ge10 O12 1.821241 1_545
Ge11 O73 1.774548 1_565
Ge11 O37 1.774670 1_555
Ge11 O49 1.818288 1_555
Ge11 O13 1.821241 1_565
Ge12 O74 1.774548 1_555
Ge12 O38 1.774670 1_555
Ge12 O50 1.818288 1_555
Ge12 O14 1.821241 1_555
Ge13 O75 1.774548 1_565
Ge13 O39 1.774670 1_555
Ge13 O51 1.818288 1_555
Ge13 O15 1.821241 1_565
Ge14 O76 1.774548 1_555
Ge14 O40 1.774670 1_555
Ge14 O52 1.818288 1_555
Ge14 O16 1.821241 1_555
Ge15 O77 1.774548 1_545
Ge15 O41 1.774670 1_555
Ge15 O53 1.818288 1_555
Ge15 O17 1.821241 1_545
Ge16 O78 1.774548 1_655
Ge16 O42 1.774670 1_555
Ge16 O54 1.818288 1_555
Ge16 O18 1.821241 1_655
Ge17 O79 1.774548 1_455
Ge17 O43 1.774670 1_555
Ge17 O55 1.818288 1_555
Ge17 O19 1.821241 1_455
Ge18 O80 1.774548 1_455
Ge18 O44 1.774670 1_555
Ge18 O56 1.818288 1_555
Ge18 O20 1.821241 1_455
Ge19 O81 1.774548 1_655
Ge19 O45 1.774670 1_555
Ge19 O57 1.818288 1_555
Ge19 O21 1.821241 1_655
Ge20 O82 1.774548 1_555
Ge20 O46 1.774670 1_555
Ge20 O58 1.818288 1_555
Ge20 O22 1.821241 1_555
Ge21 O83 1.774548 1_555
Ge21 O47 1.774670 1_555
Ge21 O59 1.818288 1_555
Ge21 O23 1.821241 1_555
Ge22 O0 1.749313 1_555
Ge22 O26 1.760033 1_555
Ge22 O66 1.791510 1_545
Ge22 O48 1.800588 1_555
Ge23 O1 1.749313 1_555
Ge23 O28 1.760033 1_555
Ge23 O68 1.791510 1_565
Ge23 O49 1.800588 1_555
Ge24 O2 1.749313 1_555
Ge24 O30 1.760033 1_555
Ge24 O60 1.791510 1_555
Ge24 O50 1.800588 1_555
Ge25 O3 1.749313 1_555
Ge25 O31 1.760033 1_555
Ge25 O70 1.791510 1_565
Ge25 O51 1.800588 1_555
Ge26 O4 1.749313 1_555
Ge26 O32 1.760033 1_555
Ge26 O61 1.791510 1_555
Ge26 O52 1.800588 1_555
Ge27 O5 1.749313 1_555
Ge27 O33 1.760033 1_555
Ge27 O71 1.791510 1_545
Ge27 O53 1.800588 1_555
Ge28 O6 1.749313 1_555
Ge28 O24 1.760033 1_555
Ge28 O62 1.791510 1_655
Ge28 O54 1.800588 1_555
Ge29 O7 1.749313 1_555
Ge29 O34 1.760033 1_555
Ge29 O63 1.791510 1_455
Ge29 O55 1.800588 1_555
Ge30 O8 1.749313 1_555
Ge30 O25 1.760033 1_555
Ge30 O64 1.791510 1_455
Ge30 O56 1.800588 1_555
Ge31 O9 1.749313 1_555
Ge31 O35 1.760033 1_555
Ge31 O65 1.791510 1_655
Ge31 O57 1.800588 1_555
Ge32 O10 1.749313 1_555
Ge32 O27 1.760033 1_555
Ge32 O67 1.791510 1_555
Ge32 O58 1.800588 1_555
Ge33 O11 1.749313 1_555
Ge33 O29 1.760033 1_555
Ge33 O69 1.791510 1_555
Ge33 O59 1.800588 1_555
Ge34 O90 1.753922 1_555
Ge34 O96 1.763290 1_555
Ge34 O66 1.779705 1_555
Ge34 O12 1.805744 1_555
Ge35 O92 1.753922 1_555
Ge35 O97 1.763290 1_555
Ge35 O68 1.779705 1_555
Ge35 O13 1.805744 1_555
Ge36 O84 1.753922 1_555
Ge36 O98 1.763290 1_555
Ge36 O60 1.779705 1_555
Ge36 O14 1.805744 1_555
Ge37 O94 1.753922 1_555
Ge37 O99 1.763290 1_555
Ge37 O70 1.779705 1_555
Ge37 O15 1.805744 1_555
Ge38 O85 1.753922 1_555
Ge38 O100 1.763290 1_555
Ge38 O61 1.779705 1_555
Ge38 O16 1.805744 1_555
Ge39 O95 1.753922 1_555
Ge39 O101 1.763290 1_555
Ge39 O71 1.779705 1_555
Ge39 O17 1.805744 1_555
Ge40 O86 1.753922 1_555
Ge40 O102 1.763290 1_555
Ge40 O62 1.779705 1_555
Ge40 O18 1.805744 1_555
Ge41 O87 1.753922 1_555
Ge41 O103 1.763290 1_555
Ge41 O63 1.779705 1_555
Ge41 O19 1.805744 1_555
Ge42 O88 1.753922 1_555
Ge42 O104 1.763290 1_555
Ge42 O64 1.779705 1_555
Ge42 O20 1.805744 1_555
Ge43 O89 1.753922 1_555
Ge43 O105 1.763290 1_555
Ge43 O65 1.779705 1_555
Ge43 O21 1.805744 1_555
Ge44 O91 1.753922 1_555
Ge44 O106 1.763290 1_555
Ge44 O67 1.779705 1_555
Ge44 O22 1.805744 1_555
Ge45 O93 1.753922 1_555
Ge45 O107 1.763290 1_555
Ge45 O69 1.779705 1_555
Ge45 O23 1.805744 1_555
Ge46 O72 1.931158 1_445
Ge46 O79 1.931158 1_445
Ge46 O82 1.931158 1_555
Ge46 O74 1.931158 1_555
Ge46 O75 1.931158 1_455
Ge46 O78 1.931158 1_545
Ge47 O73 1.931158 1_555
Ge47 O81 1.931158 1_555
Ge47 O76 1.931158 1_445
Ge47 O83 1.931158 1_445
Ge47 O80 1.931158 1_455
Ge47 O77 1.931158 1_545
