# generated using pymatgen
data_Ba3AlP3
_symmetry_space_group_name_H-M   'P 1'
_cell_length_a   10.32194543
_cell_length_b   10.32194543
_cell_length_c   13.08653444
_cell_angle_alpha   90.00000000
_cell_angle_beta   90.00000000
_cell_angle_gamma   141.49245509
_symmetry_Int_Tables_number   1
_chemical_formula_structural   Ba3AlP3
_chemical_formula_sum   'Ba12 Al4 P12'
_cell_volume   868.09893720
_cell_formula_units_Z   4
loop_
 _symmetry_equiv_pos_site_id
 _symmetry_equiv_pos_as_xyz
  1  'x, y, z'
loop_
 _atom_site_type_symbol
 _atom_site_label
 _atom_site_symmetry_multiplicity
 _atom_site_fract_x
 _atom_site_fract_y
 _atom_site_fract_z
 _atom_site_occupancy
  Ba  Ba0  1  0.83769068  0.83769068  0.34457038  1
  Ba  Ba1  1  0.16230932  0.16230932  0.65542962  1
  Ba  Ba2  1  0.66230932  0.66230932  0.84457038  1
  Ba  Ba3  1  0.33769068  0.33769068  0.15542962  1
  Ba  Ba4  1  0.86019576  0.50796022  0.13023720  1
  Ba  Ba5  1  0.49203978  0.13980424  0.86976280  1
  Ba  Ba6  1  0.99203978  0.63980424  0.63023720  1
  Ba  Ba7  1  0.36019576  0.00796022  0.36976280  1
  Ba  Ba8  1  0.13980424  0.49203978  0.86976280  1
  Ba  Ba9  1  0.50796022  0.86019576  0.13023720  1
  Ba  Ba10  1  0.00796022  0.36019576  0.36976280  1
  Ba  Ba11  1  0.63980424  0.99203978  0.63023720  1
  Al  Al0  1  0.08175927  0.91824073  -0.00000000  1
  Al  Al1  1  0.58175927  0.41824073  0.50000000  1
  Al  Al2  1  0.91824073  0.08175927  -0.00000000  1
  Al  Al3  1  0.41824073  0.58175927  0.50000000  1
  P  P0  1  0.80027149  0.80027149  0.09168444  1
  P  P1  1  0.19972851  0.19972851  0.90831556  1
  P  P2  1  0.69972851  0.69972851  0.59168444  1
  P  P3  1  0.30027149  0.30027149  0.40831556  1
  P  P4  1  0.03013662  0.33962504  0.11611739  1
  P  P5  1  0.66037496  0.96986338  0.88388261  1
  P  P6  1  0.16037496  0.46986338  0.61611739  1
  P  P7  1  0.53013662  0.83962504  0.38388261  1
  P  P8  1  0.96986338  0.66037496  0.88388261  1
  P  P9  1  0.33962504  0.03013662  0.11611739  1
  P  P10  1  0.83962504  0.53013662  0.38388261  1
  P  P11  1  0.46986338  0.16037496  0.61611739  1
loop_
_geom_bond_atom_site_label_1
_geom_bond_atom_site_label_2
_geom_bond_distance
_geom_bond_site_symmetry_2
Ba0 P10 3.231420 1_555
Ba0 P7 3.231420 1_555
Ba0 P3 3.257586 1_665
Ba0 P0 3.319189 1_555
Ba0 P2 3.367479 1_555
Ba0 P3 3.752321 1_555
Ba1 P11 3.231420 1_555
Ba1 P6 3.231420 1_555
Ba1 P2 3.257586 1_445
Ba1 P1 3.319189 1_555
Ba1 P3 3.367479 1_555
Ba1 P2 3.752321 1_555
Ba2 P8 3.231420 1_555
Ba2 P5 3.231420 1_555
Ba2 P1 3.257586 1_555
Ba2 P2 3.319189 1_555
Ba2 P0 3.367479 1_556
Ba2 P1 3.752321 1_665
Ba3 P9 3.231420 1_555
Ba3 P4 3.231420 1_555
Ba3 P0 3.257586 1_555
Ba3 P3 3.319189 1_555
Ba3 P1 3.367479 1_554
Ba3 P0 3.752321 1_445
Ba4 P4 3.301548 1_655
Ba4 P10 3.345379 1_555
Ba4 P8 3.370901 1_554
Ba4 P9 3.428643 1_555
Ba4 P9 3.439477 1_665
Ba4 P0 3.558306 1_555
Ba5 P5 3.301548 1_545
Ba5 P11 3.345379 1_555
Ba5 P9 3.370901 1_556
Ba5 P8 3.428643 1_555
Ba5 P8 3.439477 1_445
Ba5 P1 3.558306 1_555
Ba6 P6 3.301548 1_655
Ba6 P8 3.345379 1_555
Ba6 P10 3.370901 1_555
Ba6 P11 3.428643 1_665
Ba6 P11 3.439477 1_555
Ba6 P2 3.558306 1_555
Ba7 P7 3.301548 1_545
Ba7 P9 3.345379 1_555
Ba7 P11 3.370901 1_555
Ba7 P10 3.428643 1_445
Ba7 P10 3.439477 1_555
Ba7 P3 3.558306 1_555
Ba8 P8 3.301548 1_455
Ba8 P6 3.345379 1_555
Ba8 P4 3.370901 1_556
Ba8 P5 3.428643 1_555
Ba8 P5 3.439477 1_445
Ba8 P1 3.558306 1_555
Ba9 P9 3.301548 1_565
Ba9 P7 3.345379 1_555
Ba9 P5 3.370901 1_554
Ba9 P4 3.428643 1_555
Ba9 P4 3.439477 1_665
Ba9 P0 3.558306 1_555
Ba10 P10 3.301548 1_455
Ba10 P4 3.345379 1_555
Ba10 P6 3.370901 1_555
Ba10 P7 3.428643 1_445
Ba10 P7 3.439477 1_555
Ba10 P3 3.558306 1_555
Ba11 P11 3.301548 1_565
Ba11 P5 3.345379 1_555
Ba11 P7 3.370901 1_555
Ba11 P6 3.428643 1_665
Ba11 P6 3.439477 1_555
Ba11 P2 3.558306 1_555
Al0 P1 2.413957 1_564
Al0 P0 2.413957 1_455
Al0 P8 2.432353 1_454
Al0 P9 2.432353 1_565
Al0 Ba4 3.303291 1_455
Al0 Ba5 3.303291 1_564
Al1 P3 2.413957 1_555
Al1 P2 2.413957 1_555
Al1 P10 2.432353 1_555
Al1 P11 2.432353 1_555
Al1 Ba6 3.303291 1_555
Al1 Ba7 3.303291 1_555
Al2 P1 2.413957 1_654
Al2 P0 2.413957 1_545
Al2 P5 2.432353 1_544
Al2 P4 2.432353 1_655
Al2 Ba9 3.303291 1_545
Al2 Ba8 3.303291 1_654
Al3 P2 2.413957 1_555
Al3 P3 2.413957 1_555
Al3 P6 2.432353 1_555
Al3 P7 2.432353 1_555
Al3 Ba11 3.303291 1_555
Al3 Ba10 3.303291 1_555
