# generated using pymatgen
data_Ba11Cu5Bi8O29
_symmetry_space_group_name_H-M   'P 1'
_cell_length_a   5.28831600
_cell_length_b   12.68547966
_cell_length_c   14.27276313
_cell_angle_alpha   90.04356731
_cell_angle_beta   100.67623375
_cell_angle_gamma   90.00000000
_symmetry_Int_Tables_number   1
_chemical_formula_structural   Ba11Cu5Bi8O29
_chemical_formula_sum   'Ba11 Cu5 Bi8 O29'
_cell_volume   940.91119451
_cell_formula_units_Z   1
loop_
 _symmetry_equiv_pos_site_id
 _symmetry_equiv_pos_as_xyz
  1  'x, y, z'
loop_
 _atom_site_type_symbol
 _atom_site_label
 _atom_site_symmetry_multiplicity
 _atom_site_fract_x
 _atom_site_fract_y
 _atom_site_fract_z
 _atom_site_occupancy
  Ba  Ba0  1  0.02956400  0.23221500  0.05912800  1
  Ba  Ba1  1  0.97043600  0.76778500  0.94087200  1
  Ba  Ba2  1  0.43456700  0.54733300  0.86913400  1
  Ba  Ba3  1  0.56543300  0.45266700  0.13086600  1
  Ba  Ba4  1  0.36380000  0.14865000  0.72760100  1
  Ba  Ba5  1  0.63620000  0.85135000  0.27239900  1
  Ba  Ba6  1  0.10123600  0.65640000  0.20247100  1
  Ba  Ba7  1  0.89876400  0.34360000  0.79752900  1
  Ba  Ba8  1  0.19933900  0.05005200  0.39867800  1
  Ba  Ba9  1  0.80066100  0.94994800  0.60132200  1
  Ba  Ba10  1  0.50000000  0.00000000  0.00000000  1
  Cu  Cu0  1  0.46988100  0.28610400  0.93976100  1
  Cu  Cu1  1  0.53011900  0.71389600  0.06023900  1
  Cu  Cu2  1  0.00000000  0.50000000  0.00000000  1
  Cu  Cu3  1  0.93302800  0.07998700  0.86605600  1
  Cu  Cu4  1  0.06697200  0.92001300  0.13394400  1
  Bi  Bi0  1  0.16471900  0.36847000  0.32943800  1
  Bi  Bi1  1  0.83528100  0.63153000  0.67056200  1
  Bi  Bi2  1  0.25151100  0.73464600  0.50302300  1
  Bi  Bi3  1  0.74848900  0.26535400  0.49697700  1
  Bi  Bi4  1  0.62241900  0.17813500  0.24483700  1
  Bi  Bi5  1  0.37758100  0.82186500  0.75516300  1
  Bi  Bi6  1  0.29647600  0.42517400  0.59295200  1
  Bi  Bi7  1  0.70352400  0.57482600  0.40704800  1
  O  O0  1  0.26065300  0.26369400  0.52130500  1
  O  O1  1  0.73934700  0.73630600  0.47869500  1
  O  O2  1  0.68575400  0.18740800  0.89453200  1
  O  O3  1  0.31424600  0.81259200  0.10546800  1
  O  O4  1  0.79122200  0.81259200  0.10546800  1
  O  O5  1  0.20877800  0.18740800  0.89453200  1
  O  O6  1  0.36665300  0.37221300  0.73330600  1
  O  O7  1  0.63334700  0.62778700  0.26669400  1
  O  O8  1  0.72348800  0.09526800  0.44697700  1
  O  O9  1  0.27651200  0.90473200  0.55302300  1
  O  O10  1  0.26437300  0.60336400  0.03628200  1
  O  O11  1  0.73562700  0.39663600  0.96371800  1
  O  O12  1  0.22809100  0.39663600  0.96371800  1
  O  O13  1  0.77190900  0.60336400  0.03628200  1
  O  O14  1  0.55311500  0.24088700  0.10623100  1
  O  O15  1  0.44688500  0.75911300  0.89376900  1
  O  O16  1  0.31787200  0.63524500  0.63574400  1
  O  O17  1  0.68212800  0.36475500  0.36425600  1
  O  O18  1  0.13461100  0.20900000  0.26922300  1
  O  O19  1  0.86538900  0.79100000  0.73077700  1
  O  O20  1  0.20113400  0.57992400  0.40226800  1
  O  O21  1  0.79886600  0.42007600  0.59773200  1
  O  O22  1  0.40401600  0.97089100  0.80803100  1
  O  O23  1  0.59598400  0.02910900  0.19196900  1
  O  O24  1  0.09656300  0.43329700  0.19312500  1
  O  O25  1  0.90343700  0.56670300  0.80687500  1
  O  O26  1  0.86444300  0.10182500  0.72888500  1
  O  O27  1  0.13555700  0.89817500  0.27111500  1
  O  O28  1  0.00000000  0.00000000  0.00000000  1
loop_
_geom_bond_atom_site_label_1
_geom_bond_atom_site_label_2
_geom_bond_distance
_geom_bond_site_symmetry_2
Ba0 O14 2.727638 1_555
Ba0 O14 2.727643 1_455
Ba0 O2 2.750115 1_454
Ba0 O5 2.750115 1_554
Ba0 O12 2.800191 1_554
Ba0 O11 2.800191 1_454
Ba0 O18 2.961635 1_555
Ba0 O28 3.059652 1_555
Ba0 O24 3.167242 1_555
Ba1 O15 2.727638 1_555
Ba1 O15 2.727643 1_655
Ba1 O3 2.750115 1_656
Ba1 O4 2.750115 1_556
Ba1 O10 2.800191 1_656
Ba1 O13 2.800191 1_556
Ba1 O19 2.961635 1_555
Ba1 O28 3.059652 1_666
Ba1 O25 3.167242 1_555
Ba2 O11 2.686866 1_555
Ba2 O12 2.686866 1_555
Ba2 O15 2.708394 1_555
Ba2 O13 2.792788 1_556
Ba2 O10 2.792788 1_556
Ba2 O25 2.795495 1_555
Ba2 O25 2.795500 1_455
Ba2 O6 2.925366 1_555
Ba3 O13 2.686866 1_555
Ba3 O10 2.686866 1_555
Ba3 O14 2.708394 1_555
Ba3 O11 2.792788 1_554
Ba3 O12 2.792788 1_554
Ba3 O24 2.795495 1_555
Ba3 O24 2.795500 1_655
Ba3 O7 2.925366 1_555
Ba4 O22 2.522172 1_545
Ba4 O5 2.704139 1_555
Ba4 O2 2.704141 1_555
Ba4 O26 2.710114 1_455
Ba4 O26 2.710124 1_555
Ba4 O6 2.837071 1_555
Ba4 O0 3.241662 1_555
Ba5 O23 2.522172 1_565
Ba5 O4 2.704139 1_555
Ba5 O3 2.704141 1_555
Ba5 O27 2.710114 1_655
Ba5 O27 2.710124 1_555
Ba5 O7 2.837071 1_555
Ba5 O1 3.241662 1_555
Ba6 O10 2.752995 1_555
Ba6 O13 2.752998 1_455
Ba6 O3 2.773738 1_555
Ba6 O4 2.773740 1_455
Ba6 O7 2.816949 1_555
Ba6 O7 2.816954 1_455
Ba6 O24 2.833101 1_555
Ba6 O20 2.966178 1_555
Ba6 O27 3.213885 1_555
Ba7 O11 2.752995 1_555
Ba7 O12 2.752998 1_655
Ba7 O2 2.773738 1_555
Ba7 O5 2.773740 1_655
Ba7 O6 2.816949 1_555
Ba7 O6 2.816954 1_655
Ba7 O25 2.833101 1_555
Ba7 O21 2.966178 1_555
Ba7 O26 3.213885 1_555
Ba8 O27 2.628245 1_545
Ba8 O18 2.714408 1_555
Ba8 O8 2.789062 1_555
Ba8 O8 2.789067 1_455
Ba8 O9 2.844440 1_545
Ba8 O0 3.208717 1_555
Ba9 O26 2.628245 1_565
Ba9 O19 2.714408 1_555
Ba9 O9 2.789062 1_555
Ba9 O9 2.789067 1_655
Ba9 O8 2.844440 1_565
Ba9 O1 3.208717 1_555
Ba10 O28 2.644158 1_655
Ba10 O28 2.644158 1_555
Ba10 O23 2.717419 1_555
Ba10 O22 2.717419 1_544
Cu0 O2 1.886619 1_555
Cu0 O5 1.886623 1_555
Cu0 O11 1.969562 1_555
Cu0 O12 1.969566 1_555
Cu0 O14 2.404714 1_556
Cu1 O3 1.886619 1_555
Cu1 O4 1.886623 1_555
Cu1 O10 1.969562 1_555
Cu1 O13 1.969566 1_555
Cu1 O15 2.404714 1_554
Cu2 O10 1.916463 1_555
Cu2 O13 1.916463 1_455
Cu2 O12 1.916463 1_554
Cu2 O11 1.916463 1_454
Cu3 O26 1.943973 1_555
Cu3 O5 1.981959 1_655
Cu3 O2 1.981959 1_555
Cu3 O28 2.135853 1_656
Cu4 O27 1.943973 1_555
Cu4 O3 1.981959 1_555
Cu4 O4 1.981959 1_455
Cu4 O28 2.135853 1_565
Bi0 O24 2.081830 1_555
Bi0 O18 2.191569 1_555
Bi0 O17 2.689296 1_455
Bi0 O17 2.689296 1_555
Bi0 O20 2.869573 1_555
Bi1 O25 2.081830 1_555
Bi1 O19 2.191569 1_555
Bi1 O16 2.689296 1_555
Bi1 O16 2.689296 1_655
Bi1 O21 2.869573 1_555
Bi2 O16 2.249183 1_555
Bi2 O9 2.268214 1_555
Bi2 O20 2.417645 1_555
Bi2 O1 2.666169 1_555
Bi2 O1 2.666169 1_455
Bi3 O17 2.249183 1_555
Bi3 O8 2.268214 1_555
Bi3 O21 2.417645 1_555
Bi3 O0 2.666169 1_655
Bi3 O0 2.666169 1_555
Bi4 O23 2.030156 1_555
Bi4 O14 2.101282 1_555
Bi4 O18 2.694740 1_655
Bi4 O18 2.694750 1_555
Bi5 O22 2.030156 1_555
Bi5 O15 2.101282 1_555
Bi5 O19 2.694740 1_455
Bi5 O19 2.694750 1_555
Bi6 O6 2.080541 1_555
Bi6 O0 2.280962 1_555
Bi6 O21 2.645800 1_455
Bi6 O21 2.645800 1_555
Bi6 O16 2.731150 1_555
Bi7 O7 2.080541 1_555
Bi7 O1 2.280962 1_555
Bi7 O20 2.645800 1_655
Bi7 O20 2.645800 1_555
Bi7 O17 2.731150 1_555
