# generated using pymatgen
data_SmSiPd
_symmetry_space_group_name_H-M   'P 1'
_cell_length_a   4.37471357
_cell_length_b   7.50498548
_cell_length_c   21.49178618
_cell_angle_alpha   90.00000000
_cell_angle_beta   90.00000000
_cell_angle_gamma   90.00000000
_symmetry_Int_Tables_number   1
_chemical_formula_structural   SmSiPd
_chemical_formula_sum   'Sm12 Si12 Pd12'
_cell_volume   705.62180171
_cell_formula_units_Z   12
loop_
 _symmetry_equiv_pos_site_id
 _symmetry_equiv_pos_as_xyz
  1  'x, y, z'
loop_
 _atom_site_type_symbol
 _atom_site_label
 _atom_site_symmetry_multiplicity
 _atom_site_fract_x
 _atom_site_fract_y
 _atom_site_fract_z
 _atom_site_occupancy
  Sm  Sm0  1  0.25000000  0.70569468  0.33265889  1
  Sm  Sm1  1  0.75000000  0.29430532  0.66734111  1
  Sm  Sm2  1  0.75000000  0.20569468  0.16734111  1
  Sm  Sm3  1  0.25000000  0.79430532  0.83265889  1
  Sm  Sm4  1  0.25000000  0.79500357  0.16609581  1
  Sm  Sm5  1  0.75000000  0.20499643  0.83390419  1
  Sm  Sm6  1  0.75000000  0.29500357  0.33390419  1
  Sm  Sm7  1  0.25000000  0.70499643  0.66609581  1
  Sm  Sm8  1  0.25000000  0.71209343  0.00169966  1
  Sm  Sm9  1  0.75000000  0.28790657  0.99830034  1
  Sm  Sm10  1  0.75000000  0.21209343  0.49830034  1
  Sm  Sm11  1  0.25000000  0.78790657  0.50169966  1
  Si  Si0  1  0.25000000  0.09187665  0.07133030  1
  Si  Si1  1  0.75000000  0.90812335  0.92866970  1
  Si  Si2  1  0.75000000  0.59187665  0.42866970  1
  Si  Si3  1  0.25000000  0.40812335  0.57133030  1
  Si  Si4  1  0.25000000  0.08582301  0.27223699  1
  Si  Si5  1  0.75000000  0.91417699  0.72776301  1
  Si  Si6  1  0.75000000  0.58582301  0.22776301  1
  Si  Si7  1  0.25000000  0.41417699  0.77223699  1
  Si  Si8  1  0.25000000  0.08642870  0.39426942  1
  Si  Si9  1  0.75000000  0.91357130  0.60573058  1
  Si  Si10  1  0.75000000  0.58642870  0.10573058  1
  Si  Si11  1  0.25000000  0.41357130  0.89426942  1
  Pd  Pd0  1  0.25000000  0.41761717  0.23701058  1
  Pd  Pd1  1  0.75000000  0.58238283  0.76298942  1
  Pd  Pd2  1  0.75000000  0.91761717  0.26298942  1
  Pd  Pd3  1  0.25000000  0.08238283  0.73701058  1
  Pd  Pd4  1  0.25000000  0.41772722  0.43677747  1
  Pd  Pd5  1  0.75000000  0.58227278  0.56322253  1
  Pd  Pd6  1  0.75000000  0.91772722  0.06322253  1
  Pd  Pd7  1  0.25000000  0.08227278  0.93677747  1
  Pd  Pd8  1  0.25000000  0.42066480  0.09396058  1
  Pd  Pd9  1  0.75000000  0.57933520  0.90603942  1
  Pd  Pd10  1  0.75000000  0.92066480  0.40603942  1
  Pd  Pd11  1  0.25000000  0.07933520  0.59396058  1
loop_
_geom_bond_atom_site_label_1
_geom_bond_atom_site_label_2
_geom_bond_distance
_geom_bond_site_symmetry_2
Si0 Sm4 3.018638 1_545
Si0 Sm9 3.067969 1_554
Si0 Sm9 3.067969 1_454
Si0 Sm2 3.126019 1_455
Si0 Sm2 3.126019 1_555
Si0 Sm8 3.219239 1_545
Si1 Sm5 3.018638 1_565
Si1 Sm8 3.067969 1_556
Si1 Sm8 3.067969 1_656
Si1 Sm3 3.126019 1_555
Si1 Sm3 3.126019 1_655
Si1 Sm9 3.219239 1_565
Si2 Sm6 3.018638 1_555
Si2 Sm11 3.067969 1_555
Si2 Sm11 3.067969 1_655
Si2 Sm0 3.126019 1_655
Si2 Sm0 3.126019 1_555
Si2 Sm10 3.219239 1_555
Si3 Sm7 3.018638 1_555
Si3 Sm10 3.067969 1_455
Si3 Sm10 3.067969 1_555
Si3 Sm1 3.126019 1_555
Si3 Sm1 3.126019 1_455
Si3 Sm11 3.219239 1_555
Si4 Si8 2.622699 1_555
Si4 Sm6 3.000938 1_555
Si4 Sm6 3.000938 1_455
Si4 Sm0 3.134500 1_545
Si4 Sm4 3.157124 1_545
Si4 Sm2 3.267444 1_555
Si4 Sm2 3.267444 1_455
Si5 Si9 2.622699 1_555
Si5 Sm7 3.000938 1_555
Si5 Sm7 3.000938 1_655
Si5 Sm1 3.134500 1_565
Si5 Sm5 3.157124 1_565
Si5 Sm3 3.267444 1_655
Si5 Sm3 3.267444 1_555
Si6 Sm4 3.000938 1_555
Si6 Sm4 3.000938 1_655
Si6 Sm2 3.134500 1_555
Si6 Sm6 3.157124 1_555
Si6 Sm0 3.267444 1_555
Si6 Sm0 3.267444 1_655
Si7 Sm5 3.000938 1_455
Si7 Sm5 3.000938 1_555
Si7 Sm3 3.134500 1_555
Si7 Sm7 3.157124 1_555
Si7 Sm1 3.267444 1_555
Si7 Sm1 3.267444 1_455
Si8 Sm6 2.986300 1_455
Si8 Sm6 2.986300 1_555
Si8 Sm0 3.149293 1_545
Si8 Sm11 3.217185 1_545
Si8 Sm10 3.266931 1_555
Si8 Sm10 3.266931 1_455
Si9 Sm7 2.986300 1_555
Si9 Sm7 2.986300 1_655
Si9 Sm1 3.149293 1_565
Si9 Sm10 3.217185 1_565
Si9 Sm11 3.266931 1_555
Si9 Sm11 3.266931 1_655
Si10 Si6 2.622699 1_555
Si10 Sm4 2.986300 1_555
Si10 Sm4 2.986300 1_655
Si10 Sm2 3.149293 1_555
Si10 Sm9 3.217185 1_554
Si10 Sm8 3.266931 1_655
Si10 Sm8 3.266931 1_555
Si11 Si7 2.622699 1_555
Si11 Sm5 2.986300 1_455
Si11 Sm5 2.986300 1_555
Si11 Sm3 3.149293 1_555
Si11 Sm8 3.217185 1_556
Si11 Sm9 3.266931 1_455
Si11 Sm9 3.266931 1_555
Pd0 Si6 2.533306 1_455
Pd0 Si6 2.533306 1_555
Pd0 Si4 2.602656 1_555
Pd0 Sm0 2.983292 1_555
Pd0 Pd8 3.074485 1_555
Pd0 Sm2 3.091296 1_455
Pd0 Sm2 3.091296 1_555
Pd0 Sm6 3.157179 1_455
Pd0 Sm6 3.157179 1_555
Pd0 Sm4 3.216309 1_555
Pd1 Si7 2.533306 1_655
Pd1 Si7 2.533306 1_555
Pd1 Si5 2.602656 1_555
Pd1 Sm1 2.983292 1_555
Pd1 Pd9 3.074485 1_555
Pd1 Sm3 3.091296 1_555
Pd1 Sm3 3.091296 1_655
Pd1 Sm7 3.157179 1_555
Pd1 Sm7 3.157179 1_655
Pd1 Sm5 3.216309 1_555
Pd2 Si4 2.533306 1_665
Pd2 Si4 2.533306 1_565
Pd2 Si6 2.602656 1_555
Pd2 Sm2 2.983292 1_565
Pd2 Sm0 3.091296 1_555
Pd2 Sm0 3.091296 1_655
Pd2 Sm4 3.157179 1_655
Pd2 Sm4 3.157179 1_555
Pd2 Sm6 3.216309 1_565
Pd3 Si5 2.533306 1_445
Pd3 Si5 2.533306 1_545
Pd3 Si7 2.602656 1_555
Pd3 Sm3 2.983292 1_545
Pd3 Sm1 3.091296 1_555
Pd3 Sm1 3.091296 1_455
Pd3 Sm5 3.157179 1_455
Pd3 Sm5 3.157179 1_555
Pd3 Sm7 3.216309 1_545
Pd4 Si2 2.554039 1_555
Pd4 Si2 2.554039 1_455
Pd4 Si8 2.648916 1_555
Pd4 Si3 2.892679 1_555
Pd4 Sm10 2.985724 1_555
Pd4 Sm10 2.985724 1_455
Pd4 Sm11 3.108889 1_555
Pd4 Sm0 3.110952 1_555
Pd4 Sm6 3.243618 1_455
Pd4 Sm6 3.243618 1_555
Pd5 Si3 2.554039 1_655
Pd5 Si3 2.554039 1_555
Pd5 Si9 2.648916 1_555
Pd5 Si2 2.892679 1_555
Pd5 Sm11 2.985724 1_655
Pd5 Sm11 2.985724 1_555
Pd5 Sm10 3.108889 1_555
Pd5 Sm1 3.110952 1_555
Pd5 Sm7 3.243618 1_655
Pd5 Sm7 3.243618 1_555
Pd6 Si0 2.554039 1_665
Pd6 Si0 2.554039 1_565
Pd6 Si10 2.648916 1_555
Pd6 Si1 2.892679 1_554
Pd6 Sm8 2.985724 1_655
Pd6 Sm8 2.985724 1_555
Pd6 Sm9 3.108889 1_564
Pd6 Sm2 3.110952 1_565
Pd6 Sm4 3.243618 1_555
Pd6 Sm4 3.243618 1_655
Pd7 Si1 2.554039 1_545
Pd7 Si1 2.554039 1_445
Pd7 Si11 2.648916 1_555
Pd7 Si0 2.892679 1_556
Pd7 Sm9 2.985724 1_455
Pd7 Sm9 2.985724 1_555
Pd7 Sm8 3.108889 1_546
Pd7 Sm3 3.110952 1_545
Pd7 Sm5 3.243618 1_555
Pd7 Sm5 3.243618 1_455
Pd8 Si0 2.515026 1_555
Pd8 Si10 2.529069 1_455
Pd8 Si10 2.529069 1_555
Pd8 Sm8 2.952186 1_555
Pd8 Sm2 3.142387 1_555
Pd8 Sm2 3.142387 1_455
Pd8 Sm9 3.162911 1_554
Pd8 Sm9 3.162911 1_454
Pd8 Sm4 3.208776 1_555
Pd9 Si1 2.515026 1_555
Pd9 Si11 2.529069 1_555
Pd9 Si11 2.529069 1_655
Pd9 Sm9 2.952186 1_555
Pd9 Sm3 3.142387 1_555
Pd9 Sm3 3.142387 1_655
Pd9 Sm8 3.162911 1_556
Pd9 Sm8 3.162911 1_656
Pd9 Sm5 3.208776 1_555
Pd10 Si2 2.515026 1_555
Pd10 Si8 2.529069 1_565
Pd10 Si8 2.529069 1_665
Pd10 Sm10 2.952186 1_565
Pd10 Pd2 3.074485 1_555
Pd10 Sm0 3.142387 1_655
Pd10 Sm0 3.142387 1_555
Pd10 Sm11 3.162911 1_555
Pd10 Sm11 3.162911 1_655
Pd10 Sm6 3.208776 1_565
Pd11 Si3 2.515026 1_555
Pd11 Si9 2.529069 1_445
Pd11 Si9 2.529069 1_545
Pd11 Sm11 2.952186 1_545
Pd11 Pd3 3.074485 1_555
Pd11 Sm1 3.142387 1_555
Pd11 Sm1 3.142387 1_455
Pd11 Sm10 3.162911 1_455
Pd11 Sm10 3.162911 1_555
Pd11 Sm7 3.208776 1_545
