# generated using pymatgen
data_Mn3(O2F)2
_symmetry_space_group_name_H-M   'P 1'
_cell_length_a   4.67195735
_cell_length_b   9.02625552
_cell_length_c   4.67178735
_cell_angle_alpha   90.84945694
_cell_angle_beta   88.83000027
_cell_angle_gamma   90.71929717
_symmetry_Int_Tables_number   1
_chemical_formula_structural   Mn3(O2F)2
_chemical_formula_sum   'Mn6 O8 F4'
_cell_volume   196.93307301
_cell_formula_units_Z   2
loop_
 _symmetry_equiv_pos_site_id
 _symmetry_equiv_pos_as_xyz
  1  'x, y, z'
loop_
 _atom_site_type_symbol
 _atom_site_label
 _atom_site_symmetry_multiplicity
 _atom_site_fract_x
 _atom_site_fract_y
 _atom_site_fract_z
 _atom_site_occupancy
  Mn  Mn0  1  0.00442300  0.65226700  0.00518100  1
  Mn  Mn1  1  0.50227700  0.14855800  0.50342100  1
  Mn  Mn2  1  0.50795500  0.51436700  0.50767400  1
  Mn  Mn3  1  0.00530200  0.33393600  0.00354600  1
  Mn  Mn4  1  0.49095900  0.83263200  0.49142400  1
  Mn  Mn5  1  0.99813600  0.01644300  0.99882300  1
  O  O0  1  0.80415300  0.16992800  0.20256000  1
  O  O1  1  0.80874500  0.49982000  0.19089400  1
  O  O2  1  0.31488800  0.00005700  0.31500500  1
  O  O3  1  0.28828500  0.66961800  0.28879100  1
  O  O4  1  0.67986600  0.99877100  0.68007600  1
  O  O5  1  0.69427300  0.66898900  0.69484300  1
  O  O6  1  0.20401600  0.17012800  0.80261400  1
  O  O7  1  0.19105200  0.49993600  0.80850700  1
  F  F0  1  0.81540400  0.83425500  0.17550600  1
  F  F1  1  0.32778800  0.33233000  0.32725100  1
  F  F2  1  0.68805400  0.32280700  0.68755100  1
  F  F3  1  0.17442200  0.83515900  0.81633600  1
loop_
_geom_bond_atom_site_label_1
_geom_bond_atom_site_label_2
_geom_bond_distance
_geom_bond_site_symmetry_2
Mn0 O1 1.858327 1_455
Mn0 O7 1.858755 1_554
Mn0 O3 1.897165 1_555
Mn0 O5 2.078989 1_454
Mn1 O4 1.812913 1_545
Mn1 O2 1.817964 1_555
Mn1 O6 1.962803 1_555
Mn1 O0 1.980441 1_555
Mn2 O5 1.853260 1_555
Mn2 O1 2.023901 1_555
Mn2 O7 2.024810 1_555
Mn2 O3 2.045513 1_555
Mn3 O7 1.950378 1_554
Mn3 O1 1.952980 1_455
Mn3 O6 1.971541 1_554
Mn3 O0 1.977196 1_455
Mn4 O2 1.932764 1_565
Mn4 O4 1.940070 1_555
Mn4 O3 1.979422 1_555
Mn4 O5 2.025062 1_555
Mn5 O0 1.898372 1_556
Mn5 O6 1.912574 1_655
Mn5 O2 2.120143 1_656
Mn5 O4 2.128696 1_545
F0 Mn0 2.019988 1_655
F0 Mn5 2.022543 1_564
F0 Mn4 2.094004 1_555
F1 Mn2 2.017918 1_555
F1 Mn1 2.048242 1_555
F1 Mn3 2.156714 1_555
F2 Mn1 1.980693 1_555
F2 Mn3 2.113643 1_656
F2 Mn2 2.124225 1_555
F3 Mn5 2.011584 1_465
F3 Mn0 2.028803 1_556
F3 Mn4 2.097555 1_555
