# generated using pymatgen
data_Na3TmCl6
_symmetry_space_group_name_H-M   'P 1'
_cell_length_a   6.74769932
_cell_length_b   7.21932256
_cell_length_c   10.04267185
_cell_angle_alpha   90.00000000
_cell_angle_beta   90.99003866
_cell_angle_gamma   90.00000000
_symmetry_Int_Tables_number   1
_chemical_formula_structural   Na3TmCl6
_chemical_formula_sum   'Na6 Tm2 Cl12'
_cell_volume   489.14385498
_cell_formula_units_Z   2
loop_
 _symmetry_equiv_pos_site_id
 _symmetry_equiv_pos_as_xyz
  1  'x, y, z'
loop_
 _atom_site_type_symbol
 _atom_site_label
 _atom_site_symmetry_multiplicity
 _atom_site_fract_x
 _atom_site_fract_y
 _atom_site_fract_z
 _atom_site_occupancy
  Na  Na0  1  0.00000000  0.00000000  0.50000000  1
  Na  Na1  1  0.50000000  0.50000000  0.00000000  1
  Na  Na2  1  0.97099562  0.58236441  0.26007580  1
  Na  Na3  1  0.02900438  0.41763559  0.73992420  1
  Na  Na4  1  0.52900438  0.08236441  0.23992420  1
  Na  Na5  1  0.47099562  0.91763559  0.76007580  1
  Tm  Tm0  1  0.00000000  0.00000000  0.00000000  1
  Tm  Tm1  1  0.50000000  0.50000000  0.50000000  1
  Cl  Cl0  1  0.83183831  0.30295884  0.07979768  1
  Cl  Cl1  1  0.16816169  0.69704116  0.92020232  1
  Cl  Cl2  1  0.66816169  0.80295884  0.42020232  1
  Cl  Cl3  1  0.33183831  0.19704116  0.57979768  1
  Cl  Cl4  1  0.14076885  0.93623093  0.23898191  1
  Cl  Cl5  1  0.85923115  0.06376907  0.76101809  1
  Cl  Cl6  1  0.35923115  0.43623093  0.26101809  1
  Cl  Cl7  1  0.64076885  0.56376907  0.73898191  1
  Cl  Cl8  1  0.68482197  0.82060143  0.06351824  1
  Cl  Cl9  1  0.31517803  0.17939857  0.93648176  1
  Cl  Cl10  1  0.81517803  0.32060143  0.43648176  1
  Cl  Cl11  1  0.18482197  0.67939857  0.56351824  1
loop_
_geom_bond_atom_site_label_1
_geom_bond_atom_site_label_2
_geom_bond_distance
_geom_bond_site_symmetry_2
Cl0 Tm0 2.597085 1_655
Cl0 Na1 2.759980 1_555
Cl0 Na2 2.858241 1_555
Cl0 Na4 3.067791 1_555
Cl1 Tm0 2.597085 1_566
Cl1 Na1 2.759980 1_556
Cl1 Na3 2.858241 1_555
Cl1 Na5 3.067791 1_555
Cl2 Tm1 2.597085 1_555
Cl2 Na0 2.759980 1_665
Cl2 Na4 2.858241 1_565
Cl2 Na2 3.067791 1_555
Cl3 Tm1 2.597085 1_555
Cl3 Na0 2.759980 1_555
Cl3 Na5 2.858241 1_545
Cl3 Na3 3.067791 1_555
Cl4 Tm0 2.606815 1_565
Cl4 Na2 2.809268 1_455
Cl4 Na4 2.824011 1_565
Cl4 Na0 2.841046 1_565
Cl5 Tm0 2.606815 1_656
Cl5 Na3 2.809268 1_655
Cl5 Na5 2.824011 1_545
Cl5 Na0 2.841046 1_655
Cl6 Tm1 2.606815 1_555
Cl6 Na4 2.809268 1_555
Cl6 Na2 2.824011 1_455
Cl6 Na1 2.841046 1_555
Cl7 Tm1 2.606815 1_555
Cl7 Na5 2.809268 1_555
Cl7 Na3 2.824011 1_655
Cl7 Na1 2.841046 1_556
Cl8 Tm0 2.579560 1_665
Cl8 Na1 2.700326 1_555
Cl8 Na4 2.807047 1_565
Cl8 Na2 3.232911 1_555
Cl9 Tm0 2.579560 1_556
Cl9 Na1 2.700326 1_556
Cl9 Na5 2.807047 1_545
Cl9 Na3 3.232911 1_555
Cl10 Tm1 2.579560 1_555
Cl10 Na0 2.700326 1_655
Cl10 Na2 2.807047 1_555
Cl10 Na4 3.232911 1_555
Cl11 Tm1 2.579560 1_555
Cl11 Na0 2.700326 1_565
Cl11 Na3 2.807047 1_555
Cl11 Na5 3.232911 1_555
