# generated using pymatgen
data_CeTlSe2
_symmetry_space_group_name_H-M   'P 1'
_cell_length_a   6.72658150
_cell_length_b   6.72658150
_cell_length_c   6.72658150
_cell_angle_alpha   108.38034893
_cell_angle_beta   110.01939474
_cell_angle_gamma   110.01939474
_symmetry_Int_Tables_number   1
_chemical_formula_structural   CeTlSe2
_chemical_formula_sum   'Ce2 Tl2 Se4'
_cell_volume   234.23053946
_cell_formula_units_Z   2
loop_
 _symmetry_equiv_pos_site_id
 _symmetry_equiv_pos_as_xyz
  1  'x, y, z'
loop_
 _atom_site_type_symbol
 _atom_site_label
 _atom_site_symmetry_multiplicity
 _atom_site_fract_x
 _atom_site_fract_y
 _atom_site_fract_z
 _atom_site_occupancy
  Ce  Ce0  1  0.50000000  0.75000000  0.25000000  1
  Ce  Ce1  1  0.50000000  0.25000000  0.75000000  1
  Tl  Tl0  1  0.00000000  0.25000000  0.25000000  1
  Tl  Tl1  1  0.00000000  0.75000000  0.75000000  1
  Se  Se0  1  0.89711500  0.69855700  0.19855700  1
  Se  Se1  1  0.10288500  0.30144300  0.80144300  1
  Se  Se2  1  0.50000000  0.80144200  0.69855800  1
  Se  Se3  1  0.50000000  0.19855800  0.30144200  1
loop_
_geom_bond_atom_site_label_1
_geom_bond_atom_site_label_2
_geom_bond_distance
_geom_bond_site_symmetry_2
Ce0 Se1 2.926625 1_554
Ce0 Se0 2.926630 1_555
Ce0 Se2 2.926632 1_555
Ce0 Se3 2.926632 1_565
Ce1 Se0 2.926625 1_556
Ce1 Se1 2.926630 1_555
Ce1 Se2 2.926632 1_545
Ce1 Se3 2.926632 1_555
