# generated using pymatgen
data_BeSiP2
_symmetry_space_group_name_H-M   'P 1'
_cell_length_a   4.17230336
_cell_length_b   4.17230336
_cell_length_c   4.17230336
_cell_angle_alpha   60.00000000
_cell_angle_beta   60.00000000
_cell_angle_gamma   60.00000000
_symmetry_Int_Tables_number   1
_chemical_formula_structural   BeSiP2
_chemical_formula_sum   'Be1 Si1 P2'
_cell_volume   51.35853599
_cell_formula_units_Z   1
loop_
 _symmetry_equiv_pos_site_id
 _symmetry_equiv_pos_as_xyz
  1  'x, y, z'
loop_
 _atom_site_type_symbol
 _atom_site_label
 _atom_site_symmetry_multiplicity
 _atom_site_fract_x
 _atom_site_fract_y
 _atom_site_fract_z
 _atom_site_occupancy
  Be  Be0  1  0.00000000  0.00000000  0.00000000  1
  Si  Si0  1  0.50000000  0.50000000  0.50000000  1
  P  P0  1  0.75000000  0.75000000  0.75000000  1
  P  P1  1  0.25000000  0.25000000  0.25000000  1
loop_
_geom_bond_atom_site_label_1
_geom_bond_atom_site_label_2
_geom_bond_distance
_geom_bond_site_symmetry_2
Be0 P0 2.555004 1_544
Be0 P1 2.555004 1_455
Be0 P1 2.555004 1_554
Be0 P0 2.555004 1_454
Be0 P0 2.555004 1_445
Be0 P0 2.555004 1_444
Be0 P1 2.555004 1_545
Be0 P1 2.555004 1_555
P0 Si0 2.555004 1_655
P0 Si0 2.555004 1_565
P0 Si0 2.555004 1_555
P0 Si0 2.555004 1_556
P1 Si0 2.555004 1_455
P1 Si0 2.555004 1_545
P1 Si0 2.555004 1_555
P1 Si0 2.555004 1_554
