# generated using pymatgen
data_SmAs2Pd3
_symmetry_space_group_name_H-M   'P 1'
_cell_length_a   8.56896942
_cell_length_b   8.56896942
_cell_length_c   10.03388828
_cell_angle_alpha   72.77501477
_cell_angle_beta   72.77501477
_cell_angle_gamma   27.59687876
_symmetry_Int_Tables_number   1
_chemical_formula_structural   SmAs2Pd3
_chemical_formula_sum   'Sm3 As6 Pd9'
_cell_volume   325.04871957
_cell_formula_units_Z   3
loop_
 _symmetry_equiv_pos_site_id
 _symmetry_equiv_pos_as_xyz
  1  'x, y, z'
loop_
 _atom_site_type_symbol
 _atom_site_label
 _atom_site_symmetry_multiplicity
 _atom_site_fract_x
 _atom_site_fract_y
 _atom_site_fract_z
 _atom_site_occupancy
  Sm  Sm0  1  0.84608140  0.84608140  0.70050615  1
  Sm  Sm1  1  0.15391860  0.15391860  0.29949385  1
  Sm  Sm2  1  -0.00000000  -0.00000000  0.00000000  1
  As  As0  1  0.80057873  0.80057873  0.13099520  1
  As  As1  1  0.19942127  0.19942127  0.86900480  1
  As  As2  1  0.53908310  0.53908310  0.21321639  1
  As  As3  1  0.46091690  0.46091690  0.78678361  1
  As  As4  1  0.63619343  0.63619343  0.54614005  1
  As  As5  1  0.36380657  0.36380657  0.45385995  1
  Pd  Pd0  1  0.95694802  0.95694802  0.33166899  1
  Pd  Pd1  1  0.04305198  0.04305198  0.66833101  1
  Pd  Pd2  1  0.77772498  0.77772498  0.38984930  1
  Pd  Pd3  1  0.22227502  0.22227502  0.61015070  1
  Pd  Pd4  1  0.37682764  0.37682764  0.19990998  1
  Pd  Pd5  1  0.62317236  0.62317236  0.80009002  1
  Pd  Pd6  1  0.50000000  0.50000000  0.50000000  1
  Pd  Pd7  1  0.67886732  0.67886732  0.03409786  1
  Pd  Pd8  1  0.32113268  0.32113268  0.96590214  1
loop_
_geom_bond_atom_site_label_1
_geom_bond_atom_site_label_2
_geom_bond_distance
_geom_bond_site_symmetry_2
As0 Pd7 2.499955 1_555
As0 Pd2 2.507634 1_555
As0 Pd8 2.586980 1_564
As0 Pd8 2.586980 1_654
As0 Pd4 2.607817 1_655
As0 Pd4 2.607817 1_565
As0 Sm2 3.175400 1_665
As0 Sm1 3.236777 1_655
As0 Sm1 3.236777 1_565
As1 Pd8 2.499955 1_555
As1 Pd3 2.507634 1_555
As1 Pd7 2.586980 1_546
As1 Pd7 2.586980 1_456
As1 Pd5 2.607817 1_455
As1 Pd5 2.607817 1_545
As1 Sm2 3.175400 1_556
As1 Sm0 3.236777 1_545
As1 Sm0 3.236777 1_455
As2 Pd7 2.468335 1_555
As2 Pd0 2.543115 1_455
As2 Pd0 2.543115 1_545
As2 Pd4 2.744134 1_555
As2 Pd6 2.749898 1_555
As2 Sm1 3.096496 1_655
As2 Sm1 3.096496 1_565
As2 Sm2 3.166343 1_565
As2 Sm2 3.166343 1_655
As3 Pd8 2.468335 1_555
As3 Pd1 2.543115 1_655
As3 Pd1 2.543115 1_565
As3 Pd5 2.744134 1_555
As3 Pd6 2.749898 1_555
As3 Sm0 3.096496 1_545
As3 Sm0 3.096496 1_455
As3 Sm2 3.166343 1_656
As3 Sm2 3.166343 1_566
As4 Pd2 2.398988 1_555
As4 Pd6 2.447920 1_555
As4 Pd5 2.490591 1_555
As4 Pd1 2.631377 1_565
As4 Pd1 2.631377 1_655
As4 Pd3 2.683883 1_655
As4 Pd3 2.683883 1_565
As4 Sm1 3.153327 1_565
As4 Sm1 3.153327 1_655
As5 Pd3 2.398988 1_555
As5 Pd6 2.447920 1_555
As5 Pd4 2.490591 1_555
As5 Pd0 2.631377 1_545
As5 Pd0 2.631377 1_455
As5 Pd2 2.683883 1_455
As5 Pd2 2.683883 1_545
As5 Sm0 3.153327 1_545
As5 Sm0 3.153327 1_455
Pd0 Pd2 2.859436 1_555
Pd0 Pd6 2.877706 1_565
Pd0 Pd6 2.877706 1_655
Pd0 Pd4 2.962777 1_565
Pd0 Pd4 2.962777 1_655
Pd0 Sm2 3.183443 1_665
Pd0 Sm1 3.194639 1_665
Pd0 Sm0 3.596753 1_555
Pd1 Pd3 2.859436 1_555
Pd1 Pd6 2.877706 1_455
Pd1 Pd6 2.877706 1_545
Pd1 Pd5 2.962777 1_455
Pd1 Pd5 2.962777 1_545
Pd1 Sm2 3.183443 1_556
Pd1 Sm0 3.194639 1_445
Pd1 Sm1 3.596753 1_555
Pd2 Pd4 2.934726 1_565
Pd2 Pd4 2.934726 1_655
Pd2 Pd3 2.944619 1_565
Pd2 Pd3 2.944619 1_655
Pd2 Sm1 3.222431 1_655
Pd2 Sm1 3.222431 1_565
Pd2 Sm0 3.629502 1_555
Pd3 Pd5 2.934726 1_455
Pd3 Pd5 2.934726 1_545
Pd3 Sm0 3.222431 1_455
Pd3 Sm0 3.222431 1_545
Pd3 Sm1 3.629502 1_555
Pd4 Pd8 2.774835 1_554
Pd4 Sm2 3.145673 1_655
Pd4 Sm2 3.145673 1_565
Pd4 Sm1 3.535739 1_555
Pd5 Pd7 2.774835 1_556
Pd5 Sm2 3.145673 1_566
Pd5 Sm2 3.145673 1_656
Pd5 Sm0 3.535739 1_555
Pd6 Sm1 3.412314 1_655
Pd6 Sm1 3.412314 1_565
Pd6 Sm0 3.412314 1_545
Pd6 Sm0 3.412314 1_455
Pd7 Sm1 3.281213 1_565
Pd7 Sm1 3.281213 1_655
Pd7 Sm0 3.642534 1_554
Pd8 Sm0 3.281213 1_545
Pd8 Sm0 3.281213 1_455
Pd8 Sm1 3.642534 1_556
