# generated using pymatgen
data_YMg30TiO32
_symmetry_space_group_name_H-M   'P 1'
_cell_length_a   8.61062600
_cell_length_b   8.61062600
_cell_length_c   8.60244900
_cell_angle_alpha   90.00000000
_cell_angle_beta   90.00000000
_cell_angle_gamma   90.00000000
_symmetry_Int_Tables_number   1
_chemical_formula_structural   YMg30TiO32
_chemical_formula_sum   'Y1 Mg30 Ti1 O32'
_cell_volume   637.81034488
_cell_formula_units_Z   1
loop_
 _symmetry_equiv_pos_site_id
 _symmetry_equiv_pos_as_xyz
  1  'x, y, z'
loop_
 _atom_site_type_symbol
 _atom_site_label
 _atom_site_symmetry_multiplicity
 _atom_site_fract_x
 _atom_site_fract_y
 _atom_site_fract_z
 _atom_site_occupancy
  Y  Y0  1  0.00000000  0.00000000  0.00000000  1
  Mg  Mg0  1  0.50000000  0.00000000  0.00000000  1
  Mg  Mg1  1  0.00000000  0.50000000  0.00000000  1
  Mg  Mg2  1  0.00000000  0.00000000  0.50000000  1
  Mg  Mg3  1  0.50000000  0.00000000  0.50000000  1
  Mg  Mg4  1  0.00000000  0.50000000  0.50000000  1
  Mg  Mg5  1  0.50000000  0.50000000  0.50000000  1
  Mg  Mg6  1  0.25767500  0.25767500  0.00000000  1
  Mg  Mg7  1  0.74232500  0.25767500  0.00000000  1
  Mg  Mg8  1  0.25767500  0.74232500  0.00000000  1
  Mg  Mg9  1  0.74232500  0.74232500  0.00000000  1
  Mg  Mg10  1  0.25127800  0.25127800  0.50000000  1
  Mg  Mg11  1  0.74872200  0.25127800  0.50000000  1
  Mg  Mg12  1  0.25127800  0.74872200  0.50000000  1
  Mg  Mg13  1  0.74872200  0.74872200  0.50000000  1
  Mg  Mg14  1  0.25701200  0.00000000  0.25601200  1
  Mg  Mg15  1  0.74298800  0.00000000  0.25601200  1
  Mg  Mg16  1  0.25154500  0.50000000  0.24985000  1
  Mg  Mg17  1  0.74845500  0.50000000  0.24985000  1
  Mg  Mg18  1  0.25701200  0.00000000  0.74398800  1
  Mg  Mg19  1  0.74298800  0.00000000  0.74398800  1
  Mg  Mg20  1  0.25154500  0.50000000  0.75015000  1
  Mg  Mg21  1  0.74845500  0.50000000  0.75015000  1
  Mg  Mg22  1  0.00000000  0.25701200  0.25601200  1
  Mg  Mg23  1  0.50000000  0.25154500  0.24985000  1
  Mg  Mg24  1  0.00000000  0.74298800  0.25601200  1
  Mg  Mg25  1  0.50000000  0.74845500  0.24985000  1
  Mg  Mg26  1  0.00000000  0.25701200  0.74398800  1
  Mg  Mg27  1  0.50000000  0.25154500  0.75015000  1
  Mg  Mg28  1  0.00000000  0.74298800  0.74398800  1
  Mg  Mg29  1  0.50000000  0.74845500  0.75015000  1
  Ti  Ti0  1  0.50000000  0.50000000  0.00000000  1
  O  O0  1  0.00000000  0.00000000  0.25943900  1
  O  O1  1  0.50000000  0.00000000  0.25304300  1
  O  O2  1  0.00000000  0.50000000  0.25304300  1
  O  O3  1  0.50000000  0.50000000  0.26143700  1
  O  O4  1  0.00000000  0.00000000  0.74056100  1
  O  O5  1  0.50000000  0.00000000  0.74695700  1
  O  O6  1  0.00000000  0.50000000  0.74695700  1
  O  O7  1  0.50000000  0.50000000  0.73856300  1
  O  O8  1  0.24895000  0.24895000  0.24948300  1
  O  O9  1  0.75105000  0.24895000  0.24948300  1
  O  O10  1  0.24895000  0.75105000  0.24948300  1
  O  O11  1  0.75105000  0.75105000  0.24948300  1
  O  O12  1  0.24895000  0.24895000  0.75051700  1
  O  O13  1  0.75105000  0.24895000  0.75051700  1
  O  O14  1  0.24895000  0.75105000  0.75051700  1
  O  O15  1  0.75105000  0.75105000  0.75051700  1
  O  O16  1  0.25808800  0.00000000  0.00000000  1
  O  O17  1  0.74191200  0.00000000  0.00000000  1
  O  O18  1  0.23823700  0.50000000  0.00000000  1
  O  O19  1  0.76176300  0.50000000  0.00000000  1
  O  O20  1  0.25080200  0.00000000  0.50000000  1
  O  O21  1  0.74919800  0.00000000  0.50000000  1
  O  O22  1  0.24844500  0.50000000  0.50000000  1
  O  O23  1  0.75155500  0.50000000  0.50000000  1
  O  O24  1  0.00000000  0.25808800  0.00000000  1
  O  O25  1  0.50000000  0.23823700  0.00000000  1
  O  O26  1  0.00000000  0.74191200  0.00000000  1
  O  O27  1  0.50000000  0.76176300  0.00000000  1
  O  O28  1  0.00000000  0.25080200  0.50000000  1
  O  O29  1  0.50000000  0.24844500  0.50000000  1
  O  O30  1  0.00000000  0.74919800  0.50000000  1
  O  O31  1  0.50000000  0.75155500  0.50000000  1
loop_
_geom_bond_atom_site_label_1
_geom_bond_atom_site_label_2
_geom_bond_distance
_geom_bond_site_symmetry_2
Mg0 O25 2.051370 1_555
Mg0 O27 2.051370 1_545
Mg0 O16 2.083014 1_555
Mg0 O17 2.083014 1_555
Mg0 O1 2.176790 1_555
Mg0 O5 2.176790 1_554
Mg1 O18 2.051370 1_555
Mg1 O19 2.051370 1_455
Mg1 O24 2.083014 1_555
Mg1 O26 2.083014 1_555
Mg1 O2 2.176790 1_555
Mg1 O6 2.176790 1_554
Mg2 O4 2.069414 1_555
Mg2 O0 2.069414 1_555
Mg2 O20 2.159562 1_555
Mg2 O28 2.159562 1_555
Mg2 O30 2.159562 1_545
Mg2 O21 2.159562 1_455
Mg3 O5 2.124435 1_555
Mg3 O1 2.124435 1_555
Mg3 O31 2.139267 1_545
Mg3 O29 2.139267 1_555
Mg3 O21 2.145751 1_555
Mg3 O20 2.145751 1_555
Mg4 O6 2.124435 1_555
Mg4 O2 2.124435 1_555
Mg4 O23 2.139267 1_455
Mg4 O22 2.139267 1_555
Mg4 O30 2.145751 1_555
Mg4 O28 2.145751 1_555
Mg5 O7 2.052226 1_555
Mg5 O3 2.052226 1_555
Mg5 O31 2.166046 1_555
Mg5 O22 2.166046 1_555
Mg5 O23 2.166046 1_555
Mg5 O29 2.166046 1_555
Mg6 O25 2.093272 1_555
Mg6 O18 2.093272 1_555
Mg6 O8 2.148793 1_555
Mg6 O12 2.148793 1_554
Mg6 O16 2.218746 1_555
Mg6 O24 2.218746 1_555
Mg7 O19 2.093272 1_555
Mg7 O25 2.093272 1_555
Mg7 O9 2.148793 1_555
Mg7 O13 2.148793 1_554
Mg7 O17 2.218746 1_555
Mg7 O24 2.218746 1_655
Mg8 O27 2.093272 1_555
Mg8 O18 2.093272 1_555
Mg8 O10 2.148793 1_555
Mg8 O14 2.148793 1_554
Mg8 O16 2.218746 1_565
Mg8 O26 2.218746 1_555
Mg9 O27 2.093272 1_555
Mg9 O19 2.093272 1_555
Mg9 O11 2.148793 1_555
Mg9 O15 2.148793 1_554
Mg9 O17 2.218746 1_565
Mg9 O26 2.218746 1_655
Mg10 O22 2.141791 1_555
Mg10 O29 2.141791 1_555
Mg10 O12 2.155246 1_555
Mg10 O8 2.155246 1_555
Mg10 O28 2.163665 1_555
Mg10 O20 2.163665 1_555
Mg11 O23 2.141791 1_555
Mg11 O29 2.141791 1_555
Mg11 O13 2.155246 1_555
Mg11 O9 2.155246 1_555
Mg11 O28 2.163665 1_655
Mg11 O21 2.163665 1_555
Mg12 O22 2.141791 1_555
Mg12 O31 2.141791 1_555
Mg12 O14 2.155246 1_555
Mg12 O10 2.155246 1_555
Mg12 O20 2.163665 1_565
Mg12 O30 2.163665 1_555
Mg13 O23 2.141791 1_555
Mg13 O31 2.141791 1_555
Mg13 O15 2.155246 1_555
Mg13 O11 2.155246 1_555
Mg13 O21 2.163665 1_565
Mg13 O30 2.163665 1_655
Mg14 O1 2.092435 1_555
Mg14 O20 2.099575 1_555
Mg14 O10 2.145474 1_545
Mg14 O8 2.145474 1_555
Mg14 O16 2.202350 1_555
Mg14 O0 2.213231 1_555
Mg15 O1 2.092435 1_555
Mg15 O21 2.099575 1_555
Mg15 O11 2.145474 1_545
Mg15 O9 2.145474 1_555
Mg15 O17 2.202350 1_555
Mg15 O0 2.213231 1_655
Mg16 O3 2.141674 1_555
Mg16 O22 2.152068 1_555
Mg16 O18 2.152374 1_555
Mg16 O8 2.161815 1_555
Mg16 O10 2.161815 1_555
Mg16 O2 2.166134 1_555
Mg17 O3 2.141674 1_555
Mg17 O23 2.152068 1_555
Mg17 O19 2.152374 1_555
Mg17 O9 2.161815 1_555
Mg17 O11 2.161815 1_555
Mg17 O2 2.166134 1_655
Mg18 O5 2.092435 1_555
Mg18 O20 2.099575 1_555
Mg18 O14 2.145474 1_545
Mg18 O12 2.145474 1_555
Mg18 O16 2.202350 1_556
Mg18 O4 2.213231 1_555
Mg19 O5 2.092435 1_555
Mg19 O21 2.099575 1_555
Mg19 O15 2.145474 1_545
Mg19 O13 2.145474 1_555
Mg19 O17 2.202350 1_556
Mg19 O4 2.213231 1_655
Mg20 O7 2.141674 1_555
Mg20 O22 2.152068 1_555
Mg20 O18 2.152374 1_556
Mg20 O12 2.161815 1_555
Mg20 O14 2.161815 1_555
Mg20 O6 2.166134 1_555
Mg21 O7 2.141674 1_555
Mg21 O23 2.152068 1_555
Mg21 O19 2.152374 1_556
Mg21 O13 2.161815 1_555
Mg21 O15 2.161815 1_555
Mg21 O6 2.166134 1_655
Mg22 O2 2.092435 1_555
Mg22 O28 2.099575 1_555
Mg22 O9 2.145474 1_455
Mg22 O8 2.145474 1_555
Mg22 O24 2.202350 1_555
Mg22 O0 2.213231 1_555
Mg23 O3 2.141674 1_555
Mg23 O29 2.152068 1_555
Mg23 O25 2.152374 1_555
Mg23 O8 2.161815 1_555
Mg23 O9 2.161815 1_555
Mg23 O1 2.166134 1_555
Mg24 O2 2.092435 1_555
Mg24 O30 2.099575 1_555
Mg24 O11 2.145474 1_455
Mg24 O10 2.145474 1_555
Mg24 O26 2.202350 1_555
Mg24 O0 2.213231 1_565
Mg25 O3 2.141674 1_555
Mg25 O31 2.152068 1_555
Mg25 O27 2.152374 1_555
Mg25 O10 2.161815 1_555
Mg25 O11 2.161815 1_555
Mg25 O1 2.166134 1_565
Mg26 O6 2.092435 1_555
Mg26 O28 2.099575 1_555
Mg26 O13 2.145474 1_455
Mg26 O12 2.145474 1_555
Mg26 O24 2.202350 1_556
Mg26 O4 2.213231 1_555
Mg27 O7 2.141674 1_555
Mg27 O29 2.152068 1_555
Mg27 O25 2.152374 1_556
Mg27 O12 2.161815 1_555
Mg27 O13 2.161815 1_555
Mg27 O5 2.166134 1_555
Mg28 O6 2.092435 1_555
Mg28 O30 2.099575 1_555
Mg28 O15 2.145474 1_455
Mg28 O14 2.145474 1_555
Mg28 O26 2.202350 1_556
Mg28 O4 2.213231 1_565
Mg29 O7 2.141674 1_555
Mg29 O31 2.152068 1_555
Mg29 O27 2.152374 1_556
Mg29 O14 2.161815 1_555
Mg29 O15 2.161815 1_555
Mg29 O5 2.166134 1_565
O0 Y0 2.231811 1_555
O3 Ti0 2.248998 1_555
O4 Y0 2.231811 1_556
O7 Ti0 2.248998 1_556
O16 Y0 2.222299 1_555
O17 Y0 2.222299 1_655
O18 Ti0 2.253943 1_555
O19 Ti0 2.253943 1_555
O24 Y0 2.222299 1_555
O25 Ti0 2.253943 1_555
O26 Y0 2.222299 1_565
O27 Ti0 2.253943 1_555
