# generated using pymatgen
data_LiFe2(CO3)4
_symmetry_space_group_name_H-M   'P 1'
_cell_length_a   5.45466866
_cell_length_b   9.96913518
_cell_length_c   10.02666228
_cell_angle_alpha   102.61751542
_cell_angle_beta   95.23887407
_cell_angle_gamma   84.54737829
_symmetry_Int_Tables_number   1
_chemical_formula_structural   LiFe2(CO3)4
_chemical_formula_sum   'Li2 Fe4 C8 O24'
_cell_volume   528.25954490
_cell_formula_units_Z   2
loop_
 _symmetry_equiv_pos_site_id
 _symmetry_equiv_pos_as_xyz
  1  'x, y, z'
loop_
 _atom_site_type_symbol
 _atom_site_label
 _atom_site_symmetry_multiplicity
 _atom_site_fract_x
 _atom_site_fract_y
 _atom_site_fract_z
 _atom_site_occupancy
  Li  Li0  1  0.40769600  0.35758900  0.17844200  1
  Li  Li1  1  0.91339100  0.85461800  0.67950600  1
  Fe  Fe0  1  0.35921400  0.01054500  0.50752200  1
  Fe  Fe1  1  0.60185000  0.48575400  0.48731800  1
  Fe  Fe2  1  0.84373800  0.51191100  0.00583900  1
  Fe  Fe3  1  0.10522300  0.98772500  0.98977800  1
  C  C0  1  0.95001200  0.70417000  0.91807100  1
  C  C1  1  0.45674500  0.20381800  0.41956200  1
  C  C2  1  0.71137400  0.41792400  0.70478900  1
  C  C3  1  0.21742000  0.91439300  0.20664000  1
  C  C4  1  0.71299400  0.57664200  0.29341400  1
  C  C5  1  0.21395400  0.07564000  0.79184400  1
  C  C6  1  0.91202000  0.28459700  0.07524400  1
  C  C7  1  0.41653200  0.78121400  0.57312100  1
  O  O0  1  0.00558900  0.80868900  0.87015400  1
  O  O1  1  0.50505300  0.30791800  0.36888400  1
  O  O2  1  0.72382900  0.67541000  0.91562700  1
  O  O3  1  0.23247200  0.17008900  0.41346600  1
  O  O4  1  0.49018700  0.41039200  0.64556000  1
  O  O5  1  0.99434000  0.90960400  0.15230900  1
  O  O6  1  0.86599100  0.45717900  0.63211300  1
  O  O7  1  0.37008900  0.95210100  0.13030700  1
  O  O8  1  0.77096500  0.38904900  0.82104600  1
  O  O9  1  0.28847500  0.88552400  0.32169500  1
  O  O10  1  0.11647100  0.62389500  0.96838400  1
  O  O11  1  0.62562500  0.12757100  0.47385100  1
  O  O12  1  0.77402800  0.62091100  0.19225800  1
  O  O13  1  0.29121200  0.11861300  0.69396700  1
  O  O14  1  0.69374700  0.34828900  0.07195300  1
  O  O15  1  0.20205400  0.84956300  0.57362200  1
  O  O16  1  0.86651100  0.55271700  0.39330900  1
  O  O17  1  0.36316000  0.05263400  0.89604500  1
  O  O18  1  0.48615200  0.55012100  0.30533900  1
  O  O19  1  0.98753700  0.04937100  0.79899200  1
  O  O20  1  0.09364600  0.35760400  0.06363300  1
  O  O21  1  0.60278700  0.84909100  0.55842600  1
  O  O22  1  0.94638600  0.16009800  0.08956400  1
  O  O23  1  0.43705700  0.65709300  0.58897900  1
loop_
_geom_bond_atom_site_label_1
_geom_bond_atom_site_label_2
_geom_bond_distance
_geom_bond_site_symmetry_2
Li0 O14 1.953642 1_555
Li0 O20 1.974731 1_555
Li0 O1 2.085984 1_555
Li0 O18 2.115604 1_555
Li1 O15 1.968687 1_655
Li1 O21 1.990039 1_555
Li1 O0 2.068744 1_655
Li1 O19 2.100696 1_565
Fe0 O13 1.990927 1_555
Fe0 O9 2.029641 1_545
Fe0 O11 2.042217 1_555
Fe0 O3 2.055320 1_555
Fe0 O21 2.108328 1_545
Fe0 O15 2.139997 1_545
Fe1 O23 1.969645 1_555
Fe1 O1 1.993900 1_555
Fe1 O6 1.996372 1_555
Fe1 O16 2.030954 1_555
Fe1 O4 2.058415 1_555
Fe1 O18 2.088930 1_555
Fe2 O12 1.995756 1_555
Fe2 O8 2.014315 1_554
Fe2 O10 2.049714 1_654
Fe2 O2 2.058190 1_554
Fe2 O20 2.099305 1_655
Fe2 O14 2.143501 1_555
Fe3 O22 1.956744 1_466
Fe3 O7 1.987004 1_556
Fe3 O17 1.990408 1_565
Fe3 O0 2.012376 1_555
Fe3 O5 2.109995 1_456
Fe3 O19 2.159516 1_465
C0 O2 1.289801 1_555
C0 O10 1.293827 1_655
C0 O0 1.309106 1_655
C1 O3 1.291854 1_555
C1 O11 1.295679 1_555
C1 O1 1.308219 1_555
C2 O8 1.267646 1_555
C2 O4 1.296478 1_555
C2 O6 1.301915 1_555
C3 O9 1.267312 1_555
C3 O5 1.287764 1_455
C3 O7 1.312314 1_555
C4 O12 1.272581 1_555
C4 O16 1.294054 1_555
C4 O18 1.310813 1_555
C5 O13 1.271904 1_555
C5 O19 1.298016 1_455
C5 O17 1.311677 1_555
C6 O22 1.274726 1_555
C6 O14 1.296190 1_555
C6 O20 1.311446 1_655
C7 O23 1.274873 1_555
C7 O15 1.296560 1_555
C7 O21 1.308938 1_555
