# generated using pymatgen
data_LiMnVP2(HO5)2
_symmetry_space_group_name_H-M   'P 1'
_cell_length_a   5.31406925
_cell_length_b   7.61030416
_cell_length_c   5.17271058
_cell_angle_alpha   110.00277430
_cell_angle_beta   93.96138503
_cell_angle_gamma   110.36563374
_symmetry_Int_Tables_number   1
_chemical_formula_structural   LiMnVP2(HO5)2
_chemical_formula_sum   'Li1 Mn1 V1 P2 H2 O10'
_cell_volume   180.03493680
_cell_formula_units_Z   1
loop_
 _symmetry_equiv_pos_site_id
 _symmetry_equiv_pos_as_xyz
  1  'x, y, z'
loop_
 _atom_site_type_symbol
 _atom_site_label
 _atom_site_symmetry_multiplicity
 _atom_site_fract_x
 _atom_site_fract_y
 _atom_site_fract_z
 _atom_site_occupancy
  Li  Li0  1  0.49599300  0.98447000  0.97748100  1
  Mn  Mn0  1  0.00890500  0.00583700  0.99785700  1
  V  V0  1  0.00715200  0.50267700  0.99610700  1
  P  P0  1  0.34732200  0.24598600  0.63790500  1
  P  P1  1  0.66847200  0.76078100  0.35424700  1
  H  H0  1  0.94440500  0.32327800  0.31715000  1
  H  H1  1  0.05184200  0.68009400  0.67272000  1
  O  O0  1  0.11389800  0.73498400  0.87925000  1
  O  O1  1  0.15209200  0.36003200  0.68294200  1
  O  O2  1  0.36303600  0.61341000  0.24262900  1
  O  O3  1  0.31487600  0.13177200  0.31761200  1
  O  O4  1  0.28132500  0.09283200  0.78338400  1
  O  O5  1  0.73487600  0.91332100  0.20789100  1
  O  O6  1  0.70200500  0.87554100  0.67473900  1
  O  O7  1  0.65226000  0.39510900  0.74971600  1
  O  O8  1  0.86252000  0.64578400  0.31094300  1
  O  O9  1  0.89902000  0.27113000  0.10992600  1
loop_
_geom_bond_atom_site_label_1
_geom_bond_atom_site_label_2
_geom_bond_distance
_geom_bond_site_symmetry_2
Li0 O5 2.008986 1_556
Li0 O4 2.013061 1_565
Li0 O6 2.078094 1_555
Li0 O0 2.121343 1_555
Li0 O3 2.216780 1_566
Li0 O9 2.310477 1_566
Mn0 O3 1.938372 1_556
Mn0 O6 1.949503 1_445
Mn0 O4 1.955025 1_555
Mn0 O5 1.955742 1_446
Mn0 O9 2.195421 1_456
Mn0 O0 2.217914 1_545
H0 O9 0.985540 1_555
H1 O0 0.987264 1_555
O0 V0 1.973116 1_555
O1 P0 1.551029 1_555
O1 V0 1.986734 1_555
O2 P1 1.544726 1_555
O2 V0 1.932671 1_554
O3 P0 1.549577 1_555
O4 P0 1.549126 1_555
O5 P1 1.548654 1_555
O6 P1 1.550220 1_555
O7 P0 1.545900 1_555
O7 V0 1.931520 1_655
O8 P1 1.550920 1_555
O8 V0 1.992781 1_654
O9 V0 1.957986 1_654
