# generated using pymatgen
data_Y11Mg76
_symmetry_space_group_name_H-M   'P 1'
_cell_length_a   9.68490275
_cell_length_b   9.69004659
_cell_length_c   24.51360834
_cell_angle_alpha   82.37007280
_cell_angle_beta   82.37812954
_cell_angle_gamma   109.17156149
_symmetry_Int_Tables_number   1
_chemical_formula_structural   Y11Mg76
_chemical_formula_sum   'Y11 Mg76'
_cell_volume   2115.19848524
_cell_formula_units_Z   1
loop_
 _symmetry_equiv_pos_site_id
 _symmetry_equiv_pos_as_xyz
  1  'x, y, z'
loop_
 _atom_site_type_symbol
 _atom_site_label
 _atom_site_symmetry_multiplicity
 _atom_site_fract_x
 _atom_site_fract_y
 _atom_site_fract_z
 _atom_site_occupancy
  Y  Y0  1  0.00255919  0.00133299  -0.00000000  1
  Y  Y1  1  0.33461523  0.33353226  0.33347659  1
  Y  Y2  1  0.66809282  0.66700984  0.66652341  1
  Y  Y3  1  0.33413304  0.70668941  0.33319590  1
  Y  Y4  1  0.66732994  0.03988631  0.66680410  1
  Y  Y5  1  0.75286524  0.75230092  0.12412907  1
  Y  Y6  1  0.08463652  0.08460966  0.45782578  1
  Y  Y7  1  0.41740568  0.41774143  0.79115660  1
  Y  Y8  1  0.20856328  0.20889903  0.20884340  1
  Y  Y9  1  0.54246230  0.54243544  0.54217422  1
  Y  Y10  1  0.87699331  0.87642898  0.87587093  1
  Mg  Mg0  1  0.81155114  0.63002794  -0.00000000  1
  Mg  Mg1  1  0.14404984  0.96243959  0.33347675  1
  Mg  Mg2  1  0.47752759  0.29591733  0.66652325  1
  Mg  Mg3  1  0.93354874  0.12297682  0.12395326  1
  Mg  Mg4  1  0.26653448  0.45708059  0.45713433  1
  Mg  Mg5  1  0.60041278  0.79040162  0.79055368  1
  Mg  Mg6  1  0.39096746  0.58095630  0.20944632  1
  Mg  Mg7  1  0.72366881  0.91421491  0.54286567  1
  Mg  Mg8  1  0.05750100  0.24692908  0.87604674  1
  Mg  Mg9  1  0.62941720  0.81111335  -0.00000000  1
  Mg  Mg10  1  0.96252793  0.14379076  0.33333140  1
  Mg  Mg11  1  0.29586033  0.47712315  0.66666860  1
  Mg  Mg12  1  0.58084933  0.39019502  0.20944922  1
  Mg  Mg13  1  0.91449384  0.72374036  0.54300288  1
  Mg  Mg14  1  0.24743775  0.05800140  0.87637856  1
  Mg  Mg15  1  0.12381731  0.93438096  0.12362144  1
  Mg  Mg16  1  0.45749672  0.26674324  0.45699712  1
  Mg  Mg17  1  0.79029755  0.59964324  0.79055078  1
  Mg  Mg18  1  0.25012229  0.25006904  0.06051140  1
  Mg  Mg19  1  0.58423020  0.58388169  0.39339801  1
  Mg  Mg20  1  0.91803346  0.91680155  0.72687908  1
  Mg  Mg21  1  0.45983768  0.08869520  0.27020406  1
  Mg  Mg22  1  0.79316107  0.42244940  0.60359686  1
  Mg  Mg23  1  0.12630530  0.75619676  0.93663480  1
  Mg  Mg24  1  0.09010896  0.46067447  0.26996460  1
  Mg  Mg25  1  0.42376195  0.79392386  0.60310309  1
  Mg  Mg26  1  0.75585149  0.12589808  0.93648692  1
  Mg  Mg27  1  0.64491154  0.64367964  0.27312092  1
  Mg  Mg28  1  0.97762921  0.97728070  0.60660199  1
  Mg  Mg29  1  0.31063369  0.31058044  0.93948860  1
  Mg  Mg30  1  0.69233941  0.06238600  0.06351308  1
  Mg  Mg31  1  0.02686504  0.39702695  0.39689691  1
  Mg  Mg32  1  0.36007256  0.73063808  0.73003540  1
  Mg  Mg33  1  0.06294110  0.69283255  0.06336520  1
  Mg  Mg34  1  0.39675793  0.02604626  0.39640314  1
  Mg  Mg35  1  0.73004073  0.35889826  0.72979594  1
  Mg  Mg36  1  0.32001608  0.60474581  0.00000000  1
  Mg  Mg37  1  0.65697723  0.94062242  0.33352808  1
  Mg  Mg38  1  0.99050631  0.27415150  0.66647192  1
  Mg  Mg39  1  0.45505470  0.13158157  0.13093890  1
  Mg  Mg40  1  0.78748559  0.46422380  0.46404686  1
  Mg  Mg41  1  0.12071486  0.79740773  0.79766881  1
  Mg  Mg42  1  0.91838267  0.59507554  0.20233119  1
  Mg  Mg43  1  0.25153345  0.92827166  0.53595314  1
  Mg  Mg44  1  0.58599360  0.26252047  0.86906110  1
  Mg  Mg45  1  0.60441066  0.31947669  0.00000000  1
  Mg  Mg46  1  0.93970712  0.65281029  0.33319952  1
  Mg  Mg47  1  0.27290765  0.98601081  0.66680048  1
  Mg  Mg48  1  0.59400707  0.91832487  0.20265573  1
  Mg  Mg49  1  0.92747982  0.25152324  0.53590821  1
  Mg  Mg50  1  0.26253905  0.58615477  0.86852148  1
  Mg  Mg51  1  0.13106053  0.45467625  0.13147852  1
  Mg  Mg52  1  0.46338703  0.78743045  0.46409179  1
  Mg  Mg53  1  0.79666380  0.12098161  0.79734427  1
  Mg  Mg54  1  0.91339262  0.91349121  0.23865740  1
  Mg  Mg55  1  0.24686456  0.24799569  0.57167872  1
  Mg  Mg56  1  0.58054001  0.58111281  0.90506596  1
  Mg  Mg57  1  0.78544843  0.39326639  0.10658938  1
  Mg  Mg58  1  0.11663443  0.72584632  0.44142543  1
  Mg  Mg59  1  0.45052020  0.05931945  0.77471737  1
  Mg  Mg60  1  0.39410977  0.78575172  0.10635787  1
  Mg  Mg61  1  0.72823993  0.12042508  0.43979185  1
  Mg  Mg62  1  0.06124463  0.45377033  0.77343603  1
  Mg  Mg63  1  0.48560596  0.48617877  0.09493404  1
  Mg  Mg64  1  0.81854228  0.81967341  0.42832128  1
  Mg  Mg65  1  0.15205102  0.15214961  0.76134260  1
  Mg  Mg66  1  0.83468066  0.22720636  0.22656397  1
  Mg  Mg67  1  0.16803078  0.56021594  0.56020815  1
  Mg  Mg68  1  0.50046863  0.89211059  0.89364213  1
  Mg  Mg69  1  0.22523757  0.83403681  0.22528263  1
  Mg  Mg70  1  0.55805886  0.16727075  0.55857457  1
  Mg  Mg71  1  0.89203880  0.49985677  0.89341062  1
  Mg  Mg72  1  0.36970028  0.00002609  0.00000000  1
  Mg  Mg73  1  0.70267738  0.33360206  0.33331172  1
  Mg  Mg74  1  0.03599010  0.66691477  0.66668828  1
  Mg  Mg75  1  0.99987593  0.36928869  0.00000000  1
loop_
_geom_bond_atom_site_label_1
_geom_bond_atom_site_label_2
_geom_bond_distance
_geom_bond_site_symmetry_2
Y0 Y5 3.632564 1_445
Y0 Y10 3.632571 1_444
Y1 Y3 3.616541 1_555
Y1 Y6 3.636708 1_555
Y1 Y8 3.644731 1_555
Y2 Y4 3.616541 1_565
Y2 Y9 3.636714 1_555
Y2 Y7 3.644744 1_555
Mg0 Mg9 2.867669 1_555
Mg0 Mg23 2.998641 1_654
Mg0 Mg33 2.998649 1_655
Mg0 Mg45 3.019129 1_555
Mg0 Mg71 3.163317 1_554
Mg0 Mg57 3.163320 1_555
Mg0 Mg56 3.409338 1_554
Mg0 Mg63 3.409338 1_555
Mg0 Y10 3.453503 1_554
Mg0 Y5 3.453507 1_555
Mg0 Y0 3.463512 1_665
Mg1 Mg10 2.864934 1_465
Mg1 Mg34 3.002093 1_565
Mg1 Mg46 3.004608 1_455
Mg1 Mg21 3.006057 1_565
Mg1 Mg58 3.183043 1_555
Mg1 Mg69 3.188471 1_555
Mg1 Mg54 3.404724 1_455
Mg1 Mg64 3.405120 1_455
Mg1 Y6 3.459007 1_565
Mg1 Y1 3.460908 1_565
Mg1 Y8 3.464713 1_565
Mg1 Y3 3.539544 1_555
Mg2 Mg22 3.002086 1_555
Mg2 Mg47 3.004607 1_545
Mg2 Mg35 3.006041 1_555
Mg2 Mg70 3.183049 1_555
Mg2 Mg59 3.188474 1_555
Mg2 Mg65 3.404724 1_555
Mg2 Mg55 3.405120 1_555
Mg2 Y9 3.459004 1_555
Mg2 Y2 3.460908 1_555
Mg2 Y7 3.464706 1_555
Mg2 Y4 3.539544 1_555
Mg3 Mg30 2.871494 1_555
Mg3 Mg66 2.989124 1_555
Mg3 Mg54 3.184876 1_545
Mg3 Mg51 3.199526 1_655
Mg3 Mg57 3.381062 1_555
Mg3 Mg48 3.389171 1_545
Mg3 Y5 3.439380 1_545
Mg3 Mg75 3.448399 1_555
Mg3 Y0 3.463909 1_655
Mg3 Y8 3.548473 1_655
Mg4 Mg67 2.991735 1_555
Mg4 Mg55 3.181092 1_555
Mg4 Mg52 3.183359 1_555
Mg4 Mg58 3.376957 1_555
Mg4 Mg49 3.388186 1_455
Mg4 Y6 3.454017 1_555
Mg4 Y3 3.462701 1_555
Mg4 Y1 3.465360 1_555
Mg4 Y9 3.557399 1_555
Mg5 Mg68 2.988882 1_555
Mg5 Mg56 3.180936 1_555
Mg5 Mg53 3.182492 1_565
Mg5 Mg50 3.370554 1_555
Mg5 Mg59 3.378445 1_565
Mg5 Y7 3.457863 1_555
Mg5 Y4 3.459599 1_565
Mg5 Y2 3.472023 1_555
Mg5 Y10 3.567446 1_555
Mg6 Mg60 2.988878 1_555
Mg6 Mg63 3.180938 1_555
Mg6 Mg69 3.378443 1_555
Mg6 Y8 3.457863 1_555
Mg6 Y3 3.459592 1_555
Mg6 Y1 3.472029 1_555
Mg6 Y5 3.567446 1_555
Mg7 Mg70 3.376955 1_565
Mg7 Y9 3.454017 1_555
Mg7 Y4 3.462704 1_565
Mg7 Y2 3.465357 1_555
Mg7 Y6 3.557399 1_665
Mg8 Y10 3.439380 1_445
Mg8 Y0 3.463906 1_556
Mg8 Y7 3.548473 1_555
Mg9 Y10 3.459073 1_554
Mg9 Y5 3.459076 1_555
Mg9 Y0 3.475969 1_665
Mg10 Mg37 2.966508 1_545
Mg10 Mg24 3.016727 1_655
Mg10 Mg31 3.017692 1_655
Mg10 Mg61 3.153634 1_555
Mg10 Mg66 3.160964 1_555
Mg10 Mg64 3.398652 1_545
Mg10 Mg54 3.400508 1_545
Mg10 Y8 3.458456 1_655
Mg10 Y6 3.461073 1_655
Mg10 Y1 3.466996 1_655
Mg11 Mg2 2.864934 1_555
Mg11 Mg38 2.966508 1_455
Mg11 Mg32 3.016711 1_555
Mg11 Mg25 3.017684 1_555
Mg11 Mg67 3.153640 1_555
Mg11 Mg62 3.160968 1_555
Mg11 Mg55 3.398652 1_555
Mg11 Mg65 3.400508 1_555
Mg11 Y7 3.458449 1_555
Mg11 Y9 3.461070 1_555
Mg11 Y2 3.466996 1_555
Mg12 Mg21 2.873976 1_555
Mg12 Mg57 2.983466 1_555
Mg12 Mg6 3.005237 1_555
Mg12 Mg27 3.021328 1_555
Mg12 Mg42 3.186258 1_555
Mg12 Mg63 3.186415 1_555
Mg12 Mg66 3.370687 1_555
Mg12 Mg39 3.371296 1_555
Mg12 Mg73 3.441692 1_555
Mg12 Y8 3.456498 1_555
Mg12 Y1 3.464920 1_555
Mg12 Y5 3.570607 1_555
Mg13 Mg22 2.871052 1_555
Mg13 Mg58 2.949651 1_655
Mg13 Mg7 3.010414 1_555
Mg13 Mg28 3.020561 1_555
Mg13 Mg43 3.181697 1_655
Mg13 Mg64 3.193322 1_555
Mg13 Mg67 3.372069 1_655
Mg13 Mg40 3.387543 1_555
Mg13 Mg74 3.436461 1_655
Mg13 Y9 3.455504 1_555
Mg13 Y2 3.456146 1_555
Mg13 Y6 3.559045 1_665
Mg14 Mg23 2.872392 1_545
Mg14 Mg59 2.958699 1_555
Mg14 Mg8 2.991202 1_555
Mg14 Mg29 3.005167 1_555
Mg14 Mg44 3.192558 1_555
Mg14 Mg65 3.193627 1_555
Mg14 Mg68 3.383816 1_545
Mg14 Mg41 3.389987 1_545
Mg14 Mg72 3.440605 1_556
Mg14 Y10 3.440818 1_445
Mg14 Y0 3.450476 1_556
Mg14 Y7 3.551146 1_555
Mg15 Mg33 2.872392 1_555
Mg15 Mg69 2.958697 1_555
Mg15 Mg3 2.991202 1_465
Mg15 Mg18 3.005159 1_565
Mg15 Mg39 3.192548 1_565
Mg15 Mg54 3.193632 1_455
Mg15 Mg60 3.383813 1_555
Mg15 Mg42 3.390004 1_455
Mg15 Mg72 3.440601 1_565
Mg15 Y5 3.440818 1_455
Mg15 Y0 3.450479 1_565
Mg15 Y8 3.551146 1_565
Mg16 Mg34 2.871052 1_555
Mg16 Mg70 2.949649 1_555
Mg16 Mg4 3.010414 1_555
Mg16 Mg19 3.020553 1_555
Mg16 Mg40 3.181686 1_555
Mg16 Mg55 3.193320 1_555
Mg16 Mg61 3.372071 1_555
Mg16 Mg43 3.387534 1_545
Mg16 Mg73 3.436458 1_555
Mg16 Y6 3.455504 1_555
Mg16 Y1 3.456149 1_555
Mg16 Y9 3.559045 1_555
Mg17 Mg35 2.873976 1_555
Mg17 Mg71 2.983470 1_555
Mg17 Mg5 3.005237 1_555
Mg17 Mg20 3.021344 1_555
Mg17 Mg41 3.186279 1_655
Mg17 Mg56 3.186412 1_555
Mg17 Mg62 3.370689 1_655
Mg17 Mg44 3.371288 1_555
Mg17 Mg74 3.441699 1_655
Mg17 Y7 3.456498 1_555
Mg17 Y2 3.464913 1_555
Mg17 Y10 3.570607 1_555
Mg18 Mg29 2.887866 1_554
Mg18 Mg63 2.957019 1_555
Mg18 Mg3 3.013657 1_455
Mg18 Mg39 3.180776 1_555
Mg18 Mg51 3.189408 1_555
Mg18 Mg45 3.360856 1_555
Mg18 Mg36 3.364855 1_555
Mg18 Mg75 3.427297 1_455
Mg18 Mg72 3.428378 1_555
Mg18 Y0 3.443195 1_555
Mg18 Y8 3.558632 1_555
Mg19 Mg27 2.870081 1_555
Mg19 Mg64 2.955055 1_555
Mg19 Mg4 3.024863 1_555
Mg19 Mg40 3.176319 1_555
Mg19 Mg52 3.185754 1_555
Mg19 Mg46 3.369961 1_555
Mg19 Mg37 3.373260 1_555
Mg19 Mg73 3.419768 1_555
Mg19 Y3 3.440341 1_555
Mg19 Y1 3.453012 1_555
Mg19 Y9 3.569151 1_555
Mg20 Mg28 2.870081 1_555
Mg20 Mg65 2.945517 1_665
Mg20 Mg5 3.023763 1_555
Mg20 Mg41 3.172542 1_655
Mg20 Mg53 3.190043 1_565
Mg20 Mg47 3.363376 1_655
Mg20 Mg38 3.382648 1_565
Mg20 Mg74 3.415238 1_655
Mg20 Y4 3.445393 1_565
Mg20 Y2 3.458340 1_555
Mg20 Y10 3.575456 1_555
Mg21 Mg48 2.952948 1_545
Mg21 Mg34 3.011387 1_555
Mg21 Mg37 3.179269 1_545
Mg21 Mg69 3.188587 1_545
Mg21 Mg39 3.392250 1_555
Mg21 Mg66 3.393129 1_555
Mg21 Mg73 3.439568 1_555
Mg21 Y1 3.445745 1_555
Mg21 Y8 3.450943 1_555
Mg21 Y3 3.548578 1_545
Mg22 Mg49 2.959917 1_555
Mg22 Mg35 3.011387 1_555
Mg22 Mg38 3.176592 1_555
Mg22 Mg70 3.195334 1_555
Mg22 Mg67 3.392611 1_655
Mg22 Mg40 3.400887 1_555
Mg22 Mg74 3.437018 1_655
Mg22 Y2 3.438463 1_555
Mg22 Y9 3.445731 1_555
Mg22 Y4 3.554548 1_555
Mg23 Mg50 2.969475 1_555
Mg23 Mg33 3.024062 1_556
Mg23 Mg36 3.172093 1_556
Mg23 Mg71 3.174192 1_455
Mg23 Mg68 3.385332 1_555
Mg23 Mg41 3.386580 1_555
Mg23 Y10 3.427399 1_455
Mg23 Mg72 3.440885 1_566
Mg23 Y0 3.441989 1_566
Mg24 Mg6 2.865845 1_555
Mg24 Mg42 2.965074 1_455
Mg24 Mg31 3.028882 1_555
Mg24 Mg46 3.152706 1_455
Mg24 Mg66 3.167205 1_455
Mg24 Mg51 3.375748 1_555
Mg24 Mg69 3.385158 1_555
Mg24 Y8 3.444743 1_555
Mg24 Y3 3.453052 1_555
Mg24 Y1 3.454581 1_555
Mg25 Mg7 2.856078 1_555
Mg25 Mg43 2.961787 1_555
Mg25 Mg32 3.028882 1_555
Mg25 Mg47 3.160691 1_555
Mg25 Mg67 3.163503 1_555
Mg25 Mg70 3.384602 1_565
Mg25 Mg52 3.389592 1_555
Mg25 Y9 3.441236 1_555
Mg25 Y2 3.450852 1_555
Mg25 Y4 3.457786 1_565
Mg26 Mg8 2.871494 1_655
Mg26 Mg44 2.959965 1_555
Mg26 Mg9 3.001272 1_546
Mg26 Mg30 3.031119 1_556
Mg26 Mg68 3.161243 1_545
Mg26 Mg45 3.173412 1_556
Mg26 Mg71 3.385414 1_555
Mg26 Mg53 3.389771 1_555
Mg26 Y10 3.432535 1_545
Mg26 Mg75 3.444141 1_556
Mg26 Y0 3.460048 1_656
Mg27 Mg54 2.945517 1_555
Mg27 Mg6 3.023747 1_555
Mg27 Mg42 3.172542 1_555
Mg27 Mg48 3.190043 1_555
Mg27 Mg46 3.363376 1_555
Mg27 Mg37 3.382648 1_555
Mg27 Mg73 3.415238 1_555
Mg27 Y3 3.445393 1_555
Mg27 Y1 3.458340 1_555
Mg27 Y5 3.575458 1_555
Mg28 Mg55 2.955055 1_665
Mg28 Mg7 3.024871 1_555
Mg28 Mg43 3.176319 1_655
Mg28 Mg49 3.185754 1_565
Mg28 Mg47 3.369961 1_655
Mg28 Mg38 3.373260 1_565
Mg28 Mg74 3.419768 1_655
Mg28 Y4 3.440341 1_565
Mg28 Y2 3.453012 1_555
Mg28 Y6 3.569150 1_665
Mg29 Mg56 2.957019 1_555
Mg29 Mg8 3.013664 1_555
Mg29 Mg44 3.180776 1_555
Mg29 Mg50 3.189408 1_555
Mg29 Mg45 3.360856 1_556
Mg29 Mg36 3.364855 1_556
Mg29 Mg75 3.427297 1_456
Mg29 Mg72 3.428378 1_556
Mg29 Y0 3.443195 1_556
Mg29 Y7 3.558631 1_555
Mg30 Mg39 2.959967 1_555
Mg30 Mg9 3.001280 1_545
Mg30 Mg60 3.161264 1_545
Mg30 Mg45 3.173410 1_555
Mg30 Mg57 3.385396 1_555
Mg30 Mg48 3.389775 1_545
Mg30 Y5 3.432535 1_545
Mg30 Mg75 3.444131 1_555
Mg30 Y0 3.460045 1_655
Mg31 Mg4 2.856078 1_555
Mg31 Mg40 2.961789 1_455
Mg31 Mg46 3.160689 1_455
Mg31 Mg61 3.163493 1_455
Mg31 Mg58 3.384611 1_555
Mg31 Mg49 3.389590 1_455
Mg31 Y6 3.441236 1_555
Mg31 Y1 3.450848 1_555
Mg31 Y3 3.457776 1_555
Mg32 Mg5 2.865845 1_555
Mg32 Mg41 2.965070 1_555
Mg32 Mg47 3.152710 1_555
Mg32 Mg62 3.167195 1_555
Mg32 Mg50 3.375746 1_555
Mg32 Mg59 3.385167 1_565
Mg32 Y7 3.444743 1_555
Mg32 Y4 3.453073 1_565
Mg32 Y2 3.454588 1_555
Mg33 Mg51 2.969477 1_555
Mg33 Mg36 3.172091 1_555
Mg33 Mg57 3.174213 1_455
Mg33 Mg60 3.385314 1_555
Mg33 Mg42 3.386584 1_455
Mg33 Y5 3.427400 1_455
Mg33 Mg72 3.440875 1_565
Mg33 Y0 3.441985 1_565
Mg34 Mg52 2.959919 1_545
Mg34 Mg37 3.176590 1_545
Mg34 Mg58 3.195323 1_545
Mg34 Mg61 3.392620 1_555
Mg34 Mg43 3.400885 1_545
Mg34 Mg73 3.437008 1_555
Mg34 Y1 3.438460 1_555
Mg34 Y6 3.445731 1_555
Mg34 Y3 3.554556 1_545
Mg35 Mg53 2.952944 1_555
Mg35 Mg38 3.179274 1_555
Mg35 Mg59 3.188577 1_555
Mg35 Mg44 3.392248 1_555
Mg35 Mg62 3.393137 1_655
Mg35 Mg74 3.439588 1_655
Mg35 Y2 3.445751 1_555
Mg35 Y7 3.450943 1_555
Mg35 Y4 3.548562 1_555
Mg36 Mg9 3.007049 1_555
Mg36 Mg75 3.189461 1_455
Mg36 Mg63 3.286013 1_555
Mg36 Mg56 3.286013 1_554
Mg36 Mg60 3.357505 1_555
Mg36 Mg68 3.357512 1_554
Mg36 Mg50 3.360711 1_554
Mg36 Mg51 3.360711 1_555
Mg37 Y3 3.204898 1_555
Mg37 Mg64 3.266115 1_555
Mg37 Mg54 3.271674 1_555
Mg37 Mg61 3.345116 1_565
Mg37 Mg66 3.358470 1_565
Mg37 Mg52 3.358740 1_555
Mg37 Mg48 3.365619 1_555
Mg38 Y4 3.204898 1_555
Mg38 Mg55 3.266115 1_655
Mg38 Mg65 3.271674 1_655
Mg38 Mg67 3.345103 1_655
Mg38 Mg62 3.358463 1_655
Mg38 Mg49 3.358740 1_555
Mg38 Mg53 3.365619 1_555
Mg39 Y8 3.201966 1_555
Mg39 Mg48 3.265177 1_545
Mg39 Mg57 3.284417 1_555
Mg39 Mg63 3.336274 1_555
Mg39 Mg45 3.346158 1_555
Mg39 Mg69 3.356265 1_545
Mg39 Mg60 3.357504 1_545
Mg40 Y9 3.199159 1_555
Mg40 Mg49 3.270216 1_555
Mg40 Mg58 3.278144 1_655
Mg40 Mg61 3.337988 1_555
Mg40 Mg64 3.342078 1_555
Mg40 Mg46 3.349749 1_555
Mg40 Mg70 3.354223 1_555
Mg41 Y10 3.195219 1_455
Mg41 Mg50 3.260241 1_555
Mg41 Mg59 3.283282 1_565
Mg41 Mg62 3.336010 1_555
Mg41 Mg65 3.336392 1_565
Mg41 Mg47 3.350182 1_555
Mg41 Mg71 3.369969 1_455
Mg42 Y5 3.195216 1_555
Mg42 Mg51 3.260241 1_655
Mg42 Mg69 3.283293 1_655
Mg42 Mg66 3.336002 1_555
Mg42 Mg54 3.336392 1_555
Mg42 Mg46 3.350182 1_555
Mg42 Mg57 3.369969 1_555
Mg43 Y6 3.199161 1_565
Mg43 Mg52 3.270217 1_555
Mg43 Mg70 3.278123 1_565
Mg43 Mg67 3.338004 1_555
Mg43 Mg55 3.342078 1_565
Mg43 Mg47 3.349749 1_555
Mg43 Mg58 3.354223 1_555
Mg44 Y7 3.201967 1_555
Mg44 Mg53 3.265176 1_555
Mg44 Mg71 3.284428 1_555
Mg44 Mg56 3.336274 1_555
Mg44 Mg45 3.346158 1_556
Mg44 Mg59 3.356265 1_555
Mg44 Mg68 3.357496 1_545
Mg45 Mg72 3.182407 1_555
Mg45 Mg56 3.295103 1_554
Mg45 Mg63 3.295103 1_555
Mg45 Mg57 3.361639 1_555
Mg45 Mg71 3.361645 1_554
Mg46 Mg73 3.189005 1_555
Mg46 Mg54 3.292678 1_555
Mg46 Mg64 3.309103 1_555
Mg46 Mg69 3.371277 1_655
Mg46 Mg58 3.373943 1_655
Mg46 Y3 3.681685 1_655
Mg47 Mg74 3.189005 1_555
Mg47 Mg65 3.292678 1_565
Mg47 Mg55 3.309103 1_565
Mg47 Mg59 3.371271 1_565
Mg47 Mg70 3.373930 1_565
Mg47 Y4 3.681684 1_565
Mg48 Mg6 3.182471 1_555
Mg48 Y5 3.212967 1_555
Mg48 Mg66 3.313776 1_565
Mg48 Mg54 3.340267 1_555
Mg48 Mg69 3.341951 1_555
Mg48 Mg60 3.369707 1_555
Mg48 Y3 3.675744 1_555
Mg49 Mg7 3.183369 1_545
Mg49 Y6 3.203510 1_655
Mg49 Mg67 3.315750 1_655
Mg49 Mg55 3.334515 1_655
Mg49 Mg70 3.348085 1_555
Mg49 Mg61 3.358507 1_555
Mg49 Y4 3.682935 1_555
Mg50 Y7 3.191305 1_555
Mg50 Mg8 3.199536 1_555
Mg50 Mg68 3.294376 1_555
Mg50 Mg56 3.333049 1_555
Mg50 Mg62 3.352033 1_555
Mg50 Mg71 3.355609 1_455
Mg51 Y8 3.191303 1_555
Mg51 Mg60 3.294366 1_555
Mg51 Mg63 3.333049 1_555
Mg51 Mg66 3.352033 1_455
Mg51 Mg57 3.355617 1_455
Mg51 Mg6 3.370562 1_555
Mg52 Y9 3.203508 1_555
Mg52 Mg61 3.315772 1_565
Mg52 Mg64 3.334515 1_555
Mg52 Mg58 3.348069 1_555
Mg52 Mg67 3.358507 1_555
Mg52 Mg7 3.388194 1_555
Mg52 Y3 3.682935 1_555
Mg53 Y10 3.212970 1_545
Mg53 Mg62 3.313765 1_655
Mg53 Mg65 3.340267 1_655
Mg53 Mg59 3.341959 1_555
Mg53 Mg68 3.369707 1_545
Mg53 Mg8 3.389153 1_655
Mg53 Y4 3.675744 1_555
Mg54 Y8 3.227371 1_665
Mg54 Mg69 3.339671 1_655
Mg54 Mg66 3.354516 1_565
Mg54 Y5 3.669632 1_555
Mg55 Y9 3.224489 1_555
Mg55 Mg70 3.340197 1_555
Mg55 Mg67 3.341167 1_555
Mg55 Y6 3.669786 1_555
Mg56 Y10 3.234075 1_555
Mg56 Mg68 3.336151 1_555
Mg56 Mg71 3.345761 1_555
Mg56 Mg9 3.403469 1_556
Mg56 Y7 3.674348 1_555
Mg57 Mg75 3.198846 1_555
Mg57 Mg66 3.329474 1_555
Mg57 Mg63 3.345757 1_555
Mg57 Y5 3.670235 1_555
Mg58 Y3 3.227327 1_555
Mg58 Mg67 3.312164 1_555
Mg58 Mg64 3.340205 1_455
Mg58 Y6 3.659089 1_565
Mg59 Y4 3.218833 1_555
Mg59 Mg68 3.315518 1_545
Mg59 Mg65 3.339667 1_555
Mg59 Y7 3.660167 1_555
Mg60 Mg9 3.152357 1_555
Mg60 Mg72 3.195772 1_565
Mg60 Mg69 3.315517 1_555
Mg60 Mg63 3.336147 1_555
Mg60 Y5 3.670259 1_555
Mg61 Mg7 2.991737 1_545
Mg61 Mg73 3.196419 1_555
Mg61 Mg70 3.312164 1_555
Mg61 Mg64 3.341175 1_545
Mg61 Y6 3.657963 1_655
Mg62 Mg8 2.989126 1_555
Mg62 Mg74 3.199921 1_555
Mg62 Mg71 3.329474 1_455
Mg62 Mg65 3.354512 1_555
Mg62 Y7 3.654723 1_555
Mg63 Y5 3.234086 1_555
Mg63 Mg9 3.403469 1_555
Mg63 Y8 3.674340 1_555
Mg64 Mg7 3.181094 1_555
Mg64 Y6 3.224500 1_665
Mg64 Y9 3.669778 1_555
Mg65 Mg8 3.184872 1_555
Mg65 Y7 3.227349 1_555
Mg65 Y10 3.669647 1_445
Mg66 Mg73 3.199920 1_555
Mg66 Y8 3.654729 1_655
Mg67 Mg74 3.196422 1_555
Mg67 Y9 3.657969 1_555
Mg68 Mg9 3.152354 1_556
Mg68 Mg72 3.195770 1_566
Mg68 Y10 3.670247 1_555
Mg69 Y3 3.218832 1_555
Mg69 Y8 3.660173 1_565
Mg70 Y4 3.227330 1_555
Mg70 Y9 3.659095 1_555
Mg71 Mg75 3.198845 1_556
Mg71 Mg8 3.381066 1_655
Mg71 Y10 3.670223 1_555
Mg72 Y0 3.559905 1_555
Mg73 Y1 3.563890 1_555
Mg74 Y2 3.563890 1_455
Mg75 Mg8 3.448403 1_654
Mg75 Y0 3.574126 1_655
