# generated using pymatgen
data_Mn5Fe5(SiC)2
_symmetry_space_group_name_H-M   'P 1'
_cell_length_a   6.34903932
_cell_length_b   6.34903932
_cell_length_c   7.40899700
_cell_angle_alpha   90.00000000
_cell_angle_beta   90.00000000
_cell_angle_gamma   103.46400074
_symmetry_Int_Tables_number   1
_chemical_formula_structural   Mn5Fe5(SiC)2
_chemical_formula_sum   'Mn10 Fe10 Si4 C4'
_cell_volume   290.45067317
_cell_formula_units_Z   2
loop_
 _symmetry_equiv_pos_site_id
 _symmetry_equiv_pos_as_xyz
  1  'x, y, z'
loop_
 _atom_site_type_symbol
 _atom_site_label
 _atom_site_symmetry_multiplicity
 _atom_site_fract_x
 _atom_site_fract_y
 _atom_site_fract_z
 _atom_site_occupancy
  Mn  Mn0  1  0.80626200  0.51079500  0.86197700  1
  Mn  Mn1  1  0.51079500  0.80626200  0.86197700  1
  Mn  Mn2  1  0.19373800  0.48920500  0.36197700  1
  Mn  Mn3  1  0.48920500  0.19373800  0.36197700  1
  Mn  Mn4  1  0.81541700  0.51746800  0.48639200  1
  Mn  Mn5  1  0.51746800  0.81541700  0.48639200  1
  Mn  Mn6  1  0.18458300  0.48253200  0.98639200  1
  Mn  Mn7  1  0.48253200  0.18458300  0.98639200  1
  Mn  Mn8  1  0.54047100  0.54047100  0.15151600  1
  Mn  Mn9  1  0.45952900  0.45952900  0.65151600  1
  Fe  Fe0  1  0.93769600  0.69352700  0.17864100  1
  Fe  Fe1  1  0.69352700  0.93769600  0.17864100  1
  Fe  Fe2  1  0.06230400  0.30647300  0.67864100  1
  Fe  Fe3  1  0.30647300  0.06230400  0.67864100  1
  Fe  Fe4  1  0.11729000  0.87080200  0.92579600  1
  Fe  Fe5  1  0.87080200  0.11729000  0.92579600  1
  Fe  Fe6  1  0.88271000  0.12919800  0.42579600  1
  Fe  Fe7  1  0.12919800  0.88271000  0.42579600  1
  Fe  Fe8  1  0.85002700  0.85002700  0.67451500  1
  Fe  Fe9  1  0.14997300  0.14997300  0.17451500  1
  Si  Si0  1  0.17590200  0.67155400  0.67478700  1
  Si  Si1  1  0.67155400  0.17590200  0.67478700  1
  Si  Si2  1  0.82409800  0.32844600  0.17478700  1
  Si  Si3  1  0.32844600  0.82409800  0.17478700  1
  C  C0  1  0.79609200  0.79609200  0.96903100  1
  C  C1  1  0.20390800  0.20390800  0.46903100  1
  C  C2  1  0.81215100  0.81215100  0.38875300  1
  C  C3  1  0.18784900  0.18784900  0.88875300  1
loop_
_geom_bond_atom_site_label_1
_geom_bond_atom_site_label_2
_geom_bond_distance
_geom_bond_site_symmetry_2
Mn0 Si1 2.515762 1_555
Mn0 Si2 2.604908 1_556
Mn0 Si0 2.712476 1_655
Mn1 Si0 2.515762 1_555
Mn1 Si3 2.604908 1_556
Mn1 Si1 2.712476 1_565
Mn2 Si3 2.515762 1_555
Mn2 Si0 2.604908 1_555
Mn2 Si2 2.712476 1_455
Mn3 Si2 2.515762 1_555
Mn3 Si1 2.604908 1_555
Mn3 Si3 2.712476 1_545
Mn4 Si1 2.561853 1_555
Mn4 Si2 2.608468 1_555
Mn4 Si0 2.664773 1_655
Mn5 Si0 2.561853 1_555
Mn5 Si3 2.608468 1_555
Mn5 Si1 2.664773 1_565
Mn6 Si3 2.561853 1_556
Mn6 Si0 2.608468 1_555
Mn6 Si2 2.664773 1_456
Mn7 Si2 2.561853 1_556
Mn7 Si1 2.608468 1_555
Mn7 Si3 2.664773 1_546
Mn8 Si2 2.492673 1_555
Mn8 Si3 2.492673 1_555
Mn9 Si1 2.492673 1_555
Mn9 Si0 2.492673 1_555
Fe0 Si2 2.261688 1_555
Fe0 Si3 2.425930 1_655
Fe0 Mn8 2.490768 1_555
Fe1 Si3 2.261688 1_555
Fe1 Si2 2.425930 1_565
Fe1 Mn8 2.490768 1_555
Fe2 Si0 2.261688 1_555
Fe2 Si1 2.425930 1_455
Fe2 Mn9 2.490768 1_555
Fe3 Si1 2.261688 1_555
Fe3 Si0 2.425930 1_545
Fe3 Mn9 2.490768 1_555
Fe4 Si0 2.327356 1_555
Fe4 Si3 2.339561 1_556
Fe5 Si1 2.327356 1_555
Fe5 Si2 2.339561 1_556
Fe6 Si2 2.327356 1_555
Fe6 Si1 2.339561 1_555
Fe7 Si3 2.327356 1_555
Fe7 Si0 2.339561 1_555
Fe8 Si0 2.580011 1_655
Fe8 Si1 2.580011 1_565
Fe9 Si3 2.580011 1_545
Fe9 Si2 2.580011 1_455
C0 Fe1 1.979084 1_556
C0 Fe0 1.979084 1_556
C0 Mn1 1.992178 1_555
C0 Mn0 1.992178 1_555
C0 Fe4 2.008954 1_655
C0 Fe5 2.008954 1_565
C0 Fe8 2.222913 1_555
C0 Mn8 2.422675 1_556
C1 Fe2 1.979084 1_555
C1 Fe3 1.979084 1_555
C1 Mn3 1.992178 1_555
C1 Mn2 1.992178 1_555
C1 Fe6 2.008954 1_455
C1 Fe7 2.008954 1_545
C1 Fe9 2.222913 1_555
C1 Mn9 2.422675 1_555
C2 Fe0 1.976237 1_555
C2 Fe1 1.976237 1_555
C2 Fe6 1.976874 1_565
C2 Fe7 1.976874 1_655
C2 Mn5 2.010543 1_555
C2 Mn4 2.010543 1_555
C2 Fe8 2.138061 1_555
C3 Fe2 1.976237 1_555
C3 Fe3 1.976237 1_555
C3 Fe5 1.976874 1_455
C3 Fe4 1.976874 1_545
C3 Mn6 2.010543 1_555
C3 Mn7 2.010543 1_555
C3 Fe9 2.138061 1_556
