# generated using pymatgen
data_Er2Ge5Ru3
_symmetry_space_group_name_H-M   'P 1'
_cell_length_a   8.44045935
_cell_length_b   8.44045935
_cell_length_c   8.44045935
_cell_angle_alpha   140.16248272
_cell_angle_beta   108.74826830
_cell_angle_gamma   84.87809677
_symmetry_Int_Tables_number   1
_chemical_formula_structural   Er2Ge5Ru3
_chemical_formula_sum   'Er4 Ge10 Ru6'
_cell_volume   352.25448358
_cell_formula_units_Z   2
loop_
 _symmetry_equiv_pos_site_id
 _symmetry_equiv_pos_as_xyz
  1  'x, y, z'
loop_
 _atom_site_type_symbol
 _atom_site_label
 _atom_site_symmetry_multiplicity
 _atom_site_fract_x
 _atom_site_fract_y
 _atom_site_fract_z
 _atom_site_occupancy
  Er  Er0  1  0.86950100  0.63782300  0.23167800  1
  Er  Er1  1  0.13049900  0.36217700  0.76832200  1
  Er  Er2  1  0.40614500  0.13782300  0.26832200  1
  Er  Er3  1  0.59385500  0.86217700  0.73167800  1
  Ge  Ge0  1  0.50000000  0.75000000  0.25000000  1
  Ge  Ge1  1  0.50000000  0.25000000  0.75000000  1
  Ge  Ge2  1  0.20792400  0.95792400  0.75000000  1
  Ge  Ge3  1  0.79207600  0.54207600  0.75000000  1
  Ge  Ge4  1  0.79207600  0.04207600  0.25000000  1
  Ge  Ge5  1  0.20792400  0.45792400  0.25000000  1
  Ge  Ge6  1  0.08624200  0.91132200  0.17492000  1
  Ge  Ge7  1  0.91375800  0.08867800  0.82508000  1
  Ge  Ge8  1  0.73640200  0.41132200  0.32508000  1
  Ge  Ge9  1  0.26359800  0.58867800  0.67492000  1
  Ru  Ru0  1  0.00000000  0.75000000  0.75000000  1
  Ru  Ru1  1  0.00000000  0.25000000  0.25000000  1
  Ru  Ru2  1  0.26014600  0.85273800  0.40740900  1
  Ru  Ru3  1  0.73985400  0.14726200  0.59259100  1
  Ru  Ru4  1  0.44532900  0.35273800  0.09259100  1
  Ru  Ru5  1  0.55467100  0.64726200  0.90740900  1
loop_
_geom_bond_atom_site_label_1
_geom_bond_atom_site_label_2
_geom_bond_distance
_geom_bond_site_symmetry_2
Er0 Ge8 2.967460 1_555
Er0 Ge7 3.080126 1_554
Er0 Ge7 3.080126 1_565
Er0 Ge5 3.129067 1_655
Er0 Ge2 3.129067 1_655
Er0 Ru3 3.186388 1_565
Er0 Ru3 3.186393 1_554
Er0 Ru2 3.186592 1_655
Er0 Ru5 3.190694 1_554
Er0 Ge1 3.194522 1_554
Er0 Ge0 3.194522 1_555
Er0 Ge4 3.309042 1_565
Er0 Ge3 3.309042 1_554
Er0 Ge6 3.452668 1_655
Er0 Ru1 3.460704 1_655
Er0 Ru0 3.460704 1_655
Er1 Ge9 2.967460 1_555
Er1 Ge6 3.080126 1_545
Er1 Ge6 3.080126 1_556
Er1 Ge4 3.129067 1_455
Er1 Ge3 3.129067 1_455
Er1 Ru2 3.186388 1_545
Er1 Ru2 3.186393 1_556
Er1 Ru3 3.186592 1_455
Er1 Ru4 3.190694 1_556
Er1 Ge1 3.194522 1_555
Er1 Ge0 3.194522 1_556
Er1 Ge2 3.309042 1_545
Er1 Ge5 3.309042 1_556
Er1 Ge7 3.452668 1_455
Er1 Ru1 3.460704 1_555
Er1 Ru0 3.460704 1_555
Er2 Ge6 2.967460 1_545
Er2 Ge9 3.080126 1_555
Er2 Ge9 3.080126 1_544
Er2 Ge2 3.129067 1_544
Er2 Ge5 3.129067 1_555
Er2 Ru5 3.186392 1_555
Er2 Ru5 3.186392 1_544
Er2 Ru4 3.186599 1_555
Er2 Ru3 3.190699 1_555
Er2 Ge1 3.194522 1_555
Er2 Ge0 3.194522 1_545
Er2 Ge3 3.309042 1_555
Er2 Ge4 3.309042 1_555
Er2 Ge8 3.452668 1_555
Er2 Ru1 3.460704 1_555
Er2 Ru0 3.460704 1_544
Er3 Ge7 2.967460 1_565
Er3 Ge8 3.080126 1_555
Er3 Ge8 3.080126 1_566
Er3 Ge3 3.129067 1_555
Er3 Ge4 3.129067 1_566
Er3 Ru4 3.186392 1_555
Er3 Ru4 3.186392 1_566
Er3 Ru5 3.186599 1_555
Er3 Ru2 3.190699 1_555
Er3 Ge0 3.194522 1_555
Er3 Ge1 3.194522 1_565
Er3 Ge5 3.309042 1_555
Er3 Ge2 3.309042 1_555
Er3 Ge9 3.452668 1_555
Er3 Ru0 3.460704 1_655
Er3 Ru1 3.460704 1_666
Ge0 Ru4 2.502371 1_555
Ge0 Ru5 2.502371 1_554
Ge0 Ru3 2.502376 1_565
Ge0 Ru2 2.502379 1_555
Ge1 Ru4 2.502371 1_556
Ge1 Ru5 2.502371 1_555
Ge1 Ru2 2.502376 1_545
Ge1 Ru3 2.502379 1_555
Ge2 Ru2 2.480095 1_555
Ge2 Ru4 2.480099 1_566
Ge2 Ru0 2.590326 1_555
Ge2 Ge7 2.689326 1_465
Ge2 Ge9 2.689326 1_555
Ge2 Ge5 2.875558 1_566
Ge2 Ge5 2.875558 1_555
Ge3 Ru3 2.480098 1_555
Ge3 Ru5 2.480099 1_555
Ge3 Ru0 2.590326 1_655
Ge3 Ge8 2.689326 1_555
Ge3 Ge6 2.689326 1_656
Ge3 Ge4 2.875558 1_566
Ge3 Ge4 2.875558 1_555
Ge4 Ru3 2.480095 1_555
Ge4 Ru5 2.480099 1_544
Ge4 Ru1 2.590326 1_655
Ge4 Ge6 2.689326 1_645
Ge4 Ge8 2.689326 1_555
Ge5 Ru2 2.480098 1_555
Ge5 Ru4 2.480099 1_555
Ge5 Ru1 2.590326 1_555
Ge5 Ge7 2.689326 1_454
Ge5 Ge9 2.689326 1_555
Ge6 Ru2 2.399731 1_555
Ge6 Ru1 2.499206 1_565
Ge6 Ru0 2.499206 1_554
Ge7 Ru3 2.399731 1_555
Ge7 Ru0 2.499206 1_645
Ge7 Ru1 2.499206 1_656
Ge8 Ru4 2.399734 1_555
Ge8 Ru1 2.499206 1_655
Ge8 Ru0 2.499206 1_655
Ge9 Ru5 2.399734 1_555
Ge9 Ru1 2.499206 1_555
Ge9 Ru0 2.499206 1_555
