# generated using pymatgen
data_Mg30CrBO32
_symmetry_space_group_name_H-M   'P 1'
_cell_length_a   8.52116000
_cell_length_b   8.52116000
_cell_length_c   8.50376900
_cell_angle_alpha   90.00000000
_cell_angle_beta   90.00000000
_cell_angle_gamma   90.00000000
_symmetry_Int_Tables_number   1
_chemical_formula_structural   Mg30CrBO32
_chemical_formula_sum   'Mg30 Cr1 B1 O32'
_cell_volume   617.46009356
_cell_formula_units_Z   1
loop_
 _symmetry_equiv_pos_site_id
 _symmetry_equiv_pos_as_xyz
  1  'x, y, z'
loop_
 _atom_site_type_symbol
 _atom_site_label
 _atom_site_symmetry_multiplicity
 _atom_site_fract_x
 _atom_site_fract_y
 _atom_site_fract_z
 _atom_site_occupancy
  Mg  Mg0  1  0.00000000  0.50000000  0.00000000  1
  Mg  Mg1  1  0.00000000  0.50000000  0.50000000  1
  Mg  Mg2  1  0.50000000  0.00000000  0.00000000  1
  Mg  Mg3  1  0.50000000  0.00000000  0.50000000  1
  Mg  Mg4  1  0.50000000  0.50000000  0.00000000  1
  Mg  Mg5  1  0.50000000  0.50000000  0.50000000  1
  Mg  Mg6  1  0.00000000  0.24936300  0.25547600  1
  Mg  Mg7  1  0.00000000  0.24936300  0.74452400  1
  Mg  Mg8  1  0.00000000  0.75063700  0.25547600  1
  Mg  Mg9  1  0.00000000  0.75063700  0.74452400  1
  Mg  Mg10  1  0.50000000  0.24975700  0.25071700  1
  Mg  Mg11  1  0.50000000  0.24975700  0.74928300  1
  Mg  Mg12  1  0.50000000  0.75024300  0.25071700  1
  Mg  Mg13  1  0.50000000  0.75024300  0.74928300  1
  Mg  Mg14  1  0.24936300  0.00000000  0.25547600  1
  Mg  Mg15  1  0.24936300  0.00000000  0.74452400  1
  Mg  Mg16  1  0.24975700  0.50000000  0.25071700  1
  Mg  Mg17  1  0.24975700  0.50000000  0.74928300  1
  Mg  Mg18  1  0.75063700  0.00000000  0.25547600  1
  Mg  Mg19  1  0.75063700  0.00000000  0.74452400  1
  Mg  Mg20  1  0.75024300  0.50000000  0.25071700  1
  Mg  Mg21  1  0.75024300  0.50000000  0.74928300  1
  Mg  Mg22  1  0.25067400  0.25067400  0.00000000  1
  Mg  Mg23  1  0.24800200  0.24800200  0.50000000  1
  Mg  Mg24  1  0.25067400  0.74932600  0.00000000  1
  Mg  Mg25  1  0.24800200  0.75199800  0.50000000  1
  Mg  Mg26  1  0.74932600  0.25067400  0.00000000  1
  Mg  Mg27  1  0.75199800  0.24800200  0.50000000  1
  Mg  Mg28  1  0.74932600  0.74932600  0.00000000  1
  Mg  Mg29  1  0.75199800  0.75199800  0.50000000  1
  Cr  Cr0  1  0.00000000  0.00000000  0.00000000  1
  B  B0  1  0.00000000  0.00000000  0.50000000  1
  O  O0  1  0.24673500  0.00000000  0.00000000  1
  O  O1  1  0.25749400  0.00000000  0.50000000  1
  O  O2  1  0.24941200  0.50000000  0.00000000  1
  O  O3  1  0.25071200  0.50000000  0.50000000  1
  O  O4  1  0.75326500  0.00000000  0.00000000  1
  O  O5  1  0.74250600  0.00000000  0.50000000  1
  O  O6  1  0.75058800  0.50000000  0.00000000  1
  O  O7  1  0.74928800  0.50000000  0.50000000  1
  O  O8  1  0.24918500  0.24918500  0.24954100  1
  O  O9  1  0.24918500  0.24918500  0.75045900  1
  O  O10  1  0.24918500  0.75081500  0.24954100  1
  O  O11  1  0.24918500  0.75081500  0.75045900  1
  O  O12  1  0.75081500  0.24918500  0.24954100  1
  O  O13  1  0.75081500  0.24918500  0.75045900  1
  O  O14  1  0.75081500  0.75081500  0.24954100  1
  O  O15  1  0.75081500  0.75081500  0.75045900  1
  O  O16  1  0.00000000  0.00000000  0.28679900  1
  O  O17  1  0.00000000  0.00000000  0.71320100  1
  O  O18  1  0.00000000  0.50000000  0.24756000  1
  O  O19  1  0.00000000  0.50000000  0.75244000  1
  O  O20  1  0.50000000  0.00000000  0.24756000  1
  O  O21  1  0.50000000  0.00000000  0.75244000  1
  O  O22  1  0.50000000  0.50000000  0.24893200  1
  O  O23  1  0.50000000  0.50000000  0.75106800  1
  O  O24  1  0.00000000  0.24673500  0.00000000  1
  O  O25  1  0.00000000  0.25749400  0.50000000  1
  O  O26  1  0.00000000  0.75326500  0.00000000  1
  O  O27  1  0.00000000  0.74250600  0.50000000  1
  O  O28  1  0.50000000  0.24941200  0.00000000  1
  O  O29  1  0.50000000  0.25071200  0.50000000  1
  O  O30  1  0.50000000  0.75058800  0.00000000  1
  O  O31  1  0.50000000  0.74928800  0.50000000  1
loop_
_geom_bond_atom_site_label_1
_geom_bond_atom_site_label_2
_geom_bond_distance
_geom_bond_site_symmetry_2
Mg0 O19 2.105193 1_554
Mg0 O18 2.105193 1_555
Mg0 O2 2.125280 1_555
Mg0 O6 2.125280 1_455
Mg0 O26 2.158112 1_555
Mg0 O24 2.158112 1_555
Mg1 O25 2.066432 1_555
Mg1 O27 2.066432 1_555
Mg1 O3 2.136357 1_555
Mg1 O7 2.136357 1_455
Mg1 O18 2.146691 1_555
Mg1 O19 2.146691 1_555
Mg2 O21 2.105193 1_554
Mg2 O20 2.105193 1_555
Mg2 O28 2.125280 1_555
Mg2 O30 2.125280 1_545
Mg2 O4 2.158112 1_555
Mg2 O0 2.158112 1_555
Mg3 O1 2.066432 1_555
Mg3 O5 2.066432 1_555
Mg3 O29 2.136357 1_555
Mg3 O31 2.136357 1_545
Mg3 O20 2.146691 1_555
Mg3 O21 2.146691 1_555
Mg4 O22 2.116860 1_555
Mg4 O23 2.116860 1_554
Mg4 O6 2.135300 1_555
Mg4 O30 2.135300 1_555
Mg4 O2 2.135300 1_555
Mg4 O28 2.135300 1_555
Mg5 O31 2.124223 1_555
Mg5 O7 2.124223 1_555
Mg5 O29 2.124223 1_555
Mg5 O3 2.124223 1_555
Mg5 O23 2.135024 1_555
Mg5 O22 2.135024 1_555
Mg6 O25 2.080530 1_555
Mg6 O12 2.123946 1_455
Mg6 O8 2.123946 1_555
Mg6 O18 2.136779 1_555
Mg6 O16 2.141492 1_555
Mg6 O24 2.172624 1_555
Mg7 O25 2.080530 1_555
Mg7 O13 2.123946 1_455
Mg7 O9 2.123946 1_555
Mg7 O19 2.136779 1_555
Mg7 O17 2.141492 1_555
Mg7 O24 2.172624 1_556
Mg8 O27 2.080530 1_555
Mg8 O10 2.123946 1_555
Mg8 O14 2.123946 1_455
Mg8 O18 2.136779 1_555
Mg8 O16 2.141492 1_565
Mg8 O26 2.172624 1_555
Mg9 O27 2.080530 1_555
Mg9 O11 2.123946 1_555
Mg9 O15 2.123946 1_455
Mg9 O19 2.136779 1_555
Mg9 O17 2.141492 1_565
Mg9 O26 2.172624 1_556
Mg10 O29 2.119861 1_555
Mg10 O20 2.128389 1_555
Mg10 O28 2.132041 1_555
Mg10 O22 2.132415 1_555
Mg10 O8 2.137264 1_555
Mg10 O12 2.137264 1_555
Mg11 O29 2.119861 1_555
Mg11 O21 2.128389 1_555
Mg11 O28 2.132041 1_556
Mg11 O23 2.132415 1_555
Mg11 O9 2.137264 1_555
Mg11 O13 2.137264 1_555
Mg12 O31 2.119861 1_555
Mg12 O20 2.128389 1_565
Mg12 O30 2.132041 1_555
Mg12 O22 2.132415 1_555
Mg12 O14 2.137264 1_555
Mg12 O10 2.137264 1_555
Mg13 O31 2.119861 1_555
Mg13 O21 2.128389 1_565
Mg13 O30 2.132041 1_556
Mg13 O23 2.132415 1_555
Mg13 O11 2.137264 1_555
Mg13 O15 2.137264 1_555
Mg14 O1 2.080530 1_555
Mg14 O8 2.123946 1_555
Mg14 O10 2.123946 1_545
Mg14 O20 2.136779 1_555
Mg14 O16 2.141492 1_555
Mg14 O0 2.172624 1_555
Mg15 O1 2.080530 1_555
Mg15 O9 2.123946 1_555
Mg15 O11 2.123946 1_545
Mg15 O21 2.136779 1_555
Mg15 O17 2.141492 1_555
Mg15 O0 2.172624 1_556
Mg16 O3 2.119861 1_555
Mg16 O18 2.128389 1_555
Mg16 O2 2.132041 1_555
Mg16 O22 2.132415 1_555
Mg16 O8 2.137264 1_555
Mg16 O10 2.137264 1_555
Mg17 O3 2.119861 1_555
Mg17 O19 2.128389 1_555
Mg17 O2 2.132041 1_556
Mg17 O23 2.132415 1_555
Mg17 O11 2.137264 1_555
Mg17 O9 2.137264 1_555
Mg18 O5 2.080530 1_555
Mg18 O12 2.123946 1_555
Mg18 O14 2.123946 1_545
Mg18 O20 2.136779 1_555
Mg18 O16 2.141492 1_655
Mg18 O4 2.172624 1_555
Mg19 O5 2.080530 1_555
Mg19 O13 2.123946 1_555
Mg19 O15 2.123946 1_545
Mg19 O21 2.136779 1_555
Mg19 O17 2.141492 1_655
Mg19 O4 2.172624 1_556
Mg20 O7 2.119861 1_555
Mg20 O18 2.128389 1_655
Mg20 O6 2.132041 1_555
Mg20 O22 2.132415 1_555
Mg20 O14 2.137264 1_555
Mg20 O12 2.137264 1_555
Mg21 O7 2.119861 1_555
Mg21 O19 2.128389 1_655
Mg21 O6 2.132041 1_556
Mg21 O23 2.132415 1_555
Mg21 O15 2.137264 1_555
Mg21 O13 2.137264 1_555
Mg22 O8 2.122115 1_555
Mg22 O9 2.122115 1_554
Mg22 O2 2.124574 1_555
Mg22 O28 2.124574 1_555
Mg22 O0 2.136297 1_555
Mg22 O24 2.136297 1_555
Mg23 O25 2.114812 1_555
Mg23 O1 2.114812 1_555
Mg23 O9 2.129893 1_555
Mg23 O8 2.129893 1_555
Mg23 O3 2.147439 1_555
Mg23 O29 2.147439 1_555
Mg24 O10 2.122115 1_555
Mg24 O11 2.122115 1_554
Mg24 O2 2.124574 1_555
Mg24 O30 2.124574 1_555
Mg24 O26 2.136297 1_555
Mg24 O0 2.136297 1_565
Mg25 O27 2.114812 1_555
Mg25 O1 2.114812 1_565
Mg25 O11 2.129893 1_555
Mg25 O10 2.129893 1_555
Mg25 O3 2.147439 1_555
Mg25 O31 2.147439 1_555
Mg26 O12 2.122115 1_555
Mg26 O13 2.122115 1_554
Mg26 O28 2.124574 1_555
Mg26 O6 2.124574 1_555
Mg26 O4 2.136297 1_555
Mg26 O24 2.136297 1_655
Mg27 O5 2.114812 1_555
Mg27 O25 2.114812 1_655
Mg27 O13 2.129893 1_555
Mg27 O12 2.129893 1_555
Mg27 O29 2.147439 1_555
Mg27 O7 2.147439 1_555
Mg28 O14 2.122115 1_555
Mg28 O15 2.122115 1_554
Mg28 O30 2.124574 1_555
Mg28 O6 2.124574 1_555
Mg28 O4 2.136297 1_565
Mg28 O26 2.136297 1_655
Mg29 O27 2.114812 1_655
Mg29 O5 2.114812 1_565
Mg29 O15 2.129893 1_555
Mg29 O14 2.129893 1_555
Mg29 O7 2.147439 1_555
Mg29 O31 2.147439 1_555
Cr0 O24 2.102468 1_555
Cr0 O0 2.102468 1_555
Cr0 O4 2.102468 1_455
Cr0 O26 2.102468 1_545
Cr0 O16 2.438872 1_555
Cr0 O17 2.438872 1_554
B0 O17 1.813012 1_555
B0 O16 1.813012 1_555
B0 O5 2.194148 1_455
B0 O25 2.194148 1_555
B0 O27 2.194148 1_545
B0 O1 2.194148 1_555
