# generated using pymatgen
data_Ba4Zn4B14Pb2O31
_symmetry_space_group_name_H-M   'P 1'
_cell_length_a   7.18499904
_cell_length_b   7.18499904
_cell_length_c   47.82857000
_cell_angle_alpha   90.00000000
_cell_angle_beta   90.00000000
_cell_angle_gamma   120.00000962
_symmetry_Int_Tables_number   1
_chemical_formula_structural   Ba4Zn4B14Pb2O31
_chemical_formula_sum   'Ba12 Zn12 B42 Pb6 O93'
_cell_volume   2138.31368476
_cell_formula_units_Z   3
loop_
 _symmetry_equiv_pos_site_id
 _symmetry_equiv_pos_as_xyz
  1  'x, y, z'
loop_
 _atom_site_type_symbol
 _atom_site_label
 _atom_site_symmetry_multiplicity
 _atom_site_fract_x
 _atom_site_fract_y
 _atom_site_fract_z
 _atom_site_occupancy
  Ba  Ba0  1  0.07666100  0.24096300  0.22289300  1
  Ba  Ba1  1  0.75903700  0.83569800  0.88956000  1
  Ba  Ba2  1  0.16430200  0.92333900  0.55622700  1
  Ba  Ba3  1  0.73097200  0.81291100  0.35878100  1
  Ba  Ba4  1  0.18708900  0.91806100  0.02544800  1
  Ba  Ba5  1  0.08193900  0.26902800  0.69211500  1
  Ba  Ba6  1  0.48705600  0.23834700  0.41297300  1
  Ba  Ba7  1  0.76165300  0.24870900  0.07963900  1
  Ba  Ba8  1  0.75129100  0.51294400  0.74630600  1
  Ba  Ba9  1  0.41009300  0.81418200  0.27634000  1
  Ba  Ba10  1  0.18581800  0.59591100  0.94300700  1
  Ba  Ba11  1  0.40408900  0.58990700  0.60967300  1
  Zn  Zn0  1  0.40081600  0.14498600  0.33442700  1
  Zn  Zn1  1  0.85501400  0.25582900  0.00109400  1
  Zn  Zn2  1  0.74417100  0.59918400  0.66776000  1
  Zn  Zn3  1  0.81456400  0.90236600  0.43201500  1
  Zn  Zn4  1  0.09763400  0.91219900  0.09868100  1
  Zn  Zn5  1  0.08780100  0.18543600  0.76534800  1
  Zn  Zn6  1  0.39744100  0.88919700  0.20279800  1
  Zn  Zn7  1  0.11080300  0.50824400  0.86946500  1
  Zn  Zn8  1  0.49175600  0.60255900  0.53613200  1
  Zn  Zn9  1  0.07504900  0.14418500  0.30071500  1
  Zn  Zn10  1  0.85581500  0.93086400  0.96738200  1
  Zn  Zn11  1  0.06913600  0.92495100  0.63404900  1
  B  B0  1  0.67995600  0.73001500  0.21946200  1
  B  B1  1  0.26998500  0.94994100  0.88612800  1
  B  B2  1  0.05005900  0.32004400  0.55279500  1
  B  B3  1  0.78140700  0.67646000  0.28636800  1
  B  B4  1  0.32354000  0.10494700  0.95303400  1
  B  B5  1  0.89505300  0.21859300  0.61970100  1
  B  B6  1  0.10559600  0.28838000  0.36059900  1
  B  B7  1  0.71162000  0.81721600  0.02726600  1
  B  B8  1  0.18278400  0.89440400  0.69393200  1
  B  B9  1  0.10725100  0.33387000  0.41533000  1
  B  B10  1  0.66613000  0.77338100  0.08199600  1
  B  B11  1  0.22661900  0.89274900  0.74866300  1
  B  B12  1  0.51363800  0.29001600  0.27385900  1
  B  B13  1  0.70998400  0.22362200  0.94052500  1
  B  B14  1  0.77637800  0.48636200  0.60719200  1
  B  B15  1  0.94782900  0.61455300  0.22169700  1
  B  B16  1  0.38544700  0.33327600  0.88836400  1
  B  B17  1  0.66672400  0.05217100  0.55503100  1
  B  B18  1  0.22320000  0.67498900  0.34820200  1
  B  B19  1  0.32501100  0.54821100  0.01486800  1
  B  B20  1  0.45178900  0.77680000  0.68153500  1
  B  B21  1  0.37744800  0.73353500  0.41473400  1
  B  B22  1  0.26646500  0.64391300  0.08140100  1
  B  B23  1  0.35608700  0.62255200  0.74806800  1
  B  B24  1  0.99394700  0.61981200  0.41383500  1
  B  B25  1  0.38018800  0.37413600  0.08050200  1
  B  B26  1  0.62586400  0.00605300  0.74716900  1
  B  B27  1  0.55041000  0.32981200  0.21928600  1
  B  B28  1  0.67018800  0.22059800  0.88595300  1
  B  B29  1  0.77940200  0.44959000  0.55262000  1
  B  B30  1  0.90893300  0.41819600  0.28203700  1
  B  B31  1  0.58180400  0.49073800  0.94870300  1
  B  B32  1  0.50926200  0.09106700  0.61537000  1
  B  B33  1  0.38854500  0.04096100  0.48275500  1
  B  B34  1  0.95903900  0.34758400  0.14942200  1
  B  B35  1  0.65241600  0.61145500  0.81608900  1
  B  B36  1  0.83915300  0.41722900  0.35331600  1
  B  B37  1  0.58277100  0.42192400  0.01998300  1
  B  B38  1  0.57807600  0.16084700  0.68665000  1
  B  B39  1  0.21396300  0.75874200  0.14892100  1
  B  B40  1  0.24125800  0.45522100  0.81558700  1
  B  B41  1  0.54477900  0.78603700  0.48225400  1
  Pb  Pb0  1  0.13497300  0.24048700  0.48506400  1
  Pb  Pb1  1  0.75951300  0.89448600  0.15173100  1
  Pb  Pb2  1  0.10551400  0.86502700  0.81839700  1
  Pb  Pb3  1  0.84871000  0.56066200  0.48596500  1
  Pb  Pb4  1  0.43933800  0.28804800  0.15263200  1
  Pb  Pb5  1  0.71195200  0.15129000  0.81929900  1
  O  O0  1  0.88452400  0.25460700  0.35401200  1
  O  O1  1  0.74539300  0.62991700  0.02067800  1
  O  O2  1  0.37008300  0.11547600  0.68734500  1
  O  O3  1  0.15564000  0.66210200  0.22420000  1
  O  O4  1  0.33789800  0.49353800  0.89086700  1
  O  O5  1  0.50646200  0.84436000  0.55753300  1
  O  O6  1  0.83172200  0.66539300  0.41339600  1
  O  O7  1  0.33460700  0.16632900  0.08006300  1
  O  O8  1  0.83367100  0.16827800  0.74672900  1
  O  O9  1  0.44012100  0.22098700  0.24498300  1
  O  O10  1  0.77901300  0.21913400  0.91165000  1
  O  O11  1  0.78086600  0.55987900  0.57831700  1
  O  O12  1  0.06785500  0.18255300  0.43836500  1
  O  O13  1  0.81744700  0.88530200  0.10503200  1
  O  O14  1  0.11469800  0.93214500  0.77169800  1
  O  O15  1  0.43232100  0.17548300  0.19644200  1
  O  O16  1  0.82451700  0.25683700  0.86310900  1
  O  O17  1  0.74316300  0.56767900  0.52977600  1
  O  O18  1  0.63486100  0.38413600  0.35512100  1
  O  O19  1  0.61586400  0.25072500  0.02178800  1
  O  O20  1  0.74927500  0.36513900  0.68845400  1
  O  O21  1  0.10937900  0.22254300  0.38969300  1
  O  O22  1  0.77745700  0.88683700  0.05635900  1
  O  O23  1  0.11316300  0.89062100  0.72302600  1
  O  O24  1  0.57957000  0.90025500  0.41023800  1
  O  O25  1  0.09974500  0.67931500  0.07690500  1
  O  O26  1  0.32068500  0.42043000  0.74357200  1
  O  O27  1  0.78564600  0.40351300  0.21903400  1
  O  O28  1  0.59648700  0.38213200  0.88570100  1
  O  O29  1  0.61786800  0.21435400  0.55236800  1
  O  O30  1  0.64657500  0.89994200  0.22211300  1
  O  O31  1  0.10005800  0.74663200  0.88877900  1
  O  O32  1  0.25336800  0.35342500  0.55544600  1
  O  O33  1  0.08128400  0.38648600  0.28074900  1
  O  O34  1  0.61351400  0.69479800  0.94741500  1
  O  O35  1  0.30520200  0.91871600  0.61408200  1
  O  O36  1  0.38669900  0.86553100  0.33870800  1
  O  O37  1  0.13446900  0.52116700  0.00537400  1
  O  O38  1  0.47883300  0.61330100  0.67204100  1
  O  O39  1  0.32850700  0.52681000  0.42019500  1
  O  O40  1  0.47319000  0.80169700  0.08686200  1
  O  O41  1  0.19830300  0.67149300  0.75352900  1
  O  O42  1  0.57826600  0.52041000  0.27828400  1
  O  O43  1  0.47959000  0.05785600  0.94495000  1
  O  O44  1  0.94214400  0.42173400  0.61161700  1
  O  O45  1  0.12935100  0.14205900  0.34190900  1
  O  O46  1  0.85794100  0.98729300  0.00857600  1
  O  O47  1  0.01270700  0.87064900  0.67524300  1
  O  O48  1  0.34603900  0.14583300  0.29297900  1
  O  O49  1  0.85416700  0.20020600  0.95964600  1
  O  O50  1  0.79979400  0.65396100  0.62631300  1
  O  O51  1  0.89647800  0.77991400  0.22180500  1
  O  O52  1  0.22008600  0.11656400  0.88847200  1
  O  O53  1  0.88343600  0.10352200  0.55513900  1
  O  O54  1  0.72966600  0.79159800  0.47217200  1
  O  O55  1  0.20840200  0.93806800  0.13883800  1
  O  O56  1  0.06193200  0.27033400  0.80550500  1
  O  O57  1  0.80773300  0.86759800  0.29550200  1
  O  O58  1  0.13240200  0.94013500  0.96216800  1
  O  O59  1  0.05986500  0.19226700  0.62883500  1
  O  O60  1  0.95225500  0.63243700  0.28512900  1
  O  O61  1  0.36756300  0.31981800  0.95179500  1
  O  O62  1  0.68018200  0.04774500  0.61846200  1
  O  O63  1  0.45180300  0.24800000  0.47336800  1
  O  O64  1  0.75200000  0.20380300  0.14003500  1
  O  O65  1  0.79619700  0.54819700  0.80670200  1
  O  O66  1  0.19655100  0.92713000  0.49679100  1
  O  O67  1  0.07287000  0.26942200  0.16345800  1
  O  O68  1  0.73057800  0.80344900  0.83012500  1
  O  O69  1  0.94522000  0.40797400  0.41478300  1
  O  O70  1  0.59202600  0.53724600  0.08145000  1
  O  O71  1  0.46275400  0.05478000  0.74811700  1
  O  O72  1  0.00926600  0.63251700  0.35071000  1
  O  O73  1  0.36748300  0.37674900  0.01737600  1
  O  O74  1  0.62325100  0.99073400  0.68404300  1
  O  O75  1  0.52197700  0.52295900  0.21419900  1
  O  O76  1  0.47704100  0.99901800  0.88086600  1
  O  O77  1  0.00098200  0.47802300  0.54753300  1
  O  O78  1  0.70170800  0.25577100  0.27995000  1
  O  O79  1  0.74422900  0.44593700  0.94661600  1
  O  O80  1  0.55406300  0.29829200  0.61328300  1
  O  O81  1  0.37994500  0.77246400  0.16431100  1
  O  O82  1  0.22753600  0.60748000  0.83097800  1
  O  O83  1  0.39252000  0.62005500  0.49764400  1
  O  O84  1  0.21061000  0.78464500  0.41365500  1
  O  O85  1  0.21535500  0.42596500  0.08032200  1
  O  O86  1  0.57403500  0.78939000  0.74698900  1
  O  O87  1  0.27105400  0.51798300  0.35549500  1
  O  O88  1  0.48201700  0.75307100  0.02216100  1
  O  O89  1  0.24692900  0.72894600  0.68882800  1
  O  O90  1  0.53262300  0.96989000  0.47576000  1
  O  O91  1  0.03011000  0.56273200  0.14242600  1
  O  O92  1  0.43726800  0.46737700  0.80909300  1
loop_
_geom_bond_atom_site_label_1
_geom_bond_atom_site_label_2
_geom_bond_distance
_geom_bond_site_symmetry_2
Ba0 O3 2.786541 1_555
Ba0 O30 2.825339 1_445
Ba0 O75 2.834207 1_555
Ba0 O67 2.851143 1_555
Ba0 O27 2.865695 1_455
Ba0 O9 2.886417 1_555
Ba0 O51 2.892007 1_445
Ba0 O33 2.952430 1_555
Ba0 O15 3.090998 1_555
Ba1 O4 2.786541 1_555
Ba1 O31 2.825345 1_655
Ba1 O76 2.834208 1_555
Ba1 O68 2.851142 1_555
Ba1 O28 2.865701 1_555
Ba1 O10 2.886417 1_565
Ba1 O52 2.892007 1_665
Ba1 O34 2.952385 1_555
Ba1 O16 3.090992 1_565
Ba2 O5 2.786540 1_555
Ba2 O32 2.825338 1_565
Ba2 O77 2.834207 1_555
Ba2 O66 2.851190 1_555
Ba2 O29 2.865700 1_565
Ba2 O11 2.886416 1_455
Ba2 O53 2.892008 1_465
Ba2 O35 2.952385 1_555
Ba2 O17 3.090994 1_455
Ba3 O45 2.769093 1_665
Ba3 O0 2.799920 1_565
Ba3 O18 2.805546 1_555
Ba3 O36 2.849310 1_555
Ba3 O24 2.883915 1_555
Ba3 O72 2.901518 1_655
Ba3 O87 2.903867 1_555
Ba3 O6 3.039419 1_555
Ba3 O57 3.066241 1_555
Ba3 O21 3.199745 1_665
Ba4 O46 2.769098 1_455
Ba4 O1 2.799924 1_455
Ba4 O19 2.805545 1_565
Ba4 O37 2.849333 1_555
Ba4 O25 2.883915 1_555
Ba4 O73 2.901524 1_565
Ba4 O88 2.903870 1_555
Ba4 O7 3.039419 1_565
Ba4 O58 3.066288 1_554
Ba4 O22 3.199726 1_455
Ba5 O47 2.769091 1_545
Ba5 O2 2.799924 1_555
Ba5 O20 2.805549 1_455
Ba5 O38 2.849330 1_555
Ba5 O26 2.883915 1_555
Ba5 O74 2.901524 1_445
Ba5 O89 2.903870 1_555
Ba5 O8 3.039378 1_455
Ba5 O59 3.066288 1_555
Ba5 O23 3.199720 1_545
Ba6 O6 2.819438 1_555
Ba6 O24 2.823940 1_545
Ba6 O39 2.841442 1_555
Ba6 O84 2.845698 1_545
Ba6 O21 2.882395 1_555
Ba6 O69 2.884003 1_555
Ba6 O63 2.903547 1_555
Ba6 O18 2.961215 1_555
Ba6 O12 3.082221 1_555
Ba7 O7 2.819438 1_555
Ba7 O25 2.823937 1_655
Ba7 O40 2.841447 1_545
Ba7 O85 2.845699 1_655
Ba7 O22 2.882388 1_545
Ba7 O70 2.884005 1_555
Ba7 O64 2.903594 1_555
Ba7 O19 2.961171 1_555
Ba7 O13 3.082240 1_545
Ba8 O8 2.819438 1_555
Ba8 O26 2.823938 1_555
Ba8 O41 2.841447 1_655
Ba8 O86 2.845699 1_555
Ba8 O23 2.882392 1_655
Ba8 O71 2.884004 1_555
Ba8 O65 2.903594 1_555
Ba8 O20 2.961215 1_555
Ba8 O14 3.082221 1_655
Ba9 O48 2.760451 1_565
Ba9 O33 2.794496 1_555
Ba9 O78 2.799787 1_565
Ba9 O57 2.837857 1_555
Ba9 O60 2.899573 1_455
Ba9 O42 2.911088 1_555
Ba9 O3 2.959340 1_555
Ba9 O30 2.991068 1_555
Ba9 O36 3.020680 1_555
Ba9 O9 3.195077 1_565
Ba10 O49 2.760451 1_455
Ba10 O34 2.794493 1_555
Ba10 O79 2.799784 1_455
Ba10 O58 2.837842 1_555
Ba10 O61 2.899566 1_555
Ba10 O43 2.911086 1_565
Ba10 O4 2.959340 1_555
Ba10 O31 2.991106 1_555
Ba10 O37 3.020634 1_556
Ba10 O10 3.195077 1_455
Ba11 O50 2.760465 1_555
Ba11 O35 2.794497 1_555
Ba11 O80 2.799787 1_555
Ba11 O59 2.837857 1_555
Ba11 O62 2.899572 1_565
Ba11 O44 2.911087 1_455
Ba11 O5 2.959340 1_555
Ba11 O32 2.991068 1_555
Ba11 O38 3.020681 1_555
Ba11 O11 3.195055 1_555
B0 O30 1.362751 1_555
B0 O75 1.369802 1_555
B0 O51 1.415476 1_555
B1 O31 1.362755 1_555
B1 O76 1.369793 1_555
B1 O52 1.415480 1_565
B2 O32 1.362758 1_555
B2 O77 1.369793 1_555
B2 O53 1.415480 1_455
B3 O57 1.361208 1_555
B3 O42 1.378575 1_555
B3 O60 1.413754 1_555
B4 O58 1.361208 1_545
B4 O43 1.378576 1_555
B4 O61 1.413754 1_555
B5 O59 1.361208 1_655
B5 O44 1.378576 1_555
B5 O62 1.413754 1_555
B6 O45 1.453589 1_555
B6 O21 1.474348 1_555
B6 O87 1.494386 1_555
B6 O0 1.515163 1_455
B7 O46 1.453592 1_555
B7 O22 1.474304 1_555
B7 O88 1.494394 1_555
B7 O1 1.515173 1_555
B8 O47 1.453565 1_555
B8 O23 1.474350 1_555
B8 O89 1.494387 1_555
B8 O2 1.515163 1_565
B9 O21 1.468264 1_555
B9 O12 1.472487 1_555
B9 O69 1.503123 1_455
B9 O39 1.516353 1_555
B10 O22 1.468266 1_555
B10 O13 1.472523 1_555
B10 O70 1.503122 1_555
B10 O40 1.516361 1_555
B11 O23 1.468268 1_555
B11 O14 1.472487 1_555
B11 O71 1.503122 1_565
B11 O41 1.516361 1_555
B12 O48 1.453299 1_555
B12 O9 1.473246 1_555
B12 O42 1.493995 1_555
B12 O78 1.517847 1_555
B13 O49 1.453329 1_555
B13 O10 1.473201 1_555
B13 O43 1.493995 1_555
B13 O79 1.517847 1_555
B14 O50 1.453329 1_555
B14 O11 1.473201 1_555
B14 O44 1.493995 1_555
B14 O80 1.517847 1_555
B15 O3 1.360277 1_655
B15 O27 1.380723 1_555
B15 O51 1.409307 1_555
B16 O4 1.360277 1_555
B16 O28 1.380725 1_555
B16 O52 1.409307 1_555
B17 O5 1.360272 1_545
B17 O29 1.380718 1_555
B17 O53 1.409307 1_555
B18 O36 1.360962 1_555
B18 O87 1.378530 1_555
B18 O72 1.414627 1_555
B19 O37 1.360959 1_555
B19 O88 1.378530 1_555
B19 O73 1.414627 1_555
B20 O38 1.360966 1_555
B20 O89 1.378530 1_555
B20 O74 1.414626 1_555
B21 O24 1.360354 1_555
B21 O39 1.369579 1_555
B21 O84 1.419393 1_555
B22 O25 1.360354 1_555
B22 O40 1.369579 1_555
B22 O85 1.419393 1_555
B23 O26 1.360354 1_555
B23 O41 1.369579 1_555
B23 O86 1.419393 1_555
B24 O6 1.359418 1_555
B24 O69 1.381450 1_555
B24 O84 1.407985 1_655
B25 O7 1.359425 1_555
B25 O70 1.381448 1_555
B25 O85 1.407980 1_555
B26 O8 1.359423 1_555
B26 O71 1.381443 1_555
B26 O86 1.407987 1_545
B27 O9 1.459548 1_555
B27 O15 1.484046 1_555
B27 O27 1.497404 1_555
B27 O75 1.519974 1_555
B28 O10 1.459548 1_555
B28 O16 1.484048 1_555
B28 O28 1.497398 1_555
B28 O76 1.519973 1_545
B29 O11 1.459548 1_555
B29 O17 1.484043 1_555
B29 O29 1.497403 1_555
B29 O77 1.519973 1_655
B30 O78 1.360577 1_555
B30 O33 1.367967 1_655
B30 O60 1.417436 1_555
B31 O79 1.360582 1_555
B31 O34 1.367960 1_555
B31 O61 1.417439 1_555
B32 O80 1.360575 1_555
B32 O35 1.367962 1_545
B32 O62 1.417444 1_555
B33 O66 1.376339 1_545
B33 O63 1.394601 1_555
B33 O90 1.404617 1_545
B34 O67 1.376334 1_655
B34 O64 1.394601 1_555
B34 O91 1.404622 1_655
B35 O68 1.376340 1_555
B35 O65 1.394601 1_555
B35 O92 1.404623 1_555
B36 O0 1.361443 1_555
B36 O18 1.367306 1_555
B36 O72 1.418287 1_655
B37 O1 1.361442 1_555
B37 O19 1.367306 1_555
B37 O73 1.418291 1_555
B38 O2 1.361442 1_555
B38 O20 1.367302 1_555
B38 O74 1.418291 1_545
B39 O81 1.362426 1_555
B39 O55 1.394909 1_555
B39 O91 1.401611 1_555
B40 O82 1.362446 1_555
B40 O56 1.394892 1_555
B40 O92 1.401604 1_555
B41 O83 1.362424 1_555
B41 O54 1.394892 1_555
B41 O90 1.401597 1_555
O3 Zn6 1.973260 1_555
O4 Zn7 1.973260 1_555
O5 Zn8 1.973235 1_555
O6 Zn3 1.979178 1_555
O7 Zn4 1.979153 1_545
O8 Zn5 1.979172 1_655
O12 Zn3 1.947638 1_445
O12 Pb0 2.278995 1_555
O13 Zn4 1.947643 1_655
O13 Pb1 2.278995 1_555
O14 Zn5 1.947643 1_565
O14 Pb2 2.278995 1_555
O15 Zn6 1.967441 1_545
O15 Pb4 2.237513 1_555
O16 Zn7 1.967443 1_655
O16 Pb5 2.237512 1_555
O17 Zn8 1.967448 1_555
O17 Pb3 2.237555 1_555
O18 Zn0 1.967354 1_555
O19 Zn1 1.967357 1_555
O20 Zn2 1.967351 1_555
O24 Zn3 1.977442 1_555
O25 Zn4 1.977422 1_555
O26 Zn5 1.977419 1_555
O30 Zn6 1.981259 1_555
O31 Zn7 1.981230 1_555
O32 Zn8 1.981233 1_555
O33 Zn9 1.966413 1_555
O34 Zn10 1.966436 1_555
O35 Zn11 1.966437 1_555
O36 Zn0 1.969809 1_565
O37 Zn1 1.969804 1_455
O38 Zn2 1.969809 1_555
O45 Zn0 1.972774 1_555
O45 Zn9 2.010051 1_555
O46 Zn1 1.972760 1_565
O46 Zn10 2.010052 1_554
O47 Zn2 1.972776 1_455
O47 Zn11 2.010051 1_555
O48 Zn9 1.976118 1_555
O48 Zn0 2.021691 1_555
O49 Zn10 1.976118 1_545
O49 Zn1 2.021690 1_556
O50 Zn11 1.976117 1_655
O50 Zn2 2.021644 1_555
O54 Zn3 2.051567 1_555
O54 Pb3 2.310675 1_555
O55 Zn4 2.051568 1_555
O55 Pb4 2.310688 1_565
O56 Zn5 2.051565 1_555
O56 Pb5 2.310688 1_455
O57 Zn9 1.970659 1_665
O58 Zn10 1.970665 1_455
O59 Zn11 1.970665 1_545
O63 Pb0 2.318419 1_555
O63 Pb3 2.671299 1_555
O64 Pb1 2.318419 1_545
O64 Pb4 2.671299 1_555
O65 Pb2 2.318407 1_655
O65 Pb5 2.671299 1_555
O66 Pb0 2.564292 1_565
O66 Pb3 2.620437 1_455
O67 Pb1 2.564296 1_445
O67 Pb4 2.620441 1_555
O68 Pb2 2.564310 1_655
O68 Pb5 2.620434 1_565
O81 Zn6 2.000573 1_555
O81 Pb1 2.485410 1_555
O82 Zn7 2.000572 1_555
O82 Pb2 2.485428 1_555
O83 Zn8 2.000615 1_555
O83 Pb0 2.485411 1_555
