# generated using pymatgen
data_MnAlPd2
_symmetry_space_group_name_H-M   'P 1'
_cell_length_a   5.87032400
_cell_length_b   5.87032400
_cell_length_c   13.80082800
_cell_angle_alpha   90.00000000
_cell_angle_beta   90.00000000
_cell_angle_gamma   90.00000000
_symmetry_Int_Tables_number   1
_chemical_formula_structural   MnAlPd2
_chemical_formula_sum   'Mn8 Al8 Pd16'
_cell_volume   475.58624680
_cell_formula_units_Z   8
loop_
 _symmetry_equiv_pos_site_id
 _symmetry_equiv_pos_as_xyz
  1  'x, y, z'
loop_
 _atom_site_type_symbol
 _atom_site_label
 _atom_site_symmetry_multiplicity
 _atom_site_fract_x
 _atom_site_fract_y
 _atom_site_fract_z
 _atom_site_occupancy
  Mn  Mn0_0  1  0.00000000  0.00000000  0.25000000  1
  Mn  Mn0_1  1  0.00000000  0.00000000  0.75000000  1
  Mn  Mn0_2  1  0.00000000  0.50000000  0.25000000  1
  Mn  Mn0_3  1  0.00000000  0.50000000  0.75000000  1
  Mn  Mn0_4  1  0.50000000  0.00000000  0.25000000  1
  Mn  Mn0_5  1  0.50000000  0.00000000  0.75000000  1
  Mn  Mn0_6  1  0.50000000  0.50000000  0.25000000  1
  Mn  Mn0_7  1  0.50000000  0.50000000  0.75000000  1
  Al  Al0_0  1  0.00000000  0.00000000  0.00000000  1
  Al  Al0_1  1  0.00000000  0.00000000  0.50000000  1
  Al  Al0_2  1  0.00000000  0.50000000  0.00000000  1
  Al  Al0_3  1  0.00000000  0.50000000  0.50000000  1
  Al  Al0_4  1  0.50000000  0.00000000  0.00000000  1
  Al  Al0_5  1  0.50000000  0.00000000  0.50000000  1
  Al  Al0_6  1  0.50000000  0.50000000  0.00000000  1
  Al  Al0_7  1  0.50000000  0.50000000  0.50000000  1
  Pd  Pd0_0  1  0.25000000  0.25000000  0.11695550  1
  Pd  Pd0_1  1  0.25000000  0.25000000  0.61695550  1
  Pd  Pd0_2  1  0.25000000  0.75000000  0.11695550  1
  Pd  Pd0_3  1  0.25000000  0.75000000  0.61695550  1
  Pd  Pd0_4  1  0.75000000  0.25000000  0.11695550  1
  Pd  Pd0_5  1  0.75000000  0.25000000  0.61695550  1
  Pd  Pd0_6  1  0.75000000  0.75000000  0.11695550  1
  Pd  Pd0_7  1  0.75000000  0.75000000  0.61695550  1
  Pd  Pd1_0  1  0.25000000  0.25000000  0.38304450  1
  Pd  Pd1_1  1  0.25000000  0.25000000  0.88304450  1
  Pd  Pd1_2  1  0.25000000  0.75000000  0.38304450  1
  Pd  Pd1_3  1  0.25000000  0.75000000  0.88304450  1
  Pd  Pd1_4  1  0.75000000  0.25000000  0.38304450  1
  Pd  Pd1_5  1  0.75000000  0.25000000  0.88304450  1
  Pd  Pd1_6  1  0.75000000  0.75000000  0.38304450  1
  Pd  Pd1_7  1  0.75000000  0.75000000  0.88304450  1
loop_
_geom_bond_atom_site_label_1
_geom_bond_atom_site_label_2
_geom_bond_distance
_geom_bond_site_symmetry_2
Mn0_0 Pd1_2 2.771090 1_545
Mn0_0 Pd1_4 2.771090 1_455
Mn0_0 Pd1_0 2.771090 1_555
Mn0_0 Pd1_6 2.771090 1_445
Mn0_0 Pd0_0 2.771090 1_555
Mn0_0 Pd0_2 2.771090 1_545
Mn0_0 Pd0_6 2.771090 1_445
Mn0_0 Pd0_4 2.771090 1_455
Mn0_0 Mn0_2 2.935162 1_555
Mn0_0 Mn0_2 2.935162 1_545
Mn0_0 Mn0_4 2.935162 1_455
Mn0_0 Mn0_4 2.935162 1_555
Mn0_1 Pd1_3 2.771090 1_545
Mn0_1 Pd1_7 2.771090 1_445
Mn0_1 Pd1_5 2.771090 1_455
Mn0_1 Pd1_1 2.771090 1_555
Mn0_1 Pd0_5 2.771090 1_455
Mn0_1 Pd0_3 2.771090 1_545
Mn0_1 Pd0_7 2.771090 1_445
Mn0_1 Pd0_1 2.771090 1_555
Mn0_1 Mn0_5 2.935162 1_555
Mn0_1 Mn0_3 2.935162 1_555
Mn0_1 Mn0_3 2.935162 1_545
Mn0_1 Mn0_5 2.935162 1_455
Mn0_2 Pd1_2 2.771090 1_555
Mn0_2 Pd1_4 2.771090 1_455
Mn0_2 Pd1_6 2.771090 1_455
Mn0_2 Pd1_0 2.771090 1_555
Mn0_2 Pd0_2 2.771090 1_555
Mn0_2 Pd0_0 2.771090 1_555
Mn0_2 Pd0_4 2.771090 1_455
Mn0_2 Pd0_6 2.771090 1_455
Mn0_2 Mn0_6 2.935162 1_455
Mn0_2 Mn0_6 2.935162 1_555
Mn0_3 Pd1_5 2.771090 1_455
Mn0_3 Pd1_3 2.771090 1_555
Mn0_3 Pd1_7 2.771090 1_455
Mn0_3 Pd1_1 2.771090 1_555
Mn0_3 Pd0_5 2.771090 1_455
Mn0_3 Pd0_1 2.771090 1_555
Mn0_3 Pd0_3 2.771090 1_555
Mn0_3 Pd0_7 2.771090 1_455
Mn0_3 Mn0_7 2.935162 1_455
Mn0_3 Mn0_7 2.935162 1_555
Mn0_4 Pd1_6 2.771090 1_545
Mn0_4 Pd1_2 2.771090 1_545
Mn0_4 Pd1_0 2.771090 1_555
Mn0_4 Pd1_4 2.771090 1_555
Mn0_4 Pd0_6 2.771090 1_545
Mn0_4 Pd0_0 2.771090 1_555
Mn0_4 Pd0_2 2.771090 1_545
Mn0_4 Pd0_4 2.771090 1_555
Mn0_4 Mn0_6 2.935162 1_555
Mn0_4 Mn0_6 2.935162 1_545
Mn0_5 Pd1_3 2.771090 1_545
Mn0_5 Pd1_5 2.771090 1_555
Mn0_5 Pd1_7 2.771090 1_545
Mn0_5 Pd1_1 2.771090 1_555
Mn0_5 Pd0_3 2.771090 1_545
Mn0_5 Pd0_7 2.771090 1_545
Mn0_5 Pd0_1 2.771090 1_555
Mn0_5 Pd0_5 2.771090 1_555
Mn0_5 Mn0_7 2.935162 1_545
Mn0_5 Mn0_7 2.935162 1_555
Mn0_6 Pd1_2 2.771090 1_555
Mn0_6 Pd1_6 2.771090 1_555
Mn0_6 Pd1_0 2.771090 1_555
Mn0_6 Pd1_4 2.771090 1_555
Mn0_6 Pd0_2 2.771090 1_555
Mn0_6 Pd0_6 2.771090 1_555
Mn0_6 Pd0_0 2.771090 1_555
Mn0_6 Pd0_4 2.771090 1_555
Mn0_7 Pd1_3 2.771090 1_555
Mn0_7 Pd1_5 2.771090 1_555
Mn0_7 Pd1_7 2.771090 1_555
Mn0_7 Pd1_1 2.771090 1_555
Mn0_7 Pd0_7 2.771090 1_555
Mn0_7 Pd0_1 2.771090 1_555
Mn0_7 Pd0_5 2.771090 1_555
Mn0_7 Pd0_3 2.771090 1_555
Al0_0 Pd0_2 2.629230 1_545
Al0_0 Pd0_4 2.629230 1_455
Al0_0 Pd0_6 2.629230 1_445
Al0_0 Pd0_0 2.629230 1_555
Al0_0 Pd1_5 2.629230 1_454
Al0_0 Pd1_1 2.629230 1_554
Al0_0 Pd1_3 2.629230 1_544
Al0_0 Pd1_7 2.629230 1_444
Al0_0 Al0_4 2.935162 1_555
Al0_0 Al0_4 2.935162 1_455
Al0_0 Al0_2 2.935162 1_545
Al0_0 Al0_2 2.935162 1_555
Al0_1 Pd0_5 2.629230 1_455
Al0_1 Pd0_3 2.629230 1_545
Al0_1 Pd0_7 2.629230 1_445
Al0_1 Pd0_1 2.629230 1_555
Al0_1 Pd1_2 2.629230 1_545
Al0_1 Pd1_4 2.629230 1_455
Al0_1 Pd1_0 2.629230 1_555
Al0_1 Pd1_6 2.629230 1_445
Al0_1 Al0_3 2.935162 1_545
Al0_1 Al0_5 2.935162 1_455
Al0_1 Al0_3 2.935162 1_555
Al0_1 Al0_5 2.935162 1_555
Al0_2 Pd0_4 2.629230 1_455
Al0_2 Pd0_2 2.629230 1_555
Al0_2 Pd0_6 2.629230 1_455
Al0_2 Pd0_0 2.629230 1_555
Al0_2 Pd1_3 2.629230 1_554
Al0_2 Pd1_5 2.629230 1_454
Al0_2 Pd1_7 2.629230 1_454
Al0_2 Pd1_1 2.629230 1_554
Al0_2 Al0_6 2.935162 1_555
Al0_2 Al0_6 2.935162 1_455
Al0_3 Pd0_3 2.629230 1_555
Al0_3 Pd0_7 2.629230 1_455
Al0_3 Pd0_5 2.629230 1_455
Al0_3 Pd0_1 2.629230 1_555
Al0_3 Pd1_2 2.629230 1_555
Al0_3 Pd1_4 2.629230 1_455
Al0_3 Pd1_6 2.629230 1_455
Al0_3 Pd1_0 2.629230 1_555
Al0_3 Al0_7 2.935162 1_455
Al0_3 Al0_7 2.935162 1_555
Al0_4 Pd0_2 2.629230 1_545
Al0_4 Pd0_6 2.629230 1_545
Al0_4 Pd0_4 2.629230 1_555
Al0_4 Pd0_0 2.629230 1_555
Al0_4 Pd1_5 2.629230 1_554
Al0_4 Pd1_7 2.629230 1_544
Al0_4 Pd1_1 2.629230 1_554
Al0_4 Pd1_3 2.629230 1_544
Al0_4 Al0_6 2.935162 1_545
Al0_4 Al0_6 2.935162 1_555
Al0_5 Pd0_7 2.629230 1_545
Al0_5 Pd0_3 2.629230 1_545
Al0_5 Pd0_1 2.629230 1_555
Al0_5 Pd0_5 2.629230 1_555
Al0_5 Pd1_2 2.629230 1_545
Al0_5 Pd1_0 2.629230 1_555
Al0_5 Pd1_6 2.629230 1_545
Al0_5 Pd1_4 2.629230 1_555
Al0_5 Al0_7 2.935162 1_555
Al0_5 Al0_7 2.935162 1_545
Al0_6 Pd0_6 2.629230 1_555
Al0_6 Pd0_4 2.629230 1_555
Al0_6 Pd0_2 2.629230 1_555
Al0_6 Pd0_0 2.629230 1_555
Al0_6 Pd1_5 2.629230 1_554
Al0_6 Pd1_3 2.629230 1_554
Al0_6 Pd1_1 2.629230 1_554
Al0_6 Pd1_7 2.629230 1_554
Al0_7 Pd0_3 2.629230 1_555
Al0_7 Pd0_7 2.629230 1_555
Al0_7 Pd0_1 2.629230 1_555
Al0_7 Pd0_5 2.629230 1_555
Al0_7 Pd1_2 2.629230 1_555
Al0_7 Pd1_0 2.629230 1_555
Al0_7 Pd1_6 2.629230 1_555
Al0_7 Pd1_4 2.629230 1_555
Pd0_0 Pd0_2 2.935162 1_545
Pd0_0 Pd0_4 2.935162 1_455
Pd0_0 Pd0_4 2.935162 1_555
Pd0_0 Pd0_2 2.935162 1_555
Pd0_1 Pd0_5 2.935162 1_455
Pd0_1 Pd0_3 2.935162 1_545
Pd0_1 Pd0_5 2.935162 1_555
Pd0_1 Pd0_3 2.935162 1_555
Pd0_2 Pd0_6 2.935162 1_555
Pd0_2 Pd0_6 2.935162 1_455
Pd0_3 Pd0_7 2.935162 1_455
Pd0_3 Pd0_7 2.935162 1_555
Pd0_4 Pd0_6 2.935162 1_555
Pd0_4 Pd0_6 2.935162 1_545
Pd0_5 Pd0_7 2.935162 1_555
Pd0_5 Pd0_7 2.935162 1_545
Pd1_0 Pd1_4 2.935162 1_555
Pd1_0 Pd1_2 2.935162 1_545
Pd1_0 Pd1_2 2.935162 1_555
Pd1_0 Pd1_4 2.935162 1_455
Pd1_1 Pd1_3 2.935162 1_545
Pd1_1 Pd1_3 2.935162 1_555
Pd1_1 Pd1_5 2.935162 1_455
Pd1_1 Pd1_5 2.935162 1_555
Pd1_2 Pd1_6 2.935162 1_455
Pd1_2 Pd1_6 2.935162 1_555
Pd1_3 Pd1_7 2.935162 1_455
Pd1_3 Pd1_7 2.935162 1_555
Pd1_4 Pd1_6 2.935162 1_545
Pd1_4 Pd1_6 2.935162 1_555
Pd1_5 Pd1_7 2.935162 1_545
Pd1_5 Pd1_7 2.935162 1_555
