# generated using pymatgen
data_Te2Xe(O2F5)2
_symmetry_space_group_name_H-M   'P 1'
_cell_length_a   21.30488700
_cell_length_b   5.42084900
_cell_length_c   11.06906062
_cell_angle_alpha   73.26817784
_cell_angle_beta   90.00000000
_cell_angle_gamma   90.00000000
_symmetry_Int_Tables_number   1
_chemical_formula_structural   Te2Xe(O2F5)2
_chemical_formula_sum   'Te8 Xe4 O16 F40'
_cell_volume   1224.24941360
_cell_formula_units_Z   4
loop_
 _symmetry_equiv_pos_site_id
 _symmetry_equiv_pos_as_xyz
  1  'x, y, z'
loop_
 _atom_site_type_symbol
 _atom_site_label
 _atom_site_symmetry_multiplicity
 _atom_site_fract_x
 _atom_site_fract_y
 _atom_site_fract_z
 _atom_site_occupancy
  Te  Te0  1  0.52286300  0.88995700  0.78510000  1
  Te  Te1  1  0.97713700  0.88995700  0.28510000  1
  Te  Te2  1  0.47713700  0.11004300  0.21490000  1
  Te  Te3  1  0.02286300  0.11004300  0.71490000  1
  Te  Te4  1  0.24072400  0.47689500  0.48552300  1
  Te  Te5  1  0.25927600  0.47689500  0.98552300  1
  Te  Te6  1  0.75927600  0.52310500  0.51447700  1
  Te  Te7  1  0.74072400  0.52310500  0.01447700  1
  Xe  Xe0  1  0.39090800  0.33347700  0.65720000  1
  Xe  Xe1  1  0.10909200  0.33347700  0.15720000  1
  Xe  Xe2  1  0.60909200  0.66652300  0.34280000  1
  Xe  Xe3  1  0.89090800  0.66652300  0.84280000  1
  O  O0  1  0.47571500  0.19735200  0.76741400  1
  O  O1  1  0.02428500  0.19735200  0.26741400  1
  O  O2  1  0.52428500  0.80264800  0.23258600  1
  O  O3  1  0.97571500  0.80264800  0.73258600  1
  O  O4  1  0.30781800  0.56028300  0.58141600  1
  O  O5  1  0.19218200  0.56028300  0.08141600  1
  O  O6  1  0.69218200  0.43971700  0.41858400  1
  O  O7  1  0.80781800  0.43971700  0.91858400  1
  O  O8  1  0.34957100  0.01827800  0.71144400  1
  O  O9  1  0.15042900  0.01827800  0.21144400  1
  O  O10  1  0.65042900  0.98172200  0.28855600  1
  O  O11  1  0.84957100  0.98172200  0.78855600  1
  O  O12  1  0.42796500  0.37429500  0.50119600  1
  O  O13  1  0.07203500  0.37429500  0.00119600  1
  O  O14  1  0.57203500  0.62570500  0.49880400  1
  O  O15  1  0.92796500  0.62570500  0.99880400  1
  F  F0  1  0.48088600  0.80921000  0.64940900  1
  F  F1  1  0.01911400  0.80921000  0.14940900  1
  F  F2  1  0.51911400  0.19079000  0.35059100  1
  F  F3  1  0.98088600  0.19079000  0.85059100  1
  F  F4  1  0.46303100  0.68220200  0.89290100  1
  F  F5  1  0.03696900  0.68220200  0.39290100  1
  F  F6  1  0.53696900  0.31779800  0.10709900  1
  F  F7  1  0.96303100  0.31779800  0.60709900  1
  F  F8  1  0.58439800  0.06967600  0.67320200  1
  F  F9  1  0.91560200  0.06967600  0.17320200  1
  F  F10  1  0.41560200  0.93032400  0.32679800  1
  F  F11  1  0.08439800  0.93032400  0.82679800  1
  F  F12  1  0.56450900  0.94881000  0.92295800  1
  F  F13  1  0.93549100  0.94881000  0.42295800  1
  F  F14  1  0.43549100  0.05119000  0.07704200  1
  F  F15  1  0.06450900  0.05119000  0.57704200  1
  F  F16  1  0.57135800  0.59335600  0.80545800  1
  F  F17  1  0.92864200  0.59335600  0.30545800  1
  F  F18  1  0.42864200  0.40664400  0.19454200  1
  F  F19  1  0.07135800  0.40664400  0.69454200  1
  F  F20  1  0.28411300  0.21170000  0.44288500  1
  F  F21  1  0.21588700  0.21170000  0.94288500  1
  F  F22  1  0.71588700  0.78830000  0.55711500  1
  F  F23  1  0.78411300  0.78830000  0.05711500  1
  F  F24  1  0.20643500  0.23440400  0.62637600  1
  F  F25  1  0.29356500  0.23440400  0.12637600  1
  F  F26  1  0.79356500  0.76559600  0.37362400  1
  F  F27  1  0.70643500  0.76559600  0.87362400  1
  F  F28  1  0.19238800  0.73677700  0.51987100  1
  F  F29  1  0.30761200  0.73677700  0.01987100  1
  F  F30  1  0.80761200  0.26322300  0.48012900  1
  F  F31  1  0.69238800  0.26322300  0.98012900  1
  F  F32  1  0.26860300  0.71104100  0.33547700  1
  F  F33  1  0.23139700  0.71104100  0.83547700  1
  F  F34  1  0.73139700  0.28895900  0.66452300  1
  F  F35  1  0.76860300  0.28895900  0.16452300  1
  F  F36  1  0.17184900  0.40932900  0.39123800  1
  F  F37  1  0.32815100  0.40932900  0.89123800  1
  F  F38  1  0.82815100  0.59067100  0.60876200  1
  F  F39  1  0.67184900  0.59067100  0.10876200  1
loop_
_geom_bond_atom_site_label_1
_geom_bond_atom_site_label_2
_geom_bond_distance
_geom_bond_site_symmetry_2
O0 Te0 1.906876 1_545
O0 Xe0 2.186100 1_555
O1 Te1 1.906876 1_445
O1 Xe1 2.186100 1_555
O2 Te2 1.906876 1_565
O2 Xe2 2.186100 1_555
O3 Te3 1.906876 1_665
O3 Xe3 2.186100 1_555
O4 Te4 1.910638 1_555
O4 Xe0 2.180632 1_555
O5 Te5 1.910638 1_554
O5 Xe1 2.180632 1_555
O6 Te6 1.910638 1_555
O6 Xe2 2.180632 1_555
O7 Te7 1.910638 1_556
O7 Xe3 2.180632 1_555
O8 Xe0 1.861417 1_555
O9 Xe1 1.861417 1_555
O10 Xe2 1.861417 1_555
O11 Xe3 1.861417 1_555
O12 Xe0 1.853149 1_555
O13 Xe1 1.853149 1_555
O14 Xe2 1.853149 1_555
O15 Xe3 1.853149 1_555
F0 Te0 1.904169 1_555
F1 Te1 1.904169 1_455
F2 Te2 1.904169 1_555
F3 Te3 1.904169 1_655
F4 Te0 1.882373 1_555
F5 Te1 1.882373 1_455
F6 Te2 1.882373 1_555
F7 Te3 1.882373 1_655
F8 Te0 1.872748 1_545
F9 Te1 1.872748 1_545
F10 Te2 1.872748 1_565
F11 Te3 1.872748 1_565
F12 Te0 1.870262 1_555
F13 Te1 1.870262 1_555
F14 Te2 1.870262 1_555
F15 Te3 1.870262 1_555
F16 Te0 1.869423 1_555
F17 Te1 1.869423 1_555
F18 Te2 1.869423 1_555
F19 Te3 1.869423 1_555
F20 Te4 1.880043 1_555
F21 Te5 1.880043 1_555
F22 Te6 1.880043 1_555
F23 Te7 1.880043 1_555
F24 Te4 1.874132 1_555
F25 Te5 1.874132 1_554
F26 Te6 1.874132 1_555
F27 Te7 1.874132 1_556
F28 Te4 1.870318 1_555
F29 Te5 1.870318 1_554
F30 Te6 1.870318 1_555
F31 Te7 1.870318 1_556
F32 Te4 1.873102 1_555
F33 Te5 1.873102 1_555
F34 Te6 1.873102 1_555
F35 Te7 1.873102 1_555
F36 Te4 1.896478 1_555
F37 Te5 1.896478 1_555
F38 Te6 1.896478 1_555
F39 Te7 1.896478 1_555
