# generated using pymatgen
data_Zn(SbO2)4
_symmetry_space_group_name_H-M   'P 1'
_cell_length_a   3.25596600
_cell_length_b   8.40540924
_cell_length_c   9.43324164
_cell_angle_alpha   65.57687999
_cell_angle_beta   83.28938480
_cell_angle_gamma   84.53171099
_symmetry_Int_Tables_number   1
_chemical_formula_structural   Zn(SbO2)4
_chemical_formula_sum   'Zn1 Sb4 O8'
_cell_volume   233.13916838
_cell_formula_units_Z   1
loop_
 _symmetry_equiv_pos_site_id
 _symmetry_equiv_pos_as_xyz
  1  'x, y, z'
loop_
 _atom_site_type_symbol
 _atom_site_label
 _atom_site_symmetry_multiplicity
 _atom_site_fract_x
 _atom_site_fract_y
 _atom_site_fract_z
 _atom_site_occupancy
  Zn  Zn0  1  0.43303900  0.38112000  0.82525900  1
  Sb  Sb0  1  0.62998100  0.69416200  0.48551800  1
  Sb  Sb1  1  0.05117000  0.79448300  0.81182400  1
  Sb  Sb2  1  0.86264000  0.30618400  0.13021300  1
  Sb  Sb3  1  0.24909000  0.33813600  0.47146900  1
  O  O0  1  0.78521300  0.38938500  0.30682000  1
  O  O1  1  0.36474200  0.15422900  0.23381800  1
  O  O2  1  0.55500600  0.92767900  0.68950200  1
  O  O3  1  0.13472500  0.64311700  0.68835900  1
  O  O4  1  0.20116800  0.61031300  0.38173600  1
  O  O5  1  0.93063400  0.25991500  0.93804000  1
  O  O6  1  0.66553400  0.42383500  0.60443500  1
  O  O7  1  0.35946400  0.47687100  0.02421600  1
loop_
_geom_bond_atom_site_label_1
_geom_bond_atom_site_label_2
_geom_bond_distance
_geom_bond_site_symmetry_2
O0 Sb2 2.039560 1_555
O0 Sb3 2.145094 1_555
O0 Sb3 2.179472 1_655
O1 Sb2 2.049968 1_455
O1 Sb2 2.051024 1_555
O2 Sb1 2.028645 1_555
O2 Sb1 2.053624 1_655
O3 Sb1 2.033362 1_555
O3 Zn0 2.234843 1_555
O3 Sb0 2.275412 1_555
O3 Sb0 2.543201 1_455
O4 Sb3 2.082340 1_555
O4 Sb0 2.117101 1_555
O4 Sb0 2.192975 1_455
O5 Zn0 1.964752 1_655
O5 Sb2 1.989816 1_556
O5 Zn0 1.996652 1_555
O6 Zn0 2.026324 1_555
O6 Sb0 2.075362 1_555
O6 Sb3 2.293792 1_555
O6 Sb3 2.373104 1_655
O7 Sb2 2.119157 1_555
O7 Sb2 2.133758 1_455
O7 Zn0 2.309725 1_554
