# generated using pymatgen
data_Ba2EuNbO6
_symmetry_space_group_name_H-M   'P 1'
_cell_length_a   8.63047064
_cell_length_b   8.63047064
_cell_length_c   8.63047064
_cell_angle_alpha   90.00000000
_cell_angle_beta   90.00000000
_cell_angle_gamma   90.00000000
_symmetry_Int_Tables_number   1
_chemical_formula_structural   Ba2EuNbO6
_chemical_formula_sum   'Ba8 Eu4 Nb4 O24'
_cell_volume   642.84080816
_cell_formula_units_Z   4
loop_
 _symmetry_equiv_pos_site_id
 _symmetry_equiv_pos_as_xyz
  1  'x, y, z'
loop_
 _atom_site_type_symbol
 _atom_site_label
 _atom_site_symmetry_multiplicity
 _atom_site_fract_x
 _atom_site_fract_y
 _atom_site_fract_z
 _atom_site_occupancy
  Ba  Ba0  1  0.50000000  0.50000000  0.50000000  1
  Ba  Ba1  1  0.00000000  0.00000000  -0.00000000  1
  Ba  Ba2  1  0.00000000  0.00000000  0.50000000  1
  Ba  Ba3  1  0.00000000  0.50000000  -0.00000000  1
  Ba  Ba4  1  0.50000000  0.00000000  -0.00000000  1
  Ba  Ba5  1  0.50000000  0.50000000  -0.00000000  1
  Ba  Ba6  1  0.50000000  0.00000000  0.50000000  1
  Ba  Ba7  1  0.00000000  0.50000000  0.50000000  1
  Eu  Eu0  1  0.75000000  0.75000000  0.75000000  1
  Eu  Eu1  1  0.75000000  0.25000000  0.25000000  1
  Eu  Eu2  1  0.25000000  0.75000000  0.25000000  1
  Eu  Eu3  1  0.25000000  0.25000000  0.75000000  1
  Nb  Nb0  1  0.25000000  0.25000000  0.25000000  1
  Nb  Nb1  1  0.25000000  0.75000000  0.75000000  1
  Nb  Nb2  1  0.75000000  0.25000000  0.75000000  1
  Nb  Nb3  1  0.75000000  0.75000000  0.25000000  1
  O  O0  1  0.23504147  0.26655457  0.48378731  1
  O  O1  1  0.23504147  0.73344543  0.51621269  1
  O  O2  1  0.76495853  0.26655457  0.51621269  1
  O  O3  1  0.76495853  0.73344543  0.48378731  1
  O  O4  1  0.26655457  0.48378731  0.23504147  1
  O  O5  1  0.73344543  0.51621269  0.23504147  1
  O  O6  1  0.26655457  0.51621269  0.76495853  1
  O  O7  1  0.73344543  0.48378731  0.76495853  1
  O  O8  1  0.48378731  0.23504147  0.26655457  1
  O  O9  1  0.51621269  0.23504147  0.73344543  1
  O  O10  1  0.51621269  0.76495853  0.26655457  1
  O  O11  1  0.48378731  0.76495853  0.73344543  1
  O  O12  1  0.26495853  0.23344543  0.01621269  1
  O  O13  1  0.26495853  0.76655457  0.98378731  1
  O  O14  1  0.73504147  0.23344543  0.98378731  1
  O  O15  1  0.73504147  0.76655457  0.01621269  1
  O  O16  1  0.23344543  0.01621269  0.26495853  1
  O  O17  1  0.76655457  0.98378731  0.26495853  1
  O  O18  1  0.23344543  0.98378731  0.73504147  1
  O  O19  1  0.76655457  0.01621269  0.73504147  1
  O  O20  1  0.01621269  0.26495853  0.23344543  1
  O  O21  1  0.98378731  0.26495853  0.76655457  1
  O  O22  1  0.98378731  0.73504147  0.23344543  1
  O  O23  1  0.01621269  0.73504147  0.76655457  1
loop_
_geom_bond_atom_site_label_1
_geom_bond_atom_site_label_2
_geom_bond_distance
_geom_bond_site_symmetry_2
Ba0 O11 3.050876 1_555
Ba0 O5 3.050876 1_555
Ba0 O7 3.050876 1_555
Ba0 O9 3.050876 1_555
Ba0 O3 3.050876 1_555
Ba0 O0 3.050876 1_555
Ba0 O10 3.050876 1_555
Ba0 O4 3.050876 1_555
Ba0 O6 3.050876 1_555
Ba0 O1 3.050876 1_555
Ba0 O8 3.050876 1_555
Ba0 O2 3.050876 1_555
Ba1 O17 3.050876 1_445
Ba1 O23 3.050876 1_544
Ba1 O19 3.050876 1_454
Ba1 O15 3.050876 1_445
Ba1 O21 3.050876 1_454
Ba1 O12 3.050876 1_555
Ba1 O16 3.050876 1_555
Ba1 O20 3.050876 1_555
Ba1 O18 3.050876 1_544
Ba1 O22 3.050876 1_445
Ba1 O13 3.050876 1_544
Ba1 O14 3.050876 1_454
Ba2 O19 2.862457 1_455
Ba2 O17 2.862457 1_445
Ba2 O16 2.862457 1_555
Ba2 O18 2.862457 1_545
Ba2 O0 3.070297 1_555
Ba2 O2 3.070297 1_455
Ba2 O3 3.070297 1_445
Ba2 O1 3.070297 1_545
Ba2 O20 3.246677 1_555
Ba2 O22 3.246677 1_445
Ba2 O23 3.246677 1_545
Ba2 O21 3.246677 1_455
Ba3 O21 2.862457 1_454
Ba3 O23 2.862457 1_554
Ba3 O20 2.862457 1_555
Ba3 O22 2.862457 1_455
Ba3 O6 3.070297 1_554
Ba3 O4 3.070297 1_555
Ba3 O5 3.070297 1_455
Ba3 O7 3.070297 1_454
Ba3 O12 3.246677 1_555
Ba3 O14 3.246677 1_454
Ba3 O15 3.246677 1_455
Ba3 O13 3.246677 1_554
Ba4 O15 2.862457 1_545
Ba4 O13 2.862457 1_544
Ba4 O14 2.862457 1_554
Ba4 O12 2.862457 1_555
Ba4 O8 3.070297 1_555
Ba4 O10 3.070297 1_545
Ba4 O9 3.070297 1_554
Ba4 O11 3.070297 1_544
Ba4 O18 3.246677 1_544
Ba4 O16 3.246677 1_555
Ba4 O17 3.246677 1_545
Ba4 O19 3.246677 1_554
Ba5 O5 2.862457 1_555
Ba5 O7 2.862457 1_554
Ba5 O4 2.862457 1_555
Ba5 O6 2.862457 1_554
Ba5 O12 3.070297 1_555
Ba5 O15 3.070297 1_555
Ba5 O14 3.070297 1_554
Ba5 O13 3.070297 1_554
Ba5 O8 3.246677 1_555
Ba5 O10 3.246677 1_555
Ba5 O9 3.246677 1_554
Ba5 O11 3.246677 1_554
Ba6 O9 2.862457 1_555
Ba6 O11 2.862457 1_545
Ba6 O8 2.862457 1_555
Ba6 O10 2.862457 1_545
Ba6 O18 3.070297 1_545
Ba6 O16 3.070297 1_555
Ba6 O17 3.070297 1_545
Ba6 O19 3.070297 1_555
Ba6 O0 3.246677 1_555
Ba6 O2 3.246677 1_555
Ba6 O3 3.246677 1_545
Ba6 O1 3.246677 1_545
Ba7 O3 2.862457 1_455
Ba7 O1 2.862457 1_555
Ba7 O0 2.862457 1_555
Ba7 O2 2.862457 1_455
Ba7 O20 3.070297 1_555
Ba7 O22 3.070297 1_455
Ba7 O23 3.070297 1_555
Ba7 O21 3.070297 1_455
Ba7 O4 3.246677 1_555
Ba7 O6 3.246677 1_555
Ba7 O5 3.246677 1_455
Ba7 O7 3.246677 1_455
Eu0 O19 2.305596 1_565
Eu0 O23 2.305596 1_655
Eu0 O15 2.305596 1_556
Eu0 O7 2.305596 1_555
Eu0 O3 2.305596 1_555
Eu0 O11 2.305596 1_555
Eu1 O20 2.305596 1_655
Eu1 O8 2.305596 1_555
Eu1 O14 2.305596 1_554
Eu1 O5 2.305596 1_555
Eu1 O17 2.305596 1_545
Eu1 O2 2.305596 1_555
Eu2 O16 2.305596 1_565
Eu2 O4 2.305596 1_555
Eu2 O1 2.305596 1_555
Eu2 O22 2.305596 1_455
Eu2 O13 2.305596 1_554
Eu2 O10 2.305596 1_555
Eu3 O12 2.305596 1_556
Eu3 O0 2.305596 1_555
Eu3 O21 2.305596 1_455
Eu3 O6 2.305596 1_555
Eu3 O9 2.305596 1_555
Eu3 O18 2.305596 1_545
Nb0 O8 2.026862 1_555
Nb0 O12 2.026862 1_555
Nb0 O16 2.026862 1_555
Nb0 O0 2.026862 1_555
Nb0 O20 2.026862 1_555
Nb0 O4 2.026862 1_555
Nb1 O1 2.026862 1_555
Nb1 O18 2.026862 1_555
Nb1 O6 2.026862 1_555
Nb1 O13 2.026862 1_555
Nb1 O11 2.026862 1_555
Nb1 O23 2.026862 1_555
Nb2 O2 2.026862 1_555
Nb2 O21 2.026862 1_555
Nb2 O14 2.026862 1_555
Nb2 O9 2.026862 1_555
Nb2 O7 2.026862 1_555
Nb2 O19 2.026862 1_555
Nb3 O17 2.026862 1_555
Nb3 O22 2.026862 1_555
Nb3 O5 2.026862 1_555
Nb3 O10 2.026862 1_555
Nb3 O15 2.026862 1_555
Nb3 O3 2.026862 1_555
