# generated using pymatgen
data_Tm3Ge13Os4
_symmetry_space_group_name_H-M   'P 1'
_cell_length_a   9.05283700
_cell_length_b   9.05283700
_cell_length_c   9.05283700
_cell_angle_alpha   90.00000000
_cell_angle_beta   90.00000000
_cell_angle_gamma   90.00000000
_symmetry_Int_Tables_number   1
_chemical_formula_structural   Tm3Ge13Os4
_chemical_formula_sum   'Tm6 Ge26 Os8'
_cell_volume   741.91491572
_cell_formula_units_Z   2
loop_
 _symmetry_equiv_pos_site_id
 _symmetry_equiv_pos_as_xyz
  1  'x, y, z'
loop_
 _atom_site_type_symbol
 _atom_site_label
 _atom_site_symmetry_multiplicity
 _atom_site_fract_x
 _atom_site_fract_y
 _atom_site_fract_z
 _atom_site_occupancy
  Tm  Tm0  1  0.00000000  0.50000000  0.75000000  1
  Tm  Tm1  1  0.50000000  0.25000000  0.00000000  1
  Tm  Tm2  1  0.75000000  0.00000000  0.50000000  1
  Tm  Tm3  1  0.00000000  0.50000000  0.25000000  1
  Tm  Tm4  1  0.50000000  0.75000000  0.00000000  1
  Tm  Tm5  1  0.25000000  0.00000000  0.50000000  1
  Ge  Ge0  1  0.50000000  0.50000000  0.50000000  1
  Ge  Ge1  1  0.00000000  0.00000000  0.00000000  1
  Ge  Ge2  1  0.80065600  0.35453900  0.50000000  1
  Ge  Ge3  1  0.64546100  0.50000000  0.80065600  1
  Ge  Ge4  1  0.50000000  0.19934400  0.64546100  1
  Ge  Ge5  1  0.19934400  0.64546100  0.50000000  1
  Ge  Ge6  1  0.35453900  0.50000000  0.19934400  1
  Ge  Ge7  1  0.50000000  0.80065600  0.35453900  1
  Ge  Ge8  1  0.80065600  0.64546100  0.50000000  1
  Ge  Ge9  1  0.64546100  0.50000000  0.19934400  1
  Ge  Ge10  1  0.19934400  0.35453900  0.50000000  1
  Ge  Ge11  1  0.35453900  0.50000000  0.80065600  1
  Ge  Ge12  1  0.50000000  0.80065600  0.64546100  1
  Ge  Ge13  1  0.50000000  0.19934400  0.35453900  1
  Ge  Ge14  1  0.30065600  0.00000000  0.85453900  1
  Ge  Ge15  1  0.14546100  0.30065600  0.00000000  1
  Ge  Ge16  1  0.00000000  0.14546100  0.69934400  1
  Ge  Ge17  1  0.69934400  0.00000000  0.14546100  1
  Ge  Ge18  1  0.85453900  0.69934400  0.00000000  1
  Ge  Ge19  1  0.00000000  0.85453900  0.30065600  1
  Ge  Ge20  1  0.30065600  0.00000000  0.14546100  1
  Ge  Ge21  1  0.14546100  0.69934400  0.00000000  1
  Ge  Ge22  1  0.69934400  0.00000000  0.85453900  1
  Ge  Ge23  1  0.85453900  0.30065600  0.00000000  1
  Ge  Ge24  1  0.00000000  0.14546100  0.30065600  1
  Ge  Ge25  1  0.00000000  0.85453900  0.69934400  1
  Os  Os0  1  0.75000000  0.25000000  0.75000000  1
  Os  Os1  1  0.25000000  0.75000000  0.25000000  1
  Os  Os2  1  0.75000000  0.75000000  0.25000000  1
  Os  Os3  1  0.25000000  0.25000000  0.75000000  1
  Os  Os4  1  0.25000000  0.75000000  0.75000000  1
  Os  Os5  1  0.75000000  0.25000000  0.25000000  1
  Os  Os6  1  0.25000000  0.25000000  0.25000000  1
  Os  Os7  1  0.75000000  0.75000000  0.75000000  1
loop_
_geom_bond_atom_site_label_1
_geom_bond_atom_site_label_2
_geom_bond_distance
_geom_bond_site_symmetry_2
Ge0 Ge12 3.023606 1_555
Ge0 Ge4 3.023606 1_555
Ge0 Ge3 3.023606 1_555
Ge0 Ge9 3.023606 1_555
Ge0 Ge5 3.023606 1_555
Ge0 Ge8 3.023606 1_555
Ge0 Ge7 3.023606 1_555
Ge0 Ge2 3.023606 1_555
Ge0 Ge6 3.023606 1_555
Ge0 Ge13 3.023606 1_555
Ge0 Ge10 3.023606 1_555
Ge0 Ge11 3.023606 1_555
Ge1 Ge23 3.023606 1_455
Ge1 Ge14 3.023606 1_554
Ge1 Ge18 3.023606 1_445
Ge1 Ge19 3.023606 1_545
Ge1 Ge20 3.023606 1_555
Ge1 Ge22 3.023606 1_454
Ge1 Ge25 3.023606 1_544
Ge1 Ge24 3.023606 1_555
Ge1 Ge15 3.023606 1_555
Ge1 Ge16 3.023606 1_554
Ge1 Ge21 3.023606 1_545
Ge1 Ge17 3.023606 1_455
Ge2 Os0 2.495604 1_555
Ge2 Os5 2.495604 1_555
Ge2 Tm3 3.180071 1_655
Ge2 Tm0 3.180071 1_655
Ge2 Tm2 3.242179 1_555
Ge3 Os0 2.495604 1_555
Ge3 Os7 2.495604 1_555
Ge3 Tm4 3.180071 1_556
Ge3 Tm1 3.180071 1_556
Ge3 Tm0 3.242179 1_655
Ge4 Os0 2.495604 1_555
Ge4 Os3 2.495604 1_555
Ge4 Tm2 3.180071 1_555
Ge4 Tm5 3.180071 1_555
Ge4 Tm1 3.242179 1_556
Ge5 Os4 2.495604 1_555
Ge5 Os1 2.495604 1_555
Ge5 Tm3 3.180071 1_555
Ge5 Tm0 3.180071 1_555
Ge5 Tm5 3.242179 1_565
Ge6 Os1 2.495604 1_555
Ge6 Os6 2.495604 1_555
Ge6 Tm1 3.180071 1_555
Ge6 Tm4 3.180071 1_555
Ge6 Tm3 3.242179 1_555
Ge7 Os2 2.495604 1_555
Ge7 Os1 2.495604 1_555
Ge7 Tm5 3.180071 1_565
Ge7 Tm2 3.180071 1_565
Ge7 Tm4 3.242179 1_555
Ge8 Os2 2.495604 1_555
Ge8 Os7 2.495604 1_555
Ge8 Tm3 3.180071 1_655
Ge8 Tm0 3.180071 1_655
Ge8 Tm2 3.242179 1_565
Ge9 Os2 2.495604 1_555
Ge9 Os5 2.495604 1_555
Ge9 Tm1 3.180071 1_555
Ge9 Tm4 3.180071 1_555
Ge9 Tm3 3.242179 1_655
Ge10 Os3 2.495604 1_555
Ge10 Os6 2.495604 1_555
Ge10 Tm3 3.180071 1_555
Ge10 Tm0 3.180071 1_555
Ge10 Tm5 3.242179 1_555
Ge11 Os3 2.495604 1_555
Ge11 Os4 2.495604 1_555
Ge11 Tm1 3.180071 1_556
Ge11 Tm4 3.180071 1_556
Ge11 Tm0 3.242179 1_555
Ge12 Os7 2.495604 1_555
Ge12 Os4 2.495604 1_555
Ge12 Tm5 3.180071 1_565
Ge12 Tm2 3.180071 1_565
Ge12 Tm4 3.242179 1_556
Ge13 Os5 2.495604 1_555
Ge13 Os6 2.495604 1_555
Ge13 Tm2 3.180071 1_555
Ge13 Tm5 3.180071 1_555
Ge13 Tm1 3.242179 1_555
Ge14 Os3 2.495604 1_555
Ge14 Os4 2.495604 1_545
Ge14 Tm1 3.180071 1_556
Ge14 Tm4 3.180071 1_546
Ge14 Tm5 3.242179 1_555
Ge15 Os3 2.495604 1_554
Ge15 Os6 2.495604 1_555
Ge15 Tm3 3.180071 1_555
Ge15 Tm0 3.180071 1_554
Ge15 Tm1 3.242179 1_555
Ge16 Os3 2.495604 1_555
Ge16 Os0 2.495604 1_455
Ge16 Tm2 3.180071 1_455
Ge16 Tm5 3.180071 1_555
Ge16 Tm0 3.242179 1_555
Ge17 Os5 2.495604 1_555
Ge17 Os2 2.495604 1_545
Ge17 Tm1 3.180071 1_555
Ge17 Tm4 3.180071 1_545
Ge17 Tm2 3.242179 1_555
Ge18 Os2 2.495604 1_555
Ge18 Os7 2.495604 1_554
Ge18 Tm0 3.180071 1_654
Ge18 Tm3 3.180071 1_655
Ge18 Tm4 3.242179 1_555
Ge19 Os2 2.495604 1_455
Ge19 Os1 2.495604 1_555
Ge19 Tm5 3.180071 1_565
Ge19 Tm2 3.180071 1_465
Ge19 Tm3 3.242179 1_555
Ge20 Os1 2.495604 1_545
Ge20 Os6 2.495604 1_555
Ge20 Tm1 3.180071 1_555
Ge20 Tm4 3.180071 1_545
Ge20 Tm5 3.242179 1_555
Ge21 Os1 2.495604 1_555
Ge21 Os4 2.495604 1_554
Ge21 Tm3 3.180071 1_555
Ge21 Tm0 3.180071 1_554
Ge21 Tm4 3.242179 1_555
Ge22 Os0 2.495604 1_555
Ge22 Os7 2.495604 1_545
Ge22 Tm1 3.180071 1_556
Ge22 Tm4 3.180071 1_546
Ge22 Tm2 3.242179 1_555
Ge23 Os0 2.495604 1_554
Ge23 Os5 2.495604 1_555
Ge23 Tm3 3.180071 1_655
Ge23 Tm0 3.180071 1_654
Ge23 Tm1 3.242179 1_555
Ge24 Os6 2.495604 1_555
Ge24 Os5 2.495604 1_455
Ge24 Tm2 3.180071 1_455
Ge24 Tm5 3.180071 1_555
Ge24 Tm3 3.242179 1_555
Ge25 Os7 2.495604 1_455
Ge25 Os4 2.495604 1_555
Ge25 Tm5 3.180071 1_565
Ge25 Tm2 3.180071 1_465
Ge25 Tm0 3.242179 1_555
Os0 Tm2 3.200661 1_555
Os0 Tm0 3.200661 1_655
Os0 Tm1 3.200661 1_556
Os1 Tm3 3.200661 1_555
Os1 Tm5 3.200661 1_565
Os1 Tm4 3.200661 1_555
Os2 Tm3 3.200661 1_655
Os2 Tm4 3.200661 1_555
Os2 Tm2 3.200661 1_565
Os3 Tm0 3.200661 1_555
Os3 Tm1 3.200661 1_556
Os3 Tm5 3.200661 1_555
Os4 Tm0 3.200661 1_555
Os4 Tm4 3.200661 1_556
Os4 Tm5 3.200661 1_565
Os5 Tm3 3.200661 1_655
Os5 Tm2 3.200661 1_555
Os5 Tm1 3.200661 1_555
Os6 Tm3 3.200661 1_555
Os6 Tm1 3.200661 1_555
Os6 Tm5 3.200661 1_555
Os7 Tm0 3.200661 1_655
Os7 Tm4 3.200661 1_556
Os7 Tm2 3.200661 1_565
