# generated using pymatgen
data_Mg14NiSn
_symmetry_space_group_name_H-M   'P 1'
_cell_length_a   6.23583698
_cell_length_b   6.23583650
_cell_length_c   10.29544603
_cell_angle_alpha   90.00000000
_cell_angle_beta   90.00000000
_cell_angle_gamma   120.00000257
_symmetry_Int_Tables_number   1
_chemical_formula_structural   Mg14NiSn
_chemical_formula_sum   'Mg14 Ni1 Sn1'
_cell_volume   346.70911497
_cell_formula_units_Z   1
loop_
 _symmetry_equiv_pos_site_id
 _symmetry_equiv_pos_as_xyz
  1  'x, y, z'
loop_
 _atom_site_type_symbol
 _atom_site_label
 _atom_site_symmetry_multiplicity
 _atom_site_fract_x
 _atom_site_fract_y
 _atom_site_fract_z
 _atom_site_occupancy
  Mg  Mg0  1  0.16121814  0.83060857  0.12500000  1
  Mg  Mg1  1  0.16702042  0.83350971  0.62500000  1
  Mg  Mg2  1  0.66939143  0.33878186  0.12500000  1
  Mg  Mg3  1  0.66649029  0.33297958  0.62500000  1
  Mg  Mg4  1  0.66939143  0.83060857  0.12500000  1
  Mg  Mg5  1  0.66649029  0.83350971  0.62500000  1
  Mg  Mg6  1  0.32834436  0.17165564  0.35852854  1
  Mg  Mg7  1  0.32834436  0.17165564  0.89147146  1
  Mg  Mg8  1  0.32834436  0.65668972  0.35852854  1
  Mg  Mg9  1  0.32834436  0.65668972  0.89147146  1
  Mg  Mg10  1  0.84331028  0.17165564  0.35852854  1
  Mg  Mg11  1  0.84331028  0.17165564  0.89147146  1
  Mg  Mg12  1  0.83333300  0.66666700  0.37386960  1
  Mg  Mg13  1  0.83333300  0.66666700  0.87613040  1
  Ni  Ni0  1  0.16666700  0.33333300  0.12500000  1
  Sn  Sn0  1  0.16666700  0.33333300  0.62500000  1
loop_
_geom_bond_atom_site_label_1
_geom_bond_atom_site_label_2
_geom_bond_distance
_geom_bond_site_symmetry_2
Mg0 Mg8 3.028722 1_555
Mg0 Mg9 3.028722 1_554
Mg0 Mg7 3.028729 1_564
Mg0 Mg6 3.028729 1_565
Mg0 Mg2 3.066951 1_455
Mg0 Mg4 3.066951 1_455
Mg0 Mg12 3.114546 1_455
Mg0 Mg13 3.114546 1_454
Mg0 Ni0 3.118057 1_565
Mg0 Ni0 3.118057 1_555
Mg0 Mg2 3.168886 1_565
Mg0 Mg4 3.168886 1_555
Mg1 Mg3 3.114612 1_565
Mg1 Mg5 3.114613 1_555
Mg1 Sn0 3.117919 1_555
Mg1 Sn0 3.117919 1_565
Mg1 Mg3 3.121224 1_455
Mg1 Mg5 3.121224 1_455
Mg1 Mg13 3.151534 1_455
Mg1 Mg12 3.151534 1_455
Mg1 Mg8 3.295981 1_555
Mg1 Mg9 3.295981 1_555
Mg1 Mg7 3.295987 1_565
Mg1 Mg6 3.295987 1_565
Mg2 Mg7 3.028729 1_554
Mg2 Mg6 3.028729 1_555
Mg2 Mg4 3.066951 1_555
Mg2 Ni0 3.118057 1_655
Mg2 Ni0 3.118057 1_555
Mg2 Mg4 3.168886 1_545
Mg3 Mg5 3.114612 1_545
Mg3 Sn0 3.117919 1_655
Mg3 Sn0 3.117919 1_555
Mg3 Mg5 3.121224 1_555
Mg3 Mg6 3.295987 1_555
Mg3 Mg7 3.295987 1_555
Mg4 Mg8 3.028729 1_555
Mg4 Mg9 3.028729 1_554
Mg4 Ni0 3.118057 1_665
Mg4 Ni0 3.118057 1_555
Mg5 Sn0 3.117919 1_555
Mg5 Sn0 3.117919 1_665
Mg5 Mg8 3.295987 1_555
Mg5 Mg9 3.295987 1_555
Mg6 Ni0 2.971519 1_555
Mg6 Mg8 3.024593 1_555
Mg6 Mg8 3.211243 1_545
Mg6 Sn0 3.252052 1_555
Mg7 Ni0 2.971519 1_556
Mg7 Mg9 3.024593 1_555
Mg7 Mg9 3.211243 1_545
Mg7 Sn0 3.252052 1_555
Mg8 Ni0 2.971526 1_555
Mg8 Sn0 3.252057 1_555
Mg9 Ni0 2.971526 1_556
Mg9 Sn0 3.252057 1_555
Mg10 Ni0 2.971526 1_655
Mg10 Mg8 3.024593 1_655
Mg10 Mg6 3.024593 1_655
Mg10 Mg2 3.028722 1_555
Mg10 Mg4 3.028728 1_545
Mg10 Mg12 3.122381 1_545
Mg10 Mg12 3.122381 1_555
Mg10 Mg8 3.211243 1_545
Mg10 Mg6 3.211244 1_555
Mg10 Sn0 3.252057 1_655
Mg10 Mg3 3.295981 1_555
Mg10 Mg5 3.295987 1_545
Mg11 Ni0 2.971526 1_656
Mg11 Mg9 3.024593 1_655
Mg11 Mg7 3.024593 1_655
Mg11 Mg2 3.028722 1_556
Mg11 Mg4 3.028728 1_546
Mg11 Mg13 3.122381 1_545
Mg11 Mg13 3.122381 1_555
Mg11 Mg9 3.211243 1_545
Mg11 Mg7 3.211244 1_555
Mg11 Sn0 3.252057 1_655
Mg11 Mg3 3.295981 1_555
Mg11 Mg5 3.295987 1_545
Mg12 Mg4 3.114540 1_555
Mg12 Mg2 3.114546 1_555
Mg12 Mg6 3.122381 1_665
Mg12 Mg6 3.122381 1_555
Mg12 Mg8 3.122381 1_655
Mg12 Mg8 3.122381 1_555
Mg12 Mg5 3.151528 1_555
Mg12 Mg3 3.151534 1_555
Mg13 Mg4 3.114540 1_556
Mg13 Mg2 3.114546 1_556
Mg13 Mg7 3.122381 1_665
Mg13 Mg7 3.122381 1_555
Mg13 Mg9 3.122381 1_555
Mg13 Mg9 3.122381 1_655
Mg13 Mg5 3.151528 1_555
Mg13 Mg3 3.151534 1_555
