# generated using pymatgen
data_Sr2LaMnCoO7
_symmetry_space_group_name_H-M   'P 1'
_cell_length_a   5.45775221
_cell_length_b   10.61290788
_cell_length_c   5.45788380
_cell_angle_alpha   75.15996049
_cell_angle_beta   89.99600987
_cell_angle_gamma   89.94341721
_symmetry_Int_Tables_number   1
_chemical_formula_structural   Sr2LaMnCoO7
_chemical_formula_sum   'Sr4 La2 Mn2 Co2 O14'
_cell_volume   305.58998844
_cell_formula_units_Z   2
loop_
 _symmetry_equiv_pos_site_id
 _symmetry_equiv_pos_as_xyz
  1  'x, y, z'
loop_
 _atom_site_type_symbol
 _atom_site_label
 _atom_site_symmetry_multiplicity
 _atom_site_fract_x
 _atom_site_fract_y
 _atom_site_fract_z
 _atom_site_occupancy
  Sr  Sr0  1  0.00079300  0.00435400  0.49631300  1
  Sr  Sr1  1  0.50142600  0.00469700  0.99686900  1
  Sr  Sr2  1  0.99993500  0.36443800  0.31791200  1
  Sr  Sr3  1  0.49991600  0.36428600  0.81793700  1
  La  La0  1  0.50014900  0.63407600  0.18581400  1
  La  La1  1  0.99721000  0.63401100  0.68264900  1
  Mn  Mn0  1  0.50025900  0.19518400  0.40224800  1
  Mn  Mn1  1  0.00071300  0.19518700  0.90177600  1
  Co  Co0  1  0.99955200  0.80852000  0.09613300  1
  Co  Co1  1  0.49928800  0.80858900  0.59641800  1
  O  O0  1  0.99699600  0.60084000  0.20283900  1
  O  O1  1  0.50349700  0.60059300  0.69607900  1
  O  O2  1  0.49952300  0.39502600  0.30264400  1
  O  O3  1  0.00015800  0.39492400  0.80288700  1
  O  O4  1  0.50082100  0.01063300  0.49399300  1
  O  O5  1  0.00242000  0.01063100  0.99208700  1
  O  O6  1  0.75594000  0.79738900  0.86049500  1
  O  O7  1  0.24073800  0.79755200  0.34526700  1
  O  O8  1  0.74178000  0.79842200  0.35900100  1
  O  O9  1  0.25675200  0.79515900  0.84542900  1
  O  O10  1  0.75051200  0.19650500  0.65136500  1
  O  O11  1  0.25033500  0.19637500  0.15141800  1
  O  O12  1  0.75059100  0.19616500  0.15127900  1
  O  O13  1  0.25069700  0.19644600  0.65115000  1
loop_
_geom_bond_atom_site_label_1
_geom_bond_atom_site_label_2
_geom_bond_distance
_geom_bond_site_symmetry_2
La0 O2 2.452428 1_555
La0 O9 2.550995 1_554
La0 O8 2.554218 1_555
La0 O6 2.556099 1_554
La0 O7 2.557411 1_555
La0 O1 2.715825 1_555
La0 O0 2.732682 1_555
La0 O0 2.767512 1_455
La0 O1 2.785249 1_554
La1 O3 2.452817 1_655
La1 O9 2.550307 1_655
La1 O8 2.554413 1_555
La1 O7 2.556721 1_655
La1 O6 2.557349 1_555
La1 O1 2.716684 1_555
La1 O0 2.730204 1_555
La1 O0 2.769955 1_556
La1 O1 2.784088 1_655
Mn0 O4 1.893292 1_555
Mn0 O13 1.926095 1_555
Mn0 O10 1.929863 1_555
Mn0 O11 1.930348 1_555
Mn0 O12 1.932732 1_555
Mn0 O2 2.050161 1_555
Mn1 O5 1.893377 1_555
Mn1 O11 1.929189 1_556
Mn1 O13 1.929550 1_555
Mn1 O10 1.929564 1_455
Mn1 O12 1.930014 1_456
Mn1 O3 2.049086 1_555
Co0 O7 1.874582 1_655
Co0 O6 1.874596 1_554
Co0 O9 1.990373 1_654
Co0 O8 1.992576 1_555
Co0 O5 2.073596 1_664
Co0 O0 2.130705 1_555
Co1 O8 1.874400 1_555
Co1 O9 1.876293 1_555
Co1 O6 1.991420 1_555
Co1 O7 1.991667 1_555
Co1 O4 2.072800 1_565
Co1 O1 2.134021 1_555
O0 Sr2 2.425307 1_555
O1 Sr3 2.424458 1_555
O2 Sr2 2.744938 1_455
O2 Sr3 2.747015 1_555
O2 Sr3 2.747193 1_554
O2 Sr2 2.748780 1_555
O3 Sr3 2.745293 1_555
O3 Sr2 2.745949 1_456
O3 Sr2 2.747662 1_455
O3 Sr3 2.748543 1_455
O4 Sr1 2.729185 1_555
O4 Sr0 2.729422 1_655
O4 Sr0 2.729858 1_555
O4 Sr1 2.730061 1_554
O5 Sr0 2.723716 1_555
O5 Sr1 2.724089 1_555
O5 Sr1 2.735057 1_455
O5 Sr0 2.735717 1_556
O6 Sr1 2.856014 1_565
O6 Sr0 2.886220 1_665
O7 Sr0 2.851769 1_565
O7 Sr1 2.887475 1_564
O8 Sr0 2.860390 1_665
O8 Sr1 2.863222 1_564
O9 Sr0 2.887661 1_565
O9 Sr1 2.891239 1_565
O10 Sr2 2.585476 1_555
O10 Sr3 2.586899 1_555
O10 Sr1 2.754391 1_555
O10 Sr0 2.760260 1_655
O11 Sr3 2.585893 1_554
O11 Sr2 2.588439 1_455
O11 Sr0 2.755254 1_555
O11 Sr1 2.756992 1_554
O12 Sr3 2.588054 1_554
O12 Sr2 2.589464 1_555
O12 Sr1 2.751635 1_554
O12 Sr0 2.754293 1_655
O13 Sr3 2.585965 1_555
O13 Sr2 2.587309 1_455
O13 Sr1 2.757198 1_555
O13 Sr0 2.760199 1_555
