# generated using pymatgen
data_Tb2Ni7
_symmetry_space_group_name_H-M   'P 1'
_cell_length_a   12.33071617
_cell_length_b   12.33071617
_cell_length_c   12.33071610
_cell_angle_alpha   23.05886134
_cell_angle_beta   23.05886134
_cell_angle_gamma   23.05886364
_symmetry_Int_Tables_number   1
_chemical_formula_structural   Tb2Ni7
_chemical_formula_sum   'Tb4 Ni14'
_cell_volume   252.44718478
_cell_formula_units_Z   2
loop_
 _symmetry_equiv_pos_site_id
 _symmetry_equiv_pos_as_xyz
  1  'x, y, z'
loop_
 _atom_site_type_symbol
 _atom_site_label
 _atom_site_symmetry_multiplicity
 _atom_site_fract_x
 _atom_site_fract_y
 _atom_site_fract_z
 _atom_site_occupancy
  Tb  Tb0  1  0.94908200  0.94908200  0.94908200  1
  Tb  Tb1  1  0.05091800  0.05091800  0.05091800  1
  Tb  Tb2  1  0.85230000  0.85230000  0.85230000  1
  Tb  Tb3  1  0.14770000  0.14770000  0.14770000  1
  Ni  Ni0  1  0.39010900  0.89012100  0.39010900  1
  Ni  Ni1  1  0.39010900  0.39010900  0.89012100  1
  Ni  Ni2  1  0.89012100  0.39010900  0.39010900  1
  Ni  Ni3  1  0.60989100  0.10987900  0.60989100  1
  Ni  Ni4  1  0.60989100  0.60989100  0.10987900  1
  Ni  Ni5  1  0.10987900  0.60989100  0.60989100  1
  Ni  Ni6  1  0.50000000  0.50000000  0.00000000  1
  Ni  Ni7  1  0.00000000  0.50000000  0.50000000  1
  Ni  Ni8  1  0.50000000  0.00000000  0.50000000  1
  Ni  Ni9  1  0.72199100  0.72199100  0.72199100  1
  Ni  Ni10  1  0.27800900  0.27800900  0.27800900  1
  Ni  Ni11  1  0.61194700  0.61194700  0.61194700  1
  Ni  Ni12  1  0.38805300  0.38805300  0.38805300  1
  Ni  Ni13  1  0.50000000  0.50000000  0.50000000  1
loop_
_geom_bond_atom_site_label_1
_geom_bond_atom_site_label_2
_geom_bond_distance
_geom_bond_site_symmetry_2
Ni0 Ni10 2.425177 1_565
Ni0 Ni11 2.442875 1_555
Ni0 Ni1 2.464497 1_564
Ni0 Ni2 2.464497 1_465
Ni0 Ni1 2.464615 1_555
Ni0 Ni2 2.464615 1_555
Ni0 Ni13 2.490276 1_555
Ni0 Tb2 2.815389 1_554
Ni0 Tb2 2.815389 1_455
Ni0 Tb3 3.075337 1_565
Ni0 Tb0 3.252544 1_455
Ni0 Tb0 3.252544 1_554
Ni1 Ni10 2.425177 1_556
Ni1 Ni11 2.442875 1_555
Ni1 Ni2 2.464497 1_456
Ni1 Ni2 2.464615 1_555
Ni1 Ni13 2.490276 1_555
Ni1 Tb2 2.815389 1_455
Ni1 Tb2 2.815389 1_545
Ni1 Tb3 3.075337 1_556
Ni1 Tb0 3.252544 1_455
Ni1 Tb0 3.252544 1_545
Ni2 Tb2 2.815389 1_554
Ni2 Tb2 2.815389 1_545
Ni2 Tb3 3.075337 1_655
Ni2 Tb0 3.252544 1_545
Ni2 Tb0 3.252544 1_554
Ni3 Ni9 2.425177 1_545
Ni3 Ni4 2.464497 1_546
Ni3 Ni5 2.464497 1_645
Ni3 Ni4 2.464615 1_555
Ni3 Ni5 2.464615 1_555
Ni3 Tb3 2.815389 1_556
Ni3 Tb3 2.815389 1_655
Ni3 Tb2 3.075337 1_545
Ni3 Tb1 3.252544 1_655
Ni3 Tb1 3.252544 1_556
Ni4 Ni9 2.425177 1_554
Ni4 Ni5 2.464497 1_654
Ni4 Ni5 2.464615 1_555
Ni4 Tb3 2.815389 1_565
Ni4 Tb3 2.815389 1_655
Ni4 Tb2 3.075337 1_554
Ni4 Tb1 3.252544 1_655
Ni4 Tb1 3.252544 1_565
Ni5 Ni9 2.425177 1_455
Ni5 Tb3 2.815389 1_556
Ni5 Tb3 2.815389 1_565
Ni5 Tb2 3.075337 1_455
Ni5 Tb1 3.252544 1_565
Ni5 Tb1 3.252544 1_556
Ni6 Ni9 2.447451 1_554
Ni6 Ni7 2.464556 1_555
Ni6 Ni7 2.464556 1_654
Ni6 Ni8 2.464556 1_555
Ni6 Ni8 2.464556 1_564
Ni6 Tb0 3.071300 1_454
Ni6 Tb0 3.071300 1_544
Ni6 Tb1 3.071300 1_565
Ni6 Tb1 3.071300 1_655
Ni7 Ni9 2.447451 1_455
Ni7 Ni8 2.464556 1_555
Ni7 Ni8 2.464556 1_465
Ni7 Tb1 3.071300 1_556
Ni7 Tb0 3.071300 1_454
Ni7 Tb0 3.071300 1_445
Ni7 Tb1 3.071300 1_565
Ni8 Ni9 2.447451 1_545
Ni8 Tb1 3.071300 1_556
Ni8 Tb0 3.071300 1_544
Ni8 Tb1 3.071300 1_655
Ni8 Tb0 3.071300 1_445
Ni9 Tb1 2.850240 1_665
Ni9 Tb1 2.850240 1_656
Ni9 Tb1 2.850240 1_566
Ni10 Ni2 2.425177 1_455
Ni10 Ni6 2.447451 1_555
Ni10 Ni7 2.447451 1_555
Ni10 Ni8 2.447451 1_555
Ni10 Tb0 2.850240 1_445
Ni10 Tb0 2.850240 1_454
Ni10 Tb0 2.850240 1_544
Ni11 Ni6 2.429776 1_556
Ni11 Ni8 2.429776 1_565
Ni11 Ni7 2.429776 1_655
Ni11 Ni2 2.442875 1_555
Ni11 Tb0 2.849112 1_554
Ni11 Tb0 2.849112 1_455
Ni11 Tb0 2.849112 1_545
Ni12 Ni6 2.429776 1_555
Ni12 Ni8 2.429776 1_555
Ni12 Ni7 2.429776 1_555
Ni12 Ni4 2.442875 1_555
Ni12 Ni5 2.442875 1_555
Ni12 Ni3 2.442875 1_555
Ni12 Tb1 2.849112 1_556
Ni12 Tb1 2.849112 1_565
Ni12 Tb1 2.849112 1_655
Ni13 Ni4 2.490276 1_555
Ni13 Ni2 2.490276 1_555
Ni13 Ni3 2.490276 1_555
Ni13 Ni5 2.490276 1_555
Ni13 Tb2 2.926561 1_554
Ni13 Tb3 2.926561 1_556
Ni13 Tb2 2.926561 1_545
Ni13 Tb2 2.926561 1_455
Ni13 Tb3 2.926561 1_565
Ni13 Tb3 2.926561 1_655
