# generated using pymatgen
data_Zn4Ni5(TeO6)3
_symmetry_space_group_name_H-M   'P 1'
_cell_length_a   8.64851770
_cell_length_b   8.64851770
_cell_length_c   10.40095933
_cell_angle_alpha   85.89018909
_cell_angle_beta   85.89018909
_cell_angle_gamma   61.87809442
_symmetry_Int_Tables_number   1
_chemical_formula_structural   Zn4Ni5(TeO6)3
_chemical_formula_sum   'Zn8 Ni10 Te6 O36'
_cell_volume   683.71909532
_cell_formula_units_Z   2
loop_
 _symmetry_equiv_pos_site_id
 _symmetry_equiv_pos_as_xyz
  1  'x, y, z'
loop_
 _atom_site_type_symbol
 _atom_site_label
 _atom_site_symmetry_multiplicity
 _atom_site_fract_x
 _atom_site_fract_y
 _atom_site_fract_z
 _atom_site_occupancy
  Zn  Zn0  1  0.94205500  0.65570800  0.42384300  1
  Zn  Zn1  1  0.32379900  0.63622700  0.54354300  1
  Zn  Zn2  1  0.34429200  0.05794500  0.07615700  1
  Zn  Zn3  1  0.36377300  0.67620100  0.95645700  1
  Zn  Zn4  1  0.63622700  0.32379900  0.04354300  1
  Zn  Zn5  1  0.65570800  0.94205500  0.92384300  1
  Zn  Zn6  1  0.05794500  0.34429200  0.57615700  1
  Zn  Zn7  1  0.67620100  0.36377300  0.45645700  1
  Ni  Ni0  1  0.00809000  0.69440400  0.76801300  1
  Ni  Ni1  1  0.69440400  0.00809000  0.26801300  1
  Ni  Ni2  1  0.47483300  0.85687600  0.44998800  1
  Ni  Ni3  1  0.85687600  0.47483300  0.94998800  1
  Ni  Ni4  1  0.14312400  0.52516700  0.05001200  1
  Ni  Ni5  1  0.82280900  0.17719100  0.75000000  1
  Ni  Ni6  1  0.17719100  0.82280900  0.25000000  1
  Ni  Ni7  1  0.52516700  0.14312400  0.55001200  1
  Ni  Ni8  1  0.99191000  0.30559600  0.23198700  1
  Ni  Ni9  1  0.30559600  0.99191000  0.73198700  1
  Te  Te0  1  0.34146500  0.33472400  0.79835600  1
  Te  Te1  1  0.00000000  0.00000000  0.50000000  1
  Te  Te2  1  0.00000000  0.00000000  0.00000000  1
  Te  Te3  1  0.33472400  0.34146500  0.29835600  1
  Te  Te4  1  0.65853500  0.66527600  0.20164400  1
  Te  Te5  1  0.66527600  0.65853500  0.70164400  1
  O  O0  1  0.40293000  0.10271800  0.88795300  1
  O  O1  1  0.08706900  0.75939000  0.93825200  1
  O  O2  1  0.24154300  0.56689600  0.20628500  1
  O  O3  1  0.07507500  0.06785600  0.33590200  1
  O  O4  1  0.24061000  0.91293100  0.56174800  1
  O  O5  1  0.93214400  0.92492500  0.16409800  1
  O  O6  1  0.42154200  0.40433100  0.44627500  1
  O  O7  1  0.76282500  0.09582800  0.93211400  1
  O  O8  1  0.23717500  0.90417200  0.06788600  1
  O  O9  1  0.72336500  0.77064900  0.34005200  1
  O  O10  1  0.25275600  0.55661400  0.70297300  1
  O  O11  1  0.27663500  0.22935100  0.65994800  1
  O  O12  1  0.91293100  0.24061000  0.06174800  1
  O  O13  1  0.10335200  0.44258900  0.88074900  1
  O  O14  1  0.44338600  0.74724400  0.79702700  1
  O  O15  1  0.57845800  0.59566900  0.55372500  1
  O  O16  1  0.74724400  0.44338600  0.29702700  1
  O  O17  1  0.55741100  0.89664800  0.61925100  1
  O  O18  1  0.43310400  0.75845700  0.29371500  1
  O  O19  1  0.55661400  0.25275600  0.20297300  1
  O  O20  1  0.10271800  0.40293000  0.38795300  1
  O  O21  1  0.89664800  0.55741100  0.11925100  1
  O  O22  1  0.90417200  0.23717500  0.56788600  1
  O  O23  1  0.40433100  0.42154200  0.94627500  1
  O  O24  1  0.75845700  0.43310400  0.79371500  1
  O  O25  1  0.06785600  0.07507500  0.83590200  1
  O  O26  1  0.77064900  0.72336500  0.84005200  1
  O  O27  1  0.59566900  0.57845800  0.05372500  1
  O  O28  1  0.75939000  0.08706900  0.43825200  1
  O  O29  1  0.44258900  0.10335200  0.38074900  1
  O  O30  1  0.59707000  0.89728200  0.11204700  1
  O  O31  1  0.92492500  0.93214400  0.66409800  1
  O  O32  1  0.09582800  0.76282500  0.43211400  1
  O  O33  1  0.22935100  0.27663500  0.15994800  1
  O  O34  1  0.56689600  0.24154300  0.70628500  1
  O  O35  1  0.89728200  0.59707000  0.61204700  1
loop_
_geom_bond_atom_site_label_1
_geom_bond_atom_site_label_2
_geom_bond_distance
_geom_bond_site_symmetry_2
Ni0 O10 1.971914 1_555
Ni0 O26 2.040232 1_455
Ni0 O31 2.076490 1_455
Ni0 O1 2.143720 1_555
Ni0 O13 2.208529 1_555
Ni0 O35 2.331861 1_455
Ni1 O19 1.971914 1_555
Ni1 O9 2.040232 1_545
Ni1 O5 2.076490 1_545
Ni1 O28 2.143720 1_555
Ni1 O29 2.208529 1_555
Ni1 O30 2.331861 1_545
Ni2 O18 2.017079 1_555
Ni2 O17 2.055799 1_555
Ni2 O29 2.094921 1_565
Ni2 O4 2.122996 1_555
Ni2 O9 2.177733 1_555
Ni2 O15 2.225160 1_555
Ni3 O24 2.017079 1_555
Ni3 O21 2.055799 1_556
Ni3 O13 2.094921 1_655
Ni3 O12 2.122996 1_556
Ni3 O26 2.177733 1_555
Ni3 O27 2.225160 1_556
Ni4 O2 2.017079 1_555
Ni4 O13 2.055799 1_554
Ni4 O21 2.094921 1_455
Ni4 O1 2.122996 1_554
Ni4 O33 2.177733 1_555
Ni4 O23 2.225160 1_554
Ni5 O24 2.088492 1_555
Ni5 O34 2.088492 1_555
Ni5 O22 2.089103 1_555
Ni5 O7 2.089103 1_555
Ni5 O25 2.112708 1_655
Ni5 O31 2.112708 1_545
Ni6 O18 2.088492 1_555
Ni6 O2 2.088492 1_555
Ni6 O8 2.089103 1_555
Ni6 O32 2.089103 1_555
Ni6 O3 2.112708 1_565
Ni6 O5 2.112708 1_455
Ni7 O34 2.017079 1_555
Ni7 O29 2.055799 1_555
Ni7 O17 2.094921 1_545
Ni7 O28 2.122996 1_555
Ni7 O11 2.177733 1_555
Ni7 O6 2.225160 1_555
Ni8 O16 1.971914 1_555
Ni8 O33 2.040232 1_655
Ni8 O3 2.076490 1_655
Ni8 O12 2.143720 1_555
Ni8 O21 2.208529 1_555
Ni8 O20 2.331861 1_655
Ni9 O14 1.971914 1_555
Ni9 O11 2.040232 1_565
Ni9 O25 2.076490 1_565
Ni9 O4 2.143720 1_555
Ni9 O17 2.208529 1_555
Ni9 O0 2.331861 1_565
O0 Te0 1.993631 1_555
O0 Zn5 2.007076 1_545
O0 Zn2 2.042821 1_556
O1 Te2 1.988667 1_566
O1 Zn3 2.168562 1_555
O2 Te3 1.931181 1_555
O3 Te1 1.932834 1_555
O4 Te1 1.988667 1_565
O4 Zn1 2.168562 1_555
O5 Te2 1.932834 1_665
O6 Te3 1.974000 1_555
O6 Zn7 2.069966 1_555
O6 Zn1 2.080955 1_555
O7 Zn5 1.955386 1_545
O7 Te2 1.978390 1_656
O7 Zn4 2.130701 1_556
O8 Zn2 1.955386 1_565
O8 Te2 1.978390 1_565
O8 Zn3 2.130701 1_554
O9 Zn0 1.914308 1_555
O9 Te4 2.000668 1_555
O10 Zn1 1.921045 1_555
O10 Te0 1.924512 1_555
O11 Zn6 1.914308 1_555
O11 Te0 2.000668 1_555
O12 Te2 1.988667 1_655
O12 Zn4 2.168562 1_555
O13 Te0 1.973851 1_555
O14 Zn3 1.921045 1_555
O14 Te5 1.924512 1_555
O15 Te5 1.974000 1_555
O15 Zn1 2.069966 1_555
O15 Zn7 2.080955 1_555
O16 Zn7 1.921045 1_555
O16 Te4 1.924512 1_555
O17 Te5 1.973851 1_555
O18 Te4 1.931181 1_555
O19 Zn4 1.921045 1_555
O19 Te3 1.924512 1_555
O20 Te3 1.993631 1_555
O20 Zn0 2.007076 1_455
O20 Zn6 2.042821 1_555
O21 Te4 1.973851 1_555
O22 Zn6 1.955386 1_655
O22 Te1 1.978390 1_655
O22 Zn7 2.130701 1_555
O23 Te0 1.974000 1_555
O23 Zn3 2.069966 1_555
O23 Zn4 2.080955 1_556
O24 Te5 1.931181 1_555
O25 Te2 1.932834 1_556
O26 Zn5 1.914308 1_555
O26 Te5 2.000668 1_555
O27 Te4 1.974000 1_555
O27 Zn4 2.069966 1_555
O27 Zn3 2.080955 1_554
O28 Te1 1.988667 1_655
O28 Zn7 2.168562 1_555
O29 Te3 1.973851 1_555
O30 Te4 1.993631 1_555
O30 Zn2 2.007076 1_565
O30 Zn5 2.042821 1_554
O31 Te1 1.932834 1_665
O32 Zn0 1.955386 1_455
O32 Te1 1.978390 1_565
O32 Zn1 2.130701 1_555
O33 Zn2 1.914308 1_555
O33 Te3 2.000668 1_555
O34 Te0 1.931181 1_555
O35 Te5 1.993631 1_555
O35 Zn6 2.007076 1_655
O35 Zn0 2.042821 1_555
