# generated using pymatgen
data_K2FeCuC12
_symmetry_space_group_name_H-M   'P 1'
_cell_length_a   7.14501987
_cell_length_b   7.14501987
_cell_length_c   7.14501987
_cell_angle_alpha   60.00000000
_cell_angle_beta   60.00000000
_cell_angle_gamma   60.00000000
_symmetry_Int_Tables_number   1
_chemical_formula_structural   K2FeCuC12
_chemical_formula_sum   'K2 Fe1 Cu1 C12'
_cell_volume   257.92611958
_cell_formula_units_Z   1
loop_
 _symmetry_equiv_pos_site_id
 _symmetry_equiv_pos_as_xyz
  1  'x, y, z'
loop_
 _atom_site_type_symbol
 _atom_site_label
 _atom_site_symmetry_multiplicity
 _atom_site_fract_x
 _atom_site_fract_y
 _atom_site_fract_z
 _atom_site_occupancy
  K  K0  1  0.25000000  0.25000000  0.25000000  1
  K  K1  1  0.75000000  0.75000000  0.75000000  1
  Fe  Fe0  1  0.00000000  0.00000000  0.00000000  1
  Cu  Cu0  1  0.50000000  0.50000000  0.50000000  1
  C  C0  1  0.81109400  0.18890600  0.18890600  1
  C  C1  1  0.18890600  0.81109400  0.81109400  1
  C  C2  1  0.18890600  0.81109400  0.18890600  1
  C  C3  1  0.81109400  0.18890600  0.81109400  1
  C  C4  1  0.18890600  0.18890600  0.81109400  1
  C  C5  1  0.81109400  0.81109400  0.18890600  1
  C  C6  1  0.68808800  0.31191200  0.31191200  1
  C  C7  1  0.31191200  0.68808800  0.68808800  1
  C  C8  1  0.31191200  0.68808800  0.31191200  1
  C  C9  1  0.68808800  0.31191200  0.68808800  1
  C  C10  1  0.31191200  0.31191200  0.68808800  1
  C  C11  1  0.68808800  0.68808800  0.31191200  1
loop_
_geom_bond_atom_site_label_1
_geom_bond_atom_site_label_2
_geom_bond_distance
_geom_bond_site_symmetry_2
C0 C6 1.242924 1_555
C0 Fe0 1.908817 1_655
C1 C7 1.242924 1_555
C1 Fe0 1.908817 1_566
C2 C8 1.242924 1_555
C2 Fe0 1.908817 1_565
C3 C9 1.242924 1_555
C3 Fe0 1.908817 1_656
C4 Fe0 1.908817 1_556
C5 Fe0 1.908817 1_665
C6 Cu0 1.900551 1_555
C7 Cu0 1.900551 1_555
C8 Cu0 1.900551 1_555
C9 Cu0 1.900551 1_555
C10 C4 1.242924 1_555
C10 Cu0 1.900551 1_555
C11 C5 1.242924 1_555
C11 Cu0 1.900551 1_555
