# generated using pymatgen
data_NdCoGe2
_symmetry_space_group_name_H-M   'P 1'
_cell_length_a   8.54613838
_cell_length_b   8.54613838
_cell_length_c   4.19191114
_cell_angle_alpha   90.00000000
_cell_angle_beta   90.00000000
_cell_angle_gamma   151.20361535
_symmetry_Int_Tables_number   1
_chemical_formula_structural   NdCoGe2
_chemical_formula_sum   'Nd2 Co2 Ge4'
_cell_volume   147.47795056
_cell_formula_units_Z   2
loop_
 _symmetry_equiv_pos_site_id
 _symmetry_equiv_pos_as_xyz
  1  'x, y, z'
loop_
 _atom_site_type_symbol
 _atom_site_label
 _atom_site_symmetry_multiplicity
 _atom_site_fract_x
 _atom_site_fract_y
 _atom_site_fract_z
 _atom_site_occupancy
  Nd  Nd0  1  0.89125310  0.10874690  0.75000000  1
  Nd  Nd1  1  0.10874690  0.89125310  0.25000000  1
  Co  Co0  1  0.68316138  0.31683862  0.75000000  1
  Co  Co1  1  0.31683862  0.68316138  0.25000000  1
  Ge  Ge0  1  0.54588798  0.45411202  0.75000000  1
  Ge  Ge1  1  0.45411202  0.54588798  0.25000000  1
  Ge  Ge2  1  0.25023252  0.74976748  0.75000000  1
  Ge  Ge3  1  0.74976748  0.25023252  0.25000000  1
loop_
_geom_bond_atom_site_label_1
_geom_bond_atom_site_label_2
_geom_bond_distance
_geom_bond_site_symmetry_2
Co0 Ge0 2.272620 1_555
Co0 Ge3 2.368324 1_555
Co0 Ge3 2.368324 1_556
Co0 Ge2 2.397691 1_545
Co0 Ge2 2.397691 1_655
Co0 Nd1 3.229043 1_656
Co0 Nd1 3.229043 1_655
Co0 Nd1 3.229043 1_545
Co0 Nd1 3.229043 1_546
Co1 Ge1 2.272620 1_555
Co1 Ge2 2.368324 1_555
Co1 Ge2 2.368324 1_554
Co1 Ge3 2.397691 1_565
Co1 Ge3 2.397691 1_455
Co1 Nd0 3.229043 1_565
Co1 Nd0 3.229043 1_564
Co1 Nd0 3.229043 1_455
Co1 Nd0 3.229043 1_454
Ge0 Ge1 2.588740 1_555
Ge0 Ge1 2.588740 1_556
Ge0 Nd1 3.161004 1_656
Ge0 Nd1 3.161004 1_655
Ge0 Nd1 3.161004 1_545
Ge0 Nd1 3.161004 1_546
Ge0 Nd0 3.327129 1_565
Ge0 Nd0 3.327129 1_455
Ge1 Nd0 3.161004 1_565
Ge1 Nd0 3.161004 1_564
Ge1 Nd0 3.161004 1_455
Ge1 Nd0 3.161004 1_454
Ge1 Nd1 3.327129 1_655
Ge1 Nd1 3.327129 1_545
Ge2 Nd1 3.143192 1_555
Ge2 Nd1 3.143192 1_556
Ge2 Nd0 3.156987 1_565
Ge2 Nd0 3.156987 1_455
Ge3 Nd0 3.143192 1_555
Ge3 Nd0 3.143192 1_554
Ge3 Nd1 3.156987 1_655
Ge3 Nd1 3.156987 1_545
