# generated using pymatgen
data_Mg6NbZn
_symmetry_space_group_name_H-M   'P 1'
_cell_length_a   4.90911300
_cell_length_b   6.09323500
_cell_length_c   10.87326400
_cell_angle_alpha   90.00000000
_cell_angle_beta   90.00000000
_cell_angle_gamma   90.00000000
_symmetry_Int_Tables_number   1
_chemical_formula_structural   Mg6NbZn
_chemical_formula_sum   'Mg12 Nb2 Zn2'
_cell_volume   325.24519537
_cell_formula_units_Z   2
loop_
 _symmetry_equiv_pos_site_id
 _symmetry_equiv_pos_as_xyz
  1  'x, y, z'
loop_
 _atom_site_type_symbol
 _atom_site_label
 _atom_site_symmetry_multiplicity
 _atom_site_fract_x
 _atom_site_fract_y
 _atom_site_fract_z
 _atom_site_occupancy
  Mg  Mg0  1  0.50000000  0.25251800  0.41930700  1
  Mg  Mg1  1  0.50000000  0.74748200  0.41930700  1
  Mg  Mg2  1  0.00000000  0.74382800  0.08646300  1
  Mg  Mg3  1  0.00000000  0.25617200  0.08646300  1
  Mg  Mg4  1  0.00000000  0.00000000  0.32781600  1
  Mg  Mg5  1  0.00000000  0.50000000  0.32557000  1
  Mg  Mg6  1  0.50000000  0.75251800  0.91930700  1
  Mg  Mg7  1  0.50000000  0.24748200  0.91930700  1
  Mg  Mg8  1  0.00000000  0.24382800  0.58646300  1
  Mg  Mg9  1  0.00000000  0.75617200  0.58646300  1
  Mg  Mg10  1  0.00000000  0.50000000  0.82781600  1
  Mg  Mg11  1  0.00000000  0.00000000  0.82557000  1
  Nb  Nb0  1  0.50000000  0.50000000  0.16990900  1
  Nb  Nb1  1  0.50000000  0.00000000  0.66990900  1
  Zn  Zn0  1  0.50000000  0.00000000  0.16515900  1
  Zn  Zn1  1  0.50000000  0.50000000  0.66515900  1
loop_
_geom_bond_atom_site_label_1
_geom_bond_atom_site_label_2
_geom_bond_distance
_geom_bond_site_symmetry_2
Mg0 Mg1 3.015932 1_555
Mg0 Mg8 3.054680 1_655
Mg0 Mg8 3.054680 1_555
Mg0 Mg5 3.055754 1_655
Mg0 Mg5 3.055754 1_555
Mg0 Mg4 3.062994 1_555
Mg0 Mg4 3.062994 1_655
Mg0 Zn1 3.069207 1_555
Mg0 Mg1 3.077303 1_545
Mg0 Nb0 3.102847 1_555
Mg0 Nb1 3.129268 1_555
Mg0 Zn0 3.162899 1_555
Mg1 Mg9 3.054680 1_555
Mg1 Mg9 3.054680 1_655
Mg1 Mg5 3.055754 1_555
Mg1 Mg5 3.055754 1_655
Mg1 Mg4 3.062994 1_565
Mg1 Mg4 3.062994 1_665
Mg1 Zn1 3.069207 1_555
Mg1 Nb0 3.102847 1_555
Mg1 Nb1 3.129268 1_565
Mg1 Zn0 3.162899 1_565
Mg2 Mg3 2.971403 1_555
Mg2 Mg5 2.994437 1_555
Mg2 Nb0 3.009220 1_455
Mg2 Nb0 3.009220 1_555
Mg2 Zn0 3.032078 1_565
Mg2 Zn0 3.032078 1_465
Mg2 Mg4 3.053422 1_565
Mg2 Mg6 3.054680 1_554
Mg2 Mg6 3.054680 1_454
Mg2 Mg3 3.121832 1_565
Mg3 Mg5 2.994437 1_555
Mg3 Nb0 3.009220 1_555
Mg3 Nb0 3.009220 1_455
Mg3 Zn0 3.032078 1_555
Mg3 Zn0 3.032078 1_455
Mg3 Mg4 3.053422 1_555
Mg3 Mg7 3.054680 1_454
Mg3 Mg7 3.054680 1_554
Mg4 Zn0 3.025366 1_455
Mg4 Zn0 3.025366 1_555
Mg4 Mg5 3.046715 1_545
Mg4 Mg5 3.046715 1_555
Mg4 Mg8 3.180652 1_555
Mg4 Mg9 3.180652 1_545
Mg5 Nb0 2.981535 1_555
Mg5 Nb0 2.981535 1_455
Mg5 Mg8 3.237848 1_555
Mg5 Mg9 3.237848 1_555
Mg6 Mg7 3.015932 1_565
Mg6 Zn0 3.069207 1_566
Mg6 Mg7 3.077303 1_555
Mg6 Nb1 3.102847 1_565
Mg6 Nb0 3.129268 1_556
Mg6 Zn1 3.162899 1_555
Mg7 Zn0 3.069207 1_556
Mg7 Nb1 3.102847 1_555
Mg7 Nb0 3.129268 1_556
Mg7 Zn1 3.162899 1_555
Mg8 Mg9 2.971403 1_545
Mg8 Nb1 3.009220 1_455
Mg8 Nb1 3.009220 1_555
Mg8 Zn1 3.032078 1_455
Mg8 Zn1 3.032078 1_555
Mg8 Mg9 3.121832 1_555
Mg9 Nb1 3.009220 1_465
Mg9 Nb1 3.009220 1_565
Mg9 Zn1 3.032078 1_455
Mg9 Zn1 3.032078 1_555
Mg10 Zn1 3.025366 1_455
Mg10 Zn1 3.025366 1_555
Mg10 Mg11 3.046715 1_565
Mg10 Mg11 3.046715 1_555
Mg10 Mg9 3.053422 1_555
Mg10 Mg8 3.053422 1_555
Mg10 Mg6 3.062994 1_455
Mg10 Mg6 3.062994 1_555
Mg10 Mg7 3.062994 1_455
Mg10 Mg7 3.062994 1_555
Mg10 Mg2 3.180652 1_556
Mg10 Mg3 3.180652 1_556
Mg11 Nb1 2.981535 1_455
Mg11 Nb1 2.981535 1_555
Mg11 Mg9 2.994437 1_545
Mg11 Mg8 2.994437 1_555
Mg11 Mg7 3.055754 1_455
Mg11 Mg7 3.055754 1_555
Mg11 Mg6 3.055754 1_545
Mg11 Mg6 3.055754 1_445
Mg11 Mg3 3.237848 1_556
Mg11 Mg2 3.237848 1_546
Nb0 Zn0 3.047055 1_565
Nb0 Zn0 3.047055 1_555
Nb1 Zn1 3.047055 1_545
Nb1 Zn1 3.047055 1_555
