# generated using pymatgen
data_Ca2ZnSb2
_symmetry_space_group_name_H-M   'P 1'
_cell_length_a   4.60327200
_cell_length_b   12.53927400
_cell_length_c   22.00305550
_cell_angle_alpha   89.69219886
_cell_angle_beta   90.00000000
_cell_angle_gamma   90.00000000
_symmetry_Int_Tables_number   1
_chemical_formula_structural   Ca2ZnSb2
_chemical_formula_sum   'Ca18 Zn9 Sb18'
_cell_volume   1270.03519788
_cell_formula_units_Z   9
loop_
 _symmetry_equiv_pos_site_id
 _symmetry_equiv_pos_as_xyz
  1  'x, y, z'
loop_
 _atom_site_type_symbol
 _atom_site_label
 _atom_site_symmetry_multiplicity
 _atom_site_fract_x
 _atom_site_fract_y
 _atom_site_fract_z
 _atom_site_occupancy
  Ca  Ca0  1  0.00000000  0.06402200  0.58892900  1
  Ca  Ca1  1  0.00000000  0.93713500  0.40928400  1
  Ca  Ca2  1  0.00000000  0.44218000  0.09257000  1
  Ca  Ca3  1  0.00000000  0.56305700  0.90961700  1
  Ca  Ca4  1  0.00000000  0.36710200  0.63587200  1
  Ca  Ca5  1  0.00000000  0.63456100  0.36270200  1
  Ca  Ca6  1  0.00000000  0.13163800  0.14173800  1
  Ca  Ca7  1  0.00000000  0.85362100  0.86126500  1
  Ca  Ca8  1  0.00000000  0.12531800  0.75462100  1
  Ca  Ca9  1  0.00000000  0.87856800  0.23704500  1
  Ca  Ca10  1  0.00000000  0.37977900  0.26320100  1
  Ca  Ca11  1  0.00000000  0.61925500  0.73581300  1
  Ca  Ca12  1  0.50000000  0.49960500  0.49977300  1
  Ca  Ca13  1  0.50000000  0.99475600  0.00438100  1
  Ca  Ca14  1  0.50000000  0.29941000  0.89793700  1
  Ca  Ca15  1  0.50000000  0.71478400  0.10393100  1
  Ca  Ca16  1  0.50000000  0.21384100  0.39747400  1
  Ca  Ca17  1  0.50000000  0.78582100  0.60079500  1
  Zn  Zn0  1  0.50000000  0.22228800  0.54486500  1
  Zn  Zn1  1  0.50000000  0.77745000  0.45382700  1
  Zn  Zn2  1  0.50000000  0.28347200  0.04556100  1
  Zn  Zn3  1  0.50000000  0.72311700  0.95405000  1
  Zn  Zn4  1  0.50000000  0.38064100  0.73740000  1
  Zn  Zn5  1  0.50000000  0.61875100  0.26278000  1
  Zn  Zn6  1  0.50000000  0.11686200  0.23838300  1
  Zn  Zn7  1  0.50000000  0.87223300  0.75991300  1
  Zn  Zn8  1  0.00000000  0.10505000  0.89604400  1
  Sb  Sb0  1  0.00000000  0.19698100  0.00185800  1
  Sb  Sb1  1  0.00000000  0.80604300  0.00440700  1
  Sb  Sb2  1  0.00000000  0.30593100  0.49450900  1
  Sb  Sb3  1  0.00000000  0.69370100  0.50617900  1
  Sb  Sb4  1  0.00000000  0.37428200  0.80714300  1
  Sb  Sb5  1  0.00000000  0.62237100  0.19447000  1
  Sb  Sb6  1  0.00000000  0.12250900  0.30484300  1
  Sb  Sb7  1  0.00000000  0.88205600  0.69642700  1
  Sb  Sb8  1  0.50000000  0.19086700  0.66707900  1
  Sb  Sb9  1  0.50000000  0.81046200  0.33215100  1
  Sb  Sb10  1  0.50000000  0.30940400  0.16586800  1
  Sb  Sb11  1  0.50000000  0.68772600  0.83201000  1
  Sb  Sb12  1  0.50000000  0.04057400  0.85182100  1
  Sb  Sb13  1  0.50000000  0.95983800  0.14729300  1
  Sb  Sb14  1  0.50000000  0.46019300  0.35224600  1
  Sb  Sb15  1  0.50000000  0.53939900  0.64859400  1
  Sb  Sb16  1  0.50000000  0.99941600  0.50056300  1
  Sb  Sb17  1  0.50000000  0.49942600  0.99946900  1
loop_
_geom_bond_atom_site_label_1
_geom_bond_atom_site_label_2
_geom_bond_distance
_geom_bond_site_symmetry_2
Ca0 Sb16 3.122679 1_545
Ca0 Sb16 3.122679 1_445
Ca0 Zn0 3.186733 1_455
Ca0 Zn0 3.186733 1_555
Ca0 Sb7 3.277627 1_545
Ca0 Sb8 3.288398 1_455
Ca0 Sb8 3.288398 1_555
Ca1 Sb16 3.155632 1_555
Ca1 Sb16 3.155632 1_455
Ca1 Zn1 3.200991 1_455
Ca1 Zn1 3.200991 1_555
Ca1 Sb6 3.259847 1_565
Ca1 Sb9 3.275641 1_455
Ca1 Sb9 3.275641 1_555
Ca2 Sb17 3.161230 1_554
Ca2 Sb17 3.161230 1_454
Ca2 Sb5 3.191657 1_555
Ca2 Zn2 3.217132 1_455
Ca2 Zn2 3.217132 1_555
Ca2 Sb10 3.262159 1_555
Ca2 Sb10 3.262159 1_455
Ca2 Sb0 3.674641 1_555
Ca3 Sb17 3.134614 1_455
Ca3 Sb17 3.134614 1_555
Ca3 Zn3 3.209771 1_455
Ca3 Zn3 3.209771 1_555
Ca3 Sb11 3.260137 1_555
Ca3 Sb11 3.260137 1_455
Ca3 Sb4 3.277861 1_555
Ca4 Sb15 3.170182 1_555
Ca4 Sb15 3.170182 1_455
Ca4 Sb2 3.207598 1_555
Ca4 Zn4 3.212608 1_555
Ca4 Zn4 3.212608 1_455
Ca4 Sb8 3.261317 1_455
Ca4 Sb8 3.261317 1_555
Ca4 Zn0 3.555796 1_555
Ca4 Zn0 3.555796 1_455
Ca5 Sb14 3.183774 1_455
Ca5 Sb14 3.183774 1_555
Ca5 Zn5 3.189876 1_555
Ca5 Zn5 3.189876 1_455
Ca5 Sb3 3.246738 1_555
Ca5 Sb9 3.255527 1_455
Ca5 Sb9 3.255527 1_555
Ca5 Zn1 3.544932 1_455
Ca5 Zn1 3.544932 1_555
Ca6 Zn6 3.138401 1_455
Ca6 Zn6 3.138401 1_555
Ca6 Sb13 3.154429 1_545
Ca6 Sb13 3.154429 1_445
Ca6 Sb0 3.180727 1_555
Ca6 Sb10 3.249743 1_555
Ca6 Sb10 3.249743 1_455
Ca6 Sb6 3.590019 1_555
Ca7 Sb11 3.170727 1_555
Ca7 Sb11 3.170727 1_455
Ca7 Sb1 3.202417 1_556
Ca7 Zn7 3.212404 1_555
Ca7 Zn7 3.212404 1_455
Ca7 Zn8 3.248272 1_565
Ca7 Sb12 3.291049 1_565
Ca7 Sb12 3.291049 1_465
Ca7 Zn3 3.479578 1_555
Ca7 Zn3 3.479578 1_455
Ca7 Sb7 3.642517 1_555
Ca8 Sb8 3.109069 1_455
Ca8 Sb8 3.109069 1_555
Ca8 Zn8 3.120738 1_555
Ca8 Sb12 3.313052 1_455
Ca8 Sb12 3.313052 1_555
Ca8 Sb7 3.314515 1_545
Ca8 Sb4 3.334679 1_555
Ca9 Sb13 3.195983 1_455
Ca9 Sb13 3.195983 1_555
Ca9 Sb9 3.222842 1_455
Ca9 Sb9 3.222842 1_555
Ca9 Sb5 3.351150 1_555
Ca9 Sb6 3.410411 1_565
Ca10 Sb14 3.189702 1_455
Ca10 Sb14 3.189702 1_555
Ca10 Sb10 3.268502 1_555
Ca10 Sb10 3.268502 1_455
Ca10 Sb6 3.348835 1_555
Ca10 Sb5 3.389827 1_555
Ca11 Sb15 3.162868 1_455
Ca11 Sb15 3.162868 1_555
Ca11 Sb11 3.245662 1_555
Ca11 Sb11 3.245662 1_455
Ca11 Sb7 3.402875 1_555
Ca11 Sb4 3.441993 1_555
Ca12 Sb14 3.286073 1_555
Ca12 Sb15 3.314967 1_555
Ca12 Sb2 3.348392 1_555
Ca12 Sb2 3.348392 1_655
Ca12 Sb3 3.353293 1_555
Ca12 Sb3 3.353293 1_655
Ca12 Zn0 3.610998 1_555
Ca12 Zn1 3.622466 1_555
Ca13 Sb13 3.172507 1_555
Ca13 Sb1 3.301061 1_555
Ca13 Sb1 3.301061 1_655
Ca13 Sb12 3.402554 1_564
Ca13 Sb0 3.424785 1_565
Ca13 Sb0 3.424785 1_665
Ca13 Zn8 3.585674 1_564
Ca13 Zn8 3.585674 1_664
Ca13 Zn3 3.587317 1_554
Ca14 Sb4 3.185873 1_555
Ca14 Sb4 3.185873 1_655
Ca14 Zn2 3.253250 1_556
Ca14 Zn8 3.352607 1_655
Ca14 Zn8 3.352607 1_555
Ca14 Sb17 3.367694 1_555
Ca14 Sb12 3.405731 1_555
Ca14 Sb0 3.484834 1_556
Ca14 Sb0 3.484834 1_656
Ca15 Sb13 3.222405 1_555
Ca15 Sb5 3.253325 1_655
Ca15 Sb5 3.253325 1_555
Ca15 Zn3 3.298934 1_554
Ca15 Sb1 3.372750 1_555
Ca15 Sb1 3.372750 1_655
Ca15 Sb17 3.555566 1_554
Ca16 Sb14 3.240322 1_555
Ca16 Zn0 3.245350 1_555
Ca16 Sb6 3.284554 1_655
Ca16 Sb6 3.284554 1_555
Ca16 Sb2 3.349023 1_655
Ca16 Sb2 3.349023 1_555
Ca16 Sb16 3.508394 1_545
Ca17 Zn1 3.236012 1_555
Ca17 Sb15 3.258683 1_555
Ca17 Sb3 3.315377 1_655
Ca17 Sb3 3.315377 1_555
Ca17 Sb7 3.347927 1_555
Ca17 Sb7 3.347927 1_655
Ca17 Sb16 3.460318 1_555
Sb0 Zn8 2.603522 1_554
Sb0 Zn2 2.722062 1_555
Sb0 Zn2 2.722062 1_455
Sb1 Zn3 2.760224 1_454
Sb1 Zn3 2.760224 1_554
Sb2 Zn0 2.759113 1_455
Sb2 Zn0 2.759113 1_555
Sb3 Zn1 2.777451 1_455
Sb3 Zn1 2.777451 1_555
Sb4 Zn4 2.767209 1_555
Sb4 Zn4 2.767209 1_455
Sb5 Zn5 2.749173 1_455
Sb5 Zn5 2.749173 1_555
Sb6 Zn6 2.728011 1_455
Sb6 Zn6 2.728011 1_555
Sb7 Zn7 2.694836 1_555
Sb7 Zn7 2.694836 1_455
Sb8 Zn0 2.715697 1_555
Sb8 Zn4 2.845392 1_555
Sb9 Zn1 2.706858 1_555
Sb9 Zn5 2.854480 1_555
Sb10 Zn2 2.668752 1_555
Sb10 Zn6 2.886766 1_555
Sb11 Zn3 2.724027 1_555
Sb11 Zn7 2.798170 1_555
Sb12 Zn8 2.628009 1_655
Sb12 Zn8 2.628009 1_555
Sb12 Zn7 2.931071 1_545
Sb13 Zn6 2.817141 1_565
Sb14 Zn5 2.790339 1_555
Sb15 Zn4 2.781953 1_555
Sb16 Zn0 2.964717 1_565
Sb16 Zn1 2.972363 1_555
Sb17 Zn2 2.886482 1_556
Sb17 Zn3 2.972573 1_555
