# generated using pymatgen
data_YAsSe
_symmetry_space_group_name_H-M   'P 1'
_cell_length_a   3.89975561
_cell_length_b   3.94396579
_cell_length_c   17.53562074
_cell_angle_alpha   90.00000000
_cell_angle_beta   90.00000000
_cell_angle_gamma   90.00000000
_symmetry_Int_Tables_number   1
_chemical_formula_structural   YAsSe
_chemical_formula_sum   'Y4 As4 Se4'
_cell_volume   269.70666240
_cell_formula_units_Z   4
loop_
 _symmetry_equiv_pos_site_id
 _symmetry_equiv_pos_as_xyz
  1  'x, y, z'
loop_
 _atom_site_type_symbol
 _atom_site_label
 _atom_site_symmetry_multiplicity
 _atom_site_fract_x
 _atom_site_fract_y
 _atom_site_fract_z
 _atom_site_occupancy
  Y  Y0  1  0.75000000  0.23927696  0.86007492  1
  Y  Y1  1  0.75000000  0.26072304  0.36007492  1
  Y  Y2  1  0.25000000  0.76072304  0.13992508  1
  Y  Y3  1  0.25000000  0.73927696  0.63992508  1
  As  As0  1  0.25000000  0.20920245  0.50172915  1
  As  As1  1  0.25000000  0.29079755  0.00172915  1
  As  As2  1  0.75000000  0.79079755  0.49827085  1
  As  As3  1  0.75000000  0.70920245  0.99827085  1
  Se  Se0  1  0.75000000  0.24204038  0.68726569  1
  Se  Se1  1  0.75000000  0.25795962  0.18726569  1
  Se  Se2  1  0.25000000  0.75795962  0.31273431  1
  Se  Se3  1  0.25000000  0.74204038  0.81273431  1
loop_
_geom_bond_atom_site_label_1
_geom_bond_atom_site_label_2
_geom_bond_distance
_geom_bond_site_symmetry_2
As0 As2 2.555147 1_545
As0 As2 2.555147 1_445
As0 As2 3.011176 1_455
As0 As2 3.011176 1_555
As0 Y3 3.050838 1_545
As0 Y1 3.164418 1_455
As0 Y1 3.164418 1_555
As0 Y3 3.200503 1_555
As1 As3 2.555147 1_454
As1 As3 2.555147 1_554
As1 As3 3.011176 1_444
As1 As3 3.011176 1_544
As1 Y2 3.050838 1_555
As1 Y0 3.164418 1_554
As1 Y0 3.164418 1_454
As1 Y2 3.200503 1_545
As2 Y1 3.050838 1_565
As2 Y3 3.164418 1_555
As2 Y3 3.164418 1_655
As2 Y1 3.200503 1_555
As3 Y0 3.050838 1_555
As3 Y2 3.164418 1_556
As3 Y2 3.164418 1_656
As3 Y0 3.200503 1_565
Se0 Y3 2.887390 1_555
Se0 Y3 2.887390 1_655
Se0 Y3 2.902238 1_645
Se0 Y3 2.902238 1_545
Se0 Y0 3.030337 1_555
Se1 Y2 2.887390 1_645
Se1 Y2 2.887390 1_545
Se1 Y2 2.902238 1_655
Se1 Y2 2.902238 1_555
Se1 Y1 3.030337 1_555
Se2 Y1 2.887390 1_555
Se2 Y1 2.887390 1_455
Se2 Y1 2.902238 1_565
Se2 Y1 2.902238 1_465
Se2 Y2 3.030337 1_555
Se3 Y0 2.887390 1_565
Se3 Y0 2.887390 1_465
Se3 Y0 2.902238 1_455
Se3 Y0 2.902238 1_555
Se3 Y3 3.030337 1_555
