# generated using pymatgen
data_Li7V(O2F)2
_symmetry_space_group_name_H-M   'P 1'
_cell_length_a   5.52666300
_cell_length_b   5.86610250
_cell_length_c   9.84367846
_cell_angle_alpha   105.56627397
_cell_angle_beta   89.62211448
_cell_angle_gamma   117.33389978
_symmetry_Int_Tables_number   1
_chemical_formula_structural   Li7V(O2F)2
_chemical_formula_sum   'Li14 V2 O8 F4'
_cell_volume   270.55274609
_cell_formula_units_Z   2
loop_
 _symmetry_equiv_pos_site_id
 _symmetry_equiv_pos_as_xyz
  1  'x, y, z'
loop_
 _atom_site_type_symbol
 _atom_site_label
 _atom_site_symmetry_multiplicity
 _atom_site_fract_x
 _atom_site_fract_y
 _atom_site_fract_z
 _atom_site_occupancy
  Li  Li0  1  0.03225700  0.93695100  0.76438700  1
  Li  Li1  1  0.49606600  0.39099800  0.25053100  1
  Li  Li2  1  0.54383900  0.04585100  0.61684100  1
  Li  Li3  1  0.96456000  0.45323100  0.87351000  1
  Li  Li4  1  0.03163800  0.75391600  0.54693400  1
  Li  Li5  1  0.52917100  0.31048400  0.04880900  1
  Li  Li6  1  0.97877300  0.65816500  0.31899000  1
  Li  Li7  1  0.45582700  0.70589900  0.94918200  1
  Li  Li8  1  0.95746000  0.20706400  0.45143600  1
  Li  Li9  1  0.01485500  0.52666300  0.12298400  1
  Li  Li10  1  0.49457100  0.98915300  0.38325800  1
  Li  Li11  1  0.42925100  0.53055700  0.73506200  1
  Li  Li12  1  0.02815800  0.11021700  0.25291800  1
  Li  Li13  1  0.51177000  0.84004700  0.19008500  1
  V  V0  1  0.02879100  0.98323500  0.00989900  1
  V  V1  1  0.49310100  0.52506000  0.47294700  1
  O  O0  1  0.29601900  0.04778200  0.19510400  1
  O  O1  1  0.15858500  0.77853400  0.95650900  1
  O  O2  1  0.68820900  0.32935100  0.44926400  1
  O  O3  1  0.73408800  0.66025200  0.11630000  1
  O  O4  1  0.24726600  0.34030300  0.89885100  1
  O  O5  1  0.34505800  0.71049400  0.54278400  1
  O  O6  1  0.21945600  0.45826700  0.30533500  1
  O  O7  1  0.78240200  0.87283000  0.38122300  1
  F  F0  1  0.22665900  0.12567300  0.60706400  1
  F  F1  1  0.79053700  0.57951800  0.69237700  1
  F  F2  1  0.81687900  0.20278700  0.06084400  1
  F  F3  1  0.70475600  0.92671900  0.80657100  1
loop_
_geom_bond_atom_site_label_1
_geom_bond_atom_site_label_2
_geom_bond_distance
_geom_bond_site_symmetry_2
Li0 O4 2.126095 1_565
Li1 O0 1.716905 1_555
Li1 O6 1.792379 1_555
Li1 O3 2.271601 1_555
Li1 O7 2.473034 1_555
Li2 O5 1.692485 1_545
Li3 O1 1.659651 1_655
Li3 O4 1.996638 1_655
Li4 O5 1.861618 1_555
Li4 O2 2.264382 1_455
Li4 O7 2.562716 1_455
Li5 O3 1.754461 1_555
Li5 O4 2.248582 1_554
Li6 O7 1.992752 1_555
Li6 O6 2.123194 1_655
Li6 O3 2.423557 1_555
Li7 O4 1.827724 1_555
Li7 O1 1.873538 1_555
Li7 O3 2.406421 1_556
Li8 O7 1.672536 1_545
Li8 O2 1.928294 1_555
Li9 O3 2.042533 1_455
Li10 O2 1.703512 1_565
Li10 O7 1.996389 1_555
Li11 O4 2.184061 1_555
Li12 O6 1.735509 1_555
Li12 O0 1.739101 1_555
Li12 O7 2.136218 1_445
Li12 O3 2.366680 1_445
Li13 O3 1.979072 1_555
Li13 O0 2.051949 1_565
Li13 O7 2.322262 1_555
O1 V0 1.637081 1_556
O2 V1 1.877495 1_555
O3 V0 2.355437 1_655
O4 V0 2.434958 1_546
O5 V1 1.653432 1_555
O7 V1 2.346813 1_555
F0 Li4 1.850637 1_545
F0 Li2 2.020282 1_555
F0 Li11 2.110107 1_555
F0 Li0 2.141047 1_545
F0 Li8 2.421417 1_455
F1 Li0 1.823700 1_655
F1 Li11 1.942402 1_555
F1 Li4 2.093066 1_655
F1 Li3 2.457397 1_555
F2 Li9 1.630022 1_655
F2 Li5 1.976522 1_555
F2 V0 2.076694 1_645
F3 Li0 1.831879 1_655
F3 Li11 2.025125 1_555
F3 Li7 2.203461 1_555
F3 Li2 2.461817 1_565
