# generated using pymatgen
data_K3Th
_symmetry_space_group_name_H-M   'P 1'
_cell_length_a   6.01819500
_cell_length_b   6.01819500
_cell_length_c   6.01819500
_cell_angle_alpha   90.00000000
_cell_angle_beta   90.00000000
_cell_angle_gamma   90.00000000
_symmetry_Int_Tables_number   1
_chemical_formula_structural   K3Th
_chemical_formula_sum   'K3 Th1'
_cell_volume   217.97102507
_cell_formula_units_Z   1
loop_
 _symmetry_equiv_pos_site_id
 _symmetry_equiv_pos_as_xyz
  1  'x, y, z'
loop_
 _atom_site_type_symbol
 _atom_site_label
 _atom_site_symmetry_multiplicity
 _atom_site_fract_x
 _atom_site_fract_y
 _atom_site_fract_z
 _atom_site_occupancy
  K  K0  1  0.00000000  0.50000000  0.50000000  1
  K  K1  1  0.50000000  0.00000000  0.50000000  1
  K  K2  1  0.50000000  0.50000000  0.00000000  1
  Th  Th0  1  0.00000000  0.00000000  0.00000000  1
loop_
_geom_bond_atom_site_label_1
_geom_bond_atom_site_label_2
_geom_bond_distance
_geom_bond_site_symmetry_2
K0 Th0 4.255506 1_565
K0 K2 4.255506 1_455
K0 K2 4.255506 1_456
K0 K1 4.255506 1_465
K0 K1 4.255506 1_565
K0 K2 4.255506 1_555
K0 Th0 4.255506 1_555
K0 K2 4.255506 1_556
K0 K1 4.255506 1_455
K0 Th0 4.255506 1_566
K0 K1 4.255506 1_555
K0 Th0 4.255506 1_556
K1 Th0 4.255506 1_656
K1 K2 4.255506 1_556
K1 K2 4.255506 1_555
K1 Th0 4.255506 1_655
K1 Th0 4.255506 1_555
K1 K2 4.255506 1_545
K1 K2 4.255506 1_546
K1 Th0 4.255506 1_556
K2 Th0 4.255506 1_565
K2 Th0 4.255506 1_665
K2 Th0 4.255506 1_655
K2 Th0 4.255506 1_555
