# generated using pymatgen
data_BaMg14Si
_symmetry_space_group_name_H-M   'P 1'
_cell_length_a   6.64189402
_cell_length_b   6.44490072
_cell_length_c   10.42111406
_cell_angle_alpha   90.00000000
_cell_angle_beta   90.00000000
_cell_angle_gamma   119.02364267
_symmetry_Int_Tables_number   1
_chemical_formula_structural   BaMg14Si
_chemical_formula_sum   'Ba1 Mg14 Si1'
_cell_volume   390.06968198
_cell_formula_units_Z   1
loop_
 _symmetry_equiv_pos_site_id
 _symmetry_equiv_pos_as_xyz
  1  'x, y, z'
loop_
 _atom_site_type_symbol
 _atom_site_label
 _atom_site_symmetry_multiplicity
 _atom_site_fract_x
 _atom_site_fract_y
 _atom_site_fract_z
 _atom_site_occupancy
  Ba  Ba0  1  0.14317936  0.82158918  0.12500000  1
  Mg  Mg0  1  0.15848684  0.32924292  0.62500000  1
  Mg  Mg1  1  0.16745790  0.83372845  0.62500000  1
  Mg  Mg2  1  0.63334394  0.32796863  0.12500000  1
  Mg  Mg3  1  0.66711174  0.32642430  0.62500000  1
  Mg  Mg4  1  0.63334394  0.80537431  0.12500000  1
  Mg  Mg5  1  0.66711174  0.84068644  0.62500000  1
  Mg  Mg6  1  0.33992294  0.17941774  0.38624723  1
  Mg  Mg7  1  0.33992294  0.17941774  0.86375277  1
  Mg  Mg8  1  0.33992294  0.66050620  0.38624723  1
  Mg  Mg9  1  0.33992294  0.66050620  0.86375277  1
  Mg  Mg10  1  0.85116146  0.17558123  0.35291770  1
  Mg  Mg11  1  0.85116146  0.17558123  0.89708230  1
  Mg  Mg12  1  0.82425305  0.66212703  0.39381025  1
  Mg  Mg13  1  0.82425305  0.66212703  0.85618975  1
  Si  Si0  1  0.21944378  0.35972139  0.12500000  1
loop_
_geom_bond_atom_site_label_1
_geom_bond_atom_site_label_2
_geom_bond_distance
_geom_bond_site_symmetry_2
Ba0 Si0 3.252748 1_565
Ba0 Si0 3.252748 1_555
Ba0 Mg2 3.307585 1_565
Ba0 Mg4 3.307586 1_555
Ba0 Mg2 3.336822 1_455
Ba0 Mg4 3.336822 1_455
Ba0 Mg12 3.358298 1_455
Ba0 Mg13 3.358298 1_454
Ba0 Mg9 3.393184 1_554
Ba0 Mg8 3.393184 1_555
Ba0 Mg7 3.393191 1_564
Ba0 Mg6 3.393191 1_565
Mg0 Mg6 3.115161 1_555
Mg0 Mg7 3.115161 1_555
Mg0 Mg8 3.115168 1_555
Mg0 Mg9 3.115168 1_555
Mg0 Mg1 3.222872 1_555
Mg0 Mg1 3.222872 1_545
Mg0 Mg5 3.254886 1_445
Mg0 Mg3 3.254887 1_455
Mg0 Mg11 3.350420 1_455
Mg0 Mg10 3.350420 1_455
Mg0 Mg5 3.387083 1_555
Mg0 Mg3 3.387083 1_555
Mg1 Mg13 3.126918 1_455
Mg1 Mg12 3.126918 1_455
Mg1 Mg8 3.160680 1_555
Mg1 Mg9 3.160680 1_555
Mg1 Mg6 3.160687 1_565
Mg1 Mg7 3.160687 1_565
Mg1 Mg3 3.297124 1_565
Mg1 Mg5 3.297124 1_555
Mg1 Mg3 3.345232 1_455
Mg1 Mg5 3.345233 1_455
Mg2 Si0 2.853983 1_555
Mg2 Mg7 3.211875 1_554
Mg2 Mg6 3.211875 1_555
Mg3 Mg5 3.130532 1_545
Mg3 Mg6 3.132549 1_555
Mg3 Mg7 3.132549 1_555
Mg3 Mg5 3.314368 1_555
Mg4 Si0 2.853983 1_555
Mg4 Mg9 3.211875 1_554
Mg4 Mg8 3.211875 1_555
Mg5 Mg8 3.132548 1_555
Mg5 Mg9 3.132548 1_555
Mg6 Mg8 3.100567 1_555
Mg6 Si0 3.210125 1_555
Mg6 Mg8 3.344333 1_545
Mg7 Mg9 3.100567 1_555
Mg7 Si0 3.210125 1_556
Mg7 Mg9 3.344333 1_545
Mg8 Si0 3.210131 1_555
Mg9 Si0 3.210131 1_556
Mg10 Mg2 3.174531 1_555
Mg10 Mg4 3.174538 1_545
Mg10 Si0 3.196296 1_655
Mg10 Mg8 3.252974 1_655
Mg10 Mg6 3.252974 1_655
Mg10 Mg12 3.254260 1_545
Mg10 Mg12 3.254260 1_555
Mg10 Mg3 3.410592 1_555
Mg10 Mg5 3.410597 1_545
Mg10 Mg8 3.425312 1_545
Mg10 Mg6 3.425312 1_555
Mg11 Mg2 3.174531 1_556
Mg11 Mg4 3.174538 1_546
Mg11 Si0 3.196296 1_656
Mg11 Mg9 3.252974 1_655
Mg11 Mg7 3.252974 1_655
Mg11 Mg13 3.254260 1_545
Mg11 Mg13 3.254260 1_555
Mg11 Mg3 3.410592 1_555
Mg11 Mg5 3.410597 1_545
Mg11 Mg9 3.425312 1_545
Mg11 Mg7 3.425312 1_555
Mg12 Mg5 3.063277 1_555
Mg12 Mg3 3.063284 1_555
Mg12 Mg6 3.212781 1_555
Mg12 Mg8 3.212781 1_555
Mg12 Mg4 3.382803 1_555
Mg12 Mg2 3.382808 1_555
Mg12 Mg6 3.431010 1_665
Mg12 Mg8 3.431010 1_655
Mg13 Mg5 3.063277 1_555
Mg13 Mg3 3.063284 1_555
Mg13 Mg7 3.212781 1_555
Mg13 Mg9 3.212781 1_555
Mg13 Mg4 3.382803 1_556
Mg13 Mg2 3.382808 1_556
Mg13 Mg7 3.431010 1_665
Mg13 Mg9 3.431010 1_655
