# generated using pymatgen
data_LiMg14Ti
_symmetry_space_group_name_H-M   'P 1'
_cell_length_a   6.35261546
_cell_length_b   6.36492803
_cell_length_c   10.13641160
_cell_angle_alpha   90.00000000
_cell_angle_beta   90.00000000
_cell_angle_gamma   120.06414084
_symmetry_Int_Tables_number   1
_chemical_formula_structural   LiMg14Ti
_chemical_formula_sum   'Li1 Mg14 Ti1'
_cell_volume   354.71526194
_cell_formula_units_Z   1
loop_
 _symmetry_equiv_pos_site_id
 _symmetry_equiv_pos_as_xyz
  1  'x, y, z'
loop_
 _atom_site_type_symbol
 _atom_site_label
 _atom_site_symmetry_multiplicity
 _atom_site_fract_x
 _atom_site_fract_y
 _atom_site_fract_z
 _atom_site_occupancy
  Li  Li0  1  0.17030666  0.83515283  0.12500000  1
  Mg  Mg0  1  0.16701307  0.33350604  0.62500000  1
  Mg  Mg1  1  0.16778017  0.83388958  0.62500000  1
  Mg  Mg2  1  0.66343902  0.32773259  0.12500000  1
  Mg  Mg3  1  0.66654723  0.33281079  0.62500000  1
  Mg  Mg4  1  0.66343902  0.83570542  0.12500000  1
  Mg  Mg5  1  0.66654723  0.83373543  0.62500000  1
  Mg  Mg6  1  0.32884889  0.16796297  0.36967508  1
  Mg  Mg7  1  0.32884889  0.16796297  0.88032492  1
  Mg  Mg8  1  0.32884889  0.66088692  0.36967508  1
  Mg  Mg9  1  0.32884889  0.66088692  0.88032492  1
  Mg  Mg10  1  0.84081094  0.17040597  0.37152925  1
  Mg  Mg11  1  0.84081094  0.17040597  0.87847075  1
  Mg  Mg12  1  0.83550597  0.66775349  0.37175208  1
  Mg  Mg13  1  0.83550597  0.66775349  0.87824792  1
  Ti  Ti0  1  0.16689821  0.33344861  0.12500000  1
loop_
_geom_bond_atom_site_label_1
_geom_bond_atom_site_label_2
_geom_bond_distance
_geom_bond_site_symmetry_2
Li0 Mg9 3.084639 1_554
Li0 Mg8 3.084639 1_555
Li0 Mg6 3.084645 1_565
Li0 Mg7 3.084645 1_564
Li0 Mg12 3.105506 1_455
Li0 Mg13 3.105506 1_454
Li0 Mg2 3.130919 1_565
Li0 Mg4 3.130920 1_555
Li0 Ti0 3.182519 1_555
Li0 Ti0 3.182519 1_565
Li0 Mg2 3.221698 1_455
Li0 Mg4 3.221699 1_455
Mg0 Mg11 3.133317 1_455
Mg0 Mg10 3.133317 1_455
Mg0 Mg7 3.154469 1_555
Mg0 Mg6 3.154469 1_555
Mg0 Mg9 3.154476 1_555
Mg0 Mg8 3.154476 1_555
Mg0 Mg5 3.175567 1_555
Mg0 Mg3 3.175568 1_555
Mg0 Mg5 3.177052 1_445
Mg0 Mg3 3.177052 1_455
Mg0 Mg1 3.182467 1_555
Mg0 Mg1 3.182467 1_545
Mg1 Mg13 3.150704 1_455
Mg1 Mg12 3.150704 1_455
Mg1 Mg3 3.168967 1_565
Mg1 Mg5 3.168967 1_555
Mg1 Mg8 3.175929 1_555
Mg1 Mg9 3.175929 1_555
Mg1 Mg6 3.175935 1_565
Mg1 Mg7 3.175935 1_565
Mg1 Mg3 3.183648 1_455
Mg1 Mg5 3.183649 1_455
Mg2 Mg7 3.088256 1_554
Mg2 Mg6 3.088256 1_555
Mg2 Mg4 3.131718 1_545
Mg2 Ti0 3.172715 1_555
Mg2 Ti0 3.180212 1_655
Mg2 Mg4 3.233211 1_555
Mg3 Mg5 3.176579 1_545
Mg3 Mg7 3.185273 1_555
Mg3 Mg6 3.185273 1_555
Mg3 Mg5 3.188349 1_555
Mg4 Mg8 3.088256 1_555
Mg4 Mg9 3.088256 1_554
Mg4 Ti0 3.172715 1_555
Mg4 Ti0 3.180212 1_665
Mg5 Mg9 3.185273 1_555
Mg5 Mg8 3.185273 1_555
Mg6 Ti0 3.066706 1_555
Mg6 Mg8 3.137425 1_555
Mg6 Mg8 3.227503 1_545
Mg7 Ti0 3.066706 1_556
Mg7 Mg9 3.137425 1_555
Mg7 Mg9 3.227503 1_545
Mg8 Ti0 3.066712 1_555
Mg9 Ti0 3.066712 1_556
Mg10 Ti0 3.075517 1_655
Mg10 Mg2 3.106041 1_555
Mg10 Mg4 3.106047 1_545
Mg10 Mg8 3.108193 1_655
Mg10 Mg6 3.108193 1_655
Mg10 Mg3 3.168882 1_555
Mg10 Mg5 3.168888 1_545
Mg10 Mg12 3.182598 1_545
Mg10 Mg12 3.182599 1_555
Mg10 Mg8 3.244590 1_545
Mg10 Mg6 3.244591 1_555
Mg11 Ti0 3.075517 1_656
Mg11 Mg2 3.106041 1_556
Mg11 Mg4 3.106047 1_546
Mg11 Mg9 3.108193 1_655
Mg11 Mg7 3.108193 1_655
Mg11 Mg3 3.168882 1_555
Mg11 Mg5 3.168888 1_545
Mg11 Mg13 3.182598 1_545
Mg11 Mg13 3.182599 1_555
Mg11 Mg9 3.244590 1_545
Mg11 Mg7 3.244591 1_555
Mg12 Mg4 3.124780 1_555
Mg12 Mg2 3.124786 1_555
Mg12 Mg6 3.156209 1_665
Mg12 Mg8 3.156210 1_655
Mg12 Mg5 3.161313 1_555
Mg12 Mg3 3.161320 1_555
Mg12 Mg6 3.196996 1_555
Mg12 Mg8 3.196996 1_555
Mg13 Mg4 3.124780 1_556
Mg13 Mg2 3.124786 1_556
Mg13 Mg7 3.156209 1_665
Mg13 Mg9 3.156210 1_655
Mg13 Mg5 3.161313 1_555
Mg13 Mg3 3.161320 1_555
Mg13 Mg7 3.196996 1_555
Mg13 Mg9 3.196996 1_555
