# generated using pymatgen
data_LaH2S2NO9
_symmetry_space_group_name_H-M   'P 1'
_cell_length_a   10.12742700
_cell_length_b   8.46925100
_cell_length_c   12.06920674
_cell_angle_alpha   52.44217132
_cell_angle_beta   90.00000000
_cell_angle_gamma   90.00000000
_symmetry_Int_Tables_number   1
_chemical_formula_structural   LaH2S2NO9
_chemical_formula_sum   'La4 H8 S8 N4 O36'
_cell_volume   820.64024167
_cell_formula_units_Z   4
loop_
 _symmetry_equiv_pos_site_id
 _symmetry_equiv_pos_as_xyz
  1  'x, y, z'
loop_
 _atom_site_type_symbol
 _atom_site_label
 _atom_site_symmetry_multiplicity
 _atom_site_fract_x
 _atom_site_fract_y
 _atom_site_fract_z
 _atom_site_occupancy
  La  La0  1  0.33633300  0.28463800  0.75015600  1
  La  La1  1  0.83633300  0.71536200  0.74984400  1
  La  La2  1  0.66366700  0.71536200  0.24984400  1
  La  La3  1  0.16366700  0.28463800  0.25015600  1
  H  H0  1  0.10545400  0.01446800  0.77454700  1
  H  H1  1  0.60545400  0.98553200  0.72545300  1
  H  H2  1  0.89454600  0.98553200  0.22545300  1
  H  H3  1  0.39454600  0.01446800  0.27454700  1
  H  H4  1  0.12311900  0.19042200  0.61207700  1
  H  H5  1  0.62311900  0.80957800  0.88792300  1
  H  H6  1  0.87688100  0.80957800  0.38792300  1
  H  H7  1  0.37688100  0.19042200  0.11207700  1
  S  S0  1  0.58884300  0.25510900  0.92854400  1
  S  S1  1  0.08884300  0.74489100  0.57145600  1
  S  S2  1  0.41115700  0.74489100  0.07145600  1
  S  S3  1  0.91115700  0.25510900  0.42854400  1
  S  S4  1  0.41462100  0.29622000  0.48385300  1
  S  S5  1  0.91462100  0.70378000  0.01614700  1
  S  S6  1  0.58537900  0.70378000  0.51614700  1
  S  S7  1  0.08537900  0.29622000  0.98385300  1
  N  N0  1  0.14456400  0.74381300  0.27018800  1
  N  N1  1  0.64456400  0.25618700  0.22981200  1
  N  N2  1  0.85543600  0.25618700  0.72981200  1
  N  N3  1  0.35543600  0.74381300  0.77018800  1
  O  O0  1  0.52883800  0.39917800  0.38812900  1
  O  O1  1  0.02883800  0.60082200  0.11187100  1
  O  O2  1  0.47116200  0.60082200  0.61187100  1
  O  O3  1  0.97116200  0.39917800  0.88812900  1
  O  O4  1  0.33402700  0.20373400  0.43481600  1
  O  O5  1  0.83402700  0.79626600  0.06518400  1
  O  O6  1  0.66597300  0.79626600  0.56518400  1
  O  O7  1  0.16597300  0.20373400  0.93481600  1
  O  O8  1  0.46090900  0.14550900  0.63012400  1
  O  O9  1  0.96090900  0.85449100  0.86987600  1
  O  O10  1  0.53909100  0.85449100  0.36987600  1
  O  O11  1  0.03909100  0.14550900  0.13012400  1
  O  O12  1  0.63844100  0.08705800  0.06848100  1
  O  O13  1  0.13844100  0.91294200  0.43151900  1
  O  O14  1  0.36155900  0.91294200  0.93151900  1
  O  O15  1  0.86155900  0.08705800  0.56848100  1
  O  O16  1  0.33186700  0.44156100  0.48527600  1
  O  O17  1  0.83186700  0.55843900  0.01472400  1
  O  O18  1  0.66813300  0.55843900  0.51472400  1
  O  O19  1  0.16813300  0.44156100  0.98527600  1
  O  O20  1  0.67785100  0.42720600  0.86849300  1
  O  O21  1  0.17785100  0.57279400  0.63150700  1
  O  O22  1  0.32214900  0.57279400  0.13150700  1
  O  O23  1  0.82214900  0.42720600  0.36849300  1
  O  O24  1  0.44993100  0.30614700  0.93871100  1
  O  O25  1  0.94993100  0.69385300  0.56128900  1
  O  O26  1  0.55006900  0.69385300  0.06128900  1
  O  O27  1  0.05006900  0.30614700  0.43871100  1
  O  O28  1  0.58353200  0.19651900  0.83420800  1
  O  O29  1  0.08353200  0.80348100  0.66579200  1
  O  O30  1  0.41646800  0.80348100  0.16579200  1
  O  O31  1  0.91646800  0.19651900  0.33420800  1
  O  O32  1  0.15889700  0.13317400  0.70536800  1
  O  O33  1  0.65889700  0.86682600  0.79463200  1
  O  O34  1  0.84110300  0.86682600  0.29463200  1
  O  O35  1  0.34110300  0.13317400  0.20536800  1
loop_
_geom_bond_atom_site_label_1
_geom_bond_atom_site_label_2
_geom_bond_distance
_geom_bond_site_symmetry_2
La0 O32 2.451980 1_555
La0 O21 2.514367 1_555
La0 O14 2.523063 1_545
La0 O2 2.524333 1_555
La0 O7 2.559603 1_555
La0 O16 2.609353 1_555
La0 O28 2.632593 1_555
La0 O24 2.653484 1_555
La0 O8 2.675804 1_555
La1 O33 2.451980 1_555
La1 O20 2.514367 1_555
La1 O15 2.523063 1_565
La1 O3 2.524333 1_555
La1 O6 2.559603 1_555
La1 O17 2.609353 1_556
La1 O29 2.632593 1_655
La1 O25 2.653484 1_555
La1 O9 2.675804 1_555
La2 O34 2.451980 1_555
La2 O23 2.514367 1_555
La2 O12 2.523063 1_565
La2 O0 2.524333 1_555
La2 O5 2.559603 1_555
La2 O18 2.609353 1_555
La2 O30 2.632593 1_555
La2 O26 2.653484 1_555
La2 O10 2.675804 1_555
La3 O35 2.451980 1_555
La3 O22 2.514367 1_555
La3 O13 2.523063 1_545
La3 O1 2.524333 1_555
La3 O4 2.559603 1_555
La3 O19 2.609353 1_554
La3 O31 2.632593 1_455
La3 O27 2.653484 1_555
La3 O11 2.675804 1_555
H0 O32 0.988662 1_555
H1 O33 0.988662 1_555
H2 O34 0.988662 1_555
H3 O35 0.988662 1_555
H4 O32 0.984170 1_555
H5 O33 0.984170 1_555
H6 O34 0.984170 1_555
H7 O35 0.984170 1_555
O0 S4 1.484907 1_555
O1 S5 1.484907 1_455
O2 S6 1.484907 1_555
O3 S7 1.484907 1_655
O4 S4 1.481610 1_555
O5 S5 1.481610 1_555
O6 S6 1.481610 1_555
O7 S7 1.481610 1_555
O8 S4 1.489437 1_555
O9 S5 1.489437 1_556
O10 S6 1.489437 1_555
O11 S7 1.489437 1_554
O12 S0 1.483222 1_554
O13 S1 1.483222 1_555
O14 S2 1.483222 1_556
O15 S3 1.483222 1_555
O16 S4 1.497879 1_555
O17 S5 1.497879 1_555
O18 S6 1.497879 1_555
O19 S7 1.497879 1_555
O20 S0 1.474586 1_555
O21 S1 1.474586 1_555
O22 S2 1.474586 1_555
O23 S3 1.474586 1_555
O24 S0 1.498569 1_555
O25 S1 1.498569 1_655
O26 S2 1.498569 1_555
O27 S3 1.498569 1_455
O28 S0 1.494727 1_555
O29 S1 1.494727 1_555
O30 S2 1.494727 1_555
O31 S3 1.494727 1_555
