# generated using pymatgen
data_Li9Mn2Co5O16
_symmetry_space_group_name_H-M   'P 1'
_cell_length_a   2.95138500
_cell_length_b   5.08845086
_cell_length_c   19.91307256
_cell_angle_alpha   92.27296038
_cell_angle_beta   92.61878095
_cell_angle_gamma   104.26165333
_symmetry_Int_Tables_number   1
_chemical_formula_structural   Li9Mn2Co5O16
_chemical_formula_sum   'Li9 Mn2 Co5 O16'
_cell_volume   289.13412044
_cell_formula_units_Z   1
loop_
 _symmetry_equiv_pos_site_id
 _symmetry_equiv_pos_as_xyz
  1  'x, y, z'
loop_
 _atom_site_type_symbol
 _atom_site_label
 _atom_site_symmetry_multiplicity
 _atom_site_fract_x
 _atom_site_fract_y
 _atom_site_fract_z
 _atom_site_occupancy
  Li  Li0  1  0.32399700  0.57242500  0.06190300  1
  Li  Li1  1  0.93657600  0.68475300  0.18776900  1
  Li  Li2  1  0.56197100  0.81606900  0.31218900  1
  Li  Li3  1  0.18987800  0.93418900  0.43960200  1
  Li  Li4  1  0.81284000  0.06495600  0.56251800  1
  Li  Li5  1  0.44175800  0.18315900  0.68987000  1
  Li  Li6  1  0.06817800  0.30264200  0.81428300  1
  Li  Li7  1  0.65596700  0.42868700  0.93143600  1
  Li  Li8  1  0.39047600  0.89035900  0.87411900  1
  Mn  Mn0  1  0.99909600  0.00595200  0.99424200  1
  Mn  Mn1  1  0.86641800  0.37341300  0.37688300  1
  Co  Co0  1  0.61797100  0.12232000  0.12394600  1
  Co  Co1  1  0.24453300  0.24403800  0.25003100  1
  Co  Co2  1  0.51091600  0.50320200  0.50125800  1
  Co  Co3  1  0.13449100  0.62563900  0.62664000  1
  Co  Co4  1  0.75337100  0.74756700  0.75588800  1
  O  O0  1  0.61727300  0.25103700  0.02803500  1
  O  O1  1  0.27759000  0.38520300  0.15608900  1
  O  O2  1  0.89343400  0.50785200  0.28375600  1
  O  O3  1  0.54867200  0.64112900  0.41079700  1
  O  O4  1  0.18995800  0.76286300  0.53360900  1
  O  O5  1  0.77530300  0.87999900  0.66130100  1
  O  O6  1  0.42286700  0.00318700  0.77770500  1
  O  O7  1  0.03431700  0.15577700  0.91211600  1
  O  O8  1  0.96276000  0.86652900  0.09068400  1
  O  O9  1  0.59899600  0.98692600  0.21903700  1
  O  O10  1  0.18571900  0.10612900  0.34369400  1
  O  O11  1  0.82549400  0.23850600  0.46801100  1
  O  O12  1  0.48555100  0.36637200  0.59034000  1
  O  O13  1  0.07338900  0.49009300  0.71697800  1
  O  O14  1  0.71475300  0.59901900  0.83325300  1
  O  O15  1  0.38548700  0.76001200  0.97202400  1
loop_
_geom_bond_atom_site_label_1
_geom_bond_atom_site_label_2
_geom_bond_distance
_geom_bond_site_symmetry_2
Li0 O15 2.056007 1_554
Li0 O8 2.116288 1_455
Li0 O0 2.131142 1_555
Li0 O1 2.131871 1_555
Li0 O8 2.136670 1_555
Li0 O0 2.362883 1_455
Li1 O1 2.114677 1_655
Li1 O9 2.116621 1_555
Li1 O2 2.140599 1_555
Li1 O8 2.172393 1_555
Li1 O1 2.203404 1_555
Li1 O9 2.214914 1_655
Li2 O9 2.075630 1_555
Li2 O10 2.107915 1_665
Li2 O2 2.115047 1_555
Li2 O10 2.145439 1_565
Li2 O3 2.185887 1_555
Li2 O2 2.230751 1_455
Li3 O4 2.096135 1_555
Li3 O3 2.107082 1_555
Li3 O10 2.132774 1_565
Li3 O3 2.139307 1_455
Li3 O11 2.153916 1_565
Li3 O11 2.163577 1_465
Li4 O12 2.074566 1_555
Li4 O11 2.108293 1_555
Li4 O4 2.124780 1_545
Li4 O4 2.182768 1_645
Li4 O5 2.209704 1_545
Li4 O12 2.221030 1_655
Li5 O6 2.002946 1_555
Li5 O5 2.098132 1_545
Li5 O13 2.147677 1_655
Li5 O13 2.176243 1_555
Li5 O5 2.214814 1_445
Li5 O12 2.219134 1_555
Li6 O14 2.066636 1_455
Li6 O7 2.111931 1_555
Li6 O14 2.128294 1_555
Li6 O6 2.171585 1_555
Li6 O13 2.192393 1_555
Li6 O6 2.198880 1_455
Li7 O7 2.020020 1_555
Li7 O7 2.020964 1_655
Li7 O0 2.153486 1_556
Li7 O14 2.166830 1_555
Li7 O15 2.178727 1_555
Li7 O15 2.464919 1_655
Li8 O6 2.025321 1_565
Li8 O7 2.047575 1_565
Li8 O15 2.083606 1_555
Li8 O14 2.109607 1_555
Li8 O7 2.128492 1_665
Li8 O14 2.266400 1_455
Mn0 O7 1.828081 1_655
Mn0 O15 1.941058 1_645
Mn0 O15 1.951360 1_545
Mn0 O0 1.993280 1_556
Mn0 O0 2.009230 1_656
Mn0 O8 2.071805 1_546
Mn1 O10 1.947238 1_655
Mn1 O3 1.950797 1_555
Mn1 O11 1.963855 1_555
Mn1 O2 2.000140 1_555
Mn1 O10 2.187186 1_555
Mn1 O3 2.194915 1_655
Co0 O8 1.952978 1_545
Co0 O1 1.964992 1_555
Co0 O9 2.038992 1_545
Co0 O0 2.043568 1_555
Co0 O8 2.108739 1_445
Co0 O1 2.127011 1_655
Co1 O9 1.963752 1_545
Co1 O2 2.001068 1_455
Co1 O10 2.018570 1_555
Co1 O1 2.028212 1_555
Co1 O9 2.079147 1_445
Co1 O2 2.113090 1_555
Co2 O4 1.913897 1_555
Co2 O11 1.927692 1_555
Co2 O12 1.929119 1_555
Co2 O3 1.957030 1_555
Co2 O4 2.164967 1_655
Co2 O11 2.192980 1_455
Co3 O13 1.952198 1_555
Co3 O5 1.986817 1_455
Co3 O12 2.000694 1_555
Co3 O4 2.005053 1_555
Co3 O5 2.081424 1_555
Co3 O12 2.117581 1_455
Co4 O14 1.738873 1_555
Co4 O6 1.857715 1_565
Co4 O13 1.950622 1_655
Co4 O5 2.023923 1_555
Co4 O6 2.096511 1_665
Co4 O13 2.196894 1_555
