# generated using pymatgen
data_KMgV5O22
_symmetry_space_group_name_H-M   'P 1'
_cell_length_a   10.56259100
_cell_length_b   10.68804912
_cell_length_c   10.89293765
_cell_angle_alpha   72.85752465
_cell_angle_beta   64.58785116
_cell_angle_gamma   66.48412621
_symmetry_Int_Tables_number   1
_chemical_formula_structural   KMgV5O22
_chemical_formula_sum   'K2 Mg2 V10 O44'
_cell_volume   1007.11678515
_cell_formula_units_Z   2
loop_
 _symmetry_equiv_pos_site_id
 _symmetry_equiv_pos_as_xyz
  1  'x, y, z'
loop_
 _atom_site_type_symbol
 _atom_site_label
 _atom_site_symmetry_multiplicity
 _atom_site_fract_x
 _atom_site_fract_y
 _atom_site_fract_z
 _atom_site_occupancy
  K  K0  1  0.20613800  0.71941400  0.07698100  1
  K  K1  1  0.79386200  0.28058600  0.92301900  1
  Mg  Mg0  1  0.96505900  0.69843200  0.69055600  1
  Mg  Mg1  1  0.03494100  0.30156800  0.30944400  1
  V  V0  1  0.54127800  0.60163000  0.22114300  1
  V  V1  1  0.45872200  0.39837000  0.77885700  1
  V  V2  1  0.24261100  0.65382300  0.45863200  1
  V  V3  1  0.75738900  0.34617700  0.54136800  1
  V  V4  1  0.81821300  0.58670400  0.27192700  1
  V  V5  1  0.18178700  0.41329600  0.72807300  1
  V  V6  1  0.52075800  0.64247300  0.51138300  1
  V  V7  1  0.47924200  0.35752700  0.48861700  1
  V  V8  1  0.22174000  0.69035100  0.75223200  1
  V  V9  1  0.77826000  0.30964900  0.24776800  1
  O  O0  1  0.60254000  0.50207300  0.64053600  1
  O  O1  1  0.39746000  0.49792700  0.35946400  1
  O  O2  1  0.87531100  0.45928700  0.42412900  1
  O  O3  1  0.12468900  0.54071300  0.57587100  1
  O  O4  1  0.37124900  0.52232700  0.59954300  1
  O  O5  1  0.62875100  0.47767300  0.40045700  1
  O  O6  1  0.09714300  0.57862900  0.80817100  1
  O  O7  1  0.90285700  0.42137100  0.19182900  1
  O  O8  1  0.33813000  0.56175000  0.84851800  1
  O  O9  1  0.66187000  0.43825000  0.15148200  1
  O  O10  1  0.45686000  0.68985300  0.11188400  1
  O  O11  1  0.54314000  0.31014700  0.88811600  1
  O  O12  1  0.15797600  0.73525900  0.34867700  1
  O  O13  1  0.84202400  0.26474100  0.65132300  1
  O  O14  1  0.69246400  0.66891700  0.17435700  1
  O  O15  1  0.30753600  0.33108300  0.82564300  1
  O  O16  1  0.42114500  0.71244000  0.37928100  1
  O  O17  1  0.57885500  0.28756000  0.62071900  1
  O  O18  1  0.14707400  0.76546800  0.59716600  1
  O  O19  1  0.85292600  0.23453200  0.40283400  1
  O  O20  1  0.95004700  0.65661600  0.19858900  1
  O  O21  1  0.04995300  0.34338400  0.80141100  1
  O  O22  1  0.66919200  0.70256800  0.41495000  1
  O  O23  1  0.33080800  0.29743200  0.58505000  1
  O  O24  1  0.39038400  0.75280500  0.62867300  1
  O  O25  1  0.60961600  0.24719500  0.37132700  1
  O  O26  1  0.12554800  0.80899100  0.85224200  1
  O  O27  1  0.87445200  0.19100900  0.14775800  1
  O  O28  1  0.81923000  0.62314400  0.65305000  1
  O  O29  1  0.18077000  0.37685600  0.34695000  1
  O  O30  1  0.74856400  0.59232300  0.78507100  1
  O  O31  1  0.25143600  0.40767700  0.21492900  1
  O  O32  1  0.78767700  0.63184300  0.86477400  1
  O  O33  1  0.21232300  0.36815700  0.13522600  1
  O  O34  1  0.76393300  0.88281800  0.66522200  1
  O  O35  1  0.23606700  0.11718200  0.33477800  1
  O  O36  1  0.90980600  0.98624800  0.75318100  1
  O  O37  1  0.09019400  0.01375200  0.24681900  1
  O  O38  1  0.64370000  0.92053500  0.77702200  1
  O  O39  1  0.35630000  0.07946500  0.22297800  1
  O  O40  1  0.52768200  0.00253000  0.75533800  1
  O  O41  1  0.47231800  0.99747000  0.24466200  1
  O  O42  1  0.82655100  0.00608300  0.87093000  1
  O  O43  1  0.17344900  0.99391700  0.12907000  1
loop_
_geom_bond_atom_site_label_1
_geom_bond_atom_site_label_2
_geom_bond_distance
_geom_bond_site_symmetry_2
K0 O20 2.715066 1_455
K0 O10 2.717232 1_555
K0 O26 2.718595 1_554
K0 O12 2.825076 1_555
K0 O8 2.931929 1_554
K0 O43 3.008944 1_555
K0 O31 3.159382 1_555
K1 O21 2.715066 1_655
K1 O11 2.717232 1_555
K1 O27 2.718595 1_556
K1 O13 2.825076 1_555
K1 O9 2.931929 1_556
K1 O42 3.008944 1_555
K1 O30 3.159382 1_555
Mg0 O18 2.058016 1_655
Mg0 O6 2.090177 1_655
Mg0 O3 2.100156 1_655
Mg0 O32 2.198787 1_555
Mg0 O28 2.215866 1_555
Mg0 O34 2.305351 1_555
Mg1 O19 2.058016 1_455
Mg1 O7 2.090177 1_455
Mg1 O2 2.100156 1_455
Mg1 O33 2.198787 1_555
Mg1 O29 2.215866 1_555
Mg1 O35 2.305351 1_555
O0 V6 1.934254 1_555
O0 V3 1.997064 1_555
O0 V1 2.049659 1_555
O1 V7 1.934254 1_555
O1 V2 1.997064 1_555
O1 V0 2.049659 1_555
O2 V3 1.889486 1_555
O2 V4 1.959290 1_555
O3 V2 1.889486 1_555
O3 V5 1.959290 1_555
O4 V7 2.081351 1_555
O4 V6 2.157503 1_555
O4 V2 2.274170 1_555
O4 V1 2.338950 1_555
O4 V8 2.393459 1_555
O4 V5 2.411961 1_555
O5 V6 2.081351 1_555
O5 V7 2.157503 1_555
O5 V3 2.274170 1_555
O5 V0 2.338950 1_555
O5 V9 2.393459 1_555
O5 V4 2.411961 1_555
O6 V5 1.913590 1_555
O6 V8 1.914697 1_555
O7 V4 1.913590 1_555
O7 V9 1.914697 1_555
O8 V8 1.846357 1_555
O8 V1 1.850440 1_555
O9 V9 1.846357 1_555
O9 V0 1.850440 1_555
O10 V0 1.636752 1_555
O11 V1 1.636752 1_555
O12 V2 1.635482 1_555
O13 V3 1.635482 1_555
O14 V0 1.824553 1_555
O14 V4 1.842714 1_555
O15 V1 1.824553 1_555
O15 V5 1.842714 1_555
O16 V6 1.942716 1_555
O16 V2 1.980005 1_555
O16 V0 2.026702 1_555
O17 V7 1.942716 1_555
O17 V3 1.980005 1_555
O17 V1 2.026702 1_555
O18 V2 1.874313 1_555
O18 V8 1.989553 1_555
O19 V3 1.874313 1_555
O19 V9 1.989553 1_555
O20 V4 1.630740 1_555
O21 V5 1.630740 1_555
O22 V6 1.722357 1_555
O22 V4 1.978757 1_555
O23 V7 1.722357 1_555
O23 V5 1.978757 1_555
O24 V6 1.732498 1_555
O24 V8 1.947241 1_555
O25 V7 1.732498 1_555
O25 V9 1.947241 1_555
O26 V8 1.631949 1_555
O27 V9 1.631949 1_555
O28 O30 1.315089 1_555
O29 O31 1.315089 1_555
O30 O32 1.328963 1_555
O31 O33 1.328963 1_555
O34 O38 1.346078 1_555
O35 O39 1.346078 1_555
O36 O42 1.227552 1_565
O37 O43 1.227552 1_545
O38 O40 1.262903 1_565
O39 O41 1.262903 1_545
