# generated using pymatgen
data_Li3Np
_symmetry_space_group_name_H-M   'P 1'
_cell_length_a   6.49332886
_cell_length_b   6.49332886
_cell_length_c   4.96521700
_cell_angle_alpha   90.00000000
_cell_angle_beta   90.00000000
_cell_angle_gamma   120.00000880
_symmetry_Int_Tables_number   1
_chemical_formula_structural   Li3Np
_chemical_formula_sum   'Li6 Np2'
_cell_volume   181.30242983
_cell_formula_units_Z   2
loop_
 _symmetry_equiv_pos_site_id
 _symmetry_equiv_pos_as_xyz
  1  'x, y, z'
loop_
 _atom_site_type_symbol
 _atom_site_label
 _atom_site_symmetry_multiplicity
 _atom_site_fract_x
 _atom_site_fract_y
 _atom_site_fract_z
 _atom_site_occupancy
  Li  Li0  1  0.14763200  0.29526400  0.25000000  1
  Li  Li1  1  0.70473600  0.85236800  0.25000000  1
  Li  Li2  1  0.14763200  0.85236800  0.25000000  1
  Li  Li3  1  0.85236800  0.70473600  0.75000000  1
  Li  Li4  1  0.29526400  0.14763200  0.75000000  1
  Li  Li5  1  0.85236800  0.14763200  0.75000000  1
  Np  Np0  1  0.33333300  0.66666700  0.75000000  1
  Np  Np1  1  0.66666700  0.33333300  0.25000000  1
loop_
_geom_bond_atom_site_label_1
_geom_bond_atom_site_label_2
_geom_bond_distance
_geom_bond_site_symmetry_2
Li0 Li1 2.875869 1_445
Li0 Li2 2.875869 1_545
Li0 Li5 2.986674 1_455
Li0 Li5 2.986674 1_454
Li0 Li4 2.986674 1_554
Li0 Li4 2.986674 1_555
Li0 Np0 3.244281 1_555
Li0 Np0 3.244281 1_554
Li0 Np1 3.253711 1_455
Li0 Np1 3.253718 1_555
Li1 Li2 2.875869 1_655
Li1 Li5 2.986674 1_565
Li1 Li5 2.986674 1_564
Li1 Li3 2.986674 1_554
Li1 Li3 2.986674 1_555
Li1 Np0 3.244281 1_555
Li1 Np0 3.244281 1_554
Li1 Np1 3.253711 1_565
Li1 Np1 3.253718 1_555
Li2 Li3 2.986674 1_454
Li2 Li4 2.986674 1_564
Li2 Li3 2.986674 1_455
Li2 Li4 2.986674 1_565
Li2 Np0 3.244277 1_555
Li2 Np0 3.244277 1_554
Li2 Np1 3.253715 1_455
Li2 Np1 3.253715 1_565
Li3 Li4 2.875869 1_665
Li3 Li5 2.875869 1_565
Li3 Np1 3.244281 1_555
Li3 Np1 3.244281 1_556
Li3 Np0 3.253711 1_655
Li3 Np0 3.253718 1_555
Li4 Li5 2.875869 1_455
Li4 Np1 3.244281 1_555
Li4 Np1 3.244281 1_556
Li4 Np0 3.253711 1_545
Li4 Np0 3.253718 1_555
Li5 Np1 3.244277 1_556
Li5 Np1 3.244277 1_555
Li5 Np0 3.253715 1_545
Li5 Np0 3.253715 1_655
