# generated using pymatgen
data_ZrCuSi2
_symmetry_space_group_name_H-M   'P 1'
_cell_length_a   3.70188900
_cell_length_b   3.70188900
_cell_length_c   9.14466100
_cell_angle_alpha   90.00000000
_cell_angle_beta   90.00000000
_cell_angle_gamma   90.00000000
_symmetry_Int_Tables_number   1
_chemical_formula_structural   ZrCuSi2
_chemical_formula_sum   'Zr2 Cu2 Si4'
_cell_volume   125.31827128
_cell_formula_units_Z   2
loop_
 _symmetry_equiv_pos_site_id
 _symmetry_equiv_pos_as_xyz
  1  'x, y, z'
loop_
 _atom_site_type_symbol
 _atom_site_label
 _atom_site_symmetry_multiplicity
 _atom_site_fract_x
 _atom_site_fract_y
 _atom_site_fract_z
 _atom_site_occupancy
  Zr  Zr0  1  0.50000000  0.00000000  0.26591800  1
  Zr  Zr1  1  0.00000000  0.50000000  0.73408200  1
  Cu  Cu0  1  0.00000000  0.00000000  0.00000000  1
  Cu  Cu1  1  0.50000000  0.50000000  0.00000000  1
  Si  Si0  1  0.00000000  0.50000000  0.17036300  1
  Si  Si1  1  0.50000000  0.00000000  0.82963700  1
  Si  Si2  1  0.50000000  0.50000000  0.50000000  1
  Si  Si3  1  0.00000000  0.00000000  0.50000000  1
loop_
_geom_bond_atom_site_label_1
_geom_bond_atom_site_label_2
_geom_bond_distance
_geom_bond_site_symmetry_2
Cu0 Si1 2.419315 1_454
Cu0 Si1 2.419315 1_554
Cu0 Si0 2.419315 1_545
Cu0 Si0 2.419315 1_555
Cu0 Cu1 2.617631 1_445
Cu0 Cu1 2.617631 1_455
Cu0 Cu1 2.617631 1_555
Cu0 Cu1 2.617631 1_545
Cu0 Zr0 3.056028 1_455
Cu0 Zr1 3.056028 1_544
Cu0 Zr0 3.056028 1_555
Cu0 Zr1 3.056028 1_554
Cu1 Si1 2.419315 1_564
Cu1 Si1 2.419315 1_554
Cu1 Si0 2.419315 1_655
Cu1 Si0 2.419315 1_555
Cu1 Zr0 3.056028 1_555
Cu1 Zr1 3.056028 1_554
Cu1 Zr1 3.056028 1_654
Cu1 Zr0 3.056028 1_565
Si0 Zr0 2.759628 1_565
Si0 Zr0 2.759628 1_465
Si0 Zr0 2.759628 1_455
Si0 Zr0 2.759628 1_555
Si1 Zr1 2.759628 1_655
Si1 Zr1 2.759628 1_645
Si1 Zr1 2.759628 1_555
Si1 Zr1 2.759628 1_545
Si2 Si3 2.617631 1_655
Si2 Si3 2.617631 1_665
Si2 Si3 2.617631 1_565
Si2 Si3 2.617631 1_555
Si2 Zr1 2.829870 1_555
Si2 Zr0 2.829870 1_555
Si2 Zr0 2.829870 1_565
Si2 Zr1 2.829870 1_655
Si3 Zr0 2.829870 1_455
Si3 Zr1 2.829870 1_555
Si3 Zr0 2.829870 1_555
Si3 Zr1 2.829870 1_545
