# generated using pymatgen
data_ZrTi2Ni9
_symmetry_space_group_name_H-M   'P 1'
_cell_length_a   6.98653901
_cell_length_b   6.98653901
_cell_length_c   6.98653978
_cell_angle_alpha   43.59887683
_cell_angle_beta   43.59887683
_cell_angle_gamma   43.59887171
_symmetry_Int_Tables_number   1
_chemical_formula_structural   ZrTi2Ni9
_chemical_formula_sum   'Zr1 Ti2 Ni9'
_cell_volume   147.17775005
_cell_formula_units_Z   1
loop_
 _symmetry_equiv_pos_site_id
 _symmetry_equiv_pos_as_xyz
  1  'x, y, z'
loop_
 _atom_site_type_symbol
 _atom_site_label
 _atom_site_symmetry_multiplicity
 _atom_site_fract_x
 _atom_site_fract_y
 _atom_site_fract_z
 _atom_site_occupancy
  Zr  Zr0  1  0.21917400  0.21917400  0.21917400  1
  Ti  Ti0  1  0.78285400  0.78285400  0.78285400  1
  Ti  Ti1  1  0.99970700  0.99970700  0.99970700  1
  Ni  Ni0  1  0.50592600  0.50592600  0.99382700  1
  Ni  Ni1  1  0.50592600  0.99382700  0.50592600  1
  Ni  Ni2  1  0.99382700  0.50592600  0.50592600  1
  Ni  Ni3  1  0.75913600  0.28225000  0.28225000  1
  Ni  Ni4  1  0.28225000  0.28225000  0.75913600  1
  Ni  Ni5  1  0.28225000  0.75913600  0.28225000  1
  Ni  Ni6  1  0.23630100  0.71632500  0.71632500  1
  Ni  Ni7  1  0.71632500  0.71632500  0.23630100  1
  Ni  Ni8  1  0.71632500  0.23630100  0.71632500  1
loop_
_geom_bond_atom_site_label_1
_geom_bond_atom_site_label_2
_geom_bond_distance
_geom_bond_site_symmetry_2
Ni0 Ni3 2.496066 1_556
Ni0 Ni5 2.496066 1_556
Ni0 Ni1 2.531730 1_555
Ni0 Ni2 2.531730 1_555
Ni0 Ni8 2.572838 1_555
Ni0 Ni6 2.572838 1_555
Ni0 Ti1 2.595095 1_545
Ni0 Ti1 2.595095 1_455
Ni0 Ti0 2.611526 1_555
Ni0 Ni2 2.657294 1_456
Ni0 Ni1 2.657294 1_546
Ni0 Zr0 2.680007 1_556
Ni1 Ni3 2.496066 1_565
Ni1 Ni4 2.496066 1_565
Ni1 Ni2 2.531730 1_555
Ni1 Ni6 2.572838 1_555
Ni1 Ni7 2.572838 1_555
Ni1 Ti1 2.595096 1_455
Ni1 Ti1 2.595096 1_554
Ni1 Ti0 2.611526 1_555
Ni1 Ni2 2.657294 1_465
Ni1 Zr0 2.680007 1_565
Ni2 Ni5 2.496066 1_655
Ni2 Ni4 2.496066 1_655
Ni2 Ni8 2.572838 1_555
Ni2 Ni7 2.572838 1_555
Ni2 Ti1 2.595096 1_545
Ni2 Ti1 2.595096 1_554
Ni2 Ti0 2.611526 1_555
Ni2 Zr0 2.680007 1_655
Ni3 Ni5 2.474573 1_555
Ni3 Ni4 2.474573 1_555
Ni3 Ti1 2.579002 1_544
Ni3 Ti0 2.600200 1_554
Ni3 Ti0 2.600200 1_545
Ni3 Ni7 2.608617 1_555
Ni3 Ni8 2.608617 1_555
Ni3 Zr0 2.626221 1_655
Ni3 Ni5 2.714451 1_645
Ni3 Ni4 2.714452 1_654
Ni4 Ni5 2.474573 1_555
Ni4 Ti1 2.579002 1_445
Ni4 Ti0 2.600200 1_545
Ni4 Ti0 2.600200 1_455
Ni4 Ni8 2.608617 1_555
Ni4 Ni6 2.608617 1_555
Ni4 Zr0 2.626222 1_556
Ni4 Ni5 2.714452 1_546
Ni5 Ti1 2.579002 1_454
Ni5 Ti0 2.600200 1_554
Ni5 Ti0 2.600200 1_455
Ni5 Ni7 2.608617 1_555
Ni5 Ni6 2.608617 1_555
Ni5 Zr0 2.626221 1_565
Ni6 Ni8 2.490856 1_555
Ni6 Ni7 2.490856 1_555
Ni6 Ti0 2.552621 1_455
Ni6 Zr0 2.596205 1_565
Ni6 Zr0 2.596205 1_556
Ni6 Ti1 2.601799 1_455
Ni6 Ni8 2.698168 1_465
Ni6 Ni7 2.698168 1_456
Ni7 Ni8 2.490856 1_555
Ni7 Ti0 2.552622 1_554
Ni7 Zr0 2.596204 1_655
Ni7 Zr0 2.596204 1_565
Ni7 Ti1 2.601799 1_554
Ni7 Ni8 2.698168 1_564
Ni8 Ti0 2.552621 1_545
Ni8 Zr0 2.596205 1_655
Ni8 Zr0 2.596205 1_556
Ni8 Ti1 2.601799 1_545
