# generated using pymatgen
data_Zr(SO6)2
_symmetry_space_group_name_H-M   'P 1'
_cell_length_a   5.72096900
_cell_length_b   6.34874415
_cell_length_c   14.49896430
_cell_angle_alpha   84.90023147
_cell_angle_beta   78.62153701
_cell_angle_gamma   63.22044366
_symmetry_Int_Tables_number   1
_chemical_formula_structural   Zr(SO6)2
_chemical_formula_sum   'Zr2 S4 O24'
_cell_volume   460.89472869
_cell_formula_units_Z   2
loop_
 _symmetry_equiv_pos_site_id
 _symmetry_equiv_pos_as_xyz
  1  'x, y, z'
loop_
 _atom_site_type_symbol
 _atom_site_label
 _atom_site_symmetry_multiplicity
 _atom_site_fract_x
 _atom_site_fract_y
 _atom_site_fract_z
 _atom_site_occupancy
  Zr  Zr0  1  0.50000000  0.00000000  0.00000000  1
  Zr  Zr1  1  0.25000000  0.50000000  0.50000000  1
  S  S0  1  0.19222900  0.00000000  0.61554300  1
  S  S1  1  0.80777100  0.00000000  0.38445700  1
  S  S2  1  0.55777100  0.50000000  0.88445700  1
  S  S3  1  0.94222900  0.50000000  0.11554300  1
  O  O0  1  0.10520200  0.53164300  0.17428000  1
  O  O1  1  0.36315400  0.53164300  0.82572000  1
  O  O2  1  0.64479800  0.96835700  0.32572000  1
  O  O3  1  0.38684600  0.96835700  0.67428000  1
  O  O4  1  0.72051800  0.46835700  0.17428000  1
  O  O5  1  0.81112600  0.46835700  0.82572000  1
  O  O6  1  0.02948200  0.03164300  0.32572000  1
  O  O7  1  0.93887400  0.03164300  0.67428000  1
  O  O8  1  0.84632000  0.70651900  0.04883700  1
  O  O9  1  0.44716100  0.70651900  0.95116300  1
  O  O10  1  0.90368000  0.79348100  0.45116300  1
  O  O11  1  0.30283900  0.79348100  0.54883700  1
  O  O12  1  0.10484300  0.29348100  0.04883700  1
  O  O13  1  0.60167500  0.29348100  0.95116300  1
  O  O14  1  0.64515700  0.20651900  0.45116300  1
  O  O15  1  0.14832500  0.20651900  0.54883700  1
  O  O16  1  0.29763700  0.91968100  0.13109400  1
  O  O17  1  0.78268200  0.91968100  0.86890600  1
  O  O18  1  0.45236300  0.58031900  0.36890600  1
  O  O19  1  0.96731800  0.58031900  0.63109400  1
  O  O20  1  0.57126900  0.08031900  0.13109400  1
  O  O21  1  0.34841200  0.08031900  0.86890600  1
  O  O22  1  0.17873100  0.41968100  0.36890600  1
  O  O23  1  0.40158800  0.41968100  0.63109400  1
loop_
_geom_bond_atom_site_label_1
_geom_bond_atom_site_label_2
_geom_bond_distance
_geom_bond_site_symmetry_2
O0 S3 1.465411 1_455
O1 S2 1.465416 1_555
O2 S1 1.465411 1_565
O3 S0 1.465416 1_565
O4 S3 1.465416 1_555
O5 S2 1.465421 1_555
O6 S1 1.465416 1_455
O7 S0 1.465421 1_655
O8 S3 1.513682 1_555
O8 Zr0 2.211553 1_565
O9 S2 1.513682 1_555
O9 Zr0 2.211553 1_566
O10 S1 1.513682 1_565
O10 Zr1 2.211553 1_655
O11 S0 1.513682 1_565
O11 Zr1 2.211553 1_555
O12 S3 1.513682 1_455
O12 Zr0 2.211553 1_555
O13 S2 1.513682 1_555
O13 Zr0 2.211550 1_556
O14 S1 1.513682 1_555
O14 Zr1 2.211553 1_555
O15 S0 1.513682 1_555
O15 Zr1 2.211550 1_555
O16 Zr0 2.168981 1_565
O17 Zr0 2.168982 1_566
O18 Zr1 2.168981 1_555
O19 Zr1 2.168982 1_655
O20 Zr0 2.168981 1_555
O21 Zr0 2.168981 1_556
O22 Zr1 2.168981 1_555
O23 Zr1 2.168981 1_555
