# generated using pymatgen
data_Li2PS3
_symmetry_space_group_name_H-M   'P 1'
_cell_length_a   6.15634597
_cell_length_b   6.15634597
_cell_length_c   6.41032000
_cell_angle_alpha   90.00000000
_cell_angle_beta   90.00000000
_cell_angle_gamma   119.99999972
_symmetry_Int_Tables_number   1
_chemical_formula_structural   Li2PS3
_chemical_formula_sum   'Li4 P2 S6'
_cell_volume   210.40515662
_cell_formula_units_Z   2
loop_
 _symmetry_equiv_pos_site_id
 _symmetry_equiv_pos_as_xyz
  1  'x, y, z'
loop_
 _atom_site_type_symbol
 _atom_site_label
 _atom_site_symmetry_multiplicity
 _atom_site_fract_x
 _atom_site_fract_y
 _atom_site_fract_z
 _atom_site_occupancy
  Li  Li0  1  0.33333300  0.66666700  0.50000900  1
  Li  Li1  1  0.66666700  0.33333300  0.50000900  1
  Li  Li2  1  0.66666700  0.33333300  0.00000900  1
  Li  Li3  1  0.33333300  0.66666700  0.00000900  1
  P  P0  1  0.00000000  0.00000000  0.69871500  1
  P  P1  1  0.00000000  0.00000000  0.19871500  1
  S  S0  1  0.32751400  0.00000000  0.74090700  1
  S  S1  1  0.67248600  0.67248600  0.74090700  1
  S  S2  1  0.00000000  0.32751400  0.74090700  1
  S  S3  1  0.67248600  0.00000000  0.24090700  1
  S  S4  1  0.32751400  0.32751400  0.24090700  1
  S  S5  1  0.00000000  0.67248600  0.24090700  1
loop_
_geom_bond_atom_site_label_1
_geom_bond_atom_site_label_2
_geom_bond_distance
_geom_bond_site_symmetry_2
Li0 S0 2.582755 1_565
Li0 S2 2.582757 1_555
Li0 S1 2.582760 1_555
Li0 S5 2.654175 1_555
Li0 S3 2.654177 1_565
Li0 S4 2.654180 1_555
Li1 S2 2.582755 1_655
Li1 S0 2.582757 1_555
Li1 S1 2.582760 1_555
Li1 S3 2.654175 1_555
Li1 S5 2.654177 1_655
Li1 S4 2.654180 1_555
Li2 S3 2.582755 1_555
Li2 S5 2.582757 1_655
Li2 S4 2.582760 1_555
Li2 S2 2.654175 1_654
Li2 S0 2.654177 1_554
Li2 S1 2.654180 1_554
Li3 S5 2.582755 1_555
Li3 S3 2.582757 1_565
Li3 S4 2.582760 1_555
Li3 S0 2.654175 1_564
Li3 S2 2.654177 1_554
Li3 S1 2.654180 1_554
P0 S0 2.034349 1_555
P0 S2 2.034349 1_555
P0 S1 2.034349 1_445
P1 S5 2.034349 1_545
P1 S3 2.034349 1_455
P1 S4 2.034349 1_555
