# generated using pymatgen
data_K2BrCl
_symmetry_space_group_name_H-M   'P 1'
_cell_length_a   7.91724034
_cell_length_b   7.91724034
_cell_length_c   7.91724107
_cell_angle_alpha   33.48359152
_cell_angle_beta   33.48359152
_cell_angle_gamma   33.48358611
_symmetry_Int_Tables_number   1
_chemical_formula_structural   K2BrCl
_chemical_formula_sum   'K2 Br1 Cl1'
_cell_volume   134.52867920
_cell_formula_units_Z   1
loop_
 _symmetry_equiv_pos_site_id
 _symmetry_equiv_pos_as_xyz
  1  'x, y, z'
loop_
 _atom_site_type_symbol
 _atom_site_label
 _atom_site_symmetry_multiplicity
 _atom_site_fract_x
 _atom_site_fract_y
 _atom_site_fract_z
 _atom_site_occupancy
  K  K0  1  0.25380931  0.25380931  0.25380931  1
  K  K1  1  0.74619069  0.74619069  0.74619069  1
  Br  Br0  1  0.50000000  0.50000000  0.50000000  1
  Cl  Cl0  1  0.00000000  -0.00000000  0.00000000  1
loop_
_geom_bond_atom_site_label_1
_geom_bond_atom_site_label_2
_geom_bond_distance
_geom_bond_site_symmetry_2
Br0 K1 3.277972 1_545
Br0 K1 3.277972 1_455
Br0 K0 3.277972 1_655
Br0 K0 3.277972 1_565
Br0 K1 3.277973 1_554
Br0 K0 3.277973 1_556
Cl0 K0 3.179311 1_545
Cl0 K0 3.179311 1_455
Cl0 K1 3.179311 1_544
Cl0 K1 3.179311 1_454
Cl0 K0 3.179312 1_554
Cl0 K1 3.179312 1_445
