# generated using pymatgen
data_SrSb2
_symmetry_space_group_name_H-M   'P 1'
_cell_length_a   4.36037677
_cell_length_b   4.92129242
_cell_length_c   9.32971049
_cell_angle_alpha   102.07905670
_cell_angle_beta   90.00000000
_cell_angle_gamma   90.00000000
_symmetry_Int_Tables_number   1
_chemical_formula_structural   SrSb2
_chemical_formula_sum   'Sr2 Sb4'
_cell_volume   195.77081354
_cell_formula_units_Z   2
loop_
 _symmetry_equiv_pos_site_id
 _symmetry_equiv_pos_as_xyz
  1  'x, y, z'
loop_
 _atom_site_type_symbol
 _atom_site_label
 _atom_site_symmetry_multiplicity
 _atom_site_fract_x
 _atom_site_fract_y
 _atom_site_fract_z
 _atom_site_occupancy
  Sr  Sr0  1  0.75000000  0.58758106  0.71418623  1
  Sr  Sr1  1  0.25000000  0.41241894  0.28581377  1
  Sb  Sb0  1  0.75000000  0.18461748  0.98040331  1
  Sb  Sb1  1  0.25000000  0.81538252  0.01959669  1
  Sb  Sb2  1  0.75000000  0.95442295  0.39194044  1
  Sb  Sb3  1  0.25000000  0.04557705  0.60805956  1
loop_
_geom_bond_atom_site_label_1
_geom_bond_atom_site_label_2
_geom_bond_distance
_geom_bond_site_symmetry_2
Sb0 Sb1 2.909797 1_646
Sb0 Sb1 2.909797 1_546
Sb0 Sr0 3.427482 1_545
Sb0 Sr0 3.487553 1_555
Sb0 Sr1 3.576611 1_556
Sb0 Sr1 3.576611 1_656
Sb1 Sr1 3.427482 1_565
Sb1 Sr1 3.487553 1_555
Sb1 Sr0 3.576611 1_554
Sb1 Sr0 3.576611 1_454
Sb2 Sb3 2.939640 1_565
Sb2 Sb3 2.939640 1_665
Sb2 Sr1 3.426815 1_655
Sb2 Sr1 3.426815 1_555
Sb2 Sr1 3.427507 1_565
Sb2 Sr1 3.427507 1_665
Sb2 Sr0 3.817020 1_555
Sb2 Sr0 3.850619 1_565
Sb3 Sr0 3.426815 1_455
Sb3 Sr0 3.426815 1_555
Sb3 Sr0 3.427507 1_545
Sb3 Sr0 3.427507 1_445
Sb3 Sr1 3.817020 1_555
Sb3 Sr1 3.850619 1_545
