# generated using pymatgen
data_EuGaAu
_symmetry_space_group_name_H-M   'P 1'
_cell_length_a   5.80187780
_cell_length_b   5.80187780
_cell_length_c   7.58851386
_cell_angle_alpha   51.26187352
_cell_angle_beta   51.26187352
_cell_angle_gamma   46.95167246
_symmetry_Int_Tables_number   1
_chemical_formula_structural   EuGaAu
_chemical_formula_sum   'Eu2 Ga2 Au2'
_cell_volume   136.48277050
_cell_formula_units_Z   2
loop_
 _symmetry_equiv_pos_site_id
 _symmetry_equiv_pos_as_xyz
  1  'x, y, z'
loop_
 _atom_site_type_symbol
 _atom_site_label
 _atom_site_symmetry_multiplicity
 _atom_site_fract_x
 _atom_site_fract_y
 _atom_site_fract_z
 _atom_site_occupancy
  Eu  Eu0  1  0.54628520  0.54628520  0.69189128  1
  Eu  Eu1  1  0.45371480  0.45371480  0.30810872  1
  Ga  Ga0  1  0.84097555  0.84097555  0.10072518  1
  Ga  Ga1  1  0.15902445  0.15902445  0.89927482  1
  Au  Au0  1  0.17996968  0.17996968  0.26656358  1
  Au  Au1  1  0.82003032  0.82003032  0.73343642  1
loop_
_geom_bond_atom_site_label_1
_geom_bond_atom_site_label_2
_geom_bond_distance
_geom_bond_site_symmetry_2
Eu0 Ga0 3.239104 1_456
Eu0 Ga0 3.239104 1_546
Eu0 Ga1 3.258020 1_555
Eu0 Ga0 3.280809 1_555
Eu0 Ga1 3.440187 1_565
Eu0 Ga1 3.440187 1_655
Eu1 Ga1 3.239104 1_564
Eu1 Ga1 3.239104 1_654
Eu1 Ga0 3.258020 1_555
Eu1 Ga1 3.280809 1_555
Eu1 Ga0 3.440187 1_455
Eu1 Ga0 3.440187 1_545
Ga0 Ga1 2.595174 1_664
Au0 Ga0 2.630516 1_545
Au0 Ga0 2.630516 1_455
Au0 Ga1 2.943779 1_554
Au0 Au1 2.951072 1_445
Au0 Eu1 3.137113 1_555
Au0 Eu1 3.194418 1_455
Au0 Eu1 3.194418 1_545
Au0 Eu0 3.319511 1_554
Au0 Eu0 3.393769 1_455
Au0 Eu0 3.393769 1_545
Au1 Ga1 2.630516 1_565
Au1 Ga1 2.630516 1_655
Au1 Ga0 2.943779 1_556
Au1 Eu0 3.137113 1_555
Au1 Eu0 3.194418 1_655
Au1 Eu0 3.194418 1_565
Au1 Eu1 3.319511 1_556
Au1 Eu1 3.393769 1_655
Au1 Eu1 3.393769 1_565
