# generated using pymatgen
data_Li4MnCo2O7
_symmetry_space_group_name_H-M   'P 1'
_cell_length_a   4.99350800
_cell_length_b   5.06063582
_cell_length_c   10.62187848
_cell_angle_alpha   84.14799067
_cell_angle_beta   80.20619989
_cell_angle_gamma   72.73595018
_symmetry_Int_Tables_number   1
_chemical_formula_structural   Li4MnCo2O7
_chemical_formula_sum   'Li8 Mn2 Co4 O14'
_cell_volume   252.21151628
_cell_formula_units_Z   2
loop_
 _symmetry_equiv_pos_site_id
 _symmetry_equiv_pos_as_xyz
  1  'x, y, z'
loop_
 _atom_site_type_symbol
 _atom_site_label
 _atom_site_symmetry_multiplicity
 _atom_site_fract_x
 _atom_site_fract_y
 _atom_site_fract_z
 _atom_site_occupancy
  Li  Li0  1  0.07587000  0.49869800  0.85098700  1
  Li  Li1  1  0.64717400  0.50181100  0.70614100  1
  Li  Li2  1  0.22690900  0.48786100  0.56723400  1
  Li  Li3  1  0.77758000  0.49620600  0.43761200  1
  Li  Li4  1  0.35320900  0.50262500  0.28588200  1
  Li  Li5  1  0.91805200  0.50874400  0.15043100  1
  Li  Li6  1  0.50389100  0.50101400  0.99986300  1
  Li  Li7  1  0.70807100  0.00261800  0.57199000  1
  Mn  Mn0  1  0.00336400  0.99573100  0.00030300  1
  Mn  Mn1  1  0.58030600  0.99611000  0.85192300  1
  Co  Co0  1  0.14143000  0.00204300  0.70894600  1
  Co  Co1  1  0.27983100  0.00696600  0.43579900  1
  Co  Co2  1  0.85325900  0.00455700  0.28971800  1
  Co  Co3  1  0.43450500  0.99603800  0.14385200  1
  O  O0  1  0.76347600  0.75877900  0.99196900  1
  O  O1  1  0.33496100  0.76966600  0.84385200  1
  O  O2  1  0.87415200  0.79089900  0.72781900  1
  O  O3  1  0.44557600  0.76105300  0.56032900  1
  O  O4  1  0.04730600  0.78349300  0.41817100  1
  O  O5  1  0.61278600  0.77401700  0.27916000  1
  O  O6  1  0.19818000  0.76429700  0.13461000  1
  O  O7  1  0.38646300  0.23002000  0.72475000  1
  O  O8  1  0.97870000  0.23595900  0.57989200  1
  O  O9  1  0.50092000  0.22991300  0.42886400  1
  O  O10  1  0.09019800  0.23265900  0.29221200  1
  O  O11  1  0.67300400  0.22773200  0.15262700  1
  O  O12  1  0.28265600  0.20585700  0.99598200  1
  O  O13  1  0.80817200  0.23463300  0.86907900  1
loop_
_geom_bond_atom_site_label_1
_geom_bond_atom_site_label_2
_geom_bond_distance
_geom_bond_site_symmetry_2
Li0 O2 2.020534 1_455
Li0 O7 2.112987 1_555
Li0 O13 2.128418 1_455
Li0 O1 2.135053 1_555
Li0 O0 2.190152 1_455
Li0 O12 2.191287 1_555
Li1 O3 2.113179 1_555
Li1 O7 2.132037 1_555
Li1 O2 2.149328 1_555
Li1 O8 2.153973 1_555
Li1 O1 2.186733 1_555
Li1 O13 2.195633 1_555
Li2 O3 1.989255 1_555
Li2 O8 2.006370 1_455
Li2 O9 2.093628 1_555
Li2 O7 2.127902 1_555
Li2 O4 2.180181 1_555
Li2 O2 2.504392 1_455
Li3 O8 2.086267 1_555
Li3 O3 2.132173 1_555
Li3 O5 2.188237 1_555
Li3 O9 2.215284 1_555
Li3 O10 2.228224 1_655
Li3 O4 2.230885 1_655
Li4 O9 2.026020 1_555
Li4 O6 2.077370 1_555
Li4 O5 2.139316 1_555
Li4 O10 2.147589 1_555
Li4 O4 2.171739 1_555
Li4 O11 2.191515 1_555
Li5 O10 2.063363 1_655
Li5 O5 2.108562 1_555
Li5 O0 2.111372 1_554
Li5 O11 2.129935 1_555
Li5 O6 2.146377 1_655
Li5 O12 2.489143 1_654
Li6 O0 2.081638 1_555
Li6 O12 2.112041 1_555
Li6 O13 2.122204 1_555
Li6 O11 2.138712 1_556
Li6 O6 2.143001 1_556
Li6 O1 2.154407 1_555
Li7 O2 2.037984 1_545
Li7 O9 2.043645 1_555
Li7 O8 2.057594 1_555
Li7 O3 2.065214 1_545
Li7 O7 2.221159 1_555
Li7 O4 2.254238 1_645
Mn0 O13 1.942581 1_464
Mn0 O0 1.947042 1_454
Mn0 O6 1.951515 1_555
Mn0 O12 1.981522 1_564
Mn0 O11 2.246632 1_465
Mn0 O1 2.267014 1_554
Mn1 O7 1.897772 1_565
Mn1 O2 1.919861 1_555
Mn1 O1 1.926286 1_555
Mn1 O13 1.927582 1_565
Mn1 O0 1.984550 1_555
Mn1 O12 2.073237 1_565
Co0 O8 1.848728 1_455
Co0 O2 1.917028 1_445
Co0 O7 1.950286 1_555
Co0 O1 1.955287 1_545
Co0 O3 2.182535 1_545
Co0 O13 2.308797 1_455
Co1 O9 1.786599 1_555
Co1 O3 1.846291 1_545
Co1 O4 1.886470 1_545
Co1 O10 2.005363 1_555
Co1 O8 2.119199 1_455
Co1 O5 2.284241 1_545
Co2 O4 1.883395 1_645
Co2 O10 1.886960 1_655
Co2 O11 1.926995 1_555
Co2 O5 1.928647 1_545
Co2 O9 2.201971 1_555
Co2 O6 2.315030 1_645
Co3 O5 1.906005 1_555
Co3 O6 1.913622 1_555
Co3 O11 1.921128 1_565
Co3 O12 1.938189 1_564
Co3 O0 2.250673 1_554
Co3 O10 2.261479 1_565
