# generated using pymatgen
data_Fe3O5F
_symmetry_space_group_name_H-M   'P 1'
_cell_length_a   2.95699700
_cell_length_b   4.53037600
_cell_length_c   13.58026000
_cell_angle_alpha   90.00000000
_cell_angle_beta   90.00000000
_cell_angle_gamma   90.00000000
_symmetry_Int_Tables_number   1
_chemical_formula_structural   Fe3O5F
_chemical_formula_sum   'Fe6 O10 F2'
_cell_volume   181.92534895
_cell_formula_units_Z   2
loop_
 _symmetry_equiv_pos_site_id
 _symmetry_equiv_pos_as_xyz
  1  'x, y, z'
loop_
 _atom_site_type_symbol
 _atom_site_label
 _atom_site_symmetry_multiplicity
 _atom_site_fract_x
 _atom_site_fract_y
 _atom_site_fract_z
 _atom_site_occupancy
  Fe  Fe0  1  0.00000000  0.72886600  0.99912900  1
  Fe  Fe1  1  0.00000000  0.77506200  0.34389600  1
  Fe  Fe2  1  0.00000000  0.78244800  0.65977400  1
  Fe  Fe3  1  0.50000000  0.21755200  0.15977400  1
  Fe  Fe4  1  0.50000000  0.27113400  0.49912900  1
  Fe  Fe5  1  0.50000000  0.22493800  0.84389600  1
  O  O0  1  0.50000000  0.94120500  0.27346800  1
  O  O1  1  0.50000000  0.98253500  0.59456900  1
  O  O2  1  0.50000000  0.90581500  0.93396600  1
  O  O3  1  0.00000000  0.01746500  0.09456900  1
  O  O4  1  0.00000000  0.05879500  0.77346800  1
  O  O5  1  0.00000000  0.09418500  0.43396600  1
  O  O6  1  0.00000000  0.45739600  0.56089200  1
  O  O7  1  0.00000000  0.43334900  0.90229600  1
  O  O8  1  0.50000000  0.54260400  0.06089200  1
  O  O9  1  0.50000000  0.56665100  0.40229600  1
  F  F0  1  0.00000000  0.44416400  0.23201000  1
  F  F1  1  0.50000000  0.55583600  0.73201000  1
loop_
_geom_bond_atom_site_label_1
_geom_bond_atom_site_label_2
_geom_bond_distance
_geom_bond_site_symmetry_2
Fe0 O3 1.841014 1_566
Fe0 O7 1.876610 1_555
Fe0 O8 1.897770 1_456
Fe0 O8 1.897770 1_556
Fe0 O2 1.900446 1_555
Fe0 O2 1.900446 1_455
Fe1 O5 1.893763 1_565
Fe1 O0 1.915009 1_555
Fe1 O0 1.915009 1_455
Fe1 O9 1.925207 1_455
Fe1 O9 1.925207 1_555
Fe2 O1 1.947243 1_555
Fe2 O1 1.947243 1_455
Fe2 O4 1.987791 1_565
Fe2 O6 1.992938 1_555
Fe3 O3 1.947243 1_655
Fe3 O3 1.947243 1_555
Fe3 O0 1.987791 1_545
Fe3 O8 1.992938 1_555
Fe4 O1 1.841014 1_545
Fe4 O9 1.876610 1_555
Fe4 O6 1.897770 1_555
Fe4 O6 1.897770 1_655
Fe4 O5 1.900446 1_555
Fe4 O5 1.900446 1_655
Fe5 O2 1.893763 1_545
Fe5 O4 1.915009 1_555
Fe5 O4 1.915009 1_655
Fe5 O7 1.925207 1_655
Fe5 O7 1.925207 1_555
F0 Fe3 2.049944 1_455
F0 Fe3 2.049944 1_555
F0 Fe1 2.134474 1_555
F1 Fe2 2.049944 1_555
F1 Fe2 2.049944 1_655
F1 Fe5 2.134474 1_555
