# generated using pymatgen
data_Yb4Zn11
_symmetry_space_group_name_H-M   'P 1'
_cell_length_a   6.88669600
_cell_length_b   10.30023339
_cell_length_c   10.30023339
_cell_angle_alpha   83.58349550
_cell_angle_beta   70.47014125
_cell_angle_gamma   70.47014125
_symmetry_Int_Tables_number   1
_chemical_formula_structural   Yb4Zn11
_chemical_formula_sum   'Yb8 Zn22'
_cell_volume   648.98957692
_cell_formula_units_Z   2
loop_
 _symmetry_equiv_pos_site_id
 _symmetry_equiv_pos_as_xyz
  1  'x, y, z'
loop_
 _atom_site_type_symbol
 _atom_site_label
 _atom_site_symmetry_multiplicity
 _atom_site_fract_x
 _atom_site_fract_y
 _atom_site_fract_z
 _atom_site_occupancy
  Yb  Yb0  1  0.70055400  0.13984300  0.86015700  1
  Yb  Yb1  1  0.70055400  0.86015700  0.13984300  1
  Yb  Yb2  1  0.81071100  0.63984300  0.63984300  1
  Yb  Yb3  1  0.54944600  0.63984300  0.36015700  1
  Yb  Yb4  1  0.54944600  0.36015700  0.63984300  1
  Yb  Yb5  1  0.09039700  0.36015700  0.36015700  1
  Yb  Yb6  1  0.43928900  0.86015700  0.86015700  1
  Yb  Yb7  1  0.15960300  0.13984300  0.13984300  1
  Zn  Zn0  1  0.00000000  0.00000000  0.00000000  1
  Zn  Zn1  1  0.25000000  0.50000000  0.50000000  1
  Zn  Zn2  1  0.12500000  0.75000000  0.25000000  1
  Zn  Zn3  1  0.12500000  0.25000000  0.75000000  1
  Zn  Zn4  1  0.62500000  0.25000000  0.25000000  1
  Zn  Zn5  1  0.12500000  0.75000000  0.75000000  1
  Zn  Zn6  1  0.36838300  0.87539200  0.58628600  1
  Zn  Zn7  1  0.83006100  0.12460800  0.41371400  1
  Zn  Zn8  1  0.20466900  0.91371400  0.37539200  1
  Zn  Zn9  1  0.88161700  0.91371400  0.62460800  1
  Zn  Zn10  1  0.88161700  0.62460800  0.91371400  1
  Zn  Zn11  1  0.49377500  0.08628600  0.62460800  1
  Zn  Zn12  1  0.41993900  0.08628600  0.37539200  1
  Zn  Zn13  1  0.41993900  0.37539200  0.08628600  1
  Zn  Zn14  1  0.04533100  0.12460800  0.58628600  1
  Zn  Zn15  1  0.04533100  0.58628600  0.12460800  1
  Zn  Zn16  1  0.75622500  0.87539200  0.41371400  1
  Zn  Zn17  1  0.75622500  0.41371400  0.87539200  1
  Zn  Zn18  1  0.36838300  0.58628600  0.87539200  1
  Zn  Zn19  1  0.83006100  0.41371400  0.12460800  1
  Zn  Zn20  1  0.49377500  0.62460800  0.08628600  1
  Zn  Zn21  1  0.20466900  0.37539200  0.91371400  1
loop_
_geom_bond_atom_site_label_1
_geom_bond_atom_site_label_2
_geom_bond_distance
_geom_bond_site_symmetry_2
Yb0 Zn0 2.817534 1_656
Yb0 Zn14 2.998592 1_655
Yb0 Zn17 2.998592 1_555
Yb0 Zn9 3.188253 1_545
Yb0 Zn13 3.188253 1_556
Yb0 Zn3 3.291077 1_655
Yb0 Zn11 3.369424 1_555
Yb0 Zn21 3.369424 1_555
Yb1 Zn0 2.817534 1_665
Yb1 Zn15 2.998592 1_655
Yb1 Zn16 2.998592 1_555
Yb1 Zn10 3.188253 1_554
Yb1 Zn12 3.188253 1_565
Yb1 Zn2 3.291077 1_655
Yb1 Zn20 3.369424 1_555
Yb1 Zn8 3.369424 1_555
Yb2 Zn1 2.817534 1_655
Yb2 Zn10 2.998592 1_555
Yb2 Zn9 2.998592 1_555
Yb2 Zn17 3.188253 1_555
Yb2 Zn16 3.188253 1_555
Yb2 Zn5 3.291077 1_655
Yb2 Zn18 3.369424 1_555
Yb2 Zn6 3.369424 1_555
Yb3 Zn1 2.817534 1_555
Yb3 Zn20 2.998592 1_555
Yb3 Zn8 2.998592 1_555
Yb3 Zn6 3.188253 1_555
Yb3 Zn19 3.188253 1_555
Yb3 Zn2 3.291077 1_555
Yb3 Zn16 3.369424 1_555
Yb3 Zn15 3.369424 1_655
Yb4 Zn1 2.817534 1_555
Yb4 Zn21 2.998592 1_555
Yb4 Zn11 2.998592 1_555
Yb4 Zn18 3.188253 1_555
Yb4 Zn7 3.188253 1_555
Yb4 Zn3 3.291077 1_555
Yb4 Zn17 3.369424 1_555
Yb4 Zn14 3.369424 1_655
Yb5 Zn1 2.817534 1_555
Yb5 Zn12 2.998592 1_555
Yb5 Zn13 2.998592 1_555
Yb5 Zn15 3.188253 1_555
Yb5 Zn14 3.188253 1_555
Yb5 Zn4 3.291077 1_555
Yb5 Zn7 3.369424 1_455
Yb5 Zn19 3.369424 1_455
Yb6 Zn0 2.817534 1_566
Yb6 Zn18 2.998592 1_555
Yb6 Zn6 2.998592 1_555
Yb6 Zn11 3.188253 1_565
Yb6 Zn20 3.188253 1_556
Yb6 Zn5 3.291077 1_555
Yb6 Zn9 3.369424 1_555
Yb6 Zn10 3.369424 1_555
Yb7 Zn0 2.817534 1_555
Yb7 Zn7 2.998592 1_455
Yb7 Zn19 2.998592 1_455
Yb7 Zn8 3.188253 1_545
Yb7 Zn21 3.188253 1_554
Yb7 Zn4 3.291077 1_455
Yb7 Zn12 3.369424 1_555
Yb7 Zn13 3.369424 1_555
Zn2 Zn20 2.528223 1_555
Zn2 Zn8 2.528223 1_555
Zn4 Zn7 2.528223 1_555
Zn5 Zn6 2.528223 1_555
Zn5 Zn9 2.528223 1_455
Zn6 Zn8 2.700726 1_555
Zn7 Zn8 2.700726 1_645
Zn7 Zn9 2.916982 1_545
Zn8 Zn9 2.778608 1_455
Zn10 Zn5 2.528223 1_655
Zn10 Zn20 2.668202 1_556
Zn10 Zn17 2.700726 1_555
Zn10 Zn15 2.700726 1_656
Zn10 Zn21 2.778608 1_655
Zn10 Zn19 2.916982 1_556
Zn11 Zn3 2.528223 1_555
Zn11 Zn9 2.668202 1_545
Zn11 Zn7 2.700726 1_555
Zn11 Zn6 2.700726 1_545
Zn11 Zn12 2.778608 1_555
Zn11 Zn16 2.916982 1_545
Zn12 Zn4 2.528223 1_555
Zn12 Zn8 2.668202 1_545
Zn12 Zn14 2.700726 1_555
Zn12 Zn16 2.700726 1_545
Zn12 Zn6 2.916982 1_545
Zn13 Zn4 2.528223 1_555
Zn13 Zn21 2.668202 1_554
Zn13 Zn15 2.700726 1_555
Zn13 Zn17 2.700726 1_554
Zn13 Zn20 2.778608 1_555
Zn13 Zn18 2.916982 1_554
Zn14 Zn3 2.528223 1_555
Zn14 Zn7 2.668202 1_455
Zn14 Zn9 2.700726 1_445
Zn14 Zn6 2.778608 1_545
Zn14 Zn8 2.916982 1_545
Zn15 Zn2 2.528223 1_555
Zn15 Zn19 2.668202 1_455
Zn15 Zn18 2.778608 1_554
Zn15 Zn21 2.916982 1_554
Zn16 Zn2 2.528223 1_655
Zn16 Zn6 2.668202 1_555
Zn16 Zn9 2.700726 1_555
Zn16 Zn7 2.778608 1_565
Zn17 Zn3 2.528223 1_655
Zn17 Zn18 2.668202 1_555
Zn17 Zn19 2.778608 1_556
Zn17 Zn20 2.916982 1_556
Zn18 Zn5 2.528223 1_555
Zn18 Zn21 2.700726 1_555
Zn18 Zn20 2.700726 1_556
Zn19 Zn4 2.528223 1_555
Zn19 Zn21 2.700726 1_654
Zn19 Zn20 2.700726 1_555
Zn21 Zn3 2.528223 1_555
