# generated using pymatgen
data_Ho3Ge13Rh4
_symmetry_space_group_name_H-M   'P 1'
_cell_length_a   9.04219200
_cell_length_b   9.04219200
_cell_length_c   9.04219200
_cell_angle_alpha   90.00000000
_cell_angle_beta   90.00000000
_cell_angle_gamma   90.00000000
_symmetry_Int_Tables_number   1
_chemical_formula_structural   Ho3Ge13Rh4
_chemical_formula_sum   'Ho6 Ge26 Rh8'
_cell_volume   739.30079556
_cell_formula_units_Z   2
loop_
 _symmetry_equiv_pos_site_id
 _symmetry_equiv_pos_as_xyz
  1  'x, y, z'
loop_
 _atom_site_type_symbol
 _atom_site_label
 _atom_site_symmetry_multiplicity
 _atom_site_fract_x
 _atom_site_fract_y
 _atom_site_fract_z
 _atom_site_occupancy
  Ho  Ho0  1  0.00000000  0.50000000  0.75000000  1
  Ho  Ho1  1  0.50000000  0.25000000  0.00000000  1
  Ho  Ho2  1  0.75000000  0.00000000  0.50000000  1
  Ho  Ho3  1  0.00000000  0.50000000  0.25000000  1
  Ho  Ho4  1  0.50000000  0.75000000  0.00000000  1
  Ho  Ho5  1  0.25000000  0.00000000  0.50000000  1
  Ge  Ge0  1  0.50000000  0.50000000  0.50000000  1
  Ge  Ge1  1  0.00000000  0.00000000  0.00000000  1
  Ge  Ge2  1  0.81032800  0.35234200  0.50000000  1
  Ge  Ge3  1  0.64765800  0.50000000  0.81032800  1
  Ge  Ge4  1  0.50000000  0.18967200  0.64765800  1
  Ge  Ge5  1  0.18967200  0.64765800  0.50000000  1
  Ge  Ge6  1  0.35234200  0.50000000  0.18967200  1
  Ge  Ge7  1  0.50000000  0.81032800  0.35234200  1
  Ge  Ge8  1  0.81032800  0.64765800  0.50000000  1
  Ge  Ge9  1  0.64765800  0.50000000  0.18967200  1
  Ge  Ge10  1  0.18967200  0.35234200  0.50000000  1
  Ge  Ge11  1  0.35234200  0.50000000  0.81032800  1
  Ge  Ge12  1  0.50000000  0.81032800  0.64765800  1
  Ge  Ge13  1  0.50000000  0.18967200  0.35234200  1
  Ge  Ge14  1  0.31032800  0.00000000  0.85234200  1
  Ge  Ge15  1  0.14765800  0.31032800  0.00000000  1
  Ge  Ge16  1  0.00000000  0.14765800  0.68967200  1
  Ge  Ge17  1  0.68967200  0.00000000  0.14765800  1
  Ge  Ge18  1  0.85234200  0.68967200  0.00000000  1
  Ge  Ge19  1  0.00000000  0.85234200  0.31032800  1
  Ge  Ge20  1  0.31032800  0.00000000  0.14765800  1
  Ge  Ge21  1  0.14765800  0.68967200  0.00000000  1
  Ge  Ge22  1  0.68967200  0.00000000  0.85234200  1
  Ge  Ge23  1  0.85234200  0.31032800  0.00000000  1
  Ge  Ge24  1  0.00000000  0.14765800  0.31032800  1
  Ge  Ge25  1  0.00000000  0.85234200  0.68967200  1
  Rh  Rh0  1  0.75000000  0.25000000  0.75000000  1
  Rh  Rh1  1  0.25000000  0.75000000  0.25000000  1
  Rh  Rh2  1  0.75000000  0.75000000  0.25000000  1
  Rh  Rh3  1  0.25000000  0.25000000  0.75000000  1
  Rh  Rh4  1  0.25000000  0.75000000  0.75000000  1
  Rh  Rh5  1  0.75000000  0.25000000  0.25000000  1
  Rh  Rh6  1  0.25000000  0.25000000  0.25000000  1
  Rh  Rh7  1  0.75000000  0.75000000  0.75000000  1
loop_
_geom_bond_atom_site_label_1
_geom_bond_atom_site_label_2
_geom_bond_distance
_geom_bond_site_symmetry_2
Ho0 Rh4 3.196898 1_555
Ho0 Rh3 3.196898 1_555
Ho0 Rh7 3.196898 1_455
Ho0 Rh0 3.196898 1_455
Ho1 Rh3 3.196898 1_554
Ho1 Rh5 3.196898 1_555
Ho1 Rh6 3.196898 1_555
Ho1 Rh0 3.196898 1_554
Ho2 Rh5 3.196898 1_555
Ho2 Rh0 3.196898 1_555
Ho2 Rh7 3.196898 1_545
Ho2 Rh2 3.196898 1_545
Ho3 Rh1 3.196898 1_555
Ho3 Rh2 3.196898 1_455
Ho3 Rh5 3.196898 1_455
Ho3 Rh6 3.196898 1_555
Ho4 Rh1 3.196898 1_555
Ho4 Rh7 3.196898 1_554
Ho4 Rh2 3.196898 1_555
Ho4 Rh4 3.196898 1_554
Ho5 Rh3 3.196898 1_555
Ho5 Rh1 3.196898 1_545
Ho5 Rh4 3.196898 1_545
Ho5 Rh6 3.196898 1_555
Ge0 Ge4 3.107494 1_555
Ge0 Ge9 3.107494 1_555
Ge0 Ge5 3.107494 1_555
Ge0 Ge13 3.107494 1_555
Ge0 Ge10 3.107494 1_555
Ge0 Ge6 3.107494 1_555
Ge0 Ge12 3.107494 1_555
Ge0 Ge3 3.107494 1_555
Ge0 Ge8 3.107494 1_555
Ge0 Ge11 3.107494 1_555
Ge0 Ge7 3.107494 1_555
Ge0 Ge2 3.107494 1_555
Ge1 Ge23 3.107494 1_455
Ge1 Ge14 3.107494 1_554
Ge1 Ge19 3.107494 1_545
Ge1 Ge24 3.107494 1_555
Ge1 Ge15 3.107494 1_555
Ge1 Ge20 3.107494 1_555
Ge1 Ge25 3.107494 1_544
Ge1 Ge18 3.107494 1_445
Ge1 Ge22 3.107494 1_454
Ge1 Ge16 3.107494 1_554
Ge1 Ge17 3.107494 1_455
Ge1 Ge21 3.107494 1_545
Ge2 Rh0 2.502799 1_555
Ge2 Rh5 2.502799 1_555
Ge2 Ho0 3.135938 1_655
Ge2 Ho3 3.135938 1_655
Ge2 Ho2 3.232307 1_555
Ge3 Rh7 2.502799 1_555
Ge3 Rh0 2.502799 1_555
Ge3 Ho4 3.135938 1_556
Ge3 Ho1 3.135938 1_556
Ge3 Ho0 3.232307 1_655
Ge4 Rh0 2.502799 1_555
Ge4 Rh3 2.502799 1_555
Ge4 Ho2 3.135938 1_555
Ge4 Ho5 3.135938 1_555
Ge4 Ho1 3.232307 1_556
Ge5 Rh1 2.502799 1_555
Ge5 Rh4 2.502799 1_555
Ge5 Ho0 3.135938 1_555
Ge5 Ho3 3.135938 1_555
Ge5 Ho5 3.232307 1_565
Ge6 Rh6 2.502799 1_555
Ge6 Rh1 2.502799 1_555
Ge6 Ho4 3.135938 1_555
Ge6 Ho1 3.135938 1_555
Ge6 Ho3 3.232307 1_555
Ge7 Rh1 2.502799 1_555
Ge7 Rh2 2.502799 1_555
Ge7 Ho2 3.135938 1_565
Ge7 Ho5 3.135938 1_565
Ge7 Ho4 3.232307 1_555
Ge8 Rh2 2.502799 1_555
Ge8 Rh7 2.502799 1_555
Ge8 Ho0 3.135938 1_655
Ge8 Ho3 3.135938 1_655
Ge8 Ho2 3.232307 1_565
Ge9 Rh5 2.502799 1_555
Ge9 Rh2 2.502799 1_555
Ge9 Ho4 3.135938 1_555
Ge9 Ho1 3.135938 1_555
Ge9 Ho3 3.232307 1_655
Ge10 Rh6 2.502799 1_555
Ge10 Rh3 2.502799 1_555
Ge10 Ho3 3.135938 1_555
Ge10 Ho0 3.135938 1_555
Ge10 Ho5 3.232307 1_555
Ge11 Rh4 2.502799 1_555
Ge11 Rh3 2.502799 1_555
Ge11 Ho4 3.135938 1_556
Ge11 Ho1 3.135938 1_556
Ge11 Ho0 3.232307 1_555
Ge12 Rh7 2.502799 1_555
Ge12 Rh4 2.502799 1_555
Ge12 Ho2 3.135938 1_565
Ge12 Ho5 3.135938 1_565
Ge12 Ho4 3.232307 1_556
Ge13 Rh6 2.502799 1_555
Ge13 Rh5 2.502799 1_555
Ge13 Ho2 3.135938 1_555
Ge13 Ho5 3.135938 1_555
Ge13 Ho1 3.232307 1_555
Ge14 Rh4 2.502799 1_545
Ge14 Rh3 2.502799 1_555
Ge14 Ho4 3.135938 1_546
Ge14 Ho1 3.135938 1_556
Ge14 Ho5 3.232307 1_555
Ge15 Rh6 2.502799 1_555
Ge15 Rh3 2.502799 1_554
Ge15 Ho3 3.135938 1_555
Ge15 Ho0 3.135938 1_554
Ge15 Ho1 3.232307 1_555
Ge16 Rh3 2.502799 1_555
Ge16 Rh0 2.502799 1_455
Ge16 Ho2 3.135938 1_455
Ge16 Ho5 3.135938 1_555
Ge16 Ho0 3.232307 1_555
Ge17 Rh2 2.502799 1_545
Ge17 Rh5 2.502799 1_555
Ge17 Ho1 3.135938 1_555
Ge17 Ho4 3.135938 1_545
Ge17 Ho2 3.232307 1_555
Ge18 Rh2 2.502799 1_555
Ge18 Rh7 2.502799 1_554
Ge18 Ho3 3.135938 1_655
Ge18 Ho0 3.135938 1_654
Ge18 Ho4 3.232307 1_555
Ge19 Rh1 2.502799 1_555
Ge19 Rh2 2.502799 1_455
Ge19 Ho2 3.135938 1_465
Ge19 Ho5 3.135938 1_565
Ge19 Ho3 3.232307 1_555
Ge20 Rh6 2.502799 1_555
Ge20 Rh1 2.502799 1_545
Ge20 Ho4 3.135938 1_545
Ge20 Ho1 3.135938 1_555
Ge20 Ho5 3.232307 1_555
Ge21 Rh4 2.502799 1_554
Ge21 Rh1 2.502799 1_555
Ge21 Ho3 3.135938 1_555
Ge21 Ho0 3.135938 1_554
Ge21 Ho4 3.232307 1_555
Ge22 Rh7 2.502799 1_545
Ge22 Rh0 2.502799 1_555
Ge22 Ho4 3.135938 1_546
Ge22 Ho1 3.135938 1_556
Ge22 Ho2 3.232307 1_555
Ge23 Rh5 2.502799 1_555
Ge23 Rh0 2.502799 1_554
Ge23 Ho3 3.135938 1_655
Ge23 Ho0 3.135938 1_654
Ge23 Ho1 3.232307 1_555
Ge24 Rh6 2.502799 1_555
Ge24 Rh5 2.502799 1_455
Ge24 Ho5 3.135938 1_555
Ge24 Ho2 3.135938 1_455
Ge24 Ho3 3.232307 1_555
Ge25 Rh7 2.502799 1_455
Ge25 Rh4 2.502799 1_555
Ge25 Ho2 3.135938 1_465
Ge25 Ho5 3.135938 1_565
Ge25 Ho0 3.232307 1_555
