# generated using pymatgen
data_Rb2YAgF6
_symmetry_space_group_name_H-M   'P 1'
_cell_length_a   6.42513215
_cell_length_b   6.42513215
_cell_length_c   6.42513215
_cell_angle_alpha   60.00000000
_cell_angle_beta   60.00000000
_cell_angle_gamma   60.00000000
_symmetry_Int_Tables_number   1
_chemical_formula_structural   Rb2YAgF6
_chemical_formula_sum   'Rb2 Y1 Ag1 F6'
_cell_volume   187.55610054
_cell_formula_units_Z   1
loop_
 _symmetry_equiv_pos_site_id
 _symmetry_equiv_pos_as_xyz
  1  'x, y, z'
loop_
 _atom_site_type_symbol
 _atom_site_label
 _atom_site_symmetry_multiplicity
 _atom_site_fract_x
 _atom_site_fract_y
 _atom_site_fract_z
 _atom_site_occupancy
  Rb  Rb0  1  0.75000000  0.75000000  0.75000000  1
  Rb  Rb1  1  0.25000000  0.25000000  0.25000000  1
  Y  Y0  1  0.50000000  0.50000000  0.50000000  1
  Ag  Ag0  1  -0.00000000  0.00000000  0.00000000  1
  F  F0  1  0.73699591  0.26300409  0.26300409  1
  F  F1  1  0.26300409  0.26300409  0.73699591  1
  F  F2  1  0.26300409  0.73699591  0.73699591  1
  F  F3  1  0.26300409  0.73699591  0.26300409  1
  F  F4  1  0.73699591  0.26300409  0.73699591  1
  F  F5  1  0.73699591  0.73699591  0.26300409  1
loop_
_geom_bond_atom_site_label_1
_geom_bond_atom_site_label_2
_geom_bond_distance
_geom_bond_site_symmetry_2
Ag0 F2 2.389789 1_544
Ag0 F0 2.389789 1_455
Ag0 F5 2.389789 1_445
Ag0 F4 2.389789 1_454
Ag0 F3 2.389789 1_545
Ag0 F1 2.389789 1_554
F0 Y0 2.153465 1_555
F0 Rb0 3.214738 1_554
F0 Rb1 3.214738 1_555
F0 Rb0 3.214738 1_545
F0 Rb1 3.214738 1_655
F1 Y0 2.153465 1_555
F1 Rb0 3.214738 1_455
F1 Rb1 3.214738 1_555
F1 Rb0 3.214738 1_545
F1 Rb1 3.214738 1_556
F2 Y0 2.153465 1_555
F2 Rb1 3.214738 1_565
F2 Rb0 3.214738 1_455
F2 Rb0 3.214738 1_555
F2 Rb1 3.214738 1_556
F3 Y0 2.153465 1_555
F3 Rb1 3.214738 1_565
F3 Rb0 3.214738 1_455
F3 Rb0 3.214738 1_554
F3 Rb1 3.214738 1_555
F4 Y0 2.153465 1_555
F4 Rb0 3.214738 1_555
F4 Rb0 3.214738 1_545
F4 Rb1 3.214738 1_556
F4 Rb1 3.214738 1_655
F5 Y0 2.153465 1_555
F5 Rb1 3.214738 1_565
F5 Rb0 3.214738 1_555
F5 Rb0 3.214738 1_554
F5 Rb1 3.214738 1_655
