# generated using pymatgen
data_CaTe2O7
_symmetry_space_group_name_H-M   'P 1'
_cell_length_a   7.46419400
_cell_length_b   7.26510300
_cell_length_c   7.61055452
_cell_angle_alpha   73.00931131
_cell_angle_beta   90.00000000
_cell_angle_gamma   90.00000000
_symmetry_Int_Tables_number   1
_chemical_formula_structural   CaTe2O7
_chemical_formula_sum   'Ca2 Te4 O14'
_cell_volume   394.69250862
_cell_formula_units_Z   2
loop_
 _symmetry_equiv_pos_site_id
 _symmetry_equiv_pos_as_xyz
  1  'x, y, z'
loop_
 _atom_site_type_symbol
 _atom_site_label
 _atom_site_symmetry_multiplicity
 _atom_site_fract_x
 _atom_site_fract_y
 _atom_site_fract_z
 _atom_site_occupancy
  Ca  Ca0  1  0.89832700  0.70631300  0.91402900  1
  Ca  Ca1  1  0.39832700  0.29368700  0.08597100  1
  Te  Te0  1  0.88034800  0.16691500  0.06939800  1
  Te  Te1  1  0.38034800  0.83308500  0.93060200  1
  Te  Te2  1  0.30700300  0.26211800  0.60179400  1
  Te  Te3  1  0.80700300  0.73788200  0.39820600  1
  O  O0  1  0.59526600  0.61405200  0.41632200  1
  O  O1  1  0.09526600  0.38594800  0.58367800  1
  O  O2  1  0.23953100  0.61514400  0.98237900  1
  O  O3  1  0.73953100  0.38485600  0.01762100  1
  O  O4  1  0.92377900  0.75177400  0.60404300  1
  O  O5  1  0.42377900  0.24822600  0.39595700  1
  O  O6  1  0.59858500  0.77458600  0.85662300  1
  O  O7  1  0.09858500  0.22541400  0.14337700  1
  O  O8  1  0.95453500  0.71297200  0.21433200  1
  O  O9  1  0.45453500  0.28702800  0.78566800  1
  O  O10  1  0.74780900  0.01700800  0.28292700  1
  O  O11  1  0.24780900  0.98299200  0.71707300  1
  O  O12  1  0.87987500  0.04605300  0.89089400  1
  O  O13  1  0.37987500  0.95394700  0.10910600  1
loop_
_geom_bond_atom_site_label_1
_geom_bond_atom_site_label_2
_geom_bond_distance
_geom_bond_site_symmetry_2
Ca0 O4 2.292478 1_555
Ca0 O6 2.305625 1_555
Ca0 O8 2.338026 1_556
Ca0 O12 2.426566 1_565
Ca0 O3 2.530725 1_556
Ca0 O2 2.644654 1_655
Ca1 O5 2.292478 1_555
Ca1 O7 2.305625 1_555
Ca1 O9 2.338026 1_554
Ca1 O13 2.426566 1_545
Ca1 O2 2.530725 1_554
Ca1 O3 2.644654 1_555
O0 Te3 1.803795 1_555
O1 Te2 1.803795 1_555
O2 Te1 1.844574 1_555
O3 Te0 1.844574 1_555
O4 Te3 1.821090 1_555
O5 Te2 1.821090 1_555
O6 Te1 1.814108 1_555
O7 Te0 1.814108 1_455
O8 Te3 1.830762 1_555
O9 Te2 1.830762 1_555
O10 Te0 1.941992 1_555
O10 Te3 2.009340 1_545
O11 Te1 1.941992 1_555
O11 Te2 2.009340 1_565
O12 Te0 1.820370 1_556
O13 Te1 1.820370 1_554
