# generated using pymatgen
data_Mo3W(SeS3)2
_symmetry_space_group_name_H-M   'P 1'
_cell_length_a   3.22119191
_cell_length_b   3.22119191
_cell_length_c   36.35981100
_cell_angle_alpha   90.00000000
_cell_angle_beta   90.00000000
_cell_angle_gamma   119.99999818
_symmetry_Int_Tables_number   1
_chemical_formula_structural   Mo3W(SeS3)2
_chemical_formula_sum   'Mo3 W1 Se2 S6'
_cell_volume   326.72732453
_cell_formula_units_Z   1
loop_
 _symmetry_equiv_pos_site_id
 _symmetry_equiv_pos_as_xyz
  1  'x, y, z'
loop_
 _atom_site_type_symbol
 _atom_site_label
 _atom_site_symmetry_multiplicity
 _atom_site_fract_x
 _atom_site_fract_y
 _atom_site_fract_z
 _atom_site_occupancy
  Mo  Mo0  1  0.33333300  0.66666700  0.09392200  1
  Mo  Mo1  1  0.33333300  0.66666700  0.46964100  1
  Mo  Mo2  1  0.66666700  0.33333300  0.28177100  1
  W  W0  1  0.66666700  0.33333300  0.65756300  1
  Se  Se0  1  0.66666700  0.33333300  0.42264100  1
  Se  Se1  1  0.66666700  0.33333300  0.51667700  1
  S  S0  1  0.33333300  0.66666700  0.32450600  1
  S  S1  1  0.33333300  0.66666700  0.70047700  1
  S  S2  1  0.66666700  0.33333300  0.05116600  1
  S  S3  1  0.66666700  0.33333300  0.13666800  1
  S  S4  1  0.33333300  0.66666700  0.23906500  1
  S  S5  1  0.33333300  0.66666700  0.61464900  1
loop_
_geom_bond_atom_site_label_1
_geom_bond_atom_site_label_2
_geom_bond_distance
_geom_bond_site_symmetry_2
Mo0 S3 2.423703 1_455
Mo0 S3 2.423703 1_565
Mo0 S3 2.423707 1_555
Mo0 S2 2.423936 1_455
Mo0 S2 2.423936 1_565
Mo0 S2 2.423941 1_555
Mo1 Se0 2.525681 1_455
Mo1 Se0 2.525681 1_565
Mo1 Se0 2.525685 1_555
Mo1 Se1 2.526567 1_455
Mo1 Se1 2.526567 1_565
Mo1 Se1 2.526571 1_555
Mo2 S4 2.422771 1_545
Mo2 S4 2.422771 1_655
Mo2 S4 2.422775 1_555
Mo2 S0 2.423447 1_655
Mo2 S0 2.423447 1_545
Mo2 S0 2.423451 1_555
S1 W0 2.427625 1_455
S1 W0 2.427625 1_565
S1 W0 2.427629 1_555
S5 W0 2.427625 1_455
S5 W0 2.427625 1_565
S5 W0 2.427629 1_555
