# generated using pymatgen
data_S(NO)2
_symmetry_space_group_name_H-M   'P 1'
_cell_length_a   6.40498600
_cell_length_b   12.25743400
_cell_length_c   14.68957582
_cell_angle_alpha   82.90867574
_cell_angle_beta   90.00000000
_cell_angle_gamma   90.00000000
_symmetry_Int_Tables_number   1
_chemical_formula_structural   S(NO)2
_chemical_formula_sum   'S12 N24 O24'
_cell_volume   1144.43770711
_cell_formula_units_Z   12
loop_
 _symmetry_equiv_pos_site_id
 _symmetry_equiv_pos_as_xyz
  1  'x, y, z'
loop_
 _atom_site_type_symbol
 _atom_site_label
 _atom_site_symmetry_multiplicity
 _atom_site_fract_x
 _atom_site_fract_y
 _atom_site_fract_z
 _atom_site_occupancy
  S  S0  1  0.60171900  0.74339800  0.52383800  1
  S  S1  1  0.10171900  0.25660200  0.97616200  1
  S  S2  1  0.39828100  0.25660200  0.47616200  1
  S  S3  1  0.89828100  0.74339800  0.02383800  1
  S  S4  1  0.43377700  0.88668500  0.36971900  1
  S  S5  1  0.93377700  0.11331500  0.13028100  1
  S  S6  1  0.56622300  0.11331500  0.63028100  1
  S  S7  1  0.06622300  0.88668500  0.86971900  1
  S  S8  1  0.41685600  0.65157800  0.37102900  1
  S  S9  1  0.91685600  0.34842200  0.12897100  1
  S  S10  1  0.58314400  0.34842200  0.62897100  1
  S  S11  1  0.08314400  0.65157800  0.87102900  1
  N  N0  1  0.57994600  0.86464300  0.46228900  1
  N  N1  1  0.07994600  0.13535700  0.03771100  1
  N  N2  1  0.42005400  0.13535700  0.53771100  1
  N  N3  1  0.92005400  0.86464300  0.96228900  1
  N  N4  1  0.42140400  0.77696900  0.31604700  1
  N  N5  1  0.92140400  0.22303100  0.18395300  1
  N  N6  1  0.57859600  0.22303100  0.68395300  1
  N  N7  1  0.07859600  0.77696900  0.81604700  1
  N  N8  1  0.56811500  0.64226100  0.46190900  1
  N  N9  1  0.06811500  0.35773900  0.03809100  1
  N  N10  1  0.43188500  0.35773900  0.53809100  1
  N  N11  1  0.93188500  0.64226100  0.96190900  1
  N  N12  1  0.09793100  0.91686800  0.60647600  1
  N  N13  1  0.59793100  0.08313200  0.89352400  1
  N  N14  1  0.90206900  0.08313200  0.39352400  1
  N  N15  1  0.40206900  0.91686800  0.10647600  1
  N  N16  1  0.11518900  0.54719000  0.60975400  1
  N  N17  1  0.61518900  0.45281000  0.89024600  1
  N  N18  1  0.88481100  0.45281000  0.39024600  1
  N  N19  1  0.38481100  0.54719000  0.10975400  1
  N  N20  1  0.89652100  0.78323900  0.27392500  1
  N  N21  1  0.39652100  0.21676100  0.22607500  1
  N  N22  1  0.10347900  0.21676100  0.72607500  1
  N  N23  1  0.60347900  0.78323900  0.77392500  1
  O  O0  1  0.42569400  0.73881700  0.58647000  1
  O  O1  1  0.92569400  0.26118300  0.91353000  1
  O  O2  1  0.57430600  0.26118300  0.41353000  1
  O  O3  1  0.07430600  0.73881700  0.08647000  1
  O  O4  1  0.80971000  0.73490300  0.55906700  1
  O  O5  1  0.30971000  0.26509700  0.94093300  1
  O  O6  1  0.19029000  0.26509700  0.44093300  1
  O  O7  1  0.69029000  0.73490300  0.05906700  1
  O  O8  1  0.22567900  0.90214800  0.40473300  1
  O  O9  1  0.72567900  0.09785200  0.09526700  1
  O  O10  1  0.77432100  0.09785200  0.59526700  1
  O  O11  1  0.27432100  0.90214800  0.90473300  1
  O  O12  1  0.53076600  0.97187400  0.30881100  1
  O  O13  1  0.03076600  0.02812600  0.19118900  1
  O  O14  1  0.46923400  0.02812600  0.69118900  1
  O  O15  1  0.96923400  0.97187400  0.80881100  1
  O  O16  1  0.20544400  0.63448200  0.40554000  1
  O  O17  1  0.70544400  0.36551800  0.09446000  1
  O  O18  1  0.79455600  0.36551800  0.59446000  1
  O  O19  1  0.29455600  0.63448200  0.90554000  1
  O  O20  1  0.49949300  0.57945500  0.31031100  1
  O  O21  1  0.99949300  0.42054500  0.18968900  1
  O  O22  1  0.50050700  0.42054500  0.68968900  1
  O  O23  1  0.00050700  0.57945500  0.81031100  1
loop_
_geom_bond_atom_site_label_1
_geom_bond_atom_site_label_2
_geom_bond_distance
_geom_bond_site_symmetry_2
N0 S4 1.645561 1_555
N0 S0 1.647358 1_555
N1 S5 1.645561 1_455
N1 S1 1.647358 1_554
N2 S6 1.645561 1_555
N2 S2 1.647358 1_555
N3 S7 1.645561 1_655
N3 S3 1.647358 1_556
N4 S4 1.642638 1_555
N4 S8 1.645891 1_555
N5 S5 1.642638 1_555
N5 S9 1.645891 1_555
N6 S6 1.642638 1_555
N6 S10 1.645891 1_555
N7 S7 1.642638 1_555
N7 S11 1.645891 1_555
N8 S0 1.639863 1_555
N8 S8 1.642008 1_555
N9 S1 1.639863 1_554
N9 S9 1.642008 1_455
N10 S2 1.639863 1_555
N10 S10 1.642008 1_555
N11 S3 1.639863 1_556
N11 S11 1.642008 1_655
O0 S0 1.451889 1_555
O1 S1 1.451889 1_655
O2 S2 1.451889 1_555
O3 S3 1.451889 1_455
O4 S0 1.428302 1_555
O5 S1 1.428302 1_555
O6 S2 1.428302 1_555
O7 S3 1.428302 1_555
O8 S4 1.449506 1_555
O9 S5 1.449506 1_555
O10 S6 1.449506 1_555
O11 S7 1.449506 1_555
O12 S4 1.430418 1_555
O13 S5 1.430418 1_455
O14 S6 1.430418 1_555
O15 S7 1.430418 1_655
O16 S8 1.451980 1_555
O17 S9 1.451980 1_555
O18 S10 1.451980 1_555
O19 S11 1.451980 1_555
O20 S8 1.432440 1_555
O21 S9 1.432440 1_555
O22 S10 1.432440 1_555
O23 S11 1.432440 1_555
