# generated using pymatgen
data_Li2MgGeO4
_symmetry_space_group_name_H-M   'P 1'
_cell_length_a   5.17441500
_cell_length_b   6.47527400
_cell_length_c   11.07307900
_cell_angle_alpha   90.00000000
_cell_angle_beta   90.00000000
_cell_angle_gamma   90.00000000
_symmetry_Int_Tables_number   1
_chemical_formula_structural   Li2MgGeO4
_chemical_formula_sum   'Li8 Mg4 Ge4 O16'
_cell_volume   371.01187113
_cell_formula_units_Z   4
loop_
 _symmetry_equiv_pos_site_id
 _symmetry_equiv_pos_as_xyz
  1  'x, y, z'
loop_
 _atom_site_type_symbol
 _atom_site_label
 _atom_site_symmetry_multiplicity
 _atom_site_fract_x
 _atom_site_fract_y
 _atom_site_fract_z
 _atom_site_occupancy
  Li  Li0  1  0.30631100  0.25360000  0.07494500  1
  Li  Li1  1  0.19368900  0.25360000  0.57494500  1
  Li  Li2  1  0.69368900  0.75360000  0.92505500  1
  Li  Li3  1  0.80631100  0.75360000  0.42505500  1
  Li  Li4  1  0.18571800  0.00144200  0.33591100  1
  Li  Li5  1  0.81428200  0.50144200  0.66408900  1
  Li  Li6  1  0.68571800  0.50144200  0.16408900  1
  Li  Li7  1  0.31428200  0.00144200  0.83591100  1
  Mg  Mg0  1  0.31600400  0.49657200  0.83210600  1
  Mg  Mg1  1  0.68399600  0.99657200  0.16789400  1
  Mg  Mg2  1  0.81600400  0.99657200  0.66789400  1
  Mg  Mg3  1  0.18399600  0.49657200  0.33210600  1
  Ge  Ge0  1  0.81642400  0.24920100  0.91534900  1
  Ge  Ge1  1  0.68357600  0.24920100  0.41534900  1
  Ge  Ge2  1  0.18357600  0.74920100  0.08465100  1
  Ge  Ge3  1  0.31642400  0.74920100  0.58465100  1
  O  O0  1  0.16184500  0.25388200  0.91039500  1
  O  O1  1  0.33815500  0.25388200  0.41039500  1
  O  O2  1  0.83815500  0.75388200  0.08960500  1
  O  O3  1  0.66184500  0.75388200  0.58960500  1
  O  O4  1  0.70248300  0.47359800  0.83856700  1
  O  O5  1  0.79323000  0.02496600  0.33724600  1
  O  O6  1  0.29751700  0.97359800  0.16143300  1
  O  O7  1  0.20677000  0.52496600  0.66275400  1
  O  O8  1  0.29323000  0.52496600  0.16275400  1
  O  O9  1  0.20248300  0.97359800  0.66143300  1
  O  O10  1  0.70677000  0.02496600  0.83724600  1
  O  O11  1  0.79751700  0.47359800  0.33856700  1
  O  O12  1  0.70524200  0.24673900  0.06630200  1
  O  O13  1  0.79475800  0.24673900  0.56630200  1
  O  O14  1  0.29475800  0.74673900  0.93369800  1
  O  O15  1  0.20524200  0.74673900  0.43369800  1
loop_
_geom_bond_atom_site_label_1
_geom_bond_atom_site_label_2
_geom_bond_distance
_geom_bond_site_symmetry_2
Li0 O0 1.969456 1_554
Li0 O8 2.009384 1_555
Li0 O6 2.050983 1_545
Li0 O12 2.066929 1_555
Li1 O1 1.969456 1_555
Li1 O7 2.009384 1_555
Li1 O9 2.050983 1_545
Li1 O13 2.066929 1_455
Li2 O2 1.969456 1_556
Li2 O10 2.009384 1_565
Li2 O4 2.050983 1_555
Li2 O14 2.066929 1_555
Li3 O3 1.969456 1_555
Li3 O5 2.009384 1_565
Li3 O11 2.050983 1_555
Li3 O15 2.066929 1_655
Li4 O15 1.975542 1_545
Li4 O1 1.993585 1_555
Li4 O6 2.024801 1_545
Li4 O5 2.036654 1_455
Li5 O13 1.975542 1_555
Li5 O3 1.993585 1_555
Li5 O4 2.024801 1_555
Li5 O7 2.036654 1_655
Li6 O12 1.975542 1_555
Li6 O2 1.993585 1_555
Li6 O11 2.024801 1_555
Li6 O8 2.036654 1_555
Li7 O14 1.975542 1_545
Li7 O0 1.993585 1_555
Li7 O9 2.024801 1_545
Li7 O10 2.036654 1_555
Mg0 O0 1.964020 1_555
Mg0 O7 1.967190 1_555
Mg0 O14 1.975258 1_555
Mg0 O4 2.006604 1_555
Mg1 O2 1.964020 1_555
Mg1 O5 1.967190 1_565
Mg1 O12 1.975258 1_565
Mg1 O6 2.006604 1_555
Mg2 O3 1.964020 1_555
Mg2 O10 1.967190 1_565
Mg2 O13 1.975258 1_565
Mg2 O9 2.006604 1_655
Mg3 O1 1.964020 1_555
Mg3 O8 1.967190 1_555
Mg3 O15 1.975258 1_555
Mg3 O11 2.006604 1_455
Ge0 O12 1.767820 1_556
Ge0 O10 1.782734 1_555
Ge0 O4 1.783751 1_555
Ge0 O0 1.788450 1_655
Ge1 O13 1.767820 1_555
Ge1 O5 1.782734 1_555
Ge1 O11 1.783751 1_555
Ge1 O1 1.788450 1_555
Ge2 O14 1.767820 1_554
Ge2 O8 1.782734 1_555
Ge2 O6 1.783751 1_555
Ge2 O2 1.788450 1_455
Ge3 O15 1.767820 1_555
Ge3 O7 1.782734 1_555
Ge3 O9 1.783751 1_555
Ge3 O3 1.788450 1_555
