# generated using pymatgen
data_YbMg2Cu9
_symmetry_space_group_name_H-M   'P 1'
_cell_length_a   4.97780115
_cell_length_b   4.97780115
_cell_length_c   16.19150200
_cell_angle_alpha   90.00000000
_cell_angle_beta   90.00000000
_cell_angle_gamma   119.99998864
_symmetry_Int_Tables_number   1
_chemical_formula_structural   YbMg2Cu9
_chemical_formula_sum   'Yb2 Mg4 Cu18'
_cell_volume   347.45047185
_cell_formula_units_Z   2
loop_
 _symmetry_equiv_pos_site_id
 _symmetry_equiv_pos_as_xyz
  1  'x, y, z'
loop_
 _atom_site_type_symbol
 _atom_site_label
 _atom_site_symmetry_multiplicity
 _atom_site_fract_x
 _atom_site_fract_y
 _atom_site_fract_z
 _atom_site_occupancy
  Yb  Yb0  1  0.66666700  0.33333300  0.25000000  1
  Yb  Yb1  1  0.33333300  0.66666700  0.75000000  1
  Mg  Mg0  1  0.66666700  0.33333300  0.46726300  1
  Mg  Mg1  1  0.33333300  0.66666700  0.96726300  1
  Mg  Mg2  1  0.66666700  0.33333300  0.03273700  1
  Mg  Mg3  1  0.33333300  0.66666700  0.53273700  1
  Cu  Cu0  1  0.33333300  0.66666700  0.25000000  1
  Cu  Cu1  1  0.66666700  0.33333300  0.75000000  1
  Cu  Cu2  1  0.16815300  0.83184700  0.37641500  1
  Cu  Cu3  1  0.16815300  0.33630500  0.37641500  1
  Cu  Cu4  1  0.00000000  0.00000000  0.75000000  1
  Cu  Cu5  1  0.00000000  0.00000000  0.25000000  1
  Cu  Cu6  1  0.00000000  0.00000000  0.00000000  1
  Cu  Cu7  1  0.00000000  0.00000000  0.50000000  1
  Cu  Cu8  1  0.16815300  0.33630500  0.12358500  1
  Cu  Cu9  1  0.83184700  0.16815300  0.62358500  1
  Cu  Cu10  1  0.33630500  0.16815300  0.62358500  1
  Cu  Cu11  1  0.66369500  0.83184700  0.12358500  1
  Cu  Cu12  1  0.16815300  0.83184700  0.12358500  1
  Cu  Cu13  1  0.83184700  0.66369500  0.87641500  1
  Cu  Cu14  1  0.83184700  0.16815300  0.87641500  1
  Cu  Cu15  1  0.83184700  0.66369500  0.62358500  1
  Cu  Cu16  1  0.33630500  0.16815300  0.87641500  1
  Cu  Cu17  1  0.66369500  0.83184700  0.37641500  1
loop_
_geom_bond_atom_site_label_1
_geom_bond_atom_site_label_2
_geom_bond_distance
_geom_bond_site_symmetry_2
Cu0 Cu2 2.493550 1_555
Cu0 Cu12 2.493550 1_555
Cu0 Cu3 2.493555 1_555
Cu0 Cu8 2.493555 1_555
Cu0 Cu17 2.493555 1_555
Cu0 Cu11 2.493555 1_555
Cu0 Cu5 2.873932 1_565
Cu0 Yb0 2.873932 1_455
Cu0 Yb0 2.873932 1_565
Cu0 Cu5 2.873937 1_555
Cu0 Cu5 2.873937 1_665
Cu0 Yb0 2.873940 1_555
Cu1 Cu14 2.493550 1_555
Cu1 Cu9 2.493550 1_555
Cu1 Cu10 2.493555 1_555
Cu1 Cu13 2.493555 1_555
Cu1 Cu16 2.493555 1_555
Cu1 Cu15 2.493555 1_555
Cu1 Cu4 2.873932 1_655
Cu1 Yb1 2.873932 1_545
Cu1 Yb1 2.873932 1_655
Cu1 Cu4 2.873937 1_665
Cu1 Cu4 2.873937 1_555
Cu1 Yb1 2.873940 1_555
Cu2 Cu3 2.466710 1_555
Cu2 Cu7 2.471027 1_565
Cu2 Cu5 2.508278 1_565
Cu2 Cu3 2.511092 1_565
Cu2 Mg0 2.891113 1_455
Cu2 Mg0 2.891113 1_565
Cu2 Mg3 2.904240 1_555
Cu2 Yb0 3.222481 1_455
Cu2 Yb0 3.222481 1_565
Cu3 Cu7 2.471025 1_555
Cu3 Cu5 2.508276 1_555
Cu3 Mg0 2.891112 1_555
Cu3 Mg0 2.891112 1_455
Cu3 Mg3 2.904244 1_555
Cu3 Yb0 3.222480 1_555
Cu3 Yb0 3.222480 1_455
Cu4 Cu9 2.508278 1_455
Cu4 Yb1 2.873932 1_545
Cu4 Yb1 2.873937 1_555
Cu4 Yb1 2.873937 1_445
Cu5 Cu8 2.508276 1_555
Cu5 Yb0 2.873932 1_455
Cu5 Yb0 2.873937 1_555
Cu5 Yb0 2.873937 1_445
Cu6 Cu8 2.471025 1_555
Cu6 Mg2 2.922405 1_455
Cu6 Mg1 2.922405 1_544
Cu6 Mg2 2.922409 1_555
Cu6 Mg2 2.922409 1_445
Cu6 Mg1 2.922409 1_554
Cu6 Mg1 2.922409 1_444
Cu7 Cu9 2.471027 1_455
Cu7 Mg3 2.922405 1_545
Cu7 Mg0 2.922405 1_455
Cu7 Mg3 2.922409 1_445
Cu7 Mg3 2.922409 1_555
Cu7 Mg0 2.922409 1_555
Cu7 Mg0 2.922409 1_445
Cu8 Mg2 2.891112 1_555
Cu8 Mg2 2.891112 1_455
Cu8 Mg1 2.904244 1_554
Cu8 Yb0 3.222480 1_555
Cu8 Yb0 3.222480 1_455
Cu9 Mg3 2.891113 1_655
Cu9 Mg3 2.891113 1_545
Cu9 Mg0 2.904240 1_555
Cu9 Yb1 3.222481 1_655
Cu9 Yb1 3.222481 1_545
Cu10 Cu9 2.466710 1_555
Cu10 Cu15 2.466710 1_555
Cu10 Cu7 2.471025 1_555
Cu10 Cu4 2.508276 1_555
Cu10 Cu9 2.511092 1_455
Cu10 Cu15 2.511092 1_445
Cu10 Mg3 2.891112 1_555
Cu10 Mg3 2.891112 1_545
Cu10 Mg0 2.904244 1_555
Cu10 Yb1 3.222480 1_555
Cu10 Yb1 3.222480 1_545
Cu11 Cu12 2.466710 1_555
Cu11 Cu8 2.466710 1_555
Cu11 Cu6 2.471025 1_665
Cu11 Cu5 2.508276 1_665
Cu11 Cu12 2.511092 1_655
Cu11 Cu8 2.511092 1_665
Cu11 Mg2 2.891112 1_555
Cu11 Mg2 2.891112 1_565
Cu11 Mg1 2.904244 1_554
Cu11 Yb0 3.222480 1_555
Cu11 Yb0 3.222480 1_565
Cu12 Cu8 2.466710 1_555
Cu12 Cu6 2.471027 1_565
Cu12 Cu5 2.508278 1_565
Cu12 Cu8 2.511092 1_565
Cu12 Mg2 2.891113 1_565
Cu12 Mg2 2.891113 1_455
Cu12 Mg1 2.904240 1_554
Cu12 Yb0 3.222481 1_565
Cu12 Yb0 3.222481 1_455
Cu13 Cu14 2.466710 1_555
Cu13 Cu16 2.466710 1_555
Cu13 Cu6 2.471025 1_666
Cu13 Cu4 2.508276 1_665
Cu13 Cu14 2.511092 1_565
Cu13 Cu16 2.511092 1_665
Cu13 Mg1 2.891112 1_555
Cu13 Mg1 2.891112 1_655
Cu13 Mg2 2.904244 1_556
Cu13 Yb1 3.222480 1_555
Cu13 Yb1 3.222480 1_655
Cu14 Cu16 2.466710 1_555
Cu14 Cu6 2.471027 1_656
Cu14 Cu4 2.508278 1_655
Cu14 Cu16 2.511092 1_655
Cu14 Mg1 2.891113 1_545
Cu14 Mg1 2.891113 1_655
Cu14 Mg2 2.904240 1_556
Cu14 Yb1 3.222481 1_655
Cu14 Yb1 3.222481 1_545
Cu15 Cu9 2.466710 1_555
Cu15 Cu7 2.471025 1_665
Cu15 Cu4 2.508276 1_665
Cu15 Cu9 2.511092 1_565
Cu15 Mg3 2.891112 1_555
Cu15 Mg3 2.891112 1_655
Cu15 Mg0 2.904244 1_555
Cu15 Yb1 3.222480 1_555
Cu15 Yb1 3.222480 1_655
Cu16 Cu6 2.471025 1_556
Cu16 Cu4 2.508276 1_555
Cu16 Mg1 2.891112 1_555
Cu16 Mg1 2.891112 1_545
Cu16 Mg2 2.904244 1_556
Cu16 Yb1 3.222480 1_555
Cu16 Yb1 3.222480 1_545
Cu17 Cu2 2.466710 1_555
Cu17 Cu3 2.466710 1_555
Cu17 Cu7 2.471025 1_665
Cu17 Cu5 2.508276 1_665
Cu17 Cu2 2.511092 1_655
Cu17 Cu3 2.511092 1_665
Cu17 Mg0 2.891112 1_555
Cu17 Mg0 2.891112 1_565
Cu17 Mg3 2.904244 1_555
Cu17 Yb0 3.222480 1_555
Cu17 Yb0 3.222480 1_565
