# generated using pymatgen
data_K6Al11Si13Ag5O48
_symmetry_space_group_name_H-M   'P 1'
_cell_length_a   12.66052909
_cell_length_b   12.65336914
_cell_length_c   12.04560330
_cell_angle_alpha   90.00000000
_cell_angle_beta   89.91809526
_cell_angle_gamma   90.00000000
_symmetry_Int_Tables_number   1
_chemical_formula_structural   K6Al11Si13Ag5O48
_chemical_formula_sum   'K6 Al11 Si13 Ag5 O48'
_cell_volume   1929.68377819
_cell_formula_units_Z   1
loop_
 _symmetry_equiv_pos_site_id
 _symmetry_equiv_pos_as_xyz
  1  'x, y, z'
loop_
 _atom_site_type_symbol
 _atom_site_label
 _atom_site_symmetry_multiplicity
 _atom_site_fract_x
 _atom_site_fract_y
 _atom_site_fract_z
 _atom_site_occupancy
  K  K0  1  0.54392163  0.38917209  0.95134343  1
  K  K1  1  0.54392163  0.61082791  0.95134343  1
  K  K2  1  0.74928911  0.23219619  0.75535947  1
  K  K3  1  0.74576040  0.24885489  0.24722648  1
  K  K4  1  0.74576040  0.75114511  0.24722648  1
  K  K5  1  0.74928911  0.76780381  0.75535947  1
  Al  Al0  1  0.36808902  0.18213703  0.00345552  1
  Al  Al1  1  0.36808902  0.81786297  0.00345552  1
  Al  Al2  1  0.37085714  0.00000000  0.80724735  1
  Al  Al3  1  0.62992833  0.17497580  0.00983196  1
  Al  Al4  1  0.62259105  0.00000000  0.21341729  1
  Al  Al5  1  0.62992833  0.82502420  0.00983196  1
  Al  Al6  1  0.62881292  0.00000000  0.80264959  1
  Al  Al7  1  0.81661733  0.37531305  0.99672180  1
  Al  Al8  1  0.81661733  0.62468695  0.99672180  1
  Al  Al9  1  0.83140201  0.00000000  0.36823964  1
  Al  Al10  1  0.84140984  0.00000000  0.63807467  1
  Si  Si0  1  0.00273816  0.37767308  0.18933345  1
  Si  Si1  1  0.00205425  0.18465277  0.63079110  1
  Si  Si2  1  0.00273816  0.62232692  0.18933345  1
  Si  Si3  1  0.99575909  0.81734107  0.36510580  1
  Si  Si4  1  0.00659393  0.37508773  0.80978879  1
  Si  Si5  1  0.00205425  0.81534723  0.63079110  1
  Si  Si6  1  0.18335884  0.62536607  0.00033755  1
  Si  Si7  1  0.18335884  0.37463393  0.00033755  1
  Si  Si8  1  0.17462890  0.00000000  0.62677504  1
  Si  Si9  1  0.16903374  0.00000000  0.36544458  1
  Si  Si10  1  0.36427715  0.00000000  0.19319569  1
  Si  Si11  1  0.99575909  0.18265893  0.36510580  1
  Si  Si12  1  0.00659393  0.62491227  0.80978879  1
  Ag  Ag0  1  0.19833199  0.81047284  0.80699740  1
  Ag  Ag1  1  0.19833199  0.18952716  0.80699740  1
  Ag  Ag2  1  0.19716006  0.79913499  0.19205762  1
  Ag  Ag3  1  0.19716006  0.20086501  0.19205762  1
  Ag  Ag4  1  0.77628398  0.00000000  0.00882080  1
  O  O0  1  0.01160287  0.29571670  0.29563322  1
  O  O1  1  0.99806116  0.21493230  0.49749028  1
  O  O2  1  0.01495104  0.50000000  0.23521204  1
  O  O3  1  0.01933922  0.29818838  0.69937423  1
  O  O4  1  0.01160287  0.70428330  0.29563322  1
  O  O5  1  0.01933922  0.70181162  0.69937423  1
  O  O6  1  0.10309016  0.10961208  0.33515915  1
  O  O7  1  0.10961205  0.35145157  0.11214629  1
  O  O8  1  0.11323669  0.34864637  0.88744453  1
  O  O9  1  0.10309016  0.89038792  0.33515915  1
  O  O10  1  0.10839213  0.11085719  0.65425795  1
  O  O11  1  0.10961205  0.64854843  0.11214629  1
  O  O12  1  0.11323669  0.65135363  0.88744453  1
  O  O13  1  0.10839213  0.88914281  0.65425795  1
  O  O14  1  0.21573274  0.50000000  0.99852259  1
  O  O15  1  0.19564026  0.00000000  0.49470271  1
  O  O16  1  0.28751698  0.30249658  0.00677829  1
  O  O17  1  0.28062133  0.00000000  0.69450412  1
  O  O18  1  0.28751698  0.69750342  0.00677829  1
  O  O19  1  0.27816839  0.00000000  0.29801021  1
  O  O20  1  0.33135728  0.10741168  0.12331709  1
  O  O21  1  0.33250426  0.11430883  0.88403714  1
  O  O22  1  0.33135728  0.89258832  0.12331709  1
  O  O23  1  0.33250426  0.88569117  0.88403714  1
  O  O24  1  0.49813378  0.21919801  0.01083459  1
  O  O25  1  0.49828411  0.00000000  0.76453410  1
  O  O26  1  0.49813378  0.78080199  0.01083459  1
  O  O27  1  0.48325761  0.00000000  0.23565199  1
  O  O28  1  0.66044544  0.10997280  0.13279535  1
  O  O29  1  0.66399083  0.10914260  0.88801830  1
  O  O30  1  0.66044544  0.89002720  0.13279535  1
  O  O31  1  0.66399083  0.89085740  0.88801830  1
  O  O32  1  0.71616664  0.00000000  0.68995693  1
  O  O33  1  0.70957636  0.29070564  0.00496917  1
  O  O34  1  0.70957636  0.70929436  0.00496917  1
  O  O35  1  0.70048160  0.00000000  0.33235189  1
  O  O36  1  0.75937024  0.50000000  0.98362922  1
  O  O37  1  0.87689246  0.00000000  0.50140191  1
  O  O38  1  0.89382853  0.12238804  0.31812057  1
  O  O39  1  0.89621306  0.36105115  0.11983711  1
  O  O40  1  0.89980169  0.35061345  0.87732807  1
  O  O41  1  0.89382853  0.87761196  0.31812057  1
  O  O42  1  0.90278397  0.12364548  0.68260765  1
  O  O43  1  0.89621306  0.63894885  0.11983711  1
  O  O44  1  0.89980169  0.64938655  0.87732807  1
  O  O45  1  0.90278397  0.87635452  0.68260765  1
  O  O46  1  0.01555765  0.50000000  0.77066198  1
  O  O47  1  0.99806116  0.78506770  0.49749028  1
loop_
_geom_bond_atom_site_label_1
_geom_bond_atom_site_label_2
_geom_bond_distance
_geom_bond_site_symmetry_2
K0 O24 2.339678 1_556
K0 O33 2.524291 1_556
K1 O26 2.339678 1_556
K1 O34 2.524291 1_556
K2 O29 2.477729 1_555
K2 O42 2.534997 1_555
K2 O40 2.835990 1_555
K2 O32 3.070776 1_555
K2 O33 3.136370 1_556
K3 O28 2.481754 1_555
K3 O38 2.609363 1_555
K3 O39 2.826662 1_555
K3 O33 3.001604 1_555
K4 O30 2.481754 1_555
K4 O41 2.609363 1_555
K4 O43 2.826662 1_555
K4 O34 3.001604 1_555
K5 O31 2.477729 1_555
K5 O45 2.534997 1_555
K5 O44 2.835990 1_555
K5 O32 3.070776 1_565
K5 O34 3.136370 1_556
Al0 O24 1.714345 1_555
Al0 O21 1.735111 1_554
Al0 O20 1.786880 1_555
Al0 O16 1.833425 1_555
Al1 O26 1.714345 1_555
Al1 O23 1.735111 1_554
Al1 O22 1.786880 1_555
Al1 O18 1.833425 1_555
Al2 O25 1.692648 1_555
Al2 O17 1.775927 1_555
Al2 O21 1.783852 1_555
Al2 O23 1.783852 1_545
Al3 O28 1.738186 1_555
Al3 O29 1.741006 1_554
Al3 O24 1.759939 1_555
Al3 O33 1.778902 1_555
Al4 O35 1.740390 1_555
Al4 O28 1.762900 1_555
Al4 O30 1.762900 1_545
Al4 O27 1.783873 1_555
Al5 O30 1.738186 1_555
Al5 O31 1.741006 1_554
Al5 O26 1.759939 1_555
Al5 O34 1.778902 1_555
Al6 O25 1.715789 1_555
Al6 O32 1.749713 1_555
Al6 O29 1.778854 1_555
Al6 O31 1.778854 1_545
Al7 O33 1.729785 1_556
Al7 O36 1.743465 1_555
Al7 O39 1.803228 1_556
Al7 O40 1.808541 1_555
Al8 O34 1.729785 1_556
Al8 O36 1.743465 1_555
Al8 O43 1.803228 1_556
Al8 O44 1.808541 1_555
Al9 O37 1.705057 1_555
Al9 O35 1.713564 1_555
Al9 O38 1.840106 1_555
Al9 O41 1.840106 1_545
Al10 O32 1.703527 1_555
Al10 O37 1.705877 1_555
Al10 O45 1.827698 1_545
Al10 O42 1.827698 1_555
Ag0 O23 2.158028 1_555
Ag0 O13 2.382961 1_555
Ag0 O12 2.480017 1_555
Ag1 O21 2.158028 1_555
Ag1 O10 2.382961 1_555
Ag1 O8 2.480017 1_555
Ag2 O22 2.228571 1_555
Ag2 O9 2.391041 1_555
Ag2 O11 2.405998 1_555
Ag3 O20 2.228571 1_555
Ag3 O6 2.391041 1_555
Ag3 O7 2.405998 1_555
Ag4 O29 2.460034 1_554
Ag4 O31 2.460034 1_544
Ag4 O28 2.512175 1_555
Ag4 O30 2.512175 1_545
O0 Si0 1.651655 1_555
O0 Si11 1.669300 1_455
O1 Si11 1.646407 1_555
O1 Si1 1.651611 1_655
O2 Si0 1.650876 1_555
O2 Si2 1.650876 1_555
O3 Si4 1.655642 1_555
O3 Si1 1.671745 1_555
O4 Si2 1.651655 1_555
O4 Si3 1.669300 1_455
O5 Si12 1.655642 1_555
O5 Si5 1.671745 1_555
O6 Si9 1.659712 1_555
O6 Si11 1.682128 1_455
O7 Si7 1.663754 1_555
O7 Si0 1.673851 1_555
O8 Si7 1.658002 1_556
O8 Si4 1.677336 1_555
O9 Si9 1.659712 1_565
O9 Si3 1.682128 1_455
O10 Si1 1.662953 1_555
O10 Si8 1.667229 1_555
O11 Si6 1.663754 1_555
O11 Si2 1.673851 1_555
O12 Si6 1.658002 1_556
O12 Si12 1.677336 1_555
O13 Si5 1.662953 1_555
O13 Si8 1.667229 1_565
O14 Si6 1.638537 1_556
O14 Si7 1.638537 1_556
O15 Si9 1.593485 1_555
O15 Si8 1.612603 1_555
O16 Si7 1.605753 1_555
O17 Si8 1.571455 1_555
O18 Si6 1.605753 1_555
O19 Si9 1.601782 1_555
O19 Si10 1.666915 1_555
O20 Si10 1.652400 1_555
O22 Si10 1.652400 1_565
O27 Si10 1.591494 1_555
O38 Si11 1.602930 1_555
O39 Si0 1.602229 1_655
O40 Si4 1.607064 1_655
O41 Si3 1.602930 1_555
O42 Si1 1.600881 1_655
O43 Si2 1.602229 1_655
O44 Si12 1.607064 1_655
O45 Si5 1.600881 1_655
O46 Si4 1.653187 1_555
O46 Si12 1.653187 1_555
O47 Si3 1.646407 1_555
O47 Si5 1.651611 1_655
