# generated using pymatgen
data_SrCo7N10
_symmetry_space_group_name_H-M   'P 1'
_cell_length_a   6.98547341
_cell_length_b   7.16509100
_cell_length_c   9.66557650
_cell_angle_alpha   90.00000000
_cell_angle_beta   107.24585008
_cell_angle_gamma   90.00000000
_symmetry_Int_Tables_number   1
_chemical_formula_structural   SrCo7N10
_chemical_formula_sum   'Sr2 Co14 N20'
_cell_volume   462.02717947
_cell_formula_units_Z   2
loop_
 _symmetry_equiv_pos_site_id
 _symmetry_equiv_pos_as_xyz
  1  'x, y, z'
loop_
 _atom_site_type_symbol
 _atom_site_label
 _atom_site_symmetry_multiplicity
 _atom_site_fract_x
 _atom_site_fract_y
 _atom_site_fract_z
 _atom_site_occupancy
  Sr  Sr0  1  0.90783200  0.01374200  0.64980100  1
  Sr  Sr1  1  0.90783200  0.98625800  0.14980100  1
  Co  Co0  1  0.54237800  0.97093400  0.83281000  1
  Co  Co1  1  0.54237800  0.02906600  0.33281000  1
  Co  Co2  1  0.36241300  0.03188100  0.01870000  1
  Co  Co3  1  0.36241300  0.96811900  0.51870000  1
  Co  Co4  1  0.10036800  0.37781500  0.07138200  1
  Co  Co5  1  0.10036800  0.62218500  0.57138200  1
  Co  Co6  1  0.65812200  0.37344700  0.99172700  1
  Co  Co7  1  0.65812200  0.62655300  0.49172700  1
  Co  Co8  1  0.84545500  0.63214300  0.81399000  1
  Co  Co9  1  0.84545500  0.36785700  0.31399000  1
  Co  Co10  1  0.28612400  0.63524800  0.87984600  1
  Co  Co11  1  0.28612400  0.36475200  0.37984600  1
  Co  Co12  1  0.47941900  0.36648400  0.68611300  1
  Co  Co13  1  0.47941900  0.63351600  0.18611300  1
  N  N0  1  0.76982200  0.85285900  0.85758200  1
  N  N1  1  0.76982200  0.14714100  0.35758200  1
  N  N2  1  0.57861300  0.13871800  0.98248700  1
  N  N3  1  0.57861300  0.86128200  0.48248700  1
  N  N4  1  0.31205800  0.87767600  0.86122400  1
  N  N5  1  0.31205800  0.12232400  0.36122400  1
  N  N6  1  0.15066500  0.15837100  0.01715200  1
  N  N7  1  0.15066500  0.84162900  0.51715200  1
  N  N8  1  0.29680800  0.52044400  0.71698800  1
  N  N9  1  0.29680800  0.47955600  0.21698800  1
  N  N10  1  0.47495200  0.11031500  0.67369400  1
  N  N11  1  0.47495200  0.88968500  0.17369400  1
  N  N12  1  0.88785500  0.37917400  0.13910500  1
  N  N13  1  0.88785500  0.62082600  0.63910500  1
  N  N14  1  0.08221200  0.55971800  0.93971000  1
  N  N15  1  0.08221200  0.44028200  0.43971000  1
  N  N16  1  0.70287400  0.42908600  0.82087000  1
  N  N17  1  0.70287400  0.57091400  0.32087000  1
  N  N18  1  0.50433100  0.55916800  0.01611900  1
  N  N19  1  0.50433100  0.44083200  0.51611900  1
loop_
_geom_bond_atom_site_label_1
_geom_bond_atom_site_label_2
_geom_bond_distance
_geom_bond_site_symmetry_2
Co0 N0 1.752658 1_555
Co0 N10 1.776223 1_565
Co0 N4 1.836426 1_555
Co0 N2 1.839885 1_565
Co1 N1 1.752658 1_555
Co1 N11 1.776223 1_545
Co1 N5 1.836426 1_555
Co1 N3 1.839885 1_545
Co2 N6 1.731016 1_555
Co2 N11 1.789431 1_545
Co2 N2 1.817368 1_554
Co2 N4 1.828615 1_544
Co3 N7 1.731016 1_555
Co3 N10 1.789431 1_565
Co3 N3 1.817368 1_555
Co3 N5 1.828615 1_565
Co4 N6 1.726162 1_555
Co4 N12 1.791230 1_455
Co4 N14 1.799675 1_554
Co4 N9 1.802773 1_555
Co5 N7 1.726162 1_555
Co5 N13 1.791230 1_455
Co5 N15 1.799675 1_555
Co5 N8 1.802773 1_555
Co6 N2 1.765128 1_555
Co6 N18 1.769372 1_556
Co6 N12 1.802982 1_556
Co6 N16 1.813835 1_555
Co7 N3 1.765128 1_555
Co7 N19 1.769372 1_555
Co7 N13 1.802982 1_555
Co7 N17 1.813835 1_555
Co8 N0 1.757738 1_555
Co8 N16 1.775528 1_555
Co8 N13 1.802358 1_555
Co8 N14 1.813700 1_655
Co9 N1 1.757738 1_555
Co9 N17 1.775528 1_555
Co9 N12 1.802358 1_555
Co9 N15 1.813700 1_655
Co10 N4 1.761189 1_555
Co10 N14 1.773516 1_555
Co10 N18 1.779051 1_556
Co10 N8 1.797140 1_555
Co11 N5 1.761189 1_555
Co11 N15 1.773516 1_555
Co11 N19 1.779051 1_555
Co11 N9 1.797140 1_555
Co12 N16 1.768816 1_555
Co12 N8 1.777332 1_555
Co12 N19 1.784195 1_555
Co12 N10 1.839056 1_555
Co13 N17 1.768816 1_555
Co13 N9 1.777332 1_555
Co13 N18 1.784195 1_555
Co13 N11 1.839056 1_555
N0 Sr0 2.727568 1_565
N0 Sr1 2.864618 1_556
N1 Sr1 2.727568 1_545
N1 Sr0 2.864618 1_555
N2 Sr1 2.625304 1_546
N3 Sr0 2.625304 1_565
N4 Sr0 3.111001 1_465
N5 Sr1 3.111001 1_445
N6 Sr1 2.707707 1_445
N7 Sr0 2.707707 1_465
N10 Sr0 3.176477 1_555
N11 Sr1 3.176477 1_555
N12 Sr1 2.819114 1_545
N13 Sr0 2.819114 1_565
