# generated using pymatgen
data_Sr4CaPr2Cu4HgO14
_symmetry_space_group_name_H-M   'P 1'
_cell_length_a   13.02869790
_cell_length_b   13.02869790
_cell_length_c   13.02869790
_cell_angle_alpha   156.15343795
_cell_angle_beta   156.15343795
_cell_angle_gamma   33.97691181
_symmetry_Int_Tables_number   1
_chemical_formula_structural   Sr4CaPr2Cu4HgO14
_chemical_formula_sum   'Sr4 Ca1 Pr2 Cu4 Hg1 O14'
_cell_volume   361.12217077
_cell_formula_units_Z   1
loop_
 _symmetry_equiv_pos_site_id
 _symmetry_equiv_pos_as_xyz
  1  'x, y, z'
loop_
 _atom_site_type_symbol
 _atom_site_label
 _atom_site_symmetry_multiplicity
 _atom_site_fract_x
 _atom_site_fract_y
 _atom_site_fract_z
 _atom_site_occupancy
  Sr  Sr0  1  0.60491200  0.10491200  0.50000000  1
  Sr  Sr1  1  0.10649400  0.60649400  0.50000000  1
  Sr  Sr2  1  0.89508800  0.39508800  0.50000000  1
  Sr  Sr3  1  0.39350600  0.89350600  0.50000000  1
  Ca  Ca0  1  0.25000000  0.75000000  0.50000000  1
  Pr  Pr0  1  0.75000000  0.25000000  0.50000000  1
  Pr  Pr1  1  0.00000000  0.00000000  0.00000000  1
  Cu  Cu0  1  0.17671700  0.17671700  0.00000000  1
  Cu  Cu1  1  0.67865000  0.67865000  0.00000000  1
  Cu  Cu2  1  0.32135000  0.32135000  0.00000000  1
  Cu  Cu3  1  0.82328300  0.82328300  0.00000000  1
  Hg  Hg0  1  0.50000000  0.50000000  0.00000000  1
  O  O0  1  0.43747800  0.93530200  0.99994200  1
  O  O1  1  0.93536100  0.43753600  0.00005800  1
  O  O2  1  0.56246400  0.06463900  0.99994200  1
  O  O3  1  0.06469800  0.56252200  0.00005800  1
  O  O4  1  0.93536100  0.93530200  0.49782400  1
  O  O5  1  0.43747800  0.43753600  0.50217600  1
  O  O6  1  0.06469800  0.06463900  0.50217600  1
  O  O7  1  0.56246400  0.56252200  0.49782400  1
  O  O8  1  0.00002800  0.50002800  0.50000000  1
  O  O9  1  0.49997200  0.99997200  0.50000000  1
  O  O10  1  0.09060400  0.09060400  0.00000000  1
  O  O11  1  0.58620000  0.58620000  0.00000000  1
  O  O12  1  0.41380000  0.41380000  0.00000000  1
  O  O13  1  0.90939600  0.90939600  0.00000000  1
loop_
_geom_bond_atom_site_label_1
_geom_bond_atom_site_label_2
_geom_bond_distance
_geom_bond_site_symmetry_2
Ca0 O4 2.476379 1_455
Ca0 O6 2.476379 1_565
Ca0 O1 2.476382 1_455
Ca0 O2 2.476382 1_565
Ca0 O7 2.476390 1_555
Ca0 O3 2.476390 1_555
Ca0 O5 2.476390 1_555
Ca0 O0 2.476390 1_555
Cu0 O1 1.926866 1_455
Cu0 O0 1.926868 1_544
Cu0 O5 1.926868 1_555
Cu0 O4 1.926870 1_444
Cu0 O10 2.145966 1_555
Cu1 O0 1.904937 1_554
Cu1 O5 1.904937 1_554
Cu1 O4 1.904938 1_555
Cu1 O1 1.904942 1_555
Cu1 O11 2.303886 1_555
Cu2 O3 1.904937 1_555
Cu2 O7 1.904937 1_555
Cu2 O6 1.904938 1_554
Cu2 O2 1.904942 1_554
Cu2 O12 2.303886 1_555
Cu3 O2 1.926866 1_564
Cu3 O3 1.926868 1_655
Cu3 O7 1.926868 1_554
Cu3 O6 1.926870 1_665
Cu3 O13 2.145966 1_555
Hg0 O12 2.148134 1_555
Hg0 O11 2.148134 1_555
Hg0 O9 2.691752 1_544
Hg0 O8 2.691752 1_554
Hg0 O8 2.691752 1_655
Hg0 O9 2.691752 1_555
O0 Pr0 2.476729 1_566
O0 Sr1 2.754831 1_555
O0 Sr0 2.783770 1_566
O1 Pr0 2.476721 1_554
O1 Sr1 2.754840 1_655
O1 Sr0 2.783779 1_554
O2 Pr0 2.476721 1_556
O2 Sr3 2.754840 1_545
O2 Sr2 2.783779 1_556
O3 Pr0 2.476729 1_454
O3 Sr3 2.754831 1_555
O3 Sr2 2.783770 1_454
O4 Pr0 2.476724 1_565
O4 Sr1 2.754838 1_655
O4 Sr0 2.783782 1_565
O5 Pr0 2.476729 1_555
O5 Sr1 2.754831 1_555
O5 Sr0 2.783770 1_555
O6 Pr0 2.476724 1_455
O6 Sr3 2.754838 1_545
O6 Sr2 2.783782 1_455
O7 Pr0 2.476729 1_555
O7 Sr3 2.754831 1_555
O7 Sr2 2.783770 1_555
O8 Sr2 2.615141 1_455
O8 Sr1 2.653170 1_555
O8 Pr1 2.691752 1_555
O8 Pr1 2.691752 1_566
O9 Sr0 2.615141 1_565
O9 Sr3 2.653170 1_555
O9 Pr1 2.691752 1_666
O9 Pr1 2.691752 1_565
O10 Pr1 2.257883 1_555
O10 Sr0 2.715265 1_555
O10 Sr0 2.715265 1_454
O10 Sr1 2.720723 1_544
O10 Sr1 2.720723 1_555
O11 Sr0 2.731844 1_565
O11 Sr0 2.731844 1_554
O11 Sr1 2.738849 1_554
O11 Sr1 2.738849 1_655
O12 Sr2 2.731844 1_454
O12 Sr2 2.731844 1_555
O12 Sr3 2.738849 1_544
O12 Sr3 2.738849 1_555
O13 Pr1 2.257883 1_665
O13 Sr2 2.715265 1_554
O13 Sr2 2.715265 1_565
O13 Sr3 2.720723 1_554
O13 Sr3 2.720723 1_655
