# generated using pymatgen
data_Sr3CaMn2O8
_symmetry_space_group_name_H-M   'P 1'
_cell_length_a   5.41053586
_cell_length_b   5.40995180
_cell_length_c   13.02258757
_cell_angle_alpha   77.99585313
_cell_angle_beta   77.99583412
_cell_angle_gamma   89.97614140
_symmetry_Int_Tables_number   1
_chemical_formula_structural   Sr3CaMn2O8
_chemical_formula_sum   'Sr6 Ca2 Mn4 O16'
_cell_volume   364.32631050
_cell_formula_units_Z   2
loop_
 _symmetry_equiv_pos_site_id
 _symmetry_equiv_pos_as_xyz
  1  'x, y, z'
loop_
 _atom_site_type_symbol
 _atom_site_label
 _atom_site_symmetry_multiplicity
 _atom_site_fract_x
 _atom_site_fract_y
 _atom_site_fract_z
 _atom_site_occupancy
  Sr  Sr0  1  0.17830600  0.17826000  0.64398200  1
  Sr  Sr1  1  0.67822000  0.67825800  0.64399100  1
  Sr  Sr2  1  0.32447300  0.32445100  0.35072600  1
  Sr  Sr3  1  0.82443000  0.82445200  0.35071700  1
  Sr  Sr4  1  0.07082900  0.57081400  0.85810000  1
  Sr  Sr5  1  0.57082000  0.07080500  0.85808400  1
  Ca  Ca0  1  0.42922200  0.92918200  0.14228600  1
  Ca  Ca1  1  0.92921000  0.42922800  0.14230500  1
  Mn  Mn0  1  0.49789100  0.49781100  0.00447100  1
  Mn  Mn1  1  0.99776000  0.99777200  0.00438700  1
  Mn  Mn2  1  0.25180800  0.75196500  0.49616700  1
  Mn  Mn3  1  0.75191800  0.25195700  0.49617800  1
  O  O0  1  0.33200500  0.83200600  0.33608400  1
  O  O1  1  0.83205600  0.33204000  0.33607800  1
  O  O2  1  0.07719200  0.07718400  0.84554500  1
  O  O3  1  0.57719600  0.57720400  0.84552300  1
  O  O4  1  0.42061700  0.42061300  0.15846900  1
  O  O5  1  0.92056200  0.92058200  0.15849500  1
  O  O6  1  0.17227100  0.67229900  0.65536500  1
  O  O7  1  0.67232500  0.17231300  0.65536400  1
  O  O8  1  0.24637600  0.24629700  0.00718000  1
  O  O9  1  0.74636700  0.74633100  0.00717300  1
  O  O10  1  0.74630200  0.24628900  0.00719600  1
  O  O11  1  0.24628500  0.74629300  0.00720700  1
  O  O12  1  0.50141100  0.00137300  0.49724100  1
  O  O13  1  0.00142200  0.50142500  0.49722900  1
  O  O14  1  0.00137300  0.00137400  0.49722700  1
  O  O15  1  0.50136000  0.50142700  0.49722800  1
loop_
_geom_bond_atom_site_label_1
_geom_bond_atom_site_label_2
_geom_bond_distance
_geom_bond_site_symmetry_2
Ca0 O0 2.412161 1_555
Ca0 O10 2.544162 1_565
Ca0 O8 2.546478 1_565
Ca0 O9 2.546677 1_555
Ca0 O11 2.549906 1_555
Ca0 O5 2.709817 1_555
Ca0 O4 2.709927 1_565
Ca0 O4 2.715006 1_555
Ca0 O5 2.715746 1_455
Ca1 O1 2.411850 1_555
Ca1 O11 2.544069 1_655
Ca1 O9 2.546649 1_555
Ca1 O8 2.547066 1_655
Ca1 O10 2.550299 1_555
Ca1 O5 2.709538 1_555
Ca1 O4 2.710015 1_655
Ca1 O5 2.715409 1_545
Ca1 O4 2.715465 1_555
Mn0 O9 1.912357 1_555
Mn0 O10 1.912456 1_555
Mn0 O11 1.913053 1_555
Mn0 O8 1.914721 1_555
Mn0 O4 1.916779 1_555
Mn0 O3 1.978391 1_554
Mn1 O10 1.912636 1_565
Mn1 O11 1.912749 1_655
Mn1 O8 1.913280 1_665
Mn1 O9 1.913697 1_555
Mn1 O5 1.918148 1_555
Mn1 O2 1.977071 1_664
Mn2 O14 1.911861 1_565
Mn2 O13 1.912730 1_555
Mn2 O15 1.912801 1_555
Mn2 O12 1.913584 1_565
Mn2 O6 1.981502 1_555
Mn2 O0 1.992517 1_555
Mn3 O15 1.912564 1_555
Mn3 O14 1.912601 1_655
Mn3 O13 1.913344 1_655
Mn3 O12 1.913358 1_555
Mn3 O7 1.981353 1_555
Mn3 O1 1.992729 1_555
O0 Sr2 2.709880 1_565
O0 Sr3 2.710027 1_555
O0 Sr2 2.712337 1_555
O0 Sr3 2.712758 1_455
O1 Sr3 2.709691 1_555
O1 Sr2 2.710037 1_655
O1 Sr3 2.712522 1_545
O1 Sr2 2.712773 1_555
O2 Sr0 2.508810 1_555
O2 Sr4 2.709016 1_555
O2 Sr5 2.709238 1_555
O2 Sr4 2.709956 1_545
O2 Sr5 2.710294 1_455
O3 Sr1 2.508424 1_555
O3 Sr5 2.708880 1_565
O3 Sr4 2.709395 1_655
O3 Sr5 2.710101 1_555
O3 Sr4 2.710192 1_555
O4 Sr2 2.392980 1_555
O5 Sr3 2.392544 1_555
O6 Sr4 2.523397 1_555
O6 Sr0 2.707255 1_555
O6 Sr1 2.707577 1_455
O6 Sr0 2.710114 1_565
O6 Sr1 2.710363 1_555
O7 Sr5 2.523211 1_555
O7 Sr1 2.707307 1_545
O7 Sr0 2.707431 1_555
O7 Sr1 2.710048 1_555
O7 Sr0 2.710519 1_655
O8 Sr5 2.664650 1_554
O8 Sr4 2.664820 1_554
O9 Sr4 2.664569 1_654
O9 Sr5 2.664780 1_564
O10 Sr4 2.664918 1_654
O10 Sr5 2.666065 1_554
O11 Sr5 2.665065 1_564
O11 Sr4 2.665923 1_554
O12 Sr3 2.642466 1_545
O12 Sr2 2.642556 1_555
O12 Sr1 2.644321 1_545
O12 Sr0 2.644475 1_555
O13 Sr2 2.642521 1_555
O13 Sr3 2.642539 1_455
O13 Sr0 2.644693 1_555
O13 Sr1 2.644774 1_455
O14 Sr2 2.641758 1_555
O14 Sr1 2.643545 1_445
O14 Sr3 2.644439 1_445
O14 Sr0 2.647094 1_555
O15 Sr3 2.641590 1_555
O15 Sr0 2.643354 1_555
O15 Sr2 2.644342 1_555
O15 Sr1 2.646831 1_555
