# generated using pymatgen
data_MgNiBiO5
_symmetry_space_group_name_H-M   'P 1'
_cell_length_a   10.46188200
_cell_length_b   5.36159800
_cell_length_c   8.30520732
_cell_angle_alpha   70.34453873
_cell_angle_beta   90.00000000
_cell_angle_gamma   90.00000000
_symmetry_Int_Tables_number   1
_chemical_formula_structural   MgNiBiO5
_chemical_formula_sum   'Mg4 Ni4 Bi4 O20'
_cell_volume   438.71452231
_cell_formula_units_Z   4
loop_
 _symmetry_equiv_pos_site_id
 _symmetry_equiv_pos_as_xyz
  1  'x, y, z'
loop_
 _atom_site_type_symbol
 _atom_site_label
 _atom_site_symmetry_multiplicity
 _atom_site_fract_x
 _atom_site_fract_y
 _atom_site_fract_z
 _atom_site_occupancy
  Mg  Mg0  1  0.09064600  0.53206700  0.83192100  1
  Mg  Mg1  1  0.90935400  0.46793300  0.16807900  1
  Mg  Mg2  1  0.59064600  0.46793300  0.66807900  1
  Mg  Mg3  1  0.40935400  0.53206700  0.33192100  1
  Ni  Ni0  1  0.38413500  0.12001500  0.06054600  1
  Ni  Ni1  1  0.61586500  0.87998500  0.93945400  1
  Ni  Ni2  1  0.88413500  0.87998500  0.43945400  1
  Ni  Ni3  1  0.11586500  0.12001500  0.56054600  1
  Bi  Bi0  1  0.89521200  0.02684800  0.84233800  1
  Bi  Bi1  1  0.10478800  0.97315200  0.15766200  1
  Bi  Bi2  1  0.60478800  0.02684800  0.34233800  1
  Bi  Bi3  1  0.39521200  0.97315200  0.65766200  1
  O  O0  1  0.95625400  0.84491600  0.65722600  1
  O  O1  1  0.03310700  0.30181500  0.68471900  1
  O  O2  1  0.79079300  0.18566600  0.30791200  1
  O  O3  1  0.45805100  0.75220400  0.49375000  1
  O  O4  1  0.71981300  0.71498000  0.50452700  1
  O  O5  1  0.78018700  0.71498000  0.00452700  1
  O  O6  1  0.46689300  0.30181500  0.18471900  1
  O  O7  1  0.53310700  0.69818500  0.81528100  1
  O  O8  1  0.54194900  0.24779600  0.50625000  1
  O  O9  1  0.45625400  0.15508400  0.84277400  1
  O  O10  1  0.28018700  0.28502000  0.49547300  1
  O  O11  1  0.04374600  0.15508400  0.34277400  1
  O  O12  1  0.54374600  0.84491600  0.15722600  1
  O  O13  1  0.21981300  0.28502000  0.99547300  1
  O  O14  1  0.95805100  0.24779600  0.00625000  1
  O  O15  1  0.04194900  0.75220400  0.99375000  1
  O  O16  1  0.20920700  0.81433400  0.69208800  1
  O  O17  1  0.96689300  0.69818500  0.31528100  1
  O  O18  1  0.29079300  0.81433400  0.19208800  1
  O  O19  1  0.70920700  0.18566600  0.80791200  1
loop_
_geom_bond_atom_site_label_1
_geom_bond_atom_site_label_2
_geom_bond_distance
_geom_bond_site_symmetry_2
Mg0 O16 1.998813 1_555
Mg0 O13 2.053112 1_555
Mg0 O1 2.096742 1_555
Mg0 O15 2.127485 1_555
Mg0 O14 2.204325 1_456
Mg0 O0 2.293087 1_455
Mg1 O2 1.998813 1_555
Mg1 O5 2.053112 1_555
Mg1 O17 2.096742 1_555
Mg1 O14 2.127485 1_555
Mg1 O15 2.204325 1_654
Mg1 O11 2.293087 1_655
Mg2 O19 1.998813 1_555
Mg2 O4 2.053112 1_555
Mg2 O7 2.096742 1_555
Mg2 O8 2.127485 1_555
Mg2 O3 2.204325 1_555
Mg2 O9 2.293087 1_555
Mg3 O18 1.998813 1_555
Mg3 O10 2.053112 1_555
Mg3 O6 2.096742 1_555
Mg3 O3 2.127485 1_555
Mg3 O8 2.204325 1_555
Mg3 O12 2.293087 1_555
Ni0 O6 1.854595 1_555
Ni0 O18 1.904923 1_545
Ni0 O9 1.909721 1_554
Ni0 O13 1.925740 1_554
Ni0 O12 2.193598 1_545
Ni1 O7 1.854595 1_555
Ni1 O19 1.904923 1_565
Ni1 O12 1.909721 1_556
Ni1 O5 1.925740 1_556
Ni1 O9 2.193598 1_565
Ni2 O17 1.854595 1_555
Ni2 O2 1.904923 1_565
Ni2 O0 1.909721 1_555
Ni2 O4 1.925740 1_555
Ni2 O11 2.193598 1_665
Ni3 O1 1.854595 1_555
Ni3 O16 1.904923 1_545
Ni3 O11 1.909721 1_555
Ni3 O10 1.925740 1_555
Ni3 O0 2.193598 1_445
Bi0 O19 2.104713 1_555
Bi0 O5 2.131501 1_546
Bi0 O1 2.161020 1_655
Bi0 O0 2.175259 1_545
Bi0 O14 2.184866 1_556
Bi0 O15 2.204687 1_645
Bi1 O18 2.104713 1_555
Bi1 O13 2.131501 1_564
Bi1 O17 2.161020 1_455
Bi1 O11 2.175259 1_565
Bi1 O15 2.184866 1_554
Bi1 O14 2.204687 1_465
Bi2 O2 2.104713 1_555
Bi2 O4 2.131501 1_545
Bi2 O6 2.161020 1_555
Bi2 O12 2.175259 1_545
Bi2 O8 2.184866 1_555
Bi2 O3 2.204687 1_545
Bi3 O16 2.104713 1_555
Bi3 O10 2.131501 1_565
Bi3 O7 2.161020 1_555
Bi3 O9 2.175259 1_565
Bi3 O3 2.184866 1_555
Bi3 O8 2.204687 1_565
