# generated using pymatgen
data_DySbO4
_symmetry_space_group_name_H-M   'P 1'
_cell_length_a   5.33562690
_cell_length_b   7.47763107
_cell_length_c   7.57373843
_cell_angle_alpha   81.14273296
_cell_angle_beta   90.00000000
_cell_angle_gamma   90.00000000
_symmetry_Int_Tables_number   1
_chemical_formula_structural   DySbO4
_chemical_formula_sum   'Dy4 Sb4 O16'
_cell_volume   298.57242223
_cell_formula_units_Z   4
loop_
 _symmetry_equiv_pos_site_id
 _symmetry_equiv_pos_as_xyz
  1  'x, y, z'
loop_
 _atom_site_type_symbol
 _atom_site_label
 _atom_site_symmetry_multiplicity
 _atom_site_fract_x
 _atom_site_fract_y
 _atom_site_fract_z
 _atom_site_occupancy
  Dy  Dy0  1  0.72543177  0.89034255  0.35536216  1
  Dy  Dy1  1  0.27456823  0.10965745  0.64463784  1
  Dy  Dy2  1  0.77456823  0.39034255  0.35536216  1
  Dy  Dy3  1  0.22543177  0.60965745  0.64463784  1
  Sb  Sb0  1  0.76887930  0.30655541  0.83653617  1
  Sb  Sb1  1  0.23112070  0.69344459  0.16346383  1
  Sb  Sb2  1  0.26887930  0.19344459  0.16346383  1
  Sb  Sb3  1  0.73112070  0.80655541  0.83653617  1
  O  O0  1  0.90670786  0.80698585  0.06646776  1
  O  O1  1  0.09329214  0.19301415  0.93353224  1
  O  O2  1  0.37958338  0.93913207  0.17025119  1
  O  O3  1  0.62041662  0.06086793  0.82974881  1
  O  O4  1  0.12041662  0.43913207  0.17025119  1
  O  O5  1  0.87958338  0.56086793  0.82974881  1
  O  O6  1  0.59329214  0.30698585  0.06646776  1
  O  O7  1  0.40670786  0.69301415  0.93353224  1
  O  O8  1  0.97721408  0.32566694  0.61406345  1
  O  O9  1  0.02278592  0.67433306  0.38593655  1
  O  O10  1  0.47721408  0.17433306  0.38593655  1
  O  O11  1  0.52278592  0.82566694  0.61406345  1
  O  O12  1  0.50887179  0.61991312  0.32379134  1
  O  O13  1  0.49112821  0.38008688  0.67620866  1
  O  O14  1  0.99112821  0.11991312  0.32379134  1
  O  O15  1  0.00887179  0.88008688  0.67620866  1
loop_
_geom_bond_atom_site_label_1
_geom_bond_atom_site_label_2
_geom_bond_distance
_geom_bond_site_symmetry_2
Dy0 O14 2.210744 1_565
Dy0 O11 2.224897 1_555
Dy0 O9 2.250477 1_655
Dy0 O2 2.312216 1_555
Dy0 O12 2.372844 1_555
Dy0 O10 2.543355 1_565
Dy0 O0 2.555661 1_555
Dy0 O15 2.853169 1_655
Dy1 O15 2.210744 1_545
Dy1 O10 2.224897 1_555
Dy1 O8 2.250477 1_455
Dy1 O3 2.312216 1_555
Dy1 O13 2.372844 1_555
Dy1 O11 2.543355 1_545
Dy1 O1 2.555661 1_555
Dy1 O14 2.853169 1_455
Dy2 O12 2.210744 1_555
Dy2 O8 2.224897 1_555
Dy2 O10 2.250477 1_555
Dy2 O4 2.312216 1_655
Dy2 O14 2.372844 1_555
Dy2 O9 2.543355 1_655
Dy2 O6 2.555661 1_555
Dy2 O13 2.853169 1_555
Dy3 O13 2.210744 1_555
Dy3 O9 2.224897 1_555
Dy3 O11 2.250477 1_555
Dy3 O5 2.312216 1_455
Dy3 O15 2.372844 1_555
Dy3 O8 2.543355 1_455
Dy3 O7 2.555661 1_555
Dy3 O12 2.853169 1_555
O0 Sb3 1.977897 1_554
O0 Sb1 2.016088 1_655
O1 Sb2 1.977897 1_556
O1 Sb0 2.016088 1_455
O2 Sb2 1.984371 1_565
O2 Sb1 2.008574 1_555
O3 Sb3 1.984371 1_545
O3 Sb0 2.008574 1_555
O4 Sb1 1.984371 1_555
O4 Sb2 2.008574 1_555
O5 Sb0 1.984371 1_555
O5 Sb3 2.008574 1_555
O6 Sb0 1.977897 1_554
O6 Sb2 2.016088 1_555
O7 Sb1 1.977897 1_556
O7 Sb3 2.016088 1_555
O8 Sb0 2.005237 1_555
O9 Sb1 2.005237 1_555
O10 Sb2 2.005237 1_555
O11 Sb3 2.005237 1_555
O12 Sb1 1.940991 1_555
O13 Sb0 1.940991 1_555
O14 Sb2 1.940991 1_655
O15 Sb3 1.940991 1_455
