# generated using pymatgen
data_VPd3
_symmetry_space_group_name_H-M   'P 1'
_cell_length_a   18.17934088
_cell_length_b   18.17934088
_cell_length_c   18.17934146
_cell_angle_alpha   17.55423336
_cell_angle_beta   17.55423336
_cell_angle_gamma   17.55423156
_symmetry_Int_Tables_number   1
_chemical_formula_structural   VPd3
_chemical_formula_sum   'V8 Pd24'
_cell_volume   477.01862317
_cell_formula_units_Z   8
loop_
 _symmetry_equiv_pos_site_id
 _symmetry_equiv_pos_as_xyz
  1  'x, y, z'
loop_
 _atom_site_type_symbol
 _atom_site_label
 _atom_site_symmetry_multiplicity
 _atom_site_fract_x
 _atom_site_fract_y
 _atom_site_fract_z
 _atom_site_occupancy
  V  V0_0  1  0.00000000  0.00000000  0.00000000  1
  V  V0_1  1  0.00000000  0.00000000  0.50000000  1
  V  V0_2  1  0.00000000  0.50000000  0.00000000  1
  V  V0_3  1  0.00000000  0.50000000  0.50000000  1
  V  V0_4  1  0.50000000  0.00000000  0.00000000  1
  V  V0_5  1  0.50000000  0.00000000  0.50000000  1
  V  V0_6  1  0.50000000  0.50000000  0.00000000  1
  V  V0_7  1  0.50000000  0.50000000  0.50000000  1
  Pd  Pd0_0  1  0.12744050  0.12744050  0.12744050  1
  Pd  Pd0_1  1  0.12744050  0.12744050  0.62744050  1
  Pd  Pd0_2  1  0.12744050  0.62744050  0.12744050  1
  Pd  Pd0_3  1  0.12744050  0.62744050  0.62744050  1
  Pd  Pd0_4  1  0.62744050  0.12744050  0.12744050  1
  Pd  Pd0_5  1  0.62744050  0.12744050  0.62744050  1
  Pd  Pd0_6  1  0.62744050  0.62744050  0.12744050  1
  Pd  Pd0_7  1  0.62744050  0.62744050  0.62744050  1
  Pd  Pd1_0  1  0.25000000  0.25000000  0.25000000  1
  Pd  Pd1_1  1  0.25000000  0.25000000  0.75000000  1
  Pd  Pd1_2  1  0.25000000  0.75000000  0.25000000  1
  Pd  Pd1_3  1  0.25000000  0.75000000  0.75000000  1
  Pd  Pd1_4  1  0.75000000  0.25000000  0.25000000  1
  Pd  Pd1_5  1  0.75000000  0.25000000  0.75000000  1
  Pd  Pd1_6  1  0.75000000  0.75000000  0.25000000  1
  Pd  Pd1_7  1  0.75000000  0.75000000  0.75000000  1
  Pd  Pd2_0  1  0.37255950  0.37255950  0.37255950  1
  Pd  Pd2_1  1  0.37255950  0.37255950  0.87255950  1
  Pd  Pd2_2  1  0.37255950  0.87255950  0.37255950  1
  Pd  Pd2_3  1  0.37255950  0.87255950  0.87255950  1
  Pd  Pd2_4  1  0.87255950  0.37255950  0.37255950  1
  Pd  Pd2_5  1  0.87255950  0.37255950  0.87255950  1
  Pd  Pd2_6  1  0.87255950  0.87255950  0.37255950  1
  Pd  Pd2_7  1  0.87255950  0.87255950  0.87255950  1
loop_
_geom_bond_atom_site_label_1
_geom_bond_atom_site_label_2
_geom_bond_distance
_geom_bond_site_symmetry_2
Pd0_0 V0_2 2.645682 1_555
Pd0_0 V0_4 2.645682 1_555
Pd0_0 V0_1 2.645682 1_555
Pd0_0 Pd1_2 2.858655 1_545
Pd0_0 Pd1_4 2.858655 1_455
Pd0_0 Pd1_1 2.858655 1_554
Pd0_1 V0_3 2.645682 1_555
Pd0_1 V0_5 2.645682 1_555
Pd0_1 V0_0 2.645682 1_556
Pd0_1 Pd1_5 2.858655 1_455
Pd0_1 Pd1_3 2.858655 1_545
Pd0_1 Pd1_0 2.858655 1_555
Pd0_2 V0_0 2.645682 1_565
Pd0_2 V0_6 2.645682 1_555
Pd0_2 V0_3 2.645682 1_555
Pd0_2 Pd1_0 2.858655 1_555
Pd0_2 Pd1_6 2.858655 1_455
Pd0_2 Pd1_3 2.858655 1_554
Pd0_3 V0_1 2.645682 1_565
Pd0_3 V0_7 2.645682 1_555
Pd0_3 V0_2 2.645682 1_556
Pd0_3 Pd1_7 2.858655 1_455
Pd0_3 Pd1_1 2.858655 1_555
Pd0_3 Pd1_2 2.858655 1_555
Pd0_4 V0_6 2.645682 1_555
Pd0_4 V0_0 2.645682 1_655
Pd0_4 V0_5 2.645682 1_555
Pd0_4 Pd1_0 2.858655 1_555
Pd0_4 Pd1_6 2.858655 1_545
Pd0_4 Pd1_5 2.858655 1_554
Pd0_5 V0_7 2.645682 1_555
Pd0_5 V0_1 2.645682 1_655
Pd0_5 V0_4 2.645682 1_556
Pd0_5 Pd1_7 2.858655 1_545
Pd0_5 Pd1_1 2.858655 1_555
Pd0_5 Pd1_4 2.858655 1_555
Pd0_6 V0_4 2.645682 1_565
Pd0_6 V0_2 2.645682 1_655
Pd0_6 V0_7 2.645682 1_555
Pd0_6 Pd1_4 2.858655 1_555
Pd0_6 Pd1_2 2.858655 1_555
Pd0_6 Pd1_7 2.858655 1_554
Pd0_7 V0_5 2.645682 1_565
Pd0_7 V0_3 2.645682 1_655
Pd0_7 V0_6 2.645682 1_556
Pd0_7 Pd1_3 2.858655 1_555
Pd0_7 Pd1_5 2.858655 1_555
Pd0_7 Pd1_6 2.858655 1_555
Pd1_0 Pd1_6 2.774006 1_545
Pd1_0 Pd1_6 2.774006 1_455
Pd1_0 Pd1_5 2.774006 1_455
Pd1_0 Pd1_3 2.774006 1_545
Pd1_0 Pd1_5 2.774006 1_554
Pd1_0 Pd1_3 2.774006 1_554
Pd1_0 Pd2_4 2.858655 1_455
Pd1_0 Pd2_2 2.858655 1_545
Pd1_0 Pd2_1 2.858655 1_554
Pd1_1 Pd1_7 2.774006 1_455
Pd1_1 Pd1_7 2.774006 1_545
Pd1_1 Pd1_2 2.774006 1_555
Pd1_1 Pd1_4 2.774006 1_555
Pd1_1 Pd1_2 2.774006 1_546
Pd1_1 Pd1_4 2.774006 1_456
Pd1_1 Pd2_3 2.858655 1_545
Pd1_1 Pd2_5 2.858655 1_455
Pd1_1 Pd2_0 2.858655 1_555
Pd1_2 Pd1_4 2.774006 1_555
Pd1_2 Pd1_4 2.774006 1_465
Pd1_2 Pd1_7 2.774006 1_455
Pd1_2 Pd1_7 2.774006 1_554
Pd1_2 Pd2_0 2.858655 1_555
Pd1_2 Pd2_6 2.858655 1_455
Pd1_2 Pd2_3 2.858655 1_554
Pd1_3 Pd1_5 2.774006 1_555
Pd1_3 Pd1_5 2.774006 1_465
Pd1_3 Pd1_6 2.774006 1_555
Pd1_3 Pd1_6 2.774006 1_456
Pd1_3 Pd2_7 2.858655 1_455
Pd1_3 Pd2_1 2.858655 1_555
Pd1_3 Pd2_2 2.858655 1_555
Pd1_4 Pd1_7 2.774006 1_545
Pd1_4 Pd1_7 2.774006 1_554
Pd1_4 Pd2_0 2.858655 1_555
Pd1_4 Pd2_6 2.858655 1_545
Pd1_4 Pd2_5 2.858655 1_554
Pd1_5 Pd1_6 2.774006 1_555
Pd1_5 Pd1_6 2.774006 1_546
Pd1_5 Pd2_7 2.858655 1_545
Pd1_5 Pd2_1 2.858655 1_555
Pd1_5 Pd2_4 2.858655 1_555
Pd1_6 Pd2_4 2.858655 1_555
Pd1_6 Pd2_2 2.858655 1_555
Pd1_6 Pd2_7 2.858655 1_554
Pd1_7 Pd2_3 2.858655 1_555
Pd1_7 Pd2_5 2.858655 1_555
Pd1_7 Pd2_6 2.858655 1_555
Pd2_0 V0_5 2.645682 1_555
Pd2_0 V0_3 2.645682 1_555
Pd2_0 V0_6 2.645682 1_555
Pd2_1 V0_2 2.645682 1_556
Pd2_1 V0_4 2.645682 1_556
Pd2_1 V0_7 2.645682 1_555
Pd2_2 V0_7 2.645682 1_555
Pd2_2 V0_1 2.645682 1_565
Pd2_2 V0_4 2.645682 1_565
Pd2_3 V0_6 2.645682 1_556
Pd2_3 V0_0 2.645682 1_566
Pd2_3 V0_5 2.645682 1_565
Pd2_4 V0_7 2.645682 1_555
Pd2_4 V0_1 2.645682 1_655
Pd2_4 V0_2 2.645682 1_655
Pd2_5 V0_6 2.645682 1_556
Pd2_5 V0_0 2.645682 1_656
Pd2_5 V0_3 2.645682 1_655
Pd2_6 V0_3 2.645682 1_655
Pd2_6 V0_5 2.645682 1_565
Pd2_6 V0_0 2.645682 1_665
Pd2_7 V0_2 2.645682 1_656
Pd2_7 V0_4 2.645682 1_566
Pd2_7 V0_1 2.645682 1_665
