# generated using pymatgen
data_Ti2AlO4
_symmetry_space_group_name_H-M   'P 1'
_cell_length_a   5.81399926
_cell_length_b   5.81399926
_cell_length_c   5.81399926
_cell_angle_alpha   121.68895717
_cell_angle_beta   116.93113106
_cell_angle_gamma   91.24760804
_symmetry_Int_Tables_number   1
_chemical_formula_structural   Ti2AlO4
_chemical_formula_sum   'Ti4 Al2 O8'
_cell_volume   140.08497443
_cell_formula_units_Z   2
loop_
 _symmetry_equiv_pos_site_id
 _symmetry_equiv_pos_as_xyz
  1  'x, y, z'
loop_
 _atom_site_type_symbol
 _atom_site_label
 _atom_site_symmetry_multiplicity
 _atom_site_fract_x
 _atom_site_fract_y
 _atom_site_fract_z
 _atom_site_occupancy
  Ti  Ti0  1  0.00000000  0.50000000  0.50000000  1
  Ti  Ti1  1  0.00000000  0.00000000  0.50000000  1
  Ti  Ti2  1  0.50000000  0.50000000  0.00000000  1
  Ti  Ti3  1  0.00000000  0.50000000  0.00000000  1
  Al  Al0  1  0.50000000  0.00000000  0.00000000  1
  Al  Al1  1  0.50000000  0.50000000  0.50000000  1
  O  O0  1  0.73438200  0.24793000  0.01354800  1
  O  O1  1  0.28403200  0.75272600  0.53130600  1
  O  O2  1  0.73438200  0.72083400  0.48645200  1
  O  O3  1  0.27858000  0.24727400  0.03130600  1
  O  O4  1  0.26561800  0.27916600  0.51354800  1
  O  O5  1  0.71596800  0.24727400  0.46869400  1
  O  O6  1  0.72142000  0.75272600  0.96869400  1
  O  O7  1  0.26561800  0.75207000  0.98645200  1
loop_
_geom_bond_atom_site_label_1
_geom_bond_atom_site_label_2
_geom_bond_distance
_geom_bond_site_symmetry_2
Al0 O0 1.907593 1_555
Al0 O7 1.907593 1_544
Al0 O5 1.942969 1_555
Al0 O3 1.942969 1_555
Al0 O1 1.942969 1_544
Al0 O6 1.942969 1_544
Al1 O2 1.907593 1_555
Al1 O4 1.907593 1_555
Al1 O6 1.942969 1_555
Al1 O5 1.942969 1_555
Al1 O1 1.942969 1_555
Al1 O3 1.942969 1_555
O0 Ti0 2.030260 1_655
O0 Ti2 2.030260 1_555
O0 Ti3 2.161430 1_655
O1 Ti0 2.064026 1_555
O1 Ti1 2.221035 1_565
O1 Ti3 2.221035 1_555
O2 Ti0 2.030260 1_655
O2 Ti2 2.030260 1_555
O2 Ti1 2.161430 1_665
O3 Ti2 2.064026 1_555
O3 Ti3 2.221035 1_555
O3 Ti1 2.221035 1_554
O4 Ti2 2.030260 1_556
O4 Ti0 2.030260 1_555
O4 Ti1 2.161430 1_555
O5 Ti0 2.064026 1_655
O5 Ti3 2.221035 1_656
O5 Ti1 2.221035 1_655
O6 Ti2 2.064026 1_556
O6 Ti3 2.221035 1_656
O6 Ti1 2.221035 1_666
O7 Ti0 2.030260 1_555
O7 Ti2 2.030260 1_556
O7 Ti3 2.161430 1_556
