# generated using pymatgen
data_DyCrTeO6
_symmetry_space_group_name_H-M   'P 1'
_cell_length_a   5.40637380
_cell_length_b   5.40637380
_cell_length_c   8.65425300
_cell_angle_alpha   90.00000000
_cell_angle_beta   90.00000000
_cell_angle_gamma   119.99999760
_symmetry_Int_Tables_number   1
_chemical_formula_structural   DyCrTeO6
_chemical_formula_sum   'Dy2 Cr2 Te2 O12'
_cell_volume   219.06468413
_cell_formula_units_Z   2
loop_
 _symmetry_equiv_pos_site_id
 _symmetry_equiv_pos_as_xyz
  1  'x, y, z'
loop_
 _atom_site_type_symbol
 _atom_site_label
 _atom_site_symmetry_multiplicity
 _atom_site_fract_x
 _atom_site_fract_y
 _atom_site_fract_z
 _atom_site_occupancy
  Dy  Dy0  1  0.33333300  0.66666700  0.75000000  1
  Dy  Dy1  1  0.66666700  0.33333300  0.25000000  1
  Cr  Cr0  1  0.00000000  0.00000000  0.00000000  1
  Cr  Cr1  1  0.00000000  0.00000000  0.50000000  1
  Te  Te0  1  0.66666700  0.33333300  0.75000000  1
  Te  Te1  1  0.33333300  0.66666700  0.25000000  1
  O  O0  1  0.95698000  0.31070400  0.87584500  1
  O  O1  1  0.04302000  0.68929600  0.12415500  1
  O  O2  1  0.35372400  0.04302000  0.87584500  1
  O  O3  1  0.35372400  0.31070400  0.62415500  1
  O  O4  1  0.64627600  0.95698000  0.12415500  1
  O  O5  1  0.64627600  0.68929600  0.37584500  1
  O  O6  1  0.68929600  0.64627600  0.87584500  1
  O  O7  1  0.68929600  0.04302000  0.62415500  1
  O  O8  1  0.31070400  0.35372400  0.12415500  1
  O  O9  1  0.31070400  0.95698000  0.37584500  1
  O  O10  1  0.95698000  0.64627600  0.62415500  1
  O  O11  1  0.04302000  0.35372400  0.37584500  1
loop_
_geom_bond_atom_site_label_1
_geom_bond_atom_site_label_2
_geom_bond_distance
_geom_bond_site_symmetry_2
Dy0 O10 2.261415 1_455
Dy0 O2 2.261415 1_565
Dy0 O0 2.261417 1_455
Dy0 O7 2.261417 1_565
Dy0 O3 2.261419 1_555
Dy0 O6 2.261419 1_555
Dy1 O4 2.261415 1_545
Dy1 O11 2.261415 1_655
Dy1 O9 2.261417 1_545
Dy1 O1 2.261417 1_655
Dy1 O5 2.261419 1_555
Dy1 O8 2.261419 1_555
Cr0 O1 2.102601 1_545
Cr0 O0 2.102601 1_454
Cr0 O4 2.102601 1_445
Cr0 O2 2.102601 1_554
Cr0 O6 2.102601 1_444
Cr0 O8 2.102601 1_555
Cr1 O7 2.102601 1_455
Cr1 O9 2.102601 1_545
Cr1 O11 2.102601 1_555
Cr1 O10 2.102601 1_445
Cr1 O5 2.102601 1_445
Cr1 O3 2.102601 1_555
O0 Te0 1.963815 1_555
O1 Te1 1.963815 1_555
O2 Te0 1.963818 1_555
O3 Te0 1.963820 1_555
O4 Te1 1.963818 1_555
O5 Te1 1.963820 1_555
O6 Te0 1.963820 1_555
O7 Te0 1.963815 1_555
O8 Te1 1.963820 1_555
O9 Te1 1.963815 1_555
O10 Te0 1.963818 1_555
O11 Te1 1.963818 1_555
