# generated using pymatgen
data_SmBiRu2O7
_symmetry_space_group_name_H-M   'P 1'
_cell_length_a   7.33851555
_cell_length_b   7.33851555
_cell_length_c   7.33851555
_cell_angle_alpha   89.95617105
_cell_angle_beta   59.60046841
_cell_angle_gamma   119.55167468
_symmetry_Int_Tables_number   1
_chemical_formula_structural   SmBiRu2O7
_chemical_formula_sum   'Sm2 Bi2 Ru4 O14'
_cell_volume   279.53741781
_cell_formula_units_Z   2
loop_
 _symmetry_equiv_pos_site_id
 _symmetry_equiv_pos_as_xyz
  1  'x, y, z'
loop_
 _atom_site_type_symbol
 _atom_site_label
 _atom_site_symmetry_multiplicity
 _atom_site_fract_x
 _atom_site_fract_y
 _atom_site_fract_z
 _atom_site_occupancy
  Sm  Sm0  1  0.25000000  0.87500000  0.37500000  1
  Sm  Sm1  1  0.75000000  0.37500000  0.37500000  1
  Bi  Bi0  1  0.75000000  0.37500000  0.87500000  1
  Bi  Bi1  1  0.25000000  0.37500000  0.37500000  1
  Ru  Ru0  1  0.75000000  0.87500000  0.37500000  1
  Ru  Ru1  1  0.25000000  0.87500000  0.87500000  1
  Ru  Ru2  1  0.25000000  0.37500000  0.87500000  1
  Ru  Ru3  1  0.75000000  0.87500000  0.87500000  1
  O  O0  1  0.90709000  0.95582500  0.54667200  1
  O  O1  1  0.49750300  0.54623800  0.54667200  1
  O  O2  1  0.50000000  0.95492400  0.54507600  1
  O  O3  1  0.09291000  0.54623800  0.95126500  1
  O  O4  1  0.50249700  0.95582500  0.95126500  1
  O  O5  1  0.50000000  0.54671700  0.95328300  1
  O  O6  1  0.59291000  0.79417500  0.20332800  1
  O  O7  1  0.00249700  0.20376200  0.20332800  1
  O  O8  1  0.00000000  0.79507600  0.20492400  1
  O  O9  1  0.40709000  0.20376200  0.79873500  1
  O  O10  1  0.99750300  0.79417500  0.79873500  1
  O  O11  1  0.00000000  0.20328300  0.79671700  1
  O  O12  1  0.50000000  0.24571500  0.25428500  1
  O  O13  1  0.00000000  0.50428500  0.49571500  1
loop_
_geom_bond_atom_site_label_1
_geom_bond_atom_site_label_2
_geom_bond_distance
_geom_bond_site_symmetry_2
Bi0 O12 2.263671 1_556
Bi0 O13 2.263671 1_655
Bi0 O11 2.549276 1_655
Bi0 O5 2.549276 1_555
Bi0 O3 2.555782 1_655
Bi0 O10 2.555782 1_555
Bi0 O9 2.555782 1_555
Bi0 O4 2.555782 1_545
Bi1 O13 2.263671 1_555
Bi1 O12 2.263671 1_555
Bi1 O5 2.549276 1_554
Bi1 O11 2.549276 1_555
Bi1 O1 2.555782 1_555
Bi1 O6 2.555782 1_555
Bi1 O0 2.555782 1_445
Bi1 O7 2.555782 1_555
O0 Ru3 1.999602 1_555
O0 Ru0 2.016038 1_555
O0 Sm0 2.556649 1_655
O1 Ru2 1.999602 1_555
O1 Ru0 2.016038 1_555
O1 Sm1 2.556649 1_555
O2 Ru1 2.003194 1_555
O2 Ru0 2.003194 1_555
O2 Sm0 2.554356 1_555
O2 Sm1 2.554356 1_565
O3 Ru2 1.999602 1_555
O3 Ru1 2.016038 1_555
O3 Sm1 2.556649 1_456
O4 Ru3 1.999602 1_555
O4 Ru1 2.016038 1_555
O4 Sm0 2.556649 1_556
O5 Ru3 2.017705 1_555
O5 Ru2 2.017705 1_555
O6 Ru3 1.999602 1_554
O6 Ru0 2.016038 1_555
O6 Sm0 2.556649 1_555
O7 Ru2 1.999602 1_554
O7 Ru0 2.016038 1_445
O7 Sm1 2.556649 1_455
O8 Ru1 2.003194 1_554
O8 Ru0 2.003194 1_455
O8 Sm0 2.554356 1_555
O8 Sm1 2.554356 1_455
O9 Ru2 1.999602 1_555
O9 Ru1 2.016038 1_545
O9 Sm1 2.556649 1_555
O10 Ru3 1.999602 1_555
O10 Ru1 2.016038 1_655
O10 Sm0 2.556649 1_655
O11 Ru3 2.017705 1_445
O11 Ru2 2.017705 1_555
O12 Sm0 2.231571 1_545
O12 Sm1 2.231571 1_555
O13 Sm1 2.231571 1_455
O13 Sm0 2.231571 1_555
