# generated using pymatgen
data_Pr2ZnBi4
_symmetry_space_group_name_H-M   'P 1'
_cell_length_a   4.58564391
_cell_length_b   4.58564391
_cell_length_c   10.08622072
_cell_angle_alpha   90.00000000
_cell_angle_beta   90.00000000
_cell_angle_gamma   90.00000000
_symmetry_Int_Tables_number   1
_chemical_formula_structural   Pr2ZnBi4
_chemical_formula_sum   'Pr2 Zn1 Bi4'
_cell_volume   212.09436121
_cell_formula_units_Z   1
loop_
 _symmetry_equiv_pos_site_id
 _symmetry_equiv_pos_as_xyz
  1  'x, y, z'
loop_
 _atom_site_type_symbol
 _atom_site_label
 _atom_site_symmetry_multiplicity
 _atom_site_fract_x
 _atom_site_fract_y
 _atom_site_fract_z
 _atom_site_occupancy
  Pr  Pr0  1  0.50000000  -0.00000000  0.74268136  1
  Pr  Pr1  1  0.00000000  0.50000000  0.25731864  1
  Zn  Zn0  1  0.50000000  0.50000000  0.50000000  1
  Bi  Bi0  1  0.50000000  0.50000000  0.00000000  1
  Bi  Bi1  1  -0.00000000  -0.00000000  0.00000000  1
  Bi  Bi2  1  0.50000000  -0.00000000  0.34600114  1
  Bi  Bi3  1  0.00000000  0.50000000  0.65399886  1
loop_
_geom_bond_atom_site_label_1
_geom_bond_atom_site_label_2
_geom_bond_distance
_geom_bond_site_symmetry_2
Pr0 Zn0 3.353871 1_545
Pr0 Zn0 3.353871 1_555
Pr1 Zn0 3.353871 1_455
Pr1 Zn0 3.353871 1_555
Bi0 Bi1 3.242540 1_655
Bi0 Bi1 3.242540 1_555
Bi0 Bi1 3.242540 1_565
Bi0 Bi1 3.242540 1_665
Bi0 Pr0 3.463090 1_554
Bi0 Pr0 3.463090 1_564
Bi0 Pr1 3.463090 1_655
Bi0 Pr1 3.463090 1_555
Bi1 Pr0 3.463090 1_454
Bi1 Pr0 3.463090 1_554
Bi1 Pr1 3.463090 1_545
Bi1 Pr1 3.463090 1_555
Bi2 Zn0 2.769417 1_555
Bi2 Zn0 2.769417 1_545
Bi2 Pr1 3.363650 1_655
Bi2 Pr1 3.363650 1_545
Bi2 Pr1 3.363650 1_555
Bi2 Pr1 3.363650 1_645
Bi3 Zn0 2.769417 1_455
Bi3 Zn0 2.769417 1_555
Bi3 Pr0 3.363650 1_565
Bi3 Pr0 3.363650 1_465
Bi3 Pr0 3.363650 1_455
Bi3 Pr0 3.363650 1_555
