# generated using pymatgen
data_Cs3MnZn3(PO3)12
_symmetry_space_group_name_H-M   'P 1'
_cell_length_a   9.61584496
_cell_length_b   9.61584496
_cell_length_c   12.49338713
_cell_angle_alpha   58.97508924
_cell_angle_beta   58.97508924
_cell_angle_gamma   62.97273111
_symmetry_Int_Tables_number   1
_chemical_formula_structural   Cs3MnZn3(PO3)12
_chemical_formula_sum   'Cs3 Mn1 Zn3 P12 O36'
_cell_volume   819.81365720
_cell_formula_units_Z   1
loop_
 _symmetry_equiv_pos_site_id
 _symmetry_equiv_pos_as_xyz
  1  'x, y, z'
loop_
 _atom_site_type_symbol
 _atom_site_label
 _atom_site_symmetry_multiplicity
 _atom_site_fract_x
 _atom_site_fract_y
 _atom_site_fract_z
 _atom_site_occupancy
  Cs  Cs0  1  0.99796300  0.99796300  0.49998500  1
  Cs  Cs1  1  0.78632600  0.21235600  0.00107200  1
  Cs  Cs2  1  0.21235600  0.78632600  0.00107200  1
  Mn  Mn0  1  0.20893800  0.20893800  0.58583800  1
  Zn  Zn0  1  0.75157100  0.75157100  0.92781500  1
  Zn  Zn1  1  0.24575100  0.24575100  0.07359700  1
  Zn  Zn2  1  0.79156500  0.79156500  0.41185300  1
  P  P0  1  0.60753300  0.19567200  0.37047000  1
  P  P1  1  0.19567200  0.60753300  0.37047000  1
  P  P2  1  0.39567400  0.80443100  0.62910200  1
  P  P3  1  0.80443100  0.39567400  0.62910200  1
  P  P4  1  0.83662000  0.41942900  0.19599600  1
  P  P5  1  0.41942900  0.83662000  0.19599600  1
  P  P6  1  0.16283200  0.58169400  0.80427400  1
  P  P7  1  0.58169400  0.16283200  0.80427400  1
  P  P8  1  0.76362400  0.76362400  0.17365400  1
  P  P9  1  0.23945700  0.23945700  0.82083400  1
  P  P10  1  0.33039300  0.33039300  0.27373400  1
  P  P11  1  0.67171200  0.67171200  0.72864100  1
  O  O0  1  0.22765000  0.22765000  0.41485200  1
  O  O1  1  0.77446800  0.77446800  0.59406600  1
  O  O2  1  0.67787900  0.34757600  0.32599600  1
  O  O3  1  0.34757600  0.67787900  0.32599600  1
  O  O4  1  0.31960800  0.65488000  0.67554500  1
  O  O5  1  0.65488000  0.31960800  0.67554500  1
  O  O6  1  0.82691500  0.82691500  0.22374300  1
  O  O7  1  0.17917300  0.17917300  0.76363200  1
  O  O8  1  0.80203600  0.49397400  0.07023100  1
  O  O9  1  0.49397400  0.80203600  0.07023100  1
  O  O10  1  0.19800500  0.50227600  0.93057000  1
  O  O11  1  0.50227600  0.19800500  0.93057000  1
  O  O12  1  0.82391800  0.82391800  0.02327700  1
  O  O13  1  0.17289100  0.17289100  0.97144800  1
  O  O14  1  0.32954500  0.32954500  0.15550500  1
  O  O15  1  0.66259100  0.66259100  0.85518200  1
  O  O16  1  0.46923000  0.17757500  0.50659000  1
  O  O17  1  0.17757500  0.46923000  0.50659000  1
  O  O18  1  0.52679400  0.82567700  0.49202000  1
  O  O19  1  0.82567700  0.52679400  0.49202000  1
  O  O20  1  0.75359700  0.05177000  0.34413000  1
  O  O21  1  0.05177000  0.75359700  0.34413000  1
  O  O22  1  0.24716900  0.95030500  0.65659000  1
  O  O23  1  0.95030500  0.24716900  0.65659000  1
  O  O24  1  0.52259900  0.27013300  0.25964700  1
  O  O25  1  0.27013300  0.52259900  0.25964700  1
  O  O26  1  0.47772600  0.73003100  0.74047400  1
  O  O27  1  0.73003100  0.47772600  0.74047400  1
  O  O28  1  0.81545000  0.56213400  0.23900600  1
  O  O29  1  0.56213400  0.81545000  0.23900600  1
  O  O30  1  0.18495400  0.43903000  0.75897700  1
  O  O31  1  0.43903000  0.18495400  0.75897700  1
  O  O32  1  0.99740200  0.28937800  0.20697300  1
  O  O33  1  0.28937800  0.99740200  0.20697300  1
  O  O34  1  0.00208300  0.71003500  0.79351100  1
  O  O35  1  0.71003500  0.00208300  0.79351100  1
loop_
_geom_bond_atom_site_label_1
_geom_bond_atom_site_label_2
_geom_bond_distance
_geom_bond_site_symmetry_2
Cs0 O1 3.099759 1_555
Cs0 O0 3.236927 1_665
Cs0 O32 3.268880 1_565
Cs0 O33 3.268880 1_655
Cs0 O34 3.270938 1_655
Cs0 O35 3.270938 1_565
Cs0 O20 3.486200 1_565
Cs0 O21 3.486200 1_655
Cs0 O23 3.562453 1_565
Cs0 O22 3.562453 1_655
Cs1 O24 3.049673 1_555
Cs1 O27 3.066238 1_554
Cs1 O6 3.287002 1_545
Cs1 O8 3.319766 1_555
Cs1 O11 3.347109 1_554
Cs1 O7 3.391233 1_654
Cs1 O13 3.397473 1_654
Cs1 O12 3.459364 1_545
Cs1 O15 3.591808 1_554
Cs1 O20 3.616896 1_555
Cs1 O23 3.622141 1_554
Cs1 O14 3.645836 1_555
Cs2 O25 3.049673 1_555
Cs2 O26 3.066238 1_554
Cs2 O6 3.287002 1_455
Cs2 O9 3.319766 1_555
Cs2 O10 3.347109 1_554
Cs2 O7 3.391233 1_564
Cs2 O13 3.397473 1_564
Cs2 O12 3.459364 1_455
Cs2 O15 3.591808 1_554
Cs2 O21 3.616896 1_555
Cs2 O22 3.622141 1_554
Cs2 O14 3.645836 1_555
Mn0 O7 1.965079 1_555
Mn0 O0 1.965978 1_555
Mn0 O23 2.083149 1_455
Mn0 O22 2.083149 1_545
Mn0 O16 2.098370 1_555
Mn0 O17 2.098370 1_555
O0 P10 1.535097 1_555
O1 P11 1.497248 1_555
O1 Zn2 2.118797 1_555
O2 P0 1.604313 1_555
O2 P4 1.640549 1_555
O3 P1 1.604313 1_555
O3 P5 1.640549 1_555
O4 P2 1.611841 1_555
O4 P6 1.628708 1_555
O5 P3 1.611841 1_555
O5 P7 1.628708 1_555
O6 P8 1.501391 1_555
O6 Zn2 2.052379 1_555
O7 P9 1.530440 1_555
O8 P4 1.501388 1_555
O8 Zn0 2.188916 1_554
O9 P5 1.501388 1_555
O9 Zn0 2.188916 1_554
O10 P6 1.503498 1_555
O10 Zn1 2.182027 1_556
O11 P7 1.503498 1_555
O11 Zn1 2.182027 1_556
O12 P8 1.503908 1_555
O12 Zn0 2.130895 1_554
O13 P9 1.499791 1_555
O13 Zn1 2.213550 1_556
O14 P10 1.485528 1_555
O14 Zn1 2.153034 1_555
O15 P11 1.495273 1_555
O15 Zn0 2.133923 1_555
O16 P0 1.504956 1_555
O17 P1 1.504956 1_555
O18 P2 1.487296 1_555
O18 Zn2 2.131647 1_555
O19 P3 1.487296 1_555
O19 Zn2 2.131647 1_555
O20 P0 1.490759 1_555
O20 Zn2 2.101330 1_545
O21 P1 1.490759 1_555
O21 Zn2 2.101330 1_455
O22 P2 1.515025 1_555
O23 P3 1.515025 1_555
O24 P10 1.605980 1_555
O24 P0 1.645889 1_555
O25 P10 1.605980 1_555
O25 P1 1.645889 1_555
O26 P2 1.631842 1_555
O26 P11 1.632893 1_555
O27 P3 1.631842 1_555
O27 P11 1.632893 1_555
O28 P8 1.606273 1_555
O28 P4 1.614509 1_555
O29 P8 1.606273 1_555
O29 P5 1.614509 1_555
O30 P9 1.590398 1_555
O30 P6 1.630460 1_555
O31 P9 1.590398 1_555
O31 P7 1.630460 1_555
O32 P4 1.502530 1_555
O32 Zn1 2.088945 1_655
O33 P5 1.502530 1_555
O33 Zn1 2.088945 1_565
O34 P6 1.496634 1_555
O34 Zn0 2.104182 1_455
O35 P7 1.496634 1_555
O35 Zn0 2.104182 1_545
