# generated using pymatgen
data_Li4MnCo2O7
_symmetry_space_group_name_H-M   'P 1'
_cell_length_a   3.02141900
_cell_length_b   5.10928392
_cell_length_c   17.14576475
_cell_angle_alpha   85.61488491
_cell_angle_beta   88.42375130
_cell_angle_gamma   75.63619204
_symmetry_Int_Tables_number   1
_chemical_formula_structural   Li4MnCo2O7
_chemical_formula_sum   'Li8 Mn2 Co4 O14'
_cell_volume   255.64949714
_cell_formula_units_Z   2
loop_
 _symmetry_equiv_pos_site_id
 _symmetry_equiv_pos_as_xyz
  1  'x, y, z'
loop_
 _atom_site_type_symbol
 _atom_site_label
 _atom_site_symmetry_multiplicity
 _atom_site_fract_x
 _atom_site_fract_y
 _atom_site_fract_z
 _atom_site_occupancy
  Li  Li0  1  0.71564400  0.57061000  0.92741700  1
  Li  Li1  1  0.13867700  0.71234200  0.78472300  1
  Li  Li2  1  0.57075000  0.85015800  0.64333000  1
  Li  Li3  1  0.00053000  0.00652600  0.49952200  1
  Li  Li4  1  0.43263000  0.14618800  0.35928100  1
  Li  Li5  1  0.85897500  0.28243100  0.21316600  1
  Li  Li6  1  0.28360000  0.43065600  0.07209900  1
  Li  Li7  1  0.28581700  0.42811800  0.57183000  1
  Mn  Mn0  1  0.99997500  0.00095800  0.99872900  1
  Mn  Mn1  1  0.14085700  0.71215900  0.28825600  1
  Co  Co0  1  0.42316800  0.14345900  0.85357800  1
  Co  Co1  1  0.85347700  0.29257600  0.70810100  1
  Co  Co2  1  0.72390800  0.56528400  0.43580200  1
  Co  Co3  1  0.57116400  0.85688200  0.14353500  1
  O  O0  1  0.33146700  0.27414000  0.95864900  1
  O  O1  1  0.80273700  0.40583200  0.81388000  1
  O  O2  1  0.20405500  0.54580000  0.68127700  1
  O  O3  1  0.64153800  0.71054900  0.52548100  1
  O  O4  1  0.05848000  0.83609900  0.39214400  1
  O  O5  1  0.47171500  0.98855600  0.24747200  1
  O  O6  1  0.94560300  0.12473000  0.10443700  1
  O  O7  1  0.05655700  0.87287300  0.89382700  1
  O  O8  1  0.51926800  0.02175500  0.75159500  1
  O  O9  1  0.92916400  0.14677900  0.61838100  1
  O  O10  1  0.37172500  0.31229800  0.46233800  1
  O  O11  1  0.80095300  0.44665200  0.32952200  1
  O  O12  1  0.19772100  0.58836300  0.18242300  1
  O  O13  1  0.66984700  0.72722600  0.03920700  1
loop_
_geom_bond_atom_site_label_1
_geom_bond_atom_site_label_2
_geom_bond_distance
_geom_bond_site_symmetry_2
Li0 O7 2.097211 1_655
Li0 O13 2.120922 1_556
Li0 O0 2.139081 1_655
Li0 O0 2.154697 1_555
Li0 O1 2.163357 1_555
Li0 O7 2.254662 1_555
Li1 O2 2.009244 1_555
Li1 O7 2.083704 1_555
Li1 O1 2.091342 1_455
Li1 O8 2.185757 1_465
Li1 O8 2.207452 1_565
Li1 O1 2.259326 1_555
Li2 O9 2.083787 1_565
Li2 O8 2.098568 1_565
Li2 O9 2.174035 1_465
Li2 O2 2.174738 1_555
Li2 O3 2.181364 1_555
Li2 O2 2.222688 1_655
Li3 O4 2.080918 1_545
Li3 O3 2.084654 1_445
Li3 O3 2.174237 1_545
Li3 O10 2.186940 1_555
Li3 O9 2.199007 1_455
Li3 O10 2.213232 1_455
Li4 O10 2.002590 1_555
Li4 O5 2.124650 1_545
Li4 O11 2.133570 1_555
Li4 O11 2.177094 1_455
Li4 O4 2.196047 1_545
Li4 O4 2.199768 1_645
Li5 O6 2.071555 1_555
Li5 O12 2.099222 1_655
Li5 O5 2.138594 1_645
Li5 O5 2.160622 1_545
Li5 O11 2.208748 1_555
Li5 O12 2.257275 1_555
Li6 O12 2.096913 1_555
Li6 O6 2.102810 1_455
Li6 O13 2.141398 1_455
Li6 O0 2.146899 1_554
Li6 O13 2.164825 1_555
Li6 O6 2.264649 1_555
Li7 O10 2.002189 1_555
Li7 O2 2.004331 1_555
Li7 O9 2.100066 1_455
Li7 O3 2.101464 1_555
Li7 O9 2.237255 1_555
Li7 O3 2.240370 1_455
Mn0 O7 1.949389 1_645
Mn0 O6 1.954278 1_556
Mn0 O0 1.983085 1_655
Mn0 O13 1.984497 1_546
Mn0 O0 2.243007 1_555
Mn0 O13 2.249113 1_646
Mn1 O4 1.925009 1_555
Mn1 O12 1.956210 1_555
Mn1 O11 1.974849 1_455
Mn1 O5 1.998387 1_555
Mn1 O11 2.215189 1_555
Mn1 O5 2.254099 1_455
Co0 O8 1.891361 1_555
Co0 O0 1.957741 1_555
Co0 O1 2.038595 1_555
Co0 O7 2.046061 1_545
Co0 O1 2.111454 1_455
Co0 O7 2.159626 1_645
Co1 O9 1.744988 1_555
Co1 O2 1.889333 1_655
Co1 O1 1.936206 1_555
Co1 O8 1.996108 1_555
Co1 O2 2.105860 1_555
Co1 O8 2.249691 1_655
Co2 O3 1.743237 1_555
Co2 O10 1.891008 1_555
Co2 O11 1.953903 1_555
Co2 O4 1.997680 1_655
Co2 O10 2.100638 1_655
Co2 O4 2.249727 1_555
Co3 O5 1.942236 1_555
Co3 O13 1.944570 1_555
Co3 O12 2.046141 1_555
Co3 O6 2.046533 1_565
Co3 O6 2.130888 1_465
Co3 O12 2.133430 1_655
