# generated using pymatgen
data_TaTiCN
_symmetry_space_group_name_H-M   'P 1'
_cell_length_a   5.38925646
_cell_length_b   5.38925646
_cell_length_c   5.38925614
_cell_angle_alpha   33.35395634
_cell_angle_beta   33.35395634
_cell_angle_gamma   33.35394957
_symmetry_Int_Tables_number   1
_chemical_formula_structural   TaTiCN
_chemical_formula_sum   'Ta1 Ti1 C1 N1'
_cell_volume   42.13173235
_cell_formula_units_Z   1
loop_
 _symmetry_equiv_pos_site_id
 _symmetry_equiv_pos_as_xyz
  1  'x, y, z'
loop_
 _atom_site_type_symbol
 _atom_site_label
 _atom_site_symmetry_multiplicity
 _atom_site_fract_x
 _atom_site_fract_y
 _atom_site_fract_z
 _atom_site_occupancy
  Ta  Ta0  1  0.74694100  0.74694100  0.74694100  1
  Ti  Ti0  1  0.25439200  0.25439200  0.25439200  1
  C  C0  1  0.99795600  0.99795600  0.99795600  1
  N  N0  1  0.50071000  0.50071000  0.50071000  1
loop_
_geom_bond_atom_site_label_1
_geom_bond_atom_site_label_2
_geom_bond_distance
_geom_bond_site_symmetry_2
C0 Ti0 2.136632 1_566
C0 Ti0 2.136632 1_656
C0 Ti0 2.136632 1_665
C0 Ta0 2.183126 1_556
C0 Ta0 2.183126 1_565
C0 Ta0 2.183126 1_655
N0 Ti0 2.225110 1_556
N0 Ti0 2.225110 1_565
N0 Ti0 2.225110 1_655
N0 Ta0 2.225902 1_554
N0 Ta0 2.225902 1_455
N0 Ta0 2.225902 1_545
