# generated using pymatgen
data_Mg149Cr
_symmetry_space_group_name_H-M   'P 1'
_cell_length_a   15.93051653
_cell_length_b   15.93052082
_cell_length_c   15.62105859
_cell_angle_alpha   90.00000000
_cell_angle_beta   90.00000000
_cell_angle_gamma   120.00001345
_symmetry_Int_Tables_number   1
_chemical_formula_structural   Mg149Cr
_chemical_formula_sum   'Mg149 Cr1'
_cell_volume   3433.21393187
_cell_formula_units_Z   1
loop_
 _symmetry_equiv_pos_site_id
 _symmetry_equiv_pos_as_xyz
  1  'x, y, z'
loop_
 _atom_site_type_symbol
 _atom_site_label
 _atom_site_symmetry_multiplicity
 _atom_site_fract_x
 _atom_site_fract_y
 _atom_site_fract_z
 _atom_site_occupancy
  Mg  Mg0  1  0.39888306  0.00004217  -0.00000000  1
  Mg  Mg1  1  0.60115911  0.00004217  -0.00000000  1
  Mg  Mg2  1  0.80432535  0.00040070  -0.00000000  1
  Mg  Mg3  1  0.19607635  0.00040070  -0.00000000  1
  Mg  Mg4  1  0.19607635  0.19567465  -0.00000000  1
  Mg  Mg5  1  0.99959930  0.19567565  -0.00000000  1
  Mg  Mg6  1  0.39919664  0.19959832  -0.00000000  1
  Mg  Mg7  1  0.80040168  0.19959932  -0.00000000  1
  Mg  Mg8  1  0.59981382  0.19962765  -0.00000000  1
  Mg  Mg9  1  0.99995783  0.39884089  -0.00000000  1
  Mg  Mg10  1  0.39888306  0.39884089  -0.00000000  1
  Mg  Mg11  1  0.19958295  0.39916589  -0.00000000  1
  Mg  Mg12  1  0.80037235  0.40018618  -0.00000000  1
  Mg  Mg13  1  0.59981382  0.40018618  0.00000000  1
  Mg  Mg14  1  0.19989273  0.59994636  -0.00000000  1
  Mg  Mg15  1  0.40005364  0.59994736  -0.00000000  1
  Mg  Mg16  1  0.80040168  0.60080236  -0.00000000  1
  Mg  Mg17  1  0.99995783  0.60111694  0.00000000  1
  Mg  Mg18  1  0.60115911  0.60111694  -0.00000000  1
  Mg  Mg19  1  0.40005364  0.80010627  -0.00000000  1
  Mg  Mg20  1  0.19958295  0.80041705  -0.00000000  1
  Mg  Mg21  1  0.60083411  0.80041705  -0.00000000  1
  Mg  Mg22  1  0.99959930  0.80392365  -0.00000000  1
  Mg  Mg23  1  0.80432535  0.80392465  -0.00000000  1
  Mg  Mg24  1  0.06541600  0.13083300  0.16288086  1
  Mg  Mg25  1  0.06541600  0.93458300  0.16288086  1
  Mg  Mg26  1  0.86916700  0.93458400  0.16288086  1
  Mg  Mg27  1  0.26593718  0.33262286  0.16632711  1
  Mg  Mg28  1  0.06668568  0.33262386  0.16632711  1
  Mg  Mg29  1  0.06668568  0.73406282  0.16632711  1
  Mg  Mg30  1  0.66737714  0.73406282  0.16632711  1
  Mg  Mg31  1  0.66737714  0.93331432  0.16632711  1
  Mg  Mg32  1  0.26593718  0.93331432  0.16632711  1
  Mg  Mg33  1  0.46669639  0.53330261  0.16652879  1
  Mg  Mg34  1  0.06660621  0.53330261  0.16652879  1
  Mg  Mg35  1  0.46669639  0.93339379  0.16652879  1
  Mg  Mg36  1  0.66666600  0.33333300  0.16645797  1
  Mg  Mg37  1  0.66666417  0.13342592  0.16660294  1
  Mg  Mg38  1  0.46676175  0.13342592  0.16660294  1
  Mg  Mg39  1  0.86657408  0.33333583  0.16660294  1
  Mg  Mg40  1  0.46676175  0.33333583  0.16660294  1
  Mg  Mg41  1  0.86657408  0.53323825  0.16660294  1
  Mg  Mg42  1  0.66666417  0.53323925  0.16660294  1
  Mg  Mg43  1  0.26660017  0.53320133  0.16665054  1
  Mg  Mg44  1  0.26660017  0.73339883  0.16665054  1
  Mg  Mg45  1  0.46679867  0.73339983  0.16665054  1
  Mg  Mg46  1  0.86638807  0.13361193  0.16670846  1
  Mg  Mg47  1  0.26722385  0.13361193  0.16670846  1
  Mg  Mg48  1  0.86638807  0.73277615  0.16670846  1
  Mg  Mg49  1  0.00020369  0.19964479  0.33233847  1
  Mg  Mg50  1  0.19944110  0.19964479  0.33233847  1
  Mg  Mg51  1  0.00020369  0.80055890  0.33233847  1
  Mg  Mg52  1  0.80035521  0.80055990  0.33233847  1
  Mg  Mg53  1  0.80035521  0.99979631  0.33233847  1
  Mg  Mg54  1  0.19944110  0.99979631  0.33233847  1
  Mg  Mg55  1  0.00000000  -0.00000000  0.33292741  1
  Mg  Mg56  1  0.60019161  0.00001338  0.33315408  1
  Mg  Mg57  1  0.39982077  0.00001338  0.33315408  1
  Mg  Mg58  1  0.39982077  0.39980739  0.33315408  1
  Mg  Mg59  1  0.99998662  0.39980839  0.33315408  1
  Mg  Mg60  1  0.99998662  0.60017823  0.33315408  1
  Mg  Mg61  1  0.60019161  0.60017823  0.33315408  1
  Mg  Mg62  1  0.59985509  0.19971018  0.33323553  1
  Mg  Mg63  1  0.59985509  0.40014491  0.33323553  1
  Mg  Mg64  1  0.80028982  0.40014491  0.33323553  1
  Mg  Mg65  1  0.39986723  0.19993361  0.33336041  1
  Mg  Mg66  1  0.80006639  0.19993361  0.33336041  1
  Mg  Mg67  1  0.80006639  0.60013277  0.33336041  1
  Mg  Mg68  1  0.20005470  0.40010940  0.33339399  1
  Mg  Mg69  1  0.59989060  0.79994530  0.33339399  1
  Mg  Mg70  1  0.20005470  0.79994530  0.33339399  1
  Mg  Mg71  1  0.40007539  0.59992361  0.33343480  1
  Mg  Mg72  1  0.19984822  0.59992361  0.33343480  1
  Mg  Mg73  1  0.40007539  0.80015178  0.33343480  1
  Mg  Mg74  1  0.86673994  0.13326006  0.50000000  1
  Mg  Mg75  1  0.26651911  0.13326006  0.50000000  1
  Mg  Mg76  1  0.06674240  0.13348580  0.50000000  1
  Mg  Mg77  1  0.46688794  0.13357676  0.50000000  1
  Mg  Mg78  1  0.66668782  0.13357676  0.50000000  1
  Mg  Mg79  1  0.26653056  0.33306999  0.50000000  1
  Mg  Mg80  1  0.06653943  0.33307099  0.50000000  1
  Mg  Mg81  1  0.46688794  0.33331118  0.50000000  1
  Mg  Mg82  1  0.86642324  0.33331218  0.50000000  1
  Mg  Mg83  1  0.66666600  0.33333300  0.50000000  1
  Mg  Mg84  1  0.66668782  0.53311106  0.50000000  1
  Mg  Mg85  1  0.86642324  0.53311106  0.50000000  1
  Mg  Mg86  1  0.46682750  0.53317150  0.50000000  1
  Mg  Mg87  1  0.06634500  0.53317250  0.50000000  1
  Mg  Mg88  1  0.26659728  0.53319456  0.50000000  1
  Mg  Mg89  1  0.26659728  0.73340272  0.50000000  1
  Mg  Mg90  1  0.46680544  0.73340272  0.50000000  1
  Mg  Mg91  1  0.06653943  0.73346844  0.50000000  1
  Mg  Mg92  1  0.66693001  0.73346944  0.50000000  1
  Mg  Mg93  1  0.86673994  0.73348089  0.50000000  1
  Mg  Mg94  1  0.06674240  0.93325760  0.50000000  1
  Mg  Mg95  1  0.86651420  0.93325760  0.50000000  1
  Mg  Mg96  1  0.66693001  0.93346057  0.50000000  1
  Mg  Mg97  1  0.26653056  0.93346057  0.50000000  1
  Mg  Mg98  1  0.46682750  0.93365500  0.50000000  1
  Mg  Mg99  1  0.40007539  0.59992361  0.66656520  1
  Mg  Mg100  1  0.19984822  0.59992361  0.66656520  1
  Mg  Mg101  1  0.40007539  0.80015178  0.66656520  1
  Mg  Mg102  1  0.20005470  0.40010940  0.66660601  1
  Mg  Mg103  1  0.59989060  0.79994530  0.66660601  1
  Mg  Mg104  1  0.20005470  0.79994530  0.66660601  1
  Mg  Mg105  1  0.39986723  0.19993361  0.66663959  1
  Mg  Mg106  1  0.80006639  0.19993361  0.66663959  1
  Mg  Mg107  1  0.80006639  0.60013277  0.66663959  1
  Mg  Mg108  1  0.59985509  0.19971018  0.66676447  1
  Mg  Mg109  1  0.59985509  0.40014491  0.66676447  1
  Mg  Mg110  1  0.80028982  0.40014491  0.66676447  1
  Mg  Mg111  1  0.60019161  0.00001338  0.66684592  1
  Mg  Mg112  1  0.39982077  0.00001338  0.66684592  1
  Mg  Mg113  1  0.39982077  0.39980739  0.66684592  1
  Mg  Mg114  1  0.99998662  0.39980839  0.66684592  1
  Mg  Mg115  1  0.99998662  0.60017823  0.66684592  1
  Mg  Mg116  1  0.60019161  0.60017823  0.66684592  1
  Mg  Mg117  1  0.00000000  -0.00000000  0.66707259  1
  Mg  Mg118  1  0.00020369  0.19964479  0.66766153  1
  Mg  Mg119  1  0.19944110  0.19964479  0.66766153  1
  Mg  Mg120  1  0.00020369  0.80055890  0.66766153  1
  Mg  Mg121  1  0.80035521  0.80055990  0.66766153  1
  Mg  Mg122  1  0.80035521  0.99979631  0.66766153  1
  Mg  Mg123  1  0.19944110  0.99979631  0.66766153  1
  Mg  Mg124  1  0.86638807  0.13361193  0.83329154  1
  Mg  Mg125  1  0.26722385  0.13361193  0.83329154  1
  Mg  Mg126  1  0.86638807  0.73277615  0.83329154  1
  Mg  Mg127  1  0.26660017  0.53320133  0.83334946  1
  Mg  Mg128  1  0.26660017  0.73339883  0.83334946  1
  Mg  Mg129  1  0.46679867  0.73339983  0.83334946  1
  Mg  Mg130  1  0.66666417  0.13342592  0.83339706  1
  Mg  Mg131  1  0.46676175  0.13342592  0.83339706  1
  Mg  Mg132  1  0.86657408  0.33333583  0.83339706  1
  Mg  Mg133  1  0.46676175  0.33333583  0.83339706  1
  Mg  Mg134  1  0.86657408  0.53323825  0.83339706  1
  Mg  Mg135  1  0.66666417  0.53323925  0.83339706  1
  Mg  Mg136  1  0.66666600  0.33333300  0.83354303  1
  Mg  Mg137  1  0.46669639  0.53330261  0.83347121  1
  Mg  Mg138  1  0.06660621  0.53330261  0.83347121  1
  Mg  Mg139  1  0.46669639  0.93339379  0.83347121  1
  Mg  Mg140  1  0.26593718  0.33262286  0.83367189  1
  Mg  Mg141  1  0.06668568  0.33262386  0.83367189  1
  Mg  Mg142  1  0.06668568  0.73406282  0.83367189  1
  Mg  Mg143  1  0.66737714  0.73406282  0.83367189  1
  Mg  Mg144  1  0.66737714  0.93331432  0.83367189  1
  Mg  Mg145  1  0.26593718  0.93331432  0.83367189  1
  Mg  Mg146  1  0.06541600  0.13083300  0.83711914  1
  Mg  Mg147  1  0.06541600  0.93458300  0.83711914  1
  Mg  Mg148  1  0.86916700  0.93458400  0.83711914  1
  Cr  Cr0  1  0.00000000  -0.00000000  -0.00000000  1
loop_
_geom_bond_atom_site_label_1
_geom_bond_atom_site_label_2
_geom_bond_distance
_geom_bond_site_symmetry_2
Mg0 Mg6 3.176539 1_555
Mg0 Mg20 3.177545 1_545
Mg0 Mg32 3.180378 1_545
Mg0 Mg145 3.180390 1_544
Mg0 Mg131 3.187436 1_554
Mg0 Mg38 3.187436 1_555
Mg0 Mg8 3.190269 1_555
Mg0 Mg19 3.194448 1_545
Mg0 Mg139 3.195060 1_544
Mg0 Mg35 3.195060 1_545
Mg0 Mg1 3.222362 1_555
Mg0 Mg3 3.233675 1_555
Mg1 Mg7 3.176546 1_555
Mg1 Mg21 3.177547 1_545
Mg1 Mg31 3.180378 1_545
Mg1 Mg144 3.180391 1_544
Mg1 Mg130 3.187436 1_554
Mg1 Mg37 3.187436 1_555
Mg1 Mg8 3.190270 1_555
Mg1 Mg19 3.194439 1_545
Mg1 Mg139 3.195067 1_544
Mg1 Mg35 3.195067 1_545
Mg1 Mg2 3.233691 1_555
Mg2 Mg5 3.110823 1_555
Mg2 Mg26 3.118209 1_545
Mg2 Mg23 3.129966 1_545
Mg2 Mg46 3.188175 1_555
Mg2 Mg7 3.205048 1_555
Mg2 Mg31 3.212612 1_545
Mg2 Mg21 3.214146 1_545
Mg3 Mg4 3.110816 1_555
Mg3 Mg47 3.188174 1_555
Mg3 Mg6 3.205023 1_555
Mg3 Mg32 3.212604 1_545
Mg4 Mg5 3.129989 1_455
Mg4 Mg47 3.188167 1_555
Mg4 Mg6 3.205015 1_555
Mg5 Mg7 3.205031 1_555
Mg5 Mg9 3.233676 1_555
Mg6 Mg8 3.195702 1_555
Mg7 Mg9 3.176530 1_555
Mg7 Mg8 3.195694 1_555
Mg10 Mg6 3.176539 1_555
Mg10 Mg11 3.177546 1_555
Mg10 Mg27 3.180378 1_555
Mg10 Mg140 3.180390 1_554
Mg10 Mg133 3.187436 1_554
Mg10 Mg40 3.187436 1_555
Mg10 Mg13 3.190269 1_555
Mg10 Mg15 3.194448 1_555
Mg10 Mg137 3.195060 1_554
Mg10 Mg33 3.195060 1_555
Mg10 Mg18 3.222362 1_555
Mg10 Mg4 3.233683 1_555
Mg11 Mg9 3.177546 1_455
Mg11 Mg28 3.179989 1_555
Mg11 Mg27 3.179989 1_555
Mg11 Mg141 3.180001 1_554
Mg11 Mg140 3.180002 1_554
Mg11 Mg43 3.193186 1_555
Mg11 Mg127 3.193186 1_554
Mg11 Mg14 3.196073 1_555
Mg11 Mg15 3.196080 1_555
Mg11 Mg5 3.214138 1_455
Mg11 Mg4 3.214155 1_555
Mg12 Mg134 3.184745 1_554
Mg12 Mg41 3.184745 1_555
Mg12 Mg132 3.184745 1_554
Mg12 Mg39 3.184745 1_555
Mg12 Mg136 3.188091 1_554
Mg12 Mg36 3.188104 1_555
Mg12 Mg17 3.190269 1_555
Mg12 Mg9 3.190269 1_555
Mg12 Mg8 3.195001 1_555
Mg12 Mg13 3.195001 1_555
Mg12 Mg16 3.195687 1_555
Mg12 Mg7 3.195687 1_555
Mg13 Mg133 3.184744 1_554
Mg13 Mg40 3.184744 1_555
Mg13 Mg135 3.184753 1_554
Mg13 Mg42 3.184753 1_555
Mg13 Mg136 3.188084 1_554
Mg13 Mg36 3.188097 1_555
Mg13 Mg18 3.190270 1_555
Mg13 Mg8 3.195002 1_555
Mg13 Mg16 3.195694 1_555
Mg13 Mg6 3.195702 1_555
Mg14 Mg34 3.185660 1_555
Mg14 Mg44 3.188535 1_555
Mg14 Mg43 3.188535 1_555
Mg14 Mg19 3.188659 1_555
Mg14 Mg15 3.188659 1_555
Mg14 Mg9 3.194431 1_455
Mg14 Mg17 3.194431 1_455
Mg14 Mg20 3.196073 1_555
Mg15 Mg33 3.185668 1_555
Mg15 Mg45 3.188535 1_555
Mg15 Mg43 3.188542 1_555
Mg15 Mg19 3.188636 1_555
Mg15 Mg18 3.194439 1_555
Mg15 Mg21 3.196064 1_555
Mg16 Mg17 3.176530 1_555
Mg16 Mg18 3.176546 1_555
Mg16 Mg48 3.177540 1_555
Mg16 Mg41 3.190212 1_555
Mg16 Mg42 3.190219 1_555
Mg16 Mg22 3.205031 1_555
Mg16 Mg23 3.205048 1_555
Mg17 Mg20 3.177545 1_655
Mg17 Mg29 3.180378 1_655
Mg17 Mg41 3.187436 1_555
Mg17 Mg34 3.195068 1_655
Mg17 Mg9 3.222363 1_555
Mg17 Mg22 3.233676 1_555
Mg18 Mg21 3.177546 1_555
Mg18 Mg30 3.180378 1_555
Mg18 Mg42 3.187428 1_555
Mg18 Mg33 3.195067 1_555
Mg18 Mg23 3.233691 1_555
Mg19 Mg35 3.185668 1_555
Mg19 Mg45 3.188527 1_555
Mg19 Mg44 3.188542 1_555
Mg19 Mg21 3.196064 1_555
Mg19 Mg20 3.196080 1_555
Mg20 Mg29 3.179989 1_555
Mg20 Mg32 3.179989 1_555
Mg20 Mg44 3.193186 1_555
Mg20 Mg22 3.214138 1_455
Mg20 Mg3 3.214139 1_565
Mg21 Mg30 3.179989 1_555
Mg21 Mg31 3.179989 1_555
Mg21 Mg45 3.193185 1_555
Mg21 Mg23 3.214146 1_555
Mg22 Mg23 3.110823 1_555
Mg22 Mg25 3.118217 1_655
Mg22 Mg3 3.129981 1_665
Mg22 Mg48 3.188174 1_555
Mg22 Mg29 3.212604 1_655
Mg23 Mg26 3.118217 1_555
Mg23 Mg48 3.188175 1_555
Mg23 Mg30 3.212612 1_555
Mg24 Mg5 3.118217 1_455
Mg24 Mg4 3.118225 1_555
Mg24 Mg26 3.126348 1_445
Mg24 Mg25 3.126365 1_545
Mg24 Mg46 3.193543 1_455
Mg24 Mg47 3.193558 1_555
Mg24 Mg27 3.205011 1_555
Mg24 Mg28 3.205020 1_555
Mg24 Mg55 3.211542 1_555
Mg24 Mg49 3.229072 1_555
Mg24 Mg50 3.229079 1_555
Mg25 Mg3 3.118225 1_565
Mg25 Mg26 3.126356 1_455
Mg25 Mg48 3.193542 1_455
Mg25 Mg47 3.193558 1_565
Mg25 Mg29 3.205004 1_555
Mg25 Mg32 3.205011 1_555
Mg25 Mg55 3.211542 1_565
Mg25 Mg51 3.229072 1_555
Mg25 Mg54 3.229079 1_555
Mg26 Mg46 3.193543 1_565
Mg26 Mg48 3.193559 1_555
Mg26 Mg31 3.205003 1_555
Mg26 Mg30 3.205011 1_555
Mg26 Mg55 3.211542 1_665
Mg26 Mg52 3.229071 1_555
Mg26 Mg53 3.229072 1_555
Mg27 Mg28 3.174187 1_555
Mg27 Mg50 3.176604 1_555
Mg27 Mg47 3.180652 1_555
Mg27 Mg43 3.190056 1_555
Mg27 Mg68 3.193209 1_555
Mg27 Mg40 3.193578 1_555
Mg27 Mg58 3.194223 1_555
Mg27 Mg33 3.197567 1_555
Mg27 Mg4 3.212612 1_555
Mg28 Mg49 3.176612 1_555
Mg28 Mg9 3.180370 1_455
Mg28 Mg46 3.180658 1_455
Mg28 Mg43 3.190039 1_555
Mg28 Mg68 3.193208 1_555
Mg28 Mg39 3.193570 1_455
Mg28 Mg59 3.194223 1_455
Mg28 Mg34 3.197552 1_555
Mg28 Mg5 3.212612 1_455
Mg29 Mg32 3.174179 1_555
Mg29 Mg51 3.176604 1_555
Mg29 Mg48 3.180651 1_455
Mg29 Mg44 3.190047 1_555
Mg29 Mg70 3.193208 1_555
Mg29 Mg41 3.193578 1_455
Mg29 Mg60 3.194231 1_455
Mg29 Mg34 3.197583 1_555
Mg30 Mg31 3.174180 1_555
Mg30 Mg52 3.176603 1_555
Mg30 Mg48 3.180651 1_555
Mg30 Mg45 3.190055 1_555
Mg30 Mg69 3.193209 1_555
Mg30 Mg42 3.193563 1_555
Mg30 Mg61 3.194231 1_555
Mg30 Mg33 3.197582 1_555
Mg31 Mg53 3.176603 1_555
Mg31 Mg46 3.180651 1_565
Mg31 Mg45 3.190047 1_555
Mg31 Mg69 3.193209 1_555
Mg31 Mg37 3.193579 1_565
Mg31 Mg56 3.194231 1_565
Mg31 Mg35 3.197583 1_555
Mg32 Mg54 3.176604 1_555
Mg32 Mg47 3.180652 1_565
Mg32 Mg44 3.190056 1_555
Mg32 Mg70 3.193209 1_555
Mg32 Mg38 3.193578 1_565
Mg32 Mg57 3.194223 1_565
Mg32 Mg35 3.197567 1_555
Mg33 Mg42 3.186095 1_555
Mg33 Mg40 3.186096 1_555
Mg33 Mg43 3.186830 1_555
Mg33 Mg45 3.186839 1_555
Mg33 Mg61 3.188554 1_555
Mg33 Mg58 3.188554 1_555
Mg33 Mg71 3.190120 1_555
Mg34 Mg39 3.186095 1_455
Mg34 Mg41 3.186103 1_455
Mg34 Mg43 3.186815 1_555
Mg34 Mg44 3.186822 1_555
Mg34 Mg59 3.188546 1_455
Mg34 Mg60 3.188554 1_455
Mg34 Mg72 3.190119 1_555
Mg34 Mg9 3.195060 1_455
Mg35 Mg38 3.186096 1_565
Mg35 Mg37 3.186103 1_565
Mg35 Mg45 3.186824 1_555
Mg35 Mg44 3.186830 1_555
Mg35 Mg56 3.188554 1_565
Mg35 Mg57 3.188554 1_565
Mg35 Mg73 3.190120 1_555
Mg36 Mg38 3.184601 1_555
Mg36 Mg40 3.184601 1_555
Mg36 Mg37 3.184610 1_555
Mg36 Mg41 3.184617 1_555
Mg36 Mg39 3.184617 1_555
Mg36 Mg42 3.184626 1_555
Mg36 Mg8 3.188097 1_555
Mg36 Mg62 3.191512 1_555
Mg36 Mg63 3.191512 1_555
Mg36 Mg64 3.191519 1_555
Mg37 Mg46 3.180225 1_555
Mg37 Mg38 3.184549 1_555
Mg37 Mg39 3.184668 1_555
Mg37 Mg8 3.184745 1_555
Mg37 Mg62 3.185450 1_555
Mg37 Mg56 3.186951 1_555
Mg37 Mg66 3.189500 1_555
Mg37 Mg7 3.190219 1_555
Mg38 Mg47 3.180225 1_555
Mg38 Mg40 3.184669 1_555
Mg38 Mg8 3.184744 1_555
Mg38 Mg62 3.185450 1_555
Mg38 Mg57 3.186951 1_555
Mg38 Mg65 3.189500 1_555
Mg38 Mg6 3.190220 1_555
Mg39 Mg46 3.180226 1_555
Mg39 Mg41 3.184550 1_555
Mg39 Mg64 3.185450 1_555
Mg39 Mg59 3.186951 1_555
Mg39 Mg9 3.187436 1_555
Mg39 Mg66 3.189500 1_555
Mg39 Mg7 3.190212 1_555
Mg40 Mg47 3.180225 1_555
Mg40 Mg42 3.184557 1_555
Mg40 Mg63 3.185450 1_555
Mg40 Mg58 3.186951 1_555
Mg40 Mg65 3.189500 1_555
Mg40 Mg6 3.190220 1_555
Mg41 Mg48 3.180226 1_555
Mg41 Mg42 3.184676 1_555
Mg41 Mg64 3.185450 1_555
Mg41 Mg60 3.186951 1_555
Mg41 Mg67 3.189500 1_555
Mg42 Mg48 3.180217 1_555
Mg42 Mg63 3.185458 1_555
Mg42 Mg61 3.186943 1_555
Mg42 Mg67 3.189500 1_555
Mg43 Mg68 3.186851 1_555
Mg43 Mg44 3.189250 1_555
Mg43 Mg45 3.189265 1_555
Mg43 Mg72 3.190414 1_555
Mg43 Mg71 3.190421 1_555
Mg44 Mg70 3.186851 1_555
Mg44 Mg45 3.189258 1_555
Mg44 Mg73 3.190421 1_555
Mg44 Mg72 3.190421 1_555
Mg45 Mg69 3.186851 1_555
Mg45 Mg73 3.190422 1_555
Mg45 Mg71 3.190429 1_555
Mg46 Mg7 3.177540 1_555
Mg46 Mg49 3.178470 1_655
Mg46 Mg53 3.178470 1_545
Mg46 Mg66 3.182120 1_555
Mg46 Mg5 3.188174 1_555
Mg47 Mg6 3.177532 1_555
Mg47 Mg50 3.178470 1_555
Mg47 Mg54 3.178470 1_545
Mg47 Mg65 3.182120 1_555
Mg48 Mg51 3.178470 1_655
Mg48 Mg52 3.178479 1_555
Mg48 Mg67 3.182120 1_555
Mg49 Mg50 3.173955 1_555
Mg49 Mg55 3.178838 1_555
Mg49 Mg53 3.183689 1_445
Mg49 Mg68 3.188671 1_555
Mg49 Mg59 3.190466 1_455
Mg49 Mg66 3.190634 1_455
Mg49 Mg76 3.195466 1_555
Mg49 Mg80 3.201239 1_555
Mg49 Mg74 3.201536 1_455
Mg50 Mg55 3.178837 1_555
Mg50 Mg54 3.183690 1_545
Mg50 Mg68 3.188672 1_555
Mg50 Mg58 3.190449 1_555
Mg50 Mg65 3.190634 1_555
Mg50 Mg76 3.195473 1_555
Mg50 Mg79 3.201231 1_555
Mg50 Mg75 3.201528 1_555
Mg51 Mg54 3.173955 1_555
Mg51 Mg55 3.178838 1_565
Mg51 Mg52 3.183697 1_455
Mg51 Mg70 3.188671 1_555
Mg51 Mg60 3.190466 1_455
Mg51 Mg67 3.190633 1_455
Mg51 Mg94 3.195474 1_555
Mg51 Mg91 3.201239 1_555
Mg51 Mg93 3.201536 1_455
Mg52 Mg53 3.173940 1_555
Mg52 Mg55 3.178829 1_665
Mg52 Mg69 3.188663 1_555
Mg52 Mg61 3.190473 1_555
Mg52 Mg67 3.190650 1_555
Mg52 Mg95 3.195466 1_555
Mg52 Mg92 3.201231 1_555
Mg52 Mg93 3.201536 1_555
Mg53 Mg55 3.178837 1_665
Mg53 Mg69 3.188671 1_555
Mg53 Mg56 3.190465 1_565
Mg53 Mg66 3.190634 1_565
Mg53 Mg95 3.195466 1_555
Mg53 Mg96 3.201231 1_555
Mg53 Mg74 3.201536 1_565
Mg54 Mg55 3.178837 1_565
Mg54 Mg70 3.188672 1_555
Mg54 Mg57 3.190449 1_565
Mg54 Mg65 3.190633 1_565
Mg54 Mg94 3.195473 1_555
Mg54 Mg97 3.201231 1_555
Mg54 Mg75 3.201536 1_565
Mg55 Mg94 3.194177 1_545
Mg55 Mg95 3.194184 1_445
Mg55 Mg76 3.194185 1_555
Mg56 Mg62 3.183958 1_555
Mg56 Mg66 3.184472 1_555
Mg56 Mg69 3.184796 1_545
Mg56 Mg73 3.185931 1_545
Mg56 Mg96 3.189744 1_545
Mg56 Mg98 3.190328 1_545
Mg56 Mg78 3.191913 1_555
Mg56 Mg57 3.192011 1_555
Mg57 Mg62 3.183965 1_555
Mg57 Mg65 3.184465 1_555
Mg57 Mg70 3.184787 1_545
Mg57 Mg73 3.185932 1_545
Mg57 Mg97 3.189736 1_545
Mg57 Mg98 3.190336 1_545
Mg57 Mg77 3.191913 1_555
Mg58 Mg63 3.183965 1_555
Mg58 Mg65 3.184465 1_555
Mg58 Mg68 3.184787 1_555
Mg58 Mg71 3.185932 1_555
Mg58 Mg79 3.189736 1_555
Mg58 Mg86 3.190328 1_555
Mg58 Mg81 3.191913 1_555
Mg58 Mg61 3.192011 1_555
Mg59 Mg64 3.183957 1_555
Mg59 Mg66 3.184472 1_555
Mg59 Mg68 3.184795 1_655
Mg59 Mg72 3.185923 1_655
Mg59 Mg80 3.189736 1_655
Mg59 Mg87 3.190328 1_655
Mg59 Mg82 3.191913 1_555
Mg59 Mg60 3.191996 1_555
Mg60 Mg64 3.183957 1_555
Mg60 Mg67 3.184472 1_555
Mg60 Mg70 3.184795 1_655
Mg60 Mg72 3.185932 1_655
Mg60 Mg91 3.189736 1_655
Mg60 Mg87 3.190328 1_655
Mg60 Mg85 3.191913 1_555
Mg61 Mg63 3.183958 1_555
Mg61 Mg67 3.184472 1_555
Mg61 Mg69 3.184796 1_555
Mg61 Mg71 3.185932 1_555
Mg61 Mg92 3.189744 1_555
Mg61 Mg86 3.190328 1_555
Mg61 Mg84 3.191913 1_555
Mg62 Mg78 3.186125 1_555
Mg62 Mg77 3.186133 1_555
Mg62 Mg65 3.187692 1_555
Mg62 Mg66 3.187692 1_555
Mg62 Mg83 3.191345 1_555
Mg62 Mg64 3.193029 1_555
Mg62 Mg63 3.193030 1_555
Mg63 Mg84 3.186125 1_555
Mg63 Mg81 3.186133 1_555
Mg63 Mg67 3.187692 1_555
Mg63 Mg65 3.187692 1_555
Mg63 Mg83 3.191345 1_555
Mg63 Mg64 3.193029 1_555
Mg64 Mg85 3.186125 1_555
Mg64 Mg82 3.186125 1_555
Mg64 Mg67 3.187693 1_555
Mg64 Mg66 3.187693 1_555
Mg64 Mg83 3.191353 1_555
Mg65 Mg75 3.187564 1_555
Mg65 Mg77 3.187803 1_555
Mg65 Mg81 3.187803 1_555
Mg66 Mg74 3.187556 1_555
Mg66 Mg78 3.187811 1_555
Mg66 Mg82 3.187811 1_555
Mg67 Mg93 3.187564 1_555
Mg67 Mg84 3.187811 1_555
Mg67 Mg85 3.187811 1_555
Mg68 Mg71 3.184789 1_555
Mg68 Mg72 3.184790 1_555
Mg68 Mg88 3.185043 1_555
Mg68 Mg80 3.188470 1_555
Mg68 Mg79 3.188470 1_555
Mg69 Mg71 3.184805 1_555
Mg69 Mg73 3.184806 1_555
Mg69 Mg90 3.185043 1_555
Mg69 Mg96 3.188470 1_555
Mg69 Mg92 3.188470 1_555
Mg70 Mg73 3.184790 1_555
Mg70 Mg72 3.184806 1_555
Mg70 Mg89 3.185043 1_555
Mg70 Mg91 3.188470 1_555
Mg70 Mg97 3.188470 1_555
Mg71 Mg88 3.187650 1_555
Mg71 Mg90 3.187659 1_555
Mg71 Mg86 3.187859 1_555
Mg71 Mg72 3.189722 1_555
Mg71 Mg73 3.189739 1_555
Mg72 Mg88 3.187651 1_555
Mg72 Mg89 3.187659 1_555
Mg72 Mg87 3.187851 1_555
Mg72 Mg73 3.189730 1_555
Mg73 Mg89 3.187650 1_555
Mg73 Mg90 3.187659 1_555
Mg73 Mg98 3.187851 1_555
Mg74 Mg96 3.182992 1_545
Mg74 Mg80 3.183000 1_655
Mg74 Mg76 3.184346 1_655
Mg74 Mg95 3.184347 1_545
Mg74 Mg78 3.189459 1_555
Mg74 Mg82 3.189460 1_555
Mg75 Mg79 3.182985 1_555
Mg75 Mg97 3.183001 1_545
Mg75 Mg94 3.184346 1_545
Mg75 Mg76 3.184346 1_555
Mg75 Mg81 3.189451 1_555
Mg75 Mg77 3.189459 1_555
Mg76 Mg79 3.181105 1_555
Mg76 Mg80 3.181114 1_555
Mg76 Mg95 3.189738 1_445
Mg76 Mg94 3.189740 1_545
Mg77 Mg81 3.181873 1_555
Mg77 Mg83 3.182394 1_555
Mg77 Mg78 3.182915 1_555
Mg77 Mg98 3.184376 1_545
Mg77 Mg97 3.189877 1_545
Mg78 Mg82 3.181888 1_555
Mg78 Mg83 3.182395 1_555
Mg78 Mg98 3.184367 1_545
Mg78 Mg96 3.189886 1_545
Mg79 Mg80 3.185970 1_555
Mg79 Mg88 3.187557 1_555
Mg79 Mg86 3.189278 1_555
Mg79 Mg81 3.189877 1_555
Mg80 Mg88 3.187548 1_555
Mg80 Mg87 3.189271 1_555
Mg80 Mg82 3.189877 1_455
Mg81 Mg83 3.182394 1_555
Mg81 Mg84 3.182915 1_555
Mg81 Mg86 3.184361 1_555
Mg82 Mg83 3.182402 1_555
Mg82 Mg85 3.182900 1_555
Mg82 Mg87 3.184367 1_655
Mg83 Mg84 3.182395 1_555
Mg83 Mg85 3.182402 1_555
Mg84 Mg85 3.181888 1_555
Mg84 Mg86 3.184360 1_555
Mg84 Mg93 3.189467 1_555
Mg84 Mg92 3.189886 1_555
Mg85 Mg87 3.184368 1_655
Mg85 Mg93 3.189476 1_555
Mg85 Mg91 3.189877 1_655
Mg86 Mg99 3.187859 1_555
Mg86 Mg92 3.189294 1_555
Mg86 Mg88 3.189955 1_555
Mg86 Mg90 3.189963 1_555
Mg87 Mg91 3.189271 1_555
Mg87 Mg89 3.189946 1_555
Mg87 Mg88 3.189947 1_555
Mg88 Mg99 3.187650 1_555
Mg88 Mg90 3.189419 1_555
Mg88 Mg89 3.189420 1_555
Mg89 Mg91 3.187548 1_555
Mg89 Mg97 3.187557 1_555
Mg89 Mg90 3.189419 1_555
Mg89 Mg98 3.189946 1_555
Mg90 Mg96 3.187556 1_555
Mg90 Mg92 3.187556 1_555
Mg90 Mg99 3.187659 1_555
Mg90 Mg98 3.189947 1_555
Mg91 Mg94 3.181130 1_555
Mg91 Mg93 3.183008 1_455
Mg91 Mg97 3.185970 1_555
Mg92 Mg95 3.181105 1_555
Mg92 Mg93 3.182984 1_555
Mg92 Mg96 3.185963 1_555
Mg93 Mg94 3.184346 1_655
Mg93 Mg95 3.184347 1_555
Mg94 Mg97 3.181113 1_555
Mg94 Mg95 3.189739 1_455
Mg95 Mg96 3.181097 1_555
Mg96 Mg98 3.189286 1_555
Mg97 Mg98 3.189286 1_555
Mg100 Mg102 3.184790 1_555
Mg100 Mg104 3.184806 1_555
Mg100 Mg114 3.185923 1_455
Mg100 Mg115 3.185932 1_455
Mg100 Mg88 3.187651 1_555
Mg100 Mg89 3.187659 1_555
Mg100 Mg87 3.187851 1_555
Mg100 Mg99 3.189722 1_555
Mg100 Mg101 3.189730 1_555
Mg100 Mg138 3.190119 1_555
Mg100 Mg127 3.190414 1_555
Mg100 Mg128 3.190421 1_555
Mg101 Mg104 3.184790 1_555
Mg101 Mg103 3.184806 1_555
Mg101 Mg111 3.185931 1_565
Mg101 Mg112 3.185932 1_565
Mg101 Mg89 3.187650 1_555
Mg101 Mg90 3.187659 1_555
Mg101 Mg98 3.187851 1_555
Mg101 Mg99 3.189739 1_555
Mg101 Mg139 3.190120 1_555
Mg101 Mg128 3.190421 1_555
Mg101 Mg129 3.190422 1_555
Mg102 Mg113 3.184787 1_555
Mg102 Mg99 3.184789 1_555
Mg102 Mg114 3.184795 1_455
Mg102 Mg88 3.185043 1_555
Mg102 Mg127 3.186851 1_555
Mg102 Mg80 3.188470 1_555
Mg102 Mg79 3.188470 1_555
Mg102 Mg118 3.188671 1_555
Mg102 Mg119 3.188672 1_555
Mg102 Mg141 3.193196 1_555
Mg102 Mg140 3.193196 1_555
Mg103 Mg111 3.184796 1_565
Mg103 Mg116 3.184796 1_555
Mg103 Mg99 3.184805 1_555
Mg103 Mg90 3.185043 1_555
Mg103 Mg129 3.186851 1_555
Mg103 Mg96 3.188470 1_555
Mg103 Mg92 3.188470 1_555
Mg103 Mg121 3.188663 1_555
Mg103 Mg122 3.188671 1_555
Mg103 Mg144 3.193196 1_555
Mg103 Mg143 3.193196 1_555
Mg104 Mg112 3.184787 1_565
Mg104 Mg115 3.184795 1_455
Mg104 Mg89 3.185043 1_555
Mg104 Mg128 3.186851 1_555
Mg104 Mg91 3.188470 1_555
Mg104 Mg97 3.188470 1_555
Mg104 Mg120 3.188671 1_555
Mg104 Mg123 3.188672 1_555
Mg104 Mg142 3.193196 1_555
Mg104 Mg145 3.193196 1_555
Mg105 Mg125 3.182120 1_555
Mg105 Mg112 3.184465 1_555
Mg105 Mg113 3.184465 1_555
Mg105 Mg75 3.187564 1_555
Mg105 Mg109 3.187692 1_555
Mg105 Mg108 3.187692 1_555
Mg105 Mg77 3.187803 1_555
Mg105 Mg81 3.187803 1_555
Mg105 Mg131 3.189500 1_555
Mg105 Mg133 3.189500 1_555
Mg105 Mg123 3.190633 1_545
Mg105 Mg119 3.190634 1_555
Mg106 Mg124 3.182120 1_555
Mg106 Mg114 3.184472 1_555
Mg106 Mg111 3.184472 1_555
Mg106 Mg74 3.187556 1_555
Mg106 Mg108 3.187692 1_555
Mg106 Mg110 3.187693 1_555
Mg106 Mg78 3.187811 1_555
Mg106 Mg82 3.187811 1_555
Mg106 Mg130 3.189500 1_555
Mg106 Mg132 3.189500 1_555
Mg106 Mg118 3.190634 1_655
Mg106 Mg122 3.190634 1_545
Mg107 Mg126 3.182120 1_555
Mg107 Mg115 3.184472 1_555
Mg107 Mg116 3.184472 1_555
Mg107 Mg93 3.187564 1_555
Mg107 Mg109 3.187692 1_555
Mg107 Mg110 3.187693 1_555
Mg107 Mg84 3.187811 1_555
Mg107 Mg85 3.187811 1_555
Mg107 Mg135 3.189500 1_555
Mg107 Mg134 3.189500 1_555
Mg107 Mg120 3.190633 1_655
Mg107 Mg121 3.190650 1_555
Mg108 Mg111 3.183958 1_555
Mg108 Mg112 3.183965 1_555
Mg108 Mg131 3.185450 1_555
Mg108 Mg130 3.185450 1_555
Mg108 Mg78 3.186125 1_555
Mg108 Mg77 3.186133 1_555
Mg108 Mg83 3.191345 1_555
Mg108 Mg136 3.191525 1_555
Mg108 Mg110 3.193029 1_555
Mg108 Mg109 3.193030 1_555
Mg109 Mg116 3.183958 1_555
Mg109 Mg113 3.183965 1_555
Mg109 Mg133 3.185450 1_555
Mg109 Mg135 3.185458 1_555
Mg109 Mg84 3.186125 1_555
Mg109 Mg81 3.186133 1_555
Mg109 Mg83 3.191345 1_555
Mg109 Mg136 3.191525 1_555
Mg109 Mg110 3.193029 1_555
Mg110 Mg115 3.183957 1_555
Mg110 Mg114 3.183957 1_555
Mg110 Mg134 3.185450 1_555
Mg110 Mg132 3.185450 1_555
Mg110 Mg85 3.186125 1_555
Mg110 Mg82 3.186125 1_555
Mg110 Mg83 3.191353 1_555
Mg110 Mg136 3.191532 1_555
Mg111 Mg130 3.186951 1_555
Mg111 Mg139 3.188554 1_545
Mg111 Mg96 3.189744 1_545
Mg111 Mg98 3.190328 1_545
Mg111 Mg122 3.190465 1_545
Mg111 Mg78 3.191913 1_555
Mg111 Mg112 3.192011 1_555
Mg111 Mg144 3.194219 1_545
Mg112 Mg131 3.186951 1_555
Mg112 Mg139 3.188554 1_545
Mg112 Mg97 3.189736 1_545
Mg112 Mg98 3.190336 1_545
Mg112 Mg123 3.190449 1_545
Mg112 Mg77 3.191913 1_555
Mg112 Mg145 3.194210 1_545
Mg113 Mg99 3.185932 1_555
Mg113 Mg133 3.186951 1_555
Mg113 Mg137 3.188554 1_555
Mg113 Mg79 3.189736 1_555
Mg113 Mg86 3.190328 1_555
Mg113 Mg119 3.190449 1_555
Mg113 Mg81 3.191913 1_555
Mg113 Mg116 3.192011 1_555
Mg113 Mg140 3.194210 1_555
Mg114 Mg132 3.186951 1_555
Mg114 Mg138 3.188546 1_655
Mg114 Mg80 3.189736 1_655
Mg114 Mg87 3.190328 1_655
Mg114 Mg118 3.190466 1_655
Mg114 Mg82 3.191913 1_555
Mg114 Mg115 3.191996 1_555
Mg114 Mg141 3.194211 1_655
Mg115 Mg134 3.186951 1_555
Mg115 Mg138 3.188554 1_655
Mg115 Mg91 3.189736 1_655
Mg115 Mg87 3.190328 1_655
Mg115 Mg120 3.190466 1_655
Mg115 Mg85 3.191913 1_555
Mg115 Mg142 3.194218 1_655
Mg116 Mg99 3.185932 1_555
Mg116 Mg135 3.186943 1_555
Mg116 Mg137 3.188554 1_555
Mg116 Mg92 3.189744 1_555
Mg116 Mg86 3.190328 1_555
Mg116 Mg121 3.190473 1_555
Mg116 Mg84 3.191913 1_555
Mg116 Mg143 3.194218 1_555
Mg117 Mg121 3.178829 1_445
Mg117 Mg119 3.178837 1_555
Mg117 Mg122 3.178837 1_445
Mg117 Mg123 3.178837 1_545
Mg117 Mg118 3.178838 1_555
Mg117 Mg120 3.178838 1_545
Mg117 Mg94 3.194177 1_545
Mg117 Mg95 3.194184 1_445
Mg117 Mg76 3.194185 1_555
Mg117 Mg148 3.211542 1_445
Mg117 Mg146 3.211542 1_555
Mg117 Mg147 3.211542 1_545
Mg118 Mg119 3.173955 1_555
Mg118 Mg141 3.176599 1_555
Mg118 Mg124 3.178470 1_455
Mg118 Mg122 3.183689 1_445
Mg118 Mg76 3.195466 1_555
Mg118 Mg80 3.201239 1_555
Mg118 Mg74 3.201536 1_455
Mg118 Mg146 3.229072 1_555
Mg119 Mg140 3.176591 1_555
Mg119 Mg125 3.178470 1_555
Mg119 Mg123 3.183690 1_545
Mg119 Mg76 3.195473 1_555
Mg119 Mg79 3.201231 1_555
Mg119 Mg75 3.201528 1_555
Mg119 Mg146 3.229079 1_555
Mg120 Mg123 3.173955 1_555
Mg120 Mg142 3.176591 1_555
Mg120 Mg126 3.178470 1_455
Mg120 Mg121 3.183697 1_455
Mg120 Mg94 3.195474 1_555
Mg120 Mg91 3.201239 1_555
Mg120 Mg93 3.201536 1_455
Mg120 Mg147 3.229072 1_555
Mg121 Mg122 3.173940 1_555
Mg121 Mg143 3.176591 1_555
Mg121 Mg126 3.178479 1_555
Mg121 Mg95 3.195466 1_555
Mg121 Mg92 3.201231 1_555
Mg121 Mg93 3.201536 1_555
Mg121 Mg148 3.229071 1_555
Mg122 Mg144 3.176591 1_555
Mg122 Mg124 3.178470 1_565
Mg122 Mg95 3.195466 1_555
Mg122 Mg96 3.201231 1_555
Mg122 Mg74 3.201536 1_565
Mg122 Mg148 3.229072 1_555
Mg123 Mg145 3.176591 1_555
Mg123 Mg125 3.178470 1_565
Mg123 Mg94 3.195473 1_555
Mg123 Mg97 3.201231 1_555
Mg123 Mg75 3.201536 1_565
Mg123 Mg147 3.229079 1_555
Mg124 Mg7 3.177540 1_556
Mg124 Mg130 3.180225 1_555
Mg124 Mg132 3.180226 1_555
Mg124 Mg144 3.180651 1_545
Mg124 Mg141 3.180658 1_655
Mg124 Mg5 3.188174 1_556
Mg124 Mg2 3.188175 1_556
Mg124 Mg146 3.193543 1_655
Mg124 Mg148 3.193543 1_545
Mg125 Mg6 3.177532 1_556
Mg125 Mg133 3.180225 1_555
Mg125 Mg131 3.180225 1_555
Mg125 Mg140 3.180652 1_555
Mg125 Mg145 3.180652 1_545
Mg125 Mg4 3.188167 1_556
Mg125 Mg3 3.188174 1_556
Mg125 Mg147 3.193558 1_545
Mg125 Mg146 3.193558 1_555
Mg126 Mg16 3.177540 1_556
Mg126 Mg135 3.180217 1_555
Mg126 Mg134 3.180226 1_555
Mg126 Mg143 3.180651 1_555
Mg126 Mg142 3.180651 1_655
Mg126 Mg22 3.188174 1_556
Mg126 Mg23 3.188175 1_556
Mg126 Mg147 3.193542 1_655
Mg126 Mg148 3.193559 1_555
Mg127 Mg138 3.186815 1_555
Mg127 Mg137 3.186830 1_555
Mg127 Mg14 3.188535 1_556
Mg127 Mg15 3.188542 1_556
Mg127 Mg128 3.189250 1_555
Mg127 Mg129 3.189265 1_555
Mg127 Mg141 3.190039 1_555
Mg127 Mg140 3.190056 1_555
Mg127 Mg99 3.190421 1_555
Mg128 Mg138 3.186822 1_555
Mg128 Mg139 3.186830 1_555
Mg128 Mg14 3.188535 1_556
Mg128 Mg19 3.188542 1_556
Mg128 Mg129 3.189258 1_555
Mg128 Mg142 3.190047 1_555
Mg128 Mg145 3.190056 1_555
Mg128 Mg20 3.193186 1_556
Mg129 Mg139 3.186824 1_555
Mg129 Mg137 3.186839 1_555
Mg129 Mg19 3.188527 1_556
Mg129 Mg15 3.188535 1_556
Mg129 Mg144 3.190047 1_555
Mg129 Mg143 3.190055 1_555
Mg129 Mg99 3.190429 1_555
Mg129 Mg21 3.193185 1_556
Mg130 Mg131 3.184549 1_555
Mg130 Mg136 3.184610 1_555
Mg130 Mg132 3.184668 1_555
Mg130 Mg8 3.184745 1_556
Mg130 Mg139 3.186103 1_545
Mg130 Mg7 3.190219 1_556
Mg130 Mg144 3.193579 1_545
Mg131 Mg136 3.184601 1_555
Mg131 Mg133 3.184669 1_555
Mg131 Mg8 3.184744 1_556
Mg131 Mg139 3.186096 1_545
Mg131 Mg6 3.190220 1_556
Mg131 Mg145 3.193578 1_545
Mg132 Mg134 3.184550 1_555
Mg132 Mg136 3.184617 1_555
Mg132 Mg138 3.186095 1_655
Mg132 Mg9 3.187436 1_556
Mg132 Mg7 3.190212 1_556
Mg132 Mg141 3.193570 1_655
Mg133 Mg135 3.184557 1_555
Mg133 Mg136 3.184601 1_555
Mg133 Mg137 3.186096 1_555
Mg133 Mg6 3.190220 1_556
Mg133 Mg140 3.193578 1_555
Mg134 Mg136 3.184617 1_555
Mg134 Mg135 3.184676 1_555
Mg134 Mg138 3.186103 1_655
Mg134 Mg17 3.187436 1_556
Mg134 Mg16 3.190212 1_556
Mg134 Mg142 3.193578 1_655
Mg135 Mg136 3.184626 1_555
Mg135 Mg137 3.186095 1_555
Mg135 Mg18 3.187428 1_556
Mg135 Mg16 3.190219 1_556
Mg135 Mg143 3.193563 1_555
Mg136 Mg8 3.188084 1_556
Mg137 Mg15 3.185668 1_556
Mg137 Mg99 3.190120 1_555
Mg137 Mg18 3.195067 1_556
Mg137 Mg140 3.197566 1_555
Mg137 Mg143 3.197582 1_555
Mg138 Mg14 3.185660 1_556
Mg138 Mg9 3.195060 1_456
Mg138 Mg17 3.195068 1_456
Mg138 Mg141 3.197552 1_555
Mg138 Mg142 3.197583 1_555
Mg139 Mg19 3.185668 1_556
Mg139 Mg145 3.197567 1_555
Mg139 Mg144 3.197583 1_555
Mg140 Mg141 3.174187 1_555
Mg140 Mg146 3.205011 1_555
Mg140 Mg4 3.212625 1_556
Mg141 Mg9 3.180383 1_456
Mg141 Mg146 3.205020 1_555
Mg141 Mg5 3.212625 1_456
Mg142 Mg145 3.174179 1_555
Mg142 Mg20 3.180001 1_556
Mg142 Mg17 3.180391 1_456
Mg142 Mg147 3.205005 1_555
Mg142 Mg22 3.212617 1_456
Mg143 Mg144 3.174180 1_555
Mg143 Mg21 3.180002 1_556
Mg143 Mg18 3.180391 1_556
Mg143 Mg148 3.205011 1_555
Mg143 Mg23 3.212625 1_556
Mg144 Mg21 3.180002 1_556
Mg144 Mg148 3.205004 1_555
Mg144 Mg2 3.212625 1_566
Mg145 Mg20 3.180002 1_556
Mg145 Mg147 3.205012 1_555
Mg145 Mg3 3.212617 1_566
Mg146 Mg5 3.118217 1_456
Mg146 Mg4 3.118225 1_556
Mg146 Mg148 3.126348 1_445
Mg146 Mg147 3.126365 1_545
Mg147 Mg22 3.118217 1_456
Mg147 Mg3 3.118225 1_566
Mg147 Mg148 3.126356 1_455
Mg148 Mg2 3.118209 1_566
Mg148 Mg23 3.118217 1_556
Cr0 Mg26 3.119593 1_445
Cr0 Mg148 3.119593 1_444
Cr0 Mg24 3.119593 1_555
Cr0 Mg146 3.119593 1_554
Cr0 Mg25 3.119593 1_545
Cr0 Mg147 3.119593 1_544
Cr0 Mg23 3.120395 1_445
Cr0 Mg2 3.120395 1_455
Cr0 Mg4 3.120403 1_555
Cr0 Mg3 3.120411 1_555
Cr0 Mg22 3.120412 1_445
Cr0 Mg5 3.120412 1_455
