# generated using pymatgen
data_Nd2CuSnO6
_symmetry_space_group_name_H-M   'P 1'
_cell_length_a   7.76811900
_cell_length_b   7.79372560
_cell_length_c   8.61684427
_cell_angle_alpha   92.76872075
_cell_angle_beta   90.00000000
_cell_angle_gamma   90.00000000
_symmetry_Int_Tables_number   1
_chemical_formula_structural   Nd2CuSnO6
_chemical_formula_sum   'Nd8 Cu4 Sn4 O24'
_cell_volume   521.07706484
_cell_formula_units_Z   4
loop_
 _symmetry_equiv_pos_site_id
 _symmetry_equiv_pos_as_xyz
  1  'x, y, z'
loop_
 _atom_site_type_symbol
 _atom_site_label
 _atom_site_symmetry_multiplicity
 _atom_site_fract_x
 _atom_site_fract_y
 _atom_site_fract_z
 _atom_site_occupancy
  Nd  Nd0  1  0.75000000  0.77277300  0.68916000  1
  Nd  Nd1  1  0.25000000  0.22722700  0.31084000  1
  Nd  Nd2  1  0.75000000  0.29150700  0.27144100  1
  Nd  Nd3  1  0.25000000  0.70849300  0.72855900  1
  Nd  Nd4  1  0.75000000  0.80510200  0.25152900  1
  Nd  Nd5  1  0.25000000  0.19489800  0.74847100  1
  Nd  Nd6  1  0.75000000  0.29095400  0.70868900  1
  Nd  Nd7  1  0.25000000  0.70904600  0.29131100  1
  Cu  Cu0  1  0.00000000  0.50000000  0.50000000  1
  Cu  Cu1  1  0.50000000  0.50000000  0.50000000  1
  Cu  Cu2  1  0.00000000  0.00000000  0.50000000  1
  Cu  Cu3  1  0.50000000  0.00000000  0.50000000  1
  Sn  Sn0  1  0.00000000  0.00000000  0.00000000  1
  Sn  Sn1  1  0.50000000  0.00000000  0.00000000  1
  Sn  Sn2  1  0.00000000  0.50000000  0.00000000  1
  Sn  Sn3  1  0.50000000  0.50000000  0.00000000  1
  O  O0  1  0.75000000  0.46626300  0.49393500  1
  O  O1  1  0.25000000  0.53373700  0.50606500  1
  O  O2  1  0.75000000  0.91263200  0.95502800  1
  O  O3  1  0.25000000  0.08736800  0.04497200  1
  O  O4  1  0.75000000  0.52453900  0.09502200  1
  O  O5  1  0.25000000  0.47546100  0.90497800  1
  O  O6  1  0.44096800  0.93877000  0.77144900  1
  O  O7  1  0.55903200  0.06123000  0.22855100  1
  O  O8  1  0.94096800  0.06123000  0.22855100  1
  O  O9  1  0.05903200  0.93877000  0.77144900  1
  O  O10  1  0.75000000  0.03839600  0.53730500  1
  O  O11  1  0.25000000  0.96160400  0.46269500  1
  O  O12  1  0.95615600  0.24638900  0.91299300  1
  O  O13  1  0.04384400  0.75361100  0.08700700  1
  O  O14  1  0.45615600  0.75361100  0.08700700  1
  O  O15  1  0.54384400  0.24638900  0.91299300  1
  O  O16  1  0.94351800  0.56458800  0.77617200  1
  O  O17  1  0.05648200  0.43541200  0.22382800  1
  O  O18  1  0.44351800  0.43541200  0.22382800  1
  O  O19  1  0.55648200  0.56458800  0.77617200  1
  O  O20  1  0.95797100  0.75044100  0.45702900  1
  O  O21  1  0.04202900  0.24955900  0.54297100  1
  O  O22  1  0.45797100  0.24955900  0.54297100  1
  O  O23  1  0.54202900  0.75044100  0.45702900  1
loop_
_geom_bond_atom_site_label_1
_geom_bond_atom_site_label_2
_geom_bond_distance
_geom_bond_site_symmetry_2
Nd0 O16 2.360536 1_555
Nd0 O19 2.360536 1_555
Nd0 O2 2.489040 1_555
Nd0 O10 2.501919 1_565
Nd0 O20 2.570523 1_555
Nd0 O23 2.570523 1_555
Nd0 O9 2.801924 1_655
Nd0 O6 2.801924 1_555
Nd0 O0 2.854518 1_555
Nd1 O18 2.360536 1_555
Nd1 O17 2.360536 1_555
Nd1 O3 2.489040 1_555
Nd1 O11 2.501919 1_545
Nd1 O22 2.570523 1_555
Nd1 O21 2.570523 1_555
Nd1 O7 2.801924 1_555
Nd1 O8 2.801924 1_455
Nd1 O1 2.854518 1_555
Nd2 O0 2.297481 1_555
Nd2 O8 2.343965 1_555
Nd2 O7 2.343965 1_555
Nd2 O4 2.424087 1_555
Nd2 O17 2.671857 1_655
Nd2 O18 2.671857 1_555
Nd3 O1 2.297481 1_555
Nd3 O6 2.343965 1_555
Nd3 O9 2.343965 1_555
Nd3 O5 2.424087 1_555
Nd3 O19 2.671857 1_555
Nd3 O16 2.671857 1_455
Nd4 O20 2.449478 1_555
Nd4 O23 2.449478 1_555
Nd4 O8 2.502564 1_565
Nd4 O7 2.502564 1_565
Nd4 O4 2.513002 1_555
Nd4 O13 2.706691 1_655
Nd4 O14 2.706691 1_555
Nd4 O2 2.727036 1_554
Nd4 O10 2.989523 1_565
Nd5 O22 2.449478 1_555
Nd5 O21 2.449478 1_555
Nd5 O6 2.502564 1_545
Nd5 O9 2.502564 1_545
Nd5 O5 2.513002 1_555
Nd5 O12 2.706691 1_455
Nd5 O15 2.706691 1_555
Nd5 O3 2.727036 1_556
Nd5 O11 2.989523 1_545
Nd6 O0 2.352748 1_555
Nd6 O10 2.403029 1_555
Nd6 O15 2.417341 1_555
Nd6 O12 2.417341 1_555
Nd6 O16 2.650708 1_555
Nd6 O19 2.650708 1_555
Nd6 O21 2.691622 1_655
Nd6 O22 2.691622 1_555
Nd7 O1 2.352748 1_555
Nd7 O11 2.403029 1_555
Nd7 O14 2.417341 1_555
Nd7 O13 2.417341 1_555
Nd7 O18 2.650708 1_555
Nd7 O17 2.650708 1_555
Nd7 O23 2.691622 1_555
Nd7 O20 2.691622 1_455
Cu0 O1 1.960107 1_555
Cu0 O0 1.960107 1_455
Cu0 O20 2.030593 1_455
Cu0 O21 2.030593 1_555
Cu0 O16 2.448120 1_455
Cu0 O17 2.448120 1_555
Cu1 O1 1.960107 1_555
Cu1 O0 1.960107 1_555
Cu1 O23 2.030593 1_555
Cu1 O22 2.030593 1_555
Cu1 O19 2.448120 1_555
Cu1 O18 2.448120 1_555
Cu2 O10 1.988735 1_455
Cu2 O11 1.988735 1_545
Cu2 O21 1.989252 1_555
Cu2 O20 1.989252 1_445
Cu2 O9 2.452943 1_545
Cu2 O8 2.452943 1_455
Cu3 O10 1.988735 1_555
Cu3 O11 1.988735 1_545
Cu3 O22 1.989252 1_555
Cu3 O23 1.989252 1_545
Cu3 O6 2.452943 1_545
Cu3 O7 2.452943 1_555
O2 Sn1 2.088016 1_566
O2 Sn0 2.088016 1_666
O3 Sn0 2.088016 1_555
O3 Sn1 2.088016 1_555
O4 Sn2 2.112663 1_655
O4 Sn3 2.112663 1_555
O5 Sn2 2.112663 1_556
O5 Sn3 2.112663 1_556
O6 Sn1 2.055653 1_566
O7 Sn1 2.055653 1_555
O8 Sn0 2.055653 1_655
O9 Sn0 2.055653 1_566
O12 Sn2 2.107551 1_656
O12 Sn0 2.122423 1_656
O13 Sn2 2.107551 1_555
O13 Sn0 2.122423 1_565
O14 Sn3 2.107551 1_555
O14 Sn1 2.122423 1_565
O15 Sn3 2.107551 1_556
O15 Sn1 2.122423 1_556
O16 Sn2 2.063867 1_656
O17 Sn2 2.063867 1_555
O18 Sn3 2.063867 1_555
O19 Sn3 2.063867 1_556
