# generated using pymatgen
data_Cu2H4CO5
_symmetry_space_group_name_H-M   'P 1'
_cell_length_a   5.75874566
_cell_length_b   6.13186700
_cell_length_c   7.03092855
_cell_angle_alpha   90.00000000
_cell_angle_beta   110.63855024
_cell_angle_gamma   90.00000000
_symmetry_Int_Tables_number   1
_chemical_formula_structural   Cu2H4CO5
_chemical_formula_sum   'Cu4 H8 C2 O10'
_cell_volume   232.34152517
_cell_formula_units_Z   2
loop_
 _symmetry_equiv_pos_site_id
 _symmetry_equiv_pos_as_xyz
  1  'x, y, z'
loop_
 _atom_site_type_symbol
 _atom_site_label
 _atom_site_symmetry_multiplicity
 _atom_site_fract_x
 _atom_site_fract_y
 _atom_site_fract_z
 _atom_site_occupancy
  Cu  Cu0  1  0.00028500  0.03053600  0.00006100  1
  Cu  Cu1  1  0.99971500  0.53053600  0.99993900  1
  Cu  Cu2  1  0.49659700  0.78480000  0.99718000  1
  Cu  Cu3  1  0.50340300  0.28480000  0.00282000  1
  H  H0  1  0.42375900  0.77609900  0.58110300  1
  H  H1  1  0.57624100  0.27609900  0.41889700  1
  H  H2  1  0.87995100  0.77590900  0.71319300  1
  H  H3  1  0.12004900  0.27590900  0.28680700  1
  H  H4  1  0.16266600  0.06415200  0.73371000  1
  H  H5  1  0.83733400  0.56415200  0.26629000  1
  H  H6  1  0.80231800  0.04270600  0.26741100  1
  H  H7  1  0.19768200  0.54270600  0.73258900  1
  C  C0  1  0.25870300  0.73099000  0.44687600  1
  C  C1  1  0.74129700  0.23099000  0.55312400  1
  O  O0  1  0.26011300  0.78520300  0.27474600  1
  O  O1  1  0.73988700  0.28520300  0.72525400  1
  O  O2  1  0.84193000  0.77985600  0.83802200  1
  O  O3  1  0.15807000  0.27985600  0.16197800  1
  O  O4  1  0.08599800  0.62612100  0.48357300  1
  O  O5  1  0.91400200  0.12612100  0.51642700  1
  O  O6  1  0.26714000  0.03899700  0.88111300  1
  O  O7  1  0.73286000  0.53899700  0.11888700  1
  O  O8  1  0.72937300  0.03211300  0.11442600  1
  O  O9  1  0.27062700  0.53211300  0.88557400  1
loop_
_geom_bond_atom_site_label_1
_geom_bond_atom_site_label_2
_geom_bond_distance
_geom_bond_site_symmetry_2
Cu0 O3 1.931233 1_555
Cu0 O2 1.939065 1_444
Cu0 O8 1.991217 1_455
Cu0 O6 1.992414 1_554
Cu0 O0 2.488915 1_545
Cu0 O1 2.525460 1_454
Cu1 O2 1.931233 1_555
Cu1 O3 1.939065 1_656
Cu1 O9 1.991217 1_655
Cu1 O7 1.992414 1_556
Cu1 O1 2.488915 1_555
Cu1 O0 2.525460 1_656
Cu2 O9 1.997517 1_555
Cu2 O8 1.999310 1_566
Cu2 O7 2.008588 1_556
Cu2 O6 2.020248 1_565
Cu3 O8 1.997517 1_555
Cu3 O9 1.999310 1_554
Cu3 O6 2.008588 1_554
Cu3 O7 2.020248 1_555
H2 O2 0.976876 1_555
H3 O3 0.976876 1_555
H4 O6 1.010096 1_555
H5 O7 1.010096 1_555
H6 O8 1.009520 1_555
H7 O9 1.009520 1_555
C0 H0 1.112777 1_555
C0 O0 1.257842 1_555
C0 O4 1.284574 1_555
C1 H1 1.112777 1_555
C1 O1 1.257842 1_555
C1 O5 1.284574 1_555
