# generated using pymatgen
data_Sr5CdN4
_symmetry_space_group_name_H-M   'P 1'
_cell_length_a   11.24315096
_cell_length_b   15.84664533
_cell_length_c   11.21345495
_cell_angle_alpha   90.00000000
_cell_angle_beta   99.17360809
_cell_angle_gamma   90.00000000
_symmetry_Int_Tables_number   1
_chemical_formula_structural   Sr5CdN4
_chemical_formula_sum   'Sr40 Cd8 N32'
_cell_volume   1972.30594168
_cell_formula_units_Z   8
loop_
 _symmetry_equiv_pos_site_id
 _symmetry_equiv_pos_as_xyz
  1  'x, y, z'
loop_
 _atom_site_type_symbol
 _atom_site_label
 _atom_site_symmetry_multiplicity
 _atom_site_fract_x
 _atom_site_fract_y
 _atom_site_fract_z
 _atom_site_occupancy
  Sr  Sr0  1  0.52316108  0.75000000  0.75936734  1
  Sr  Sr1  1  0.47683892  0.25000000  0.24063266  1
  Sr  Sr2  1  0.43054481  0.75000000  0.22794430  1
  Sr  Sr3  1  0.56945519  0.25000000  0.77205570  1
  Sr  Sr4  1  0.18675783  0.61799396  0.75378295  1
  Sr  Sr5  1  0.81324217  0.11799396  0.24621705  1
  Sr  Sr6  1  0.81324217  0.38200604  0.24621705  1
  Sr  Sr7  1  0.18675783  0.88200604  0.75378295  1
  Sr  Sr8  1  0.72775407  0.37924828  0.61944223  1
  Sr  Sr9  1  0.27224593  0.87924828  0.38055777  1
  Sr  Sr10  1  0.27224593  0.62075172  0.38055777  1
  Sr  Sr11  1  0.72775407  0.12075172  0.61944223  1
  Sr  Sr12  1  0.94971530  0.25000000  0.85930260  1
  Sr  Sr13  1  0.05028470  0.75000000  0.14069740  1
  Sr  Sr14  1  0.23178795  0.48325060  0.04843048  1
  Sr  Sr15  1  0.76821205  0.98325060  0.95156952  1
  Sr  Sr16  1  0.76821205  0.51674940  0.95156952  1
  Sr  Sr17  1  0.23178795  0.01674940  0.04843048  1
  Sr  Sr18  1  0.00000000  0.50000000  0.50000000  1
  Sr  Sr19  1  0.00000000  0.00000000  0.50000000  1
  Sr  Sr20  1  0.50249966  0.39236274  0.97749019  1
  Sr  Sr21  1  0.49750034  0.89236274  0.02250981  1
  Sr  Sr22  1  0.49750034  0.60763726  0.02250981  1
  Sr  Sr23  1  0.50249966  0.10763726  0.97749019  1
  Sr  Sr24  1  0.26122119  0.36740562  0.74499668  1
  Sr  Sr25  1  0.73877881  0.86740562  0.25500332  1
  Sr  Sr26  1  0.73877881  0.63259438  0.25500332  1
  Sr  Sr27  1  0.26122119  0.13259438  0.74499668  1
  Sr  Sr28  1  0.81684575  0.63964785  0.66861800  1
  Sr  Sr29  1  0.18315425  0.13964785  0.33138200  1
  Sr  Sr30  1  0.18315425  0.36035215  0.33138200  1
  Sr  Sr31  1  0.81684575  0.86035215  0.66861800  1
  Sr  Sr32  1  0.76388603  0.75000000  0.97784930  1
  Sr  Sr33  1  0.23611397  0.25000000  0.02215070  1
  Sr  Sr34  1  0.49417064  0.47630762  0.28088863  1
  Sr  Sr35  1  0.50582936  0.97630762  0.71911137  1
  Sr  Sr36  1  0.50582936  0.52369238  0.71911137  1
  Sr  Sr37  1  0.49417064  0.02369238  0.28088863  1
  Sr  Sr38  1  0.99481688  0.25000000  0.51951733  1
  Sr  Sr39  1  0.00518312  0.75000000  0.48048267  1
  Cd  Cd0  1  0.99590467  0.45533220  0.78940302  1
  Cd  Cd1  1  0.00409533  0.95533220  0.21059698  1
  Cd  Cd2  1  0.00409533  0.54466780  0.21059698  1
  Cd  Cd3  1  0.99590467  0.04466780  0.78940302  1
  Cd  Cd4  1  0.59162300  0.75000000  0.48466176  1
  Cd  Cd5  1  0.40837700  0.25000000  0.51533824  1
  Cd  Cd6  1  0.72580815  0.25000000  0.03249507  1
  Cd  Cd7  1  0.27419185  0.75000000  0.96750493  1
  N  N0  1  0.83713818  0.25000000  0.65454979  1
  N  N1  1  0.16286182  0.75000000  0.34545021  1
  N  N2  1  0.04121346  0.75000000  0.70283042  1
  N  N3  1  0.95878654  0.25000000  0.29716958  1
  N  N4  1  0.34001065  0.36614281  0.18967213  1
  N  N5  1  0.65998935  0.86614281  0.81032787  1
  N  N6  1  0.65998935  0.63385719  0.81032787  1
  N  N7  1  0.34001065  0.13385719  0.18967213  1
  N  N8  1  0.35642848  0.51393068  0.86729366  1
  N  N9  1  0.64357152  0.01393068  0.13270634  1
  N  N10  1  0.64357152  0.48606932  0.13270634  1
  N  N11  1  0.35642848  0.98606932  0.86729366  1
  N  N12  1  0.77370437  0.52657395  0.50144324  1
  N  N13  1  0.22629563  0.02657395  0.49855676  1
  N  N14  1  0.22629563  0.47342605  0.49855676  1
  N  N15  1  0.77370437  0.97342605  0.50144324  1
  N  N16  1  0.63289880  0.40517889  0.80597093  1
  N  N17  1  0.36710120  0.90517889  0.19402907  1
  N  N18  1  0.36710120  0.59482111  0.19402907  1
  N  N19  1  0.63289880  0.09482111  0.80597093  1
  N  N20  1  0.89184235  0.63310932  0.10699258  1
  N  N21  1  0.10815765  0.13310932  0.89300742  1
  N  N22  1  0.10815765  0.36689068  0.89300742  1
  N  N23  1  0.89184235  0.86689068  0.10699258  1
  N  N24  1  0.60929975  0.75000000  0.12353736  1
  N  N25  1  0.39070025  0.25000000  0.87646264  1
  N  N26  1  0.77147465  0.47397818  0.41876579  1
  N  N27  1  0.22852535  0.97397818  0.58123421  1
  N  N28  1  0.22852535  0.52602182  0.58123421  1
  N  N29  1  0.77147465  0.02602182  0.41876579  1
  N  N30  1  0.77779879  0.75000000  0.46744196  1
  N  N31  1  0.22220121  0.25000000  0.53255804  1
loop_
_geom_bond_atom_site_label_1
_geom_bond_atom_site_label_2
_geom_bond_distance
_geom_bond_site_symmetry_2
Cd0 N22 2.106947 1_655
Cd0 Sr18 3.328989 1_655
Cd1 N23 2.106947 1_455
Cd1 Sr19 3.328989 1_565
Cd2 N20 2.106947 1_455
Cd2 Sr18 3.328989 1_555
Cd3 N21 2.106947 1_655
Cd3 Sr19 3.328989 1_655
Cd4 N30 2.132524 1_555
Cd5 N31 2.132524 1_555
Cd6 Sr3 3.159456 1_554
Cd6 Sr6 3.214736 1_555
Cd6 Sr5 3.214736 1_555
Cd6 Sr20 3.358518 1_554
Cd6 Sr23 3.358518 1_554
Cd6 Sr12 3.415845 1_554
Cd6 Sr1 3.919938 1_555
Cd7 Sr2 3.159456 1_556
Cd7 Sr4 3.214736 1_555
Cd7 Sr7 3.214736 1_555
Cd7 Sr22 3.358518 1_556
Cd7 Sr21 3.358518 1_556
Cd7 Sr13 3.415845 1_556
Cd7 Sr0 3.919938 1_555
N0 Sr11 2.389141 1_555
N0 Sr8 2.389141 1_555
N0 Sr12 2.438646 1_555
N0 Sr38 2.508285 1_555
N1 Sr9 2.389141 1_555
N1 Sr10 2.389141 1_555
N1 Sr13 2.438646 1_555
N1 Sr39 2.508285 1_555
N2 Sr39 2.461409 1_555
N2 Sr4 2.661186 1_555
N2 Sr7 2.661186 1_555
N2 Sr31 3.043042 1_455
N2 Sr28 3.043042 1_455
N3 Sr38 2.461409 1_555
N3 Sr5 2.661186 1_555
N3 Sr6 2.661186 1_555
N3 Sr30 3.043042 1_655
N3 Sr29 3.043042 1_655
N4 Sr1 2.408361 1_555
N4 Sr34 2.555915 1_555
N4 Sr30 2.556799 1_555
N4 Sr14 2.611198 1_555
N4 Sr33 2.753350 1_555
N4 Sr20 3.249177 1_554
N5 Sr0 2.408361 1_555
N5 Sr35 2.555915 1_555
N5 Sr31 2.556799 1_555
N5 Sr15 2.611198 1_555
N5 Sr32 2.753350 1_555
N5 Sr21 3.249177 1_556
N6 Sr0 2.408361 1_555
N6 Sr36 2.555915 1_555
N6 Sr28 2.556799 1_555
N6 Sr16 2.611198 1_555
N6 Sr32 2.753350 1_555
N6 Sr22 3.249177 1_556
N7 Sr1 2.408361 1_555
N7 Sr37 2.555915 1_555
N7 Sr29 2.556799 1_555
N7 Sr17 2.611198 1_555
N7 Sr33 2.753350 1_555
N7 Sr23 3.249177 1_554
N8 Sr36 2.548810 1_555
N8 Sr22 2.621043 1_556
N8 Sr4 2.684095 1_555
N8 Sr14 2.689495 1_556
N8 Sr20 2.699663 1_555
N8 Sr24 2.819535 1_555
N9 Sr37 2.548810 1_555
N9 Sr23 2.621043 1_554
N9 Sr5 2.684095 1_555
N9 Sr15 2.689495 1_544
N9 Sr21 2.699663 1_545
N9 Sr25 2.819535 1_545
N10 Sr34 2.548810 1_555
N10 Sr20 2.621043 1_554
N10 Sr6 2.684095 1_555
N10 Sr16 2.689495 1_554
N10 Sr22 2.699663 1_555
N10 Sr26 2.819535 1_555
N11 Sr35 2.548810 1_555
N11 Sr21 2.621043 1_556
N11 Sr7 2.684095 1_555
N11 Sr17 2.689495 1_566
N11 Sr23 2.699663 1_565
N11 Sr27 2.819535 1_565
N12 N26 1.243945 1_555
N12 Sr18 2.581485 1_655
N12 Sr28 2.582672 1_555
N12 Sr8 2.772382 1_555
N12 Sr26 3.204285 1_555
N13 N27 1.243945 1_545
N13 Sr19 2.581485 1_555
N13 Sr29 2.582672 1_555
N13 Sr9 2.772382 1_545
N13 Sr27 3.204285 1_555
N14 N28 1.243945 1_555
N14 Sr18 2.581485 1_555
N14 Sr30 2.582672 1_555
N14 Sr10 2.772382 1_555
N14 Sr24 3.204285 1_555
N15 N29 1.243945 1_565
N15 Sr19 2.581485 1_665
N15 Sr31 2.582672 1_555
N15 Sr11 2.772382 1_565
N15 Sr25 3.204285 1_555
N16 Sr36 2.464364 1_555
N16 Sr8 2.528317 1_555
N16 Sr3 2.571759 1_555
N16 Sr20 2.605563 1_555
N16 Sr16 2.704440 1_555
N17 Sr37 2.464364 1_565
N17 Sr9 2.528317 1_555
N17 Sr2 2.571759 1_555
N17 Sr21 2.605563 1_555
N17 Sr17 2.704440 1_565
N18 Sr34 2.464364 1_555
N18 Sr10 2.528317 1_555
N18 Sr2 2.571759 1_555
N18 Sr22 2.605563 1_555
N18 Sr14 2.704440 1_555
N19 Sr35 2.464364 1_545
N19 Sr11 2.528317 1_555
N19 Sr3 2.571759 1_555
N19 Sr23 2.605563 1_555
N19 Sr15 2.704440 1_545
N20 Sr13 2.555902 1_655
N20 Sr26 2.574292 1_555
N20 Sr32 2.633174 1_554
N20 Sr16 2.756289 1_554
N21 Sr12 2.555902 1_455
N21 Sr27 2.574292 1_555
N21 Sr33 2.633174 1_556
N21 Sr17 2.756289 1_556
N22 Sr12 2.555902 1_455
N22 Sr24 2.574292 1_555
N22 Sr33 2.633174 1_556
N22 Sr14 2.756289 1_556
N23 Sr13 2.555902 1_655
N23 Sr25 2.574292 1_555
N23 Sr32 2.633174 1_554
N23 Sr15 2.756289 1_554
N24 Sr2 2.481956 1_555
N24 Sr32 2.568069 1_554
N24 Sr26 2.658867 1_555
N24 Sr25 2.658867 1_555
N24 Sr22 2.738384 1_555
N24 Sr21 2.738384 1_555
N25 Sr3 2.481956 1_555
N25 Sr33 2.568069 1_556
N25 Sr24 2.658867 1_555
N25 Sr27 2.658867 1_555
N25 Sr23 2.738384 1_555
N25 Sr20 2.738384 1_555
N26 Sr6 2.525492 1_555
N26 Sr18 2.618221 1_655
N26 Sr8 2.812743 1_555
N26 Sr26 3.099985 1_555
N26 Sr34 3.251960 1_555
N27 Sr7 2.525492 1_555
N27 Sr19 2.618221 1_565
N27 Sr9 2.812743 1_555
N27 Sr27 3.099985 1_565
N27 Sr35 3.251960 1_555
N28 Sr4 2.525492 1_555
N28 Sr18 2.618221 1_555
N28 Sr10 2.812743 1_555
N28 Sr24 3.099985 1_555
N28 Sr36 3.251960 1_555
N29 Sr5 2.525492 1_555
N29 Sr19 2.618221 1_655
N29 Sr11 2.812743 1_555
N29 Sr25 3.099985 1_545
N29 Sr37 3.251960 1_555
N30 Sr39 2.537313 1_655
N30 Sr28 2.832655 1_555
N30 Sr31 2.832655 1_555
N30 Sr25 2.999230 1_555
N30 Sr26 2.999230 1_555
N31 Sr38 2.537313 1_455
N31 Sr30 2.832655 1_555
N31 Sr29 2.832655 1_555
N31 Sr27 2.999230 1_555
N31 Sr24 2.999230 1_555
