# generated using pymatgen
data_KNdFeBiO6
_symmetry_space_group_name_H-M   'P 1'
_cell_length_a   5.77255714
_cell_length_b   5.77255714
_cell_length_c   5.77255714
_cell_angle_alpha   60.00000000
_cell_angle_beta   60.00000000
_cell_angle_gamma   60.00000000
_symmetry_Int_Tables_number   1
_chemical_formula_structural   KNdFeBiO6
_chemical_formula_sum   'K1 Nd1 Fe1 Bi1 O6'
_cell_volume   136.01591397
_cell_formula_units_Z   1
loop_
 _symmetry_equiv_pos_site_id
 _symmetry_equiv_pos_as_xyz
  1  'x, y, z'
loop_
 _atom_site_type_symbol
 _atom_site_label
 _atom_site_symmetry_multiplicity
 _atom_site_fract_x
 _atom_site_fract_y
 _atom_site_fract_z
 _atom_site_occupancy
  K  K0  1  0.25000000  0.25000000  0.25000000  1
  Nd  Nd0  1  0.75000000  0.75000000  0.75000000  1
  Fe  Fe0  1  0.50000000  0.50000000  0.50000000  1
  Bi  Bi0  1  -0.00000000  -0.00000000  0.00000000  1
  O  O0  1  0.74386599  0.25613401  0.25613401  1
  O  O1  1  0.25613401  0.74386599  0.74386599  1
  O  O2  1  0.74386599  0.25613401  0.74386599  1
  O  O3  1  0.25613401  0.74386599  0.25613401  1
  O  O4  1  0.74386599  0.74386599  0.25613401  1
  O  O5  1  0.25613401  0.25613401  0.74386599  1
loop_
_geom_bond_atom_site_label_1
_geom_bond_atom_site_label_2
_geom_bond_distance
_geom_bond_site_symmetry_2
K0 O1 2.886713 1_554
K0 O3 2.886713 1_545
K0 O2 2.886713 1_455
K0 O5 2.886713 1_554
K0 O2 2.886713 1_554
K0 O5 2.886713 1_555
K0 O4 2.886713 1_545
K0 O1 2.886713 1_545
K0 O0 2.886713 1_555
K0 O0 2.886713 1_455
K0 O3 2.886713 1_555
K0 O4 2.886713 1_455
Nd0 O1 2.886713 1_555
Nd0 O4 2.886713 1_556
Nd0 O0 2.886713 1_565
Nd0 O3 2.886713 1_655
Nd0 O1 2.886713 1_655
Nd0 O5 2.886713 1_655
Nd0 O0 2.886713 1_556
Nd0 O5 2.886713 1_565
Nd0 O3 2.886713 1_556
Nd0 O2 2.886713 1_555
Nd0 O2 2.886713 1_565
Nd0 O4 2.886713 1_555
Fe0 O1 1.990831 1_555
Fe0 O4 1.990831 1_555
Fe0 O5 1.990831 1_555
Fe0 O3 1.990831 1_555
Fe0 O0 1.990831 1_555
Fe0 O2 1.990831 1_555
Bi0 O1 2.090983 1_544
Bi0 O5 2.090983 1_554
Bi0 O0 2.090983 1_455
Bi0 O2 2.090983 1_454
Bi0 O4 2.090983 1_445
Bi0 O3 2.090983 1_545
