# generated using pymatgen
data_Li3Co2O5
_symmetry_space_group_name_H-M   'P 1'
_cell_length_a   5.02675700
_cell_length_b   5.81428219
_cell_length_c   6.53508403
_cell_angle_alpha   103.59336634
_cell_angle_beta   97.58287068
_cell_angle_gamma   107.32697723
_symmetry_Int_Tables_number   1
_chemical_formula_structural   Li3Co2O5
_chemical_formula_sum   'Li6 Co4 O10'
_cell_volume   172.97698019
_cell_formula_units_Z   2
loop_
 _symmetry_equiv_pos_site_id
 _symmetry_equiv_pos_as_xyz
  1  'x, y, z'
loop_
 _atom_site_type_symbol
 _atom_site_label
 _atom_site_symmetry_multiplicity
 _atom_site_fract_x
 _atom_site_fract_y
 _atom_site_fract_z
 _atom_site_occupancy
  Li  Li0  1  0.50000000  0.50000000  0.00000000  1
  Li  Li1  1  0.10763300  0.70190800  0.19409800  1
  Li  Li2  1  0.89236700  0.29809200  0.80590200  1
  Li  Li3  1  0.29956700  0.09781000  0.60256700  1
  Li  Li4  1  0.70043300  0.90219000  0.39743300  1
  Li  Li5  1  0.50000000  0.00000000  0.00000000  1
  Co  Co0  1  0.90594500  0.80469800  0.80515900  1
  Co  Co1  1  0.09405500  0.19530200  0.19484100  1
  Co  Co2  1  0.69656900  0.39204600  0.39431800  1
  Co  Co3  1  0.30343100  0.60795400  0.60568200  1
  O  O0  1  0.83096800  0.87129700  0.09218800  1
  O  O1  1  0.39027900  0.07497500  0.29987300  1
  O  O2  1  0.17469900  0.65733900  0.88083100  1
  O  O3  1  0.61796900  0.47577200  0.70441300  1
  O  O4  1  0.01086700  0.25635300  0.47978500  1
  O  O5  1  0.16903200  0.12870300  0.90781200  1
  O  O6  1  0.82530100  0.34266100  0.11916900  1
  O  O7  1  0.60972100  0.92502500  0.70012700  1
  O  O8  1  0.98913300  0.74364700  0.52021500  1
  O  O9  1  0.38203100  0.52422800  0.29558700  1
loop_
_geom_bond_atom_site_label_1
_geom_bond_atom_site_label_2
_geom_bond_distance
_geom_bond_site_symmetry_2
Li0 O9 2.080161 1_555
Li0 O3 2.080161 1_554
Li0 O0 2.185436 1_555
Li0 O5 2.185436 1_554
Li0 O6 2.237660 1_555
Li0 O2 2.237660 1_554
Li1 O6 2.046203 1_455
Li1 O0 2.056059 1_455
Li1 O9 2.083054 1_555
Li1 O2 2.087284 1_554
Li1 O1 2.098053 1_565
Li1 O8 2.265783 1_455
Li2 O2 2.046203 1_655
Li2 O5 2.056059 1_655
Li2 O3 2.083054 1_555
Li2 O6 2.087284 1_556
Li2 O7 2.098053 1_545
Li2 O4 2.265783 1_655
Li3 O1 2.071042 1_555
Li3 O8 2.075680 1_445
Li3 O4 2.106376 1_555
Li3 O5 2.165475 1_555
Li3 O3 2.184098 1_555
Li3 O7 2.195024 1_545
Li4 O7 2.071042 1_555
Li4 O4 2.075680 1_665
Li4 O8 2.106376 1_555
Li4 O0 2.165475 1_555
Li4 O9 2.184098 1_555
Li4 O1 2.195024 1_565
Li5 O6 2.060048 1_555
Li5 O2 2.060048 1_544
Li5 O1 2.088431 1_555
Li5 O7 2.088431 1_544
Li5 O0 2.092789 1_545
Li5 O5 2.092789 1_554
Co0 O5 1.853570 1_665
Co0 O2 1.875108 1_655
Co0 O3 1.921998 1_555
Co0 O0 1.934567 1_556
Co0 O8 1.936910 1_555
Co0 O7 1.937617 1_555
Co1 O0 1.853570 1_445
Co1 O6 1.875108 1_455
Co1 O9 1.921998 1_555
Co1 O5 1.934567 1_554
Co1 O4 1.936910 1_555
Co1 O1 1.937617 1_555
Co2 O1 1.916703 1_555
Co2 O6 1.977247 1_555
Co2 O8 2.029327 1_555
Co2 O4 2.036468 1_655
Co2 O9 2.048051 1_555
Co2 O3 2.088525 1_555
Co3 O7 1.916703 1_555
Co3 O2 1.977247 1_555
Co3 O4 2.029327 1_555
Co3 O8 2.036468 1_455
Co3 O3 2.048051 1_555
Co3 O9 2.088525 1_555
