# generated using pymatgen
data_Mg7Sn
_symmetry_space_group_name_H-M   'P 1'
_cell_length_a   6.37716349
_cell_length_b   6.37716349
_cell_length_c   5.08304243
_cell_angle_alpha   90.00000000
_cell_angle_beta   90.00000000
_cell_angle_gamma   120.00002064
_symmetry_Int_Tables_number   1
_chemical_formula_structural   Mg7Sn
_chemical_formula_sum   'Mg7 Sn1'
_cell_volume   179.02322577
_cell_formula_units_Z   1
loop_
 _symmetry_equiv_pos_site_id
 _symmetry_equiv_pos_as_xyz
  1  'x, y, z'
loop_
 _atom_site_type_symbol
 _atom_site_label
 _atom_site_symmetry_multiplicity
 _atom_site_fract_x
 _atom_site_fract_y
 _atom_site_fract_z
 _atom_site_occupancy
  Mg  Mg0  1  0.83296174  0.66592249  -0.00000000  1
  Mg  Mg1  1  0.83296174  0.16703826  -0.00000000  1
  Mg  Mg2  1  0.33407751  0.16703826  -0.00000000  1
  Mg  Mg3  1  0.67258526  0.83629163  0.50000000  1
  Mg  Mg4  1  0.16370837  0.83629163  0.50000000  1
  Mg  Mg5  1  0.16370837  0.32741474  0.50000000  1
  Mg  Mg6  1  0.66666700  0.33333300  0.50000000  1
  Sn  Sn0  1  0.33333300  0.66666700  -0.00000000  1
loop_
_geom_bond_atom_site_label_1
_geom_bond_atom_site_label_2
_geom_bond_distance
_geom_bond_site_symmetry_2
Mg0 Mg3 3.130008 1_555
Mg0 Mg3 3.130008 1_554
Mg0 Mg4 3.130011 1_655
Mg0 Mg4 3.130011 1_654
Mg0 Mg6 3.135799 1_554
Mg0 Mg6 3.135799 1_555
Mg0 Mg2 3.181465 1_555
Mg0 Mg1 3.181466 1_555
Mg0 Sn0 3.188578 1_655
Mg0 Sn0 3.188591 1_555
Mg0 Mg2 3.195696 1_665
Mg0 Mg1 3.195697 1_565
Mg1 Mg5 3.130011 1_655
Mg1 Mg3 3.130011 1_545
Mg1 Mg5 3.130011 1_654
Mg1 Mg3 3.130011 1_544
Mg1 Mg6 3.135800 1_555
Mg1 Mg6 3.135800 1_554
Mg1 Mg2 3.181466 1_555
Mg1 Sn0 3.188583 1_545
Mg1 Sn0 3.188583 1_655
Mg1 Mg2 3.195697 1_655
Mg2 Mg5 3.130008 1_554
Mg2 Mg5 3.130008 1_555
Mg2 Mg4 3.130011 1_544
Mg2 Mg4 3.130011 1_545
Mg2 Mg6 3.135799 1_554
Mg2 Mg6 3.135799 1_555
Mg2 Sn0 3.188578 1_545
Mg2 Sn0 3.188591 1_555
Mg3 Mg5 3.131971 1_665
Mg3 Mg4 3.131972 1_655
Mg3 Sn0 3.157494 1_556
Mg3 Sn0 3.157494 1_555
Mg3 Mg6 3.188746 1_555
Mg3 Mg6 3.188752 1_565
Mg3 Mg5 3.245190 1_555
Mg3 Mg4 3.245191 1_555
Mg4 Mg5 3.131972 1_565
Mg4 Sn0 3.157485 1_555
Mg4 Sn0 3.157485 1_556
Mg4 Mg6 3.188748 1_565
Mg4 Mg6 3.188748 1_455
Mg4 Mg5 3.245191 1_555
Mg5 Sn0 3.157494 1_555
Mg5 Sn0 3.157494 1_556
Mg5 Mg6 3.188746 1_555
Mg5 Mg6 3.188752 1_455
