# generated using pymatgen
data_Ce2Ni7
_symmetry_space_group_name_H-M   'P 1'
_cell_length_a   4.90906252
_cell_length_b   4.90906252
_cell_length_c   24.46252800
_cell_angle_alpha   90.00000000
_cell_angle_beta   90.00000000
_cell_angle_gamma   120.00000699
_symmetry_Int_Tables_number   1
_chemical_formula_structural   Ce2Ni7
_chemical_formula_sum   'Ce8 Ni28'
_cell_volume   510.53916409
_cell_formula_units_Z   4
loop_
 _symmetry_equiv_pos_site_id
 _symmetry_equiv_pos_as_xyz
  1  'x, y, z'
loop_
 _atom_site_type_symbol
 _atom_site_label
 _atom_site_symmetry_multiplicity
 _atom_site_fract_x
 _atom_site_fract_y
 _atom_site_fract_z
 _atom_site_occupancy
  Ce  Ce0  1  0.33333300  0.66666700  0.46934100  1
  Ce  Ce1  1  0.66666700  0.33333300  0.53065900  1
  Ce  Ce2  1  0.66666700  0.33333300  0.96934100  1
  Ce  Ce3  1  0.33333300  0.66666700  0.03065900  1
  Ce  Ce4  1  0.33333300  0.66666700  0.32526900  1
  Ce  Ce5  1  0.66666700  0.33333300  0.67473100  1
  Ce  Ce6  1  0.66666700  0.33333300  0.82526900  1
  Ce  Ce7  1  0.33333300  0.66666700  0.17473100  1
  Ni  Ni0  1  0.00000000  0.00000000  0.50000000  1
  Ni  Ni1  1  0.00000000  0.00000000  0.00000000  1
  Ni  Ni2  1  0.00000000  0.00000000  0.33244100  1
  Ni  Ni3  1  0.00000000  0.00000000  0.66755900  1
  Ni  Ni4  1  0.00000000  0.00000000  0.83244100  1
  Ni  Ni5  1  0.00000000  0.00000000  0.16755900  1
  Ni  Ni6  1  0.33333300  0.66666700  0.66741300  1
  Ni  Ni7  1  0.66666700  0.33333300  0.33258700  1
  Ni  Ni8  1  0.66666700  0.33333300  0.16741300  1
  Ni  Ni9  1  0.33333300  0.66666700  0.83258700  1
  Ni  Ni10  1  0.83366300  0.16633700  0.25000000  1
  Ni  Ni11  1  0.83366300  0.66732700  0.25000000  1
  Ni  Ni12  1  0.33267300  0.16633700  0.25000000  1
  Ni  Ni13  1  0.16633700  0.83366300  0.75000000  1
  Ni  Ni14  1  0.16633700  0.33267300  0.75000000  1
  Ni  Ni15  1  0.66732700  0.83366300  0.75000000  1
  Ni  Ni16  1  0.83305900  0.16694100  0.41485100  1
  Ni  Ni17  1  0.83305900  0.66611800  0.41485100  1
  Ni  Ni18  1  0.33388200  0.16694100  0.41485100  1
  Ni  Ni19  1  0.16694100  0.83305900  0.58514900  1
  Ni  Ni20  1  0.16694100  0.33388200  0.58514900  1
  Ni  Ni21  1  0.66611800  0.83305900  0.58514900  1
  Ni  Ni22  1  0.16694100  0.83305900  0.91485100  1
  Ni  Ni23  1  0.16694100  0.33388200  0.91485100  1
  Ni  Ni24  1  0.66611800  0.83305900  0.91485100  1
  Ni  Ni25  1  0.83305900  0.16694100  0.08514900  1
  Ni  Ni26  1  0.83305900  0.66611800  0.08514900  1
  Ni  Ni27  1  0.33388200  0.16694100  0.08514900  1
loop_
_geom_bond_atom_site_label_1
_geom_bond_atom_site_label_2
_geom_bond_distance
_geom_bond_site_symmetry_2
Ce0 Ni18 2.793118 1_565
Ce0 Ni17 2.793118 1_455
Ce0 Ni16 2.793120 1_565
Ce0 Ni16 2.793120 1_455
Ce0 Ni17 2.793122 1_555
Ce0 Ni18 2.793122 1_555
Ce0 Ni0 2.931799 1_565
Ce0 Ni0 2.931803 1_555
Ce0 Ni0 2.931803 1_665
Ce0 Ni19 3.166586 1_555
Ce0 Ni20 3.166588 1_555
Ce0 Ni21 3.166588 1_555
Ce1 Ni21 2.793118 1_545
Ce1 Ni20 2.793118 1_655
Ce1 Ni19 2.793120 1_655
Ce1 Ni19 2.793120 1_545
Ce1 Ni20 2.793122 1_555
Ce1 Ni21 2.793122 1_555
Ce1 Ni0 2.931799 1_655
Ce1 Ni0 2.931803 1_665
Ce1 Ni0 2.931803 1_555
Ce1 Ni16 3.166586 1_555
Ce1 Ni18 3.166588 1_555
Ce1 Ni17 3.166588 1_555
Ce2 Ni24 2.793118 1_545
Ce2 Ni23 2.793118 1_655
Ce2 Ni22 2.793120 1_655
Ce2 Ni22 2.793120 1_545
Ce2 Ni23 2.793122 1_555
Ce2 Ni24 2.793122 1_555
Ce2 Ni1 2.931799 1_656
Ce2 Ni1 2.931803 1_666
Ce2 Ni1 2.931803 1_556
Ce2 Ni25 3.166586 1_556
Ce2 Ni26 3.166588 1_556
Ce2 Ni27 3.166588 1_556
Ce3 Ni27 2.793118 1_565
Ce3 Ni26 2.793118 1_455
Ce3 Ni25 2.793120 1_565
Ce3 Ni25 2.793120 1_455
Ce3 Ni26 2.793122 1_555
Ce3 Ni27 2.793122 1_555
Ce3 Ni1 2.931799 1_565
Ce3 Ni1 2.931803 1_555
Ce3 Ni1 2.931803 1_665
Ce3 Ni22 3.166586 1_554
Ce3 Ni23 3.166588 1_554
Ce3 Ni24 3.166588 1_554
Ce4 Ni2 2.839671 1_565
Ce4 Ni2 2.839675 1_555
Ce4 Ni2 2.839675 1_665
Ce4 Ni7 2.839893 1_455
Ce4 Ni7 2.839893 1_565
Ce4 Ni7 2.839902 1_555
Ce4 Ni10 3.068388 1_455
Ce4 Ni10 3.068388 1_565
Ce4 Ni12 3.068388 1_555
Ce4 Ni11 3.068388 1_555
Ce4 Ni11 3.068388 1_455
Ce4 Ni12 3.068388 1_565
Ce4 Ni17 3.290435 1_455
Ce4 Ni18 3.290435 1_565
Ce4 Ni16 3.290436 1_455
Ce4 Ni16 3.290436 1_565
Ce4 Ni18 3.290438 1_555
Ce4 Ni17 3.290438 1_555
Ce5 Ni3 2.839671 1_655
Ce5 Ni3 2.839675 1_665
Ce5 Ni3 2.839675 1_555
Ce5 Ni6 2.839893 1_545
Ce5 Ni6 2.839893 1_655
Ce5 Ni6 2.839902 1_555
Ce5 Ni13 3.068388 1_545
Ce5 Ni13 3.068388 1_655
Ce5 Ni14 3.068388 1_555
Ce5 Ni15 3.068388 1_555
Ce5 Ni14 3.068388 1_655
Ce5 Ni15 3.068388 1_545
Ce5 Ni21 3.290435 1_545
Ce5 Ni20 3.290435 1_655
Ce5 Ni19 3.290436 1_545
Ce5 Ni19 3.290436 1_655
Ce5 Ni20 3.290438 1_555
Ce5 Ni21 3.290438 1_555
Ce6 Ni4 2.839671 1_655
Ce6 Ni4 2.839675 1_665
Ce6 Ni4 2.839675 1_555
Ce6 Ni9 2.839893 1_545
Ce6 Ni9 2.839893 1_655
Ce6 Ni9 2.839902 1_555
Ce6 Ni13 3.068388 1_545
Ce6 Ni13 3.068388 1_655
Ce6 Ni14 3.068388 1_555
Ce6 Ni15 3.068388 1_555
Ce6 Ni14 3.068388 1_655
Ce6 Ni15 3.068388 1_545
Ce6 Ni24 3.290435 1_545
Ce6 Ni23 3.290435 1_655
Ce6 Ni22 3.290436 1_545
Ce6 Ni22 3.290436 1_655
Ce6 Ni23 3.290438 1_555
Ce6 Ni24 3.290438 1_555
Ce7 Ni5 2.839671 1_565
Ce7 Ni5 2.839675 1_555
Ce7 Ni5 2.839675 1_665
Ce7 Ni8 2.839893 1_455
Ce7 Ni8 2.839893 1_565
Ce7 Ni8 2.839902 1_555
Ce7 Ni10 3.068388 1_455
Ce7 Ni10 3.068388 1_565
Ce7 Ni12 3.068388 1_555
Ce7 Ni11 3.068388 1_555
Ce7 Ni11 3.068388 1_455
Ce7 Ni12 3.068388 1_565
Ce7 Ni27 3.290435 1_565
Ce7 Ni26 3.290435 1_455
Ce7 Ni25 3.290436 1_565
Ce7 Ni25 3.290436 1_455
Ce7 Ni27 3.290438 1_555
Ce7 Ni26 3.290438 1_555
Ni0 Ni17 2.520631 1_445
Ni0 Ni18 2.520631 1_555
Ni0 Ni20 2.520631 1_555
Ni0 Ni21 2.520631 1_445
Ni0 Ni16 2.520631 1_455
Ni0 Ni19 2.520631 1_545
Ni1 Ni27 2.520631 1_555
Ni1 Ni26 2.520631 1_445
Ni1 Ni24 2.520631 1_444
Ni1 Ni23 2.520631 1_554
Ni1 Ni25 2.520631 1_455
Ni1 Ni22 2.520631 1_544
Ni2 Ni7 2.834248 1_455
Ni2 Ni7 2.834252 1_445
Ni2 Ni7 2.834252 1_555
Ni3 Ni6 2.834248 1_545
Ni3 Ni6 2.834252 1_555
Ni3 Ni6 2.834252 1_445
Ni4 Ni9 2.834248 1_545
Ni4 Ni9 2.834252 1_555
Ni4 Ni9 2.834252 1_445
Ni5 Ni8 2.834248 1_455
Ni5 Ni8 2.834252 1_445
Ni5 Ni8 2.834252 1_555
Ni10 Ni12 2.449671 1_655
Ni10 Ni11 2.449671 1_545
Ni10 Ni12 2.459391 1_555
Ni10 Ni11 2.459391 1_555
Ni10 Ni5 2.463218 1_655
Ni10 Ni2 2.463218 1_655
Ni10 Ni8 2.469361 1_555
Ni10 Ni7 2.469361 1_555
Ni11 Ni12 2.449671 1_665
Ni11 Ni12 2.459391 1_555
Ni11 Ni2 2.463216 1_665
Ni11 Ni5 2.463216 1_665
Ni11 Ni8 2.469366 1_555
Ni11 Ni7 2.469366 1_555
Ni12 Ni2 2.463216 1_555
Ni12 Ni5 2.463216 1_555
Ni12 Ni8 2.469366 1_555
Ni12 Ni7 2.469366 1_555
Ni13 Ni14 2.449671 1_565
Ni13 Ni15 2.449671 1_455
Ni13 Ni14 2.459391 1_555
Ni13 Ni15 2.459391 1_555
Ni13 Ni3 2.463218 1_565
Ni13 Ni4 2.463218 1_565
Ni13 Ni9 2.469361 1_555
Ni13 Ni6 2.469361 1_555
Ni14 Ni15 2.449671 1_445
Ni14 Ni15 2.459391 1_555
Ni14 Ni4 2.463216 1_555
Ni14 Ni3 2.463216 1_555
Ni14 Ni9 2.469366 1_555
Ni14 Ni6 2.469366 1_555
Ni15 Ni4 2.463216 1_665
Ni15 Ni3 2.463216 1_665
Ni15 Ni9 2.469366 1_555
Ni15 Ni6 2.469366 1_555
Ni16 Ni17 2.450491 1_555
Ni16 Ni18 2.450491 1_555
Ni16 Ni18 2.458571 1_655
Ni16 Ni17 2.458571 1_545
Ni16 Ni7 2.459944 1_555
Ni16 Ni2 2.465551 1_655
Ni17 Ni18 2.450491 1_555
Ni17 Ni18 2.458571 1_665
Ni17 Ni7 2.459946 1_555
Ni17 Ni2 2.465551 1_665
Ni18 Ni7 2.459946 1_555
Ni18 Ni2 2.465551 1_555
Ni19 Ni20 2.450491 1_555
Ni19 Ni21 2.450491 1_555
Ni19 Ni20 2.458571 1_565
Ni19 Ni21 2.458571 1_455
Ni19 Ni6 2.459944 1_555
Ni19 Ni3 2.465551 1_565
Ni20 Ni21 2.450491 1_555
Ni20 Ni21 2.458571 1_445
Ni20 Ni6 2.459946 1_555
Ni20 Ni3 2.465551 1_555
Ni21 Ni6 2.459946 1_555
Ni21 Ni3 2.465551 1_665
Ni22 Ni23 2.450491 1_555
Ni22 Ni24 2.450491 1_555
Ni22 Ni23 2.458571 1_565
Ni22 Ni24 2.458571 1_455
Ni22 Ni9 2.459944 1_555
Ni22 Ni4 2.465551 1_565
Ni23 Ni24 2.450491 1_555
Ni23 Ni24 2.458571 1_445
Ni23 Ni9 2.459946 1_555
Ni23 Ni4 2.465551 1_555
Ni24 Ni9 2.459946 1_555
Ni24 Ni4 2.465551 1_665
Ni25 Ni26 2.450491 1_555
Ni25 Ni27 2.450491 1_555
Ni25 Ni26 2.458571 1_545
Ni25 Ni27 2.458571 1_655
Ni25 Ni8 2.459944 1_555
Ni25 Ni5 2.465551 1_655
Ni26 Ni27 2.450491 1_555
Ni26 Ni27 2.458571 1_665
Ni26 Ni8 2.459946 1_555
Ni26 Ni5 2.465551 1_665
Ni27 Ni8 2.459946 1_555
Ni27 Ni5 2.465551 1_555
