# generated using pymatgen
data_KTi3NbO9
_symmetry_space_group_name_H-M   'P 1'
_cell_length_a   3.81904800
_cell_length_b   6.46050700
_cell_length_c   15.07466900
_cell_angle_alpha   90.00000000
_cell_angle_beta   90.00000000
_cell_angle_gamma   90.00000000
_symmetry_Int_Tables_number   1
_chemical_formula_structural   KTi3NbO9
_chemical_formula_sum   'K2 Ti6 Nb2 O18'
_cell_volume   371.93710228
_cell_formula_units_Z   2
loop_
 _symmetry_equiv_pos_site_id
 _symmetry_equiv_pos_as_xyz
  1  'x, y, z'
loop_
 _atom_site_type_symbol
 _atom_site_label
 _atom_site_symmetry_multiplicity
 _atom_site_fract_x
 _atom_site_fract_y
 _atom_site_fract_z
 _atom_site_occupancy
  K  K0  1  0.50000000  0.22313700  0.24880700  1
  K  K1  1  0.00000000  0.77686300  0.74880700  1
  Ti  Ti0  1  0.00000000  0.31008900  0.46188100  1
  Ti  Ti1  1  0.00000000  0.31302500  0.04747500  1
  Ti  Ti2  1  0.50000000  0.68697500  0.54747500  1
  Ti  Ti3  1  0.50000000  0.68991100  0.96188100  1
  Ti  Ti4  1  0.00000000  0.76349500  0.12177400  1
  Ti  Ti5  1  0.50000000  0.23650500  0.62177400  1
  Nb  Nb0  1  0.00000000  0.76202800  0.36857100  1
  Nb  Nb1  1  0.50000000  0.23797200  0.86857100  1
  O  O0  1  0.00000000  0.65265700  0.99043600  1
  O  O1  1  0.00000000  0.65136500  0.51133300  1
  O  O2  1  0.50000000  0.34863500  0.01133300  1
  O  O3  1  0.50000000  0.34734300  0.49043600  1
  O  O4  1  0.00000000  0.83540200  0.24742200  1
  O  O5  1  0.50000000  0.16459800  0.74742200  1
  O  O6  1  0.00000000  0.06384000  0.40886800  1
  O  O7  1  0.00000000  0.06102500  0.09401000  1
  O  O8  1  0.50000000  0.93897500  0.59401000  1
  O  O9  1  0.50000000  0.93616000  0.90886800  1
  O  O10  1  0.00000000  0.46251100  0.35303200  1
  O  O11  1  0.00000000  0.46953000  0.14844700  1
  O  O12  1  0.50000000  0.53047000  0.64844700  1
  O  O13  1  0.50000000  0.53748900  0.85303200  1
  O  O14  1  0.00000000  0.23673600  0.90365500  1
  O  O15  1  0.00000000  0.24010500  0.59428800  1
  O  O16  1  0.50000000  0.75989500  0.09428800  1
  O  O17  1  0.50000000  0.76326400  0.40365500  1
loop_
_geom_bond_atom_site_label_1
_geom_bond_atom_site_label_2
_geom_bond_distance
_geom_bond_site_symmetry_2
K0 O11 2.910160 1_555
K0 O11 2.910160 1_655
K0 O10 2.916575 1_655
K0 O10 2.916575 1_555
K0 O4 3.149852 1_545
K0 O4 3.149852 1_645
K0 O7 3.191936 1_655
K0 O7 3.191936 1_555
K0 O6 3.244585 1_555
K0 O6 3.244585 1_655
K1 O12 2.910160 1_455
K1 O12 2.910160 1_555
K1 O13 2.916575 1_555
K1 O13 2.916575 1_455
K1 O5 3.149852 1_465
K1 O5 3.149852 1_565
K1 O8 3.191936 1_455
K1 O8 3.191936 1_555
K1 O9 3.244585 1_455
K1 O9 3.244585 1_555
Nb0 O4 1.886799 1_555
Nb0 O10 1.949158 1_555
Nb0 O17 1.981429 1_555
Nb0 O17 1.981429 1_455
Nb0 O6 2.042293 1_565
Nb0 O1 2.267736 1_555
Nb1 O5 1.886799 1_555
Nb1 O13 1.949158 1_555
Nb1 O14 1.981429 1_555
Nb1 O14 1.981429 1_655
Nb1 O9 2.042293 1_545
Nb1 O2 2.267736 1_556
O0 Ti3 1.972182 1_455
O0 Ti3 1.972182 1_555
O0 Ti4 2.105390 1_556
O0 Ti1 2.356655 1_556
O1 Ti2 1.999012 1_455
O1 Ti2 1.999012 1_555
O1 Ti0 2.327433 1_555
O2 Ti1 1.999012 1_655
O2 Ti1 1.999012 1_555
O2 Ti3 2.327433 1_554
O3 Ti0 1.972182 1_555
O3 Ti0 1.972182 1_655
O3 Ti5 2.105390 1_555
O3 Ti2 2.356655 1_555
O4 Ti4 1.950240 1_555
O5 Ti5 1.950240 1_555
O6 Ti0 1.780334 1_555
O7 Ti1 1.772750 1_555
O7 Ti4 1.967232 1_545
O8 Ti2 1.772750 1_555
O8 Ti5 1.967232 1_565
O9 Ti3 1.780334 1_555
O10 Ti0 1.913664 1_555
O11 Ti1 1.827341 1_555
O11 Ti4 1.941261 1_555
O12 Ti2 1.827341 1_555
O12 Ti5 1.941261 1_555
O13 Ti3 1.913664 1_555
O14 Ti1 2.223355 1_556
O15 Ti5 1.954099 1_555
O15 Ti5 1.954099 1_455
O15 Ti0 2.046560 1_555
O16 Ti4 1.954099 1_555
O16 Ti4 1.954099 1_655
O16 Ti3 2.046560 1_554
O17 Ti2 2.223355 1_555
