# generated using pymatgen
data_Sr2FeWO6
_symmetry_space_group_name_H-M   'P 1'
_cell_length_a   5.74271436
_cell_length_b   5.75875748
_cell_length_c   8.01046570
_cell_angle_alpha   90.17349940
_cell_angle_beta   90.16204225
_cell_angle_gamma   90.10962343
_symmetry_Int_Tables_number   1
_chemical_formula_structural   Sr2FeWO6
_chemical_formula_sum   'Sr4 Fe2 W2 O12'
_cell_volume   264.91054061
_cell_formula_units_Z   2
loop_
 _symmetry_equiv_pos_site_id
 _symmetry_equiv_pos_as_xyz
  1  'x, y, z'
loop_
 _atom_site_type_symbol
 _atom_site_label
 _atom_site_symmetry_multiplicity
 _atom_site_fract_x
 _atom_site_fract_y
 _atom_site_fract_z
 _atom_site_occupancy
  Sr  Sr0  1  0.97303900  0.00404800  0.75228500  1
  Sr  Sr1  1  0.47173100  0.49515100  0.74955900  1
  Sr  Sr2  1  0.52829100  0.50481200  0.25044300  1
  Sr  Sr3  1  0.02696500  0.99594300  0.24771300  1
  Fe  Fe0  1  0.00000500  0.49998400  0.49998100  1
  Fe  Fe1  1  0.49989800  0.00021200  0.00001400  1
  W  W0  1  0.00002000  0.49997800  0.99994300  1
  W  W1  1  0.50006000  0.00003000  0.50000600  1
  O  O0  1  0.70926600  0.26457200  0.53407300  1
  O  O1  1  0.20784400  0.23528500  0.96604800  1
  O  O2  1  0.29072600  0.73538600  0.46591600  1
  O  O3  1  0.79214700  0.76470000  0.03397300  1
  O  O4  1  0.76730400  0.79533200  0.46713000  1
  O  O5  1  0.26795700  0.70493400  0.03376300  1
  O  O6  1  0.23269400  0.20464600  0.53286600  1
  O  O7  1  0.73204300  0.29504400  0.96626100  1
  O  O8  1  0.50924800  0.93670900  0.74050300  1
  O  O9  1  0.00866200  0.56409000  0.76040600  1
  O  O10  1  0.49074400  0.06325900  0.25950400  1
  O  O11  1  0.99135600  0.43588500  0.23961300  1
loop_
_geom_bond_atom_site_label_1
_geom_bond_atom_site_label_2
_geom_bond_distance
_geom_bond_site_symmetry_2
Fe0 O11 2.117409 1_455
Fe0 O9 2.117866 1_555
Fe0 O2 2.166946 1_555
Fe0 O0 2.167090 1_455
Fe0 O6 2.181071 1_555
Fe0 O4 2.181125 1_455
Fe1 O10 2.109842 1_555
Fe1 O8 2.110485 1_544
Fe1 O1 2.174371 1_554
Fe1 O7 2.174691 1_554
Fe1 O5 2.175974 1_545
Fe1 O3 2.176808 1_545
O0 W1 1.956356 1_555
O0 Sr1 2.570968 1_555
O0 Sr0 2.758706 1_555
O0 Sr2 2.857858 1_555
O1 W0 1.956499 1_555
O1 Sr0 2.547521 1_455
O1 Sr1 2.750514 1_555
O1 Sr3 2.845360 1_546
O2 W1 1.957288 1_565
O2 Sr2 2.570975 1_555
O2 Sr3 2.758726 1_555
O2 Sr1 2.857989 1_555
O3 W0 1.956951 1_654
O3 Sr3 2.547455 1_655
O3 Sr2 2.750388 1_555
O3 Sr0 2.845551 1_564
O4 W1 1.954889 1_565
O4 Sr3 2.582248 1_655
O4 Sr2 2.766958 1_555
O4 Sr0 2.832122 1_565
O5 W0 1.955196 1_554
O5 Sr2 2.565143 1_555
O5 Sr3 2.768741 1_555
O5 Sr1 2.831191 1_554
O6 W1 1.955137 1_555
O6 Sr0 2.582206 1_455
O6 Sr1 2.767003 1_555
O6 Sr3 2.832063 1_545
O7 W0 1.955152 1_655
O7 Sr1 2.565149 1_555
O7 Sr0 2.768836 1_555
O7 Sr2 2.830960 1_556
O8 W1 1.962366 1_565
O8 Sr1 2.552793 1_555
O8 Sr0 2.692117 1_565
O9 W0 1.955847 1_555
O9 Sr0 2.543261 1_465
O9 Sr1 2.691102 1_555
O10 W1 1.962324 1_555
O10 Sr2 2.552780 1_555
O10 Sr3 2.692032 1_545
O11 W0 1.956876 1_654
O11 Sr3 2.543158 1_645
O11 Sr2 2.691065 1_555
