# generated using pymatgen
data_CaMg14Cu
_symmetry_space_group_name_H-M   'P 1'
_cell_length_a   6.42432484
_cell_length_b   6.42432431
_cell_length_c   10.31992501
_cell_angle_alpha   90.00000000
_cell_angle_beta   90.00000000
_cell_angle_gamma   120.00000274
_symmetry_Int_Tables_number   1
_chemical_formula_structural   CaMg14Cu
_chemical_formula_sum   'Ca1 Mg14 Cu1'
_cell_volume   368.86046578
_cell_formula_units_Z   1
loop_
 _symmetry_equiv_pos_site_id
 _symmetry_equiv_pos_as_xyz
  1  'x, y, z'
loop_
 _atom_site_type_symbol
 _atom_site_label
 _atom_site_symmetry_multiplicity
 _atom_site_fract_x
 _atom_site_fract_y
 _atom_site_fract_z
 _atom_site_occupancy
  Ca  Ca0  1  0.16666700  0.33333300  0.12500000  1
  Mg  Mg0  1  0.17638153  0.83819027  0.12500000  1
  Mg  Mg1  1  0.16176570  0.83088235  0.62500000  1
  Mg  Mg2  1  0.66180973  0.32361847  0.12500000  1
  Mg  Mg3  1  0.66911765  0.33823430  0.62500000  1
  Mg  Mg4  1  0.66180973  0.83819027  0.12500000  1
  Mg  Mg5  1  0.66911765  0.83088235  0.62500000  1
  Mg  Mg6  1  0.33080061  0.16919939  0.39248629  1
  Mg  Mg7  1  0.33080061  0.16919939  0.85751371  1
  Mg  Mg8  1  0.33080061  0.66160222  0.39248629  1
  Mg  Mg9  1  0.33080061  0.66160222  0.85751371  1
  Mg  Mg10  1  0.83839778  0.16919939  0.39248629  1
  Mg  Mg11  1  0.83839778  0.16919939  0.85751371  1
  Mg  Mg12  1  0.83333300  0.66666700  0.36860741  1
  Mg  Mg13  1  0.83333300  0.66666700  0.88139259  1
  Cu  Cu0  1  0.16666700  0.33333300  0.62500000  1
loop_
_geom_bond_atom_site_label_1
_geom_bond_atom_site_label_2
_geom_bond_distance
_geom_bond_site_symmetry_2
Ca0 Mg0 3.212617 1_545
Ca0 Mg4 3.212617 1_555
Ca0 Mg4 3.212617 1_445
Ca0 Mg0 3.212617 1_555
Ca0 Mg2 3.212617 1_555
Ca0 Mg2 3.212617 1_455
Ca0 Mg6 3.309924 1_555
Ca0 Mg7 3.309924 1_554
Ca0 Mg9 3.309930 1_554
Ca0 Mg8 3.309930 1_555
Ca0 Mg10 3.309931 1_455
Ca0 Mg11 3.309931 1_454
Mg0 Mg2 3.118548 1_565
Mg0 Mg4 3.118548 1_555
Mg0 Mg12 3.156419 1_455
Mg0 Mg13 3.156419 1_454
Mg0 Mg2 3.305776 1_455
Mg0 Mg4 3.305776 1_455
Mg0 Mg9 3.319124 1_554
Mg0 Mg8 3.319124 1_555
Mg0 Mg6 3.319130 1_565
Mg0 Mg7 3.319130 1_564
Mg1 Mg8 3.049691 1_555
Mg1 Mg9 3.049691 1_555
Mg1 Mg6 3.049698 1_565
Mg1 Mg7 3.049698 1_565
Mg1 Mg3 3.164931 1_455
Mg1 Mg5 3.164931 1_455
Mg1 Mg12 3.215588 1_455
Mg1 Mg13 3.215588 1_455
Mg1 Mg3 3.259393 1_565
Mg1 Mg5 3.259394 1_555
Mg2 Mg4 3.118548 1_545
Mg2 Mg4 3.305776 1_555
Mg2 Mg7 3.319130 1_554
Mg2 Mg6 3.319130 1_555
Mg3 Mg7 3.049698 1_555
Mg3 Mg6 3.049698 1_555
Mg3 Mg5 3.164931 1_555
Mg3 Mg5 3.259393 1_545
Mg4 Mg8 3.319130 1_555
Mg4 Mg9 3.319130 1_554
Mg5 Mg8 3.049698 1_555
Mg5 Mg9 3.049698 1_555
Mg6 Mg8 3.163355 1_555
Mg6 Mg8 3.260969 1_545
Mg7 Mg9 3.163355 1_555
Mg7 Mg9 3.260969 1_545
Mg10 Mg3 3.049691 1_555
Mg10 Mg5 3.049698 1_545
Mg10 Mg8 3.163355 1_655
Mg10 Mg6 3.163356 1_655
Mg10 Mg12 3.221724 1_545
Mg10 Mg12 3.221724 1_555
Mg10 Mg8 3.260969 1_545
Mg10 Mg6 3.260969 1_555
Mg10 Mg2 3.319124 1_555
Mg10 Mg4 3.319130 1_545
Mg11 Mg3 3.049691 1_555
Mg11 Mg5 3.049698 1_545
Mg11 Mg9 3.163355 1_655
Mg11 Mg7 3.163356 1_655
Mg11 Mg13 3.221724 1_545
Mg11 Mg13 3.221724 1_555
Mg11 Mg9 3.260969 1_545
Mg11 Mg7 3.260969 1_555
Mg11 Mg2 3.319124 1_556
Mg11 Mg4 3.319130 1_546
Mg12 Mg4 3.156412 1_555
Mg12 Mg2 3.156419 1_555
Mg12 Mg5 3.215582 1_555
Mg12 Mg3 3.215588 1_555
Mg12 Mg6 3.221724 1_665
Mg12 Mg6 3.221724 1_555
Mg12 Mg8 3.221724 1_555
Mg12 Mg8 3.221724 1_655
Mg13 Mg4 3.156412 1_556
Mg13 Mg2 3.156419 1_556
Mg13 Mg5 3.215582 1_555
Mg13 Mg3 3.215588 1_555
Mg13 Mg7 3.221724 1_665
Mg13 Mg7 3.221724 1_555
Mg13 Mg9 3.221724 1_555
Mg13 Mg9 3.221724 1_655
Cu0 Mg6 3.015509 1_555
Cu0 Mg7 3.015509 1_555
Cu0 Mg8 3.015516 1_555
Cu0 Mg9 3.015516 1_555
Cu0 Mg11 3.015516 1_455
Cu0 Mg10 3.015516 1_455
Cu0 Mg5 3.212278 1_445
Cu0 Mg1 3.212278 1_545
Cu0 Mg1 3.212278 1_555
Cu0 Mg5 3.212278 1_555
Cu0 Mg3 3.212278 1_455
Cu0 Mg3 3.212278 1_555
