# generated using pymatgen
data_LiMn(PO3)4
_symmetry_space_group_name_H-M   'P 1'
_cell_length_a   13.33334000
_cell_length_b   8.34865200
_cell_length_c   9.53604000
_cell_angle_alpha   90.00000000
_cell_angle_beta   90.00000000
_cell_angle_gamma   90.00000000
_symmetry_Int_Tables_number   1
_chemical_formula_structural   LiMn(PO3)4
_chemical_formula_sum   'Li4 Mn4 P16 O48'
_cell_volume   1061.50825633
_cell_formula_units_Z   4
loop_
 _symmetry_equiv_pos_site_id
 _symmetry_equiv_pos_as_xyz
  1  'x, y, z'
loop_
 _atom_site_type_symbol
 _atom_site_label
 _atom_site_symmetry_multiplicity
 _atom_site_fract_x
 _atom_site_fract_y
 _atom_site_fract_z
 _atom_site_occupancy
  Li  Li0  1  0.00000000  0.61008700  0.25000000  1
  Li  Li1  1  0.00000000  0.38991300  0.75000000  1
  Li  Li2  1  0.50000000  0.11008700  0.25000000  1
  Li  Li3  1  0.50000000  0.88991300  0.75000000  1
  Mn  Mn0  1  0.00000000  0.00621300  0.75000000  1
  Mn  Mn1  1  0.00000000  0.99378700  0.25000000  1
  Mn  Mn2  1  0.50000000  0.49378700  0.25000000  1
  Mn  Mn3  1  0.50000000  0.50621300  0.75000000  1
  P  P0  1  0.14034100  0.17758100  0.50497500  1
  P  P1  1  0.14034100  0.82241900  0.00497500  1
  P  P2  1  0.15238700  0.46285900  0.00978500  1
  P  P3  1  0.15238700  0.53714100  0.50978500  1
  P  P4  1  0.34761300  0.03714100  0.50978500  1
  P  P5  1  0.34761300  0.96285900  0.00978500  1
  P  P6  1  0.35965900  0.32241900  0.00497500  1
  P  P7  1  0.35965900  0.67758100  0.50497500  1
  P  P8  1  0.64034100  0.32241900  0.49502500  1
  P  P9  1  0.64034100  0.67758100  0.99502500  1
  P  P10  1  0.65238700  0.03714100  0.99021500  1
  P  P11  1  0.65238700  0.96285900  0.49021500  1
  P  P12  1  0.84761300  0.46285900  0.49021500  1
  P  P13  1  0.84761300  0.53714100  0.99021500  1
  P  P14  1  0.85965900  0.17758100  0.99502500  1
  P  P15  1  0.85965900  0.82241900  0.49502500  1
  O  O0  1  0.06673900  0.17973900  0.62469100  1
  O  O1  1  0.06673900  0.82026100  0.12469100  1
  O  O2  1  0.07976200  0.54631600  0.62982400  1
  O  O3  1  0.07976200  0.45368400  0.12982400  1
  O  O4  1  0.10858200  0.09823300  0.37074200  1
  O  O5  1  0.10858200  0.90176700  0.87074200  1
  O  O6  1  0.12343600  0.62839700  0.37994400  1
  O  O7  1  0.12343600  0.37160300  0.87994400  1
  O  O8  1  0.17846200  0.35445300  0.46907800  1
  O  O9  1  0.17846200  0.64554700  0.96907800  1
  O  O10  1  0.23970100  0.09504000  0.56657400  1
  O  O11  1  0.23970100  0.90496000  0.06657400  1
  O  O12  1  0.26029900  0.40496000  0.06657400  1
  O  O13  1  0.26029900  0.59504000  0.56657400  1
  O  O14  1  0.32153800  0.14554700  0.96907800  1
  O  O15  1  0.32153800  0.85445300  0.46907800  1
  O  O16  1  0.37656400  0.12839700  0.37994400  1
  O  O17  1  0.37656400  0.87160300  0.87994400  1
  O  O18  1  0.39141800  0.59823300  0.37074200  1
  O  O19  1  0.39141800  0.40176700  0.87074200  1
  O  O20  1  0.42023800  0.04631600  0.62982400  1
  O  O21  1  0.42023800  0.95368400  0.12982400  1
  O  O22  1  0.43326100  0.67973900  0.62469100  1
  O  O23  1  0.43326100  0.32026100  0.12469100  1
  O  O24  1  0.56673900  0.32026100  0.37530900  1
  O  O25  1  0.56673900  0.67973900  0.87530900  1
  O  O26  1  0.57976200  0.04631600  0.87017600  1
  O  O27  1  0.57976200  0.95368400  0.37017600  1
  O  O28  1  0.60858200  0.40176700  0.62925800  1
  O  O29  1  0.60858200  0.59823300  0.12925800  1
  O  O30  1  0.62343600  0.12839700  0.12005600  1
  O  O31  1  0.62343600  0.87160300  0.62005600  1
  O  O32  1  0.67846200  0.14554700  0.53092200  1
  O  O33  1  0.67846200  0.85445300  0.03092200  1
  O  O34  1  0.73970100  0.40496000  0.43342600  1
  O  O35  1  0.73970100  0.59504000  0.93342600  1
  O  O36  1  0.76029900  0.09504000  0.93342600  1
  O  O37  1  0.76029900  0.90496000  0.43342600  1
  O  O38  1  0.82153800  0.35445300  0.03092200  1
  O  O39  1  0.82153800  0.64554700  0.53092200  1
  O  O40  1  0.87656400  0.37160300  0.62005600  1
  O  O41  1  0.87656400  0.62839700  0.12005600  1
  O  O42  1  0.89141800  0.09823300  0.12925800  1
  O  O43  1  0.89141800  0.90176700  0.62925800  1
  O  O44  1  0.92023800  0.45368400  0.37017600  1
  O  O45  1  0.92023800  0.54631600  0.87017600  1
  O  O46  1  0.93326100  0.17973900  0.87530900  1
  O  O47  1  0.93326100  0.82026100  0.37530900  1
loop_
_geom_bond_atom_site_label_1
_geom_bond_atom_site_label_2
_geom_bond_distance
_geom_bond_site_symmetry_2
Li0 O44 2.036992 1_455
Li0 O3 2.036992 1_555
Li0 O6 2.065809 1_555
Li0 O41 2.065809 1_455
Li0 O1 2.301872 1_555
Li0 O47 2.301872 1_455
Li1 O45 2.036992 1_455
Li1 O2 2.036992 1_555
Li1 O7 2.065809 1_555
Li1 O40 2.065809 1_455
Li1 O0 2.301872 1_555
Li1 O46 2.301872 1_455
Li2 O21 2.036992 1_545
Li2 O27 2.036992 1_545
Li2 O16 2.065809 1_555
Li2 O30 2.065809 1_555
Li2 O23 2.301872 1_555
Li2 O24 2.301872 1_555
Li3 O26 2.036992 1_565
Li3 O20 2.036992 1_565
Li3 O17 2.065809 1_555
Li3 O31 2.065809 1_555
Li3 O25 2.301872 1_555
Li3 O22 2.301872 1_555
Mn0 O5 2.045016 1_545
Mn0 O43 2.045016 1_445
Mn0 O0 2.078101 1_555
Mn0 O46 2.078101 1_455
Mn1 O4 2.045016 1_565
Mn1 O42 2.045016 1_465
Mn1 O1 2.078101 1_555
Mn1 O47 2.078101 1_455
Mn2 O18 2.045016 1_555
Mn2 O29 2.045016 1_555
Mn2 O24 2.078101 1_555
Mn2 O23 2.078101 1_555
Mn3 O28 2.045016 1_555
Mn3 O19 2.045016 1_555
Mn3 O22 2.078101 1_555
Mn3 O25 2.078101 1_555
O0 P0 1.505550 1_555
O1 P1 1.505550 1_555
O2 P3 1.501289 1_555
O3 P2 1.501289 1_555
O4 P0 1.502226 1_555
O5 P1 1.502226 1_556
O6 P3 1.504163 1_555
O7 P2 1.504163 1_556
O8 P0 1.598750 1_555
O8 P3 1.611766 1_555
O9 P1 1.598750 1_556
O9 P2 1.611766 1_556
O10 P0 1.604685 1_555
O10 P4 1.611567 1_555
O11 P1 1.604685 1_555
O11 P5 1.611567 1_555
O12 P6 1.604685 1_555
O12 P2 1.611567 1_555
O13 P7 1.604685 1_555
O13 P3 1.611567 1_555
O14 P6 1.598750 1_556
O14 P5 1.611766 1_546
O15 P7 1.598750 1_555
O15 P4 1.611766 1_565
O16 P4 1.504163 1_555
O17 P5 1.504163 1_556
O18 P7 1.502226 1_555
O19 P6 1.502226 1_556
O20 P4 1.501289 1_555
O21 P5 1.501289 1_555
O22 P7 1.505550 1_555
O23 P6 1.505550 1_555
O24 P8 1.505550 1_555
O25 P9 1.505550 1_555
O26 P10 1.501289 1_555
O27 P11 1.501289 1_555
O28 P8 1.502226 1_555
O29 P9 1.502226 1_554
O30 P10 1.504163 1_554
O31 P11 1.504163 1_555
O32 P8 1.598750 1_555
O32 P11 1.611766 1_545
O33 P9 1.598750 1_554
O33 P10 1.611766 1_564
O34 P8 1.604685 1_555
O34 P12 1.611567 1_555
O35 P9 1.604685 1_555
O35 P13 1.611567 1_555
O36 P14 1.604685 1_555
O36 P10 1.611567 1_555
O37 P15 1.604685 1_555
O37 P11 1.611567 1_555
O38 P14 1.598750 1_554
O38 P13 1.611766 1_554
O39 P15 1.598750 1_555
O39 P12 1.611766 1_555
O40 P12 1.504163 1_555
O41 P13 1.504163 1_554
O42 P14 1.502226 1_554
O43 P15 1.502226 1_555
O44 P12 1.501289 1_555
O45 P13 1.501289 1_555
O46 P14 1.505550 1_555
O47 P15 1.505550 1_555
