# generated using pymatgen
data_Ca(SbO2)4
_symmetry_space_group_name_H-M   'P 1'
_cell_length_a   6.86697358
_cell_length_b   6.86697358
_cell_length_c   6.86697327
_cell_angle_alpha   60.06926861
_cell_angle_beta   60.06926861
_cell_angle_gamma   60.06926852
_symmetry_Int_Tables_number   1
_chemical_formula_structural   Ca(SbO2)4
_chemical_formula_sum   'Ca1 Sb4 O8'
_cell_volume   229.33077310
_cell_formula_units_Z   1
loop_
 _symmetry_equiv_pos_site_id
 _symmetry_equiv_pos_as_xyz
  1  'x, y, z'
loop_
 _atom_site_type_symbol
 _atom_site_label
 _atom_site_symmetry_multiplicity
 _atom_site_fract_x
 _atom_site_fract_y
 _atom_site_fract_z
 _atom_site_occupancy
  Ca  Ca0  1  0.50000000  0.50000000  0.50000000  1
  Sb  Sb0  1  0.00000000  0.50000000  0.50000000  1
  Sb  Sb1  1  0.50000000  0.00000000  0.50000000  1
  Sb  Sb2  1  0.50000000  0.50000000  0.00000000  1
  Sb  Sb3  1  0.00000000  0.00000000  0.00000000  1
  O  O0  1  0.28852600  0.75342000  0.75342000  1
  O  O1  1  0.24658000  0.24658000  0.71147400  1
  O  O2  1  0.71147400  0.24658000  0.24658000  1
  O  O3  1  0.24658000  0.71147400  0.24658000  1
  O  O4  1  0.27527800  0.27527800  0.27527800  1
  O  O5  1  0.72472200  0.72472200  0.72472200  1
  O  O6  1  0.75342000  0.28852600  0.75342000  1
  O  O7  1  0.75342000  0.75342000  0.28852600  1
loop_
_geom_bond_atom_site_label_1
_geom_bond_atom_site_label_2
_geom_bond_distance
_geom_bond_site_symmetry_2
Ca0 O2 2.478710 1_555
Ca0 O6 2.478710 1_555
Ca0 O3 2.478710 1_555
Ca0 O0 2.478710 1_555
Ca0 O1 2.478710 1_555
Ca0 O7 2.478710 1_555
O0 Sb2 2.235132 1_556
O0 Sb1 2.235132 1_565
O0 Sb3 2.413559 1_566
O1 Sb0 2.235132 1_555
O1 Sb1 2.235132 1_555
O1 Sb3 2.413559 1_556
O2 Sb2 2.235132 1_555
O2 Sb1 2.235132 1_555
O2 Sb3 2.413559 1_655
O3 Sb2 2.235132 1_555
O3 Sb0 2.235132 1_555
O3 Sb3 2.413559 1_565
O4 Sb1 2.211435 1_555
O4 Sb0 2.211435 1_555
O4 Sb2 2.211435 1_555
O5 Sb0 2.211435 1_655
O5 Sb1 2.211435 1_565
O5 Sb2 2.211435 1_556
O6 Sb2 2.235132 1_556
O6 Sb0 2.235132 1_655
O6 Sb3 2.413559 1_656
O7 Sb0 2.235132 1_655
O7 Sb1 2.235132 1_565
O7 Sb3 2.413559 1_665
