# generated using pymatgen
data_LaCeRu4
_symmetry_space_group_name_H-M   'P 1'
_cell_length_a   5.37484243
_cell_length_b   5.37484099
_cell_length_c   5.37484389
_cell_angle_alpha   59.99996414
_cell_angle_beta   59.99997311
_cell_angle_gamma   59.99995518
_symmetry_Int_Tables_number   1
_chemical_formula_structural   LaCeRu4
_chemical_formula_sum   'La1 Ce1 Ru4'
_cell_volume   109.79482249
_cell_formula_units_Z   1
loop_
 _symmetry_equiv_pos_site_id
 _symmetry_equiv_pos_as_xyz
  1  'x, y, z'
loop_
 _atom_site_type_symbol
 _atom_site_label
 _atom_site_symmetry_multiplicity
 _atom_site_fract_x
 _atom_site_fract_y
 _atom_site_fract_z
 _atom_site_occupancy
  La  La0  1  -0.00000000  0.99999800  0.00000100  1
  Ce  Ce0  1  0.25000000  0.25000100  0.25000000  1
  Ru  Ru0  1  0.62480720  0.62480720  0.12557939  1
  Ru  Ru1  1  0.62480720  0.12558039  0.62480720  1
  Ru  Ru2  1  0.12557939  0.62480720  0.62480620  1
  Ru  Ru3  1  0.62480620  0.62480720  0.62480620  1
loop_
_geom_bond_atom_site_label_1
_geom_bond_atom_site_label_2
_geom_bond_distance
_geom_bond_site_symmetry_2
La0 Ru0 3.151714 1_455
La0 Ru3 3.151716 1_455
La0 Ru2 3.151716 1_555
La0 Ru1 3.151720 1_464
La0 Ru3 3.151720 1_554
La0 Ru2 3.151722 1_554
La0 Ru0 3.151722 1_555
La0 Ru1 3.151728 1_465
La0 Ru0 3.151731 1_465
La0 Ru1 3.151732 1_564
La0 Ru3 3.151733 1_464
La0 Ru2 3.151733 1_564
Ce0 Ru2 3.150833 1_555
Ce0 Ru3 3.150835 1_545
Ce0 Ru3 3.150836 1_455
Ce0 Ru0 3.150836 1_455
Ce0 Ru3 3.150837 1_554
Ce0 Ru1 3.150837 1_455
Ce0 Ru0 3.150837 1_555
Ce0 Ru1 3.150837 1_554
Ce0 Ru0 3.150840 1_545
Ce0 Ru2 3.150841 1_545
Ce0 Ru2 3.150842 1_554
Ce0 Ru1 3.150843 1_555
Ru0 Ru3 2.683263 1_555
Ru0 Ru1 2.683267 1_555
Ru0 Ru2 2.683267 1_555
Ru0 Ru1 2.691573 1_564
Ru0 Ru2 2.691574 1_654
Ru0 Ru3 2.691580 1_554
Ru1 Ru3 2.683259 1_555
Ru1 Ru2 2.683266 1_555
Ru1 Ru2 2.691572 1_645
Ru1 Ru3 2.691582 1_545
Ru2 Ru3 2.683265 1_555
Ru2 Ru3 2.691577 1_455
