# generated using pymatgen
data_La4YC10
_symmetry_space_group_name_H-M   'P 1'
_cell_length_a   14.04337715
_cell_length_b   13.94101474
_cell_length_c   4.28119283
_cell_angle_alpha   82.55646240
_cell_angle_beta   79.84858467
_cell_angle_gamma   17.59495293
_symmetry_Int_Tables_number   1
_chemical_formula_structural   La4YC10
_chemical_formula_sum   'La4 Y1 C10'
_cell_volume   247.30824909
_cell_formula_units_Z   1
loop_
 _symmetry_equiv_pos_site_id
 _symmetry_equiv_pos_as_xyz
  1  'x, y, z'
loop_
 _atom_site_type_symbol
 _atom_site_label
 _atom_site_symmetry_multiplicity
 _atom_site_fract_x
 _atom_site_fract_y
 _atom_site_fract_z
 _atom_site_occupancy
  La  La0  1  0.40076200  0.40076200  0.59923800  1
  La  La1  1  0.80030500  0.80030500  0.19969500  1
  La  La2  1  0.19969500  0.19969500  0.80030500  1
  La  La3  1  0.59923800  0.59923800  0.40076200  1
  Y  Y0  1  0.00000000  0.00000000  0.00000000  1
  C  C0  1  0.19566500  0.99632200  0.00367800  1
  C  C1  1  0.79961700  0.60025800  0.39974200  1
  C  C2  1  0.39974200  0.20038300  0.79961700  1
  C  C3  1  0.60019700  0.39980300  0.60019700  1
  C  C4  1  0.00367800  0.80433500  0.19566500  1
  C  C5  1  0.60025800  0.79961700  0.20038300  1
  C  C6  1  0.20038300  0.39974200  0.60025800  1
  C  C7  1  0.80433500  0.00367800  0.99632200  1
  C  C8  1  0.99632200  0.19566500  0.80433500  1
  C  C9  1  0.39980300  0.60019700  0.39980300  1
loop_
_geom_bond_atom_site_label_1
_geom_bond_atom_site_label_2
_geom_bond_distance
_geom_bond_site_symmetry_2
C0 C8 1.297818 1_464
C0 La3 2.607837 1_555
C0 Y0 2.701797 1_565
C0 La3 2.856742 1_554
C0 La3 2.856742 1_465
C0 La2 2.906669 1_564
C1 C5 1.297922 1_555
C1 La2 2.606286 1_655
C1 La1 2.817962 1_555
C1 La3 2.826790 1_555
C1 La2 2.855385 1_654
C1 La2 2.855385 1_565
C2 C6 1.297922 1_555
C2 La1 2.606286 1_546
C2 La2 2.817962 1_555
C2 La0 2.826790 1_555
C2 La1 2.855385 1_456
C2 La1 2.855385 1_545
C3 C9 1.304661 1_555
C3 Y0 2.602909 1_656
C3 La0 2.788727 1_555
C3 La3 2.788727 1_555
C3 Y0 2.856145 1_655
C3 Y0 2.856145 1_566
C4 C7 1.297818 1_464
C4 La0 2.607837 1_555
C4 Y0 2.701797 1_565
C4 La0 2.856742 1_554
C4 La0 2.856742 1_465
C4 La1 2.906669 1_455
C5 La2 2.606286 1_564
C5 La1 2.817962 1_555
C5 La3 2.826790 1_555
C5 La2 2.855385 1_654
C5 La2 2.855385 1_565
C6 La1 2.606286 1_455
C6 La2 2.817962 1_555
C6 La0 2.826790 1_555
C6 La1 2.855385 1_545
C6 La1 2.855385 1_456
C7 La0 2.607837 1_555
C7 Y0 2.701797 1_656
C7 La0 2.856742 1_645
C7 La0 2.856742 1_556
C7 La1 2.906669 1_546
C8 La3 2.607837 1_555
C8 Y0 2.701797 1_656
C8 La3 2.856742 1_645
C8 La3 2.856742 1_556
C8 La2 2.906669 1_655
C9 Y0 2.602909 1_565
C9 La0 2.788727 1_555
C9 La3 2.788727 1_555
C9 Y0 2.856145 1_655
C9 Y0 2.856145 1_566
