# generated using pymatgen
data_Co2RuN3
_symmetry_space_group_name_H-M   'P 1'
_cell_length_a   5.79692887
_cell_length_b   10.46707951
_cell_length_c   9.23467459
_cell_angle_alpha   89.99999656
_cell_angle_beta   91.15838437
_cell_angle_gamma   154.53027280
_symmetry_Int_Tables_number   1
_chemical_formula_structural   Co2RuN3
_chemical_formula_sum   'Co8 Ru4 N12'
_cell_volume   240.69529795
_cell_formula_units_Z   4
loop_
 _symmetry_equiv_pos_site_id
 _symmetry_equiv_pos_as_xyz
  1  'x, y, z'
loop_
 _atom_site_type_symbol
 _atom_site_label
 _atom_site_symmetry_multiplicity
 _atom_site_fract_x
 _atom_site_fract_y
 _atom_site_fract_z
 _atom_site_occupancy
  Co  Co0  1  0.50966600  0.05779700  0.87043200  1
  Co  Co1  1  0.49033400  0.54813100  0.62956800  1
  Co  Co2  1  0.49033400  0.94220300  0.12956800  1
  Co  Co3  1  0.50966600  0.45186900  0.37043200  1
  Co  Co4  1  0.55378000  0.95827200  0.60582200  1
  Co  Co5  1  0.44622000  0.40449100  0.89417800  1
  Co  Co6  1  0.44622000  0.04172800  0.39417800  1
  Co  Co7  1  0.55378000  0.59550900  0.10582200  1
  Ru  Ru0  1  0.55065800  0.28934700  0.67035300  1
  Ru  Ru1  1  0.44934200  0.73868800  0.82964700  1
  Ru  Ru2  1  0.44934200  0.71065300  0.32964700  1
  Ru  Ru3  1  0.55065800  0.26131200  0.17035300  1
  N  N0  1  0.00000000  0.67904600  0.75000000  1
  N  N1  1  0.00000000  0.32095400  0.25000000  1
  N  N2  1  0.79329100  0.25826700  0.57220900  1
  N  N3  1  0.20670900  0.46497600  0.92779100  1
  N  N4  1  0.20670900  0.74173300  0.42779100  1
  N  N5  1  0.79329100  0.53502400  0.07220900  1
  N  N6  1  0.23752300  0.97413200  0.04645300  1
  N  N7  1  0.76247700  0.73660900  0.45354700  1
  N  N8  1  0.76247700  0.02586800  0.95354700  1
  N  N9  1  0.23752300  0.26339100  0.54645300  1
  N  N10  1  0.00000000  0.91305900  0.75000000  1
  N  N11  1  0.00000000  0.08694100  0.25000000  1
loop_
_geom_bond_atom_site_label_1
_geom_bond_atom_site_label_2
_geom_bond_distance
_geom_bond_site_symmetry_2
Co0 N6 1.872719 1_546
Co0 N3 1.894835 1_655
Co0 N8 1.920278 1_555
Co0 N10 2.011529 1_545
Co0 N0 2.097771 1_545
Co1 N7 1.872719 1_555
Co1 N2 1.894835 1_455
Co1 N9 1.920277 1_555
Co1 N10 2.011528 1_655
Co1 N0 2.097772 1_655
Co2 N8 1.872719 1_564
Co2 N5 1.894835 1_455
Co2 N6 1.920278 1_555
Co2 N11 2.011529 1_665
Co2 N1 2.097771 1_665
Co3 N9 1.872719 1_555
Co3 N4 1.894835 1_655
Co3 N7 1.920277 1_555
Co3 N11 2.011528 1_555
Co3 N1 2.097772 1_555
Co4 N9 1.855184 1_665
Co4 N4 1.876267 1_555
Co4 N0 1.962635 1_555
Co4 N2 2.007351 1_565
Co5 N8 1.855182 1_455
Co5 N5 1.876264 1_556
Co5 N0 1.962634 1_655
Co5 N3 2.007361 1_555
Co6 N7 1.855184 1_445
Co6 N2 1.876267 1_555
Co6 N1 1.962635 1_655
Co6 N4 2.007351 1_545
Co7 N6 1.855182 1_655
Co7 N3 1.876264 1_554
Co7 N1 1.962634 1_555
Co7 N5 2.007361 1_555
N0 Ru0 2.168419 1_455
N0 Ru1 2.168428 1_555
N1 Ru2 2.168419 1_555
N1 Ru3 2.168428 1_455
N2 Ru0 1.945074 1_555
N3 Ru1 1.945065 1_555
N4 Ru2 1.945074 1_555
N5 Ru3 1.945065 1_555
N6 Ru3 1.924463 1_565
N7 Ru2 1.924456 1_555
N8 Ru1 1.924463 1_545
N9 Ru0 1.924456 1_555
N10 Ru1 1.907084 1_455
N10 Ru0 1.907089 1_565
N11 Ru3 1.907084 1_555
N11 Ru2 1.907089 1_445
