# generated using pymatgen
data_KIO3
_symmetry_space_group_name_H-M   'P 1'
_cell_length_a   8.89642848
_cell_length_b   8.89642847
_cell_length_c   8.89642796
_cell_angle_alpha   89.66984356
_cell_angle_beta   89.66985025
_cell_angle_gamma   89.66984473
_symmetry_Int_Tables_number   1
_chemical_formula_structural   KIO3
_chemical_formula_sum   'K8 I8 O24'
_cell_volume   704.08566357
_cell_formula_units_Z   8
loop_
 _symmetry_equiv_pos_site_id
 _symmetry_equiv_pos_as_xyz
  1  'x, y, z'
loop_
 _atom_site_type_symbol
 _atom_site_label
 _atom_site_symmetry_multiplicity
 _atom_site_fract_x
 _atom_site_fract_y
 _atom_site_fract_z
 _atom_site_occupancy
  K  K0  1  0.46222663  0.49160338  0.98945351  1
  K  K1  1  0.49160338  0.98945351  0.46222663  1
  K  K2  1  0.98945351  0.46222663  0.49160338  1
  K  K3  1  0.96288380  0.99038713  0.49055959  1
  K  K4  1  0.99038713  0.49055959  0.96288380  1
  K  K5  1  0.49055959  0.96288380  0.99038713  1
  K  K6  1  0.48123483  0.48123483  0.48123483  1
  K  K7  1  0.98138016  0.98138016  0.98138016  1
  I  I0  1  0.22787836  0.22787836  0.22787836  1
  I  I1  1  0.72667491  0.72667491  0.72667491  1
  I  I2  1  0.23881547  0.22140914  0.72986246  1
  I  I3  1  0.22140914  0.72986246  0.23881547  1
  I  I4  1  0.72986246  0.23881547  0.22140914  1
  I  I5  1  0.72015707  0.22806061  0.73970574  1
  I  I6  1  0.22806061  0.73970574  0.72015707  1
  I  I7  1  0.73970574  0.72015707  0.22806061  1
  O  O0  1  0.27271788  0.02606389  0.77888731  1
  O  O1  1  0.02606389  0.77888731  0.27271788  1
  O  O2  1  0.77888731  0.27271788  0.02606389  1
  O  O3  1  0.52492602  0.27309814  0.77931371  1
  O  O4  1  0.27309814  0.77931371  0.52492602  1
  O  O5  1  0.77931371  0.52492602  0.27309814  1
  O  O6  1  0.03493543  0.21697209  0.71428266  1
  O  O7  1  0.21697209  0.71428266  0.03493543  1
  O  O8  1  0.71428266  0.03493543  0.21697209  1
  O  O9  1  0.71225744  0.21627797  0.53575271  1
  O  O10  1  0.21627797  0.53575271  0.71225744  1
  O  O11  1  0.53575271  0.71225744  0.21627797  1
  O  O12  1  0.28665679  0.21919324  0.53109281  1
  O  O13  1  0.21919324  0.53109281  0.28665679  1
  O  O14  1  0.53109281  0.28665679  0.21919324  1
  O  O15  1  0.72130461  0.02846009  0.78368687  1
  O  O16  1  0.02846009  0.78368687  0.72130461  1
  O  O17  1  0.78368687  0.72130461  0.02846009  1
  O  O18  1  0.52872185  0.71056400  0.77436530  1
  O  O19  1  0.71056400  0.77436530  0.52872185  1
  O  O20  1  0.77436530  0.52872185  0.71056400  1
  O  O21  1  0.03068472  0.20960491  0.27765577  1
  O  O22  1  0.20960491  0.27765577  0.03068472  1
  O  O23  1  0.27765577  0.03068472  0.20960491  1
loop_
_geom_bond_atom_site_label_1
_geom_bond_atom_site_label_2
_geom_bond_distance
_geom_bond_site_symmetry_2
K0 O3 2.757232 1_555
K0 O18 2.786280 1_555
K0 O14 2.799239 1_556
K0 O11 2.903285 1_556
K0 O7 2.966172 1_556
K0 O22 2.973225 1_556
K1 O4 2.757232 1_555
K1 O19 2.786280 1_555
K1 O12 2.799239 1_565
K1 O9 2.903285 1_565
K1 O8 2.966172 1_565
K1 O23 2.973224 1_565
K2 O5 2.757231 1_555
K2 O20 2.786280 1_555
K2 O13 2.799239 1_655
K2 O10 2.903285 1_655
K2 O6 2.966171 1_655
K2 O21 2.973224 1_655
K3 O1 2.762155 1_655
K3 O21 2.777175 1_665
K3 O16 2.809596 1_655
K3 O6 2.917463 1_665
K3 O19 2.980094 1_555
K3 O9 3.019775 1_565
K4 O2 2.762155 1_556
K4 O22 2.777175 1_656
K4 O17 2.809596 1_556
K4 O7 2.917463 1_656
K4 O20 2.980094 1_555
K4 O10 3.019775 1_655
K5 O0 2.762155 1_565
K5 O23 2.777175 1_566
K5 O15 2.809596 1_565
K5 O8 2.917463 1_566
K5 O18 2.980094 1_555
K5 O11 3.019775 1_556
K6 O13 2.941712 1_555
K6 O14 2.941712 1_555
K6 O12 2.941712 1_555
K6 O11 3.155650 1_555
K6 O9 3.155650 1_555
K6 O10 3.155650 1_555
K6 O3 3.249464 1_555
K6 O4 3.249464 1_555
K6 O5 3.249464 1_555
K6 O20 3.350459 1_555
K6 O18 3.350459 1_555
K6 O19 3.350459 1_555
K7 O15 2.940974 1_565
K7 O16 2.940974 1_655
K7 O17 2.940974 1_556
K7 O1 3.173464 1_656
K7 O2 3.173464 1_566
K7 O0 3.173464 1_665
K7 O6 3.194898 1_665
K7 O7 3.194898 1_656
K7 O8 3.194898 1_566
K7 O23 3.368611 1_666
K7 O21 3.368611 1_666
K7 O22 3.368611 1_666
I0 O22 1.814849 1_555
I0 O23 1.814849 1_555
I0 O21 1.814849 1_555
I1 O19 1.815361 1_555
I1 O20 1.815361 1_555
I1 O18 1.815361 1_555
I2 O0 1.813323 1_555
I2 O12 1.816644 1_555
I2 O6 1.820560 1_555
I3 O1 1.813323 1_555
I3 O13 1.816644 1_555
I3 O7 1.820560 1_555
I4 O2 1.813323 1_555
I4 O14 1.816644 1_555
I4 O8 1.820561 1_555
I5 O3 1.813267 1_555
I5 O15 1.816109 1_555
I5 O9 1.819867 1_555
I5 O2 2.636345 1_556
I6 O4 1.813267 1_555
I6 O16 1.816109 1_555
I6 O10 1.819867 1_555
I6 O0 2.636345 1_565
I7 O5 1.813267 1_555
I7 O17 1.816109 1_555
I7 O11 1.819867 1_555
I7 O1 2.636345 1_655
