# generated using pymatgen
data_TbAlCu4
_symmetry_space_group_name_H-M   'P 1'
_cell_length_a   5.18313425
_cell_length_b   5.18313425
_cell_length_c   4.03477300
_cell_angle_alpha   90.00000000
_cell_angle_beta   90.00000000
_cell_angle_gamma   120.00000315
_symmetry_Int_Tables_number   1
_chemical_formula_structural   TbAlCu4
_chemical_formula_sum   'Tb1 Al1 Cu4'
_cell_volume   93.87169047
_cell_formula_units_Z   1
loop_
 _symmetry_equiv_pos_site_id
 _symmetry_equiv_pos_as_xyz
  1  'x, y, z'
loop_
 _atom_site_type_symbol
 _atom_site_label
 _atom_site_symmetry_multiplicity
 _atom_site_fract_x
 _atom_site_fract_y
 _atom_site_fract_z
 _atom_site_occupancy
  Tb  Tb0  1  0.00000000  0.00000000  0.00000000  1
  Al  Al0  1  0.33333300  0.66666700  0.00000000  1
  Cu  Cu0  1  0.66666700  0.33333300  0.00000000  1
  Cu  Cu1  1  0.50105000  0.00210000  0.50000000  1
  Cu  Cu2  1  0.99790000  0.49895000  0.50000000  1
  Cu  Cu3  1  0.50105000  0.49895000  0.50000000  1
loop_
_geom_bond_atom_site_label_1
_geom_bond_atom_site_label_2
_geom_bond_distance
_geom_bond_site_symmetry_2
Al0 Cu2 2.517316 1_454
Al0 Cu1 2.517316 1_564
Al0 Cu1 2.517316 1_565
Al0 Cu2 2.517316 1_455
Al0 Cu3 2.517319 1_555
Al0 Cu3 2.517319 1_554
Al0 Cu0 2.992481 1_455
Al0 Cu0 2.992481 1_565
Al0 Tb0 2.992481 1_565
Al0 Tb0 2.992485 1_665
Al0 Tb0 2.992485 1_555
Al0 Cu0 2.992490 1_555
Cu0 Cu2 2.506085 1_555
Cu0 Cu1 2.506085 1_554
Cu0 Cu2 2.506085 1_554
Cu0 Cu1 2.506085 1_555
Cu0 Cu3 2.506088 1_554
Cu0 Cu3 2.506088 1_555
Cu0 Tb0 2.992481 1_655
Cu0 Tb0 2.992485 1_665
Cu0 Tb0 2.992485 1_555
Cu1 Cu2 2.575240 1_555
Cu1 Cu3 2.575240 1_555
Cu1 Cu2 2.607894 1_445
Cu1 Cu3 2.607894 1_545
Cu1 Tb0 3.284229 1_556
Cu1 Tb0 3.284229 1_555
Cu1 Tb0 3.284229 1_656
Cu1 Tb0 3.284229 1_655
Cu2 Cu3 2.575240 1_555
Cu2 Cu3 2.607894 1_655
Cu2 Tb0 3.284229 1_665
Cu2 Tb0 3.284229 1_666
Cu2 Tb0 3.284229 1_656
Cu2 Tb0 3.284229 1_655
Cu3 Tb0 3.284228 1_555
Cu3 Tb0 3.284228 1_556
Cu3 Tb0 3.284228 1_665
Cu3 Tb0 3.284228 1_666
