# generated using pymatgen
data_Mg14GaC
_symmetry_space_group_name_H-M   'P 1'
_cell_length_a   6.21543677
_cell_length_b   6.21543630
_cell_length_c   9.94333085
_cell_angle_alpha   90.00000000
_cell_angle_beta   90.00000000
_cell_angle_gamma   120.00000257
_symmetry_Int_Tables_number   1
_chemical_formula_structural   Mg14GaC
_chemical_formula_sum   'Mg14 Ga1 C1'
_cell_volume   332.66398300
_cell_formula_units_Z   1
loop_
 _symmetry_equiv_pos_site_id
 _symmetry_equiv_pos_as_xyz
  1  'x, y, z'
loop_
 _atom_site_type_symbol
 _atom_site_label
 _atom_site_symmetry_multiplicity
 _atom_site_fract_x
 _atom_site_fract_y
 _atom_site_fract_z
 _atom_site_occupancy
  Mg  Mg0  1  0.17025151  0.83512526  0.12500000  1
  Mg  Mg1  1  0.16141551  0.83070725  0.62500000  1
  Mg  Mg2  1  0.66487474  0.32974849  0.12500000  1
  Mg  Mg3  1  0.66929275  0.33858449  0.62500000  1
  Mg  Mg4  1  0.66487474  0.83512526  0.12500000  1
  Mg  Mg5  1  0.66929275  0.83070725  0.62500000  1
  Mg  Mg6  1  0.32784502  0.17215498  0.38719959  1
  Mg  Mg7  1  0.32784502  0.17215498  0.86280041  1
  Mg  Mg8  1  0.32784502  0.65569104  0.38719959  1
  Mg  Mg9  1  0.32784502  0.65569104  0.86280041  1
  Mg  Mg10  1  0.84430896  0.17215498  0.38719959  1
  Mg  Mg11  1  0.84430896  0.17215498  0.86280041  1
  Mg  Mg12  1  0.83333300  0.66666700  0.37432521  1
  Mg  Mg13  1  0.83333300  0.66666700  0.87567479  1
  Ga  Ga0  1  0.16666700  0.33333300  0.12500000  1
  C  C0  1  0.16666700  0.33333300  0.62500000  1
loop_
_geom_bond_atom_site_label_1
_geom_bond_atom_site_label_2
_geom_bond_distance
_geom_bond_site_symmetry_2
Mg0 Mg13 3.071641 1_454
Mg0 Mg12 3.071641 1_455
Mg0 Mg2 3.074299 1_565
Mg0 Mg4 3.074299 1_555
Mg0 Mg2 3.141137 1_455
Mg0 Mg4 3.141137 1_455
Mg0 Mg9 3.176922 1_554
Mg0 Mg8 3.176922 1_555
Mg0 Mg7 3.176928 1_564
Mg0 Mg6 3.176928 1_565
Mg1 Mg8 2.994931 1_555
Mg1 Mg9 2.994931 1_555
Mg1 Mg7 2.994938 1_565
Mg1 Mg6 2.994938 1_565
Mg1 Mg12 3.054742 1_455
Mg1 Mg13 3.054742 1_455
Mg2 Mg4 3.074299 1_545
Mg2 Mg4 3.141137 1_555
Mg2 Mg7 3.176928 1_554
Mg2 Mg6 3.176928 1_555
Mg3 Mg6 2.994938 1_555
Mg3 Mg7 2.994938 1_555
Mg4 Mg9 3.176928 1_554
Mg4 Mg8 3.176928 1_555
Mg5 Mg9 2.994938 1_555
Mg5 Mg8 2.994938 1_555
Mg6 Mg8 3.005388 1_555
Mg6 Mg8 3.210049 1_545
Mg7 Mg9 3.005388 1_555
Mg7 Mg9 3.210049 1_545
Mg10 Mg3 2.994931 1_555
Mg10 Mg5 2.994938 1_545
Mg10 Mg8 3.005388 1_655
Mg10 Mg6 3.005388 1_655
Mg10 Mg12 3.110915 1_545
Mg10 Mg12 3.110915 1_555
Mg10 Mg2 3.176922 1_555
Mg10 Mg4 3.176928 1_545
Mg10 Mg8 3.210049 1_545
Mg10 Mg6 3.210049 1_555
Mg11 Mg3 2.994931 1_555
Mg11 Mg5 2.994938 1_545
Mg11 Mg9 3.005388 1_655
Mg11 Mg7 3.005388 1_655
Mg11 Mg13 3.110915 1_545
Mg11 Mg13 3.110915 1_555
Mg11 Mg2 3.176922 1_556
Mg11 Mg4 3.176928 1_546
Mg11 Mg9 3.210049 1_545
Mg11 Mg7 3.210049 1_555
Mg12 Mg5 3.054735 1_555
Mg12 Mg3 3.054742 1_555
Mg12 Mg4 3.071635 1_555
Mg12 Mg2 3.071641 1_555
Mg12 Mg6 3.110915 1_665
Mg12 Mg6 3.110915 1_555
Mg12 Mg8 3.110915 1_555
Mg12 Mg8 3.110915 1_655
Mg13 Mg5 3.054735 1_555
Mg13 Mg3 3.054742 1_555
Mg13 Mg4 3.071635 1_556
Mg13 Mg2 3.071641 1_556
Mg13 Mg7 3.110915 1_665
Mg13 Mg7 3.110915 1_555
Mg13 Mg9 3.110915 1_555
Mg13 Mg9 3.110915 1_655
Ga0 Mg0 3.107778 1_545
Ga0 Mg4 3.107778 1_555
Ga0 Mg4 3.107778 1_445
Ga0 Mg0 3.107778 1_555
Ga0 Mg2 3.107778 1_555
Ga0 Mg2 3.107778 1_455
Ga0 Mg7 3.131761 1_554
Ga0 Mg6 3.131761 1_555
Ga0 Mg9 3.131767 1_554
Ga0 Mg8 3.131767 1_555
Ga0 Mg10 3.131767 1_455
Ga0 Mg11 3.131767 1_454
C0 Mg6 2.932875 1_555
C0 Mg7 2.932875 1_555
C0 Mg8 2.932881 1_555
C0 Mg9 2.932881 1_555
C0 Mg10 2.932881 1_455
C0 Mg11 2.932881 1_455
