# generated using pymatgen
data_LiC12
_symmetry_space_group_name_H-M   'P 1'
_cell_length_a   4.27940485
_cell_length_b   4.27940485
_cell_length_c   14.27785470
_cell_angle_alpha   90.00000000
_cell_angle_beta   90.00000000
_cell_angle_gamma   119.99218715
_symmetry_Int_Tables_number   1
_chemical_formula_structural   LiC12
_chemical_formula_sum   'Li2 C24'
_cell_volume   226.46157547
_cell_formula_units_Z   2
loop_
 _symmetry_equiv_pos_site_id
 _symmetry_equiv_pos_as_xyz
  1  'x, y, z'
loop_
 _atom_site_type_symbol
 _atom_site_label
 _atom_site_symmetry_multiplicity
 _atom_site_fract_x
 _atom_site_fract_y
 _atom_site_fract_z
 _atom_site_occupancy
  Li  Li0  1  0.83790352  0.83790352  0.75000000  1
  Li  Li1  1  0.16209648  0.16209648  0.25000000  1
  C  C0  1  0.83326659  0.16654054  0.11940151  1
  C  C1  1  0.83326659  0.16654054  0.38059849  1
  C  C2  1  0.49981062  0.16656739  0.11939219  1
  C  C3  1  0.49981062  0.16656739  0.38060781  1
  C  C4  1  0.83345946  0.16673341  0.61940151  1
  C  C5  1  0.83345946  0.16673341  0.88059849  1
  C  C6  1  0.83343261  0.50018938  0.61939219  1
  C  C7  1  0.83343261  0.50018938  0.88060781  1
  C  C8  1  0.16654054  0.83326659  0.11940151  1
  C  C9  1  0.16654054  0.83326659  0.38059849  1
  C  C10  1  0.83326998  0.83326998  0.11925587  1
  C  C11  1  0.83326998  0.83326998  0.38074413  1
  C  C12  1  0.16673341  0.83345946  0.61940151  1
  C  C13  1  0.16673341  0.83345946  0.88059849  1
  C  C14  1  0.16673002  0.16673002  0.61925587  1
  C  C15  1  0.16673002  0.16673002  0.88074413  1
  C  C16  1  0.49976670  0.49976670  0.11942199  1
  C  C17  1  0.49976670  0.49976670  0.38057801  1
  C  C18  1  0.16656739  0.49981062  0.11939219  1
  C  C19  1  0.16656739  0.49981062  0.38060781  1
  C  C20  1  0.50023330  0.50023330  0.61942199  1
  C  C21  1  0.50023330  0.50023330  0.88057801  1
  C  C22  1  0.50018938  0.83343261  0.61939219  1
  C  C23  1  0.50018938  0.83343261  0.88060781  1
loop_
_geom_bond_atom_site_label_1
_geom_bond_atom_site_label_2
_geom_bond_distance
_geom_bond_site_symmetry_2
C0 C10 1.426208 1_545
C0 C18 1.426432 1_655
C0 C2 1.427051 1_555
C0 Li1 2.341858 1_655
C1 C11 1.426208 1_545
C1 C19 1.426432 1_655
C1 C3 1.427051 1_555
C1 Li1 2.341858 1_655
C2 C8 1.426432 1_545
C2 Li1 2.353475 1_555
C3 C9 1.426432 1_545
C3 Li1 2.353475 1_555
C4 C6 1.427051 1_555
C4 Li0 2.341858 1_545
C5 C7 1.427051 1_555
C5 Li0 2.341858 1_545
C6 Li0 2.353475 1_555
C7 Li0 2.353475 1_555
C8 Li1 2.341858 1_565
C9 Li1 2.341858 1_565
C10 C8 1.426208 1_655
C10 C16 1.427366 1_555
C10 Li1 2.337813 1_665
C11 C9 1.426208 1_655
C11 C17 1.427366 1_555
C11 Li1 2.337813 1_665
C12 C14 1.426208 1_565
C12 C6 1.426432 1_455
C12 C22 1.427051 1_555
C12 Li0 2.341858 1_455
C13 C15 1.426208 1_565
C13 C7 1.426432 1_455
C13 C23 1.427051 1_555
C13 Li0 2.341858 1_455
C14 C4 1.426208 1_455
C14 C20 1.427366 1_555
C14 Li0 2.337813 1_445
C15 C5 1.426208 1_455
C15 C21 1.427366 1_555
C15 Li0 2.337813 1_445
C16 C18 1.425989 1_555
C16 C2 1.425989 1_555
C16 Li1 2.358917 1_555
C17 C3 1.425989 1_555
C17 C19 1.425989 1_555
C17 Li1 2.358917 1_555
C18 C8 1.427051 1_555
C18 Li1 2.353475 1_555
C19 C9 1.427051 1_555
C19 Li1 2.353475 1_555
C20 C6 1.425989 1_555
C20 C22 1.425989 1_555
C20 Li0 2.358917 1_555
C21 C7 1.425989 1_555
C21 C23 1.425989 1_555
C21 Li0 2.358917 1_555
C22 C4 1.426432 1_565
C22 Li0 2.353475 1_555
C23 C5 1.426432 1_565
C23 Li0 2.353475 1_555
