# generated using pymatgen
data_HfZn2
_symmetry_space_group_name_H-M   'P 1'
_cell_length_a   5.16058764
_cell_length_b   5.16058764
_cell_length_c   16.76070842
_cell_angle_alpha   90.00000000
_cell_angle_beta   90.00000000
_cell_angle_gamma   119.99922537
_symmetry_Int_Tables_number   1
_chemical_formula_structural   HfZn2
_chemical_formula_sum   'Hf8 Zn16'
_cell_volume   386.56693849
_cell_formula_units_Z   8
loop_
 _symmetry_equiv_pos_site_id
 _symmetry_equiv_pos_as_xyz
  1  'x, y, z'
loop_
 _atom_site_type_symbol
 _atom_site_label
 _atom_site_symmetry_multiplicity
 _atom_site_fract_x
 _atom_site_fract_y
 _atom_site_fract_z
 _atom_site_occupancy
  Hf  Hf0  1  0.00000049  0.99999951  0.59203386  1
  Hf  Hf1  1  0.99999951  0.00000049  0.40796614  1
  Hf  Hf2  1  0.99999951  0.00000049  0.09203386  1
  Hf  Hf3  1  0.00000049  0.99999951  0.90796614  1
  Hf  Hf4  1  0.66666789  0.33333211  0.34379847  1
  Hf  Hf5  1  0.33333211  0.66666789  0.65620153  1
  Hf  Hf6  1  0.33333211  0.66666789  0.84379847  1
  Hf  Hf7  1  0.66666789  0.33333211  0.15620153  1
  Zn  Zn0  1  0.66666854  0.33333146  0.62692427  1
  Zn  Zn1  1  0.33333146  0.66666854  0.37307573  1
  Zn  Zn2  1  0.33333146  0.66666854  0.12692427  1
  Zn  Zn3  1  0.66666854  0.33333146  0.87307573  1
  Zn  Zn4  1  0.50000000  -0.00000000  0.50000000  1
  Zn  Zn5  1  0.50000000  0.50000000  0.50000000  1
  Zn  Zn6  1  -0.00000000  0.50000000  0.50000000  1
  Zn  Zn7  1  0.50000000  -0.00000000  0.00000000  1
  Zn  Zn8  1  0.50000000  0.50000000  0.00000000  1
  Zn  Zn9  1  -0.00000000  0.50000000  0.00000000  1
  Zn  Zn10  1  0.83838809  0.67679178  0.75000000  1
  Zn  Zn11  1  0.83838673  0.16161327  0.75000000  1
  Zn  Zn12  1  0.32320822  0.16161191  0.75000000  1
  Zn  Zn13  1  0.16161191  0.32320822  0.25000000  1
  Zn  Zn14  1  0.16161327  0.83838673  0.25000000  1
  Zn  Zn15  1  0.67679178  0.83838809  0.25000000  1
loop_
_geom_bond_atom_site_label_1
_geom_bond_atom_site_label_2
_geom_bond_distance
_geom_bond_site_symmetry_2
Hf0 Zn4 3.006221 1_565
Hf0 Zn6 3.006221 1_555
Hf0 Zn4 3.006228 1_465
Hf0 Zn6 3.006228 1_565
Hf0 Zn5 3.006250 1_455
Hf0 Zn5 3.006250 1_565
Hf0 Zn10 3.016035 1_455
Hf0 Zn12 3.016035 1_565
Hf0 Zn11 3.016070 1_465
Hf0 Zn0 3.036290 1_465
Hf0 Zn0 3.036342 1_455
Hf0 Zn0 3.036342 1_565
Hf0 Hf1 3.085105 1_465
Hf0 Hf5 3.167610 1_555
Hf0 Hf5 3.167664 1_565
Hf0 Hf5 3.167664 1_455
Hf1 Zn4 3.006221 1_555
Hf1 Zn6 3.006221 1_655
Hf1 Zn4 3.006228 1_655
Hf1 Zn6 3.006228 1_645
Hf1 Zn5 3.006250 1_545
Hf1 Zn5 3.006250 1_655
Hf1 Zn15 3.016035 1_545
Hf1 Zn13 3.016035 1_655
Hf1 Zn14 3.016070 1_645
Hf1 Zn1 3.036290 1_645
Hf1 Zn1 3.036342 1_545
Hf1 Zn1 3.036342 1_655
Hf1 Hf4 3.167610 1_555
Hf1 Hf4 3.167664 1_545
Hf1 Hf4 3.167664 1_655
Hf2 Zn7 3.006221 1_555
Hf2 Zn9 3.006221 1_655
Hf2 Zn9 3.006228 1_645
Hf2 Zn7 3.006228 1_655
Hf2 Zn8 3.006250 1_655
Hf2 Zn8 3.006250 1_545
Hf2 Zn15 3.016035 1_545
Hf2 Zn13 3.016035 1_655
Hf2 Zn14 3.016070 1_645
Hf2 Zn2 3.036290 1_645
Hf2 Zn2 3.036342 1_545
Hf2 Zn2 3.036342 1_655
Hf2 Hf3 3.085105 1_644
Hf2 Hf7 3.167610 1_555
Hf2 Hf7 3.167664 1_545
Hf2 Hf7 3.167664 1_655
Hf3 Zn7 3.006221 1_566
Hf3 Zn9 3.006221 1_556
Hf3 Zn7 3.006228 1_466
Hf3 Zn9 3.006228 1_566
Hf3 Zn8 3.006250 1_566
Hf3 Zn8 3.006250 1_456
Hf3 Zn10 3.016035 1_455
Hf3 Zn12 3.016035 1_565
Hf3 Zn11 3.016070 1_465
Hf3 Zn3 3.036290 1_465
Hf3 Zn3 3.036342 1_455
Hf3 Zn3 3.036342 1_565
Hf3 Hf6 3.167610 1_555
Hf3 Hf6 3.167664 1_455
Hf3 Hf6 3.167664 1_565
Hf4 Zn5 3.012225 1_555
Hf4 Zn4 3.012225 1_555
Hf4 Zn6 3.012225 1_655
Hf4 Zn1 3.019614 1_545
Hf4 Zn1 3.019614 1_655
Hf4 Zn1 3.019621 1_555
Hf4 Zn13 3.021820 1_555
Hf4 Zn15 3.021820 1_555
Hf4 Zn14 3.021871 1_545
Hf4 Zn14 3.021871 1_655
Hf4 Zn15 3.021872 1_545
Hf4 Zn13 3.021872 1_655
Hf4 Hf7 3.144258 1_555
Hf5 Zn5 3.012225 1_555
Hf5 Zn4 3.012225 1_565
Hf5 Zn6 3.012225 1_555
Hf5 Zn0 3.019614 1_565
Hf5 Zn0 3.019614 1_455
Hf5 Zn0 3.019621 1_555
Hf5 Zn10 3.021820 1_555
Hf5 Zn12 3.021820 1_555
Hf5 Zn11 3.021871 1_565
Hf5 Zn11 3.021871 1_455
Hf5 Zn12 3.021872 1_565
Hf5 Zn10 3.021872 1_455
Hf5 Hf6 3.144258 1_555
Hf6 Zn8 3.012225 1_556
Hf6 Zn7 3.012225 1_566
Hf6 Zn9 3.012225 1_556
Hf6 Zn3 3.019614 1_455
Hf6 Zn3 3.019614 1_565
Hf6 Zn3 3.019621 1_555
Hf6 Zn10 3.021820 1_555
Hf6 Zn12 3.021820 1_555
Hf6 Zn11 3.021871 1_565
Hf6 Zn11 3.021871 1_455
Hf6 Zn12 3.021872 1_565
Hf6 Zn10 3.021872 1_455
Hf7 Zn8 3.012225 1_555
Hf7 Zn9 3.012225 1_655
Hf7 Zn7 3.012225 1_555
Hf7 Zn2 3.019614 1_545
Hf7 Zn2 3.019614 1_655
Hf7 Zn2 3.019621 1_555
Hf7 Zn13 3.021820 1_555
Hf7 Zn15 3.021820 1_555
Hf7 Zn14 3.021871 1_655
Hf7 Zn14 3.021871 1_545
Hf7 Zn13 3.021872 1_655
Hf7 Zn15 3.021872 1_545
Zn0 Zn11 2.571216 1_555
Zn0 Zn10 2.571290 1_555
Zn0 Zn12 2.571290 1_555
Zn0 Zn4 2.597093 1_555
Zn0 Zn6 2.597093 1_655
Zn0 Zn5 2.597098 1_555
Zn1 Zn14 2.571216 1_555
Zn1 Zn15 2.571290 1_555
Zn1 Zn13 2.571290 1_555
Zn1 Zn4 2.597093 1_565
Zn1 Zn6 2.597093 1_555
Zn1 Zn5 2.597098 1_555
Zn2 Zn9 2.597093 1_555
Zn2 Zn7 2.597093 1_565
Zn2 Zn8 2.597098 1_555
Zn3 Zn7 2.597093 1_556
Zn3 Zn9 2.597093 1_656
Zn3 Zn8 2.597098 1_556
Zn4 Zn5 2.580294 1_545
Zn4 Zn5 2.580294 1_555
Zn4 Zn6 2.580324 1_655
Zn4 Zn6 2.580324 1_545
Zn5 Zn6 2.580294 1_555
Zn5 Zn6 2.580294 1_655
Zn7 Zn8 2.580294 1_555
Zn7 Zn8 2.580294 1_545
Zn7 Zn9 2.580324 1_655
Zn7 Zn9 2.580324 1_545
Zn8 Zn9 2.580294 1_555
Zn8 Zn9 2.580294 1_655
Zn10 Zn11 2.501967 1_565
Zn10 Zn12 2.501986 1_665
Zn10 Zn3 2.571290 1_555
Zn10 Zn11 2.658620 1_555
Zn10 Zn12 2.658662 1_555
Zn11 Zn12 2.501967 1_655
Zn11 Zn3 2.571216 1_555
Zn11 Zn12 2.658620 1_555
Zn12 Zn3 2.571290 1_555
Zn13 Zn14 2.501967 1_545
Zn13 Zn15 2.501986 1_445
Zn13 Zn2 2.571290 1_555
Zn13 Zn14 2.658620 1_555
Zn13 Zn15 2.658662 1_555
Zn14 Zn15 2.501967 1_455
Zn14 Zn2 2.571216 1_555
Zn14 Zn15 2.658620 1_555
Zn15 Zn2 2.571290 1_555
