# generated using pymatgen
data_CeMg14V
_symmetry_space_group_name_H-M   'P 1'
_cell_length_a   6.49187108
_cell_length_b   6.04305215
_cell_length_c   10.38061407
_cell_angle_alpha   90.00000000
_cell_angle_beta   90.00000000
_cell_angle_gamma   117.73820455
_symmetry_Int_Tables_number   1
_chemical_formula_structural   CeMg14V
_chemical_formula_sum   'Ce1 Mg14 V1'
_cell_volume   360.44043585
_cell_formula_units_Z   1
loop_
 _symmetry_equiv_pos_site_id
 _symmetry_equiv_pos_as_xyz
  1  'x, y, z'
loop_
 _atom_site_type_symbol
 _atom_site_label
 _atom_site_symmetry_multiplicity
 _atom_site_fract_x
 _atom_site_fract_y
 _atom_site_fract_z
 _atom_site_occupancy
  Ce  Ce0  1  0.14500768  0.82250334  0.12500000  1
  Mg  Mg0  1  0.15768523  0.32884211  0.62500000  1
  Mg  Mg1  1  0.16430072  0.83214986  0.62500000  1
  Mg  Mg2  1  0.64509806  0.32614119  0.12500000  1
  Mg  Mg3  1  0.65939090  0.32730085  0.62500000  1
  Mg  Mg4  1  0.64509806  0.81895586  0.12500000  1
  Mg  Mg5  1  0.65939090  0.83208905  0.62500000  1
  Mg  Mg6  1  0.34201973  0.17558927  0.37514099  1
  Mg  Mg7  1  0.34201973  0.17558927  0.87485901  1
  Mg  Mg8  1  0.34201973  0.66643145  0.37514099  1
  Mg  Mg9  1  0.34201973  0.66643145  0.87485901  1
  Mg  Mg10  1  0.85764533  0.17882317  0.35826157  1
  Mg  Mg11  1  0.85764533  0.17882317  0.89173843  1
  Mg  Mg12  1  0.83699721  0.66849910  0.38621982  1
  Mg  Mg13  1  0.83699721  0.66849910  0.86378018  1
  V  V0  1  0.16666445  0.33333173  0.12500000  1
loop_
_geom_bond_atom_site_label_1
_geom_bond_atom_site_label_2
_geom_bond_distance
_geom_bond_site_symmetry_2
Ce0 V0 3.024087 1_555
Ce0 V0 3.024087 1_565
Ce0 Mg9 3.223446 1_554
Ce0 Mg8 3.223446 1_555
Ce0 Mg7 3.223452 1_564
Ce0 Mg6 3.223452 1_565
Ce0 Mg2 3.235426 1_455
Ce0 Mg4 3.235427 1_455
Ce0 Mg12 3.238058 1_455
Ce0 Mg13 3.238058 1_454
Ce0 Mg2 3.256555 1_565
Ce0 Mg4 3.256555 1_555
Mg0 Mg1 3.021765 1_545
Mg0 Mg1 3.021765 1_555
Mg0 Mg6 3.169951 1_555
Mg0 Mg7 3.169951 1_555
Mg0 Mg8 3.169956 1_555
Mg0 Mg9 3.169956 1_555
Mg0 Mg5 3.230538 1_445
Mg0 Mg3 3.230538 1_455
Mg0 Mg5 3.261354 1_555
Mg0 Mg3 3.261354 1_555
Mg0 Mg11 3.261744 1_455
Mg0 Mg10 3.261744 1_455
Mg1 Mg12 3.111378 1_455
Mg1 Mg13 3.111378 1_455
Mg1 Mg9 3.183823 1_555
Mg1 Mg8 3.183823 1_555
Mg1 Mg7 3.183828 1_565
Mg1 Mg6 3.183828 1_565
Mg1 Mg3 3.214232 1_565
Mg1 Mg5 3.214233 1_555
Mg1 Mg3 3.277638 1_455
Mg1 Mg5 3.277638 1_455
Mg2 Mg4 2.978105 1_555
Mg2 Mg4 3.064947 1_545
Mg2 V0 3.126390 1_555
Mg2 Mg7 3.126512 1_554
Mg2 Mg6 3.126512 1_555
Mg2 V0 3.365937 1_655
Mg3 Mg5 2.992591 1_545
Mg3 Mg5 3.050461 1_555
Mg3 Mg6 3.170867 1_555
Mg3 Mg7 3.170867 1_555
Mg4 V0 3.126390 1_555
Mg4 Mg9 3.126512 1_554
Mg4 Mg8 3.126512 1_555
Mg4 V0 3.365937 1_665
Mg5 Mg8 3.170867 1_555
Mg5 Mg9 3.170867 1_555
Mg6 Mg8 2.966185 1_555
Mg6 Mg8 3.076867 1_545
Mg6 V0 3.155496 1_555
Mg7 Mg9 2.966185 1_555
Mg7 Mg9 3.076867 1_545
Mg7 V0 3.155496 1_556
Mg8 V0 3.155501 1_555
Mg9 V0 3.155501 1_556
Mg10 V0 3.002639 1_655
Mg10 Mg12 3.037750 1_555
Mg10 Mg12 3.037750 1_545
Mg10 Mg2 3.114982 1_555
Mg10 Mg4 3.114988 1_545
Mg10 Mg8 3.158503 1_655
Mg10 Mg6 3.158503 1_655
Mg10 Mg8 3.342919 1_545
Mg10 Mg6 3.342919 1_555
Mg10 Mg3 3.347145 1_555
Mg10 Mg5 3.347150 1_545
Mg11 V0 3.002639 1_656
Mg11 Mg13 3.037750 1_555
Mg11 Mg13 3.037750 1_545
Mg11 Mg2 3.114982 1_556
Mg11 Mg4 3.114988 1_546
Mg11 Mg9 3.158503 1_655
Mg11 Mg7 3.158503 1_655
Mg11 Mg9 3.342919 1_545
Mg11 Mg7 3.342919 1_555
Mg11 Mg3 3.347145 1_555
Mg11 Mg5 3.347150 1_545
Mg12 Mg5 3.084089 1_555
Mg12 Mg3 3.084095 1_555
Mg12 Mg6 3.209594 1_555
Mg12 Mg8 3.209595 1_555
Mg12 Mg4 3.284194 1_555
Mg12 Mg2 3.284200 1_555
Mg12 Mg6 3.286388 1_665
Mg12 Mg8 3.286388 1_655
Mg13 Mg5 3.084089 1_555
Mg13 Mg3 3.084095 1_555
Mg13 Mg7 3.209594 1_555
Mg13 Mg9 3.209595 1_555
Mg13 Mg4 3.284194 1_556
Mg13 Mg2 3.284200 1_556
Mg13 Mg7 3.286388 1_665
Mg13 Mg9 3.286388 1_655
