# generated using pymatgen
data_V2FeSn
_symmetry_space_group_name_H-M   'P 1'
_cell_length_a   4.44448500
_cell_length_b   5.56553655
_cell_length_c   5.62027966
_cell_angle_alpha   120.33174093
_cell_angle_beta   90.00000000
_cell_angle_gamma   90.00000000
_symmetry_Int_Tables_number   1
_chemical_formula_structural   V2FeSn
_chemical_formula_sum   'V4 Fe2 Sn2'
_cell_volume   119.99289651
_cell_formula_units_Z   2
loop_
 _symmetry_equiv_pos_site_id
 _symmetry_equiv_pos_as_xyz
  1  'x, y, z'
loop_
 _atom_site_type_symbol
 _atom_site_label
 _atom_site_symmetry_multiplicity
 _atom_site_fract_x
 _atom_site_fract_y
 _atom_site_fract_z
 _atom_site_occupancy
  V  V0  1  0.75000000  0.72118000  0.86061400  1
  V  V1  1  0.25000000  0.84364300  0.69665800  1
  V  V2  1  0.25000000  0.84359300  0.14699200  1
  V  V3  1  0.25000000  0.28977000  0.14489900  1
  Fe  Fe0  1  0.75000000  0.15295400  0.29992800  1
  Fe  Fe1  1  0.75000000  0.15305600  0.85297500  1
  Sn  Sn0  1  0.75000000  0.67026900  0.33513100  1
  Sn  Sn1  1  0.25000000  0.32553400  0.66280400  1
loop_
_geom_bond_atom_site_label_1
_geom_bond_atom_site_label_2
_geom_bond_distance
_geom_bond_site_symmetry_2
V0 V2 2.624034 1_556
V0 V2 2.624034 1_656
V0 V1 2.624189 1_555
V0 V1 2.624189 1_655
V1 V3 2.488736 1_566
V1 V2 2.531144 1_556
V1 V3 3.076346 1_555
V1 V2 3.089136 1_555
V2 V3 2.489176 1_565
V2 V3 3.076398 1_555
Fe0 V0 2.424512 1_544
Fe0 Fe1 2.512288 1_554
Fe0 V3 2.635802 1_555
Fe0 V3 2.635802 1_655
Fe0 V2 2.673367 1_645
Fe0 V2 2.673367 1_545
Fe0 Sn0 2.784461 1_555
Fe0 Sn0 2.791545 1_545
Fe0 Sn1 2.835810 1_555
Fe0 Sn1 2.835810 1_655
Fe0 Fe1 3.107992 1_555
Fe0 V0 3.141020 1_555
Fe1 V0 2.425586 1_545
Fe1 V3 2.635964 1_656
Fe1 V3 2.635964 1_556
Fe1 V1 2.673502 1_645
Fe1 V1 2.673502 1_545
Fe1 Sn0 2.784037 1_556
Fe1 Sn0 2.791392 1_545
Fe1 Sn1 2.835217 1_555
Fe1 Sn1 2.835217 1_655
Fe1 V0 3.140452 1_555
Sn0 V0 2.820632 1_554
Sn0 V0 2.820891 1_555
Sn0 V2 2.831465 1_555
Sn0 V2 2.831465 1_655
Sn0 V1 2.831563 1_655
Sn0 V1 2.831563 1_555
Sn0 V3 2.877365 1_655
Sn0 V3 2.877365 1_555
Sn1 V1 2.782919 1_545
Sn1 V2 2.782988 1_545
Sn1 V2 2.791750 1_556
Sn1 V1 2.792301 1_555
Sn1 V3 2.815275 1_556
Sn1 V3 2.815498 1_555
Sn1 V0 2.924126 1_455
Sn1 V0 2.924126 1_555
