# generated using pymatgen
data_Sc11Ga9
_symmetry_space_group_name_H-M   'P 1'
_cell_length_a   10.72665953
_cell_length_b   10.34930567
_cell_length_c   10.32815637
_cell_angle_alpha   62.49824936
_cell_angle_beta   58.84745365
_cell_angle_gamma   58.65429699
_symmetry_Int_Tables_number   1
_chemical_formula_structural   Sc11Ga9
_chemical_formula_sum   'Sc22 Ga18'
_cell_volume   808.36669115
_cell_formula_units_Z   2
loop_
 _symmetry_equiv_pos_site_id
 _symmetry_equiv_pos_as_xyz
  1  'x, y, z'
loop_
 _atom_site_type_symbol
 _atom_site_label
 _atom_site_symmetry_multiplicity
 _atom_site_fract_x
 _atom_site_fract_y
 _atom_site_fract_z
 _atom_site_occupancy
  Sc  Sc0  1  0.66677300  0.66677300  0.33322700  1
  Sc  Sc1  1  0.33921200  0.33921200  0.66078800  1
  Sc  Sc2  1  0.17214900  0.82631100  0.17368900  1
  Sc  Sc3  1  0.82631100  0.17214900  0.82785100  1
  Sc  Sc4  1  0.18112000  0.82503200  0.81888000  1
  Sc  Sc5  1  0.82503200  0.18112000  0.17496800  1
  Sc  Sc6  1  0.80193500  0.84216000  0.42273700  1
  Sc  Sc7  1  0.84216000  0.80193500  0.93316800  1
  Sc  Sc8  1  0.06683200  0.57726300  0.15784000  1
  Sc  Sc9  1  0.57726300  0.06683200  0.19806500  1
  Sc  Sc10  1  0.20412800  0.16632300  0.57147300  1
  Sc  Sc11  1  0.16632300  0.20412800  0.05807700  1
  Sc  Sc12  1  0.94192300  0.42852700  0.83367700  1
  Sc  Sc13  1  0.42852700  0.94192300  0.79587200  1
  Sc  Sc14  1  0.65637500  0.58235200  0.69561800  1
  Sc  Sc15  1  0.58235200  0.65637500  0.06565400  1
  Sc  Sc16  1  0.93434600  0.30438200  0.41764800  1
  Sc  Sc17  1  0.30438200  0.93434600  0.34362500  1
  Sc  Sc18  1  0.35786200  0.42247700  0.29315000  1
  Sc  Sc19  1  0.42247700  0.35786200  0.92651200  1
  Sc  Sc20  1  0.07348800  0.70685000  0.57752300  1
  Sc  Sc21  1  0.70685000  0.07348800  0.64213800  1
  Ga  Ga0  1  0.37989900  0.62807200  0.37192800  1
  Ga  Ga1  1  0.62807200  0.37989900  0.62010100  1
  Ga  Ga2  1  0.38116200  0.62504400  0.61883800  1
  Ga  Ga3  1  0.62504400  0.38116200  0.37495600  1
  Ga  Ga4  1  0.38189900  0.62780000  0.98566100  1
  Ga  Ga5  1  0.62780000  0.38189900  0.00464000  1
  Ga  Ga6  1  0.01433900  0.99536000  0.61810100  1
  Ga  Ga7  1  0.99536000  0.01433900  0.37220000  1
  Ga  Ga8  1  0.90311600  0.90311600  0.09688400  1
  Ga  Ga9  1  0.10157600  0.10157600  0.89842400  1
  Ga  Ga10  1  0.75368300  0.75368300  0.74631700  1
  Ga  Ga11  1  0.25368300  0.25368300  0.24631700  1
  Ga  Ga12  1  0.87126300  0.46868400  0.12873700  1
  Ga  Ga13  1  0.46868400  0.87126300  0.53131600  1
  Ga  Ga14  1  0.01104300  0.50820300  0.49179700  1
  Ga  Ga15  1  0.50820300  0.01104300  0.98895700  1
  Ga  Ga16  1  0.13419400  0.53516000  0.86580600  1
  Ga  Ga17  1  0.53516000  0.13419400  0.46484000  1
loop_
_geom_bond_atom_site_label_1
_geom_bond_atom_site_label_2
_geom_bond_distance
_geom_bond_site_symmetry_2
Ga0 Ga3 2.542794 1_555
Ga0 Ga2 2.542794 1_555
Ga0 Sc15 2.739829 1_555
Ga0 Sc17 2.739831 1_555
Ga0 Sc18 2.750710 1_555
Ga0 Sc20 2.750717 1_555
Ga0 Sc2 3.074376 1_555
Ga0 Sc0 3.106639 1_555
Ga0 Sc1 3.130731 1_555
Ga1 Ga2 2.542794 1_555
Ga1 Ga3 2.542794 1_555
Ga1 Sc14 2.739821 1_555
Ga1 Sc16 2.739828 1_555
Ga1 Sc19 2.750717 1_555
Ga1 Sc21 2.750720 1_555
Ga1 Sc3 3.074376 1_555
Ga1 Sc0 3.106639 1_555
Ga1 Sc1 3.130731 1_555
Ga2 Sc4 2.810445 1_555
Ga2 Sc0 3.020547 1_555
Ga2 Sc1 3.023314 1_555
Ga2 Sc19 3.163427 1_555
Ga2 Sc20 3.163431 1_555
Ga2 Sc14 3.206326 1_555
Ga2 Sc17 3.206331 1_555
Ga3 Sc5 2.810445 1_555
Ga3 Sc0 3.020547 1_555
Ga3 Sc1 3.023314 1_555
Ga3 Sc18 3.163421 1_555
Ga3 Sc21 3.163425 1_555
Ga3 Sc15 3.206333 1_555
Ga3 Sc16 3.206336 1_555
Ga4 Ga5 2.561787 1_556
Ga4 Sc2 2.721978 1_556
Ga4 Sc4 2.790943 1_555
Ga4 Sc15 2.849306 1_556
Ga4 Sc18 2.856202 1_556
Ga4 Sc19 2.898828 1_555
Ga4 Sc14 2.932338 1_555
Ga4 Sc13 3.074608 1_555
Ga4 Sc8 3.101551 1_556
Ga5 Sc3 2.721978 1_554
Ga5 Sc5 2.790943 1_555
Ga5 Sc14 2.849314 1_554
Ga5 Sc19 2.856195 1_554
Ga5 Sc18 2.898834 1_555
Ga5 Sc15 2.932332 1_555
Ga5 Sc12 3.074607 1_554
Ga5 Sc9 3.101551 1_555
Ga6 Ga7 2.561787 1_465
Ga6 Sc3 2.721978 1_465
Ga6 Sc4 2.790943 1_555
Ga6 Sc16 2.849313 1_465
Ga6 Sc21 2.856205 1_465
Ga6 Sc20 2.898838 1_555
Ga6 Sc17 2.932337 1_555
Ga6 Sc10 3.074616 1_565
Ga6 Sc7 3.101551 1_455
Ga7 Sc2 2.721978 1_645
Ga7 Sc5 2.790943 1_555
Ga7 Sc17 2.849317 1_645
Ga7 Sc20 2.856201 1_645
Ga7 Sc21 2.898833 1_555
Ga7 Sc16 2.932342 1_555
Ga7 Sc11 3.074612 1_655
Ga7 Sc6 3.101551 1_545
Ga8 Sc7 2.806178 1_554
Ga8 Sc8 2.806178 1_655
Ga8 Sc9 2.806178 1_565
Ga8 Sc6 2.806178 1_555
Ga8 Sc4 2.926903 1_654
Ga8 Sc5 2.926903 1_565
Ga8 Sc3 2.998110 1_564
Ga8 Sc2 2.998110 1_655
Ga9 Sc10 2.809937 1_555
Ga9 Sc12 2.809938 1_455
Ga9 Sc13 2.809939 1_545
Ga9 Sc11 2.809947 1_556
Ga9 Sc5 2.915447 1_456
Ga9 Sc4 2.915447 1_545
Ga9 Sc2 3.045383 1_546
Ga9 Sc3 3.045383 1_455
Ga10 Sc15 2.802907 1_556
Ga10 Sc14 2.802914 1_555
Ga10 Sc21 2.811585 1_565
Ga10 Sc20 2.811586 1_655
Ga10 Sc7 2.855242 1_555
Ga10 Sc6 2.855242 1_555
Ga10 Sc12 2.868242 1_555
Ga10 Sc13 2.868243 1_555
Ga11 Sc17 2.802904 1_545
Ga11 Sc16 2.802905 1_455
Ga11 Sc19 2.811587 1_554
Ga11 Sc18 2.811594 1_555
Ga11 Sc8 2.855242 1_555
Ga11 Sc9 2.855242 1_555
Ga11 Sc11 2.868235 1_555
Ga11 Sc10 2.868244 1_555
Ga12 Ga3 2.770448 1_555
Ga12 Sc0 2.828772 1_555
Ga12 Ga16 2.858548 1_654
Ga12 Sc15 2.908438 1_555
Ga12 Sc16 2.908438 1_555
Ga12 Sc11 2.913099 1_655
Ga12 Sc12 2.913104 1_554
Ga12 Sc8 3.028330 1_655
Ga12 Sc7 3.028330 1_554
Ga12 Sc5 3.051084 1_555
Ga13 Ga2 2.770448 1_555
Ga13 Sc0 2.828772 1_555
Ga13 Ga17 2.858548 1_565
Ga13 Sc17 2.908429 1_555
Ga13 Sc14 2.908433 1_555
Ga13 Sc13 2.913093 1_555
Ga13 Sc10 2.913100 1_565
Ga13 Sc6 3.028330 1_555
Ga13 Sc9 3.028330 1_565
Ga13 Sc4 3.051084 1_555
Ga14 Sc8 2.966199 1_555
Ga14 Sc6 2.966199 1_455
Ga14 Sc12 2.989305 1_455
Ga14 Sc10 2.989308 1_555
Ga14 Sc20 3.030929 1_555
Ga14 Sc18 3.030936 1_555
Ga14 Sc16 3.108415 1_455
Ga14 Sc14 3.108423 1_455
Ga15 Sc7 2.966199 1_545
Ga15 Sc9 2.966199 1_556
Ga15 Sc11 2.989307 1_556
Ga15 Sc13 2.989315 1_545
Ga15 Sc21 3.030936 1_555
Ga15 Sc19 3.030938 1_555
Ga15 Sc17 3.108422 1_546
Ga15 Sc15 3.108424 1_546
Ga16 Ga2 2.787600 1_555
Ga16 Sc1 2.817864 1_555
Ga16 Sc20 2.891802 1_555
Ga16 Sc19 2.891802 1_555
Ga16 Sc7 2.905272 1_455
Ga16 Sc8 2.905272 1_556
Ga16 Sc11 2.999307 1_556
Ga16 Sc12 2.999315 1_455
Ga16 Sc4 3.076355 1_555
Ga17 Ga3 2.787600 1_555
Ga17 Sc1 2.817864 1_555
Ga17 Sc21 2.891793 1_555
Ga17 Sc18 2.891797 1_555
Ga17 Sc6 2.905272 1_545
Ga17 Sc9 2.905272 1_555
Ga17 Sc10 2.999305 1_555
Ga17 Sc13 2.999309 1_545
Ga17 Sc5 3.076355 1_555
