# generated using pymatgen
data_Rb3Nb
_symmetry_space_group_name_H-M   'P 1'
_cell_length_a   8.75867520
_cell_length_b   8.75867520
_cell_length_c   6.88471400
_cell_angle_alpha   90.00000000
_cell_angle_beta   90.00000000
_cell_angle_gamma   119.99999398
_symmetry_Int_Tables_number   1
_chemical_formula_structural   Rb3Nb
_chemical_formula_sum   'Rb6 Nb2'
_cell_volume   457.39709856
_cell_formula_units_Z   2
loop_
 _symmetry_equiv_pos_site_id
 _symmetry_equiv_pos_as_xyz
  1  'x, y, z'
loop_
 _atom_site_type_symbol
 _atom_site_label
 _atom_site_symmetry_multiplicity
 _atom_site_fract_x
 _atom_site_fract_y
 _atom_site_fract_z
 _atom_site_occupancy
  Rb  Rb0  1  0.17866300  0.35732500  0.25000000  1
  Rb  Rb1  1  0.64267500  0.82133700  0.25000000  1
  Rb  Rb2  1  0.17866300  0.82133700  0.25000000  1
  Rb  Rb3  1  0.82133700  0.64267500  0.75000000  1
  Rb  Rb4  1  0.35732500  0.17866300  0.75000000  1
  Rb  Rb5  1  0.82133700  0.17866300  0.75000000  1
  Nb  Nb0  1  0.33333300  0.66666700  0.75000000  1
  Nb  Nb1  1  0.66666700  0.33333300  0.25000000  1
loop_
_geom_bond_atom_site_label_1
_geom_bond_atom_site_label_2
_geom_bond_distance
_geom_bond_site_symmetry_2
Rb0 Rb2 4.064130 1_555
Rb0 Rb1 4.064131 1_555
Rb0 Rb4 4.381326 1_554
Rb0 Rb4 4.381326 1_555
Rb0 Rb5 4.381335 1_454
Rb0 Rb5 4.381335 1_455
Rb0 Rb2 4.694545 1_545
Rb0 Rb1 4.694545 1_445
Rb1 Rb2 4.064130 1_555
Rb1 Rb3 4.381326 1_554
Rb1 Rb3 4.381326 1_555
Rb1 Rb5 4.381335 1_565
Rb1 Rb5 4.381335 1_564
Rb1 Rb2 4.694545 1_655
Rb2 Rb3 4.381335 1_455
Rb2 Rb4 4.381335 1_565
Rb2 Rb4 4.381335 1_564
Rb2 Rb3 4.381335 1_454
Rb3 Rb5 4.064130 1_555
Rb3 Rb4 4.064131 1_555
Rb3 Rb5 4.694545 1_565
Rb3 Rb4 4.694545 1_665
Rb4 Rb5 4.064130 1_555
Rb4 Rb5 4.694545 1_455
Nb0 Rb2 4.165992 1_555
Nb0 Rb2 4.165992 1_556
Nb0 Rb0 4.166001 1_555
Nb0 Rb0 4.166001 1_556
Nb0 Rb1 4.166001 1_555
Nb0 Rb1 4.166001 1_556
Nb0 Rb3 4.383117 1_555
Nb0 Rb4 4.383117 1_555
Nb0 Rb4 4.383117 1_565
Nb0 Rb3 4.383117 1_455
Nb0 Rb5 4.383118 1_565
Nb0 Rb5 4.383118 1_455
Nb1 Rb5 4.165992 1_555
Nb1 Rb5 4.165992 1_554
Nb1 Rb3 4.166001 1_554
Nb1 Rb4 4.166001 1_554
Nb1 Rb4 4.166001 1_555
Nb1 Rb3 4.166001 1_555
Nb1 Rb0 4.383117 1_555
Nb1 Rb1 4.383117 1_555
Nb1 Rb0 4.383117 1_655
Nb1 Rb1 4.383117 1_545
Nb1 Rb2 4.383118 1_655
Nb1 Rb2 4.383118 1_545
