# generated using pymatgen
data_VCrCo
_symmetry_space_group_name_H-M   'P 1'
_cell_length_a   4.61979908
_cell_length_b   4.61979908
_cell_length_c   7.74419700
_cell_angle_alpha   90.00000000
_cell_angle_beta   90.00000000
_cell_angle_gamma   119.16095147
_symmetry_Int_Tables_number   1
_chemical_formula_structural   VCrCo
_chemical_formula_sum   'V4 Cr4 Co4'
_cell_volume   144.33223375
_cell_formula_units_Z   4
loop_
 _symmetry_equiv_pos_site_id
 _symmetry_equiv_pos_as_xyz
  1  'x, y, z'
loop_
 _atom_site_type_symbol
 _atom_site_label
 _atom_site_symmetry_multiplicity
 _atom_site_fract_x
 _atom_site_fract_y
 _atom_site_fract_z
 _atom_site_occupancy
  V  V0  1  0.66913400  0.33086600  0.31598200  1
  V  V1  1  0.33842100  0.66157900  0.19061800  1
  V  V2  1  0.33842100  0.66157900  0.80938200  1
  V  V3  1  0.66913400  0.33086600  0.68401800  1
  Cr  Cr0  1  0.16889600  0.83110400  0.50000000  1
  Cr  Cr1  1  0.34319300  0.17010600  0.00000000  1
  Cr  Cr2  1  0.82989400  0.65680700  0.00000000  1
  Cr  Cr3  1  0.82791200  0.17208800  0.00000000  1
  Co  Co0  1  0.99978300  0.00021700  0.25586300  1
  Co  Co1  1  0.99978300  0.00021700  0.74413700  1
  Co  Co2  1  0.65338300  0.83777000  0.50000000  1
  Co  Co3  1  0.16223000  0.34661700  0.50000000  1
loop_
_geom_bond_atom_site_label_1
_geom_bond_atom_site_label_2
_geom_bond_distance
_geom_bond_site_symmetry_2
V0 V1 2.808176 1_555
V0 V3 2.850143 1_555
V0 V1 2.869391 1_545
V0 V1 2.869391 1_655
V1 V2 2.952367 1_554
V2 V3 2.808176 1_555
V2 V3 2.869391 1_565
V2 V3 2.869391 1_455
Cr0 V0 2.739046 1_565
Cr0 V3 2.739046 1_565
Cr0 V0 2.739046 1_455
Cr0 V3 2.739046 1_455
Cr0 V1 2.750429 1_555
Cr0 V2 2.750429 1_555
Cr1 Cr3 2.234857 1_555
Cr1 Cr2 2.276916 1_555
Cr1 Cr3 2.384970 1_455
Cr1 Cr2 2.401348 1_445
Cr1 V1 2.717275 1_555
Cr1 V2 2.717275 1_554
Cr1 V1 2.765557 1_545
Cr1 V2 2.765557 1_544
Cr1 V3 2.777960 1_554
Cr1 V0 2.777960 1_555
Cr2 Cr3 2.234857 1_555
Cr2 Cr3 2.384970 1_565
Cr2 V1 2.717275 1_555
Cr2 V2 2.717275 1_554
Cr2 V2 2.765557 1_654
Cr2 V1 2.765557 1_655
Cr2 V0 2.777960 1_555
Cr2 V3 2.777960 1_554
Cr3 V3 2.754705 1_554
Cr3 V0 2.754705 1_555
Cr3 V2 2.767249 1_544
Cr3 V2 2.767249 1_654
Cr3 V1 2.767249 1_545
Cr3 V1 2.767249 1_655
Co0 Cr0 2.321666 1_645
Co0 Co2 2.351236 1_545
Co0 Co3 2.351236 1_655
Co0 Cr3 2.408621 1_555
Co0 Cr2 2.417777 1_545
Co0 Cr1 2.417777 1_655
Co0 V0 2.675329 1_555
Co0 V1 2.716581 1_655
Co0 V1 2.716581 1_545
Co0 V0 2.740256 1_545
Co0 V0 2.740256 1_655
Co0 V1 2.745063 1_645
Co1 Cr0 2.321666 1_645
Co1 Co3 2.351236 1_655
Co1 Co2 2.351236 1_545
Co1 Cr3 2.408621 1_556
Co1 Cr2 2.417777 1_546
Co1 Cr1 2.417777 1_656
Co1 V3 2.675329 1_555
Co1 V2 2.716581 1_545
Co1 V2 2.716581 1_655
Co1 V3 2.740256 1_545
Co1 V3 2.740256 1_655
Co1 V2 2.745063 1_645
Co2 Cr0 2.223390 1_555
Co2 Co3 2.297743 1_555
Co2 Co3 2.380521 1_665
Co2 Cr0 2.396723 1_655
Co2 V3 2.657798 1_565
Co2 V0 2.657798 1_565
Co2 V1 2.714028 1_555
Co2 V2 2.714028 1_555
Co2 V0 2.772398 1_555
Co2 V3 2.772398 1_555
Co3 Cr0 2.223390 1_555
Co3 Cr0 2.396723 1_545
Co3 V3 2.657798 1_455
Co3 V0 2.657798 1_455
Co3 V1 2.714028 1_555
Co3 V2 2.714028 1_555
Co3 V0 2.772398 1_555
Co3 V3 2.772398 1_555
