# generated using pymatgen
data_SrLa2Mn3O9
_symmetry_space_group_name_H-M   'P 1'
_cell_length_a   5.58166416
_cell_length_b   5.58166416
_cell_length_c   13.49922400
_cell_angle_alpha   90.00000000
_cell_angle_beta   90.00000000
_cell_angle_gamma   120.00000185
_symmetry_Int_Tables_number   1
_chemical_formula_structural   SrLa2Mn3O9
_chemical_formula_sum   'Sr2 La4 Mn6 O18'
_cell_volume   364.22255043
_cell_formula_units_Z   2
loop_
 _symmetry_equiv_pos_site_id
 _symmetry_equiv_pos_as_xyz
  1  'x, y, z'
loop_
 _atom_site_type_symbol
 _atom_site_label
 _atom_site_symmetry_multiplicity
 _atom_site_fract_x
 _atom_site_fract_y
 _atom_site_fract_z
 _atom_site_occupancy
  Sr  Sr0  1  0.00000000  0.00000000  0.25000000  1
  Sr  Sr1  1  0.00000000  0.00000000  0.75000000  1
  La  La0  1  0.33333300  0.66666700  0.58428200  1
  La  La1  1  0.66666700  0.33333300  0.91571800  1
  La  La2  1  0.33333300  0.66666700  0.08428200  1
  La  La3  1  0.66666700  0.33333300  0.41571800  1
  Mn  Mn0  1  0.00000000  0.00000000  0.50000000  1
  Mn  Mn1  1  0.33333300  0.66666700  0.83249800  1
  Mn  Mn2  1  0.66666700  0.33333300  0.16750200  1
  Mn  Mn3  1  0.00000000  0.00000000  0.00000000  1
  Mn  Mn4  1  0.33333300  0.66666700  0.33249800  1
  Mn  Mn5  1  0.66666700  0.33333300  0.66750200  1
  O  O0  1  0.77302600  0.10976400  0.57942700  1
  O  O1  1  0.10976400  0.77302600  0.92057300  1
  O  O2  1  0.45729700  0.45729700  0.25000000  1
  O  O3  1  0.33673800  0.22697400  0.57942700  1
  O  O4  1  0.66326200  0.89023600  0.92057300  1
  O  O5  1  0.00000000  0.54270300  0.25000000  1
  O  O6  1  0.89023600  0.66326200  0.57942700  1
  O  O7  1  0.22697400  0.33673800  0.92057300  1
  O  O8  1  0.54270300  0.00000000  0.25000000  1
  O  O9  1  0.66326200  0.77302600  0.42057300  1
  O  O10  1  0.00000000  0.45729700  0.75000000  1
  O  O11  1  0.33673800  0.10976400  0.07942700  1
  O  O12  1  0.10976400  0.33673800  0.42057300  1
  O  O13  1  0.45729700  0.00000000  0.75000000  1
  O  O14  1  0.77302600  0.66326200  0.07942700  1
  O  O15  1  0.22697400  0.89023600  0.42057300  1
  O  O16  1  0.54270300  0.54270300  0.75000000  1
  O  O17  1  0.89023600  0.22697400  0.07942700  1
loop_
_geom_bond_atom_site_label_1
_geom_bond_atom_site_label_2
_geom_bond_distance
_geom_bond_site_symmetry_2
La0 O6 2.464642 1_455
La0 O0 2.464645 1_565
La0 O3 2.464648 1_555
La0 O15 2.744873 1_555
La0 O12 2.744876 1_555
La0 O9 2.744877 1_555
La0 O13 2.767221 1_565
La0 O10 2.767221 1_555
La0 O16 2.767224 1_555
La1 O4 2.464642 1_545
La1 O1 2.464645 1_655
La1 O7 2.464648 1_555
La1 O17 2.744873 1_556
La1 O11 2.744876 1_556
La1 O14 2.744877 1_556
La1 O10 2.767221 1_655
La1 O13 2.767221 1_555
La1 O16 2.767224 1_555
La2 O11 2.464642 1_565
La2 O17 2.464645 1_455
La2 O14 2.464648 1_555
La2 O1 2.744873 1_554
La2 O4 2.744876 1_554
La2 O7 2.744877 1_554
La2 O5 2.767221 1_555
La2 O8 2.767221 1_565
La2 O2 2.767224 1_555
La3 O12 2.464642 1_655
La3 O15 2.464645 1_545
La3 O9 2.464648 1_555
La3 O0 2.744873 1_555
La3 O6 2.744876 1_555
La3 O3 2.744877 1_555
La3 O8 2.767221 1_555
La3 O5 2.767221 1_655
La3 O2 2.767224 1_555
Mn0 O3 1.976405 1_555
Mn0 O9 1.976405 1_445
Mn0 O6 1.976405 1_445
Mn0 O12 1.976405 1_555
Mn0 O15 1.976405 1_545
Mn0 O0 1.976405 1_455
Mn1 O13 1.973142 1_565
Mn1 O10 1.973143 1_555
Mn1 O16 1.973147 1_555
Mn1 O1 2.015952 1_555
Mn1 O4 2.015956 1_555
Mn1 O7 2.015957 1_555
Mn2 O8 1.973142 1_555
Mn2 O5 1.973143 1_655
Mn2 O2 1.973147 1_555
Mn2 O17 2.015952 1_555
Mn2 O11 2.015956 1_555
Mn2 O14 2.015957 1_555
Mn3 O7 1.976405 1_554
Mn3 O14 1.976405 1_445
Mn3 O4 1.976405 1_444
Mn3 O11 1.976405 1_555
Mn3 O17 1.976405 1_455
Mn3 O1 1.976405 1_544
Mn4 O5 1.973142 1_555
Mn4 O8 1.973143 1_565
Mn4 O2 1.973147 1_555
Mn4 O15 2.015952 1_555
Mn4 O12 2.015956 1_555
Mn4 O9 2.015957 1_555
Mn5 O10 1.973142 1_655
Mn5 O13 1.973143 1_555
Mn5 O16 1.973147 1_555
Mn5 O0 2.015952 1_555
Mn5 O6 2.015956 1_555
Mn5 O3 2.015957 1_555
O0 Sr1 2.838757 1_655
O1 Sr1 2.838757 1_565
O2 Sr0 2.552478 1_555
O2 Sr0 3.029186 1_665
O3 Sr1 2.838757 1_555
O4 Sr1 2.838757 1_665
O5 Sr0 2.552478 1_565
O5 Sr0 3.029186 1_555
O6 Sr1 2.838757 1_665
O7 Sr1 2.838757 1_555
O8 Sr0 2.552478 1_655
O8 Sr0 3.029186 1_555
O9 Sr0 2.838757 1_665
O10 Sr1 2.552478 1_555
O10 Sr1 3.029186 1_565
O11 Sr0 2.838757 1_555
O12 Sr0 2.838757 1_555
O13 Sr1 2.552478 1_555
O13 Sr1 3.029186 1_655
O14 Sr0 2.838757 1_665
O15 Sr0 2.838757 1_565
O16 Sr1 2.552478 1_665
O16 Sr1 3.029186 1_555
O17 Sr0 2.838757 1_655
