# generated using pymatgen
data_Ho2Fe12P7
_symmetry_space_group_name_H-M   'P 1'
_cell_length_a   3.63557700
_cell_length_b   8.96981809
_cell_length_c   8.97222130
_cell_angle_alpha   120.05757281
_cell_angle_beta   90.00000000
_cell_angle_gamma   90.00000000
_symmetry_Int_Tables_number   1
_chemical_formula_structural   Ho2Fe12P7
_chemical_formula_sum   'Ho2 Fe12 P7'
_cell_volume   253.24177353
_cell_formula_units_Z   1
loop_
 _symmetry_equiv_pos_site_id
 _symmetry_equiv_pos_as_xyz
  1  'x, y, z'
loop_
 _atom_site_type_symbol
 _atom_site_label
 _atom_site_symmetry_multiplicity
 _atom_site_fract_x
 _atom_site_fract_y
 _atom_site_fract_z
 _atom_site_occupancy
  Ho  Ho0  1  0.00000000  0.66685700  0.33357600  1
  Ho  Ho1  1  0.50000000  0.33312000  0.66650400  1
  Fe  Fe0  1  0.00000000  0.37289800  0.94474500  1
  Fe  Fe1  1  0.00000000  0.05531500  0.42797200  1
  Fe  Fe2  1  0.00000000  0.57177700  0.62697800  1
  Fe  Fe3  1  0.00000000  0.88055100  0.72552300  1
  Fe  Fe4  1  0.00000000  0.27471100  0.15529900  1
  Fe  Fe5  1  0.00000000  0.84465800  0.11951100  1
  Fe  Fe6  1  0.50000000  0.95154900  0.56775200  1
  Fe  Fe7  1  0.50000000  0.43224500  0.38389500  1
  Fe  Fe8  1  0.50000000  0.61631700  0.04842400  1
  Fe  Fe9  1  0.50000000  0.12111900  0.90310800  1
  Fe  Fe10  1  0.50000000  0.09675400  0.21798000  1
  Fe  Fe11  1  0.50000000  0.78201600  0.87883200  1
  P  P0  1  0.00000000  0.11444900  0.70424100  1
  P  P1  1  0.00000000  0.29515600  0.41009700  1
  P  P2  1  0.00000000  0.58969100  0.88485600  1
  P  P3  1  0.50000000  0.71080400  0.59823100  1
  P  P4  1  0.50000000  0.40188300  0.11227000  1
  P  P5  1  0.50000000  0.88814200  0.29015800  1
  P  P6  1  0.00000000  0.99998700  0.00004800  1
loop_
_geom_bond_atom_site_label_1
_geom_bond_atom_site_label_2
_geom_bond_distance
_geom_bond_site_symmetry_2
Ho0 P3 2.856665 1_555
Ho0 P3 2.856665 1_455
Ho0 P4 2.858055 1_455
Ho0 P4 2.858055 1_555
Ho0 P5 2.858400 1_455
Ho0 P5 2.858400 1_555
Ho1 P2 2.814666 1_555
Ho1 P2 2.814666 1_655
Ho1 P1 2.815677 1_655
Ho1 P1 2.815677 1_555
Ho1 P0 2.816293 1_655
Ho1 P0 2.816293 1_555
Fe0 P0 2.240412 1_555
Fe0 P2 2.262056 1_555
Fe0 P4 2.289041 1_456
Fe0 P4 2.289041 1_556
Fe0 Ho1 2.961687 1_455
Fe0 Ho1 2.961687 1_555
Fe0 Ho0 3.147787 1_556
Fe1 P1 2.235972 1_555
Fe1 P0 2.260191 1_555
Fe1 P5 2.285705 1_445
Fe1 P5 2.285705 1_545
Fe1 Ho1 2.958336 1_555
Fe1 Ho1 2.958336 1_455
Fe1 Ho0 3.146763 1_545
Fe2 P2 2.237582 1_555
Fe2 P1 2.259743 1_555
Fe2 P3 2.290897 1_555
Fe2 P3 2.290897 1_455
Fe2 Ho1 2.961968 1_555
Fe2 Ho1 2.961968 1_455
Fe2 Ho0 3.147419 1_555
Fe3 P6 2.138042 1_556
Fe3 P0 2.199879 1_565
Fe3 P3 2.277074 1_555
Fe3 P3 2.277074 1_455
Fe3 Ho0 3.047693 1_555
Fe4 P6 2.138737 1_545
Fe4 P1 2.199984 1_555
Fe4 P4 2.279424 1_455
Fe4 P4 2.279424 1_555
Fe4 Ho0 3.048778 1_555
Fe5 P6 2.141505 1_555
Fe5 P2 2.199915 1_554
Fe5 P5 2.280893 1_555
Fe5 P5 2.280893 1_455
Fe5 Ho0 3.049725 1_555
Fe6 P5 2.260028 1_555
Fe6 P0 2.268609 1_665
Fe6 P0 2.268609 1_565
Fe6 P3 2.308574 1_555
Fe6 Ho0 2.977451 1_555
Fe6 Ho0 2.977451 1_655
Fe6 Ho1 3.075968 1_565
Fe7 P3 2.264493 1_555
Fe7 P1 2.271845 1_655
Fe7 P1 2.271845 1_555
Fe7 P4 2.312716 1_555
Fe7 Ho0 2.981366 1_655
Fe7 Ho0 2.981366 1_555
Fe7 Ho1 3.078704 1_555
Fe8 P4 2.265278 1_555
Fe8 P2 2.272453 1_554
Fe8 P2 2.272453 1_654
Fe8 P5 2.313347 1_555
Fe8 Ho0 2.982225 1_655
Fe8 Ho0 2.982225 1_555
Fe8 Ho1 3.078174 1_554
Fe9 P4 2.264902 1_556
Fe9 P6 2.487584 1_546
Fe9 P6 2.487584 1_646
Fe9 P0 2.526786 1_555
Fe9 P0 2.526786 1_655
Fe10 P5 2.265991 1_545
Fe10 P6 2.486148 1_545
Fe10 P6 2.486148 1_645
Fe10 P1 2.523831 1_555
Fe10 P1 2.523831 1_655
Fe11 P3 2.266153 1_555
Fe11 P6 2.485909 1_656
Fe11 P6 2.485909 1_556
Fe11 P2 2.525217 1_555
Fe11 P2 2.525217 1_655
