# generated using pymatgen
data_Na4XeO14
_symmetry_space_group_name_H-M   'P 1'
_cell_length_a   10.97479512
_cell_length_b   10.90079473
_cell_length_c   11.92236596
_cell_angle_alpha   90.00000000
_cell_angle_beta   90.00000000
_cell_angle_gamma   90.00000000
_symmetry_Int_Tables_number   1
_chemical_formula_structural   Na4XeO14
_chemical_formula_sum   'Na16 Xe4 O56'
_cell_volume   1426.32019581
_cell_formula_units_Z   4
loop_
 _symmetry_equiv_pos_site_id
 _symmetry_equiv_pos_as_xyz
  1  'x, y, z'
loop_
 _atom_site_type_symbol
 _atom_site_label
 _atom_site_symmetry_multiplicity
 _atom_site_fract_x
 _atom_site_fract_y
 _atom_site_fract_z
 _atom_site_occupancy
  Na  Na0  1  0.42261818  0.87616592  0.04991594  1
  Na  Na1  1  0.07738182  0.62383408  0.54991594  1
  Na  Na2  1  0.07738182  0.37616592  0.95008406  1
  Na  Na3  1  0.42261818  0.12383408  0.45008406  1
  Na  Na4  1  0.57738182  0.12383408  0.95008406  1
  Na  Na5  1  0.92261818  0.37616592  0.45008406  1
  Na  Na6  1  0.92261818  0.62383408  0.04991594  1
  Na  Na7  1  0.57738182  0.87616592  0.54991594  1
  Na  Na8  1  0.21060110  0.64701224  0.22584406  1
  Na  Na9  1  0.28939890  0.85298776  0.72584406  1
  Na  Na10  1  0.28939890  0.14701224  0.77415594  1
  Na  Na11  1  0.21060110  0.35298776  0.27415594  1
  Na  Na12  1  0.78939890  0.35298776  0.77415594  1
  Na  Na13  1  0.71060110  0.14701224  0.27415594  1
  Na  Na14  1  0.71060110  0.85298776  0.22584406  1
  Na  Na15  1  0.78939890  0.64701224  0.72584406  1
  Xe  Xe0  1  0.14408399  0.00000000  0.25000000  1
  Xe  Xe1  1  0.35591601  0.50000000  0.75000000  1
  Xe  Xe2  1  0.85591601  0.00000000  0.75000000  1
  Xe  Xe3  1  0.64408399  0.50000000  0.25000000  1
  O  O0  1  0.43669244  0.00000000  0.25000000  1
  O  O1  1  0.06330756  0.50000000  0.75000000  1
  O  O2  1  0.56330756  0.00000000  0.75000000  1
  O  O3  1  0.93669244  0.50000000  0.25000000  1
  O  O4  1  0.85342952  0.00000000  0.25000000  1
  O  O5  1  0.64657048  0.50000000  0.75000000  1
  O  O6  1  0.14657048  0.00000000  0.75000000  1
  O  O7  1  0.35342952  0.50000000  0.25000000  1
  O  O8  1  0.16914590  0.88131686  0.94887545  1
  O  O9  1  0.33085410  0.61868314  0.44887545  1
  O  O10  1  0.33085410  0.38131686  0.05112455  1
  O  O11  1  0.16914590  0.11868314  0.55112455  1
  O  O12  1  0.83085410  0.11868314  0.05112455  1
  O  O13  1  0.66914590  0.38131686  0.55112455  1
  O  O14  1  0.66914590  0.61868314  0.94887545  1
  O  O15  1  0.83085410  0.88131686  0.44887545  1
  O  O16  1  0.26217577  0.87049230  0.48424857  1
  O  O17  1  0.23782423  0.62950770  0.98424857  1
  O  O18  1  0.23782423  0.37049230  0.51575143  1
  O  O19  1  0.26217577  0.12950770  0.01575143  1
  O  O20  1  0.73782423  0.12950770  0.51575143  1
  O  O21  1  0.76217577  0.37049230  0.01575143  1
  O  O22  1  0.76217577  0.62950770  0.48424857  1
  O  O23  1  0.73782423  0.87049230  0.98424857  1
  O  O24  1  0.30524051  0.69760324  0.05579353  1
  O  O25  1  0.19475949  0.80239676  0.55579353  1
  O  O26  1  0.19475949  0.19760324  0.94420647  1
  O  O27  1  0.30524051  0.30239676  0.44420647  1
  O  O28  1  0.69475949  0.30239676  0.94420647  1
  O  O29  1  0.80524051  0.19760324  0.44420647  1
  O  O30  1  0.80524051  0.80239676  0.05579353  1
  O  O31  1  0.69475949  0.69760324  0.55579353  1
  O  O32  1  0.13935266  0.57474635  0.03655513  1
  O  O33  1  0.36064734  0.92525365  0.53655513  1
  O  O34  1  0.36064734  0.07474635  0.96344487  1
  O  O35  1  0.13935266  0.42525365  0.46344487  1
  O  O36  1  0.86064734  0.42525365  0.96344487  1
  O  O37  1  0.63935266  0.07474635  0.46344487  1
  O  O38  1  0.63935266  0.92525365  0.03655513  1
  O  O39  1  0.86064734  0.57474635  0.53655513  1
  O  O40  1  0.00155561  0.60748709  0.25210223  1
  O  O41  1  0.49844439  0.89251291  0.75210223  1
  O  O42  1  0.49844439  0.10748709  0.74789777  1
  O  O43  1  0.00155561  0.39251291  0.24789777  1
  O  O44  1  -0.00155561  0.39251291  0.74789777  1
  O  O45  1  0.50155561  0.10748709  0.24789777  1
  O  O46  1  0.50155561  0.89251291  0.25210223  1
  O  O47  1  -0.00155561  0.60748709  0.75210223  1
  O  O48  1  0.40800796  0.56443196  0.38829734  1
  O  O49  1  0.09199204  0.93556804  0.88829734  1
  O  O50  1  0.09199204  0.06443196  0.61170266  1
  O  O51  1  0.40800796  0.43556804  0.11170266  1
  O  O52  1  0.59199204  0.43556804  0.61170266  1
  O  O53  1  0.90800796  0.06443196  0.11170266  1
  O  O54  1  0.90800796  0.93556804  0.38829734  1
  O  O55  1  0.59199204  0.56443196  0.88829734  1
loop_
_geom_bond_atom_site_label_1
_geom_bond_atom_site_label_2
_geom_bond_distance
_geom_bond_site_symmetry_2
Na0 O24 2.335193 1_555
Na0 O38 2.443260 1_555
Na0 O34 2.492239 1_564
Na0 O46 2.567677 1_555
Na0 O0 2.745279 1_565
Na0 O8 3.031957 1_554
Na1 O25 2.335193 1_555
Na1 O39 2.443260 1_455
Na1 O35 2.492239 1_555
Na1 O47 2.567677 1_555
Na1 O1 2.745279 1_555
Na1 O9 3.031957 1_555
Na2 O26 2.335193 1_555
Na2 O36 2.443260 1_455
Na2 O32 2.492239 1_556
Na2 O44 2.567677 1_555
Na2 O1 2.745279 1_555
Na2 O10 3.031957 1_556
Na3 O27 2.335193 1_555
Na3 O37 2.443260 1_555
Na3 O33 2.492239 1_545
Na3 O45 2.567677 1_555
Na3 O0 2.745279 1_555
Na3 O11 3.031957 1_555
Na4 O28 2.335193 1_555
Na4 O34 2.443260 1_555
Na4 O38 2.492239 1_546
Na4 O42 2.567677 1_555
Na4 O2 2.745279 1_555
Na4 O12 3.031957 1_556
Na5 O29 2.335193 1_555
Na5 O35 2.443260 1_655
Na5 O39 2.492239 1_555
Na5 O43 2.567677 1_655
Na5 O3 2.745279 1_555
Na5 O13 3.031957 1_555
Na6 O30 2.335193 1_555
Na6 O32 2.443260 1_655
Na6 O36 2.492239 1_554
Na6 O40 2.567677 1_655
Na6 O3 2.745279 1_555
Na6 O14 3.031957 1_554
Na7 O31 2.335193 1_555
Na7 O33 2.443260 1_555
Na7 O37 2.492239 1_565
Na7 O41 2.567677 1_555
Na7 O2 2.745279 1_565
Na7 O15 3.031957 1_555
Na8 O7 2.260134 1_555
Na8 O24 2.343777 1_555
Na8 O40 2.355237 1_555
Na8 O32 2.514956 1_555
Na8 O9 2.984580 1_555
Na9 O6 2.260134 1_565
Na9 O25 2.343777 1_555
Na9 O41 2.355237 1_555
Na9 O33 2.514956 1_555
Na9 O8 2.984580 1_555
Na10 O6 2.260134 1_555
Na10 O26 2.343777 1_555
Na10 O42 2.355237 1_555
Na10 O34 2.514956 1_555
Na10 O11 2.984580 1_555
Na11 O7 2.260134 1_555
Na11 O27 2.343777 1_555
Na11 O43 2.355237 1_555
Na11 O35 2.514956 1_555
Na11 O10 2.984580 1_555
Na12 O5 2.260134 1_555
Na12 O28 2.343777 1_555
Na12 O44 2.355237 1_655
Na12 O36 2.514956 1_555
Na12 O13 2.984580 1_555
Na13 O4 2.260134 1_555
Na13 O29 2.343777 1_555
Na13 O45 2.355237 1_555
Na13 O37 2.514956 1_555
Na13 O12 2.984580 1_555
Na14 O4 2.260134 1_565
Na14 O30 2.343777 1_555
Na14 O46 2.355237 1_555
Na14 O38 2.514956 1_555
Na14 O15 2.984580 1_555
Na15 O5 2.260134 1_555
Na15 O31 2.343777 1_555
Na15 O47 2.355237 1_655
Na15 O39 2.514956 1_555
Na15 O14 2.984580 1_555
O0 O45 1.371219 1_555
O0 O46 1.371219 1_545
O1 O47 1.371219 1_555
O1 O44 1.371219 1_555
O2 O42 1.371219 1_555
O2 O41 1.371219 1_545
O3 O43 1.371219 1_655
O3 O40 1.371219 1_655
O4 O53 1.889640 1_555
O4 O54 1.889640 1_545
O5 O52 1.889640 1_555
O5 O55 1.889640 1_555
O10 O51 1.260292 1_555
O11 O50 1.260292 1_555
O12 O53 1.260292 1_555
O13 O52 1.260292 1_555
O14 O55 1.260292 1_555
O15 O54 1.260292 1_555
O16 O25 1.351299 1_555
O16 O33 1.383171 1_555
O17 O24 1.351299 1_556
O17 O32 1.383171 1_556
O18 O27 1.351299 1_555
O18 O35 1.383171 1_555
O19 O26 1.351299 1_554
O19 O34 1.383171 1_554
O20 O29 1.351299 1_555
O20 O37 1.383171 1_555
O21 O28 1.351299 1_554
O21 O36 1.383171 1_554
O22 O31 1.351299 1_555
O22 O39 1.383171 1_555
O23 O30 1.351299 1_556
O23 O38 1.383171 1_556
O48 O9 1.260292 1_555
O48 O7 1.889640 1_555
O49 O8 1.260292 1_555
O49 O6 1.889640 1_565
O50 O6 1.889640 1_555
O51 O7 1.889640 1_555
