# generated using pymatgen
data_BaMnAlCuO5
_symmetry_space_group_name_H-M   'P 1'
_cell_length_a   3.71129200
_cell_length_b   3.71129200
_cell_length_c   8.17187100
_cell_angle_alpha   90.00000000
_cell_angle_beta   90.00000000
_cell_angle_gamma   90.00000000
_symmetry_Int_Tables_number   1
_chemical_formula_structural   BaMnAlCuO5
_chemical_formula_sum   'Ba1 Mn1 Al1 Cu1 O5'
_cell_volume   112.55680406
_cell_formula_units_Z   1
loop_
 _symmetry_equiv_pos_site_id
 _symmetry_equiv_pos_as_xyz
  1  'x, y, z'
loop_
 _atom_site_type_symbol
 _atom_site_label
 _atom_site_symmetry_multiplicity
 _atom_site_fract_x
 _atom_site_fract_y
 _atom_site_fract_z
 _atom_site_occupancy
  Ba  Ba0  1  0.50000000  0.50000000  0.00723100  1
  Mn  Mn0  1  0.00000000  0.00000000  0.68247200  1
  Al  Al0  1  0.50000000  0.50000000  0.46225100  1
  Cu  Cu0  1  0.00000000  0.00000000  0.27073200  1
  O  O0  1  0.50000000  0.00000000  0.60791600  1
  O  O1  1  0.00000000  0.50000000  0.60791600  1
  O  O2  1  0.50000000  0.00000000  0.30925600  1
  O  O3  1  0.00000000  0.50000000  0.30925600  1
  O  O4  1  0.00000000  0.00000000  0.93085700  1
loop_
_geom_bond_atom_site_label_1
_geom_bond_atom_site_label_2
_geom_bond_distance
_geom_bond_site_symmetry_2
Ba0 O4 2.697474 1_564
Ba0 O4 2.697474 1_554
Ba0 O4 2.697474 1_664
Ba0 O4 2.697474 1_654
Ba0 O3 3.087877 1_655
Ba0 O3 3.087877 1_555
Ba0 O2 3.087877 1_555
Ba0 O2 3.087877 1_565
Mn0 O1 1.953106 1_555
Mn0 O0 1.953106 1_455
Mn0 O1 1.953106 1_545
Mn0 O0 1.953106 1_555
Mn0 O4 2.029770 1_555
Al0 O1 2.204624 1_555
Al0 O0 2.204624 1_565
Al0 O1 2.204624 1_655
Al0 O0 2.204624 1_555
Al0 O3 2.237535 1_555
Al0 O2 2.237535 1_555
Al0 O2 2.237535 1_565
Al0 O3 2.237535 1_655
Cu0 O3 1.882161 1_555
Cu0 O3 1.882161 1_545
Cu0 O2 1.882161 1_455
Cu0 O2 1.882161 1_555
