# generated using pymatgen
data_Tm2Ga3Ni
_symmetry_space_group_name_H-M   'P 1'
_cell_length_a   5.49944556
_cell_length_b   5.49944556
_cell_length_c   6.99871061
_cell_angle_alpha   51.57285009
_cell_angle_beta   51.57285009
_cell_angle_gamma   46.28358955
_symmetry_Int_Tables_number   1
_chemical_formula_structural   Tm2Ga3Ni
_chemical_formula_sum   'Tm2 Ga3 Ni1'
_cell_volume   112.74984364
_cell_formula_units_Z   1
loop_
 _symmetry_equiv_pos_site_id
 _symmetry_equiv_pos_as_xyz
  1  'x, y, z'
loop_
 _atom_site_type_symbol
 _atom_site_label
 _atom_site_symmetry_multiplicity
 _atom_site_fract_x
 _atom_site_fract_y
 _atom_site_fract_z
 _atom_site_occupancy
  Tm  Tm0  1  0.54286400  0.54286400  0.70541400  1
  Tm  Tm1  1  0.45215000  0.45215000  0.29821200  1
  Ga  Ga0  1  0.85118000  0.85118000  0.68757400  1
  Ga  Ga1  1  0.82416200  0.82416200  0.12037300  1
  Ga  Ga2  1  0.16266100  0.16266100  0.90578900  1
  Ni  Ni0  1  0.16698300  0.16698300  0.28263800  1
loop_
_geom_bond_atom_site_label_1
_geom_bond_atom_site_label_2
_geom_bond_distance
_geom_bond_site_symmetry_2
Ga0 Ni0 2.448853 1_665
Ga0 Ga2 2.588967 1_565
Ga0 Ga2 2.588967 1_655
Ga0 Ga1 2.851460 1_556
Ga0 Tm0 2.961851 1_565
Ga0 Tm0 2.961851 1_655
Ga0 Tm0 3.035270 1_555
Ga0 Tm1 3.062378 1_565
Ga0 Tm1 3.062378 1_655
Ga0 Tm1 3.352045 1_556
Ga1 Ni0 2.459202 1_655
Ga1 Ni0 2.459202 1_565
Ga1 Ga2 2.650600 1_664
Ga1 Tm0 3.018616 1_555
Ga1 Tm0 3.051949 1_654
Ga1 Tm0 3.051949 1_564
Ga1 Tm1 3.061851 1_555
Ga1 Tm1 3.173961 1_565
Ga1 Tm1 3.173961 1_655
Ga2 Ni0 2.667197 1_556
Ga2 Tm1 2.973670 1_456
Ga2 Tm1 2.973670 1_546
Ga2 Tm0 3.076267 1_555
Ga2 Tm1 3.134322 1_555
Ga2 Tm0 3.225346 1_455
Ga2 Tm0 3.225346 1_545
Ni0 Tm1 2.958904 1_555
Ni0 Tm1 3.013982 1_545
Ni0 Tm1 3.013982 1_455
Ni0 Tm0 3.159282 1_545
Ni0 Tm0 3.159282 1_455
Ni0 Tm0 3.164098 1_554
