# generated using pymatgen
data_Sr8Al7
_symmetry_space_group_name_H-M   'P 1'
_cell_length_a   12.72695913
_cell_length_b   12.72695913
_cell_length_c   12.72695913
_cell_angle_alpha   90.00000000
_cell_angle_beta   90.00000000
_cell_angle_gamma   90.00000000
_symmetry_Int_Tables_number   1
_chemical_formula_structural   Sr8Al7
_chemical_formula_sum   'Sr32 Al28'
_cell_volume   2061.45542470
_cell_formula_units_Z   4
loop_
 _symmetry_equiv_pos_site_id
 _symmetry_equiv_pos_as_xyz
  1  'x, y, z'
loop_
 _atom_site_type_symbol
 _atom_site_label
 _atom_site_symmetry_multiplicity
 _atom_site_fract_x
 _atom_site_fract_y
 _atom_site_fract_z
 _atom_site_occupancy
  Sr  Sr0  1  0.81442247  0.81442247  0.81442247  1
  Sr  Sr1  1  0.68557753  0.18557753  0.31442247  1
  Sr  Sr2  1  0.31442247  0.68557753  0.18557753  1
  Sr  Sr3  1  0.18557753  0.31442247  0.68557753  1
  Sr  Sr4  1  0.18443576  0.18443576  0.18443576  1
  Sr  Sr5  1  0.31556424  0.81556424  0.68443576  1
  Sr  Sr6  1  0.68443576  0.31556424  0.81556424  1
  Sr  Sr7  1  0.81556424  0.68443576  0.31556424  1
  Sr  Sr8  1  0.80238625  0.55938806  0.00575723  1
  Sr  Sr9  1  0.00575723  0.80238625  0.55938806  1
  Sr  Sr10  1  0.55938806  0.00575723  0.80238625  1
  Sr  Sr11  1  0.94061194  0.99424277  0.30238625  1
  Sr  Sr12  1  0.50575723  0.69761375  0.44061194  1
  Sr  Sr13  1  0.44061194  0.50575723  0.69761375  1
  Sr  Sr14  1  0.49424277  0.19761375  0.05938806  1
  Sr  Sr15  1  0.99424277  0.30238625  0.94061194  1
  Sr  Sr16  1  0.05938806  0.49424277  0.19761375  1
  Sr  Sr17  1  0.30238625  0.94061194  0.99424277  1
  Sr  Sr18  1  0.19761375  0.05938806  0.49424277  1
  Sr  Sr19  1  0.69761375  0.44061194  0.50575723  1
  Sr  Sr20  1  0.52300102  0.70311838  0.93695219  1
  Sr  Sr21  1  0.93695219  0.52300102  0.70311838  1
  Sr  Sr22  1  0.70311838  0.93695219  0.52300102  1
  Sr  Sr23  1  0.79688162  0.06304781  0.02300102  1
  Sr  Sr24  1  0.43695219  0.97699898  0.29688162  1
  Sr  Sr25  1  0.29688162  0.43695219  0.97699898  1
  Sr  Sr26  1  0.56304781  0.47699898  0.20311838  1
  Sr  Sr27  1  0.06304781  0.02300102  0.79688162  1
  Sr  Sr28  1  0.20311838  0.56304781  0.47699898  1
  Sr  Sr29  1  0.02300102  0.79688162  0.06304781  1
  Sr  Sr30  1  0.47699898  0.20311838  0.56304781  1
  Sr  Sr31  1  0.97699898  0.29688162  0.43695219  1
  Al  Al0  1  0.43035454  0.43035454  0.43035454  1
  Al  Al1  1  0.06964546  0.56964546  0.93035454  1
  Al  Al2  1  0.93035454  0.06964546  0.56964546  1
  Al  Al3  1  0.56964546  0.93035454  0.06964546  1
  Al  Al4  1  0.75342040  0.19094466  0.57727494  1
  Al  Al5  1  0.57727494  0.75342040  0.19094466  1
  Al  Al6  1  0.19094466  0.57727494  0.75342040  1
  Al  Al7  1  0.30905534  0.42272506  0.25342040  1
  Al  Al8  1  0.07727494  0.74657960  0.80905534  1
  Al  Al9  1  0.80905534  0.07727494  0.74657960  1
  Al  Al10  1  0.92272506  0.24657960  0.69094466  1
  Al  Al11  1  0.42272506  0.25342040  0.30905534  1
  Al  Al12  1  0.69094466  0.92272506  0.24657960  1
  Al  Al13  1  0.25342040  0.30905534  0.42272506  1
  Al  Al14  1  0.24657960  0.69094466  0.92272506  1
  Al  Al15  1  0.74657960  0.80905534  0.07727494  1
  Al  Al16  1  0.75132430  0.68636222  0.58144042  1
  Al  Al17  1  0.58144042  0.75132430  0.68636222  1
  Al  Al18  1  0.68636222  0.58144042  0.75132430  1
  Al  Al19  1  0.81363778  0.41855958  0.25132430  1
  Al  Al20  1  0.08144042  0.74867570  0.31363778  1
  Al  Al21  1  0.31363778  0.08144042  0.74867570  1
  Al  Al22  1  0.91855958  0.24867570  0.18636222  1
  Al  Al23  1  0.41855958  0.25132430  0.81363778  1
  Al  Al24  1  0.18636222  0.91855958  0.24867570  1
  Al  Al25  1  0.25132430  0.81363778  0.41855958  1
  Al  Al26  1  0.24867570  0.18636222  0.91855958  1
  Al  Al27  1  0.74867570  0.31363778  0.08144042  1
loop_
_geom_bond_atom_site_label_1
_geom_bond_atom_site_label_2
_geom_bond_distance
_geom_bond_site_symmetry_2
Sr0 Sr9 4.060606 1_655
Sr0 Sr8 4.060606 1_556
Sr0 Sr10 4.060606 1_565
Sr0 Sr27 4.136306 1_665
Sr0 Sr23 4.136306 1_566
Sr0 Sr29 4.136306 1_656
Sr0 Sr20 4.265499 1_555
Sr0 Sr21 4.265499 1_555
Sr0 Sr22 4.265499 1_555
Sr1 Sr14 4.060606 1_555
Sr1 Sr11 4.060606 1_545
Sr1 Sr19 4.060606 1_555
Sr1 Sr24 4.136306 1_545
Sr1 Sr22 4.136306 1_545
Sr1 Sr30 4.136306 1_555
Sr1 Sr26 4.265499 1_555
Sr1 Sr31 4.265499 1_555
Sr1 Sr23 4.265499 1_555
Sr2 Sr25 4.136306 1_554
Sr2 Sr20 4.136306 1_554
Sr2 Sr26 4.136306 1_555
Sr2 Sr28 4.265499 1_555
Sr2 Sr24 4.265499 1_555
Sr2 Sr29 4.265499 1_555
Sr3 Sr31 4.136306 1_455
Sr3 Sr30 4.265499 1_555
Sr5 Sr9 4.255279 1_555
Sr6 Sr8 4.212138 1_556
Sr7 Sr9 4.212138 1_655
Sr7 Sr8 4.255279 1_555
Sr10 Sr30 4.084983 1_555
Sr10 Sr22 4.093427 1_545
Sr10 Sr17 4.165096 1_545
Sr10 Sr14 4.165096 1_556
Sr10 Sr23 4.189399 1_556
Sr10 Sr5 4.212138 1_545
Sr10 Sr20 4.240624 1_545
Sr10 Sr6 4.255279 1_555
Sr11 Sr29 4.084983 1_655
Sr11 Sr23 4.093427 1_565
Sr11 Sr18 4.165096 1_665
Sr11 Sr9 4.165096 1_655
Sr11 Sr22 4.189399 1_555
Sr11 Sr4 4.212138 1_665
Sr11 Sr31 4.240624 1_565
Sr11 Sr7 4.255279 1_555
Sr12 Sr2 4.060606 1_555
Sr12 Sr22 4.084983 1_555
Sr12 Sr24 4.093427 1_555
Sr12 Sr19 4.165096 1_555
Sr12 Sr13 4.165096 1_555
Sr12 Sr26 4.189399 1_555
Sr12 Sr5 4.212138 1_555
Sr12 Sr28 4.240624 1_555
Sr12 Sr7 4.255279 1_555
Sr13 Sr3 4.060606 1_555
Sr13 Sr20 4.084983 1_555
Sr13 Sr25 4.093427 1_555
Sr13 Sr19 4.165096 1_555
Sr13 Sr28 4.189399 1_555
Sr13 Sr6 4.212138 1_555
Sr13 Sr30 4.240624 1_555
Sr13 Sr5 4.255279 1_555
Sr14 Sr25 4.084983 1_554
Sr14 Sr26 4.093427 1_555
Sr14 Sr17 4.165096 1_544
Sr14 Sr24 4.189399 1_545
Sr14 Sr6 4.212138 1_554
Sr14 Sr23 4.240624 1_555
Sr14 Sr4 4.255279 1_555
Sr15 Sr3 4.060606 1_655
Sr15 Sr23 4.084983 1_556
Sr15 Sr27 4.093427 1_655
Sr15 Sr16 4.165096 1_656
Sr15 Sr8 4.165096 1_556
Sr15 Sr21 4.189399 1_555
Sr15 Sr4 4.212138 1_656
Sr15 Sr25 4.240624 1_655
Sr15 Sr6 4.255279 1_555
Sr16 Sr2 4.060606 1_555
Sr16 Sr31 4.084983 1_455
Sr16 Sr28 4.093427 1_555
Sr16 Sr8 4.165096 1_455
Sr16 Sr25 4.189399 1_554
Sr16 Sr7 4.212138 1_455
Sr16 Sr29 4.240624 1_555
Sr16 Sr4 4.255279 1_555
Sr17 Sr2 4.060606 1_556
Sr17 Sr27 4.084983 1_565
Sr17 Sr29 4.093427 1_556
Sr17 Sr20 4.189399 1_555
Sr17 Sr4 4.212138 1_566
Sr17 Sr24 4.240624 1_556
Sr17 Sr5 4.255279 1_555
Sr18 Sr3 4.060606 1_555
Sr18 Sr24 4.084983 1_545
Sr18 Sr30 4.093427 1_555
Sr18 Sr9 4.165096 1_545
Sr18 Sr31 4.189399 1_455
Sr18 Sr5 4.212138 1_545
Sr18 Sr27 4.240624 1_555
Sr18 Sr4 4.255279 1_555
Sr19 Sr21 4.084983 1_555
Sr19 Sr31 4.093427 1_555
Sr19 Sr30 4.189399 1_555
Sr19 Sr7 4.212138 1_555
Sr19 Sr26 4.240624 1_555
Sr19 Sr6 4.255279 1_555
Sr20 Sr8 4.093427 1_556
Sr20 Sr5 4.398424 1_555
Sr20 Sr26 4.473995 1_556
Sr20 Sr25 4.473995 1_555
Sr21 Sr9 4.093427 1_655
Sr21 Sr3 4.136306 1_655
Sr21 Sr8 4.240624 1_556
Sr21 Sr6 4.398424 1_555
Sr21 Sr28 4.473995 1_655
Sr21 Sr31 4.473995 1_555
Sr22 Sr9 4.240624 1_655
Sr22 Sr7 4.398424 1_555
Sr22 Sr30 4.473995 1_565
Sr22 Sr24 4.473995 1_555
Sr23 Sr6 4.398424 1_554
Sr23 Sr29 4.473995 1_645
Sr23 Sr27 4.473995 1_654
Sr24 Sr4 4.398424 1_565
Sr24 Sr30 4.473995 1_565
Sr25 Sr3 4.265499 1_555
Sr25 Sr4 4.398424 1_556
Sr25 Sr26 4.473995 1_556
Sr26 Sr8 4.084983 1_555
Sr26 Sr7 4.398424 1_555
Sr27 Sr9 4.189399 1_545
Sr27 Sr3 4.265499 1_555
Sr27 Sr5 4.398424 1_545
Sr27 Sr29 4.473995 1_546
Sr28 Sr9 4.084983 1_555
Sr28 Sr3 4.136306 1_555
Sr28 Sr5 4.398424 1_555
Sr28 Sr31 4.473995 1_455
Sr29 Sr8 4.189399 1_455
Sr29 Sr7 4.398424 1_455
Sr30 Sr6 4.398424 1_555
Sr31 Sr4 4.398424 1_655
Al0 Al13 2.731924 1_555
Al0 Al11 2.731924 1_555
Al0 Al7 2.731924 1_555
Al0 Sr26 3.401206 1_555
Al0 Sr30 3.401206 1_555
Al0 Sr28 3.401206 1_555
Al0 Sr19 3.536590 1_555
Al0 Sr13 3.536590 1_555
Al0 Sr12 3.536590 1_555
Al1 Al14 2.731924 1_555
Al1 Al8 2.731924 1_555
Al1 Al6 2.731924 1_555
Al1 Sr21 3.401206 1_455
Al1 Sr25 3.401206 1_555
Al1 Sr29 3.401206 1_556
Al1 Sr16 3.536590 1_556
Al1 Sr8 3.536590 1_456
Al1 Sr15 3.536590 1_455
Al2 Al9 2.731924 1_555
Al2 Al4 2.731924 1_555
Al2 Sr22 3.401206 1_545
Al2 Sr27 3.401206 1_655
Al2 Sr31 3.401206 1_555
Al2 Sr18 3.536590 1_655
Al2 Sr9 3.536590 1_645
Al2 Sr11 3.536590 1_545
Al3 Al5 2.731924 1_555
Al3 Sr20 3.401206 1_554
Al3 Sr23 3.401206 1_565
Al3 Sr24 3.401206 1_555
Al3 Sr14 3.536590 1_565
Al3 Sr17 3.536590 1_554
Al3 Sr10 3.536590 1_564
Al4 Al9 2.690183 1_555
Al4 Sr22 3.366951 1_545
Al4 Sr19 3.380749 1_555
Al4 Sr1 3.455619 1_555
Al4 Sr30 3.526066 1_555
Al4 Sr6 3.533209 1_555
Al4 Sr31 3.619931 1_555
Al5 Sr20 3.366951 1_554
Al5 Sr12 3.380749 1_555
Al5 Sr2 3.455619 1_555
Al5 Sr26 3.526066 1_555
Al5 Sr7 3.533209 1_555
Al5 Sr24 3.619931 1_555
Al6 Al8 2.690183 1_555
Al6 Sr21 3.366951 1_455
Al6 Sr13 3.380749 1_555
Al6 Sr3 3.455619 1_555
Al6 Sr28 3.526066 1_555
Al6 Sr5 3.533209 1_555
Al6 Sr25 3.619931 1_555
Al7 Sr26 3.366951 1_555
Al7 Sr16 3.380749 1_555
Al7 Sr2 3.455619 1_555
Al7 Sr25 3.526066 1_554
Al7 Sr4 3.533209 1_555
Al7 Sr28 3.619931 1_555
Al8 Sr29 3.366951 1_556
Al8 Sr9 3.380749 1_555
Al8 Sr0 3.455619 1_455
Al8 Sr27 3.526066 1_565
Al8 Sr5 3.533209 1_555
Al8 Sr21 3.619931 1_455
Al9 Sr27 3.366951 1_655
Al9 Sr10 3.380749 1_555
Al9 Sr0 3.455619 1_545
Al9 Sr23 3.526066 1_556
Al9 Sr6 3.533209 1_555
Al9 Sr22 3.619931 1_545
Al10 Al9 2.690183 1_555
Al10 Al4 2.690183 1_555
Al10 Al2 2.731924 1_555
Al10 Sr31 3.366951 1_555
Al10 Sr15 3.380749 1_555
Al10 Sr3 3.455619 1_655
Al10 Sr21 3.526066 1_555
Al10 Sr6 3.533209 1_555
Al10 Sr27 3.619931 1_655
Al11 Al7 2.690183 1_555
Al11 Al13 2.690183 1_555
Al11 Sr30 3.366951 1_555
Al11 Sr14 3.380749 1_555
Al11 Sr1 3.455619 1_555
Al11 Sr24 3.526066 1_545
Al11 Sr4 3.533209 1_555
Al11 Sr26 3.619931 1_555
Al12 Al15 2.690183 1_555
Al12 Al5 2.690183 1_555
Al12 Al3 2.731924 1_555
Al12 Sr24 3.366951 1_555
Al12 Sr11 3.380749 1_555
Al12 Sr1 3.455619 1_565
Al12 Sr22 3.526066 1_555
Al12 Sr7 3.533209 1_555
Al12 Sr23 3.619931 1_565
Al13 Al7 2.690183 1_555
Al13 Sr28 3.366951 1_555
Al13 Sr18 3.380749 1_555
Al13 Sr3 3.455619 1_555
Al13 Sr31 3.526066 1_455
Al13 Sr4 3.533209 1_555
Al13 Sr30 3.619931 1_555
Al14 Al8 2.690183 1_555
Al14 Al6 2.690183 1_555
Al14 Sr25 3.366951 1_555
Al14 Sr17 3.380749 1_555
Al14 Sr2 3.455619 1_556
Al14 Sr20 3.526066 1_555
Al14 Sr5 3.533209 1_555
Al14 Sr29 3.619931 1_556
Al15 Al5 2.690183 1_555
Al15 Al3 2.731924 1_555
Al15 Sr23 3.366951 1_565
Al15 Sr8 3.380749 1_555
Al15 Sr0 3.455619 1_554
Al15 Sr29 3.526066 1_655
Al15 Sr7 3.533209 1_555
Al15 Sr20 3.619931 1_554
Al16 Al18 2.672334 1_555
Al16 Al17 2.672334 1_555
Al16 Sr22 3.331798 1_555
Al16 Sr19 3.343243 1_555
Al16 Sr0 3.477546 1_555
Al16 Sr7 3.481251 1_555
Al16 Sr21 3.507429 1_555
Al16 Sr9 3.569997 1_655
Al16 Sr12 3.605627 1_555
Al17 Al18 2.672334 1_555
Al17 Sr20 3.331798 1_555
Al17 Sr12 3.343243 1_555
Al17 Sr0 3.477546 1_555
Al17 Sr5 3.481251 1_555
Al17 Sr22 3.507429 1_555
Al17 Sr10 3.569997 1_565
Al17 Sr13 3.605627 1_555
Al18 Sr21 3.331798 1_555
Al18 Sr13 3.343243 1_555
Al18 Sr0 3.477546 1_555
Al18 Sr6 3.481251 1_555
Al18 Sr20 3.507429 1_555
Al18 Sr8 3.569997 1_556
Al18 Sr19 3.605627 1_555
Al19 Al22 2.672334 1_555
Al19 Al27 2.672334 1_555
Al19 Sr26 3.331798 1_555
Al19 Sr16 3.343243 1_655
Al19 Sr1 3.477546 1_555
Al19 Sr7 3.481251 1_555
Al19 Sr31 3.507429 1_555
Al19 Sr19 3.569997 1_555
Al19 Sr8 3.605627 1_555
Al20 Al25 2.672334 1_555
Al20 Al24 2.672334 1_555
Al20 Sr29 3.331798 1_555
Al20 Sr9 3.343243 1_555
Al20 Sr2 3.477546 1_555
Al20 Sr7 3.481251 1_455
Al20 Sr28 3.507429 1_555
Al20 Sr16 3.569997 1_555
Al20 Sr11 3.605627 1_455
Al21 Al23 2.672334 1_555
Al21 Al26 2.672334 1_555
Al21 Sr27 3.331798 1_555
Al21 Sr10 3.343243 1_555
Al21 Sr3 3.477546 1_555
Al21 Sr5 3.481251 1_545
Al21 Sr30 3.507429 1_555
Al21 Sr18 3.569997 1_555
Al21 Sr17 3.605627 1_545
Al22 Al27 2.672334 1_555
Al22 Sr31 3.331798 1_555
Al22 Sr15 3.343243 1_554
Al22 Sr1 3.477546 1_555
Al22 Sr4 3.481251 1_655
Al22 Sr23 3.507429 1_555
Al22 Sr11 3.569997 1_545
Al22 Sr16 3.605627 1_655
Al23 Al26 2.672334 1_555
Al23 Sr30 3.331798 1_555
Al23 Sr14 3.343243 1_556
Al23 Sr3 3.477546 1_555
Al23 Sr6 3.481251 1_555
Al23 Sr25 3.507429 1_555
Al23 Sr13 3.569997 1_555
Al23 Sr10 3.605627 1_555
Al24 Al25 2.672334 1_555
Al24 Sr24 3.331798 1_555
Al24 Sr11 3.343243 1_455
Al24 Sr2 3.477546 1_555
Al24 Sr4 3.481251 1_565
Al24 Sr29 3.507429 1_555
Al24 Sr17 3.569997 1_554
Al24 Sr18 3.605627 1_565
Al25 Sr28 3.331798 1_555
Al25 Sr18 3.343243 1_565
Al25 Sr2 3.477546 1_555
Al25 Sr5 3.481251 1_555
Al25 Sr24 3.507429 1_555
Al25 Sr12 3.569997 1_555
Al25 Sr9 3.605627 1_555
Al26 Sr25 3.331798 1_555
Al26 Sr17 3.343243 1_545
Al26 Sr3 3.477546 1_555
Al26 Sr4 3.481251 1_556
Al26 Sr27 3.507429 1_555
Al26 Sr15 3.569997 1_455
Al26 Sr14 3.605627 1_556
Al27 Sr23 3.331798 1_555
Al27 Sr8 3.343243 1_555
Al27 Sr1 3.477546 1_555
Al27 Sr6 3.481251 1_554
Al27 Sr26 3.507429 1_555
Al27 Sr14 3.569997 1_555
Al27 Sr15 3.605627 1_554
