# generated using pymatgen
data_GaN
_symmetry_space_group_name_H-M   'P 1'
_cell_length_a   11.22131187
_cell_length_b   11.32402653
_cell_length_c   11.74532956
_cell_angle_alpha   90.09874694
_cell_angle_beta   96.84629382
_cell_angle_gamma   89.07167378
_symmetry_Int_Tables_number   1
_chemical_formula_structural   GaN
_chemical_formula_sum   'Ga50 N50'
_cell_volume   1481.64745070
_cell_formula_units_Z   50
loop_
 _symmetry_equiv_pos_site_id
 _symmetry_equiv_pos_as_xyz
  1  'x, y, z'
loop_
 _atom_site_type_symbol
 _atom_site_label
 _atom_site_symmetry_multiplicity
 _atom_site_fract_x
 _atom_site_fract_y
 _atom_site_fract_z
 _atom_site_occupancy
  Ga  Ga0  1  0.76676577  0.87092076  0.39738333  1
  Ga  Ga1  1  0.55586406  0.21680857  0.30959775  1
  Ga  Ga2  1  0.11297835  0.26753060  0.77299162  1
  Ga  Ga3  1  0.48700165  0.55060250  0.41682169  1
  Ga  Ga4  1  0.44469518  0.36529163  0.16755676  1
  Ga  Ga5  1  0.80953813  0.66284341  0.73241126  1
  Ga  Ga6  1  0.64381282  0.69784134  0.93738339  1
  Ga  Ga7  1  0.84530338  0.58166051  0.27452414  1
  Ga  Ga8  1  0.74763814  0.27487777  0.42882325  1
  Ga  Ga9  1  0.02105957  0.53780878  0.89723073  1
  Ga  Ga10  1  0.77568440  0.88994259  0.89589467  1
  Ga  Ga11  1  0.16305757  0.95059299  0.15604853  1
  Ga  Ga12  1  0.70752676  0.55316389  0.52521631  1
  Ga  Ga13  1  0.74504713  0.41769785  0.05989550  1
  Ga  Ga14  1  0.18908776  0.38057573  0.49198446  1
  Ga  Ga15  1  0.19369532  0.69119555  0.57938808  1
  Ga  Ga16  1  0.88534336  0.08550568  0.25815591  1
  Ga  Ga17  1  0.62833088  0.56478190  0.25295186  1
  Ga  Ga18  1  0.02868517  0.47534203  0.10230131  1
  Ga  Ga19  1  0.98968622  0.08718630  0.03281004  1
  Ga  Ga20  1  0.99728800  0.85832222  0.47423914  1
  Ga  Ga21  1  0.27266529  0.37052252  0.92778405  1
  Ga  Ga22  1  0.97414096  0.35851977  0.31295893  1
  Ga  Ga23  1  0.44541362  0.79993953  0.18514299  1
  Ga  Ga24  1  0.02855573  0.63733558  0.70296990  1
  Ga  Ga25  1  0.42535051  0.02549896  0.32542909  1
  Ga  Ga26  1  0.38780738  0.11384195  0.07359958  1
  Ga  Ga27  1  0.08480801  0.60567577  0.36264677  1
  Ga  Ga28  1  0.19457190  0.82511922  0.75568607  1
  Ga  Ga29  1  0.71881756  0.12658374  0.73029672  1
  Ga  Ga30  1  0.27444072  0.46624609  0.26005829  1
  Ga  Ga31  1  0.59695758  0.83465644  0.65665491  1
  Ga  Ga32  1  0.22541302  0.65819509  0.91997947  1
  Ga  Ga33  1  0.99512217  0.86338184  0.95002092  1
  Ga  Ga34  1  0.56353721  0.79465652  0.43783549  1
  Ga  Ga35  1  0.20064811  0.04134883  0.85267593  1
  Ga  Ga36  1  0.50404599  0.01049867  0.83808296  1
  Ga  Ga37  1  0.49092544  0.56142753  0.98514046  1
  Ga  Ga38  1  0.34062236  0.90204680  0.58800721  1
  Ga  Ga39  1  0.86590181  0.78845302  0.16749183  1
  Ga  Ga40  1  0.77282491  0.13681644  0.99053084  1
  Ga  Ga41  1  0.63937556  0.91622334  0.14371152  1
  Ga  Ga42  1  0.17278959  0.19439877  0.23083893  1
  Ga  Ga43  1  0.91818068  0.32934402  0.88182576  1
  Ga  Ga44  1  0.37187603  0.83612990  0.96787408  1
  Ga  Ga45  1  0.15146786  0.70269926  0.11516214  1
  Ga  Ga46  1  0.00735002  0.18390703  0.51822313  1
  Ga  Ga47  1  0.28080057  0.77099743  0.36142086  1
  Ga  Ga48  1  0.96194075  0.46464496  0.56712059  1
  Ga  Ga49  1  0.77599654  0.34031625  0.69859786  1
  N  N0  1  0.22988043  0.54936079  0.48152690  1
  N  N1  1  0.83751033  0.55817242  0.87518347  1
  N  N2  1  0.73164031  0.01852745  0.50505432  1
  N  N3  1  0.08000084  0.31936806  0.59686221  1
  N  N4  1  0.12376029  0.76214630  0.42386314  1
  N  N5  1  0.01800689  0.81429414  0.11058397  1
  N  N6  1  0.16391212  0.33171840  0.33317520  1
  N  N7  1  0.79549225  0.39543794  0.54677246  1
  N  N8  1  0.43258497  0.17793964  0.51468189  1
  N  N9  1  0.63583921  0.45359013  0.74526944  1
  N  N10  1  0.96089393  0.50574933  0.40295004  1
  N  N11  1  0.51430317  0.68285761  0.30115868  1
  N  N12  1  0.50985255  0.21499843  0.83457198  1
  N  N13  1  0.72346625  0.81831262  0.03950243  1
  N  N14  1  0.33158893  0.52646958  0.93674435  1
  N  N15  1  0.53430435  0.27283639  0.91173822  1
  N  N16  1  0.56575053  0.07879210  0.10809441  1
  N  N17  1  0.93295393  0.06718582  0.65841134  1
  N  N18  1  0.35864028  0.27726129  0.04330720  1
  N  N19  1  0.88735038  0.43880813  0.17746875  1
  N  N20  1  0.33677393  0.35524224  0.63120889  1
  N  N21  1  0.35434593  0.35444857  0.72774973  1
  N  N22  1  0.44581117  0.65073731  0.68641979  1
  N  N23  1  0.13283539  0.56679179  0.21192030  1
  N  N24  1  0.21282539  0.03736106  0.55274319  1
  N  N25  1  0.26903576  0.80813715  0.20044936  1
  N  N26  1  0.69287192  0.76968250  0.79093331  1
  N  N27  1  0.39705094  0.88489531  0.43211796  1
  N  N28  1  0.10825900  0.02842590  0.51877860  1
  N  N29  1  0.03696865  0.25429235  0.01278222  1
  N  N30  1  0.95871977  0.96890318  0.67081405  1
  N  N31  1  0.11796010  0.98581504  0.98241225  1
  N  N32  1  0.50469422  0.17595287  0.58948368  1
  N  N33  1  0.90370267  0.21559602  0.37897440  1
  N  N34  1  0.29352537  0.07270371  0.20271583  1
  N  N35  1  0.04248559  0.07744645  0.20445135  1
  N  N36  1  0.59999699  0.46921370  0.83197390  1
  N  N37  1  0.09986233  0.30346445  0.09258367  1
  N  N38  1  0.76681532  0.56232886  0.95280323  1
  N  N39  1  0.68149884  0.03894664  0.86545061  1
  N  N40  1  0.79715205  0.93318404  0.24933209  1
  N  N41  1  0.31525084  0.58436548  0.40366710  1
  N  N42  1  0.69984337  0.99872254  0.59629923  1
  N  N43  1  0.37398824  0.00879531  0.93420868  1
  N  N44  1  0.58157804  0.47035264  0.11290727  1
  N  N45  1  0.47201908  0.93667103  0.69731652  1
  N  N46  1  0.74714185  0.16066384  0.15323781  1
  N  N47  1  0.63720445  0.14852645  0.17621305  1
  N  N48  1  0.44757136  0.56599133  0.63688586  1
  N  N49  1  0.77690101  0.29948183  0.95141963  1
loop_
_geom_bond_atom_site_label_1
_geom_bond_atom_site_label_2
_geom_bond_distance
_geom_bond_site_symmetry_2
Ga0 N40 1.946940 1_555
Ga0 N2 2.153781 1_565
Ga1 N47 2.049206 1_555
Ga2 N3 2.139080 1_555
Ga3 N41 1.946728 1_555
Ga3 N11 2.074481 1_555
Ga4 N18 1.935488 1_555
Ga4 N44 2.117461 1_555
Ga5 N26 1.952028 1_555
Ga5 N1 2.045672 1_555
Ga6 N13 1.968983 1_556
Ga6 N38 2.040944 1_555
Ga6 N26 2.041751 1_555
Ga7 N10 2.049030 1_555
Ga7 N19 2.058173 1_555
Ga8 N7 1.977695 1_555
Ga8 N33 2.016267 1_555
Ga9 N1 2.054289 1_455
Ga10 N39 1.986487 1_565
Ga10 N26 2.000003 1_555
Ga10 N13 2.025356 1_556
Ga11 N25 2.020248 1_555
Ga11 N34 2.056102 1_565
Ga11 N31 2.079567 1_554
Ga11 N35 2.082028 1_565
Ga11 N5 2.277721 1_555
Ga12 N7 2.028157 1_555
Ga13 N49 1.905339 1_554
Ga13 N19 1.999875 1_555
Ga13 N44 2.084127 1_555
Ga13 N38 2.101793 1_554
Ga14 N6 1.934168 1_555
Ga14 N3 1.971332 1_555
Ga14 N0 1.979988 1_555
Ga14 N20 2.200645 1_555
Ga15 N0 2.037028 1_555
Ga15 N4 2.059379 1_555
Ga15 Ga28 2.563698 1_555
Ga15 Ga24 2.567827 1_555
Ga16 N35 1.943027 1_655
Ga16 N40 1.998899 1_545
Ga16 N46 2.037924 1_555
Ga16 N33 2.039422 1_555
Ga17 N11 1.964766 1_555
Ga17 N44 1.982588 1_555
Ga18 N23 1.942126 1_555
Ga18 N19 1.955052 1_455
Ga18 N37 2.099955 1_555
Ga19 N31 1.971615 1_644
Ga19 N29 1.995373 1_655
Ga19 N35 2.035011 1_655
Ga20 N4 1.923071 1_655
Ga20 N28 2.335317 1_665
Ga21 N18 1.883342 1_556
Ga21 N14 1.894054 1_555
Ga21 N21 2.626738 1_555
Ga22 N19 1.978480 1_555
Ga22 N10 1.985525 1_555
Ga22 N33 2.009303 1_555
Ga22 N6 2.131183 1_655
Ga23 N11 1.983457 1_555
Ga23 N25 2.009217 1_555
Ga24 Ga5 2.534245 1_455
Ga24 Ga9 2.557530 1_555
Ga24 Ga48 2.584788 1_455
Ga24 Ga28 2.867843 1_555
Ga25 N34 2.004998 1_555
Ga25 N27 2.079501 1_545
Ga26 N18 1.900837 1_555
Ga26 N34 2.009240 1_555
Ga26 N43 2.014501 1_554
Ga26 N16 2.022552 1_555
Ga27 N10 1.909901 1_455
Ga27 N4 1.947651 1_555
Ga27 N23 1.958442 1_555
Ga27 N0 2.105677 1_555
Ga28 Ga32 2.692332 1_555
Ga28 Ga35 2.697266 1_565
Ga28 Ga38 2.853978 1_555
Ga28 Ga44 3.001658 1_555
Ga29 N39 1.964062 1_555
Ga29 N42 2.130960 1_545
Ga30 N23 1.967322 1_555
Ga30 N41 2.161443 1_555
Ga30 N6 2.217250 1_555
Ga31 N45 1.906146 1_555
Ga31 N26 1.939270 1_555
Ga31 N42 2.357192 1_555
Ga32 N14 1.889666 1_555
Ga33 N5 1.953191 1_656
Ga33 N31 1.975354 1_655
Ga34 N11 2.071053 1_555
Ga34 N27 2.108871 1_555
Ga35 N31 1.984354 1_545
Ga35 N43 2.090519 1_555
Ga36 N45 1.850667 1_545
Ga36 N43 1.949052 1_555
Ga36 N39 2.009981 1_555
Ga36 N12 2.318308 1_555
Ga37 N14 1.859164 1_555
Ga37 N44 1.989426 1_556
Ga37 N36 2.510347 1_555
Ga38 N45 1.881948 1_555
Ga38 N27 2.015520 1_555
Ga38 N24 2.089348 1_565
Ga39 N5 1.932477 1_655
Ga39 N40 2.082223 1_555
Ga39 N13 2.083312 1_555
Ga40 N49 1.901798 1_555
Ga40 N46 1.983707 1_556
Ga40 N39 2.027074 1_555
Ga41 N13 1.963310 1_555
Ga41 N16 2.029179 1_565
Ga41 N40 2.048643 1_555
Ga42 N34 1.971891 1_555
Ga42 N6 1.972259 1_555
Ga42 N35 1.985266 1_555
Ga42 N37 2.118798 1_555
Ga43 N49 1.903441 1_555
Ga43 N29 2.084204 1_656
Ga44 N43 1.996593 1_565
Ga45 N5 1.939684 1_555
Ga45 N23 1.943434 1_555
Ga45 N25 1.975185 1_555
Ga46 N33 1.921302 1_455
Ga46 N3 1.930515 1_555
Ga46 N28 2.077465 1_555
Ga46 N17 2.350762 1_455
Ga47 N25 1.926227 1_555
Ga47 N27 1.961451 1_555
Ga47 N4 1.991827 1_555
Ga47 N41 2.189435 1_555
Ga48 N10 1.983031 1_555
Ga48 N7 2.024904 1_555
Ga48 N3 2.098699 1_655
Ga49 N7 1.928392 1_555
Ga49 N9 2.134747 1_555
N0 N41 1.460663 1_555
N1 N38 1.278176 1_555
N2 N42 1.191947 1_545
N12 N15 1.127032 1_555
N16 N47 1.331163 1_555
N17 N30 1.150467 1_545
N20 N21 1.127551 1_555
N22 N48 1.122511 1_555
N24 N28 1.199288 1_555
N29 N37 1.240921 1_555
N32 N8 1.121216 1_555
N36 N9 1.151030 1_555
N46 N47 1.303293 1_555
