# generated using pymatgen
data_Nd2Si3Rh
_symmetry_space_group_name_H-M   'P 1'
_cell_length_a   8.21871402
_cell_length_b   8.21871302
_cell_length_c   8.47635547
_cell_angle_alpha   89.99999810
_cell_angle_beta   90.00000101
_cell_angle_gamma   120.00000762
_symmetry_Int_Tables_number   1
_chemical_formula_structural   Nd2Si3Rh
_chemical_formula_sum   'Nd8 Si12 Rh4'
_cell_volume   495.84671944
_cell_formula_units_Z   4
loop_
 _symmetry_equiv_pos_site_id
 _symmetry_equiv_pos_as_xyz
  1  'x, y, z'
loop_
 _atom_site_type_symbol
 _atom_site_label
 _atom_site_symmetry_multiplicity
 _atom_site_fract_x
 _atom_site_fract_y
 _atom_site_fract_z
 _atom_site_occupancy
  Nd  Nd0  1  -0.00000046  0.00000002  0.25001299  1
  Nd  Nd1  1  -0.00000042  0.00000008  0.74998572  1
  Nd  Nd2  1  0.50016467  0.49983616  0.25001450  1
  Nd  Nd3  1  0.50016324  0.00032640  0.25001530  1
  Nd  Nd4  1  0.99967325  0.49983640  0.25001555  1
  Nd  Nd5  1  0.49985338  0.50014471  0.74998476  1
  Nd  Nd6  1  0.49985589  0.99971075  0.74998505  1
  Nd  Nd7  1  0.00028959  0.50014453  0.74998534  1
  Si  Si0  1  0.16708818  0.83291206  0.49913362  1
  Si  Si1  1  0.16708862  0.33417764  0.49913310  1
  Si  Si2  1  0.66582333  0.83291203  0.49913333  1
  Si  Si3  1  0.83291536  0.16708530  0.50087937  1
  Si  Si4  1  0.83291531  0.66583106  0.50087934  1
  Si  Si5  1  0.33416937  0.16708512  0.50087920  1
  Si  Si6  1  0.83291101  0.16708901  -0.00087252  1
  Si  Si7  1  0.83291139  0.66582238  -0.00087284  1
  Si  Si8  1  0.33417672  0.16708817  -0.00087273  1
  Si  Si9  1  0.16709389  0.83290573  0.00086193  1
  Si  Si10  1  0.16709364  0.33418773  0.00086261  1
  Si  Si11  1  0.66581243  0.83290620  0.00086222  1
  Rh  Rh0  1  0.33333359  0.66666756  0.50116653  1
  Rh  Rh1  1  0.66666654  0.33333399  0.49888154  1
  Rh  Rh2  1  0.66666584  0.33333322  0.00110670  1
  Rh  Rh3  1  0.33333365  0.66666675  -0.00116159  1
loop_
_geom_bond_atom_site_label_1
_geom_bond_atom_site_label_2
_geom_bond_distance
_geom_bond_site_symmetry_2
Nd0 Si2 3.180634 1_445
Nd0 Si0 3.180638 1_545
Nd0 Si1 3.180640 1_555
Nd0 Si11 3.180863 1_445
Nd0 Si10 3.180864 1_555
Nd0 Si9 3.180873 1_545
Nd0 Si4 3.190440 1_445
Nd0 Si3 3.190443 1_455
Nd0 Si5 3.190444 1_555
Nd0 Si8 3.190593 1_555
Nd0 Si6 3.190594 1_455
Nd0 Si7 3.190596 1_445
Nd1 Si4 3.180517 1_445
Nd1 Si3 3.180519 1_455
Nd1 Si5 3.180522 1_555
Nd1 Si8 3.180758 1_556
Nd1 Si7 3.180760 1_446
Nd1 Si6 3.180762 1_456
Nd1 Si2 3.190400 1_445
Nd1 Si0 3.190401 1_545
Nd1 Si1 3.190408 1_555
Nd1 Si11 3.190594 1_446
Nd1 Si10 3.190599 1_556
Nd1 Si9 3.190601 1_546
Nd2 Rh1 3.172972 1_555
Nd2 Rh2 3.173202 1_555
Nd2 Si1 3.174781 1_555
Nd2 Si2 3.174781 1_555
Nd2 Si11 3.174939 1_555
Nd2 Si10 3.174942 1_555
Nd2 Si4 3.182915 1_555
Nd2 Si5 3.182916 1_555
Nd2 Si7 3.183021 1_555
Nd2 Si8 3.183027 1_555
Nd2 Rh0 3.189370 1_555
Nd2 Rh3 3.189501 1_555
Nd3 Rh1 3.172986 1_555
Nd3 Rh2 3.173221 1_555
Nd3 Si2 3.174769 1_545
Nd3 Si0 3.174774 1_545
Nd3 Si11 3.174940 1_545
Nd3 Si9 3.174941 1_545
Nd3 Si3 3.182918 1_555
Nd3 Si5 3.182920 1_555
Nd3 Si6 3.183030 1_555
Nd3 Si8 3.183034 1_555
Nd3 Rh0 3.189345 1_545
Nd3 Rh3 3.189495 1_545
Nd4 Rh1 3.172980 1_555
Nd4 Rh2 3.173225 1_555
Nd4 Si1 3.174765 1_655
Nd4 Si0 3.174776 1_655
Nd4 Si10 3.174938 1_655
Nd4 Si9 3.174942 1_655
Nd4 Si3 3.182911 1_555
Nd4 Si4 3.182919 1_555
Nd4 Si6 3.183029 1_555
Nd4 Si7 3.183033 1_555
Nd4 Rh0 3.189352 1_655
Nd4 Rh3 3.189501 1_655
Nd5 Rh0 3.172902 1_555
Nd5 Rh3 3.173097 1_556
Nd5 Si5 3.174619 1_555
Nd5 Si4 3.174631 1_555
Nd5 Si8 3.174811 1_556
Nd5 Si7 3.174819 1_556
Nd5 Si1 3.182915 1_555
Nd5 Si2 3.182927 1_555
Nd5 Si10 3.183037 1_556
Nd5 Si11 3.183044 1_556
Nd5 Rh1 3.188889 1_555
Nd5 Rh2 3.188995 1_556
Nd6 Rh0 3.172906 1_555
Nd6 Rh3 3.173107 1_556
Nd6 Si3 3.174619 1_565
Nd6 Si5 3.174628 1_565
Nd6 Si6 3.174803 1_566
Nd6 Si8 3.174810 1_566
Nd6 Si2 3.182923 1_555
Nd6 Si0 3.182929 1_555
Nd6 Si11 3.183040 1_556
Nd6 Si9 3.183043 1_556
Nd6 Rh1 3.188887 1_565
Nd6 Rh2 3.188985 1_566
Nd7 Rh0 3.172913 1_555
Nd7 Rh3 3.173106 1_556
Nd7 Si3 3.174619 1_455
Nd7 Si4 3.174628 1_455
Nd7 Si6 3.174804 1_456
Nd7 Si7 3.174805 1_456
Nd7 Si1 3.182925 1_555
Nd7 Si0 3.182930 1_555
Nd7 Si9 3.183037 1_556
Nd7 Si10 3.183039 1_556
Nd7 Rh1 3.188888 1_455
Nd7 Rh2 3.188991 1_456
Si0 Si4 2.378560 1_455
Si0 Si5 2.378561 1_565
Si1 Si3 2.378563 1_455
Si1 Si5 2.378563 1_555
Si2 Si4 2.378560 1_555
Si2 Si3 2.378562 1_565
Si7 Si9 2.378628 1_655
Si8 Si9 2.378627 1_545
Si10 Si6 2.378629 1_455
Si10 Si8 2.378629 1_555
Si11 Si6 2.378630 1_565
Si11 Si7 2.378630 1_555
Rh0 Si2 2.366597 1_555
Rh0 Si1 2.366598 1_555
Rh0 Si0 2.366598 1_555
Rh1 Si4 2.366646 1_555
Rh1 Si5 2.366647 1_555
Rh1 Si3 2.366650 1_555
Rh2 Si8 2.366589 1_555
Rh2 Si7 2.366589 1_555
Rh2 Si6 2.366591 1_555
Rh3 Si9 2.366518 1_555
Rh3 Si11 2.366518 1_555
Rh3 Si10 2.366519 1_555
