# generated using pymatgen
data_CeVO2
_symmetry_space_group_name_H-M   'P 1'
_cell_length_a   7.56491681
_cell_length_b   7.56491681
_cell_length_c   7.56491681
_cell_angle_alpha   130.84122251
_cell_angle_beta   130.84122251
_cell_angle_gamma   72.06546482
_symmetry_Int_Tables_number   1
_chemical_formula_structural   CeVO2
_chemical_formula_sum   'Ce4 V4 O8'
_cell_volume   242.29233885
_cell_formula_units_Z   4
loop_
 _symmetry_equiv_pos_site_id
 _symmetry_equiv_pos_as_xyz
  1  'x, y, z'
loop_
 _atom_site_type_symbol
 _atom_site_label
 _atom_site_symmetry_multiplicity
 _atom_site_fract_x
 _atom_site_fract_y
 _atom_site_fract_z
 _atom_site_occupancy
  Ce  Ce0  1  0.87500000  0.62500000  0.25000000  1
  Ce  Ce1  1  0.37500000  0.62500000  0.75000000  1
  Ce  Ce2  1  0.37500000  0.62500000  0.25000000  1
  Ce  Ce3  1  0.37500000  0.12500000  0.75000000  1
  V  V0  1  0.37500000  0.12500000  0.25000000  1
  V  V1  1  0.87500000  0.12500000  0.75000000  1
  V  V2  1  0.87500000  0.12500000  0.25000000  1
  V  V3  1  0.87500000  0.62500000  0.75000000  1
  O  O0  1  0.17684800  0.39651300  0.21966500  1
  O  O1  1  0.17684800  0.95718300  0.78033500  1
  O  O2  1  0.14651300  0.42684800  0.71966500  1
  O  O3  1  0.57315200  0.85348700  0.28033500  1
  O  O4  1  0.70718300  0.42684800  0.28033500  1
  O  O5  1  0.57315200  0.29281700  0.71966500  1
  O  O6  1  0.60348700  0.82315200  0.78033500  1
  O  O7  1  0.04281700  0.82315200  0.21966500  1
loop_
_geom_bond_atom_site_label_1
_geom_bond_atom_site_label_2
_geom_bond_distance
_geom_bond_site_symmetry_2
Ce0 O4 2.431936 1_555
Ce0 O7 2.431936 1_655
Ce0 O5 2.447511 1_554
Ce0 O3 2.447511 1_555
Ce0 O1 2.447511 1_655
Ce0 O0 2.447511 1_655
Ce1 O2 2.431936 1_555
Ce1 O6 2.431936 1_555
Ce1 O5 2.447511 1_555
Ce1 O3 2.447511 1_556
Ce1 O0 2.447511 1_555
Ce1 O1 2.447511 1_555
Ce2 O3 2.431936 1_555
Ce2 O0 2.431936 1_555
Ce2 O6 2.447511 1_555
Ce2 O7 2.447511 1_555
Ce2 O2 2.447511 1_554
Ce2 O4 2.447511 1_555
Ce3 O5 2.431936 1_555
Ce3 O1 2.431936 1_545
Ce3 O6 2.447511 1_545
Ce3 O7 2.447511 1_545
Ce3 O2 2.447511 1_555
Ce3 O4 2.447511 1_556
O0 V1 2.188349 1_454
O0 V0 2.188349 1_555
O1 V0 2.188349 1_566
O1 V1 2.188349 1_465
O2 V3 2.188349 1_455
O2 V2 2.188349 1_455
O3 V1 2.188349 1_565
O3 V0 2.188349 1_565
O4 V3 2.188349 1_555
O4 V2 2.188349 1_555
O5 V0 2.188349 1_555
O5 V1 2.188349 1_555
O6 V2 2.188349 1_566
O6 V3 2.188349 1_555
O7 V3 2.188349 1_454
O7 V2 2.188349 1_465
