# generated using pymatgen
data_DySb3
_symmetry_space_group_name_H-M   'P 1'
_cell_length_a   6.53885341
_cell_length_b   6.53885341
_cell_length_c   5.90314700
_cell_angle_alpha   90.00000000
_cell_angle_beta   90.00000000
_cell_angle_gamma   119.99999408
_symmetry_Int_Tables_number   1
_chemical_formula_structural   DySb3
_chemical_formula_sum   'Dy2 Sb6'
_cell_volume   218.58354196
_cell_formula_units_Z   2
loop_
 _symmetry_equiv_pos_site_id
 _symmetry_equiv_pos_as_xyz
  1  'x, y, z'
loop_
 _atom_site_type_symbol
 _atom_site_label
 _atom_site_symmetry_multiplicity
 _atom_site_fract_x
 _atom_site_fract_y
 _atom_site_fract_z
 _atom_site_occupancy
  Dy  Dy0  1  0.33333300  0.66666700  0.75000000  1
  Dy  Dy1  1  0.66666700  0.33333300  0.25000000  1
  Sb  Sb0  1  0.17412800  0.34825500  0.25000000  1
  Sb  Sb1  1  0.65174500  0.82587200  0.25000000  1
  Sb  Sb2  1  0.17412800  0.82587200  0.25000000  1
  Sb  Sb3  1  0.82587200  0.65174500  0.75000000  1
  Sb  Sb4  1  0.34825500  0.17412800  0.75000000  1
  Sb  Sb5  1  0.82587200  0.17412800  0.75000000  1
loop_
_geom_bond_atom_site_label_1
_geom_bond_atom_site_label_2
_geom_bond_distance
_geom_bond_site_symmetry_2
Dy0 Sb3 3.270519 1_555
Dy0 Sb4 3.270519 1_555
Dy0 Sb4 3.270519 1_565
Dy0 Sb3 3.270519 1_455
Dy0 Sb5 3.270519 1_565
Dy0 Sb5 3.270519 1_455
Dy0 Sb2 3.458749 1_556
Dy0 Sb2 3.458749 1_555
Dy0 Sb0 3.458755 1_556
Dy0 Sb1 3.458755 1_555
Dy0 Sb1 3.458755 1_556
Dy0 Sb0 3.458755 1_555
Dy1 Sb1 3.270519 1_555
Dy1 Sb0 3.270519 1_555
Dy1 Sb0 3.270519 1_655
Dy1 Sb1 3.270519 1_545
Dy1 Sb2 3.270519 1_655
Dy1 Sb2 3.270519 1_545
Dy1 Sb5 3.458749 1_554
Dy1 Sb5 3.458749 1_555
Dy1 Sb4 3.458755 1_554
Dy1 Sb3 3.458755 1_554
Dy1 Sb3 3.458755 1_555
Dy1 Sb4 3.458755 1_555
