# generated using pymatgen
data_EuTiO14
_symmetry_space_group_name_H-M   'P 1'
_cell_length_a   7.53213820
_cell_length_b   7.53213820
_cell_length_c   7.53213820
_cell_angle_alpha   60.00000000
_cell_angle_beta   60.00000000
_cell_angle_gamma   60.00000000
_symmetry_Int_Tables_number   1
_chemical_formula_structural   EuTiO14
_chemical_formula_sum   'Eu2 Ti2 O28'
_cell_volume   302.16199711
_cell_formula_units_Z   2
loop_
 _symmetry_equiv_pos_site_id
 _symmetry_equiv_pos_as_xyz
  1  'x, y, z'
loop_
 _atom_site_type_symbol
 _atom_site_label
 _atom_site_symmetry_multiplicity
 _atom_site_fract_x
 _atom_site_fract_y
 _atom_site_fract_z
 _atom_site_occupancy
  Eu  Eu0  1  0.00000000  0.00000000  0.00000000  1
  Eu  Eu1  1  0.75000000  0.75000000  0.75000000  1
  Ti  Ti0  1  0.50000000  0.50000000  0.50000000  1
  Ti  Ti1  1  0.25000000  0.25000000  0.25000000  1
  O  O0  1  0.87500000  0.87500000  0.87500000  1
  O  O1  1  0.37500000  0.87500000  0.87500000  1
  O  O2  1  0.87500000  0.37500000  0.87500000  1
  O  O3  1  0.87500000  0.87500000  0.37500000  1
  O  O4  1  0.51674800  0.51674800  0.18536000  1
  O  O5  1  0.78114400  0.18536000  0.51674800  1
  O  O6  1  0.18536000  0.78114400  0.51674800  1
  O  O7  1  0.51674800  0.18536000  0.51674800  1
  O  O8  1  0.96885600  0.23325200  0.56464000  1
  O  O9  1  0.23325200  0.23325200  0.56464000  1
  O  O10  1  0.51674800  0.51674800  0.78114400  1
  O  O11  1  0.18536000  0.51674800  0.78114400  1
  O  O12  1  0.23325200  0.56464000  0.23325200  1
  O  O13  1  0.96885600  0.56464000  0.23325200  1
  O  O14  1  0.78114400  0.51674800  0.18536000  1
  O  O15  1  0.23325200  0.96885600  0.23325200  1
  O  O16  1  0.56464000  0.96885600  0.23325200  1
  O  O17  1  0.51674800  0.78114400  0.51674800  1
  O  O18  1  0.56464000  0.23325200  0.96885600  1
  O  O19  1  0.23325200  0.23325200  0.96885600  1
  O  O20  1  0.18536000  0.51674800  0.51674800  1
  O  O21  1  0.51674800  0.18536000  0.78114400  1
  O  O22  1  0.78114400  0.51674800  0.51674800  1
  O  O23  1  0.51674800  0.78114400  0.18536000  1
  O  O24  1  0.23325200  0.56464000  0.96885600  1
  O  O25  1  0.56464000  0.23325200  0.23325200  1
  O  O26  1  0.23325200  0.96885600  0.56464000  1
  O  O27  1  0.96885600  0.23325200  0.23325200  1
loop_
_geom_bond_atom_site_label_1
_geom_bond_atom_site_label_2
_geom_bond_distance
_geom_bond_site_symmetry_2
Eu0 O2 2.306237 1_454
Eu0 O1 2.306237 1_544
Eu0 O3 2.306237 1_445
Eu0 O0 2.306237 1_444
Eu0 O15 2.913883 1_545
Eu0 O19 2.913883 1_554
Eu0 O27 2.913883 1_455
Eu0 O25 2.913883 1_455
Eu0 O12 2.913883 1_545
Eu0 O9 2.913883 1_554
Eu0 O18 2.913883 1_454
Eu0 O16 2.913883 1_445
Eu0 O24 2.913883 1_544
Eu0 O8 2.913883 1_454
Eu0 O13 2.913883 1_445
Eu0 O26 2.913883 1_544
Eu1 O3 2.306237 1_555
Eu1 O0 2.306237 1_555
Eu1 O2 2.306237 1_555
Eu1 O1 2.306237 1_555
Eu1 O11 2.913883 1_655
Eu1 O6 2.913883 1_655
Eu1 O21 2.913883 1_565
Eu1 O23 2.913883 1_556
Eu1 O14 2.913883 1_556
Eu1 O20 2.913883 1_655
Eu1 O5 2.913883 1_565
Eu1 O22 2.913883 1_555
Eu1 O10 2.913883 1_555
Eu1 O7 2.913883 1_565
Eu1 O4 2.913883 1_556
Eu1 O17 2.913883 1_555
O4 Ti0 2.250845 1_555
O5 O8 1.846473 1_555
O5 O7 1.991467 1_555
O5 Ti0 2.250845 1_555
O6 Ti0 2.250845 1_555
O7 O9 1.846473 1_555
O7 Ti0 2.250845 1_555
O8 O9 1.991467 1_655
O8 Ti1 2.250845 1_655
O9 Ti1 2.250845 1_555
O10 O18 1.846473 1_555
O10 O24 1.846473 1_555
O10 O17 1.991467 1_555
O10 O22 1.991467 1_555
O10 Ti0 2.250845 1_555
O11 O24 1.846473 1_555
O11 O19 1.846473 1_555
O11 O6 1.991467 1_555
O11 O20 1.991467 1_555
O11 Ti0 2.250845 1_555
O12 O20 1.846473 1_555
O12 O4 1.846473 1_555
O12 O24 1.991467 1_554
O12 O13 1.991467 1_455
O12 Ti1 2.250845 1_555
O13 O14 1.846473 1_555
O13 O22 1.846473 1_555
O13 O24 1.991467 1_654
O13 Ti1 2.250845 1_655
O14 O27 1.846473 1_555
O14 O23 1.991467 1_555
O14 O4 1.991467 1_555
O14 Ti0 2.250845 1_555
O15 O23 1.846473 1_555
O15 O6 1.846473 1_555
O15 O19 1.991467 1_564
O15 O27 1.991467 1_465
O15 Ti1 2.250845 1_565
O16 O23 1.846473 1_555
O16 O17 1.846473 1_555
O16 O25 1.991467 1_565
O16 O18 1.991467 1_564
O16 Ti1 2.250845 1_565
O17 O26 1.846473 1_555
O17 O22 1.991467 1_555
O17 Ti0 2.250845 1_555
O18 O21 1.846473 1_555
O18 O25 1.991467 1_556
O18 Ti1 2.250845 1_556
O19 O21 1.846473 1_555
O19 O27 1.991467 1_456
O19 Ti1 2.250845 1_556
O20 O9 1.846473 1_555
O20 O6 1.991467 1_555
O20 Ti0 2.250845 1_555
O21 O7 1.991467 1_555
O21 O5 1.991467 1_555
O21 Ti0 2.250845 1_555
O22 O8 1.846473 1_555
O22 Ti0 2.250845 1_555
O23 O4 1.991467 1_555
O23 Ti0 2.250845 1_555
O24 Ti1 2.250845 1_556
O25 O7 1.846473 1_555
O25 O4 1.846473 1_555
O25 Ti1 2.250845 1_555
O26 O6 1.846473 1_555
O26 O9 1.991467 1_565
O26 O8 1.991467 1_465
O26 Ti1 2.250845 1_565
O27 O5 1.846473 1_555
O27 Ti1 2.250845 1_655
