# generated using pymatgen
data_Gd2HfS5
_symmetry_space_group_name_H-M   'P 1'
_cell_length_a   7.28299396
_cell_length_b   7.81218055
_cell_length_c   11.52045254
_cell_angle_alpha   90.00000000
_cell_angle_beta   90.00000000
_cell_angle_gamma   90.00000000
_symmetry_Int_Tables_number   1
_chemical_formula_structural   Gd2HfS5
_chemical_formula_sum   'Gd8 Hf4 S20'
_cell_volume   655.46840226
_cell_formula_units_Z   4
loop_
 _symmetry_equiv_pos_site_id
 _symmetry_equiv_pos_as_xyz
  1  'x, y, z'
loop_
 _atom_site_type_symbol
 _atom_site_label
 _atom_site_symmetry_multiplicity
 _atom_site_fract_x
 _atom_site_fract_y
 _atom_site_fract_z
 _atom_site_occupancy
  Gd  Gd0  1  0.52820898  0.49810296  0.32255097  1
  Gd  Gd1  1  0.97179102  0.00189704  0.82255097  1
  Gd  Gd2  1  0.47179102  0.99810296  0.67744903  1
  Gd  Gd3  1  0.02820898  0.50189704  0.17744903  1
  Gd  Gd4  1  0.47179102  0.50189704  0.67744903  1
  Gd  Gd5  1  0.02820898  0.99810296  0.17744903  1
  Gd  Gd6  1  0.52820898  0.00189704  0.32255097  1
  Gd  Gd7  1  0.97179102  0.49810296  0.82255097  1
  Hf  Hf0  1  0.07367814  0.75000000  0.49371954  1
  Hf  Hf1  1  0.42632186  0.75000000  0.99371954  1
  Hf  Hf2  1  0.92632186  0.25000000  0.50628046  1
  Hf  Hf3  1  0.57367814  0.25000000  0.00628046  1
  S  S0  1  0.83703734  0.96457552  0.58957648  1
  S  S1  1  0.66296266  0.53542448  0.08957648  1
  S  S2  1  0.16296266  0.46457552  0.41042352  1
  S  S3  1  0.33703734  0.03542448  0.91042352  1
  S  S4  1  0.16296266  0.03542448  0.41042352  1
  S  S5  1  0.33703734  0.46457552  0.91042352  1
  S  S6  1  0.83703734  0.53542448  0.58957648  1
  S  S7  1  0.66296266  0.96457552  0.08957648  1
  S  S8  1  0.83812670  0.75000000  0.31751117  1
  S  S9  1  0.66187330  0.75000000  0.81751117  1
  S  S10  1  0.16187330  0.25000000  0.68248883  1
  S  S11  1  0.33812670  0.25000000  0.18248883  1
  S  S12  1  0.44514238  0.75000000  0.49591827  1
  S  S13  1  0.05485762  0.75000000  0.99591827  1
  S  S14  1  0.55485762  0.25000000  0.50408173  1
  S  S15  1  0.94514238  0.25000000  0.00408173  1
  S  S16  1  0.18340082  0.75000000  0.70653872  1
  S  S17  1  0.31659918  0.75000000  0.20653872  1
  S  S18  1  0.81659918  0.25000000  0.29346128  1
  S  S19  1  0.68340082  0.25000000  0.79346128  1
loop_
_geom_bond_atom_site_label_1
_geom_bond_atom_site_label_2
_geom_bond_distance
_geom_bond_site_symmetry_2
Gd0 S17 2.834416 1_555
Gd0 S14 2.857969 1_555
Gd0 S2 2.858230 1_555
Gd0 S12 2.868375 1_555
Gd0 S1 2.872608 1_555
Gd0 S11 2.876948 1_555
Gd0 S18 2.877581 1_555
Gd0 S8 2.995078 1_555
Gd1 S16 2.834416 1_645
Gd1 S15 2.857969 1_556
Gd1 S3 2.858230 1_655
Gd1 S13 2.868375 1_645
Gd1 S0 2.872608 1_545
Gd1 S10 2.876948 1_655
Gd1 S19 2.877581 1_555
Gd1 S9 2.995078 1_545
Gd2 S19 2.834416 1_565
Gd2 S12 2.857969 1_555
Gd2 S0 2.858230 1_555
Gd2 S14 2.868375 1_565
Gd2 S3 2.872608 1_565
Gd2 S9 2.876948 1_555
Gd2 S16 2.877581 1_555
Gd2 S10 2.995078 1_565
Gd3 S18 2.834416 1_455
Gd3 S13 2.857969 1_554
Gd3 S1 2.858230 1_455
Gd3 S15 2.868375 1_455
Gd3 S2 2.872608 1_555
Gd3 S8 2.876948 1_455
Gd3 S17 2.877581 1_555
Gd3 S11 2.995078 1_555
Gd4 S19 2.834416 1_555
Gd4 S12 2.857969 1_555
Gd4 S6 2.858230 1_555
Gd4 S14 2.868375 1_555
Gd4 S5 2.872608 1_555
Gd4 S9 2.876948 1_555
Gd4 S16 2.877581 1_555
Gd4 S10 2.995078 1_555
Gd5 S18 2.834416 1_465
Gd5 S13 2.857969 1_554
Gd5 S7 2.858230 1_455
Gd5 S15 2.868375 1_465
Gd5 S4 2.872608 1_565
Gd5 S8 2.876948 1_455
Gd5 S17 2.877581 1_555
Gd5 S11 2.995078 1_565
Gd6 S17 2.834416 1_545
Gd6 S14 2.857969 1_555
Gd6 S4 2.858230 1_555
Gd6 S12 2.868375 1_545
Gd6 S7 2.872608 1_545
Gd6 S11 2.876948 1_555
Gd6 S18 2.877581 1_555
Gd6 S8 2.995078 1_545
Gd7 S16 2.834416 1_655
Gd7 S15 2.857969 1_556
Gd7 S5 2.858230 1_655
Gd7 S13 2.868375 1_655
Gd7 S6 2.872608 1_555
Gd7 S10 2.876948 1_655
Gd7 S19 2.877581 1_555
Gd7 S9 2.995078 1_555
Hf0 S2 2.513093 1_555
Hf0 S4 2.513093 1_565
Hf0 S16 2.578714 1_555
Hf0 S6 2.645713 1_455
Hf0 S0 2.645713 1_455
Hf0 S8 2.657801 1_455
Hf0 S12 2.705490 1_555
Hf1 S5 2.513093 1_555
Hf1 S3 2.513093 1_565
Hf1 S17 2.578714 1_556
Hf1 S1 2.645713 1_556
Hf1 S7 2.645713 1_556
Hf1 S9 2.657801 1_555
Hf1 S13 2.705490 1_555
Hf2 S6 2.513093 1_555
Hf2 S0 2.513093 1_545
Hf2 S18 2.578714 1_555
Hf2 S4 2.645713 1_655
Hf2 S2 2.645713 1_655
Hf2 S10 2.657801 1_655
Hf2 S14 2.705490 1_555
Hf3 S1 2.513093 1_555
Hf3 S7 2.513093 1_545
Hf3 S19 2.578714 1_554
Hf3 S3 2.645713 1_554
Hf3 S5 2.645713 1_554
Hf3 S11 2.657801 1_555
Hf3 S15 2.705490 1_555
