# generated using pymatgen
data_Ca3(TaN2)2
_symmetry_space_group_name_H-M   'P 1'
_cell_length_a   6.15485400
_cell_length_b   10.33374000
_cell_length_c   9.38642600
_cell_angle_alpha   90.00000000
_cell_angle_beta   90.00000000
_cell_angle_gamma   90.00000000
_symmetry_Int_Tables_number   1
_chemical_formula_structural   Ca3(TaN2)2
_chemical_formula_sum   'Ca12 Ta8 N16'
_cell_volume   597.00167064
_cell_formula_units_Z   4
loop_
 _symmetry_equiv_pos_site_id
 _symmetry_equiv_pos_as_xyz
  1  'x, y, z'
loop_
 _atom_site_type_symbol
 _atom_site_label
 _atom_site_symmetry_multiplicity
 _atom_site_fract_x
 _atom_site_fract_y
 _atom_site_fract_z
 _atom_site_occupancy
  Ca  Ca0  1  0.61630100  0.15327500  0.42569000  1
  Ca  Ca1  1  0.88369900  0.84672500  0.42569000  1
  Ca  Ca2  1  0.61630100  0.34672500  0.07431000  1
  Ca  Ca3  1  0.88369900  0.65327500  0.07431000  1
  Ca  Ca4  1  0.38369900  0.84672500  0.57431000  1
  Ca  Ca5  1  0.11630100  0.15327500  0.57431000  1
  Ca  Ca6  1  0.38369900  0.65327500  0.92569000  1
  Ca  Ca7  1  0.11630100  0.34672500  0.92569000  1
  Ca  Ca8  1  0.75000000  0.50000000  0.39122200  1
  Ca  Ca9  1  0.75000000  0.00000000  0.10877800  1
  Ca  Ca10  1  0.25000000  0.50000000  0.60877800  1
  Ca  Ca11  1  0.25000000  0.00000000  0.89122200  1
  Ta  Ta0  1  0.75000000  0.50000000  0.72722900  1
  Ta  Ta1  1  0.75000000  0.00000000  0.77277100  1
  Ta  Ta2  1  0.25000000  0.50000000  0.27277100  1
  Ta  Ta3  1  0.25000000  0.00000000  0.22722900  1
  Ta  Ta4  1  0.57484200  0.25000000  0.75000000  1
  Ta  Ta5  1  0.92515800  0.75000000  0.75000000  1
  Ta  Ta6  1  0.42515800  0.75000000  0.25000000  1
  Ta  Ta7  1  0.07484200  0.25000000  0.25000000  1
  N  N0  1  0.76697600  0.34011600  0.60417500  1
  N  N1  1  0.73302400  0.65988400  0.60417500  1
  N  N2  1  0.76697600  0.15988400  0.89582500  1
  N  N3  1  0.73302400  0.84011600  0.89582500  1
  N  N4  1  0.23302400  0.65988400  0.39582500  1
  N  N5  1  0.26697600  0.34011600  0.39582500  1
  N  N6  1  0.23302400  0.84011600  0.10417500  1
  N  N7  1  0.26697600  0.15988400  0.10417500  1
  N  N8  1  0.48658600  0.43286200  0.83611600  1
  N  N9  1  0.01341400  0.56713800  0.83611600  1
  N  N10  1  0.48658600  0.06713800  0.66388400  1
  N  N11  1  0.01341400  0.93286200  0.66388400  1
  N  N12  1  0.51341400  0.56713800  0.16388400  1
  N  N13  1  0.98658600  0.43286200  0.16388400  1
  N  N14  1  0.51341400  0.93286200  0.33611600  1
  N  N15  1  0.98658600  0.06713800  0.33611600  1
loop_
_geom_bond_atom_site_label_1
_geom_bond_atom_site_label_2
_geom_bond_distance
_geom_bond_site_symmetry_2
Ca0 N14 2.509143 1_545
Ca0 N10 2.535443 1_555
Ca0 N15 2.587139 1_555
Ca0 N0 2.719310 1_555
Ca0 N5 2.903297 1_555
Ca1 N15 2.509143 1_565
Ca1 N11 2.535443 1_655
Ca1 N14 2.587139 1_555
Ca1 N1 2.719310 1_555
Ca1 N4 2.903297 1_655
Ca2 N12 2.509143 1_555
Ca2 N8 2.535443 1_554
Ca2 N13 2.587139 1_555
Ca2 N2 2.719310 1_554
Ca2 N7 2.903297 1_555
Ca3 N13 2.509143 1_555
Ca3 N9 2.535443 1_654
Ca3 N12 2.587139 1_555
Ca3 N3 2.719310 1_554
Ca3 N6 2.903297 1_655
Ca4 N10 2.509143 1_565
Ca4 N14 2.535443 1_555
Ca4 N11 2.587139 1_555
Ca4 N4 2.719310 1_555
Ca4 N1 2.903297 1_555
Ca5 N11 2.509143 1_545
Ca5 N15 2.535443 1_455
Ca5 N10 2.587139 1_555
Ca5 N5 2.719310 1_555
Ca5 N0 2.903297 1_455
Ca6 N8 2.509143 1_555
Ca6 N12 2.535443 1_556
Ca6 N9 2.587139 1_555
Ca6 N6 2.719310 1_556
Ca6 N3 2.903297 1_555
Ca7 N9 2.509143 1_555
Ca7 N13 2.535443 1_456
Ca7 N8 2.587139 1_555
Ca7 N7 2.719310 1_556
Ca7 N2 2.903297 1_455
Ca8 N1 2.595410 1_555
Ca8 N0 2.595410 1_555
Ca8 N12 2.674923 1_555
Ca8 N13 2.674923 1_555
Ca9 N2 2.595410 1_554
Ca9 N3 2.595410 1_544
Ca9 N15 2.674923 1_555
Ca9 N14 2.674923 1_545
Ca10 N4 2.595410 1_555
Ca10 N5 2.595410 1_555
Ca10 N8 2.674923 1_555
Ca10 N9 2.674923 1_555
Ca11 N7 2.595410 1_556
Ca11 N6 2.595410 1_546
Ca11 N10 2.674923 1_555
Ca11 N11 2.674923 1_545
N0 Ta0 2.018611 1_555
N0 Ta4 2.034499 1_555
N1 Ta0 2.018611 1_555
N1 Ta5 2.034499 1_555
N2 Ta1 2.018611 1_555
N2 Ta4 2.034499 1_555
N3 Ta1 2.018611 1_565
N3 Ta5 2.034499 1_555
N4 Ta2 2.018611 1_555
N4 Ta6 2.034499 1_555
N5 Ta2 2.018611 1_555
N5 Ta7 2.034499 1_555
N6 Ta3 2.018611 1_565
N6 Ta6 2.034499 1_555
N7 Ta3 2.018611 1_555
N7 Ta7 2.034499 1_555
N8 Ta0 2.038254 1_555
N8 Ta4 2.125847 1_555
N9 Ta0 2.038254 1_455
N9 Ta5 2.125847 1_455
N10 Ta1 2.038254 1_555
N10 Ta4 2.125847 1_555
N11 Ta1 2.038254 1_465
N11 Ta5 2.125847 1_455
N12 Ta2 2.038254 1_555
N12 Ta6 2.125847 1_555
N13 Ta2 2.038254 1_655
N13 Ta7 2.125847 1_655
N14 Ta3 2.038254 1_565
N14 Ta6 2.125847 1_555
N15 Ta3 2.038254 1_655
N15 Ta7 2.125847 1_655
