# generated using pymatgen
data_Ti(PbN)3
_symmetry_space_group_name_H-M   'P 1'
_cell_length_a   10.60482300
_cell_length_b   10.60606005
_cell_length_c   3.73855200
_cell_angle_alpha   90.00000000
_cell_angle_beta   90.00000000
_cell_angle_gamma   119.99975636
_symmetry_Int_Tables_number   1
_chemical_formula_structural   Ti(PbN)3
_chemical_formula_sum   'Ti2 Pb6 N6'
_cell_volume   364.16032651
_cell_formula_units_Z   2
loop_
 _symmetry_equiv_pos_site_id
 _symmetry_equiv_pos_as_xyz
  1  'x, y, z'
loop_
 _atom_site_type_symbol
 _atom_site_label
 _atom_site_symmetry_multiplicity
 _atom_site_fract_x
 _atom_site_fract_y
 _atom_site_fract_z
 _atom_site_occupancy
  Ti  Ti0  1  0.66665800  0.33332300  0.75000000  1
  Ti  Ti1  1  0.33334200  0.66667700  0.25000000  1
  Pb  Pb0  1  0.95662300  0.61855800  0.25000000  1
  Pb  Pb1  1  0.66196500  0.04345400  0.25000000  1
  Pb  Pb2  1  0.38145900  0.33809000  0.25000000  1
  Pb  Pb3  1  0.04337700  0.38144200  0.75000000  1
  Pb  Pb4  1  0.33803500  0.95654600  0.75000000  1
  Pb  Pb5  1  0.61854100  0.66191000  0.75000000  1
  N  N0  1  0.87103400  0.45864800  0.75000000  1
  N  N1  1  0.58761600  0.12894900  0.75000000  1
  N  N2  1  0.54135600  0.41240000  0.75000000  1
  N  N3  1  0.12896600  0.54135200  0.25000000  1
  N  N4  1  0.41238400  0.87105100  0.25000000  1
  N  N5  1  0.45864400  0.58760000  0.25000000  1
loop_
_geom_bond_atom_site_label_1
_geom_bond_atom_site_label_2
_geom_bond_distance
_geom_bond_site_symmetry_2
N0 Ti0 1.892994 1_555
N0 Pb3 2.346798 1_655
N0 Pb0 2.378048 1_556
N0 Pb0 2.378048 1_555
N1 Ti0 1.893198 1_555
N1 Pb4 2.347171 1_545
N1 Pb1 2.377609 1_555
N1 Pb1 2.377609 1_556
N2 Ti0 1.893037 1_555
N2 Pb5 2.346681 1_555
N2 Pb2 2.377870 1_556
N2 Pb2 2.377870 1_555
N3 Ti1 1.892994 1_555
N3 Pb0 2.346798 1_455
N3 Pb3 2.378048 1_554
N3 Pb3 2.378048 1_555
N4 Ti1 1.893198 1_555
N4 Pb1 2.347171 1_565
N4 Pb4 2.377609 1_555
N4 Pb4 2.377609 1_554
N5 Ti1 1.893037 1_555
N5 Pb2 2.346681 1_555
N5 Pb5 2.377870 1_554
N5 Pb5 2.377870 1_555
