# generated using pymatgen
data_MnFe2(PO4)3
_symmetry_space_group_name_H-M   'P 1'
_cell_length_a   17.81699700
_cell_length_b   4.87005500
_cell_length_c   9.88921408
_cell_angle_alpha   89.63011190
_cell_angle_beta   90.00000000
_cell_angle_gamma   90.00000000
_symmetry_Int_Tables_number   1
_chemical_formula_structural   MnFe2(PO4)3
_chemical_formula_sum   'Mn4 Fe8 P12 O48'
_cell_volume   858.06680457
_cell_formula_units_Z   4
loop_
 _symmetry_equiv_pos_site_id
 _symmetry_equiv_pos_as_xyz
  1  'x, y, z'
loop_
 _atom_site_type_symbol
 _atom_site_label
 _atom_site_symmetry_multiplicity
 _atom_site_fract_x
 _atom_site_fract_y
 _atom_site_fract_z
 _atom_site_occupancy
  Mn  Mn0  1  0.50000000  0.57366100  0.78182100  1
  Mn  Mn1  1  0.83337800  0.57301000  0.78183800  1
  Mn  Mn2  1  0.16662200  0.57301000  0.78183800  1
  Mn  Mn3  1  0.50000000  0.92449900  0.28256600  1
  Fe  Fe0  1  0.83335600  0.94979600  0.27481300  1
  Fe  Fe1  1  0.16664400  0.94979600  0.27481300  1
  Fe  Fe2  1  0.66617000  0.45015900  0.22443400  1
  Fe  Fe3  1  0.00000000  0.45192100  0.22562100  1
  Fe  Fe4  1  0.33383000  0.45015900  0.22443400  1
  Fe  Fe5  1  0.66688200  0.05300900  0.72297600  1
  Fe  Fe6  1  0.00000000  0.05296900  0.72292600  1
  Fe  Fe7  1  0.33311800  0.05300900  0.72297600  1
  P  P0  1  0.50000000  0.09840500  0.59584300  1
  P  P1  1  0.83340100  0.09984700  0.59670400  1
  P  P2  1  0.16659900  0.09984700  0.59670400  1
  P  P3  1  0.50000000  0.40281900  0.09632000  1
  P  P4  1  0.83329600  0.40144500  0.09400600  1
  P  P5  1  0.16670400  0.40144500  0.09400600  1
  P  P6  1  0.66765800  0.89860000  0.40591200  1
  P  P7  1  0.00000000  0.89801500  0.40559600  1
  P  P8  1  0.33234200  0.89860000  0.40591200  1
  P  P9  1  0.66666400  0.59922500  0.90564900  1
  P  P10  1  0.00000000  0.59889900  0.90570100  1
  P  P11  1  0.33333600  0.59922500  0.90564900  1
  O  O0  1  0.50000000  0.78358800  0.61869400  1
  O  O1  1  0.83333800  0.78476900  0.61979700  1
  O  O2  1  0.16666200  0.78476900  0.61979700  1
  O  O3  1  0.50000000  0.71697300  0.11911300  1
  O  O4  1  0.83338300  0.70989000  0.11844700  1
  O  O5  1  0.16661700  0.70989000  0.11844700  1
  O  O6  1  0.66671200  0.20737600  0.37963700  1
  O  O7  1  0.00000000  0.20753400  0.37941100  1
  O  O8  1  0.33328800  0.20737600  0.37963700  1
  O  O9  1  0.66650000  0.29162400  0.88011100  1
  O  O10  1  0.00000000  0.29139000  0.88035900  1
  O  O11  1  0.33350000  0.29162400  0.88011100  1
  O  O12  1  0.43150600  0.24008500  0.66555300  1
  O  O13  1  0.76482300  0.24046900  0.66722900  1
  O  O14  1  0.09811400  0.24053900  0.66729400  1
  O  O15  1  0.56857700  0.25994300  0.16623000  1
  O  O16  1  0.90092000  0.25223200  0.16683300  1
  O  O17  1  0.23427300  0.25217700  0.16683300  1
  O  O18  1  0.60047000  0.74791500  0.33181800  1
  O  O19  1  0.93241300  0.75182200  0.33135600  1
  O  O20  1  0.26512600  0.75223800  0.33159000  1
  O  O21  1  0.73355900  0.75166400  0.83190400  1
  O  O22  1  0.06691800  0.75170300  0.83227800  1
  O  O23  1  0.40031400  0.75173500  0.83192100  1
  O  O24  1  0.73487400  0.75223800  0.33159000  1
  O  O25  1  0.06758700  0.75182200  0.33135600  1
  O  O26  1  0.39953000  0.74791500  0.33181800  1
  O  O27  1  0.59968600  0.75173500  0.83192100  1
  O  O28  1  0.93308200  0.75170300  0.83227800  1
  O  O29  1  0.26644100  0.75166400  0.83190400  1
  O  O30  1  0.56849400  0.24008500  0.66555300  1
  O  O31  1  0.90188600  0.24053900  0.66729400  1
  O  O32  1  0.23517700  0.24046900  0.66722900  1
  O  O33  1  0.43142300  0.25994300  0.16623000  1
  O  O34  1  0.76572700  0.25217700  0.16683300  1
  O  O35  1  0.09908000  0.25223200  0.16683300  1
  O  O36  1  0.50000000  0.35059000  0.94232200  1
  O  O37  1  0.83330800  0.34245600  0.94090400  1
  O  O38  1  0.16669200  0.34245600  0.94090400  1
  O  O39  1  0.50000000  0.15011800  0.44131100  1
  O  O40  1  0.83335100  0.15130700  0.44332500  1
  O  O41  1  0.16664900  0.15130700  0.44332500  1
  O  O42  1  0.66716300  0.65994300  0.05705100  1
  O  O43  1  0.00000000  0.65811900  0.05748400  1
  O  O44  1  0.33283700  0.65994300  0.05705100  1
  O  O45  1  0.66670000  0.83680900  0.55742900  1
  O  O46  1  0.00000000  0.83692600  0.55716300  1
  O  O47  1  0.33330000  0.83680900  0.55742900  1
loop_
_geom_bond_atom_site_label_1
_geom_bond_atom_site_label_2
_geom_bond_distance
_geom_bond_site_symmetry_2
Mn0 O0 1.904291 1_555
Mn0 O36 1.917610 1_555
Mn0 O23 2.039033 1_555
Mn0 O27 2.039033 1_555
Mn0 O12 2.339773 1_555
Mn0 O30 2.339773 1_555
Mn1 O1 1.900018 1_555
Mn1 O37 1.926746 1_555
Mn1 O28 2.041429 1_555
Mn1 O21 2.042221 1_555
Mn1 O31 2.327732 1_555
Mn1 O13 2.328725 1_555
Mn2 O2 1.900018 1_555
Mn2 O38 1.926746 1_555
Mn2 O22 2.041429 1_555
Mn2 O29 2.042221 1_555
Mn2 O14 2.327732 1_555
Mn2 O32 2.328725 1_555
Mn3 O3 1.911897 1_555
Mn3 O39 1.921992 1_565
Mn3 O18 2.043463 1_555
Mn3 O26 2.043463 1_555
Mn3 O15 2.336868 1_565
Mn3 O33 2.336868 1_565
Fe0 O40 1.939397 1_565
Fe0 O4 1.944104 1_555
Fe0 O24 2.076720 1_555
Fe0 O19 2.085700 1_555
Fe0 O16 2.176798 1_565
Fe0 O34 2.177258 1_565
Fe1 O41 1.939397 1_565
Fe1 O5 1.944104 1_555
Fe1 O20 2.076720 1_555
Fe1 O25 2.085700 1_555
Fe1 O35 2.176798 1_565
Fe1 O17 2.177258 1_565
Fe2 O6 1.931418 1_555
Fe2 O42 1.939649 1_555
Fe2 O15 2.054218 1_555
Fe2 O34 2.099430 1_555
Fe2 O18 2.149561 1_555
Fe2 O24 2.192201 1_555
Fe3 O7 1.925143 1_555
Fe3 O43 1.936895 1_555
Fe3 O16 2.099369 1_455
Fe3 O35 2.099369 1_555
Fe3 O19 2.167101 1_455
Fe3 O25 2.167101 1_555
Fe4 O8 1.931418 1_555
Fe4 O44 1.939649 1_555
Fe4 O33 2.054218 1_555
Fe4 O17 2.099430 1_555
Fe4 O26 2.149561 1_555
Fe4 O20 2.192201 1_555
Fe5 O9 1.946407 1_555
Fe5 O45 1.952196 1_545
Fe5 O13 2.043517 1_555
Fe5 O30 2.053966 1_555
Fe5 O21 2.169109 1_545
Fe5 O27 2.174037 1_545
Fe6 O10 1.948192 1_555
Fe6 O46 1.953577 1_545
Fe6 O14 2.046085 1_555
Fe6 O31 2.046085 1_455
Fe6 O28 2.173270 1_445
Fe6 O22 2.173270 1_545
Fe7 O11 1.946407 1_555
Fe7 O47 1.952196 1_545
Fe7 O32 2.043517 1_555
Fe7 O12 2.053966 1_555
Fe7 O29 2.169109 1_545
Fe7 O23 2.174037 1_545
O0 P0 1.548296 1_565
O1 P1 1.549890 1_565
O2 P2 1.549890 1_565
O3 P3 1.547901 1_555
O4 P4 1.523006 1_555
O5 P5 1.523006 1_555
O6 P6 1.524480 1_545
O7 P7 1.527807 1_545
O8 P8 1.524480 1_545
O9 P9 1.520783 1_555
O10 P10 1.520005 1_555
O11 P11 1.520783 1_555
O12 P0 1.564206 1_555
O13 P1 1.566689 1_555
O14 P2 1.565835 1_555
O15 P3 1.564865 1_555
O16 P4 1.578502 1_555
O17 P5 1.577877 1_555
O18 P6 1.585997 1_555
O19 P7 1.582009 1_655
O20 P8 1.577737 1_555
O21 P9 1.580046 1_555
O22 P10 1.579729 1_555
O23 P11 1.581246 1_555
O24 P6 1.577737 1_555
O25 P7 1.582009 1_555
O26 P8 1.585997 1_555
O27 P9 1.581246 1_555
O28 P10 1.579729 1_655
O29 P11 1.580046 1_555
O30 P0 1.564206 1_555
O31 P1 1.565835 1_555
O32 P2 1.566689 1_555
O33 P3 1.564865 1_555
O34 P4 1.577877 1_555
O35 P5 1.578502 1_555
O36 P3 1.545633 1_556
O37 P4 1.542893 1_556
O38 P5 1.542893 1_556
O39 P0 1.547208 1_555
O40 P1 1.535765 1_555
O41 P2 1.535765 1_555
O42 P9 1.528065 1_554
O43 P10 1.530298 1_554
O44 P11 1.528065 1_554
O45 P6 1.526493 1_555
O46 P7 1.526234 1_555
O47 P8 1.526493 1_555
