# generated using pymatgen
data_TmZnRh
_symmetry_space_group_name_H-M   'P 1'
_cell_length_a   3.96558208
_cell_length_b   6.81834995
_cell_length_c   8.00524464
_cell_angle_alpha   90.00000000
_cell_angle_beta   90.00000000
_cell_angle_gamma   90.00000000
_symmetry_Int_Tables_number   1
_chemical_formula_structural   TmZnRh
_chemical_formula_sum   'Tm4 Zn4 Rh4'
_cell_volume   216.45161940
_cell_formula_units_Z   4
loop_
 _symmetry_equiv_pos_site_id
 _symmetry_equiv_pos_as_xyz
  1  'x, y, z'
loop_
 _atom_site_type_symbol
 _atom_site_label
 _atom_site_symmetry_multiplicity
 _atom_site_fract_x
 _atom_site_fract_y
 _atom_site_fract_z
 _atom_site_occupancy
  Tm  Tm0  1  0.25000000  0.53992037  0.18248935  1
  Tm  Tm1  1  0.75000000  0.46007963  0.81751065  1
  Tm  Tm2  1  0.75000000  0.96007963  0.68248935  1
  Tm  Tm3  1  0.25000000  0.03992037  0.31751065  1
  Zn  Zn0  1  0.25000000  0.63545599  0.56251690  1
  Zn  Zn1  1  0.75000000  0.36454401  0.43748310  1
  Zn  Zn2  1  0.75000000  0.86454401  0.06251690  1
  Zn  Zn3  1  0.25000000  0.13545599  0.93748310  1
  Rh  Rh0  1  0.25000000  0.75369419  0.87448610  1
  Rh  Rh1  1  0.75000000  0.24630581  0.12551390  1
  Rh  Rh2  1  0.75000000  0.74630581  0.37448610  1
  Rh  Rh3  1  0.25000000  0.25369419  0.62551390  1
loop_
_geom_bond_atom_site_label_1
_geom_bond_atom_site_label_2
_geom_bond_distance
_geom_bond_site_symmetry_2
Rh0 Zn2 2.601622 1_556
Rh0 Zn2 2.601622 1_456
Rh0 Zn0 2.624290 1_555
Rh0 Zn3 2.651388 1_565
Rh0 Tm1 2.854358 1_455
Rh0 Tm1 2.854358 1_555
Rh0 Tm0 2.864252 1_556
Rh0 Tm2 2.876457 1_455
Rh0 Tm2 2.876457 1_555
Rh1 Zn3 2.601622 1_654
Rh1 Zn3 2.601622 1_554
Rh1 Zn1 2.624290 1_555
Rh1 Zn2 2.651388 1_545
Rh1 Tm0 2.854358 1_555
Rh1 Tm0 2.854358 1_655
Rh1 Tm1 2.864252 1_554
Rh1 Tm3 2.876457 1_655
Rh1 Tm3 2.876457 1_555
Rh2 Zn0 2.601622 1_655
Rh2 Zn0 2.601622 1_555
Rh2 Zn2 2.624290 1_555
Rh2 Zn1 2.651388 1_555
Rh2 Tm3 2.854358 1_665
Rh2 Tm3 2.854358 1_565
Rh2 Tm2 2.864252 1_555
Rh2 Tm0 2.876457 1_555
Rh2 Tm0 2.876457 1_655
Rh3 Zn1 2.601622 1_455
Rh3 Zn1 2.601622 1_555
Rh3 Zn3 2.624290 1_555
Rh3 Zn0 2.651388 1_555
Rh3 Tm2 2.854358 1_445
Rh3 Tm2 2.854358 1_545
Rh3 Tm3 2.864252 1_555
Rh3 Tm1 2.876457 1_455
Rh3 Tm1 2.876457 1_555
