# generated using pymatgen
data_CsRb2AlBr6
_symmetry_space_group_name_H-M   'P 1'
_cell_length_a   8.34481037
_cell_length_b   8.34481037
_cell_length_c   8.34481037
_cell_angle_alpha   60.00000000
_cell_angle_beta   60.00000000
_cell_angle_gamma   60.00000000
_symmetry_Int_Tables_number   1
_chemical_formula_structural   CsRb2AlBr6
_chemical_formula_sum   'Cs1 Rb2 Al1 Br6'
_cell_volume   410.89836991
_cell_formula_units_Z   1
loop_
 _symmetry_equiv_pos_site_id
 _symmetry_equiv_pos_as_xyz
  1  'x, y, z'
loop_
 _atom_site_type_symbol
 _atom_site_label
 _atom_site_symmetry_multiplicity
 _atom_site_fract_x
 _atom_site_fract_y
 _atom_site_fract_z
 _atom_site_occupancy
  Cs  Cs0  1  0.50000000  0.50000000  0.50000000  1
  Rb  Rb0  1  0.75000000  0.75000000  0.75000000  1
  Rb  Rb1  1  0.25000000  0.25000000  0.25000000  1
  Al  Al0  1  0.00000000  0.00000000  0.00000000  1
  Br  Br0  1  0.78600500  0.21399500  0.21399500  1
  Br  Br1  1  0.21399500  0.21399500  0.78600500  1
  Br  Br2  1  0.21399500  0.78600500  0.78600500  1
  Br  Br3  1  0.21399500  0.78600500  0.21399500  1
  Br  Br4  1  0.78600500  0.21399500  0.78600500  1
  Br  Br5  1  0.78600500  0.78600500  0.21399500  1
loop_
_geom_bond_atom_site_label_1
_geom_bond_atom_site_label_2
_geom_bond_distance
_geom_bond_site_symmetry_2
Al0 Br0 2.525429 1_455
Al0 Br3 2.525429 1_545
Al0 Br1 2.525429 1_554
Al0 Br4 2.525429 1_454
Al0 Br2 2.525429 1_544
Al0 Br5 2.525429 1_445
Br0 Cs0 3.375243 1_555
Br1 Cs0 3.375243 1_555
Br2 Cs0 3.375243 1_555
Br3 Cs0 3.375243 1_555
Br4 Cs0 3.375243 1_555
Br5 Cs0 3.375243 1_555
