# generated using pymatgen
data_LiVO2
_symmetry_space_group_name_H-M   'P 1'
_cell_length_a   5.83560051
_cell_length_b   5.83732614
_cell_length_c   5.83731515
_cell_angle_alpha   59.97988926
_cell_angle_beta   60.00940967
_cell_angle_gamma   60.00917728
_symmetry_Int_Tables_number   1
_chemical_formula_structural   LiVO2
_chemical_formula_sum   'Li4 V4 O8'
_cell_volume   140.60234944
_cell_formula_units_Z   4
loop_
 _symmetry_equiv_pos_site_id
 _symmetry_equiv_pos_as_xyz
  1  'x, y, z'
loop_
 _atom_site_type_symbol
 _atom_site_label
 _atom_site_symmetry_multiplicity
 _atom_site_fract_x
 _atom_site_fract_y
 _atom_site_fract_z
 _atom_site_occupancy
  Li  Li0  1  0.12500533  0.62499838  0.62499820  1
  Li  Li1  1  0.62499826  0.12500519  0.62499813  1
  Li  Li2  1  0.62499783  0.62499832  0.62499846  1
  Li  Li3  1  0.62499814  0.62499823  0.12500527  1
  V  V0  1  0.12500082  0.12500049  0.62499876  1
  V  V1  1  0.12500058  0.12500105  0.12500173  1
  V  V2  1  0.12500010  0.62499865  0.12500060  1
  V  V3  1  0.62499678  0.12500155  0.12500070  1
  O  O0  1  0.88021713  0.87989658  0.35967103  1
  O  O1  1  0.88021703  0.35966992  0.87989683  1
  O  O2  1  0.87990817  0.88021113  0.88021104  1
  O  O3  1  0.89028574  0.36981899  0.36981929  1
  O  O4  1  0.35966928  0.88021302  0.88021222  1
  O  O5  1  0.37007448  0.36981962  0.36982058  1
  O  O6  1  0.36981485  0.89028351  0.37008495  1
  O  O7  1  0.36981547  0.37008535  0.89028221  1
loop_
_geom_bond_atom_site_label_1
_geom_bond_atom_site_label_2
_geom_bond_distance
_geom_bond_site_symmetry_2
Li0 O7 2.105682 1_555
Li0 O6 2.105694 1_555
Li0 O0 2.105775 1_455
Li0 O1 2.105791 1_455
Li0 O5 2.107994 1_555
Li0 O2 2.108280 1_455
Li1 O5 2.105713 1_555
Li1 O3 2.105721 1_555
Li1 O2 2.105807 1_545
Li1 O4 2.105809 1_545
Li1 O7 2.108024 1_555
Li1 O0 2.108321 1_545
Li2 O6 2.105691 1_555
Li2 O7 2.105696 1_555
Li2 O1 2.105784 1_555
Li2 O0 2.105793 1_555
Li2 O3 2.108001 1_555
Li2 O4 2.108291 1_555
Li3 O3 2.105713 1_555
Li3 O5 2.105726 1_555
Li3 O4 2.105802 1_554
Li3 O2 2.105816 1_554
Li3 O6 2.108027 1_555
Li3 O1 2.108325 1_554
O0 V2 2.022199 1_655
O0 V1 2.022355 1_665
O0 V3 2.022357 1_565
O1 V0 2.022196 1_655
O1 V1 2.022349 1_656
O1 V3 2.022358 1_556
O2 V3 2.022248 1_566
O2 V2 2.022318 1_656
O2 V0 2.022329 1_665
O3 V0 2.022366 1_655
O3 V2 2.022373 1_655
O3 V1 2.022475 1_655
O4 V1 2.022239 1_566
O4 V0 2.022321 1_565
O4 V2 2.022336 1_556
O5 V2 2.022364 1_555
O5 V0 2.022367 1_555
O5 V3 2.022484 1_555
O6 V1 2.022378 1_565
O6 V3 2.022397 1_565
O6 V0 2.022454 1_565
O7 V3 2.022387 1_556
O7 V1 2.022394 1_556
O7 V2 2.022458 1_556
