# generated using pymatgen
data_TiFe2O5
_symmetry_space_group_name_H-M   'P 1'
_cell_length_a   7.55061203
_cell_length_b   5.33317575
_cell_length_c   10.05424943
_cell_angle_alpha   89.75200543
_cell_angle_beta   89.99924939
_cell_angle_gamma   69.25926859
_symmetry_Int_Tables_number   1
_chemical_formula_structural   TiFe2O5
_chemical_formula_sum   'Ti4 Fe8 O20'
_cell_volume   378.62918331
_cell_formula_units_Z   4
loop_
 _symmetry_equiv_pos_site_id
 _symmetry_equiv_pos_as_xyz
  1  'x, y, z'
loop_
 _atom_site_type_symbol
 _atom_site_label
 _atom_site_symmetry_multiplicity
 _atom_site_fract_x
 _atom_site_fract_y
 _atom_site_fract_z
 _atom_site_occupancy
  Ti  Ti0  1  0.06624500  0.73326100  0.05951400  1
  Ti  Ti1  1  0.43274300  0.26178100  0.55959600  1
  Ti  Ti2  1  0.56670700  0.73887300  0.06060300  1
  Ti  Ti3  1  0.90714800  0.37228100  0.25385600  1
  Fe  Fe0  1  0.09551100  0.62246500  0.74788400  1
  Fe  Fe1  1  0.06849600  0.72657300  0.44021800  1
  Fe  Fe2  1  0.43128000  0.27446500  0.93232200  1
  Fe  Fe3  1  0.40515300  0.38255900  0.25141200  1
  Fe  Fe4  1  0.59428600  0.61284100  0.75029400  1
  Fe  Fe5  1  0.56872200  0.72208500  0.43826600  1
  Fe  Fe6  1  0.93037700  0.27617900  0.56432600  1
  Fe  Fe7  1  0.93097400  0.27878700  0.93134100  1
  O  O0  1  0.16240900  0.37758200  0.57083400  1
  O  O1  1  0.15244700  0.39367800  0.93604100  1
  O  O2  1  0.11350900  0.51418800  0.24402300  1
  O  O3  1  0.02395400  0.90352600  0.61482500  1
  O  O4  1  0.02840900  0.89731000  0.89007400  1
  O  O5  1  0.48091600  0.10137800  0.38772700  1
  O  O6  1  0.48042300  0.08691400  0.11788000  1
  O  O7  1  0.38145600  0.46696800  0.74965500  1
  O  O8  1  0.34181600  0.63303000  0.07956400  1
  O  O9  1  0.34602600  0.61710500  0.41980400  1
  O  O10  1  0.64654200  0.38310500  0.57304900  1
  O  O11  1  0.65257600  0.38861800  0.93254400  1
  O  O12  1  0.63083400  0.51371100  0.24387100  1
  O  O13  1  0.51741800  0.91164000  0.61897300  1
  O  O14  1  0.52263600  0.89380500  0.88781500  1
  O  O15  1  0.97281100  0.10139600  0.37816100  1
  O  O16  1  0.97729400  0.09498800  0.11870500  1
  O  O17  1  0.88191500  0.47425200  0.74914300  1
  O  O18  1  0.84667900  0.61062300  0.42424600  1
  O  O19  1  0.84228800  0.63403200  0.07343500  1
loop_
_geom_bond_atom_site_label_1
_geom_bond_atom_site_label_2
_geom_bond_distance
_geom_bond_site_symmetry_2
Fe0 O3 1.933271 1_555
Fe0 O4 1.985238 1_555
Fe0 O7 2.020219 1_555
Fe0 O17 2.031961 1_455
Fe0 O0 2.163891 1_555
Fe0 O1 2.204755 1_555
Fe1 O15 1.968135 1_465
Fe1 O3 1.968546 1_555
Fe1 O9 1.977042 1_555
Fe1 O18 1.986895 1_455
Fe1 O0 2.176165 1_555
Fe1 O2 2.244165 1_555
Fe2 O14 1.952812 1_545
Fe2 O11 1.970565 1_555
Fe2 O1 1.972382 1_555
Fe2 O7 2.068503 1_555
Fe2 O6 2.083217 1_556
Fe2 O8 2.326869 1_556
Fe3 O5 1.956793 1_555
Fe3 O6 1.998789 1_555
Fe3 O12 2.059718 1_555
Fe3 O2 2.062080 1_555
Fe3 O9 2.062332 1_555
Fe3 O8 2.127431 1_555
Fe4 O14 1.973195 1_555
Fe4 O13 1.986520 1_555
Fe4 O7 2.018227 1_555
Fe4 O17 2.031300 1_555
Fe4 O10 2.123461 1_555
Fe4 O11 2.142339 1_555
Fe5 O5 1.957254 1_565
Fe5 O9 1.960365 1_555
Fe5 O18 1.973586 1_555
Fe5 O13 2.052214 1_555
Fe5 O10 2.162496 1_555
Fe5 O12 2.219147 1_555
Fe6 O3 1.924462 1_645
Fe6 O0 2.009372 1_655
Fe6 O10 2.015118 1_555
Fe6 O15 2.068467 1_555
Fe6 O17 2.108525 1_555
Fe6 O18 2.178135 1_555
Fe7 O4 1.949281 1_645
Fe7 O11 1.972291 1_555
Fe7 O1 1.974869 1_655
Fe7 O17 2.071141 1_555
Fe7 O16 2.091198 1_556
Fe7 O19 2.281167 1_556
O0 Ti1 1.915296 1_555
O1 Ti0 2.104578 1_556
O2 Ti3 1.960856 1_455
O2 Ti0 2.149358 1_555
O4 Ti0 1.886630 1_556
O5 Ti1 1.908542 1_555
O6 Ti2 1.831436 1_545
O7 Ti1 2.171849 1_555
O8 Ti0 1.966497 1_555
O8 Ti2 1.978981 1_555
O9 Ti1 2.256845 1_555
O10 Ti1 1.945134 1_555
O11 Ti2 2.174955 1_556
O12 Ti3 1.953605 1_555
O12 Ti2 2.154238 1_555
O13 Ti1 1.843084 1_565
O14 Ti2 1.898516 1_556
O15 Ti3 1.836290 1_555
O16 Ti0 1.902397 1_645
O16 Ti3 1.943344 1_555
O18 Ti3 2.089698 1_555
O19 Ti0 1.947398 1_655
O19 Ti2 1.958153 1_555
O19 Ti3 2.230029 1_555
