# generated using pymatgen
data_MnIn2(SeS)2
_symmetry_space_group_name_H-M   'P 1'
_cell_length_a   4.07349958
_cell_length_b   4.07349958
_cell_length_c   13.00344794
_cell_angle_alpha   80.98856553
_cell_angle_beta   80.98856553
_cell_angle_gamma   60.00000678
_symmetry_Int_Tables_number   1
_chemical_formula_structural   MnIn2(SeS)2
_chemical_formula_sum   'Mn1 In2 Se2 S2'
_cell_volume   183.78184240
_cell_formula_units_Z   1
loop_
 _symmetry_equiv_pos_site_id
 _symmetry_equiv_pos_as_xyz
  1  'x, y, z'
loop_
 _atom_site_type_symbol
 _atom_site_label
 _atom_site_symmetry_multiplicity
 _atom_site_fract_x
 _atom_site_fract_y
 _atom_site_fract_z
 _atom_site_occupancy
  Mn  Mn0  1  0.76808100  0.76808100  0.69575700  1
  In  In0  1  0.00383200  0.00383200  0.98850300  1
  In  In1  1  0.23354900  0.23354900  0.29935400  1
  Se  Se0  1  0.12335200  0.12335200  0.62994500  1
  Se  Se1  1  0.86867100  0.86867100  0.39398600  1
  S  S0  1  0.70371100  0.70371100  0.88886700  1
  S  S1  1  0.29880300  0.29880300  0.10359000  1
loop_
_geom_bond_atom_site_label_1
_geom_bond_atom_site_label_2
_geom_bond_distance
_geom_bond_site_symmetry_2
Mn0 S0 2.469684 1_555
Mn0 Se0 2.497906 1_655
Mn0 Se0 2.497906 1_565
Mn0 Se0 2.497909 1_665
In0 S0 2.674850 1_445
In0 S0 2.674853 1_545
In0 S0 2.674853 1_455
In0 S1 2.774431 1_556
In0 S1 2.774431 1_546
In0 S1 2.774431 1_456
In1 S1 2.503626 1_555
In1 Se1 2.644962 1_545
In1 Se1 2.644962 1_455
In1 Se1 2.644968 1_445
