# generated using pymatgen
data_Mn(NbS2)3
_symmetry_space_group_name_H-M   'P 1'
_cell_length_a   5.84261471
_cell_length_b   5.84261470
_cell_length_c   12.56513518
_cell_angle_alpha   90.00000157
_cell_angle_beta   89.99999970
_cell_angle_gamma   119.99980493
_symmetry_Int_Tables_number   1
_chemical_formula_structural   Mn(NbS2)3
_chemical_formula_sum   'Mn2 Nb6 S12'
_cell_volume   371.46093301
_cell_formula_units_Z   2
loop_
 _symmetry_equiv_pos_site_id
 _symmetry_equiv_pos_as_xyz
  1  'x, y, z'
loop_
 _atom_site_type_symbol
 _atom_site_label
 _atom_site_symmetry_multiplicity
 _atom_site_fract_x
 _atom_site_fract_y
 _atom_site_fract_z
 _atom_site_occupancy
  Mn  Mn0  1  0.66666723  0.33333307  0.75003146  1
  Mn  Mn1  1  0.33333285  0.66666724  0.24996887  1
  Nb  Nb0  1  0.33333249  0.66666583  0.50118172  1
  Nb  Nb1  1  0.66666740  0.33333426  0.00114531  1
  Nb  Nb2  1  0.66666575  0.33333249  0.49884697  1
  Nb  Nb3  1  0.33333405  0.66666753  -0.00117608  1
  Nb  Nb4  1  -0.00000105  -0.00000104  0.50000600  1
  Nb  Nb5  1  0.00000093  0.00000108  -0.00000810  1
  S  S0  1  0.33285627  0.33091646  0.12448543  1
  S  S1  1  0.66908473  0.00194060  0.12448515  1
  S  S2  1  0.99806038  0.66714497  0.12448543  1
  S  S3  1  0.00193611  0.33284851  0.62450727  1
  S  S4  1  0.66714734  0.99807002  0.87551854  1
  S  S5  1  0.66715019  0.66908680  0.62450727  1
  S  S6  1  0.33091199  0.99806285  0.62450698  1
  S  S7  1  0.66909134  0.66714687  0.37548937  1
  S  S8  1  0.33285185  0.00194408  0.37548939  1
  S  S9  1  0.33092324  0.33285397  0.87551853  1
  S  S10  1  0.00193103  0.66907798  0.87551884  1
  S  S11  1  0.99805490  0.33090742  0.37548965  1
loop_
_geom_bond_atom_site_label_1
_geom_bond_atom_site_label_2
_geom_bond_distance
_geom_bond_site_symmetry_2
Mn0 S4 2.515677 1_545
Mn0 S9 2.515683 1_555
Mn0 S10 2.515689 1_655
Mn0 S3 2.516006 1_655
Mn0 S5 2.516011 1_555
Mn0 S6 2.516020 1_545
Mn1 S2 2.515685 1_455
Mn1 S0 2.515691 1_555
Mn1 S1 2.515698 1_565
Mn1 S8 2.516005 1_565
Mn1 S7 2.516011 1_555
Mn1 S11 2.516018 1_455
Nb0 S6 2.485519 1_555
Nb0 S5 2.485521 1_555
Nb0 S3 2.485524 1_555
Nb0 S7 2.517363 1_555
Nb0 S11 2.517364 1_455
Nb0 S8 2.517364 1_565
Nb1 S1 2.485611 1_555
Nb1 S0 2.485613 1_555
Nb1 S2 2.485615 1_555
Nb1 S9 2.516781 1_554
Nb1 S10 2.516782 1_654
Nb1 S4 2.516782 1_544
Nb2 S11 2.485745 1_555
Nb2 S7 2.485747 1_555
Nb2 S8 2.485749 1_555
Nb2 S5 2.517082 1_555
Nb2 S6 2.517083 1_545
Nb2 S3 2.517084 1_655
Nb3 S10 2.485365 1_554
Nb3 S9 2.485367 1_554
Nb3 S4 2.485371 1_554
Nb3 S0 2.517092 1_555
Nb3 S1 2.517093 1_565
Nb3 S2 2.517093 1_455
Nb4 S6 2.491442 1_545
Nb4 S3 2.491444 1_555
Nb4 S5 2.491446 1_445
Nb4 S11 2.491561 1_455
Nb4 S8 2.491562 1_555
Nb4 S7 2.491564 1_445
Nb5 S10 2.491254 1_544
Nb5 S4 2.491256 1_444
Nb5 S9 2.491258 1_554
Nb5 S1 2.491403 1_455
Nb5 S2 2.491405 1_445
Nb5 S0 2.491407 1_555
