# generated using pymatgen
data_KHCO3
_symmetry_space_group_name_H-M   'P 1'
_cell_length_a   5.58946929
_cell_length_b   5.58946929
_cell_length_c   11.04977441
_cell_angle_alpha   75.80331787
_cell_angle_beta   75.80331787
_cell_angle_gamma   72.81330546
_symmetry_Int_Tables_number   1
_chemical_formula_structural   KHCO3
_chemical_formula_sum   'K4 H4 C4 O12'
_cell_volume   314.11836499
_cell_formula_units_Z   4
loop_
 _symmetry_equiv_pos_site_id
 _symmetry_equiv_pos_as_xyz
  1  'x, y, z'
loop_
 _atom_site_type_symbol
 _atom_site_label
 _atom_site_symmetry_multiplicity
 _atom_site_fract_x
 _atom_site_fract_y
 _atom_site_fract_z
 _atom_site_occupancy
  K  K0  1  0.98236600  0.29772300  0.86359600  1
  K  K1  1  0.70227700  0.01763400  0.63640400  1
  K  K2  1  0.01763400  0.70227700  0.13640400  1
  K  K3  1  0.29772300  0.98236600  0.36359600  1
  H  H0  1  0.38492800  0.58064900  0.64572200  1
  H  H1  1  0.41935100  0.61507200  0.85427800  1
  H  H2  1  0.61507200  0.41935100  0.35427800  1
  H  H3  1  0.58064900  0.38492800  0.14572200  1
  C  C0  1  0.09119700  0.45599200  0.55035900  1
  C  C1  1  0.54400800  0.90880300  0.94964100  1
  C  C2  1  0.90880300  0.54400800  0.44964100  1
  C  C3  1  0.45599200  0.09119700  0.05035900  1
  O  O0  1  0.54677800  0.54500100  0.68239500  1
  O  O1  1  0.45499900  0.45322200  0.81760500  1
  O  O2  1  0.45322200  0.45499900  0.31760500  1
  O  O3  1  0.54500100  0.54677800  0.18239500  1
  O  O4  1  0.13996700  0.63602400  0.58531700  1
  O  O5  1  0.36397600  0.86003300  0.91468300  1
  O  O6  1  0.86003300  0.36397600  0.41468300  1
  O  O7  1  0.63602400  0.13996700  0.08531700  1
  O  O8  1  0.17337800  0.22105800  0.58994300  1
  O  O9  1  0.77894200  0.82662200  0.91005700  1
  O  O10  1  0.82662200  0.77894200  0.41005700  1
  O  O11  1  0.22105800  0.17337800  0.08994300  1
loop_
_geom_bond_atom_site_label_1
_geom_bond_atom_site_label_2
_geom_bond_distance
_geom_bond_site_symmetry_2
K0 O5 2.771791 1_645
K0 O7 2.854861 1_556
K0 O1 2.911083 1_655
K0 O1 2.950707 1_555
K0 O11 2.958810 1_656
K0 O9 2.961004 1_555
K0 O8 3.041146 1_655
K0 O9 3.051255 1_545
K1 O4 2.771791 1_645
K1 O6 2.854861 1_555
K1 O0 2.911083 1_545
K1 O0 2.950707 1_555
K1 O10 2.958810 1_545
K1 O8 2.961004 1_555
K1 O9 3.041146 1_545
K1 O8 3.051255 1_655
K2 O7 2.771791 1_465
K2 O5 2.854861 1_554
K2 O3 2.911083 1_455
K2 O3 2.950707 1_555
K2 O9 2.958810 1_454
K2 O11 2.961004 1_555
K2 O10 3.041146 1_455
K2 O11 3.051255 1_565
K3 O6 2.771791 1_465
K3 O4 2.854861 1_555
K3 O2 2.911083 1_565
K3 O2 2.950707 1_555
K3 O8 2.958810 1_565
K3 O10 2.961004 1_555
K3 O11 3.041146 1_565
K3 O10 3.051255 1_455
H0 O0 1.027617 1_555
H0 O4 1.585088 1_555
H1 O1 1.027617 1_555
H1 O5 1.585088 1_555
H2 O2 1.027617 1_555
H2 O6 1.585088 1_555
H3 O3 1.027617 1_555
H3 O7 1.585088 1_555
C0 O8 1.259779 1_555
C0 O4 1.280839 1_555
C1 O9 1.259779 1_555
C1 O5 1.280839 1_555
C2 O10 1.259779 1_555
C2 O6 1.280839 1_555
C3 O11 1.259779 1_555
C3 O7 1.280839 1_555
