# generated using pymatgen
data_KLuTa2O7
_symmetry_space_group_name_H-M   'P 1'
_cell_length_a   7.50806493
_cell_length_b   7.50806493
_cell_length_c   7.50806493
_cell_angle_alpha   121.21817051
_cell_angle_beta   120.18245178
_cell_angle_gamma   88.79363604
_symmetry_Int_Tables_number   1
_chemical_formula_structural   KLuTa2O7
_chemical_formula_sum   'K2 Lu2 Ta4 O14'
_cell_volume   296.00396550
_cell_formula_units_Z   2
loop_
 _symmetry_equiv_pos_site_id
 _symmetry_equiv_pos_as_xyz
  1  'x, y, z'
loop_
 _atom_site_type_symbol
 _atom_site_label
 _atom_site_symmetry_multiplicity
 _atom_site_fract_x
 _atom_site_fract_y
 _atom_site_fract_z
 _atom_site_occupancy
  K  K0  1  0.00000000  0.00000000  0.50000000  1
  K  K1  1  0.00000000  0.50000000  0.00000000  1
  Lu  Lu0  1  0.00000000  0.00000000  0.00000000  1
  Lu  Lu1  1  0.50000000  0.00000000  0.50000000  1
  Ta  Ta0  1  0.50000000  0.50000000  0.50000000  1
  Ta  Ta1  1  0.50000000  0.00000000  0.00000000  1
  Ta  Ta2  1  0.50000000  0.50000000  0.00000000  1
  Ta  Ta3  1  0.00000000  0.50000000  0.50000000  1
  O  O0  1  0.16611000  0.91611000  0.25000000  1
  O  O1  1  0.83389000  0.08389000  0.75000000  1
  O  O2  1  0.43422800  0.18422800  0.25000000  1
  O  O3  1  0.80848000  0.55848000  0.25000000  1
  O  O4  1  0.44278600  0.57792700  0.26240300  1
  O  O5  1  0.81552400  0.18038300  0.23759700  1
  O  O6  1  0.44278600  0.18038300  0.86485900  1
  O  O7  1  0.81552400  0.57792700  0.63514100  1
  O  O8  1  0.56577200  0.81577200  0.75000000  1
  O  O9  1  0.19152000  0.44152000  0.75000000  1
  O  O10  1  0.55721400  0.42207300  0.73759700  1
  O  O11  1  0.18447600  0.81961700  0.76240300  1
  O  O12  1  0.55721400  0.81961700  0.13514100  1
  O  O13  1  0.18447600  0.42207300  0.36485900  1
loop_
_geom_bond_atom_site_label_1
_geom_bond_atom_site_label_2
_geom_bond_distance
_geom_bond_site_symmetry_2
K0 O1 2.563316 1_455
K0 O0 2.563316 1_545
K0 O6 2.752656 1_555
K0 O5 2.752656 1_455
K0 O12 2.752656 1_445
K0 O11 2.752656 1_545
K0 O3 2.759835 1_445
K0 O9 2.759835 1_555
K1 O1 2.563316 1_454
K1 O0 2.563316 1_555
K1 O4 2.752656 1_555
K1 O10 2.752656 1_454
K1 O13 2.752656 1_555
K1 O7 2.752656 1_454
K1 O3 2.759835 1_455
K1 O9 2.759835 1_554
Lu0 O0 2.076994 1_545
Lu0 O1 2.076994 1_454
Lu0 O13 2.614555 1_555
Lu0 O7 2.614555 1_444
Lu0 O11 2.614555 1_544
Lu0 O5 2.614555 1_455
Lu0 O2 2.722278 1_555
Lu0 O8 2.722278 1_444
Lu1 O1 2.076994 1_555
Lu1 O0 2.076994 1_545
Lu1 O6 2.614555 1_555
Lu1 O4 2.614555 1_545
Lu1 O10 2.614555 1_555
Lu1 O12 2.614555 1_545
Lu1 O2 2.722278 1_555
Lu1 O8 2.722278 1_545
O2 Ta1 1.972876 1_555
O2 Ta0 1.972876 1_555
O3 Ta3 1.974199 1_655
O3 Ta2 1.974199 1_555
O4 Ta0 2.002483 1_555
O4 Ta2 2.013406 1_555
O5 Ta1 2.002483 1_555
O5 Ta3 2.013406 1_655
O6 Ta1 2.002483 1_556
O6 Ta2 2.013406 1_556
O7 Ta0 2.002483 1_555
O7 Ta3 2.013406 1_655
O8 Ta1 1.972876 1_566
O8 Ta0 1.972876 1_555
O9 Ta2 1.974199 1_556
O9 Ta3 1.974199 1_555
O10 Ta0 2.002483 1_555
O10 Ta2 2.013406 1_556
O11 Ta1 2.002483 1_566
O11 Ta3 2.013406 1_555
O12 Ta1 2.002483 1_565
O12 Ta2 2.013406 1_555
O13 Ta0 2.002483 1_555
O13 Ta3 2.013406 1_555
