# generated using pymatgen
data_PrSb2
_symmetry_space_group_name_H-M   'P 1'
_cell_length_a   4.40813604
_cell_length_b   4.40813604
_cell_length_c   18.68831924
_cell_angle_alpha   90.00000000
_cell_angle_beta   90.00000000
_cell_angle_gamma   91.42477137
_symmetry_Int_Tables_number   1
_chemical_formula_structural   PrSb2
_chemical_formula_sum   'Pr4 Sb8'
_cell_volume   363.03285630
_cell_formula_units_Z   4
loop_
 _symmetry_equiv_pos_site_id
 _symmetry_equiv_pos_as_xyz
  1  'x, y, z'
loop_
 _atom_site_type_symbol
 _atom_site_label
 _atom_site_symmetry_multiplicity
 _atom_site_fract_x
 _atom_site_fract_y
 _atom_site_fract_z
 _atom_site_occupancy
  Pr  Pr0  1  0.36209594  0.36209594  0.88841499  1
  Pr  Pr1  1  0.63790406  0.63790406  0.11158501  1
  Pr  Pr2  1  0.13790406  0.13790406  0.38841499  1
  Pr  Pr3  1  0.86209594  0.86209594  0.61158501  1
  Sb  Sb0  1  0.36794021  0.36794021  0.56159452  1
  Sb  Sb1  1  0.63205979  0.63205979  0.43840548  1
  Sb  Sb2  1  0.13205979  0.13205979  0.06159452  1
  Sb  Sb3  1  0.86794021  0.86794021  0.93840548  1
  Sb  Sb4  1  0.87743660  0.37743660  0.75000000  1
  Sb  Sb5  1  0.62256340  0.12256340  0.25000000  1
  Sb  Sb6  1  0.12256340  0.62256340  0.25000000  1
  Sb  Sb7  1  0.37743660  0.87743660  0.75000000  1
loop_
_geom_bond_atom_site_label_1
_geom_bond_atom_site_label_2
_geom_bond_distance
_geom_bond_site_symmetry_2
Pr0 Sb3 3.182274 1_445
Pr0 Sb3 3.251127 1_555
Pr0 Sb3 3.291125 1_545
Pr0 Sb3 3.291125 1_455
Pr0 Sb7 3.356694 1_545
Pr0 Sb4 3.356694 1_455
Pr0 Sb4 3.442203 1_555
Pr0 Sb7 3.442203 1_555
Pr0 Sb2 3.532689 1_556
Pr1 Sb2 3.182274 1_665
Pr1 Sb2 3.251127 1_555
Pr1 Sb2 3.291125 1_565
Pr1 Sb2 3.291125 1_655
Pr1 Sb5 3.356694 1_565
Pr1 Sb6 3.356694 1_655
Pr1 Sb6 3.442203 1_555
Pr1 Sb5 3.442203 1_555
Pr1 Sb3 3.532689 1_554
Pr2 Sb1 3.182274 1_555
Pr2 Sb1 3.251127 1_445
Pr2 Sb1 3.291125 1_455
Pr2 Sb1 3.291125 1_545
Pr2 Sb5 3.356694 1_555
Pr2 Sb6 3.356694 1_555
Pr2 Sb6 3.442203 1_545
Pr2 Sb5 3.442203 1_455
Pr2 Sb0 3.532689 1_555
Pr3 Sb0 3.182274 1_555
Pr3 Sb0 3.251127 1_665
Pr3 Sb0 3.291125 1_565
Pr3 Sb0 3.291125 1_655
Pr3 Sb4 3.356694 1_555
Pr3 Sb7 3.356694 1_555
Pr3 Sb4 3.442203 1_565
Pr3 Sb7 3.442203 1_655
Pr3 Sb1 3.532689 1_555
Sb0 Sb1 2.818470 1_555
Sb2 Sb3 2.818470 1_444
Sb4 Sb7 3.078028 1_545
Sb4 Sb7 3.078028 1_655
Sb4 Sb7 3.155536 1_645
Sb4 Sb7 3.155536 1_555
Sb5 Sb6 3.078028 1_655
Sb5 Sb6 3.078028 1_545
Sb5 Sb6 3.155536 1_555
Sb5 Sb6 3.155536 1_645
