# generated using pymatgen
data_CaTeO4
_symmetry_space_group_name_H-M   'P 1'
_cell_length_a   6.46489000
_cell_length_b   9.03628500
_cell_length_c   14.34804700
_cell_angle_alpha   90.00000000
_cell_angle_beta   90.00000000
_cell_angle_gamma   90.00000000
_symmetry_Int_Tables_number   1
_chemical_formula_structural   CaTeO4
_chemical_formula_sum   'Ca8 Te8 O32'
_cell_volume   838.19265395
_cell_formula_units_Z   8
loop_
 _symmetry_equiv_pos_site_id
 _symmetry_equiv_pos_as_xyz
  1  'x, y, z'
loop_
 _atom_site_type_symbol
 _atom_site_label
 _atom_site_symmetry_multiplicity
 _atom_site_fract_x
 _atom_site_fract_y
 _atom_site_fract_z
 _atom_site_occupancy
  Ca  Ca0  1  0.84748200  0.47938300  0.96150400  1
  Ca  Ca1  1  0.15251800  0.52061700  0.46150400  1
  Ca  Ca2  1  0.34748200  0.02061700  0.46150400  1
  Ca  Ca3  1  0.65251800  0.97938300  0.96150400  1
  Ca  Ca4  1  0.34329100  0.34076000  0.82699000  1
  Ca  Ca5  1  0.65670900  0.65924000  0.32699000  1
  Ca  Ca6  1  0.84329100  0.15924000  0.32699000  1
  Ca  Ca7  1  0.15670900  0.84076000  0.82699000  1
  Te  Te0  1  0.79484400  0.20561300  0.77961900  1
  Te  Te1  1  0.20515600  0.79438700  0.27961900  1
  Te  Te2  1  0.29484400  0.29438700  0.27961900  1
  Te  Te3  1  0.70515600  0.70561300  0.77961900  1
  Te  Te4  1  0.80615000  0.88322600  0.50766300  1
  Te  Te5  1  0.19385000  0.11677400  0.00766300  1
  Te  Te6  1  0.30615000  0.61677400  0.00766300  1
  Te  Te7  1  0.69385000  0.38322600  0.50766300  1
  O  O0  1  0.02637900  0.31848800  0.76372300  1
  O  O1  1  0.97362100  0.68151200  0.26372300  1
  O  O2  1  0.52637900  0.18151200  0.26372300  1
  O  O3  1  0.47362100  0.81848800  0.76372300  1
  O  O4  1  0.67969800  0.24725800  0.89752000  1
  O  O5  1  0.32030200  0.75274200  0.39752000  1
  O  O6  1  0.17969800  0.25274200  0.39752000  1
  O  O7  1  0.82030200  0.74725800  0.89752000  1
  O  O8  1  0.86124200  0.00927600  0.80212800  1
  O  O9  1  0.13875800  0.99072400  0.30212800  1
  O  O10  1  0.36124200  0.49072400  0.30212800  1
  O  O11  1  0.63875800  0.50927600  0.80212800  1
  O  O12  1  0.03295900  0.99702400  0.53672900  1
  O  O13  1  0.96704100  0.00297600  0.03672900  1
  O  O14  1  0.53295900  0.50297600  0.03672900  1
  O  O15  1  0.46704100  0.49702400  0.53672900  1
  O  O16  1  0.70710900  0.93186500  0.38776800  1
  O  O17  1  0.29289100  0.06813500  0.88776800  1
  O  O18  1  0.20710900  0.56813500  0.88776800  1
  O  O19  1  0.79289100  0.43186500  0.38776800  1
  O  O20  1  0.87449200  0.68894900  0.48059800  1
  O  O21  1  0.12550800  0.31105100  0.98059800  1
  O  O22  1  0.37449200  0.81105100  0.98059800  1
  O  O23  1  0.62550800  0.18894900  0.48059800  1
  O  O24  1  0.57138500  0.23145200  0.70160400  1
  O  O25  1  0.42861500  0.76854800  0.20160400  1
  O  O26  1  0.07138500  0.26854800  0.20160400  1
  O  O27  1  0.92861500  0.73145200  0.70160400  1
  O  O28  1  0.56884100  0.90055500  0.57623100  1
  O  O29  1  0.43115900  0.09944500  0.07623100  1
  O  O30  1  0.06884100  0.59944500  0.07623100  1
  O  O31  1  0.93115900  0.40055500  0.57623100  1
loop_
_geom_bond_atom_site_label_1
_geom_bond_atom_site_label_2
_geom_bond_distance
_geom_bond_site_symmetry_2
Ca0 O14 2.311914 1_556
Ca0 O21 2.370540 1_655
Ca0 O30 2.436114 1_656
Ca0 O4 2.533594 1_555
Ca0 O7 2.594795 1_555
Ca0 O11 2.668884 1_555
Ca0 O18 2.677288 1_655
Ca1 O15 2.311914 1_555
Ca1 O20 2.370540 1_455
Ca1 O31 2.436114 1_455
Ca1 O5 2.533594 1_555
Ca1 O6 2.594795 1_555
Ca1 O10 2.668884 1_555
Ca1 O19 2.677288 1_455
Ca2 O12 2.311914 1_545
Ca2 O23 2.370540 1_555
Ca2 O28 2.436114 1_545
Ca2 O6 2.533594 1_555
Ca2 O5 2.594795 1_545
Ca2 O9 2.668884 1_545
Ca2 O16 2.677288 1_545
Ca3 O13 2.311914 1_566
Ca3 O22 2.370540 1_555
Ca3 O29 2.436114 1_566
Ca3 O7 2.533594 1_555
Ca3 O4 2.594795 1_565
Ca3 O8 2.668884 1_565
Ca3 O17 2.677288 1_565
Ca4 O0 2.249914 1_555
Ca4 O18 2.399387 1_555
Ca4 O11 2.468757 1_555
Ca4 O24 2.527180 1_555
Ca4 O4 2.543198 1_555
Ca4 O21 2.629045 1_555
Ca4 O17 2.633542 1_555
Ca5 O1 2.249914 1_555
Ca5 O19 2.399387 1_555
Ca5 O10 2.468757 1_555
Ca5 O25 2.527180 1_555
Ca5 O5 2.543198 1_555
Ca5 O20 2.629045 1_555
Ca5 O16 2.633542 1_555
Ca6 O2 2.249914 1_555
Ca6 O16 2.399387 1_545
Ca6 O9 2.468757 1_645
Ca6 O26 2.527180 1_655
Ca6 O6 2.543198 1_655
Ca6 O23 2.629045 1_555
Ca6 O19 2.633542 1_555
Ca7 O3 2.249914 1_555
Ca7 O17 2.399387 1_565
Ca7 O8 2.468757 1_465
Ca7 O27 2.527180 1_455
Ca7 O7 2.543198 1_455
Ca7 O22 2.629045 1_555
Ca7 O18 2.633542 1_555
O0 Te0 1.825627 1_455
O1 Te1 1.825627 1_655
O2 Te2 1.825627 1_555
O3 Te3 1.825627 1_555
O4 Te0 1.886115 1_555
O5 Te1 1.886115 1_555
O6 Te2 1.886115 1_555
O7 Te3 1.886115 1_555
O8 Te0 1.853698 1_555
O9 Te1 1.853698 1_555
O10 Te2 1.853698 1_555
O11 Te3 1.853698 1_555
O12 Te4 1.838850 1_455
O13 Te5 1.838850 1_655
O14 Te6 1.838850 1_555
O15 Te7 1.838850 1_555
O16 Te4 1.887442 1_555
O17 Te5 1.887442 1_556
O18 Te6 1.887442 1_556
O19 Te7 1.887442 1_555
O20 Te4 1.851469 1_555
O21 Te5 1.851469 1_556
O22 Te6 1.851469 1_556
O23 Te7 1.851469 1_555
O24 Te0 1.842408 1_555
O25 Te1 1.842408 1_555
O26 Te2 1.842408 1_555
O27 Te3 1.842408 1_555
O28 Te4 1.829239 1_555
O29 Te5 1.829239 1_555
O30 Te6 1.829239 1_555
O31 Te7 1.829239 1_555
