# generated using pymatgen
data_Tb(VFe2)4
_symmetry_space_group_name_H-M   'P 1'
_cell_length_a   4.71233900
_cell_length_b   6.45201700
_cell_length_c   6.45201700
_cell_angle_alpha   82.33626867
_cell_angle_beta   68.58113492
_cell_angle_gamma   68.58113492
_symmetry_Int_Tables_number   1
_chemical_formula_structural   Tb(VFe2)4
_chemical_formula_sum   'Tb1 V4 Fe8'
_cell_volume   170.00701151
_cell_formula_units_Z   1
loop_
 _symmetry_equiv_pos_site_id
 _symmetry_equiv_pos_as_xyz
  1  'x, y, z'
loop_
 _atom_site_type_symbol
 _atom_site_label
 _atom_site_symmetry_multiplicity
 _atom_site_fract_x
 _atom_site_fract_y
 _atom_site_fract_z
 _atom_site_occupancy
  Tb  Tb0  1  0.00000000  0.00000000  0.00000000  1
  V  V0  1  0.00000000  0.35666100  0.64333900  1
  V  V1  1  0.00000000  0.64333900  0.35666100  1
  V  V2  1  0.64333900  0.35666100  0.35666100  1
  V  V3  1  0.35666100  0.64333900  0.64333900  1
  Fe  Fe0  1  0.00000000  0.00000000  0.50000000  1
  Fe  Fe1  1  0.50000000  0.00000000  0.50000000  1
  Fe  Fe2  1  0.50000000  0.50000000  0.00000000  1
  Fe  Fe3  1  0.00000000  0.50000000  0.00000000  1
  Fe  Fe4  1  0.50000000  0.77256500  0.22743500  1
  Fe  Fe5  1  0.50000000  0.22743500  0.77256500  1
  Fe  Fe6  1  0.72743500  0.77256500  0.77256500  1
  Fe  Fe7  1  0.27256500  0.22743500  0.22743500  1
loop_
_geom_bond_atom_site_label_1
_geom_bond_atom_site_label_2
_geom_bond_distance
_geom_bond_site_symmetry_2
Tb0 V0 3.029603 1_554
Tb0 V1 3.029603 1_545
Tb0 V3 3.029603 1_544
Tb0 V2 3.029603 1_455
V0 V1 2.435143 1_555
V0 V2 2.918304 1_455
V0 V3 2.918304 1_555
V0 V2 2.918304 1_555
V0 V3 2.918304 1_455
V1 V2 2.918304 1_455
V1 V3 2.918304 1_555
V1 V2 2.918304 1_555
V1 V3 2.918304 1_455
V2 V3 2.435143 1_555
Fe0 Fe1 2.356170 1_455
Fe0 Fe1 2.356170 1_555
Fe0 Fe7 2.436031 1_555
Fe0 Fe6 2.436031 1_445
Fe0 Fe5 2.436031 1_455
Fe0 Fe4 2.436031 1_545
Fe0 V0 2.591982 1_555
Fe0 V1 2.591982 1_545
Fe0 V2 2.591982 1_455
Fe0 V3 2.591982 1_545
Fe0 Tb0 3.226008 1_555
Fe0 Tb0 3.226008 1_556
Fe1 Fe5 2.436031 1_555
Fe1 Fe4 2.436031 1_545
Fe1 Fe6 2.436031 1_545
Fe1 Fe7 2.436031 1_555
Fe1 V3 2.591982 1_545
Fe1 V2 2.591982 1_555
Fe1 V1 2.591982 1_645
Fe1 V0 2.591982 1_555
Fe1 Tb0 3.226009 1_556
Fe1 Tb0 3.226009 1_655
Fe2 Fe3 2.356170 1_555
Fe2 Fe3 2.356170 1_655
Fe2 Fe4 2.436031 1_555
Fe2 Fe5 2.436031 1_554
Fe2 Fe6 2.436031 1_554
Fe2 Fe7 2.436031 1_555
Fe2 V3 2.591982 1_554
Fe2 V2 2.591982 1_555
Fe2 V0 2.591982 1_654
Fe2 V1 2.591982 1_555
Fe2 Tb0 3.226009 1_565
Fe2 Tb0 3.226009 1_655
Fe3 Fe7 2.436031 1_555
Fe3 Fe6 2.436031 1_454
Fe3 Fe4 2.436031 1_455
Fe3 Fe5 2.436031 1_554
Fe3 V1 2.591982 1_555
Fe3 V0 2.591982 1_554
Fe3 V2 2.591982 1_455
Fe3 V3 2.591982 1_554
Fe3 Tb0 3.226008 1_565
Fe3 Tb0 3.226008 1_555
Fe4 V1 2.599319 1_555
Fe4 V1 2.599319 1_655
Fe4 V2 2.615898 1_555
Fe4 V3 2.615898 1_555
Fe4 Fe6 2.732137 1_554
Fe4 Fe7 2.732137 1_565
Fe4 Tb0 3.046936 1_565
Fe4 Tb0 3.046936 1_665
Fe5 V0 2.599319 1_655
Fe5 V0 2.599319 1_555
Fe5 V2 2.615898 1_555
Fe5 V3 2.615898 1_555
Fe5 Fe7 2.732137 1_556
Fe5 Fe6 2.732137 1_545
Fe5 Tb0 3.046936 1_556
Fe5 Tb0 3.046936 1_656
Fe6 V3 2.599319 1_555
Fe6 V3 2.599319 1_655
Fe6 V0 2.615898 1_655
Fe6 V1 2.615898 1_655
Fe6 Tb0 3.046936 1_666
Fe6 Tb0 3.046936 1_566
Fe7 V2 2.599319 1_555
Fe7 V2 2.599319 1_455
Fe7 V1 2.615898 1_555
Fe7 V0 2.615898 1_555
Fe7 Tb0 3.046936 1_555
Fe7 Tb0 3.046936 1_655
