# generated using pymatgen
data_Na4Al3FeO8
_symmetry_space_group_name_H-M   'P 1'
_cell_length_a   5.33128700
_cell_length_b   5.54082620
_cell_length_c   7.11489469
_cell_angle_alpha   90.02496309
_cell_angle_beta   90.00374461
_cell_angle_gamma   90.01533519
_symmetry_Int_Tables_number   1
_chemical_formula_structural   Na4Al3FeO8
_chemical_formula_sum   'Na4 Al3 Fe1 O8'
_cell_volume   210.17207352
_cell_formula_units_Z   1
loop_
 _symmetry_equiv_pos_site_id
 _symmetry_equiv_pos_as_xyz
  1  'x, y, z'
loop_
 _atom_site_type_symbol
 _atom_site_label
 _atom_site_symmetry_multiplicity
 _atom_site_fract_x
 _atom_site_fract_y
 _atom_site_fract_z
 _atom_site_occupancy
  Na  Na0  1  0.51506300  0.06849000  0.37687700  1
  Na  Na1  1  0.01428600  0.92850300  0.62498300  1
  Na  Na2  1  0.01308000  0.42654700  0.87710400  1
  Na  Na3  1  0.51441200  0.57342200  0.12132800  1
  Al  Al0  1  0.49924700  0.56332900  0.63198700  1
  Al  Al1  1  0.50134300  0.06258000  0.87426800  1
  Al  Al2  1  0.00144000  0.93901900  0.11956800  1
  Fe  Fe0  1  0.00104700  0.43852900  0.37378300  1
  O  O0  1  0.65191900  0.46893100  0.42215900  1
  O  O1  1  0.17061400  0.54036100  0.59248400  1
  O  O2  1  0.17387300  0.03940100  0.92066300  1
  O  O3  1  0.67382900  0.96973500  0.07592200  1
  O  O4  1  0.07519200  0.10719400  0.32638100  1
  O  O5  1  0.57294400  0.87299800  0.67789200  1
  O  O6  1  0.57435900  0.37180200  0.82620700  1
  O  O7  1  0.07535200  0.62915800  0.15839600  1
loop_
_geom_bond_atom_site_label_1
_geom_bond_atom_site_label_2
_geom_bond_distance
_geom_bond_site_symmetry_2
Na0 O0 2.357452 1_555
Na0 O3 2.366500 1_545
Na0 O4 2.382160 1_555
Na0 O5 2.420220 1_545
Na1 O1 2.318150 1_555
Na1 O2 2.350635 1_565
Na1 O4 2.366658 1_565
Na1 O5 2.402573 1_455
Na2 O1 2.281423 1_555
Na2 O7 2.318131 1_556
Na2 O2 2.331077 1_555
Na2 O6 2.386050 1_455
Na3 O0 2.335584 1_555
Na3 O7 2.375807 1_555
Na3 O3 2.376622 1_555
Na3 O6 2.399448 1_554
Al0 O0 1.778915 1_555
Al0 O1 1.778935 1_555
Al0 O6 1.788154 1_555
Al0 O5 1.790034 1_555
Al1 O3 1.780304 1_546
Al1 O2 1.781403 1_555
Al1 O5 1.788938 1_545
Al1 O6 1.790023 1_555
Al2 O2 1.777017 1_564
Al2 O3 1.782163 1_455
Al2 O7 1.783269 1_555
Al2 O4 1.785108 1_565
Fe0 O1 1.885634 1_555
Fe0 O0 1.900391 1_455
Fe0 O7 1.903224 1_555
Fe0 O4 1.907952 1_555
