# generated using pymatgen
data_AlReSi
_symmetry_space_group_name_H-M   'P 1'
_cell_length_a   4.59527219
_cell_length_b   4.59527219
_cell_length_c   4.59527219
_cell_angle_alpha   139.58279124
_cell_angle_beta   139.58279124
_cell_angle_gamma   58.48732178
_symmetry_Int_Tables_number   1
_chemical_formula_structural   AlReSi
_chemical_formula_sum   'Al1 Re1 Si1'
_cell_volume   40.41356258
_cell_formula_units_Z   1
loop_
 _symmetry_equiv_pos_site_id
 _symmetry_equiv_pos_as_xyz
  1  'x, y, z'
loop_
 _atom_site_type_symbol
 _atom_site_label
 _atom_site_symmetry_multiplicity
 _atom_site_fract_x
 _atom_site_fract_y
 _atom_site_fract_z
 _atom_site_occupancy
  Al  Al0  1  0.66663038  0.66663038  0.00000000  1
  Re  Re0  1  0.99264203  0.99264203  0.00000000  1
  Si  Si0  1  0.34072760  0.34072760  -0.00000000  1
loop_
_geom_bond_atom_site_label_1
_geom_bond_atom_site_label_2
_geom_bond_distance
_geom_bond_site_symmetry_2
Al0 Si0 2.613483 1_555
Al0 Re0 2.614356 1_555
Al0 Re0 2.643164 1_444
Al0 Re0 2.643164 1_545
Al0 Re0 2.643164 1_455
Al0 Re0 2.643164 1_556
Al0 Si0 2.643625 1_554
Al0 Si0 2.643625 1_655
Al0 Si0 2.643625 1_666
Al0 Si0 2.643625 1_565
Re0 Si0 2.554151 1_655
Re0 Si0 2.554151 1_666
Re0 Si0 2.554151 1_565
Re0 Si0 2.554151 1_554
Re0 Si0 2.791371 1_665
