# generated using pymatgen
data_Na2CaZr2Si10O27
_symmetry_space_group_name_H-M   'P 1'
_cell_length_a   9.35933607
_cell_length_b   9.35933607
_cell_length_c   19.03028936
_cell_angle_alpha   98.02094811
_cell_angle_beta   98.02094811
_cell_angle_gamma   112.79875806
_symmetry_Int_Tables_number   1
_chemical_formula_structural   Na2CaZr2Si10O27
_chemical_formula_sum   'Na4 Ca2 Zr4 Si20 O54'
_cell_volume   1487.10739413
_cell_formula_units_Z   2
loop_
 _symmetry_equiv_pos_site_id
 _symmetry_equiv_pos_as_xyz
  1  'x, y, z'
loop_
 _atom_site_type_symbol
 _atom_site_label
 _atom_site_symmetry_multiplicity
 _atom_site_fract_x
 _atom_site_fract_y
 _atom_site_fract_z
 _atom_site_occupancy
  Na  Na0  1  0.02813131  0.05046834  0.15345606  1
  Na  Na1  1  0.94953166  0.97186869  0.34654394  1
  Na  Na2  1  0.97186869  0.94953166  0.84654394  1
  Na  Na3  1  0.05046834  0.02813131  0.65345606  1
  Ca  Ca0  1  0.62595385  0.37404615  0.25000000  1
  Ca  Ca1  1  0.37404615  0.62595385  0.75000000  1
  Zr  Zr0  1  0.02480710  0.49493591  0.24455022  1
  Zr  Zr1  1  0.50506409  0.97519290  0.25544978  1
  Zr  Zr2  1  0.97519290  0.50506409  0.75544978  1
  Zr  Zr3  1  0.49493591  0.02480710  0.74455022  1
  Si  Si0  1  0.84409975  0.24271825  0.86308535  1
  Si  Si1  1  0.75728175  0.15590025  0.63691465  1
  Si  Si2  1  0.15590025  0.75728175  0.13691465  1
  Si  Si3  1  0.24271825  0.84409975  0.36308535  1
  Si  Si4  1  0.25258726  0.85523293  0.86266911  1
  Si  Si5  1  0.14476707  0.74741274  0.63733089  1
  Si  Si6  1  0.74741274  0.14476707  0.13733089  1
  Si  Si7  1  0.85523293  0.25258726  0.36266911  1
  Si  Si8  1  0.71123370  0.29734254  0.00143008  1
  Si  Si9  1  0.70265746  0.28876630  0.49856992  1
  Si  Si10  1  0.28876630  0.70265746  0.99856992  1
  Si  Si11  1  0.29734254  0.71123370  0.50143008  1
  Si  Si12  1  0.81347401  0.60196009  0.11975861  1
  Si  Si13  1  0.39803991  0.18652599  0.38024139  1
  Si  Si14  1  0.18652599  0.39803991  0.88024139  1
  Si  Si15  1  0.60196009  0.81347401  0.61975861  1
  Si  Si16  1  0.60193249  0.79155605  0.11610939  1
  Si  Si17  1  0.20844395  0.39806751  0.38389061  1
  Si  Si18  1  0.39806751  0.20844395  0.88389061  1
  Si  Si19  1  0.79155605  0.60193249  0.61610939  1
  O  O0  1  0.66766478  0.65488913  0.11039116  1
  O  O1  1  0.34511087  0.33233522  0.38960884  1
  O  O2  1  0.33233522  0.34511087  0.88960884  1
  O  O3  1  0.65488913  0.66766478  0.61039116  1
  O  O4  1  0.81187071  0.51747561  0.18921981  1
  O  O5  1  0.48252439  0.18812929  0.31078019  1
  O  O6  1  0.18812929  0.48252439  0.81078019  1
  O  O7  1  0.51747561  0.81187071  0.68921981  1
  O  O8  1  0.97807716  0.76634256  0.13035314  1
  O  O9  1  0.23365744  0.02192284  0.36964686  1
  O  O10  1  0.02192284  0.23365744  0.86964686  1
  O  O11  1  0.76634256  0.97807716  0.63035314  1
  O  O12  1  0.79339466  0.48249559  0.04426646  1
  O  O13  1  0.51750441  0.20660534  0.45573354  1
  O  O14  1  0.20660534  0.51750441  0.95573354  1
  O  O15  1  0.48249559  0.79339466  0.54426646  1
  O  O16  1  0.54075784  0.80478164  0.19106851  1
  O  O17  1  0.19521836  0.45924216  0.30893149  1
  O  O18  1  0.45924216  0.19521836  0.80893149  1
  O  O19  1  0.80478164  0.54075784  0.69106851  1
  O  O20  1  0.74916522  0.96455189  0.11812627  1
  O  O21  1  0.03544811  0.25083478  0.38187373  1
  O  O22  1  0.25083478  0.03544811  0.88187373  1
  O  O23  1  0.96455189  0.74916522  0.61812627  1
  O  O24  1  0.46638508  0.74640105  0.04348081  1
  O  O25  1  0.25359895  0.53361492  0.45651919  1
  O  O26  1  0.53361492  0.25359895  0.95651919  1
  O  O27  1  0.74640105  0.46638508  0.54348081  1
  O  O28  1  0.17976791  0.73176573  0.05310343  1
  O  O29  1  0.26823427  0.82023209  0.44689657  1
  O  O30  1  0.82023209  0.26823427  0.94689657  1
  O  O31  1  0.73176573  0.17976791  0.55310343  1
  O  O32  1  0.69497344  0.18274332  0.05902406  1
  O  O33  1  0.81725668  0.30502656  0.44097594  1
  O  O34  1  0.30502656  0.81725668  0.94097594  1
  O  O35  1  0.18274332  0.69497344  0.55902406  1
  O  O36  1  0.85953068  0.39630092  0.82875631  1
  O  O37  1  0.60369908  0.14046932  0.67124369  1
  O  O38  1  0.14046932  0.60369908  0.17124369  1
  O  O39  1  0.39630092  0.85953068  0.32875631  1
  O  O40  1  0.38380038  0.85849628  0.81376252  1
  O  O41  1  0.14150372  0.61619962  0.68623748  1
  O  O42  1  0.61619962  0.14150372  0.18623748  1
  O  O43  1  0.85849628  0.38380038  0.31376252  1
  O  O44  1  0.71434240  0.07442213  0.81418563  1
  O  O45  1  0.92557787  0.28565760  0.68581437  1
  O  O46  1  0.28565760  0.92557787  0.18581437  1
  O  O47  1  0.07442213  0.71434240  0.31418563  1
  O  O48  1  0.93081668  0.25990020  0.17731794  1
  O  O49  1  0.74009980  0.06918332  0.32268206  1
  O  O50  1  0.06918332  0.74009980  0.82268206  1
  O  O51  1  0.25990020  0.93081668  0.67731794  1
  O  O52  1  0.46950071  0.53049929  0.25000000  1
  O  O53  1  0.53049929  0.46950071  0.75000000  1
loop_
_geom_bond_atom_site_label_1
_geom_bond_atom_site_label_2
_geom_bond_distance
_geom_bond_site_symmetry_2
Na0 O20 2.376505 1_445
Na0 O48 2.475588 1_455
Na0 O8 2.476902 1_445
Na1 O21 2.376505 1_665
Na1 O49 2.475588 1_565
Na1 O9 2.476902 1_665
Na2 O22 2.376505 1_665
Na2 O50 2.475588 1_655
Na2 O10 2.476902 1_665
Na3 O23 2.376505 1_445
Na3 O51 2.475588 1_545
Na3 O11 2.476902 1_445
Ca0 O43 2.301242 1_555
Ca0 O42 2.301242 1_555
Ca0 O4 2.313535 1_555
Ca0 O5 2.313535 1_555
Ca0 O52 2.439271 1_555
Ca1 O41 2.301242 1_555
Ca1 O40 2.301242 1_555
Ca1 O7 2.313535 1_555
Ca1 O6 2.313535 1_555
Ca1 O53 2.439271 1_555
O0 Si16 1.617451 1_555
O0 Si12 1.618703 1_555
O1 Si17 1.617451 1_555
O1 Si13 1.618703 1_555
O2 Si18 1.617451 1_555
O2 Si14 1.618703 1_555
O3 Si19 1.617451 1_555
O3 Si15 1.618703 1_555
O4 Si12 1.631203 1_555
O4 Zr0 2.219736 1_655
O5 Si13 1.631203 1_555
O5 Zr1 2.219736 1_545
O6 Si14 1.631203 1_555
O6 Zr2 2.219736 1_455
O7 Si15 1.631203 1_555
O7 Zr3 2.219736 1_565
O8 Si12 1.664607 1_555
O8 Si2 1.687317 1_655
O9 Si13 1.664607 1_555
O9 Si3 1.687317 1_545
O10 Si14 1.664607 1_555
O10 Si0 1.687317 1_455
O11 Si15 1.664607 1_555
O11 Si1 1.687317 1_565
O12 Si8 1.630012 1_555
O12 Si12 1.631853 1_555
O13 Si9 1.630012 1_555
O13 Si13 1.631853 1_555
O14 Si10 1.630012 1_555
O14 Si14 1.631853 1_555
O15 Si11 1.630012 1_555
O15 Si15 1.631853 1_555
O16 Si16 1.616045 1_555
O16 Zr1 2.034293 1_555
O17 Si17 1.616045 1_555
O17 Zr0 2.034293 1_555
O18 Si18 1.616045 1_555
O18 Zr3 2.034293 1_555
O19 Si19 1.616045 1_555
O19 Zr2 2.034293 1_555
O20 Si16 1.661535 1_555
O20 Si6 1.682219 1_565
O21 Si17 1.661535 1_555
O21 Si7 1.682219 1_455
O22 Si18 1.661535 1_555
O22 Si4 1.682219 1_545
O23 Si19 1.661535 1_555
O23 Si5 1.682219 1_655
O24 Si16 1.621883 1_555
O24 Si10 1.624812 1_554
O25 Si17 1.621883 1_555
O25 Si11 1.624812 1_555
O26 Si18 1.621883 1_555
O26 Si8 1.624812 1_556
O27 Si19 1.621883 1_555
O27 Si9 1.624812 1_555
O28 Si10 1.619838 1_554
O28 Si2 1.638683 1_555
O29 Si11 1.619838 1_555
O29 Si3 1.638683 1_555
O30 Si8 1.619838 1_556
O30 Si0 1.638683 1_555
O31 Si9 1.619838 1_555
O31 Si1 1.638683 1_555
O32 Si8 1.619558 1_555
O32 Si6 1.633038 1_555
O33 Si9 1.619558 1_555
O33 Si7 1.633038 1_555
O34 Si10 1.619558 1_555
O34 Si4 1.633038 1_555
O35 Si11 1.619558 1_555
O35 Si5 1.633038 1_555
O36 Si0 1.625228 1_555
O36 Zr2 2.029278 1_555
O37 Si1 1.625228 1_555
O37 Zr3 2.029278 1_555
O38 Si2 1.625228 1_555
O38 Zr0 2.029278 1_555
O39 Si3 1.625228 1_555
O39 Zr1 2.029278 1_555
O40 Si4 1.634971 1_555
O40 Zr3 2.222465 1_565
O41 Si5 1.634971 1_555
O41 Zr2 2.222465 1_455
O42 Si6 1.634971 1_555
O42 Zr1 2.222465 1_545
O43 Si7 1.634971 1_555
O43 Zr0 2.222465 1_655
O44 Si0 1.617087 1_555
O44 Zr3 2.125662 1_555
O45 Si1 1.617087 1_555
O45 Zr2 2.125662 1_555
O46 Si2 1.617087 1_555
O46 Zr1 2.125662 1_555
O47 Si3 1.617087 1_555
O47 Zr0 2.125662 1_555
O48 Si6 1.630911 1_555
O48 Zr0 2.156530 1_655
O49 Si7 1.630911 1_555
O49 Zr1 2.156530 1_545
O50 Si4 1.630911 1_555
O50 Zr2 2.156530 1_455
O51 Si5 1.630911 1_555
O51 Zr3 2.156530 1_565
