# generated using pymatgen
data_LiFe4(PO4)3
_symmetry_space_group_name_H-M   'P 1'
_cell_length_a   6.28343800
_cell_length_b   9.88648200
_cell_length_c   16.53831000
_cell_angle_alpha   90.00000000
_cell_angle_beta   90.00000000
_cell_angle_gamma   90.00000000
_symmetry_Int_Tables_number   1
_chemical_formula_structural   LiFe4(PO4)3
_chemical_formula_sum   'Li4 Fe16 P12 O48'
_cell_volume   1027.37795452
_cell_formula_units_Z   4
loop_
 _symmetry_equiv_pos_site_id
 _symmetry_equiv_pos_as_xyz
  1  'x, y, z'
loop_
 _atom_site_type_symbol
 _atom_site_label
 _atom_site_symmetry_multiplicity
 _atom_site_fract_x
 _atom_site_fract_y
 _atom_site_fract_z
 _atom_site_occupancy
  Li  Li0  1  0.00000000  0.25586500  0.43412000  1
  Li  Li1  1  0.00000000  0.74413500  0.56588000  1
  Li  Li2  1  0.50000000  0.75586500  0.06588000  1
  Li  Li3  1  0.50000000  0.24413500  0.93412000  1
  Fe  Fe0  1  0.00000000  0.54369200  0.09339500  1
  Fe  Fe1  1  0.00000000  0.98714800  0.13542100  1
  Fe  Fe2  1  0.00000000  0.01285200  0.86457900  1
  Fe  Fe3  1  0.00000000  0.45630800  0.90660500  1
  Fe  Fe4  1  0.75163300  0.75362100  0.29955800  1
  Fe  Fe5  1  0.75163300  0.24637900  0.70044200  1
  Fe  Fe6  1  0.74836700  0.25362100  0.20044200  1
  Fe  Fe7  1  0.74836700  0.74637900  0.79955800  1
  Fe  Fe8  1  0.50000000  0.95630800  0.59339500  1
  Fe  Fe9  1  0.50000000  0.04369200  0.40660500  1
  Fe  Fe10  1  0.50000000  0.48714800  0.36457900  1
  Fe  Fe11  1  0.50000000  0.51285200  0.63542100  1
  Fe  Fe12  1  0.25163300  0.25362100  0.20044200  1
  Fe  Fe13  1  0.25163300  0.74637900  0.79955800  1
  Fe  Fe14  1  0.24836700  0.75362100  0.29955800  1
  Fe  Fe15  1  0.24836700  0.24637900  0.70044200  1
  P  P0  1  0.00000000  0.21444900  0.03589800  1
  P  P1  1  0.00000000  0.05026200  0.33650000  1
  P  P2  1  0.00000000  0.46054300  0.28598200  1
  P  P3  1  0.00000000  0.53945700  0.71401800  1
  P  P4  1  0.00000000  0.94973800  0.66350000  1
  P  P5  1  0.00000000  0.78555100  0.96410200  1
  P  P6  1  0.50000000  0.96054300  0.21401800  1
  P  P7  1  0.50000000  0.71444900  0.46410200  1
  P  P8  1  0.50000000  0.28555100  0.53589800  1
  P  P9  1  0.50000000  0.03945700  0.78598200  1
  P  P10  1  0.50000000  0.55026200  0.16350000  1
  P  P11  1  0.50000000  0.44973800  0.83650000  1
  O  O0  1  0.00000000  0.36967400  0.02346200  1
  O  O1  1  0.00000000  0.11785000  0.24884600  1
  O  O2  1  0.00000000  0.40255200  0.19634100  1
  O  O3  1  0.00000000  0.85104000  0.04719200  1
  O  O4  1  0.00000000  0.61715000  0.27969000  1
  O  O5  1  0.00000000  0.10554200  0.67380200  1
  O  O6  1  0.00000000  0.89445800  0.32619800  1
  O  O7  1  0.00000000  0.38285000  0.72031000  1
  O  O8  1  0.00000000  0.14896000  0.95280800  1
  O  O9  1  0.00000000  0.59744800  0.80365900  1
  O  O10  1  0.00000000  0.88215000  0.75115400  1
  O  O11  1  0.00000000  0.63032600  0.97653800  1
  O  O12  1  0.80198200  0.16929400  0.08729300  1
  O  O13  1  0.80198200  0.83070600  0.91270700  1
  O  O14  1  0.80542700  0.89690800  0.61613400  1
  O  O15  1  0.80542700  0.10309200  0.38386600  1
  O  O16  1  0.79735900  0.40236100  0.32548900  1
  O  O17  1  0.79735900  0.59763900  0.67451100  1
  O  O18  1  0.70264100  0.90236100  0.17451100  1
  O  O19  1  0.70264100  0.09763900  0.82548900  1
  O  O20  1  0.69457300  0.39690800  0.88386600  1
  O  O21  1  0.69457300  0.60309200  0.11613400  1
  O  O22  1  0.69801800  0.33070600  0.58729300  1
  O  O23  1  0.69801800  0.66929400  0.41270700  1
  O  O24  1  0.50000000  0.35104000  0.45280800  1
  O  O25  1  0.50000000  0.86967400  0.47653800  1
  O  O26  1  0.50000000  0.13032600  0.52346200  1
  O  O27  1  0.50000000  0.64896000  0.54719200  1
  O  O28  1  0.50000000  0.88285000  0.77969000  1
  O  O29  1  0.50000000  0.60554200  0.82619800  1
  O  O30  1  0.50000000  0.61785000  0.25115400  1
  O  O31  1  0.50000000  0.90255200  0.30365900  1
  O  O32  1  0.50000000  0.09744800  0.69634100  1
  O  O33  1  0.50000000  0.39445800  0.17380200  1
  O  O34  1  0.50000000  0.11715000  0.22031000  1
  O  O35  1  0.50000000  0.38215000  0.74884600  1
  O  O36  1  0.30198200  0.66929400  0.41270700  1
  O  O37  1  0.30198200  0.33070600  0.58729300  1
  O  O38  1  0.30542700  0.60309200  0.11613400  1
  O  O39  1  0.30542700  0.39690800  0.88386600  1
  O  O40  1  0.29735900  0.90236100  0.17451100  1
  O  O41  1  0.29735900  0.09763900  0.82548900  1
  O  O42  1  0.20264100  0.40236100  0.32548900  1
  O  O43  1  0.20264100  0.59763900  0.67451100  1
  O  O44  1  0.19457300  0.10309200  0.38386600  1
  O  O45  1  0.19457300  0.89690800  0.61613400  1
  O  O46  1  0.19801800  0.16929400  0.08729300  1
  O  O47  1  0.19801800  0.83070600  0.91270700  1
loop_
_geom_bond_atom_site_label_1
_geom_bond_atom_site_label_2
_geom_bond_distance
_geom_bond_site_symmetry_2
Li0 O44 2.113467 1_555
Li0 O15 2.113467 1_455
Li0 O42 2.635637 1_555
Li0 O16 2.635637 1_455
Li1 O14 2.113467 1_455
Li1 O45 2.113467 1_555
Li1 O17 2.635637 1_455
Li1 O43 2.635637 1_555
Li2 O21 2.113467 1_555
Li2 O38 2.113467 1_555
Li2 O40 2.635637 1_555
Li2 O18 2.635637 1_555
Li3 O39 2.113467 1_555
Li3 O20 2.113467 1_555
Li3 O41 2.635637 1_555
Li3 O19 2.635637 1_555
Fe0 O21 2.041901 1_455
Fe0 O38 2.041901 1_555
Fe0 O0 2.073048 1_555
Fe0 O11 2.113909 1_554
Fe0 O2 2.201310 1_555
Fe1 O3 1.984909 1_555
Fe1 O18 2.147475 1_455
Fe1 O40 2.147475 1_555
Fe1 O1 2.277845 1_565
Fe1 O46 2.329052 1_565
Fe1 O12 2.329052 1_465
Fe2 O8 1.984909 1_555
Fe2 O41 2.147475 1_555
Fe2 O19 2.147475 1_455
Fe2 O10 2.277845 1_545
Fe2 O47 2.329052 1_545
Fe2 O13 2.329052 1_445
Fe3 O39 2.041901 1_555
Fe3 O20 2.041901 1_455
Fe3 O11 2.073048 1_555
Fe3 O0 2.113909 1_556
Fe3 O9 2.201310 1_555
Fe4 O23 2.076122 1_555
Fe4 O4 2.088977 1_655
Fe4 O6 2.137360 1_655
Fe4 O31 2.161600 1_555
Fe4 O30 2.223182 1_555
Fe4 O18 2.556184 1_555
Fe5 O22 2.076122 1_555
Fe5 O7 2.088977 1_655
Fe5 O5 2.137360 1_655
Fe5 O32 2.161600 1_555
Fe5 O35 2.223182 1_555
Fe5 O19 2.556184 1_555
Fe6 O12 2.076122 1_555
Fe6 O34 2.088977 1_555
Fe6 O33 2.137360 1_555
Fe6 O2 2.161600 1_655
Fe6 O1 2.223182 1_655
Fe6 O16 2.556184 1_555
Fe7 O13 2.076122 1_555
Fe7 O28 2.088977 1_555
Fe7 O29 2.137360 1_555
Fe7 O9 2.161600 1_655
Fe7 O10 2.223182 1_655
Fe7 O17 2.556184 1_555
Fe8 O14 2.041901 1_555
Fe8 O45 2.041901 1_555
Fe8 O26 2.073048 1_565
Fe8 O25 2.113909 1_555
Fe8 O32 2.201310 1_565
Fe9 O15 2.041901 1_555
Fe9 O44 2.041901 1_555
Fe9 O25 2.073048 1_545
Fe9 O26 2.113909 1_555
Fe9 O31 2.201310 1_545
Fe10 O24 1.984909 1_555
Fe10 O42 2.147475 1_555
Fe10 O16 2.147475 1_555
Fe10 O30 2.277845 1_555
Fe10 O23 2.329052 1_555
Fe10 O36 2.329052 1_555
Fe11 O27 1.984909 1_555
Fe11 O17 2.147475 1_555
Fe11 O43 2.147475 1_555
Fe11 O35 2.277845 1_555
Fe11 O22 2.329052 1_555
Fe11 O37 2.329052 1_555
Fe12 O46 2.076122 1_555
Fe12 O34 2.088977 1_555
Fe12 O33 2.137360 1_555
Fe12 O2 2.161600 1_555
Fe12 O1 2.223182 1_555
Fe12 O42 2.556184 1_555
Fe13 O47 2.076122 1_555
Fe13 O28 2.088977 1_555
Fe13 O29 2.137360 1_555
Fe13 O9 2.161600 1_555
Fe13 O10 2.223182 1_555
Fe13 O43 2.556184 1_555
Fe14 O36 2.076122 1_555
Fe14 O4 2.088977 1_555
Fe14 O6 2.137360 1_555
Fe14 O31 2.161600 1_555
Fe14 O30 2.223182 1_555
Fe14 O40 2.556184 1_555
Fe15 O37 2.076122 1_555
Fe15 O7 2.088977 1_555
Fe15 O5 2.137360 1_555
Fe15 O32 2.161600 1_555
Fe15 O35 2.223182 1_555
Fe15 O41 2.556184 1_555
O0 P0 1.548350 1_555
O1 P1 1.596240 1_555
O2 P2 1.589510 1_555
O3 P5 1.519058 1_554
O4 P2 1.551785 1_555
O5 P4 1.549747 1_545
O6 P1 1.549747 1_565
O7 P3 1.551785 1_555
O8 P0 1.519058 1_556
O9 P3 1.589510 1_555
O10 P4 1.596240 1_555
O11 P5 1.548350 1_555
O12 P0 1.571588 1_655
O13 P5 1.571588 1_655
O14 P4 1.543102 1_655
O15 P1 1.543102 1_655
O16 P2 1.542409 1_655
O17 P3 1.542409 1_655
O18 P6 1.542409 1_555
O19 P9 1.542409 1_555
O20 P11 1.543102 1_555
O21 P10 1.543102 1_555
O22 P8 1.571588 1_555
O23 P7 1.571588 1_555
O24 P8 1.519058 1_555
O25 P7 1.548350 1_555
O26 P8 1.548350 1_555
O27 P7 1.519058 1_555
O28 P9 1.551785 1_565
O29 P11 1.549747 1_555
O30 P10 1.596240 1_555
O31 P6 1.589510 1_555
O32 P9 1.589510 1_555
O33 P10 1.549747 1_555
O34 P6 1.551785 1_545
O35 P11 1.596240 1_555
O36 P7 1.571588 1_555
O37 P8 1.571588 1_555
O38 P10 1.543102 1_555
O39 P11 1.543102 1_555
O40 P6 1.542409 1_555
O41 P9 1.542409 1_555
O42 P2 1.542409 1_555
O43 P3 1.542409 1_555
O44 P1 1.543102 1_555
O45 P4 1.543102 1_555
O46 P0 1.571588 1_555
O47 P5 1.571588 1_555
