# generated using pymatgen
data_La2Fe2O5
_symmetry_space_group_name_H-M   'P 1'
_cell_length_a   5.56113829
_cell_length_b   5.90680951
_cell_length_c   8.89982398
_cell_angle_alpha   70.56196905
_cell_angle_beta   71.44730111
_cell_angle_gamma   89.50138223
_symmetry_Int_Tables_number   1
_chemical_formula_structural   La2Fe2O5
_chemical_formula_sum   'La4 Fe4 O10'
_cell_volume   259.80774438
_cell_formula_units_Z   2
loop_
 _symmetry_equiv_pos_site_id
 _symmetry_equiv_pos_as_xyz
  1  'x, y, z'
loop_
 _atom_site_type_symbol
 _atom_site_label
 _atom_site_symmetry_multiplicity
 _atom_site_fract_x
 _atom_site_fract_y
 _atom_site_fract_z
 _atom_site_occupancy
  La  La0  1  0.38300400  0.90264400  0.22375100  1
  La  La1  1  0.60316500  0.09765600  0.77609000  1
  La  La2  1  0.88111300  0.37324400  0.22340700  1
  La  La3  1  0.10539300  0.62779600  0.77699200  1
  Fe  Fe0  1  0.00731500  0.00001500  0.99956100  1
  Fe  Fe1  1  0.50761200  0.49970900  0.00001700  1
  Fe  Fe2  1  0.72555500  0.70929400  0.49999100  1
  Fe  Fe3  1  0.22444600  0.29171300  0.50029500  1
  O  O0  1  0.34448500  0.63468600  0.50044500  1
  O  O1  1  0.84296600  0.36391400  0.49964500  1
  O  O2  1  0.27271900  0.28225100  0.95429400  1
  O  O3  1  0.22547000  0.72220800  0.04522700  1
  O  O4  1  0.77299000  0.26312600  0.95426900  1
  O  O5  1  0.72449300  0.73236400  0.04574600  1
  O  O6  1  0.91127800  0.95169500  0.28029100  1
  O  O7  1  0.19226500  0.04832800  0.71989400  1
  O  O8  1  0.41092500  0.26709100  0.28049700  1
  O  O9  1  0.69280500  0.73227000  0.71958800  1
loop_
_geom_bond_atom_site_label_1
_geom_bond_atom_site_label_2
_geom_bond_distance
_geom_bond_site_symmetry_2
La0 O0 2.385618 1_555
La0 O8 2.385935 1_565
La0 O5 2.498130 1_555
La0 O3 2.541042 1_555
La0 O6 2.542208 1_455
La0 O4 2.891535 1_564
La0 O2 2.913409 1_564
La0 O6 3.165504 1_555
La1 O1 2.382914 1_555
La1 O9 2.388218 1_545
La1 O2 2.518469 1_555
La1 O4 2.522410 1_555
La1 O7 2.528323 1_555
La1 O3 2.900219 1_546
La1 O5 2.903274 1_546
La2 O1 2.381230 1_555
La2 O6 2.385863 1_545
La2 O5 2.523930 1_555
La2 O3 2.528131 1_655
La2 O8 2.541547 1_555
La2 O2 2.878394 1_654
La2 O4 2.912435 1_554
La2 O8 3.168719 1_655
La3 O0 2.383058 1_555
La3 O7 2.384620 1_565
La3 O2 2.505887 1_555
La3 O9 2.533343 1_455
La3 O4 2.549046 1_455
La3 O5 2.885458 1_456
La3 O3 2.891856 1_556
La3 O9 3.174313 1_555
Fe0 O4 2.039121 1_455
Fe0 O3 2.040825 1_546
Fe0 O2 2.082647 1_555
Fe0 O5 2.083628 1_446
Fe0 O7 2.288594 1_555
Fe0 O6 2.299532 1_446
Fe1 O5 2.054834 1_555
Fe1 O2 2.058442 1_554
Fe1 O4 2.063266 1_554
Fe1 O3 2.065274 1_555
Fe1 O9 2.298621 1_554
Fe1 O8 2.298718 1_555
Fe2 O6 1.953786 1_555
Fe2 O9 1.954678 1_555
Fe2 O1 2.137297 1_555
Fe2 O0 2.166745 1_555
Fe3 O8 1.954223 1_555
Fe3 O7 1.957115 1_555
Fe3 O0 2.139091 1_555
Fe3 O1 2.161699 1_455
