# generated using pymatgen
data_RbNaMg6
_symmetry_space_group_name_H-M   'P 1'
_cell_length_a   5.43635700
_cell_length_b   7.15601300
_cell_length_c   12.04807600
_cell_angle_alpha   90.00000000
_cell_angle_beta   90.00000000
_cell_angle_gamma   90.00000000
_symmetry_Int_Tables_number   1
_chemical_formula_structural   RbNaMg6
_chemical_formula_sum   'Rb2 Na2 Mg12'
_cell_volume   468.70197976
_cell_formula_units_Z   2
loop_
 _symmetry_equiv_pos_site_id
 _symmetry_equiv_pos_as_xyz
  1  'x, y, z'
loop_
 _atom_site_type_symbol
 _atom_site_label
 _atom_site_symmetry_multiplicity
 _atom_site_fract_x
 _atom_site_fract_y
 _atom_site_fract_z
 _atom_site_occupancy
  Rb  Rb0  1  0.50000000  0.50000000  0.17288500  1
  Rb  Rb1  1  0.50000000  0.00000000  0.67288500  1
  Na  Na0  1  0.00000000  0.50000000  0.34062600  1
  Na  Na1  1  0.00000000  0.00000000  0.84062600  1
  Mg  Mg0  1  0.00000000  0.22099200  0.07284300  1
  Mg  Mg1  1  0.00000000  0.77900800  0.07284300  1
  Mg  Mg2  1  0.00000000  0.50000000  0.83271900  1
  Mg  Mg3  1  0.50000000  0.26075900  0.92273300  1
  Mg  Mg4  1  0.50000000  0.73924100  0.92273300  1
  Mg  Mg5  1  0.50000000  0.50000000  0.66261900  1
  Mg  Mg6  1  0.00000000  0.72099200  0.57284300  1
  Mg  Mg7  1  0.00000000  0.27900800  0.57284300  1
  Mg  Mg8  1  0.00000000  0.00000000  0.33271900  1
  Mg  Mg9  1  0.50000000  0.76075900  0.42273300  1
  Mg  Mg10  1  0.50000000  0.23924100  0.42273300  1
  Mg  Mg11  1  0.50000000  0.00000000  0.16261900  1
loop_
_geom_bond_atom_site_label_1
_geom_bond_atom_site_label_2
_geom_bond_distance
_geom_bond_site_symmetry_2
Na0 Rb0 3.387146 1_455
Na0 Rb0 3.387146 1_555
Na1 Rb1 3.387146 1_555
Na1 Rb1 3.387146 1_455
Mg0 Mg1 3.162843 1_545
Mg0 Na1 3.213783 1_554
Mg0 Mg3 3.277237 1_554
Mg0 Mg3 3.277237 1_454
Mg0 Mg11 3.325554 1_555
Mg0 Mg11 3.325554 1_455
Mg0 Mg8 3.507719 1_555
Mg0 Mg2 3.515108 1_554
Mg0 Rb0 3.581568 1_455
Mg0 Rb0 3.581568 1_555
Mg0 Na0 3.794097 1_555
Mg1 Na1 3.213783 1_564
Mg1 Mg4 3.277237 1_554
Mg1 Mg4 3.277237 1_454
Mg1 Mg11 3.325554 1_465
Mg1 Mg11 3.325554 1_565
Mg1 Mg8 3.507719 1_565
Mg1 Mg2 3.515108 1_554
Mg1 Rb0 3.581568 1_455
Mg1 Rb0 3.581568 1_555
Mg1 Na0 3.794097 1_555
Mg2 Mg3 3.390518 1_455
Mg2 Mg3 3.390518 1_555
Mg2 Mg4 3.390518 1_555
Mg2 Mg4 3.390518 1_455
Mg2 Mg5 3.404180 1_455
Mg2 Mg5 3.404180 1_555
Mg2 Mg6 3.507719 1_555
Mg2 Mg7 3.507719 1_555
Mg2 Na1 3.579274 1_565
Mg2 Na1 3.579274 1_555
Mg3 Na1 3.442239 1_655
Mg3 Na1 3.442239 1_555
Mg3 Rb0 3.466162 1_556
Mg3 Rb1 3.541633 1_555
Mg3 Mg5 3.571015 1_555
Mg4 Na1 3.442239 1_665
Mg4 Na1 3.442239 1_565
Mg4 Rb0 3.466162 1_556
Mg4 Rb1 3.541633 1_565
Mg4 Mg5 3.571015 1_555
Mg5 Mg6 3.325554 1_655
Mg5 Mg7 3.325554 1_555
Mg5 Mg7 3.325554 1_655
Mg5 Mg6 3.325554 1_555
Mg5 Mg9 3.440202 1_555
Mg5 Rb1 3.580144 1_565
Mg5 Rb1 3.580144 1_555
Mg6 Mg7 3.162843 1_555
Mg6 Na0 3.213783 1_555
Mg6 Mg9 3.277237 1_455
Mg6 Mg9 3.277237 1_555
Mg6 Mg8 3.515108 1_565
Mg6 Rb1 3.581568 1_465
Mg6 Rb1 3.581568 1_565
Mg6 Na1 3.794097 1_565
Mg7 Na0 3.213783 1_555
Mg7 Mg8 3.515108 1_555
Mg7 Rb1 3.581568 1_455
Mg7 Rb1 3.581568 1_555
Mg7 Na1 3.794097 1_555
Mg8 Mg9 3.390518 1_545
Mg8 Mg9 3.390518 1_445
Mg8 Na0 3.579274 1_555
Mg8 Na0 3.579274 1_545
Mg9 Na0 3.442239 1_555
Mg9 Na0 3.442239 1_655
Mg9 Rb1 3.466162 1_565
Mg9 Rb0 3.541633 1_555
Mg10 Mg7 3.277237 1_555
Mg10 Mg7 3.277237 1_655
Mg10 Mg8 3.390518 1_555
Mg10 Mg8 3.390518 1_655
Mg10 Mg5 3.440202 1_555
Mg10 Na0 3.442239 1_555
Mg10 Na0 3.442239 1_655
Mg10 Rb1 3.466162 1_555
Mg10 Rb0 3.541633 1_555
Mg10 Mg11 3.571015 1_555
Mg11 Mg8 3.404180 1_555
Mg11 Mg8 3.404180 1_655
Mg11 Mg4 3.440202 1_544
Mg11 Mg3 3.440202 1_554
Mg11 Mg9 3.571015 1_545
Mg11 Rb0 3.580144 1_545
Mg11 Rb0 3.580144 1_555
