# generated using pymatgen
data_Al7Te10
_symmetry_space_group_name_H-M   'P 1'
_cell_length_a   10.41812321
_cell_length_b   10.41812400
_cell_length_c   10.41812361
_cell_angle_alpha   89.68391180
_cell_angle_beta   89.68390801
_cell_angle_gamma   89.68391504
_symmetry_Int_Tables_number   1
_chemical_formula_structural   Al7Te10
_chemical_formula_sum   'Al14 Te20'
_cell_volume   1130.70356933
_cell_formula_units_Z   2
loop_
 _symmetry_equiv_pos_site_id
 _symmetry_equiv_pos_as_xyz
  1  'x, y, z'
loop_
 _atom_site_type_symbol
 _atom_site_label
 _atom_site_symmetry_multiplicity
 _atom_site_fract_x
 _atom_site_fract_y
 _atom_site_fract_z
 _atom_site_occupancy
  Al  Al0  1  0.88793960  0.84707529  0.57793984  1
  Al  Al1  1  0.84707529  0.57793984  0.88793960  1
  Al  Al2  1  0.57793984  0.88793960  0.84707529  1
  Al  Al3  1  0.42206016  0.15292471  0.11206040  1
  Al  Al4  1  0.15292471  0.11206040  0.42206016  1
  Al  Al5  1  0.11206040  0.42206016  0.15292471  1
  Al  Al6  1  0.16468737  0.74375691  0.34454514  1
  Al  Al7  1  0.74375691  0.34454514  0.16468737  1
  Al  Al8  1  0.34454514  0.16468737  0.74375691  1
  Al  Al9  1  0.65545486  0.25624309  0.83531263  1
  Al  Al10  1  0.25624309  0.83531263  0.65545486  1
  Al  Al11  1  0.83531263  0.65545486  0.25624309  1
  Al  Al12  1  0.57175321  0.57175321  0.57175321  1
  Al  Al13  1  0.42824679  0.42824679  0.42824679  1
  Te  Te0  1  0.92397872  0.42476741  0.32722215  1
  Te  Te1  1  0.32722215  0.92397872  0.42476741  1
  Te  Te2  1  0.42476741  0.32722215  0.92397872  1
  Te  Te3  1  0.57523259  0.07602128  0.67277785  1
  Te  Te4  1  0.67277785  0.57523259  0.07602128  1
  Te  Te5  1  0.07602128  0.67277785  0.57523259  1
  Te  Te6  1  0.69117170  0.75883760  0.43966508  1
  Te  Te7  1  0.75883760  0.43966508  0.69117170  1
  Te  Te8  1  0.43966508  0.69117170  0.75883760  1
  Te  Te9  1  0.56033492  0.24116240  0.30882830  1
  Te  Te10  1  0.24116240  0.30882830  0.56033492  1
  Te  Te11  1  0.30882830  0.56033492  0.24116240  1
  Te  Te12  1  0.08080598  0.50000000  0.91919402  1
  Te  Te13  1  0.50000000  0.91919402  0.08080598  1
  Te  Te14  1  0.91919402  0.08080598  0.50000000  1
  Te  Te15  1  0.17939575  0.00000000  0.82060425  1
  Te  Te16  1  -0.00000000  0.82060425  0.17939575  1
  Te  Te17  1  0.82060425  0.17939575  0.00000000  1
  Te  Te18  1  0.82844792  0.82844792  0.82844792  1
  Te  Te19  1  0.17155208  0.17155208  0.17155208  1
loop_
_geom_bond_atom_site_label_1
_geom_bond_atom_site_label_2
_geom_bond_distance
_geom_bond_site_symmetry_2
Al0 Te14 2.584329 1_565
Al0 Te5 2.664261 1_655
Al0 Te6 2.681524 1_555
Al0 Te18 2.685307 1_555
Al1 Te12 2.584329 1_655
Al1 Te4 2.664261 1_556
Al1 Te7 2.681525 1_555
Al1 Te18 2.685307 1_555
Al2 Te13 2.584329 1_556
Al2 Te3 2.664261 1_565
Al2 Te8 2.681525 1_555
Al2 Te18 2.685307 1_555
Al3 Te13 2.584329 1_545
Al3 Te2 2.664261 1_554
Al3 Te9 2.681525 1_555
Al3 Te19 2.685307 1_555
Al4 Te14 2.584329 1_455
Al4 Te1 2.664261 1_545
Al4 Te10 2.681525 1_555
Al4 Te19 2.685307 1_555
Al5 Te12 2.584329 1_554
Al5 Te0 2.664261 1_455
Al5 Te11 2.681524 1_555
Al5 Te19 2.685307 1_555
Al6 Te16 2.558751 1_555
Al6 Te11 2.653276 1_555
Al6 Te5 2.671990 1_555
Al6 Te1 2.675646 1_555
Al7 Te17 2.558751 1_555
Al7 Te9 2.653276 1_555
Al7 Te4 2.671990 1_555
Al7 Te0 2.675646 1_555
Al8 Te15 2.558751 1_555
Al8 Te10 2.653276 1_555
Al8 Te3 2.671990 1_555
Al8 Te2 2.675646 1_555
Al9 Te17 2.558751 1_556
Al9 Te7 2.653276 1_555
Al9 Te2 2.671990 1_555
Al9 Te3 2.675646 1_555
Al10 Te15 2.558751 1_565
Al10 Te8 2.653276 1_555
Al10 Te1 2.671990 1_555
Al10 Te5 2.675646 1_555
Al11 Te16 2.558751 1_655
Al11 Te6 2.653276 1_555
Al11 Te0 2.671990 1_555
Al11 Te4 2.675646 1_555
Al12 Al13 2.603780 1_555
Al12 Te6 2.686754 1_555
Al12 Te8 2.686754 1_555
Al12 Te7 2.686754 1_555
Al13 Te10 2.686753 1_555
Al13 Te9 2.686754 1_555
Al13 Te11 2.686754 1_555
