# generated using pymatgen
data_KDyBeF6
_symmetry_space_group_name_H-M   'P 1'
_cell_length_a   5.86026100
_cell_length_b   6.43438054
_cell_length_c   7.11590034
_cell_angle_alpha   113.05333597
_cell_angle_beta   90.00000000
_cell_angle_gamma   90.00000000
_symmetry_Int_Tables_number   1
_chemical_formula_structural   KDyBeF6
_chemical_formula_sum   'K2 Dy2 Be2 F12'
_cell_volume   246.89245151
_cell_formula_units_Z   2
loop_
 _symmetry_equiv_pos_site_id
 _symmetry_equiv_pos_as_xyz
  1  'x, y, z'
loop_
 _atom_site_type_symbol
 _atom_site_label
 _atom_site_symmetry_multiplicity
 _atom_site_fract_x
 _atom_site_fract_y
 _atom_site_fract_z
 _atom_site_occupancy
  K  K0  1  0.75000000  0.07130100  0.20340800  1
  K  K1  1  0.25000000  0.92869900  0.79659200  1
  Dy  Dy0  1  0.75000000  0.38828000  0.81972300  1
  Dy  Dy1  1  0.25000000  0.61172000  0.18027700  1
  Be  Be0  1  0.75000000  0.76705500  0.53575100  1
  Be  Be1  1  0.25000000  0.23294500  0.46424900  1
  F  F0  1  0.96521000  0.76718900  0.40504700  1
  F  F1  1  0.03479000  0.23281100  0.59495300  1
  F  F2  1  0.46521000  0.23281100  0.59495300  1
  F  F3  1  0.53479000  0.76718900  0.40504700  1
  F  F4  1  0.75000000  0.55867100  0.59185500  1
  F  F5  1  0.25000000  0.44132900  0.40814500  1
  F  F6  1  0.99860400  0.67982100  0.96570500  1
  F  F7  1  0.00139600  0.32017900  0.03429500  1
  F  F8  1  0.49860400  0.32017900  0.03429500  1
  F  F9  1  0.50139600  0.67982100  0.96570500  1
  F  F10  1  0.75000000  0.98843600  0.73617700  1
  F  F11  1  0.25000000  0.01156400  0.26382300  1
loop_
_geom_bond_atom_site_label_1
_geom_bond_atom_site_label_2
_geom_bond_distance
_geom_bond_site_symmetry_2
Dy0 F2 2.256369 1_555
Dy0 F1 2.256369 1_655
Dy0 F9 2.279125 1_555
Dy0 F6 2.279125 1_555
Dy0 F7 2.284249 1_656
Dy0 F8 2.284249 1_556
Dy0 F4 2.285498 1_555
Dy0 F10 2.403039 1_545
Dy1 F3 2.256369 1_555
Dy1 F0 2.256369 1_455
Dy1 F7 2.279125 1_555
Dy1 F8 2.279125 1_555
Dy1 F6 2.284249 1_454
Dy1 F9 2.284249 1_554
Dy1 F5 2.285498 1_555
Dy1 F11 2.403039 1_565
Be0 F4 1.541564 1_555
Be0 F0 1.567247 1_555
Be0 F3 1.567247 1_555
Be0 F10 1.572279 1_555
Be1 F5 1.541564 1_555
Be1 F2 1.567247 1_555
Be1 F1 1.567247 1_555
Be1 F11 1.572279 1_555
F0 K1 3.059505 1_655
F0 K0 3.110822 1_565
F1 K0 3.059505 1_455
F1 K1 3.110822 1_545
F2 K0 3.059505 1_555
F2 K1 3.110822 1_545
F3 K1 3.059505 1_555
F3 K0 3.110822 1_565
F4 K0 3.268922 1_555
F5 K1 3.268922 1_555
F6 K1 2.773491 1_655
F6 K0 2.826964 1_566
F7 K0 2.773491 1_455
F7 K1 2.826964 1_544
F8 K0 2.773491 1_555
F8 K1 2.826964 1_544
F9 K1 2.773491 1_555
F9 K0 2.826964 1_566
F10 K1 3.007930 1_555
F10 K1 3.007930 1_655
F10 K0 3.154366 1_566
F11 K0 3.007930 1_455
F11 K0 3.007930 1_555
F11 K1 3.154366 1_544
