# generated using pymatgen
data_Pr2Al2CuNi
_symmetry_space_group_name_H-M   'P 1'
_cell_length_a   4.23990200
_cell_length_b   7.17278801
_cell_length_c   12.07965532
_cell_angle_alpha   89.89006374
_cell_angle_beta   90.00000000
_cell_angle_gamma   90.00000000
_symmetry_Int_Tables_number   1
_chemical_formula_structural   Pr2Al2CuNi
_chemical_formula_sum   'Pr6 Al6 Cu3 Ni3'
_cell_volume   367.36481358
_cell_formula_units_Z   3
loop_
 _symmetry_equiv_pos_site_id
 _symmetry_equiv_pos_as_xyz
  1  'x, y, z'
loop_
 _atom_site_type_symbol
 _atom_site_label
 _atom_site_symmetry_multiplicity
 _atom_site_fract_x
 _atom_site_fract_y
 _atom_site_fract_z
 _atom_site_occupancy
  Pr  Pr0  1  0.50000000  0.08392000  0.49577400  1
  Pr  Pr1  1  0.50000000  0.58808700  0.00144200  1
  Pr  Pr2  1  0.50000000  0.20039100  0.21001600  1
  Pr  Pr3  1  0.50000000  0.70897800  0.70665200  1
  Pr  Pr4  1  0.50000000  0.71523700  0.29449400  1
  Pr  Pr5  1  0.50000000  0.20689800  0.79268900  1
  Al  Al0  1  0.00000000  0.72407800  0.49789500  1
  Al  Al1  1  0.00000000  0.22250500  0.00029500  1
  Al  Al2  1  0.00000000  0.38633200  0.38798500  1
  Al  Al3  1  0.00000000  0.88867100  0.88907800  1
  Al  Al4  1  0.00000000  0.89070700  0.11361000  1
  Al  Al5  1  0.00000000  0.38828700  0.61070100  1
  Cu  Cu0  1  0.00000000  0.49837000  0.83292800  1
  Cu  Cu1  1  0.00000000  0.49721800  0.16883300  1
  Cu  Cu2  1  0.00000000  0.00046500  0.66581900  1
  Ni  Ni0  1  0.50000000  0.00085300  0.99996300  1
  Ni  Ni1  1  0.50000000  0.50112100  0.50000300  1
  Ni  Ni2  1  0.00000000  0.99768100  0.33182100  1
loop_
_geom_bond_atom_site_label_1
_geom_bond_atom_site_label_2
_geom_bond_distance
_geom_bond_site_symmetry_2
Al0 Ni1 2.655598 1_455
Al0 Ni1 2.655598 1_555
Al0 Al2 2.764771 1_555
Al0 Al5 2.765030 1_555
Al0 Ni2 2.803710 1_555
Al0 Cu2 2.839061 1_565
Al0 Pr4 3.245879 1_455
Al0 Pr4 3.245879 1_555
Al0 Pr3 3.296045 1_555
Al0 Pr3 3.296045 1_455
Al0 Pr0 3.340138 1_565
Al0 Pr0 3.340138 1_465
Al1 Ni0 2.649886 1_554
Al1 Ni0 2.649886 1_454
Al1 Al4 2.743198 1_545
Al1 Al3 2.747902 1_544
Al1 Cu0 2.826199 1_554
Al1 Cu1 2.836003 1_555
Al1 Pr5 3.285865 1_554
Al1 Pr5 3.285865 1_454
Al1 Pr2 3.306918 1_555
Al1 Pr2 3.306918 1_455
Al1 Pr1 3.372044 1_555
Al1 Pr1 3.372044 1_455
Al2 Ni1 2.647144 1_555
Al2 Ni1 2.647144 1_455
Al2 Al5 2.690396 1_555
Al2 Cu1 2.762719 1_555
Al2 Ni2 2.870344 1_545
Al2 Pr0 3.299069 1_455
Al2 Pr0 3.299069 1_555
Al2 Pr2 3.302370 1_455
Al2 Pr2 3.302370 1_555
Al2 Pr4 3.365269 1_555
Al2 Pr4 3.365269 1_455
Al3 Ni0 2.634376 1_465
Al3 Ni0 2.634376 1_565
Al3 Al4 2.712337 1_556
Al3 Cu2 2.812104 1_565
Al3 Cu0 2.881805 1_555
Al3 Pr1 3.312661 1_556
Al3 Pr1 3.312661 1_456
Al3 Pr3 3.320000 1_455
Al3 Pr3 3.320000 1_555
Al3 Pr5 3.324130 1_565
Al3 Pr5 3.324130 1_465
Al4 Ni0 2.645532 1_564
Al4 Ni0 2.645532 1_464
Al4 Ni2 2.746735 1_555
Al4 Cu1 2.898927 1_555
Al4 Pr2 3.285493 1_465
Al4 Pr2 3.285493 1_565
Al4 Pr4 3.292724 1_455
Al4 Pr4 3.292724 1_555
Al4 Pr1 3.324605 1_555
Al4 Pr1 3.324605 1_455
Al5 Ni1 2.633087 1_455
Al5 Ni1 2.633087 1_555
Al5 Cu0 2.799597 1_555
Al5 Cu2 2.859092 1_555
Al5 Pr5 3.317942 1_455
Al5 Pr5 3.317942 1_555
Al5 Pr3 3.337510 1_455
Al5 Pr3 3.337510 1_555
Al5 Pr0 3.346540 1_455
Al5 Pr0 3.346540 1_555
Cu0 Pr1 3.009480 1_456
Cu0 Pr1 3.009480 1_556
Cu0 Pr3 3.015652 1_455
Cu0 Pr3 3.015652 1_555
Cu0 Pr5 3.017490 1_555
Cu0 Pr5 3.017490 1_455
Cu1 Pr1 3.000424 1_455
Cu1 Pr1 3.000424 1_555
Cu1 Pr4 3.041863 1_555
Cu1 Pr4 3.041863 1_455
Cu1 Pr2 3.044763 1_455
Cu1 Pr2 3.044763 1_555
Cu2 Pr5 3.007336 1_455
Cu2 Pr5 3.007336 1_555
Cu2 Pr0 3.011157 1_455
Cu2 Pr0 3.011157 1_555
Cu2 Pr3 3.017427 1_545
Cu2 Pr3 3.017427 1_445
Ni0 Pr5 2.905004 1_555
Ni0 Pr2 2.915584 1_556
Ni0 Pr1 2.960703 1_546
Ni1 Pr3 2.910045 1_555
Ni1 Pr4 2.916637 1_555
Ni1 Pr0 2.993028 1_555
Ni2 Pr2 2.960573 1_565
Ni2 Pr2 2.960573 1_465
Ni2 Pr0 2.967135 1_465
Ni2 Pr0 2.967135 1_565
Ni2 Pr4 2.967376 1_555
Ni2 Pr4 2.967376 1_455
