# generated using pymatgen
data_K2U2Cr2O15F2
_symmetry_space_group_name_H-M   'P 1'
_cell_length_a   9.57682706
_cell_length_b   13.11271454
_cell_length_c   13.48816833
_cell_angle_alpha   101.49072726
_cell_angle_beta   90.00000000
_cell_angle_gamma   90.00000000
_symmetry_Int_Tables_number   1
_chemical_formula_structural   K2U2Cr2O15F2
_chemical_formula_sum   'K8 U8 Cr8 O60 F8'
_cell_volume   1659.87058843
_cell_formula_units_Z   4
loop_
 _symmetry_equiv_pos_site_id
 _symmetry_equiv_pos_as_xyz
  1  'x, y, z'
loop_
 _atom_site_type_symbol
 _atom_site_label
 _atom_site_symmetry_multiplicity
 _atom_site_fract_x
 _atom_site_fract_y
 _atom_site_fract_z
 _atom_site_occupancy
  K  K0  1  0.85037394  0.07452451  0.41941672  1
  K  K1  1  0.35037394  0.42547549  0.58058328  1
  K  K2  1  0.14962606  0.92547549  0.58058328  1
  K  K3  1  0.64962606  0.57452451  0.41941672  1
  K  K4  1  0.12050288  0.67382529  0.01807749  1
  K  K5  1  0.62050288  0.82617471  0.98192251  1
  K  K6  1  0.87949712  0.32617471  0.98192251  1
  K  K7  1  0.37949712  0.17382529  0.01807749  1
  U  U0  1  0.17607356  0.93100665  0.25357991  1
  U  U1  1  0.67607356  0.56899335  0.74642009  1
  U  U2  1  0.82392644  0.06899335  0.74642009  1
  U  U3  1  0.32392644  0.43100665  0.25357991  1
  U  U4  1  0.81042505  0.79010312  0.25236230  1
  U  U5  1  0.31042505  0.70989688  0.74763770  1
  U  U6  1  0.18957495  0.20989688  0.74763770  1
  U  U7  1  0.68957495  0.29010312  0.25236230  1
  Cr  Cr0  1  0.95239635  0.51878430  0.22493457  1
  Cr  Cr1  1  0.45239635  0.98121570  0.77506543  1
  Cr  Cr2  1  0.04760365  0.48121570  0.77506543  1
  Cr  Cr3  1  0.54760365  0.01878430  0.22493457  1
  Cr  Cr4  1  0.06300727  0.20892359  0.22066015  1
  Cr  Cr5  1  0.56300727  0.29107641  0.77933985  1
  Cr  Cr6  1  0.93699273  0.79107641  0.77933985  1
  Cr  Cr7  1  0.43699273  0.70892359  0.22066015  1
  O  O0  1  0.13328029  0.97377038  0.38796655  1
  O  O1  1  0.63328029  0.52622962  0.61203345  1
  O  O2  1  0.86671971  0.02622962  0.61203345  1
  O  O3  1  0.36671971  0.47377038  0.38796655  1
  O  O4  1  0.20715287  0.88482048  0.11929262  1
  O  O5  1  0.70715287  0.61517952  0.88070738  1
  O  O6  1  0.79284713  0.11517952  0.88070738  1
  O  O7  1  0.29284713  0.38482048  0.11929262  1
  O  O8  1  0.81681243  0.84645864  0.38730089  1
  O  O9  1  0.31681243  0.65354136  0.61269911  1
  O  O10  1  0.18318757  0.15354136  0.61269911  1
  O  O11  1  0.68318757  0.34645864  0.38730089  1
  O  O12  1  0.80894801  0.73889242  0.11679537  1
  O  O13  1  0.30894801  0.76110758  0.88320463  1
  O  O14  1  0.19105199  0.26110758  0.88320463  1
  O  O15  1  0.69105199  0.23889242  0.11679537  1
  O  O16  1  0.86372928  0.62504118  0.28470431  1
  O  O17  1  0.36372928  0.87495882  0.71529569  1
  O  O18  1  0.13627072  0.37495882  0.71529569  1
  O  O19  1  0.63627072  0.12504118  0.28470431  1
  O  O20  1  0.10574505  0.51053798  0.28213772  1
  O  O21  1  0.60574505  0.98946202  0.71786228  1
  O  O22  1  0.89425495  0.48946202  0.71786228  1
  O  O23  1  0.39425495  0.01053798  0.28213772  1
  O  O24  1  0.85654153  0.41216608  0.22842980  1
  O  O25  1  0.35654153  0.08783392  0.77157020  1
  O  O26  1  0.14345847  0.58783392  0.77157020  1
  O  O27  1  0.64345847  0.91216608  0.22842980  1
  O  O28  1  0.98067106  0.52464835  0.10800163  1
  O  O29  1  0.48067106  0.97535165  0.89199837  1
  O  O30  1  0.01932894  0.47535165  0.89199837  1
  O  O31  1  0.51932894  0.02464835  0.10800163  1
  O  O32  1  0.16459835  0.30492899  0.28392288  1
  O  O33  1  0.66459835  0.19507101  0.71607712  1
  O  O34  1  0.83540165  0.69507101  0.71607712  1
  O  O35  1  0.33540165  0.80492899  0.28392288  1
  O  O36  1  0.90393486  0.21214345  0.27590831  1
  O  O37  1  0.40393486  0.28785655  0.72409169  1
  O  O38  1  0.09606514  0.78785655  0.72409169  1
  O  O39  1  0.59606514  0.71214345  0.27590831  1
  O  O40  1  0.14014332  0.09454342  0.22316655  1
  O  O41  1  0.64014332  0.40545658  0.77683345  1
  O  O42  1  0.85985668  0.90545658  0.77683345  1
  O  O43  1  0.35985668  0.59454342  0.22316655  1
  O  O44  1  0.04846579  0.22171472  0.10457689  1
  O  O45  1  0.54846579  0.27828528  0.89542311  1
  O  O46  1  0.95153421  0.77828528  0.89542311  1
  O  O47  1  0.45153421  0.72171472  0.10457689  1
  O  O48  1  0.35093439  0.51004395  0.96309541  1
  O  O49  1  0.85093439  0.98995605  0.03690459  1
  O  O50  1  0.64906561  0.48995605  0.03690459  1
  O  O51  1  0.14906561  0.01004395  0.96309541  1
  O  O52  1  0.52262009  0.04412420  0.50309170  1
  O  O53  1  0.02262009  0.45587580  0.49690830  1
  O  O54  1  0.47737991  0.95587580  0.49690830  1
  O  O55  1  0.97737991  0.54412420  0.50309170  1
  O  O56  1  0.86487436  0.28386457  0.55168273  1
  O  O57  1  0.36487436  0.21613543  0.44831727  1
  O  O58  1  0.13512564  0.71613543  0.44831727  1
  O  O59  1  0.63512564  0.78386457  0.55168273  1
  F  F0  1  0.05397089  0.77341031  0.24536317  1
  F  F1  1  0.55397089  0.72658969  0.75463683  1
  F  F2  1  0.94602911  0.22658969  0.75463683  1
  F  F3  1  0.44602911  0.27341031  0.24536317  1
  F  F4  1  0.93071433  0.94294699  0.23138136  1
  F  F5  1  0.43071433  0.55705301  0.76861864  1
  F  F6  1  0.06928567  0.05705301  0.76861864  1
  F  F7  1  0.56928567  0.44294699  0.23138136  1
loop_
_geom_bond_atom_site_label_1
_geom_bond_atom_site_label_2
_geom_bond_distance
_geom_bond_site_symmetry_2
K0 O2 2.798375 1_555
K0 O19 2.902442 1_555
K0 O36 2.942452 1_555
K0 O8 2.952674 1_545
K0 O56 2.964122 1_555
K0 O0 3.007104 1_645
K1 O3 2.798375 1_555
K1 O18 2.902442 1_555
K1 O37 2.942452 1_555
K1 O9 2.952674 1_555
K1 O57 2.964122 1_555
K1 O1 3.007104 1_555
K2 O0 2.798375 1_555
K2 O17 2.902442 1_555
K2 O38 2.942452 1_555
K2 O10 2.952674 1_565
K2 O58 2.964122 1_555
K2 O2 3.007104 1_465
K3 O1 2.798375 1_555
K3 O16 2.902442 1_555
K3 O39 2.942452 1_555
K3 O11 2.952674 1_555
K3 O59 2.964122 1_555
K3 O3 3.007104 1_555
K4 O28 2.834808 1_455
K4 O46 2.852119 1_454
K4 O4 2.949960 1_555
K4 O13 2.950567 1_554
K4 O30 2.973316 1_554
K4 O48 3.065561 1_554
K4 O26 3.298669 1_554
K4 O12 3.309199 1_455
K4 O47 3.393232 1_555
K5 O29 2.834808 1_555
K5 O47 2.852119 1_556
K5 O5 2.949960 1_555
K5 O12 2.950567 1_556
K5 O31 2.973316 1_566
K5 O49 3.065561 1_556
K5 O27 3.298669 1_556
K5 O13 3.309199 1_555
K5 O46 3.393232 1_555
K6 O30 2.834808 1_655
K6 O44 2.852119 1_656
K6 O6 2.949960 1_555
K6 O15 2.950567 1_556
K6 O28 2.973316 1_556
K6 O50 3.065561 1_556
K6 O24 3.298669 1_556
K6 O14 3.309199 1_655
K6 O45 3.393232 1_555
K7 O31 2.834808 1_555
K7 O45 2.852119 1_554
K7 O7 2.949960 1_555
K7 O14 2.950567 1_554
K7 O29 2.973316 1_544
K7 O51 3.065561 1_554
K7 O25 3.298669 1_554
K7 O15 3.309199 1_555
K7 O44 3.393232 1_555
Cr0 O28 1.617142 1_555
Cr0 O20 1.672428 1_655
Cr0 O24 1.680992 1_555
Cr0 O16 1.692568 1_555
Cr1 O29 1.617142 1_555
Cr1 O21 1.672428 1_555
Cr1 O25 1.680992 1_565
Cr1 O17 1.692568 1_555
Cr2 O30 1.617142 1_555
Cr2 O22 1.672428 1_455
Cr2 O26 1.680992 1_555
Cr2 O18 1.692568 1_555
Cr3 O31 1.617142 1_555
Cr3 O23 1.672428 1_555
Cr3 O27 1.680992 1_545
Cr3 O19 1.692568 1_555
Cr4 O44 1.613609 1_555
Cr4 O40 1.678259 1_555
Cr4 O32 1.682710 1_555
Cr4 O36 1.692731 1_455
Cr5 O45 1.613609 1_555
Cr5 O41 1.678259 1_555
Cr5 O33 1.682710 1_555
Cr5 O37 1.692731 1_555
Cr6 O46 1.613609 1_555
Cr6 O42 1.678259 1_555
Cr6 O34 1.682710 1_555
Cr6 O38 1.692731 1_655
Cr7 O47 1.613609 1_555
Cr7 O43 1.678259 1_555
Cr7 O35 1.682710 1_555
Cr7 O39 1.692731 1_555
O0 U0 1.833864 1_555
O1 U1 1.833864 1_555
O2 U2 1.833864 1_555
O3 U3 1.833864 1_555
O4 U0 1.816340 1_555
O5 U1 1.816340 1_555
O6 U2 1.816340 1_555
O7 U3 1.816340 1_555
O8 U4 1.823904 1_555
O9 U5 1.823904 1_555
O10 U6 1.823904 1_555
O11 U7 1.823904 1_555
O12 U4 1.818105 1_555
O13 U5 1.818105 1_555
O14 U6 1.818105 1_555
O15 U7 1.818105 1_555
O16 U4 2.347712 1_555
O17 U5 2.347712 1_555
O18 U6 2.347712 1_555
O19 U7 2.347712 1_555
O20 U3 2.332779 1_555
O21 U2 2.332779 1_565
O22 U1 2.332779 1_555
O23 U0 2.332779 1_545
O24 U7 2.329965 1_555
O25 U6 2.329965 1_555
O26 U5 2.329965 1_555
O27 U4 2.329965 1_555
O32 U3 2.344879 1_555
O33 U2 2.344879 1_555
O34 U1 2.344879 1_555
O35 U0 2.344879 1_555
O36 U7 2.342987 1_555
O37 U6 2.342987 1_555
O38 U5 2.342987 1_555
O39 U4 2.342987 1_555
O40 U0 2.288157 1_545
O41 U1 2.288157 1_555
O42 U2 2.288157 1_565
O43 U3 2.288157 1_555
O52 O54 1.222813 1_545
O53 O55 1.222813 1_455
F0 U4 2.342790 1_455
F0 U0 2.357735 1_555
F0 K4 3.148734 1_555
F1 U5 2.342790 1_555
F1 U1 2.357735 1_555
F1 K5 3.148734 1_555
F2 U6 2.342790 1_655
F2 U2 2.357735 1_555
F2 K6 3.148734 1_555
F3 U7 2.342790 1_555
F3 U3 2.357735 1_555
F3 K7 3.148734 1_555
F4 U4 2.376962 1_555
F4 U0 2.377862 1_655
F4 K0 2.873659 1_565
F5 U5 2.376962 1_555
F5 U1 2.377862 1_555
F5 K1 2.873659 1_555
F6 U6 2.376962 1_555
F6 U2 2.377862 1_455
F6 K2 2.873659 1_545
F7 U7 2.376962 1_555
F7 U3 2.377862 1_555
F7 K3 2.873659 1_555
