# generated using pymatgen
data_Li3Cr2(GeO4)3
_symmetry_space_group_name_H-M   'P 1'
_cell_length_a   10.43739879
_cell_length_b   10.43739879
_cell_length_c   10.43739879
_cell_angle_alpha   109.47122063
_cell_angle_beta   109.47122063
_cell_angle_gamma   109.47122063
_symmetry_Int_Tables_number   1
_chemical_formula_structural   Li3Cr2(GeO4)3
_chemical_formula_sum   'Li12 Cr8 Ge12 O48'
_cell_volume   875.29599372
_cell_formula_units_Z   4
loop_
 _symmetry_equiv_pos_site_id
 _symmetry_equiv_pos_as_xyz
  1  'x, y, z'
loop_
 _atom_site_type_symbol
 _atom_site_label
 _atom_site_symmetry_multiplicity
 _atom_site_fract_x
 _atom_site_fract_y
 _atom_site_fract_z
 _atom_site_occupancy
  Li  Li0  1  0.75000000  0.62500000  0.87500000  1
  Li  Li1  1  0.25000000  0.87500000  0.62500000  1
  Li  Li2  1  0.62500000  0.25000000  0.87500000  1
  Li  Li3  1  0.87500000  0.75000000  0.62500000  1
  Li  Li4  1  0.87500000  0.62500000  0.25000000  1
  Li  Li5  1  0.62500000  0.87500000  0.75000000  1
  Li  Li6  1  0.25000000  0.37500000  0.12500000  1
  Li  Li7  1  0.75000000  0.12500000  0.37500000  1
  Li  Li8  1  0.37500000  0.75000000  0.12500000  1
  Li  Li9  1  0.12500000  0.25000000  0.37500000  1
  Li  Li10  1  0.12500000  0.37500000  0.75000000  1
  Li  Li11  1  0.37500000  0.12500000  0.25000000  1
  Cr  Cr0  1  0.50000000  0.00000000  0.50000000  1
  Cr  Cr1  1  0.00000000  0.50000000  0.00000000  1
  Cr  Cr2  1  0.50000000  0.50000000  0.50000000  1
  Cr  Cr3  1  0.00000000  0.00000000  0.50000000  1
  Cr  Cr4  1  0.00000000  0.00000000  0.00000000  1
  Cr  Cr5  1  0.00000000  0.50000000  0.50000000  1
  Cr  Cr6  1  0.50000000  0.50000000  0.00000000  1
  Cr  Cr7  1  0.50000000  0.00000000  0.00000000  1
  Ge  Ge0  1  0.37500000  0.62500000  0.75000000  1
  Ge  Ge1  1  0.62500000  0.37500000  0.25000000  1
  Ge  Ge2  1  0.62500000  0.75000000  0.37500000  1
  Ge  Ge3  1  0.25000000  0.12500000  0.87500000  1
  Ge  Ge4  1  0.87500000  0.25000000  0.12500000  1
  Ge  Ge5  1  0.75000000  0.37500000  0.62500000  1
  Ge  Ge6  1  0.25000000  0.62500000  0.37500000  1
  Ge  Ge7  1  0.75000000  0.87500000  0.12500000  1
  Ge  Ge8  1  0.12500000  0.75000000  0.87500000  1
  Ge  Ge9  1  0.37500000  0.25000000  0.62500000  1
  Ge  Ge10  1  0.87500000  0.12500000  0.75000000  1
  Ge  Ge11  1  0.12500000  0.87500000  0.25000000  1
  O  O0  1  0.51893200  0.40191900  0.82033500  1
  O  O1  1  0.82033500  0.51893200  0.40191900  1
  O  O2  1  0.80140200  0.88298700  0.98106800  1
  O  O3  1  0.41841500  0.09808100  0.61701300  1
  O  O4  1  0.88298700  0.40191900  0.08158500  1
  O  O5  1  0.67966500  0.08158500  0.69859800  1
  O  O6  1  0.82033500  0.80140200  0.41841500  1
  O  O7  1  0.40191900  0.82033500  0.51893200  1
  O  O8  1  0.61701300  0.69859800  0.51893200  1
  O  O9  1  0.41841500  0.82033500  0.80140200  1
  O  O10  1  0.40191900  0.08158500  0.88298700  1
  O  O11  1  0.09808100  0.98106800  0.67966500  1
  O  O12  1  0.98106800  0.67966500  0.09808100  1
  O  O13  1  0.80140200  0.41841500  0.82033500  1
  O  O14  1  0.51893200  0.61701300  0.69859800  1
  O  O15  1  0.69859800  0.51893200  0.61701300  1
  O  O16  1  0.08158500  0.88298700  0.40191900  1
  O  O17  1  0.98106800  0.80140200  0.88298700  1
  O  O18  1  0.08158500  0.69859800  0.67966500  1
  O  O19  1  0.38298700  0.30140200  0.48106800  1
  O  O20  1  0.61701300  0.41841500  0.09808100  1
  O  O21  1  0.09808100  0.61701300  0.41841500  1
  O  O22  1  0.69859800  0.67966500  0.08158500  1
  O  O23  1  0.67966500  0.09808100  0.98106800  1
  O  O24  1  0.48106800  0.59808100  0.17966500  1
  O  O25  1  0.17966500  0.48106800  0.59808100  1
  O  O26  1  0.19859800  0.11701300  0.01893200  1
  O  O27  1  0.58158500  0.90191900  0.38298700  1
  O  O28  1  0.11701300  0.59808100  0.91841500  1
  O  O29  1  0.32033500  0.91841500  0.30140200  1
  O  O30  1  0.17966500  0.19859800  0.58158500  1
  O  O31  1  0.59808100  0.17966500  0.48106800  1
  O  O32  1  0.32033500  0.90191900  0.01893200  1
  O  O33  1  0.30140200  0.32033500  0.91841500  1
  O  O34  1  0.90191900  0.38298700  0.58158500  1
  O  O35  1  0.11701300  0.01893200  0.19859800  1
  O  O36  1  0.38298700  0.58158500  0.90191900  1
  O  O37  1  0.91841500  0.30140200  0.32033500  1
  O  O38  1  0.01893200  0.19859800  0.11701300  1
  O  O39  1  0.91841500  0.11701300  0.59808100  1
  O  O40  1  0.30140200  0.48106800  0.38298700  1
  O  O41  1  0.48106800  0.38298700  0.30140200  1
  O  O42  1  0.19859800  0.58158500  0.17966500  1
  O  O43  1  0.01893200  0.32033500  0.90191900  1
  O  O44  1  0.90191900  0.01893200  0.32033500  1
  O  O45  1  0.59808100  0.91841500  0.11701300  1
  O  O46  1  0.58158500  0.17966500  0.19859800  1
  O  O47  1  0.88298700  0.98106800  0.80140200  1
loop_
_geom_bond_atom_site_label_1
_geom_bond_atom_site_label_2
_geom_bond_distance
_geom_bond_site_symmetry_2
Li0 O22 2.327602 1_556
Li0 O13 2.327602 1_555
Li0 O2 2.327602 1_555
Li0 O15 2.327602 1_555
Li0 O17 2.452907 1_555
Li0 O14 2.452907 1_555
Li0 O12 2.452911 1_556
Li0 O0 2.452911 1_555
Li1 O11 2.327599 1_555
Li1 O7 2.327599 1_555
Li1 O10 2.327602 1_565
Li1 O21 2.327602 1_555
Li1 O9 2.452900 1_555
Li1 O18 2.452900 1_555
Li1 O3 2.452907 1_565
Li1 O16 2.452907 1_555
Li2 O23 2.327599 1_555
Li2 O0 2.327599 1_555
Li2 O4 2.327602 1_556
Li2 O3 2.327602 1_555
Li2 O13 2.452900 1_555
Li2 O5 2.452900 1_555
Li2 O20 2.452907 1_556
Li2 O10 2.452907 1_555
Li3 O18 2.327602 1_655
Li3 O6 2.327602 1_555
Li3 O17 2.327602 1_555
Li3 O8 2.327602 1_555
Li3 O47 2.452907 1_555
Li3 O15 2.452907 1_555
Li3 O11 2.452911 1_655
Li3 O1 2.452911 1_555
Li4 O12 2.327599 1_555
Li4 O1 2.327599 1_555
Li4 O16 2.327602 1_655
Li4 O20 2.327602 1_555
Li4 O6 2.452900 1_555
Li4 O22 2.452900 1_555
Li4 O21 2.452907 1_655
Li4 O4 2.452907 1_555
Li5 O5 2.327602 1_565
Li5 O9 2.327602 1_555
Li5 O47 2.327602 1_555
Li5 O14 2.327602 1_555
Li5 O2 2.452907 1_555
Li5 O8 2.452907 1_555
Li5 O23 2.452911 1_565
Li5 O7 2.452911 1_555
Li6 O42 2.327602 1_555
Li6 O33 2.327602 1_554
Li6 O40 2.327602 1_555
Li6 O26 2.327602 1_555
Li6 O38 2.452907 1_555
Li6 O41 2.452907 1_555
Li6 O24 2.452911 1_555
Li6 O43 2.452911 1_554
Li7 O44 2.327599 1_555
Li7 O31 2.327599 1_555
Li7 O34 2.327602 1_555
Li7 O45 2.327602 1_545
Li7 O37 2.452900 1_555
Li7 O46 2.452900 1_555
Li7 O27 2.452907 1_545
Li7 O39 2.452907 1_555
Li8 O32 2.327599 1_555
Li8 O24 2.327599 1_555
Li8 O27 2.327602 1_555
Li8 O28 2.327602 1_554
Li8 O29 2.452900 1_555
Li8 O42 2.452900 1_555
Li8 O36 2.452907 1_554
Li8 O45 2.452907 1_555
Li9 O30 2.327602 1_555
Li9 O37 2.327602 1_455
Li9 O19 2.327602 1_555
Li9 O38 2.327602 1_555
Li9 O35 2.452907 1_555
Li9 O40 2.452907 1_555
Li9 O25 2.452911 1_555
Li9 O44 2.452911 1_455
Li10 O43 2.327599 1_555
Li10 O25 2.327599 1_555
Li10 O36 2.327602 1_555
Li10 O39 2.327602 1_455
Li10 O30 2.452900 1_555
Li10 O33 2.452900 1_555
Li10 O34 2.452907 1_455
Li10 O28 2.452907 1_555
Li11 O29 2.327602 1_545
Li11 O46 2.327602 1_555
Li11 O41 2.327602 1_555
Li11 O35 2.327602 1_555
Li11 O26 2.452907 1_555
Li11 O19 2.452907 1_555
Li11 O31 2.452911 1_555
Li11 O32 2.452911 1_545
Cr0 O31 1.925001 1_555
Cr0 O7 1.925001 1_545
Cr0 O5 1.925004 1_555
Cr0 O29 1.925004 1_545
Cr0 O3 1.925009 1_555
Cr0 O27 1.925009 1_545
Cr1 O43 1.925001 1_554
Cr1 O12 1.925001 1_455
Cr1 O42 1.925004 1_555
Cr1 O13 1.925004 1_454
Cr1 O28 1.925009 1_554
Cr1 O4 1.925009 1_455
Cr2 O14 1.925009 1_555
Cr2 O8 1.925009 1_555
Cr2 O15 1.925009 1_555
Cr2 O40 1.925009 1_555
Cr2 O19 1.925009 1_555
Cr2 O41 1.925009 1_555
Cr3 O44 1.925001 1_455
Cr3 O11 1.925001 1_545
Cr3 O30 1.925004 1_555
Cr3 O6 1.925004 1_445
Cr3 O39 1.925009 1_455
Cr3 O16 1.925009 1_545
Cr4 O47 1.925009 1_444
Cr4 O17 1.925009 1_444
Cr4 O2 1.925009 1_444
Cr4 O26 1.925009 1_555
Cr4 O38 1.925009 1_555
Cr4 O35 1.925009 1_555
Cr5 O25 1.925001 1_555
Cr5 O1 1.925001 1_455
Cr5 O18 1.925004 1_555
Cr5 O37 1.925004 1_455
Cr5 O21 1.925009 1_555
Cr5 O34 1.925009 1_455
Cr6 O24 1.925001 1_555
Cr6 O0 1.925001 1_554
Cr6 O22 1.925004 1_555
Cr6 O33 1.925004 1_554
Cr6 O20 1.925009 1_555
Cr6 O36 1.925009 1_554
Cr7 O32 1.925001 1_545
Cr7 O23 1.925001 1_554
Cr7 O46 1.925004 1_555
Cr7 O9 1.925004 1_544
Cr7 O45 1.925009 1_545
Cr7 O10 1.925009 1_554
Ge0 O36 1.772740 1_555
Ge0 O14 1.772740 1_555
Ge0 O25 1.772746 1_555
Ge0 O9 1.772750 1_555
Ge1 O41 1.772740 1_555
Ge1 O20 1.772740 1_555
Ge1 O1 1.772746 1_555
Ge1 O46 1.772750 1_555
Ge2 O27 1.772740 1_555
Ge2 O8 1.772740 1_555
Ge2 O24 1.772746 1_555
Ge2 O6 1.772750 1_555
Ge3 O26 1.772740 1_556
Ge3 O10 1.772740 1_555
Ge3 O11 1.772746 1_545
Ge3 O33 1.772750 1_555
Ge4 O38 1.772740 1_655
Ge4 O4 1.772740 1_555
Ge4 O23 1.772746 1_554
Ge4 O37 1.772750 1_555
Ge5 O34 1.772740 1_555
Ge5 O15 1.772740 1_555
Ge5 O31 1.772746 1_555
Ge5 O13 1.772750 1_555
Ge6 O40 1.772740 1_555
Ge6 O21 1.772740 1_555
Ge6 O7 1.772746 1_555
Ge6 O42 1.772750 1_555
Ge7 O45 1.772740 1_555
Ge7 O2 1.772740 1_554
Ge7 O44 1.772746 1_565
Ge7 O22 1.772750 1_555
Ge8 O28 1.772740 1_555
Ge8 O17 1.772740 1_455
Ge8 O32 1.772746 1_556
Ge8 O18 1.772750 1_555
Ge9 O19 1.772740 1_555
Ge9 O3 1.772740 1_555
Ge9 O0 1.772746 1_555
Ge9 O30 1.772750 1_555
Ge10 O39 1.772740 1_555
Ge10 O47 1.772740 1_545
Ge10 O43 1.772746 1_655
Ge10 O5 1.772750 1_555
Ge11 O35 1.772740 1_565
Ge11 O16 1.772740 1_555
Ge11 O12 1.772746 1_455
Ge11 O29 1.772750 1_555
