# generated using pymatgen
data_Cd4As2Br3
_symmetry_space_group_name_H-M   'P 1'
_cell_length_a   12.75531791
_cell_length_b   12.75531791
_cell_length_c   12.75531791
_cell_angle_alpha   90.00000000
_cell_angle_beta   90.00000000
_cell_angle_gamma   90.00000000
_symmetry_Int_Tables_number   1
_chemical_formula_structural   Cd4As2Br3
_chemical_formula_sum   'Cd32 As16 Br24'
_cell_volume   2075.26643510
_cell_formula_units_Z   8
loop_
 _symmetry_equiv_pos_site_id
 _symmetry_equiv_pos_as_xyz
  1  'x, y, z'
loop_
 _atom_site_type_symbol
 _atom_site_label
 _atom_site_symmetry_multiplicity
 _atom_site_fract_x
 _atom_site_fract_y
 _atom_site_fract_z
 _atom_site_occupancy
  Cd  Cd0  1  0.25065346  0.52851108  0.98749215  1
  Cd  Cd1  1  0.74934654  0.02851108  0.51250785  1
  Cd  Cd2  1  0.24934654  0.47148892  0.48749215  1
  Cd  Cd3  1  0.75065346  0.97148892  0.01250785  1
  Cd  Cd4  1  0.98749215  0.25065346  0.52851108  1
  Cd  Cd5  1  0.51250785  0.74934654  0.02851108  1
  Cd  Cd6  1  0.48749215  0.24934654  0.47148892  1
  Cd  Cd7  1  0.01250785  0.75065346  0.97148892  1
  Cd  Cd8  1  0.52851108  0.98749215  0.25065346  1
  Cd  Cd9  1  0.02851108  0.51250785  0.74934654  1
  Cd  Cd10  1  0.47148892  0.48749215  0.24934654  1
  Cd  Cd11  1  0.97148892  0.01250785  0.75065346  1
  Cd  Cd12  1  0.74934654  0.47148892  0.01250785  1
  Cd  Cd13  1  0.25065346  0.97148892  0.48749215  1
  Cd  Cd14  1  0.75065346  0.52851108  0.51250785  1
  Cd  Cd15  1  0.24934654  0.02851108  0.98749215  1
  Cd  Cd16  1  0.01250785  0.74934654  0.47148892  1
  Cd  Cd17  1  0.48749215  0.25065346  0.97148892  1
  Cd  Cd18  1  0.51250785  0.75065346  0.52851108  1
  Cd  Cd19  1  0.98749215  0.24934654  0.02851108  1
  Cd  Cd20  1  0.47148892  0.01250785  0.74934654  1
  Cd  Cd21  1  0.97148892  0.48749215  0.25065346  1
  Cd  Cd22  1  0.52851108  0.51250785  0.75065346  1
  Cd  Cd23  1  0.02851108  0.98749215  0.24934654  1
  Cd  Cd24  1  0.27949812  0.72050188  0.22050188  1
  Cd  Cd25  1  0.72050188  0.22050188  0.27949812  1
  Cd  Cd26  1  0.22050188  0.27949812  0.72050188  1
  Cd  Cd27  1  0.77949812  0.77949812  0.77949812  1
  Cd  Cd28  1  0.72050188  0.27949812  0.77949812  1
  Cd  Cd29  1  0.27949812  0.77949812  0.72050188  1
  Cd  Cd30  1  0.77949812  0.72050188  0.27949812  1
  Cd  Cd31  1  0.22050188  0.22050188  0.22050188  1
  As  As0  1  0.05430675  0.94569325  0.44569325  1
  As  As1  1  0.94569325  0.44569325  0.05430675  1
  As  As2  1  0.44569325  0.05430675  0.94569325  1
  As  As3  1  0.55430675  0.55430675  0.55430675  1
  As  As4  1  0.94569325  0.05430675  0.55430675  1
  As  As5  1  0.05430675  0.55430675  0.94569325  1
  As  As6  1  0.55430675  0.94569325  0.05430675  1
  As  As7  1  0.44569325  0.44569325  0.44569325  1
  As  As8  1  0.39608802  0.60391198  0.10391198  1
  As  As9  1  0.60391198  0.10391198  0.39608802  1
  As  As10  1  0.10391198  0.39608802  0.60391198  1
  As  As11  1  0.89608802  0.89608802  0.89608802  1
  As  As12  1  0.60391198  0.39608802  0.89608802  1
  As  As13  1  0.39608802  0.89608802  0.60391198  1
  As  As14  1  0.89608802  0.60391198  0.39608802  1
  As  As15  1  0.10391198  0.10391198  0.10391198  1
  Br  Br0  1  0.23460119  0.68550084  0.43070216  1
  Br  Br1  1  0.76539881  0.18550084  0.06929784  1
  Br  Br2  1  0.26539881  0.31449916  0.93070216  1
  Br  Br3  1  0.73460119  0.81449916  0.56929784  1
  Br  Br4  1  0.43070216  0.23460119  0.68550084  1
  Br  Br5  1  0.06929784  0.76539881  0.18550084  1
  Br  Br6  1  0.93070216  0.26539881  0.31449916  1
  Br  Br7  1  0.56929784  0.73460119  0.81449916  1
  Br  Br8  1  0.68550084  0.43070216  0.23460119  1
  Br  Br9  1  0.18550084  0.06929784  0.76539881  1
  Br  Br10  1  0.31449916  0.93070216  0.26539881  1
  Br  Br11  1  0.81449916  0.56929784  0.73460119  1
  Br  Br12  1  0.76539881  0.31449916  0.56929784  1
  Br  Br13  1  0.23460119  0.81449916  0.93070216  1
  Br  Br14  1  0.73460119  0.68550084  0.06929784  1
  Br  Br15  1  0.26539881  0.18550084  0.43070216  1
  Br  Br16  1  0.56929784  0.76539881  0.31449916  1
  Br  Br17  1  0.93070216  0.23460119  0.81449916  1
  Br  Br18  1  0.06929784  0.73460119  0.68550084  1
  Br  Br19  1  0.43070216  0.26539881  0.18550084  1
  Br  Br20  1  0.31449916  0.56929784  0.76539881  1
  Br  Br21  1  0.81449916  0.93070216  0.23460119  1
  Br  Br22  1  0.68550084  0.06929784  0.73460119  1
  Br  Br23  1  0.18550084  0.43070216  0.26539881  1
loop_
_geom_bond_atom_site_label_1
_geom_bond_atom_site_label_2
_geom_bond_distance
_geom_bond_site_symmetry_2
As0 As4 2.399583 1_465
As0 Cd23 2.581640 1_555
As0 Cd13 2.581640 1_555
As0 Cd16 2.581640 1_555
As1 As5 2.399583 1_654
As1 Cd21 2.581640 1_555
As1 Cd19 2.581640 1_555
As1 Cd12 2.581640 1_555
As2 As6 2.399583 1_546
As2 Cd20 2.581640 1_555
As2 Cd15 2.581640 1_555
As2 Cd17 2.581640 1_555
As3 As7 2.399583 1_555
As3 Cd22 2.581640 1_555
As3 Cd18 2.581640 1_555
As3 Cd14 2.581640 1_555
As4 Cd4 2.581640 1_555
As4 Cd11 2.581640 1_555
As4 Cd1 2.581640 1_555
As5 Cd0 2.581640 1_555
As5 Cd9 2.581640 1_555
As5 Cd7 2.581640 1_555
As6 Cd8 2.581640 1_555
As6 Cd3 2.581640 1_555
As6 Cd5 2.581640 1_555
As7 Cd6 2.581640 1_555
As7 Cd2 2.581640 1_555
As7 Cd10 2.581640 1_555
As8 Cd0 2.563473 1_554
As8 Cd5 2.563473 1_555
As8 Cd10 2.563473 1_555
As8 Cd24 2.575804 1_555
As9 Cd6 2.563473 1_555
As9 Cd1 2.563473 1_555
As9 Cd8 2.563473 1_545
As9 Cd25 2.575804 1_555
As10 Cd2 2.563473 1_555
As10 Cd9 2.563473 1_555
As10 Cd4 2.563473 1_455
As10 Cd26 2.575804 1_555
As11 Cd11 2.563473 1_565
As11 Cd3 2.563473 1_556
As11 Cd7 2.563473 1_655
As11 Cd27 2.575804 1_555
As12 Cd17 2.563473 1_555
As12 Cd22 2.563473 1_555
As12 Cd12 2.563473 1_556
As12 Cd28 2.575804 1_555
As13 Cd18 2.563473 1_555
As13 Cd13 2.563473 1_555
As13 Cd20 2.563473 1_565
As13 Cd29 2.575804 1_555
As14 Cd16 2.563473 1_655
As14 Cd14 2.563473 1_555
As14 Cd21 2.563473 1_555
As14 Cd30 2.575804 1_555
As15 Cd23 2.563473 1_545
As15 Cd19 2.563473 1_455
As15 Cd15 2.563473 1_554
As15 Cd31 2.575804 1_555
Br0 Cd24 2.777760 1_555
Br0 Cd2 2.830521 1_555
Br0 Cd16 2.993162 1_555
Br1 Cd25 2.777760 1_555
Br1 Cd3 2.830521 1_545
Br1 Cd19 2.993162 1_555
Br2 Cd26 2.777760 1_555
Br2 Cd0 2.830521 1_555
Br2 Cd17 2.993162 1_555
Br3 Cd27 2.777760 1_555
Br3 Cd1 2.830521 1_565
Br3 Cd18 2.993162 1_555
Br4 Cd26 2.777760 1_555
Br4 Cd6 2.830521 1_555
Br4 Cd20 2.993162 1_555
Br5 Cd24 2.777760 1_555
Br5 Cd7 2.830521 1_554
Br5 Cd23 2.993162 1_555
Br6 Cd25 2.777760 1_555
Br6 Cd4 2.830521 1_555
Br6 Cd21 2.993162 1_555
Br7 Cd27 2.777760 1_555
Br7 Cd5 2.830521 1_556
Br7 Cd22 2.993162 1_555
Br8 Cd25 2.777760 1_555
Br8 Cd10 2.830521 1_555
Br8 Cd12 2.993162 1_555
Br9 Cd26 2.777760 1_555
Br9 Cd11 2.830521 1_455
Br9 Cd15 2.993162 1_555
Br10 Cd24 2.777760 1_555
Br10 Cd8 2.830521 1_555
Br10 Cd13 2.993162 1_555
Br11 Cd27 2.777760 1_555
Br11 Cd9 2.830521 1_655
Br11 Cd14 2.993162 1_555
Br12 Cd28 2.777760 1_555
Br12 Cd14 2.830521 1_555
Br12 Cd4 2.993162 1_555
Br13 Cd29 2.777760 1_555
Br13 Cd15 2.830521 1_565
Br13 Cd7 2.993162 1_555
Br14 Cd30 2.777760 1_555
Br14 Cd12 2.830521 1_555
Br14 Cd5 2.993162 1_555
Br15 Cd31 2.777760 1_555
Br15 Cd13 2.830521 1_545
Br15 Cd6 2.993162 1_555
Br16 Cd30 2.777760 1_555
Br16 Cd18 2.830521 1_555
Br16 Cd8 2.993162 1_555
Br17 Cd28 2.777760 1_555
Br17 Cd19 2.830521 1_556
Br17 Cd11 2.993162 1_555
Br18 Cd29 2.777760 1_555
Br18 Cd16 2.830521 1_555
Br18 Cd9 2.993162 1_555
Br19 Cd31 2.777760 1_555
Br19 Cd17 2.830521 1_554
Br19 Cd10 2.993162 1_555
Br20 Cd29 2.777760 1_555
Br20 Cd22 2.830521 1_555
Br20 Cd0 2.993162 1_555
Br21 Cd30 2.777760 1_555
Br21 Cd23 2.830521 1_655
Br21 Cd3 2.993162 1_555
Br22 Cd28 2.777760 1_555
Br22 Cd20 2.830521 1_555
Br22 Cd1 2.993162 1_555
Br23 Cd31 2.777760 1_555
Br23 Cd21 2.830521 1_455
Br23 Cd2 2.993162 1_555
