# generated using pymatgen
data_Li2TiFeO4
_symmetry_space_group_name_H-M   'P 1'
_cell_length_a   5.34153403
_cell_length_b   7.80724188
_cell_length_c   8.10826669
_cell_angle_alpha   106.72212894
_cell_angle_beta   87.27246170
_cell_angle_gamma   107.24456440
_symmetry_Int_Tables_number   1
_chemical_formula_structural   Li2TiFeO4
_chemical_formula_sum   'Li8 Ti4 Fe4 O16'
_cell_volume   309.01682177
_cell_formula_units_Z   4
loop_
 _symmetry_equiv_pos_site_id
 _symmetry_equiv_pos_as_xyz
  1  'x, y, z'
loop_
 _atom_site_type_symbol
 _atom_site_label
 _atom_site_symmetry_multiplicity
 _atom_site_fract_x
 _atom_site_fract_y
 _atom_site_fract_z
 _atom_site_occupancy
  Li  Li0  1  0.31102200  0.43720000  0.62147700  1
  Li  Li1  1  0.06028500  0.68656700  0.12150100  1
  Li  Li2  1  0.81066700  0.93740000  0.62153300  1
  Li  Li3  1  0.56060300  0.18677900  0.12167300  1
  Li  Li4  1  0.78990300  0.24683100  0.52586600  1
  Li  Li5  1  0.53840300  0.49437900  0.02617500  1
  Li  Li6  1  0.29022900  0.74674600  0.52610000  1
  Li  Li7  1  0.03873000  0.99455500  0.02640900  1
  Ti  Ti0  1  0.34251600  0.13105000  0.76834600  1
  Ti  Ti1  1  0.10924400  0.39737600  0.26782300  1
  Ti  Ti2  1  0.84231500  0.63098500  0.76824100  1
  Ti  Ti3  1  0.60937300  0.89733400  0.26781600  1
  Fe  Fe0  1  0.69358900  0.56023500  0.37296500  1
  Fe  Fe1  1  0.44234500  0.80984000  0.87318600  1
  Fe  Fe2  1  0.94276100  0.30987400  0.87295700  1
  Fe  Fe3  1  0.19323800  0.06000200  0.37276800  1
  O  O0  1  0.13939300  0.56996900  0.84615200  1
  O  O1  1  0.88792300  0.81819700  0.34609900  1
  O  O2  1  0.63958800  0.07001000  0.84595800  1
  O  O3  1  0.38805400  0.31825800  0.34622700  1
  O  O4  1  0.09785100  0.18012600  0.63151500  1
  O  O5  1  0.84375800  0.42661800  0.13123800  1
  O  O6  1  0.59772200  0.68032400  0.63168900  1
  O  O7  1  0.34380800  0.92673900  0.13129000  1
  O  O8  1  0.62204100  0.37833100  0.74743600  1
  O  O9  1  0.36740300  0.62331400  0.24698100  1
  O  O10  1  0.12205500  0.87822100  0.74739400  1
  O  O11  1  0.86727800  0.12334700  0.24706900  1
  O  O12  1  0.50302500  0.99560000  0.48616100  1
  O  O13  1  0.25089500  0.24391500  0.98677900  1
  O  O14  1  0.00316200  0.49570000  0.48622800  1
  O  O15  1  0.75081700  0.74417800  0.98695100  1
loop_
_geom_bond_atom_site_label_1
_geom_bond_atom_site_label_2
_geom_bond_distance
_geom_bond_site_symmetry_2
Li0 O4 2.015336 1_555
Li0 O6 2.037927 1_555
Li0 O0 2.133403 1_555
Li0 O8 2.213278 1_555
Li0 O3 2.226898 1_555
Li0 O14 2.240661 1_555
Li1 O7 2.014424 1_555
Li1 O5 2.038270 1_455
Li1 O1 2.131804 1_455
Li1 O9 2.213257 1_555
Li1 O0 2.227211 1_554
Li1 O15 2.240508 1_454
Li2 O6 2.015314 1_555
Li2 O4 2.037358 1_665
Li2 O2 2.129975 1_565
Li2 O10 2.215843 1_655
Li2 O1 2.228887 1_555
Li2 O12 2.238975 1_555
Li3 O5 2.012025 1_555
Li3 O7 2.038963 1_545
Li3 O3 2.131661 1_555
Li3 O11 2.211719 1_555
Li3 O2 2.229873 1_554
Li3 O13 2.241105 1_554
Li4 O14 2.046539 1_655
Li4 O12 2.049514 1_545
Li4 O8 2.101582 1_555
Li4 O4 2.146977 1_655
Li4 O11 2.259111 1_555
Li5 O13 2.047187 1_554
Li5 O15 2.050018 1_554
Li5 O9 2.098898 1_555
Li5 O5 2.137550 1_555
Li5 O8 2.256988 1_554
Li6 O12 2.046768 1_555
Li6 O14 2.048882 1_555
Li6 O10 2.100843 1_555
Li6 O6 2.143357 1_555
Li6 O9 2.261022 1_555
Li7 O15 2.047706 1_454
Li7 O13 2.048143 1_564
Li7 O11 2.098968 1_465
Li7 O7 2.135790 1_555
Li7 O10 2.258884 1_554
Fe0 O1 2.042669 1_555
Fe0 O3 2.061418 1_555
Fe0 O6 2.143038 1_555
Fe0 O14 2.176328 1_655
Fe0 O5 2.177863 1_555
Fe0 O9 2.299863 1_555
Fe1 O0 2.043177 1_555
Fe1 O2 2.061958 1_565
Fe1 O7 2.137883 1_556
Fe1 O15 2.178587 1_555
Fe1 O6 2.179223 1_555
Fe1 O10 2.296357 1_555
Fe2 O2 2.043795 1_555
Fe2 O0 2.059501 1_655
Fe2 O5 2.139644 1_556
Fe2 O13 2.178652 1_655
Fe2 O4 2.178738 1_655
Fe2 O8 2.297421 1_555
Fe3 O3 2.044237 1_555
Fe3 O1 2.059994 1_445
Fe3 O4 2.142433 1_555
Fe3 O7 2.176453 1_545
Fe3 O12 2.177251 1_545
Fe3 O11 2.298772 1_455
O0 Ti2 1.964909 1_455
O1 Ti3 1.964440 1_555
O2 Ti0 1.963948 1_555
O3 Ti1 1.965990 1_555
O4 Ti0 1.940403 1_555
O5 Ti1 1.943332 1_655
O6 Ti2 1.939771 1_555
O7 Ti3 1.943994 1_555
O8 Ti2 1.937802 1_555
O8 Ti0 2.107231 1_555
O9 Ti1 1.936183 1_555
O9 Ti3 2.109320 1_555
O10 Ti0 1.939011 1_565
O10 Ti2 2.107314 1_455
O11 Ti3 1.935771 1_545
O11 Ti1 2.109491 1_655
O12 Ti3 1.851122 1_555
O12 Ti0 2.459052 1_565
O13 Ti0 1.851459 1_555
O13 Ti1 2.450110 1_556
O14 Ti1 1.851081 1_555
O14 Ti2 2.458388 1_455
O15 Ti2 1.853751 1_555
O15 Ti3 2.447789 1_556
