# generated using pymatgen
data_Na3Li3Fe2P2(CO7)2
_symmetry_space_group_name_H-M   'P 1'
_cell_length_a   6.66586700
_cell_length_b   8.72906911
_cell_length_c   10.20067167
_cell_angle_alpha   87.68825111
_cell_angle_beta   89.68767838
_cell_angle_gamma   88.81365453
_symmetry_Int_Tables_number   1
_chemical_formula_structural   Na3Li3Fe2P2(CO7)2
_chemical_formula_sum   'Na6 Li6 Fe4 P4 C4 O28'
_cell_volume   592.92806851
_cell_formula_units_Z   2
loop_
 _symmetry_equiv_pos_site_id
 _symmetry_equiv_pos_as_xyz
  1  'x, y, z'
loop_
 _atom_site_type_symbol
 _atom_site_label
 _atom_site_symmetry_multiplicity
 _atom_site_fract_x
 _atom_site_fract_y
 _atom_site_fract_z
 _atom_site_occupancy
  Na  Na0  1  0.76164600  0.91659800  0.12217700  1
  Na  Na1  1  0.50072500  0.74045100  0.37152100  1
  Na  Na2  1  0.00011400  0.74126100  0.87454500  1
  Na  Na3  1  0.49925300  0.74235800  0.87675900  1
  Na  Na4  1  0.49980300  0.25471200  0.12548800  1
  Na  Na5  1  0.49867300  0.26039600  0.62740400  1
  Li  Li0  1  0.77187700  0.91602100  0.62274900  1
  Li  Li1  1  0.96893900  0.71586400  0.38328100  1
  Li  Li2  1  0.02625700  0.27646500  0.11621200  1
  Li  Li3  1  0.01480500  0.27487400  0.62480200  1
  Li  Li4  1  0.21751300  0.09039300  0.37658800  1
  Li  Li5  1  0.23229900  0.09642700  0.87238800  1
  Fe  Fe0  1  0.24854200  0.64274600  0.11732800  1
  Fe  Fe1  1  0.24295500  0.65752500  0.60558300  1
  Fe  Fe2  1  0.75598400  0.33869200  0.39320300  1
  Fe  Fe3  1  0.75901400  0.34834500  0.89086300  1
  P  P0  1  0.76114300  0.58230500  0.15017200  1
  P  P1  1  0.75204800  0.59010000  0.64455600  1
  P  P2  1  0.24076800  0.40609600  0.35537600  1
  P  P3  1  0.24943200  0.40774900  0.85526200  1
  C  C0  1  0.23823600  0.95770000  0.13679100  1
  C  C1  1  0.23933600  0.96080800  0.63775300  1
  C  C2  1  0.76253200  0.03825400  0.36767400  1
  C  C3  1  0.75631500  0.05735200  0.84936800  1
  O  O0  1  0.78088500  0.89321800  0.34931700  1
  O  O1  1  0.74352700  0.91356500  0.82492800  1
  O  O2  1  0.24510500  0.92763300  0.01320500  1
  O  O3  1  0.24841200  0.92203500  0.51608400  1
  O  O4  1  0.24785700  0.84498800  0.22539300  1
  O  O5  1  0.24364000  0.85295500  0.73083500  1
  O  O6  1  0.93622400  0.68426400  0.09934400  1
  O  O7  1  0.56547800  0.67428200  0.11229500  1
  O  O8  1  0.92691500  0.69913400  0.59839900  1
  O  O9  1  0.55580600  0.67868900  0.60137700  1
  O  O10  1  0.77342600  0.56224700  0.30326900  1
  O  O11  1  0.22635600  0.56966700  0.40990300  1
  O  O12  1  0.75495200  0.56837000  0.79676500  1
  O  O13  1  0.25619800  0.56268500  0.92289900  1
  O  O14  1  0.76870800  0.42145000  0.09070000  1
  O  O15  1  0.22223500  0.42130300  0.20274900  1
  O  O16  1  0.77120500  0.43106700  0.58412600  1
  O  O17  1  0.22145500  0.43661700  0.70417800  1
  O  O18  1  0.44104300  0.32033800  0.39189700  1
  O  O19  1  0.07197600  0.29921900  0.41155900  1
  O  O20  1  0.44340200  0.30827300  0.88133400  1
  O  O21  1  0.07614900  0.30501200  0.91148900  1
  O  O22  1  0.75806200  0.13666700  0.26723300  1
  O  O23  1  0.77795900  0.15798700  0.75239400  1
  O  O24  1  0.74866500  0.08980700  0.48553900  1
  O  O25  1  0.74852400  0.10527900  0.96840200  1
  O  O26  1  0.22229400  0.09719900  0.17619000  1
  O  O27  1  0.22533300  0.10255400  0.67035800  1
loop_
_geom_bond_atom_site_label_1
_geom_bond_atom_site_label_2
_geom_bond_distance
_geom_bond_site_symmetry_2
Na0 O25 2.228886 1_564
Na0 O0 2.321746 1_555
Na0 O6 2.336435 1_555
Na0 O22 2.471284 1_565
Na0 O7 2.515406 1_555
Na1 O0 2.321916 1_555
Na1 O4 2.397862 1_555
Na1 O11 2.403880 1_555
Na1 O9 2.412929 1_555
Na1 O10 2.483004 1_555
Na1 O3 2.750791 1_555
Na1 O7 2.759091 1_555
Na2 O1 2.298962 1_455
Na2 O13 2.328958 1_555
Na2 O6 2.365018 1_456
Na2 O5 2.378866 1_555
Na2 O12 2.406375 1_455
Na2 O2 2.763155 1_556
Na2 O8 2.900701 1_455
Na3 O1 2.278594 1_555
Na3 O13 2.311632 1_555
Na3 O12 2.419762 1_555
Na3 O5 2.427866 1_555
Na3 O7 2.491210 1_556
Na3 O2 2.732266 1_556
Na3 O9 2.906485 1_555
Na4 O14 2.348775 1_555
Na4 O26 2.370101 1_555
Na4 O22 2.439160 1_555
Na4 O15 2.474728 1_555
Na4 O20 2.543952 1_554
Na4 O25 2.658570 1_554
Na4 O18 2.823359 1_555
Na5 O27 2.335971 1_555
Na5 O23 2.399079 1_555
Na5 O16 2.401025 1_555
Na5 O18 2.468374 1_555
Na5 O17 2.521497 1_555
Na5 O20 2.662776 1_555
Na5 O24 2.670815 1_555
Li0 O24 2.026210 1_565
Li0 O1 2.069265 1_555
Li0 O8 2.160590 1_555
Li0 O23 2.537943 1_565
Li0 O9 2.564624 1_555
Li1 O0 1.992293 1_555
Li1 O10 2.082065 1_555
Li1 O11 2.129114 1_655
Li1 O8 2.210000 1_555
Li2 O15 2.062829 1_555
Li2 O26 2.092228 1_555
Li2 O21 2.118402 1_554
Li2 O14 2.122526 1_455
Li3 O27 2.076355 1_555
Li3 O16 2.130223 1_455
Li3 O17 2.175175 1_555
Li3 O19 2.208848 1_555
Li3 O23 2.272605 1_455
Li4 O3 2.012194 1_545
Li4 O26 2.042754 1_555
Li4 O19 2.089659 1_555
Li4 O18 2.534777 1_555
Li5 O2 2.016668 1_546
Li5 O27 2.060130 1_555
Li5 O21 2.129139 1_555
Li5 O20 2.351780 1_555
Fe0 O15 2.098321 1_555
Fe0 O6 2.113466 1_455
Fe0 O4 2.118573 1_555
Fe0 O13 2.129260 1_554
Fe0 O7 2.136230 1_555
Fe1 O9 2.097450 1_555
Fe1 O8 2.131489 1_455
Fe1 O17 2.145666 1_555
Fe1 O11 2.171200 1_555
Fe1 O5 2.172283 1_555
Fe1 O3 2.449286 1_555
Fe2 O18 2.108919 1_555
Fe2 O10 2.127673 1_555
Fe2 O19 2.135317 1_655
Fe2 O16 2.141412 1_555
Fe2 O22 2.223255 1_555
Fe2 O24 2.334148 1_555
Fe3 O12 2.111926 1_555
Fe3 O20 2.143207 1_555
Fe3 O21 2.149785 1_655
Fe3 O14 2.162140 1_556
Fe3 O23 2.225044 1_555
Fe3 O25 2.236611 1_555
C0 O2 1.298387 1_555
C0 O26 1.299713 1_565
C0 O4 1.309676 1_555
C1 O27 1.295510 1_565
C1 O3 1.300298 1_555
C1 O5 1.309876 1_555
C2 O0 1.290474 1_545
C2 O24 1.302804 1_555
C2 O22 1.310292 1_555
C3 O1 1.294089 1_545
C3 O25 1.300562 1_555
C3 O23 1.305602 1_555
O6 P0 1.556331 1_555
O7 P0 1.559530 1_555
O8 P1 1.577993 1_555
O9 P1 1.562080 1_555
O10 P0 1.566839 1_555
O11 P2 1.554054 1_555
O12 P1 1.556741 1_555
O13 P3 1.544445 1_555
O14 P0 1.551632 1_555
O15 P2 1.562549 1_555
O16 P1 1.544102 1_555
O17 P3 1.563107 1_555
O18 P2 1.556584 1_555
O19 P2 1.567824 1_555
O20 P3 1.560498 1_555
O21 P3 1.568949 1_555
