# generated using pymatgen
data_CdWO4
_symmetry_space_group_name_H-M   'P 1'
_cell_length_a   5.90618168
_cell_length_b   5.04701347
_cell_length_c   5.08927324
_cell_angle_alpha   88.79548919
_cell_angle_beta   90.00000000
_cell_angle_gamma   90.00000000
_symmetry_Int_Tables_number   1
_chemical_formula_structural   CdWO4
_chemical_formula_sum   'Cd2 W2 O8'
_cell_volume   151.67047904
_cell_formula_units_Z   2
loop_
 _symmetry_equiv_pos_site_id
 _symmetry_equiv_pos_as_xyz
  1  'x, y, z'
loop_
 _atom_site_type_symbol
 _atom_site_label
 _atom_site_symmetry_multiplicity
 _atom_site_fract_x
 _atom_site_fract_y
 _atom_site_fract_z
 _atom_site_occupancy
  Cd  Cd0  1  0.69050108  0.50000000  0.25000000  1
  Cd  Cd1  1  0.30949892  0.50000000  0.75000000  1
  W  W0  1  0.17666505  -0.00000000  0.25000000  1
  W  W1  1  0.82333495  -0.00000000  0.75000000  1
  O  O0  1  0.09586675  0.79885983  0.94791053  1
  O  O1  1  0.09586675  0.20114017  0.55208947  1
  O  O2  1  0.90413325  0.20114017  0.05208947  1
  O  O3  1  0.90413325  0.79885983  0.44791053  1
  O  O4  1  0.36954860  0.75730171  0.38357600  1
  O  O5  1  0.36954860  0.24269829  0.11642400  1
  O  O6  1  0.63045140  0.24269829  0.61642400  1
  O  O7  1  0.63045140  0.75730171  0.88357600  1
loop_
_geom_bond_atom_site_label_1
_geom_bond_atom_site_label_2
_geom_bond_distance
_geom_bond_site_symmetry_2
Cd0 O3 2.223848 1_555
Cd0 O2 2.223848 1_555
Cd0 O6 2.277707 1_555
Cd0 O7 2.277707 1_554
Cd0 O4 2.403942 1_555
Cd0 O5 2.403942 1_555
Cd1 O0 2.223848 1_555
Cd1 O1 2.223848 1_555
Cd1 O4 2.277707 1_555
Cd1 O5 2.277707 1_556
Cd1 O7 2.403942 1_555
Cd1 O6 2.403942 1_555
O0 W0 1.920296 1_566
O0 W1 2.143113 1_465
O1 W0 1.920296 1_555
O1 W1 2.143113 1_455
O2 W1 1.920296 1_554
O2 W0 2.143113 1_655
O3 W1 1.920296 1_565
O3 W0 2.143113 1_665
O4 W0 1.795912 1_565
O5 W0 1.795912 1_555
O6 W1 1.795912 1_555
O7 W1 1.795912 1_565
