# generated using pymatgen
data_TaCr3(CuS4)2
_symmetry_space_group_name_H-M   'P 1'
_cell_length_a   6.98787911
_cell_length_b   5.94765247
_cell_length_c   5.86669065
_cell_angle_alpha   93.30053904
_cell_angle_beta   89.99851063
_cell_angle_gamma   90.00039861
_symmetry_Int_Tables_number   1
_chemical_formula_structural   TaCr3(CuS4)2
_chemical_formula_sum   'Ta1 Cr3 Cu2 S8'
_cell_volume   243.42388091
_cell_formula_units_Z   1
loop_
 _symmetry_equiv_pos_site_id
 _symmetry_equiv_pos_as_xyz
  1  'x, y, z'
loop_
 _atom_site_type_symbol
 _atom_site_label
 _atom_site_symmetry_multiplicity
 _atom_site_fract_x
 _atom_site_fract_y
 _atom_site_fract_z
 _atom_site_occupancy
  Ta  Ta0  1  0.50000000  0.00000000  0.50000000  1
  Cr  Cr0  1  0.24850200  0.49998900  0.50000200  1
  Cr  Cr1  1  0.75149800  0.50001100  0.49999800  1
  Cr  Cr2  1  0.00000000  0.00000000  0.50000000  1
  Cu  Cu0  1  0.00000000  0.00000000  0.00000000  1
  Cu  Cu1  1  0.50000000  0.00000000  0.00000000  1
  S  S0  1  0.00000200  0.32183400  0.28022300  1
  S  S1  1  0.50001100  0.32756300  0.26315800  1
  S  S2  1  0.24570900  0.82009200  0.25669700  1
  S  S3  1  0.75429900  0.82008100  0.25671500  1
  S  S4  1  0.24570100  0.17991900  0.74328500  1
  S  S5  1  0.75429100  0.17990800  0.74330300  1
  S  S6  1  0.49998900  0.67243700  0.73684200  1
  S  S7  1  0.99999800  0.67816600  0.71977700  1
loop_
_geom_bond_atom_site_label_1
_geom_bond_atom_site_label_2
_geom_bond_distance
_geom_bond_site_symmetry_2
Cr0 S0 2.375587 1_555
Cr0 S7 2.375611 1_455
Cr0 S6 2.430415 1_555
Cr0 S1 2.430447 1_555
Cr0 S4 2.444232 1_555
Cr0 S2 2.444473 1_555
Cr1 S7 2.375587 1_555
Cr1 S0 2.375611 1_655
Cr1 S1 2.430415 1_555
Cr1 S6 2.430447 1_555
Cr1 S3 2.444232 1_555
Cr1 S5 2.444473 1_555
Cr2 S7 2.368679 1_445
Cr2 S0 2.368679 1_555
Cr2 S3 2.440145 1_445
Cr2 S4 2.440145 1_555
Cr2 S5 2.440175 1_455
Cr2 S2 2.440175 1_545
Cu0 S7 2.450372 1_444
Cu0 S0 2.450372 1_555
Cu0 S3 2.558633 1_445
Cu0 S4 2.558633 1_554
Cu0 S5 2.558639 1_454
Cu0 S2 2.558639 1_545
Cu1 S6 2.415117 1_544
Cu1 S1 2.415117 1_555
Cu1 S2 2.599200 1_545
Cu1 S5 2.599200 1_554
Cu1 S4 2.599394 1_554
Cu1 S3 2.599394 1_545
S1 Ta0 2.457226 1_555
S2 Ta0 2.482779 1_565
S3 Ta0 2.482745 1_565
S4 Ta0 2.482745 1_555
S5 Ta0 2.482779 1_555
S6 Ta0 2.457226 1_565
