# generated using pymatgen
data_YbCu5Sn
_symmetry_space_group_name_H-M   'P 1'
_cell_length_a   5.05121700
_cell_length_b   8.21589000
_cell_length_c   10.46067400
_cell_angle_alpha   90.00000000
_cell_angle_beta   90.00000000
_cell_angle_gamma   90.00000000
_symmetry_Int_Tables_number   1
_chemical_formula_structural   YbCu5Sn
_chemical_formula_sum   'Yb4 Cu20 Sn4'
_cell_volume   434.12051543
_cell_formula_units_Z   4
loop_
 _symmetry_equiv_pos_site_id
 _symmetry_equiv_pos_as_xyz
  1  'x, y, z'
loop_
 _atom_site_type_symbol
 _atom_site_label
 _atom_site_symmetry_multiplicity
 _atom_site_fract_x
 _atom_site_fract_y
 _atom_site_fract_z
 _atom_site_occupancy
  Yb  Yb0  1  0.25000000  0.75508400  0.06208800  1
  Yb  Yb1  1  0.75000000  0.24491600  0.93791200  1
  Yb  Yb2  1  0.75000000  0.74491600  0.56208800  1
  Yb  Yb3  1  0.25000000  0.25508400  0.43791200  1
  Cu  Cu0  1  0.25000000  0.81488600  0.74799300  1
  Cu  Cu1  1  0.75000000  0.18511400  0.25200700  1
  Cu  Cu2  1  0.75000000  0.68511400  0.24799300  1
  Cu  Cu3  1  0.25000000  0.31488600  0.75200700  1
  Cu  Cu4  1  0.50111300  0.56511000  0.81247300  1
  Cu  Cu5  1  0.49888700  0.43489000  0.18752700  1
  Cu  Cu6  1  0.49888700  0.93489000  0.31247300  1
  Cu  Cu7  1  0.00111300  0.43489000  0.18752700  1
  Cu  Cu8  1  0.50111300  0.06511000  0.68752700  1
  Cu  Cu9  1  0.99888700  0.56511000  0.81247300  1
  Cu  Cu10  1  0.99888700  0.06511000  0.68752700  1
  Cu  Cu11  1  0.00111300  0.93489000  0.31247300  1
  Cu  Cu12  1  0.25000000  0.91071500  0.51807300  1
  Cu  Cu13  1  0.75000000  0.08928500  0.48192700  1
  Cu  Cu14  1  0.75000000  0.58928500  0.01807300  1
  Cu  Cu15  1  0.25000000  0.41071500  0.98192700  1
  Cu  Cu16  1  0.25000000  0.55934000  0.60139400  1
  Cu  Cu17  1  0.75000000  0.44066000  0.39860600  1
  Cu  Cu18  1  0.75000000  0.94066000  0.10139400  1
  Cu  Cu19  1  0.25000000  0.05934000  0.89860600  1
  Sn  Sn0  1  0.25000000  0.64089900  0.35991400  1
  Sn  Sn1  1  0.75000000  0.35910100  0.64008600  1
  Sn  Sn2  1  0.75000000  0.85910100  0.85991400  1
  Sn  Sn3  1  0.25000000  0.14089900  0.14008600  1
loop_
_geom_bond_atom_site_label_1
_geom_bond_atom_site_label_2
_geom_bond_distance
_geom_bond_site_symmetry_2
Cu0 Cu10 2.497068 1_465
Cu0 Cu8 2.497068 1_565
Cu0 Cu4 2.505016 1_555
Cu0 Cu9 2.505016 1_455
Cu0 Cu12 2.530705 1_555
Cu0 Cu19 2.552634 1_565
Cu0 Cu16 2.599953 1_555
Cu0 Sn2 2.807376 1_555
Cu0 Sn2 2.807376 1_455
Cu0 Yb2 3.238980 1_555
Cu0 Yb2 3.238980 1_455
Cu0 Yb0 3.322178 1_556
Cu1 Cu11 2.497068 1_645
Cu1 Cu6 2.497068 1_545
Cu1 Cu7 2.505016 1_655
Cu1 Cu5 2.505016 1_555
Cu1 Cu13 2.530705 1_555
Cu1 Cu18 2.552634 1_545
Cu1 Cu17 2.599953 1_555
Cu1 Sn3 2.807376 1_655
Cu1 Sn3 2.807376 1_555
Cu1 Yb3 3.238980 1_555
Cu1 Yb3 3.238980 1_655
Cu1 Yb1 3.322178 1_554
Cu2 Cu5 2.497068 1_555
Cu2 Cu7 2.497068 1_655
Cu2 Cu6 2.505016 1_555
Cu2 Sn0 2.807376 1_555
Cu2 Sn0 2.807376 1_655
Cu2 Yb0 3.238980 1_555
Cu2 Yb0 3.238980 1_655
Cu2 Yb2 3.322178 1_555
Cu3 Cu9 2.497068 1_455
Cu3 Cu4 2.497068 1_555
Cu3 Cu8 2.505016 1_555
Cu3 Sn1 2.807376 1_555
Cu3 Sn1 2.807376 1_455
Cu3 Yb1 3.238980 1_455
Cu3 Yb1 3.238980 1_555
Cu3 Yb3 3.322178 1_555
Cu4 Cu9 2.514364 1_555
Cu4 Cu9 2.536853 1_455
Cu4 Sn2 2.767839 1_555
Cu4 Sn1 2.774357 1_555
Cu4 Yb1 3.197309 1_555
Cu4 Yb2 3.259296 1_555
Cu4 Yb0 3.295918 1_556
Cu5 Cu7 2.514364 1_555
Cu5 Cu7 2.536853 1_655
Cu5 Sn3 2.767839 1_555
Cu5 Sn0 2.774357 1_555
Cu5 Yb0 3.197309 1_555
Cu5 Yb3 3.259296 1_555
Cu5 Yb1 3.295918 1_554
Cu6 Sn0 2.767839 1_555
Cu6 Sn3 2.774357 1_565
Cu6 Yb3 3.197309 1_565
Cu6 Yb0 3.259296 1_555
Cu6 Yb2 3.295918 1_555
Cu7 Sn3 2.767839 1_555
Cu7 Sn0 2.774357 1_555
Cu7 Yb0 3.197309 1_555
Cu7 Yb3 3.259296 1_555
Cu7 Yb1 3.295918 1_454
Cu8 Sn1 2.767839 1_555
Cu8 Sn2 2.774357 1_545
Cu8 Yb2 3.197309 1_545
Cu8 Yb1 3.259296 1_555
Cu8 Yb3 3.295918 1_555
Cu9 Sn2 2.767839 1_555
Cu9 Sn1 2.774357 1_555
Cu9 Yb1 3.197309 1_555
Cu9 Yb2 3.259296 1_555
Cu9 Yb0 3.295918 1_656
Cu10 Cu13 2.499106 1_555
Cu10 Cu3 2.505016 1_655
Cu10 Cu8 2.514364 1_555
Cu10 Cu12 2.521924 1_645
Cu10 Cu8 2.536853 1_655
Cu10 Cu19 2.546869 1_655
Cu10 Sn1 2.767839 1_555
Cu10 Sn2 2.774357 1_545
Cu10 Yb2 3.197309 1_545
Cu10 Yb1 3.259296 1_555
Cu10 Yb3 3.295918 1_655
Cu11 Cu12 2.499106 1_555
Cu11 Cu2 2.505016 1_455
Cu11 Cu6 2.514364 1_555
Cu11 Cu13 2.521924 1_465
Cu11 Cu6 2.536853 1_455
Cu11 Cu18 2.546869 1_455
Cu11 Sn0 2.767839 1_555
Cu11 Sn3 2.774357 1_565
Cu11 Yb3 3.197309 1_565
Cu11 Yb0 3.259296 1_555
Cu11 Yb2 3.295918 1_455
Cu12 Cu6 2.499106 1_555
Cu12 Cu8 2.521924 1_565
Cu12 Sn0 2.766100 1_555
Cu12 Yb2 2.906242 1_455
Cu12 Yb2 2.906242 1_555
Cu12 Yb3 2.950944 1_565
Cu12 Cu16 3.015564 1_555
Cu13 Cu8 2.499106 1_555
Cu13 Cu6 2.521924 1_545
Cu13 Sn1 2.766100 1_555
Cu13 Yb3 2.906242 1_555
Cu13 Yb3 2.906242 1_655
Cu13 Yb2 2.950944 1_545
Cu13 Cu17 3.015564 1_555
Cu14 Cu9 2.499106 1_554
Cu14 Cu4 2.499106 1_554
Cu14 Cu7 2.521924 1_655
Cu14 Cu5 2.521924 1_555
Cu14 Cu2 2.530705 1_555
Cu14 Sn2 2.766100 1_554
Cu14 Yb0 2.906242 1_655
Cu14 Yb0 2.906242 1_555
Cu14 Yb1 2.950944 1_554
Cu14 Cu18 3.015564 1_555
Cu15 Cu5 2.499106 1_556
Cu15 Cu7 2.499106 1_556
Cu15 Cu4 2.521924 1_555
Cu15 Cu9 2.521924 1_455
Cu15 Cu3 2.530705 1_555
Cu15 Sn3 2.766100 1_556
Cu15 Yb1 2.906242 1_555
Cu15 Yb1 2.906242 1_455
Cu15 Yb0 2.950944 1_556
Cu15 Cu19 3.015564 1_555
Cu16 Cu4 2.546869 1_555
Cu16 Cu9 2.546869 1_455
Cu16 Cu3 2.552634 1_555
Cu16 Sn0 2.613408 1_555
Cu16 Yb2 2.978654 1_455
Cu16 Yb2 2.978654 1_555
Cu16 Yb3 3.028732 1_555
Cu16 Sn1 3.041218 1_555
Cu16 Sn1 3.041218 1_455
Cu17 Cu5 2.546869 1_555
Cu17 Cu7 2.546869 1_655
Cu17 Cu2 2.552634 1_555
Cu17 Sn1 2.613408 1_555
Cu17 Yb3 2.978654 1_555
Cu17 Yb3 2.978654 1_655
Cu17 Yb2 3.028732 1_555
Cu17 Sn0 3.041218 1_655
Cu17 Sn0 3.041218 1_555
Cu18 Cu6 2.546869 1_555
Cu18 Cu2 2.599953 1_555
Cu18 Sn2 2.613408 1_554
Cu18 Yb0 2.978654 1_655
Cu18 Yb0 2.978654 1_555
Cu18 Yb1 3.028732 1_564
Cu18 Sn3 3.041218 1_665
Cu18 Sn3 3.041218 1_565
Cu19 Cu8 2.546869 1_555
Cu19 Cu3 2.599953 1_555
Cu19 Sn3 2.613408 1_556
Cu19 Yb1 2.978654 1_455
Cu19 Yb1 2.978654 1_555
Cu19 Yb0 3.028732 1_546
Cu19 Sn2 3.041218 1_545
Cu19 Sn2 3.041218 1_445
Sn0 Yb0 3.253642 1_555
Sn0 Yb3 3.273138 1_555
Sn0 Yb2 3.403194 1_455
Sn0 Yb2 3.403194 1_555
Sn1 Yb1 3.253642 1_555
Sn1 Yb2 3.273138 1_555
Sn1 Yb3 3.403194 1_555
Sn1 Yb3 3.403194 1_655
Sn2 Yb2 3.253642 1_555
Sn2 Yb1 3.273138 1_565
Sn2 Yb0 3.403194 1_556
Sn2 Yb0 3.403194 1_656
Sn3 Yb3 3.253642 1_555
Sn3 Yb0 3.273138 1_545
Sn3 Yb1 3.403194 1_454
Sn3 Yb1 3.403194 1_554
