# generated using pymatgen
data_NdAlCu
_symmetry_space_group_name_H-M   'P 1'
_cell_length_a   7.21929506
_cell_length_b   7.21930237
_cell_length_c   4.07497760
_cell_angle_alpha   90.00000000
_cell_angle_beta   90.00000000
_cell_angle_gamma   120.00004245
_symmetry_Int_Tables_number   1
_chemical_formula_structural   NdAlCu
_chemical_formula_sum   'Nd3 Al3 Cu3'
_cell_volume   183.92708827
_cell_formula_units_Z   3
loop_
 _symmetry_equiv_pos_site_id
 _symmetry_equiv_pos_as_xyz
  1  'x, y, z'
loop_
 _atom_site_type_symbol
 _atom_site_label
 _atom_site_symmetry_multiplicity
 _atom_site_fract_x
 _atom_site_fract_y
 _atom_site_fract_z
 _atom_site_occupancy
  Nd  Nd0  1  0.41809195  0.41809195  0.50000000  1
  Nd  Nd1  1  0.58190805  0.00000000  0.50000000  1
  Nd  Nd2  1  0.00000000  0.58190805  0.50000000  1
  Al  Al0  1  0.77443995  0.77443995  0.00000000  1
  Al  Al1  1  0.22556005  0.00000000  -0.00000000  1
  Al  Al2  1  0.00000000  0.22556005  0.00000000  1
  Cu  Cu0  1  0.66666700  0.33333300  -0.00000000  1
  Cu  Cu1  1  0.33333300  0.66666700  -0.00000000  1
  Cu  Cu2  1  -0.00000000  0.00000000  0.50000000  1
loop_
_geom_bond_atom_site_label_1
_geom_bond_atom_site_label_2
_geom_bond_distance
_geom_bond_site_symmetry_2
Al0 Cu2 2.608255 1_665
Al0 Cu2 2.608255 1_664
Al0 Al1 2.820444 1_665
Al0 Al2 2.820446 1_665
Al0 Cu1 2.875518 1_555
Al0 Cu0 2.875521 1_555
Al0 Nd0 3.281697 1_555
Al0 Nd0 3.281697 1_554
Al0 Nd2 3.316371 1_654
Al0 Nd2 3.316371 1_655
Al0 Nd1 3.316371 1_564
Al0 Nd1 3.316371 1_565
Al1 Cu2 2.608256 1_555
Al1 Cu2 2.608256 1_554
Al1 Al2 2.820447 1_555
Al1 Cu1 2.875514 1_545
Al1 Cu0 2.875515 1_555
Al1 Nd1 3.281697 1_555
Al1 Nd1 3.281697 1_554
Al1 Nd2 3.316371 1_545
Al1 Nd2 3.316371 1_544
Al1 Nd0 3.316371 1_554
Al1 Nd0 3.316371 1_555
Al2 Cu2 2.608257 1_555
Al2 Cu2 2.608257 1_554
Al2 Cu0 2.875512 1_455
Al2 Cu1 2.875517 1_555
Al2 Nd2 3.281699 1_554
Al2 Nd2 3.281699 1_555
Al2 Nd1 3.316369 1_454
Al2 Nd1 3.316369 1_455
Al2 Nd0 3.316369 1_554
Al2 Nd0 3.316369 1_555
Cu0 Nd2 2.973919 1_654
Cu0 Nd2 2.973919 1_655
Cu0 Nd1 2.973920 1_554
Cu0 Nd1 2.973920 1_555
Cu0 Nd0 2.973924 1_554
Cu0 Nd0 2.973924 1_555
Cu1 Nd2 2.973918 1_555
Cu1 Nd2 2.973918 1_554
Cu1 Nd1 2.973920 1_564
Cu1 Nd1 2.973920 1_565
Cu1 Nd0 2.973925 1_554
Cu1 Nd0 2.973925 1_555
Cu2 Nd0 3.018329 1_555
Cu2 Nd1 3.018329 1_455
Cu2 Nd2 3.018332 1_545
