# generated using pymatgen
data_Na34Cd6Ga92Cu7
_symmetry_space_group_name_H-M   'P 1'
_cell_length_a   15.39642002
_cell_length_b   15.39642017
_cell_length_c   15.39643349
_cell_angle_alpha   65.74149482
_cell_angle_beta   65.74149336
_cell_angle_gamma   65.74147919
_symmetry_Int_Tables_number   1
_chemical_formula_structural   Na34Cd6Ga92Cu7
_chemical_formula_sum   'Na34 Cd6 Ga92 Cu7'
_cell_volume   2902.16306022
_cell_formula_units_Z   1
loop_
 _symmetry_equiv_pos_site_id
 _symmetry_equiv_pos_as_xyz
  1  'x, y, z'
loop_
 _atom_site_type_symbol
 _atom_site_label
 _atom_site_symmetry_multiplicity
 _atom_site_fract_x
 _atom_site_fract_y
 _atom_site_fract_z
 _atom_site_occupancy
  Na  Na0  1  0.13881734  0.13881734  0.13883897  1
  Na  Na1  1  0.86013730  0.86013730  0.86011969  1
  Na  Na2  1  0.38745606  0.75771788  0.38745330  1
  Na  Na3  1  0.75771788  0.38745606  0.38745330  1
  Na  Na4  1  0.38745232  0.38745232  0.75773827  1
  Na  Na5  1  0.61174095  0.24465556  0.61174176  1
  Na  Na6  1  0.24465556  0.61174095  0.61174176  1
  Na  Na7  1  0.61175165  0.61175165  0.24465121  1
  Na  Na8  1  0.39060858  0.99799566  0.39060483  1
  Na  Na9  1  0.99799566  0.39060858  0.39060483  1
  Na  Na10  1  0.39063627  0.39063627  0.99798923  1
  Na  Na11  1  0.60900598  0.00257491  0.60899684  1
  Na  Na12  1  0.00257491  0.60900598  0.60899684  1
  Na  Na13  1  0.60899708  0.60899708  0.00257500  1
  Na  Na14  1  0.87856516  0.21511669  0.21511298  1
  Na  Na15  1  0.21512393  0.21512393  0.87856703  1
  Na  Na16  1  0.21511669  0.87856516  0.21511298  1
  Na  Na17  1  0.12004167  0.78440701  0.78440003  1
  Na  Na18  1  0.78439357  0.78439357  0.12003723  1
  Na  Na19  1  0.78440701  0.12004167  0.78440003  1
  Na  Na20  1  0.33780813  0.00244438  0.79789678  1
  Na  Na21  1  0.00244070  0.79790606  0.33780345  1
  Na  Na22  1  0.79790351  0.33781193  0.00243479  1
  Na  Na23  1  0.00244438  0.33780813  0.79789678  1
  Na  Na24  1  0.33781193  0.79790351  0.00243479  1
  Na  Na25  1  0.79790606  0.00244070  0.33780345  1
  Na  Na26  1  0.66261012  0.99749339  0.20309923  1
  Na  Na27  1  0.99748908  0.20310495  0.66260597  1
  Na  Na28  1  0.20310256  0.66260684  0.99749226  1
  Na  Na29  1  0.99749339  0.66261012  0.20309923  1
  Na  Na30  1  0.66260684  0.20310256  0.99749226  1
  Na  Na31  1  0.20310495  0.99748908  0.66260597  1
  Na  Na32  1  0.24130017  0.24130017  0.24122973  1
  Na  Na33  1  0.75860224  0.75860224  0.75869119  1
  Cd  Cd0  1  0.35358798  0.00015761  0.18684678  1
  Cd  Cd1  1  0.00015671  0.18685420  0.35358538  1
  Cd  Cd2  1  0.18684844  0.35358711  0.00015841  1
  Cd  Cd3  1  0.00015761  0.35358798  0.18684678  1
  Cd  Cd4  1  0.35358711  0.18684844  0.00015841  1
  Cd  Cd5  1  0.18685420  0.00015671  0.35358538  1
  Ga  Ga0  1  0.83271211  0.99520052  0.99519451  1
  Ga  Ga1  1  0.99520213  0.99520213  0.83270463  1
  Ga  Ga2  1  0.99520052  0.83271211  0.99519451  1
  Ga  Ga3  1  0.16756985  0.00346520  0.00346194  1
  Ga  Ga4  1  0.00346380  0.00346380  0.16756671  1
  Ga  Ga5  1  0.00346520  0.16756985  0.00346194  1
  Ga  Ga6  1  0.20502007  0.67915352  0.20501230  1
  Ga  Ga7  1  0.67915352  0.20502007  0.20501230  1
  Ga  Ga8  1  0.20502049  0.20502049  0.67914600  1
  Ga  Ga9  1  0.79616327  0.32231412  0.79615772  1
  Ga  Ga10  1  0.32231412  0.79616327  0.79615772  1
  Ga  Ga11  1  0.79616311  0.79616311  0.32230838  1
  Ga  Ga12  1  0.49519184  0.10240934  0.10240457  1
  Ga  Ga13  1  0.10241237  0.10241237  0.49518218  1
  Ga  Ga14  1  0.10240934  0.49519184  0.10240457  1
  Ga  Ga15  1  0.51566164  0.89402507  0.89401914  1
  Ga  Ga16  1  0.89402304  0.89402304  0.51566115  1
  Ga  Ga17  1  0.89402507  0.51566164  0.89401914  1
  Ga  Ga18  1  0.49141360  0.22683146  0.49141588  1
  Ga  Ga19  1  0.22683146  0.49141360  0.49141588  1
  Ga  Ga20  1  0.49143316  0.49143316  0.22682547  1
  Ga  Ga21  1  0.50732345  0.77322143  0.50732459  1
  Ga  Ga22  1  0.77322143  0.50732345  0.50732459  1
  Ga  Ga23  1  0.50731704  0.50731704  0.77324031  1
  Ga  Ga24  1  0.38186803  0.20890766  0.38185972  1
  Ga  Ga25  1  0.20890766  0.38186803  0.38185972  1
  Ga  Ga26  1  0.38186774  0.38186774  0.20888918  1
  Ga  Ga27  1  0.61606571  0.79254027  0.61605997  1
  Ga  Ga28  1  0.79254027  0.61606571  0.61605997  1
  Ga  Ga29  1  0.61606119  0.61606119  0.79254792  1
  Ga  Ga30  1  0.49820789  0.20188818  0.20188968  1
  Ga  Ga31  1  0.20189348  0.20189348  0.49819711  1
  Ga  Ga32  1  0.20188818  0.49820789  0.20188968  1
  Ga  Ga33  1  0.50269633  0.79798955  0.79798121  1
  Ga  Ga34  1  0.79798529  0.79798529  0.50269424  1
  Ga  Ga35  1  0.79798955  0.50269633  0.79798121  1
  Ga  Ga36  1  0.84023245  0.09983796  0.09983246  1
  Ga  Ga37  1  0.09983951  0.09983951  0.84022726  1
  Ga  Ga38  1  0.09983796  0.84023245  0.09983246  1
  Ga  Ga39  1  0.15784455  0.89858674  0.89858258  1
  Ga  Ga40  1  0.89858535  0.89858535  0.15783643  1
  Ga  Ga41  1  0.89858674  0.15784455  0.89858258  1
  Ga  Ga42  1  0.38361883  0.38361883  0.38360740  1
  Ga  Ga43  1  0.61567216  0.61567216  0.61570103  1
  Ga  Ga44  1  0.38396532  0.67530983  0.21483615  1
  Ga  Ga45  1  0.67531660  0.21481801  0.38396341  1
  Ga  Ga46  1  0.21485143  0.38397009  0.67530000  1
  Ga  Ga47  1  0.67530983  0.38396532  0.21483615  1
  Ga  Ga48  1  0.38397009  0.21485143  0.67530000  1
  Ga  Ga49  1  0.21481801  0.67531660  0.38396341  1
  Ga  Ga50  1  0.61851167  0.32465730  0.78417390  1
  Ga  Ga51  1  0.32466483  0.78416692  0.61850774  1
  Ga  Ga52  1  0.78417629  0.61851188  0.32465979  1
  Ga  Ga53  1  0.32465730  0.61851167  0.78417390  1
  Ga  Ga54  1  0.61851188  0.78417629  0.32465979  1
  Ga  Ga55  1  0.78416692  0.32466483  0.61850774  1
  Ga  Ga56  1  0.37558494  0.57528443  0.09866602  1
  Ga  Ga57  1  0.57528641  0.09866408  0.37558163  1
  Ga  Ga58  1  0.09866976  0.37558172  0.57528162  1
  Ga  Ga59  1  0.57528443  0.37558494  0.09866602  1
  Ga  Ga60  1  0.37558172  0.09866976  0.57528162  1
  Ga  Ga61  1  0.09866408  0.57528641  0.37558163  1
  Ga  Ga62  1  0.62420315  0.42543045  0.90256906  1
  Ga  Ga63  1  0.42543550  0.90257044  0.62419122  1
  Ga  Ga64  1  0.90256893  0.62419766  0.42543165  1
  Ga  Ga65  1  0.42543045  0.62420315  0.90256906  1
  Ga  Ga66  1  0.62419766  0.90256893  0.42543165  1
  Ga  Ga67  1  0.90257044  0.42543550  0.62419122  1
  Ga  Ga68  1  0.45574496  0.82809148  0.10666711  1
  Ga  Ga69  1  0.82809776  0.10666666  0.45574223  1
  Ga  Ga70  1  0.10667584  0.45574183  0.82808253  1
  Ga  Ga71  1  0.82809148  0.45574496  0.10666711  1
  Ga  Ga72  1  0.45574183  0.10667584  0.82808253  1
  Ga  Ga73  1  0.10666666  0.82809776  0.45574223  1
  Ga  Ga74  1  0.55277778  0.16780406  0.88954444  1
  Ga  Ga75  1  0.16780940  0.88954243  0.55277604  1
  Ga  Ga76  1  0.88954516  0.55277893  0.16780309  1
  Ga  Ga77  1  0.16780406  0.55277778  0.88954444  1
  Ga  Ga78  1  0.55277893  0.88954516  0.16780309  1
  Ga  Ga79  1  0.88954243  0.16780940  0.55277604  1
  Ga  Ga80  1  0.66554446  0.99292222  0.99291503  1
  Ga  Ga81  1  0.99292296  0.99292296  0.66553721  1
  Ga  Ga82  1  0.99292222  0.66554446  0.99291503  1
  Ga  Ga83  1  0.33790905  0.00418467  0.00418062  1
  Ga  Ga84  1  0.00418291  0.00418291  0.33790827  1
  Ga  Ga85  1  0.00418467  0.33790905  0.00418062  1
  Ga  Ga86  1  0.65041192  0.99391924  0.81556315  1
  Ga  Ga87  1  0.99391867  0.81557114  0.65040486  1
  Ga  Ga88  1  0.81557253  0.65041127  0.99391008  1
  Ga  Ga89  1  0.99391924  0.65041192  0.81556315  1
  Ga  Ga90  1  0.65041127  0.81557253  0.99391008  1
  Ga  Ga91  1  0.81557114  0.99391867  0.65040486  1
  Cu  Cu0  1  0.39165768  0.55073143  0.39169671  1
  Cu  Cu1  1  0.55073143  0.39165768  0.39169671  1
  Cu  Cu2  1  0.39159277  0.39159277  0.55109671  1
  Cu  Cu3  1  0.60841282  0.44820424  0.60843513  1
  Cu  Cu4  1  0.44820424  0.60841282  0.60843513  1
  Cu  Cu5  1  0.60843979  0.60843979  0.44824516  1
  Cu  Cu6  1  0.49990408  0.49990408  0.49981517  1
loop_
_geom_bond_atom_site_label_1
_geom_bond_atom_site_label_2
_geom_bond_distance
_geom_bond_site_symmetry_2
Na0 Na14 3.494836 1_455
Na0 Na16 3.494836 1_545
Na0 Na15 3.495106 1_554
Na0 Na32 3.687576 1_555
Na1 Na17 3.490142 1_655
Na1 Na19 3.490142 1_565
Na1 Na18 3.490322 1_556
Na1 Na33 3.653289 1_555
Na2 Na7 3.640640 1_555
Na2 Na6 3.640659 1_555
Na2 Na8 3.739971 1_555
Na3 Na7 3.640640 1_555
Na3 Na5 3.640659 1_555
Na3 Na9 3.739971 1_555
Na4 Na5 3.640776 1_555
Na4 Na6 3.640776 1_555
Na10 Na4 3.739979 1_555
Na10 Na32 3.845940 1_556
Na11 Na5 3.762347 1_555
Na11 Na33 3.855600 1_545
Na12 Na6 3.762347 1_555
Na12 Na33 3.855600 1_455
Na13 Na7 3.762472 1_555
Na13 Na33 3.854393 1_554
Na14 Na25 3.487652 1_555
Na14 Na22 3.487704 1_555
Na14 Na3 3.900634 1_555
Na15 Na20 3.487787 1_555
Na15 Na23 3.487787 1_555
Na15 Na4 3.900387 1_555
Na16 Na21 3.487652 1_555
Na16 Na24 3.487704 1_555
Na16 Na2 3.900634 1_555
Na17 Na31 3.512374 1_555
Na17 Na28 3.512491 1_555
Na17 Na6 3.903839 1_555
Na18 Na26 3.512599 1_555
Na18 Na29 3.512599 1_555
Na18 Na7 3.903365 1_555
Na19 Na27 3.512374 1_555
Na19 Na30 3.512491 1_555
Na19 Na5 3.903839 1_555
Na20 Na24 3.418404 1_546
Na20 Na31 3.529356 1_545
Na21 Na25 3.418322 1_465
Na21 Na29 3.529373 1_455
Na22 Na23 3.418404 1_654
Na22 Na30 3.529411 1_554
Na23 Na27 3.529356 1_455
Na24 Na28 3.529411 1_554
Na25 Na26 3.529373 1_545
Na26 Na30 3.436264 1_564
Na27 Na31 3.436392 1_645
Na28 Na29 3.436264 1_456
Na32 Na9 3.846491 1_455
Na32 Na8 3.846491 1_545
Cd0 Ga12 2.780531 1_555
Cd0 Cd5 2.786610 1_555
Cd0 Ga78 2.787730 1_545
Cd0 Ga83 2.893793 1_555
Cd0 Ga68 2.946865 1_545
Cd0 Cd4 3.120085 1_555
Cd0 Na16 3.176023 1_545
Cd0 Na0 3.308964 1_555
Cd0 Na8 3.396411 1_545
Cd0 Na32 3.683067 1_555
Cd0 Na2 3.741016 1_545
Cd1 Ga13 2.780485 1_555
Cd1 Cd3 2.786610 1_555
Cd1 Ga79 2.787733 1_455
Cd1 Ga84 2.893862 1_555
Cd1 Ga69 2.946840 1_455
Cd1 Cd5 3.120215 1_555
Cd1 Na14 3.176050 1_455
Cd1 Na0 3.308825 1_555
Cd1 Na9 3.396349 1_455
Cd1 Na32 3.683476 1_555
Cd1 Na3 3.740972 1_455
Cd2 Ga14 2.780487 1_555
Cd2 Cd4 2.786650 1_555
Cd2 Ga77 2.787731 1_554
Cd2 Ga85 2.893778 1_555
Cd2 Ga70 2.946933 1_554
Cd2 Cd3 3.120085 1_555
Cd2 Na15 3.175850 1_554
Cd2 Na0 3.309132 1_555
Cd2 Na10 3.397051 1_554
Cd2 Na32 3.682549 1_555
Cd2 Na4 3.740814 1_554
Cd3 Ga14 2.780531 1_555
Cd3 Ga76 2.787730 1_455
Cd3 Ga85 2.893793 1_555
Cd3 Ga71 2.946865 1_455
Cd3 Na14 3.176023 1_455
Cd3 Na0 3.308964 1_555
Cd3 Na9 3.396411 1_455
Cd3 Na32 3.683067 1_555
Cd3 Na3 3.741016 1_455
Cd4 Ga12 2.780487 1_555
Cd4 Ga74 2.787731 1_554
Cd4 Ga83 2.893778 1_555
Cd4 Ga72 2.946933 1_554
Cd4 Na15 3.175850 1_554
Cd4 Na0 3.309132 1_555
Cd4 Na10 3.397051 1_554
Cd4 Na32 3.682549 1_555
Cd4 Na4 3.740814 1_554
Cd5 Ga13 2.780485 1_555
Cd5 Ga75 2.787733 1_545
Cd5 Ga84 2.893861 1_555
Cd5 Ga73 2.946840 1_545
Cd5 Na16 3.176050 1_545
Cd5 Na0 3.308825 1_555
Cd5 Na8 3.396349 1_545
Cd5 Na32 3.683476 1_555
Cd5 Na2 3.740972 1_545
Ga0 Ga80 2.603122 1_555
Ga0 Ga40 2.701538 1_556
Ga0 Ga41 2.701575 1_565
Ga0 Ga2 2.715617 1_555
Ga0 Ga1 2.715644 1_555
Ga0 Ga36 2.764711 1_566
Ga0 Na30 3.199189 1_565
Ga0 Na26 3.199192 1_556
Ga0 Na19 3.234746 1_565
Ga0 Na18 3.234992 1_556
Ga0 Na1 3.307283 1_555
Ga1 Ga81 2.603124 1_555
Ga1 Ga41 2.701581 1_565
Ga1 Ga39 2.701581 1_655
Ga1 Ga2 2.715644 1_555
Ga1 Ga37 2.764720 1_665
Ga1 Na31 3.199143 1_655
Ga1 Na27 3.199143 1_565
Ga1 Na17 3.234746 1_655
Ga1 Na19 3.234746 1_565
Ga1 Na1 3.307234 1_555
Ga2 Ga82 2.603122 1_555
Ga2 Ga40 2.701538 1_556
Ga2 Ga39 2.701575 1_655
Ga2 Ga38 2.764711 1_656
Ga2 Na28 3.199189 1_655
Ga2 Na29 3.199192 1_556
Ga2 Na17 3.234746 1_655
Ga2 Na18 3.234992 1_556
Ga2 Na1 3.307283 1_555
Ga3 Ga83 2.631761 1_555
Ga3 Ga38 2.724555 1_545
Ga3 Ga37 2.724570 1_554
Ga3 Ga5 2.742628 1_555
Ga3 Ga4 2.742643 1_555
Ga3 Ga39 2.788771 1_544
Ga3 Na24 3.174536 1_545
Ga3 Na20 3.174542 1_554
Ga3 Na16 3.241458 1_545
Ga3 Na15 3.241594 1_554
Ga3 Na0 3.306978 1_555
Ga4 Ga84 2.631800 1_555
Ga4 Ga5 2.742643 1_555
Ga4 Ga40 2.788799 1_445
Ga4 Na25 3.174459 1_455
Ga4 Na21 3.174459 1_545
Ga4 Na14 3.241474 1_455
Ga4 Na16 3.241474 1_545
Ga4 Na0 3.306840 1_555
Ga5 Ga85 2.631761 1_555
Ga5 Na22 3.174536 1_455
Ga5 Na23 3.174542 1_554
Ga5 Na14 3.241458 1_455
Ga5 Na15 3.241594 1_554
Ga5 Na0 3.306978 1_555
Ga6 Ga61 2.702355 1_555
Ga6 Na16 3.206090 1_555
Ga6 Na24 3.224398 1_555
Ga6 Na21 3.224422 1_555
Ga6 Na28 3.320659 1_554
Ga6 Na29 3.320704 1_455
Ga7 Na14 3.206090 1_555
Ga7 Na22 3.224398 1_555
Ga7 Na25 3.224422 1_555
Ga7 Na30 3.320659 1_554
Ga7 Na26 3.320704 1_545
Ga8 Na15 3.206305 1_555
Ga8 Na23 3.224361 1_555
Ga8 Na20 3.224361 1_555
Ga8 Na27 3.320769 1_455
Ga8 Na31 3.320769 1_545
Ga9 Na27 3.223944 1_555
Ga9 Na30 3.224058 1_555
Ga9 Na19 3.273773 1_555
Ga9 Na22 3.292730 1_556
Ga9 Na23 3.292753 1_655
Ga10 Ga39 2.620448 1_555
Ga10 Ga65 2.708044 1_555
Ga10 Ga63 2.708098 1_555
Ga10 Ga33 2.800630 1_555
Ga10 Ga53 2.800856 1_555
Ga10 Ga51 2.800874 1_555
Ga10 Na31 3.223944 1_555
Ga10 Na28 3.224058 1_555
Ga10 Na17 3.273773 1_555
Ga10 Na24 3.292730 1_556
Ga10 Na20 3.292753 1_565
Ga11 Ga40 2.620439 1_555
Ga11 Ga66 2.708092 1_555
Ga11 Ga64 2.708093 1_555
Ga11 Ga34 2.800654 1_555
Ga11 Ga54 2.800819 1_555
Ga11 Ga52 2.800819 1_555
Ga11 Na29 3.223985 1_555
Ga11 Na26 3.223985 1_555
Ga11 Na18 3.273937 1_555
Ga11 Na21 3.292733 1_655
Ga11 Na25 3.292733 1_565
Ga12 Ga30 2.595917 1_555
Ga12 Ga80 2.762506 1_544
Ga12 Ga74 2.859182 1_554
Ga12 Ga78 2.859234 1_545
Ga12 Na30 3.075918 1_554
Ga12 Na26 3.075973 1_545
Ga13 Ga31 2.595885 1_555
Ga13 Ga81 2.762539 1_445
Ga13 Ga79 2.859309 1_455
Ga13 Ga75 2.859309 1_545
Ga13 Na27 3.076021 1_455
Ga13 Na31 3.076021 1_545
Ga14 Ga32 2.595917 1_555
Ga14 Ga82 2.762506 1_454
Ga14 Ga77 2.859182 1_554
Ga14 Ga76 2.859233 1_455
Ga14 Na28 3.075918 1_554
Ga14 Na29 3.075973 1_455
Ga15 Ga33 2.587294 1_555
Ga15 Ga90 2.676709 1_555
Ga15 Ga86 2.676747 1_555
Ga15 Ga83 2.824650 1_566
Ga15 Ga68 2.856119 1_556
Ga15 Ga72 2.856154 1_565
Ga15 Na24 3.165231 1_556
Ga15 Na20 3.165287 1_565
Ga15 Na33 3.665615 1_555
Ga16 Ga34 2.587333 1_555
Ga16 Ga91 2.676687 1_555
Ga16 Ga87 2.676687 1_555
Ga16 Ga84 2.824644 1_665
Ga16 Ga73 2.856055 1_655
Ga16 Ga69 2.856056 1_565
Ga16 Na21 3.165293 1_655
Ga16 Na25 3.165293 1_565
Ga16 Na33 3.666914 1_555
Ga17 Ga35 2.587294 1_555
Ga17 Ga88 2.676709 1_555
Ga17 Ga89 2.676747 1_555
Ga17 Ga85 2.824650 1_656
Ga17 Ga71 2.856119 1_556
Ga17 Ga70 2.856154 1_655
Ga17 Na22 3.165231 1_556
Ga17 Na23 3.165287 1_655
Ga17 Na33 3.665615 1_555
Ga18 Ga48 2.599850 1_555
Ga18 Ga45 2.600051 1_555
Ga18 Ga42 2.648765 1_555
Ga18 Ga60 2.765360 1_555
Ga18 Ga57 2.765447 1_555
Ga18 Ga24 2.978031 1_555
Ga18 Na5 3.255041 1_555
Ga18 Na11 3.301069 1_555
Ga19 Ga46 2.599850 1_555
Ga19 Ga49 2.600051 1_555
Ga19 Ga42 2.648765 1_555
Ga19 Ga58 2.765360 1_555
Ga19 Ga61 2.765447 1_555
Ga19 Ga25 2.978031 1_555
Ga19 Na6 3.255041 1_555
Ga19 Na12 3.301069 1_555
Ga20 Ga47 2.599821 1_555
Ga20 Ga44 2.599821 1_555
Ga20 Ga42 2.648932 1_555
Ga20 Ga59 2.765542 1_555
Ga20 Ga56 2.765542 1_555
Ga20 Ga26 2.978512 1_555
Ga20 Na7 3.254844 1_555
Ga20 Na13 3.300774 1_555
Ga21 Ga51 2.599904 1_555
Ga21 Ga54 2.599984 1_555
Ga21 Ga43 2.662219 1_555
Ga21 Ga63 2.794724 1_555
Ga21 Ga66 2.794784 1_555
Ga21 Ga27 2.969148 1_555
Ga21 Na2 3.223655 1_555
Ga21 Na8 3.296714 1_555
Ga22 Ga55 2.599904 1_555
Ga22 Ga52 2.599984 1_555
Ga22 Ga43 2.662219 1_555
Ga22 Ga67 2.794724 1_555
Ga22 Ga64 2.794784 1_555
Ga22 Ga28 2.969148 1_555
Ga22 Na3 3.223655 1_555
Ga22 Na9 3.296714 1_555
Ga23 Ga53 2.599979 1_555
Ga23 Ga50 2.599979 1_555
Ga23 Ga43 2.662041 1_555
Ga23 Ga65 2.794704 1_555
Ga23 Ga62 2.794704 1_555
Ga23 Ga29 2.969187 1_555
Ga23 Na4 3.223522 1_555
Ga23 Na10 3.296102 1_555
Ga24 Ga30 2.628049 1_555
Ga24 Ga31 2.628078 1_555
Ga24 Ga42 2.712344 1_555
Ga24 Ga57 2.739232 1_555
Ga24 Ga60 2.739243 1_555
Ga24 Ga25 2.890631 1_555
Ga24 Ga26 2.890715 1_555
Ga24 Na8 3.142875 1_545
Ga24 Na32 3.420096 1_555
Ga25 Ga32 2.628049 1_555
Ga25 Ga31 2.628078 1_555
Ga25 Ga42 2.712344 1_555
Ga25 Ga61 2.739232 1_555
Ga25 Ga58 2.739243 1_555
Ga25 Ga26 2.890715 1_555
Ga25 Na9 3.142875 1_455
Ga25 Na32 3.420096 1_555
Ga26 Ga32 2.628104 1_555
Ga26 Ga30 2.628104 1_555
Ga26 Ga42 2.712479 1_555
Ga26 Ga59 2.739141 1_555
Ga26 Ga56 2.739141 1_555
Ga26 Na10 3.142404 1_554
Ga26 Na32 3.419590 1_555
Ga27 Ga34 2.637081 1_555
Ga27 Ga33 2.637128 1_555
Ga27 Ga66 2.699343 1_555
Ga27 Ga63 2.699370 1_555
Ga27 Ga43 2.727909 1_555
Ga27 Ga28 2.949363 1_555
Ga27 Ga29 2.949514 1_555
Ga27 Na11 3.148477 1_565
Ga27 Na33 3.462145 1_555
Ga28 Ga34 2.637081 1_555
Ga28 Ga35 2.637128 1_555
Ga28 Ga64 2.699343 1_555
Ga28 Ga67 2.699370 1_555
Ga28 Ga43 2.727909 1_555
Ga28 Ga29 2.949514 1_555
Ga28 Na12 3.148477 1_655
Ga28 Na33 3.462145 1_555
Ga29 Ga35 2.637151 1_555
Ga29 Ga33 2.637151 1_555
Ga29 Ga65 2.699326 1_555
Ga29 Ga62 2.699326 1_555
Ga29 Ga43 2.727747 1_555
Ga29 Na13 3.148332 1_556
Ga29 Na33 3.461509 1_555
Ga30 Ga7 2.826359 1_555
Ga30 Ga57 2.941314 1_555
Ga30 Ga59 2.941359 1_555
Ga30 Na26 3.123432 1_545
Ga30 Na30 3.123436 1_554
Ga30 Na32 3.569571 1_555
Ga31 Ga8 2.826409 1_555
Ga31 Ga58 2.941315 1_555
Ga31 Ga60 2.941315 1_555
Ga31 Na27 3.123571 1_455
Ga31 Na31 3.123571 1_545
Ga31 Na32 3.570260 1_555
Ga32 Ga6 2.826359 1_555
Ga32 Ga61 2.941314 1_555
Ga32 Ga56 2.941359 1_555
Ga32 Na29 3.123432 1_455
Ga32 Na28 3.123436 1_554
Ga32 Na32 3.569571 1_555
Ga33 Ga65 2.944239 1_555
Ga33 Ga63 2.944243 1_555
Ga33 Na24 3.128339 1_556
Ga33 Na20 3.128375 1_565
Ga33 Na33 3.554881 1_555
Ga34 Ga64 2.944226 1_555
Ga34 Ga66 2.944226 1_555
Ga34 Na21 3.128405 1_655
Ga34 Na25 3.128405 1_565
Ga34 Na33 3.555948 1_555
Ga35 Ga9 2.800630 1_555
Ga35 Ga62 2.944239 1_555
Ga35 Ga67 2.944243 1_555
Ga35 Na22 3.128339 1_556
Ga35 Na23 3.128375 1_655
Ga35 Na33 3.554881 1_555
Ga36 Ga7 2.636324 1_555
Ga36 Ga41 2.702523 1_554
Ga36 Ga40 2.702557 1_545
Ga36 Ga5 2.724555 1_655
Ga36 Ga4 2.724557 1_655
Ga36 Na26 3.224772 1_545
Ga36 Na30 3.224774 1_554
Ga36 Na25 3.228609 1_555
Ga36 Na22 3.228643 1_555
Ga36 Na14 3.310425 1_555
Ga37 Ga8 2.636341 1_555
Ga37 Ga41 2.702559 1_455
Ga37 Ga39 2.702559 1_545
Ga37 Ga5 2.724570 1_556
Ga37 Na31 3.224818 1_545
Ga37 Na27 3.224818 1_455
Ga37 Na20 3.228567 1_555
Ga37 Na23 3.228567 1_555
Ga37 Na15 3.310614 1_555
Ga38 Ga6 2.636324 1_555
Ga38 Ga39 2.702523 1_554
Ga38 Ga40 2.702557 1_455
Ga38 Ga4 2.724557 1_565
Ga38 Na29 3.224772 1_455
Ga38 Na28 3.224774 1_554
Ga38 Na21 3.228609 1_555
Ga38 Na24 3.228643 1_555
Ga38 Na16 3.310425 1_555
Ga39 Na31 3.201558 1_555
Ga39 Na28 3.201611 1_555
Ga39 Na24 3.272867 1_556
Ga39 Na20 3.272867 1_565
Ga39 Na17 3.277313 1_555
Ga40 Na26 3.201543 1_555
Ga40 Na29 3.201543 1_555
Ga40 Na25 3.272899 1_565
Ga40 Na21 3.272899 1_655
Ga40 Na18 3.277550 1_555
Ga41 Ga9 2.620448 1_555
Ga41 Ga5 2.788771 1_656
Ga41 Na27 3.201558 1_555
Ga41 Na30 3.201611 1_555
Ga41 Na22 3.272867 1_556
Ga41 Na23 3.272867 1_655
Ga41 Na19 3.277314 1_555
Ga44 Ga68 2.633044 1_555
Ga44 Ga6 2.796093 1_555
Ga44 Ga49 2.826739 1_555
Ga44 Ga56 2.864224 1_555
Ga44 Na16 3.141396 1_555
Ga44 Na24 3.239955 1_555
Ga44 Na7 3.406133 1_555
Ga44 Na2 3.408851 1_555
Ga45 Ga69 2.633005 1_555
Ga45 Ga7 2.796048 1_555
Ga45 Ga47 2.826739 1_555
Ga45 Ga57 2.864079 1_555
Ga45 Na14 3.141364 1_555
Ga45 Na25 3.239669 1_555
Ga45 Na5 3.406118 1_555
Ga45 Na3 3.409072 1_555
Ga46 Ga70 2.633001 1_555
Ga46 Ga8 2.796194 1_555
Ga46 Ga48 2.826426 1_555
Ga46 Ga58 2.864354 1_555
Ga46 Na15 3.141496 1_555
Ga46 Na23 3.240084 1_555
Ga46 Na6 3.405829 1_555
Ga46 Na4 3.408876 1_555
Ga47 Ga71 2.633044 1_555
Ga47 Ga7 2.796093 1_555
Ga47 Ga59 2.864224 1_555
Ga47 Na14 3.141396 1_555
Ga47 Na22 3.239955 1_555
Ga47 Na7 3.406133 1_555
Ga47 Na3 3.408851 1_555
Ga48 Ga72 2.633001 1_555
Ga48 Ga8 2.796194 1_555
Ga48 Ga60 2.864354 1_555
Ga48 Na15 3.141496 1_555
Ga48 Na20 3.240084 1_555
Ga48 Na5 3.405829 1_555
Ga48 Na4 3.408876 1_555
Ga49 Ga73 2.633005 1_555
Ga49 Ga6 2.796048 1_555
Ga49 Ga61 2.864079 1_555
Ga49 Na16 3.141365 1_555
Ga49 Na21 3.239669 1_555
Ga49 Na6 3.406118 1_555
Ga49 Na2 3.409072 1_555
Ga50 Ga74 2.632143 1_555
Ga50 Ga55 2.768636 1_555
Ga50 Ga9 2.800856 1_555
Ga50 Ga62 2.881801 1_555
Ga50 Na19 3.136072 1_555
Ga50 Na30 3.238481 1_555
Ga50 Na5 3.405318 1_555
Ga50 Na4 3.434579 1_555
Ga51 Ga75 2.632159 1_555
Ga51 Ga53 2.768636 1_555
Ga51 Ga63 2.881818 1_555
Ga51 Na17 3.136115 1_555
Ga51 Na31 3.238553 1_555
Ga51 Na6 3.405271 1_555
Ga51 Na2 3.434608 1_555
Ga52 Ga76 2.632178 1_555
Ga52 Ga54 2.768696 1_555
Ga52 Ga64 2.881706 1_555
Ga52 Na18 3.136072 1_555
Ga52 Na29 3.238487 1_555
Ga52 Na7 3.405201 1_555
Ga52 Na3 3.434681 1_555
Ga53 Ga77 2.632143 1_555
Ga53 Ga65 2.881801 1_555
Ga53 Na17 3.136072 1_555
Ga53 Na28 3.238481 1_555
Ga53 Na6 3.405318 1_555
Ga53 Na4 3.434579 1_555
Ga54 Ga78 2.632178 1_555
Ga54 Ga66 2.881706 1_555
Ga54 Na18 3.136071 1_555
Ga54 Na26 3.238487 1_555
Ga54 Na7 3.405201 1_555
Ga54 Na2 3.434681 1_555
Ga55 Ga79 2.632159 1_555
Ga55 Ga9 2.800874 1_555
Ga55 Ga67 2.881818 1_555
Ga55 Na19 3.136115 1_555
Ga55 Na27 3.238553 1_555
Ga55 Na5 3.405271 1_555
Ga55 Na3 3.434608 1_555
Ga56 Ga65 2.640879 1_554
Ga56 Ga6 2.702268 1_555
Ga56 Na24 3.029624 1_555
Ga56 Na28 3.167141 1_554
Ga56 Na13 3.450495 1_555
Ga57 Ga66 2.640854 1_545
Ga57 Ga7 2.702355 1_555
Ga57 Na25 3.029613 1_555
Ga57 Na26 3.167109 1_545
Ga57 Na11 3.450586 1_555
Ga58 Ga67 2.640910 1_455
Ga58 Ga8 2.702240 1_555
Ga58 Na23 3.029566 1_555
Ga58 Na27 3.167133 1_455
Ga58 Na12 3.450680 1_555
Ga59 Ga62 2.640879 1_554
Ga59 Ga7 2.702268 1_555
Ga59 Na22 3.029624 1_555
Ga59 Na30 3.167141 1_554
Ga59 Na13 3.450495 1_555
Ga60 Ga63 2.640910 1_545
Ga60 Ga8 2.702240 1_555
Ga60 Na20 3.029566 1_555
Ga60 Na31 3.167133 1_545
Ga60 Na11 3.450680 1_555
Ga61 Ga64 2.640854 1_455
Ga61 Na21 3.029613 1_555
Ga61 Na29 3.167109 1_455
Ga61 Na12 3.450586 1_555
Ga62 Ga9 2.708044 1_555
Ga62 Na30 3.023078 1_555
Ga62 Na22 3.169571 1_556
Ga62 Na10 3.460101 1_555
Ga63 Na31 3.023093 1_555
Ga63 Na20 3.169708 1_565
Ga63 Na8 3.460583 1_555
Ga64 Na29 3.023132 1_555
Ga64 Na21 3.169721 1_655
Ga64 Na9 3.460616 1_555
Ga65 Na28 3.023078 1_555
Ga65 Na24 3.169571 1_556
Ga65 Na10 3.460101 1_555
Ga66 Na26 3.023132 1_555
Ga66 Na25 3.169721 1_565
Ga66 Na8 3.460616 1_555
Ga67 Ga9 2.708098 1_555
Ga67 Na27 3.023093 1_555
Ga67 Na23 3.169708 1_655
Ga67 Na9 3.460583 1_555
Ga68 Ga78 2.657454 1_555
Ga68 Ga90 2.749318 1_554
Ga68 Ga83 2.815524 1_565
Ga68 Na24 3.128759 1_555
Ga68 Na16 3.276409 1_555
Ga68 Na7 3.630646 1_555
Ga69 Ga79 2.657427 1_555
Ga69 Ga91 2.749231 1_545
Ga69 Ga84 2.815434 1_655
Ga69 Na25 3.128789 1_555
Ga69 Na14 3.276435 1_555
Ga69 Na5 3.630730 1_555
Ga70 Ga77 2.657485 1_555
Ga70 Ga89 2.749362 1_455
Ga70 Ga85 2.815569 1_556
Ga70 Na23 3.128736 1_555
Ga70 Na15 3.276279 1_555
Ga70 Na6 3.630560 1_555
Ga71 Ga76 2.657454 1_555
Ga71 Ga88 2.749318 1_554
Ga71 Ga85 2.815524 1_655
Ga71 Na22 3.128759 1_555
Ga71 Na14 3.276409 1_555
Ga71 Na7 3.630646 1_555
Ga72 Ga74 2.657485 1_555
Ga72 Ga86 2.749362 1_545
Ga72 Ga83 2.815569 1_556
Ga72 Na20 3.128736 1_555
Ga72 Na15 3.276279 1_555
Ga72 Na5 3.630560 1_555
Ga73 Ga75 2.657427 1_555
Ga73 Ga87 2.749231 1_455
Ga73 Ga84 2.815434 1_565
Ga73 Na21 3.128789 1_555
Ga73 Na16 3.276435 1_555
Ga73 Na6 3.630730 1_555
Ga74 Ga80 2.775825 1_545
Ga74 Ga86 2.918291 1_545
Ga74 Na30 3.118291 1_555
Ga74 Na19 3.155788 1_555
Ga75 Ga81 2.775886 1_455
Ga75 Ga87 2.918286 1_455
Ga75 Na31 3.118259 1_555
Ga75 Na17 3.155702 1_555
Ga76 Ga82 2.775907 1_554
Ga76 Ga88 2.918328 1_554
Ga76 Na29 3.118300 1_555
Ga76 Na18 3.155617 1_555
Ga77 Ga82 2.775825 1_455
Ga77 Ga89 2.918291 1_455
Ga77 Na28 3.118291 1_555
Ga77 Na17 3.155788 1_555
Ga78 Ga80 2.775907 1_554
Ga78 Ga90 2.918328 1_554
Ga78 Na26 3.118300 1_555
Ga78 Na18 3.155617 1_555
Ga79 Ga81 2.775886 1_545
Ga79 Ga91 2.918286 1_545
Ga79 Na27 3.118259 1_555
Ga79 Na19 3.155702 1_555
Ga80 Ga90 2.827702 1_555
Ga80 Ga86 2.827720 1_555
Ga80 Na19 3.230895 1_565
Ga80 Na18 3.230935 1_556
Ga80 Na30 3.247056 1_565
Ga80 Na26 3.247099 1_556
Ga80 Na1 3.271740 1_555
Ga81 Ga91 2.827724 1_555
Ga81 Ga87 2.827724 1_555
Ga81 Na19 3.230897 1_565
Ga81 Na17 3.230897 1_655
Ga81 Na31 3.247049 1_655
Ga81 Na27 3.247049 1_565
Ga81 Na1 3.271608 1_555
Ga82 Ga88 2.827702 1_555
Ga82 Ga89 2.827720 1_555
Ga82 Na17 3.230895 1_655
Ga82 Na18 3.230935 1_556
Ga82 Na28 3.247056 1_655
Ga82 Na29 3.247099 1_556
Ga82 Na1 3.271740 1_555
Ga83 Na24 3.187747 1_545
Ga83 Na20 3.187779 1_554
Ga83 Na15 3.264943 1_554
Ga83 Na16 3.264975 1_545
Ga83 Na0 3.328572 1_555
Ga84 Na25 3.187706 1_455
Ga84 Na21 3.187706 1_545
Ga84 Na16 3.264992 1_545
Ga84 Na14 3.264992 1_455
Ga84 Na0 3.328261 1_555
Ga85 Na22 3.187747 1_455
Ga85 Na23 3.187779 1_554
Ga85 Na15 3.264943 1_554
Ga85 Na14 3.264975 1_455
Ga85 Na0 3.328572 1_555
Ga86 Ga91 2.760247 1_555
Ga86 Ga90 2.980655 1_555
Ga86 Na19 3.157526 1_565
Ga86 Na1 3.214610 1_555
Ga86 Na11 3.433213 1_565
Ga86 Na33 3.621749 1_555
Ga87 Ga89 2.760247 1_555
Ga87 Ga91 2.980665 1_555
Ga87 Na17 3.157530 1_655
Ga87 Na1 3.214531 1_555
Ga87 Na12 3.433207 1_655
Ga87 Na33 3.622360 1_555
Ga88 Ga90 2.760287 1_555
Ga88 Ga89 2.980655 1_555
Ga88 Na18 3.157331 1_556
Ga88 Na1 3.214684 1_555
Ga88 Na13 3.433360 1_556
Ga88 Na33 3.621079 1_555
Ga89 Na17 3.157526 1_655
Ga89 Na1 3.214610 1_555
Ga89 Na12 3.433213 1_655
Ga89 Na33 3.621749 1_555
Ga90 Na18 3.157331 1_556
Ga90 Na1 3.214684 1_555
Ga90 Na13 3.433360 1_556
Ga90 Na33 3.621079 1_555
Ga91 Na19 3.157530 1_565
Ga91 Na1 3.214531 1_555
Ga91 Na11 3.433207 1_565
Ga91 Na33 3.622360 1_555
Cu0 Cu6 2.509692 1_555
Cu0 Ga49 2.625621 1_555
Cu0 Ga44 2.625729 1_555
Cu0 Cu1 2.658548 1_555
Cu0 Cu2 2.661821 1_555
Cu0 Ga19 2.679940 1_555
Cu0 Ga20 2.680421 1_555
Cu0 Ga42 2.681135 1_555
Cu0 Na2 3.134877 1_555
Cu0 Na6 3.471324 1_555
Cu0 Na7 3.472099 1_555
Cu1 Cu6 2.509692 1_555
Cu1 Ga45 2.625621 1_555
Cu1 Ga47 2.625729 1_555
Cu1 Cu2 2.661820 1_555
Cu1 Ga18 2.679940 1_555
Cu1 Ga20 2.680421 1_555
Cu1 Ga42 2.681135 1_555
Cu1 Na3 3.134877 1_555
Cu1 Na5 3.471324 1_555
Cu1 Na7 3.472099 1_555
Cu2 Cu6 2.511272 1_555
Cu2 Ga46 2.622509 1_555
Cu2 Ga48 2.622509 1_555
Cu2 Ga18 2.681925 1_555
Cu2 Ga19 2.681925 1_555
Cu2 Ga42 2.685649 1_555
Cu2 Na4 3.130554 1_555
Cu2 Na6 3.470221 1_555
Cu2 Na5 3.470221 1_555
Cu3 Cu6 2.516082 1_555
Cu3 Ga50 2.614771 1_555
Cu3 Ga55 2.614841 1_555
Cu3 Ga43 2.675309 1_555
Cu3 Cu4 2.677514 1_555
Cu3 Cu5 2.677586 1_555
Cu3 Ga23 2.679131 1_555
Cu3 Ga22 2.679235 1_555
Cu3 Na5 3.092857 1_555
Cu3 Na3 3.486604 1_555
Cu4 Cu6 2.516082 1_555
Cu4 Ga53 2.614771 1_555
Cu4 Ga51 2.614841 1_555
Cu4 Ga43 2.675309 1_555
Cu4 Cu5 2.677586 1_555
Cu4 Ga23 2.679131 1_555
Cu4 Ga21 2.679235 1_555
Cu4 Na6 3.092857 1_555
Cu4 Na2 3.486604 1_555
Cu5 Cu6 2.515828 1_555
Cu5 Ga52 2.614831 1_555
Cu5 Ga54 2.614832 1_555
Cu5 Ga43 2.674703 1_555
Cu5 Ga21 2.678587 1_555
Cu5 Ga22 2.678587 1_555
Cu5 Na7 3.093623 1_555
Cu5 Na3 3.486831 1_555
Cu5 Na2 3.486831 1_555
Cu6 Na7 3.561392 1_555
Cu6 Na6 3.562549 1_555
Cu6 Na5 3.562550 1_555
Cu6 Na3 3.594146 1_555
Cu6 Na2 3.594146 1_555
