# generated using pymatgen
data_Ba6LiNb2Ir(ClO6)2
_symmetry_space_group_name_H-M   'P 1'
_cell_length_a   6.03814992
_cell_length_b   6.03350972
_cell_length_c   15.40667915
_cell_angle_alpha   85.80162773
_cell_angle_beta   94.21041792
_cell_angle_gamma   120.37219768
_symmetry_Int_Tables_number   1
_chemical_formula_structural   Ba6LiNb2Ir(ClO6)2
_chemical_formula_sum   'Ba6 Li1 Nb2 Ir1 Cl2 O12'
_cell_volume   482.52131392
_cell_formula_units_Z   1
loop_
 _symmetry_equiv_pos_site_id
 _symmetry_equiv_pos_as_xyz
  1  'x, y, z'
loop_
 _atom_site_type_symbol
 _atom_site_label
 _atom_site_symmetry_multiplicity
 _atom_site_fract_x
 _atom_site_fract_y
 _atom_site_fract_z
 _atom_site_occupancy
  Ba  Ba0  1  0.31054200  0.69040600  0.36677000  1
  Ba  Ba1  1  0.34776600  0.65338700  0.78202700  1
  Ba  Ba2  1  0.66839000  0.33279400  0.63679700  1
  Ba  Ba3  1  0.69652100  0.30448100  0.90599900  1
  Ba  Ba4  1  0.37848900  0.62248700  0.03447500  1
  Ba  Ba5  1  0.62876400  0.37117300  0.22306800  1
  Li  Li0  1  0.20543100  0.79336000  0.17353200  1
  Nb  Nb0  1  0.02364500  0.97714400  0.81594900  1
  Nb  Nb1  1  0.94970600  0.05075500  0.18390400  1
  Ir  Ir0  1  0.01958700  0.98044800  0.00125000  1
  Cl  Cl0  1  0.65759400  0.34321400  0.42645400  1
  Cl  Cl1  1  0.33642200  0.66472800  0.57482200  1
  O  O0  1  0.18973200  0.28305900  0.90671800  1
  O  O1  1  0.34545200  0.13785700  0.75772800  1
  O  O2  1  0.10299600  0.39573200  0.22676900  1
  O  O3  1  0.86950000  0.65504100  0.75797100  1
  O  O4  1  0.85377700  0.14008000  0.75303000  1
  O  O5  1  0.85525300  0.71485800  0.10516200  1
  O  O6  1  0.10062900  0.90126800  0.26984700  1
  O  O7  1  0.28461000  0.14566100  0.10520900  1
  O  O8  1  0.85104600  0.14710600  0.06347300  1
  O  O9  1  0.71749400  0.80746500  0.90677000  1
  O  O10  1  0.60508000  0.89602200  0.22708700  1
  O  O11  1  0.17865700  0.82480800  0.92018800  1
loop_
_geom_bond_atom_site_label_1
_geom_bond_atom_site_label_2
_geom_bond_distance
_geom_bond_site_symmetry_2
Ba0 O6 2.555290 1_555
Ba0 O10 2.696904 1_555
Ba0 O2 2.701002 1_555
Ba0 Cl1 3.193927 1_555
Ba0 Cl0 3.556864 1_565
Ba0 Cl0 3.560394 1_455
Ba0 Cl0 3.674106 1_555
Ba1 O9 2.659822 1_555
Ba1 O0 2.660480 1_555
Ba1 O3 2.889382 1_455
Ba1 O11 2.890119 1_555
Ba1 O1 2.926585 1_565
Ba1 O4 3.015511 1_565
Ba1 O4 3.058367 1_455
Ba1 O1 3.152945 1_555
Ba1 Cl1 3.184503 1_555
Ba1 O3 3.193903 1_555
Ba2 O4 2.555154 1_555
Ba2 O1 2.559368 1_555
Ba2 O3 2.559525 1_555
Ba2 Cl0 3.233195 1_555
Ba2 Cl1 3.526895 1_555
Ba2 Cl1 3.645405 1_545
Ba2 Cl1 3.648238 1_655
Ba3 O8 2.807948 1_556
Ba3 O3 2.859254 1_555
Ba3 O1 2.862299 1_555
Ba3 O9 2.973611 1_555
Ba3 O0 2.997609 1_555
Ba3 O11 3.009621 1_545
Ba3 O4 3.010494 1_555
Ba3 O11 3.023855 1_655
Ba3 O0 3.044665 1_655
Ba3 O9 3.063865 1_545
Ba4 O11 2.628532 1_554
Ba4 O9 2.695629 1_554
Ba4 O0 2.695884 1_554
Ba4 O7 2.787153 1_555
Ba4 O5 2.791068 1_555
Ba4 Li0 2.913117 1_555
Ba4 O8 3.040903 1_565
Ba4 O8 3.058295 1_455
Ba4 O10 3.352511 1_555
Ba4 O2 3.353320 1_555
Ba5 O7 2.532838 1_555
Ba5 O5 2.532897 1_555
Ba5 O2 2.788000 1_655
Ba5 O10 2.793513 1_545
Ba5 O6 3.102032 1_545
Ba5 O6 3.112496 1_655
Ba5 Cl0 3.122467 1_555
Ba5 O10 3.246554 1_555
Ba5 O2 3.256874 1_555
Li0 O6 1.929312 1_555
Li0 O5 2.130251 1_455
Li0 O7 2.138565 1_565
Li0 O2 2.257604 1_555
Li0 O10 2.271269 1_555
Nb0 O4 1.921531 1_465
Nb0 O1 1.934891 1_565
Nb0 O3 1.934939 1_455
Nb0 O0 2.160634 1_565
Nb0 O9 2.163230 1_455
Nb0 O11 2.175570 1_555
Nb1 O2 1.946408 1_655
Nb1 O10 1.947358 1_545
Nb1 O6 1.968828 1_645
Nb1 O8 2.040947 1_555
Nb1 O7 2.230377 1_655
Nb1 O5 2.234692 1_545
Ir0 O8 2.070016 1_465
Ir0 O7 2.089044 1_565
Ir0 O5 2.089294 1_455
Ir0 O9 2.107798 1_454
Ir0 O0 2.108019 1_564
Ir0 O11 2.150359 1_554
