# generated using pymatgen
data_Hf3Pb
_symmetry_space_group_name_H-M   'P 1'
_cell_length_a   4.45124106
_cell_length_b   4.45124106
_cell_length_c   4.45124106
_cell_angle_alpha   90.00000000
_cell_angle_beta   90.00000000
_cell_angle_gamma   90.00000000
_symmetry_Int_Tables_number   1
_chemical_formula_structural   Hf3Pb
_chemical_formula_sum   'Hf3 Pb1'
_cell_volume   88.19487384
_cell_formula_units_Z   1
loop_
 _symmetry_equiv_pos_site_id
 _symmetry_equiv_pos_as_xyz
  1  'x, y, z'
loop_
 _atom_site_type_symbol
 _atom_site_label
 _atom_site_symmetry_multiplicity
 _atom_site_fract_x
 _atom_site_fract_y
 _atom_site_fract_z
 _atom_site_occupancy
  Hf  Hf0  1  0.50000000  0.00000000  0.50000000  1
  Hf  Hf1  1  0.00000000  0.50000000  0.50000000  1
  Hf  Hf2  1  0.50000000  0.50000000  0.00000000  1
  Pb  Pb0  1  0.00000000  -0.00000000  0.00000000  1
loop_
_geom_bond_atom_site_label_1
_geom_bond_atom_site_label_2
_geom_bond_distance
_geom_bond_site_symmetry_2
Hf0 Hf2 3.147503 1_556
Hf0 Hf2 3.147503 1_555
Hf0 Pb0 3.147503 1_556
Hf0 Hf2 3.147503 1_546
Hf0 Hf1 3.147503 1_645
Hf0 Pb0 3.147503 1_655
Hf0 Pb0 3.147503 1_656
Hf0 Hf1 3.147503 1_655
Hf0 Hf2 3.147503 1_545
Hf0 Pb0 3.147503 1_555
Hf0 Hf1 3.147503 1_545
Hf0 Hf1 3.147503 1_555
Hf1 Hf2 3.147503 1_556
Hf1 Hf2 3.147503 1_555
Hf1 Pb0 3.147503 1_556
Hf1 Pb0 3.147503 1_565
Hf1 Hf2 3.147503 1_456
Hf1 Pb0 3.147503 1_555
Hf1 Hf2 3.147503 1_455
Hf1 Pb0 3.147503 1_566
Hf2 Pb0 3.147503 1_665
Hf2 Pb0 3.147503 1_655
Hf2 Pb0 3.147503 1_565
Hf2 Pb0 3.147503 1_555
