# generated using pymatgen
data_Cr2ReMo
_symmetry_space_group_name_H-M   'P 1'
_cell_length_a   10.26896933
_cell_length_b   10.26896933
_cell_length_c   10.26896933
_cell_angle_alpha   120.74236599
_cell_angle_beta   119.69273901
_cell_angle_gamma   89.62601864
_symmetry_Int_Tables_number   1
_chemical_formula_structural   Cr2ReMo
_chemical_formula_sum   'Cr2 Re1 Mo1'
_cell_volume   763.09600752
_cell_formula_units_Z   1
loop_
 _symmetry_equiv_pos_site_id
 _symmetry_equiv_pos_as_xyz
  1  'x, y, z'
loop_
 _atom_site_type_symbol
 _atom_site_label
 _atom_site_symmetry_multiplicity
 _atom_site_fract_x
 _atom_site_fract_y
 _atom_site_fract_z
 _atom_site_occupancy
  Cr  Cr0  1  0.72071100  0.00000000  0.72071100  1
  Cr  Cr1  1  0.27928900  0.00000000  0.27928900  1
  Re  Re0  1  0.50000000  0.00000000  0.50000000  1
  Mo  Mo0  1  0.00000000  0.00000000  0.00000000  1
loop_
_geom_bond_atom_site_label_1
_geom_bond_atom_site_label_2
_geom_bond_distance
_geom_bond_site_symmetry_2
Cr0 Re0 2.276992 1_555
Cr0 Mo0 2.881320 1_656
Cr1 Re0 2.276992 1_555
Cr1 Mo0 2.881320 1_555
