# generated using pymatgen
data_Ti4H7
_symmetry_space_group_name_H-M   'P 1'
_cell_length_a   4.38701249
_cell_length_b   4.38701249
_cell_length_c   4.38701249
_cell_angle_alpha   90.00000000
_cell_angle_beta   90.00000000
_cell_angle_gamma   90.00000000
_symmetry_Int_Tables_number   1
_chemical_formula_structural   Ti4H7
_chemical_formula_sum   'Ti4 H7'
_cell_volume   84.43190974
_cell_formula_units_Z   1
loop_
 _symmetry_equiv_pos_site_id
 _symmetry_equiv_pos_as_xyz
  1  'x, y, z'
loop_
 _atom_site_type_symbol
 _atom_site_label
 _atom_site_symmetry_multiplicity
 _atom_site_fract_x
 _atom_site_fract_y
 _atom_site_fract_z
 _atom_site_occupancy
  Ti  Ti0  1  0.25423089  0.74576911  0.74576911  1
  Ti  Ti1  1  0.74576911  0.25423089  0.74576911  1
  Ti  Ti2  1  0.74576911  0.74576911  0.25423089  1
  Ti  Ti3  1  0.25423089  0.25423089  0.25423089  1
  H  H0  1  0.50000000  -0.00000000  0.00000000  1
  H  H1  1  -0.00000000  0.50000000  0.50000000  1
  H  H2  1  0.50000000  -0.00000000  0.50000000  1
  H  H3  1  -0.00000000  0.50000000  -0.00000000  1
  H  H4  1  -0.00000000  -0.00000000  0.00000000  1
  H  H5  1  -0.00000000  -0.00000000  0.50000000  1
  H  H6  1  0.50000000  0.50000000  0.00000000  1
loop_
_geom_bond_atom_site_label_1
_geom_bond_atom_site_label_2
_geom_bond_distance
_geom_bond_site_symmetry_2
H0 Ti1 1.910589 1_554
H0 Ti3 1.910589 1_555
H0 Ti2 1.910589 1_545
H0 Ti0 1.910589 1_544
H1 Ti2 1.889159 1_455
H1 Ti0 1.889159 1_555
H1 Ti3 1.889159 1_555
H1 Ti1 1.889159 1_455
H2 Ti2 1.889159 1_545
H2 Ti3 1.889159 1_555
H2 Ti0 1.889159 1_545
H2 Ti1 1.889159 1_555
H3 Ti0 1.910589 1_554
H3 Ti2 1.910589 1_455
H3 Ti3 1.910589 1_555
H3 Ti1 1.910589 1_454
H4 Ti0 1.931781 1_544
H4 Ti1 1.931781 1_454
H4 Ti2 1.931781 1_445
H4 Ti3 1.931781 1_555
H5 Ti1 1.910589 1_455
H5 Ti2 1.910589 1_445
H5 Ti3 1.910589 1_555
H5 Ti0 1.910589 1_545
H6 Ti0 1.889159 1_554
H6 Ti1 1.889159 1_554
H6 Ti2 1.889159 1_555
H6 Ti3 1.889159 1_555
