# generated using pymatgen
data_Zn(NiS2)2
_symmetry_space_group_name_H-M   'P 1'
_cell_length_a   6.87366764
_cell_length_b   6.87366764
_cell_length_c   6.87366764
_cell_angle_alpha   60.00000000
_cell_angle_beta   60.00000000
_cell_angle_gamma   60.00000000
_symmetry_Int_Tables_number   1
_chemical_formula_structural   Zn(NiS2)2
_chemical_formula_sum   'Zn2 Ni4 S8'
_cell_volume   229.64161331
_cell_formula_units_Z   2
loop_
 _symmetry_equiv_pos_site_id
 _symmetry_equiv_pos_as_xyz
  1  'x, y, z'
loop_
 _atom_site_type_symbol
 _atom_site_label
 _atom_site_symmetry_multiplicity
 _atom_site_fract_x
 _atom_site_fract_y
 _atom_site_fract_z
 _atom_site_occupancy
  Zn  Zn0  1  0.75000000  0.75000000  0.75000000  1
  Zn  Zn1  1  0.50000000  0.50000000  0.50000000  1
  Ni  Ni0  1  0.12500000  0.12500000  0.62500000  1
  Ni  Ni1  1  0.62500000  0.12500000  0.12500000  1
  Ni  Ni2  1  0.12500000  0.12500000  0.12500000  1
  Ni  Ni3  1  0.12500000  0.62500000  0.12500000  1
  S  S0  1  0.91641500  0.36119500  0.36119500  1
  S  S1  1  0.36119500  0.36119500  0.91641500  1
  S  S2  1  0.36119500  0.36119500  0.36119500  1
  S  S3  1  0.33358500  0.88880500  0.88880500  1
  S  S4  1  0.88880500  0.33358500  0.88880500  1
  S  S5  1  0.88880500  0.88880500  0.33358500  1
  S  S6  1  0.36119500  0.91641500  0.36119500  1
  S  S7  1  0.88880500  0.88880500  0.88880500  1
loop_
_geom_bond_atom_site_label_1
_geom_bond_atom_site_label_2
_geom_bond_distance
_geom_bond_site_symmetry_2
Ni0 S0 2.303842 1_455
Ni0 S4 2.303842 1_455
Ni0 S3 2.303842 1_545
Ni0 S6 2.303842 1_545
Ni0 S2 2.303842 1_555
Ni0 S7 2.303842 1_445
Ni1 S5 2.303842 1_545
Ni1 S4 2.303842 1_554
Ni1 S1 2.303842 1_554
Ni1 S2 2.303842 1_555
Ni1 S6 2.303842 1_545
Ni1 S7 2.303842 1_544
Ni2 S0 2.303842 1_455
Ni2 S1 2.303842 1_554
Ni2 S6 2.303842 1_545
Ni2 S3 2.303842 1_544
Ni2 S5 2.303842 1_445
Ni2 S4 2.303842 1_454
Ni3 S3 2.303842 1_554
Ni3 S2 2.303842 1_555
Ni3 S1 2.303842 1_554
Ni3 S5 2.303842 1_455
Ni3 S0 2.303842 1_455
Ni3 S7 2.303842 1_454
S0 Zn1 2.337057 1_555
S1 Zn1 2.337057 1_555
S2 Zn1 2.337057 1_555
S3 Zn0 2.337057 1_555
S4 Zn0 2.337057 1_555
S5 Zn0 2.337057 1_555
S6 Zn1 2.337057 1_555
S7 Zn0 2.337057 1_555
