# generated using pymatgen
data_CsYbI3
_symmetry_space_group_name_H-M   'P 1'
_cell_length_a   8.57107400
_cell_length_b   8.78458900
_cell_length_c   12.39946600
_cell_angle_alpha   90.00000000
_cell_angle_beta   90.00000000
_cell_angle_gamma   90.00000000
_symmetry_Int_Tables_number   1
_chemical_formula_structural   CsYbI3
_chemical_formula_sum   'Cs4 Yb4 I12'
_cell_volume   933.59748684
_cell_formula_units_Z   4
loop_
 _symmetry_equiv_pos_site_id
 _symmetry_equiv_pos_as_xyz
  1  'x, y, z'
loop_
 _atom_site_type_symbol
 _atom_site_label
 _atom_site_symmetry_multiplicity
 _atom_site_fract_x
 _atom_site_fract_y
 _atom_site_fract_z
 _atom_site_occupancy
  Cs  Cs0  1  0.47967800  0.95011300  0.25000000  1
  Cs  Cs1  1  0.97967800  0.54988700  0.75000000  1
  Cs  Cs2  1  0.02032200  0.45011300  0.25000000  1
  Cs  Cs3  1  0.52032200  0.04988700  0.75000000  1
  Yb  Yb0  1  0.00000000  0.00000000  0.00000000  1
  Yb  Yb1  1  0.50000000  0.50000000  0.00000000  1
  Yb  Yb2  1  0.50000000  0.50000000  0.50000000  1
  Yb  Yb3  1  0.00000000  0.00000000  0.50000000  1
  I  I0  1  0.55564000  0.50274200  0.25000000  1
  I  I1  1  0.05564000  0.99725800  0.75000000  1
  I  I2  1  0.94436000  0.00274200  0.25000000  1
  I  I3  1  0.44436000  0.49725800  0.75000000  1
  I  I4  1  0.29474100  0.20713000  0.02749200  1
  I  I5  1  0.79474100  0.29287000  0.97250800  1
  I  I6  1  0.20525900  0.70713000  0.47250800  1
  I  I7  1  0.70525900  0.79287000  0.52749200  1
  I  I8  1  0.70525900  0.79287000  0.97250800  1
  I  I9  1  0.20525900  0.70713000  0.02749200  1
  I  I10  1  0.79474100  0.29287000  0.52749200  1
  I  I11  1  0.29474100  0.20713000  0.47250800  1
loop_
_geom_bond_atom_site_label_1
_geom_bond_atom_site_label_2
_geom_bond_distance
_geom_bond_site_symmetry_2
Cs0 I4 3.901558 1_565
Cs0 I11 3.901558 1_565
Cs0 I0 3.983537 1_555
Cs0 I2 4.009567 1_565
Cs0 I7 4.181521 1_555
Cs0 I8 4.181521 1_554
Cs0 I6 4.207172 1_555
Cs0 I9 4.207172 1_555
Cs1 I5 3.901558 1_555
Cs1 I10 3.901558 1_555
Cs1 I1 3.983537 1_655
Cs1 I3 4.009567 1_655
Cs1 I9 4.181521 1_656
Cs1 I6 4.181521 1_655
Cs1 I8 4.207172 1_555
Cs1 I7 4.207172 1_555
Cs2 I6 3.901558 1_555
Cs2 I9 3.901558 1_555
Cs2 I2 3.983537 1_455
Cs2 I0 4.009567 1_455
Cs2 I10 4.181521 1_455
Cs2 I5 4.181521 1_454
Cs2 I11 4.207172 1_555
Cs2 I4 4.207172 1_555
Cs3 I7 3.901558 1_545
Cs3 I8 3.901558 1_545
Cs3 I3 3.983537 1_555
Cs3 I1 4.009567 1_545
Cs3 I11 4.181521 1_555
Cs3 I4 4.181521 1_556
Cs3 I5 4.207172 1_555
Cs3 I10 4.207172 1_555
I0 Yb1 3.136428 1_555
I0 Yb2 3.136428 1_555
I1 Yb3 3.136428 1_565
I1 Yb0 3.136428 1_566
I2 Yb0 3.136428 1_655
I2 Yb3 3.136428 1_655
I3 Yb2 3.136428 1_555
I3 Yb1 3.136428 1_556
I4 Yb0 3.131916 1_555
I4 Yb1 3.135332 1_555
I5 Yb1 3.131916 1_556
I5 Yb0 3.135332 1_656
I6 Yb2 3.131916 1_555
I6 Yb3 3.135332 1_565
I7 Yb3 3.131916 1_665
I7 Yb2 3.135332 1_555
I8 Yb0 3.131916 1_666
I8 Yb1 3.135332 1_556
I9 Yb1 3.131916 1_555
I9 Yb0 3.135332 1_565
I10 Yb2 3.131916 1_555
I10 Yb3 3.135332 1_655
I11 Yb3 3.131916 1_555
I11 Yb2 3.135332 1_555
