# generated using pymatgen
data_LaInCu5
_symmetry_space_group_name_H-M   'P 1'
_cell_length_a   5.13844600
_cell_length_b   10.67222400
_cell_length_c   16.92543100
_cell_angle_alpha   90.00000000
_cell_angle_beta   90.00000000
_cell_angle_gamma   90.00000000
_symmetry_Int_Tables_number   1
_chemical_formula_structural   LaInCu5
_chemical_formula_sum   'La8 In8 Cu40'
_cell_volume   928.16773126
_cell_formula_units_Z   8
loop_
 _symmetry_equiv_pos_site_id
 _symmetry_equiv_pos_as_xyz
  1  'x, y, z'
loop_
 _atom_site_type_symbol
 _atom_site_label
 _atom_site_symmetry_multiplicity
 _atom_site_fract_x
 _atom_site_fract_y
 _atom_site_fract_z
 _atom_site_occupancy
  La  La0  1  0.50000000  0.50000000  0.50000000  1
  La  La1  1  0.00000000  0.00000000  0.00000000  1
  La  La2  1  0.50000000  0.50000000  0.00000000  1
  La  La3  1  0.00000000  0.00000000  0.50000000  1
  La  La4  1  0.50000000  0.88408700  0.74521800  1
  La  La5  1  0.50000000  0.11591300  0.25478200  1
  La  La6  1  0.00000000  0.61591300  0.24521800  1
  La  La7  1  0.00000000  0.38408700  0.75478200  1
  In  In0  1  0.50000000  0.80769800  0.55233700  1
  In  In1  1  0.50000000  0.19230200  0.44766300  1
  In  In2  1  0.00000000  0.69230200  0.05233700  1
  In  In3  1  0.00000000  0.30769800  0.94766300  1
  In  In4  1  0.50000000  0.58283500  0.80630000  1
  In  In5  1  0.50000000  0.41716500  0.19370000  1
  In  In6  1  0.00000000  0.91716500  0.30630000  1
  In  In7  1  0.00000000  0.08283500  0.69370000  1
  Cu  Cu0  1  0.50000000  0.81021300  0.03395000  1
  Cu  Cu1  1  0.50000000  0.18978700  0.96605000  1
  Cu  Cu2  1  0.00000000  0.68978700  0.53395000  1
  Cu  Cu3  1  0.00000000  0.31021300  0.46605000  1
  Cu  Cu4  1  0.50000000  0.66277800  0.15210800  1
  Cu  Cu5  1  0.50000000  0.33722200  0.84789200  1
  Cu  Cu6  1  0.00000000  0.83722200  0.65210800  1
  Cu  Cu7  1  0.00000000  0.16277800  0.34789200  1
  Cu  Cu8  1  0.50000000  0.57103200  0.33172800  1
  Cu  Cu9  1  0.50000000  0.42896800  0.66827200  1
  Cu  Cu10  1  0.00000000  0.92896800  0.83172800  1
  Cu  Cu11  1  0.00000000  0.07103200  0.16827200  1
  Cu  Cu12  1  0.50000000  0.94817900  0.40416800  1
  Cu  Cu13  1  0.50000000  0.05182100  0.59583200  1
  Cu  Cu14  1  0.00000000  0.55182100  0.90416800  1
  Cu  Cu15  1  0.00000000  0.44817900  0.09583200  1
  Cu  Cu16  1  0.25053100  0.75602300  0.90753700  1
  Cu  Cu17  1  0.25053100  0.24397700  0.09246300  1
  Cu  Cu18  1  0.24946900  0.74397700  0.40753700  1
  Cu  Cu19  1  0.24946900  0.25602300  0.59246300  1
  Cu  Cu20  1  0.74946900  0.24397700  0.09246300  1
  Cu  Cu21  1  0.74946900  0.75602300  0.90753700  1
  Cu  Cu22  1  0.75053100  0.25602300  0.59246300  1
  Cu  Cu23  1  0.75053100  0.74397700  0.40753700  1
  Cu  Cu24  1  0.24989100  0.63319600  0.65866500  1
  Cu  Cu25  1  0.24989100  0.36680400  0.34133500  1
  Cu  Cu26  1  0.25010900  0.86680400  0.15866500  1
  Cu  Cu27  1  0.25010900  0.13319600  0.84133500  1
  Cu  Cu28  1  0.75010900  0.36680400  0.34133500  1
  Cu  Cu29  1  0.75010900  0.63319600  0.65866500  1
  Cu  Cu30  1  0.74989100  0.13319600  0.84133500  1
  Cu  Cu31  1  0.74989100  0.86680400  0.15866500  1
  Cu  Cu32  1  0.50000000  0.79982800  0.28345400  1
  Cu  Cu33  1  0.50000000  0.20017200  0.71654600  1
  Cu  Cu34  1  0.00000000  0.70017200  0.78345400  1
  Cu  Cu35  1  0.00000000  0.29982800  0.21654600  1
  Cu  Cu36  1  0.50000000  0.95815600  0.91399000  1
  Cu  Cu37  1  0.50000000  0.04184400  0.08601000  1
  Cu  Cu38  1  0.00000000  0.54184400  0.41399000  1
  Cu  Cu39  1  0.00000000  0.45815600  0.58601000  1
loop_
_geom_bond_atom_site_label_1
_geom_bond_atom_site_label_2
_geom_bond_distance
_geom_bond_site_symmetry_2
In0 La4 3.364846 1_555
In0 La0 3.401202 1_555
In0 La3 3.405509 1_565
In0 La3 3.405509 1_665
In1 La5 3.364846 1_555
In1 La0 3.401202 1_555
In1 La3 3.405509 1_555
In1 La3 3.405509 1_655
In2 La6 3.364846 1_555
In2 La1 3.401202 1_565
In2 La2 3.405509 1_455
In2 La2 3.405509 1_555
In3 La7 3.364846 1_555
In3 La1 3.401202 1_556
In3 La2 3.405509 1_556
In3 La2 3.405509 1_456
In4 La4 3.377164 1_555
In4 La2 3.395554 1_556
In4 La7 3.443867 1_555
In4 La7 3.443867 1_655
In5 La5 3.377164 1_555
In5 La2 3.395554 1_555
In5 La6 3.443867 1_555
In5 La6 3.443867 1_655
In6 La6 3.377164 1_555
In6 La3 3.395554 1_565
In6 La5 3.443867 1_465
In6 La5 3.443867 1_565
In7 La7 3.377164 1_555
In7 La3 3.395554 1_555
In7 La4 3.443867 1_545
In7 La4 3.443867 1_445
Cu0 Cu31 2.543473 1_555
Cu0 Cu26 2.543473 1_555
Cu0 Cu4 2.544656 1_555
Cu0 Cu21 2.560381 1_554
Cu0 Cu16 2.560381 1_554
Cu0 Cu36 2.572020 1_554
Cu0 Cu37 2.624362 1_565
Cu0 In2 2.877718 1_655
Cu0 In2 2.877718 1_555
Cu0 La1 3.321677 1_565
Cu0 La1 3.321677 1_665
Cu0 La2 3.360160 1_555
Cu1 Cu30 2.543473 1_555
Cu1 Cu27 2.543473 1_555
Cu1 Cu5 2.544656 1_555
Cu1 Cu20 2.560381 1_556
Cu1 Cu17 2.560381 1_556
Cu1 Cu37 2.572020 1_556
Cu1 Cu36 2.624362 1_545
Cu1 In3 2.877718 1_555
Cu1 In3 2.877718 1_655
Cu1 La1 3.321677 1_656
Cu1 La1 3.321677 1_556
Cu1 La2 3.360160 1_556
Cu2 Cu24 2.543473 1_555
Cu2 Cu29 2.543473 1_455
Cu2 Cu6 2.544656 1_555
Cu2 Cu23 2.560381 1_455
Cu2 Cu38 2.572020 1_555
Cu2 Cu39 2.624362 1_555
Cu2 In0 2.877718 1_555
Cu2 In0 2.877718 1_455
Cu2 La0 3.321677 1_455
Cu2 La0 3.321677 1_555
Cu2 La3 3.360160 1_565
Cu3 Cu7 2.544656 1_555
Cu3 Cu39 2.572020 1_555
Cu3 Cu38 2.624362 1_555
Cu3 In1 2.877718 1_455
Cu3 In1 2.877718 1_555
Cu3 La0 3.321677 1_455
Cu3 La0 3.321677 1_555
Cu3 La3 3.360160 1_555
Cu4 In5 2.714120 1_555
Cu4 La6 3.055259 1_555
Cu4 La6 3.055259 1_655
Cu4 In2 3.090596 1_555
Cu4 In2 3.090596 1_655
Cu4 La2 3.105784 1_555
Cu4 Cu8 3.193930 1_555
Cu5 In4 2.714120 1_555
Cu5 La7 3.055259 1_555
Cu5 La7 3.055259 1_655
Cu5 In3 3.090596 1_555
Cu5 In3 3.090596 1_655
Cu5 La2 3.105784 1_556
Cu5 Cu9 3.193930 1_555
Cu6 In7 2.714120 1_565
Cu6 La4 3.055259 1_555
Cu6 La4 3.055259 1_455
Cu6 In0 3.090596 1_555
Cu6 In0 3.090596 1_455
Cu6 La3 3.105784 1_565
Cu7 In6 2.714120 1_545
Cu7 La5 3.055259 1_455
Cu7 La5 3.055259 1_555
Cu7 In1 3.090596 1_455
Cu7 In1 3.090596 1_555
Cu7 La3 3.105784 1_555
Cu8 In5 2.855566 1_555
Cu8 La0 2.947237 1_555
Cu8 La6 2.995708 1_555
Cu8 La6 2.995708 1_655
Cu9 In4 2.855566 1_555
Cu9 La0 2.947237 1_555
Cu9 La7 2.995708 1_555
Cu9 La7 2.995708 1_655
Cu10 Cu27 2.535472 1_565
Cu10 Cu30 2.535472 1_465
Cu10 Cu34 2.574837 1_555
Cu10 Cu16 2.590411 1_555
Cu10 Cu21 2.590411 1_455
Cu10 In7 2.855566 1_565
Cu10 Cu36 2.938791 1_455
Cu10 Cu36 2.938791 1_555
Cu10 La1 2.947237 1_566
Cu10 La4 2.995708 1_555
Cu10 La4 2.995708 1_455
Cu10 Cu6 3.193930 1_555
Cu11 Cu26 2.535472 1_545
Cu11 Cu31 2.535472 1_445
Cu11 Cu35 2.574837 1_555
Cu11 Cu17 2.590411 1_555
Cu11 Cu20 2.590411 1_455
Cu11 In6 2.855566 1_545
Cu11 Cu37 2.938791 1_455
Cu11 Cu37 2.938791 1_555
Cu11 La1 2.947237 1_555
Cu11 La5 2.995708 1_555
Cu11 La5 2.995708 1_455
Cu11 Cu7 3.193930 1_555
Cu12 Cu23 2.531758 1_555
Cu12 Cu18 2.531758 1_555
Cu12 Cu32 2.584771 1_555
Cu12 In1 2.707346 1_565
Cu12 In0 2.921800 1_555
Cu12 In6 3.074787 1_555
Cu12 In6 3.074787 1_655
Cu12 La3 3.088307 1_565
Cu12 La3 3.088307 1_665
Cu12 La5 3.097961 1_565
Cu13 Cu22 2.531758 1_555
Cu13 Cu19 2.531758 1_555
Cu13 Cu33 2.584771 1_555
Cu13 In0 2.707346 1_545
Cu13 In1 2.921800 1_555
Cu13 In7 3.074787 1_555
Cu13 In7 3.074787 1_655
Cu13 La3 3.088307 1_555
Cu13 La3 3.088307 1_655
Cu13 La4 3.097961 1_545
Cu14 Cu16 2.531758 1_555
Cu14 Cu21 2.531758 1_455
Cu14 Cu34 2.584771 1_555
Cu14 In3 2.707346 1_555
Cu14 In2 2.921800 1_556
Cu14 In4 3.074787 1_555
Cu14 In4 3.074787 1_455
Cu14 La2 3.088307 1_556
Cu14 La2 3.088307 1_456
Cu14 La7 3.097961 1_555
Cu15 Cu17 2.531758 1_555
Cu15 Cu20 2.531758 1_455
Cu15 Cu35 2.584771 1_555
Cu15 In2 2.707346 1_555
Cu15 In3 2.921800 1_554
Cu15 In5 3.074787 1_555
Cu15 In5 3.074787 1_455
Cu15 La2 3.088307 1_455
Cu15 La2 3.088307 1_555
Cu15 La6 3.097961 1_555
Cu16 Cu36 2.511713 1_555
Cu16 Cu34 2.534401 1_555
Cu16 Cu21 2.563766 1_555
Cu16 Cu21 2.574680 1_455
Cu16 In4 2.827623 1_555
Cu16 In2 2.850638 1_556
Cu16 La1 3.299402 1_566
Cu16 La4 3.325497 1_555
Cu16 La2 3.399710 1_556
Cu17 Cu37 2.511713 1_555
Cu17 Cu35 2.534401 1_555
Cu17 Cu20 2.563766 1_555
Cu17 Cu20 2.574680 1_455
Cu17 In5 2.827623 1_555
Cu17 In3 2.850638 1_554
Cu17 La1 3.299402 1_555
Cu17 La5 3.325497 1_555
Cu17 La2 3.399710 1_555
Cu18 Cu38 2.511713 1_555
Cu18 Cu32 2.534401 1_555
Cu18 Cu2 2.560381 1_555
Cu18 Cu23 2.563766 1_455
Cu18 Cu23 2.574680 1_555
Cu18 Cu8 2.590411 1_555
Cu18 In6 2.827623 1_555
Cu18 In0 2.850638 1_555
Cu18 La0 3.299402 1_555
Cu18 La6 3.325497 1_555
Cu18 La3 3.399710 1_565
Cu19 Cu39 2.511713 1_555
Cu19 Cu33 2.534401 1_555
Cu19 Cu3 2.560381 1_555
Cu19 Cu22 2.563766 1_455
Cu19 Cu22 2.574680 1_555
Cu19 Cu9 2.590411 1_555
Cu19 In7 2.827623 1_555
Cu19 In1 2.850638 1_555
Cu19 La0 3.299402 1_555
Cu19 La7 3.325497 1_555
Cu19 La3 3.399710 1_555
Cu20 Cu37 2.511713 1_555
Cu20 Cu35 2.534401 1_655
Cu20 In5 2.827623 1_555
Cu20 In3 2.850638 1_654
Cu20 La1 3.299402 1_655
Cu20 La5 3.325497 1_555
Cu20 La2 3.399710 1_555
Cu21 Cu36 2.511713 1_555
Cu21 Cu34 2.534401 1_655
Cu21 In4 2.827623 1_555
Cu21 In2 2.850638 1_656
Cu21 La1 3.299402 1_666
Cu21 La4 3.325497 1_555
Cu21 La2 3.399710 1_556
Cu22 Cu39 2.511713 1_655
Cu22 Cu33 2.534401 1_555
Cu22 Cu3 2.560381 1_655
Cu22 Cu9 2.590411 1_555
Cu22 In7 2.827623 1_655
Cu22 In1 2.850638 1_555
Cu22 La0 3.299402 1_555
Cu22 La7 3.325497 1_655
Cu22 La3 3.399710 1_655
Cu23 Cu38 2.511713 1_655
Cu23 Cu32 2.534401 1_555
Cu23 Cu8 2.590411 1_555
Cu23 In6 2.827623 1_655
Cu23 In0 2.850638 1_555
Cu23 La0 3.299402 1_555
Cu23 La6 3.325497 1_655
Cu23 La3 3.399710 1_665
Cu24 Cu6 2.530262 1_555
Cu24 Cu9 2.535472 1_555
Cu24 Cu29 2.568103 1_455
Cu24 Cu29 2.570343 1_555
Cu24 Cu34 2.573072 1_555
Cu24 Cu39 2.578888 1_555
Cu24 In4 2.860850 1_555
Cu24 In0 2.891133 1_555
Cu24 La0 3.299104 1_555
Cu24 La4 3.311660 1_555
Cu24 La7 3.370936 1_555
Cu25 Cu7 2.530262 1_555
Cu25 Cu8 2.535472 1_555
Cu25 Cu3 2.543473 1_555
Cu25 Cu28 2.568103 1_455
Cu25 Cu28 2.570343 1_555
Cu25 Cu35 2.573072 1_555
Cu25 Cu38 2.578888 1_555
Cu25 In5 2.860850 1_555
Cu25 In1 2.891133 1_555
Cu25 La0 3.299104 1_555
Cu25 La5 3.311660 1_555
Cu25 La6 3.370936 1_555
Cu26 Cu4 2.530262 1_555
Cu26 Cu31 2.568103 1_555
Cu26 Cu31 2.570343 1_455
Cu26 Cu32 2.573072 1_555
Cu26 Cu37 2.578888 1_565
Cu26 In6 2.860850 1_555
Cu26 In2 2.891133 1_555
Cu26 La1 3.299104 1_565
Cu26 La6 3.311660 1_555
Cu26 La5 3.370936 1_565
Cu27 Cu5 2.530262 1_555
Cu27 Cu30 2.568103 1_555
Cu27 Cu30 2.570343 1_455
Cu27 Cu33 2.573072 1_555
Cu27 Cu36 2.578888 1_545
Cu27 In7 2.860850 1_555
Cu27 In3 2.891133 1_555
Cu27 La1 3.299104 1_556
Cu27 La7 3.311660 1_555
Cu27 La4 3.370936 1_545
Cu28 Cu7 2.530262 1_655
Cu28 Cu8 2.535472 1_555
Cu28 Cu3 2.543473 1_655
Cu28 Cu35 2.573072 1_655
Cu28 Cu38 2.578888 1_655
Cu28 In5 2.860850 1_555
Cu28 In1 2.891133 1_555
Cu28 La0 3.299104 1_555
Cu28 La5 3.311660 1_555
Cu28 La6 3.370936 1_655
Cu29 Cu6 2.530262 1_655
Cu29 Cu9 2.535472 1_555
Cu29 Cu34 2.573072 1_655
Cu29 Cu39 2.578888 1_655
Cu29 In4 2.860850 1_555
Cu29 In0 2.891133 1_555
Cu29 La0 3.299104 1_555
Cu29 La4 3.311660 1_555
Cu29 La7 3.370936 1_655
Cu30 Cu5 2.530262 1_555
Cu30 Cu33 2.573072 1_555
Cu30 Cu36 2.578888 1_545
Cu30 In7 2.860850 1_655
Cu30 In3 2.891133 1_655
Cu30 La1 3.299104 1_656
Cu30 La7 3.311660 1_655
Cu30 La4 3.370936 1_545
Cu31 Cu4 2.530262 1_555
Cu31 Cu32 2.573072 1_555
Cu31 Cu37 2.578888 1_565
Cu31 In6 2.860850 1_655
Cu31 In2 2.891133 1_655
Cu31 La1 3.299104 1_665
Cu31 La6 3.311660 1_655
Cu31 La5 3.370936 1_565
Cu32 Cu8 2.574837 1_555
Cu32 Cu4 2.661090 1_555
Cu32 In6 2.884189 1_655
Cu32 In6 2.884189 1_555
Cu32 La6 3.297308 1_555
Cu32 La6 3.297308 1_655
Cu32 La5 3.408058 1_565
Cu33 Cu9 2.574837 1_555
Cu33 Cu5 2.661090 1_555
Cu33 In7 2.884189 1_555
Cu33 In7 2.884189 1_655
Cu33 La7 3.297308 1_555
Cu33 La7 3.297308 1_655
Cu33 La4 3.408058 1_545
Cu34 Cu6 2.661090 1_555
Cu34 In4 2.884189 1_455
Cu34 In4 2.884189 1_555
Cu34 La4 3.297308 1_455
Cu34 La4 3.297308 1_555
Cu34 La7 3.408058 1_555
Cu35 Cu7 2.661090 1_555
Cu35 In5 2.884189 1_455
Cu35 In5 2.884189 1_555
Cu35 La5 3.297308 1_455
Cu35 La5 3.297308 1_555
Cu35 La6 3.408058 1_555
Cu36 La4 2.963895 1_555
Cu36 La1 2.986563 1_666
Cu36 La1 2.986563 1_566
Cu36 Cu37 3.045423 1_566
Cu37 La5 2.963895 1_555
Cu37 La1 2.986563 1_555
Cu37 La1 2.986563 1_655
Cu38 Cu8 2.938791 1_555
Cu38 Cu8 2.938791 1_455
Cu38 La6 2.963895 1_555
Cu38 La0 2.986563 1_455
Cu38 La0 2.986563 1_555
Cu38 Cu39 3.045423 1_555
Cu39 Cu9 2.938791 1_455
Cu39 Cu9 2.938791 1_555
Cu39 La7 2.963895 1_555
Cu39 La0 2.986563 1_555
Cu39 La0 2.986563 1_455
