# generated using pymatgen
data_Tm2S3
_symmetry_space_group_name_H-M   'P 1'
_cell_length_a   7.23141158
_cell_length_b   7.23141209
_cell_length_c   7.23141218
_cell_angle_alpha   55.79216814
_cell_angle_beta   55.79216704
_cell_angle_gamma   55.79216583
_symmetry_Int_Tables_number   1
_chemical_formula_structural   Tm2S3
_chemical_formula_sum   'Tm4 S6'
_cell_volume   241.30482846
_cell_formula_units_Z   2
loop_
 _symmetry_equiv_pos_site_id
 _symmetry_equiv_pos_as_xyz
  1  'x, y, z'
loop_
 _atom_site_type_symbol
 _atom_site_label
 _atom_site_symmetry_multiplicity
 _atom_site_fract_x
 _atom_site_fract_y
 _atom_site_fract_z
 _atom_site_occupancy
  Tm  Tm0  1  0.84958708  0.84958708  0.84958708  1
  Tm  Tm1  1  0.65041292  0.65041292  0.65041292  1
  Tm  Tm2  1  0.15041292  0.15041292  0.15041292  1
  Tm  Tm3  1  0.34958708  0.34958708  0.34958708  1
  S  S0  1  0.05297649  0.75000000  0.44702351  1
  S  S1  1  0.75000000  0.44702351  0.05297649  1
  S  S2  1  0.44702351  0.05297649  0.75000000  1
  S  S3  1  0.94702351  0.25000000  0.55297649  1
  S  S4  1  0.55297649  0.94702351  0.25000000  1
  S  S5  1  0.25000000  0.55297649  0.94702351  1
loop_
_geom_bond_atom_site_label_1
_geom_bond_atom_site_label_2
_geom_bond_distance
_geom_bond_site_symmetry_2
S0 Tm3 2.663222 1_555
S0 Tm2 2.663222 1_565
S0 Tm1 2.740149 1_455
S0 Tm0 2.740149 1_455
S1 Tm2 2.663222 1_655
S1 Tm3 2.663222 1_555
S1 Tm0 2.740149 1_554
S1 Tm1 2.740149 1_554
S2 Tm2 2.663222 1_556
S2 Tm3 2.663222 1_555
S2 Tm0 2.740149 1_545
S2 Tm1 2.740149 1_545
S3 Tm1 2.663222 1_555
S3 Tm0 2.663222 1_545
S3 Tm3 2.740149 1_655
S3 Tm2 2.740149 1_655
S4 Tm0 2.663222 1_554
S4 Tm1 2.663222 1_555
S4 Tm2 2.740149 1_565
S4 Tm3 2.740149 1_565
S5 Tm0 2.663222 1_455
S5 Tm1 2.663222 1_555
S5 Tm2 2.740149 1_556
S5 Tm3 2.740149 1_556
