# generated using pymatgen
data_LaH40C13N9O19
_symmetry_space_group_name_H-M   'P 1'
_cell_length_a   10.16935504
_cell_length_b   18.48203644
_cell_length_c   19.82100283
_cell_angle_alpha   90.00000000
_cell_angle_beta   90.00000000
_cell_angle_gamma   93.74047183
_symmetry_Int_Tables_number   1
_chemical_formula_structural   LaH40C13N9O19
_chemical_formula_sum   'La4 H160 C52 N36 O76'
_cell_volume   3717.42939329
_cell_formula_units_Z   4
loop_
 _symmetry_equiv_pos_site_id
 _symmetry_equiv_pos_as_xyz
  1  'x, y, z'
loop_
 _atom_site_type_symbol
 _atom_site_label
 _atom_site_symmetry_multiplicity
 _atom_site_fract_x
 _atom_site_fract_y
 _atom_site_fract_z
 _atom_site_occupancy
  La  La0  1  0.76889006  0.22490562  0.91155862  1
  La  La1  1  0.23110994  0.27509438  0.41155862  1
  La  La2  1  0.23110994  0.77509438  0.08844138  1
  La  La3  1  0.76889006  0.72490562  0.58844138  1
  H  H0  1  0.95255290  0.05910148  0.69660245  1
  H  H1  1  0.04744710  0.44089852  0.19660245  1
  H  H2  1  0.04744710  0.94089852  0.30339755  1
  H  H3  1  0.95255290  0.55910148  0.80339755  1
  H  H4  1  0.91549772  0.97626042  0.64966175  1
  H  H5  1  0.08450228  0.52373958  0.14966175  1
  H  H6  1  0.08450228  0.02373958  0.35033825  1
  H  H7  1  0.91549772  0.47626042  0.85033825  1
  H  H8  1  0.96120730  0.05836442  0.60562520  1
  H  H9  1  0.03879270  0.44163558  0.10562520  1
  H  H10  1  0.03879270  0.94163558  0.39437480  1
  H  H11  1  0.96120730  0.55836442  0.89437480  1
  H  H12  1  0.76533108  0.03545054  0.54029292  1
  H  H13  1  0.23466892  0.46454946  0.04029292  1
  H  H14  1  0.23466892  0.96454946  0.45970708  1
  H  H15  1  0.76533108  0.53545054  0.95970708  1
  H  H16  1  0.71248981  0.95732361  0.58977484  1
  H  H17  1  0.28751019  0.54267639  0.08977484  1
  H  H18  1  0.28751019  0.04267639  0.41022516  1
  H  H19  1  0.71248981  0.45732361  0.91022516  1
  H  H20  1  0.60631589  0.03110129  0.58042375  1
  H  H21  1  0.39368411  0.46889871  0.08042375  1
  H  H22  1  0.39368411  0.96889871  0.41957625  1
  H  H23  1  0.60631589  0.53110129  0.91957625  1
  H  H24  1  0.81383533  0.15227609  0.59735664  1
  H  H25  1  0.18616467  0.34772391  0.09735664  1
  H  H26  1  0.18616467  0.84772391  0.40264336  1
  H  H27  1  0.81383533  0.65227609  0.90264336  1
  H  H28  1  0.65428404  0.14265215  0.63624153  1
  H  H29  1  0.34571596  0.35734785  0.13624153  1
  H  H30  1  0.34571596  0.85734785  0.36375847  1
  H  H31  1  0.65428404  0.64265215  0.86375847  1
  H  H32  1  0.79845553  0.15693329  0.68800982  1
  H  H33  1  0.20154447  0.34306671  0.18800982  1
  H  H34  1  0.20154447  0.84306671  0.31199018  1
  H  H35  1  0.79845553  0.65693329  0.81199018  1
  H  H36  1  0.59116204  0.03153161  0.69975011  1
  H  H37  1  0.40883796  0.46846839  0.19975011  1
  H  H38  1  0.40883796  0.96846839  0.30024989  1
  H  H39  1  0.59116204  0.53153161  0.80024989  1
  H  H40  1  0.71236877  0.96663635  0.71368963  1
  H  H41  1  0.28763123  0.53336365  0.21368963  1
  H  H42  1  0.28763123  0.03336365  0.28631037  1
  H  H43  1  0.71236877  0.46663635  0.78631037  1
  H  H44  1  0.73315986  0.05571268  0.75069628  1
  H  H45  1  0.26684014  0.44428732  0.25069628  1
  H  H46  1  0.26684014  0.94428732  0.24930372  1
  H  H47  1  0.73315986  0.55571268  0.74930372  1
  H  H48  1  0.14010414  0.08153613  0.95125454  1
  H  H49  1  0.85989586  0.41846387  0.45125454  1
  H  H50  1  0.85989586  0.91846387  0.04874546  1
  H  H51  1  0.14010414  0.58153613  0.54874546  1
  H  H52  1  0.30106358  0.12358067  0.93485608  1
  H  H53  1  0.69893642  0.37641933  0.43485608  1
  H  H54  1  0.69893642  0.87641933  0.06514392  1
  H  H55  1  0.30106358  0.62358067  0.56514392  1
  H  H56  1  0.28283337  0.02988714  0.95898853  1
  H  H57  1  0.71716663  0.47011286  0.45898853  1
  H  H58  1  0.71716663  0.97011286  0.04101147  1
  H  H59  1  0.28283337  0.52988714  0.54101147  1
  H  H60  1  0.06747046  0.05894625  0.06504679  1
  H  H61  1  0.93252954  0.44105375  0.56504679  1
  H  H62  1  0.93252954  0.94105375  0.93495321  1
  H  H63  1  0.06747046  0.55894625  0.43495321  1
  H  H64  1  0.19944282  0.99869484  0.07206038  1
  H  H65  1  0.80055718  0.50130516  0.57206038  1
  H  H66  1  0.80055718  0.00130516  0.92793962  1
  H  H67  1  0.19944282  0.49869484  0.42793962  1
  H  H68  1  0.18401921  0.06975850  0.13287630  1
  H  H69  1  0.81598079  0.43024150  0.63287630  1
  H  H70  1  0.81598079  0.93024150  0.86712370  1
  H  H71  1  0.18401921  0.56975850  0.36712370  1
  H  H72  1  0.21526928  0.19322344  0.10007435  1
  H  H73  1  0.78473072  0.30677656  0.60007435  1
  H  H74  1  0.78473072  0.80677656  0.89992565  1
  H  H75  1  0.21526928  0.69322344  0.39992565  1
  H  H76  1  0.28314541  0.21761429  0.01876052  1
  H  H77  1  0.71685459  0.28238571  0.51876052  1
  H  H78  1  0.71685459  0.78238571  0.98123948  1
  H  H79  1  0.28314541  0.71761429  0.48123948  1
  H  H80  1  0.11423030  0.18290764  0.02560714  1
  H  H81  1  0.88576970  0.31709236  0.52560714  1
  H  H82  1  0.88576970  0.81709236  0.97439286  1
  H  H83  1  0.11423030  0.68290764  0.47439286  1
  H  H84  1  0.42465427  0.04605674  0.05491540  1
  H  H85  1  0.57534573  0.45394326  0.55491540  1
  H  H86  1  0.57534573  0.95394326  0.94508460  1
  H  H87  1  0.42465427  0.54605674  0.44508460  1
  H  H88  1  0.45868378  0.13852429  0.02808323  1
  H  H89  1  0.54131622  0.36147571  0.52808323  1
  H  H90  1  0.54131622  0.86147571  0.97191677  1
  H  H91  1  0.45868378  0.63852429  0.47191677  1
  H  H92  1  0.40326189  0.11885450  0.11277073  1
  H  H93  1  0.59673811  0.38114550  0.61277073  1
  H  H94  1  0.59673811  0.88114550  0.88722927  1
  H  H95  1  0.40326189  0.61885450  0.38722927  1
  H  H96  1  0.66280999  0.07970859  0.19724168  1
  H  H97  1  0.33719001  0.42029141  0.69724168  1
  H  H98  1  0.33719001  0.92029141  0.80275832  1
  H  H99  1  0.66280999  0.57970859  0.30275832  1
  H  H100  1  0.65418700  0.03385621  0.27722601  1
  H  H101  1  0.34581300  0.46614379  0.77722601  1
  H  H102  1  0.34581300  0.96614379  0.72277399  1
  H  H103  1  0.65418700  0.53385621  0.22277399  1
  H  H104  1  0.53749156  0.09966489  0.25725926  1
  H  H105  1  0.46250844  0.40033511  0.75725926  1
  H  H106  1  0.46250844  0.90033511  0.74274074  1
  H  H107  1  0.53749156  0.59966489  0.24274074  1
  H  H108  1  0.59732690  0.16031619  0.36077645  1
  H  H109  1  0.40267310  0.33968381  0.86077645  1
  H  H110  1  0.40267310  0.83968381  0.63922355  1
  H  H111  1  0.59732690  0.66031619  0.13922355  1
  H  H112  1  0.72509262  0.10029569  0.37985909  1
  H  H113  1  0.27490738  0.39970431  0.87985909  1
  H  H114  1  0.27490738  0.89970431  0.62014091  1
  H  H115  1  0.72509262  0.60029569  0.12014091  1
  H  H116  1  0.76347990  0.19646965  0.37397676  1
  H  H117  1  0.23652010  0.30353035  0.87397676  1
  H  H118  1  0.23652010  0.80353035  0.62602324  1
  H  H119  1  0.76347990  0.69646965  0.12602324  1
  H  H120  1  0.93259647  0.16900169  0.29588909  1
  H  H121  1  0.06740353  0.33099831  0.79588909  1
  H  H122  1  0.06740353  0.83099831  0.70411091  1
  H  H123  1  0.93259647  0.66900169  0.20411091  1
  H  H124  1  0.88423997  0.07414300  0.29300034  1
  H  H125  1  0.11576003  0.42585700  0.79300034  1
  H  H126  1  0.11576003  0.92585700  0.70699966  1
  H  H127  1  0.88423997  0.57414300  0.20699966  1
  H  H128  1  0.88954508  0.12625979  0.21634547  1
  H  H129  1  0.11045492  0.37374021  0.71634547  1
  H  H130  1  0.11045492  0.87374021  0.78365453  1
  H  H131  1  0.88954508  0.62625979  0.28365453  1
  H  H132  1  0.71612794  0.20597443  0.19202643  1
  H  H133  1  0.28387206  0.29402557  0.69202643  1
  H  H134  1  0.28387206  0.79402557  0.80797357  1
  H  H135  1  0.71612794  0.70597443  0.30797357  1
  H  H136  1  0.60595977  0.22854206  0.25894735  1
  H  H137  1  0.39404023  0.27145794  0.75894735  1
  H  H138  1  0.39404023  0.77145794  0.74105265  1
  H  H139  1  0.60595977  0.72854206  0.24105265  1
  H  H140  1  0.77840748  0.25527677  0.26514785  1
  H  H141  1  0.22159252  0.24472323  0.76514785  1
  H  H142  1  0.22159252  0.74472323  0.73485215  1
  H  H143  1  0.77840748  0.75527677  0.23485215  1
  H  H144  1  0.62070301  0.33246674  0.14880932  1
  H  H145  1  0.37929699  0.16753326  0.64880932  1
  H  H146  1  0.37929699  0.66753326  0.85119068  1
  H  H147  1  0.62070301  0.83246674  0.35119068  1
  H  H148  1  0.79042024  0.36182592  0.13825506  1
  H  H149  1  0.20957976  0.13817408  0.63825506  1
  H  H150  1  0.20957976  0.63817408  0.86174494  1
  H  H151  1  0.79042024  0.86182592  0.36174494  1
  H  H152  1  0.69740156  0.39690394  0.20611560  1
  H  H153  1  0.30259844  0.10309606  0.70611560  1
  H  H154  1  0.30259844  0.60309606  0.79388440  1
  H  H155  1  0.69740156  0.89690394  0.29388440  1
  H  H156  1  0.65168444  0.42176048  0.06678884  1
  H  H157  1  0.34831556  0.07823952  0.56678884  1
  H  H158  1  0.34831556  0.57823952  0.93321116  1
  H  H159  1  0.65168444  0.92176048  0.43321116  1
  C  C0  1  0.91054805  0.03526235  0.65014638  1
  C  C1  1  0.08945195  0.46473765  0.15014638  1
  C  C2  1  0.08945195  0.96473765  0.34985362  1
  C  C3  1  0.91054805  0.53526235  0.84985362  1
  C  C4  1  0.70839124  0.01606779  0.58425819  1
  C  C5  1  0.29160876  0.48393221  0.08425819  1
  C  C6  1  0.29160876  0.98393221  0.41574181  1
  C  C7  1  0.70839124  0.51606779  0.91574181  1
  C  C8  1  0.75839794  0.13217266  0.64156536  1
  C  C9  1  0.24160206  0.36782734  0.14156536  1
  C  C10  1  0.24160206  0.86782734  0.35843464  1
  C  C11  1  0.75839794  0.63217266  0.85843464  1
  C  C12  1  0.69604145  0.02416386  0.70722037  1
  C  C13  1  0.30395855  0.47583614  0.20722037  1
  C  C14  1  0.30395855  0.97583614  0.29277963  1
  C  C15  1  0.69604145  0.52416386  0.79277963  1
  C  C16  1  0.24423453  0.08330965  0.96524607  1
  C  C17  1  0.75576547  0.41669035  0.46524607  1
  C  C18  1  0.75576547  0.91669035  0.03475393  1
  C  C19  1  0.24423453  0.58330965  0.53475393  1
  C  C20  1  0.17009036  0.05395095  0.08004873  1
  C  C21  1  0.82990964  0.44604905  0.58004873  1
  C  C22  1  0.82990964  0.94604905  0.91995127  1
  C  C23  1  0.17009036  0.55395095  0.41995127  1
  C  C24  1  0.21375021  0.18054928  0.04612863  1
  C  C25  1  0.78624979  0.31945072  0.54612863  1
  C  C26  1  0.78624979  0.81945072  0.95387137  1
  C  C27  1  0.21375021  0.68054928  0.45387137  1
  C  C28  1  0.39670481  0.10198217  0.05993833  1
  C  C29  1  0.60329519  0.39801783  0.55993833  1
  C  C30  1  0.60329519  0.89801783  0.94006167  1
  C  C31  1  0.39670481  0.60198217  0.44006167  1
  C  C32  1  0.63903626  0.08456506  0.25078608  1
  C  C33  1  0.36096374  0.41543494  0.75078608  1
  C  C34  1  0.36096374  0.91543494  0.74921392  1
  C  C35  1  0.63903626  0.58456506  0.24921392  1
  C  C36  1  0.70150847  0.15047383  0.35460808  1
  C  C37  1  0.29849153  0.34952617  0.85460808  1
  C  C38  1  0.29849153  0.84952617  0.64539192  1
  C  C39  1  0.70150847  0.65047383  0.14539192  1
  C  C40  1  0.86966435  0.12706633  0.27056122  1
  C  C41  1  0.13033565  0.37293367  0.77056122  1
  C  C42  1  0.13033565  0.87293367  0.72943878  1
  C  C43  1  0.86966435  0.62706633  0.22943878  1
  C  C44  1  0.70559963  0.21376322  0.24647728  1
  C  C45  1  0.29440037  0.28623678  0.74647728  1
  C  C46  1  0.29440037  0.78623678  0.75352272  1
  C  C47  1  0.70559963  0.71376322  0.25352272  1
  C  C48  1  0.69310786  0.37928534  0.15327940  1
  C  C49  1  0.30689214  0.12071466  0.65327940  1
  C  C50  1  0.30689214  0.62071466  0.84672060  1
  C  C51  1  0.69310786  0.87928534  0.34672060  1
  N  N0  1  0.76857777  0.05185295  0.64579341  1
  N  N1  1  0.23142223  0.44814705  0.14579341  1
  N  N2  1  0.23142223  0.94814705  0.35420659  1
  N  N3  1  0.76857777  0.55185295  0.85420659  1
  N  N4  1  0.25622167  0.10492605  0.03786254  1
  N  N5  1  0.74377833  0.39507395  0.53786254  1
  N  N6  1  0.74377833  0.89507395  0.96213746  1
  N  N7  1  0.25622167  0.60492605  0.46213746  1
  N  N8  1  0.72889315  0.14354293  0.28069919  1
  N  N9  1  0.27110685  0.35645707  0.78069919  1
  N  N10  1  0.27110685  0.85645707  0.71930081  1
  N  N11  1  0.72889315  0.64354293  0.21930081  1
  N  N12  1  0.99195130  0.14764737  0.83703031  1
  N  N13  1  0.00804870  0.35235263  0.33703031  1
  N  N14  1  0.00804870  0.85235263  0.16296969  1
  N  N15  1  0.99195130  0.64764737  0.66296969  1
  N  N16  1  0.97228609  0.34755986  0.95846757  1
  N  N17  1  0.02771391  0.15244014  0.45846757  1
  N  N18  1  0.02771391  0.65244014  0.04153243  1
  N  N19  1  0.97228609  0.84755986  0.54153243  1
  N  N20  1  0.54297602  0.30715714  0.98113320  1
  N  N21  1  0.45702398  0.19284286  0.48113320  1
  N  N22  1  0.45702398  0.69284286  0.01886680  1
  N  N23  1  0.54297602  0.80715714  0.51886680  1
  N  N24  1  0.56569111  0.10399053  0.86056326  1
  N  N25  1  0.43430889  0.39600947  0.36056326  1
  N  N26  1  0.43430889  0.89600947  0.13943674  1
  N  N27  1  0.56569111  0.60399053  0.63943674  1
  N  N28  1  0.72471137  0.30839286  0.77653173  1
  N  N29  1  0.27528863  0.19160714  0.27653173  1
  N  N30  1  0.27528863  0.69160714  0.22346827  1
  N  N31  1  0.72471137  0.80839286  0.72346827  1
  N  N32  1  0.80861979  0.13821164  0.04378994  1
  N  N33  1  0.19138021  0.36178836  0.54378994  1
  N  N34  1  0.19138021  0.86178836  0.95621006  1
  N  N35  1  0.80861979  0.63821164  0.45621006  1
  O  O0  1  0.87251766  0.12050161  0.83843780  1
  O  O1  1  0.12748234  0.37949839  0.33843780  1
  O  O2  1  0.12748234  0.87949839  0.16156220  1
  O  O3  1  0.87251766  0.62050161  0.66156220  1
  O  O4  1  0.07831141  0.11953105  0.80322122  1
  O  O5  1  0.92168859  0.38046895  0.30322122  1
  O  O6  1  0.92168859  0.88046895  0.19677878  1
  O  O7  1  0.07831141  0.61953105  0.69677878  1
  O  O8  1  0.01802566  0.20524829  0.87201527  1
  O  O9  1  0.98197434  0.29475171  0.37201527  1
  O  O10  1  0.98197434  0.79475171  0.12798473  1
  O  O11  1  0.01802566  0.70524829  0.62798473  1
  O  O12  1  0.91149082  0.34986351  0.90166035  1
  O  O13  1  0.08850918  0.15013649  0.40166035  1
  O  O14  1  0.08850918  0.65013649  0.09833965  1
  O  O15  1  0.91149082  0.84986351  0.59833965  1
  O  O16  1  0.05263867  0.39781829  0.97621892  1
  O  O17  1  0.94736133  0.10218171  0.47621892  1
  O  O18  1  0.94736133  0.60218171  0.02378108  1
  O  O19  1  0.05263867  0.89781829  0.52378108  1
  O  O20  1  0.94659328  0.29176437  0.99538648  1
  O  O21  1  0.05340672  0.20823563  0.49538648  1
  O  O22  1  0.05340672  0.70823563  0.00461352  1
  O  O23  1  0.94659328  0.79176437  0.50461352  1
  O  O24  1  0.66216161  0.33424287  0.98366840  1
  O  O25  1  0.33783839  0.16575713  0.48366840  1
  O  O26  1  0.33783839  0.66575713  0.01633160  1
  O  O27  1  0.66216161  0.83424287  0.51633160  1
  O  O28  1  0.45108773  0.33810452  0.00814207  1
  O  O29  1  0.54891227  0.16189548  0.50814207  1
  O  O30  1  0.54891227  0.66189548  0.99185793  1
  O  O31  1  0.45108773  0.83810452  0.49185793  1
  O  O32  1  0.52184665  0.24709536  0.94941625  1
  O  O33  1  0.47815335  0.25290464  0.44941625  1
  O  O34  1  0.47815335  0.75290464  0.05058375  1
  O  O35  1  0.52184665  0.74709536  0.55058375  1
  O  O36  1  0.62051473  0.09992355  0.91883151  1
  O  O37  1  0.37948527  0.40007645  0.41883151  1
  O  O38  1  0.37948527  0.90007645  0.08116849  1
  O  O39  1  0.62051473  0.59992355  0.58116849  1
  O  O40  1  0.48894772  0.05411424  0.83888009  1
  O  O41  1  0.51105228  0.44588576  0.33888009  1
  O  O42  1  0.51105228  0.94588576  0.16111991  1
  O  O43  1  0.48894772  0.55411424  0.66111991  1
  O  O44  1  0.59426500  0.16141766  0.82604346  1
  O  O45  1  0.40573500  0.33858234  0.32604346  1
  O  O46  1  0.40573500  0.83858234  0.17395654  1
  O  O47  1  0.59426500  0.66141766  0.67395654  1
  O  O48  1  0.65758002  0.32093294  0.82951259  1
  O  O49  1  0.34241998  0.17906706  0.32951259  1
  O  O50  1  0.34241998  0.67906706  0.17048741  1
  O  O51  1  0.65758002  0.82093294  0.67048741  1
  O  O52  1  0.70411523  0.34020205  0.72210176  1
  O  O53  1  0.29588477  0.15979795  0.22210176  1
  O  O54  1  0.29588477  0.65979795  0.27789824  1
  O  O55  1  0.70411523  0.84020205  0.77789824  1
  O  O56  1  0.81304708  0.26274755  0.78149934  1
  O  O57  1  0.18695292  0.23725245  0.28149934  1
  O  O58  1  0.18695292  0.73725245  0.21850066  1
  O  O59  1  0.81304708  0.76274755  0.71850066  1
  O  O60  1  0.87852539  0.12865604  0.99091708  1
  O  O61  1  0.12147461  0.37134396  0.49091708  1
  O  O62  1  0.12147461  0.87134396  0.00908292  1
  O  O63  1  0.87852539  0.62865604  0.50908292  1
  O  O64  1  0.82471024  0.10244054  0.09630441  1
  O  O65  1  0.17528976  0.39755946  0.59630441  1
  O  O66  1  0.17528976  0.89755946  0.90369559  1
  O  O67  1  0.82471024  0.60244054  0.40369559  1
  O  O68  1  0.72250917  0.18533344  0.04023309  1
  O  O69  1  0.27749083  0.31466656  0.54023309  1
  O  O70  1  0.27749083  0.81466656  0.95976691  1
  O  O71  1  0.72250917  0.68533344  0.45976691  1
  O  O72  1  0.65544317  0.43920382  0.11341645  1
  O  O73  1  0.34455683  0.06079618  0.61341645  1
  O  O74  1  0.34455683  0.56079618  0.88658355  1
  O  O75  1  0.65544317  0.93920382  0.38658355  1
loop_
_geom_bond_atom_site_label_1
_geom_bond_atom_site_label_2
_geom_bond_distance
_geom_bond_site_symmetry_2
La0 O12 2.652953 1_555
La0 O44 2.670492 1_555
La0 O60 2.672168 1_555
La0 O32 2.679029 1_555
La0 O36 2.679271 1_555
La0 O0 2.683238 1_555
La0 O68 2.686484 1_556
La0 O20 2.694815 1_555
La0 O8 2.699126 1_655
La0 O56 2.701003 1_555
La0 O48 2.708859 1_555
La0 O24 2.755098 1_555
La1 O13 2.652953 1_555
La1 O45 2.670492 1_555
La1 O61 2.672168 1_555
La1 O33 2.679029 1_555
La1 O37 2.679271 1_555
La1 O1 2.683238 1_555
La1 O69 2.686484 1_555
La1 O21 2.694815 1_555
La1 O9 2.699126 1_455
La1 O57 2.701003 1_555
La1 O49 2.708859 1_555
La1 O25 2.755098 1_555
La2 O14 2.652953 1_555
La2 O46 2.670492 1_555
La2 O62 2.672168 1_555
La2 O34 2.679029 1_555
La2 O38 2.679271 1_555
La2 O2 2.683238 1_555
La2 O70 2.686484 1_554
La2 O22 2.694815 1_555
La2 O10 2.699126 1_455
La2 O58 2.701003 1_555
La2 O50 2.708859 1_555
La2 O26 2.755098 1_555
La3 O15 2.652953 1_555
La3 O47 2.670492 1_555
La3 O63 2.672168 1_555
La3 O35 2.679029 1_555
La3 O39 2.679271 1_555
La3 O3 2.683238 1_555
La3 O71 2.686484 1_555
La3 O23 2.694815 1_555
La3 O11 2.699126 1_655
La3 O59 2.701003 1_555
La3 O51 2.708859 1_555
La3 O27 2.755098 1_555
H156 O72 0.978746 1_555
H157 O73 0.978746 1_555
H158 O74 0.978746 1_555
H159 O75 0.978746 1_555
C0 H8 1.094411 1_555
C0 H4 1.094954 1_545
C0 H0 1.095408 1_555
C0 N0 1.497875 1_555
C1 H9 1.094411 1_555
C1 H5 1.094954 1_555
C1 H1 1.095408 1_555
C1 N1 1.497875 1_555
C2 H10 1.094411 1_555
C2 H6 1.094954 1_565
C2 H2 1.095408 1_555
C2 N2 1.497875 1_555
C3 H11 1.094411 1_555
C3 H7 1.094954 1_555
C3 H3 1.095408 1_555
C3 N3 1.497875 1_555
C4 H12 1.093597 1_555
C4 H20 1.094594 1_555
C4 H16 1.094700 1_545
C4 N0 1.498956 1_555
C5 H13 1.093597 1_555
C5 H21 1.094594 1_555
C5 H17 1.094700 1_555
C5 N1 1.498956 1_555
C6 H14 1.093597 1_555
C6 H22 1.094594 1_555
C6 H18 1.094700 1_565
C6 N2 1.498956 1_555
C7 H15 1.093597 1_555
C7 H23 1.094594 1_555
C7 H19 1.094700 1_555
C7 N3 1.498956 1_555
C8 H24 1.093793 1_555
C8 H28 1.093801 1_555
C8 H32 1.094761 1_555
C8 N0 1.497146 1_555
C9 H25 1.093793 1_555
C9 H29 1.093801 1_555
C9 H33 1.094761 1_555
C9 N1 1.497146 1_555
C10 H26 1.093793 1_555
C10 H30 1.093801 1_555
C10 H34 1.094761 1_555
C10 N2 1.497146 1_555
C11 H27 1.093793 1_555
C11 H31 1.093801 1_555
C11 H35 1.094761 1_555
C11 N3 1.497146 1_555
C12 H44 1.093776 1_555
C12 H36 1.094056 1_555
C12 H40 1.094300 1_545
C12 N0 1.496387 1_555
C13 H45 1.093776 1_555
C13 H37 1.094056 1_555
C13 H41 1.094300 1_555
C13 N1 1.496387 1_555
C14 H46 1.093776 1_555
C14 H38 1.094056 1_555
C14 H42 1.094300 1_565
C14 N2 1.496387 1_555
C15 H47 1.093776 1_555
C15 H39 1.094056 1_555
C15 H43 1.094300 1_555
C15 N3 1.496387 1_555
C16 H52 1.093009 1_555
C16 H48 1.093072 1_555
C16 H56 1.093115 1_555
C16 N4 1.496594 1_556
C17 H53 1.093009 1_555
C17 H49 1.093072 1_555
C17 H57 1.093115 1_555
C17 N5 1.496594 1_555
C18 H54 1.093009 1_555
C18 H50 1.093072 1_555
C18 H58 1.093115 1_555
C18 N6 1.496594 1_554
C19 H55 1.093009 1_555
C19 H51 1.093072 1_555
C19 H59 1.093115 1_555
C19 N7 1.496594 1_555
C20 H68 1.093814 1_555
C20 H64 1.094023 1_545
C20 H60 1.094792 1_555
C20 N4 1.498771 1_555
C21 H69 1.093814 1_555
C21 H65 1.094023 1_555
C21 H61 1.094792 1_555
C21 N5 1.498771 1_555
C22 H70 1.093814 1_555
C22 H66 1.094023 1_565
C22 H62 1.094792 1_555
C22 N6 1.498771 1_555
C23 H71 1.093814 1_555
C23 H67 1.094023 1_555
C23 H63 1.094792 1_555
C23 N7 1.498771 1_555
C24 H80 1.094239 1_555
C24 H72 1.094509 1_555
C24 H76 1.094753 1_555
C24 N4 1.498545 1_555
C25 H81 1.094239 1_555
C25 H73 1.094509 1_555
C25 H77 1.094753 1_555
C25 N5 1.498545 1_555
C26 H82 1.094239 1_555
C26 H74 1.094509 1_555
C26 H78 1.094753 1_555
C26 N6 1.498545 1_555
C27 H83 1.094239 1_555
C27 H75 1.094509 1_555
C27 H79 1.094753 1_555
C27 N7 1.498545 1_555
C28 H92 1.093428 1_555
C28 H88 1.093853 1_555
C28 H84 1.094253 1_555
C28 N4 1.498509 1_555
C29 H93 1.093428 1_555
C29 H89 1.093853 1_555
C29 H85 1.094253 1_555
C29 N5 1.498509 1_555
C30 H94 1.093428 1_555
C30 H90 1.093853 1_555
C30 H86 1.094253 1_555
C30 N6 1.498509 1_555
C31 H95 1.093428 1_555
C31 H91 1.093853 1_555
C31 H87 1.094253 1_555
C31 N7 1.498509 1_555
C32 H100 1.093423 1_555
C32 H96 1.093482 1_555
C32 H104 1.094669 1_555
C32 N8 1.498250 1_555
C33 H101 1.093423 1_555
C33 H97 1.093482 1_555
C33 H105 1.094669 1_555
C33 N9 1.498250 1_555
C34 H102 1.093423 1_555
C34 H98 1.093482 1_555
C34 H106 1.094669 1_555
C34 N10 1.498250 1_555
C35 H103 1.093423 1_555
C35 H99 1.093482 1_555
C35 H107 1.094669 1_555
C35 N11 1.498250 1_555
C36 H108 1.093452 1_555
C36 H112 1.094122 1_555
C36 H116 1.094218 1_555
C36 N8 1.498229 1_555
C37 H109 1.093452 1_555
C37 H113 1.094122 1_555
C37 H117 1.094218 1_555
C37 N9 1.498229 1_555
C38 H110 1.093452 1_555
C38 H114 1.094122 1_555
C38 H118 1.094218 1_555
C38 N10 1.498229 1_555
C39 H111 1.093452 1_555
C39 H115 1.094122 1_555
C39 H119 1.094218 1_555
C39 N11 1.498229 1_555
C40 H124 1.093364 1_555
C40 H128 1.093745 1_555
C40 H120 1.094343 1_555
C40 N8 1.496440 1_555
C41 H125 1.093364 1_555
C41 H129 1.093745 1_555
C41 H121 1.094343 1_555
C41 N9 1.496440 1_555
C42 H126 1.093364 1_555
C42 H130 1.093745 1_555
C42 H122 1.094343 1_555
C42 N10 1.496440 1_555
C43 H127 1.093364 1_555
C43 H131 1.093745 1_555
C43 H123 1.094343 1_555
C43 N11 1.496440 1_555
C44 H136 1.094775 1_555
C44 H132 1.094998 1_555
C44 H140 1.095316 1_555
C44 N8 1.496881 1_555
C45 H137 1.094775 1_555
C45 H133 1.094998 1_555
C45 H141 1.095316 1_555
C45 N9 1.496881 1_555
C46 H138 1.094775 1_555
C46 H134 1.094998 1_555
C46 H142 1.095316 1_555
C46 N10 1.496881 1_555
C47 H139 1.094775 1_555
C47 H135 1.094998 1_555
C47 H143 1.095316 1_555
C47 N11 1.496881 1_555
C48 H152 1.096746 1_555
C48 H148 1.101721 1_555
C48 H144 1.102553 1_555
C48 O72 1.432730 1_555
C49 H153 1.096746 1_555
C49 H149 1.101721 1_555
C49 H145 1.102553 1_555
C49 O73 1.432730 1_555
C50 H154 1.096746 1_555
C50 H150 1.101721 1_555
C50 H146 1.102553 1_555
C50 O74 1.432730 1_555
C51 H155 1.096746 1_555
C51 H151 1.101721 1_555
C51 H147 1.102553 1_555
C51 O75 1.432730 1_555
N12 O4 1.244963 1_655
N12 O8 1.283616 1_655
N12 O0 1.283802 1_555
N13 O5 1.244963 1_455
N13 O9 1.283616 1_455
N13 O1 1.283802 1_555
N14 O6 1.244963 1_455
N14 O10 1.283616 1_455
N14 O2 1.283802 1_555
N15 O7 1.244963 1_655
N15 O11 1.283616 1_655
N15 O3 1.283802 1_555
N16 O16 1.247112 1_655
N16 O20 1.277499 1_555
N16 O12 1.286585 1_555
N17 O17 1.247112 1_455
N17 O21 1.277499 1_555
N17 O13 1.286585 1_555
N18 O18 1.247112 1_455
N18 O22 1.277499 1_555
N18 O14 1.286585 1_555
N19 O19 1.247112 1_655
N19 O23 1.277499 1_555
N19 O15 1.286585 1_555
N20 O28 1.247664 1_556
N20 O32 1.281603 1_555
N20 O24 1.281797 1_555
N21 O29 1.247664 1_555
N21 O33 1.281603 1_555
N21 O25 1.281797 1_555
N22 O30 1.247664 1_554
N22 O34 1.281603 1_555
N22 O26 1.281797 1_555
N23 O31 1.247664 1_555
N23 O35 1.281603 1_555
N23 O27 1.281797 1_555
N24 O40 1.244855 1_555
N24 O44 1.280178 1_555
N24 O36 1.286788 1_555
N25 O41 1.244855 1_555
N25 O45 1.280178 1_555
N25 O37 1.286788 1_555
N26 O42 1.244855 1_555
N26 O46 1.280178 1_555
N26 O38 1.286788 1_555
N27 O43 1.244855 1_555
N27 O47 1.280178 1_555
N27 O39 1.286788 1_555
N28 O52 1.252793 1_555
N28 O56 1.275633 1_555
N28 O48 1.281872 1_555
N29 O53 1.252793 1_555
N29 O57 1.275633 1_555
N29 O49 1.281872 1_555
N30 O54 1.252793 1_555
N30 O58 1.275633 1_555
N30 O50 1.281872 1_555
N31 O55 1.252793 1_555
N31 O59 1.275633 1_555
N31 O51 1.281872 1_555
N32 O64 1.249569 1_555
N32 O68 1.276631 1_555
N32 O60 1.285003 1_554
N33 O65 1.249569 1_555
N33 O69 1.276631 1_555
N33 O61 1.285003 1_555
N34 O66 1.249569 1_555
N34 O70 1.276631 1_555
N34 O62 1.285003 1_556
N35 O67 1.249569 1_555
N35 O71 1.276631 1_555
N35 O63 1.285003 1_555
