# generated using pymatgen
data_BaIBr
_symmetry_space_group_name_H-M   'P 1'
_cell_length_a   5.12429103
_cell_length_b   8.81446039
_cell_length_c   10.19167839
_cell_angle_alpha   90.00000000
_cell_angle_beta   90.00000000
_cell_angle_gamma   90.00000000
_symmetry_Int_Tables_number   1
_chemical_formula_structural   BaIBr
_chemical_formula_sum   'Ba4 I4 Br4'
_cell_volume   460.33630585
_cell_formula_units_Z   4
loop_
 _symmetry_equiv_pos_site_id
 _symmetry_equiv_pos_as_xyz
  1  'x, y, z'
loop_
 _atom_site_type_symbol
 _atom_site_label
 _atom_site_symmetry_multiplicity
 _atom_site_fract_x
 _atom_site_fract_y
 _atom_site_fract_z
 _atom_site_occupancy
  Ba  Ba0  1  0.25000000  0.72882454  0.62486297  1
  Ba  Ba1  1  0.75000000  0.27117546  0.37513703  1
  Ba  Ba2  1  0.75000000  0.77117546  0.12486297  1
  Ba  Ba3  1  0.25000000  0.22882454  0.87513703  1
  I  I0  1  0.25000000  0.47161056  0.16822345  1
  I  I1  1  0.75000000  0.52838944  0.83177655  1
  I  I2  1  0.75000000  0.02838944  0.66822345  1
  I  I3  1  0.25000000  0.97161056  0.33177655  1
  Br  Br0  1  0.25000000  0.85647190  0.93331415  1
  Br  Br1  1  0.75000000  0.14352810  0.06668585  1
  Br  Br2  1  0.75000000  0.64352810  0.43331415  1
  Br  Br3  1  0.25000000  0.35647190  0.56668585  1
loop_
_geom_bond_atom_site_label_1
_geom_bond_atom_site_label_2
_geom_bond_distance
_geom_bond_site_symmetry_2
Ba0 Br2 3.307712 1_455
Ba0 Br2 3.307712 1_555
Ba0 Br3 3.335215 1_555
Ba0 Br0 3.338920 1_555
Ba0 I3 3.674526 1_555
Ba0 I2 3.705690 1_565
Ba0 I2 3.705690 1_465
Ba0 I1 3.759380 1_455
Ba0 I1 3.759380 1_555
Ba1 Br3 3.307712 1_655
Ba1 Br3 3.307712 1_555
Ba1 Br2 3.335215 1_555
Ba1 Br1 3.338920 1_555
Ba1 I2 3.674526 1_555
Ba1 I3 3.705690 1_545
Ba1 I3 3.705690 1_645
Ba1 I0 3.759380 1_555
Ba1 I0 3.759380 1_655
Ba2 Br0 3.307712 1_554
Ba2 Br0 3.307712 1_654
Ba2 Br1 3.335215 1_565
Ba2 Br2 3.338920 1_555
Ba2 I1 3.674526 1_554
Ba2 I0 3.705690 1_655
Ba2 I0 3.705690 1_555
Ba2 I3 3.759380 1_655
Ba2 I3 3.759380 1_555
Ba3 Br1 3.307712 1_456
Ba3 Br1 3.307712 1_556
Ba3 Br0 3.335215 1_545
Ba3 Br3 3.338920 1_555
Ba3 I0 3.674526 1_556
Ba3 I1 3.705690 1_555
Ba3 I1 3.705690 1_455
Ba3 I2 3.759380 1_455
Ba3 I2 3.759380 1_555
