# generated using pymatgen
data_Ce2(AgSb)3
_symmetry_space_group_name_H-M   'P 1'
_cell_length_a   6.03150400
_cell_length_b   6.03150400
_cell_length_c   46.52321400
_cell_angle_alpha   90.00000000
_cell_angle_beta   90.00000000
_cell_angle_gamma   90.00000000
_symmetry_Int_Tables_number   1
_chemical_formula_structural   Ce2(AgSb)3
_chemical_formula_sum   'Ce16 Ag24 Sb24'
_cell_volume   1692.46988639
_cell_formula_units_Z   8
loop_
 _symmetry_equiv_pos_site_id
 _symmetry_equiv_pos_as_xyz
  1  'x, y, z'
loop_
 _atom_site_type_symbol
 _atom_site_label
 _atom_site_symmetry_multiplicity
 _atom_site_fract_x
 _atom_site_fract_y
 _atom_site_fract_z
 _atom_site_occupancy
  Ce  Ce0_0  1  0.25000000  0.25000000  0.37441900  1
  Ce  Ce0_1  1  0.25000000  0.25000000  0.87441900  1
  Ce  Ce0_2  1  0.25000000  0.75000000  0.37441900  1
  Ce  Ce0_3  1  0.25000000  0.75000000  0.87441900  1
  Ce  Ce0_4  1  0.75000000  0.25000000  0.37441900  1
  Ce  Ce0_5  1  0.75000000  0.25000000  0.87441900  1
  Ce  Ce0_6  1  0.75000000  0.75000000  0.37441900  1
  Ce  Ce0_7  1  0.75000000  0.75000000  0.87441900  1
  Ce  Ce1_0  1  0.25000000  0.25000000  0.12558100  1
  Ce  Ce1_1  1  0.25000000  0.25000000  0.62558100  1
  Ce  Ce1_2  1  0.25000000  0.75000000  0.12558100  1
  Ce  Ce1_3  1  0.25000000  0.75000000  0.62558100  1
  Ce  Ce1_4  1  0.75000000  0.25000000  0.12558100  1
  Ce  Ce1_5  1  0.75000000  0.25000000  0.62558100  1
  Ce  Ce1_6  1  0.75000000  0.75000000  0.12558100  1
  Ce  Ce1_7  1  0.75000000  0.75000000  0.62558100  1
  Ag  Ag0_0  1  0.25000000  0.25000000  0.06036800  1
  Ag  Ag0_1  1  0.25000000  0.25000000  0.56036800  1
  Ag  Ag0_2  1  0.25000000  0.75000000  0.06036800  1
  Ag  Ag0_3  1  0.25000000  0.75000000  0.56036800  1
  Ag  Ag0_4  1  0.75000000  0.25000000  0.06036800  1
  Ag  Ag0_5  1  0.75000000  0.25000000  0.56036800  1
  Ag  Ag0_6  1  0.75000000  0.75000000  0.06036800  1
  Ag  Ag0_7  1  0.75000000  0.75000000  0.56036800  1
  Ag  Ag1_0  1  0.25000000  0.25000000  0.43963200  1
  Ag  Ag1_1  1  0.25000000  0.25000000  0.93963200  1
  Ag  Ag1_2  1  0.25000000  0.75000000  0.43963200  1
  Ag  Ag1_3  1  0.25000000  0.75000000  0.93963200  1
  Ag  Ag1_4  1  0.75000000  0.25000000  0.43963200  1
  Ag  Ag1_5  1  0.75000000  0.25000000  0.93963200  1
  Ag  Ag1_6  1  0.75000000  0.75000000  0.43963200  1
  Ag  Ag1_7  1  0.75000000  0.75000000  0.93963200  1
  Ag  Ag2_0  1  0.25000000  0.25000000  0.25000000  1
  Ag  Ag2_1  1  0.25000000  0.25000000  0.75000000  1
  Ag  Ag2_2  1  0.25000000  0.75000000  0.25000000  1
  Ag  Ag2_3  1  0.25000000  0.75000000  0.75000000  1
  Ag  Ag2_4  1  0.75000000  0.25000000  0.25000000  1
  Ag  Ag2_5  1  0.75000000  0.25000000  0.75000000  1
  Ag  Ag2_6  1  0.75000000  0.75000000  0.25000000  1
  Ag  Ag2_7  1  0.75000000  0.75000000  0.75000000  1
  Sb  Sb0_0  1  0.25000000  0.25000000  0.19140000  1
  Sb  Sb0_1  1  0.25000000  0.25000000  0.69140000  1
  Sb  Sb0_2  1  0.25000000  0.75000000  0.19140000  1
  Sb  Sb0_3  1  0.25000000  0.75000000  0.69140000  1
  Sb  Sb0_4  1  0.75000000  0.25000000  0.19140000  1
  Sb  Sb0_5  1  0.75000000  0.25000000  0.69140000  1
  Sb  Sb0_6  1  0.75000000  0.75000000  0.19140000  1
  Sb  Sb0_7  1  0.75000000  0.75000000  0.69140000  1
  Sb  Sb1_0  1  0.25000000  0.25000000  0.30860000  1
  Sb  Sb1_1  1  0.25000000  0.25000000  0.80860000  1
  Sb  Sb1_2  1  0.25000000  0.75000000  0.30860000  1
  Sb  Sb1_3  1  0.25000000  0.75000000  0.80860000  1
  Sb  Sb1_4  1  0.75000000  0.25000000  0.30860000  1
  Sb  Sb1_5  1  0.75000000  0.25000000  0.80860000  1
  Sb  Sb1_6  1  0.75000000  0.75000000  0.30860000  1
  Sb  Sb1_7  1  0.75000000  0.75000000  0.80860000  1
  Sb  Sb2_0  1  0.25000000  0.25000000  0.00000000  1
  Sb  Sb2_1  1  0.25000000  0.25000000  0.50000000  1
  Sb  Sb2_2  1  0.25000000  0.75000000  0.00000000  1
  Sb  Sb2_3  1  0.25000000  0.75000000  0.50000000  1
  Sb  Sb2_4  1  0.75000000  0.25000000  0.00000000  1
  Sb  Sb2_5  1  0.75000000  0.25000000  0.50000000  1
  Sb  Sb2_6  1  0.75000000  0.75000000  0.00000000  1
  Sb  Sb2_7  1  0.75000000  0.75000000  0.50000000  1
loop_
_geom_bond_atom_site_label_1
_geom_bond_atom_site_label_2
_geom_bond_distance
_geom_bond_site_symmetry_2
Ce0_0 Sb1_0 3.062111 1_555
Ce0_1 Sb1_1 3.062111 1_555
Ce0_2 Sb1_2 3.062111 1_555
Ce0_3 Sb1_3 3.062111 1_555
Ce0_4 Sb1_4 3.062111 1_555
Ce0_5 Sb1_5 3.062111 1_555
Ce0_6 Sb1_6 3.062111 1_555
Ce0_7 Sb1_7 3.062111 1_555
Ce1_0 Sb0_0 3.062111 1_555
Ce1_1 Sb0_1 3.062111 1_555
Ce1_2 Sb0_2 3.062111 1_555
Ce1_3 Sb0_3 3.062111 1_555
Ce1_4 Sb0_4 3.062111 1_555
Ce1_5 Sb0_5 3.062111 1_555
Ce1_6 Sb0_6 3.062111 1_555
Ce1_7 Sb0_7 3.062111 1_555
Ag0_0 Sb2_0 2.808513 1_555
Ag0_0 Ag0_4 3.015752 1_455
Ag0_0 Ag0_2 3.015752 1_555
Ag0_0 Ag0_4 3.015752 1_555
Ag0_0 Ag0_2 3.015752 1_545
Ag0_0 Ce1_0 3.033918 1_555
Ag0_1 Sb2_1 2.808513 1_555
Ag0_1 Ag0_5 3.015752 1_455
Ag0_1 Ag0_3 3.015752 1_545
Ag0_1 Ag0_3 3.015752 1_555
Ag0_1 Ag0_5 3.015752 1_555
Ag0_1 Ce1_1 3.033918 1_555
Ag0_2 Sb2_2 2.808513 1_555
Ag0_2 Ag0_6 3.015752 1_555
Ag0_2 Ag0_6 3.015752 1_455
Ag0_2 Ce1_2 3.033918 1_555
Ag0_3 Sb2_3 2.808513 1_555
Ag0_3 Ag0_7 3.015752 1_455
Ag0_3 Ag0_7 3.015752 1_555
Ag0_3 Ce1_3 3.033918 1_555
Ag0_4 Sb2_4 2.808513 1_555
Ag0_4 Ag0_6 3.015752 1_555
Ag0_4 Ag0_6 3.015752 1_545
Ag0_4 Ce1_4 3.033918 1_555
Ag0_5 Sb2_5 2.808513 1_555
Ag0_5 Ag0_7 3.015752 1_545
Ag0_5 Ag0_7 3.015752 1_555
Ag0_5 Ce1_5 3.033918 1_555
Ag0_6 Sb2_6 2.808513 1_555
Ag0_6 Ce1_6 3.033918 1_555
Ag0_7 Sb2_7 2.808513 1_555
Ag0_7 Ce1_7 3.033918 1_555
Ag1_0 Sb2_1 2.808513 1_555
Ag1_0 Ag1_2 3.015752 1_555
Ag1_0 Ag1_4 3.015752 1_555
Ag1_0 Ag1_4 3.015752 1_455
Ag1_0 Ag1_2 3.015752 1_545
Ag1_0 Ce0_0 3.033918 1_555
Ag1_1 Sb2_0 2.808513 1_556
Ag1_1 Ag1_5 3.015752 1_555
Ag1_1 Ag1_5 3.015752 1_455
Ag1_1 Ag1_3 3.015752 1_555
Ag1_1 Ag1_3 3.015752 1_545
Ag1_1 Ce0_1 3.033918 1_555
Ag1_2 Sb2_3 2.808513 1_555
Ag1_2 Ag1_6 3.015752 1_555
Ag1_2 Ag1_6 3.015752 1_455
Ag1_2 Ce0_2 3.033918 1_555
Ag1_3 Sb2_2 2.808513 1_556
Ag1_3 Ag1_7 3.015752 1_455
Ag1_3 Ag1_7 3.015752 1_555
Ag1_3 Ce0_3 3.033918 1_555
Ag1_4 Sb2_5 2.808513 1_555
Ag1_4 Ag1_6 3.015752 1_555
Ag1_4 Ag1_6 3.015752 1_545
Ag1_4 Ce0_4 3.033918 1_555
Ag1_5 Sb2_4 2.808513 1_556
Ag1_5 Ag1_7 3.015752 1_545
Ag1_5 Ag1_7 3.015752 1_555
Ag1_5 Ce0_5 3.033918 1_555
Ag1_6 Sb2_7 2.808513 1_555
Ag1_6 Ce0_6 3.033918 1_555
Ag1_7 Sb2_6 2.808513 1_556
Ag1_7 Ce0_7 3.033918 1_555
Ag2_0 Sb1_0 2.726260 1_555
Ag2_0 Sb0_0 2.726260 1_555
Ag2_0 Ag2_2 3.015752 1_555
Ag2_0 Ag2_4 3.015752 1_555
Ag2_0 Ag2_2 3.015752 1_545
Ag2_0 Ag2_4 3.015752 1_455
Ag2_1 Sb1_1 2.726260 1_555
Ag2_1 Sb0_1 2.726260 1_555
Ag2_1 Ag2_5 3.015752 1_455
Ag2_1 Ag2_3 3.015752 1_545
Ag2_1 Ag2_3 3.015752 1_555
Ag2_1 Ag2_5 3.015752 1_555
Ag2_2 Sb1_2 2.726260 1_555
Ag2_2 Sb0_2 2.726260 1_555
Ag2_2 Ag2_6 3.015752 1_455
Ag2_2 Ag2_6 3.015752 1_555
Ag2_3 Sb1_3 2.726260 1_555
Ag2_3 Sb0_3 2.726260 1_555
Ag2_3 Ag2_7 3.015752 1_455
Ag2_3 Ag2_7 3.015752 1_555
Ag2_4 Sb0_4 2.726260 1_555
Ag2_4 Sb1_4 2.726260 1_555
Ag2_4 Ag2_6 3.015752 1_545
Ag2_4 Ag2_6 3.015752 1_555
Ag2_5 Sb1_5 2.726260 1_555
Ag2_5 Sb0_5 2.726260 1_555
Ag2_5 Ag2_7 3.015752 1_545
Ag2_5 Ag2_7 3.015752 1_555
Ag2_6 Sb1_6 2.726260 1_555
Ag2_6 Sb0_6 2.726260 1_555
Ag2_7 Sb1_7 2.726260 1_555
Ag2_7 Sb0_7 2.726260 1_555
Sb0_0 Sb0_4 3.015752 1_455
Sb0_0 Sb0_4 3.015752 1_555
Sb0_0 Sb0_2 3.015752 1_555
Sb0_0 Sb0_2 3.015752 1_545
Sb0_1 Sb0_3 3.015752 1_555
Sb0_1 Sb0_3 3.015752 1_545
Sb0_1 Sb0_5 3.015752 1_455
Sb0_1 Sb0_5 3.015752 1_555
Sb0_2 Sb0_6 3.015752 1_555
Sb0_2 Sb0_6 3.015752 1_455
Sb0_3 Sb0_7 3.015752 1_455
Sb0_3 Sb0_7 3.015752 1_555
Sb0_4 Sb0_6 3.015752 1_555
Sb0_4 Sb0_6 3.015752 1_545
Sb0_5 Sb0_7 3.015752 1_545
Sb0_5 Sb0_7 3.015752 1_555
Sb1_0 Sb1_2 3.015752 1_545
Sb1_0 Sb1_2 3.015752 1_555
Sb1_0 Sb1_4 3.015752 1_455
Sb1_0 Sb1_4 3.015752 1_555
Sb1_1 Sb1_3 3.015752 1_545
Sb1_1 Sb1_5 3.015752 1_555
Sb1_1 Sb1_3 3.015752 1_555
Sb1_1 Sb1_5 3.015752 1_455
Sb1_2 Sb1_6 3.015752 1_455
Sb1_2 Sb1_6 3.015752 1_555
Sb1_3 Sb1_7 3.015752 1_555
Sb1_3 Sb1_7 3.015752 1_455
Sb1_4 Sb1_6 3.015752 1_545
Sb1_4 Sb1_6 3.015752 1_555
Sb1_5 Sb1_7 3.015752 1_555
Sb1_5 Sb1_7 3.015752 1_545
Sb2_0 Sb2_2 3.015752 1_555
Sb2_0 Sb2_2 3.015752 1_545
Sb2_0 Sb2_4 3.015752 1_455
Sb2_0 Sb2_4 3.015752 1_555
Sb2_1 Sb2_3 3.015752 1_555
Sb2_1 Sb2_3 3.015752 1_545
Sb2_1 Sb2_5 3.015752 1_455
Sb2_1 Sb2_5 3.015752 1_555
Sb2_2 Sb2_6 3.015752 1_455
Sb2_2 Sb2_6 3.015752 1_555
Sb2_3 Sb2_7 3.015752 1_555
Sb2_3 Sb2_7 3.015752 1_455
Sb2_4 Sb2_6 3.015752 1_545
Sb2_4 Sb2_6 3.015752 1_555
Sb2_5 Sb2_7 3.015752 1_555
Sb2_5 Sb2_7 3.015752 1_545
