# generated using pymatgen
data_Ba2Mn2Se2OF2
_symmetry_space_group_name_H-M   'P 1'
_cell_length_a   4.32033200
_cell_length_b   4.32041100
_cell_length_c   10.46584843
_cell_angle_alpha   101.91141485
_cell_angle_beta   101.91116689
_cell_angle_gamma   90.00440291
_symmetry_Int_Tables_number   1
_chemical_formula_structural   Ba2Mn2Se2OF2
_chemical_formula_sum   'Ba2 Mn2 Se2 O1 F2'
_cell_volume   186.84362273
_cell_formula_units_Z   1
loop_
 _symmetry_equiv_pos_site_id
 _symmetry_equiv_pos_as_xyz
  1  'x, y, z'
loop_
 _atom_site_type_symbol
 _atom_site_label
 _atom_site_symmetry_multiplicity
 _atom_site_fract_x
 _atom_site_fract_y
 _atom_site_fract_z
 _atom_site_occupancy
  Ba  Ba0  1  0.32861600  0.32861600  0.65724900  1
  Ba  Ba1  1  0.67138300  0.67138300  0.34275100  1
  Mn  Mn0  1  0.50000400  0.00000100  0.99999800  1
  Mn  Mn1  1  0.00000000  0.50000200  0.00000300  1
  Se  Se0  1  0.90642200  0.90642200  0.81303000  1
  Se  Se1  1  0.09357700  0.09357700  0.18697000  1
  O  O0  1  0.49999900  0.50000000  0.00000000  1
  F  F0  1  0.74999900  0.24999800  0.49999700  1
  F  F1  1  0.25000000  0.75000000  0.50000200  1
loop_
_geom_bond_atom_site_label_1
_geom_bond_atom_site_label_2
_geom_bond_distance
_geom_bond_site_symmetry_2
Ba0 F0 2.672802 1_455
Ba0 F1 2.672810 1_545
Ba0 F1 2.672888 1_555
Ba0 F0 2.672890 1_555
Ba0 Se0 3.429351 1_555
Ba0 Se0 3.430039 1_455
Ba0 Se0 3.430040 1_545
Ba0 Se0 3.430310 1_445
Ba1 F1 2.672798 1_655
Ba1 F0 2.672802 1_565
Ba1 F1 2.672883 1_555
Ba1 F0 2.672884 1_555
Ba1 Se1 3.429351 1_555
Ba1 Se1 3.430039 1_655
Ba1 Se1 3.430040 1_565
Ba1 Se1 3.430310 1_665
Mn0 O0 2.160197 1_556
Mn0 O0 2.160214 1_546
Mn0 Se0 2.857848 1_545
Mn0 Se1 2.857911 1_556
Mn0 Se1 2.858451 1_656
Mn0 Se0 2.858461 1_445
Mn1 O0 2.160164 1_455
Mn1 O0 2.160168 1_555
Mn1 Se1 2.857894 1_555
Mn1 Se0 2.857926 1_454
Mn1 Se1 2.858462 1_565
Mn1 Se0 2.858508 1_444
