# generated using pymatgen
data_ZnFe(SO8)2
_symmetry_space_group_name_H-M   'P 1'
_cell_length_a   16.66022200
_cell_length_b   7.20027500
_cell_length_c   12.29111529
_cell_angle_alpha   56.88529247
_cell_angle_beta   90.00000000
_cell_angle_gamma   90.00000000
_symmetry_Int_Tables_number   1
_chemical_formula_structural   ZnFe(SO8)2
_chemical_formula_sum   'Zn4 Fe4 S8 O64'
_cell_volume   1234.94235215
_cell_formula_units_Z   4
loop_
 _symmetry_equiv_pos_site_id
 _symmetry_equiv_pos_as_xyz
  1  'x, y, z'
loop_
 _atom_site_type_symbol
 _atom_site_label
 _atom_site_symmetry_multiplicity
 _atom_site_fract_x
 _atom_site_fract_y
 _atom_site_fract_z
 _atom_site_occupancy
  Zn  Zn0  1  0.33110800  0.79761600  0.87902300  1
  Zn  Zn1  1  0.16889200  0.79761600  0.37902300  1
  Zn  Zn2  1  0.66889200  0.20238400  0.12097700  1
  Zn  Zn3  1  0.83110800  0.20238400  0.62097700  1
  Fe  Fe0  1  0.50000000  0.00000000  0.50000000  1
  Fe  Fe1  1  0.00000000  0.00000000  0.00000000  1
  Fe  Fe2  1  0.50000000  0.50000000  0.50000000  1
  Fe  Fe3  1  0.00000000  0.50000000  0.00000000  1
  S  S0  1  0.35020400  0.19850200  0.57867800  1
  S  S1  1  0.14979600  0.19850200  0.07867800  1
  S  S2  1  0.64979600  0.80149800  0.42132200  1
  S  S3  1  0.85020400  0.80149800  0.92132200  1
  S  S4  1  0.43587400  0.17942000  0.20006000  1
  S  S5  1  0.06412600  0.17942000  0.70006000  1
  S  S6  1  0.56412600  0.82058000  0.79994000  1
  S  S7  1  0.93587400  0.82058000  0.29994000  1
  O  O0  1  0.38416500  0.07622600  0.52245700  1
  O  O1  1  0.11583500  0.07622600  0.02245700  1
  O  O2  1  0.61583500  0.92377400  0.47754300  1
  O  O3  1  0.88416500  0.92377400  0.97754300  1
  O  O4  1  0.30816100  0.03500900  0.70500800  1
  O  O5  1  0.19183900  0.03500900  0.20500800  1
  O  O6  1  0.69183900  0.96499100  0.29499200  1
  O  O7  1  0.80816100  0.96499100  0.79499200  1
  O  O8  1  0.41726100  0.28936300  0.62138400  1
  O  O9  1  0.08273900  0.28936300  0.12138400  1
  O  O10  1  0.58273900  0.71063700  0.37861600  1
  O  O11  1  0.91726100  0.71063700  0.87861600  1
  O  O12  1  0.29372300  0.36676600  0.49132900  1
  O  O13  1  0.20627700  0.36676600  0.99132900  1
  O  O14  1  0.70627700  0.63323400  0.50867100  1
  O  O15  1  0.79372300  0.63323400  0.00867100  1
  O  O16  1  0.37272400  0.01091100  0.24629600  1
  O  O17  1  0.12727600  0.01091100  0.74629600  1
  O  O18  1  0.62727600  0.98908900  0.75370400  1
  O  O19  1  0.87272400  0.98908900  0.25370400  1
  O  O20  1  0.48980100  0.14654600  0.30662700  1
  O  O21  1  0.01019900  0.14654600  0.80662700  1
  O  O22  1  0.51019900  0.85345400  0.69337300  1
  O  O23  1  0.98980100  0.85345400  0.19337300  1
  O  O24  1  0.39640700  0.40193800  0.14673500  1
  O  O25  1  0.10359300  0.40193800  0.64673500  1
  O  O26  1  0.60359300  0.59806200  0.85326500  1
  O  O27  1  0.89640700  0.59806200  0.35326500  1
  O  O28  1  0.48578900  0.17069200  0.10280300  1
  O  O29  1  0.01421100  0.17069200  0.60280300  1
  O  O30  1  0.51421100  0.82930800  0.89719700  1
  O  O31  1  0.98578900  0.82930800  0.39719700  1
  O  O32  1  0.46380300  0.70950000  0.52835600  1
  O  O33  1  0.03619700  0.70950000  0.02835600  1
  O  O34  1  0.53619700  0.29050000  0.47164400  1
  O  O35  1  0.96380300  0.29050000  0.97164400  1
  O  O36  1  0.41191700  0.58511400  0.93832600  1
  O  O37  1  0.08808300  0.58511400  0.43832600  1
  O  O38  1  0.58808300  0.41488600  0.06167400  1
  O  O39  1  0.91191700  0.41488600  0.56167400  1
  O  O40  1  0.26182100  0.70742900  0.11479100  1
  O  O41  1  0.23817900  0.70742900  0.61479100  1
  O  O42  1  0.73817900  0.29257100  0.88520900  1
  O  O43  1  0.76182100  0.29257100  0.38520900  1
  O  O44  1  0.31631200  0.25194200  0.85829000  1
  O  O45  1  0.18368800  0.25194200  0.35829000  1
  O  O46  1  0.68368800  0.74805800  0.14171000  1
  O  O47  1  0.81631200  0.74805800  0.64171000  1
  O  O48  1  0.44587400  0.55556200  0.35855300  1
  O  O49  1  0.05412600  0.55556200  0.85855300  1
  O  O50  1  0.55412600  0.44443800  0.64144700  1
  O  O51  1  0.94587400  0.44443800  0.14144700  1
  O  O52  1  0.26150500  0.77766600  0.49085500  1
  O  O53  1  0.23849500  0.77766600  0.99085500  1
  O  O54  1  0.73849500  0.22233400  0.50914500  1
  O  O55  1  0.76150500  0.22233400  0.00914500  1
  O  O56  1  0.29478600  0.64776700  0.69413100  1
  O  O57  1  0.20521400  0.64776700  0.19413100  1
  O  O58  1  0.70521400  0.35223300  0.30586900  1
  O  O59  1  0.79478600  0.35223300  0.80586900  1
  O  O60  1  0.38520000  0.21616600  0.89890100  1
  O  O61  1  0.11480000  0.21616600  0.39890100  1
  O  O62  1  0.61480000  0.78383400  0.10109900  1
  O  O63  1  0.88520000  0.78383400  0.60109900  1
loop_
_geom_bond_atom_site_label_1
_geom_bond_atom_site_label_2
_geom_bond_distance
_geom_bond_site_symmetry_2
Fe0 O20 2.012729 1_555
Fe0 O22 2.012729 1_545
Fe0 O32 2.015869 1_545
Fe0 O34 2.015869 1_555
Fe0 O0 2.065725 1_555
Fe0 O2 2.065725 1_545
Fe1 O23 2.012729 1_445
Fe1 O21 2.012729 1_554
Fe1 O35 2.015869 1_454
Fe1 O33 2.015869 1_545
Fe1 O3 2.065725 1_444
Fe1 O1 2.065725 1_555
Fe2 O48 1.798827 1_555
Fe2 O50 1.798827 1_555
Fe2 O32 1.826205 1_555
Fe2 O34 1.826205 1_555
Fe2 O10 1.988436 1_555
Fe2 O8 1.988436 1_555
Fe3 O51 1.798827 1_455
Fe3 O49 1.798827 1_554
Fe3 O33 1.826205 1_555
Fe3 O35 1.826205 1_454
Fe3 O9 1.988436 1_555
Fe3 O11 1.988436 1_454
O0 S0 1.495834 1_555
O1 S1 1.495834 1_555
O2 S2 1.495834 1_555
O3 S3 1.495834 1_555
O4 S0 1.513343 1_555
O4 Zn0 1.909950 1_545
O5 S1 1.513343 1_555
O5 Zn1 1.909950 1_545
O6 S2 1.513343 1_555
O6 Zn2 1.909950 1_565
O7 S3 1.513343 1_555
O7 Zn3 1.909950 1_565
O8 S0 1.525402 1_555
O9 S1 1.525402 1_555
O10 S2 1.525402 1_555
O11 S3 1.525402 1_555
O12 S0 1.443857 1_555
O13 S1 1.443857 1_556
O14 S2 1.443857 1_555
O15 S3 1.443857 1_554
O16 S4 1.465808 1_555
O17 S5 1.465808 1_555
O18 S6 1.465808 1_555
O19 S7 1.465808 1_555
O20 S4 1.496698 1_555
O21 S5 1.496698 1_555
O22 S6 1.496698 1_555
O23 S7 1.496698 1_555
O24 S4 1.510480 1_555
O25 S5 1.510480 1_555
O26 S6 1.510480 1_555
O27 S7 1.510480 1_555
O28 S4 1.485448 1_555
O29 S5 1.485448 1_555
O30 S6 1.485448 1_555
O31 S7 1.485448 1_555
O36 Zn0 1.861813 1_555
O37 Zn1 1.861813 1_555
O38 Zn2 1.861813 1_555
O39 Zn3 1.861813 1_555
O40 O57 1.251877 1_555
O40 O53 1.373142 1_554
O41 O56 1.251877 1_555
O41 O52 1.373142 1_555
O42 O59 1.251877 1_555
O42 O55 1.373142 1_556
O43 O58 1.251877 1_555
O43 O54 1.373142 1_555
O44 O60 1.221561 1_555
O45 O61 1.221561 1_555
O46 O62 1.221561 1_555
O47 O63 1.221561 1_555
O52 Zn1 2.018653 1_555
O53 Zn0 2.018653 1_555
O54 Zn3 2.018653 1_555
O55 Zn2 2.018653 1_555
