# generated using pymatgen
data_Ce2Ga2Fe15
_symmetry_space_group_name_H-M   'P 1'
_cell_length_a   6.46440078
_cell_length_b   6.46440078
_cell_length_c   6.46440092
_cell_angle_alpha   81.80495067
_cell_angle_beta   81.80495067
_cell_angle_gamma   81.80494799
_symmetry_Int_Tables_number   1
_chemical_formula_structural   Ce2Ga2Fe15
_chemical_formula_sum   'Ce2 Ga2 Fe15'
_cell_volume   262.58094370
_cell_formula_units_Z   1
loop_
 _symmetry_equiv_pos_site_id
 _symmetry_equiv_pos_as_xyz
  1  'x, y, z'
loop_
 _atom_site_type_symbol
 _atom_site_label
 _atom_site_symmetry_multiplicity
 _atom_site_fract_x
 _atom_site_fract_y
 _atom_site_fract_z
 _atom_site_occupancy
  Ce  Ce0  1  0.65245700  0.65245700  0.65245700  1
  Ce  Ce1  1  0.34754300  0.34754300  0.34754300  1
  Ga  Ga0  1  0.89723100  0.89723100  0.89723100  1
  Ga  Ga1  1  0.10276900  0.10276900  0.10276900  1
  Fe  Fe0  1  0.00000000  0.00000000  0.50000000  1
  Fe  Fe1  1  0.00000000  0.50000000  0.00000000  1
  Fe  Fe2  1  0.50000000  0.00000000  0.00000000  1
  Fe  Fe3  1  0.29842400  0.70157600  0.00000000  1
  Fe  Fe4  1  0.70157600  0.00000000  0.29842400  1
  Fe  Fe5  1  0.00000000  0.29842400  0.70157600  1
  Fe  Fe6  1  0.29842400  0.00000000  0.70157600  1
  Fe  Fe7  1  0.00000000  0.70157600  0.29842400  1
  Fe  Fe8  1  0.70157600  0.29842400  0.00000000  1
  Fe  Fe9  1  0.34223900  0.34223900  0.84169000  1
  Fe  Fe10  1  0.34223900  0.84169000  0.34223900  1
  Fe  Fe11  1  0.84169000  0.34223900  0.34223900  1
  Fe  Fe12  1  0.65776100  0.65776100  0.15831000  1
  Fe  Fe13  1  0.65776100  0.15831000  0.65776100  1
  Fe  Fe14  1  0.15831000  0.65776100  0.65776100  1
loop_
_geom_bond_atom_site_label_1
_geom_bond_atom_site_label_2
_geom_bond_distance
_geom_bond_site_symmetry_2
Ce0 Fe5 2.986033 1_655
Ce0 Fe6 2.986033 1_565
Ce0 Fe8 2.986034 1_556
Ce0 Fe3 2.986034 1_556
Ce0 Fe4 2.986034 1_565
Ce0 Fe7 2.986034 1_655
Ce0 Fe11 3.047495 1_555
Ce0 Fe10 3.047495 1_555
Ce0 Fe9 3.047495 1_555
Ce0 Ga0 3.106851 1_555
Ce0 Fe13 3.184996 1_555
Ce0 Fe14 3.184996 1_555
Ce0 Fe12 3.184996 1_555
Ce0 Fe13 3.280206 1_565
Ce0 Fe14 3.280206 1_655
Ce0 Fe12 3.280206 1_556
Ce0 Fe2 3.353019 1_566
Ce0 Fe1 3.353019 1_656
Ce0 Fe0 3.353019 1_665
Ce1 Fe4 2.986033 1_555
Ce1 Fe7 2.986033 1_555
Ce1 Fe3 2.986034 1_555
Ce1 Fe8 2.986034 1_555
Ce1 Fe6 2.986034 1_555
Ce1 Fe5 2.986034 1_555
Ce1 Fe14 3.047495 1_555
Ce1 Fe13 3.047495 1_555
Ce1 Fe12 3.047495 1_555
Ce1 Ga1 3.106851 1_555
Ce1 Fe11 3.184996 1_555
Ce1 Fe10 3.184996 1_555
Ce1 Fe9 3.184996 1_555
Ce1 Fe10 3.280206 1_545
Ce1 Fe11 3.280206 1_455
Ce1 Fe9 3.280206 1_554
Ce1 Fe2 3.353019 1_555
Ce1 Fe1 3.353019 1_555
Ce1 Fe0 3.353019 1_555
Ga0 Ga1 2.608839 1_666
Fe0 Fe10 2.447609 1_545
Fe0 Fe11 2.447609 1_455
Fe0 Fe14 2.447609 1_545
Fe0 Fe13 2.447609 1_455
Fe0 Fe6 2.477133 1_555
Fe0 Fe5 2.477133 1_555
Fe0 Fe4 2.477133 1_455
Fe0 Fe7 2.477133 1_545
Fe0 Ga1 2.574830 1_555
Fe0 Ga0 2.574830 1_445
Fe1 Fe9 2.447609 1_554
Fe1 Fe12 2.447609 1_455
Fe1 Fe11 2.447609 1_455
Fe1 Fe14 2.447609 1_554
Fe1 Fe7 2.477133 1_555
Fe1 Fe5 2.477133 1_554
Fe1 Fe3 2.477133 1_555
Fe1 Fe8 2.477133 1_455
Fe1 Ga0 2.574829 1_454
Fe1 Ga1 2.574829 1_555
Fe2 Fe9 2.447609 1_554
Fe2 Fe4 2.477133 1_555
Fe2 Fe6 2.477133 1_554
Fe2 Fe8 2.477133 1_555
Fe2 Fe3 2.477133 1_545
Fe2 Ga0 2.574829 1_544
Fe2 Ga1 2.574829 1_555
Fe3 Fe7 2.526289 1_555
Fe3 Fe6 2.526289 1_564
Fe3 Fe9 2.632659 1_554
Fe3 Ga0 2.843176 1_454
Fe3 Ga1 2.843176 1_565
Fe4 Fe7 2.526289 1_645
Fe4 Fe8 2.526289 1_555
Fe4 Ga0 2.843176 1_544
Fe4 Ga1 2.843176 1_655
Fe5 Fe6 2.526289 1_555
Fe5 Fe8 2.526289 1_456
Fe5 Fe9 2.572596 1_555
Fe5 Ga0 2.843176 1_445
Fe5 Ga1 2.843176 1_556
Fe6 Fe9 2.572596 1_555
Fe6 Ga0 2.843176 1_445
Fe6 Ga1 2.843176 1_556
Fe7 Ga0 2.843176 1_454
Fe7 Ga1 2.843176 1_565
Fe8 Fe9 2.632659 1_554
Fe8 Ga0 2.843176 1_544
Fe8 Ga1 2.843176 1_655
Fe9 Ga1 2.614328 1_556
Fe10 Fe2 2.447609 1_565
Fe10 Fe12 2.451100 1_555
Fe10 Fe14 2.451100 1_555
Fe10 Fe7 2.572596 1_555
Fe10 Fe3 2.572596 1_555
Fe10 Ga1 2.614328 1_565
Fe10 Fe6 2.632659 1_565
Fe10 Fe4 2.632659 1_565
Fe11 Fe12 2.451100 1_555
Fe11 Fe13 2.451100 1_555
Fe11 Fe4 2.572596 1_555
Fe11 Fe8 2.572596 1_555
Fe11 Ga1 2.614328 1_655
Fe11 Fe5 2.632659 1_655
Fe11 Fe7 2.632659 1_655
Fe12 Fe2 2.447609 1_565
Fe12 Fe4 2.572596 1_565
Fe12 Fe7 2.572596 1_655
Fe12 Ga0 2.614328 1_554
Fe12 Fe3 2.632659 1_555
Fe12 Fe8 2.632659 1_555
Fe13 Fe2 2.447609 1_556
Fe13 Fe9 2.451100 1_555
Fe13 Fe5 2.572596 1_655
Fe13 Fe8 2.572596 1_556
Fe13 Ga0 2.614328 1_545
Fe13 Fe4 2.632659 1_555
Fe13 Fe6 2.632659 1_555
Fe14 Fe9 2.451100 1_555
Fe14 Fe6 2.572596 1_565
Fe14 Fe3 2.572596 1_556
Fe14 Ga0 2.614328 1_455
Fe14 Fe7 2.632659 1_555
Fe14 Fe5 2.632659 1_555
