# generated using pymatgen
data_Sr8V6O19
_symmetry_space_group_name_H-M   'P 1'
_cell_length_a   14.34646307
_cell_length_b   14.34646307
_cell_length_c   5.56731600
_cell_angle_alpha   90.00000000
_cell_angle_beta   90.00000000
_cell_angle_gamma   157.54217667
_symmetry_Int_Tables_number   1
_chemical_formula_structural   Sr8V6O19
_chemical_formula_sum   'Sr8 V6 O19'
_cell_volume   437.72626799
_cell_formula_units_Z   1
loop_
 _symmetry_equiv_pos_site_id
 _symmetry_equiv_pos_as_xyz
  1  'x, y, z'
loop_
 _atom_site_type_symbol
 _atom_site_label
 _atom_site_symmetry_multiplicity
 _atom_site_fract_x
 _atom_site_fract_y
 _atom_site_fract_z
 _atom_site_occupancy
  Sr  Sr0  1  0.56896300  0.43103700  0.00000000  1
  Sr  Sr1  1  0.06900800  0.93099200  0.50000000  1
  Sr  Sr2  1  0.93300700  0.06699300  0.50000000  1
  Sr  Sr3  1  0.43297500  0.56702500  0.00000000  1
  Sr  Sr4  1  0.70127400  0.29872600  0.00000000  1
  Sr  Sr5  1  0.20074700  0.79925300  0.50000000  1
  Sr  Sr6  1  0.79756500  0.20243500  0.50000000  1
  Sr  Sr7  1  0.29684900  0.70315100  0.00000000  1
  V  V0  1  0.86168500  0.13831500  0.00000000  1
  V  V1  1  0.35611400  0.64388600  0.50000000  1
  V  V2  1  0.64034600  0.35965400  0.50000000  1
  V  V3  1  0.14038300  0.85961700  0.00000000  1
  V  V4  1  0.50549900  0.49450100  0.50000000  1
  V  V5  1  0.99887700  0.00112300  0.00000000  1
  O  O0  1  0.79126300  0.20873700  0.00000000  1
  O  O1  1  0.28646700  0.71353300  0.50000000  1
  O  O2  1  0.70798400  0.29201600  0.50000000  1
  O  O3  1  0.20996500  0.79003500  0.00000000  1
  O  O4  1  0.61382900  0.88377900  0.75090300  1
  O  O5  1  0.11622100  0.38617100  0.24909700  1
  O  O6  1  0.11622100  0.38617100  0.75090300  1
  O  O7  1  0.61382900  0.88377900  0.24909700  1
  O  O8  1  0.89162200  0.61482500  0.75436100  1
  O  O9  1  0.38517500  0.10837800  0.24563900  1
  O  O10  1  0.38517500  0.10837800  0.75436100  1
  O  O11  1  0.89162200  0.61482500  0.24563900  1
  O  O12  1  0.74161700  0.74864700  0.74527100  1
  O  O13  1  0.25135300  0.25838300  0.25472900  1
  O  O14  1  0.74161700  0.74864700  0.25472900  1
  O  O15  1  0.25135300  0.25838300  0.74527100  1
  O  O16  1  0.93228000  0.06772000  0.00000000  1
  O  O17  1  0.06579400  0.93420600  0.00000000  1
  O  O18  1  0.57332300  0.42667700  0.50000000  1
loop_
_geom_bond_atom_site_label_1
_geom_bond_atom_site_label_2
_geom_bond_distance
_geom_bond_site_symmetry_2
O0 V0 1.981933 1_555
O0 Sr4 2.532620 1_555
O0 Sr6 2.789303 1_554
O0 Sr6 2.789303 1_555
O0 Sr7 2.798097 1_545
O0 Sr7 2.798097 1_655
O1 V1 1.960121 1_555
O1 Sr5 2.412474 1_555
O1 Sr7 2.798951 1_556
O1 Sr7 2.798951 1_555
O1 Sr6 2.811083 1_455
O1 Sr6 2.811083 1_565
O2 V2 1.903581 1_555
O2 Sr6 2.521137 1_555
O2 Sr4 2.790056 1_556
O2 Sr4 2.790056 1_555
O2 Sr5 2.801092 1_655
O2 Sr5 2.801092 1_545
O3 V3 1.958292 1_555
O3 Sr7 2.445234 1_555
O3 Sr5 2.795721 1_555
O3 Sr5 2.795721 1_554
O3 Sr4 2.804364 1_455
O3 Sr4 2.804364 1_565
O4 V0 1.975329 1_566
O4 V1 1.986614 1_555
O4 Sr3 2.740963 1_556
O4 Sr6 2.743292 1_565
O4 Sr7 2.745405 1_556
O4 Sr2 2.753480 1_565
O5 V0 1.975329 1_455
O5 V1 1.986614 1_555
O5 Sr3 2.740963 1_555
O5 Sr6 2.743292 1_455
O5 Sr7 2.745405 1_555
O5 Sr2 2.753480 1_455
O6 V0 1.975329 1_456
O6 V1 1.986614 1_555
O6 Sr3 2.740963 1_556
O6 Sr6 2.743292 1_455
O6 Sr7 2.745405 1_556
O6 Sr2 2.753480 1_455
O7 V0 1.975329 1_565
O7 V1 1.986614 1_555
O7 Sr3 2.740963 1_555
O7 Sr6 2.743292 1_565
O7 Sr7 2.745405 1_555
O7 Sr2 2.753480 1_565
O8 V3 1.942802 1_656
O8 V2 2.002540 1_555
O8 Sr5 2.643019 1_655
O8 Sr4 2.646372 1_556
O8 Sr0 2.773223 1_556
O8 Sr1 2.778553 1_655
O9 V3 1.942802 1_545
O9 V2 2.002540 1_555
O9 Sr5 2.643019 1_545
O9 Sr4 2.646372 1_555
O9 Sr0 2.773223 1_555
O9 Sr1 2.778553 1_545
O10 V3 1.942802 1_546
O10 V2 2.002540 1_555
O10 Sr5 2.643019 1_545
O10 Sr4 2.646372 1_556
O10 Sr0 2.773223 1_556
O10 Sr1 2.778553 1_545
O11 V3 1.942802 1_655
O11 V2 2.002540 1_555
O11 Sr5 2.643019 1_655
O11 Sr4 2.646372 1_555
O11 Sr0 2.773223 1_555
O11 Sr1 2.778553 1_655
O12 V4 1.950606 1_555
O12 V5 2.010867 1_566
O12 Sr3 2.661183 1_556
O12 Sr2 2.661592 1_565
O12 Sr0 2.836873 1_556
O12 Sr1 2.838734 1_655
O13 V4 1.950606 1_555
O13 V5 2.010867 1_455
O13 Sr3 2.661183 1_555
O13 Sr2 2.661592 1_455
O13 Sr0 2.836873 1_555
O13 Sr1 2.838734 1_545
O14 V4 1.950606 1_555
O14 V5 2.010867 1_565
O14 Sr3 2.661183 1_555
O14 Sr2 2.661592 1_565
O14 Sr0 2.836873 1_555
O14 Sr1 2.838734 1_655
O15 V4 1.950606 1_555
O15 V5 2.010867 1_456
O15 Sr3 2.661183 1_556
O15 Sr2 2.661592 1_455
O15 Sr0 2.836873 1_556
O15 Sr1 2.838734 1_545
O16 V5 1.874283 1_555
O16 V0 1.986802 1_555
O16 Sr2 2.783733 1_555
O16 Sr2 2.783733 1_554
O16 Sr3 2.793745 1_655
O16 Sr3 2.793745 1_545
O17 V5 1.883289 1_465
O17 V3 2.099207 1_555
O17 Sr1 2.785127 1_554
O17 Sr1 2.785127 1_555
O17 Sr0 2.795100 1_455
O17 Sr0 2.795100 1_565
O18 V2 1.886272 1_555
O18 V4 1.908815 1_555
O18 Sr0 2.786361 1_555
O18 Sr0 2.786361 1_556
O18 Sr1 2.796315 1_655
O18 Sr1 2.796315 1_545
