# generated using pymatgen
data_ReH(CO)4
_symmetry_space_group_name_H-M   'P 1'
_cell_length_a   12.66164000
_cell_length_b   12.88040300
_cell_length_c   17.53639645
_cell_angle_alpha   49.54144387
_cell_angle_beta   90.00000000
_cell_angle_gamma   90.00000000
_symmetry_Int_Tables_number   1
_chemical_formula_structural   ReH(CO)4
_chemical_formula_sum   'Re12 H12 C48 O48'
_cell_volume   2176.07263210
_cell_formula_units_Z   12
loop_
 _symmetry_equiv_pos_site_id
 _symmetry_equiv_pos_as_xyz
  1  'x, y, z'
loop_
 _atom_site_type_symbol
 _atom_site_label
 _atom_site_symmetry_multiplicity
 _atom_site_fract_x
 _atom_site_fract_y
 _atom_site_fract_z
 _atom_site_occupancy
  Re  Re0  1  0.45775000  0.77425200  0.97362500  1
  Re  Re1  1  0.04225000  0.77425200  0.47362500  1
  Re  Re2  1  0.54225000  0.22574800  0.02637500  1
  Re  Re3  1  0.95775000  0.22574800  0.52637500  1
  Re  Re4  1  0.27041700  0.84795000  0.07264500  1
  Re  Re5  1  0.22958300  0.84795000  0.57264500  1
  Re  Re6  1  0.72958300  0.15205000  0.92735500  1
  Re  Re7  1  0.77041700  0.15205000  0.42735500  1
  Re  Re8  1  0.29515000  0.17870000  0.97362700  1
  Re  Re9  1  0.20485000  0.17870000  0.47362700  1
  Re  Re10  1  0.70485000  0.82130000  0.02637300  1
  Re  Re11  1  0.79515000  0.82130000  0.52637300  1
  H  H0  1  0.38567900  0.88740900  0.99001600  1
  H  H1  1  0.11432100  0.88740900  0.49001600  1
  H  H2  1  0.61432100  0.11259100  0.00998400  1
  H  H3  1  0.88567900  0.11259100  0.50998400  1
  H  H4  1  0.33728100  0.99577500  0.05217800  1
  H  H5  1  0.16271900  0.99577500  0.55217800  1
  H  H6  1  0.66271900  0.00422500  0.94782200  1
  H  H7  1  0.83728100  0.00422500  0.44782200  1
  H  H8  1  0.44403600  0.18760100  0.96760900  1
  H  H9  1  0.05596400  0.18760100  0.46760900  1
  H  H10  1  0.55596400  0.81239900  0.03239100  1
  H  H11  1  0.94403600  0.81239900  0.53239100  1
  C  C0  1  0.54350300  0.68047900  0.94336600  1
  C  C1  1  0.95649700  0.68047900  0.44336600  1
  C  C2  1  0.45649700  0.31952100  0.05663400  1
  C  C3  1  0.04350300  0.31952100  0.55663400  1
  C  C4  1  0.48571500  0.95427900  0.83782700  1
  C  C5  1  0.01428500  0.95427900  0.33782700  1
  C  C6  1  0.51428500  0.04572100  0.16217300  1
  C  C7  1  0.98571500  0.04572100  0.66217300  1
  C  C8  1  0.33541400  0.75072800  0.91923500  1
  C  C9  1  0.16458600  0.75072800  0.41923500  1
  C  C10  1  0.66458600  0.24927200  0.08076500  1
  C  C11  1  0.83541400  0.24927200  0.58076500  1
  C  C12  1  0.43431100  0.59668000  0.11214800  1
  C  C13  1  0.06568900  0.59668000  0.61214800  1
  C  C14  1  0.56568900  0.40332000  0.88785200  1
  C  C15  1  0.93431100  0.40332000  0.38785200  1
  C  C16  1  0.18247300  0.95549500  0.94836800  1
  C  C17  1  0.31752700  0.95549500  0.44836800  1
  C  C18  1  0.81752700  0.04450500  0.05163200  1
  C  C19  1  0.68247300  0.04450500  0.55163200  1
  C  C20  1  0.36507900  0.74494700  0.19318700  1
  C  C21  1  0.13492100  0.74494700  0.69318700  1
  C  C22  1  0.63492100  0.25505300  0.80681300  1
  C  C23  1  0.86507900  0.25505300  0.30681300  1
  C  C24  1  0.15795700  0.83838500  0.15220100  1
  C  C25  1  0.34204300  0.83838500  0.65220100  1
  C  C26  1  0.84204300  0.16161500  0.84779900  1
  C  C27  1  0.65795700  0.16161500  0.34779900  1
  C  C28  1  0.21656900  0.68153200  0.10667000  1
  C  C29  1  0.28343100  0.68153200  0.60667000  1
  C  C30  1  0.78343100  0.31846800  0.89333000  1
  C  C31  1  0.71656900  0.31846800  0.39333000  1
  C  C32  1  0.14357400  0.16680100  0.96539400  1
  C  C33  1  0.35642600  0.16680100  0.46539400  1
  C  C34  1  0.85642600  0.83319900  0.03460600  1
  C  C35  1  0.64357400  0.83319900  0.53460600  1
  C  C36  1  0.28204100  0.37343500  0.89676300  1
  C  C37  1  0.21795900  0.37343500  0.39676300  1
  C  C38  1  0.71795900  0.62656500  0.10323700  1
  C  C39  1  0.78204100  0.62656500  0.60323700  1
  C  C40  1  0.27441600  0.13982600  0.10306500  1
  C  C41  1  0.22558400  0.13982600  0.60306500  1
  C  C42  1  0.72558400  0.86017400  0.89693500  1
  C  C43  1  0.77441600  0.86017400  0.39693500  1
  C  C44  1  0.31600900  0.21328900  0.84546100  1
  C  C45  1  0.18399100  0.21328900  0.34546100  1
  C  C46  1  0.68399100  0.78671100  0.15453900  1
  C  C47  1  0.81600900  0.78671100  0.65453900  1
  O  O0  1  0.59285000  0.62249800  0.92516700  1
  O  O1  1  0.90715000  0.62249800  0.42516700  1
  O  O2  1  0.40715000  0.37750200  0.07483300  1
  O  O3  1  0.09285000  0.37750200  0.57483300  1
  O  O4  1  0.50262600  0.05643300  0.75860100  1
  O  O5  1  0.99737400  0.05643300  0.25860100  1
  O  O6  1  0.49737400  0.94356700  0.24139900  1
  O  O7  1  0.00262600  0.94356700  0.74139900  1
  O  O8  1  0.26396700  0.73966400  0.88332100  1
  O  O9  1  0.23603300  0.73966400  0.38332100  1
  O  O10  1  0.73603300  0.26033600  0.11667900  1
  O  O11  1  0.76396700  0.26033600  0.61667900  1
  O  O12  1  0.42130000  0.49341600  0.19215700  1
  O  O13  1  0.07870000  0.49341600  0.69215700  1
  O  O14  1  0.57870000  0.50658400  0.80784300  1
  O  O15  1  0.92130000  0.50658400  0.30784300  1
  O  O16  1  0.13096900  0.01729600  0.87669900  1
  O  O17  1  0.36903100  0.01729600  0.37669900  1
  O  O18  1  0.86903100  0.98270400  0.12330100  1
  O  O19  1  0.63096900  0.98270400  0.62330100  1
  O  O20  1  0.41896000  0.68431400  0.26291300  1
  O  O21  1  0.08104000  0.68431400  0.76291300  1
  O  O22  1  0.58104000  0.31568600  0.73708700  1
  O  O23  1  0.91896000  0.31568600  0.23708700  1
  O  O24  1  0.09133100  0.82760600  0.20260800  1
  O  O25  1  0.40866900  0.82760600  0.70260800  1
  O  O26  1  0.90866900  0.17239400  0.79739200  1
  O  O27  1  0.59133100  0.17239400  0.29739200  1
  O  O28  1  0.18150700  0.58225800  0.12749800  1
  O  O29  1  0.31849300  0.58225800  0.62749800  1
  O  O30  1  0.81849300  0.41774200  0.87250200  1
  O  O31  1  0.68150700  0.41774200  0.37250200  1
  O  O32  1  0.05227000  0.16384800  0.95935500  1
  O  O33  1  0.44773000  0.16384800  0.45935500  1
  O  O34  1  0.94773000  0.83615200  0.04064500  1
  O  O35  1  0.55227000  0.83615200  0.54064500  1
  O  O36  1  0.27330900  0.49076800  0.84863400  1
  O  O37  1  0.22669100  0.49076800  0.34863400  1
  O  O38  1  0.72669100  0.50923200  0.15136600  1
  O  O39  1  0.77330900  0.50923200  0.65136600  1
  O  O40  1  0.25977000  0.11939500  0.17686300  1
  O  O41  1  0.24023000  0.11939500  0.67686300  1
  O  O42  1  0.74023000  0.88060500  0.82313700  1
  O  O43  1  0.75977000  0.88060500  0.32313700  1
  O  O44  1  0.32446000  0.23560800  0.77051300  1
  O  O45  1  0.17554000  0.23560800  0.27051300  1
  O  O46  1  0.67554000  0.76439200  0.22948700  1
  O  O47  1  0.82446000  0.76439200  0.72948700  1
loop_
_geom_bond_atom_site_label_1
_geom_bond_atom_site_label_2
_geom_bond_distance
_geom_bond_site_symmetry_2
H0 Re4 1.879376 1_556
H0 Re0 1.892981 1_555
H1 Re5 1.879376 1_555
H1 Re1 1.892981 1_555
H2 Re6 1.879376 1_554
H2 Re2 1.892981 1_555
H3 Re7 1.879376 1_555
H3 Re3 1.892981 1_555
H4 Re8 1.876536 1_564
H4 Re4 1.893158 1_555
H5 Re9 1.876536 1_565
H5 Re5 1.893158 1_555
H6 Re10 1.876536 1_546
H6 Re6 1.893158 1_555
H7 Re11 1.876536 1_545
H7 Re7 1.893158 1_555
H8 Re2 1.872701 1_556
H8 Re8 1.887415 1_555
H9 Re3 1.872701 1_455
H9 Re9 1.887415 1_555
H10 Re0 1.872701 1_554
H10 Re10 1.887415 1_555
H11 Re1 1.872701 1_655
H11 Re11 1.887415 1_555
C0 O0 1.165892 1_555
C0 Re0 1.936781 1_555
C1 O1 1.165892 1_555
C1 Re1 1.936781 1_655
C2 O2 1.165892 1_555
C2 Re2 1.936781 1_555
C3 O3 1.165892 1_555
C3 Re3 1.936781 1_455
C4 O4 1.155395 1_565
C4 Re0 2.001725 1_555
C5 O5 1.155395 1_465
C5 Re1 2.001725 1_555
C6 O6 1.155395 1_545
C6 Re2 2.001725 1_555
C7 O7 1.155395 1_645
C7 Re3 2.001725 1_555
C8 O8 1.162672 1_555
C8 Re0 1.943177 1_555
C9 O9 1.162672 1_555
C9 Re1 1.943177 1_555
C10 O10 1.162672 1_555
C10 Re2 1.943177 1_555
C11 O11 1.162672 1_555
C11 Re3 1.943177 1_555
C12 O12 1.158844 1_555
C12 Re0 2.002429 1_554
C13 O13 1.158844 1_555
C13 Re1 2.002429 1_555
C14 O14 1.158844 1_555
C14 Re2 2.002429 1_556
C15 O15 1.158844 1_555
C15 Re3 2.002429 1_555
C16 O16 1.157636 1_565
C16 Re4 1.997619 1_556
C17 O17 1.157636 1_565
C17 Re5 1.997619 1_555
C18 O18 1.157636 1_545
C18 Re6 1.997619 1_554
C19 O19 1.157636 1_545
C19 Re7 1.997619 1_555
C20 O20 1.153751 1_555
C20 Re4 2.006374 1_555
C21 O21 1.153751 1_555
C21 Re5 2.006374 1_555
C22 O22 1.153751 1_555
C22 Re6 2.006374 1_555
C23 O23 1.153751 1_555
C23 Re7 2.006374 1_555
C24 O24 1.163200 1_555
C24 Re4 1.940634 1_555
C25 O25 1.163200 1_555
C25 Re5 1.940634 1_555
C26 O26 1.163200 1_555
C26 Re6 1.940634 1_555
C27 O27 1.163200 1_555
C27 Re7 1.940634 1_555
C28 O28 1.165940 1_555
C28 Re4 1.937971 1_555
C29 O29 1.165940 1_555
C29 Re5 1.937971 1_555
C30 O30 1.165940 1_555
C30 Re6 1.937971 1_555
C31 O31 1.165940 1_555
C31 Re7 1.937971 1_555
C32 O32 1.163770 1_555
C32 Re8 1.938139 1_555
C33 O33 1.163770 1_555
C33 Re9 1.938139 1_555
C34 O34 1.163770 1_555
C34 Re10 1.938139 1_555
C35 O35 1.163770 1_555
C35 Re11 1.938139 1_555
C36 O36 1.163267 1_555
C36 Re8 1.935992 1_555
C37 O37 1.163267 1_555
C37 Re9 1.935992 1_555
C38 O38 1.163267 1_555
C38 Re10 1.935992 1_555
C39 O39 1.163267 1_555
C39 Re11 1.935992 1_555
C40 O40 1.156063 1_555
C40 Re8 1.999238 1_554
C41 O41 1.156063 1_555
C41 Re9 1.999238 1_555
C42 O42 1.156063 1_555
C42 Re10 1.999238 1_556
C43 O43 1.156063 1_555
C43 Re11 1.999238 1_555
C44 O44 1.153763 1_555
C44 Re8 2.005064 1_555
C45 O45 1.153763 1_555
C45 Re9 2.005064 1_555
C46 O46 1.153763 1_555
C46 Re10 2.005064 1_555
C47 O47 1.153763 1_555
C47 Re11 2.005064 1_555
