# generated using pymatgen
data_CeInNi4
_symmetry_space_group_name_H-M   'P 1'
_cell_length_a   4.97568383
_cell_length_b   4.97567519
_cell_length_c   4.97567734
_cell_angle_alpha   59.99995689
_cell_angle_beta   60.00003352
_cell_angle_gamma   59.99999041
_symmetry_Int_Tables_number   1
_chemical_formula_structural   CeInNi4
_chemical_formula_sum   'Ce1 In1 Ni4'
_cell_volume   87.10477169
_cell_formula_units_Z   1
loop_
 _symmetry_equiv_pos_site_id
 _symmetry_equiv_pos_as_xyz
  1  'x, y, z'
loop_
 _atom_site_type_symbol
 _atom_site_label
 _atom_site_symmetry_multiplicity
 _atom_site_fract_x
 _atom_site_fract_y
 _atom_site_fract_z
 _atom_site_occupancy
  Ce  Ce0  1  0.99999900  -0.00000000  -0.00000000  1
  In  In0  1  0.25000100  0.25000000  0.25000000  1
  Ni  Ni0  1  0.62384057  0.62384157  0.62384157  1
  Ni  Ni1  1  0.62384057  0.62384157  0.12847528  1
  Ni  Ni2  1  0.62384057  0.12847528  0.62384157  1
  Ni  Ni3  1  0.12847828  0.62384057  0.62384057  1
loop_
_geom_bond_atom_site_label_1
_geom_bond_atom_site_label_2
_geom_bond_distance
_geom_bond_site_symmetry_2
Ce0 Ni0 2.919739 1_554
Ce0 Ni1 2.919739 1_555
Ce0 Ni3 2.919740 1_644
Ce0 Ni0 2.919741 1_545
Ce0 Ni2 2.919742 1_555
Ce0 Ni2 2.919742 1_554
Ce0 Ni1 2.919742 1_545
Ce0 Ni3 2.919743 1_654
Ce0 Ni1 2.919743 1_645
Ce0 Ni0 2.919743 1_644
Ce0 Ni3 2.919743 1_645
Ce0 Ni2 2.919744 1_654
Ce0 In0 3.046964 1_555
Ce0 In0 3.046965 1_645
Ce0 In0 3.046968 1_654
Ce0 In0 3.046977 1_655
In0 Ni2 2.914818 1_555
In0 Ni1 2.914818 1_555
In0 Ni0 2.914819 1_545
In0 Ni3 2.914820 1_555
In0 Ni0 2.914821 1_554
In0 Ni3 2.914823 1_545
In0 Ni3 2.914824 1_554
In0 Ni1 2.914824 1_545
In0 Ni2 2.914826 1_554
In0 Ni0 2.914832 1_455
In0 Ni1 2.914836 1_455
In0 Ni2 2.914838 1_455
Ni0 Ni3 2.464771 1_555
Ni0 Ni2 2.464782 1_555
Ni0 Ni1 2.464783 1_555
Ni0 Ni2 2.510893 1_565
Ni0 Ni1 2.510895 1_556
Ni0 Ni3 2.510913 1_655
Ni1 Ni3 2.464773 1_555
Ni1 Ni2 2.464781 1_555
Ni1 Ni2 2.510892 1_564
Ni1 Ni3 2.510910 1_654
Ni2 Ni3 2.464771 1_555
Ni2 Ni3 2.510908 1_645
