# generated using pymatgen
data_Li3Fe8(BO3)8
_symmetry_space_group_name_H-M   'P 1'
_cell_length_a   5.22594900
_cell_length_b   9.07446015
_cell_length_c   11.38878375
_cell_angle_alpha   112.76256463
_cell_angle_beta   103.20741703
_cell_angle_gamma   90.62573220
_symmetry_Int_Tables_number   1
_chemical_formula_structural   Li3Fe8(BO3)8
_chemical_formula_sum   'Li3 Fe8 B8 O24'
_cell_volume   481.87290065
_cell_formula_units_Z   1
loop_
 _symmetry_equiv_pos_site_id
 _symmetry_equiv_pos_as_xyz
  1  'x, y, z'
loop_
 _atom_site_type_symbol
 _atom_site_label
 _atom_site_symmetry_multiplicity
 _atom_site_fract_x
 _atom_site_fract_y
 _atom_site_fract_z
 _atom_site_occupancy
  Li  Li0  1  0.38487100  0.72661100  0.09707900  1
  Li  Li1  1  0.82682300  0.49264000  0.33985300  1
  Li  Li2  1  0.60935100  0.24836000  0.83639700  1
  Fe  Fe0  1  0.64295700  0.64437800  0.62118100  1
  Fe  Fe1  1  0.38403100  0.07422000  0.12358300  1
  Fe  Fe2  1  0.85798000  0.85041400  0.37014500  1
  Fe  Fe3  1  0.12212800  0.44798400  0.86532900  1
  Fe  Fe4  1  0.88463700  0.55049300  0.11325400  1
  Fe  Fe5  1  0.13530700  0.14953200  0.61867600  1
  Fe  Fe6  1  0.33536500  0.34018000  0.37256600  1
  Fe  Fe7  1  0.60752700  0.92565000  0.87250400  1
  B  B0  1  0.64859100  0.31686900  0.62715700  1
  B  B1  1  0.38840100  0.40035200  0.12673400  1
  B  B2  1  0.83528800  0.18664200  0.37052200  1
  B  B3  1  0.10832300  0.10328500  0.87004200  1
  B  B4  1  0.14680600  0.81165100  0.62164400  1
  B  B5  1  0.88980800  0.89351300  0.12177000  1
  B  B6  1  0.35791300  0.68472400  0.37381200  1
  B  B7  1  0.60743300  0.60582600  0.87424500  1
  O  O0  1  0.14985700  0.90565000  0.12209600  1
  O  O1  1  0.26239000  0.28501600  0.15536100  1
  O  O2  1  0.24247400  0.50288400  0.07989400  1
  O  O3  1  0.49798000  0.79884900  0.35638400  1
  O  O4  1  0.49190600  0.57738000  0.42061400  1
  O  O5  1  0.56370300  0.15102100  0.31412700  1
  O  O6  1  0.92279000  0.32478900  0.65878500  1
  O  O7  1  0.65660600  0.41223700  0.14895600  1
  O  O8  1  0.78825600  0.79181100  0.17078100  1
  O  O9  1  0.03585100  0.92155300  0.57067300  1
  O  O10  1  0.99298100  0.69187000  0.62177700  1
  O  O11  1  0.70820500  0.97815400  0.06866900  1
  O  O12  1  0.28544300  0.01612400  0.92217100  1
  O  O13  1  0.96795400  0.31940500  0.37861800  1
  O  O14  1  0.96695800  0.07925000  0.42029700  1
  O  O15  1  0.21466600  0.20511100  0.82318100  1
  O  O16  1  0.36798300  0.63300600  0.90089000  1
  O  O17  1  0.07987400  0.66889600  0.34337000  1
  O  O18  1  0.42365500  0.82906400  0.67172700  1
  O  O19  1  0.52813900  0.42369100  0.57911700  1
  O  O20  1  0.50078800  0.20509200  0.64509800  1
  O  O21  1  0.74903500  0.48715000  0.89959000  1
  O  O22  1  0.72085400  0.70690300  0.82575900  1
  O  O23  1  0.84314800  0.08658400  0.86416600  1
loop_
_geom_bond_atom_site_label_1
_geom_bond_atom_site_label_2
_geom_bond_distance
_geom_bond_site_symmetry_2
Li0 O0 2.018528 1_555
Li0 O16 2.039913 1_554
Li0 O8 2.068444 1_555
Li0 O2 2.075276 1_555
Li1 O13 1.903600 1_555
Li1 O7 1.981135 1_555
Li1 O17 2.046612 1_655
Li1 O4 2.172189 1_555
Li2 O23 1.992442 1_555
Li2 O20 1.997745 1_555
Li2 O15 2.055666 1_555
Li2 O21 2.065152 1_555
Fe0 O10 1.872597 1_555
Fe0 O19 1.923544 1_555
Fe0 O18 2.012568 1_555
Fe0 O4 2.073963 1_555
Fe0 O22 2.110604 1_555
Fe1 O0 1.940992 1_545
Fe1 O1 1.946816 1_555
Fe1 O5 1.990183 1_555
Fe1 O11 2.028699 1_545
Fe1 O12 2.079259 1_554
Fe2 O3 1.890041 1_555
Fe2 O14 1.967336 1_565
Fe2 O17 1.991354 1_655
Fe2 O8 2.062566 1_555
Fe2 O9 2.091027 1_655
Fe3 O16 1.955167 1_555
Fe3 O21 2.082214 1_455
Fe3 O15 2.152288 1_555
Fe3 O6 2.165205 1_455
Fe3 O2 2.227986 1_556
Fe4 O7 1.934669 1_555
Fe4 O2 2.010802 1_655
Fe4 O8 2.131424 1_555
Fe4 O21 2.207862 1_554
Fe4 O17 2.374646 1_655
Fe5 O20 1.895184 1_555
Fe5 O6 1.918226 1_455
Fe5 O9 1.954577 1_545
Fe5 O14 2.061464 1_455
Fe5 O15 2.120369 1_555
Fe6 O13 1.946686 1_455
Fe6 O5 2.082525 1_555
Fe6 O4 2.108865 1_555
Fe6 O19 2.154939 1_555
Fe6 O1 2.263127 1_555
Fe7 O23 1.944075 1_565
Fe7 O22 1.981524 1_555
Fe7 O12 1.983186 1_565
Fe7 O11 2.031913 1_556
Fe7 O18 2.084905 1_555
B0 O20 1.372074 1_555
B0 O19 1.378975 1_555
B0 O6 1.389287 1_555
B1 O7 1.361514 1_555
B1 O2 1.394814 1_555
B1 O1 1.407995 1_555
B2 O13 1.344318 1_555
B2 O5 1.394332 1_555
B2 O14 1.417188 1_555
B3 O23 1.375882 1_455
B3 O15 1.397640 1_555
B3 O12 1.401095 1_555
B4 O10 1.345522 1_455
B4 O9 1.405212 1_555
B4 O18 1.411277 1_555
B5 O0 1.361301 1_655
B5 O8 1.402935 1_555
B5 O11 1.403371 1_555
B6 O3 1.362573 1_555
B6 O4 1.403358 1_555
B6 O17 1.406699 1_555
B7 O16 1.356888 1_555
B7 O21 1.396792 1_555
B7 O22 1.423785 1_555
