# generated using pymatgen
data_Ta6Zn7
_symmetry_space_group_name_H-M   'P 1'
_cell_length_a   5.02259860
_cell_length_b   5.02259860
_cell_length_c   9.56313865
_cell_angle_alpha   74.77548864
_cell_angle_beta   74.77548864
_cell_angle_gamma   60.00002454
_symmetry_Int_Tables_number   1
_chemical_formula_structural   Ta6Zn7
_chemical_formula_sum   'Ta6 Zn7'
_cell_volume   199.08744275
_cell_formula_units_Z   1
loop_
 _symmetry_equiv_pos_site_id
 _symmetry_equiv_pos_as_xyz
  1  'x, y, z'
loop_
 _atom_site_type_symbol
 _atom_site_label
 _atom_site_symmetry_multiplicity
 _atom_site_fract_x
 _atom_site_fract_y
 _atom_site_fract_z
 _atom_site_occupancy
  Ta  Ta0  1  0.16470429  0.16470429  0.50588812  1
  Ta  Ta1  1  0.83529571  0.83529571  0.49411188  1
  Ta  Ta2  1  0.35067452  0.35067452  0.94797944  1
  Ta  Ta3  1  0.64932548  0.64932548  0.05202056  1
  Ta  Ta4  1  0.45447874  0.45447874  0.63656577  1
  Ta  Ta5  1  0.54552126  0.54552126  0.36343423  1
  Zn  Zn0  1  0.00000000  -0.00000000  -0.00000000  1
  Zn  Zn1  1  0.58629293  0.09410151  0.22550305  1
  Zn  Zn2  1  0.09410151  0.09410151  0.22550305  1
  Zn  Zn3  1  0.09410151  0.58629293  0.22550305  1
  Zn  Zn4  1  0.41370707  0.90589849  0.77449695  1
  Zn  Zn5  1  0.90589849  0.90589849  0.77449695  1
  Zn  Zn6  1  0.90589849  0.41370707  0.77449695  1
loop_
_geom_bond_atom_site_label_1
_geom_bond_atom_site_label_2
_geom_bond_distance
_geom_bond_site_symmetry_2
Ta0 Zn5 2.856592 1_445
Ta0 Zn4 2.856593 1_545
Ta0 Zn6 2.856593 1_455
Ta0 Ta1 2.901782 1_455
Ta0 Ta1 2.901782 1_545
Ta0 Ta1 2.901789 1_445
Ta0 Zn1 2.926719 1_555
Ta0 Zn3 2.926719 1_555
Ta0 Zn2 2.926723 1_555
Ta0 Ta4 3.134797 1_455
Ta0 Ta4 3.134797 1_545
Ta0 Ta4 3.134800 1_555
Ta0 Ta5 3.177108 1_555
Ta0 Ta5 3.177121 1_455
Ta0 Ta5 3.177121 1_545
Ta1 Zn2 2.856592 1_665
Ta1 Zn3 2.856593 1_655
Ta1 Zn1 2.856593 1_565
Ta1 Zn4 2.926719 1_555
Ta1 Zn6 2.926719 1_555
Ta1 Zn5 2.926723 1_555
Ta1 Ta5 3.134797 1_655
Ta1 Ta5 3.134797 1_565
Ta1 Ta5 3.134800 1_555
Ta1 Ta4 3.177108 1_555
Ta1 Ta4 3.177121 1_655
Ta1 Ta4 3.177121 1_565
Ta2 Ta4 2.837879 1_555
Ta2 Zn1 2.903980 1_556
Ta2 Zn3 2.903980 1_556
Ta2 Zn2 2.903988 1_556
Ta2 Zn0 2.938289 1_656
Ta2 Zn0 2.938289 1_566
Ta2 Zn0 2.938301 1_556
Ta2 Zn6 2.967565 1_555
Ta2 Zn4 2.967565 1_555
Ta2 Zn5 2.967570 1_545
Ta2 Zn5 2.967570 1_455
Ta2 Zn4 2.967574 1_545
Ta2 Zn6 2.967574 1_455
Ta2 Ta3 3.050845 1_556
Ta2 Ta3 3.050870 1_456
Ta2 Ta3 3.050870 1_546
Ta3 Ta5 2.837879 1_555
Ta3 Zn4 2.903980 1_554
Ta3 Zn6 2.903980 1_554
Ta3 Zn5 2.903988 1_554
Ta3 Zn0 2.938289 1_565
Ta3 Zn0 2.938289 1_655
Ta3 Zn0 2.938301 1_665
Ta3 Zn1 2.967565 1_555
Ta3 Zn3 2.967565 1_555
Ta3 Zn2 2.967570 1_655
Ta3 Zn2 2.967570 1_565
Ta3 Zn3 2.967574 1_655
Ta3 Zn1 2.967574 1_565
Ta4 Ta5 2.489018 1_555
Ta4 Zn4 2.808390 1_555
Ta4 Zn6 2.808390 1_555
Ta4 Zn5 2.808393 1_455
Ta4 Zn5 2.808393 1_545
Ta4 Zn4 2.808394 1_545
Ta4 Zn6 2.808394 1_455
Ta5 Zn3 2.808390 1_555
Ta5 Zn1 2.808390 1_555
Ta5 Zn2 2.808393 1_655
Ta5 Zn2 2.808393 1_565
Ta5 Zn1 2.808394 1_565
Ta5 Zn3 2.808394 1_655
Zn0 Zn2 2.528109 1_555
Zn0 Zn5 2.528109 1_444
Zn0 Zn3 2.528112 1_545
Zn0 Zn4 2.528112 1_544
Zn0 Zn6 2.528112 1_454
Zn0 Zn1 2.528112 1_455
Zn1 Zn2 2.472080 1_555
Zn1 Zn3 2.472081 1_555
Zn1 Zn2 2.550519 1_655
Zn1 Zn3 2.550520 1_645
Zn2 Zn3 2.472080 1_555
Zn2 Zn3 2.550519 1_545
Zn4 Zn5 2.472080 1_555
Zn4 Zn6 2.472081 1_555
Zn4 Zn5 2.550519 1_455
Zn4 Zn6 2.550520 1_465
Zn5 Zn6 2.472080 1_555
Zn5 Zn6 2.550519 1_565
