# generated using pymatgen
data_Li9Mn2Co5O16
_symmetry_space_group_name_H-M   'P 1'
_cell_length_a   3.01574500
_cell_length_b   5.99727170
_cell_length_c   16.10235076
_cell_angle_alpha   90.85310031
_cell_angle_beta   90.86356397
_cell_angle_gamma   94.43315543
_symmetry_Int_Tables_number   1
_chemical_formula_structural   Li9Mn2Co5O16
_chemical_formula_sum   'Li9 Mn2 Co5 O16'
_cell_volume   290.28907940
_cell_formula_units_Z   1
loop_
 _symmetry_equiv_pos_site_id
 _symmetry_equiv_pos_as_xyz
  1  'x, y, z'
loop_
 _atom_site_type_symbol
 _atom_site_label
 _atom_site_symmetry_multiplicity
 _atom_site_fract_x
 _atom_site_fract_y
 _atom_site_fract_z
 _atom_site_occupancy
  Li  Li0  1  0.00004600  0.50098300  0.99810700  1
  Li  Li1  1  0.49788100  0.74902800  0.12772100  1
  Li  Li2  1  0.99791500  0.99239400  0.25352700  1
  Li  Li3  1  0.49779100  0.25159800  0.87445400  1
  Li  Li4  1  0.99944300  0.99978500  0.75011500  1
  Li  Li5  1  0.50313700  0.75109500  0.62331500  1
  Li  Li6  1  0.00156400  0.50663200  0.49818800  1
  Li  Li7  1  0.50157300  0.24964200  0.37468100  1
  Li  Li8  1  0.50039600  0.75159800  0.37585500  1
  Mn  Mn0  1  0.00055800  0.99665300  0.99920600  1
  Mn  Mn1  1  0.49737600  0.25247600  0.12774300  1
  Co  Co0  1  0.99320400  0.51313700  0.25666700  1
  Co  Co1  1  0.00482300  0.99130200  0.49544200  1
  Co  Co2  1  0.49559800  0.25092600  0.62369800  1
  Co  Co3  1  0.99754600  0.49802400  0.74806200  1
  Co  Co4  1  0.50694900  0.74595700  0.87293900  1
  O  O0  1  0.52581400  0.75406200  0.99298800  1
  O  O1  1  0.02719700  0.00700800  0.12086700  1
  O  O2  1  0.52463200  0.26242200  0.24749400  1
  O  O3  1  0.02991800  0.51012800  0.86924600  1
  O  O4  1  0.48210900  0.25996600  0.74296700  1
  O  O5  1  0.02709100  0.01571600  0.61519700  1
  O  O6  1  0.52689100  0.77100800  0.50026800  1
  O  O7  1  0.00402800  0.49760100  0.36401500  1
  O  O8  1  0.46903400  0.24464000  0.00518200  1
  O  O9  1  0.97430300  0.49441600  0.13605600  1
  O  O10  1  0.47613900  0.73158000  0.25158300  1
  O  O11  1  0.97198100  0.98503400  0.87782900  1
  O  O12  1  0.51552100  0.73622400  0.75422200  1
  O  O13  1  0.97283900  0.48782000  0.62821500  1
  O  O14  1  0.47810500  0.23597000  0.50629800  1
  O  O15  1  0.99859900  0.00517500  0.38785200  1
loop_
_geom_bond_atom_site_label_1
_geom_bond_atom_site_label_2
_geom_bond_distance
_geom_bond_site_symmetry_2
Li0 O3 2.079630 1_555
Li0 O0 2.111909 1_555
Li0 O8 2.138000 1_456
Li0 O0 2.166003 1_455
Li0 O8 2.171020 1_556
Li0 O9 2.224657 1_456
Li1 O10 2.000563 1_555
Li1 O9 2.117216 1_455
Li1 O1 2.140712 1_665
Li1 O0 2.172989 1_554
Li1 O9 2.180235 1_555
Li1 O1 2.181898 1_565
Li2 O10 2.130778 1_555
Li2 O1 2.142109 1_665
Li2 O15 2.163129 1_565
Li2 O2 2.183304 1_665
Li2 O10 2.208212 1_655
Li2 O2 2.242100 1_565
Li3 O8 2.109020 1_556
Li3 O4 2.118493 1_555
Li3 O3 2.146984 1_655
Li3 O11 2.164815 1_445
Li3 O3 2.177244 1_555
Li3 O11 2.226505 1_545
Li4 O4 2.055739 1_665
Li4 O11 2.062348 1_555
Li4 O12 2.069308 1_555
Li4 O5 2.178585 1_665
Li4 O4 2.293111 1_565
Li4 O12 2.303343 1_655
Li5 O6 1.988750 1_555
Li5 O12 2.111013 1_555
Li5 O5 2.158046 1_665
Li5 O13 2.161940 1_455
Li5 O13 2.202685 1_555
Li5 O5 2.224736 1_565
Li6 O13 2.101183 1_455
Li6 O6 2.152533 1_555
Li6 O7 2.160512 1_555
Li6 O14 2.181827 1_455
Li6 O6 2.216969 1_455
Li6 O14 2.253566 1_555
Li7 O15 2.042180 1_455
Li7 O7 2.050381 1_655
Li7 O2 2.052607 1_555
Li7 O14 2.124181 1_555
Li7 O15 2.186470 1_555
Li7 O7 2.199337 1_555
Li8 O10 2.002780 1_555
Li8 O6 2.005020 1_555
Li8 O7 2.056154 1_555
Li8 O15 2.058326 1_565
Li8 O15 2.235162 1_465
Li8 O7 2.240834 1_655
Mn0 O11 1.955023 1_455
Mn0 O1 1.959327 1_566
Mn0 O0 1.961078 1_455
Mn0 O8 1.970784 1_566
Mn0 O0 2.234414 1_555
Mn0 O8 2.271455 1_466
Mn1 O2 1.928624 1_555
Mn1 O1 1.964108 1_555
Mn1 O9 1.964110 1_555
Mn1 O8 1.973785 1_555
Mn1 O9 2.228462 1_455
Mn1 O1 2.257552 1_655
Co0 O7 1.732402 1_655
Co0 O10 1.885714 1_655
Co0 O9 1.943417 1_555
Co0 O2 1.984467 1_555
Co0 O10 2.114153 1_555
Co0 O2 2.285649 1_655
Co1 O15 1.735574 1_465
Co1 O6 1.881747 1_455
Co1 O5 1.931476 1_565
Co1 O14 1.970254 1_565
Co1 O6 2.133367 1_555
Co1 O14 2.251192 1_465
Co2 O14 1.890956 1_555
Co2 O5 1.919680 1_555
Co2 O4 1.921602 1_555
Co2 O13 1.942369 1_555
Co2 O13 2.203573 1_455
Co2 O5 2.219932 1_655
Co3 O13 1.930010 1_555
Co3 O3 1.952306 1_655
Co3 O4 2.027532 1_555
Co3 O12 2.033919 1_655
Co3 O12 2.117756 1_555
Co3 O4 2.122065 1_655
Co4 O12 1.912270 1_555
Co4 O11 1.926459 1_555
Co4 O0 1.932828 1_555
Co4 O3 1.937478 1_555
Co4 O3 2.199181 1_655
Co4 O11 2.241184 1_455
