# generated using pymatgen
data_BaLiYCu2O5
_symmetry_space_group_name_H-M   'P 1'
_cell_length_a   3.84925621
_cell_length_b   3.84927021
_cell_length_c   9.97890300
_cell_angle_alpha   90.00394865
_cell_angle_beta   90.00250668
_cell_angle_gamma   89.96222212
_symmetry_Int_Tables_number   1
_chemical_formula_structural   BaLiYCu2O5
_chemical_formula_sum   'Ba1 Li1 Y1 Cu2 O5'
_cell_volume   147.85564957
_cell_formula_units_Z   1
loop_
 _symmetry_equiv_pos_site_id
 _symmetry_equiv_pos_as_xyz
  1  'x, y, z'
loop_
 _atom_site_type_symbol
 _atom_site_label
 _atom_site_symmetry_multiplicity
 _atom_site_fract_x
 _atom_site_fract_y
 _atom_site_fract_z
 _atom_site_occupancy
  Ba  Ba0  1  0.99998200  0.99996400  0.05950300  1
  Li  Li0  1  0.00001600  0.00003300  0.69231200  1
  Y  Y0  1  0.00000800  0.00001200  0.42769900  1
  Cu  Cu0  1  0.50000900  0.50002000  0.61805700  1
  Cu  Cu1  1  0.49999300  0.49998700  0.25406100  1
  O  O0  1  0.00001000  0.50001300  0.60265000  1
  O  O1  1  0.50000400  0.00002000  0.60264300  1
  O  O2  1  0.99999700  0.49999300  0.30117200  1
  O  O3  1  0.49999700  0.99999300  0.30116700  1
  O  O4  1  0.49997900  0.49996000  0.03698700  1
loop_
_geom_bond_atom_site_label_1
_geom_bond_atom_site_label_2
_geom_bond_distance
_geom_bond_site_symmetry_2
Ba0 O4 2.730202 1_655
Ba0 O4 2.730205 1_565
Ba0 O4 2.731991 1_665
Ba0 O4 2.731993 1_555
Li0 O0 2.122428 1_555
Li0 O0 2.122456 1_545
Li0 O1 2.122458 1_555
Li0 O1 2.122471 1_455
Cu0 O0 1.930749 1_555
Cu0 O1 1.930761 1_555
Cu0 O0 1.930770 1_655
Cu0 O1 1.930782 1_565
Cu1 O3 1.981198 1_555
Cu1 O2 1.981207 1_555
Cu1 O3 1.981216 1_545
Cu1 O2 1.981217 1_455
Cu1 O4 2.166160 1_555
O0 Y0 2.598395 1_555
O0 Y0 2.598567 1_565
O1 Y0 2.598361 1_555
O1 Y0 2.598497 1_655
O2 Y0 2.301810 1_665
O2 Y0 2.301833 1_655
O3 Y0 2.301832 1_665
O3 Y0 2.301853 1_565
