# generated using pymatgen
data_Ta2Ni3Ge
_symmetry_space_group_name_H-M   'P 1'
_cell_length_a   4.89334965
_cell_length_b   4.89334965
_cell_length_c   7.74251700
_cell_angle_alpha   90.00000000
_cell_angle_beta   90.00000000
_cell_angle_gamma   119.99999520
_symmetry_Int_Tables_number   1
_chemical_formula_structural   Ta2Ni3Ge
_chemical_formula_sum   'Ta4 Ni6 Ge2'
_cell_volume   160.55554808
_cell_formula_units_Z   2
loop_
 _symmetry_equiv_pos_site_id
 _symmetry_equiv_pos_as_xyz
  1  'x, y, z'
loop_
 _atom_site_type_symbol
 _atom_site_label
 _atom_site_symmetry_multiplicity
 _atom_site_fract_x
 _atom_site_fract_y
 _atom_site_fract_z
 _atom_site_occupancy
  Ta  Ta0  1  0.33333300  0.66666700  0.44156700  1
  Ta  Ta1  1  0.66666700  0.33333300  0.55843300  1
  Ta  Ta2  1  0.66666700  0.33333300  0.94156700  1
  Ta  Ta3  1  0.33333300  0.66666700  0.05843300  1
  Ni  Ni0  1  0.82855000  0.17145000  0.25000000  1
  Ni  Ni1  1  0.82855000  0.65709900  0.25000000  1
  Ni  Ni2  1  0.34290100  0.17145000  0.25000000  1
  Ni  Ni3  1  0.17145000  0.82855000  0.75000000  1
  Ni  Ni4  1  0.17145000  0.34290100  0.75000000  1
  Ni  Ni5  1  0.65709900  0.82855000  0.75000000  1
  Ge  Ge0  1  0.00000000  0.00000000  0.50000000  1
  Ge  Ge1  1  0.00000000  0.00000000  0.00000000  1
loop_
_geom_bond_atom_site_label_1
_geom_bond_atom_site_label_2
_geom_bond_distance
_geom_bond_site_symmetry_2
Ni0 Ni1 2.376450 1_555
Ni0 Ni2 2.376450 1_555
Ni0 Ni2 2.516899 1_655
Ni0 Ni1 2.516899 1_545
Ni0 Ta1 2.754138 1_555
Ni0 Ta2 2.754138 1_554
Ni0 Ta0 2.861429 1_545
Ni0 Ta3 2.861429 1_655
Ni0 Ta0 2.861429 1_655
Ni0 Ta3 2.861429 1_545
Ni1 Ni2 2.376451 1_555
Ni1 Ni2 2.516899 1_665
Ni1 Ta1 2.754138 1_555
Ni1 Ta2 2.754138 1_554
Ni1 Ta3 2.861425 1_655
Ni1 Ta0 2.861425 1_655
Ni1 Ta3 2.861433 1_555
Ni1 Ta0 2.861433 1_555
Ni2 Ta1 2.754138 1_555
Ni2 Ta2 2.754138 1_554
Ni2 Ta3 2.861425 1_545
Ni2 Ta0 2.861425 1_545
Ni2 Ta3 2.861433 1_555
Ni2 Ta0 2.861433 1_555
Ni3 Ni5 2.376450 1_555
Ni3 Ni4 2.376450 1_555
Ni3 Ni4 2.516899 1_565
Ni3 Ni5 2.516899 1_455
Ni3 Ta3 2.754138 1_556
Ni3 Ta0 2.754138 1_555
Ni3 Ta1 2.861429 1_455
Ni3 Ta2 2.861429 1_455
Ni3 Ta1 2.861429 1_565
Ni3 Ta2 2.861429 1_565
Ni4 Ni5 2.376451 1_555
Ni4 Ni5 2.516899 1_445
Ni4 Ta3 2.754138 1_556
Ni4 Ta0 2.754138 1_555
Ni4 Ta1 2.861425 1_455
Ni4 Ta2 2.861425 1_455
Ni4 Ta1 2.861433 1_555
Ni4 Ta2 2.861433 1_555
Ni5 Ta3 2.754138 1_556
Ni5 Ta0 2.754138 1_555
Ni5 Ta2 2.861425 1_565
Ni5 Ta1 2.861425 1_565
Ni5 Ta1 2.861433 1_555
Ni5 Ta2 2.861433 1_555
Ge0 Ni0 2.420381 1_455
Ge0 Ni3 2.420381 1_545
Ge0 Ni1 2.420384 1_445
Ge0 Ni4 2.420384 1_555
Ge0 Ni5 2.420384 1_445
Ge0 Ni2 2.420384 1_555
Ge0 Ta0 2.861169 1_545
Ge0 Ta1 2.861169 1_455
Ge0 Ta1 2.861174 1_555
Ge0 Ta0 2.861174 1_555
Ge0 Ta0 2.861174 1_445
Ge0 Ta1 2.861174 1_445
Ge1 Ni0 2.420381 1_455
Ge1 Ni3 2.420381 1_544
Ge1 Ni1 2.420384 1_445
Ge1 Ni5 2.420384 1_444
Ge1 Ni2 2.420384 1_555
Ge1 Ni4 2.420384 1_554
Ge1 Ta2 2.861169 1_454
Ge1 Ta3 2.861169 1_545
Ge1 Ta3 2.861174 1_555
Ge1 Ta2 2.861174 1_554
Ge1 Ta3 2.861174 1_445
Ge1 Ta2 2.861174 1_444
