# generated using pymatgen
data_Nb3AgTe4
_symmetry_space_group_name_H-M   'P 1'
_cell_length_a   9.82153851
_cell_length_b   9.82153851
_cell_length_c   4.69211700
_cell_angle_alpha   90.00000000
_cell_angle_beta   90.00000000
_cell_angle_gamma   120.00000343
_symmetry_Int_Tables_number   1
_chemical_formula_structural   Nb3AgTe4
_chemical_formula_sum   'Nb6 Ag2 Te8'
_cell_volume   391.97511589
_cell_formula_units_Z   2
loop_
 _symmetry_equiv_pos_site_id
 _symmetry_equiv_pos_as_xyz
  1  'x, y, z'
loop_
 _atom_site_type_symbol
 _atom_site_label
 _atom_site_symmetry_multiplicity
 _atom_site_fract_x
 _atom_site_fract_y
 _atom_site_fract_z
 _atom_site_occupancy
  Nb  Nb0  1  0.64011200  0.49213100  0.25000000  1
  Nb  Nb1  1  0.85201800  0.35988800  0.25000000  1
  Nb  Nb2  1  0.50786900  0.14798200  0.25000000  1
  Nb  Nb3  1  0.35988800  0.50786900  0.75000000  1
  Nb  Nb4  1  0.14798200  0.64011200  0.75000000  1
  Nb  Nb5  1  0.49213100  0.85201800  0.75000000  1
  Ag  Ag0  1  0.00000000  0.00000000  0.50000000  1
  Ag  Ag1  1  0.00000000  0.00000000  0.00000000  1
  Te  Te0  1  0.33333300  0.66666700  0.25000000  1
  Te  Te1  1  0.66666700  0.33333300  0.75000000  1
  Te  Te2  1  0.99001900  0.69039200  0.25000000  1
  Te  Te3  1  0.70037300  0.00998100  0.25000000  1
  Te  Te4  1  0.30960800  0.29962700  0.25000000  1
  Te  Te5  1  0.00998100  0.30960800  0.75000000  1
  Te  Te6  1  0.29962700  0.99001900  0.75000000  1
  Te  Te7  1  0.69039200  0.70037300  0.75000000  1
loop_
_geom_bond_atom_site_label_1
_geom_bond_atom_site_label_2
_geom_bond_distance
_geom_bond_site_symmetry_2
Nb0 Te4 2.823882 1_555
Nb0 Te1 2.900218 1_554
Nb0 Te1 2.900218 1_555
Nb0 Te2 2.984995 1_555
Nb0 Te7 2.986792 1_554
Nb0 Te7 2.986792 1_555
Nb1 Te2 2.823881 1_555
Nb1 Te1 2.900206 1_554
Nb1 Te1 2.900206 1_555
Nb1 Te3 2.984996 1_555
Nb1 Te5 2.986798 1_655
Nb1 Te5 2.986798 1_654
Nb2 Te3 2.823890 1_555
Nb2 Te1 2.900211 1_555
Nb2 Te1 2.900211 1_554
Nb2 Te4 2.984987 1_555
Nb2 Te6 2.986794 1_545
Nb2 Te6 2.986794 1_544
Nb3 Te7 2.823882 1_555
Nb3 Te0 2.900218 1_555
Nb3 Te0 2.900218 1_556
Nb3 Te5 2.984995 1_555
Nb3 Te4 2.986792 1_556
Nb3 Te4 2.986792 1_555
Nb4 Te5 2.823881 1_555
Nb4 Te0 2.900206 1_556
Nb4 Te0 2.900206 1_555
Nb4 Te6 2.984996 1_555
Nb4 Te2 2.986798 1_455
Nb4 Te2 2.986798 1_456
Nb5 Te6 2.823890 1_555
Nb5 Te0 2.900211 1_556
Nb5 Te0 2.900211 1_555
Nb5 Te7 2.984987 1_555
Nb5 Te3 2.986794 1_565
Nb5 Te3 2.986794 1_566
Ag0 Ag1 2.346058 1_556
Ag0 Ag1 2.346058 1_555
Ag0 Te7 3.214677 1_445
Ag0 Te4 3.214677 1_555
Ag0 Te5 3.214677 1_555
Ag0 Te2 3.214677 1_445
Ag0 Te6 3.214677 1_545
Ag0 Te3 3.214677 1_455
Ag1 Te4 3.214677 1_555
Ag1 Te7 3.214677 1_444
Ag1 Te5 3.214677 1_554
Ag1 Te2 3.214677 1_445
Ag1 Te6 3.214677 1_544
Ag1 Te3 3.214677 1_455
