# generated using pymatgen
data_Mg2CuAs2
_symmetry_space_group_name_H-M   'P 1'
_cell_length_a   9.96088194
_cell_length_b   9.96088194
_cell_length_c   31.26633377
_cell_angle_alpha   90.00000000
_cell_angle_beta   90.00000000
_cell_angle_gamma   90.00000000
_symmetry_Int_Tables_number   1
_chemical_formula_structural   Mg2CuAs2
_chemical_formula_sum   'Mg2 Cu1 As2'
_cell_volume   3102.21965504
_cell_formula_units_Z   1
loop_
 _symmetry_equiv_pos_site_id
 _symmetry_equiv_pos_as_xyz
  1  'x, y, z'
loop_
 _atom_site_type_symbol
 _atom_site_label
 _atom_site_symmetry_multiplicity
 _atom_site_fract_x
 _atom_site_fract_y
 _atom_site_fract_z
 _atom_site_occupancy
  Mg  Mg0  1  0.50000000  0.50000000  0.25008453  1
  Mg  Mg1  1  0.50000000  0.50000000  0.74991547  1
  Cu  Cu0  1  0.50000000  0.50000000  0.00000000  1
  As  As0  1  0.50000000  0.50000000  0.66510691  1
  As  As1  1  0.50000000  0.50000000  0.33489309  1
loop_
_geom_bond_atom_site_label_1
_geom_bond_atom_site_label_2
_geom_bond_distance
_geom_bond_site_symmetry_2
As0 Mg1 2.651653 1_555
As1 Mg0 2.651653 1_555
