# generated using pymatgen
data_Li2Si2NiO6
_symmetry_space_group_name_H-M   'P 1'
_cell_length_a   5.58344149
_cell_length_b   5.57500503
_cell_length_c   18.80299627
_cell_angle_alpha   90.79371163
_cell_angle_beta   88.99916756
_cell_angle_gamma   62.74932020
_symmetry_Int_Tables_number   1
_chemical_formula_structural   Li2Si2NiO6
_chemical_formula_sum   'Li8 Si8 Ni4 O24'
_cell_volume   520.09689143
_cell_formula_units_Z   4
loop_
 _symmetry_equiv_pos_site_id
 _symmetry_equiv_pos_as_xyz
  1  'x, y, z'
loop_
 _atom_site_type_symbol
 _atom_site_label
 _atom_site_symmetry_multiplicity
 _atom_site_fract_x
 _atom_site_fract_y
 _atom_site_fract_z
 _atom_site_occupancy
  Li  Li0  1  0.60450800  0.73985900  0.44138900  1
  Li  Li1  1  0.60193100  0.73928100  0.93999900  1
  Li  Li2  1  0.26059300  0.39617400  0.19131500  1
  Li  Li3  1  0.26038700  0.39648800  0.69068100  1
  Li  Li4  1  0.73947400  0.60432400  0.30931100  1
  Li  Li5  1  0.73571600  0.60382900  0.80899400  1
  Li  Li6  1  0.39739000  0.26162200  0.05983800  1
  Li  Li7  1  0.39512200  0.26377300  0.55919100  1
  Si  Si0  1  0.14083700  0.80313500  0.31635300  1
  Si  Si1  1  0.13751700  0.80141800  0.81591100  1
  Si  Si2  1  0.19687400  0.86145800  0.06587500  1
  Si  Si3  1  0.19889400  0.86001400  0.56642100  1
  Si  Si4  1  0.80658800  0.13935400  0.43398900  1
  Si  Si5  1  0.80291700  0.13911700  0.93348000  1
  Si  Si6  1  0.86118300  0.19563400  0.18384500  1
  Si  Si7  1  0.85986200  0.19527500  0.68338000  1
  Ni  Ni0  1  0.25160100  0.25850500  0.87658500  1
  Ni  Ni1  1  0.74061500  0.74845300  0.62673500  1
  Ni  Ni2  1  0.25607500  0.25806300  0.37612200  1
  Ni  Ni3  1  0.74483400  0.74220000  0.12457100  1
  O  O0  1  0.88708800  0.88343300  0.37556600  1
  O  O1  1  0.88496600  0.88128600  0.87564900  1
  O  O2  1  0.11593400  0.11567600  0.12484800  1
  O  O3  1  0.11865300  0.11333400  0.62584000  1
  O  O4  1  0.00014000  0.99767200  0.24980200  1
  O  O5  1  0.99252200  0.99180200  0.74893100  1
  O  O6  1  0.00249900  0.00363700  0.99940400  1
  O  O7  1  0.00869000  0.00257500  0.49935300  1
  O  O8  1  0.37365500  0.86738200  0.34991200  1
  O  O9  1  0.36920300  0.86905600  0.84884200  1
  O  O10  1  0.13488100  0.62720200  0.09989900  1
  O  O11  1  0.13042600  0.62867000  0.59966100  1
  O  O12  1  0.86428400  0.37494600  0.39904600  1
  O  O13  1  0.85968700  0.37439300  0.89805300  1
  O  O14  1  0.62736200  0.13401000  0.14974500  1
  O  O15  1  0.62462800  0.14077100  0.64756800  1
  O  O16  1  0.23318500  0.48944400  0.29403800  1
  O  O17  1  0.23258300  0.48670200  0.79427300  1
  O  O18  1  0.50990400  0.76773900  0.04305100  1
  O  O19  1  0.51328300  0.76475900  0.54479900  1
  O  O20  1  0.49467300  0.22990900  0.45723000  1
  O  O21  1  0.49108200  0.23199700  0.95696000  1
  O  O22  1  0.77018000  0.50878600  0.20646000  1
  O  O23  1  0.76757500  0.50684200  0.70708800  1
loop_
_geom_bond_atom_site_label_1
_geom_bond_atom_site_label_2
_geom_bond_distance
_geom_bond_site_symmetry_2
Li0 O19 1.988125 1_555
Li0 O12 2.022126 1_555
Li0 O8 2.097029 1_555
Li0 O0 2.403665 1_555
Li0 O20 2.523006 1_565
Li1 O18 1.981380 1_556
Li1 O13 2.016510 1_555
Li1 O9 2.097868 1_555
Li1 O1 2.386131 1_555
Li1 O21 2.538135 1_565
Li2 O16 1.978249 1_555
Li2 O14 2.027869 1_555
Li2 O10 2.093265 1_555
Li2 O2 2.407801 1_555
Li2 O22 2.523187 1_455
Li3 O17 1.990459 1_555
Li3 O15 2.020113 1_555
Li3 O11 2.091821 1_555
Li3 O3 2.393542 1_555
Li3 O23 2.541602 1_455
Li4 O22 1.982255 1_555
Li4 O8 2.019122 1_555
Li4 O12 2.062189 1_555
Li4 O0 2.410218 1_555
Li4 O16 2.538111 1_655
Li5 O23 1.966442 1_555
Li5 O9 2.019966 1_555
Li5 O13 2.051456 1_555
Li5 O1 2.412698 1_555
Li5 O17 2.551191 1_655
Li6 O21 1.979791 1_554
Li6 O10 2.013168 1_555
Li6 O14 2.070106 1_555
Li6 O2 2.399422 1_555
Li6 O18 2.541744 1_545
Li7 O20 1.968958 1_555
Li7 O11 2.016486 1_555
Li7 O15 2.043276 1_555
Li7 O3 2.409133 1_555
Li7 O19 2.557370 1_545
Ni0 O17 1.990417 1_555
Ni0 O21 1.997392 1_555
Ni0 O13 2.008965 1_455
Ni0 O9 2.017025 1_545
Ni1 O19 1.989844 1_555
Ni1 O23 1.999604 1_555
Ni1 O15 2.006702 1_565
Ni1 O11 2.015702 1_655
Ni2 O16 1.993374 1_555
Ni2 O20 2.002837 1_555
Ni2 O12 2.012372 1_455
Ni2 O8 2.016749 1_545
Ni3 O22 1.994669 1_555
Ni3 O18 1.998917 1_555
Ni3 O10 2.011696 1_655
Ni3 O14 2.018438 1_565
O0 Si4 1.672272 1_565
O0 Si0 1.672599 1_655
O1 Si5 1.671737 1_565
O1 Si1 1.674569 1_655
O2 Si2 1.671789 1_545
O2 Si6 1.674222 1_455
O3 Si7 1.671623 1_455
O3 Si3 1.674166 1_545
O4 Si6 1.626479 1_465
O4 Si0 1.628182 1_555
O5 Si1 1.629069 1_655
O5 Si7 1.629659 1_565
O6 Si5 1.628561 1_455
O6 Si2 1.629512 1_546
O7 Si3 1.628319 1_545
O7 Si4 1.628426 1_455
O8 Si0 1.632498 1_555
O9 Si1 1.633168 1_555
O10 Si2 1.632192 1_555
O11 Si3 1.632707 1_555
O12 Si4 1.632343 1_555
O13 Si5 1.631638 1_555
O14 Si6 1.633224 1_555
O15 Si7 1.631419 1_555
O16 Si0 1.626855 1_555
O17 Si1 1.626505 1_555
O18 Si2 1.625802 1_555
O19 Si3 1.626055 1_555
O20 Si4 1.625118 1_555
O21 Si5 1.623486 1_555
O22 Si6 1.626785 1_555
O23 Si7 1.622418 1_555
