# generated using pymatgen
data_Pr2Re3Si5
_symmetry_space_group_name_H-M   'P 1'
_cell_length_a   11.00231355
_cell_length_b   11.00231355
_cell_length_c   5.78067399
_cell_angle_alpha   90.00000000
_cell_angle_beta   90.00000000
_cell_angle_gamma   90.00000000
_symmetry_Int_Tables_number   1
_chemical_formula_structural   Pr2Re3Si5
_chemical_formula_sum   'Pr8 Re12 Si20'
_cell_volume   699.75580905
_cell_formula_units_Z   4
loop_
 _symmetry_equiv_pos_site_id
 _symmetry_equiv_pos_as_xyz
  1  'x, y, z'
loop_
 _atom_site_type_symbol
 _atom_site_label
 _atom_site_symmetry_multiplicity
 _atom_site_fract_x
 _atom_site_fract_y
 _atom_site_fract_z
 _atom_site_occupancy
  Pr  Pr0  1  0.57751501  0.73616153  0.50000000  1
  Pr  Pr1  1  0.42248499  0.26383847  0.50000000  1
  Pr  Pr2  1  0.07751501  0.76383847  -0.00000000  1
  Pr  Pr3  1  0.92248499  0.23616153  -0.00000000  1
  Pr  Pr4  1  0.26383847  0.57751501  0.50000000  1
  Pr  Pr5  1  0.73616153  0.42248499  0.50000000  1
  Pr  Pr6  1  0.23616153  0.07751501  -0.00000000  1
  Pr  Pr7  1  0.76383847  0.92248499  -0.00000000  1
  Re  Re0  1  0.87348341  0.85059688  0.50000000  1
  Re  Re1  1  0.12651659  0.14940312  0.50000000  1
  Re  Re2  1  0.37348341  0.64940312  -0.00000000  1
  Re  Re3  1  0.62651659  0.35059688  -0.00000000  1
  Re  Re4  1  0.14940312  0.87348341  0.50000000  1
  Re  Re5  1  0.85059688  0.12651659  0.50000000  1
  Re  Re6  1  0.35059688  0.37348341  -0.00000000  1
  Re  Re7  1  0.64940312  0.62651659  -0.00000000  1
  Re  Re8  1  0.50000000  0.00000000  0.25000000  1
  Re  Re9  1  0.00000000  0.50000000  0.75000000  1
  Re  Re10  1  0.00000000  0.50000000  0.25000000  1
  Re  Re11  1  0.50000000  0.00000000  0.75000000  1
  Si  Si0  1  0.67098731  0.17098731  0.25000000  1
  Si  Si1  1  0.32901269  0.82901269  0.25000000  1
  Si  Si2  1  0.17098731  0.32901269  0.75000000  1
  Si  Si3  1  0.82901269  0.67098731  0.75000000  1
  Si  Si4  1  0.82901269  0.67098731  0.25000000  1
  Si  Si5  1  0.17098731  0.32901269  0.25000000  1
  Si  Si6  1  0.67098731  0.17098731  0.75000000  1
  Si  Si7  1  0.32901269  0.82901269  0.75000000  1
  Si  Si8  1  0.50000000  0.50000000  0.22535533  1
  Si  Si9  1  0.00000000  0.00000000  0.72535533  1
  Si  Si10  1  0.50000000  0.50000000  0.77464467  1
  Si  Si11  1  0.00000000  0.00000000  0.27464467  1
  Si  Si12  1  0.68243541  0.97844295  0.50000000  1
  Si  Si13  1  0.31756459  0.02155705  0.50000000  1
  Si  Si14  1  0.18243541  0.52155705  -0.00000000  1
  Si  Si15  1  0.81756459  0.47844295  -0.00000000  1
  Si  Si16  1  0.02155705  0.68243541  0.50000000  1
  Si  Si17  1  0.97844295  0.31756459  0.50000000  1
  Si  Si18  1  0.47844295  0.18243541  -0.00000000  1
  Si  Si19  1  0.52155705  0.81756459  -0.00000000  1
loop_
_geom_bond_atom_site_label_1
_geom_bond_atom_site_label_2
_geom_bond_distance
_geom_bond_site_symmetry_2
Pr0 Si12 2.904873 1_555
Pr0 Si19 3.087917 1_556
Pr0 Si19 3.087917 1_555
Pr0 Si10 3.162151 1_555
Pr0 Si8 3.162151 1_555
Pr0 Si3 3.203014 1_555
Pr0 Si4 3.203014 1_555
Pr0 Re7 3.230310 1_555
Pr0 Re7 3.230310 1_556
Pr0 Si7 3.256906 1_555
Pr0 Si1 3.256906 1_555
Pr0 Re8 3.352954 1_565
Pr0 Re11 3.352954 1_565
Pr1 Si13 2.904873 1_555
Pr1 Si18 3.087917 1_555
Pr1 Si18 3.087917 1_556
Pr1 Si10 3.162151 1_555
Pr1 Si8 3.162151 1_555
Pr1 Si2 3.203014 1_555
Pr1 Si5 3.203014 1_555
Pr1 Re6 3.230310 1_555
Pr1 Re6 3.230310 1_556
Pr1 Si6 3.256906 1_555
Pr1 Si0 3.256906 1_555
Pr1 Re11 3.352954 1_555
Pr1 Re8 3.352954 1_555
Pr2 Si14 2.904873 1_555
Pr2 Si16 3.087917 1_555
Pr2 Si16 3.087917 1_554
Pr2 Si9 3.162151 1_564
Pr2 Si11 3.162151 1_565
Pr2 Si7 3.203014 1_554
Pr2 Si1 3.203014 1_555
Pr2 Re4 3.230310 1_554
Pr2 Re4 3.230310 1_555
Pr2 Si3 3.256906 1_454
Pr2 Si4 3.256906 1_455
Pr2 Re9 3.352954 1_554
Pr2 Re10 3.352954 1_555
Pr3 Si15 2.904873 1_555
Pr3 Si17 3.087917 1_554
Pr3 Si17 3.087917 1_555
Pr3 Si11 3.162151 1_655
Pr3 Si9 3.162151 1_654
Pr3 Si0 3.203014 1_555
Pr3 Si6 3.203014 1_554
Pr3 Re5 3.230310 1_554
Pr3 Re5 3.230310 1_555
Pr3 Si2 3.256906 1_654
Pr3 Si5 3.256906 1_655
Pr3 Re10 3.352954 1_655
Pr3 Re9 3.352954 1_654
Pr4 Si16 2.904873 1_555
Pr4 Si14 3.087917 1_556
Pr4 Si14 3.087917 1_555
Pr4 Si10 3.162151 1_555
Pr4 Si8 3.162151 1_555
Pr4 Si1 3.203014 1_555
Pr4 Si7 3.203014 1_555
Pr4 Re2 3.230310 1_556
Pr4 Re2 3.230310 1_555
Pr4 Si5 3.256906 1_555
Pr4 Si2 3.256906 1_555
Pr4 Re9 3.352954 1_555
Pr4 Re10 3.352954 1_555
Pr5 Si17 2.904873 1_555
Pr5 Si15 3.087917 1_556
Pr5 Si15 3.087917 1_555
Pr5 Si10 3.162151 1_555
Pr5 Si8 3.162151 1_555
Pr5 Si6 3.203014 1_555
Pr5 Si0 3.203014 1_555
Pr5 Re3 3.230310 1_556
Pr5 Re3 3.230310 1_555
Pr5 Si3 3.256906 1_555
Pr5 Si4 3.256906 1_555
Pr5 Re9 3.352954 1_655
Pr5 Re10 3.352954 1_655
Pr6 Si18 2.904873 1_555
Pr6 Si13 3.087917 1_554
Pr6 Si13 3.087917 1_555
Pr6 Si11 3.162151 1_555
Pr6 Si9 3.162151 1_554
Pr6 Si2 3.203014 1_554
Pr6 Si5 3.203014 1_555
Pr6 Re1 3.230310 1_555
Pr6 Re1 3.230310 1_554
Pr6 Si1 3.256906 1_545
Pr6 Si7 3.256906 1_544
Pr6 Re11 3.352954 1_554
Pr6 Re8 3.352954 1_555
Pr7 Si19 2.904873 1_555
Pr7 Si12 3.087917 1_555
Pr7 Si12 3.087917 1_554
Pr7 Si9 3.162151 1_664
Pr7 Si11 3.162151 1_665
Pr7 Si3 3.203014 1_554
Pr7 Si4 3.203014 1_555
Pr7 Re0 3.230310 1_555
Pr7 Re0 3.230310 1_554
Pr7 Si6 3.256906 1_564
Pr7 Si0 3.256906 1_565
Pr7 Re11 3.352954 1_564
Pr7 Re8 3.352954 1_565
Re0 Si16 2.465208 1_655
Re0 Si3 2.496590 1_555
Re0 Si4 2.496590 1_555
Re0 Si9 2.517270 1_665
Re0 Si11 2.517270 1_665
Re0 Si12 2.529191 1_555
Re1 Si17 2.465208 1_455
Re1 Si5 2.496590 1_555
Re1 Si2 2.496590 1_555
Re1 Si9 2.517270 1_555
Re1 Si11 2.517270 1_555
Re1 Si13 2.529191 1_555
Re2 Si19 2.465208 1_555
Re2 Si1 2.496590 1_555
Re2 Si7 2.496590 1_554
Re2 Si8 2.517270 1_555
Re2 Si10 2.517270 1_554
Re2 Si14 2.529191 1_555
Re3 Si18 2.465208 1_555
Re3 Si0 2.496590 1_555
Re3 Si6 2.496590 1_554
Re3 Si8 2.517270 1_555
Re3 Si10 2.517270 1_554
Re3 Si15 2.529191 1_555
Re4 Si13 2.465208 1_565
Re4 Si1 2.496590 1_555
Re4 Si7 2.496590 1_555
Re4 Si9 2.517270 1_565
Re4 Si11 2.517270 1_565
Re4 Si16 2.529191 1_555
Re5 Si12 2.465208 1_545
Re5 Si6 2.496590 1_555
Re5 Si0 2.496590 1_555
Re5 Si9 2.517270 1_655
Re5 Si11 2.517270 1_655
Re5 Si17 2.529191 1_555
Re6 Si14 2.465208 1_555
Re6 Si2 2.496590 1_554
Re6 Si5 2.496590 1_555
Re6 Si8 2.517270 1_555
Re6 Si10 2.517270 1_554
Re6 Si18 2.529191 1_555
Re7 Si15 2.465208 1_555
Re7 Si4 2.496590 1_555
Re7 Si3 2.496590 1_554
Re7 Si8 2.517270 1_555
Re7 Si10 2.517270 1_554
Re7 Si19 2.529191 1_555
Re8 Si19 2.484686 1_545
Re8 Si18 2.484686 1_555
Re8 Si12 2.484686 1_545
Re8 Si13 2.484686 1_555
Re8 Si0 2.660498 1_555
Re8 Si1 2.660498 1_545
Re9 Si16 2.484686 1_555
Re9 Si15 2.484686 1_456
Re9 Si14 2.484686 1_556
Re9 Si17 2.484686 1_455
Re9 Si2 2.660498 1_555
Re9 Si3 2.660498 1_455
Re10 Si16 2.484686 1_555
Re10 Si14 2.484686 1_555
Re10 Si15 2.484686 1_455
Re10 Si17 2.484686 1_455
Re10 Si4 2.660498 1_455
Re10 Si5 2.660498 1_555
Re10 Re9 2.890337 1_555
Re10 Re9 2.890337 1_554
Re11 Si18 2.484686 1_556
Re11 Si19 2.484686 1_546
Re11 Si12 2.484686 1_545
Re11 Si13 2.484686 1_555
Re11 Si6 2.660498 1_555
Re11 Si7 2.660498 1_545
Re11 Re8 2.890337 1_555
Re11 Re8 2.890337 1_556
Si0 Si18 2.567516 1_555
Si0 Si12 2.567516 1_545
Si0 Si6 2.890337 1_555
Si0 Si6 2.890337 1_554
Si1 Si19 2.567516 1_555
Si1 Si13 2.567516 1_565
Si1 Si7 2.890337 1_555
Si1 Si7 2.890337 1_554
Si2 Si5 2.890337 1_555
Si2 Si5 2.890337 1_556
Si3 Si4 2.890337 1_555
Si3 Si4 2.890337 1_556
Si10 Si8 2.605411 1_556
Si11 Si9 2.605411 1_555
Si12 Si6 2.567516 1_565
Si13 Si7 2.567516 1_545
Si14 Si2 2.567516 1_554
Si14 Si5 2.567516 1_555
Si15 Si4 2.567516 1_555
Si15 Si3 2.567516 1_554
Si16 Si4 2.567516 1_455
Si16 Si3 2.567516 1_455
Si17 Si2 2.567516 1_655
Si17 Si5 2.567516 1_655
Si18 Si6 2.567516 1_554
Si19 Si7 2.567516 1_554
