# generated using pymatgen
data_CsSrCl3
_symmetry_space_group_name_H-M   'P 1'
_cell_length_a   5.67525734
_cell_length_b   5.67525734
_cell_length_c   5.67435352
_cell_angle_alpha   89.90271566
_cell_angle_beta   89.90271566
_cell_angle_gamma   90.10731875
_symmetry_Int_Tables_number   1
_chemical_formula_structural   CsSrCl3
_chemical_formula_sum   'Cs1 Sr1 Cl3'
_cell_volume   182.76182732
_cell_formula_units_Z   1
loop_
 _symmetry_equiv_pos_site_id
 _symmetry_equiv_pos_as_xyz
  1  'x, y, z'
loop_
 _atom_site_type_symbol
 _atom_site_label
 _atom_site_symmetry_multiplicity
 _atom_site_fract_x
 _atom_site_fract_y
 _atom_site_fract_z
 _atom_site_occupancy
  Cs  Cs0  1  0.99798471  0.99798471  0.00407787  1
  Sr  Sr0  1  0.49990191  0.49990191  0.51271778  1
  Cl  Cl0  1  0.00001663  0.49587119  0.51722699  1
  Cl  Cl1  1  0.50694555  0.50694555  0.01312137  1
  Cl  Cl2  1  0.49587119  0.00001663  0.51722699  1
loop_
_geom_bond_atom_site_label_1
_geom_bond_atom_site_label_2
_geom_bond_distance
_geom_bond_site_symmetry_2
Cl0 Sr0 2.837099 1_555
Cl0 Sr0 2.838573 1_455
Cl0 Cs0 3.948337 1_446
Cl0 Cs0 3.972278 1_456
Cl0 Cs0 4.060885 1_445
Cl0 Cs0 4.070757 1_455
Cl1 Sr0 2.835313 1_555
Cl1 Sr0 2.840164 1_554
Cl1 Cs0 3.937611 1_555
Cl1 Cs0 4.017742 1_545
Cl1 Cs0 4.017742 1_455
Cl1 Cs0 4.081551 1_445
Cl2 Sr0 2.837099 1_555
Cl2 Sr0 2.838573 1_545
Cl2 Cs0 3.948337 1_446
Cl2 Cs0 3.972278 1_546
Cl2 Cs0 4.060885 1_445
Cl2 Cs0 4.070757 1_545
