# generated using pymatgen
data_SrH4Ir(OF3)2
_symmetry_space_group_name_H-M   'P 1'
_cell_length_a   6.23299100
_cell_length_b   10.17852100
_cell_length_c   12.08229871
_cell_angle_alpha   90.00000000
_cell_angle_beta   111.76407860
_cell_angle_gamma   90.00000000
_symmetry_Int_Tables_number   1
_chemical_formula_structural   SrH4Ir(OF3)2
_chemical_formula_sum   'Sr4 H16 Ir4 O8 F24'
_cell_volume   711.89317473
_cell_formula_units_Z   4
loop_
 _symmetry_equiv_pos_site_id
 _symmetry_equiv_pos_as_xyz
  1  'x, y, z'
loop_
 _atom_site_type_symbol
 _atom_site_label
 _atom_site_symmetry_multiplicity
 _atom_site_fract_x
 _atom_site_fract_y
 _atom_site_fract_z
 _atom_site_occupancy
  Sr  Sr0  1  0.79296300  0.31306700  0.95067400  1
  Sr  Sr1  1  0.79296300  0.18693300  0.45067400  1
  Sr  Sr2  1  0.20703700  0.68693300  0.04932600  1
  Sr  Sr3  1  0.20703700  0.81306700  0.54932600  1
  H  H0  1  0.34737600  0.15313100  0.94529000  1
  H  H1  1  0.34737600  0.34686900  0.44529000  1
  H  H2  1  0.65262400  0.84686900  0.05471000  1
  H  H3  1  0.65262400  0.65313100  0.55471000  1
  H  H4  1  0.32996800  0.37399400  0.07742400  1
  H  H5  1  0.32996800  0.12600600  0.57742400  1
  H  H6  1  0.67003200  0.62600600  0.92257600  1
  H  H7  1  0.67003200  0.87399400  0.42257600  1
  H  H8  1  0.22153800  0.40994000  0.17207100  1
  H  H9  1  0.22153800  0.09006000  0.67207100  1
  H  H10  1  0.77846200  0.59006000  0.82792900  1
  H  H11  1  0.77846200  0.90994000  0.32792900  1
  H  H12  1  0.53671100  0.13392900  0.07254900  1
  H  H13  1  0.53671100  0.36607100  0.57254900  1
  H  H14  1  0.46328900  0.86607100  0.92745100  1
  H  H15  1  0.46328900  0.63392900  0.42745100  1
  Ir  Ir0  1  0.86016900  0.96471200  0.76445700  1
  Ir  Ir1  1  0.86016900  0.53528800  0.26445700  1
  Ir  Ir2  1  0.13983100  0.03528800  0.23554300  1
  Ir  Ir3  1  0.13983100  0.46471200  0.73554300  1
  O  O0  1  0.47307000  0.19854000  0.00862400  1
  O  O1  1  0.47307000  0.30146000  0.50862400  1
  O  O2  1  0.52693000  0.80146000  0.99137600  1
  O  O3  1  0.52693000  0.69854000  0.49137600  1
  O  O4  1  0.20319300  0.42253800  0.08795800  1
  O  O5  1  0.20319300  0.07746200  0.58795800  1
  O  O6  1  0.79680700  0.57746200  0.91204200  1
  O  O7  1  0.79680700  0.92253800  0.41204200  1
  F  F0  1  0.57357400  0.85844900  0.71629700  1
  F  F1  1  0.57357400  0.64155100  0.21629700  1
  F  F2  1  0.42642600  0.14155100  0.28370300  1
  F  F3  1  0.42642600  0.35844900  0.78370300  1
  F  F4  1  0.72151000  0.09082400  0.84022800  1
  F  F5  1  0.72151000  0.40917600  0.34022800  1
  F  F6  1  0.27849000  0.90917600  0.15977200  1
  F  F7  1  0.27849000  0.59082400  0.65977200  1
  F  F8  1  0.15232100  0.06641600  0.81229200  1
  F  F9  1  0.15232100  0.43358400  0.31229200  1
  F  F10  1  0.84767900  0.93358400  0.18770800  1
  F  F11  1  0.84767900  0.56641600  0.68770800  1
  F  F12  1  0.99850100  0.83996400  0.68633600  1
  F  F13  1  0.99850100  0.66003600  0.18633600  1
  F  F14  1  0.00149900  0.16003600  0.31366400  1
  F  F15  1  0.00149900  0.33996400  0.81366400  1
  F  F16  1  0.72821000  0.06615500  0.61550100  1
  F  F17  1  0.72821000  0.43384500  0.11550100  1
  F  F18  1  0.27179000  0.93384500  0.38449900  1
  F  F19  1  0.27179000  0.56615500  0.88449900  1
  F  F20  1  0.98551300  0.85996200  0.91042000  1
  F  F21  1  0.98551300  0.64003800  0.41042000  1
  F  F22  1  0.01448700  0.14003800  0.08958000  1
  F  F23  1  0.01448700  0.35996200  0.58958000  1
loop_
_geom_bond_atom_site_label_1
_geom_bond_atom_site_label_2
_geom_bond_distance
_geom_bond_site_symmetry_2
H0 O0 0.984073 1_556
H1 O1 0.984073 1_555
H2 O2 0.984073 1_554
H3 O3 0.984073 1_555
H4 O4 0.979447 1_555
H5 O5 0.979447 1_555
H6 O6 0.979447 1_555
H7 O7 0.979447 1_555
H8 O4 0.988010 1_555
H9 O5 0.988010 1_555
H10 O6 0.988010 1_555
H11 O7 0.988010 1_555
H12 O0 0.979382 1_555
H13 O1 0.979382 1_555
H14 O2 0.979382 1_555
H15 O3 0.979382 1_555
O0 Sr0 2.619161 1_554
O1 Sr1 2.619161 1_555
O2 Sr2 2.619161 1_556
O3 Sr3 2.619161 1_555
O4 Sr0 2.717669 1_454
O4 Sr2 2.732952 1_555
O5 Sr1 2.717669 1_455
O5 Sr3 2.732952 1_545
O6 Sr2 2.717669 1_656
O6 Sr0 2.732952 1_555
O7 Sr3 2.717669 1_655
O7 Sr1 2.732952 1_565
F0 Ir0 1.982082 1_555
F0 Sr3 2.466750 1_555
F1 Ir1 1.982082 1_555
F1 Sr2 2.466750 1_555
F2 Ir2 1.982082 1_555
F2 Sr1 2.466750 1_555
F3 Ir3 1.982082 1_555
F3 Sr0 2.466750 1_555
F4 Ir0 1.954361 1_545
F4 Sr0 2.579821 1_555
F5 Ir1 1.954361 1_555
F5 Sr1 2.579821 1_555
F6 Ir2 1.954361 1_565
F6 Sr2 2.579821 1_555
F7 Ir3 1.954361 1_555
F7 Sr3 2.579821 1_555
F8 Ir0 1.985238 1_445
F9 Ir1 1.985238 1_455
F10 Ir2 1.985238 1_665
F11 Ir3 1.985238 1_655
F12 Ir0 1.962173 1_555
F12 Sr3 2.469900 1_655
F13 Ir1 1.962173 1_555
F13 Sr2 2.469900 1_655
F14 Ir2 1.962173 1_555
F14 Sr1 2.469900 1_455
F15 Ir3 1.962173 1_555
F15 Sr0 2.469900 1_455
F16 Ir0 1.970772 1_545
F16 Sr1 2.497251 1_555
F17 Ir1 1.970772 1_555
F17 Sr0 2.497251 1_554
F18 Ir2 1.970772 1_565
F18 Sr3 2.497251 1_555
F19 Ir3 1.970772 1_555
F19 Sr2 2.497251 1_556
F20 Ir0 1.958465 1_555
F20 Sr2 2.471129 1_656
F21 Ir1 1.958465 1_555
F21 Sr3 2.471129 1_655
F22 Ir2 1.958465 1_555
F22 Sr0 2.471129 1_454
F23 Ir3 1.958465 1_555
F23 Sr1 2.471129 1_455
