# generated using pymatgen
data_P3Pb5IO12
_symmetry_space_group_name_H-M   'P 1'
_cell_length_a   10.38867075
_cell_length_b   10.38867075
_cell_length_c   7.47762800
_cell_angle_alpha   90.00000000
_cell_angle_beta   90.00000000
_cell_angle_gamma   120.00000479
_symmetry_Int_Tables_number   1
_chemical_formula_structural   P3Pb5IO12
_chemical_formula_sum   'P6 Pb10 I2 O24'
_cell_volume   698.89901990
_cell_formula_units_Z   2
loop_
 _symmetry_equiv_pos_site_id
 _symmetry_equiv_pos_as_xyz
  1  'x, y, z'
loop_
 _atom_site_type_symbol
 _atom_site_label
 _atom_site_symmetry_multiplicity
 _atom_site_fract_x
 _atom_site_fract_y
 _atom_site_fract_z
 _atom_site_occupancy
  P  P0  1  0.96029000  0.58561600  0.75000000  1
  P  P1  1  0.62532600  0.03971000  0.75000000  1
  P  P2  1  0.41438400  0.37467400  0.75000000  1
  P  P3  1  0.03971000  0.41438400  0.25000000  1
  P  P4  1  0.37467400  0.96029000  0.25000000  1
  P  P5  1  0.58561600  0.62532600  0.25000000  1
  Pb  Pb0  1  0.33333300  0.66666700  0.99538700  1
  Pb  Pb1  1  0.66666700  0.33333300  0.49538700  1
  Pb  Pb2  1  0.66666700  0.33333300  0.00461300  1
  Pb  Pb3  1  0.33333300  0.66666700  0.50461300  1
  Pb  Pb4  1  0.74295100  0.72508500  0.75000000  1
  Pb  Pb5  1  0.98213500  0.25704900  0.75000000  1
  Pb  Pb6  1  0.27491500  0.01786500  0.75000000  1
  Pb  Pb7  1  0.25704900  0.27491500  0.25000000  1
  Pb  Pb8  1  0.01786500  0.74295100  0.25000000  1
  Pb  Pb9  1  0.72508500  0.98213500  0.25000000  1
  I  I0  1  0.00000000  0.00000000  0.00000000  1
  I  I1  1  0.00000000  0.00000000  0.50000000  1
  O  O0  1  0.12936800  0.64274900  0.75000000  1
  O  O1  1  0.51338100  0.87063200  0.75000000  1
  O  O2  1  0.35725100  0.48661900  0.75000000  1
  O  O3  1  0.87063200  0.35725100  0.25000000  1
  O  O4  1  0.48661900  0.12936800  0.25000000  1
  O  O5  1  0.64274900  0.51338100  0.25000000  1
  O  O6  1  0.86935700  0.40829600  0.75000000  1
  O  O7  1  0.53893900  0.13064300  0.75000000  1
  O  O8  1  0.59170400  0.46106100  0.75000000  1
  O  O9  1  0.13064300  0.59170400  0.25000000  1
  O  O10  1  0.46106100  0.86935700  0.25000000  1
  O  O11  1  0.40829600  0.53893900  0.25000000  1
  O  O12  1  0.90648400  0.63394600  0.91866100  1
  O  O13  1  0.72746100  0.09351600  0.91866100  1
  O  O14  1  0.36605400  0.27253900  0.91866100  1
  O  O15  1  0.09351600  0.36605400  0.41866100  1
  O  O16  1  0.27253900  0.90648400  0.41866100  1
  O  O17  1  0.63394600  0.72746100  0.41866100  1
  O  O18  1  0.09351600  0.36605400  0.08133900  1
  O  O19  1  0.27253900  0.90648400  0.08133900  1
  O  O20  1  0.63394600  0.72746100  0.08133900  1
  O  O21  1  0.90648400  0.63394600  0.58133900  1
  O  O22  1  0.72746100  0.09351600  0.58133900  1
  O  O23  1  0.36605400  0.27253900  0.58133900  1
loop_
_geom_bond_atom_site_label_1
_geom_bond_atom_site_label_2
_geom_bond_distance
_geom_bond_site_symmetry_2
I0 Pb8 3.340024 1_545
I0 Pb5 3.340024 1_454
I0 Pb4 3.340028 1_444
I0 Pb7 3.340028 1_555
I0 Pb9 3.340032 1_445
I0 Pb6 3.340032 1_554
I1 Pb8 3.340024 1_545
I1 Pb5 3.340024 1_455
I1 Pb4 3.340028 1_445
I1 Pb7 3.340028 1_555
I1 Pb6 3.340032 1_555
I1 Pb9 3.340032 1_445
O0 P0 1.547585 1_455
O0 Pb0 2.718821 1_555
O0 Pb3 2.718821 1_555
O1 P1 1.547585 1_565
O1 Pb0 2.718824 1_555
O1 Pb3 2.718824 1_555
O2 P2 1.547585 1_555
O2 Pb0 2.718828 1_555
O2 Pb3 2.718828 1_555
O3 P3 1.547585 1_655
O3 Pb2 2.718821 1_555
O3 Pb1 2.718821 1_555
O4 P4 1.547585 1_545
O4 Pb2 2.718824 1_555
O4 Pb1 2.718824 1_555
O5 P5 1.547585 1_555
O5 Pb1 2.718828 1_555
O5 Pb2 2.718828 1_555
O6 P0 1.595497 1_555
O6 Pb5 2.383784 1_555
O6 Pb2 2.650542 1_556
O6 Pb1 2.650542 1_555
O7 P1 1.595497 1_555
O7 Pb6 2.383774 1_555
O7 Pb1 2.650543 1_555
O7 Pb2 2.650543 1_556
O8 P2 1.595497 1_555
O8 Pb4 2.383775 1_555
O8 Pb2 2.650549 1_556
O8 Pb1 2.650549 1_555
O9 P3 1.595497 1_555
O9 Pb8 2.383784 1_555
O9 Pb0 2.650542 1_554
O9 Pb3 2.650542 1_555
O10 P4 1.595497 1_555
O10 Pb9 2.383774 1_555
O10 Pb0 2.650543 1_554
O10 Pb3 2.650543 1_555
O11 P5 1.595497 1_555
O11 Pb7 2.383775 1_555
O11 Pb3 2.650549 1_555
O11 Pb0 2.650549 1_554
O12 P0 1.560697 1_555
O12 Pb4 2.642310 1_555
O12 Pb8 2.729392 1_656
O13 P1 1.560692 1_555
O13 Pb5 2.642324 1_555
O13 Pb9 2.729392 1_546
O14 P2 1.560692 1_555
O14 Pb6 2.642327 1_555
O14 Pb7 2.729392 1_556
O15 P3 1.560697 1_555
O15 Pb7 2.642310 1_555
O15 Pb5 2.729392 1_455
O16 P4 1.560692 1_555
O16 Pb8 2.642324 1_555
O16 Pb6 2.729392 1_565
O17 P5 1.560692 1_555
O17 Pb9 2.642327 1_555
O17 Pb4 2.729392 1_555
O18 P3 1.560697 1_555
O18 Pb7 2.642310 1_555
O18 Pb5 2.729392 1_454
O19 P4 1.560692 1_555
O19 Pb8 2.642324 1_555
O19 Pb6 2.729392 1_564
O20 P5 1.560692 1_555
O20 Pb9 2.642327 1_555
O20 Pb4 2.729392 1_554
O21 P0 1.560697 1_555
O21 Pb4 2.642310 1_555
O21 Pb8 2.729392 1_655
O22 P1 1.560692 1_555
O22 Pb5 2.642324 1_555
O22 Pb9 2.729392 1_545
O23 P2 1.560692 1_555
O23 Pb6 2.642327 1_555
O23 Pb7 2.729392 1_555
