# generated using pymatgen
data_ErBiW2O9
_symmetry_space_group_name_H-M   'P 1'
_cell_length_a   3.91632700
_cell_length_b   5.74883500
_cell_length_c   32.71281800
_cell_angle_alpha   90.00000000
_cell_angle_beta   90.00000000
_cell_angle_gamma   90.00000000
_symmetry_Int_Tables_number   1
_chemical_formula_structural   ErBiW2O9
_chemical_formula_sum   'Er4 Bi4 W8 O36'
_cell_volume   736.50677826
_cell_formula_units_Z   4
loop_
 _symmetry_equiv_pos_site_id
 _symmetry_equiv_pos_as_xyz
  1  'x, y, z'
loop_
 _atom_site_type_symbol
 _atom_site_label
 _atom_site_symmetry_multiplicity
 _atom_site_fract_x
 _atom_site_fract_y
 _atom_site_fract_z
 _atom_site_occupancy
  Er  Er0  1  0.23990200  0.25000000  0.33282400  1
  Er  Er1  1  0.26009800  0.25000000  0.83282400  1
  Er  Er2  1  0.76009800  0.75000000  0.66717600  1
  Er  Er3  1  0.73990200  0.75000000  0.16717600  1
  Bi  Bi0  1  0.22680500  0.75000000  0.52667300  1
  Bi  Bi1  1  0.27319500  0.75000000  0.02667300  1
  Bi  Bi2  1  0.77319500  0.25000000  0.47332700  1
  Bi  Bi3  1  0.72680500  0.25000000  0.97332700  1
  W  W0  1  0.26844900  0.25000000  0.20659500  1
  W  W1  1  0.23155100  0.25000000  0.70659500  1
  W  W2  1  0.73155100  0.75000000  0.79340500  1
  W  W3  1  0.76844900  0.75000000  0.29340500  1
  W  W4  1  0.26291200  0.75000000  0.42001900  1
  W  W5  1  0.23708800  0.75000000  0.92001900  1
  W  W6  1  0.73708800  0.25000000  0.57998100  1
  W  W7  1  0.76291200  0.25000000  0.07998100  1
  O  O0  1  0.26405200  0.25000000  0.76178600  1
  O  O1  1  0.23594800  0.25000000  0.26178600  1
  O  O2  1  0.73594800  0.75000000  0.23821400  1
  O  O3  1  0.76405200  0.75000000  0.73821400  1
  O  O4  1  0.24422800  0.98018800  0.47059500  1
  O  O5  1  0.25577200  0.51981200  0.97059500  1
  O  O6  1  0.75577200  0.48018800  0.52940500  1
  O  O7  1  0.74422800  0.01981200  0.02940500  1
  O  O8  1  0.75577200  0.01981200  0.52940500  1
  O  O9  1  0.74422800  0.48018800  0.02940500  1
  O  O10  1  0.24422800  0.51981200  0.47059500  1
  O  O11  1  0.25577200  0.98018800  0.97059500  1
  O  O12  1  0.25139400  0.25000000  0.57328100  1
  O  O13  1  0.24860600  0.25000000  0.07328100  1
  O  O14  1  0.74860600  0.75000000  0.42671900  1
  O  O15  1  0.75139400  0.75000000  0.92671900  1
  O  O16  1  0.75210200  0.25000000  0.70233500  1
  O  O17  1  0.74789800  0.25000000  0.20233500  1
  O  O18  1  0.24789800  0.75000000  0.29766500  1
  O  O19  1  0.25210200  0.75000000  0.79766500  1
  O  O20  1  0.75705500  0.00022900  0.61432900  1
  O  O21  1  0.74294500  0.49977100  0.11432900  1
  O  O22  1  0.24294500  0.50022900  0.38567100  1
  O  O23  1  0.25705500  0.99977100  0.88567100  1
  O  O24  1  0.24294500  0.99977100  0.38567100  1
  O  O25  1  0.25705500  0.50022900  0.88567100  1
  O  O26  1  0.75705500  0.49977100  0.61432900  1
  O  O27  1  0.74294500  0.00022900  0.11432900  1
  O  O28  1  0.76213600  0.03089900  0.82129700  1
  O  O29  1  0.73786400  0.46910100  0.32129700  1
  O  O30  1  0.23786400  0.53089900  0.17870300  1
  O  O31  1  0.26213600  0.96910100  0.67870300  1
  O  O32  1  0.23786400  0.96910100  0.17870300  1
  O  O33  1  0.26213600  0.53089900  0.67870300  1
  O  O34  1  0.76213600  0.46910100  0.82129700  1
  O  O35  1  0.73786400  0.03089900  0.32129700  1
loop_
_geom_bond_atom_site_label_1
_geom_bond_atom_site_label_2
_geom_bond_distance
_geom_bond_site_symmetry_2
Er0 O22 2.249035 1_555
Er0 O24 2.249035 1_545
Er0 O1 2.323905 1_555
Er0 O29 2.352006 1_555
Er0 O35 2.352006 1_555
Er0 O35 2.365258 1_455
Er0 O29 2.365258 1_455
Er1 O25 2.249035 1_555
Er1 O23 2.249035 1_545
Er1 O0 2.323905 1_555
Er1 O34 2.352006 1_455
Er1 O28 2.352006 1_455
Er1 O34 2.365258 1_555
Er1 O28 2.365258 1_555
Er2 O20 2.249035 1_565
Er2 O26 2.249035 1_555
Er2 O3 2.323905 1_555
Er2 O33 2.352006 1_555
Er2 O31 2.352006 1_555
Er2 O31 2.365258 1_655
Er2 O33 2.365258 1_655
Er3 O27 2.249035 1_565
Er3 O21 2.249035 1_555
Er3 O2 2.323905 1_555
Er3 O32 2.352006 1_655
Er3 O30 2.352006 1_655
Er3 O32 2.365258 1_555
Er3 O30 2.365258 1_555
Bi0 O4 2.262983 1_555
Bi0 O10 2.262983 1_555
Bi0 O6 2.411825 1_455
Bi0 O8 2.411825 1_465
Bi0 O8 2.589493 1_565
Bi0 O6 2.589493 1_555
Bi1 O11 2.262983 1_554
Bi1 O5 2.262983 1_554
Bi1 O7 2.411825 1_565
Bi1 O9 2.411825 1_555
Bi1 O9 2.589493 1_455
Bi1 O7 2.589493 1_465
Bi2 O6 2.262983 1_555
Bi2 O8 2.262983 1_555
Bi2 O10 2.411825 1_655
Bi2 O4 2.411825 1_645
Bi2 O10 2.589493 1_555
Bi2 O4 2.589493 1_545
Bi3 O9 2.262983 1_556
Bi3 O7 2.262983 1_556
Bi3 O5 2.411825 1_555
Bi3 O11 2.411825 1_545
Bi3 O5 2.589493 1_655
Bi3 O11 2.589493 1_645
O0 W1 1.809934 1_555
O1 W0 1.809934 1_555
O2 W3 1.809934 1_555
O3 W2 1.809934 1_555
O4 W4 2.119865 1_555
O5 W5 2.119865 1_555
O6 W6 2.119865 1_555
O7 W7 2.119865 1_555
O8 W6 2.119865 1_555
O9 W7 2.119865 1_555
O10 W4 2.119865 1_555
O11 W5 2.119865 1_555
O12 W6 1.914722 1_555
O12 W6 2.026080 1_455
O13 W7 1.914722 1_455
O13 W7 2.026080 1_555
O14 W4 1.914722 1_555
O14 W4 2.026080 1_655
O15 W5 1.914722 1_655
O15 W5 2.026080 1_555
O16 W1 1.882843 1_655
O16 W1 2.043405 1_555
O17 W0 1.882843 1_555
O17 W0 2.043405 1_655
O18 W3 1.882843 1_455
O18 W3 2.043405 1_555
O19 W2 1.882843 1_555
O19 W2 2.043405 1_455
O20 W6 1.824945 1_555
O21 W7 1.824945 1_555
O22 W4 1.824945 1_555
O23 W5 1.824945 1_555
O24 W4 1.824945 1_555
O25 W5 1.824945 1_555
O26 W6 1.824945 1_555
O27 W7 1.824945 1_555
O28 W2 1.858651 1_545
O29 W3 1.858651 1_555
O30 W0 1.858651 1_555
O31 W1 1.858651 1_565
O32 W0 1.858651 1_565
O33 W1 1.858651 1_555
O34 W2 1.858651 1_555
O35 W3 1.858651 1_545
