# generated using pymatgen
data_Cr2B2Ir
_symmetry_space_group_name_H-M   'P 1'
_cell_length_a   2.90562200
_cell_length_b   7.20725400
_cell_length_c   9.33298000
_cell_angle_alpha   90.00000000
_cell_angle_beta   90.00000000
_cell_angle_gamma   90.00000000
_symmetry_Int_Tables_number   1
_chemical_formula_structural   Cr2B2Ir
_chemical_formula_sum   'Cr8 B8 Ir4'
_cell_volume   195.44712128
_cell_formula_units_Z   4
loop_
 _symmetry_equiv_pos_site_id
 _symmetry_equiv_pos_as_xyz
  1  'x, y, z'
loop_
 _atom_site_type_symbol
 _atom_site_label
 _atom_site_symmetry_multiplicity
 _atom_site_fract_x
 _atom_site_fract_y
 _atom_site_fract_z
 _atom_site_occupancy
  Cr  Cr0  1  0.50000000  0.80781400  0.13860600  1
  Cr  Cr1  1  0.50000000  0.19218600  0.86139400  1
  Cr  Cr2  1  0.00000000  0.69218600  0.63860600  1
  Cr  Cr3  1  0.00000000  0.30781400  0.36139400  1
  Cr  Cr4  1  0.50000000  0.56441700  0.86051100  1
  Cr  Cr5  1  0.50000000  0.43558300  0.13948900  1
  Cr  Cr6  1  0.00000000  0.93558300  0.36051100  1
  Cr  Cr7  1  0.00000000  0.06441700  0.63948900  1
  B  B0  1  0.50000000  0.11636600  0.46300200  1
  B  B1  1  0.50000000  0.88363400  0.53699800  1
  B  B2  1  0.00000000  0.38363400  0.96300200  1
  B  B3  1  0.00000000  0.61636600  0.03699800  1
  B  B4  1  0.50000000  0.12390000  0.27254600  1
  B  B5  1  0.50000000  0.87610000  0.72745400  1
  B  B6  1  0.00000000  0.37610000  0.77254600  1
  B  B7  1  0.00000000  0.62390000  0.22745400  1
  Ir  Ir0  1  0.50000000  0.62381400  0.39464200  1
  Ir  Ir1  1  0.50000000  0.37618600  0.60535800  1
  Ir  Ir2  1  0.00000000  0.87618600  0.89464200  1
  Ir  Ir3  1  0.00000000  0.12381400  0.10535800  1
loop_
_geom_bond_atom_site_label_1
_geom_bond_atom_site_label_2
_geom_bond_distance
_geom_bond_site_symmetry_2
B0 B4 1.778351 1_555
B0 B1 1.813964 1_545
B0 Cr6 2.173319 1_645
B0 Cr6 2.173319 1_545
B0 Cr3 2.216716 1_555
B0 Cr3 2.216716 1_655
B0 Cr7 2.227991 1_555
B0 Cr7 2.227991 1_655
B0 Ir1 2.296036 1_555
B1 B5 1.778351 1_555
B1 Cr7 2.173319 1_665
B1 Cr7 2.173319 1_565
B1 Cr2 2.216716 1_555
B1 Cr2 2.216716 1_655
B1 Cr6 2.227991 1_655
B1 Cr6 2.227991 1_555
B1 Ir0 2.296036 1_555
B2 B6 1.778351 1_555
B2 B3 1.813964 1_556
B2 Cr4 2.173319 1_455
B2 Cr4 2.173319 1_555
B2 Cr1 2.216716 1_455
B2 Cr1 2.216716 1_555
B2 Cr5 2.227991 1_456
B2 Cr5 2.227991 1_556
B2 Ir3 2.296036 1_556
B3 B7 1.778351 1_555
B3 Cr5 2.173319 1_555
B3 Cr5 2.173319 1_455
B3 Cr0 2.216716 1_455
B3 Cr0 2.216716 1_555
B3 Cr4 2.227991 1_554
B3 Cr4 2.227991 1_454
B3 Ir2 2.296036 1_554
B4 Ir3 2.131992 1_555
B4 Ir3 2.131992 1_655
B4 Cr3 2.134303 1_655
B4 Cr3 2.134303 1_555
B4 Cr6 2.150996 1_645
B4 Cr6 2.150996 1_545
B4 Cr5 2.566774 1_555
B4 Cr0 2.598546 1_545
B5 Ir2 2.131992 1_655
B5 Ir2 2.131992 1_555
B5 Cr2 2.134303 1_555
B5 Cr2 2.134303 1_655
B5 Cr7 2.150996 1_565
B5 Cr7 2.150996 1_665
B5 Cr4 2.566774 1_555
B5 Cr1 2.598546 1_565
B6 Ir1 2.131992 1_455
B6 Ir1 2.131992 1_555
B6 Cr1 2.134303 1_555
B6 Cr1 2.134303 1_455
B6 Cr4 2.150996 1_455
B6 Cr4 2.150996 1_555
B6 Cr7 2.566774 1_555
B6 Cr2 2.598546 1_555
B7 Ir0 2.131992 1_455
B7 Ir0 2.131992 1_555
B7 Cr0 2.134303 1_455
B7 Cr0 2.134303 1_555
B7 Cr5 2.150996 1_555
B7 Cr5 2.150996 1_455
B7 Cr6 2.566774 1_555
B7 Cr3 2.598546 1_555
