# generated using pymatgen
data_Zn(CuO2)2
_symmetry_space_group_name_H-M   'P 1'
_cell_length_a   5.95032381
_cell_length_b   5.95032381
_cell_length_c   5.89691560
_cell_angle_alpha   60.42761855
_cell_angle_beta   60.42761855
_cell_angle_gamma   59.31119305
_symmetry_Int_Tables_number   1
_chemical_formula_structural   Zn(CuO2)2
_chemical_formula_sum   'Zn2 Cu4 O8'
_cell_volume   147.78416086
_cell_formula_units_Z   2
loop_
 _symmetry_equiv_pos_site_id
 _symmetry_equiv_pos_as_xyz
  1  'x, y, z'
loop_
 _atom_site_type_symbol
 _atom_site_label
 _atom_site_symmetry_multiplicity
 _atom_site_fract_x
 _atom_site_fract_y
 _atom_site_fract_z
 _atom_site_occupancy
  Zn  Zn0  1  0.87670500  0.87670500  0.87629600  1
  Zn  Zn1  1  0.12329500  0.12329500  0.12370400  1
  Cu  Cu0  1  0.00000000  0.50000000  0.50000000  1
  Cu  Cu1  1  0.50000000  0.00000000  0.50000000  1
  Cu  Cu2  1  0.50000000  0.50000000  0.00000000  1
  Cu  Cu3  1  0.50000000  0.50000000  0.50000000  1
  O  O0  1  0.26363100  0.71330600  0.25794000  1
  O  O1  1  0.26328100  0.26328100  0.71588000  1
  O  O2  1  0.25498800  0.25498800  0.26945200  1
  O  O3  1  0.28669400  0.73636900  0.74206000  1
  O  O4  1  0.74501200  0.74501200  0.73054800  1
  O  O5  1  0.73671900  0.73671900  0.28412000  1
  O  O6  1  0.71330600  0.26363100  0.25794000  1
  O  O7  1  0.73636900  0.28669400  0.74206000  1
loop_
_geom_bond_atom_site_label_1
_geom_bond_atom_site_label_2
_geom_bond_distance
_geom_bond_site_symmetry_2
Cu0 O4 1.984511 1_455
Cu0 O2 1.984511 1_555
Cu0 O1 2.001259 1_555
Cu0 O5 2.001259 1_455
Cu0 O7 2.035486 1_455
Cu0 O0 2.035486 1_555
Cu1 O4 1.984511 1_545
Cu1 O2 1.984511 1_555
Cu1 O1 2.001259 1_555
Cu1 O5 2.001259 1_545
Cu1 O3 2.035486 1_545
Cu1 O6 2.035486 1_555
Cu2 O3 1.968376 1_554
Cu2 O7 1.968376 1_554
Cu2 O0 1.968376 1_555
Cu2 O6 1.968376 1_555
Cu2 O2 2.090991 1_555
Cu2 O4 2.090991 1_554
Cu3 O0 1.999445 1_555
Cu3 O6 1.999445 1_555
Cu3 O7 1.999445 1_555
Cu3 O3 1.999445 1_555
Cu3 O5 2.018427 1_555
Cu3 O1 2.018427 1_555
O0 Zn1 1.985526 1_565
O1 Zn1 1.981149 1_556
O2 Zn1 1.980684 1_555
O3 Zn0 1.985526 1_455
O4 Zn0 1.980684 1_555
O5 Zn0 1.981149 1_554
O6 Zn1 1.985526 1_655
O7 Zn0 1.985526 1_545
