# generated using pymatgen
data_BaNaEu(SiO3)3
_symmetry_space_group_name_H-M   'P 1'
_cell_length_a   5.73980300
_cell_length_b   11.67480500
_cell_length_c   12.71041900
_cell_angle_alpha   90.00000000
_cell_angle_beta   90.00000000
_cell_angle_gamma   90.00000000
_symmetry_Int_Tables_number   1
_chemical_formula_structural   BaNaEu(SiO3)3
_chemical_formula_sum   'Ba4 Na4 Eu4 Si12 O36'
_cell_volume   851.73891415
_cell_formula_units_Z   4
loop_
 _symmetry_equiv_pos_site_id
 _symmetry_equiv_pos_as_xyz
  1  'x, y, z'
loop_
 _atom_site_type_symbol
 _atom_site_label
 _atom_site_symmetry_multiplicity
 _atom_site_fract_x
 _atom_site_fract_y
 _atom_site_fract_z
 _atom_site_occupancy
  Ba  Ba0  1  0.10298300  0.61729800  0.41890000  1
  Ba  Ba1  1  0.39701700  0.38270200  0.91890000  1
  Ba  Ba2  1  0.60298300  0.88270200  0.58110000  1
  Ba  Ba3  1  0.89701700  0.11729800  0.08110000  1
  Na  Na0  1  0.06995300  0.28540100  0.39395600  1
  Na  Na1  1  0.43004700  0.71459900  0.89395600  1
  Na  Na2  1  0.56995300  0.21459900  0.60604400  1
  Na  Na3  1  0.93004700  0.78540100  0.10604400  1
  Eu  Eu0  1  0.11173100  0.96963400  0.36226100  1
  Eu  Eu1  1  0.38826900  0.03036600  0.86226100  1
  Eu  Eu2  1  0.61173100  0.53036600  0.63773900  1
  Eu  Eu3  1  0.88826900  0.46963400  0.13773900  1
  Si  Si0  1  0.59906200  0.80381600  0.31297900  1
  Si  Si1  1  0.90093800  0.19618400  0.81297900  1
  Si  Si2  1  0.09906200  0.69618400  0.68702100  1
  Si  Si3  1  0.40093800  0.30381600  0.18702100  1
  Si  Si4  1  0.59661800  0.15253100  0.35728700  1
  Si  Si5  1  0.90338200  0.84746900  0.85728700  1
  Si  Si6  1  0.09661800  0.34746900  0.64271300  1
  Si  Si7  1  0.40338200  0.65253100  0.14271300  1
  Si  Si8  1  0.10427300  0.08777200  0.62374200  1
  Si  Si9  1  0.39572700  0.91222800  0.12374200  1
  Si  Si10  1  0.60427300  0.41222800  0.37625800  1
  Si  Si11  1  0.89572700  0.58777200  0.87625800  1
  O  O0  1  0.37182500  0.81401400  0.38869000  1
  O  O1  1  0.12817500  0.18598600  0.88869000  1
  O  O2  1  0.87182500  0.68598600  0.61131000  1
  O  O3  1  0.62817500  0.31401400  0.11131000  1
  O  O4  1  0.84159900  0.81419100  0.37654900  1
  O  O5  1  0.65840100  0.18580900  0.87654800  1
  O  O6  1  0.34159900  0.68580900  0.62345200  1
  O  O7  1  0.15840100  0.31419100  0.12345100  1
  O  O8  1  0.86018600  0.12373300  0.31828400  1
  O  O9  1  0.63981400  0.87626700  0.81828400  1
  O  O10  1  0.36018600  0.37626700  0.68171600  1
  O  O11  1  0.13981400  0.62373300  0.18171600  1
  O  O12  1  0.61094000  0.27771600  0.42569500  1
  O  O13  1  0.88906000  0.72228400  0.92569500  1
  O  O14  1  0.11094000  0.22228400  0.57430500  1
  O  O15  1  0.38906000  0.77771600  0.07430500  1
  O  O16  1  0.35448800  0.05959400  0.67754100  1
  O  O17  1  0.14551200  0.94040600  0.17754100  1
  O  O18  1  0.85448800  0.44040600  0.32245900  1
  O  O19  1  0.64551200  0.55959400  0.82245900  1
  O  O20  1  0.90044800  0.09661400  0.71777800  1
  O  O21  1  0.59955200  0.90338600  0.21777800  1
  O  O22  1  0.40044800  0.40338600  0.28222200  1
  O  O23  1  0.09955200  0.59661400  0.78222200  1
  O  O24  1  0.41812000  0.18117900  0.25548200  1
  O  O25  1  0.08188000  0.81882100  0.75548200  1
  O  O26  1  0.91812000  0.31882100  0.74451800  1
  O  O27  1  0.58188000  0.68117900  0.24451800  1
  O  O28  1  0.46414600  0.06008100  0.43006300  1
  O  O29  1  0.03585400  0.93991900  0.93006300  1
  O  O30  1  0.96414600  0.43991900  0.56993700  1
  O  O31  1  0.53585400  0.56008100  0.06993700  1
  O  O32  1  0.01189600  0.99744100  0.53741800  1
  O  O33  1  0.48810400  0.00255900  0.03741800  1
  O  O34  1  0.51189600  0.50255900  0.46258200  1
  O  O35  1  0.98810400  0.49744100  0.96258200  1
loop_
_geom_bond_atom_site_label_1
_geom_bond_atom_site_label_2
_geom_bond_distance
_geom_bond_site_symmetry_2
Ba0 O34 2.758887 1_555
Ba0 O18 2.793194 1_455
Ba0 O0 2.793397 1_555
Ba0 O4 2.797250 1_455
Ba0 O2 2.895599 1_455
Ba0 O30 2.934100 1_455
Ba0 O11 3.023045 1_555
Ba0 O6 3.045536 1_555
Ba1 O35 2.758887 1_455
Ba1 O19 2.793194 1_555
Ba1 O1 2.793397 1_555
Ba1 O5 2.797252 1_555
Ba1 O3 2.895599 1_556
Ba1 O31 2.934100 1_556
Ba1 O10 3.023045 1_555
Ba1 O7 3.045525 1_556
Ba2 O32 2.758887 1_655
Ba2 O16 2.793194 1_565
Ba2 O2 2.793397 1_555
Ba2 O6 2.797252 1_555
Ba2 O0 2.895599 1_555
Ba2 O28 2.934100 1_565
Ba2 O9 3.023045 1_555
Ba2 O4 3.045525 1_555
Ba3 O33 2.758887 1_555
Ba3 O17 2.793194 1_645
Ba3 O3 2.793397 1_555
Ba3 O7 2.797250 1_655
Ba3 O1 2.895599 1_654
Ba3 O29 2.934100 1_644
Ba3 O8 3.023045 1_555
Ba3 O5 3.045536 1_554
Na0 O18 2.372799 1_455
Na0 O14 2.419303 1_555
Na0 O8 2.436639 1_455
Na0 O12 2.666860 1_455
Na0 O22 2.740952 1_555
Na0 O24 2.927797 1_555
Na0 O30 2.937067 1_455
Na1 O19 2.372799 1_555
Na1 O15 2.419303 1_556
Na1 O9 2.436639 1_555
Na1 O13 2.666860 1_555
Na1 O23 2.740952 1_555
Na1 O25 2.927797 1_555
Na1 O31 2.937067 1_556
Na2 O16 2.372799 1_555
Na2 O12 2.419303 1_555
Na2 O10 2.436639 1_555
Na2 O14 2.666860 1_555
Na2 O20 2.740952 1_555
Na2 O26 2.927797 1_555
Na2 O28 2.937067 1_555
Na3 O17 2.372799 1_655
Na3 O13 2.419303 1_554
Na3 O11 2.436639 1_655
Na3 O15 2.666860 1_655
Na3 O21 2.740952 1_555
Na3 O27 2.927797 1_555
Na3 O29 2.937067 1_654
Eu0 O32 2.321692 1_555
Eu0 O8 2.373548 1_465
Eu0 O0 2.375383 1_555
Eu0 O17 2.380446 1_555
Eu0 O4 2.393830 1_455
Eu0 O28 2.439141 1_565
Eu1 O33 2.321692 1_556
Eu1 O9 2.373548 1_545
Eu1 O1 2.375383 1_555
Eu1 O16 2.380446 1_555
Eu1 O5 2.393829 1_555
Eu1 O29 2.439141 1_545
Eu2 O34 2.321692 1_555
Eu2 O10 2.373548 1_555
Eu2 O2 2.375383 1_555
Eu2 O19 2.380446 1_555
Eu2 O6 2.393829 1_555
Eu2 O30 2.439141 1_555
Eu3 O35 2.321692 1_554
Eu3 O11 2.373548 1_655
Eu3 O3 2.375383 1_555
Eu3 O18 2.380446 1_555
Eu3 O7 2.393830 1_655
Eu3 O31 2.439141 1_555
O0 Si0 1.625244 1_555
O1 Si1 1.625244 1_455
O2 Si2 1.625244 1_655
O3 Si3 1.625244 1_555
O4 Si0 1.614163 1_555
O5 Si1 1.614156 1_555
O6 Si2 1.614156 1_555
O7 Si3 1.614163 1_555
O8 Si4 1.627099 1_555
O9 Si5 1.627099 1_555
O10 Si6 1.627099 1_555
O11 Si7 1.627099 1_555
O12 Si10 1.691883 1_555
O12 Si4 1.702584 1_555
O13 Si11 1.691883 1_555
O13 Si5 1.702584 1_555
O14 Si8 1.691883 1_555
O14 Si6 1.702584 1_555
O15 Si9 1.691883 1_555
O15 Si7 1.702584 1_555
O16 Si8 1.624328 1_555
O17 Si9 1.624328 1_555
O18 Si10 1.624328 1_555
O19 Si11 1.624328 1_555
O20 Si8 1.675694 1_655
O20 Si1 1.677954 1_555
O21 Si9 1.675694 1_555
O21 Si0 1.677954 1_555
O22 Si10 1.675694 1_555
O22 Si3 1.677954 1_555
O23 Si11 1.675694 1_455
O23 Si2 1.677954 1_555
O24 Si3 1.678352 1_555
O24 Si4 1.684027 1_555
O25 Si2 1.678352 1_555
O25 Si5 1.684027 1_455
O26 Si1 1.678352 1_555
O26 Si6 1.684027 1_655
O27 Si0 1.678352 1_555
O27 Si7 1.684027 1_555
O28 Si4 1.612069 1_555
O29 Si5 1.612069 1_455
O30 Si6 1.612069 1_655
O31 Si7 1.612069 1_555
O32 Si8 1.611581 1_565
O33 Si9 1.611581 1_545
O34 Si10 1.611581 1_555
O35 Si11 1.611581 1_555
