# generated using pymatgen
data_Ho(WO3)2
_symmetry_space_group_name_H-M   'P 1'
_cell_length_a   7.86920000
_cell_length_b   5.41006500
_cell_length_c   5.65334327
_cell_angle_alpha   89.98223361
_cell_angle_beta   90.00000000
_cell_angle_gamma   90.00000000
_symmetry_Int_Tables_number   1
_chemical_formula_structural   Ho(WO3)2
_chemical_formula_sum   'Ho2 W4 O12'
_cell_volume   240.67911291
_cell_formula_units_Z   2
loop_
 _symmetry_equiv_pos_site_id
 _symmetry_equiv_pos_as_xyz
  1  'x, y, z'
loop_
 _atom_site_type_symbol
 _atom_site_label
 _atom_site_symmetry_multiplicity
 _atom_site_fract_x
 _atom_site_fract_y
 _atom_site_fract_z
 _atom_site_occupancy
  Ho  Ho0  1  0.50000000  0.98439600  0.07214700  1
  Ho  Ho1  1  0.00000000  0.47664500  0.43111600  1
  W  W0  1  0.24942100  0.99493600  0.50962300  1
  W  W1  1  0.75057900  0.99493600  0.50962300  1
  W  W2  1  0.75047600  0.49747400  0.98755300  1
  W  W3  1  0.24952400  0.49747400  0.98755300  1
  O  O0  1  0.00000000  0.87705500  0.52523500  1
  O  O1  1  0.30708300  0.83183700  0.80159700  1
  O  O2  1  0.69291700  0.83183700  0.80159700  1
  O  O3  1  0.29351000  0.71326000  0.28242800  1
  O  O4  1  0.70649000  0.71326000  0.28242800  1
  O  O5  1  0.00000000  0.57023600  0.04133400  1
  O  O6  1  0.50000000  0.38283100  0.97675300  1
  O  O7  1  0.80889500  0.31574600  0.68576500  1
  O  O8  1  0.19110500  0.31574600  0.68576500  1
  O  O9  1  0.20810800  0.20095500  0.23061000  1
  O  O10  1  0.79189200  0.20095500  0.23061000  1
  O  O11  1  0.50000000  0.07606000  0.46004400  1
loop_
_geom_bond_atom_site_label_1
_geom_bond_atom_site_label_2
_geom_bond_distance
_geom_bond_site_symmetry_2
Ho0 O6 2.221836 1_564
Ho0 O11 2.248438 1_565
Ho0 O1 2.307820 1_554
Ho0 O2 2.307820 1_554
Ho0 O3 2.490816 1_555
Ho0 O4 2.490816 1_555
Ho0 O10 2.729806 1_565
Ho0 O9 2.729806 1_565
Ho1 O0 2.230795 1_555
Ho1 O8 2.256323 1_555
Ho1 O7 2.256323 1_455
Ho1 O5 2.260842 1_555
Ho1 O9 2.488451 1_555
Ho1 O10 2.488451 1_455
Ho1 O4 2.771144 1_455
Ho1 O3 2.771144 1_555
O0 W0 2.065632 1_555
O0 W1 2.065632 1_455
O1 W0 1.925657 1_555
O1 W3 2.140412 1_555
O2 W1 1.925657 1_555
O2 W2 2.140412 1_555
O3 W0 2.023246 1_555
O3 W3 2.064671 1_554
O4 W1 2.023246 1_555
O4 W2 2.064671 1_554
O5 W3 2.025591 1_554
O5 W2 2.025591 1_454
O6 W2 2.067233 1_555
O6 W3 2.067233 1_555
O7 W2 2.022324 1_555
O7 W1 2.053188 1_545
O8 W3 2.022324 1_555
O8 W0 2.053188 1_545
O9 W0 1.958298 1_545
O9 W3 2.136908 1_554
O10 W1 1.958298 1_545
O10 W2 2.136908 1_554
O11 W1 2.039442 1_545
O11 W0 2.039442 1_545
