# generated using pymatgen
data_Zn2IrWO6
_symmetry_space_group_name_H-M   'P 1'
_cell_length_a   5.30602100
_cell_length_b   5.31559100
_cell_length_c   9.31315788
_cell_angle_alpha   56.33096938
_cell_angle_beta   90.00000000
_cell_angle_gamma   90.00000000
_symmetry_Int_Tables_number   1
_chemical_formula_structural   Zn2IrWO6
_chemical_formula_sum   'Zn4 Ir2 W2 O12'
_cell_volume   218.61166305
_cell_formula_units_Z   2
loop_
 _symmetry_equiv_pos_site_id
 _symmetry_equiv_pos_as_xyz
  1  'x, y, z'
loop_
 _atom_site_type_symbol
 _atom_site_label
 _atom_site_symmetry_multiplicity
 _atom_site_fract_x
 _atom_site_fract_y
 _atom_site_fract_z
 _atom_site_occupancy
  Zn  Zn0  1  0.97930600  0.73181200  0.25200900  1
  Zn  Zn1  1  0.47930600  0.26818800  0.24799100  1
  Zn  Zn2  1  0.52069400  0.73181200  0.75200900  1
  Zn  Zn3  1  0.02069400  0.26818800  0.74799100  1
  Ir  Ir0  1  0.50000000  0.50000000  0.50000000  1
  Ir  Ir1  1  0.00000000  0.50000000  0.00000000  1
  W  W0  1  0.50000000  0.00000000  0.00000000  1
  W  W1  1  0.00000000  0.00000000  0.50000000  1
  O  O0  1  0.39931100  0.36249600  0.75253300  1
  O  O1  1  0.17661500  0.09527200  0.07402300  1
  O  O2  1  0.16839400  0.73524500  0.44310900  1
  O  O3  1  0.66839400  0.26475500  0.05689100  1
  O  O4  1  0.67661500  0.90472800  0.42597700  1
  O  O5  1  0.89931100  0.63750400  0.74746700  1
  O  O6  1  0.10068900  0.36249600  0.25253300  1
  O  O7  1  0.32338500  0.09527200  0.57402300  1
  O  O8  1  0.33160600  0.73524500  0.94310900  1
  O  O9  1  0.82338500  0.90472800  0.92597700  1
  O  O10  1  0.83160600  0.26475500  0.55689100  1
  O  O11  1  0.60068900  0.63750400  0.24746700  1
loop_
_geom_bond_atom_site_label_1
_geom_bond_atom_site_label_2
_geom_bond_distance
_geom_bond_site_symmetry_2
Ir0 O10 2.050766 1_555
Ir0 O2 2.050766 1_555
Ir0 O7 2.082634 1_555
Ir0 O4 2.082634 1_555
Ir0 O11 2.108310 1_555
Ir0 O0 2.108310 1_555
Ir1 O3 2.050766 1_455
Ir1 O8 2.050766 1_554
Ir1 O9 2.082634 1_454
Ir1 O1 2.082634 1_555
Ir1 O6 2.108310 1_555
Ir1 O5 2.108310 1_454
O0 Zn2 2.063518 1_555
O0 Zn3 2.076652 1_555
O0 W0 2.094263 1_556
O1 Zn0 2.006355 1_445
O1 W0 2.015713 1_555
O2 W1 1.971400 1_565
O2 Zn0 2.051939 1_455
O3 W0 1.971400 1_555
O3 Zn1 2.051939 1_555
O4 Zn1 2.006355 1_565
O4 W1 2.015713 1_665
O5 Zn3 2.063518 1_655
O5 Zn2 2.076652 1_555
O5 W1 2.094263 1_665
O6 Zn0 2.063518 1_455
O6 Zn1 2.076652 1_555
O6 W1 2.094263 1_555
O7 Zn2 2.006355 1_545
O7 W1 2.015713 1_555
O8 W0 1.971400 1_566
O8 Zn2 2.051939 1_555
O9 Zn3 2.006355 1_665
O9 W0 2.015713 1_566
O10 W1 1.971400 1_655
O10 Zn3 2.051939 1_655
O11 Zn1 2.063518 1_555
O11 Zn0 2.076652 1_555
O11 W0 2.094263 1_565
