# generated using pymatgen
data_Yb5Pd2
_symmetry_space_group_name_H-M   'P 1'
_cell_length_a   8.81182593
_cell_length_b   8.81182593
_cell_length_c   7.58078120
_cell_angle_alpha   83.16407876
_cell_angle_beta   83.16407876
_cell_angle_gamma   43.68391160
_symmetry_Int_Tables_number   1
_chemical_formula_structural   Yb5Pd2
_chemical_formula_sum   'Yb10 Pd4'
_cell_volume   403.20132595
_cell_formula_units_Z   2
loop_
 _symmetry_equiv_pos_site_id
 _symmetry_equiv_pos_as_xyz
  1  'x, y, z'
loop_
 _atom_site_type_symbol
 _atom_site_label
 _atom_site_symmetry_multiplicity
 _atom_site_fract_x
 _atom_site_fract_y
 _atom_site_fract_z
 _atom_site_occupancy
  Yb  Yb0  1  0.02132600  0.79700900  0.91957200  1
  Yb  Yb1  1  0.20299100  0.97867400  0.58042800  1
  Yb  Yb2  1  0.97867400  0.20299100  0.08042800  1
  Yb  Yb3  1  0.79700900  0.02132600  0.41957200  1
  Yb  Yb4  1  0.36436600  0.20155600  0.81913600  1
  Yb  Yb5  1  0.79844400  0.63563400  0.68086400  1
  Yb  Yb6  1  0.63563400  0.79844400  0.18086400  1
  Yb  Yb7  1  0.20155600  0.36436600  0.31913600  1
  Yb  Yb8  1  0.57939000  0.42061000  0.75000000  1
  Yb  Yb9  1  0.42061000  0.57939000  0.25000000  1
  Pd  Pd0  1  0.18294900  0.59657000  0.58075600  1
  Pd  Pd1  1  0.40343000  0.81705100  0.91924400  1
  Pd  Pd2  1  0.81705100  0.40343000  0.41924400  1
  Pd  Pd3  1  0.59657000  0.18295000  0.08075600  1
loop_
_geom_bond_atom_site_label_1
_geom_bond_atom_site_label_2
_geom_bond_distance
_geom_bond_site_symmetry_2
Pd0 Yb0 2.883751 1_555
Pd0 Yb7 2.924106 1_555
Pd0 Yb3 2.925449 1_465
Pd0 Yb8 3.002190 1_555
Pd0 Yb9 3.012889 1_555
Pd0 Yb4 3.013214 1_555
Pd0 Yb5 3.152379 1_455
Pd0 Yb1 3.496578 1_555
Pd1 Yb1 2.883751 1_555
Pd1 Yb6 2.924106 1_556
Pd1 Yb2 2.925449 1_466
Pd1 Yb8 3.002190 1_555
Pd1 Yb9 3.012889 1_556
Pd1 Yb5 3.013214 1_555
Pd1 Yb4 3.152379 1_565
Pd1 Yb0 3.496578 1_555
Pd2 Yb2 2.883751 1_555
Pd2 Yb5 2.924106 1_555
Pd2 Yb1 2.925449 1_645
Pd2 Yb9 3.002190 1_555
Pd2 Yb8 3.012889 1_555
Pd2 Yb6 3.013214 1_555
Pd2 Yb7 3.152379 1_655
Pd2 Yb3 3.496578 1_555
Pd3 Yb3 2.883751 1_555
Pd3 Yb4 2.924111 1_554
Pd3 Yb0 2.925452 1_644
Pd3 Yb9 3.002182 1_555
Pd3 Yb8 3.012884 1_554
Pd3 Yb7 3.013216 1_555
Pd3 Yb6 3.152387 1_545
Pd3 Yb2 3.496571 1_555
