# generated using pymatgen
data_Ba5Y8Zn4O21
_symmetry_space_group_name_H-M   'P 1'
_cell_length_a   10.26671010
_cell_length_b   10.26671010
_cell_length_c   10.26671010
_cell_angle_alpha   94.52908076
_cell_angle_beta   94.52908076
_cell_angle_gamma   147.35934023
_symmetry_Int_Tables_number   1
_chemical_formula_structural   Ba5Y8Zn4O21
_chemical_formula_sum   'Ba5 Y8 Zn4 O21'
_cell_volume   560.16699993
_cell_formula_units_Z   1
loop_
 _symmetry_equiv_pos_site_id
 _symmetry_equiv_pos_as_xyz
  1  'x, y, z'
loop_
 _atom_site_type_symbol
 _atom_site_label
 _atom_site_symmetry_multiplicity
 _atom_site_fract_x
 _atom_site_fract_y
 _atom_site_fract_z
 _atom_site_occupancy
  Ba  Ba0  1  0.13886700  0.46375900  0.60262600  1
  Ba  Ba1  1  0.86113300  0.53624100  0.39737400  1
  Ba  Ba2  1  0.53624100  0.13886700  0.67510800  1
  Ba  Ba3  1  0.46375900  0.86113300  0.32489200  1
  Ba  Ba4  1  0.00000000  0.00000000  0.00000000  1
  Y  Y0  1  0.41166000  0.35758400  0.76924400  1
  Y  Y1  1  0.58834000  0.64241600  0.23075600  1
  Y  Y2  1  0.64241600  0.41166000  0.05407600  1
  Y  Y3  1  0.35758400  0.58834000  0.94592400  1
  Y  Y4  1  0.24730500  0.16792900  0.41523300  1
  Y  Y5  1  0.75269500  0.83207100  0.58476700  1
  Y  Y6  1  0.83207100  0.24730500  0.07937600  1
  Y  Y7  1  0.16792900  0.75269500  0.92062400  1
  Zn  Zn0  1  0.04023800  0.25103800  0.29127600  1
  Zn  Zn1  1  0.95976200  0.74896200  0.70872400  1
  Zn  Zn2  1  0.74896200  0.04023800  0.78920000  1
  Zn  Zn3  1  0.25103800  0.95976200  0.21080000  1
  O  O0  1  0.42698300  0.29691100  0.22553600  1
  O  O1  1  0.57301700  0.70308900  0.77446400  1
  O  O2  1  0.07137500  0.20144700  0.77446400  1
  O  O3  1  0.20144700  0.42698300  0.13007200  1
  O  O4  1  0.92862500  0.79855300  0.22553600  1
  O  O5  1  0.79855300  0.57301700  0.86992800  1
  O  O6  1  0.29691100  0.07137500  0.86992800  1
  O  O7  1  0.70308900  0.92862500  0.13007200  1
  O  O8  1  0.39509800  0.50458400  0.40548400  1
  O  O9  1  0.60490200  0.49541600  0.59451600  1
  O  O10  1  0.09910100  0.98961500  0.59451600  1
  O  O11  1  0.98961500  0.39509800  0.89051400  1
  O  O12  1  0.90089900  0.01038500  0.40548400  1
  O  O13  1  0.01038500  0.60490200  0.10948600  1
  O  O14  1  0.50458400  0.09910100  0.10948600  1
  O  O15  1  0.49541600  0.90089900  0.89051400  1
  O  O16  1  0.50000000  0.50000000  0.00000000  1
  O  O17  1  0.37247400  0.03742400  0.40989800  1
  O  O18  1  0.62752600  0.96257600  0.59010200  1
  O  O19  1  0.96257600  0.37247400  0.33505000  1
  O  O20  1  0.03742400  0.62752600  0.66495000  1
loop_
_geom_bond_atom_site_label_1
_geom_bond_atom_site_label_2
_geom_bond_distance
_geom_bond_site_symmetry_2
Ba0 O20 2.684304 1_555
Ba0 O19 2.766277 1_455
Ba0 O18 2.889392 1_555
Ba0 O18 2.889392 1_445
Ba0 O2 2.940395 1_555
Ba0 O1 2.940395 1_555
Ba0 O8 3.210995 1_555
Ba0 O12 3.210998 1_455
Ba0 O15 3.287255 1_555
Ba0 O11 3.287255 1_455
Ba1 O19 2.684304 1_555
Ba1 O20 2.766277 1_655
Ba1 O17 2.889392 1_555
Ba1 O17 2.889392 1_665
Ba1 O0 2.940395 1_555
Ba1 O4 2.940395 1_555
Ba1 O9 3.210995 1_555
Ba1 O10 3.210998 1_655
Ba1 O14 3.287255 1_555
Ba1 O13 3.287255 1_655
Ba2 O17 2.684304 1_555
Ba2 O18 2.766277 1_545
Ba2 O20 2.889392 1_655
Ba2 O20 2.889392 1_545
Ba2 O5 2.940395 1_555
Ba2 O6 2.940395 1_555
Ba2 O11 3.211003 1_555
Ba2 O15 3.211003 1_545
Ba2 O10 3.287256 1_545
Ba2 O9 3.287259 1_555
Ba3 O18 2.684304 1_555
Ba3 O17 2.766277 1_565
Ba3 O19 2.889392 1_565
Ba3 O19 2.889392 1_455
Ba3 O3 2.940395 1_555
Ba3 O7 2.940395 1_555
Ba3 O13 3.211003 1_555
Ba3 O14 3.211003 1_565
Ba3 O12 3.287256 1_565
Ba3 O8 3.287259 1_555
Ba4 O16 2.885020 1_555
Ba4 O16 2.885020 1_445
Ba4 O7 2.940734 1_445
Ba4 O4 2.940734 1_445
Ba4 O0 2.940734 1_555
Ba4 O3 2.940734 1_555
Ba4 O5 2.940734 1_444
Ba4 O6 2.940734 1_554
Ba4 O1 2.940734 1_444
Ba4 O2 2.940734 1_554
O0 Zn3 2.147351 1_545
O0 Y1 2.321480 1_555
O0 Y4 2.410432 1_555
O0 Y2 2.435721 1_555
O1 Zn2 2.147351 1_565
O1 Y0 2.321480 1_555
O1 Y5 2.410432 1_555
O1 Y3 2.435721 1_555
O2 Zn2 2.147351 1_455
O2 Y0 2.321480 1_555
O2 Y5 2.410435 1_445
O2 Y3 2.435721 1_555
O3 Zn0 2.147351 1_555
O3 Y3 2.321480 1_554
O3 Y6 2.410441 1_455
O3 Y1 2.435721 1_555
O4 Zn3 2.147351 1_655
O4 Y1 2.321480 1_555
O4 Y4 2.410435 1_665
O4 Y2 2.435721 1_555
O5 Zn1 2.147351 1_555
O5 Y2 2.321480 1_556
O5 Y7 2.410441 1_655
O5 Y0 2.435721 1_555
O6 Zn1 2.147351 1_445
O6 Y2 2.321480 1_556
O6 Y7 2.410441 1_545
O6 Y0 2.435721 1_555
O7 Zn0 2.147351 1_665
O7 Y3 2.321480 1_554
O7 Y6 2.410441 1_565
O7 Y1 2.435721 1_555
O8 Zn0 2.072585 1_555
O8 Y5 2.310381 1_555
O8 Y1 2.321934 1_555
O8 Y4 2.346241 1_555
O9 Zn1 2.072585 1_555
O9 Y4 2.310381 1_555
O9 Y0 2.321934 1_555
O9 Y5 2.346241 1_555
O10 Zn1 2.072589 1_455
O10 Y4 2.310381 1_565
O10 Y0 2.321930 1_565
O10 Y5 2.346248 1_455
O11 Zn2 2.072582 1_555
O11 Y7 2.310381 1_655
O11 Y3 2.321925 1_655
O11 Y6 2.346245 1_556
O12 Zn0 2.072589 1_655
O12 Y5 2.310381 1_545
O12 Y1 2.321930 1_545
O12 Y4 2.346248 1_655
O13 Zn3 2.072582 1_555
O13 Y6 2.310381 1_455
O13 Y2 2.321925 1_455
O13 Y7 2.346245 1_554
O14 Zn3 2.072582 1_545
O14 Y6 2.310381 1_555
O14 Y2 2.321925 1_555
O14 Y7 2.346245 1_544
O15 Zn2 2.072582 1_565
O15 Y7 2.310381 1_555
O15 Y3 2.321925 1_555
O15 Y6 2.346245 1_566
O16 Y1 2.335239 1_555
O16 Y2 2.335239 1_555
O16 Y3 2.335239 1_554
O16 Y0 2.335239 1_554
O17 Zn3 2.008571 1_545
O17 Y4 2.519709 1_555
O18 Zn2 2.008571 1_565
O18 Y5 2.519709 1_555
O19 Zn0 2.008571 1_655
O19 Y6 2.519710 1_555
O20 Zn1 2.008571 1_455
O20 Y7 2.519710 1_555
