# generated using pymatgen
data_Ho3Ir2
_symmetry_space_group_name_H-M   'P 1'
_cell_length_a   14.87129137
_cell_length_b   14.87129137
_cell_length_c   14.87129137
_cell_angle_alpha   135.67832401
_cell_angle_beta   135.67832401
_cell_angle_gamma   64.47804528
_symmetry_Int_Tables_number   1
_chemical_formula_structural   Ho3Ir2
_chemical_formula_sum   'Ho42 Ir28'
_cell_volume   1583.25407369
_cell_formula_units_Z   14
loop_
 _symmetry_equiv_pos_site_id
 _symmetry_equiv_pos_as_xyz
  1  'x, y, z'
loop_
 _atom_site_type_symbol
 _atom_site_label
 _atom_site_symmetry_multiplicity
 _atom_site_fract_x
 _atom_site_fract_y
 _atom_site_fract_z
 _atom_site_occupancy
  Ho  Ho0  1  0.63224900  0.50389400  0.27927800  1
  Ho  Ho1  1  0.22461700  0.35297100  0.72072200  1
  Ho  Ho2  1  0.13224900  0.85297100  0.12835400  1
  Ho  Ho3  1  0.72461700  0.00389400  0.87164600  1
  Ho  Ho4  1  0.35297100  0.63224900  0.12835400  1
  Ho  Ho5  1  0.50389400  0.22461700  0.87164600  1
  Ho  Ho6  1  0.00389400  0.13224900  0.27927800  1
  Ho  Ho7  1  0.85297100  0.72461700  0.72072200  1
  Ho  Ho8  1  0.36775100  0.49610600  0.72072200  1
  Ho  Ho9  1  0.77538300  0.64702900  0.27927800  1
  Ho  Ho10  1  0.86775100  0.14702900  0.87164600  1
  Ho  Ho11  1  0.27538300  0.99610600  0.12835400  1
  Ho  Ho12  1  0.64702900  0.36775100  0.87164600  1
  Ho  Ho13  1  0.49610600  0.77538300  0.12835400  1
  Ho  Ho14  1  0.99610600  0.86775100  0.72072200  1
  Ho  Ho15  1  0.14702900  0.27538300  0.27927800  1
  Ho  Ho16  1  0.38578700  0.51679700  0.29014200  1
  Ho  Ho17  1  0.22665500  0.09564500  0.70985800  1
  Ho  Ho18  1  0.88578700  0.59564500  0.86899000  1
  Ho  Ho19  1  0.72665500  0.01679700  0.13101000  1
  Ho  Ho20  1  0.09564500  0.38578700  0.86899000  1
  Ho  Ho21  1  0.51679700  0.22665500  0.13101000  1
  Ho  Ho22  1  0.01679700  0.88578700  0.29014200  1
  Ho  Ho23  1  0.59564500  0.72665500  0.70985800  1
  Ho  Ho24  1  0.61421300  0.48320300  0.70985800  1
  Ho  Ho25  1  0.77334500  0.90435500  0.29014200  1
  Ho  Ho26  1  0.11421300  0.40435500  0.13101000  1
  Ho  Ho27  1  0.27334500  0.98320300  0.86899000  1
  Ho  Ho28  1  0.90435500  0.61421300  0.13101000  1
  Ho  Ho29  1  0.48320300  0.77334500  0.86899000  1
  Ho  Ho30  1  0.98320300  0.11421300  0.70985800  1
  Ho  Ho31  1  0.40435500  0.27334500  0.29014200  1
  Ho  Ho32  1  0.85027900  0.35027900  0.20055700  1
  Ho  Ho33  1  0.14972100  0.64972100  0.79944300  1
  Ho  Ho34  1  0.35027900  0.14972100  0.50000000  1
  Ho  Ho35  1  0.64972100  0.85027900  0.50000000  1
  Ho  Ho36  1  0.38772800  0.88772800  0.50000000  1
  Ho  Ho37  1  0.88772800  0.38772800  0.50000000  1
  Ho  Ho38  1  0.61227200  0.11227200  0.50000000  1
  Ho  Ho39  1  0.11227200  0.61227200  0.50000000  1
  Ho  Ho40  1  0.25000000  0.75000000  0.50000000  1
  Ho  Ho41  1  0.75000000  0.25000000  0.50000000  1
  Ir  Ir0  1  0.71482300  0.21482300  0.14166100  1
  Ir  Ir1  1  0.07316200  0.57316200  0.85833900  1
  Ir  Ir2  1  0.21482300  0.07316200  0.50000000  1
  Ir  Ir3  1  0.57316200  0.71482300  0.50000000  1
  Ir  Ir4  1  0.28517700  0.78517700  0.85833900  1
  Ir  Ir5  1  0.92683800  0.42683800  0.14166100  1
  Ir  Ir6  1  0.78517700  0.92683800  0.50000000  1
  Ir  Ir7  1  0.42683800  0.28517700  0.50000000  1
  Ir  Ir8  1  0.46553500  0.96553500  0.80808000  1
  Ir  Ir9  1  0.15745500  0.65745500  0.19192000  1
  Ir  Ir10  1  0.96553500  0.15745500  0.50000000  1
  Ir  Ir11  1  0.65745500  0.46553500  0.50000000  1
  Ir  Ir12  1  0.53446500  0.03446500  0.19192000  1
  Ir  Ir13  1  0.84254500  0.34254500  0.80808000  1
  Ir  Ir14  1  0.03446500  0.84254500  0.50000000  1
  Ir  Ir15  1  0.34254500  0.53446500  0.50000000  1
  Ir  Ir16  1  0.59667600  0.09667600  0.69335100  1
  Ir  Ir17  1  0.40332400  0.90332400  0.30664900  1
  Ir  Ir18  1  0.09667600  0.40332400  0.50000000  1
  Ir  Ir19  1  0.90332400  0.59667600  0.50000000  1
  Ir  Ir20  1  0.36607400  0.36607400  0.00000000  1
  Ir  Ir21  1  0.86607400  0.86607400  0.00000000  1
  Ir  Ir22  1  0.63392600  0.63392600  0.00000000  1
  Ir  Ir23  1  0.13392600  0.13392600  0.00000000  1
  Ir  Ir24  1  0.50000000  0.50000000  0.00000000  1
  Ir  Ir25  1  0.00000000  0.00000000  0.00000000  1
  Ir  Ir26  1  0.25000000  0.25000000  0.00000000  1
  Ir  Ir27  1  0.75000000  0.75000000  0.00000000  1
loop_
_geom_bond_atom_site_label_1
_geom_bond_atom_site_label_2
_geom_bond_distance
_geom_bond_site_symmetry_2
Ho0 Ir19 2.882397 1_555
Ho0 Ir3 2.899172 1_555
Ho0 Ir20 2.899399 1_555
Ho0 Ir24 3.031018 1_555
Ho0 Ir0 3.261145 1_555
Ho0 Ir11 3.460438 1_555
Ho1 Ir18 2.882393 1_555
Ho1 Ir2 2.899170 1_555
Ho1 Ir20 2.899404 1_556
Ho1 Ir24 3.031007 1_556
Ho1 Ir1 3.261156 1_555
Ho1 Ir10 3.460449 1_455
Ho2 Ir17 2.882389 1_555
Ho2 Ir1 2.899170 1_554
Ho2 Ir21 2.899404 1_455
Ho2 Ir25 3.031007 1_565
Ho2 Ir2 3.261156 1_565
Ho2 Ir9 3.460449 1_555
Ho3 Ir16 2.882417 1_555
Ho3 Ir0 2.899171 1_556
Ho3 Ir21 2.899391 1_546
Ho3 Ir25 3.031009 1_656
Ho3 Ir3 3.261150 1_545
Ho3 Ir8 3.460443 1_545
Ho4 Ir17 2.882389 1_555
Ho4 Ir1 2.899170 1_554
Ho4 Ir20 2.899404 1_555
Ho4 Ir24 3.031007 1_555
Ho4 Ir3 3.261156 1_555
Ho4 Ir9 3.460449 1_555
Ho5 Ir16 2.882417 1_555
Ho5 Ir0 2.899171 1_556
Ho5 Ir20 2.899391 1_556
Ho5 Ir24 3.031009 1_556
Ho5 Ir2 3.261150 1_555
Ho5 Ir8 3.460443 1_545
Ho6 Ir18 2.882397 1_555
Ho6 Ir2 2.899172 1_555
Ho6 Ir21 2.899399 1_445
Ho6 Ir25 3.031018 1_555
Ho6 Ir0 3.261145 1_455
Ho6 Ir10 3.460438 1_455
Ho7 Ir19 2.882393 1_555
Ho7 Ir3 2.899170 1_555
Ho7 Ir21 2.899404 1_556
Ho7 Ir25 3.031007 1_666
Ho7 Ir1 3.261156 1_655
Ho7 Ir11 3.460449 1_555
Ho8 Ir18 2.882397 1_555
Ho8 Ir7 2.899172 1_555
Ho8 Ir22 2.899399 1_556
Ho8 Ir24 3.031018 1_556
Ho8 Ir4 3.261145 1_555
Ho8 Ir15 3.460438 1_555
Ho9 Ir19 2.882393 1_555
Ho9 Ir6 2.899170 1_555
Ho9 Ir22 2.899404 1_555
Ho9 Ir24 3.031007 1_555
Ho9 Ir5 3.261156 1_555
Ho9 Ir14 3.460449 1_655
Ho10 Ir16 2.882389 1_555
Ho10 Ir5 2.899170 1_556
Ho10 Ir23 2.899404 1_656
Ho10 Ir25 3.031007 1_656
Ho10 Ir6 3.261156 1_545
Ho10 Ir13 3.460449 1_555
Ho11 Ir17 2.882417 1_555
Ho11 Ir4 2.899171 1_554
Ho11 Ir23 2.899391 1_565
Ho11 Ir25 3.031009 1_565
Ho11 Ir7 3.261150 1_565
Ho11 Ir12 3.460443 1_565
Ho12 Ir16 2.882389 1_555
Ho12 Ir5 2.899170 1_556
Ho12 Ir22 2.899404 1_556
Ho12 Ir24 3.031007 1_556
Ho12 Ir7 3.261156 1_555
Ho12 Ir13 3.460449 1_555
Ho13 Ir17 2.882417 1_555
Ho13 Ir4 2.899171 1_554
Ho13 Ir22 2.899391 1_555
Ho13 Ir24 3.031009 1_555
Ho13 Ir6 3.261150 1_555
Ho13 Ir12 3.460443 1_565
Ho14 Ir19 2.882397 1_555
Ho14 Ir6 2.899172 1_555
Ho14 Ir23 2.899399 1_666
Ho14 Ir25 3.031018 1_666
Ho14 Ir4 3.261145 1_655
Ho14 Ir14 3.460438 1_655
Ho15 Ir18 2.882393 1_555
Ho15 Ir7 2.899170 1_555
Ho15 Ir23 2.899404 1_555
Ho15 Ir25 3.031007 1_555
Ho15 Ir5 3.261156 1_455
Ho15 Ir15 3.460449 1_555
Ho16 Ir3 2.766664 1_555
Ho16 Ir26 2.894577 1_555
Ho16 Ir20 2.940304 1_555
Ho16 Ir9 3.032083 1_555
Ho16 Ir11 3.058155 1_555
Ho16 Ir15 3.431479 1_555
Ho17 Ir2 2.766664 1_555
Ho17 Ir26 2.894577 1_556
Ho17 Ir20 2.940304 1_556
Ho17 Ir8 3.032083 1_545
Ho17 Ir10 3.058155 1_455
Ho17 Ir14 3.431479 1_545
Ho18 Ir1 2.766664 1_655
Ho18 Ir27 2.894577 1_556
Ho18 Ir21 2.940304 1_556
Ho18 Ir11 3.032083 1_555
Ho18 Ir9 3.058155 1_656
Ho18 Ir13 3.431479 1_555
Ho19 Ir0 2.766664 1_555
Ho19 Ir27 2.894577 1_545
Ho19 Ir21 2.940304 1_545
Ho19 Ir10 3.032083 1_555
Ho19 Ir8 3.058155 1_544
Ho19 Ir12 3.431479 1_555
Ho20 Ir1 2.766664 1_555
Ho20 Ir26 2.894577 1_556
Ho20 Ir20 2.940304 1_556
Ho20 Ir10 3.032083 1_455
Ho20 Ir9 3.058155 1_556
Ho20 Ir13 3.431479 1_455
Ho21 Ir0 2.766664 1_555
Ho21 Ir26 2.894577 1_555
Ho21 Ir20 2.940304 1_555
Ho21 Ir11 3.032083 1_555
Ho21 Ir8 3.058155 1_544
Ho21 Ir12 3.431479 1_555
Ho22 Ir2 2.766664 1_565
Ho22 Ir27 2.894577 1_455
Ho22 Ir21 2.940304 1_455
Ho22 Ir9 3.032083 1_555
Ho22 Ir10 3.058155 1_465
Ho22 Ir14 3.431479 1_555
Ho23 Ir3 2.766664 1_555
Ho23 Ir27 2.894577 1_556
Ho23 Ir21 2.940304 1_556
Ho23 Ir8 3.032083 1_555
Ho23 Ir11 3.058155 1_555
Ho23 Ir15 3.431479 1_555
Ho24 Ir7 2.766664 1_555
Ho24 Ir27 2.894577 1_556
Ho24 Ir22 2.940304 1_556
Ho24 Ir13 3.032083 1_555
Ho24 Ir15 3.058155 1_555
Ho24 Ir11 3.431479 1_555
Ho25 Ir6 2.766664 1_555
Ho25 Ir27 2.894577 1_555
Ho25 Ir22 2.940304 1_555
Ho25 Ir12 3.032083 1_565
Ho25 Ir14 3.058155 1_655
Ho25 Ir10 3.431479 1_565
Ho26 Ir5 2.766664 1_455
Ho26 Ir26 2.894577 1_555
Ho26 Ir23 2.940304 1_555
Ho26 Ir15 3.032083 1_555
Ho26 Ir13 3.058155 1_454
Ho26 Ir9 3.431479 1_555
Ho27 Ir4 2.766664 1_555
Ho27 Ir26 2.894577 1_566
Ho27 Ir23 2.940304 1_566
Ho27 Ir14 3.032083 1_555
Ho27 Ir12 3.058155 1_566
Ho27 Ir8 3.431479 1_555
Ho28 Ir5 2.766664 1_555
Ho28 Ir27 2.894577 1_555
Ho28 Ir22 2.940304 1_555
Ho28 Ir14 3.032083 1_655
Ho28 Ir13 3.058155 1_554
Ho28 Ir9 3.431479 1_655
Ho29 Ir4 2.766664 1_555
Ho29 Ir27 2.894577 1_556
Ho29 Ir22 2.940304 1_556
Ho29 Ir15 3.032083 1_555
Ho29 Ir12 3.058155 1_566
Ho29 Ir8 3.431479 1_555
Ho30 Ir6 2.766664 1_545
Ho30 Ir26 2.894577 1_656
Ho30 Ir23 2.940304 1_656
Ho30 Ir13 3.032083 1_555
Ho30 Ir14 3.058155 1_645
Ho30 Ir10 3.431479 1_555
Ho31 Ir7 2.766664 1_555
Ho31 Ir26 2.894577 1_555
Ho31 Ir23 2.940304 1_555
Ho31 Ir12 3.032083 1_555
Ho31 Ir15 3.058155 1_555
Ho31 Ir11 3.431479 1_555
Ho32 Ir5 2.707456 1_555
Ho32 Ir0 2.707481 1_555
Ho32 Ir18 2.827702 1_655
Ho32 Ir19 2.827702 1_555
Ho33 Ir1 2.707456 1_555
Ho33 Ir4 2.707481 1_555
Ho33 Ir18 2.827702 1_555
Ho33 Ir19 2.827702 1_455
Ho34 Ir7 2.707470 1_555
Ho34 Ir2 2.707470 1_555
Ho34 Ir16 2.827691 1_555
Ho34 Ir17 2.827691 1_545
Ho35 Ir6 2.707470 1_555
Ho35 Ir3 2.707470 1_555
Ho35 Ir16 2.827691 1_565
Ho35 Ir17 2.827691 1_555
Ho36 Ir2 2.847114 1_565
Ho36 Ir3 2.847114 1_555
Ho36 Ir9 3.106655 1_555
Ho36 Ir8 3.106655 1_555
Ho36 Ir17 3.214064 1_555
Ho36 Ir16 3.214086 1_565
Ho37 Ir1 2.847114 1_655
Ho37 Ir0 2.847114 1_555
Ho37 Ir11 3.106655 1_555
Ho37 Ir10 3.106655 1_555
Ho37 Ir18 3.214078 1_655
Ho37 Ir19 3.214078 1_555
Ho38 Ir7 2.847114 1_555
Ho38 Ir6 2.847114 1_545
Ho38 Ir12 3.106655 1_555
Ho38 Ir13 3.106655 1_555
Ho38 Ir16 3.214064 1_555
Ho38 Ir17 3.214086 1_545
Ho39 Ir4 2.847114 1_555
Ho39 Ir5 2.847114 1_455
Ho39 Ir15 3.106655 1_555
Ho39 Ir14 3.106655 1_555
Ho39 Ir18 3.214078 1_555
Ho39 Ir19 3.214078 1_455
Ho40 Ir8 2.892517 1_555
Ho40 Ir9 2.892517 1_555
Ho40 Ir15 2.892517 1_555
Ho40 Ir14 2.892517 1_555
Ho41 Ir10 2.892517 1_555
Ho41 Ir11 2.892517 1_555
Ho41 Ir13 2.892517 1_555
Ho41 Ir12 2.892517 1_555
