# generated using pymatgen
data_KNa2As
_symmetry_space_group_name_H-M   'P 1'
_cell_length_a   13.25982763
_cell_length_b   13.54895911
_cell_length_c   13.54895839
_cell_angle_alpha   59.70276209
_cell_angle_beta   60.70343931
_cell_angle_gamma   60.70343917
_symmetry_Int_Tables_number   1
_chemical_formula_structural   KNa2As
_chemical_formula_sum   'K1 Na2 As1'
_cell_volume   1735.26692035
_cell_formula_units_Z   1
loop_
 _symmetry_equiv_pos_site_id
 _symmetry_equiv_pos_as_xyz
  1  'x, y, z'
loop_
 _atom_site_type_symbol
 _atom_site_label
 _atom_site_symmetry_multiplicity
 _atom_site_fract_x
 _atom_site_fract_y
 _atom_site_fract_z
 _atom_site_occupancy
  K  K0  1  0.00000000  0.00000000  0.00000000  1
  Na  Na0  1  0.70733755  1.00000000  0.00000000  1
  Na  Na1  1  0.29266245  0.00000000  1.00000000  1
  As  As0  1  0.50000000  0.00000000  0.00000000  1
loop_
_geom_bond_atom_site_label_1
_geom_bond_atom_site_label_2
_geom_bond_distance
_geom_bond_site_symmetry_2
K0 Na1 3.880654 1_554
K0 Na0 3.880654 1_445
As0 Na1 2.749260 1_554
As0 Na0 2.749260 1_545
