# generated using pymatgen
data_Ag8GeSe6
_symmetry_space_group_name_H-M   'P 1'
_cell_length_a   7.74756517
_cell_length_b   7.95990166
_cell_length_c   10.89821378
_cell_angle_alpha   90.00000000
_cell_angle_beta   90.00000000
_cell_angle_gamma   90.00000000
_symmetry_Int_Tables_number   1
_chemical_formula_structural   Ag8GeSe6
_chemical_formula_sum   'Ag16 Ge2 Se12'
_cell_volume   672.09128382
_cell_formula_units_Z   2
loop_
 _symmetry_equiv_pos_site_id
 _symmetry_equiv_pos_as_xyz
  1  'x, y, z'
loop_
 _atom_site_type_symbol
 _atom_site_label
 _atom_site_symmetry_multiplicity
 _atom_site_fract_x
 _atom_site_fract_y
 _atom_site_fract_z
 _atom_site_occupancy
  Ag  Ag0  1  0.27748941  0.00000000  0.47869294  1
  Ag  Ag1  1  0.72251059  0.50000000  0.97869294  1
  Ag  Ag2  1  0.84264095  0.20054151  0.15533638  1
  Ag  Ag3  1  0.15735905  0.29945849  0.65533638  1
  Ag  Ag4  1  0.15735905  0.70054151  0.65533638  1
  Ag  Ag5  1  0.84264095  0.79945849  0.15533638  1
  Ag  Ag6  1  0.46270278  0.19610390  0.26908568  1
  Ag  Ag7  1  0.53729722  0.30389610  0.76908568  1
  Ag  Ag8  1  0.53729722  0.69610390  0.76908568  1
  Ag  Ag9  1  0.46270278  0.80389610  0.26908568  1
  Ag  Ag10  1  0.89596625  0.21028199  0.86457825  1
  Ag  Ag11  1  0.10403375  0.28971801  0.36457825  1
  Ag  Ag12  1  0.10403375  0.71028199  0.36457825  1
  Ag  Ag13  1  0.89596625  0.78971801  0.86457825  1
  Ag  Ag14  1  0.61888542  0.50000000  0.54414983  1
  Ag  Ag15  1  0.38111458  0.00000000  0.04414983  1
  Ge  Ge0  1  0.75105893  0.00000000  0.52037268  1
  Ge  Ge1  1  0.24894107  0.50000000  0.02037268  1
  Se  Se0  1  0.75022784  0.75261768  0.40016956  1
  Se  Se1  1  0.24977216  0.74738232  0.90016956  1
  Se  Se2  1  0.49046117  0.50000000  0.15104911  1
  Se  Se3  1  0.50953883  0.00000000  0.65104911  1
  Se  Se4  1  0.00379232  0.50000000  0.15091155  1
  Se  Se5  1  0.99620768  0.00000000  0.65091155  1
  Se  Se6  1  0.81640181  0.50000000  0.74457157  1
  Se  Se7  1  0.18359819  0.00000000  0.24457157  1
  Se  Se8  1  0.28690926  0.50000000  0.49571257  1
  Se  Se9  1  0.71309074  0.00000000  0.99571257  1
  Se  Se10  1  0.75022784  0.24738232  0.40016956  1
  Se  Se11  1  0.24977216  0.25261768  0.90016956  1
loop_
_geom_bond_atom_site_label_1
_geom_bond_atom_site_label_2
_geom_bond_distance
_geom_bond_site_symmetry_2
Ag0 Se3 2.600085 1_555
Ag0 Se7 2.653173 1_555
Ag0 Se5 2.876071 1_455
Ag1 Se2 2.600085 1_556
Ag1 Se6 2.653173 1_555
Ag1 Se4 2.876071 1_656
Ag2 Se9 2.565505 1_554
Ag2 Se4 2.691280 1_655
Ag2 Se10 2.787681 1_555
Ag2 Se7 3.236031 1_655
Ag3 Se8 2.565505 1_555
Ag3 Se5 2.691280 1_455
Ag3 Se11 2.787681 1_555
Ag3 Se6 3.236031 1_455
Ag4 Se8 2.565505 1_555
Ag4 Se5 2.691280 1_465
Ag4 Se1 2.787681 1_555
Ag4 Se6 3.236031 1_455
Ag5 Se9 2.565505 1_564
Ag5 Se4 2.691280 1_655
Ag5 Se0 2.787681 1_555
Ag5 Se7 3.236031 1_665
Ag6 Se10 2.677636 1_555
Ag6 Se7 2.680277 1_555
Ag6 Se2 2.748185 1_555
Ag7 Se11 2.677636 1_555
Ag7 Se6 2.680277 1_555
Ag7 Se3 2.748185 1_555
Ag8 Se1 2.677636 1_555
Ag8 Se6 2.680277 1_555
Ag8 Se3 2.748185 1_565
Ag9 Se0 2.677636 1_555
Ag9 Se7 2.680277 1_565
Ag9 Se2 2.748185 1_555
Ag10 Se9 2.617544 1_555
Ag10 Se6 2.721893 1_555
Ag10 Se11 2.788876 1_655
Ag10 Se5 2.971051 1_555
Ag11 Se8 2.617544 1_555
Ag11 Se7 2.721893 1_555
Ag11 Se10 2.788876 1_455
Ag11 Se4 2.971051 1_555
Ag12 Se8 2.617544 1_555
Ag12 Se7 2.721893 1_565
Ag12 Se0 2.788876 1_455
Ag12 Se4 2.971051 1_555
Ag13 Se9 2.617544 1_565
Ag13 Se6 2.721893 1_555
Ag13 Se1 2.788876 1_655
Ag13 Se5 2.971051 1_565
Ag14 Se8 2.625619 1_555
Ag14 Se6 2.666951 1_555
Ag14 Se10 2.746089 1_555
Ag14 Se0 2.746089 1_555
Ag15 Se9 2.625619 1_554
Ag15 Se7 2.666951 1_555
Ag15 Se1 2.746089 1_544
Ag15 Se11 2.746089 1_554
Ge0 Se3 2.351497 1_555
Ge0 Se0 2.365089 1_545
Ge0 Se10 2.365089 1_555
Ge0 Se5 2.373029 1_555
Ge1 Se2 2.351497 1_555
Ge1 Se11 2.365089 1_554
Ge1 Se1 2.365089 1_554
Ge1 Se4 2.373029 1_555
