# generated using pymatgen
data_Mg3Si4
_symmetry_space_group_name_H-M   'P 1'
_cell_length_a   4.30317400
_cell_length_b   7.96052700
_cell_length_c   7.96567712
_cell_angle_alpha   70.09924725
_cell_angle_beta   90.00000000
_cell_angle_gamma   90.00000000
_symmetry_Int_Tables_number   1
_chemical_formula_structural   Mg3Si4
_chemical_formula_sum   'Mg6 Si8'
_cell_volume   256.57380374
_cell_formula_units_Z   2
loop_
 _symmetry_equiv_pos_site_id
 _symmetry_equiv_pos_as_xyz
  1  'x, y, z'
loop_
 _atom_site_type_symbol
 _atom_site_label
 _atom_site_symmetry_multiplicity
 _atom_site_fract_x
 _atom_site_fract_y
 _atom_site_fract_z
 _atom_site_occupancy
  Mg  Mg0  1  0.50000000  0.87562500  0.46841400  1
  Mg  Mg1  1  0.00000000  0.89580700  0.16768200  1
  Mg  Mg2  1  0.00000000  0.52313400  0.07771000  1
  Mg  Mg3  1  0.50000000  0.20089500  0.07095100  1
  Mg  Mg4  1  0.00000000  0.51155300  0.49341500  1
  Mg  Mg5  1  0.50000000  0.88168100  0.87231800  1
  Si  Si0  1  0.50000000  0.33527400  0.37354300  1
  Si  Si1  1  0.00000000  0.17535400  0.31939300  1
  Si  Si2  1  0.00000000  0.69391100  0.72108300  1
  Si  Si3  1  0.50000000  0.53144300  0.80182000  1
  Si  Si4  1  0.50000000  0.66419600  0.23728200  1
  Si  Si5  1  0.50000000  0.28841000  0.68783300  1
  Si  Si6  1  0.00000000  0.00495700  0.62957000  1
  Si  Si7  1  0.00000000  0.16430100  0.83230500  1
loop_
_geom_bond_atom_site_label_1
_geom_bond_atom_site_label_2
_geom_bond_distance
_geom_bond_site_symmetry_2
Mg0 Si6 2.870016 1_565
Mg0 Si6 2.870016 1_665
Mg0 Si4 2.886538 1_555
Mg0 Si2 2.964900 1_655
Mg0 Si2 2.964900 1_555
Mg0 Si3 3.099423 1_555
Mg0 Si1 3.131011 1_665
Mg0 Si1 3.131011 1_565
Mg1 Si4 2.764092 1_455
Mg1 Si4 2.764092 1_555
Mg1 Si7 2.796065 1_564
Mg1 Si1 2.871131 1_565
Mg2 Si2 2.699818 1_554
Mg2 Si1 2.782527 1_555
Mg2 Si4 2.911650 1_455
Mg2 Si4 2.911650 1_555
Mg2 Si3 3.060132 1_454
Mg2 Si3 3.060132 1_554
Mg2 Si0 3.165398 1_555
Mg2 Si0 3.165398 1_455
Mg3 Si3 2.771190 1_554
Mg3 Si1 2.883264 1_555
Mg3 Si1 2.883264 1_655
Mg3 Si5 2.889877 1_554
Mg3 Si7 2.950406 1_654
Mg3 Si7 2.950406 1_554
Mg3 Si0 2.951178 1_555
Mg4 Si2 2.681134 1_555
Mg4 Si5 2.882754 1_455
Mg4 Si5 2.882754 1_555
Mg4 Si0 2.902149 1_555
Mg4 Si0 2.902149 1_455
Mg4 Si4 2.929295 1_455
Mg4 Si4 2.929295 1_555
Mg4 Si7 3.138229 1_555
Mg5 Si4 2.832418 1_556
Mg5 Si6 2.835407 1_565
Mg5 Si6 2.835407 1_665
Mg5 Si3 3.025662 1_555
Mg5 Si7 3.050304 1_565
Mg5 Si7 3.050304 1_665
Mg5 Si5 3.066522 1_565
Mg5 Si2 3.088813 1_655
Mg5 Si2 3.088813 1_555
Si0 Si5 2.402294 1_555
Si0 Si4 2.469673 1_555
Si0 Si1 2.609571 1_555
Si0 Si1 2.609571 1_655
Si1 Si6 2.379712 1_555
Si2 Si6 2.331010 1_565
Si2 Si3 2.479795 1_455
Si2 Si3 2.479795 1_555
Si3 Si5 2.400684 1_555
Si5 Si7 2.481081 1_655
Si5 Si7 2.481081 1_555
Si6 Si7 2.368867 1_555
