# generated using pymatgen
data_VCl3O4
_symmetry_space_group_name_H-M   'P 1'
_cell_length_a   7.41705043
_cell_length_b   7.41705043
_cell_length_c   9.97629862
_cell_angle_alpha   58.32021693
_cell_angle_beta   58.32021693
_cell_angle_gamma   40.39910850
_symmetry_Int_Tables_number   1
_chemical_formula_structural   VCl3O4
_chemical_formula_sum   'V2 Cl6 O8'
_cell_volume   294.79061793
_cell_formula_units_Z   2
loop_
 _symmetry_equiv_pos_site_id
 _symmetry_equiv_pos_as_xyz
  1  'x, y, z'
loop_
 _atom_site_type_symbol
 _atom_site_label
 _atom_site_symmetry_multiplicity
 _atom_site_fract_x
 _atom_site_fract_y
 _atom_site_fract_z
 _atom_site_occupancy
  V  V0  1  0.00000000  0.00000000  0.00000000  1
  V  V1  1  0.00000000  0.00000000  0.50000000  1
  Cl  Cl0  1  0.81292000  0.81292000  0.24488500  1
  Cl  Cl1  1  0.18708000  0.18708000  0.75511500  1
  Cl  Cl2  1  0.83283500  0.83283500  0.74040200  1
  Cl  Cl3  1  0.16716500  0.16716500  0.25959800  1
  Cl  Cl4  1  0.51450400  0.51450400  0.69356900  1
  Cl  Cl5  1  0.48549600  0.48549600  0.30643100  1
  O  O0  1  0.28640300  0.80719600  0.08659600  1
  O  O1  1  0.80719600  0.28640300  0.08659600  1
  O  O2  1  0.71359700  0.19280400  0.91340400  1
  O  O3  1  0.19280400  0.71359700  0.91340400  1
  O  O4  1  0.32868600  0.80524300  0.56568600  1
  O  O5  1  0.80524300  0.32868600  0.56568600  1
  O  O6  1  0.67131400  0.19475700  0.43431400  1
  O  O7  1  0.19475700  0.67131400  0.43431400  1
loop_
_geom_bond_atom_site_label_1
_geom_bond_atom_site_label_2
_geom_bond_distance
_geom_bond_site_symmetry_2
Cl0 V0 2.372892 1_665
Cl1 V0 2.372892 1_556
Cl2 V1 2.218404 1_665
Cl3 V1 2.218404 1_555
Cl4 O4 1.614875 1_555
Cl4 O5 1.614875 1_555
Cl4 O3 2.285253 1_555
Cl4 O2 2.285253 1_555
Cl5 O7 1.614875 1_555
Cl5 O6 1.614875 1_555
Cl5 O0 2.285253 1_555
Cl5 O1 2.285253 1_555
O0 V0 1.818504 1_565
O1 V0 1.818504 1_655
O2 V0 1.818504 1_656
O3 V0 1.818504 1_566
O4 V1 1.944056 1_565
O5 V1 1.944056 1_655
O6 V1 1.944056 1_655
O7 V1 1.944056 1_565
