# generated using pymatgen
data_YMg14ZnO16
_symmetry_space_group_name_H-M   'P 1'
_cell_length_a   8.71697600
_cell_length_b   8.71697600
_cell_length_c   4.35072100
_cell_angle_alpha   90.00000000
_cell_angle_beta   90.00000000
_cell_angle_gamma   90.00000000
_symmetry_Int_Tables_number   1
_chemical_formula_structural   YMg14ZnO16
_chemical_formula_sum   'Y1 Mg14 Zn1 O16'
_cell_volume   330.59245271
_cell_formula_units_Z   1
loop_
 _symmetry_equiv_pos_site_id
 _symmetry_equiv_pos_as_xyz
  1  'x, y, z'
loop_
 _atom_site_type_symbol
 _atom_site_label
 _atom_site_symmetry_multiplicity
 _atom_site_fract_x
 _atom_site_fract_y
 _atom_site_fract_z
 _atom_site_occupancy
  Y  Y0  1  0.00000000  0.00000000  0.00000000  1
  Mg  Mg0  1  0.50000000  0.00000000  0.00000000  1
  Mg  Mg1  1  0.00000000  0.50000000  0.00000000  1
  Mg  Mg2  1  0.26413300  0.00000000  0.50000000  1
  Mg  Mg3  1  0.73586700  0.00000000  0.50000000  1
  Mg  Mg4  1  0.25291000  0.50000000  0.50000000  1
  Mg  Mg5  1  0.74709000  0.50000000  0.50000000  1
  Mg  Mg6  1  0.00000000  0.26413300  0.50000000  1
  Mg  Mg7  1  0.50000000  0.25291000  0.50000000  1
  Mg  Mg8  1  0.00000000  0.73586700  0.50000000  1
  Mg  Mg9  1  0.50000000  0.74709000  0.50000000  1
  Mg  Mg10  1  0.25909000  0.25909000  0.00000000  1
  Mg  Mg11  1  0.74091000  0.25909000  0.00000000  1
  Mg  Mg12  1  0.25909000  0.74091000  0.00000000  1
  Mg  Mg13  1  0.74091000  0.74091000  0.00000000  1
  Zn  Zn0  1  0.50000000  0.50000000  0.00000000  1
  O  O0  1  0.00000000  0.25729900  0.00000000  1
  O  O1  1  0.50000000  0.23666400  0.00000000  1
  O  O2  1  0.00000000  0.74270100  0.00000000  1
  O  O3  1  0.50000000  0.76333600  0.00000000  1
  O  O4  1  0.24736500  0.24736500  0.50000000  1
  O  O5  1  0.75263500  0.24736500  0.50000000  1
  O  O6  1  0.24736500  0.75263500  0.50000000  1
  O  O7  1  0.75263500  0.75263500  0.50000000  1
  O  O8  1  0.00000000  0.00000000  0.50000000  1
  O  O9  1  0.50000000  0.00000000  0.50000000  1
  O  O10  1  0.00000000  0.50000000  0.50000000  1
  O  O11  1  0.50000000  0.50000000  0.50000000  1
  O  O12  1  0.25729900  0.00000000  0.00000000  1
  O  O13  1  0.74270100  0.00000000  0.00000000  1
  O  O14  1  0.23666400  0.50000000  0.00000000  1
  O  O15  1  0.76333600  0.50000000  0.00000000  1
loop_
_geom_bond_atom_site_label_1
_geom_bond_atom_site_label_2
_geom_bond_distance
_geom_bond_site_symmetry_2
Mg0 O1 2.062994 1_555
Mg0 O3 2.062994 1_545
Mg0 O13 2.115619 1_555
Mg0 O12 2.115619 1_555
Mg0 O9 2.175361 1_554
Mg0 O9 2.175361 1_555
Mg1 O14 2.062994 1_555
Mg1 O15 2.062994 1_455
Mg1 O2 2.115619 1_555
Mg1 O0 2.115619 1_555
Mg1 O10 2.175361 1_554
Mg1 O10 2.175361 1_555
Mg2 O9 2.056047 1_555
Mg2 O4 2.161223 1_555
Mg2 O6 2.161223 1_545
Mg2 O12 2.176176 1_556
Mg2 O12 2.176176 1_555
Mg2 O8 2.302441 1_555
Mg3 O9 2.056047 1_555
Mg3 O5 2.161223 1_555
Mg3 O7 2.161223 1_545
Mg3 O13 2.176176 1_555
Mg3 O13 2.176176 1_556
Mg3 O8 2.302441 1_655
Mg4 O11 2.153878 1_555
Mg4 O14 2.179965 1_556
Mg4 O14 2.179965 1_555
Mg4 O6 2.202744 1_555
Mg4 O4 2.202744 1_555
Mg4 O10 2.204610 1_555
Mg5 O11 2.153878 1_555
Mg5 O15 2.179965 1_556
Mg5 O15 2.179965 1_555
Mg5 O7 2.202744 1_555
Mg5 O5 2.202744 1_555
Mg5 O10 2.204610 1_655
Mg6 O10 2.056047 1_555
Mg6 O4 2.161223 1_555
Mg6 O5 2.161223 1_455
Mg6 O0 2.176176 1_555
Mg6 O0 2.176176 1_556
Mg6 O8 2.302441 1_555
Mg7 O11 2.153878 1_555
Mg7 O1 2.179965 1_556
Mg7 O1 2.179965 1_555
Mg7 O5 2.202744 1_555
Mg7 O4 2.202744 1_555
Mg7 O9 2.204610 1_555
Mg8 O10 2.056047 1_555
Mg8 O6 2.161223 1_555
Mg8 O7 2.161223 1_455
Mg8 O2 2.176176 1_556
Mg8 O2 2.176176 1_555
Mg8 O8 2.302441 1_565
Mg9 O11 2.153878 1_555
Mg9 O3 2.179965 1_556
Mg9 O3 2.179965 1_555
Mg9 O7 2.202744 1_555
Mg9 O6 2.202744 1_555
Mg9 O9 2.204610 1_565
Mg10 O1 2.109086 1_555
Mg10 O14 2.109086 1_555
Mg10 O4 2.180157 1_554
Mg10 O4 2.180157 1_555
Mg10 O0 2.258535 1_555
Mg10 O12 2.258535 1_555
Mg11 O15 2.109086 1_555
Mg11 O1 2.109086 1_555
Mg11 O5 2.180157 1_555
Mg11 O5 2.180157 1_554
Mg11 O0 2.258535 1_655
Mg11 O13 2.258535 1_555
Mg12 O3 2.109086 1_555
Mg12 O14 2.109086 1_555
Mg12 O6 2.180157 1_555
Mg12 O6 2.180157 1_554
Mg12 O12 2.258535 1_565
Mg12 O2 2.258535 1_555
Mg13 O3 2.109086 1_555
Mg13 O15 2.109086 1_555
Mg13 O7 2.180157 1_555
Mg13 O7 2.180157 1_554
Mg13 O13 2.258535 1_565
Mg13 O2 2.258535 1_655
O0 Y0 2.242869 1_555
O1 Zn0 2.295494 1_555
O2 Y0 2.242869 1_565
O3 Zn0 2.295494 1_555
O8 Y0 2.175361 1_555
O8 Y0 2.175361 1_556
O11 Zn0 2.175361 1_556
O11 Zn0 2.175361 1_555
O12 Y0 2.242869 1_555
O13 Y0 2.242869 1_655
O14 Zn0 2.295494 1_555
O15 Zn0 2.295494 1_555
