# generated using pymatgen
data_La2ZnCrO6
_symmetry_space_group_name_H-M   'P 1'
_cell_length_a   5.53358784
_cell_length_b   5.53358784
_cell_length_c   5.53358861
_cell_angle_alpha   61.23659191
_cell_angle_beta   61.23659191
_cell_angle_gamma   61.23658744
_symmetry_Int_Tables_number   1
_chemical_formula_structural   La2ZnCrO6
_chemical_formula_sum   'La2 Zn1 Cr1 O6'
_cell_volume   123.14533054
_cell_formula_units_Z   1
loop_
 _symmetry_equiv_pos_site_id
 _symmetry_equiv_pos_as_xyz
  1  'x, y, z'
loop_
 _atom_site_type_symbol
 _atom_site_label
 _atom_site_symmetry_multiplicity
 _atom_site_fract_x
 _atom_site_fract_y
 _atom_site_fract_z
 _atom_site_occupancy
  La  La0  1  0.75102700  0.75102700  0.75102700  1
  La  La1  1  0.24897300  0.24897300  0.24897300  1
  Zn  Zn0  1  0.50000000  0.50000000  0.50000000  1
  Cr  Cr0  1  0.00000000  0.00000000  0.00000000  1
  O  O0  1  0.76362400  0.31672900  0.16501400  1
  O  O1  1  0.16501400  0.76362400  0.31672900  1
  O  O2  1  0.31672900  0.16501400  0.76362400  1
  O  O3  1  0.23637600  0.68327100  0.83498600  1
  O  O4  1  0.68327100  0.83498600  0.23637600  1
  O  O5  1  0.83498600  0.23637600  0.68327100  1
loop_
_geom_bond_atom_site_label_1
_geom_bond_atom_site_label_2
_geom_bond_distance
_geom_bond_site_symmetry_2
La0 O2 2.392156 1_565
La0 O0 2.392156 1_556
La0 O1 2.392156 1_655
La0 O5 2.762902 1_565
La0 O3 2.762902 1_655
La0 O4 2.762903 1_556
La0 O5 2.837849 1_555
La0 O3 2.837849 1_555
La0 O4 2.837850 1_555
La1 O4 2.392156 1_545
La1 O3 2.392156 1_554
La1 O5 2.392156 1_455
La1 O1 2.762902 1_545
La1 O0 2.762902 1_455
La1 O2 2.762903 1_554
La1 O1 2.837849 1_555
La1 O0 2.837849 1_555
La1 O2 2.837850 1_555
Cr0 O0 1.949598 1_455
Cr0 O3 1.949598 1_544
Cr0 O2 1.949598 1_554
Cr0 O4 1.949598 1_445
Cr0 O1 1.949598 1_545
Cr0 O5 1.949598 1_454
O0 Zn0 2.091809 1_555
O1 Zn0 2.091809 1_555
O2 Zn0 2.091809 1_555
O3 Zn0 2.091809 1_555
O4 Zn0 2.091809 1_555
O5 Zn0 2.091809 1_555
