# generated using pymatgen
data_UFe3B2
_symmetry_space_group_name_H-M   'P 1'
_cell_length_a   10.13452352
_cell_length_b   10.13452296
_cell_length_c   5.61276940
_cell_angle_alpha   90.00000000
_cell_angle_beta   90.00000000
_cell_angle_gamma   120.00000835
_symmetry_Int_Tables_number   1
_chemical_formula_structural   UFe3B2
_chemical_formula_sum   'U8 Fe24 B16'
_cell_volume   499.24582376
_cell_formula_units_Z   8
loop_
 _symmetry_equiv_pos_site_id
 _symmetry_equiv_pos_as_xyz
  1  'x, y, z'
loop_
 _atom_site_type_symbol
 _atom_site_label
 _atom_site_symmetry_multiplicity
 _atom_site_fract_x
 _atom_site_fract_y
 _atom_site_fract_z
 _atom_site_occupancy
  U  U0_0  1  0.00000000  0.00000000  0.00000000  1
  U  U0_1  1  0.00000000  0.00000000  0.50000000  1
  U  U0_2  1  0.00000000  0.50000000  0.00000000  1
  U  U0_3  1  0.00000000  0.50000000  0.50000000  1
  U  U0_4  1  0.50000000  0.00000000  0.00000000  1
  U  U0_5  1  0.50000000  0.00000000  0.50000000  1
  U  U0_6  1  0.50000000  0.50000000  0.00000000  1
  U  U0_7  1  0.50000000  0.50000000  0.50000000  1
  Fe  Fe0_0  1  0.25000000  0.00000000  0.25000000  1
  Fe  Fe0_1  1  0.25000000  0.00000000  0.75000000  1
  Fe  Fe0_2  1  0.25000000  0.50000000  0.25000000  1
  Fe  Fe0_3  1  0.25000000  0.50000000  0.75000000  1
  Fe  Fe0_4  1  0.75000000  0.00000000  0.25000000  1
  Fe  Fe0_5  1  0.75000000  0.00000000  0.75000000  1
  Fe  Fe0_6  1  0.75000000  0.50000000  0.25000000  1
  Fe  Fe0_7  1  0.75000000  0.50000000  0.75000000  1
  Fe  Fe1_0  1  0.00000000  0.25000000  0.25000000  1
  Fe  Fe1_1  1  0.00000000  0.25000000  0.75000000  1
  Fe  Fe1_2  1  0.00000000  0.75000000  0.25000000  1
  Fe  Fe1_3  1  0.00000000  0.75000000  0.75000000  1
  Fe  Fe1_4  1  0.50000000  0.25000000  0.25000000  1
  Fe  Fe1_5  1  0.50000000  0.25000000  0.75000000  1
  Fe  Fe1_6  1  0.50000000  0.75000000  0.25000000  1
  Fe  Fe1_7  1  0.50000000  0.75000000  0.75000000  1
  Fe  Fe2_0  1  0.25000000  0.25000000  0.25000000  1
  Fe  Fe2_1  1  0.25000000  0.25000000  0.75000000  1
  Fe  Fe2_2  1  0.25000000  0.75000000  0.25000000  1
  Fe  Fe2_3  1  0.25000000  0.75000000  0.75000000  1
  Fe  Fe2_4  1  0.75000000  0.25000000  0.25000000  1
  Fe  Fe2_5  1  0.75000000  0.25000000  0.75000000  1
  Fe  Fe2_6  1  0.75000000  0.75000000  0.25000000  1
  Fe  Fe2_7  1  0.75000000  0.75000000  0.75000000  1
  B  B0_0  1  0.33333350  0.16666650  0.00000000  1
  B  B0_1  1  0.33333350  0.16666650  0.50000000  1
  B  B0_2  1  0.33333350  0.66666650  0.00000000  1
  B  B0_3  1  0.33333350  0.66666650  0.50000000  1
  B  B0_4  1  0.83333350  0.16666650  0.00000000  1
  B  B0_5  1  0.83333350  0.16666650  0.50000000  1
  B  B0_6  1  0.83333350  0.66666650  0.00000000  1
  B  B0_7  1  0.83333350  0.66666650  0.50000000  1
  B  B1_0  1  0.16666650  0.33333350  0.00000000  1
  B  B1_1  1  0.16666650  0.33333350  0.50000000  1
  B  B1_2  1  0.16666650  0.83333350  0.00000000  1
  B  B1_3  1  0.16666650  0.83333350  0.50000000  1
  B  B1_4  1  0.66666650  0.33333350  0.00000000  1
  B  B1_5  1  0.66666650  0.33333350  0.50000000  1
  B  B1_6  1  0.66666650  0.83333350  0.00000000  1
  B  B1_7  1  0.66666650  0.83333350  0.50000000  1
loop_
_geom_bond_atom_site_label_1
_geom_bond_atom_site_label_2
_geom_bond_distance
_geom_bond_site_symmetry_2
U0_0 U0_1 2.806385 1_554
U0_0 U0_1 2.806385 1_555
U0_2 U0_3 2.806385 1_554
U0_2 U0_3 2.806385 1_555
U0_4 U0_5 2.806385 1_555
U0_4 U0_5 2.806385 1_554
U0_6 U0_7 2.806385 1_555
U0_6 U0_7 2.806385 1_554
Fe0_0 U0_4 2.896245 1_555
Fe0_0 U0_0 2.896245 1_555
Fe0_0 U0_1 2.896245 1_555
Fe0_0 U0_5 2.896245 1_555
Fe0_1 U0_0 2.896245 1_556
Fe0_1 U0_4 2.896245 1_556
Fe0_1 U0_1 2.896245 1_555
Fe0_1 U0_5 2.896245 1_555
Fe0_2 U0_2 2.896245 1_555
Fe0_2 U0_3 2.896245 1_555
Fe0_2 U0_6 2.896245 1_555
Fe0_2 U0_7 2.896245 1_555
Fe0_3 U0_2 2.896245 1_556
Fe0_3 U0_3 2.896245 1_555
Fe0_3 U0_6 2.896245 1_556
Fe0_3 U0_7 2.896245 1_555
Fe0_4 U0_1 2.896245 1_655
Fe0_4 U0_0 2.896245 1_655
Fe0_4 U0_5 2.896245 1_555
Fe0_4 U0_4 2.896245 1_555
Fe0_5 U0_1 2.896245 1_655
Fe0_5 U0_5 2.896245 1_555
Fe0_5 U0_4 2.896245 1_556
Fe0_5 U0_0 2.896245 1_656
Fe0_6 U0_2 2.896245 1_655
Fe0_6 U0_6 2.896245 1_555
Fe0_6 U0_7 2.896245 1_555
Fe0_6 U0_3 2.896245 1_655
Fe0_7 U0_2 2.896245 1_656
Fe0_7 U0_6 2.896245 1_556
Fe0_7 U0_7 2.896245 1_555
Fe0_7 U0_3 2.896245 1_655
Fe1_0 U0_0 2.896245 1_555
Fe1_0 U0_1 2.896245 1_555
Fe1_0 U0_3 2.896245 1_555
Fe1_0 U0_2 2.896245 1_555
Fe1_1 U0_1 2.896245 1_555
Fe1_1 U0_3 2.896245 1_555
Fe1_1 U0_2 2.896245 1_556
Fe1_1 U0_0 2.896245 1_556
Fe1_2 U0_0 2.896245 1_565
Fe1_2 U0_1 2.896245 1_565
Fe1_2 U0_2 2.896245 1_555
Fe1_2 U0_3 2.896245 1_555
Fe1_3 U0_0 2.896245 1_566
Fe1_3 U0_3 2.896245 1_555
Fe1_3 U0_1 2.896245 1_565
Fe1_3 U0_2 2.896245 1_556
Fe1_4 U0_6 2.896245 1_555
Fe1_4 U0_4 2.896245 1_555
Fe1_4 U0_5 2.896245 1_555
Fe1_4 U0_7 2.896245 1_555
Fe1_5 U0_4 2.896245 1_556
Fe1_5 U0_5 2.896245 1_555
Fe1_5 U0_6 2.896245 1_556
Fe1_5 U0_7 2.896245 1_555
Fe1_6 U0_6 2.896245 1_555
Fe1_6 U0_4 2.896245 1_565
Fe1_6 U0_5 2.896245 1_565
Fe1_6 U0_7 2.896245 1_555
Fe1_7 U0_6 2.896245 1_556
Fe1_7 U0_4 2.896245 1_566
Fe1_7 U0_5 2.896245 1_565
Fe1_7 U0_7 2.896245 1_555
Fe2_0 U0_6 2.896245 1_555
Fe2_0 U0_1 2.896245 1_555
Fe2_0 U0_7 2.896245 1_555
Fe2_0 U0_0 2.896245 1_555
Fe2_1 U0_6 2.896245 1_556
Fe2_1 U0_0 2.896245 1_556
Fe2_1 U0_1 2.896245 1_555
Fe2_1 U0_7 2.896245 1_555
Fe2_2 U0_3 2.896245 1_555
Fe2_2 U0_5 2.896245 1_565
Fe2_2 U0_2 2.896245 1_555
Fe2_2 U0_4 2.896245 1_565
Fe2_3 U0_3 2.896245 1_555
Fe2_3 U0_5 2.896245 1_565
Fe2_3 U0_2 2.896245 1_556
Fe2_3 U0_4 2.896245 1_566
Fe2_4 U0_5 2.896245 1_555
Fe2_4 U0_2 2.896245 1_655
Fe2_4 U0_3 2.896245 1_655
Fe2_4 U0_4 2.896245 1_555
Fe2_5 U0_5 2.896245 1_555
Fe2_5 U0_3 2.896245 1_655
Fe2_5 U0_4 2.896245 1_556
Fe2_5 U0_2 2.896245 1_656
Fe2_6 U0_1 2.896245 1_665
Fe2_6 U0_6 2.896245 1_555
Fe2_6 U0_7 2.896245 1_555
Fe2_6 U0_0 2.896245 1_665
Fe2_7 U0_6 2.896245 1_556
Fe2_7 U0_1 2.896245 1_665
Fe2_7 U0_7 2.896245 1_555
Fe2_7 U0_0 2.896245 1_666
B0_0 Fe0_0 2.026994 1_555
B0_0 Fe0_1 2.026994 1_554
B0_0 Fe1_4 2.026994 1_555
B0_0 Fe1_5 2.026994 1_554
B0_0 Fe2_1 2.026998 1_554
B0_0 Fe2_0 2.026998 1_555
B0_0 U0_4 2.925582 1_555
B0_0 U0_6 2.925586 1_555
B0_0 U0_0 2.925586 1_555
B0_1 Fe0_0 2.026994 1_555
B0_1 Fe0_1 2.026994 1_555
B0_1 Fe1_4 2.026994 1_555
B0_1 Fe1_5 2.026994 1_555
B0_1 Fe2_1 2.026998 1_555
B0_1 Fe2_0 2.026998 1_555
B0_1 U0_5 2.925582 1_555
B0_1 U0_7 2.925586 1_555
B0_1 U0_1 2.925586 1_555
B0_2 Fe0_2 2.026994 1_555
B0_2 Fe0_3 2.026994 1_554
B0_2 Fe1_6 2.026994 1_555
B0_2 Fe1_7 2.026994 1_554
B0_2 Fe2_2 2.026998 1_555
B0_2 Fe2_3 2.026998 1_554
B0_2 U0_6 2.925582 1_555
B0_2 U0_4 2.925586 1_565
B0_2 U0_2 2.925586 1_555
B0_3 Fe0_3 2.026994 1_555
B0_3 Fe0_2 2.026994 1_555
B0_3 Fe1_6 2.026994 1_555
B0_3 Fe1_7 2.026994 1_555
B0_3 Fe2_2 2.026998 1_555
B0_3 Fe2_3 2.026998 1_555
B0_3 U0_7 2.925582 1_555
B0_3 U0_5 2.925586 1_565
B0_3 U0_3 2.925586 1_555
B0_4 Fe0_4 2.026994 1_555
B0_4 Fe0_5 2.026994 1_554
B0_4 Fe1_1 2.026994 1_654
B0_4 Fe1_0 2.026994 1_655
B0_4 Fe2_5 2.026998 1_554
B0_4 Fe2_4 2.026998 1_555
B0_4 U0_0 2.925582 1_655
B0_4 U0_2 2.925586 1_655
B0_4 U0_4 2.925586 1_555
B0_5 Fe0_4 2.026994 1_555
B0_5 Fe0_5 2.026994 1_555
B0_5 Fe1_0 2.026994 1_655
B0_5 Fe1_1 2.026994 1_655
B0_5 Fe2_4 2.026998 1_555
B0_5 Fe2_5 2.026998 1_555
B0_5 U0_1 2.925582 1_655
B0_5 U0_3 2.925586 1_655
B0_5 U0_5 2.925586 1_555
B0_6 Fe0_6 2.026994 1_555
B0_6 Fe0_7 2.026994 1_554
B0_6 Fe1_3 2.026994 1_654
B0_6 Fe1_2 2.026994 1_655
B0_6 Fe2_6 2.026998 1_555
B0_6 Fe2_7 2.026998 1_554
B0_6 U0_2 2.925582 1_655
B0_6 U0_0 2.925586 1_665
B0_6 U0_6 2.925586 1_555
B0_7 Fe0_6 2.026994 1_555
B0_7 Fe0_7 2.026994 1_555
B0_7 Fe1_2 2.026994 1_655
B0_7 Fe1_3 2.026994 1_655
B0_7 Fe2_6 2.026998 1_555
B0_7 Fe2_7 2.026998 1_555
B0_7 U0_3 2.925582 1_655
B0_7 U0_1 2.925586 1_665
B0_7 U0_7 2.925586 1_555
B1_0 Fe0_2 2.026994 1_555
B1_0 Fe0_3 2.026994 1_554
B1_0 Fe1_0 2.026994 1_555
B1_0 Fe1_1 2.026994 1_554
B1_0 Fe2_1 2.026998 1_554
B1_0 Fe2_0 2.026998 1_555
B1_0 U0_2 2.925582 1_555
B1_0 U0_0 2.925586 1_555
B1_0 U0_6 2.925586 1_555
B1_1 Fe0_3 2.026994 1_555
B1_1 Fe0_2 2.026994 1_555
B1_1 Fe1_0 2.026994 1_555
B1_1 Fe1_1 2.026994 1_555
B1_1 Fe2_1 2.026998 1_555
B1_1 Fe2_0 2.026998 1_555
B1_1 U0_3 2.925582 1_555
B1_1 U0_1 2.925586 1_555
B1_1 U0_7 2.925586 1_555
B1_2 Fe0_0 2.026994 1_565
B1_2 Fe0_1 2.026994 1_564
B1_2 Fe1_2 2.026994 1_555
B1_2 Fe1_3 2.026994 1_554
B1_2 Fe2_2 2.026998 1_555
B1_2 Fe2_3 2.026998 1_554
B1_2 U0_0 2.925582 1_565
B1_2 U0_2 2.925586 1_555
B1_2 U0_4 2.925586 1_565
B1_3 Fe0_0 2.026994 1_565
B1_3 Fe0_1 2.026994 1_565
B1_3 Fe1_2 2.026994 1_555
B1_3 Fe1_3 2.026994 1_555
B1_3 Fe2_2 2.026998 1_555
B1_3 Fe2_3 2.026998 1_555
B1_3 U0_1 2.925582 1_565
B1_3 U0_3 2.925586 1_555
B1_3 U0_5 2.925586 1_565
B1_4 Fe0_7 2.026994 1_554
B1_4 Fe0_6 2.026994 1_555
B1_4 Fe1_5 2.026994 1_554
B1_4 Fe1_4 2.026994 1_555
B1_4 Fe2_4 2.026998 1_555
B1_4 Fe2_5 2.026998 1_554
B1_4 U0_6 2.925582 1_555
B1_4 U0_4 2.925586 1_555
B1_4 U0_2 2.925586 1_655
B1_5 Fe0_6 2.026994 1_555
B1_5 Fe0_7 2.026994 1_555
B1_5 Fe1_5 2.026994 1_555
B1_5 Fe1_4 2.026994 1_555
B1_5 Fe2_5 2.026998 1_555
B1_5 Fe2_4 2.026998 1_555
B1_5 U0_7 2.925582 1_555
B1_5 U0_5 2.925586 1_555
B1_5 U0_3 2.925586 1_655
B1_6 Fe0_5 2.026994 1_564
B1_6 Fe0_4 2.026994 1_565
B1_6 Fe1_6 2.026994 1_555
B1_6 Fe1_7 2.026994 1_554
B1_6 Fe2_7 2.026998 1_554
B1_6 Fe2_6 2.026998 1_555
B1_6 U0_4 2.925582 1_565
B1_6 U0_6 2.925586 1_555
B1_6 U0_0 2.925586 1_665
B1_7 Fe0_5 2.026994 1_565
B1_7 Fe0_4 2.026994 1_565
B1_7 Fe1_6 2.026994 1_555
B1_7 Fe1_7 2.026994 1_555
B1_7 Fe2_7 2.026998 1_555
B1_7 Fe2_6 2.026998 1_555
B1_7 U0_5 2.925582 1_565
B1_7 U0_7 2.925586 1_555
B1_7 U0_1 2.925586 1_665
