# generated using pymatgen
data_Eu4As2O
_symmetry_space_group_name_H-M   'P 1'
_cell_length_a   8.68742890
_cell_length_b   8.68742890
_cell_length_c   8.68742890
_cell_angle_alpha   148.22128483
_cell_angle_beta   148.22128483
_cell_angle_gamma   45.55881066
_symmetry_Int_Tables_number   1
_chemical_formula_structural   Eu4As2O
_chemical_formula_sum   'Eu4 As2 O1'
_cell_volume   181.24710851
_cell_formula_units_Z   1
loop_
 _symmetry_equiv_pos_site_id
 _symmetry_equiv_pos_as_xyz
  1  'x, y, z'
loop_
 _atom_site_type_symbol
 _atom_site_label
 _atom_site_symmetry_multiplicity
 _atom_site_fract_x
 _atom_site_fract_y
 _atom_site_fract_z
 _atom_site_occupancy
  Eu  Eu0  1  0.00000000  0.50000000  0.50000000  1
  Eu  Eu1  1  0.50000000  0.00000000  0.50000000  1
  Eu  Eu2  1  0.67388376  0.67388376  -0.00000000  1
  Eu  Eu3  1  0.32611624  0.32611624  0.00000000  1
  As  As0  1  0.86468459  0.86468459  0.00000000  1
  As  As1  1  0.13531541  0.13531541  -0.00000000  1
  O  O0  1  0.50000000  0.50000000  -0.00000000  1
loop_
_geom_bond_atom_site_label_1
_geom_bond_atom_site_label_2
_geom_bond_distance
_geom_bond_site_symmetry_2
Eu0 O0 2.378449 1_455
Eu0 O0 2.378449 1_556
Eu1 O0 2.378449 1_545
Eu1 O0 2.378449 1_556
Eu2 O0 2.785559 1_555
Eu3 O0 2.785559 1_555
As0 Eu2 3.056564 1_555
As0 Eu0 3.218070 1_654
As0 Eu0 3.218070 1_665
As0 Eu1 3.218070 1_564
As0 Eu1 3.218070 1_665
As0 Eu3 3.419910 1_655
As0 Eu3 3.419910 1_554
As0 Eu3 3.419910 1_666
As0 Eu3 3.419910 1_565
As1 Eu3 3.056564 1_555
As1 Eu0 3.218070 1_544
As1 Eu0 3.218070 1_555
As1 Eu1 3.218070 1_454
As1 Eu1 3.218070 1_555
As1 Eu2 3.419910 1_444
As1 Eu2 3.419910 1_455
As1 Eu2 3.419910 1_556
As1 Eu2 3.419910 1_545
