# generated using pymatgen
data_Li5Mn3O8
_symmetry_space_group_name_H-M   'P 1'
_cell_length_a   2.95299700
_cell_length_b   5.08916404
_cell_length_c   9.78127949
_cell_angle_alpha   86.48420711
_cell_angle_beta   82.69686088
_cell_angle_gamma   87.85346916
_symmetry_Int_Tables_number   1
_chemical_formula_structural   Li5Mn3O8
_chemical_formula_sum   'Li5 Mn3 O8'
_cell_volume   145.46362520
_cell_formula_units_Z   1
loop_
 _symmetry_equiv_pos_site_id
 _symmetry_equiv_pos_as_xyz
  1  'x, y, z'
loop_
 _atom_site_type_symbol
 _atom_site_label
 _atom_site_symmetry_multiplicity
 _atom_site_fract_x
 _atom_site_fract_y
 _atom_site_fract_z
 _atom_site_occupancy
  Li  Li0  1  0.11649100  0.38769900  0.77288700  1
  Li  Li1  1  0.88350900  0.61230100  0.22711300  1
  Li  Li2  1  0.60993700  0.86889300  0.76510800  1
  Li  Li3  1  0.39006300  0.13110700  0.23489200  1
  Li  Li4  1  0.50000000  0.50000000  0.00000000  1
  Mn  Mn0  1  0.00000000  0.00000000  0.00000000  1
  Mn  Mn1  1  0.75048500  0.24967500  0.49972600  1
  Mn  Mn2  1  0.24951500  0.75032500  0.50027400  1
  O  O0  1  0.53941000  0.16586300  0.89076400  1
  O  O1  1  0.33118400  0.44176700  0.38651400  1
  O  O2  1  0.06512200  0.71220800  0.88212500  1
  O  O3  1  0.82978200  0.93888100  0.38850700  1
  O  O4  1  0.66881600  0.55823300  0.61348600  1
  O  O5  1  0.46059000  0.83413700  0.10923600  1
  O  O6  1  0.17021800  0.06111900  0.61149300  1
  O  O7  1  0.93487800  0.28779200  0.11787500  1
loop_
_geom_bond_atom_site_label_1
_geom_bond_atom_site_label_2
_geom_bond_distance
_geom_bond_site_symmetry_2
Li0 O2 2.012091 1_555
Li0 O0 2.065055 1_555
Li0 O0 2.234477 1_455
Li0 O4 2.266694 1_555
Li0 O4 2.281206 1_455
Li0 O6 2.349031 1_555
Li1 O7 2.012091 1_555
Li1 O5 2.065055 1_555
Li1 O5 2.234477 1_655
Li1 O1 2.266694 1_555
Li1 O1 2.281206 1_655
Li1 O3 2.349031 1_555
Li2 O2 1.987857 1_655
Li2 O0 1.994313 1_565
Li2 O2 2.012524 1_555
Li2 O4 2.220512 1_555
Li2 O6 2.263038 1_565
Li2 O6 2.293688 1_665
Li3 O7 1.987857 1_455
Li3 O5 1.994313 1_545
Li3 O7 2.012524 1_555
Li3 O1 2.220512 1_555
Li3 O3 2.263038 1_545
Li3 O3 2.293688 1_445
Li4 O5 2.055041 1_555
Li4 O0 2.055041 1_554
Li4 O7 2.065098 1_555
Li4 O2 2.065098 1_554
Li4 O7 2.184874 1_455
Li4 O2 2.184874 1_654
Mn0 O7 1.908159 1_455
Mn0 O2 1.908159 1_544
Mn0 O0 1.968988 1_454
Mn0 O5 1.968988 1_545
Mn0 O0 1.987158 1_554
Mn0 O5 1.987158 1_445
Mn1 O6 1.943960 1_655
Mn1 O1 1.959641 1_555
Mn1 O3 1.964312 1_545
Mn1 O4 1.969736 1_555
Mn1 O6 2.137846 1_555
Mn1 O1 2.152325 1_655
Mn2 O3 1.943960 1_455
Mn2 O4 1.959641 1_555
Mn2 O6 1.964312 1_565
Mn2 O1 1.969736 1_555
Mn2 O3 2.137846 1_555
Mn2 O4 2.152325 1_455
