# generated using pymatgen
data_SrAl2C2O11
_symmetry_space_group_name_H-M   'P 1'
_cell_length_a   6.17954800
_cell_length_b   9.12332700
_cell_length_c   15.67702700
_cell_angle_alpha   90.00000000
_cell_angle_beta   90.00000000
_cell_angle_gamma   90.00000000
_symmetry_Int_Tables_number   1
_chemical_formula_structural   SrAl2C2O11
_chemical_formula_sum   'Sr4 Al8 C8 O44'
_cell_volume   883.84001008
_cell_formula_units_Z   4
loop_
 _symmetry_equiv_pos_site_id
 _symmetry_equiv_pos_as_xyz
  1  'x, y, z'
loop_
 _atom_site_type_symbol
 _atom_site_label
 _atom_site_symmetry_multiplicity
 _atom_site_fract_x
 _atom_site_fract_y
 _atom_site_fract_z
 _atom_site_occupancy
  Sr  Sr0  1  0.25000000  0.47827000  0.40689100  1
  Sr  Sr1  1  0.75000000  0.52173000  0.59310900  1
  Sr  Sr2  1  0.75000000  0.97827000  0.09310900  1
  Sr  Sr3  1  0.25000000  0.02173000  0.90689100  1
  Al  Al0  1  0.47376200  0.15862000  0.29846400  1
  Al  Al1  1  0.52623800  0.84138000  0.70153600  1
  Al  Al2  1  0.52623800  0.65862000  0.20153600  1
  Al  Al3  1  0.97376200  0.84138000  0.70153600  1
  Al  Al4  1  0.47376200  0.34138000  0.79846400  1
  Al  Al5  1  0.02623800  0.15862000  0.29846400  1
  Al  Al6  1  0.02623800  0.34138000  0.79846400  1
  Al  Al7  1  0.97376200  0.65862000  0.20153600  1
  C  C0  1  0.25000000  0.74511200  0.05321200  1
  C  C1  1  0.75000000  0.25488800  0.94678800  1
  C  C2  1  0.75000000  0.24511200  0.44678800  1
  C  C3  1  0.25000000  0.75488800  0.55321200  1
  C  C4  1  0.25000000  0.07755600  0.14235600  1
  C  C5  1  0.75000000  0.92244400  0.85764400  1
  C  C6  1  0.75000000  0.57755600  0.35764400  1
  C  C7  1  0.25000000  0.42244400  0.64235600  1
  O  O0  1  0.25000000  0.04429800  0.06352700  1
  O  O1  1  0.75000000  0.95570200  0.93647300  1
  O  O2  1  0.75000000  0.54429800  0.43647300  1
  O  O3  1  0.25000000  0.45570200  0.56352700  1
  O  O4  1  0.06620800  0.09177800  0.18261800  1
  O  O5  1  0.93379200  0.90822200  0.81738200  1
  O  O6  1  0.93379200  0.59177800  0.31738200  1
  O  O7  1  0.56620800  0.90822200  0.81738200  1
  O  O8  1  0.06620800  0.40822200  0.68261800  1
  O  O9  1  0.43379200  0.09177800  0.18261800  1
  O  O10  1  0.43379200  0.40822200  0.68261800  1
  O  O11  1  0.56620800  0.59177800  0.31738200  1
  O  O12  1  0.25000000  0.72037100  0.24565100  1
  O  O13  1  0.75000000  0.27962900  0.75434900  1
  O  O14  1  0.75000000  0.22037100  0.25434900  1
  O  O15  1  0.25000000  0.77962900  0.74565100  1
  O  O16  1  0.25000000  0.28888500  0.29343100  1
  O  O17  1  0.75000000  0.71111500  0.70656900  1
  O  O18  1  0.75000000  0.78888500  0.20656900  1
  O  O19  1  0.25000000  0.21111500  0.79343100  1
  O  O20  1  0.25000000  0.39854200  0.03802500  1
  O  O21  1  0.75000000  0.60145800  0.96197500  1
  O  O22  1  0.75000000  0.89854200  0.46197500  1
  O  O23  1  0.25000000  0.10145800  0.53802500  1
  O  O24  1  0.25000000  0.05442100  0.34417200  1
  O  O25  1  0.75000000  0.94557900  0.65582800  1
  O  O26  1  0.75000000  0.55442100  0.15582800  1
  O  O27  1  0.25000000  0.44557900  0.84417200  1
  O  O28  1  0.25000000  0.56443600  0.21220900  1
  O  O29  1  0.75000000  0.43556400  0.78779100  1
  O  O30  1  0.75000000  0.06443600  0.28779100  1
  O  O31  1  0.25000000  0.93556400  0.71220900  1
  O  O32  1  0.25000000  0.73817900  0.47309700  1
  O  O33  1  0.75000000  0.26182100  0.52690300  1
  O  O34  1  0.75000000  0.23817900  0.02690300  1
  O  O35  1  0.25000000  0.76182100  0.97309700  1
  O  O36  1  0.56557800  0.23985500  0.40638000  1
  O  O37  1  0.43442200  0.76014500  0.59362000  1
  O  O38  1  0.43442200  0.73985500  0.09362000  1
  O  O39  1  0.06557800  0.76014500  0.59362000  1
  O  O40  1  0.56557800  0.26014500  0.90638000  1
  O  O41  1  0.93442200  0.23985500  0.40638000  1
  O  O42  1  0.93442200  0.26014500  0.90638000  1
  O  O43  1  0.06557800  0.73985500  0.09362000  1
loop_
_geom_bond_atom_site_label_1
_geom_bond_atom_site_label_2
_geom_bond_distance
_geom_bond_site_symmetry_2
Al0 O24 1.824603 1_555
Al0 O16 1.825002 1_555
Al0 O30 1.918406 1_555
Al0 O14 1.926040 1_555
Al0 O9 1.931627 1_555
Al0 O36 1.932199 1_555
Al1 O25 1.824603 1_555
Al1 O17 1.825002 1_555
Al1 O31 1.918406 1_555
Al1 O15 1.926040 1_555
Al1 O7 1.931627 1_555
Al1 O37 1.932199 1_555
Al2 O26 1.824603 1_555
Al2 O18 1.825002 1_555
Al2 O28 1.918406 1_555
Al2 O12 1.926040 1_555
Al2 O11 1.931627 1_555
Al2 O38 1.932199 1_555
Al3 O25 1.824603 1_555
Al3 O17 1.825002 1_555
Al3 O31 1.918406 1_655
Al3 O15 1.926040 1_655
Al3 O5 1.931627 1_555
Al3 O39 1.932199 1_655
Al4 O27 1.824603 1_555
Al4 O19 1.825002 1_555
Al4 O29 1.918406 1_555
Al4 O13 1.926040 1_555
Al4 O10 1.931627 1_555
Al4 O40 1.932199 1_555
Al5 O24 1.824603 1_555
Al5 O16 1.825002 1_555
Al5 O30 1.918406 1_455
Al5 O14 1.926040 1_455
Al5 O4 1.931627 1_555
Al5 O41 1.932199 1_455
Al6 O27 1.824603 1_555
Al6 O19 1.825002 1_555
Al6 O29 1.918406 1_455
Al6 O13 1.926040 1_455
Al6 O8 1.931627 1_555
Al6 O42 1.932199 1_455
Al7 O26 1.824603 1_555
Al7 O18 1.825002 1_555
Al7 O28 1.918406 1_655
Al7 O12 1.926040 1_655
Al7 O6 1.931627 1_555
Al7 O43 1.932199 1_655
C0 O35 1.265182 1_554
C0 O38 1.304754 1_555
C0 O43 1.304754 1_555
C1 O34 1.265182 1_556
C1 O40 1.304754 1_555
C1 O42 1.304754 1_555
C2 O33 1.265182 1_555
C2 O36 1.304754 1_555
C2 O41 1.304754 1_555
C3 O32 1.265182 1_555
C3 O37 1.304754 1_555
C3 O39 1.304754 1_555
C4 O0 1.272509 1_555
C4 O4 1.305820 1_555
C4 O9 1.305820 1_555
C5 O1 1.272509 1_555
C5 O7 1.305820 1_555
C5 O5 1.305820 1_555
C6 O2 1.272509 1_555
C6 O11 1.305820 1_555
C6 O6 1.305820 1_555
C7 O3 1.272509 1_555
C7 O8 1.305820 1_555
C7 O10 1.305820 1_555
O0 Sr3 2.464204 1_554
O1 Sr2 2.464204 1_556
O2 Sr1 2.464204 1_555
O3 Sr0 2.464204 1_555
O4 Sr2 2.619099 1_445
O5 Sr3 2.619099 1_665
O6 Sr0 2.619099 1_655
O7 Sr3 2.619099 1_565
O8 Sr1 2.619099 1_455
O9 Sr2 2.619099 1_545
O10 Sr1 2.619099 1_555
O11 Sr0 2.619099 1_555
O12 O28 1.516173 1_555
O13 O29 1.516173 1_555
O14 O30 1.516173 1_555
O15 O31 1.516173 1_555
O16 Sr0 2.479757 1_555
O17 Sr1 2.479757 1_555
O18 Sr2 2.479757 1_555
O19 Sr3 2.479757 1_555
O32 Sr0 2.588439 1_555
O33 Sr1 2.588439 1_555
O34 Sr2 2.588439 1_545
O35 Sr3 2.588439 1_565
O36 Sr0 2.921351 1_555
O37 Sr1 2.921351 1_555
O38 Sr2 2.921351 1_555
O39 Sr1 2.921351 1_455
O40 Sr3 2.921351 1_555
O41 Sr0 2.921351 1_655
O42 Sr3 2.921351 1_655
O43 Sr2 2.921351 1_455
