# generated using pymatgen
data_Ba6Re2N6O
_symmetry_space_group_name_H-M   'P 1'
_cell_length_a   7.54988247
_cell_length_b   7.54988247
_cell_length_c   7.54988226
_cell_angle_alpha   65.65509546
_cell_angle_beta   65.65509546
_cell_angle_gamma   65.65509396
_symmetry_Int_Tables_number   1
_chemical_formula_structural   Ba6Re2N6O
_chemical_formula_sum   'Ba6 Re2 N6 O1'
_cell_volume   341.66137395
_cell_formula_units_Z   1
loop_
 _symmetry_equiv_pos_site_id
 _symmetry_equiv_pos_as_xyz
  1  'x, y, z'
loop_
 _atom_site_type_symbol
 _atom_site_label
 _atom_site_symmetry_multiplicity
 _atom_site_fract_x
 _atom_site_fract_y
 _atom_site_fract_z
 _atom_site_occupancy
  Ba  Ba0  1  0.33275500  0.18377000  0.73961900  1
  Ba  Ba1  1  0.18377000  0.73961900  0.33275500  1
  Ba  Ba2  1  0.73961900  0.33275500  0.18377000  1
  Ba  Ba3  1  0.66724500  0.81623000  0.26038100  1
  Ba  Ba4  1  0.81623000  0.26038100  0.66724500  1
  Ba  Ba5  1  0.26038100  0.66724500  0.81623000  1
  Re  Re0  1  0.24997300  0.24997300  0.24997300  1
  Re  Re1  1  0.75002700  0.75002700  0.75002700  1
  N  N0  1  0.23243300  0.03876700  0.48338400  1
  N  N1  1  0.03876700  0.48338400  0.23243300  1
  N  N2  1  0.48338400  0.23243300  0.03876700  1
  N  N3  1  0.76756700  0.96123300  0.51661600  1
  N  N4  1  0.96123300  0.51661600  0.76756700  1
  N  N5  1  0.51661600  0.76756700  0.96123300  1
  O  O0  1  0.50000000  0.50000000  0.50000000  1
loop_
_geom_bond_atom_site_label_1
_geom_bond_atom_site_label_2
_geom_bond_distance
_geom_bond_site_symmetry_2
Ba0 O0 2.758345 1_555
Ba0 N4 2.892235 1_455
Ba0 N5 2.929906 1_545
Ba0 N0 3.025292 1_555
Ba0 N3 3.108411 1_545
Ba0 N2 3.110536 1_556
Ba1 O0 2.758345 1_555
Ba1 N5 2.892235 1_554
Ba1 N3 2.929906 1_455
Ba1 N1 3.025292 1_555
Ba1 N4 3.108411 1_455
Ba1 N0 3.110536 1_565
Ba2 O0 2.758345 1_555
Ba2 N3 2.892235 1_545
Ba2 N4 2.929906 1_554
Ba2 N2 3.025292 1_555
Ba2 N5 3.108411 1_554
Ba2 N1 3.110536 1_655
Ba3 O0 2.758345 1_555
Ba3 N1 2.892235 1_655
Ba3 N2 2.929906 1_565
Ba3 N3 3.025292 1_555
Ba3 N0 3.108411 1_565
Ba3 N5 3.110536 1_554
Ba4 O0 2.758345 1_555
Ba4 N2 2.892235 1_556
Ba4 N0 2.929906 1_655
Ba4 N4 3.025292 1_555
Ba4 N1 3.108411 1_655
Ba4 N3 3.110536 1_545
Ba5 O0 2.758345 1_555
Ba5 N0 2.892235 1_565
Ba5 N1 2.929906 1_556
Ba5 N5 3.025292 1_555
Ba5 N2 3.108411 1_556
Ba5 N4 3.110536 1_455
N0 Re0 1.825000 1_555
N1 Re0 1.825000 1_555
N2 Re0 1.825000 1_555
N3 Re1 1.825000 1_555
N4 Re1 1.825000 1_555
N5 Re1 1.825000 1_555
