# generated using pymatgen
data_CaLaVFeO6
_symmetry_space_group_name_H-M   'P 1'
_cell_length_a   5.52595428
_cell_length_b   7.70377337
_cell_length_c   5.59398200
_cell_angle_alpha   90.00004303
_cell_angle_beta   90.00025761
_cell_angle_gamma   89.80854032
_symmetry_Int_Tables_number   1
_chemical_formula_structural   CaLaVFeO6
_chemical_formula_sum   'Ca2 La2 V2 Fe2 O12'
_cell_volume   238.13839686
_cell_formula_units_Z   2
loop_
 _symmetry_equiv_pos_site_id
 _symmetry_equiv_pos_as_xyz
  1  'x, y, z'
loop_
 _atom_site_type_symbol
 _atom_site_label
 _atom_site_symmetry_multiplicity
 _atom_site_fract_x
 _atom_site_fract_y
 _atom_site_fract_z
 _atom_site_occupancy
  Ca  Ca0  1  0.51319800  0.25035400  0.54037200  1
  Ca  Ca1  1  0.01321100  0.75034800  0.95962300  1
  La  La0  1  0.98882800  0.24904300  0.03120800  1
  La  La1  1  0.48882300  0.74903300  0.46880300  1
  V  V0  1  0.99981200  0.49875000  0.50054300  1
  V  V1  1  0.49981400  0.99875500  0.99946000  1
  Fe  Fe0  1  0.99897800  0.00036000  0.50000300  1
  Fe  Fe1  1  0.49898200  0.50036000  0.99999000  1
  O  O0  1  0.58304800  0.75999500  0.01463200  1
  O  O1  1  0.08304800  0.25999700  0.48537100  1
  O  O2  1  0.21575800  0.95666000  0.21139700  1
  O  O3  1  0.71575200  0.45665700  0.28860800  1
  O  O4  1  0.21182400  0.54518300  0.21641400  1
  O  O5  1  0.71182800  0.04518100  0.28358400  1
  O  O6  1  0.92493500  0.74051300  0.51892900  1
  O  O7  1  0.42493900  0.24051400  0.98106700  1
  O  O8  1  0.28045200  0.54138400  0.71674000  1
  O  O9  1  0.78045400  0.04138300  0.78326000  1
  O  O10  1  0.28316000  0.95776400  0.71947800  1
  O  O11  1  0.78316100  0.45776200  0.78051800  1
loop_
_geom_bond_atom_site_label_1
_geom_bond_atom_site_label_2
_geom_bond_distance
_geom_bond_site_symmetry_2
Ca0 O1 2.397723 1_555
Ca0 O5 2.398946 1_555
Ca0 O3 2.402945 1_555
Ca0 O7 2.514215 1_555
Ca0 O11 2.568867 1_555
Ca0 O9 2.569616 1_555
Ca0 O8 2.763146 1_555
Ca0 O10 2.778421 1_545
Ca1 O0 2.397803 1_456
Ca1 O4 2.398868 1_556
Ca1 O2 2.402999 1_556
Ca1 O6 2.514222 1_455
Ca1 O10 2.568866 1_555
Ca1 O8 2.569526 1_555
Ca1 O9 2.763192 1_465
Ca1 O11 2.778419 1_455
La0 O9 2.412723 1_554
La0 O11 2.414838 1_554
La0 O7 2.426870 1_654
La0 O1 2.594808 1_655
La0 O5 2.611270 1_555
La0 O3 2.625335 1_555
La0 O2 2.764633 1_645
La0 O4 2.795603 1_655
La1 O8 2.412630 1_555
La1 O10 2.414845 1_555
La1 O6 2.426862 1_555
La1 O0 2.594864 1_555
La1 O4 2.611242 1_555
La1 O2 2.625374 1_555
La1 O3 2.764602 1_555
La1 O5 2.795707 1_565
Fe0 O9 2.016501 1_555
Fe0 O10 2.019319 1_645
Fe0 O5 2.024616 1_555
Fe0 O2 2.037678 1_645
Fe0 O6 2.047268 1_545
Fe0 O1 2.056568 1_655
Fe1 O8 2.016483 1_555
Fe1 O11 2.019306 1_555
Fe1 O4 2.024678 1_556
Fe1 O3 2.037694 1_556
Fe1 O7 2.047259 1_555
Fe1 O0 2.056550 1_556
O0 V1 1.896397 1_554
O1 V0 1.896347 1_455
O2 V1 1.994508 1_554
O3 V0 1.994507 1_555
O4 V0 2.007381 1_455
O5 V1 2.007347 1_544
O6 V0 1.909317 1_555
O7 V1 1.909286 1_545
O8 V0 1.994720 1_455
O9 V1 1.994731 1_545
O10 V1 1.997146 1_555
O11 V0 1.997111 1_555
