# generated using pymatgen
data_KYBeF6
_symmetry_space_group_name_H-M   'P 1'
_cell_length_a   5.86557200
_cell_length_b   6.46365700
_cell_length_c   7.13354586
_cell_angle_alpha   67.10079816
_cell_angle_beta   90.00000000
_cell_angle_gamma   90.00000000
_symmetry_Int_Tables_number   1
_chemical_formula_structural   KYBeF6
_chemical_formula_sum   'K2 Y2 Be2 F12'
_cell_volume   249.14015705
_cell_formula_units_Z   2
loop_
 _symmetry_equiv_pos_site_id
 _symmetry_equiv_pos_as_xyz
  1  'x, y, z'
loop_
 _atom_site_type_symbol
 _atom_site_label
 _atom_site_symmetry_multiplicity
 _atom_site_fract_x
 _atom_site_fract_y
 _atom_site_fract_z
 _atom_site_occupancy
  K  K0  1  0.25000000  0.07100300  0.79647700  1
  K  K1  1  0.75000000  0.92899700  0.20352300  1
  Y  Y0  1  0.25000000  0.38823100  0.18080500  1
  Y  Y1  1  0.75000000  0.61176900  0.81919500  1
  Be  Be0  1  0.25000000  0.76771500  0.46409400  1
  Be  Be1  1  0.75000000  0.23228500  0.53590600  1
  F  F0  1  0.46480000  0.76799200  0.59455200  1
  F  F1  1  0.53520000  0.23200800  0.40544800  1
  F  F2  1  0.96480000  0.23200800  0.40544800  1
  F  F3  1  0.03520000  0.76799200  0.59455200  1
  F  F4  1  0.25000000  0.55895300  0.40855600  1
  F  F5  1  0.75000000  0.44104700  0.59144400  1
  F  F6  1  0.49885400  0.67969200  0.03437000  1
  F  F7  1  0.50114600  0.32030800  0.96563000  1
  F  F8  1  0.99885400  0.32030800  0.96563000  1
  F  F9  1  0.00114600  0.67969200  0.03437000  1
  F  F10  1  0.25000000  0.98642200  0.26380600  1
  F  F11  1  0.75000000  0.01357800  0.73619400  1
loop_
_geom_bond_atom_site_label_1
_geom_bond_atom_site_label_2
_geom_bond_distance
_geom_bond_site_symmetry_2
Be0 F4 1.547186 1_555
Be0 F3 1.566774 1_555
Be0 F0 1.566774 1_555
Be0 F10 1.570966 1_555
Be1 F5 1.547186 1_555
Be1 F2 1.566774 1_555
Be1 F1 1.566774 1_555
Be1 F11 1.570966 1_555
F0 Y1 2.264249 1_555
F0 K1 3.066474 1_555
F0 K0 3.113478 1_565
F1 Y0 2.264249 1_555
F1 K0 3.066474 1_555
F1 K1 3.113478 1_545
F2 Y0 2.264249 1_655
F2 K0 3.066474 1_655
F2 K1 3.113478 1_545
F3 Y1 2.264249 1_455
F3 K1 3.066474 1_455
F3 K0 3.113478 1_565
F4 Y0 2.291822 1_555
F4 K0 3.288298 1_555
F5 Y1 2.291822 1_555
F5 K1 3.288298 1_555
F6 Y0 2.288982 1_555
F6 Y1 2.289839 1_554
F6 K1 2.781364 1_555
F6 K0 2.840340 1_564
F7 Y1 2.288982 1_555
F7 Y0 2.289839 1_556
F7 K0 2.781364 1_555
F7 K1 2.840340 1_546
F8 Y1 2.288982 1_555
F8 Y0 2.289839 1_656
F8 K0 2.781364 1_655
F8 K1 2.840340 1_546
F9 Y0 2.288982 1_555
F9 Y1 2.289839 1_454
F9 K1 2.781364 1_455
F9 K0 2.840340 1_564
F10 Y0 2.428801 1_565
F10 K1 3.008014 1_455
F10 K1 3.008014 1_555
F10 K0 3.161357 1_564
F11 Y1 2.428801 1_545
F11 K0 3.008014 1_555
F11 K0 3.008014 1_655
F11 K1 3.161357 1_546
