# generated using pymatgen
data_Li4Zn(PS4)2
_symmetry_space_group_name_H-M   'P 1'
_cell_length_a   6.40872200
_cell_length_b   7.91278495
_cell_length_c   18.47398757
_cell_angle_alpha   89.74205387
_cell_angle_beta   89.76566150
_cell_angle_gamma   89.80263407
_symmetry_Int_Tables_number   1
_chemical_formula_structural   Li4Zn(PS4)2
_chemical_formula_sum   'Li12 Zn3 P6 S24'
_cell_volume   936.80858005
_cell_formula_units_Z   3
loop_
 _symmetry_equiv_pos_site_id
 _symmetry_equiv_pos_as_xyz
  1  'x, y, z'
loop_
 _atom_site_type_symbol
 _atom_site_label
 _atom_site_symmetry_multiplicity
 _atom_site_fract_x
 _atom_site_fract_y
 _atom_site_fract_z
 _atom_site_occupancy
  Li  Li0  1  0.30740100  0.75510900  0.66816600  1
  Li  Li1  1  0.31201400  0.74503100  0.99790300  1
  Li  Li2  1  0.69643200  0.73641100  0.83008900  1
  Li  Li3  1  0.67128000  0.74478100  0.17110100  1
  Li  Li4  1  0.31149900  0.23750700  0.99950700  1
  Li  Li5  1  0.69440300  0.25381800  0.82851000  1
  Li  Li6  1  0.68876100  0.26444300  0.50403600  1
  Li  Li7  1  0.67972900  0.25212800  0.16838300  1
  Li  Li8  1  0.15035100  0.99547300  0.83894300  1
  Li  Li9  1  0.14766200  0.97569500  0.17380300  1
  Li  Li10  1  0.86893900  0.52895400  0.33724000  1
  Li  Li11  1  0.85286600  0.49600800  0.00736400  1
  Zn  Zn0  1  0.69777500  0.75842000  0.49881300  1
  Zn  Zn1  1  0.30164500  0.25244500  0.66406400  1
  Zn  Zn2  1  0.30563300  0.24789700  0.33741200  1
  P  P0  1  0.80159700  0.00128300  0.66312800  1
  P  P1  1  0.82664600  0.01108500  0.33550100  1
  P  P2  1  0.81663000  0.99435800  0.00112400  1
  P  P3  1  0.18252800  0.49027300  0.83213800  1
  P  P4  1  0.19545800  0.50607100  0.49907800  1
  P  P5  1  0.17609900  0.49901800  0.17125700  1
  S  S0  1  0.67838400  0.78464700  0.69965700  1
  S  S1  1  0.67057900  0.79829500  0.37206400  1
  S  S2  1  0.66955200  0.78075800  0.03923900  1
  S  S3  1  0.33075300  0.70632800  0.86618300  1
  S  S4  1  0.34107800  0.71936200  0.53700300  1
  S  S5  1  0.31860300  0.70011200  0.21527300  1
  S  S6  1  0.66291300  0.22467700  0.69630500  1
  S  S7  1  0.67160500  0.23073900  0.37062500  1
  S  S8  1  0.67221200  0.21042200  0.03787300  1
  S  S9  1  0.33305300  0.27631500  0.86793000  1
  S  S10  1  0.31282800  0.27842300  0.53552100  1
  S  S11  1  0.31446400  0.27214300  0.20776200  1
  S  S12  1  0.80143700  0.99421500  0.88946600  1
  S  S13  1  0.82568800  0.00537000  0.55172900  1
  S  S14  1  0.79971200  0.00099000  0.22454300  1
  S  S15  1  0.16779900  0.49611500  0.71993700  1
  S  S16  1  0.22874100  0.51604600  0.38718300  1
  S  S17  1  0.20026200  0.49111300  0.05980400  1
  S  S18  1  0.11031700  0.01159500  0.70383000  1
  S  S19  1  0.12448400  0.00526700  0.37265400  1
  S  S20  1  0.12047100  0.99098800  0.03673100  1
  S  S21  1  0.88418600  0.49240400  0.87303700  1
  S  S22  1  0.89015600  0.51658200  0.53587900  1
  S  S23  1  0.86926400  0.49710500  0.20405800  1
loop_
_geom_bond_atom_site_label_1
_geom_bond_atom_site_label_2
_geom_bond_distance
_geom_bond_site_symmetry_2
Li0 S15 2.429618 1_555
Li0 S4 2.449386 1_555
Li0 S0 2.462129 1_555
Li0 S18 2.477079 1_565
Li1 S20 2.407908 1_556
Li1 S17 2.416621 1_556
Li1 S2 2.436006 1_556
Li1 S3 2.456355 1_555
Li2 S21 2.404841 1_555
Li2 S12 2.419327 1_555
Li2 S0 2.441090 1_555
Li2 S3 2.446032 1_555
Li3 S14 2.407991 1_565
Li3 S23 2.408298 1_555
Li3 S5 2.426356 1_555
Li3 S2 2.451387 1_555
Li4 S20 2.402958 1_546
Li4 S17 2.404117 1_556
Li4 S8 2.429179 1_556
Li4 S9 2.452093 1_555
Li5 S21 2.399591 1_555
Li5 S9 2.430937 1_555
Li5 S12 2.435997 1_545
Li5 S6 2.463415 1_555
Li6 S13 2.393006 1_555
Li6 S22 2.454986 1_555
Li6 S10 2.478371 1_555
Li6 S7 2.483137 1_555
Li7 S14 2.365179 1_555
Li7 S23 2.387815 1_555
Li7 S8 2.435686 1_555
Li7 S11 2.453284 1_555
Li8 S12 2.419581 1_455
Li8 S18 2.512895 1_565
Li8 S9 2.574854 1_565
Li8 S3 2.607827 1_555
Li9 S14 2.423378 1_465
Li9 S20 2.541277 1_555
Li9 S5 2.552957 1_555
Li9 S11 2.659844 1_565
Li10 S23 2.474396 1_555
Li10 S16 2.488711 1_655
Li10 S1 2.561071 1_555
Li10 S7 2.747555 1_555
Li11 S17 2.431756 1_655
Li11 S21 2.489125 1_554
Li11 S8 2.601136 1_555
Li11 S2 2.606096 1_555
P0 S0 2.002984 1_545
P0 S13 2.063254 1_555
P0 S6 2.069959 1_555
P0 S18 2.121403 1_655
P1 S19 2.031357 1_655
P1 S14 2.059726 1_555
P1 S1 2.070633 1_545
P1 S7 2.102903 1_555
P2 S8 2.057886 1_565
P2 S20 2.057934 1_655
P2 S2 2.058100 1_555
P2 S12 2.065469 1_554
P3 S21 2.053035 1_455
P3 S9 2.053766 1_555
P3 S3 2.060685 1_555
P3 S15 2.075633 1_555
P4 S4 2.058416 1_555
P4 S10 2.061003 1_555
P4 S22 2.070242 1_455
P4 S16 2.078428 1_555
P5 S5 2.013696 1_555
P5 S23 2.055385 1_455
P5 S17 2.065377 1_555
P5 S11 2.108775 1_555
S1 Zn0 2.368362 1_555
S4 Zn0 2.410115 1_555
S6 Zn1 2.402102 1_555
S7 Zn2 2.429958 1_555
S10 Zn1 2.383467 1_555
S11 Zn2 2.402414 1_555
S13 Zn0 2.341110 1_545
S15 Zn1 2.349065 1_555
S16 Zn2 2.365791 1_555
S18 Zn1 2.381461 1_555
S19 Zn2 2.335701 1_555
S22 Zn0 2.372707 1_555
