# generated using pymatgen
data_Li2P(HO)6
_symmetry_space_group_name_H-M   'P 1'
_cell_length_a   11.10545078
_cell_length_b   11.10545078
_cell_length_c   11.10545078
_cell_angle_alpha   109.47122063
_cell_angle_beta   109.47122063
_cell_angle_gamma   109.47122063
_symmetry_Int_Tables_number   1
_chemical_formula_structural   Li2P(HO)6
_chemical_formula_sum   'Li16 P8 H48 O48'
_cell_volume   1054.35456981
_cell_formula_units_Z   8
loop_
 _symmetry_equiv_pos_site_id
 _symmetry_equiv_pos_as_xyz
  1  'x, y, z'
loop_
 _atom_site_type_symbol
 _atom_site_label
 _atom_site_symmetry_multiplicity
 _atom_site_fract_x
 _atom_site_fract_y
 _atom_site_fract_z
 _atom_site_occupancy
  Li  Li0  1  0.25000000  0.65050400  0.40050400  1
  Li  Li1  1  0.75000000  0.84949600  0.09949600  1
  Li  Li2  1  0.65050400  0.40050400  0.25000000  1
  Li  Li3  1  0.84949600  0.09949600  0.75000000  1
  Li  Li4  1  0.40050400  0.25000000  0.65050400  1
  Li  Li5  1  0.09949600  0.75000000  0.84949600  1
  Li  Li6  1  0.75000000  0.34949600  0.59949600  1
  Li  Li7  1  0.25000000  0.15050400  0.90050400  1
  Li  Li8  1  0.34949600  0.59949600  0.75000000  1
  Li  Li9  1  0.15050400  0.90050400  0.25000000  1
  Li  Li10  1  0.59949600  0.75000000  0.34949600  1
  Li  Li11  1  0.90050400  0.25000000  0.15050400  1
  Li  Li12  1  0.00000000  0.00000000  0.50000000  1
  Li  Li13  1  0.50000000  0.50000000  0.50000000  1
  Li  Li14  1  0.50000000  0.00000000  0.00000000  1
  Li  Li15  1  0.00000000  0.50000000  0.00000000  1
  P  P0  1  0.50000000  0.00000000  0.60065000  1
  P  P1  1  0.60065000  0.50000000  0.00000000  1
  P  P2  1  0.00000000  0.60065000  0.50000000  1
  P  P3  1  0.89935000  0.89935000  0.89935000  1
  P  P4  1  0.50000000  0.00000000  0.39935000  1
  P  P5  1  0.39935000  0.50000000  0.00000000  1
  P  P6  1  0.00000000  0.39935000  0.50000000  1
  P  P7  1  0.10065000  0.10065000  0.10065000  1
  H  H0  1  0.09003900  0.80110000  0.40703400  1
  H  H1  1  0.60593300  0.69890000  0.78893800  1
  H  H2  1  0.40996100  0.81699500  0.71106200  1
  H  H3  1  0.89406700  0.68300500  0.09296600  1
  H  H4  1  0.80110000  0.40703400  0.09003900  1
  H  H5  1  0.69890000  0.78893800  0.60593300  1
  H  H6  1  0.81699500  0.71106200  0.40996100  1
  H  H7  1  0.68300500  0.09296600  0.89406700  1
  H  H8  1  0.40703400  0.09003900  0.80110000  1
  H  H9  1  0.78893800  0.60593300  0.69890000  1
  H  H10  1  0.71106200  0.40996100  0.81699500  1
  H  H11  1  0.09296600  0.89406700  0.68300500  1
  H  H12  1  0.90996100  0.19890000  0.59296600  1
  H  H13  1  0.39406700  0.30110000  0.21106200  1
  H  H14  1  0.59003900  0.18300500  0.28893800  1
  H  H15  1  0.10593300  0.31699500  0.90703400  1
  H  H16  1  0.19890000  0.59296600  0.90996100  1
  H  H17  1  0.30110000  0.21106200  0.39406700  1
  H  H18  1  0.18300500  0.28893800  0.59003900  1
  H  H19  1  0.31699500  0.90703400  0.10593300  1
  H  H20  1  0.59296600  0.90996100  0.19890000  1
  H  H21  1  0.21106200  0.39406700  0.30110000  1
  H  H22  1  0.28893800  0.59003900  0.18300500  1
  H  H23  1  0.90703400  0.10593300  0.31699500  1
  H  H24  1  0.22209900  0.96316400  0.50497700  1
  H  H25  1  0.54181300  0.53683600  0.75893500  1
  H  H26  1  0.27790100  0.78287800  0.74106500  1
  H  H27  1  0.95818700  0.71712200  0.99502300  1
  H  H28  1  0.96316400  0.50497700  0.22209900  1
  H  H29  1  0.53683600  0.75893500  0.54181300  1
  H  H30  1  0.78287800  0.74106500  0.27790100  1
  H  H31  1  0.71712200  0.99502300  0.95818700  1
  H  H32  1  0.50497700  0.22209900  0.96316400  1
  H  H33  1  0.75893500  0.54181300  0.53683600  1
  H  H34  1  0.74106500  0.27790100  0.78287800  1
  H  H35  1  0.99502300  0.95818700  0.71712200  1
  H  H36  1  0.77790100  0.03683600  0.49502300  1
  H  H37  1  0.45818700  0.46316400  0.24106500  1
  H  H38  1  0.72209900  0.21712200  0.25893500  1
  H  H39  1  0.04181300  0.28287800  0.00497700  1
  H  H40  1  0.03683600  0.49502300  0.77790100  1
  H  H41  1  0.46316400  0.24106500  0.45818700  1
  H  H42  1  0.21712200  0.25893500  0.72209900  1
  H  H43  1  0.28287800  0.00497700  0.04181300  1
  H  H44  1  0.49502300  0.77790100  0.03683600  1
  H  H45  1  0.24106500  0.45818700  0.46316400  1
  H  H46  1  0.25893500  0.72209900  0.21712200  1
  H  H47  1  0.00497700  0.04181300  0.28287800  1
  O  O0  1  0.42979100  0.83751100  0.56431300  1
  O  O1  1  0.72680200  0.66248900  0.09228000  1
  O  O2  1  0.07020900  0.63452200  0.40772000  1
  O  O3  1  0.77319800  0.86547800  0.93568700  1
  O  O4  1  0.83751100  0.56431300  0.42979100  1
  O  O5  1  0.66248900  0.09228000  0.72680200  1
  O  O6  1  0.63452200  0.40772000  0.07020900  1
  O  O7  1  0.86547800  0.93568700  0.77319800  1
  O  O8  1  0.56431300  0.42979100  0.83751100  1
  O  O9  1  0.09228000  0.72680200  0.66248900  1
  O  O10  1  0.40772000  0.07020900  0.63452200  1
  O  O11  1  0.93568700  0.77319800  0.86547800  1
  O  O12  1  0.57020900  0.16248900  0.43568700  1
  O  O13  1  0.27319800  0.33751100  0.90772000  1
  O  O14  1  0.92979100  0.36547800  0.59228000  1
  O  O15  1  0.22680200  0.13452200  0.06431300  1
  O  O16  1  0.16248900  0.43568700  0.57020900  1
  O  O17  1  0.33751100  0.90772000  0.27319800  1
  O  O18  1  0.36547800  0.59228000  0.92979100  1
  O  O19  1  0.13452200  0.06431300  0.22680200  1
  O  O20  1  0.43568700  0.57020900  0.16248900  1
  O  O21  1  0.90772000  0.27319800  0.33751100  1
  O  O22  1  0.59228000  0.92979100  0.36547800  1
  O  O23  1  0.06431300  0.22680200  0.13452200  1
  O  O24  1  0.11972000  0.90111500  0.41870600  1
  O  O25  1  0.51759000  0.59888500  0.71860500  1
  O  O26  1  0.38028000  0.79898600  0.78139500  1
  O  O27  1  0.98241000  0.70101400  0.08129400  1
  O  O28  1  0.90111500  0.41870600  0.11972000  1
  O  O29  1  0.59888500  0.71860500  0.51759000  1
  O  O30  1  0.79898600  0.78139500  0.38028000  1
  O  O31  1  0.70101400  0.08129400  0.98241000  1
  O  O32  1  0.41870600  0.11972000  0.90111500  1
  O  O33  1  0.71860500  0.51759000  0.59888500  1
  O  O34  1  0.78139500  0.38028000  0.79898600  1
  O  O35  1  0.08129400  0.98241000  0.70101400  1
  O  O36  1  0.88028000  0.09888500  0.58129400  1
  O  O37  1  0.48241000  0.40111500  0.28139500  1
  O  O38  1  0.61972000  0.20101400  0.21860500  1
  O  O39  1  0.01759000  0.29898600  0.91870600  1
  O  O40  1  0.09888500  0.58129400  0.88028000  1
  O  O41  1  0.40111500  0.28139500  0.48241000  1
  O  O42  1  0.20101400  0.21860500  0.61972000  1
  O  O43  1  0.29898600  0.91870600  0.01759000  1
  O  O44  1  0.58129400  0.88028000  0.09888500  1
  O  O45  1  0.28139500  0.48241000  0.40111500  1
  O  O46  1  0.21860500  0.61972000  0.20101400  1
  O  O47  1  0.91870600  0.01759000  0.29898600  1
loop_
_geom_bond_atom_site_label_1
_geom_bond_atom_site_label_2
_geom_bond_distance
_geom_bond_site_symmetry_2
Li0 O2 1.975974 1_555
Li0 O0 1.975974 1_555
Li0 O45 2.011758 1_555
Li0 O46 2.011769 1_555
Li1 O1 1.975974 1_555
Li1 O3 1.975974 1_554
Li1 O47 2.011766 1_565
Li1 O44 2.011769 1_555
Li2 O6 1.975974 1_555
Li2 O4 1.975974 1_555
Li2 O37 2.011758 1_555
Li2 O38 2.011769 1_555
Li3 O5 1.975974 1_555
Li3 O7 1.975974 1_545
Li3 O39 2.011766 1_655
Li3 O36 2.011769 1_555
Li4 O10 1.975974 1_555
Li4 O8 1.975974 1_555
Li4 O41 2.011758 1_555
Li4 O42 2.011769 1_555
Li5 O9 1.975974 1_555
Li5 O11 1.975974 1_455
Li5 O43 2.011766 1_556
Li5 O40 2.011769 1_555
Li6 O14 1.975974 1_555
Li6 O12 1.975974 1_555
Li6 O33 2.011758 1_555
Li6 O34 2.011769 1_555
Li7 O13 1.975974 1_555
Li7 O15 1.975974 1_556
Li7 O35 2.011766 1_545
Li7 O32 2.011769 1_555
Li8 O18 1.975974 1_555
Li8 O16 1.975974 1_555
Li8 O25 2.011758 1_555
Li8 O26 2.011769 1_555
Li9 O17 1.975974 1_555
Li9 O19 1.975974 1_565
Li9 O27 2.011766 1_455
Li9 O24 2.011769 1_555
Li10 O22 1.975974 1_555
Li10 O20 1.975974 1_555
Li10 O29 2.011758 1_555
Li10 O30 2.011769 1_555
Li11 O21 1.975974 1_555
Li11 O23 1.975974 1_655
Li11 O31 2.011766 1_554
Li11 O28 2.011769 1_555
Li12 O35 2.213891 1_545
Li12 O47 2.213891 1_455
Li12 O36 2.213897 1_455
Li12 O42 2.213897 1_555
Li12 O30 2.213897 1_445
Li12 O24 2.213897 1_545
Li13 O25 2.213902 1_555
Li13 O29 2.213902 1_555
Li13 O33 2.213902 1_555
Li13 O41 2.213902 1_555
Li13 O45 2.213902 1_555
Li13 O37 2.213902 1_555
Li14 O31 2.213891 1_554
Li14 O43 2.213891 1_545
Li14 O44 2.213897 1_545
Li14 O38 2.213897 1_555
Li14 O26 2.213897 1_544
Li14 O32 2.213897 1_554
Li15 O27 2.213891 1_455
Li15 O39 2.213891 1_554
Li15 O40 2.213897 1_554
Li15 O46 2.213897 1_555
Li15 O34 2.213897 1_454
Li15 O28 2.213897 1_455
H0 O24 0.995284 1_555
H1 O25 0.995283 1_555
H2 O26 0.995273 1_555
H3 O27 0.995284 1_555
H4 O28 0.995284 1_555
H5 O29 0.995283 1_555
H6 O30 0.995273 1_555
H7 O31 0.995284 1_555
H8 O32 0.995284 1_555
H9 O33 0.995283 1_555
H10 O34 0.995273 1_555
H11 O35 0.995284 1_555
H12 O36 0.995284 1_555
H13 O37 0.995283 1_555
H14 O38 0.995273 1_555
H15 O39 0.995284 1_555
H16 O40 0.995284 1_555
H17 O41 0.995283 1_555
H18 O42 0.995273 1_555
H19 O43 0.995284 1_555
H20 O44 0.995284 1_555
H21 O45 0.995283 1_555
H22 O46 0.995273 1_555
H23 O47 0.995284 1_555
H24 O24 0.998398 1_555
H25 O25 0.998402 1_555
H26 O26 0.998398 1_555
H27 O27 0.998398 1_556
H28 O28 0.998398 1_555
H29 O29 0.998402 1_555
H30 O30 0.998398 1_555
H31 O31 0.998398 1_565
H32 O32 0.998398 1_555
H33 O33 0.998402 1_555
H34 O34 0.998398 1_555
H35 O35 0.998398 1_655
H36 O36 0.998398 1_555
H37 O37 0.998402 1_555
H38 O38 0.998398 1_555
H39 O39 0.998398 1_554
H40 O40 0.998398 1_555
H41 O41 0.998402 1_555
H42 O42 0.998398 1_555
H43 O43 0.998398 1_545
H44 O44 0.998398 1_555
H45 O45 0.998402 1_555
H46 O46 0.998398 1_555
H47 O47 0.998398 1_455
O0 P0 1.547204 1_565
O1 P1 1.547204 1_555
O2 P2 1.547204 1_555
O3 P3 1.547204 1_555
O4 P2 1.547204 1_655
O5 P0 1.547204 1_555
O6 P1 1.547204 1_555
O7 P3 1.547204 1_555
O8 P1 1.547204 1_556
O9 P2 1.547204 1_555
O10 P0 1.547204 1_555
O11 P3 1.547204 1_555
O12 P4 1.547204 1_555
O13 P5 1.547204 1_556
O14 P6 1.547204 1_655
O15 P7 1.547204 1_555
O16 P6 1.547204 1_555
O17 P4 1.547204 1_565
O18 P5 1.547204 1_556
O19 P7 1.547204 1_555
O20 P5 1.547204 1_555
O21 P6 1.547204 1_655
O22 P4 1.547204 1_565
O23 P7 1.547204 1_555
