# generated using pymatgen
data_K2FeAgF6
_symmetry_space_group_name_H-M   'P 1'
_cell_length_a   6.17469900
_cell_length_b   6.17469995
_cell_length_c   6.17469954
_cell_angle_alpha   60.00000072
_cell_angle_beta   59.99999754
_cell_angle_gamma   59.99999972
_symmetry_Int_Tables_number   1
_chemical_formula_structural   K2FeAgF6
_chemical_formula_sum   'K2 Fe1 Ag1 F6'
_cell_volume   166.46865684
_cell_formula_units_Z   1
loop_
 _symmetry_equiv_pos_site_id
 _symmetry_equiv_pos_as_xyz
  1  'x, y, z'
loop_
 _atom_site_type_symbol
 _atom_site_label
 _atom_site_symmetry_multiplicity
 _atom_site_fract_x
 _atom_site_fract_y
 _atom_site_fract_z
 _atom_site_occupancy
  K  K0  1  0.25000000  0.25000000  0.25000000  1
  K  K1  1  0.75000000  0.75000000  0.75000000  1
  Fe  Fe0  1  0.00000000  0.00000000  0.00000000  1
  Ag  Ag0  1  0.50000000  0.50000000  0.50000000  1
  F  F0  1  0.22520200  0.77479800  0.22520200  1
  F  F1  1  0.77479800  0.77479800  0.22520200  1
  F  F2  1  0.77479800  0.22520200  0.77479800  1
  F  F3  1  0.77479800  0.22520200  0.22520200  1
  F  F4  1  0.22520200  0.77479800  0.77479800  1
  F  F5  1  0.22520200  0.22520200  0.77479800  1
loop_
_geom_bond_atom_site_label_1
_geom_bond_atom_site_label_2
_geom_bond_distance
_geom_bond_site_symmetry_2
Ag0 F1 2.399631 1_555
Ag0 F2 2.399631 1_555
Ag0 F5 2.399631 1_555
Ag0 F0 2.399631 1_555
Ag0 F4 2.399631 1_555
Ag0 F3 2.399631 1_555
F0 Fe0 1.966541 1_565
F0 K1 3.094934 1_554
F0 K1 3.094934 1_455
F0 K0 3.094935 1_565
F0 K0 3.094935 1_555
F1 Fe0 1.966541 1_665
F1 K0 3.094935 1_565
F1 K0 3.094935 1_655
F1 K1 3.094935 1_555
F1 K1 3.094935 1_554
F2 Fe0 1.966541 1_656
F2 K0 3.094934 1_556
F2 K0 3.094934 1_655
F2 K1 3.094935 1_545
F2 K1 3.094935 1_555
F3 Fe0 1.966541 1_655
F3 K0 3.094934 1_555
F3 K0 3.094934 1_655
F3 K1 3.094935 1_545
F3 K1 3.094935 1_554
F4 Fe0 1.966541 1_566
F4 K1 3.094934 1_555
F4 K1 3.094934 1_455
F4 K0 3.094935 1_565
F4 K0 3.094935 1_556
F5 Fe0 1.966541 1_556
F5 K1 3.094935 1_545
F5 K1 3.094935 1_455
F5 K0 3.094935 1_555
F5 K0 3.094935 1_556
