# generated using pymatgen
data_Mg15V
_symmetry_space_group_name_H-M   'P 1'
_cell_length_a   6.36241250
_cell_length_b   6.36241250
_cell_length_c   10.15827300
_cell_angle_alpha   90.00000000
_cell_angle_beta   90.00000000
_cell_angle_gamma   120.00000521
_symmetry_Int_Tables_number   1
_chemical_formula_structural   Mg15V
_chemical_formula_sum   'Mg15 V1'
_cell_volume   356.11817131
_cell_formula_units_Z   1
loop_
 _symmetry_equiv_pos_site_id
 _symmetry_equiv_pos_as_xyz
  1  'x, y, z'
loop_
 _atom_site_type_symbol
 _atom_site_label
 _atom_site_symmetry_multiplicity
 _atom_site_fract_x
 _atom_site_fract_y
 _atom_site_fract_z
 _atom_site_occupancy
  Mg  Mg0  1  0.00000000  0.00000000  0.50000000  1
  Mg  Mg1  1  0.00109400  0.50054700  0.00000000  1
  Mg  Mg2  1  0.00043200  0.50021600  0.50000000  1
  Mg  Mg3  1  0.49945300  0.50054700  0.00000000  1
  Mg  Mg4  1  0.49978400  0.50021600  0.50000000  1
  Mg  Mg5  1  0.49945300  0.99890600  0.00000000  1
  Mg  Mg6  1  0.49978400  0.99956800  0.50000000  1
  Mg  Mg7  1  0.16378700  0.32757500  0.75427900  1
  Mg  Mg8  1  0.16378700  0.32757500  0.24572100  1
  Mg  Mg9  1  0.16378700  0.83621300  0.75427900  1
  Mg  Mg10  1  0.16378700  0.83621300  0.24572100  1
  Mg  Mg11  1  0.67242500  0.83621300  0.75427900  1
  Mg  Mg12  1  0.67242500  0.83621300  0.24572100  1
  Mg  Mg13  1  0.66666700  0.33333300  0.74922000  1
  Mg  Mg14  1  0.66666700  0.33333300  0.25078000  1
  V  V0  1  0.00000000  0.00000000  0.00000000  1
loop_
_geom_bond_atom_site_label_1
_geom_bond_atom_site_label_2
_geom_bond_distance
_geom_bond_site_symmetry_2
Mg0 Mg9 3.151169 1_545
Mg0 Mg10 3.151169 1_545
Mg0 Mg12 3.151172 1_445
Mg0 Mg7 3.151172 1_555
Mg0 Mg11 3.151172 1_445
Mg0 Mg8 3.151172 1_555
Mg0 Mg4 3.181207 1_555
Mg0 Mg4 3.181207 1_445
Mg0 Mg2 3.181207 1_555
Mg0 Mg6 3.181207 1_445
Mg0 Mg2 3.181207 1_545
Mg0 Mg6 3.181207 1_545
Mg1 Mg8 3.106816 1_555
Mg1 Mg7 3.106816 1_554
Mg1 Mg10 3.106819 1_555
Mg1 Mg9 3.106819 1_554
Mg1 Mg14 3.144081 1_455
Mg1 Mg13 3.144081 1_454
Mg1 Mg5 3.170765 1_555
Mg1 Mg3 3.170766 1_555
Mg1 V0 3.181212 1_555
Mg1 V0 3.181212 1_565
Mg1 Mg5 3.191647 1_445
Mg1 Mg3 3.191647 1_455
Mg2 Mg6 3.177083 1_555
Mg2 Mg4 3.177083 1_555
Mg2 Mg7 3.178114 1_555
Mg2 Mg8 3.178114 1_555
Mg2 Mg9 3.178118 1_555
Mg2 Mg6 3.185329 1_445
Mg2 Mg4 3.185329 1_455
Mg3 Mg7 3.106819 1_554
Mg3 Mg8 3.106819 1_555
Mg3 Mg5 3.170766 1_555
Mg3 V0 3.181212 1_555
Mg3 V0 3.181212 1_665
Mg3 Mg5 3.191647 1_545
Mg4 Mg6 3.177083 1_555
Mg4 Mg7 3.178117 1_555
Mg4 Mg8 3.178117 1_555
Mg4 Mg6 3.185329 1_545
Mg5 Mg9 3.106819 1_554
Mg5 V0 3.181212 1_665
Mg5 V0 3.181212 1_565
Mg6 Mg9 3.178118 1_555
Mg7 V0 3.080314 1_556
Mg7 Mg9 3.126248 1_545
Mg7 Mg9 3.236165 1_555
Mg8 V0 3.080314 1_555
Mg9 V0 3.080311 1_566
Mg10 V0 3.080311 1_565
Mg10 Mg5 3.106819 1_555
Mg10 Mg12 3.126248 1_455
Mg10 Mg8 3.126248 1_565
Mg10 Mg6 3.178118 1_555
Mg10 Mg2 3.178118 1_555
Mg10 Mg14 3.181779 1_455
Mg10 Mg14 3.181779 1_565
Mg10 Mg8 3.236165 1_555
Mg10 Mg12 3.236165 1_555
Mg11 V0 3.080314 1_666
Mg11 Mg5 3.106816 1_556
Mg11 Mg3 3.106819 1_556
Mg11 Mg7 3.126247 1_665
Mg11 Mg9 3.126248 1_655
Mg11 Mg6 3.178114 1_555
Mg11 Mg4 3.178117 1_555
Mg11 Mg13 3.181773 1_565
Mg11 Mg13 3.181786 1_555
Mg11 Mg7 3.236165 1_555
Mg11 Mg9 3.236165 1_555
Mg12 V0 3.080314 1_665
Mg12 Mg5 3.106816 1_555
Mg12 Mg3 3.106819 1_555
Mg12 Mg8 3.126247 1_665
Mg12 Mg6 3.178114 1_555
Mg12 Mg4 3.178117 1_555
Mg12 Mg14 3.181773 1_565
Mg12 Mg14 3.181786 1_555
Mg12 Mg8 3.236165 1_555
Mg13 Mg6 3.129109 1_545
Mg13 Mg2 3.129109 1_655
Mg13 Mg4 3.129113 1_555
Mg13 Mg5 3.144081 1_546
Mg13 Mg3 3.144084 1_556
Mg13 Mg7 3.181773 1_655
Mg13 Mg9 3.181779 1_655
Mg13 Mg9 3.181779 1_545
Mg13 Mg7 3.181786 1_555
Mg14 Mg6 3.129109 1_545
Mg14 Mg2 3.129109 1_655
Mg14 Mg4 3.129113 1_555
Mg14 Mg5 3.144081 1_545
Mg14 Mg3 3.144084 1_555
Mg14 Mg8 3.181773 1_655
Mg14 Mg8 3.181786 1_555
