# generated using pymatgen
data_LiNd(SO4)2
_symmetry_space_group_name_H-M   'P 1'
_cell_length_a   7.70684000
_cell_length_b   7.70684000
_cell_length_c   6.13265500
_cell_angle_alpha   90.00000000
_cell_angle_beta   90.00000000
_cell_angle_gamma   90.00000000
_symmetry_Int_Tables_number   1
_chemical_formula_structural   LiNd(SO4)2
_chemical_formula_sum   'Li2 Nd2 S4 O16'
_cell_volume   364.25139122
_cell_formula_units_Z   2
loop_
 _symmetry_equiv_pos_site_id
 _symmetry_equiv_pos_as_xyz
  1  'x, y, z'
loop_
 _atom_site_type_symbol
 _atom_site_label
 _atom_site_symmetry_multiplicity
 _atom_site_fract_x
 _atom_site_fract_y
 _atom_site_fract_z
 _atom_site_occupancy
  Li  Li0  1  0.00000000  0.50000000  0.75000000  1
  Li  Li1  1  0.50000000  0.00000000  0.25000000  1
  Nd  Nd0  1  0.00000000  0.50000000  0.25000000  1
  Nd  Nd1  1  0.50000000  0.00000000  0.75000000  1
  S  S0  1  0.22094300  0.27905700  0.75000000  1
  S  S1  1  0.77905700  0.72094300  0.75000000  1
  S  S2  1  0.72094300  0.22094300  0.25000000  1
  S  S3  1  0.27905700  0.77905700  0.25000000  1
  O  O0  1  0.18315000  0.41283300  0.92532900  1
  O  O1  1  0.81685000  0.58716700  0.92532900  1
  O  O2  1  0.68315000  0.08716700  0.42532900  1
  O  O3  1  0.31685000  0.91283300  0.42532900  1
  O  O4  1  0.58716700  0.18315000  0.07467100  1
  O  O5  1  0.41283300  0.81685000  0.07467100  1
  O  O6  1  0.08716700  0.31685000  0.57467100  1
  O  O7  1  0.91283300  0.68315000  0.57467100  1
  O  O8  1  0.20463400  0.10201300  0.84105000  1
  O  O9  1  0.79536600  0.89798700  0.84105000  1
  O  O10  1  0.70463400  0.39798700  0.34105000  1
  O  O11  1  0.29536600  0.60201300  0.34105000  1
  O  O12  1  0.10201300  0.79536600  0.15895000  1
  O  O13  1  0.89798700  0.20463400  0.15895000  1
  O  O14  1  0.60201300  0.70463400  0.65895000  1
  O  O15  1  0.39798700  0.29536600  0.65895000  1
loop_
_geom_bond_atom_site_label_1
_geom_bond_atom_site_label_2
_geom_bond_distance
_geom_bond_site_symmetry_2
Li0 O6 1.897306 1_555
Li0 O0 1.897306 1_555
Li0 O1 1.897306 1_455
Li0 O7 1.897306 1_455
Li1 O3 1.897306 1_545
Li1 O2 1.897306 1_555
Li1 O5 1.897306 1_545
Li1 O4 1.897306 1_555
Nd0 O11 2.472167 1_555
Nd0 O10 2.472167 1_455
Nd0 O13 2.472167 1_455
Nd0 O12 2.472167 1_555
Nd0 O1 2.531424 1_454
Nd0 O0 2.531424 1_554
Nd0 O7 2.531424 1_455
Nd0 O6 2.531424 1_555
Nd1 O9 2.472167 1_545
Nd1 O8 2.472167 1_555
Nd1 O14 2.472167 1_545
Nd1 O15 2.472167 1_555
Nd1 O5 2.531424 1_546
Nd1 O4 2.531424 1_556
Nd1 O2 2.531424 1_555
Nd1 O3 2.531424 1_545
O0 S0 1.517860 1_555
O1 S1 1.517860 1_555
O2 S2 1.517860 1_555
O3 S3 1.517860 1_555
O4 S2 1.517860 1_555
O5 S3 1.517860 1_555
O6 S0 1.517860 1_555
O7 S1 1.517860 1_555
O8 S0 1.479631 1_555
O9 S1 1.479631 1_555
O10 S2 1.479631 1_555
O11 S3 1.479631 1_555
O12 S3 1.479631 1_555
O13 S2 1.479631 1_555
O14 S1 1.479631 1_555
O15 S0 1.479631 1_555
