# generated using pymatgen
data_Bi4(SeS)3
_symmetry_space_group_name_H-M   'P 1'
_cell_length_a   4.10931000
_cell_length_b   11.42379500
_cell_length_c   11.85730000
_cell_angle_alpha   90.00000000
_cell_angle_beta   90.00000000
_cell_angle_gamma   90.00000000
_symmetry_Int_Tables_number   1
_chemical_formula_structural   Bi4(SeS)3
_chemical_formula_sum   'Bi8 Se6 S6'
_cell_volume   556.62808370
_cell_formula_units_Z   2
loop_
 _symmetry_equiv_pos_site_id
 _symmetry_equiv_pos_as_xyz
  1  'x, y, z'
loop_
 _atom_site_type_symbol
 _atom_site_label
 _atom_site_symmetry_multiplicity
 _atom_site_fract_x
 _atom_site_fract_y
 _atom_site_fract_z
 _atom_site_occupancy
  Bi  Bi0  1  0.50000000  0.20927300  0.65902500  1
  Bi  Bi1  1  0.50000000  0.79072700  0.15902500  1
  Bi  Bi2  1  0.00000000  0.28504700  0.34132500  1
  Bi  Bi3  1  0.00000000  0.71495300  0.84132500  1
  Bi  Bi4  1  0.00000000  0.92033400  0.52060900  1
  Bi  Bi5  1  0.00000000  0.07966600  0.02060900  1
  Bi  Bi6  1  0.50000000  0.58536900  0.48382100  1
  Bi  Bi7  1  0.50000000  0.41463100  0.98382100  1
  Se  Se0  1  0.50000000  0.44807700  0.27970800  1
  Se  Se1  1  0.50000000  0.55192300  0.77970800  1
  Se  Se2  1  0.00000000  0.38191200  0.55400300  1
  Se  Se3  1  0.00000000  0.61808800  0.05400300  1
  Se  Se4  1  0.50000000  0.11350100  0.44660900  1
  Se  Se5  1  0.50000000  0.88649900  0.94660900  1
  S  S0  1  0.50000000  0.80536500  0.62105900  1
  S  S1  1  0.50000000  0.19463500  0.12105900  1
  S  S2  1  0.00000000  0.69854900  0.38257400  1
  S  S3  1  0.00000000  0.30145100  0.88257400  1
  S  S4  1  0.00000000  0.05663400  0.71126700  1
  S  S5  1  0.00000000  0.94336600  0.21126700  1
loop_
_geom_bond_atom_site_label_1
_geom_bond_atom_site_label_2
_geom_bond_distance
_geom_bond_site_symmetry_2
Bi0 Se4 2.746045 1_555
Bi0 S4 2.765117 1_655
Bi0 S4 2.765117 1_555
Bi0 Se2 3.108354 1_555
Bi0 Se2 3.108354 1_655
Bi1 Se5 2.746045 1_554
Bi1 S5 2.765117 1_655
Bi1 S5 2.765117 1_555
Bi1 Se3 3.108354 1_555
Bi1 Se3 3.108354 1_655
Bi2 Se2 2.753888 1_555
Bi2 Se0 2.867754 1_455
Bi2 Se0 2.867754 1_555
Bi2 Se4 3.101696 1_455
Bi2 Se4 3.101696 1_555
Bi3 Se3 2.753888 1_556
Bi3 Se1 2.867754 1_455
Bi3 Se1 2.867754 1_555
Bi3 Se5 3.101696 1_555
Bi3 Se5 3.101696 1_455
Bi4 S0 2.713893 1_455
Bi4 S0 2.713893 1_555
Bi4 S4 2.745025 1_565
Bi4 S2 3.016309 1_555
Bi4 Se4 3.140228 1_465
Bi4 Se4 3.140228 1_565
Bi5 S1 2.713893 1_555
Bi5 S1 2.713893 1_455
Bi5 S5 2.745025 1_545
Bi5 S3 3.016309 1_554
Bi5 Se5 3.140228 1_444
Bi5 Se5 3.140228 1_544
Bi6 S2 2.708238 1_555
Bi6 S2 2.708238 1_655
Bi6 Se0 2.883986 1_555
Bi6 S0 2.994016 1_555
Bi6 Se2 3.211893 1_655
Bi6 Se2 3.211893 1_555
Bi7 S3 2.708238 1_555
Bi7 S3 2.708238 1_655
Bi7 Se1 2.883986 1_555
Bi7 S1 2.994016 1_556
Bi7 Se3 3.211893 1_556
Bi7 Se3 3.211893 1_656
