# generated using pymatgen
data_Lu(Fe2Ge)2
_symmetry_space_group_name_H-M   'P 1'
_cell_length_a   7.01738400
_cell_length_b   7.29358600
_cell_length_c   3.89857600
_cell_angle_alpha   90.00000000
_cell_angle_beta   90.00000000
_cell_angle_gamma   90.00000000
_symmetry_Int_Tables_number   1
_chemical_formula_structural   Lu(Fe2Ge)2
_chemical_formula_sum   'Lu2 Fe8 Ge4'
_cell_volume   199.53650241
_cell_formula_units_Z   2
loop_
 _symmetry_equiv_pos_site_id
 _symmetry_equiv_pos_as_xyz
  1  'x, y, z'
loop_
 _atom_site_type_symbol
 _atom_site_label
 _atom_site_symmetry_multiplicity
 _atom_site_fract_x
 _atom_site_fract_y
 _atom_site_fract_z
 _atom_site_occupancy
  Lu  Lu0  1  0.50000000  0.50000000  0.00000000  1
  Lu  Lu1  1  0.00000000  0.00000000  0.50000000  1
  Fe  Fe0  1  0.85525000  0.40128100  0.50000000  1
  Fe  Fe1  1  0.14475000  0.59871900  0.50000000  1
  Fe  Fe2  1  0.64475000  0.90128100  0.00000000  1
  Fe  Fe3  1  0.35525000  0.09871900  0.00000000  1
  Fe  Fe4  1  0.58802600  0.14622700  0.50000000  1
  Fe  Fe5  1  0.41197400  0.85377300  0.50000000  1
  Fe  Fe6  1  0.91197400  0.64622700  0.00000000  1
  Fe  Fe7  1  0.08802600  0.35377300  0.00000000  1
  Ge  Ge0  1  0.27888300  0.29116100  0.50000000  1
  Ge  Ge1  1  0.72111700  0.70883900  0.50000000  1
  Ge  Ge2  1  0.22111700  0.79116100  0.00000000  1
  Ge  Ge3  1  0.77888300  0.20883900  0.00000000  1
loop_
_geom_bond_atom_site_label_1
_geom_bond_atom_site_label_2
_geom_bond_distance
_geom_bond_site_symmetry_2
Fe0 Ge1 2.432679 1_555
Fe0 Ge3 2.461093 1_555
Fe0 Ge3 2.461093 1_556
Fe0 Lu1 3.098033 1_655
Fe0 Lu0 3.245431 1_556
Fe0 Lu0 3.245431 1_555
Fe1 Ge0 2.432679 1_555
Fe1 Ge2 2.461093 1_556
Fe1 Ge2 2.461093 1_555
Fe1 Lu1 3.098033 1_565
Fe1 Lu0 3.245431 1_556
Fe1 Lu0 3.245431 1_555
Fe2 Ge3 2.432679 1_565
Fe2 Ge1 2.461093 1_555
Fe2 Ge1 2.461093 1_554
Fe2 Lu0 3.098033 1_555
Fe2 Lu1 3.245431 1_665
Fe2 Lu1 3.245431 1_664
Fe3 Ge2 2.432679 1_545
Fe3 Ge0 2.461093 1_554
Fe3 Ge0 2.461093 1_555
Fe3 Lu0 3.098033 1_555
Fe3 Lu1 3.245431 1_555
Fe3 Lu1 3.245431 1_554
Fe4 Ge3 2.408742 1_555
Fe4 Ge3 2.408742 1_556
Fe4 Ge0 2.413219 1_555
Fe4 Lu1 3.081433 1_655
Fe4 Lu0 3.292280 1_556
Fe4 Lu0 3.292280 1_555
Fe5 Ge2 2.408742 1_556
Fe5 Ge2 2.408742 1_555
Fe5 Ge1 2.413219 1_555
Fe5 Lu1 3.081433 1_565
Fe5 Lu0 3.292280 1_556
Fe5 Lu0 3.292280 1_555
Fe6 Ge1 2.408742 1_555
Fe6 Ge1 2.408742 1_554
Fe6 Ge2 2.413219 1_655
Fe6 Lu0 3.081433 1_555
Fe6 Lu1 3.292280 1_664
Fe6 Lu1 3.292280 1_665
Fe7 Ge0 2.408742 1_554
Fe7 Ge0 2.408742 1_555
Fe7 Ge3 2.413219 1_455
Fe7 Lu0 3.081433 1_555
Fe7 Lu1 3.292280 1_554
Fe7 Lu1 3.292280 1_555
Ge0 Lu1 2.887849 1_555
Ge0 Lu0 2.920184 1_556
Ge0 Lu0 2.920184 1_555
Ge1 Lu1 2.887849 1_665
Ge1 Lu0 2.920184 1_556
Ge1 Lu0 2.920184 1_555
Ge2 Lu0 2.887849 1_555
Ge2 Lu1 2.920184 1_565
Ge2 Lu1 2.920184 1_564
Ge3 Lu0 2.887849 1_555
Ge3 Lu1 2.920184 1_654
Ge3 Lu1 2.920184 1_655
