# generated using pymatgen
data_EuZrO3
_symmetry_space_group_name_H-M   'P 1'
_cell_length_a   8.36717200
_cell_length_b   8.36717200
_cell_length_c   8.36717200
_cell_angle_alpha   90.00000000
_cell_angle_beta   90.00000000
_cell_angle_gamma   90.00000000
_symmetry_Int_Tables_number   1
_chemical_formula_structural   EuZrO3
_chemical_formula_sum   'Eu8 Zr8 O24'
_cell_volume   585.78209106
_cell_formula_units_Z   8
loop_
 _symmetry_equiv_pos_site_id
 _symmetry_equiv_pos_as_xyz
  1  'x, y, z'
loop_
 _atom_site_type_symbol
 _atom_site_label
 _atom_site_symmetry_multiplicity
 _atom_site_fract_x
 _atom_site_fract_y
 _atom_site_fract_z
 _atom_site_occupancy
  Eu  Eu0  1  0.24407900  0.24407900  0.24407900  1
  Eu  Eu1  1  0.27619600  0.22380400  0.77619600  1
  Eu  Eu2  1  0.22380400  0.77619600  0.27619600  1
  Eu  Eu3  1  0.25592100  0.75592100  0.74407900  1
  Eu  Eu4  1  0.77619600  0.27619600  0.22380400  1
  Eu  Eu5  1  0.74407900  0.25592100  0.75592100  1
  Eu  Eu6  1  0.75592100  0.74407900  0.25592100  1
  Eu  Eu7  1  0.72380400  0.72380400  0.72380400  1
  Zr  Zr0  1  0.00717800  0.00717800  0.00717800  1
  Zr  Zr1  1  0.99021800  0.00978200  0.50978200  1
  Zr  Zr2  1  0.00978200  0.50978200  0.99021800  1
  Zr  Zr3  1  0.99282200  0.50717800  0.49282200  1
  Zr  Zr4  1  0.49021800  0.49021800  0.49021800  1
  Zr  Zr5  1  0.50978200  0.99021800  0.00978200  1
  Zr  Zr6  1  0.49282200  0.99282200  0.50717800  1
  Zr  Zr7  1  0.50717800  0.49282200  0.99282200  1
  O  O0  1  0.02557900  0.01743500  0.26065300  1
  O  O1  1  0.01743500  0.26065300  0.02557900  1
  O  O2  1  0.01345800  0.03550900  0.75975700  1
  O  O3  1  0.03550900  0.75975700  0.01345800  1
  O  O4  1  0.26065300  0.02557900  0.01743500  1
  O  O5  1  0.25975700  0.48654200  0.96449100  1
  O  O6  1  0.24024300  0.51345800  0.46449100  1
  O  O7  1  0.23934700  0.97442100  0.51743500  1
  O  O8  1  0.46449100  0.24024300  0.51345800  1
  O  O9  1  0.48654200  0.96449100  0.25975700  1
  O  O10  1  0.48256500  0.73934700  0.52557900  1
  O  O11  1  0.47442100  0.98256500  0.76065300  1
  O  O12  1  0.51345800  0.46449100  0.24024300  1
  O  O13  1  0.52557900  0.48256500  0.73934700  1
  O  O14  1  0.51743500  0.23934700  0.97442100  1
  O  O15  1  0.53550900  0.74024300  0.98654200  1
  O  O16  1  0.75975700  0.01345800  0.03550900  1
  O  O17  1  0.73934700  0.52557900  0.48256500  1
  O  O18  1  0.76065300  0.47442100  0.98256500  1
  O  O19  1  0.74024300  0.98654200  0.53550900  1
  O  O20  1  0.96449100  0.25975700  0.48654200  1
  O  O21  1  0.97442100  0.51743500  0.23934700  1
  O  O22  1  0.98654200  0.53550900  0.74024300  1
  O  O23  1  0.98256500  0.76065300  0.47442100  1
loop_
_geom_bond_atom_site_label_1
_geom_bond_atom_site_label_2
_geom_bond_distance
_geom_bond_site_symmetry_2
Eu0 O4 2.637776 1_555
Eu0 O1 2.637776 1_555
Eu0 O0 2.637776 1_555
Eu0 O6 2.912464 1_555
Eu0 O8 2.912464 1_555
Eu0 O12 2.912464 1_555
Eu0 O9 3.099284 1_545
Eu0 O5 3.099284 1_554
Eu0 O20 3.099284 1_455
Eu0 O21 3.213052 1_455
Eu0 O7 3.213052 1_545
Eu0 O14 3.213052 1_554
Eu1 O14 2.615742 1_555
Eu1 O11 2.615742 1_545
Eu1 O4 2.615742 1_556
Eu1 O2 2.708128 1_555
Eu1 O8 2.708128 1_555
Eu1 O5 2.708128 1_555
Eu1 O1 3.022704 1_556
Eu1 O13 3.022704 1_555
Eu1 O7 3.022704 1_545
Eu2 O7 2.615742 1_555
Eu2 O23 2.615742 1_455
Eu2 O0 2.615742 1_565
Eu2 O9 2.708128 1_555
Eu2 O6 2.708128 1_555
Eu2 O3 2.708128 1_555
Eu2 O4 3.022704 1_565
Eu2 O10 3.022704 1_555
Eu2 O21 3.022704 1_455
Eu3 O10 2.637776 1_555
Eu3 O11 2.637776 1_555
Eu3 O7 2.637776 1_555
Eu3 O5 2.912464 1_555
Eu3 O3 2.912464 1_556
Eu3 O22 2.912464 1_455
Eu3 O6 3.099284 1_555
Eu3 O15 3.099284 1_555
Eu3 O2 3.099284 1_565
Eu3 O4 3.213052 1_566
Eu3 O23 3.213052 1_455
Eu3 O13 3.213052 1_555
Eu4 O21 2.615742 1_555
Eu4 O18 2.615742 1_554
Eu4 O1 2.615742 1_655
Eu4 O12 2.708128 1_555
Eu4 O16 2.708128 1_555
Eu4 O20 2.708128 1_555
Eu4 O0 3.022704 1_655
Eu4 O17 3.022704 1_555
Eu4 O14 3.022704 1_554
Eu5 O13 2.637776 1_555
Eu5 O18 2.637776 1_555
Eu5 O14 2.637776 1_555
Eu5 O20 2.912464 1_555
Eu5 O19 2.912464 1_545
Eu5 O2 2.912464 1_655
Eu5 O8 3.099284 1_555
Eu5 O22 3.099284 1_555
Eu5 O16 3.099284 1_556
Eu5 O1 3.213052 1_656
Eu5 O11 3.213052 1_545
Eu5 O17 3.213052 1_555
Eu6 O17 2.637776 1_555
Eu6 O23 2.637776 1_555
Eu6 O21 2.637776 1_555
Eu6 O9 2.912464 1_555
Eu6 O16 2.912464 1_565
Eu6 O15 2.912464 1_554
Eu6 O12 3.099284 1_555
Eu6 O19 3.099284 1_555
Eu6 O3 3.099284 1_655
Eu6 O0 3.213052 1_665
Eu6 O18 3.213052 1_554
Eu6 O10 3.213052 1_555
Eu7 O17 2.615742 1_555
Eu7 O13 2.615742 1_555
Eu7 O10 2.615742 1_555
Eu7 O22 2.708128 1_555
Eu7 O19 2.708128 1_555
Eu7 O15 2.708128 1_555
Eu7 O23 3.022704 1_555
Eu7 O18 3.022704 1_555
Eu7 O11 3.022704 1_555
O0 Zr1 2.106372 1_455
O0 Zr0 2.128181 1_555
O1 Zr2 2.106372 1_554
O1 Zr0 2.128181 1_555
O2 Zr0 2.084404 1_556
O2 Zr1 2.111604 1_455
O3 Zr0 2.084404 1_565
O3 Zr2 2.111604 1_554
O4 Zr5 2.106372 1_545
O4 Zr0 2.128181 1_555
O5 Zr7 2.084404 1_555
O5 Zr2 2.111604 1_555
O6 Zr3 2.084404 1_455
O6 Zr4 2.111604 1_555
O7 Zr1 2.106372 1_465
O7 Zr6 2.128181 1_555
O8 Zr6 2.084404 1_545
O8 Zr4 2.111604 1_555
O9 Zr6 2.084404 1_555
O9 Zr5 2.111604 1_555
O10 Zr4 2.106372 1_555
O10 Zr6 2.128181 1_555
O11 Zr5 2.106372 1_556
O11 Zr6 2.128181 1_555
O12 Zr7 2.084404 1_554
O12 Zr4 2.111604 1_555
O13 Zr4 2.106372 1_555
O13 Zr7 2.128181 1_555
O14 Zr5 2.106372 1_546
O14 Zr7 2.128181 1_555
O15 Zr7 2.084404 1_555
O15 Zr5 2.111604 1_556
O16 Zr0 2.084404 1_655
O16 Zr5 2.111604 1_545
O17 Zr4 2.106372 1_555
O17 Zr3 2.128181 1_555
O18 Zr2 2.106372 1_655
O18 Zr7 2.128181 1_555
O19 Zr6 2.084404 1_555
O19 Zr1 2.111604 1_565
O20 Zr3 2.084404 1_555
O20 Zr1 2.111604 1_555
O21 Zr2 2.106372 1_654
O21 Zr3 2.128181 1_555
O22 Zr3 2.084404 1_555
O22 Zr2 2.111604 1_655
O23 Zr1 2.106372 1_565
O23 Zr3 2.128181 1_555
