# generated using pymatgen
data_Tm13Zn58
_symmetry_space_group_name_H-M   'P 1'
_cell_length_a   13.90052069
_cell_length_b   14.21642528
_cell_length_c   14.21642528
_cell_angle_alpha   119.99996604
_cell_angle_beta   90.00000000
_cell_angle_gamma   90.00000000
_symmetry_Int_Tables_number   1
_chemical_formula_structural   Tm13Zn58
_chemical_formula_sum   'Tm26 Zn116'
_cell_volume   2433.00310150
_cell_formula_units_Z   2
loop_
 _symmetry_equiv_pos_site_id
 _symmetry_equiv_pos_as_xyz
  1  'x, y, z'
loop_
 _atom_site_type_symbol
 _atom_site_label
 _atom_site_symmetry_multiplicity
 _atom_site_fract_x
 _atom_site_fract_y
 _atom_site_fract_z
 _atom_site_occupancy
  Tm  Tm0  1  0.50000000  -0.00000000  -0.00000000  1
  Tm  Tm1  1  -0.00000000  -0.00000000  -0.00000000  1
  Tm  Tm2  1  0.75000000  0.45606907  0.91213879  1
  Tm  Tm3  1  0.75000000  0.45606718  0.54393282  1
  Tm  Tm4  1  0.75000000  0.08786121  0.54393093  1
  Tm  Tm5  1  0.25000000  0.54393093  0.08786121  1
  Tm  Tm6  1  0.25000000  0.54393282  0.45606718  1
  Tm  Tm7  1  0.25000000  0.91213879  0.45606907  1
  Tm  Tm8  1  0.75000000  0.12803120  0.25606357  1
  Tm  Tm9  1  0.75000000  0.12803068  0.87196932  1
  Tm  Tm10  1  0.75000000  0.74393643  0.87196880  1
  Tm  Tm11  1  0.25000000  0.87196880  0.74393643  1
  Tm  Tm12  1  0.25000000  0.87196932  0.12803068  1
  Tm  Tm13  1  0.25000000  0.25606357  0.12803120  1
  Tm  Tm14  1  0.55192487  0.79411728  0.58823467  1
  Tm  Tm15  1  0.55192522  0.79411937  0.20588063  1
  Tm  Tm16  1  0.55192487  0.41176533  0.20588272  1
  Tm  Tm17  1  0.44807513  0.20588272  0.41176533  1
  Tm  Tm18  1  0.44807478  0.20588063  0.79411937  1
  Tm  Tm19  1  0.44807513  0.58823467  0.79411728  1
  Tm  Tm20  1  0.05192487  0.20588272  0.41176533  1
  Tm  Tm21  1  0.05192522  0.20588063  0.79411937  1
  Tm  Tm22  1  0.05192487  0.58823467  0.79411728  1
  Tm  Tm23  1  0.94807513  0.79411728  0.58823467  1
  Tm  Tm24  1  0.94807478  0.79411937  0.20588063  1
  Tm  Tm25  1  0.94807513  0.41176533  0.20588272  1
  Zn  Zn0  1  0.75000000  0.00000054  0.99999946  1
  Zn  Zn1  1  0.25000000  0.99999946  0.00000054  1
  Zn  Zn2  1  0.25000000  0.66667645  0.33332355  1
  Zn  Zn3  1  0.75000000  0.33332355  0.66667645  1
  Zn  Zn4  1  0.59583216  0.66667720  0.33332280  1
  Zn  Zn5  1  0.40416784  0.33332280  0.66667720  1
  Zn  Zn6  1  0.09583216  0.33332280  0.66667720  1
  Zn  Zn7  1  0.90416784  0.66667720  0.33332280  1
  Zn  Zn8  1  0.50000000  0.50000000  -0.00000000  1
  Zn  Zn9  1  0.50000000  0.50000000  0.50000000  1
  Zn  Zn10  1  0.50000000  -0.00000000  0.50000000  1
  Zn  Zn11  1  -0.00000000  0.50000000  -0.00000000  1
  Zn  Zn12  1  -0.00000000  0.50000000  0.50000000  1
  Zn  Zn13  1  -0.00000000  -0.00000000  0.50000000  1
  Zn  Zn14  1  0.75000000  0.73035179  0.46070270  1
  Zn  Zn15  1  0.75000000  0.73035547  0.26964453  1
  Zn  Zn16  1  0.75000000  0.53929730  0.26964821  1
  Zn  Zn17  1  0.25000000  0.26964821  0.53929730  1
  Zn  Zn18  1  0.25000000  0.26964453  0.73035547  1
  Zn  Zn19  1  0.25000000  0.46070270  0.73035179  1
  Zn  Zn20  1  0.49999923  0.79903270  0.99999955  1
  Zn  Zn21  1  0.50000000  0.20096767  0.20096767  1
  Zn  Zn22  1  0.50000077  0.99999955  0.79903270  1
  Zn  Zn23  1  0.50000077  0.20096730  0.00000045  1
  Zn  Zn24  1  0.49999923  0.00000045  0.20096730  1
  Zn  Zn25  1  0.50000000  0.79903233  0.79903233  1
  Zn  Zn26  1  0.99999923  0.20096730  0.00000045  1
  Zn  Zn27  1  -0.00000000  0.79903233  0.79903233  1
  Zn  Zn28  1  0.00000077  0.00000045  0.20096730  1
  Zn  Zn29  1  0.00000077  0.79903270  0.99999955  1
  Zn  Zn30  1  0.99999923  0.99999955  0.79903270  1
  Zn  Zn31  1  -0.00000000  0.20096767  0.20096767  1
  Zn  Zn32  1  0.75000000  0.91567821  0.63417267  1
  Zn  Zn33  1  0.75000000  0.71849466  0.08432002  1
  Zn  Zn34  1  0.75000000  0.36582820  0.28150619  1
  Zn  Zn35  1  0.75000000  0.71849381  0.63417180  1
  Zn  Zn36  1  0.75000000  0.36582733  0.08432179  1
  Zn  Zn37  1  0.75000000  0.91567998  0.28150534  1
  Zn  Zn38  1  0.25000000  0.08432179  0.36582733  1
  Zn  Zn39  1  0.25000000  0.28150534  0.91567998  1
  Zn  Zn40  1  0.25000000  0.63417180  0.71849381  1
  Zn  Zn41  1  0.25000000  0.28150619  0.36582820  1
  Zn  Zn42  1  0.25000000  0.63417267  0.91567821  1
  Zn  Zn43  1  0.25000000  0.08432002  0.71849466  1
  Zn  Zn44  1  0.65690009  0.90505364  0.81010836  1
  Zn  Zn45  1  0.65689881  0.90505471  0.09494529  1
  Zn  Zn46  1  0.65690009  0.18989164  0.09494636  1
  Zn  Zn47  1  0.34309991  0.09494636  0.18989164  1
  Zn  Zn48  1  0.34310119  0.09494529  0.90505471  1
  Zn  Zn49  1  0.34309991  0.81010836  0.90505364  1
  Zn  Zn50  1  0.15690009  0.09494636  0.18989164  1
  Zn  Zn51  1  0.15689881  0.09494529  0.90505471  1
  Zn  Zn52  1  0.15690009  0.81010836  0.90505364  1
  Zn  Zn53  1  0.84309991  0.90505364  0.81010836  1
  Zn  Zn54  1  0.84310119  0.90505471  0.09494529  1
  Zn  Zn55  1  0.84309991  0.18989164  0.09494636  1
  Zn  Zn56  1  0.14196287  0.43698412  0.87396740  1
  Zn  Zn57  1  0.14195826  0.43697669  0.56302331  1
  Zn  Zn58  1  0.14196287  0.12603260  0.56301588  1
  Zn  Zn59  1  0.85803713  0.56301588  0.12603260  1
  Zn  Zn60  1  0.85804174  0.56302331  0.43697669  1
  Zn  Zn61  1  0.85803713  0.87396740  0.43698412  1
  Zn  Zn62  1  0.64196287  0.56301588  0.12603260  1
  Zn  Zn63  1  0.64195826  0.56302331  0.43697669  1
  Zn  Zn64  1  0.64196287  0.87396740  0.43698412  1
  Zn  Zn65  1  0.35803713  0.43698412  0.87396740  1
  Zn  Zn66  1  0.35804174  0.43697669  0.56302331  1
  Zn  Zn67  1  0.35803713  0.12603260  0.56301588  1
  Zn  Zn68  1  0.55093125  0.39887119  0.79774387  1
  Zn  Zn69  1  0.55092208  0.39886954  0.60113046  1
  Zn  Zn70  1  0.55093125  0.20225613  0.60112881  1
  Zn  Zn71  1  0.44906875  0.60112881  0.20225613  1
  Zn  Zn72  1  0.44907792  0.60113046  0.39886954  1
  Zn  Zn73  1  0.44906875  0.79774387  0.39887119  1
  Zn  Zn74  1  0.05093125  0.60112881  0.20225613  1
  Zn  Zn75  1  0.05092208  0.60113046  0.39886954  1
  Zn  Zn76  1  0.05093125  0.79774387  0.39887119  1
  Zn  Zn77  1  0.94906875  0.39887119  0.79774387  1
  Zn  Zn78  1  0.94907792  0.39886954  0.60113046  1
  Zn  Zn79  1  0.94906875  0.20225613  0.60112881  1
  Zn  Zn80  1  0.15729816  0.76429567  0.52859097  1
  Zn  Zn81  1  0.15729667  0.76430016  0.23569984  1
  Zn  Zn82  1  0.15729816  0.47140903  0.23570433  1
  Zn  Zn83  1  0.84270184  0.23570433  0.47140903  1
  Zn  Zn84  1  0.84270333  0.23569984  0.76430016  1
  Zn  Zn85  1  0.84270184  0.52859097  0.76429567  1
  Zn  Zn86  1  0.65729816  0.23570433  0.47140903  1
  Zn  Zn87  1  0.65729667  0.23569984  0.76430016  1
  Zn  Zn88  1  0.65729816  0.52859097  0.76429567  1
  Zn  Zn89  1  0.34270184  0.76429567  0.52859097  1
  Zn  Zn90  1  0.34270333  0.76430016  0.23569984  1
  Zn  Zn91  1  0.34270184  0.47140903  0.23570433  1
  Zn  Zn92  1  0.60251371  0.63419466  0.96388685  1
  Zn  Zn93  1  0.60251485  0.32969205  0.36580509  1
  Zn  Zn94  1  0.60251431  0.03611118  0.67030766  1
  Zn  Zn95  1  0.60251431  0.32969234  0.96388882  1
  Zn  Zn96  1  0.60251371  0.03611315  0.36580534  1
  Zn  Zn97  1  0.60251485  0.63419491  0.67030795  1
  Zn  Zn98  1  0.39748629  0.36580534  0.03611315  1
  Zn  Zn99  1  0.39748515  0.67030795  0.63419491  1
  Zn  Zn100  1  0.39748569  0.96388882  0.32969234  1
  Zn  Zn101  1  0.39748569  0.67030766  0.03611118  1
  Zn  Zn102  1  0.39748629  0.96388685  0.63419466  1
  Zn  Zn103  1  0.39748515  0.36580509  0.32969205  1
  Zn  Zn104  1  0.10251371  0.36580534  0.03611315  1
  Zn  Zn105  1  0.10251485  0.67030795  0.63419491  1
  Zn  Zn106  1  0.10251431  0.96388882  0.32969234  1
  Zn  Zn107  1  0.10251431  0.67030766  0.03611118  1
  Zn  Zn108  1  0.10251371  0.96388685  0.63419466  1
  Zn  Zn109  1  0.10251485  0.36580509  0.32969205  1
  Zn  Zn110  1  0.89748629  0.63419466  0.96388685  1
  Zn  Zn111  1  0.89748515  0.32969205  0.36580509  1
  Zn  Zn112  1  0.89748569  0.03611118  0.67030766  1
  Zn  Zn113  1  0.89748569  0.32969234  0.96388882  1
  Zn  Zn114  1  0.89748629  0.03611315  0.36580534  1
  Zn  Zn115  1  0.89748515  0.63419491  0.67030795  1
loop_
_geom_bond_atom_site_label_1
_geom_bond_atom_site_label_2
_geom_bond_distance
_geom_bond_site_symmetry_2
Tm0 Zn22 2.857033 1_544
Tm0 Zn23 2.857033 1_555
Tm0 Zn20 2.857033 1_544
Tm0 Zn24 2.857033 1_555
Tm0 Zn21 2.857043 1_555
Tm0 Zn25 2.857043 1_544
Tm0 Zn45 3.197247 1_545
Tm0 Zn48 3.197247 1_554
Tm0 Zn46 3.197270 1_555
Tm0 Zn44 3.197270 1_544
Tm0 Zn47 3.197270 1_555
Tm0 Zn49 3.197270 1_544
Tm0 Zn0 3.475130 1_554
Tm0 Zn1 3.475130 1_545
Tm1 Zn30 2.857033 1_444
Tm1 Zn29 2.857033 1_544
Tm1 Zn26 2.857033 1_455
Tm1 Zn28 2.857033 1_555
Tm1 Zn31 2.857043 1_555
Tm1 Zn27 2.857043 1_544
Tm1 Zn54 3.197247 1_445
Tm1 Zn51 3.197247 1_554
Tm1 Zn53 3.197270 1_444
Tm1 Zn50 3.197270 1_555
Tm1 Zn55 3.197270 1_455
Tm1 Zn52 3.197270 1_544
Tm1 Zn1 3.475130 1_545
Tm1 Zn0 3.475130 1_454
Tm2 Zn3 3.022081 1_555
Tm2 Zn59 3.031534 1_556
Tm2 Zn62 3.031534 1_556
Tm2 Zn92 3.048592 1_555
Tm2 Zn110 3.048592 1_555
Tm2 Zn113 3.048593 1_555
Tm2 Zn95 3.048593 1_555
Tm2 Zn85 3.050900 1_555
Tm2 Zn88 3.050900 1_555
Tm2 Zn87 3.050940 1_555
Tm2 Zn84 3.050940 1_555
Tm2 Zn77 3.104960 1_555
Tm2 Zn68 3.104960 1_555
Tm2 Zn36 3.282998 1_556
Tm2 Zn33 3.283005 1_556
Tm3 Zn3 3.022386 1_555
Tm3 Zn60 3.031762 1_555
Tm3 Zn63 3.031762 1_555
Tm3 Zn97 3.048592 1_555
Tm3 Zn115 3.048592 1_555
Tm3 Zn93 3.048592 1_555
Tm3 Zn111 3.048592 1_555
Tm3 Zn86 3.050870 1_555
Tm3 Zn88 3.050870 1_555
Tm3 Zn85 3.050870 1_555
Tm3 Zn83 3.050870 1_555
Tm3 Zn69 3.105076 1_555
Tm3 Zn78 3.105076 1_555
Tm3 Zn34 3.283032 1_555
Tm3 Zn35 3.283032 1_555
Tm4 Zn3 3.022081 1_555
Tm4 Zn64 3.031534 1_545
Tm4 Zn61 3.031534 1_545
Tm4 Zn96 3.048592 1_555
Tm4 Zn114 3.048592 1_555
Tm4 Zn94 3.048593 1_555
Tm4 Zn112 3.048593 1_555
Tm4 Zn83 3.050900 1_555
Tm4 Zn86 3.050900 1_555
Tm4 Zn87 3.050940 1_555
Tm4 Zn84 3.050940 1_555
Tm4 Zn79 3.104960 1_555
Tm4 Zn70 3.104960 1_555
Tm4 Zn32 3.282998 1_545
Tm4 Zn37 3.283005 1_545
Tm5 Zn2 3.022081 1_555
Tm5 Zn56 3.031534 1_554
Tm5 Zn65 3.031534 1_554
Tm5 Zn104 3.048592 1_555
Tm5 Zn98 3.048592 1_555
Tm5 Zn101 3.048593 1_555
Tm5 Zn107 3.048593 1_555
Tm5 Zn82 3.050900 1_555
Tm5 Zn91 3.050900 1_555
Tm5 Zn90 3.050940 1_555
Tm5 Zn81 3.050940 1_555
Tm5 Zn74 3.104960 1_555
Tm5 Zn71 3.104960 1_555
Tm5 Zn42 3.282998 1_554
Tm5 Zn39 3.283005 1_554
Tm6 Zn2 3.022386 1_555
Tm6 Zn66 3.031762 1_555
Tm6 Zn57 3.031762 1_555
Tm6 Zn105 3.048592 1_555
Tm6 Zn99 3.048592 1_555
Tm6 Zn109 3.048592 1_555
Tm6 Zn103 3.048592 1_555
Tm6 Zn89 3.050870 1_555
Tm6 Zn91 3.050870 1_555
Tm6 Zn80 3.050870 1_555
Tm6 Zn82 3.050870 1_555
Tm6 Zn75 3.105076 1_555
Tm6 Zn72 3.105076 1_555
Tm6 Zn40 3.283032 1_555
Tm6 Zn41 3.283032 1_555
Tm7 Zn2 3.022081 1_555
Tm7 Zn67 3.031534 1_565
Tm7 Zn58 3.031534 1_565
Tm7 Zn108 3.048592 1_555
Tm7 Zn102 3.048592 1_555
Tm7 Zn106 3.048593 1_555
Tm7 Zn100 3.048593 1_555
Tm7 Zn89 3.050900 1_555
Tm7 Zn80 3.050900 1_555
Tm7 Zn81 3.050940 1_555
Tm7 Zn90 3.050940 1_555
Tm7 Zn76 3.104960 1_555
Tm7 Zn73 3.104960 1_555
Tm7 Zn38 3.282998 1_565
Tm7 Zn43 3.283005 1_565
Tm8 Zn83 2.947851 1_555
Tm8 Zn86 2.947851 1_555
Tm8 Zn46 3.115925 1_555
Tm8 Zn55 3.115925 1_555
Tm8 Zn45 3.115926 1_545
Tm8 Zn54 3.115926 1_545
Tm8 Zn0 3.152607 1_554
Tm8 Zn37 3.215016 1_545
Tm8 Zn34 3.215068 1_555
Tm8 Zn96 3.222323 1_555
Tm8 Zn114 3.222323 1_555
Tm8 Zn111 3.222323 1_555
Tm8 Zn93 3.222323 1_555
Tm9 Zn87 2.947780 1_555
Tm9 Zn84 2.947780 1_555
Tm9 Zn55 3.115916 1_556
Tm9 Zn46 3.115916 1_556
Tm9 Zn44 3.115916 1_545
Tm9 Zn53 3.115916 1_545
Tm9 Zn0 3.152559 1_555
Tm9 Zn36 3.215055 1_556
Tm9 Zn32 3.215055 1_545
Tm9 Zn113 3.222336 1_555
Tm9 Zn95 3.222336 1_555
Tm9 Zn112 3.222336 1_555
Tm9 Zn94 3.222336 1_555
Tm10 Zn88 2.947851 1_555
Tm10 Zn85 2.947851 1_555
Tm10 Zn53 3.115925 1_555
Tm10 Zn44 3.115925 1_555
Tm10 Zn54 3.115926 1_556
Tm10 Zn45 3.115926 1_556
Tm10 Zn0 3.152607 1_565
Tm10 Zn33 3.215016 1_556
Tm10 Zn35 3.215068 1_555
Tm10 Zn110 3.222323 1_555
Tm10 Zn92 3.222323 1_555
Tm10 Zn115 3.222323 1_555
Tm10 Zn97 3.222323 1_555
Tm11 Zn89 2.947851 1_555
Tm11 Zn80 2.947851 1_555
Tm11 Zn49 3.115925 1_555
Tm11 Zn52 3.115925 1_555
Tm11 Zn51 3.115926 1_565
Tm11 Zn48 3.115926 1_565
Tm11 Zn1 3.152607 1_556
Tm11 Zn43 3.215016 1_565
Tm11 Zn40 3.215068 1_555
Tm11 Zn108 3.222323 1_555
Tm11 Zn102 3.222323 1_555
Tm11 Zn99 3.222323 1_555
Tm11 Zn105 3.222323 1_555
Tm12 Zn90 2.947780 1_555
Tm12 Zn81 2.947780 1_555
Tm12 Zn50 3.115916 1_565
Tm12 Zn47 3.115916 1_565
Tm12 Zn52 3.115916 1_554
Tm12 Zn49 3.115916 1_554
Tm12 Zn1 3.152559 1_555
Tm12 Zn38 3.215055 1_565
Tm12 Zn42 3.215055 1_554
Tm12 Zn100 3.222336 1_555
Tm12 Zn106 3.222336 1_555
Tm12 Zn107 3.222336 1_555
Tm12 Zn101 3.222336 1_555
Tm13 Zn91 2.947851 1_555
Tm13 Zn82 2.947851 1_555
Tm13 Zn47 3.115925 1_555
Tm13 Zn50 3.115925 1_555
Tm13 Zn51 3.115926 1_554
Tm13 Zn48 3.115926 1_554
Tm13 Zn1 3.152607 1_545
Tm13 Zn39 3.215016 1_554
Tm13 Zn41 3.215068 1_555
Tm13 Zn104 3.222323 1_555
Tm13 Zn98 3.222323 1_555
Tm13 Zn103 3.222323 1_555
Tm13 Zn109 3.222323 1_555
Tm14 Zn89 2.999581 1_555
Tm14 Zn102 3.046911 1_555
Tm14 Zn99 3.046921 1_555
Tm14 Zn22 3.049130 1_555
Tm14 Zn25 3.049131 1_555
Tm14 Zn72 3.071234 1_555
Tm14 Zn73 3.071303 1_555
Tm14 Zn44 3.096978 1_555
Tm14 Zn94 3.110855 1_565
Tm14 Zn97 3.110877 1_555
Tm14 Zn35 3.140915 1_555
Tm14 Zn32 3.140916 1_555
Tm14 Zn63 3.149456 1_555
Tm14 Zn64 3.149530 1_555
Tm14 Zn14 3.169587 1_555
Tm14 Zn4 3.197217 1_555
Tm15 Zn90 2.999550 1_555
Tm15 Zn100 3.046926 1_555
Tm15 Zn101 3.046926 1_555
Tm15 Zn24 3.049101 1_565
Tm15 Zn20 3.049101 1_554
Tm15 Zn73 3.071324 1_555
Tm15 Zn71 3.071324 1_555
Tm15 Zn45 3.096933 1_555
Tm15 Zn96 3.110861 1_565
Tm15 Zn92 3.110861 1_554
Tm15 Zn37 3.140912 1_555
Tm15 Zn33 3.140912 1_555
Tm15 Zn62 3.149568 1_555
Tm15 Zn64 3.149568 1_555
Tm15 Zn15 3.169557 1_555
Tm15 Zn4 3.196882 1_555
Tm16 Zn91 2.999581 1_555
Tm16 Zn98 3.046911 1_555
Tm16 Zn103 3.046921 1_555
Tm16 Zn23 3.049130 1_555
Tm16 Zn21 3.049131 1_555
Tm16 Zn72 3.071234 1_555
Tm16 Zn71 3.071303 1_555
Tm16 Zn46 3.096978 1_555
Tm16 Zn95 3.110855 1_554
Tm16 Zn93 3.110877 1_555
Tm16 Zn34 3.140915 1_555
Tm16 Zn36 3.140916 1_555
Tm16 Zn63 3.149456 1_555
Tm16 Zn62 3.149530 1_555
Tm16 Zn16 3.169587 1_555
Tm16 Zn4 3.197217 1_555
Tm17 Zn86 2.999581 1_555
Tm17 Zn96 3.046911 1_555
Tm17 Zn93 3.046921 1_555
Tm17 Zn24 3.049130 1_555
Tm17 Zn21 3.049131 1_555
Tm17 Zn69 3.071234 1_555
Tm17 Zn70 3.071303 1_555
Tm17 Zn47 3.096978 1_555
Tm17 Zn100 3.110855 1_545
Tm17 Zn103 3.110877 1_555
Tm17 Zn41 3.140915 1_555
Tm17 Zn38 3.140916 1_555
Tm17 Zn66 3.149456 1_555
Tm17 Zn67 3.149530 1_555
Tm17 Zn17 3.169587 1_555
Tm17 Zn5 3.197217 1_555
Tm18 Zn87 2.999550 1_555
Tm18 Zn94 3.046926 1_555
Tm18 Zn95 3.046926 1_555
Tm18 Zn23 3.049101 1_556
Tm18 Zn22 3.049101 1_545
Tm18 Zn68 3.071324 1_555
Tm18 Zn70 3.071324 1_555
Tm18 Zn48 3.096933 1_555
Tm18 Zn102 3.110861 1_545
Tm18 Zn98 3.110861 1_556
Tm18 Zn39 3.140912 1_555
Tm18 Zn43 3.140912 1_555
Tm18 Zn65 3.149568 1_555
Tm18 Zn67 3.149568 1_555
Tm18 Zn18 3.169557 1_555
Tm18 Zn5 3.196882 1_555
Tm19 Zn88 2.999581 1_555
Tm19 Zn92 3.046911 1_555
Tm19 Zn97 3.046921 1_555
Tm19 Zn20 3.049130 1_555
Tm19 Zn25 3.049131 1_555
Tm19 Zn69 3.071234 1_555
Tm19 Zn68 3.071303 1_555
Tm19 Zn49 3.096978 1_555
Tm19 Zn101 3.110855 1_556
Tm19 Zn99 3.110877 1_555
Tm19 Zn40 3.140915 1_555
Tm19 Zn42 3.140916 1_555
Tm19 Zn66 3.149456 1_555
Tm19 Zn65 3.149530 1_555
Tm19 Zn19 3.169587 1_555
Tm19 Zn5 3.197217 1_555
Tm20 Zn83 2.999581 1_455
Tm20 Zn114 3.046911 1_455
Tm20 Zn111 3.046921 1_455
Tm20 Zn28 3.049130 1_555
Tm20 Zn31 3.049131 1_555
Tm20 Zn78 3.071234 1_455
Tm20 Zn79 3.071303 1_455
Tm20 Zn50 3.096978 1_555
Tm20 Zn106 3.110855 1_545
Tm20 Zn109 3.110877 1_555
Tm20 Zn41 3.140915 1_555
Tm20 Zn38 3.140916 1_555
Tm20 Zn57 3.149456 1_555
Tm20 Zn58 3.149530 1_555
Tm20 Zn17 3.169587 1_555
Tm20 Zn6 3.197217 1_555
Tm21 Zn84 2.999550 1_455
Tm21 Zn112 3.046926 1_455
Tm21 Zn113 3.046926 1_455
Tm21 Zn26 3.049101 1_456
Tm21 Zn30 3.049101 1_445
Tm21 Zn77 3.071324 1_455
Tm21 Zn79 3.071324 1_455
Tm21 Zn51 3.096933 1_555
Tm21 Zn108 3.110861 1_545
Tm21 Zn104 3.110861 1_556
Tm21 Zn39 3.140912 1_555
Tm21 Zn43 3.140912 1_555
Tm21 Zn58 3.149568 1_555
Tm21 Zn56 3.149568 1_555
Tm21 Zn18 3.169557 1_555
Tm21 Zn6 3.196882 1_555
Tm22 Zn85 2.999581 1_455
Tm22 Zn110 3.046911 1_455
Tm22 Zn115 3.046921 1_455
Tm22 Zn29 3.049130 1_555
Tm22 Zn27 3.049131 1_555
Tm22 Zn78 3.071234 1_455
Tm22 Zn77 3.071303 1_455
Tm22 Zn52 3.096978 1_555
Tm22 Zn107 3.110855 1_556
Tm22 Zn105 3.110877 1_555
Tm22 Zn40 3.140915 1_555
Tm22 Zn42 3.140916 1_555
Tm22 Zn57 3.149456 1_555
Tm22 Zn56 3.149530 1_555
Tm22 Zn19 3.169587 1_555
Tm22 Zn6 3.197217 1_555
Tm23 Zn80 2.999581 1_655
Tm23 Zn108 3.046911 1_655
Tm23 Zn105 3.046921 1_655
Tm23 Zn30 3.049130 1_555
Tm23 Zn27 3.049131 1_655
Tm23 Zn75 3.071234 1_655
Tm23 Zn76 3.071303 1_655
Tm23 Zn53 3.096978 1_555
Tm23 Zn112 3.110855 1_565
Tm23 Zn115 3.110877 1_555
Tm23 Zn35 3.140915 1_555
Tm23 Zn32 3.140916 1_555
Tm23 Zn60 3.149456 1_555
Tm23 Zn61 3.149530 1_555
Tm23 Zn14 3.169587 1_555
Tm23 Zn7 3.197217 1_555
Tm24 Zn81 2.999550 1_655
Tm24 Zn106 3.046926 1_655
Tm24 Zn107 3.046926 1_655
Tm24 Zn28 3.049101 1_665
Tm24 Zn29 3.049101 1_654
Tm24 Zn76 3.071324 1_655
Tm24 Zn74 3.071324 1_655
Tm24 Zn54 3.096933 1_555
Tm24 Zn114 3.110861 1_565
Tm24 Zn110 3.110861 1_554
Tm24 Zn37 3.140912 1_555
Tm24 Zn33 3.140912 1_555
Tm24 Zn59 3.149568 1_555
Tm24 Zn61 3.149568 1_555
Tm24 Zn15 3.169557 1_555
Tm24 Zn7 3.196882 1_555
Tm25 Zn82 2.999581 1_655
Tm25 Zn104 3.046911 1_655
Tm25 Zn109 3.046921 1_655
Tm25 Zn26 3.049130 1_555
Tm25 Zn31 3.049131 1_655
Tm25 Zn75 3.071234 1_655
Tm25 Zn74 3.071303 1_655
Tm25 Zn55 3.096978 1_555
Tm25 Zn113 3.110855 1_554
Tm25 Zn111 3.110877 1_555
Tm25 Zn34 3.140915 1_555
Tm25 Zn36 3.140916 1_555
Tm25 Zn60 3.149456 1_555
Tm25 Zn59 3.149530 1_555
Tm25 Zn16 3.169587 1_555
Tm25 Zn7 3.197217 1_555
Zn0 Zn53 2.672183 1_545
Zn0 Zn44 2.672183 1_545
Zn0 Zn46 2.672183 1_556
Zn0 Zn55 2.672183 1_556
Zn0 Zn54 2.672197 1_546
Zn0 Zn45 2.672197 1_546
Zn1 Zn49 2.672183 1_554
Zn1 Zn52 2.672183 1_554
Zn1 Zn50 2.672183 1_565
Zn1 Zn47 2.672183 1_565
Zn1 Zn48 2.672197 1_564
Zn1 Zn51 2.672197 1_564
Zn2 Zn81 2.727456 1_555
Zn2 Zn90 2.727456 1_555
Zn2 Zn91 2.727665 1_555
Zn2 Zn82 2.727665 1_555
Zn2 Zn89 2.727665 1_555
Zn2 Zn80 2.727665 1_555
Zn3 Zn87 2.727456 1_555
Zn3 Zn84 2.727456 1_555
Zn3 Zn86 2.727665 1_555
Zn3 Zn88 2.727665 1_555
Zn3 Zn85 2.727665 1_555
Zn3 Zn83 2.727665 1_555
Zn4 Zn71 2.601129 1_555
Zn4 Zn73 2.601129 1_555
Zn4 Zn72 2.601234 1_555
Zn4 Zn62 2.631439 1_555
Zn4 Zn64 2.631439 1_555
Zn4 Zn63 2.631632 1_555
Zn5 Zn70 2.601129 1_555
Zn5 Zn68 2.601129 1_555
Zn5 Zn69 2.601234 1_555
Zn5 Zn65 2.631439 1_555
Zn5 Zn67 2.631439 1_555
Zn5 Zn66 2.631632 1_555
Zn6 Zn79 2.601129 1_455
Zn6 Zn77 2.601129 1_455
Zn6 Zn78 2.601234 1_455
Zn7 Zn74 2.601129 1_655
Zn7 Zn76 2.601129 1_655
Zn7 Zn75 2.601234 1_655
Zn8 Zn98 2.629299 1_555
Zn8 Zn92 2.629299 1_554
Zn8 Zn95 2.629310 1_554
Zn9 Zn99 2.629311 1_555
Zn9 Zn93 2.629311 1_555
Zn9 Zn97 2.629311 1_555
Zn10 Zn64 2.510353 1_545
Zn10 Zn67 2.510353 1_555
Zn10 Zn73 2.588821 1_545
Zn10 Zn70 2.588821 1_555
Zn10 Zn96 2.629299 1_555
Zn10 Zn102 2.629299 1_545
Zn10 Zn94 2.629310 1_555
Zn10 Zn100 2.629310 1_545
Zn11 Zn59 2.510353 1_455
Zn11 Zn56 2.510353 1_554
Zn11 Zn77 2.588821 1_454
Zn11 Zn74 2.588821 1_555
Zn11 Zn110 2.629299 1_454
Zn11 Zn113 2.629310 1_454
Zn12 Zn60 2.510409 1_455
Zn12 Zn57 2.510409 1_555
Zn12 Zn75 2.588842 1_555
Zn12 Zn78 2.588842 1_455
Zn13 Zn61 2.510353 1_445
Zn13 Zn58 2.510353 1_555
Zn13 Zn76 2.588821 1_545
Zn13 Zn79 2.588821 1_455
Zn14 Zn35 2.554575 1_555
Zn14 Zn32 2.554576 1_555
Zn14 Zn7 2.655558 1_555
Zn14 Zn4 2.655558 1_555
Zn14 Zn63 2.688059 1_555
Zn14 Zn60 2.688059 1_555
Zn14 Zn61 2.688124 1_555
Zn14 Zn64 2.688124 1_555
Zn14 Zn16 2.716113 1_555
Zn14 Zn15 2.716190 1_555
Zn15 Zn37 2.554520 1_555
Zn15 Zn33 2.554520 1_555
Zn15 Zn7 2.655388 1_555
Zn15 Zn4 2.655388 1_555
Zn15 Zn61 2.688147 1_555
Zn15 Zn64 2.688147 1_555
Zn15 Zn59 2.688147 1_555
Zn15 Zn62 2.688147 1_555
Zn15 Zn16 2.716190 1_555
Zn16 Zn34 2.554575 1_555
Zn16 Zn36 2.554576 1_555
Zn16 Zn7 2.655558 1_555
Zn16 Zn4 2.655558 1_555
Zn16 Zn60 2.688059 1_555
Zn16 Zn63 2.688059 1_555
Zn16 Zn59 2.688124 1_555
Zn16 Zn62 2.688124 1_555
Zn17 Zn41 2.554575 1_555
Zn17 Zn38 2.554576 1_555
Zn17 Zn5 2.655558 1_555
Zn17 Zn6 2.655558 1_555
Zn17 Zn57 2.688059 1_555
Zn17 Zn66 2.688059 1_555
Zn17 Zn67 2.688124 1_555
Zn17 Zn58 2.688124 1_555
Zn17 Zn19 2.716113 1_555
Zn17 Zn18 2.716190 1_555
Zn18 Zn39 2.554520 1_555
Zn18 Zn43 2.554520 1_555
Zn18 Zn6 2.655388 1_555
Zn18 Zn5 2.655388 1_555
Zn18 Zn67 2.688147 1_555
Zn18 Zn65 2.688147 1_555
Zn18 Zn56 2.688147 1_555
Zn18 Zn58 2.688147 1_555
Zn18 Zn19 2.716190 1_555
Zn19 Zn40 2.554575 1_555
Zn19 Zn42 2.554576 1_555
Zn19 Zn6 2.655558 1_555
Zn19 Zn5 2.655558 1_555
Zn19 Zn57 2.688059 1_555
Zn19 Zn66 2.688059 1_555
Zn19 Zn65 2.688124 1_555
Zn19 Zn56 2.688124 1_555
Zn20 Zn92 2.565674 1_555
Zn20 Zn49 2.610737 1_555
Zn20 Zn45 2.610742 1_556
Zn20 Zn25 2.857033 1_555
Zn20 Zn24 2.857044 1_566
Zn21 Zn93 2.565669 1_555
Zn21 Zn47 2.610742 1_555
Zn21 Zn46 2.610742 1_555
Zn21 Zn24 2.857033 1_555
Zn21 Zn23 2.857033 1_555
Zn22 Zn94 2.565654 1_565
Zn22 Zn44 2.610737 1_555
Zn22 Zn48 2.610742 1_565
Zn22 Zn25 2.857033 1_555
Zn22 Zn23 2.857044 1_566
Zn23 Zn95 2.565654 1_554
Zn23 Zn98 2.565674 1_555
Zn23 Zn46 2.610737 1_555
Zn23 Zn48 2.610742 1_554
Zn24 Zn96 2.565674 1_555
Zn24 Zn47 2.610737 1_555
Zn24 Zn45 2.610742 1_545
Zn25 Zn99 2.565669 1_555
Zn25 Zn97 2.565669 1_555
Zn25 Zn49 2.610742 1_555
Zn25 Zn44 2.610742 1_555
Zn26 Zn55 2.610737 1_555
Zn26 Zn51 2.610742 1_654
Zn26 Zn31 2.857033 1_655
Zn26 Zn30 2.857044 1_544
Zn27 Zn52 2.610742 1_555
Zn27 Zn53 2.610742 1_455
Zn27 Zn29 2.857033 1_555
Zn27 Zn30 2.857033 1_455
Zn28 Zn50 2.610737 1_555
Zn28 Zn54 2.610742 1_445
Zn28 Zn31 2.857033 1_555
Zn28 Zn29 2.857044 1_544
Zn29 Zn52 2.610737 1_555
Zn29 Zn54 2.610742 1_456
Zn30 Zn53 2.610737 1_555
Zn30 Zn51 2.610742 1_665
Zn31 Zn50 2.610742 1_555
Zn31 Zn55 2.610742 1_455
Zn32 Zn94 2.553187 1_565
Zn32 Zn35 2.803251 1_555
Zn32 Zn53 2.886395 1_555
Zn32 Zn44 2.886395 1_555
Zn32 Zn64 2.967022 1_555
Zn32 Zn61 2.967022 1_555
Zn33 Zn92 2.553199 1_554
Zn33 Zn37 2.803272 1_555
Zn33 Zn54 2.886396 1_555
Zn33 Zn45 2.886396 1_555
Zn33 Zn62 2.967049 1_555
Zn33 Zn59 2.967049 1_555
Zn34 Zn93 2.553195 1_555
Zn34 Zn36 2.803251 1_555
Zn34 Zn55 2.886398 1_555
Zn34 Zn46 2.886398 1_555
Zn34 Zn63 2.967081 1_555
Zn34 Zn60 2.967081 1_555
Zn35 Zn97 2.553195 1_555
Zn35 Zn44 2.886398 1_555
Zn35 Zn53 2.886398 1_555
Zn35 Zn60 2.967081 1_555
Zn35 Zn63 2.967081 1_555
Zn36 Zn95 2.553187 1_554
Zn36 Zn55 2.886395 1_555
Zn36 Zn46 2.886395 1_555
Zn36 Zn59 2.967022 1_555
Zn36 Zn62 2.967022 1_555
Zn37 Zn96 2.553199 1_565
Zn37 Zn45 2.886396 1_555
Zn37 Zn54 2.886396 1_555
Zn37 Zn64 2.967049 1_555
Zn37 Zn61 2.967049 1_555
Zn38 Zn41 2.803251 1_555
Zn38 Zn50 2.886395 1_555
Zn38 Zn47 2.886395 1_555
Zn38 Zn67 2.967022 1_555
Zn38 Zn58 2.967022 1_555
Zn39 Zn98 2.553199 1_556
Zn39 Zn43 2.803272 1_555
Zn39 Zn51 2.886396 1_555
Zn39 Zn48 2.886396 1_555
Zn39 Zn65 2.967049 1_555
Zn39 Zn56 2.967049 1_555
Zn40 Zn99 2.553195 1_555
Zn40 Zn42 2.803251 1_555
Zn40 Zn49 2.886398 1_555
Zn40 Zn52 2.886398 1_555
Zn40 Zn57 2.967081 1_555
Zn40 Zn66 2.967081 1_555
Zn41 Zn47 2.886398 1_555
Zn41 Zn50 2.886398 1_555
Zn41 Zn57 2.967081 1_555
Zn41 Zn66 2.967081 1_555
Zn42 Zn52 2.886395 1_555
Zn42 Zn49 2.886395 1_555
Zn42 Zn56 2.967022 1_555
Zn42 Zn65 2.967022 1_555
Zn43 Zn51 2.886396 1_555
Zn43 Zn48 2.886396 1_555
Zn43 Zn58 2.967049 1_555
Zn43 Zn67 2.967049 1_555
Zn44 Zn53 2.588274 1_555
Zn45 Zn54 2.588310 1_555
Zn46 Zn55 2.588274 1_555
Zn47 Zn50 2.588274 1_555
Zn48 Zn51 2.588310 1_555
Zn49 Zn52 2.588274 1_555
Zn56 Zn6 2.631439 1_555
Zn56 Zn77 2.840811 1_455
Zn56 Zn65 3.003545 1_555
Zn57 Zn6 2.631632 1_555
Zn57 Zn78 2.840593 1_455
Zn57 Zn66 3.003673 1_555
Zn58 Zn6 2.631439 1_555
Zn58 Zn79 2.840811 1_455
Zn58 Zn67 3.003545 1_555
Zn59 Zn7 2.631439 1_555
Zn59 Zn74 2.840811 1_655
Zn59 Zn62 3.003545 1_555
Zn60 Zn7 2.631632 1_555
Zn60 Zn75 2.840593 1_655
Zn60 Zn63 3.003673 1_555
Zn61 Zn7 2.631439 1_555
Zn61 Zn76 2.840811 1_655
Zn61 Zn64 3.003545 1_555
Zn62 Zn8 2.510353 1_555
Zn62 Zn71 2.840811 1_555
Zn62 Zn95 2.995126 1_554
Zn62 Zn92 2.995142 1_554
Zn63 Zn9 2.510409 1_555
Zn63 Zn72 2.840593 1_555
Zn63 Zn97 2.995241 1_555
Zn63 Zn93 2.995241 1_555
Zn64 Zn73 2.840811 1_555
Zn64 Zn94 2.995126 1_565
Zn64 Zn96 2.995142 1_565
Zn65 Zn8 2.510353 1_556
Zn65 Zn68 2.840811 1_555
Zn65 Zn98 2.995142 1_556
Zn66 Zn9 2.510409 1_555
Zn66 Zn69 2.840593 1_555
Zn66 Zn99 2.995241 1_555
Zn67 Zn70 2.840811 1_555
Zn68 Zn88 2.586514 1_555
Zn68 Zn87 2.586558 1_555
Zn68 Zn8 2.588821 1_556
Zn68 Zn69 2.795128 1_555
Zn68 Zn70 2.795165 1_555
Zn68 Zn92 3.063207 1_555
Zn68 Zn95 3.063217 1_555
Zn69 Zn88 2.586573 1_555
Zn69 Zn86 2.586573 1_555
Zn69 Zn9 2.588842 1_555
Zn69 Zn70 2.795128 1_555
Zn69 Zn97 3.063275 1_555
Zn69 Zn93 3.063275 1_555
Zn70 Zn86 2.586514 1_555
Zn70 Zn87 2.586558 1_555
Zn70 Zn96 3.063207 1_555
Zn70 Zn94 3.063217 1_555
Zn71 Zn91 2.586514 1_555
Zn71 Zn90 2.586558 1_555
Zn71 Zn8 2.588821 1_555
Zn71 Zn72 2.795128 1_555
Zn71 Zn73 2.795165 1_555
Zn71 Zn98 3.063207 1_555
Zn72 Zn89 2.586573 1_555
Zn72 Zn91 2.586573 1_555
Zn72 Zn9 2.588842 1_555
Zn72 Zn73 2.795128 1_555
Zn72 Zn99 3.063275 1_555
Zn73 Zn89 2.586514 1_555
Zn73 Zn90 2.586558 1_555
Zn74 Zn82 2.586514 1_555
Zn74 Zn81 2.586558 1_555
Zn74 Zn75 2.795128 1_555
Zn74 Zn76 2.795165 1_555
Zn75 Zn80 2.586573 1_555
Zn75 Zn82 2.586573 1_555
Zn75 Zn76 2.795128 1_555
Zn76 Zn80 2.586514 1_555
Zn76 Zn81 2.586558 1_555
Zn77 Zn85 2.586514 1_555
Zn77 Zn84 2.586558 1_555
Zn77 Zn78 2.795128 1_555
Zn77 Zn79 2.795165 1_555
Zn78 Zn85 2.586573 1_555
Zn78 Zn83 2.586573 1_555
Zn78 Zn79 2.795128 1_555
Zn79 Zn83 2.586514 1_555
Zn79 Zn84 2.586558 1_555
Zn80 Zn89 2.577208 1_555
Zn81 Zn90 2.577249 1_555
Zn82 Zn91 2.577208 1_555
Zn83 Zn86 2.577208 1_555
Zn84 Zn87 2.577249 1_555
Zn85 Zn88 2.577208 1_555
Zn86 Zn93 2.573945 1_555
Zn86 Zn96 2.573945 1_555
Zn87 Zn95 2.573904 1_555
Zn87 Zn94 2.573904 1_555
Zn88 Zn97 2.573945 1_555
Zn88 Zn92 2.573945 1_555
Zn89 Zn99 2.573945 1_555
Zn91 Zn98 2.573945 1_555
Zn95 Zn98 2.985494 1_556
Zn97 Zn99 2.985523 1_555
Zn100 Zn38 2.553187 1_565
Zn100 Zn24 2.565654 1_565
Zn100 Zn90 2.573904 1_555
Zn100 Zn96 2.985494 1_565
Zn100 Zn67 2.995126 1_565
Zn100 Zn73 3.063217 1_555
Zn101 Zn42 2.553187 1_554
Zn101 Zn20 2.565654 1_554
Zn101 Zn90 2.573904 1_555
Zn101 Zn8 2.629310 1_555
Zn101 Zn92 2.985494 1_554
Zn101 Zn65 2.995126 1_554
Zn101 Zn71 3.063217 1_555
Zn102 Zn43 2.553199 1_565
Zn102 Zn22 2.565674 1_555
Zn102 Zn89 2.573945 1_555
Zn102 Zn94 2.985494 1_565
Zn102 Zn67 2.995142 1_565
Zn102 Zn73 3.063207 1_555
Zn103 Zn41 2.553195 1_555
Zn103 Zn21 2.565669 1_555
Zn103 Zn91 2.573945 1_555
Zn103 Zn9 2.629311 1_555
Zn103 Zn93 2.985523 1_555
Zn103 Zn66 2.995241 1_555
Zn103 Zn72 3.063275 1_555
Zn104 Zn39 2.553199 1_554
Zn104 Zn26 2.565674 1_455
Zn104 Zn82 2.573945 1_555
Zn104 Zn11 2.629299 1_555
Zn104 Zn113 2.985494 1_454
Zn104 Zn56 2.995142 1_554
Zn104 Zn74 3.063207 1_555
Zn105 Zn40 2.553195 1_555
Zn105 Zn27 2.565669 1_555
Zn105 Zn80 2.573945 1_555
Zn105 Zn12 2.629311 1_555
Zn105 Zn115 2.985523 1_455
Zn105 Zn57 2.995241 1_555
Zn105 Zn75 3.063275 1_555
Zn106 Zn38 2.553187 1_565
Zn106 Zn28 2.565654 1_565
Zn106 Zn81 2.573904 1_555
Zn106 Zn13 2.629310 1_565
Zn106 Zn114 2.985494 1_465
Zn106 Zn58 2.995126 1_565
Zn106 Zn76 3.063217 1_555
Zn107 Zn42 2.553187 1_554
Zn107 Zn29 2.565654 1_554
Zn107 Zn81 2.573904 1_555
Zn107 Zn11 2.629310 1_555
Zn107 Zn110 2.985494 1_454
Zn107 Zn56 2.995126 1_554
Zn107 Zn74 3.063217 1_555
Zn108 Zn43 2.553199 1_565
Zn108 Zn30 2.565674 1_455
Zn108 Zn80 2.573945 1_555
Zn108 Zn13 2.629299 1_565
Zn108 Zn112 2.985494 1_465
Zn108 Zn58 2.995142 1_565
Zn108 Zn76 3.063207 1_555
Zn109 Zn41 2.553195 1_555
Zn109 Zn31 2.565669 1_555
Zn109 Zn82 2.573945 1_555
Zn109 Zn12 2.629311 1_555
Zn109 Zn111 2.985523 1_455
Zn109 Zn57 2.995241 1_555
Zn109 Zn75 3.063275 1_555
Zn110 Zn33 2.553199 1_556
Zn110 Zn29 2.565674 1_655
Zn110 Zn85 2.573945 1_555
Zn110 Zn59 2.995142 1_556
Zn110 Zn77 3.063207 1_555
Zn111 Zn34 2.553195 1_555
Zn111 Zn31 2.565669 1_655
Zn111 Zn83 2.573945 1_555
Zn111 Zn12 2.629311 1_655
Zn111 Zn60 2.995241 1_555
Zn111 Zn78 3.063275 1_555
Zn112 Zn32 2.553187 1_545
Zn112 Zn30 2.565654 1_545
Zn112 Zn84 2.573904 1_555
Zn112 Zn13 2.629310 1_655
Zn112 Zn61 2.995126 1_545
Zn112 Zn79 3.063217 1_555
Zn113 Zn36 2.553187 1_556
Zn113 Zn26 2.565654 1_556
Zn113 Zn84 2.573904 1_555
Zn113 Zn59 2.995126 1_556
Zn113 Zn77 3.063217 1_555
Zn114 Zn37 2.553199 1_545
Zn114 Zn28 2.565674 1_655
Zn114 Zn83 2.573945 1_555
Zn114 Zn13 2.629299 1_655
Zn114 Zn61 2.995142 1_545
Zn114 Zn79 3.063207 1_555
Zn115 Zn35 2.553195 1_555
Zn115 Zn27 2.565669 1_655
Zn115 Zn85 2.573945 1_555
Zn115 Zn12 2.629311 1_655
Zn115 Zn60 2.995241 1_555
Zn115 Zn78 3.063275 1_555
