# generated using pymatgen
data_Te2MoW3(SeS2)2
_symmetry_space_group_name_H-M   'P 1'
_cell_length_a   3.30880012
_cell_length_b   3.30880012
_cell_length_c   40.41864400
_cell_angle_alpha   90.00000000
_cell_angle_beta   90.00000000
_cell_angle_gamma   120.00000249
_symmetry_Int_Tables_number   1
_chemical_formula_structural   Te2MoW3(SeS2)2
_chemical_formula_sum   'Te2 Mo1 W3 Se2 S4'
_cell_volume   383.22464184
_cell_formula_units_Z   1
loop_
 _symmetry_equiv_pos_site_id
 _symmetry_equiv_pos_as_xyz
  1  'x, y, z'
loop_
 _atom_site_type_symbol
 _atom_site_label
 _atom_site_symmetry_multiplicity
 _atom_site_fract_x
 _atom_site_fract_y
 _atom_site_fract_z
 _atom_site_occupancy
  Te  Te0  1  0.33333300  0.66666700  0.32767300  1
  Te  Te1  1  0.33333300  0.66666700  0.23247500  1
  Mo  Mo0  1  0.33333300  0.66666700  0.09289000  1
  W  W0  1  0.33333300  0.66666700  0.47207400  1
  W  W1  1  0.66666700  0.33333300  0.28005800  1
  W  W2  1  0.66666700  0.33333300  0.65786100  1
  Se  Se0  1  0.66666700  0.33333300  0.43033300  1
  Se  Se1  1  0.66666700  0.33333300  0.51379900  1
  S  S0  1  0.33333300  0.66666700  0.69577400  1
  S  S1  1  0.66666700  0.33333300  0.05516900  1
  S  S2  1  0.66666700  0.33333300  0.13067700  1
  S  S3  1  0.33333300  0.66666700  0.61996600  1
loop_
_geom_bond_atom_site_label_1
_geom_bond_atom_site_label_2
_geom_bond_distance
_geom_bond_site_symmetry_2
Te0 W1 2.711680 1_455
Te0 W1 2.711680 1_565
Te0 W1 2.711684 1_555
Te1 W1 2.710762 1_455
Te1 W1 2.710762 1_565
Te1 W1 2.710766 1_555
Mo0 S1 2.444152 1_455
Mo0 S1 2.444152 1_565
Mo0 S1 2.444157 1_555
Mo0 S2 2.445817 1_455
Mo0 S2 2.445817 1_565
Mo0 S2 2.445822 1_555
Se0 W0 2.548673 1_545
Se0 W0 2.548673 1_655
Se0 W0 2.548677 1_555
Se1 W0 2.548245 1_545
Se1 W0 2.548245 1_655
Se1 W0 2.548249 1_555
S0 W2 2.449001 1_455
S0 W2 2.449001 1_565
S0 W2 2.449005 1_555
S3 W2 2.448545 1_455
S3 W2 2.448545 1_565
S3 W2 2.448550 1_555
