# generated using pymatgen
data_SrMg6Cr
_symmetry_space_group_name_H-M   'P 1'
_cell_length_a   5.25652400
_cell_length_b   6.63111100
_cell_length_c   11.60427400
_cell_angle_alpha   90.00000000
_cell_angle_beta   90.00000000
_cell_angle_gamma   90.00000000
_symmetry_Int_Tables_number   1
_chemical_formula_structural   SrMg6Cr
_chemical_formula_sum   'Sr2 Mg12 Cr2'
_cell_volume   404.48546885
_cell_formula_units_Z   2
loop_
 _symmetry_equiv_pos_site_id
 _symmetry_equiv_pos_as_xyz
  1  'x, y, z'
loop_
 _atom_site_type_symbol
 _atom_site_label
 _atom_site_symmetry_multiplicity
 _atom_site_fract_x
 _atom_site_fract_y
 _atom_site_fract_z
 _atom_site_occupancy
  Sr  Sr0  1  0.50000000  0.00000000  0.16654000  1
  Sr  Sr1  1  0.50000000  0.50000000  0.66654000  1
  Mg  Mg0  1  0.50000000  0.24522000  0.41828500  1
  Mg  Mg1  1  0.50000000  0.75478000  0.41828500  1
  Mg  Mg2  1  0.00000000  0.73093900  0.08127600  1
  Mg  Mg3  1  0.00000000  0.26906100  0.08127600  1
  Mg  Mg4  1  0.00000000  0.00000000  0.34098500  1
  Mg  Mg5  1  0.00000000  0.50000000  0.32863100  1
  Mg  Mg6  1  0.50000000  0.74522000  0.91828500  1
  Mg  Mg7  1  0.50000000  0.25478000  0.91828500  1
  Mg  Mg8  1  0.00000000  0.23093900  0.58127600  1
  Mg  Mg9  1  0.00000000  0.76906100  0.58127600  1
  Mg  Mg10  1  0.00000000  0.50000000  0.84098500  1
  Mg  Mg11  1  0.00000000  0.00000000  0.82863100  1
  Cr  Cr0  1  0.50000000  0.50000000  0.16471800  1
  Cr  Cr1  1  0.50000000  0.00000000  0.66471800  1
loop_
_geom_bond_atom_site_label_1
_geom_bond_atom_site_label_2
_geom_bond_distance
_geom_bond_site_symmetry_2
Mg0 Mg4 3.218156 1_555
Mg0 Mg4 3.218156 1_655
Mg0 Mg8 3.239459 1_555
Mg0 Mg8 3.239459 1_655
Mg0 Mg1 3.252162 1_545
Mg0 Mg5 3.293092 1_555
Mg0 Mg5 3.293092 1_655
Mg0 Sr1 3.339677 1_555
Mg0 Sr0 3.343387 1_555
Mg0 Mg1 3.378949 1_555
Mg1 Mg4 3.218156 1_665
Mg1 Mg4 3.218156 1_565
Mg1 Mg9 3.239459 1_655
Mg1 Mg9 3.239459 1_555
Mg1 Mg5 3.293092 1_555
Mg1 Mg5 3.293092 1_655
Mg1 Sr1 3.339677 1_555
Mg1 Sr0 3.343387 1_565
Mg2 Mg6 3.239459 1_554
Mg2 Mg6 3.239459 1_454
Mg2 Mg5 3.253334 1_555
Mg2 Sr0 3.327161 1_465
Mg2 Sr0 3.327161 1_565
Mg2 Mg4 3.502266 1_565
Mg3 Mg7 3.239459 1_554
Mg3 Mg7 3.239459 1_454
Mg3 Mg5 3.253334 1_555
Mg3 Sr0 3.327161 1_455
Mg3 Sr0 3.327161 1_555
Mg3 Mg4 3.502266 1_555
Mg4 Mg8 3.181245 1_555
Mg4 Mg9 3.181245 1_545
Mg4 Sr0 3.317466 1_555
Mg4 Sr0 3.317466 1_455
Mg4 Mg5 3.318653 1_555
Mg4 Mg5 3.318653 1_545
Mg5 Mg9 3.431982 1_555
Mg5 Mg8 3.431982 1_555
Mg6 Mg7 3.252162 1_555
Mg6 Sr0 3.339677 1_566
Mg6 Sr1 3.343387 1_555
Mg6 Mg7 3.378949 1_565
Mg7 Sr0 3.339677 1_556
Mg7 Sr1 3.343387 1_555
Mg8 Sr1 3.327161 1_455
Mg8 Sr1 3.327161 1_555
Mg9 Sr1 3.327161 1_555
Mg9 Sr1 3.327161 1_455
Mg10 Mg2 3.181245 1_556
Mg10 Mg3 3.181245 1_556
Mg10 Mg7 3.218156 1_455
Mg10 Mg7 3.218156 1_555
Mg10 Mg6 3.218156 1_455
Mg10 Mg6 3.218156 1_555
Mg10 Sr1 3.317466 1_455
Mg10 Sr1 3.317466 1_555
Mg10 Mg11 3.318653 1_555
Mg10 Mg11 3.318653 1_565
Mg10 Mg9 3.502266 1_555
Mg10 Mg8 3.502266 1_555
Mg11 Mg8 3.253334 1_555
Mg11 Mg9 3.253334 1_545
Mg11 Mg7 3.293092 1_555
Mg11 Mg6 3.293092 1_445
Mg11 Mg6 3.293092 1_545
Mg11 Mg7 3.293092 1_455
Mg11 Mg3 3.431982 1_556
Mg11 Mg2 3.431982 1_546
Cr0 Mg2 3.192251 1_655
Cr0 Mg3 3.192251 1_555
Cr0 Mg2 3.192251 1_555
Cr0 Mg3 3.192251 1_655
Cr0 Mg5 3.244335 1_555
Cr0 Mg5 3.244335 1_655
Cr0 Mg7 3.289664 1_554
Cr0 Mg6 3.289664 1_554
Cr0 Sr0 3.315623 1_565
Cr0 Sr0 3.315623 1_555
Cr0 Mg1 3.392993 1_555
Cr0 Mg0 3.392993 1_555
Cr1 Mg8 3.192251 1_555
Cr1 Mg8 3.192251 1_655
Cr1 Mg9 3.192251 1_645
Cr1 Mg9 3.192251 1_545
Cr1 Mg11 3.244335 1_655
Cr1 Mg11 3.244335 1_555
Cr1 Mg1 3.289664 1_545
Cr1 Mg0 3.289664 1_555
Cr1 Sr1 3.315623 1_555
Cr1 Sr1 3.315623 1_545
Cr1 Mg7 3.392993 1_555
Cr1 Mg6 3.392993 1_545
