# generated using pymatgen
data_Al2Ni3
_symmetry_space_group_name_H-M   'P 1'
_cell_length_a   5.73829286
_cell_length_b   5.73829286
_cell_length_c   27.80305462
_cell_angle_alpha   90.00000000
_cell_angle_beta   90.00000000
_cell_angle_gamma   90.00000000
_symmetry_Int_Tables_number   1
_chemical_formula_structural   Al2Ni3
_chemical_formula_sum   'Al32 Ni48'
_cell_volume   915.49912007
_cell_formula_units_Z   16
loop_
 _symmetry_equiv_pos_site_id
 _symmetry_equiv_pos_as_xyz
  1  'x, y, z'
loop_
 _atom_site_type_symbol
 _atom_site_label
 _atom_site_symmetry_multiplicity
 _atom_site_fract_x
 _atom_site_fract_y
 _atom_site_fract_z
 _atom_site_occupancy
  Al  Al0_0  1  0.25000000  0.25000000  0.09568936  1
  Al  Al0_1  1  0.25000000  0.25000000  0.59568936  1
  Al  Al0_2  1  0.25000000  0.75000000  0.09568936  1
  Al  Al0_3  1  0.25000000  0.75000000  0.59568936  1
  Al  Al0_4  1  0.75000000  0.25000000  0.09568936  1
  Al  Al0_5  1  0.75000000  0.25000000  0.59568936  1
  Al  Al0_6  1  0.75000000  0.75000000  0.09568936  1
  Al  Al0_7  1  0.75000000  0.75000000  0.59568936  1
  Al  Al1_0  1  0.25000000  0.25000000  0.19889235  1
  Al  Al1_1  1  0.25000000  0.25000000  0.69889235  1
  Al  Al1_2  1  0.25000000  0.75000000  0.19889235  1
  Al  Al1_3  1  0.25000000  0.75000000  0.69889235  1
  Al  Al1_4  1  0.75000000  0.25000000  0.19889235  1
  Al  Al1_5  1  0.75000000  0.25000000  0.69889235  1
  Al  Al1_6  1  0.75000000  0.75000000  0.19889235  1
  Al  Al1_7  1  0.75000000  0.75000000  0.69889235  1
  Al  Al2_0  1  0.25000000  0.25000000  0.30110765  1
  Al  Al2_1  1  0.25000000  0.25000000  0.80110765  1
  Al  Al2_2  1  0.25000000  0.75000000  0.30110765  1
  Al  Al2_3  1  0.25000000  0.75000000  0.80110765  1
  Al  Al2_4  1  0.75000000  0.25000000  0.30110765  1
  Al  Al2_5  1  0.75000000  0.25000000  0.80110765  1
  Al  Al2_6  1  0.75000000  0.75000000  0.30110765  1
  Al  Al2_7  1  0.75000000  0.75000000  0.80110765  1
  Al  Al3_0  1  0.25000000  0.25000000  0.40431064  1
  Al  Al3_1  1  0.25000000  0.25000000  0.90431064  1
  Al  Al3_2  1  0.25000000  0.75000000  0.40431064  1
  Al  Al3_3  1  0.25000000  0.75000000  0.90431064  1
  Al  Al3_4  1  0.75000000  0.25000000  0.40431064  1
  Al  Al3_5  1  0.75000000  0.25000000  0.90431064  1
  Al  Al3_6  1  0.75000000  0.75000000  0.40431064  1
  Al  Al3_7  1  0.75000000  0.75000000  0.90431064  1
  Ni  Ni0_0  1  0.00000000  0.00000000  0.45192847  1
  Ni  Ni0_1  1  0.00000000  0.00000000  0.95192847  1
  Ni  Ni0_2  1  0.00000000  0.50000000  0.45192847  1
  Ni  Ni0_3  1  0.00000000  0.50000000  0.95192847  1
  Ni  Ni0_4  1  0.50000000  0.00000000  0.45192847  1
  Ni  Ni0_5  1  0.50000000  0.00000000  0.95192847  1
  Ni  Ni0_6  1  0.50000000  0.50000000  0.45192847  1
  Ni  Ni0_7  1  0.50000000  0.50000000  0.95192847  1
  Ni  Ni1_0  1  0.00000000  0.00000000  0.04807153  1
  Ni  Ni1_1  1  0.00000000  0.00000000  0.54807153  1
  Ni  Ni1_2  1  0.00000000  0.50000000  0.04807153  1
  Ni  Ni1_3  1  0.00000000  0.50000000  0.54807153  1
  Ni  Ni1_4  1  0.50000000  0.00000000  0.04807153  1
  Ni  Ni1_5  1  0.50000000  0.00000000  0.54807153  1
  Ni  Ni1_6  1  0.50000000  0.50000000  0.04807153  1
  Ni  Ni1_7  1  0.50000000  0.50000000  0.54807153  1
  Ni  Ni2_0  1  0.00000000  0.00000000  0.14770141  1
  Ni  Ni2_1  1  0.00000000  0.00000000  0.64770141  1
  Ni  Ni2_2  1  0.00000000  0.50000000  0.14770141  1
  Ni  Ni2_3  1  0.00000000  0.50000000  0.64770141  1
  Ni  Ni2_4  1  0.50000000  0.00000000  0.14770141  1
  Ni  Ni2_5  1  0.50000000  0.00000000  0.64770141  1
  Ni  Ni2_6  1  0.50000000  0.50000000  0.14770141  1
  Ni  Ni2_7  1  0.50000000  0.50000000  0.64770141  1
  Ni  Ni3_0  1  0.00000000  0.00000000  0.25000000  1
  Ni  Ni3_1  1  0.00000000  0.00000000  0.75000000  1
  Ni  Ni3_2  1  0.00000000  0.50000000  0.25000000  1
  Ni  Ni3_3  1  0.00000000  0.50000000  0.75000000  1
  Ni  Ni3_4  1  0.50000000  0.00000000  0.25000000  1
  Ni  Ni3_5  1  0.50000000  0.00000000  0.75000000  1
  Ni  Ni3_6  1  0.50000000  0.50000000  0.25000000  1
  Ni  Ni3_7  1  0.50000000  0.50000000  0.75000000  1
  Ni  Ni4_0  1  0.00000000  0.00000000  0.35229858  1
  Ni  Ni4_1  1  0.00000000  0.00000000  0.85229858  1
  Ni  Ni4_2  1  0.00000000  0.50000000  0.35229858  1
  Ni  Ni4_3  1  0.00000000  0.50000000  0.85229858  1
  Ni  Ni4_4  1  0.50000000  0.00000000  0.35229858  1
  Ni  Ni4_5  1  0.50000000  0.00000000  0.85229858  1
  Ni  Ni4_6  1  0.50000000  0.50000000  0.35229858  1
  Ni  Ni4_7  1  0.50000000  0.50000000  0.85229858  1
  Ni  Ni5_0  1  0.25000000  0.25000000  0.00000000  1
  Ni  Ni5_1  1  0.25000000  0.25000000  0.50000000  1
  Ni  Ni5_2  1  0.25000000  0.75000000  0.00000000  1
  Ni  Ni5_3  1  0.25000000  0.75000000  0.50000000  1
  Ni  Ni5_4  1  0.75000000  0.25000000  0.00000000  1
  Ni  Ni5_5  1  0.75000000  0.25000000  0.50000000  1
  Ni  Ni5_6  1  0.75000000  0.75000000  0.00000000  1
  Ni  Ni5_7  1  0.75000000  0.75000000  0.50000000  1
loop_
_geom_bond_atom_site_label_1
_geom_bond_atom_site_label_2
_geom_bond_distance
_geom_bond_site_symmetry_2
Al0_0 Ni1_0 2.422554 1_555
Al0_0 Ni1_6 2.422554 1_555
Al0_0 Ni1_4 2.422554 1_555
Al0_0 Ni1_2 2.422554 1_555
Al0_0 Ni2_0 2.491423 1_555
Al0_0 Ni2_2 2.491423 1_555
Al0_0 Ni2_6 2.491423 1_555
Al0_0 Ni2_4 2.491423 1_555
Al0_0 Ni5_0 2.660457 1_555
Al0_0 Al0_4 2.869146 1_555
Al0_0 Al0_2 2.869146 1_555
Al0_0 Al0_2 2.869146 1_545
Al0_0 Al0_4 2.869146 1_455
Al0_0 Al1_0 2.869358 1_555
Al0_1 Ni1_3 2.422554 1_555
Al0_1 Ni1_7 2.422554 1_555
Al0_1 Ni1_1 2.422554 1_555
Al0_1 Ni1_5 2.422554 1_555
Al0_1 Ni2_5 2.491423 1_555
Al0_1 Ni2_3 2.491423 1_555
Al0_1 Ni2_7 2.491423 1_555
Al0_1 Ni2_1 2.491423 1_555
Al0_1 Ni5_1 2.660457 1_555
Al0_1 Al0_5 2.869146 1_555
Al0_1 Al0_3 2.869146 1_555
Al0_1 Al0_5 2.869146 1_455
Al0_1 Al0_3 2.869146 1_545
Al0_1 Al1_1 2.869358 1_555
Al0_2 Ni1_6 2.422554 1_555
Al0_2 Ni1_2 2.422554 1_555
Al0_2 Ni1_4 2.422554 1_565
Al0_2 Ni1_0 2.422554 1_565
Al0_2 Ni2_2 2.491423 1_555
Al0_2 Ni2_6 2.491423 1_555
Al0_2 Ni2_0 2.491423 1_565
Al0_2 Ni2_4 2.491423 1_565
Al0_2 Ni5_2 2.660457 1_555
Al0_2 Al0_6 2.869146 1_555
Al0_2 Al0_6 2.869146 1_455
Al0_2 Al1_2 2.869358 1_555
Al0_3 Ni1_3 2.422554 1_555
Al0_3 Ni1_7 2.422554 1_555
Al0_3 Ni1_1 2.422554 1_565
Al0_3 Ni1_5 2.422554 1_565
Al0_3 Ni2_3 2.491423 1_555
Al0_3 Ni2_7 2.491423 1_555
Al0_3 Ni2_1 2.491423 1_565
Al0_3 Ni2_5 2.491423 1_565
Al0_3 Ni5_3 2.660457 1_555
Al0_3 Al0_7 2.869146 1_555
Al0_3 Al0_7 2.869146 1_455
Al0_3 Al1_3 2.869358 1_555
Al0_4 Ni1_6 2.422554 1_555
Al0_4 Ni1_4 2.422554 1_555
Al0_4 Ni1_0 2.422554 1_655
Al0_4 Ni1_2 2.422554 1_655
Al0_4 Ni2_6 2.491423 1_555
Al0_4 Ni2_4 2.491423 1_555
Al0_4 Ni2_0 2.491423 1_655
Al0_4 Ni2_2 2.491423 1_655
Al0_4 Ni5_4 2.660457 1_555
Al0_4 Al0_6 2.869146 1_555
Al0_4 Al0_6 2.869146 1_545
Al0_4 Al1_4 2.869358 1_555
Al0_5 Ni1_7 2.422554 1_555
Al0_5 Ni1_5 2.422554 1_555
Al0_5 Ni1_3 2.422554 1_655
Al0_5 Ni1_1 2.422554 1_655
Al0_5 Ni2_5 2.491423 1_555
Al0_5 Ni2_7 2.491423 1_555
Al0_5 Ni2_1 2.491423 1_655
Al0_5 Ni2_3 2.491423 1_655
Al0_5 Ni5_5 2.660457 1_555
Al0_5 Al0_7 2.869146 1_555
Al0_5 Al0_7 2.869146 1_545
Al0_5 Al1_5 2.869358 1_555
Al0_6 Ni1_6 2.422554 1_555
Al0_6 Ni1_2 2.422554 1_655
Al0_6 Ni1_4 2.422554 1_565
Al0_6 Ni1_0 2.422554 1_665
Al0_6 Ni2_6 2.491423 1_555
Al0_6 Ni2_2 2.491423 1_655
Al0_6 Ni2_4 2.491423 1_565
Al0_6 Ni2_0 2.491423 1_665
Al0_6 Ni5_6 2.660457 1_555
Al0_6 Al1_6 2.869358 1_555
Al0_7 Ni1_7 2.422554 1_555
Al0_7 Ni1_3 2.422554 1_655
Al0_7 Ni1_5 2.422554 1_565
Al0_7 Ni1_1 2.422554 1_665
Al0_7 Ni2_7 2.491423 1_555
Al0_7 Ni2_5 2.491423 1_565
Al0_7 Ni2_3 2.491423 1_655
Al0_7 Ni2_1 2.491423 1_665
Al0_7 Ni5_7 2.660457 1_555
Al0_7 Al1_7 2.869358 1_555
Al1_0 Ni3_0 2.476913 1_555
Al1_0 Ni3_4 2.476913 1_555
Al1_0 Ni3_6 2.476913 1_555
Al1_0 Ni3_2 2.476913 1_555
Al1_0 Ni2_2 2.478242 1_555
Al1_0 Ni2_6 2.478242 1_555
Al1_0 Ni2_4 2.478242 1_555
Al1_0 Ni2_0 2.478242 1_555
Al1_1 Ni3_3 2.476913 1_555
Al1_1 Ni3_7 2.476913 1_555
Al1_1 Ni3_1 2.476913 1_555
Al1_1 Ni3_5 2.476913 1_555
Al1_1 Ni2_3 2.478242 1_555
Al1_1 Ni2_7 2.478242 1_555
Al1_1 Ni2_1 2.478242 1_555
Al1_1 Ni2_5 2.478242 1_555
Al1_2 Ni3_6 2.476913 1_555
Al1_2 Ni3_2 2.476913 1_555
Al1_2 Ni3_0 2.476913 1_565
Al1_2 Ni3_4 2.476913 1_565
Al1_2 Ni2_2 2.478242 1_555
Al1_2 Ni2_6 2.478242 1_555
Al1_2 Ni2_0 2.478242 1_565
Al1_2 Ni2_4 2.478242 1_565
Al1_3 Ni3_3 2.476913 1_555
Al1_3 Ni3_7 2.476913 1_555
Al1_3 Ni3_5 2.476913 1_565
Al1_3 Ni3_1 2.476913 1_565
Al1_3 Ni2_3 2.478242 1_555
Al1_3 Ni2_7 2.478242 1_555
Al1_3 Ni2_5 2.478242 1_565
Al1_3 Ni2_1 2.478242 1_565
Al1_4 Ni3_4 2.476913 1_555
Al1_4 Ni3_6 2.476913 1_555
Al1_4 Ni3_0 2.476913 1_655
Al1_4 Ni3_2 2.476913 1_655
Al1_4 Ni2_6 2.478242 1_555
Al1_4 Ni2_4 2.478242 1_555
Al1_4 Ni2_2 2.478242 1_655
Al1_4 Ni2_0 2.478242 1_655
Al1_5 Ni3_7 2.476913 1_555
Al1_5 Ni3_5 2.476913 1_555
Al1_5 Ni3_1 2.476913 1_655
Al1_5 Ni3_3 2.476913 1_655
Al1_5 Ni2_7 2.478242 1_555
Al1_5 Ni2_5 2.478242 1_555
Al1_5 Ni2_3 2.478242 1_655
Al1_5 Ni2_1 2.478242 1_655
Al1_6 Ni3_6 2.476913 1_555
Al1_6 Ni3_2 2.476913 1_655
Al1_6 Ni3_4 2.476913 1_565
Al1_6 Ni3_0 2.476913 1_665
Al1_6 Ni2_6 2.478242 1_555
Al1_6 Ni2_2 2.478242 1_655
Al1_6 Ni2_4 2.478242 1_565
Al1_6 Ni2_0 2.478242 1_665
Al1_7 Ni3_7 2.476913 1_555
Al1_7 Ni3_5 2.476913 1_565
Al1_7 Ni3_3 2.476913 1_655
Al1_7 Ni3_1 2.476913 1_665
Al1_7 Ni2_7 2.478242 1_555
Al1_7 Ni2_5 2.478242 1_565
Al1_7 Ni2_3 2.478242 1_655
Al1_7 Ni2_1 2.478242 1_665
Al2_0 Ni3_0 2.476913 1_555
Al2_0 Ni3_4 2.476913 1_555
Al2_0 Ni3_6 2.476913 1_555
Al2_0 Ni3_2 2.476913 1_555
Al2_0 Ni4_6 2.478242 1_555
Al2_0 Ni4_0 2.478242 1_555
Al2_0 Ni4_4 2.478242 1_555
Al2_0 Ni4_2 2.478242 1_555
Al2_0 Al3_0 2.869358 1_555
Al2_1 Ni3_1 2.476913 1_555
Al2_1 Ni3_3 2.476913 1_555
Al2_1 Ni3_5 2.476913 1_555
Al2_1 Ni3_7 2.476913 1_555
Al2_1 Ni4_5 2.478242 1_555
Al2_1 Ni4_7 2.478242 1_555
Al2_1 Ni4_3 2.478242 1_555
Al2_1 Ni4_1 2.478242 1_555
Al2_1 Al3_1 2.869358 1_555
Al2_2 Ni3_6 2.476913 1_555
Al2_2 Ni3_2 2.476913 1_555
Al2_2 Ni3_0 2.476913 1_565
Al2_2 Ni3_4 2.476913 1_565
Al2_2 Ni4_6 2.478242 1_555
Al2_2 Ni4_2 2.478242 1_555
Al2_2 Ni4_0 2.478242 1_565
Al2_2 Ni4_4 2.478242 1_565
Al2_2 Al3_2 2.869358 1_555
Al2_3 Ni3_3 2.476913 1_555
Al2_3 Ni3_7 2.476913 1_555
Al2_3 Ni3_1 2.476913 1_565
Al2_3 Ni3_5 2.476913 1_565
Al2_3 Ni4_7 2.478242 1_555
Al2_3 Ni4_3 2.478242 1_555
Al2_3 Ni4_1 2.478242 1_565
Al2_3 Ni4_5 2.478242 1_565
Al2_3 Al3_3 2.869358 1_555
Al2_4 Ni3_4 2.476913 1_555
Al2_4 Ni3_6 2.476913 1_555
Al2_4 Ni3_0 2.476913 1_655
Al2_4 Ni3_2 2.476913 1_655
Al2_4 Ni4_6 2.478242 1_555
Al2_4 Ni4_4 2.478242 1_555
Al2_4 Ni4_2 2.478242 1_655
Al2_4 Ni4_0 2.478242 1_655
Al2_4 Al3_4 2.869358 1_555
Al2_5 Ni3_5 2.476913 1_555
Al2_5 Ni3_7 2.476913 1_555
Al2_5 Ni3_3 2.476913 1_655
Al2_5 Ni3_1 2.476913 1_655
Al2_5 Ni4_5 2.478242 1_555
Al2_5 Ni4_7 2.478242 1_555
Al2_5 Ni4_3 2.478242 1_655
Al2_5 Ni4_1 2.478242 1_655
Al2_5 Al3_5 2.869358 1_555
Al2_6 Ni3_6 2.476913 1_555
Al2_6 Ni3_2 2.476913 1_655
Al2_6 Ni3_4 2.476913 1_565
Al2_6 Ni3_0 2.476913 1_665
Al2_6 Ni4_6 2.478242 1_555
Al2_6 Ni4_2 2.478242 1_655
Al2_6 Ni4_4 2.478242 1_565
Al2_6 Ni4_0 2.478242 1_665
Al2_6 Al3_6 2.869358 1_555
Al2_7 Ni3_7 2.476913 1_555
Al2_7 Ni3_3 2.476913 1_655
Al2_7 Ni3_5 2.476913 1_565
Al2_7 Ni3_1 2.476913 1_665
Al2_7 Ni4_7 2.478242 1_555
Al2_7 Ni4_3 2.478242 1_655
Al2_7 Ni4_5 2.478242 1_565
Al2_7 Ni4_1 2.478242 1_665
Al2_7 Al3_7 2.869358 1_555
Al3_0 Ni0_2 2.422554 1_555
Al3_0 Ni0_4 2.422554 1_555
Al3_0 Ni0_6 2.422554 1_555
Al3_0 Ni0_0 2.422554 1_555
Al3_0 Ni4_2 2.491423 1_555
Al3_0 Ni4_0 2.491423 1_555
Al3_0 Ni4_6 2.491423 1_555
Al3_0 Ni4_4 2.491423 1_555
Al3_0 Ni5_1 2.660457 1_555
Al3_0 Al3_2 2.869146 1_555
Al3_0 Al3_4 2.869146 1_555
Al3_0 Al3_2 2.869146 1_545
Al3_0 Al3_4 2.869146 1_455
Al3_1 Ni0_7 2.422554 1_555
Al3_1 Ni0_1 2.422554 1_555
Al3_1 Ni0_5 2.422554 1_555
Al3_1 Ni0_3 2.422554 1_555
Al3_1 Ni4_1 2.491423 1_555
Al3_1 Ni4_3 2.491423 1_555
Al3_1 Ni4_5 2.491423 1_555
Al3_1 Ni4_7 2.491423 1_555
Al3_1 Ni5_0 2.660457 1_556
Al3_1 Al3_3 2.869146 1_555
Al3_1 Al3_5 2.869146 1_555
Al3_1 Al3_3 2.869146 1_545
Al3_1 Al3_5 2.869146 1_455
Al3_2 Ni0_2 2.422554 1_555
Al3_2 Ni0_6 2.422554 1_555
Al3_2 Ni0_0 2.422554 1_565
Al3_2 Ni0_4 2.422554 1_565
Al3_2 Ni4_2 2.491423 1_555
Al3_2 Ni4_6 2.491423 1_555
Al3_2 Ni4_0 2.491423 1_565
Al3_2 Ni4_4 2.491423 1_565
Al3_2 Ni5_3 2.660457 1_555
Al3_2 Al3_6 2.869146 1_555
Al3_2 Al3_6 2.869146 1_455
Al3_3 Ni0_7 2.422554 1_555
Al3_3 Ni0_3 2.422554 1_555
Al3_3 Ni0_1 2.422554 1_565
Al3_3 Ni0_5 2.422554 1_565
Al3_3 Ni4_3 2.491423 1_555
Al3_3 Ni4_7 2.491423 1_555
Al3_3 Ni4_1 2.491423 1_565
Al3_3 Ni4_5 2.491423 1_565
Al3_3 Ni5_2 2.660457 1_556
Al3_3 Al3_7 2.869146 1_555
Al3_3 Al3_7 2.869146 1_455
Al3_4 Ni0_4 2.422554 1_555
Al3_4 Ni0_6 2.422554 1_555
Al3_4 Ni0_2 2.422554 1_655
Al3_4 Ni0_0 2.422554 1_655
Al3_4 Ni4_6 2.491423 1_555
Al3_4 Ni4_4 2.491423 1_555
Al3_4 Ni4_0 2.491423 1_655
Al3_4 Ni4_2 2.491423 1_655
Al3_4 Ni5_5 2.660457 1_555
Al3_4 Al3_6 2.869146 1_555
Al3_4 Al3_6 2.869146 1_545
Al3_5 Ni0_7 2.422554 1_555
Al3_5 Ni0_5 2.422554 1_555
Al3_5 Ni0_1 2.422554 1_655
Al3_5 Ni0_3 2.422554 1_655
Al3_5 Ni4_5 2.491423 1_555
Al3_5 Ni4_7 2.491423 1_555
Al3_5 Ni4_1 2.491423 1_655
Al3_5 Ni4_3 2.491423 1_655
Al3_5 Ni5_4 2.660457 1_556
Al3_5 Al3_7 2.869146 1_555
Al3_5 Al3_7 2.869146 1_545
Al3_6 Ni0_6 2.422554 1_555
Al3_6 Ni0_2 2.422554 1_655
Al3_6 Ni0_4 2.422554 1_565
Al3_6 Ni0_0 2.422554 1_665
Al3_6 Ni4_6 2.491423 1_555
Al3_6 Ni4_4 2.491423 1_565
Al3_6 Ni4_2 2.491423 1_655
Al3_6 Ni4_0 2.491423 1_665
Al3_6 Ni5_7 2.660457 1_555
Al3_7 Ni0_7 2.422554 1_555
Al3_7 Ni0_3 2.422554 1_655
Al3_7 Ni0_5 2.422554 1_565
Al3_7 Ni0_1 2.422554 1_665
Al3_7 Ni4_7 2.491423 1_555
Al3_7 Ni4_3 2.491423 1_655
Al3_7 Ni4_5 2.491423 1_565
Al3_7 Ni4_1 2.491423 1_665
Al3_7 Ni5_6 2.660457 1_556
Ni0_0 Ni5_1 2.429471 1_555
Ni0_0 Ni5_3 2.429471 1_545
Ni0_0 Ni5_5 2.429471 1_455
Ni0_0 Ni5_7 2.429471 1_445
Ni0_1 Ni5_0 2.429471 1_556
Ni0_1 Ni5_2 2.429471 1_546
Ni0_1 Ni5_4 2.429471 1_456
Ni0_1 Ni5_6 2.429471 1_446
Ni0_2 Ni5_3 2.429471 1_555
Ni0_2 Ni5_1 2.429471 1_555
Ni0_2 Ni5_7 2.429471 1_455
Ni0_2 Ni5_5 2.429471 1_455
Ni0_3 Ni5_2 2.429471 1_556
Ni0_3 Ni5_0 2.429471 1_556
Ni0_3 Ni5_4 2.429471 1_456
Ni0_3 Ni5_6 2.429471 1_456
Ni0_4 Ni5_5 2.429471 1_555
Ni0_4 Ni5_1 2.429471 1_555
Ni0_4 Ni5_3 2.429471 1_545
Ni0_4 Ni5_7 2.429471 1_545
Ni0_5 Ni5_4 2.429471 1_556
Ni0_5 Ni5_0 2.429471 1_556
Ni0_5 Ni5_6 2.429471 1_546
Ni0_5 Ni5_2 2.429471 1_546
Ni0_6 Ni5_7 2.429471 1_555
Ni0_6 Ni5_5 2.429471 1_555
Ni0_6 Ni5_3 2.429471 1_555
Ni0_6 Ni5_1 2.429471 1_555
Ni0_7 Ni5_4 2.429471 1_556
Ni0_7 Ni5_2 2.429471 1_556
Ni0_7 Ni5_6 2.429471 1_556
Ni0_7 Ni5_0 2.429471 1_556
Ni1_0 Ni5_0 2.429471 1_555
Ni1_0 Ni5_4 2.429471 1_455
Ni1_0 Ni5_2 2.429471 1_545
Ni1_0 Ni5_6 2.429471 1_445
Ni1_1 Ni5_1 2.429471 1_555
Ni1_1 Ni5_5 2.429471 1_455
Ni1_1 Ni5_3 2.429471 1_545
Ni1_1 Ni5_7 2.429471 1_445
Ni1_2 Ni5_2 2.429471 1_555
Ni1_2 Ni5_0 2.429471 1_555
Ni1_2 Ni5_6 2.429471 1_455
Ni1_2 Ni5_4 2.429471 1_455
Ni1_3 Ni5_3 2.429471 1_555
Ni1_3 Ni5_1 2.429471 1_555
Ni1_3 Ni5_7 2.429471 1_455
Ni1_3 Ni5_5 2.429471 1_455
Ni1_4 Ni5_4 2.429471 1_555
Ni1_4 Ni5_0 2.429471 1_555
Ni1_4 Ni5_6 2.429471 1_545
Ni1_4 Ni5_2 2.429471 1_545
Ni1_5 Ni5_1 2.429471 1_555
Ni1_5 Ni5_5 2.429471 1_555
Ni1_5 Ni5_7 2.429471 1_545
Ni1_5 Ni5_3 2.429471 1_545
Ni1_6 Ni5_2 2.429471 1_555
Ni1_6 Ni5_4 2.429471 1_555
Ni1_6 Ni5_6 2.429471 1_555
Ni1_6 Ni5_0 2.429471 1_555
Ni1_7 Ni5_3 2.429471 1_555
Ni1_7 Ni5_1 2.429471 1_555
Ni1_7 Ni5_7 2.429471 1_555
Ni1_7 Ni5_5 2.429471 1_555
