# generated using pymatgen
data_Cr2Fe3N4
_symmetry_space_group_name_H-M   'P 1'
_cell_length_a   5.61139585
_cell_length_b   7.27259205
_cell_length_c   5.41377687
_cell_angle_alpha   89.99999591
_cell_angle_beta   90.76191987
_cell_angle_gamma   130.39246793
_symmetry_Int_Tables_number   1
_chemical_formula_structural   Cr2Fe3N4
_chemical_formula_sum   'Cr4 Fe6 N8'
_cell_volume   168.24207601
_cell_formula_units_Z   2
loop_
 _symmetry_equiv_pos_site_id
 _symmetry_equiv_pos_as_xyz
  1  'x, y, z'
loop_
 _atom_site_type_symbol
 _atom_site_label
 _atom_site_symmetry_multiplicity
 _atom_site_fract_x
 _atom_site_fract_y
 _atom_site_fract_z
 _atom_site_occupancy
  Cr  Cr0  1  0.64570800  0.19478500  0.65043800  1
  Cr  Cr1  1  0.35429200  0.54907700  0.84956200  1
  Cr  Cr2  1  0.35429200  0.80521500  0.34956200  1
  Cr  Cr3  1  0.64570800  0.45092300  0.15043800  1
  Fe  Fe0  1  0.23894900  0.02069000  0.00208500  1
  Fe  Fe1  1  0.76105100  0.78174000  0.49791500  1
  Fe  Fe2  1  0.76105100  0.97931000  0.99791500  1
  Fe  Fe3  1  0.23894900  0.21826000  0.50208500  1
  Fe  Fe4  1  0.00000000  0.65803800  0.75000000  1
  Fe  Fe5  1  0.00000000  0.34196200  0.25000000  1
  N  N0  1  0.21307000  0.93630400  0.53411700  1
  N  N1  1  0.78693000  0.72323400  0.96588300  1
  N  N2  1  0.78693000  0.06369600  0.46588300  1
  N  N3  1  0.21307000  0.27676600  0.03411700  1
  N  N4  1  0.69927600  0.24771800  0.99333300  1
  N  N5  1  0.30072400  0.54844200  0.50666700  1
  N  N6  1  0.30072400  0.75228200  0.00666700  1
  N  N7  1  0.69927600  0.45155800  0.49333300  1
loop_
_geom_bond_atom_site_label_1
_geom_bond_atom_site_label_2
_geom_bond_distance
_geom_bond_site_symmetry_2
Cr0 N4 1.876113 1_555
Cr0 N2 1.880253 1_555
Cr0 N7 1.892158 1_555
Cr0 N0 1.966905 1_545
Cr1 N5 1.876113 1_555
Cr1 N3 1.880253 1_556
Cr1 N6 1.892158 1_556
Cr1 N1 1.966905 1_555
Cr2 N6 1.876113 1_555
Cr2 N0 1.880253 1_555
Cr2 N5 1.892158 1_555
Cr2 N2 1.966905 1_565
Cr3 N7 1.876113 1_555
Cr3 N1 1.880253 1_554
Cr3 N4 1.892158 1_554
Cr3 N3 1.966905 1_555
Fe0 N3 1.967392 1_555
Fe0 N4 1.968862 1_554
Fe0 N1 2.006770 1_444
Fe0 N6 2.192695 1_545
Fe1 N2 1.967399 1_565
Fe1 N5 1.968861 1_555
Fe1 N0 2.006768 1_655
Fe1 N7 2.192688 1_555
Fe2 N1 1.967392 1_555
Fe2 N6 1.968862 1_556
Fe2 N3 2.006770 1_666
Fe2 N4 2.192695 1_565
Fe3 N0 1.967399 1_545
Fe3 N7 1.968861 1_555
Fe3 N2 2.006768 1_455
Fe3 N5 2.192688 1_555
Fe4 N6 1.920110 1_556
Fe4 N7 1.920110 1_455
Fe4 N1 1.947347 1_455
Fe4 N0 1.947347 1_555
Fe5 N4 1.920110 1_454
Fe5 N5 1.920110 1_555
Fe5 N3 1.947347 1_555
Fe5 N2 1.947347 1_455
