# generated using pymatgen
data_Fe2P2O9
_symmetry_space_group_name_H-M   'P 1'
_cell_length_a   6.43118419
_cell_length_b   7.82219671
_cell_length_c   14.10661021
_cell_angle_alpha   90.04429155
_cell_angle_beta   90.00134844
_cell_angle_gamma   89.97288967
_symmetry_Int_Tables_number   1
_chemical_formula_structural   Fe2P2O9
_chemical_formula_sum   'Fe8 P8 O36'
_cell_volume   709.64666993
_cell_formula_units_Z   4
loop_
 _symmetry_equiv_pos_site_id
 _symmetry_equiv_pos_as_xyz
  1  'x, y, z'
loop_
 _atom_site_type_symbol
 _atom_site_label
 _atom_site_symmetry_multiplicity
 _atom_site_fract_x
 _atom_site_fract_y
 _atom_site_fract_z
 _atom_site_occupancy
  Fe  Fe0  1  0.75053200  0.34487900  0.87872300  1
  Fe  Fe1  1  0.24942100  0.65500100  0.12100300  1
  Fe  Fe2  1  0.24955800  0.84380600  0.62182300  1
  Fe  Fe3  1  0.75043500  0.15606000  0.37834300  1
  Fe  Fe4  1  0.49997000  0.99997700  0.99980800  1
  Fe  Fe5  1  0.49998900  0.49980900  0.50031300  1
  Fe  Fe6  1  0.00003000  0.49980600  0.50031300  1
  Fe  Fe7  1  0.00003800  0.99999100  0.99984200  1
  P  P0  1  0.25029300  0.35061200  0.93952200  1
  P  P1  1  0.74968400  0.64948900  0.05988000  1
  P  P2  1  0.74968700  0.85182600  0.55965800  1
  P  P3  1  0.25031900  0.14803800  0.44064700  1
  P  P4  1  0.74989300  0.39462600  0.68924200  1
  P  P5  1  0.75007500  0.10629500  0.18861500  1
  P  P6  1  0.24995100  0.89390500  0.81107300  1
  P  P7  1  0.25010900  0.60543300  0.31127500  1
  O  O0  1  0.05270800  0.58849100  0.37241600  1
  O  O1  1  0.55239200  0.41121400  0.62816300  1
  O  O2  1  0.94773300  0.08911300  0.12763500  1
  O  O3  1  0.44748100  0.91079600  0.87205600  1
  O  O4  1  0.94745200  0.41162300  0.62826600  1
  O  O5  1  0.44743600  0.58897200  0.37253100  1
  O  O6  1  0.05228300  0.91122500  0.87199600  1
  O  O7  1  0.55261500  0.08943500  0.12755300  1
  O  O8  1  0.25001700  0.33198400  0.48586600  1
  O  O9  1  0.75001400  0.66737100  0.51506400  1
  O  O10  1  0.75007800  0.83306000  0.01443500  1
  O  O11  1  0.25001000  0.16709600  0.98508100  1
  O  O12  1  0.75073500  0.14051600  0.95484400  1
  O  O13  1  0.24923100  0.85981400  0.04498600  1
  O  O14  1  0.24953500  0.63948300  0.54588100  1
  O  O15  1  0.75045400  0.35985900  0.45501300  1
  O  O16  1  0.75033000  0.22748100  0.74991300  1
  O  O17  1  0.24962600  0.77219900  0.25026900  1
  O  O18  1  0.24961200  0.72655700  0.75037700  1
  O  O19  1  0.75037600  0.27341600  0.24949100  1
  O  O20  1  0.44430400  0.13190000  0.37866600  1
  O  O21  1  0.94345500  0.86919000  0.62172500  1
  O  O22  1  0.55556800  0.63421400  0.12176000  1
  O  O23  1  0.05672100  0.36640400  0.87727300  1
  O  O24  1  0.55572500  0.86862500  0.62155300  1
  O  O25  1  0.05652000  0.13136800  0.37849600  1
  O  O26  1  0.44420500  0.36564300  0.87754600  1
  O  O27  1  0.94339700  0.63326000  0.12206900  1
  O  O28  1  0.74983800  0.51133600  0.98327000  1
  O  O29  1  0.24990100  0.02233100  0.72591200  1
  O  O30  1  0.25044700  0.47697100  0.22603200  1
  O  O31  1  0.74960600  0.52339900  0.77436100  1
  O  O32  1  0.74984600  0.98863700  0.48248700  1
  O  O33  1  0.25016100  0.01024100  0.51725700  1
  O  O34  1  0.25007800  0.48929300  0.01589200  1
  O  O35  1  0.75014100  0.97793200  0.27378500  1
loop_
_geom_bond_atom_site_label_1
_geom_bond_atom_site_label_2
_geom_bond_distance
_geom_bond_site_symmetry_2
Fe0 O12 1.926431 1_555
Fe0 O28 1.966584 1_555
Fe0 O23 1.976530 1_655
Fe0 O26 1.976723 1_555
Fe0 O31 2.029913 1_555
Fe0 O16 2.035306 1_555
Fe1 O13 1.928538 1_555
Fe1 O34 1.968694 1_555
Fe1 O22 1.975543 1_555
Fe1 O27 1.975569 1_455
Fe1 O30 2.034126 1_555
Fe1 O17 2.040346 1_555
Fe2 O14 1.923388 1_555
Fe2 O33 1.968181 1_565
Fe2 O21 1.978500 1_455
Fe2 O24 1.978659 1_555
Fe2 O29 2.025577 1_565
Fe2 O18 2.032822 1_555
Fe3 O15 1.925727 1_555
Fe3 O32 1.968857 1_545
Fe3 O25 1.977852 1_655
Fe3 O20 1.977929 1_555
Fe3 O35 2.028241 1_545
Fe3 O19 2.036953 1_555
Fe4 O3 1.961268 1_555
Fe4 O7 1.962121 1_566
Fe4 O13 2.052153 1_556
Fe4 O12 2.052923 1_565
Fe4 O10 2.081579 1_556
Fe4 O11 2.081976 1_565
Fe5 O1 1.961693 1_555
Fe5 O5 1.962554 1_555
Fe5 O14 2.049046 1_555
Fe5 O15 2.049072 1_555
Fe5 O9 2.085264 1_555
Fe5 O8 2.085874 1_555
Fe6 O4 1.962213 1_455
Fe6 O0 1.962984 1_555
Fe6 O14 2.045054 1_555
Fe6 O15 2.045359 1_455
Fe6 O9 2.084285 1_455
Fe6 O8 2.084983 1_555
Fe7 O6 1.960969 1_555
Fe7 O2 1.961333 1_466
Fe7 O13 2.043419 1_556
Fe7 O12 2.044794 1_465
Fe7 O10 2.081827 1_456
Fe7 O11 2.082978 1_565
O0 P7 1.540626 1_555
O1 P4 1.540294 1_555
O2 P5 1.540662 1_555
O3 P6 1.539882 1_555
O4 P4 1.540200 1_555
O5 P7 1.540687 1_555
O6 P6 1.540360 1_555
O7 P5 1.540112 1_555
O8 P3 1.573469 1_555
O9 P2 1.573571 1_555
O10 P1 1.572991 1_555
O11 P0 1.573254 1_555
O16 P4 1.563214 1_555
O17 P7 1.563333 1_555
O18 P6 1.563629 1_555
O19 P5 1.563535 1_555
O20 P3 1.528571 1_555
O21 P2 1.529012 1_555
O22 P1 1.528105 1_555
O23 P0 1.528430 1_555
O24 P2 1.528188 1_555
O25 P3 1.529381 1_555
O26 P0 1.527659 1_555
O27 P1 1.528963 1_555
O28 P1 1.527727 1_556
O29 P6 1.566600 1_545
O30 P7 1.566477 1_555
O31 P4 1.566697 1_555
O32 P2 1.527137 1_555
O33 P3 1.526940 1_555
O34 P0 1.528262 1_554
O35 P5 1.566381 1_565
