# generated using pymatgen
data_Tb2Si4Mo3
_symmetry_space_group_name_H-M   'P 1'
_cell_length_a   6.91990648
_cell_length_b   6.74837078
_cell_length_c   6.85663878
_cell_angle_alpha   71.13317746
_cell_angle_beta   90.00000000
_cell_angle_gamma   90.00000000
_symmetry_Int_Tables_number   1
_chemical_formula_structural   Tb2Si4Mo3
_chemical_formula_sum   'Tb4 Si8 Mo6'
_cell_volume   302.98893846
_cell_formula_units_Z   2
loop_
 _symmetry_equiv_pos_site_id
 _symmetry_equiv_pos_as_xyz
  1  'x, y, z'
loop_
 _atom_site_type_symbol
 _atom_site_label
 _atom_site_symmetry_multiplicity
 _atom_site_fract_x
 _atom_site_fract_y
 _atom_site_fract_z
 _atom_site_occupancy
  Tb  Tb0  1  0.33041699  0.56264325  0.80903082  1
  Tb  Tb1  1  0.83041699  0.93735675  0.19096918  1
  Tb  Tb2  1  0.66958301  0.43735675  0.19096918  1
  Tb  Tb3  1  0.16958301  0.06264325  0.80903082  1
  Si  Si0  1  0.54584248  0.86964981  0.90913300  1
  Si  Si1  1  0.04584248  0.63035019  0.09086700  1
  Si  Si2  1  0.45415752  0.13035019  0.09086700  1
  Si  Si3  1  0.95415752  0.36964981  0.90913300  1
  Si  Si4  1  0.13122097  0.87288143  0.49416188  1
  Si  Si5  1  0.63122097  0.62711857  0.50583812  1
  Si  Si6  1  0.86877903  0.12711857  0.50583812  1
  Si  Si7  1  0.36877903  0.37288143  0.49416188  1
  Mo  Mo0  1  0.50000000  0.00000000  0.50000000  1
  Mo  Mo1  1  -0.00000000  0.50000000  0.50000000  1
  Mo  Mo2  1  0.83779711  0.74862595  0.74907056  1
  Mo  Mo3  1  0.33779711  0.75137405  0.25092944  1
  Mo  Mo4  1  0.16220289  0.25137405  0.25092944  1
  Mo  Mo5  1  0.66220289  0.24862595  0.74907056  1
loop_
_geom_bond_atom_site_label_1
_geom_bond_atom_site_label_2
_geom_bond_distance
_geom_bond_site_symmetry_2
Si0 Si2 2.543267 1_566
Si0 Tb0 2.811646 1_555
Si0 Tb3 2.892808 1_565
Si0 Tb1 2.896901 1_556
Si0 Tb2 3.054843 1_556
Si1 Si3 2.543267 1_454
Si1 Tb1 2.811646 1_455
Si1 Tb2 2.892808 1_455
Si1 Tb0 2.896901 1_554
Si1 Tb3 3.054843 1_564
Si2 Tb2 2.811646 1_555
Si2 Tb1 2.892808 1_545
Si2 Tb3 2.896901 1_554
Si2 Tb0 3.054843 1_554
Si3 Tb3 2.811646 1_655
Si3 Tb0 2.892808 1_655
Si3 Tb2 2.896901 1_556
Si3 Tb1 3.054843 1_546
Si4 Si6 2.517329 1_465
Si4 Tb0 2.832137 1_555
Si4 Tb3 2.856473 1_565
Si4 Tb1 2.873824 1_455
Si5 Si7 2.517329 1_555
Si5 Tb1 2.832137 1_555
Si5 Tb2 2.856473 1_555
Si5 Tb0 2.873824 1_555
Si6 Tb2 2.832137 1_555
Si6 Tb1 2.856473 1_545
Si6 Tb3 2.873824 1_655
Si7 Tb3 2.832137 1_555
Si7 Tb0 2.856473 1_555
Si7 Tb2 2.873824 1_555
Mo0 Si5 2.663262 1_545
Mo0 Si7 2.663262 1_555
Mo0 Si0 2.673586 1_545
Mo0 Si2 2.673586 1_555
Mo0 Si4 2.696662 1_545
Mo0 Si6 2.696662 1_555
Mo1 Si6 2.663262 1_455
Mo1 Si4 2.663262 1_555
Mo1 Si3 2.673586 1_455
Mo1 Si1 2.673586 1_555
Mo1 Si7 2.696662 1_555
Mo1 Si5 2.696662 1_455
Mo2 Si5 2.526191 1_555
Mo2 Si0 2.555936 1_555
Mo2 Si3 2.564806 1_555
Mo2 Si6 2.568342 1_565
Mo2 Si4 2.633045 1_655
Mo2 Si1 2.644287 1_656
Mo3 Si4 2.526191 1_555
Mo3 Si1 2.555936 1_555
Mo3 Si2 2.564806 1_565
Mo3 Si7 2.568342 1_555
Mo3 Si5 2.633045 1_555
Mo3 Si0 2.644287 1_554
Mo4 Si7 2.526191 1_555
Mo4 Si2 2.555936 1_555
Mo4 Si1 2.564806 1_555
Mo4 Si4 2.568342 1_545
Mo4 Si6 2.633045 1_455
Mo4 Si3 2.644287 1_454
Mo5 Si6 2.526191 1_555
Mo5 Si3 2.555936 1_555
Mo5 Si0 2.564806 1_545
Mo5 Si5 2.568342 1_555
Mo5 Si7 2.633045 1_555
Mo5 Si2 2.644287 1_556
