# generated using pymatgen
data_ZnCrNiP2O9
_symmetry_space_group_name_H-M   'P 1'
_cell_length_a   6.25211700
_cell_length_b   7.41924400
_cell_length_c   14.11134700
_cell_angle_alpha   90.00000000
_cell_angle_beta   90.00000000
_cell_angle_gamma   90.00000000
_symmetry_Int_Tables_number   1
_chemical_formula_structural   ZnCrNiP2O9
_chemical_formula_sum   'Zn4 Cr4 Ni4 P8 O36'
_cell_volume   654.56868144
_cell_formula_units_Z   4
loop_
 _symmetry_equiv_pos_site_id
 _symmetry_equiv_pos_as_xyz
  1  'x, y, z'
loop_
 _atom_site_type_symbol
 _atom_site_label
 _atom_site_symmetry_multiplicity
 _atom_site_fract_x
 _atom_site_fract_y
 _atom_site_fract_z
 _atom_site_occupancy
  Zn  Zn0  1  0.25000000  0.38791500  0.77694600  1
  Zn  Zn1  1  0.25000000  0.11208500  0.27694600  1
  Zn  Zn2  1  0.75000000  0.61208500  0.22305400  1
  Zn  Zn3  1  0.75000000  0.88791500  0.72305400  1
  Cr  Cr0  1  0.25000000  0.85496100  0.88410400  1
  Cr  Cr1  1  0.75000000  0.14503900  0.11589600  1
  Cr  Cr2  1  0.75000000  0.35496100  0.61589600  1
  Cr  Cr3  1  0.25000000  0.64503900  0.38410400  1
  Ni  Ni0  1  0.00000000  0.50000000  0.00000000  1
  Ni  Ni1  1  0.00000000  0.00000000  0.50000000  1
  Ni  Ni2  1  0.50000000  0.00000000  0.50000000  1
  Ni  Ni3  1  0.50000000  0.50000000  0.00000000  1
  P  P0  1  0.75000000  0.85596300  0.93348300  1
  P  P1  1  0.25000000  0.14403700  0.06651700  1
  P  P2  1  0.25000000  0.35596300  0.56651700  1
  P  P3  1  0.75000000  0.64403700  0.43348300  1
  P  P4  1  0.25000000  0.89140500  0.69920100  1
  P  P5  1  0.75000000  0.10859500  0.30079900  1
  P  P6  1  0.75000000  0.39140500  0.80079900  1
  P  P7  1  0.25000000  0.60859500  0.19920100  1
  O  O0  1  0.53794600  0.11254900  0.35933500  1
  O  O1  1  0.03794600  0.88745100  0.64066500  1
  O  O2  1  0.46205400  0.61254900  0.14066500  1
  O  O3  1  0.96205400  0.38745100  0.85933500  1
  O  O4  1  0.46205400  0.88745100  0.64066500  1
  O  O5  1  0.96205400  0.11254900  0.35933500  1
  O  O6  1  0.53794600  0.38745100  0.85933500  1
  O  O7  1  0.03794600  0.61254900  0.14066500  1
  O  O8  1  0.75000000  0.83830300  0.47966000  1
  O  O9  1  0.25000000  0.16169700  0.52034000  1
  O  O10  1  0.25000000  0.33830300  0.02034000  1
  O  O11  1  0.75000000  0.66169700  0.97966000  1
  O  O12  1  0.25000000  0.65280400  0.94856700  1
  O  O13  1  0.75000000  0.34719600  0.05143300  1
  O  O14  1  0.75000000  0.15280400  0.55143300  1
  O  O15  1  0.25000000  0.84719600  0.44856700  1
  O  O16  1  0.25000000  0.71653000  0.76244200  1
  O  O17  1  0.75000000  0.28347000  0.23755800  1
  O  O18  1  0.75000000  0.21653000  0.73755800  1
  O  O19  1  0.25000000  0.78347000  0.26244200  1
  O  O20  1  0.93839700  0.63128000  0.36270800  1
  O  O21  1  0.43839700  0.36872000  0.63729200  1
  O  O22  1  0.06160300  0.13128000  0.13729200  1
  O  O23  1  0.56160300  0.86872000  0.86270800  1
  O  O24  1  0.06160300  0.36872000  0.63729200  1
  O  O25  1  0.56160300  0.63128000  0.36270800  1
  O  O26  1  0.93839700  0.86872000  0.86270800  1
  O  O27  1  0.43839700  0.13128000  0.13729200  1
  O  O28  1  0.25000000  0.46576000  0.27475000  1
  O  O29  1  0.75000000  0.53424000  0.72525000  1
  O  O30  1  0.75000000  0.96576000  0.22525000  1
  O  O31  1  0.25000000  0.03424000  0.77475000  1
  O  O32  1  0.25000000  0.49931500  0.48960800  1
  O  O33  1  0.75000000  0.50068500  0.51039200  1
  O  O34  1  0.75000000  0.99931500  0.01039200  1
  O  O35  1  0.25000000  0.00068500  0.98960800  1
loop_
_geom_bond_atom_site_label_1
_geom_bond_atom_site_label_2
_geom_bond_distance
_geom_bond_site_symmetry_2
Cr0 O12 1.754149 1_555
Cr0 O35 1.839958 1_565
Cr0 O23 1.974077 1_555
Cr0 O26 1.974077 1_455
Cr0 O16 2.000573 1_555
Cr0 O31 2.037268 1_565
Cr1 O13 1.754149 1_555
Cr1 O34 1.839958 1_545
Cr1 O27 1.974077 1_555
Cr1 O22 1.974077 1_655
Cr1 O17 2.000573 1_555
Cr1 O30 2.037268 1_545
Cr2 O14 1.754149 1_555
Cr2 O33 1.839958 1_555
Cr2 O21 1.974077 1_555
Cr2 O24 1.974077 1_655
Cr2 O18 2.000573 1_555
Cr2 O29 2.037268 1_555
Cr3 O15 1.754149 1_555
Cr3 O32 1.839958 1_555
Cr3 O25 1.974077 1_555
Cr3 O20 1.974077 1_455
Cr3 O19 2.000573 1_555
Cr3 O28 2.037268 1_555
Ni0 O11 1.991143 1_454
Ni0 O10 1.991143 1_555
Ni0 O13 2.062785 1_455
Ni0 O12 2.062785 1_554
Ni0 O7 2.166489 1_555
Ni0 O3 2.166489 1_454
Ni1 O9 1.991143 1_555
Ni1 O8 1.991143 1_445
Ni1 O14 2.062785 1_455
Ni1 O15 2.062785 1_545
Ni1 O1 2.166489 1_545
Ni1 O5 2.166489 1_455
Ni2 O9 1.991143 1_555
Ni2 O8 1.991143 1_545
Ni2 O14 2.062785 1_555
Ni2 O15 2.062785 1_545
Ni2 O4 2.166489 1_545
Ni2 O0 2.166489 1_555
Ni3 O11 1.991143 1_554
Ni3 O10 1.991143 1_555
Ni3 O13 2.062785 1_555
Ni3 O12 2.062785 1_554
Ni3 O2 2.166489 1_555
Ni3 O6 2.166489 1_554
O0 P5 1.562332 1_555
O0 Zn1 2.143053 1_555
O1 P4 1.562332 1_555
O1 Zn3 2.143053 1_455
O2 P7 1.562332 1_555
O2 Zn2 2.143053 1_555
O3 P6 1.562332 1_555
O3 Zn0 2.143053 1_655
O4 P4 1.562332 1_555
O4 Zn3 2.143053 1_555
O5 P5 1.562332 1_555
O5 Zn1 2.143053 1_655
O6 P6 1.562332 1_555
O6 Zn0 2.143053 1_555
O7 P7 1.562332 1_555
O7 Zn2 2.143053 1_455
O8 P3 1.581763 1_555
O9 P2 1.581763 1_555
O10 P1 1.581763 1_555
O11 P0 1.581763 1_555
O16 P4 1.574724 1_555
O16 Zn0 2.446651 1_555
O17 P5 1.574724 1_555
O17 Zn2 2.446651 1_555
O18 P6 1.574724 1_555
O18 Zn3 2.446651 1_545
O19 P7 1.574724 1_555
O19 Zn1 2.446651 1_565
O20 P3 1.547198 1_555
O20 Zn2 2.300297 1_555
O21 P2 1.547198 1_555
O21 Zn0 2.300297 1_555
O22 P1 1.547198 1_555
O22 Zn1 2.300297 1_555
O23 P0 1.547198 1_555
O23 Zn3 2.300297 1_555
O24 P2 1.547198 1_555
O24 Zn0 2.300297 1_555
O25 P3 1.547198 1_555
O25 Zn2 2.300297 1_555
O26 P0 1.547198 1_555
O26 Zn3 2.300297 1_555
O27 P1 1.547198 1_555
O27 Zn1 2.300297 1_555
O28 P7 1.503193 1_555
O29 P6 1.503193 1_555
O30 P5 1.503193 1_565
O31 P4 1.503193 1_545
O32 P2 1.519546 1_555
O33 P3 1.519546 1_555
O34 P0 1.519546 1_554
O35 P1 1.519546 1_556
