# generated using pymatgen
data_TbCo9Si2
_symmetry_space_group_name_H-M   'P 1'
_cell_length_a   6.26104100
_cell_length_b   7.51815030
_cell_length_c   7.51815030
_cell_angle_alpha   80.01532434
_cell_angle_beta   65.39280458
_cell_angle_gamma   65.39280458
_symmetry_Int_Tables_number   1
_chemical_formula_structural   TbCo9Si2
_chemical_formula_sum   'Tb2 Co18 Si4'
_cell_volume   292.53104011
_cell_formula_units_Z   2
loop_
 _symmetry_equiv_pos_site_id
 _symmetry_equiv_pos_as_xyz
  1  'x, y, z'
loop_
 _atom_site_type_symbol
 _atom_site_label
 _atom_site_symmetry_multiplicity
 _atom_site_fract_x
 _atom_site_fract_y
 _atom_site_fract_z
 _atom_site_occupancy
  Tb  Tb0  1  0.37500000  0.25000000  0.75000000  1
  Tb  Tb1  1  0.62500000  0.75000000  0.25000000  1
  Co  Co0  1  0.12500000  0.75000000  0.25000000  1
  Co  Co1  1  0.87500000  0.25000000  0.75000000  1
  Co  Co2  1  0.55956800  0.57901400  0.66736000  1
  Co  Co3  1  0.55956800  0.16736000  0.07901400  1
  Co  Co4  1  0.13858100  0.42098600  0.16736000  1
  Co  Co5  1  0.13858100  0.66736000  0.92098600  1
  Co  Co6  1  0.80594100  0.33264000  0.42098600  1
  Co  Co7  1  0.80594100  0.92098600  0.83264000  1
  Co  Co8  1  0.72692800  0.83264000  0.57901400  1
  Co  Co9  1  0.72692800  0.07901400  0.33264000  1
  Co  Co10  1  0.44043200  0.42098600  0.33264000  1
  Co  Co11  1  0.44043200  0.83264000  0.92098600  1
  Co  Co12  1  0.86141900  0.57901400  0.83264000  1
  Co  Co13  1  0.86141900  0.33264000  0.07901400  1
  Co  Co14  1  0.19405900  0.66736000  0.57901400  1
  Co  Co15  1  0.19405900  0.07901400  0.16736000  1
  Co  Co16  1  0.27307200  0.16736000  0.42098600  1
  Co  Co17  1  0.27307200  0.92098600  0.66736000  1
  Si  Si0  1  0.50000000  0.50000000  0.00000000  1
  Si  Si1  1  0.00000000  0.50000000  0.50000000  1
  Si  Si2  1  0.00000000  0.00000000  0.00000000  1
  Si  Si3  1  0.00000000  0.00000000  0.50000000  1
loop_
_geom_bond_atom_site_label_1
_geom_bond_atom_site_label_2
_geom_bond_distance
_geom_bond_site_symmetry_2
Co0 Si3 2.540239 1_565
Co0 Si1 2.540239 1_555
Co0 Si2 2.540239 1_565
Co0 Si0 2.540239 1_555
Co0 Co11 2.612581 1_554
Co0 Co10 2.612581 1_555
Co0 Co9 2.612581 1_465
Co0 Co8 2.612581 1_455
Co0 Co5 2.612584 1_554
Co0 Co4 2.612584 1_555
Co0 Co15 2.612584 1_565
Co0 Co14 2.612584 1_555
Co0 Tb1 3.130520 1_455
Co0 Tb1 3.130520 1_555
Co1 Si3 2.540239 1_655
Co1 Si2 2.540239 1_656
Co1 Si1 2.540239 1_655
Co1 Si0 2.540239 1_556
Co1 Co3 2.612581 1_556
Co1 Co2 2.612581 1_555
Co1 Co17 2.612581 1_645
Co1 Co16 2.612581 1_655
Co1 Co13 2.612584 1_556
Co1 Co12 2.612584 1_555
Co1 Co7 2.612584 1_545
Co1 Co6 2.612584 1_555
Co1 Tb0 3.130520 1_655
Co1 Tb0 3.130520 1_555
Co2 Si1 2.354928 1_655
Co2 Si0 2.374609 1_556
Co2 Co6 2.381621 1_555
Co2 Co8 2.412505 1_555
Co2 Co5 2.412510 1_555
Co2 Tb0 3.014898 1_555
Co2 Tb1 3.104077 1_555
Co3 Si2 2.354928 1_655
Co3 Si0 2.374609 1_555
Co3 Co7 2.381621 1_544
Co3 Co9 2.412505 1_555
Co3 Co4 2.412510 1_555
Co3 Tb0 3.014898 1_554
Co3 Tb1 3.104077 1_545
Co4 Si0 2.354934 1_555
Co4 Si1 2.374610 1_555
Co4 Co5 2.381621 1_554
Co4 Co6 2.412506 1_455
Co4 Tb1 3.014895 1_455
Co4 Tb0 3.104077 1_554
Co5 Si0 2.354934 1_556
Co5 Si2 2.374610 1_566
Co5 Co7 2.412506 1_455
Co5 Tb1 3.014895 1_456
Co5 Tb0 3.104077 1_555
Co6 Si1 2.354934 1_655
Co6 Si3 2.374610 1_655
Co6 Co9 2.412501 1_555
Co6 Tb0 3.014895 1_555
Co6 Tb1 3.104077 1_555
Co7 Si2 2.354934 1_666
Co7 Si3 2.374610 1_665
Co7 Co8 2.412501 1_555
Co7 Tb0 3.014895 1_565
Co7 Tb1 3.104077 1_556
Co8 Si3 2.354928 1_665
Co8 Si1 2.374609 1_655
Co8 Co9 2.381621 1_565
Co8 Tb1 3.014898 1_555
Co8 Tb0 3.104077 1_565
Co9 Si3 2.354928 1_655
Co9 Si2 2.374609 1_655
Co9 Tb1 3.014898 1_545
Co9 Tb0 3.104077 1_555
Co10 Si1 2.354928 1_555
Co10 Si0 2.374609 1_555
Co10 Co14 2.381621 1_555
Co10 Co16 2.412505 1_555
Co10 Co13 2.412510 1_555
Co10 Co6 2.442625 1_555
Co10 Co9 2.446832 1_555
Co10 Co3 2.592295 1_555
Co10 Co4 2.659229 1_555
Co10 Tb1 3.014898 1_555
Co10 Tb0 3.104077 1_555
Co11 Si2 2.354928 1_566
Co11 Si0 2.374609 1_556
Co11 Co15 2.381621 1_566
Co11 Co17 2.412505 1_555
Co11 Co12 2.412510 1_555
Co11 Co7 2.442625 1_555
Co11 Co8 2.446832 1_555
Co11 Co2 2.592295 1_555
Co11 Co5 2.659229 1_555
Co11 Tb1 3.014898 1_556
Co11 Tb0 3.104077 1_565
Co12 Si0 2.354934 1_556
Co12 Si1 2.374610 1_655
Co12 Co13 2.381621 1_556
Co12 Co14 2.412506 1_655
Co12 Co5 2.442619 1_655
Co12 Co7 2.446828 1_555
Co12 Co8 2.592297 1_555
Co12 Co2 2.659229 1_555
Co12 Tb0 3.014895 1_655
Co12 Tb1 3.104077 1_556
Co13 Si0 2.354934 1_555
Co13 Si2 2.374610 1_655
Co13 Co15 2.412506 1_655
Co13 Co4 2.442619 1_655
Co13 Co6 2.446828 1_555
Co13 Co9 2.592297 1_555
Co13 Co3 2.659229 1_555
Co13 Tb0 3.014895 1_654
Co13 Tb1 3.104077 1_555
Co14 Si1 2.354934 1_555
Co14 Si3 2.374610 1_565
Co14 Co17 2.412501 1_555
Co14 Co2 2.442625 1_555
Co14 Co5 2.446828 1_555
Co14 Co7 2.592299 1_455
Co14 Co8 2.659229 1_455
Co14 Tb1 3.014895 1_555
Co14 Tb0 3.104077 1_555
Co15 Si2 2.354934 1_555
Co15 Si3 2.374610 1_555
Co15 Co16 2.412501 1_555
Co15 Co3 2.442625 1_555
Co15 Co4 2.446828 1_555
Co15 Co6 2.592299 1_455
Co15 Co9 2.659229 1_455
Co15 Tb1 3.014895 1_545
Co15 Tb0 3.104077 1_554
Co16 Si3 2.354928 1_555
Co16 Si1 2.374609 1_555
Co16 Co17 2.381621 1_545
Co16 Co9 2.442631 1_555
Co16 Co3 2.446832 1_555
Co16 Co4 2.592297 1_555
Co16 Co6 2.659229 1_455
Co16 Tb0 3.014898 1_555
Co16 Tb1 3.104077 1_545
Co17 Si3 2.354928 1_565
Co17 Si2 2.374609 1_566
Co17 Co8 2.442631 1_555
Co17 Co2 2.446832 1_555
Co17 Co5 2.592297 1_555
Co17 Co7 2.659229 1_455
Co17 Tb0 3.014898 1_565
Co17 Tb1 3.104077 1_555
