# generated using pymatgen
data_La3SmV3CrO12
_symmetry_space_group_name_H-M   'P 1'
_cell_length_a   7.79579300
_cell_length_b   7.91443500
_cell_length_c   7.94944000
_cell_angle_alpha   90.00000000
_cell_angle_beta   90.00000000
_cell_angle_gamma   90.00000000
_symmetry_Int_Tables_number   1
_chemical_formula_structural   La3SmV3CrO12
_chemical_formula_sum   'La6 Sm2 V6 Cr2 O24'
_cell_volume   490.47485932
_cell_formula_units_Z   2
loop_
 _symmetry_equiv_pos_site_id
 _symmetry_equiv_pos_as_xyz
  1  'x, y, z'
loop_
 _atom_site_type_symbol
 _atom_site_label
 _atom_site_symmetry_multiplicity
 _atom_site_fract_x
 _atom_site_fract_y
 _atom_site_fract_z
 _atom_site_occupancy
  La  La0  1  0.50000000  0.74609100  0.00000000  1
  La  La1  1  0.00000000  0.74609100  0.00000000  1
  La  La2  1  0.50000000  0.25179800  0.00000000  1
  La  La3  1  0.00000000  0.25179800  0.00000000  1
  La  La4  1  0.50000000  0.25396900  0.50000000  1
  La  La5  1  0.00000000  0.25396900  0.50000000  1
  Sm  Sm0  1  0.50000000  0.74738000  0.50000000  1
  Sm  Sm1  1  0.00000000  0.74738000  0.50000000  1
  V  V0  1  0.75000000  0.99964100  0.74953400  1
  V  V1  1  0.25000000  0.99919100  0.74911400  1
  V  V2  1  0.75000000  0.50082600  0.74925600  1
  V  V3  1  0.75000000  0.99919100  0.25088600  1
  V  V4  1  0.25000000  0.99964100  0.25046600  1
  V  V5  1  0.25000000  0.50082600  0.25074400  1
  Cr  Cr0  1  0.25000000  0.50060200  0.74945300  1
  Cr  Cr1  1  0.75000000  0.50060200  0.25054700  1
  O  O0  1  0.75000000  0.99954200  0.00181000  1
  O  O1  1  0.25000000  0.99954200  0.99819000  1
  O  O2  1  0.75000000  0.49935900  0.00301300  1
  O  O3  1  0.25000000  0.49935900  0.99698700  1
  O  O4  1  0.75000000  0.99708600  0.49859500  1
  O  O5  1  0.25000000  0.99708600  0.50140500  1
  O  O6  1  0.75000000  0.50419600  0.49689400  1
  O  O7  1  0.25000000  0.50419600  0.50310600  1
  O  O8  1  0.75000000  0.74942800  0.74657500  1
  O  O9  1  0.25000000  0.74668700  0.74648800  1
  O  O10  1  0.75000000  0.25097000  0.74990700  1
  O  O11  1  0.25000000  0.25324800  0.75012400  1
  O  O12  1  0.75000000  0.74668700  0.25351200  1
  O  O13  1  0.25000000  0.74942800  0.25342500  1
  O  O14  1  0.75000000  0.25324800  0.24987600  1
  O  O15  1  0.25000000  0.25097000  0.25009300  1
  O  O16  1  0.50032700  0.99840100  0.74842100  1
  O  O17  1  0.99967300  0.99840100  0.74842100  1
  O  O18  1  0.49999200  0.50159200  0.74836700  1
  O  O19  1  0.00000800  0.50159200  0.74836700  1
  O  O20  1  0.49967300  0.99840100  0.25157900  1
  O  O21  1  0.00032700  0.99840100  0.25157900  1
  O  O22  1  0.50000800  0.50159200  0.25163300  1
  O  O23  1  0.99999200  0.50159200  0.25163300  1
loop_
_geom_bond_atom_site_label_1
_geom_bond_atom_site_label_2
_geom_bond_distance
_geom_bond_site_symmetry_2
La0 O2 2.759019 1_555
La0 O3 2.759019 1_554
La0 O22 2.783140 1_555
La0 O18 2.783140 1_554
La0 O0 2.796842 1_555
La0 O1 2.796842 1_554
La0 O13 2.803151 1_555
La0 O8 2.803151 1_554
La0 O12 2.803528 1_555
La0 O9 2.803528 1_554
La0 O16 2.826169 1_554
La0 O20 2.826169 1_555
La1 O3 2.759019 1_554
La1 O2 2.759019 1_455
La1 O19 2.783140 1_554
La1 O23 2.783140 1_455
La1 O0 2.796842 1_455
La1 O1 2.796842 1_554
La1 O13 2.803151 1_555
La1 O8 2.803151 1_454
La1 O12 2.803528 1_455
La1 O9 2.803528 1_554
La1 O17 2.826169 1_454
La1 O21 2.826169 1_555
La2 O2 2.763666 1_555
La2 O3 2.763666 1_554
La2 O11 2.782843 1_554
La2 O14 2.782843 1_555
La2 O10 2.784058 1_554
La2 O15 2.784058 1_555
La2 O0 2.790067 1_545
La2 O1 2.790067 1_544
La2 O18 2.812438 1_554
La2 O22 2.812438 1_555
La2 O20 2.832254 1_545
La2 O16 2.832254 1_544
La3 O3 2.763666 1_554
La3 O2 2.763666 1_455
La3 O14 2.782843 1_455
La3 O11 2.782843 1_554
La3 O10 2.784058 1_454
La3 O15 2.784058 1_555
La3 O0 2.790067 1_445
La3 O1 2.790067 1_544
La3 O19 2.812438 1_554
La3 O23 2.812438 1_455
La3 O21 2.832254 1_545
La3 O17 2.832254 1_444
La4 O6 2.778671 1_555
La4 O7 2.778671 1_555
La4 O18 2.781901 1_555
La4 O22 2.781901 1_555
La4 O15 2.783096 1_555
La4 O10 2.783096 1_555
La4 O11 2.784232 1_555
La4 O14 2.784232 1_555
La4 O5 2.816372 1_545
La4 O4 2.816372 1_545
La4 O16 2.826852 1_545
La4 O20 2.826852 1_545
La5 O6 2.778671 1_455
La5 O7 2.778671 1_555
La5 O19 2.781901 1_555
La5 O23 2.781901 1_455
La5 O15 2.783096 1_555
La5 O10 2.783096 1_455
La5 O11 2.784232 1_555
La5 O14 2.784232 1_455
La5 O5 2.816372 1_545
La5 O4 2.816372 1_445
La5 O21 2.826852 1_545
La5 O17 2.826852 1_445
Cr0 O9 1.947766 1_555
Cr0 O18 1.948921 1_555
Cr0 O19 1.948921 1_555
Cr0 O11 1.957674 1_555
Cr0 O7 1.958527 1_555
Cr0 O3 1.967781 1_555
Cr1 O12 1.947766 1_555
Cr1 O22 1.948921 1_555
Cr1 O23 1.948921 1_555
Cr1 O14 1.957674 1_555
Cr1 O6 1.958527 1_555
Cr1 O2 1.967781 1_555
O0 V3 1.980017 1_555
O0 V0 2.005453 1_554
O1 V1 1.980017 1_555
O1 V4 2.005453 1_556
O2 V2 2.017259 1_554
O3 V5 2.017259 1_556
O4 V3 1.969218 1_555
O4 V0 1.994927 1_555
O4 Sm1 2.775647 1_655
O4 Sm0 2.775647 1_555
O5 V1 1.969218 1_555
O5 V4 1.994927 1_555
O5 Sm0 2.775647 1_555
O5 Sm1 2.775647 1_555
O6 V2 2.006314 1_555
O6 Sm1 2.739223 1_655
O6 Sm0 2.739223 1_555
O7 V5 2.006314 1_555
O7 Sm1 2.739223 1_555
O7 Sm0 2.739223 1_555
O8 V2 1.967660 1_555
O8 V0 1.980434 1_555
O8 Sm0 2.764197 1_555
O8 Sm1 2.764197 1_655
O9 V1 1.998536 1_555
O9 Sm1 2.763664 1_555
O9 Sm0 2.763664 1_555
O10 V2 1.977476 1_555
O10 V0 1.989129 1_545
O11 V1 2.010734 1_545
O12 V3 1.998536 1_555
O12 Sm1 2.763664 1_655
O12 Sm0 2.763664 1_555
O13 V5 1.967660 1_555
O13 V4 1.980434 1_555
O13 Sm0 2.764197 1_555
O13 Sm1 2.764197 1_555
O14 V3 2.010734 1_545
O15 V5 1.977476 1_555
O15 V4 1.989129 1_545
O16 V0 1.946444 1_555
O16 V1 1.951515 1_555
O16 Sm0 2.801215 1_555
O17 V0 1.946444 1_555
O17 V1 1.951515 1_655
O17 Sm1 2.801215 1_655
O18 V2 1.949033 1_555
O18 Sm0 2.771689 1_555
O19 V2 1.949033 1_455
O19 Sm1 2.771689 1_555
O20 V4 1.946444 1_555
O20 V3 1.951515 1_555
O20 Sm0 2.801215 1_555
O21 V4 1.946444 1_555
O21 V3 1.951515 1_455
O21 Sm1 2.801215 1_555
O22 V5 1.949033 1_555
O22 Sm0 2.771689 1_555
O23 V5 1.949033 1_655
O23 Sm1 2.771689 1_655
