# generated using pymatgen
data_KMg14TiO16
_symmetry_space_group_name_H-M   'P 1'
_cell_length_a   8.65541914
_cell_length_b   8.60804652
_cell_length_c   4.40093977
_cell_angle_alpha   90.00000000
_cell_angle_beta   90.00000000
_cell_angle_gamma   90.00000000
_symmetry_Int_Tables_number   1
_chemical_formula_structural   KMg14TiO16
_chemical_formula_sum   'K1 Mg14 Ti1 O16'
_cell_volume   327.89752141
_cell_formula_units_Z   1
loop_
 _symmetry_equiv_pos_site_id
 _symmetry_equiv_pos_as_xyz
  1  'x, y, z'
loop_
 _atom_site_type_symbol
 _atom_site_label
 _atom_site_symmetry_multiplicity
 _atom_site_fract_x
 _atom_site_fract_y
 _atom_site_fract_z
 _atom_site_occupancy
  K  K0  1  0.00000000  0.50000000  0.00000000  1
  Mg  Mg0  1  0.50000000  0.00000000  0.00000000  1
  Mg  Mg1  1  0.50000000  0.50000000  0.00000000  1
  Mg  Mg2  1  0.00000000  0.25517878  0.50000000  1
  Mg  Mg3  1  0.00000000  0.74482122  0.50000000  1
  Mg  Mg4  1  0.50000000  0.25155740  0.50000000  1
  Mg  Mg5  1  0.50000000  0.74844260  0.50000000  1
  Mg  Mg6  1  0.25232004  0.00000000  0.50000000  1
  Mg  Mg7  1  0.25213970  0.50000000  0.50000000  1
  Mg  Mg8  1  0.74767996  0.00000000  0.50000000  1
  Mg  Mg9  1  0.74786030  0.50000000  0.50000000  1
  Mg  Mg10  1  0.25681518  0.25306602  0.00000000  1
  Mg  Mg11  1  0.25681518  0.74693398  -0.00000000  1
  Mg  Mg12  1  0.74318482  0.25306602  0.00000000  1
  Mg  Mg13  1  0.74318482  0.74693398  -0.00000000  1
  Ti  Ti0  1  0.00000000  0.00000000  0.00000000  1
  O  O0  1  0.25113159  0.00000000  0.00000000  1
  O  O1  1  0.27490857  0.50000000  0.00000000  1
  O  O2  1  0.74886841  0.00000000  -0.00000000  1
  O  O3  1  0.72509143  0.50000000  0.00000000  1
  O  O4  1  0.24838427  0.24929180  0.50000000  1
  O  O5  1  0.24838427  0.75070820  0.50000000  1
  O  O6  1  0.75161573  0.24929180  0.50000000  1
  O  O7  1  0.75161573  0.75070820  0.50000000  1
  O  O8  1  0.00000000  0.00000000  0.50000000  1
  O  O9  1  0.00000000  0.50000000  0.50000000  1
  O  O10  1  0.50000000  0.00000000  0.50000000  1
  O  O11  1  0.50000000  0.50000000  0.50000000  1
  O  O12  1  0.00000000  0.22240593  0.00000000  1
  O  O13  1  0.00000000  0.77759407  0.00000000  1
  O  O14  1  0.50000000  0.24281062  0.00000000  1
  O  O15  1  0.50000000  0.75718938  0.00000000  1
loop_
_geom_bond_atom_site_label_1
_geom_bond_atom_site_label_2
_geom_bond_distance
_geom_bond_site_symmetry_2
K0 O9 2.200470 1_554
K0 O9 2.200470 1_555
K0 O1 2.379449 1_555
K0 O3 2.379449 1_455
K0 O12 2.389543 1_555
K0 O13 2.389543 1_555
Mg0 O15 2.090125 1_545
Mg0 O14 2.090125 1_555
Mg0 O0 2.154060 1_555
Mg0 O2 2.154060 1_555
Mg0 O10 2.200470 1_555
Mg0 O10 2.200470 1_554
Mg1 O3 1.948261 1_555
Mg1 O1 1.948261 1_555
Mg1 O11 2.200470 1_554
Mg1 O11 2.200470 1_555
Mg1 O15 2.213898 1_555
Mg1 O14 2.213898 1_555
Mg2 O9 2.107432 1_555
Mg2 O6 2.150467 1_455
Mg2 O4 2.150467 1_555
Mg2 O8 2.196591 1_555
Mg2 O12 2.218480 1_556
Mg2 O12 2.218480 1_555
Mg3 O9 2.107432 1_555
Mg3 O7 2.150467 1_455
Mg3 O5 2.150467 1_555
Mg3 O8 2.196591 1_565
Mg3 O13 2.218480 1_555
Mg3 O13 2.218480 1_556
Mg4 O11 2.138605 1_555
Mg4 O10 2.165418 1_555
Mg4 O4 2.177927 1_555
Mg4 O6 2.177927 1_555
Mg4 O14 2.201758 1_556
Mg4 O14 2.201758 1_555
Mg5 O11 2.138605 1_555
Mg5 O10 2.165418 1_565
Mg5 O5 2.177927 1_555
Mg5 O7 2.177927 1_555
Mg5 O15 2.201758 1_556
Mg5 O15 2.201758 1_555
Mg6 O10 2.143774 1_555
Mg6 O4 2.146186 1_555
Mg6 O5 2.146186 1_545
Mg6 O8 2.183936 1_555
Mg6 O0 2.200494 1_555
Mg6 O0 2.200494 1_556
Mg7 O11 2.145335 1_555
Mg7 O5 2.158353 1_555
Mg7 O4 2.158353 1_555
Mg7 O9 2.182375 1_555
Mg7 O1 2.209277 1_556
Mg7 O1 2.209277 1_555
Mg8 O10 2.143774 1_555
Mg8 O6 2.146186 1_555
Mg8 O7 2.146186 1_545
Mg8 O8 2.183936 1_655
Mg8 O2 2.200494 1_555
Mg8 O2 2.200494 1_556
Mg9 O11 2.145335 1_555
Mg9 O7 2.158353 1_555
Mg9 O6 2.158353 1_555
Mg9 O9 2.182375 1_655
Mg9 O3 2.209277 1_556
Mg9 O3 2.209277 1_555
Mg10 O14 2.106717 1_555
Mg10 O1 2.131380 1_555
Mg10 O0 2.178959 1_555
Mg10 O4 2.201919 1_554
Mg10 O4 2.201919 1_555
Mg10 O12 2.238456 1_555
Mg11 O15 2.106717 1_555
Mg11 O1 2.131380 1_555
Mg11 O0 2.178959 1_565
Mg11 O5 2.201919 1_555
Mg11 O5 2.201919 1_554
Mg11 O13 2.238456 1_555
Mg12 O14 2.106717 1_555
Mg12 O3 2.131380 1_555
Mg12 O2 2.178959 1_555
Mg12 O6 2.201919 1_554
Mg12 O6 2.201919 1_555
Mg12 O12 2.238456 1_655
Mg13 O15 2.106717 1_555
Mg13 O3 2.131380 1_555
Mg13 O2 2.178959 1_565
Mg13 O7 2.201919 1_555
Mg13 O7 2.201919 1_554
Mg13 O13 2.238456 1_655
O0 Ti0 2.173649 1_555
O2 Ti0 2.173649 1_655
O8 Ti0 2.200470 1_555
O8 Ti0 2.200470 1_556
O12 Ti0 1.914481 1_555
O13 Ti0 1.914481 1_565
