# generated using pymatgen
data_V3H4NO7
_symmetry_space_group_name_H-M   'P 1'
_cell_length_a   3.80092900
_cell_length_b   8.48305851
_cell_length_c   10.12876811
_cell_angle_alpha   84.16491058
_cell_angle_beta   79.18546967
_cell_angle_gamma   77.05411733
_symmetry_Int_Tables_number   1
_chemical_formula_structural   V3H4NO7
_chemical_formula_sum   'V6 H8 N2 O14'
_cell_volume   312.02581381
_cell_formula_units_Z   2
loop_
 _symmetry_equiv_pos_site_id
 _symmetry_equiv_pos_as_xyz
  1  'x, y, z'
loop_
 _atom_site_type_symbol
 _atom_site_label
 _atom_site_symmetry_multiplicity
 _atom_site_fract_x
 _atom_site_fract_y
 _atom_site_fract_z
 _atom_site_occupancy
  V  V0  1  0.70674100  0.13694100  0.44957800  1
  V  V1  1  0.29325900  0.86305900  0.55042200  1
  V  V2  1  0.44380200  0.44235500  0.67004100  1
  V  V3  1  0.55619800  0.55764500  0.32995900  1
  V  V4  1  0.94103000  0.84348900  0.27445100  1
  V  V5  1  0.05897000  0.15651100  0.72554900  1
  H  H0  1  0.31777700  0.19144500  0.17300100  1
  H  H1  1  0.68222300  0.80855500  0.82699900  1
  H  H2  1  0.59438600  0.22319200  0.02389500  1
  H  H3  1  0.84147300  0.77680800  0.97610500  1
  H  H4  1  0.40561400  0.77680800  0.97610500  1
  H  H5  1  0.15852700  0.22319200  0.02389500  1
  H  H6  1  0.26449000  0.37655000  0.09447100  1
  H  H7  1  0.73551000  0.62345000  0.90552900  1
  N  N0  1  0.33243000  0.25467600  0.08046300  1
  N  N1  1  0.66757000  0.74532400  0.91953700  1
  O  O0  1  0.81393400  0.08937500  0.28275700  1
  O  O1  1  0.18606600  0.91062500  0.71724300  1
  O  O2  1  0.57084800  0.19071300  0.66759000  1
  O  O3  1  0.42915200  0.80928700  0.33241000  1
  O  O4  1  0.80144100  0.89514400  0.50197400  1
  O  O5  1  0.19855900  0.10485600  0.49802600  1
  O  O6  1  0.60215500  0.37074200  0.42494700  1
  O  O7  1  0.39784500  0.62925800  0.57505300  1
  O  O8  1  0.02302900  0.61220500  0.34173700  1
  O  O9  1  0.97697100  0.38779500  0.65826300  1
  O  O10  1  0.34067700  0.49045500  0.82819100  1
  O  O11  1  0.65932300  0.50954500  0.17180900  1
  O  O12  1  0.02757000  0.83879300  0.10606800  1
  O  O13  1  0.97243000  0.16120700  0.89393200  1
loop_
_geom_bond_atom_site_label_1
_geom_bond_atom_site_label_2
_geom_bond_distance
_geom_bond_site_symmetry_2
H0 N0 1.030006 1_555
H1 N1 1.030006 1_555
H2 N0 1.043491 1_555
H3 N1 1.043488 1_555
H4 N1 1.043491 1_555
H5 N0 1.043488 1_555
H6 N0 1.025741 1_555
H7 N1 1.025741 1_555
O0 V0 1.729306 1_555
O0 V4 2.039663 1_545
O1 V1 1.729306 1_555
O1 V5 2.039663 1_565
O2 V5 2.000974 1_555
O2 V5 2.000978 1_655
O2 V2 2.082096 1_555
O2 V0 2.241029 1_555
O3 V4 2.000974 1_555
O3 V4 2.000978 1_455
O3 V3 2.082096 1_555
O3 V1 2.241029 1_555
O4 V1 1.974467 1_655
O4 V1 1.974471 1_555
O4 V0 2.034226 1_565
O4 V4 2.329525 1_555
O5 V0 1.974467 1_455
O5 V0 1.974471 1_555
O5 V1 2.034226 1_545
O5 V5 2.329525 1_555
O6 V3 1.760345 1_555
O6 V0 1.933204 1_555
O6 V2 2.544845 1_555
O7 V2 1.760345 1_555
O7 V1 1.933204 1_555
O7 V3 2.544845 1_555
O8 V3 1.958455 1_555
O8 V3 1.958455 1_455
O8 V4 1.986172 1_455
O9 V2 1.958455 1_555
O9 V2 1.958455 1_655
O9 V5 1.986172 1_655
O10 V2 1.646731 1_555
O11 V3 1.646731 1_555
O12 V4 1.678088 1_455
O13 V5 1.678088 1_655
