# generated using pymatgen
data_TeRh
_symmetry_space_group_name_H-M   'P 1'
_cell_length_a   4.02705931
_cell_length_b   4.02705898
_cell_length_c   5.69372306
_cell_angle_alpha   90.00000000
_cell_angle_beta   90.00000000
_cell_angle_gamma   119.99999445
_symmetry_Int_Tables_number   1
_chemical_formula_structural   TeRh
_chemical_formula_sum   'Te2 Rh2'
_cell_volume   79.96556518
_cell_formula_units_Z   2
loop_
 _symmetry_equiv_pos_site_id
 _symmetry_equiv_pos_as_xyz
  1  'x, y, z'
loop_
 _atom_site_type_symbol
 _atom_site_label
 _atom_site_symmetry_multiplicity
 _atom_site_fract_x
 _atom_site_fract_y
 _atom_site_fract_z
 _atom_site_occupancy
  Te  Te0  1  0.33333300  0.66666700  0.25000000  1
  Te  Te1  1  0.66666700  0.33333300  0.75000000  1
  Rh  Rh0  1  0.00000000  -0.00000000  -0.00000000  1
  Rh  Rh1  1  0.00000000  0.00000000  0.50000000  1
loop_
_geom_bond_atom_site_label_1
_geom_bond_atom_site_label_2
_geom_bond_distance
_geom_bond_site_symmetry_2
Rh0 Te0 2.726147 1_545
Rh0 Te1 2.726147 1_454
Rh0 Te0 2.726150 1_555
Rh0 Te1 2.726150 1_444
Rh0 Te0 2.726151 1_445
Rh0 Te1 2.726151 1_554
Rh1 Te0 2.726147 1_545
Rh1 Te1 2.726147 1_455
Rh1 Te0 2.726150 1_555
Rh1 Te1 2.726150 1_445
Rh1 Te0 2.726151 1_445
Rh1 Te1 2.726151 1_555
