# generated using pymatgen
data_KCeNb4O12
_symmetry_space_group_name_H-M   'P 1'
_cell_length_a   5.63230329
_cell_length_b   5.63230329
_cell_length_c   7.96626562
_cell_angle_alpha   90.00000000
_cell_angle_beta   90.00000000
_cell_angle_gamma   90.92214167
_symmetry_Int_Tables_number   1
_chemical_formula_structural   KCeNb4O12
_chemical_formula_sum   'K1 Ce1 Nb4 O12'
_cell_volume   252.67984336
_cell_formula_units_Z   1
loop_
 _symmetry_equiv_pos_site_id
 _symmetry_equiv_pos_as_xyz
  1  'x, y, z'
loop_
 _atom_site_type_symbol
 _atom_site_label
 _atom_site_symmetry_multiplicity
 _atom_site_fract_x
 _atom_site_fract_y
 _atom_site_fract_z
 _atom_site_occupancy
  K  K0  1  0.00294696  0.99705304  0.50000000  1
  Ce  Ce0  1  0.49347950  0.50652050  -0.00000000  1
  Nb  Nb0  1  0.49650528  0.00762035  0.25116699  1
  Nb  Nb1  1  0.49650528  0.00762035  0.74883301  1
  Nb  Nb2  1  0.99237965  0.50349472  0.74883301  1
  Nb  Nb3  1  0.99237965  0.50349472  0.25116699  1
  O  O0  1  0.28368863  0.28323468  0.23178216  1
  O  O1  1  0.71676532  0.71631137  0.23178216  1
  O  O2  1  0.71676532  0.71631137  0.76821784  1
  O  O3  1  0.28368863  0.28323468  0.76821784  1
  O  O4  1  0.23998221  0.76001779  0.20456922  1
  O  O5  1  0.77638478  0.22361522  0.26922845  1
  O  O6  1  0.77638478  0.22361522  0.73077155  1
  O  O7  1  0.23998221  0.76001779  0.79543078  1
  O  O8  1  0.53560738  0.04735048  -0.00000000  1
  O  O9  1  0.47652144  0.98111655  0.50000000  1
  O  O10  1  0.95264952  0.46439262  -0.00000000  1
  O  O11  1  0.01888345  0.52347856  0.50000000  1
loop_
_geom_bond_atom_site_label_1
_geom_bond_atom_site_label_2
_geom_bond_distance
_geom_bond_site_symmetry_2
K0 O5 2.586266 1_465
K0 O6 2.586266 1_465
K0 O11 2.670268 1_555
K0 O9 2.670268 1_555
K0 O11 2.964902 1_565
K0 O9 2.964902 1_455
K0 O7 3.026711 1_555
K0 O4 3.026711 1_555
K0 O2 3.095447 1_455
K0 O1 3.095447 1_455
K0 O3 3.095447 1_565
K0 O0 3.095447 1_565
Ce0 O2 2.517794 1_554
Ce0 O3 2.517794 1_554
Ce0 O1 2.517794 1_555
Ce0 O0 2.517794 1_555
Ce0 O10 2.600847 1_555
Ce0 O8 2.600847 1_555
Ce0 O7 2.607385 1_554
Ce0 O4 2.607385 1_555
Nb0 O5 1.980883 1_555
Nb0 O0 1.982490 1_555
Nb0 O9 1.990931 1_545
Nb0 O8 2.024955 1_555
Nb0 O4 2.026146 1_545
Nb0 O1 2.078560 1_545
Nb1 O6 1.980883 1_555
Nb1 O3 1.982490 1_555
Nb1 O9 1.990931 1_545
Nb1 O8 2.024955 1_556
Nb1 O7 2.026146 1_545
Nb1 O2 2.078560 1_545
Nb2 O6 1.980883 1_555
Nb2 O2 1.982490 1_555
Nb2 O11 1.990931 1_655
Nb2 O10 2.024955 1_556
Nb2 O7 2.026146 1_655
Nb2 O3 2.078560 1_655
Nb3 O5 1.980883 1_555
Nb3 O1 1.982490 1_555
Nb3 O11 1.990931 1_655
Nb3 O10 2.024955 1_555
Nb3 O4 2.026146 1_655
Nb3 O0 2.078560 1_655
