# generated using pymatgen
data_K2Mg5Sn3
_symmetry_space_group_name_H-M   'P 1'
_cell_length_a   12.17382673
_cell_length_b   12.17382673
_cell_length_c   12.17382673
_cell_angle_alpha   156.46524226
_cell_angle_beta   156.46524226
_cell_angle_gamma   33.52592279
_symmetry_Int_Tables_number   1
_chemical_formula_structural   K2Mg5Sn3
_chemical_formula_sum   'K2 Mg5 Sn3'
_cell_volume   287.39699260
_cell_formula_units_Z   1
loop_
 _symmetry_equiv_pos_site_id
 _symmetry_equiv_pos_as_xyz
  1  'x, y, z'
loop_
 _atom_site_type_symbol
 _atom_site_label
 _atom_site_symmetry_multiplicity
 _atom_site_fract_x
 _atom_site_fract_y
 _atom_site_fract_z
 _atom_site_occupancy
  K  K0  1  0.80122664  0.80122664  0.00000000  1
  K  K1  1  0.19877336  0.19877336  -0.00000000  1
  Mg  Mg0  1  0.41989302  0.91989302  0.50000000  1
  Mg  Mg1  1  0.91989302  0.41989302  0.50000000  1
  Mg  Mg2  1  0.58010698  0.08010698  0.50000000  1
  Mg  Mg3  1  0.08010698  0.58010698  0.50000000  1
  Mg  Mg4  1  0.50000000  0.50000000  0.00000000  1
  Sn  Sn0  1  -0.00000000  -0.00000000  0.00000000  1
  Sn  Sn1  1  0.35899248  0.35899248  -0.00000000  1
  Sn  Sn2  1  0.64100752  0.64100752  0.00000000  1
loop_
_geom_bond_atom_site_label_1
_geom_bond_atom_site_label_2
_geom_bond_distance
_geom_bond_site_symmetry_2
K0 Mg1 3.717155 1_554
K0 Mg1 3.717155 1_565
K0 Mg0 3.717155 1_655
K0 Mg0 3.717155 1_554
K0 Sn2 3.735193 1_555
K0 Sn1 3.760496 1_655
K0 Sn1 3.760496 1_666
K0 Sn1 3.760496 1_554
K0 Sn1 3.760496 1_565
K1 Mg3 3.717155 1_544
K1 Mg2 3.717155 1_454
K1 Mg3 3.717155 1_555
K1 Mg2 3.717155 1_555
K1 Sn1 3.735193 1_555
K1 Sn2 3.760496 1_556
K1 Sn2 3.760496 1_444
K1 Sn2 3.760496 1_545
K1 Sn2 3.760496 1_455
Mg0 Sn1 2.860006 1_566
Mg0 Sn1 2.860006 1_555
Mg0 Mg4 3.106696 1_555
Mg0 Sn0 3.106696 1_565
Mg0 Sn0 3.106696 1_666
Mg0 Mg4 3.106696 1_566
Mg1 Sn1 2.860006 1_555
Mg1 Sn1 2.860006 1_656
Mg1 Mg4 3.106696 1_555
Mg1 Mg4 3.106696 1_656
Mg1 Sn0 3.106696 1_666
Mg1 Sn0 3.106696 1_655
Mg2 Sn2 2.860006 1_556
Mg2 Sn2 2.860006 1_545
Mg2 Sn0 3.106696 1_656
Mg2 Sn0 3.106696 1_555
Mg2 Mg4 3.106696 1_545
Mg2 Mg4 3.106696 1_556
Mg3 Sn2 2.860006 1_455
Mg3 Sn2 2.860006 1_556
Mg3 Sn0 3.106696 1_566
Mg3 Mg4 3.106696 1_556
Mg3 Mg4 3.106696 1_455
Mg3 Sn0 3.106696 1_555
Mg4 Sn1 3.287312 1_555
Mg4 Sn2 3.287312 1_555
Mg4 Sn0 3.511088 1_655
Mg4 Sn0 3.511088 1_554
Mg4 Sn0 3.511088 1_666
Mg4 Sn0 3.511088 1_565
