# generated using pymatgen
data_La4Cu3MoO12
_symmetry_space_group_name_H-M   'P 1'
_cell_length_a   6.93006600
_cell_length_b   10.98150000
_cell_length_c   7.97376868
_cell_angle_alpha   90.00000000
_cell_angle_beta   90.04695746
_cell_angle_gamma   90.00000000
_symmetry_Int_Tables_number   1
_chemical_formula_structural   La4Cu3MoO12
_chemical_formula_sum   'La8 Cu6 Mo2 O24'
_cell_volume   606.82368473
_cell_formula_units_Z   2
loop_
 _symmetry_equiv_pos_site_id
 _symmetry_equiv_pos_as_xyz
  1  'x, y, z'
loop_
 _atom_site_type_symbol
 _atom_site_label
 _atom_site_symmetry_multiplicity
 _atom_site_fract_x
 _atom_site_fract_y
 _atom_site_fract_z
 _atom_site_occupancy
  La  La0  1  0.74755900  0.24825400  0.88168400  1
  La  La1  1  0.74755900  0.75174600  0.88168400  1
  La  La2  1  0.75628400  0.24948000  0.37175900  1
  La  La3  1  0.75628400  0.75052000  0.37175900  1
  La  La4  1  0.23340300  0.25245500  0.63408200  1
  La  La5  1  0.23340300  0.74754500  0.63408200  1
  La  La6  1  0.24400900  0.24994900  0.12352700  1
  La  La7  1  0.24400900  0.75005100  0.12352700  1
  Cu  Cu0  1  0.45357800  0.50000000  0.87697700  1
  Cu  Cu1  1  0.88293300  0.50000000  0.65977300  1
  Cu  Cu2  1  0.88894200  0.50000000  0.09736000  1
  Cu  Cu3  1  0.54108800  0.00000000  0.14004200  1
  Cu  Cu4  1  0.10692900  0.00000000  0.91221100  1
  Cu  Cu5  1  0.10439400  0.00000000  0.34885400  1
  Mo  Mo0  1  0.41250900  0.50000000  0.37865700  1
  Mo  Mo1  1  0.57218900  0.00000000  0.62487100  1
  O  O0  1  0.73609500  0.50000000  0.88028000  1
  O  O1  1  0.68086600  0.50000000  0.37828500  1
  O  O2  1  0.27786500  0.50000000  0.57883700  1
  O  O3  1  0.27667300  0.50000000  0.17923900  1
  O  O4  1  0.57727500  0.17609900  0.62391500  1
  O  O5  1  0.57727500  0.82390100  0.62391500  1
  O  O6  1  0.57933500  0.16556700  0.12662200  1
  O  O7  1  0.57933500  0.83443300  0.12662200  1
  O  O8  1  0.08005900  0.16667900  0.88118600  1
  O  O9  1  0.08005900  0.83332100  0.88118600  1
  O  O10  1  0.07755700  0.16623400  0.37859700  1
  O  O11  1  0.07755700  0.83376600  0.37859700  1
  O  O12  1  0.91197600  0.33338900  0.12571500  1
  O  O13  1  0.91197600  0.66661100  0.12571500  1
  O  O14  1  0.41350900  0.32388100  0.37824700  1
  O  O15  1  0.41350900  0.67611900  0.37824700  1
  O  O16  1  0.41242300  0.33495100  0.87744600  1
  O  O17  1  0.41242300  0.66504900  0.87744600  1
  O  O18  1  0.91234400  0.33323700  0.63006400  1
  O  O19  1  0.91234400  0.66676300  0.63006400  1
  O  O20  1  0.25687800  0.00000000  0.13337100  1
  O  O21  1  0.30660900  0.00000000  0.64403900  1
  O  O22  1  0.68711200  0.00000000  0.41313800  1
  O  O23  1  0.71327300  0.00000000  0.82088100  1
loop_
_geom_bond_atom_site_label_1
_geom_bond_atom_site_label_2
_geom_bond_distance
_geom_bond_site_symmetry_2
La0 O12 2.440291 1_556
La0 O6 2.449870 1_556
La0 O8 2.472260 1_655
La0 O18 2.490837 1_555
La0 O4 2.498218 1_555
La0 O16 2.510281 1_555
La0 O0 2.765712 1_555
La0 O23 2.779119 1_555
La1 O13 2.440291 1_556
La1 O7 2.449870 1_556
La1 O9 2.472260 1_655
La1 O19 2.490837 1_555
La1 O5 2.498218 1_555
La1 O17 2.510281 1_555
La1 O0 2.765712 1_555
La1 O23 2.779119 1_565
La2 O10 2.407389 1_655
La2 O12 2.421925 1_555
La2 O6 2.483882 1_555
La2 O4 2.497009 1_555
La2 O18 2.500842 1_555
La2 O14 2.512609 1_555
La2 O1 2.800783 1_555
La2 O22 2.800835 1_555
La3 O11 2.407389 1_655
La3 O13 2.421925 1_555
La3 O7 2.483882 1_555
La3 O5 2.497009 1_555
La3 O19 2.500842 1_555
La3 O15 2.512609 1_555
La3 O1 2.800783 1_555
La3 O22 2.800835 1_565
La4 O18 2.395478 1_455
La4 O8 2.429460 1_555
La4 O16 2.474177 1_555
La4 O10 2.491874 1_555
La4 O14 2.517686 1_555
La4 O4 2.527634 1_555
La4 O2 2.771100 1_555
La4 O21 2.819477 1_555
La5 O19 2.395478 1_455
La5 O9 2.429460 1_555
La5 O17 2.474177 1_555
La5 O11 2.491874 1_555
La5 O15 2.517686 1_555
La5 O5 2.527634 1_555
La5 O2 2.771100 1_555
La5 O21 2.819477 1_565
La6 O8 2.420239 1_554
La6 O16 2.467276 1_554
La6 O12 2.476816 1_455
La6 O14 2.481999 1_555
La6 O6 2.501873 1_555
La6 O10 2.513211 1_555
La6 O20 2.747383 1_555
La6 O3 2.790803 1_555
La7 O9 2.420239 1_554
La7 O17 2.467276 1_554
La7 O13 2.476816 1_455
La7 O15 2.481999 1_555
La7 O7 2.501873 1_555
La7 O11 2.513211 1_555
La7 O20 2.747383 1_565
La7 O3 2.790803 1_555
Cu0 O17 1.834792 1_555
Cu0 O16 1.834792 1_555
Cu0 O0 1.958017 1_555
Cu1 O19 1.857802 1_555
Cu1 O18 1.857802 1_555
Cu1 O0 2.032229 1_555
Cu2 O13 1.850437 1_555
Cu2 O12 1.850437 1_555
Cu2 O0 2.028585 1_554
Cu3 O6 1.840518 1_555
Cu3 O7 1.840518 1_545
Cu3 O20 1.970269 1_555
Cu3 O22 2.400501 1_555
Cu4 O8 1.856370 1_555
Cu4 O9 1.856370 1_545
Cu4 O20 2.046143 1_556
Cu4 O21 2.547988 1_555
Cu5 O11 1.850231 1_545
Cu5 O10 1.850231 1_555
Cu5 O20 2.017893 1_555
Mo0 O3 1.847201 1_555
Mo0 O2 1.849573 1_555
Mo0 O1 1.859737 1_555
Mo0 O15 1.934066 1_555
Mo0 O14 1.934066 1_555
Mo1 O23 1.842881 1_555
Mo1 O21 1.846947 1_555
Mo1 O22 1.867320 1_555
Mo1 O4 1.934167 1_555
Mo1 O5 1.934167 1_545
