# generated using pymatgen
data_Ba4Sr2Gd2Co4O15
_symmetry_space_group_name_H-M   'P 1'
_cell_length_a   6.87866081
_cell_length_b   11.74410127
_cell_length_c   11.70811668
_cell_angle_alpha   60.06019374
_cell_angle_beta   89.70410225
_cell_angle_gamma   89.38546597
_symmetry_Int_Tables_number   1
_chemical_formula_structural   Ba4Sr2Gd2Co4O15
_chemical_formula_sum   'Ba8 Sr4 Gd4 Co8 O30'
_cell_volume   819.55757206
_cell_formula_units_Z   2
loop_
 _symmetry_equiv_pos_site_id
 _symmetry_equiv_pos_as_xyz
  1  'x, y, z'
loop_
 _atom_site_type_symbol
 _atom_site_label
 _atom_site_symmetry_multiplicity
 _atom_site_fract_x
 _atom_site_fract_y
 _atom_site_fract_z
 _atom_site_occupancy
  Ba  Ba0  1  0.32939800  0.17324500  0.64915200  1
  Ba  Ba1  1  0.32635600  0.65128800  0.17402600  1
  Ba  Ba2  1  0.33380400  0.17410100  0.17342400  1
  Ba  Ba3  1  0.82694500  0.82372800  0.34840500  1
  Ba  Ba4  1  0.83378400  0.34464900  0.82824000  1
  Ba  Ba5  1  0.82634600  0.82696900  0.82674300  1
  Ba  Ba6  1  0.01507400  0.33433100  0.33198000  1
  Ba  Ba7  1  0.50612800  0.66569600  0.66924900  1
  Sr  Sr0  1  0.51576300  0.99983200  0.00007100  1
  Sr  Sr1  1  0.01693100  0.00028000  0.00024500  1
  Sr  Sr2  1  0.66495500  0.04947700  0.47518300  1
  Sr  Sr3  1  0.16898200  0.52301800  0.52474100  1
  Gd  Gd0  1  0.66027100  0.47627800  0.04507200  1
  Gd  Gd1  1  0.66751400  0.47492400  0.47467600  1
  Gd  Gd2  1  0.16145000  0.52077800  0.95427400  1
  Gd  Gd3  1  0.16872000  0.95262200  0.52335500  1
  Co  Co0  1  0.83903200  0.17341600  0.64755200  1
  Co  Co1  1  0.83286400  0.64857700  0.17280700  1
  Co  Co2  1  0.84205800  0.17343300  0.17974500  1
  Co  Co3  1  0.33697100  0.82104500  0.35187200  1
  Co  Co4  1  0.34515300  0.35058900  0.82146100  1
  Co  Co5  1  0.33112700  0.82170600  0.82692800  1
  Co  Co6  1  0.48227500  0.33154000  0.32996200  1
  Co  Co7  1  0.96459000  0.66465200  0.66711500  1
  O  O0  1  0.48220200  0.66783500  0.39348800  1
  O  O1  1  0.47061700  0.39862000  0.93750400  1
  O  O2  1  0.44784900  0.93401800  0.66759900  1
  O  O3  1  0.48417600  0.39565700  0.67058500  1
  O  O4  1  0.45486500  0.93686100  0.39476100  1
  O  O5  1  0.46284400  0.66311300  0.93989500  1
  O  O6  1  0.95406500  0.33286100  0.60475100  1
  O  O7  1  0.96271400  0.60381600  0.05942800  1
  O  O8  1  0.98212900  0.06785800  0.32820800  1
  O  O9  1  0.94905800  0.60168500  0.33313100  1
  O  O10  1  0.98102300  0.06208700  0.60731400  1
  O  O11  1  0.96467800  0.33735700  0.06390800  1
  O  O12  1  0.66492600  0.25717200  0.50021800  1
  O  O13  1  0.65978300  0.50307400  0.24531500  1
  O  O14  1  0.65999200  0.26048500  0.24042000  1
  O  O15  1  0.16235100  0.75793000  0.49653800  1
  O  O16  1  0.16325900  0.49499300  0.76320700  1
  O  O17  1  0.15865000  0.74621300  0.75653100  1
  O  O18  1  0.32978300  0.42049000  0.16024100  1
  O  O19  1  0.32431100  0.16866700  0.41562900  1
  O  O20  1  0.34343800  0.41264400  0.41180800  1
  O  O21  1  0.82705700  0.58125000  0.83883100  1
  O  O22  1  0.84265600  0.83269800  0.58612700  1
  O  O23  1  0.82792600  0.58372500  0.58648300  1
  O  O24  1  0.25689900  0.90577900  0.18087000  1
  O  O25  1  0.25456400  0.18436800  0.91166500  1
  O  O26  1  0.25907000  0.90680400  0.91398300  1
  O  O27  1  0.75692600  0.08846700  0.81830800  1
  O  O28  1  0.76098200  0.82066600  0.08706000  1
  O  O29  1  0.75191600  0.09663700  0.08991900  1
loop_
_geom_bond_atom_site_label_1
_geom_bond_atom_site_label_2
_geom_bond_distance
_geom_bond_site_symmetry_2
Ba0 O19 2.761749 1_555
Ba0 O12 2.762346 1_555
Ba0 O20 2.800086 1_555
Ba0 O2 2.819728 1_545
Ba0 O10 2.898998 1_455
Ba0 O3 2.955649 1_555
Ba0 O6 3.063843 1_455
Ba0 O26 3.157819 1_545
Ba0 O25 3.179878 1_555
Ba0 O27 3.404581 1_555
Ba1 O13 2.733260 1_555
Ba1 O18 2.794415 1_555
Ba1 O20 2.797717 1_555
Ba1 O5 2.830427 1_554
Ba1 O0 2.884540 1_555
Ba1 O7 3.029713 1_455
Ba1 O26 3.058402 1_554
Ba1 O24 3.061936 1_555
Ba1 O9 3.073168 1_455
Ba2 O14 2.745939 1_555
Ba2 O19 2.804894 1_555
Ba2 O4 2.817308 1_545
Ba2 O18 2.819597 1_555
Ba2 O1 2.867796 1_554
Ba2 O8 2.907788 1_455
Ba2 O11 3.040129 1_455
Ba2 O25 3.057946 1_554
Ba2 O24 3.158888 1_545
Ba2 O29 3.295122 1_555
Ba3 O15 2.755605 1_655
Ba3 O23 2.805682 1_555
Ba3 O9 2.820383 1_555
Ba3 O22 2.839970 1_555
Ba3 O0 2.893010 1_555
Ba3 O8 2.966795 1_565
Ba3 O4 3.040224 1_555
Ba3 O28 3.113587 1_555
Ba3 O29 3.161703 1_565
Ba3 O24 3.411373 1_655
Ba4 O16 2.749488 1_655
Ba4 O6 2.808426 1_555
Ba4 O23 2.821826 1_555
Ba4 O21 2.842466 1_555
Ba4 O11 2.866966 1_556
Ba4 O3 2.908684 1_555
Ba4 O1 3.003535 1_555
Ba4 O29 3.049153 1_556
Ba4 O27 3.119109 1_555
Ba4 O25 3.309374 1_655
Ba5 O17 2.740887 1_655
Ba5 O22 2.785894 1_555
Ba5 O21 2.817736 1_555
Ba5 O7 2.831422 1_556
Ba5 O10 2.882808 1_565
Ba5 O5 3.038830 1_555
Ba5 O28 3.042731 1_556
Ba5 O27 3.055400 1_565
Ba5 O2 3.077739 1_555
Ba6 O19 2.701835 1_555
Ba6 O18 2.779269 1_555
Ba6 O20 2.783086 1_555
Ba6 O12 2.952678 1_455
Ba6 O13 2.973917 1_455
Ba6 O14 2.977841 1_455
Ba6 O11 3.141973 1_455
Ba6 O8 3.162319 1_455
Ba6 O9 3.174354 1_455
Ba6 O7 3.199297 1_455
Ba6 O6 3.210451 1_455
Ba6 O10 3.223261 1_455
Ba7 O23 2.762034 1_555
Ba7 O21 2.798542 1_555
Ba7 O22 2.884653 1_555
Ba7 O17 2.922717 1_555
Ba7 O15 2.943177 1_555
Ba7 O16 2.943618 1_555
Ba7 O1 3.152354 1_555
Ba7 O2 3.162809 1_555
Ba7 O5 3.166240 1_555
Ba7 O3 3.168807 1_555
Ba7 O4 3.219607 1_555
Ba7 O0 3.221225 1_555
Gd0 O1 2.304091 1_554
Gd0 O5 2.330554 1_554
Gd0 O21 2.386853 1_554
Gd0 O14 2.422400 1_555
Gd0 O13 2.516331 1_555
Gd0 O18 2.556146 1_555
Gd0 O11 2.582101 1_555
Gd0 O7 2.630882 1_555
Gd1 O0 2.337122 1_555
Gd1 O3 2.362653 1_555
Gd1 O12 2.422209 1_555
Gd1 O23 2.505718 1_555
Gd1 O9 2.505850 1_555
Gd1 O6 2.532252 1_555
Gd1 O13 2.537391 1_555
Gd1 O20 2.575939 1_555
Gd2 O11 2.324756 1_456
Gd2 O7 2.342654 1_456
Gd2 O18 2.389086 1_556
Gd2 O16 2.402499 1_555
Gd2 O17 2.500180 1_555
Gd2 O21 2.580885 1_455
Gd2 O1 2.613581 1_555
Gd2 O5 2.628785 1_555
Gd3 O10 2.344916 1_465
Gd3 O8 2.367649 1_465
Gd3 O19 2.454360 1_565
Gd3 O15 2.459144 1_555
Gd3 O2 2.498515 1_555
Gd3 O4 2.532787 1_555
Gd3 O22 2.563549 1_455
Gd3 O17 2.594223 1_555
Co0 O27 1.822286 1_555
Co0 O10 1.862269 1_555
Co0 O6 1.864045 1_555
Co0 O12 1.918292 1_555
Co1 O28 1.815305 1_555
Co1 O9 1.854664 1_555
Co1 O7 1.873631 1_555
Co1 O13 1.908749 1_555
Co2 O29 1.808170 1_555
Co2 O8 1.824134 1_555
Co2 O11 1.916713 1_555
Co2 O14 1.951043 1_555
Co3 O24 1.820165 1_555
Co3 O4 1.862644 1_555
Co3 O0 1.887932 1_555
Co3 O15 1.898929 1_555
Co4 O25 1.809922 1_555
Co4 O3 1.837175 1_555
Co4 O1 1.922618 1_555
Co4 O16 1.927548 1_555
Co5 O26 1.812260 1_555
Co5 O2 1.848102 1_555
Co5 O5 1.885869 1_555
Co5 O17 1.906578 1_555
Co6 O20 1.902544 1_555
Co6 O19 1.990915 1_555
Co6 O18 2.016470 1_555
Co6 O14 2.031736 1_555
Co6 O13 2.139799 1_555
Co6 O12 2.139952 1_555
Co7 O23 1.897940 1_555
Co7 O22 1.897962 1_555
Co7 O21 1.982668 1_555
Co7 O16 2.196177 1_655
Co7 O17 2.199587 1_655
Co7 O15 2.204357 1_655
O0 Sr3 2.707704 1_555
O2 Sr2 2.470548 1_565
O3 Sr3 2.696844 1_555
O4 Sr2 2.454043 1_565
O6 Sr3 2.453288 1_655
O8 Sr2 2.714451 1_555
O9 Sr3 2.472063 1_655
O10 Sr2 2.722555 1_555
O12 Sr2 2.597925 1_555
O14 Sr2 2.626269 1_555
O15 Sr3 2.609674 1_555
O16 Sr3 2.643287 1_555
O19 Sr2 2.628365 1_555
O20 Sr3 2.555321 1_555
O22 Sr2 2.512285 1_565
O23 Sr3 2.644931 1_655
O24 Sr1 2.466307 1_565
O24 Sr0 2.557537 1_555
O25 Sr1 2.498344 1_556
O25 Sr0 2.587054 1_546
O26 Sr1 2.459571 1_566
O26 Sr0 2.546803 1_556
O27 Sr0 2.480653 1_546
O27 Sr1 2.570272 1_656
O28 Sr0 2.472332 1_555
O28 Sr1 2.550177 1_665
O29 Sr0 2.507764 1_545
O29 Sr1 2.613038 1_655
