# generated using pymatgen
data_K2In2P3Se10
_symmetry_space_group_name_H-M   'P 1'
_cell_length_a   7.92294040
_cell_length_b   13.39369993
_cell_length_c   19.99312424
_cell_angle_alpha   73.24020868
_cell_angle_beta   90.00000000
_cell_angle_gamma   90.00000000
_symmetry_Int_Tables_number   1
_chemical_formula_structural   K2In2P3Se10
_chemical_formula_sum   'K8 In8 P12 Se40'
_cell_volume   2031.49811512
_cell_formula_units_Z   4
loop_
 _symmetry_equiv_pos_site_id
 _symmetry_equiv_pos_as_xyz
  1  'x, y, z'
loop_
 _atom_site_type_symbol
 _atom_site_label
 _atom_site_symmetry_multiplicity
 _atom_site_fract_x
 _atom_site_fract_y
 _atom_site_fract_z
 _atom_site_occupancy
  K  K0  1  0.05460978  0.32402549  0.08072300  1
  K  K1  1  0.55460978  0.17597451  0.91927700  1
  K  K2  1  0.94539022  0.67597451  0.91927700  1
  K  K3  1  0.44539022  0.82402549  0.08072300  1
  K  K4  1  0.85117350  0.40057731  0.42608344  1
  K  K5  1  0.35117350  0.09942269  0.57391656  1
  K  K6  1  0.14882650  0.59942269  0.57391656  1
  K  K7  1  0.64882650  0.90057731  0.42608344  1
  In  In0  1  0.52500492  0.46837685  0.17541459  1
  In  In1  1  0.02500492  0.03162315  0.82458541  1
  In  In2  1  0.47499508  0.53162315  0.82458541  1
  In  In3  1  0.97499508  0.96837685  0.17541459  1
  In  In4  1  0.64978282  0.40009659  0.68902660  1
  In  In5  1  0.14978282  0.09990341  0.31097340  1
  In  In6  1  0.35021718  0.59990341  0.31097340  1
  In  In7  1  0.85021718  0.90009659  0.68902660  1
  P  P0  1  0.61133261  0.44751327  0.02099754  1
  P  P1  1  0.11133261  0.05248673  0.97900246  1
  P  P2  1  0.38866739  0.55248673  0.97900246  1
  P  P3  1  0.88866739  0.94751327  0.02099754  1
  P  P4  1  0.55837724  0.22537061  0.33613197  1
  P  P5  1  0.05837724  0.27462939  0.66386803  1
  P  P6  1  0.44162276  0.77462939  0.66386803  1
  P  P7  1  0.94162276  0.72537061  0.33613197  1
  P  P8  1  0.82220593  0.18440223  0.65309171  1
  P  P9  1  0.32220593  0.31559777  0.34690829  1
  P  P10  1  0.17779407  0.81559777  0.34690829  1
  P  P11  1  0.67779407  0.68440223  0.65309171  1
  Se  Se0  1  0.77551352  0.53644658  0.07163878  1
  Se  Se1  1  0.27551352  0.96355342  0.92836122  1
  Se  Se2  1  0.22448648  0.46355342  0.92836122  1
  Se  Se3  1  0.72448648  0.03644658  0.07163878  1
  Se  Se4  1  0.22324068  0.08630115  0.06904139  1
  Se  Se5  1  0.72324068  0.41369885  0.93095861  1
  Se  Se6  1  0.77675932  0.91369885  0.93095861  1
  Se  Se7  1  0.27675932  0.58630115  0.06904139  1
  Se  Se8  1  0.51170151  0.31589074  0.10370597  1
  Se  Se9  1  0.01170151  0.18410926  0.89629403  1
  Se  Se10  1  0.48829849  0.68410926  0.89629403  1
  Se  Se11  1  0.98829849  0.81589074  0.10370597  1
  Se  Se12  1  0.92781589  0.13450340  0.21762884  1
  Se  Se13  1  0.42781589  0.36549660  0.78237116  1
  Se  Se14  1  0.07218411  0.86549660  0.78237116  1
  Se  Se15  1  0.57218411  0.63450340  0.21762884  1
  Se  Se16  1  0.22503311  0.39470858  0.24295607  1
  Se  Se17  1  0.72503311  0.10529142  0.75704393  1
  Se  Se18  1  0.77496689  0.60529142  0.75704393  1
  Se  Se19  1  0.27496689  0.89470858  0.24295607  1
  Se  Se20  1  0.73089035  0.34470227  0.27639645  1
  Se  Se21  1  0.23089035  0.15529773  0.72360355  1
  Se  Se22  1  0.26910965  0.65529773  0.72360355  1
  Se  Se23  1  0.76910965  0.84470227  0.27639645  1
  Se  Se24  1  0.65471213  0.15345344  0.43916282  1
  Se  Se25  1  0.15471213  0.34654656  0.56083718  1
  Se  Se26  1  0.34528787  0.84654656  0.56083718  1
  Se  Se27  1  0.84528787  0.65345344  0.43916282  1
  Se  Se28  1  0.89458097  0.08078542  0.58998217  1
  Se  Se29  1  0.39458097  0.41921458  0.41001783  1
  Se  Se30  1  0.10541903  0.91921458  0.41001783  1
  Se  Se31  1  0.60541903  0.58078542  0.58998217  1
  Se  Se32  1  0.63205610  0.29461411  0.59391053  1
  Se  Se33  1  0.13205610  0.20538589  0.40608947  1
  Se  Se34  1  0.36794390  0.70538589  0.40608947  1
  Se  Se35  1  0.86794390  0.79461411  0.59391053  1
  Se  Se36  1  0.97211937  0.38582479  0.72141721  1
  Se  Se37  1  0.47211937  0.11417521  0.27858279  1
  Se  Se38  1  0.02788063  0.61417521  0.27858279  1
  Se  Se39  1  0.52788063  0.88582479  0.72141721  1
loop_
_geom_bond_atom_site_label_1
_geom_bond_atom_site_label_2
_geom_bond_distance
_geom_bond_site_symmetry_2
K0 Se12 3.307222 1_455
K0 Se2 3.361558 1_554
K0 Se4 3.522266 1_555
K0 Se0 3.566410 1_455
K0 Se8 3.648216 1_555
K0 Se16 3.874398 1_555
K0 Se7 3.875476 1_555
K0 Se5 3.902165 1_454
K1 Se13 3.307222 1_555
K1 Se3 3.361558 1_556
K1 Se5 3.522266 1_555
K1 Se1 3.566410 1_545
K1 Se9 3.648216 1_655
K1 Se17 3.874398 1_555
K1 Se6 3.875476 1_545
K1 Se4 3.902165 1_556
K2 Se14 3.307222 1_655
K2 Se0 3.361558 1_556
K2 Se6 3.522266 1_555
K2 Se2 3.566410 1_655
K2 Se10 3.648216 1_555
K2 Se18 3.874398 1_555
K2 Se5 3.875476 1_555
K2 Se7 3.902165 1_656
K3 Se15 3.307222 1_555
K3 Se1 3.361558 1_554
K3 Se7 3.522266 1_555
K3 Se3 3.566410 1_565
K3 Se11 3.648216 1_455
K3 Se19 3.874398 1_555
K3 Se4 3.875476 1_565
K3 Se6 3.902165 1_554
K4 Se20 3.422899 1_555
K4 Se27 3.471708 1_555
K4 Se25 3.527230 1_655
K4 Se33 3.542559 1_655
K4 Se24 3.598267 1_555
K4 Se29 3.633999 1_555
K4 Se32 3.679722 1_555
K4 Se38 3.738403 1_655
K5 Se21 3.422899 1_555
K5 Se26 3.471708 1_545
K5 Se24 3.527230 1_555
K5 Se32 3.542559 1_555
K5 Se25 3.598267 1_555
K5 Se28 3.633999 1_455
K5 Se33 3.679722 1_555
K5 Se39 3.738403 1_545
K6 Se22 3.422899 1_555
K6 Se25 3.471708 1_555
K6 Se27 3.527230 1_455
K6 Se35 3.542559 1_455
K6 Se26 3.598267 1_555
K6 Se31 3.633999 1_555
K6 Se34 3.679722 1_555
K6 Se36 3.738403 1_455
K7 Se23 3.422899 1_555
K7 Se24 3.471708 1_565
K7 Se26 3.527230 1_555
K7 Se34 3.542559 1_555
K7 Se27 3.598267 1_555
K7 Se30 3.633999 1_655
K7 Se35 3.679722 1_555
K7 Se37 3.738403 1_565
In0 Se15 2.624107 1_555
In0 Se20 2.748116 1_555
In0 Se16 2.770764 1_555
In0 Se8 2.815392 1_555
In0 Se0 2.825664 1_555
In0 Se7 2.991461 1_555
In1 Se14 2.624107 1_545
In1 Se21 2.748116 1_555
In1 Se17 2.770764 1_455
In1 Se9 2.815392 1_555
In1 Se1 2.825664 1_545
In1 Se6 2.991461 1_445
In2 Se13 2.624107 1_555
In2 Se22 2.748116 1_555
In2 Se18 2.770764 1_555
In2 Se10 2.815392 1_555
In2 Se2 2.825664 1_555
In2 Se5 2.991461 1_555
In3 Se12 2.624107 1_565
In3 Se23 2.748116 1_555
In3 Se19 2.770764 1_655
In3 Se11 2.815392 1_555
In3 Se3 2.825664 1_565
In3 Se4 2.991461 1_665
In4 Se13 2.508315 1_555
In4 Se36 2.628058 1_555
In4 Se31 2.671668 1_555
In4 Se32 2.679838 1_555
In5 Se12 2.508315 1_455
In5 Se37 2.628058 1_555
In5 Se30 2.671668 1_545
In5 Se33 2.679838 1_555
In6 Se15 2.508315 1_555
In6 Se38 2.628058 1_555
In6 Se29 2.671668 1_555
In6 Se34 2.679838 1_555
In7 Se14 2.508315 1_655
In7 Se39 2.628058 1_555
In7 Se28 2.671668 1_565
In7 Se35 2.679838 1_555
P0 Se5 2.168414 1_554
P0 Se8 2.187266 1_555
P0 Se0 2.198075 1_555
P0 P2 2.261239 1_554
P1 Se4 2.168414 1_556
P1 Se9 2.187266 1_555
P1 Se1 2.198075 1_545
P1 P3 2.261239 1_446
P2 Se7 2.168414 1_556
P2 Se10 2.187266 1_555
P2 Se2 2.198075 1_555
P3 Se6 2.168414 1_554
P3 Se11 2.187266 1_555
P3 Se3 2.198075 1_565
P4 Se24 2.146926 1_555
P4 Se20 2.179036 1_555
P4 Se37 2.235451 1_555
P4 P9 2.271183 1_555
P5 Se25 2.146926 1_555
P5 Se21 2.179036 1_555
P5 Se36 2.235451 1_455
P5 P8 2.271183 1_455
P6 Se26 2.146926 1_555
P6 Se22 2.179036 1_555
P6 Se39 2.235451 1_555
P7 Se27 2.146926 1_555
P7 Se23 2.179036 1_555
P7 Se38 2.235451 1_655
P8 Se17 2.182861 1_555
P8 Se32 2.200315 1_555
P8 Se28 2.203804 1_555
P9 Se16 2.182861 1_555
P9 Se33 2.200315 1_555
P9 Se29 2.203804 1_555
P10 Se19 2.182861 1_555
P10 Se34 2.200315 1_555
P10 Se30 2.203804 1_555
P10 P7 2.271183 1_455
P11 Se18 2.182861 1_555
P11 Se35 2.200315 1_555
P11 Se31 2.203804 1_555
P11 P6 2.271183 1_555
