# generated using pymatgen
data_AgMo6(SeS)4
_symmetry_space_group_name_H-M   'P 1'
_cell_length_a   6.62352600
_cell_length_b   6.67557556
_cell_length_c   6.70480457
_cell_angle_alpha   91.03378829
_cell_angle_beta   91.71679618
_cell_angle_gamma   91.17452301
_symmetry_Int_Tables_number   1
_chemical_formula_structural   AgMo6(SeS)4
_chemical_formula_sum   'Ag1 Mo6 Se4 S4'
_cell_volume   296.21165875
_cell_formula_units_Z   1
loop_
 _symmetry_equiv_pos_site_id
 _symmetry_equiv_pos_as_xyz
  1  'x, y, z'
loop_
 _atom_site_type_symbol
 _atom_site_label
 _atom_site_symmetry_multiplicity
 _atom_site_fract_x
 _atom_site_fract_y
 _atom_site_fract_z
 _atom_site_occupancy
  Ag  Ag0  1  0.99945100  0.00001300  0.99840500  1
  Mo  Mo0  1  0.55917700  0.22775200  0.41317000  1
  Mo  Mo1  1  0.41181900  0.55214900  0.22986400  1
  Mo  Mo2  1  0.21634700  0.40440200  0.55827300  1
  Mo  Mo3  1  0.44367200  0.77747100  0.58758100  1
  Mo  Mo4  1  0.58840700  0.44307300  0.77623300  1
  Mo  Mo5  1  0.78667100  0.58713800  0.44496100  1
  Se  Se0  1  0.62706100  0.87577900  0.25438700  1
  Se  Se1  1  0.25184700  0.62251600  0.87639600  1
  Se  Se2  1  0.21821900  0.21883400  0.22557500  1
  Se  Se3  1  0.78011900  0.77715800  0.77473100  1
  S  S0  1  0.13371300  0.71964200  0.39093000  1
  S  S1  1  0.38877700  0.13086200  0.72174000  1
  S  S2  1  0.72592600  0.38867700  0.13306800  1
  S  S3  1  0.86879400  0.27453400  0.61468500  1
loop_
_geom_bond_atom_site_label_1
_geom_bond_atom_site_label_2
_geom_bond_distance
_geom_bond_site_symmetry_2
Ag0 Se2 2.500816 1_656
Ag0 Se3 2.504619 1_545
Ag0 Se0 3.152533 1_546
Ag0 Se1 3.161434 1_645
Mo0 S3 2.433341 1_555
Mo0 S2 2.459539 1_555
Mo0 S1 2.476049 1_555
Mo0 Se2 2.550937 1_555
Mo0 Se0 2.614960 1_545
Mo1 S0 2.443271 1_555
Mo1 S2 2.467581 1_555
Mo1 Se2 2.544524 1_555
Mo1 Se0 2.563945 1_555
Mo1 Se1 2.621080 1_554
Mo2 S1 2.433670 1_555
Mo2 S0 2.466296 1_555
Mo2 S3 2.485189 1_455
Mo2 Se2 2.532430 1_555
Mo2 Se1 2.562941 1_555
Mo3 S0 2.426795 1_555
Mo3 Se3 2.524546 1_555
Mo3 S1 2.546529 1_565
Mo3 Se1 2.569043 1_555
Mo3 Se0 2.660772 1_555
Mo4 S3 2.459730 1_555
Mo4 S1 2.460952 1_555
Mo4 Se3 2.543980 1_555
Mo4 S2 2.569038 1_556
Mo4 Se1 2.650563 1_555
Mo5 S3 2.457796 1_555
Mo5 S2 2.473437 1_555
Mo5 S0 2.485057 1_655
Mo5 Se3 2.531101 1_555
Mo5 Se0 2.560165 1_555
