# generated using pymatgen
data_MgWF4
_symmetry_space_group_name_H-M   'P 1'
_cell_length_a   6.81127697
_cell_length_b   6.81127697
_cell_length_c   6.81127697
_cell_angle_alpha   136.50083937
_cell_angle_beta   127.58366136
_cell_angle_gamma   70.40899544
_symmetry_Int_Tables_number   1
_chemical_formula_structural   MgWF4
_chemical_formula_sum   'Mg2 W2 F8'
_cell_volume   169.01703600
_cell_formula_units_Z   2
loop_
 _symmetry_equiv_pos_site_id
 _symmetry_equiv_pos_as_xyz
  1  'x, y, z'
loop_
 _atom_site_type_symbol
 _atom_site_label
 _atom_site_symmetry_multiplicity
 _atom_site_fract_x
 _atom_site_fract_y
 _atom_site_fract_z
 _atom_site_occupancy
  Mg  Mg0  1  0.25000000  0.75000000  0.50000000  1
  Mg  Mg1  1  0.75000000  0.25000000  0.50000000  1
  W  W0  1  0.50000000  0.50000000  0.00000000  1
  W  W1  1  0.00000000  0.00000000  0.00000000  1
  F  F0  1  0.50561300  0.39920100  0.62123300  1
  F  F1  1  0.22203100  0.11562000  0.62123300  1
  F  F2  1  0.49438700  0.60079900  0.37876700  1
  F  F3  1  0.99438700  0.61562000  0.89358900  1
  F  F4  1  0.77796900  0.88438000  0.37876700  1
  F  F5  1  0.27796900  0.89920100  0.89358900  1
  F  F6  1  0.00561300  0.38438000  0.10641100  1
  F  F7  1  0.72203100  0.10079900  0.10641100  1
loop_
_geom_bond_atom_site_label_1
_geom_bond_atom_site_label_2
_geom_bond_distance
_geom_bond_site_symmetry_2
F0 Mg1 1.952006 1_555
F0 W0 2.159089 1_556
F1 Mg0 1.952005 1_545
F1 W0 2.159092 1_556
F2 Mg0 1.952006 1_555
F2 W0 2.159089 1_555
F3 Mg1 1.952005 1_555
F3 W1 2.159092 1_666
F4 Mg1 1.952005 1_565
F4 W0 2.159092 1_555
F5 Mg0 1.952008 1_555
F5 W1 2.159091 1_566
F6 Mg0 1.952005 1_555
F6 W1 2.159092 1_555
F7 Mg1 1.952008 1_555
F7 W1 2.159091 1_655
