# generated using pymatgen
data_Dy2NiAs2
_symmetry_space_group_name_H-M   'P 1'
_cell_length_a   4.07463601
_cell_length_b   4.07463601
_cell_length_c   14.22498609
_cell_angle_alpha   90.00000000
_cell_angle_beta   90.00000000
_cell_angle_gamma   120.00000081
_symmetry_Int_Tables_number   1
_chemical_formula_structural   Dy2NiAs2
_chemical_formula_sum   'Dy4 Ni2 As4'
_cell_volume   204.53145906
_cell_formula_units_Z   2
loop_
 _symmetry_equiv_pos_site_id
 _symmetry_equiv_pos_as_xyz
  1  'x, y, z'
loop_
 _atom_site_type_symbol
 _atom_site_label
 _atom_site_symmetry_multiplicity
 _atom_site_fract_x
 _atom_site_fract_y
 _atom_site_fract_z
 _atom_site_occupancy
  Dy  Dy0  1  0.33333300  0.66666700  0.38247369  1
  Dy  Dy1  1  0.66666700  0.33333300  0.61752631  1
  Dy  Dy2  1  0.66666700  0.33333300  0.88247369  1
  Dy  Dy3  1  0.33333300  0.66666700  0.11752631  1
  Ni  Ni0  1  -0.00000000  -0.00000000  0.25000000  1
  Ni  Ni1  1  -0.00000000  0.00000000  0.75000000  1
  As  As0  1  0.00000000  -0.00000000  0.50000000  1
  As  As1  1  0.00000000  -0.00000000  0.00000000  1
  As  As2  1  0.33333300  0.66666700  0.75000000  1
  As  As3  1  0.66666700  0.33333300  0.25000000  1
loop_
_geom_bond_atom_site_label_1
_geom_bond_atom_site_label_2
_geom_bond_distance
_geom_bond_site_symmetry_2
Dy0 Ni0 3.014185 1_565
Dy0 Ni0 3.014187 1_665
Dy0 Ni0 3.014187 1_555
Dy1 Ni1 3.014185 1_655
Dy1 Ni1 3.014187 1_555
Dy1 Ni1 3.014187 1_665
Dy2 Ni1 3.014185 1_655
Dy2 Ni1 3.014187 1_555
Dy2 Ni1 3.014187 1_665
Dy3 Ni0 3.014185 1_565
Dy3 Ni0 3.014187 1_665
Dy3 Ni0 3.014187 1_555
As0 Dy0 2.886028 1_545
As0 Dy1 2.886028 1_455
As0 Dy0 2.886031 1_445
As0 Dy0 2.886031 1_555
As0 Dy1 2.886031 1_445
As0 Dy1 2.886031 1_555
As1 Dy3 2.886028 1_545
As1 Dy2 2.886028 1_454
As1 Dy3 2.886031 1_555
As1 Dy3 2.886031 1_445
As1 Dy2 2.886031 1_554
As1 Dy2 2.886031 1_444
As2 Ni1 2.352490 1_565
As2 Ni1 2.352493 1_665
As2 Ni1 2.352493 1_555
As2 Dy2 3.014185 1_455
As2 Dy1 3.014185 1_455
As2 Dy2 3.014185 1_565
As2 Dy1 3.014185 1_565
As2 Dy2 3.014190 1_555
As2 Dy1 3.014190 1_555
As3 Ni0 2.352490 1_655
As3 Ni0 2.352493 1_665
As3 Ni0 2.352493 1_555
As3 Dy3 3.014185 1_655
As3 Dy3 3.014185 1_545
As3 Dy0 3.014185 1_545
As3 Dy0 3.014185 1_655
As3 Dy3 3.014190 1_555
As3 Dy0 3.014190 1_555
