# generated using pymatgen
data_HfMnN2
_symmetry_space_group_name_H-M   'P 1'
_cell_length_a   3.15330377
_cell_length_b   4.92747595
_cell_length_c   13.73961297
_cell_angle_alpha   21.69992503
_cell_angle_beta   90.04334892
_cell_angle_gamma   71.35256614
_symmetry_Int_Tables_number   1
_chemical_formula_structural   HfMnN2
_chemical_formula_sum   'Hf1 Mn1 N2'
_cell_volume   39.37923778
_cell_formula_units_Z   1
loop_
 _symmetry_equiv_pos_site_id
 _symmetry_equiv_pos_as_xyz
  1  'x, y, z'
loop_
 _atom_site_type_symbol
 _atom_site_label
 _atom_site_symmetry_multiplicity
 _atom_site_fract_x
 _atom_site_fract_y
 _atom_site_fract_z
 _atom_site_occupancy
  Hf  Hf0  1  0.00000000  0.99997600  0.49999900  1
  Mn  Mn0  1  0.00000000  0.99997400  0.99999600  1
  N  N0  1  0.00000000  0.00013000  0.25666500  1
  N  N1  1  0.00000000  0.99981900  0.74333900  1
loop_
_geom_bond_atom_site_label_1
_geom_bond_atom_site_label_2
_geom_bond_distance
_geom_bond_site_symmetry_2
Hf0 N1 2.199245 1_474
Hf0 N1 2.199246 1_645
Hf0 N0 2.199286 1_646
Hf0 N0 2.199287 1_475
Hf0 N1 2.201617 1_545
Hf0 N0 2.201651 1_575
Mn0 N0 2.101141 1_485
Mn0 N0 2.101142 1_656
Mn0 N1 2.101226 1_636
Mn0 N1 2.101227 1_465
Mn0 N0 2.103093 1_556
Mn0 N1 2.103179 1_565
