# generated using pymatgen
data_K(CrS2)2
_symmetry_space_group_name_H-M   'P 1'
_cell_length_a   7.63412846
_cell_length_b   7.63412846
_cell_length_c   7.63412846
_cell_angle_alpha   60.00000000
_cell_angle_beta   60.00000000
_cell_angle_gamma   60.00000000
_symmetry_Int_Tables_number   1
_chemical_formula_structural   K(CrS2)2
_chemical_formula_sum   'K2 Cr4 S8'
_cell_volume   314.60338584
_cell_formula_units_Z   2
loop_
 _symmetry_equiv_pos_site_id
 _symmetry_equiv_pos_as_xyz
  1  'x, y, z'
loop_
 _atom_site_type_symbol
 _atom_site_label
 _atom_site_symmetry_multiplicity
 _atom_site_fract_x
 _atom_site_fract_y
 _atom_site_fract_z
 _atom_site_occupancy
  K  K0  1  0.00000000  0.00000000  0.00000000  1
  K  K1  1  0.25000000  0.25000000  0.25000000  1
  Cr  Cr0  1  0.62500000  0.62500000  0.62500000  1
  Cr  Cr1  1  0.12500000  0.62500000  0.62500000  1
  Cr  Cr2  1  0.62500000  0.12500000  0.62500000  1
  Cr  Cr3  1  0.62500000  0.62500000  0.12500000  1
  S  S0  1  0.84900300  0.84900300  0.84900300  1
  S  S1  1  0.79700800  0.40099700  0.40099700  1
  S  S2  1  0.40099700  0.40099700  0.79700800  1
  S  S3  1  0.40099700  0.79700800  0.40099700  1
  S  S4  1  0.84900300  0.84900300  0.45299200  1
  S  S5  1  0.84900300  0.45299200  0.84900300  1
  S  S6  1  0.40099700  0.40099700  0.40099700  1
  S  S7  1  0.45299200  0.84900300  0.84900300  1
loop_
_geom_bond_atom_site_label_1
_geom_bond_atom_site_label_2
_geom_bond_distance
_geom_bond_site_symmetry_2
K0 S0 2.823602 1_444
K0 S7 2.823608 1_544
K0 S5 2.823608 1_454
K0 S4 2.823608 1_445
K1 S6 2.823602 1_555
K1 S3 2.823608 1_545
K1 S1 2.823608 1_455
K1 S2 2.823608 1_554
Cr0 S7 2.450759 1_555
Cr0 S4 2.450759 1_555
Cr0 S5 2.450759 1_555
Cr0 S1 2.450759 1_555
Cr0 S3 2.450759 1_555
Cr0 S2 2.450759 1_555
Cr1 S3 2.450753 1_555
Cr1 S2 2.450753 1_555
Cr1 S5 2.450753 1_455
Cr1 S4 2.450753 1_455
Cr1 S0 2.450758 1_455
Cr1 S6 2.450758 1_555
Cr2 S1 2.450753 1_555
Cr2 S2 2.450753 1_555
Cr2 S7 2.450753 1_545
Cr2 S4 2.450753 1_545
Cr2 S0 2.450758 1_545
Cr2 S6 2.450758 1_555
Cr3 S1 2.450753 1_555
Cr3 S3 2.450753 1_555
Cr3 S5 2.450753 1_554
Cr3 S7 2.450753 1_554
Cr3 S0 2.450758 1_554
Cr3 S6 2.450758 1_555
