# generated using pymatgen
data_C11N4
_symmetry_space_group_name_H-M   'P 1'
_cell_length_a   3.49231812
_cell_length_b   3.58351356
_cell_length_c   7.31316970
_cell_angle_alpha   90.00000000
_cell_angle_beta   90.00000000
_cell_angle_gamma   90.00000000
_symmetry_Int_Tables_number   1
_chemical_formula_structural   C11N4
_chemical_formula_sum   'C11 N4'
_cell_volume   91.52263193
_cell_formula_units_Z   1
loop_
 _symmetry_equiv_pos_site_id
 _symmetry_equiv_pos_as_xyz
  1  'x, y, z'
loop_
 _atom_site_type_symbol
 _atom_site_label
 _atom_site_symmetry_multiplicity
 _atom_site_fract_x
 _atom_site_fract_y
 _atom_site_fract_z
 _atom_site_occupancy
  C  C0  1  0.50000000  0.50000000  0.74492428  1
  C  C1  1  0.50000000  0.50000000  0.25507572  1
  C  C2  1  0.00000000  0.50000000  0.50000000  1
  C  C3  1  0.00000000  -0.00000000  0.72141317  1
  C  C4  1  0.00000000  -0.00000000  0.27858683  1
  C  C5  1  0.76922193  0.23539655  0.86024067  1
  C  C6  1  0.23077807  0.76460345  0.86024067  1
  C  C7  1  0.76922193  0.76460345  0.13975933  1
  C  C8  1  0.23077807  0.23539655  0.13975933  1
  C  C9  1  0.00000000  0.50000000  0.00000000  1
  C  C10  1  0.00000000  -0.00000000  0.00000000  1
  N  N0  1  0.24459827  0.26675961  0.61873479  1
  N  N1  1  0.75540173  0.73324039  0.61873479  1
  N  N2  1  0.24459827  0.73324039  0.38126521  1
  N  N3  1  0.75540173  0.26675961  0.38126521  1
loop_
_geom_bond_atom_site_label_1
_geom_bond_atom_site_label_2
_geom_bond_distance
_geom_bond_site_symmetry_2
C0 N0 1.531601 1_555
C0 N1 1.531601 1_555
C0 C6 1.579334 1_555
C0 C5 1.579334 1_555
C1 N3 1.531601 1_555
C1 N2 1.531601 1_555
C1 C8 1.579334 1_555
C1 C7 1.579334 1_555
C2 N3 1.477251 1_455
C2 N0 1.477251 1_555
C2 N1 1.477251 1_455
C2 N2 1.477251 1_555
C3 N0 1.485717 1_555
C3 N1 1.485717 1_445
C3 C5 1.546576 1_455
C3 C6 1.546576 1_545
C4 N3 1.485717 1_455
C4 N2 1.485717 1_545
C4 C7 1.546576 1_445
C4 C8 1.546576 1_555
C5 C9 1.610377 1_656
C6 C9 1.610377 1_556
C7 C9 1.610377 1_655
C8 C9 1.610377 1_555
C10 C5 1.551058 1_454
C10 C7 1.551058 1_445
C10 C6 1.551058 1_544
C10 C8 1.551058 1_555
C10 C9 1.791757 1_545
C10 C9 1.791757 1_555
