# generated using pymatgen
data_DySbPt
_symmetry_space_group_name_H-M   'P 1'
_cell_length_a   4.64613899
_cell_length_b   4.64613964
_cell_length_c   4.64613966
_cell_angle_alpha   59.99999989
_cell_angle_beta   59.99999522
_cell_angle_gamma   59.99999733
_symmetry_Int_Tables_number   1
_chemical_formula_structural   DySbPt
_chemical_formula_sum   'Dy1 Sb1 Pt1'
_cell_volume   70.91885153
_cell_formula_units_Z   1
loop_
 _symmetry_equiv_pos_site_id
 _symmetry_equiv_pos_as_xyz
  1  'x, y, z'
loop_
 _atom_site_type_symbol
 _atom_site_label
 _atom_site_symmetry_multiplicity
 _atom_site_fract_x
 _atom_site_fract_y
 _atom_site_fract_z
 _atom_site_occupancy
  Dy  Dy0  1  0.50000000  0.50000000  0.50000000  1
  Sb  Sb0  1  0.00000000  -0.00000000  0.00000000  1
  Pt  Pt0  1  0.25000000  0.25000000  0.25000000  1
loop_
_geom_bond_atom_site_label_1
_geom_bond_atom_site_label_2
_geom_bond_distance
_geom_bond_site_symmetry_2
Dy0 Pt0 2.845167 1_655
Dy0 Pt0 2.845168 1_555
Dy0 Pt0 2.845168 1_556
Dy0 Pt0 2.845168 1_565
Dy0 Sb0 3.285317 1_665
Dy0 Sb0 3.285317 1_556
Dy0 Sb0 3.285317 1_565
Dy0 Sb0 3.285317 1_656
Dy0 Sb0 3.285317 1_655
Dy0 Sb0 3.285317 1_566
Pt0 Sb0 2.845167 1_655
Pt0 Sb0 2.845168 1_555
Pt0 Sb0 2.845168 1_556
Pt0 Sb0 2.845168 1_565
