# generated using pymatgen
data_B2RuW
_symmetry_space_group_name_H-M   'P 1'
_cell_length_a   2.99468100
_cell_length_b   4.55937300
_cell_length_c   6.02511800
_cell_angle_alpha   90.00000000
_cell_angle_beta   90.00000000
_cell_angle_gamma   90.00000000
_symmetry_Int_Tables_number   1
_chemical_formula_structural   B2RuW
_chemical_formula_sum   'B4 Ru2 W2'
_cell_volume   82.26616402
_cell_formula_units_Z   2
loop_
 _symmetry_equiv_pos_site_id
 _symmetry_equiv_pos_as_xyz
  1  'x, y, z'
loop_
 _atom_site_type_symbol
 _atom_site_label
 _atom_site_symmetry_multiplicity
 _atom_site_fract_x
 _atom_site_fract_y
 _atom_site_fract_z
 _atom_site_occupancy
  B  B0  1  0.00000000  0.66539600  0.52719200  1
  B  B1  1  0.00000000  0.33460400  0.02719200  1
  B  B2  1  0.50000000  0.86713400  0.47050600  1
  B  B3  1  0.50000000  0.13286600  0.97050600  1
  Ru  Ru0  1  0.00000000  0.12774300  0.68063000  1
  Ru  Ru1  1  0.00000000  0.87225700  0.18063000  1
  W  W0  1  0.50000000  0.37868500  0.32167100  1
  W  W1  1  0.50000000  0.62131500  0.82167100  1
loop_
_geom_bond_atom_site_label_1
_geom_bond_atom_site_label_2
_geom_bond_distance
_geom_bond_site_symmetry_2
B0 B2 1.790170 1_455
B0 B2 1.790170 1_555
B0 Ru1 2.291203 1_555
B0 Ru0 2.301822 1_565
B0 W1 2.330334 1_455
B0 W1 2.330334 1_555
B0 W0 2.341840 1_455
B0 W0 2.341840 1_555
B0 Ru0 2.619892 1_555
B1 B3 1.790170 1_454
B1 B3 1.790170 1_554
B1 Ru0 2.291203 1_554
B1 Ru1 2.301822 1_545
B1 W0 2.330334 1_555
B1 W0 2.330334 1_455
B1 W1 2.341840 1_554
B1 W1 2.341840 1_454
B1 Ru1 2.619892 1_555
B2 Ru0 2.292748 1_565
B2 Ru0 2.292748 1_665
B2 Ru1 2.300645 1_655
B2 Ru1 2.300645 1_555
B2 W1 2.394327 1_555
B2 W0 2.400788 1_555
B2 W0 2.498804 1_565
B3 Ru1 2.292748 1_546
B3 Ru1 2.292748 1_646
B3 Ru0 2.300645 1_555
B3 Ru0 2.300645 1_655
B3 W0 2.394327 1_556
B3 W1 2.400788 1_555
B3 W1 2.498804 1_545
