# generated using pymatgen
data_MgTiNiP2O9
_symmetry_space_group_name_H-M   'P 1'
_cell_length_a   6.30816600
_cell_length_b   7.33307800
_cell_length_c   14.22579300
_cell_angle_alpha   90.00000000
_cell_angle_beta   90.00000000
_cell_angle_gamma   90.00000000
_symmetry_Int_Tables_number   1
_chemical_formula_structural   MgTiNiP2O9
_chemical_formula_sum   'Mg4 Ti4 Ni4 P8 O36'
_cell_volume   658.06062072
_cell_formula_units_Z   4
loop_
 _symmetry_equiv_pos_site_id
 _symmetry_equiv_pos_as_xyz
  1  'x, y, z'
loop_
 _atom_site_type_symbol
 _atom_site_label
 _atom_site_symmetry_multiplicity
 _atom_site_fract_x
 _atom_site_fract_y
 _atom_site_fract_z
 _atom_site_occupancy
  Mg  Mg0  1  0.75000000  0.88882900  0.77794600  1
  Mg  Mg1  1  0.75000000  0.61117100  0.27794600  1
  Mg  Mg2  1  0.25000000  0.11117100  0.22205400  1
  Mg  Mg3  1  0.25000000  0.38882900  0.72205400  1
  Ti  Ti0  1  0.75000000  0.34728700  0.88374700  1
  Ti  Ti1  1  0.25000000  0.65271300  0.11625300  1
  Ti  Ti2  1  0.25000000  0.84728700  0.61625300  1
  Ti  Ti3  1  0.75000000  0.15271300  0.38374700  1
  Ni  Ni0  1  0.50000000  0.00000000  0.00000000  1
  Ni  Ni1  1  0.50000000  0.50000000  0.50000000  1
  Ni  Ni2  1  0.00000000  0.50000000  0.50000000  1
  Ni  Ni3  1  0.00000000  0.00000000  0.00000000  1
  P  P0  1  0.25000000  0.35539000  0.93025000  1
  P  P1  1  0.75000000  0.64461000  0.06975000  1
  P  P2  1  0.75000000  0.85539000  0.56975000  1
  P  P3  1  0.25000000  0.14461000  0.43025000  1
  P  P4  1  0.75000000  0.39073200  0.69572300  1
  P  P5  1  0.25000000  0.60926800  0.30427700  1
  P  P6  1  0.25000000  0.89073200  0.80427700  1
  P  P7  1  0.75000000  0.10926800  0.19572300  1
  O  O0  1  0.03851900  0.60944800  0.36068900  1
  O  O1  1  0.53851900  0.39055200  0.63931100  1
  O  O2  1  0.96148100  0.10944800  0.13931100  1
  O  O3  1  0.46148100  0.89055200  0.86068900  1
  O  O4  1  0.96148100  0.39055200  0.63931100  1
  O  O5  1  0.46148100  0.60944800  0.36068900  1
  O  O6  1  0.03851900  0.89055200  0.86068900  1
  O  O7  1  0.53851900  0.10944800  0.13931100  1
  O  O8  1  0.25000000  0.33250600  0.47648500  1
  O  O9  1  0.75000000  0.66749400  0.52351500  1
  O  O10  1  0.75000000  0.83250600  0.02351500  1
  O  O11  1  0.25000000  0.16749400  0.97648500  1
  O  O12  1  0.75000000  0.14285000  0.94616900  1
  O  O13  1  0.25000000  0.85715000  0.05383100  1
  O  O14  1  0.25000000  0.64285000  0.55383100  1
  O  O15  1  0.75000000  0.35715000  0.44616900  1
  O  O16  1  0.75000000  0.21264400  0.75933000  1
  O  O17  1  0.25000000  0.78735600  0.24067000  1
  O  O18  1  0.25000000  0.71264400  0.74067000  1
  O  O19  1  0.75000000  0.28735600  0.25933000  1
  O  O20  1  0.43846600  0.12206200  0.36095400  1
  O  O21  1  0.93846600  0.87793800  0.63904600  1
  O  O22  1  0.56153400  0.62206200  0.13904600  1
  O  O23  1  0.06153400  0.37793800  0.86095400  1
  O  O24  1  0.56153400  0.87793800  0.63904600  1
  O  O25  1  0.06153400  0.12206200  0.36095400  1
  O  O26  1  0.43846600  0.37793800  0.86095400  1
  O  O27  1  0.93846600  0.62206200  0.13904600  1
  O  O28  1  0.75000000  0.94995100  0.26869600  1
  O  O29  1  0.25000000  0.05004900  0.73130400  1
  O  O30  1  0.25000000  0.44995200  0.23130400  1
  O  O31  1  0.75000000  0.55004900  0.76869600  1
  O  O32  1  0.75000000  0.99986000  0.49280400  1
  O  O33  1  0.25000000  0.00014000  0.50719600  1
  O  O34  1  0.25000000  0.49986000  0.00719600  1
  O  O35  1  0.75000000  0.50014000  0.99280400  1
loop_
_geom_bond_atom_site_label_1
_geom_bond_atom_site_label_2
_geom_bond_distance
_geom_bond_site_symmetry_2
Mg0 O6 2.167529 1_655
Mg0 O3 2.167529 1_555
Mg0 O21 2.307429 1_555
Mg0 O24 2.307429 1_555
Mg0 O16 2.389283 1_565
Mg0 O31 2.487783 1_555
Mg1 O0 2.167529 1_655
Mg1 O5 2.167529 1_555
Mg1 O27 2.307429 1_555
Mg1 O22 2.307429 1_555
Mg1 O19 2.389283 1_555
Mg1 O28 2.487783 1_555
Mg2 O7 2.167529 1_555
Mg2 O2 2.167529 1_455
Mg2 O20 2.307429 1_555
Mg2 O25 2.307429 1_555
Mg2 O17 2.389283 1_545
Mg2 O30 2.487790 1_555
Mg3 O1 2.167529 1_555
Mg3 O4 2.167529 1_455
Mg3 O26 2.307429 1_555
Mg3 O23 2.307429 1_555
Mg3 O18 2.389283 1_555
Mg3 O29 2.487783 1_555
Ni0 O10 2.026710 1_545
Ni0 O11 2.026710 1_554
Ni0 O13 2.042257 1_545
Ni0 O12 2.042257 1_554
Ni0 O7 2.151921 1_555
Ni0 O3 2.151921 1_544
Ni1 O9 2.026710 1_555
Ni1 O8 2.026710 1_555
Ni1 O14 2.042257 1_555
Ni1 O15 2.042257 1_555
Ni1 O5 2.151921 1_555
Ni1 O1 2.151921 1_555
Ni2 O9 2.026710 1_455
Ni2 O8 2.026710 1_555
Ni2 O14 2.042257 1_555
Ni2 O15 2.042257 1_455
Ni2 O0 2.151921 1_555
Ni2 O4 2.151921 1_455
Ni3 O10 2.026710 1_445
Ni3 O11 2.026710 1_554
Ni3 O13 2.042257 1_545
Ni3 O12 2.042257 1_454
Ni3 O2 2.151921 1_455
Ni3 O6 2.151921 1_544
O0 P5 1.556832 1_555
O1 P4 1.556832 1_555
O2 P7 1.556832 1_555
O3 P6 1.556832 1_555
O4 P4 1.556832 1_555
O5 P5 1.556832 1_555
O6 P6 1.556832 1_555
O7 P7 1.556832 1_555
O8 P3 1.526793 1_555
O9 P2 1.526793 1_555
O10 P1 1.526793 1_555
O11 P0 1.526793 1_555
O12 Ti0 1.742414 1_555
O13 Ti1 1.742414 1_555
O14 Ti2 1.742414 1_555
O15 Ti3 1.742414 1_555
O16 P4 1.588784 1_555
O16 Ti0 2.026699 1_555
O17 P5 1.588784 1_555
O17 Ti1 2.026699 1_555
O18 P6 1.588784 1_555
O18 Ti2 2.026699 1_555
O19 P7 1.588784 1_555
O19 Ti3 2.026699 1_555
O20 P3 1.553237 1_555
O20 Ti3 2.004420 1_555
O21 P2 1.553237 1_555
O21 Ti2 2.004420 1_655
O22 P1 1.553237 1_555
O22 Ti1 2.004420 1_555
O23 P0 1.553237 1_555
O23 Ti0 2.004420 1_455
O24 P2 1.553237 1_555
O24 Ti2 2.004420 1_555
O25 P3 1.553237 1_555
O25 Ti3 2.004420 1_455
O26 P0 1.553237 1_555
O26 Ti0 2.004420 1_555
O27 P1 1.553237 1_555
O27 Ti1 2.004420 1_655
O28 P7 1.562862 1_565
O28 Ti3 2.211231 1_565
O29 P6 1.562862 1_545
O29 Ti2 2.211231 1_545
O30 P5 1.562856 1_555
O30 Ti1 2.211226 1_555
O31 P4 1.562862 1_555
O31 Ti0 2.211231 1_555
O32 P2 1.523331 1_555
O32 Ti3 1.913972 1_565
O33 P3 1.523331 1_555
O33 Ti2 1.913972 1_545
O34 P0 1.523331 1_554
O34 Ti1 1.913972 1_555
O35 P1 1.523331 1_556
O35 Ti0 1.913972 1_555
