# generated using pymatgen
data_Li3(CoO2)4
_symmetry_space_group_name_H-M   'P 1'
_cell_length_a   5.79099400
_cell_length_b   5.90438318
_cell_length_c   9.96876083
_cell_angle_alpha   106.42938895
_cell_angle_beta   89.99944828
_cell_angle_gamma   119.36777043
_symmetry_Int_Tables_number   1
_chemical_formula_structural   Li3(CoO2)4
_chemical_formula_sum   'Li6 Co8 O16'
_cell_volume   280.97282504
_cell_formula_units_Z   2
loop_
 _symmetry_equiv_pos_site_id
 _symmetry_equiv_pos_as_xyz
  1  'x, y, z'
loop_
 _atom_site_type_symbol
 _atom_site_label
 _atom_site_symmetry_multiplicity
 _atom_site_fract_x
 _atom_site_fract_y
 _atom_site_fract_z
 _atom_site_occupancy
  Li  Li0  1  0.25180800  0.99868700  0.74302700  1
  Li  Li1  1  0.74796800  0.00113400  0.25797000  1
  Li  Li2  1  0.49959100  0.00335700  0.00041100  1
  Li  Li3  1  0.99623200  0.99664500  0.49959000  1
  Li  Li4  1  0.75312700  0.00131700  0.75697400  1
  Li  Li5  1  0.24683300  0.99885600  0.24203500  1
  Co  Co0  1  0.75554900  0.49999300  0.74999700  1
  Co  Co1  1  0.99905500  0.49872200  0.49961100  1
  Co  Co2  1  0.00032000  0.50126300  0.00039000  1
  Co  Co3  1  0.75466800  0.49999600  0.25000100  1
  Co  Co4  1  0.24460000  0.49999900  0.75000200  1
  Co  Co5  1  0.24835300  0.49998700  0.24999400  1
  Co  Co6  1  0.50123600  0.50425300  0.00040400  1
  Co  Co7  1  0.49699800  0.49578700  0.49957700  1
  O  O0  1  0.65383500  0.27609900  0.88410900  1
  O  O1  1  0.12023000  0.27259900  0.38325600  1
  O  O2  1  0.34762100  0.72739700  0.11675100  1
  O  O3  1  0.87775100  0.72389700  0.61589200  1
  O  O4  1  0.40443400  0.28742600  0.13131700  1
  O  O5  1  0.90156600  0.28756400  0.62725700  1
  O  O6  1  0.87028100  0.71167800  0.12294300  1
  O  O7  1  0.33942900  0.70899000  0.62179800  1
  O  O8  1  0.88830600  0.29067500  0.12721500  1
  O  O9  1  0.38560900  0.28874000  0.63214700  1
  O  O10  1  0.11397000  0.71241400  0.87273200  1
  O  O11  1  0.61707400  0.71260400  0.36871100  1
  O  O12  1  0.13043900  0.29100600  0.87820300  1
  O  O13  1  0.65860100  0.28831600  0.37705800  1
  O  O14  1  0.59686100  0.71130100  0.86786800  1
  O  O15  1  0.09765400  0.70929700  0.37276100  1
loop_
_geom_bond_atom_site_label_1
_geom_bond_atom_site_label_2
_geom_bond_distance
_geom_bond_site_symmetry_2
Li0 O3 2.078616 1_455
Li0 O7 2.079822 1_555
Li0 O9 2.127048 1_565
Li0 O0 2.244507 1_565
Li0 O10 2.253644 1_555
Li0 O12 2.272220 1_565
Li1 O1 2.062730 1_655
Li1 O13 2.067453 1_555
Li1 O11 2.119612 1_545
Li1 O2 2.237593 1_545
Li1 O6 2.262844 1_545
Li1 O8 2.275932 1_555
Li2 O0 2.092986 1_554
Li2 O2 2.106391 1_545
Li2 O4 2.118536 1_555
Li2 O10 2.135063 1_544
Li2 O8 2.141140 1_555
Li2 O14 2.168077 1_544
Li3 O3 2.093022 1_555
Li3 O1 2.106319 1_665
Li3 O11 2.118139 1_555
Li3 O5 2.134885 1_565
Li3 O15 2.141481 1_655
Li3 O9 2.168330 1_665
Li4 O0 2.078694 1_555
Li4 O12 2.079773 1_655
Li4 O14 2.126990 1_545
Li4 O3 2.244592 1_545
Li4 O5 2.253626 1_555
Li4 O7 2.272244 1_545
Li5 O2 2.062679 1_555
Li5 O6 2.067455 1_455
Li5 O4 2.119605 1_565
Li5 O1 2.237615 1_565
Li5 O13 2.262807 1_565
Li5 O15 2.275780 1_555
Co0 O10 1.989188 1_655
Co0 O5 1.989325 1_555
Co0 O9 2.018849 1_555
Co0 O14 2.019171 1_555
Co0 O3 2.029241 1_555
Co0 O0 2.029258 1_555
Co1 O3 1.910243 1_555
Co1 O7 1.911715 1_655
Co1 O13 1.913672 1_555
Co1 O1 1.913964 1_655
Co1 O15 1.914144 1_655
Co1 O5 1.923367 1_555
Co2 O0 1.910253 1_454
Co2 O12 1.911737 1_554
Co2 O6 1.913682 1_455
Co2 O2 1.913987 1_555
Co2 O8 1.913988 1_455
Co2 O10 1.923437 1_554
Co3 O13 1.920769 1_555
Co3 O6 1.920783 1_555
Co3 O15 1.925348 1_655
Co3 O8 1.925359 1_555
Co3 O11 1.936976 1_555
Co3 O4 1.936996 1_555
Co4 O12 1.919625 1_555
Co4 O7 1.919644 1_555
Co4 O10 1.924749 1_555
Co4 O5 1.924756 1_455
Co4 O14 1.942431 1_555
Co4 O9 1.942437 1_555
Co5 O15 1.997236 1_555
Co5 O8 1.997440 1_455
Co5 O4 2.016050 1_555
Co5 O11 2.016525 1_555
Co5 O2 2.037011 1_555
Co5 O1 2.037076 1_555
Co6 O14 1.948437 1_554
Co6 O4 1.974217 1_555
Co6 O6 2.036190 1_555
Co6 O2 2.039022 1_555
Co6 O12 2.039794 1_554
Co6 O0 2.055194 1_554
Co7 O9 1.948717 1_555
Co7 O11 1.973790 1_555
Co7 O13 2.036220 1_555
Co7 O1 2.038937 1_555
Co7 O7 2.039800 1_555
Co7 O3 2.055262 1_555
