# generated using pymatgen
data_Li3Mn3CoO8
_symmetry_space_group_name_H-M   'P 1'
_cell_length_a   5.91215615
_cell_length_b   5.91215615
_cell_length_c   9.53594400
_cell_angle_alpha   90.00000000
_cell_angle_beta   90.00000000
_cell_angle_gamma   121.59044063
_symmetry_Int_Tables_number   1
_chemical_formula_structural   Li3Mn3CoO8
_chemical_formula_sum   'Li6 Mn6 Co2 O16'
_cell_volume   283.92290775
_cell_formula_units_Z   2
loop_
 _symmetry_equiv_pos_site_id
 _symmetry_equiv_pos_as_xyz
  1  'x, y, z'
loop_
 _atom_site_type_symbol
 _atom_site_label
 _atom_site_symmetry_multiplicity
 _atom_site_fract_x
 _atom_site_fract_y
 _atom_site_fract_z
 _atom_site_occupancy
  Li  Li0  1  0.34853300  0.17557100  0.94305900  1
  Li  Li1  1  0.82442900  0.65146700  0.94305900  1
  Li  Li2  1  0.82550800  0.17449200  0.94396700  1
  Li  Li3  1  0.17449200  0.82550800  0.44396700  1
  Li  Li4  1  0.17557100  0.34853300  0.44305900  1
  Li  Li5  1  0.65146700  0.82442900  0.44305900  1
  Mn  Mn0  1  0.33478700  0.16712300  0.21351900  1
  Mn  Mn1  1  0.83287700  0.66521300  0.21351900  1
  Mn  Mn2  1  0.83225100  0.16774900  0.21542800  1
  Mn  Mn3  1  0.16774900  0.83225100  0.71542800  1
  Mn  Mn4  1  0.16712300  0.33478700  0.71351900  1
  Mn  Mn5  1  0.66521300  0.83287700  0.71351900  1
  Co  Co0  1  0.66465100  0.33534900  0.49678000  1
  Co  Co1  1  0.33534900  0.66465100  0.99678000  1
  O  O0  1  0.31209000  0.16150000  0.60342800  1
  O  O1  1  0.51660500  0.48339500  0.33320100  1
  O  O2  1  0.65096100  0.34903900  0.09513000  1
  O  O3  1  0.51166900  0.03251900  0.33498900  1
  O  O4  1  0.83850000  0.68791000  0.60342800  1
  O  O5  1  0.96748100  0.48833100  0.33498900  1
  O  O6  1  0.84296000  0.15704000  0.59868400  1
  O  O7  1  0.15704000  0.84296000  0.09868400  1
  O  O8  1  0.03251900  0.51166900  0.83498900  1
  O  O9  1  0.34903900  0.65096100  0.59513000  1
  O  O10  1  0.16150000  0.31209000  0.10342800  1
  O  O11  1  0.01620000  0.98380000  0.32793600  1
  O  O12  1  0.98380000  0.01620000  0.82793600  1
  O  O13  1  0.48833100  0.96748100  0.83498900  1
  O  O14  1  0.48339500  0.51660500  0.83320100  1
  O  O15  1  0.68791000  0.83850000  0.10342800  1
loop_
_geom_bond_atom_site_label_1
_geom_bond_atom_site_label_2
_geom_bond_distance
_geom_bond_site_symmetry_2
Li0 O14 2.028343 1_555
Li0 O13 2.079422 1_545
Li0 O2 2.104872 1_556
Li0 O12 2.148065 1_455
Li0 O7 2.240211 1_546
Li0 O10 2.268895 1_556
Li1 O14 2.028343 1_555
Li1 O8 2.079422 1_655
Li1 O2 2.104872 1_556
Li1 O12 2.148065 1_565
Li1 O7 2.240211 1_656
Li1 O15 2.268895 1_556
Li2 O12 1.973185 1_555
Li2 O13 1.998893 1_545
Li2 O8 1.998893 1_655
Li2 O15 2.286251 1_546
Li2 O10 2.286251 1_656
Li2 O2 2.307252 1_556
Li3 O11 1.973185 1_555
Li3 O5 1.998893 1_455
Li3 O3 1.998893 1_565
Li3 O4 2.286251 1_455
Li3 O0 2.286251 1_565
Li3 O9 2.307252 1_555
Li4 O1 2.028343 1_555
Li4 O5 2.079422 1_455
Li4 O9 2.104872 1_555
Li4 O11 2.148065 1_545
Li4 O6 2.240211 1_455
Li4 O0 2.268895 1_555
Li5 O1 2.028343 1_555
Li5 O3 2.079422 1_565
Li5 O9 2.104872 1_555
Li5 O11 2.148065 1_655
Li5 O6 2.240211 1_565
Li5 O4 2.268895 1_555
Mn0 O11 1.942693 1_545
Mn0 O10 1.950956 1_555
Mn0 O2 1.954260 1_555
Mn0 O1 1.961766 1_555
Mn0 O7 1.966323 1_545
Mn0 O3 1.985076 1_555
Mn1 O11 1.942693 1_655
Mn1 O15 1.950956 1_555
Mn1 O2 1.954260 1_555
Mn1 O1 1.961766 1_555
Mn1 O7 1.966323 1_655
Mn1 O5 1.985076 1_555
Mn2 O15 1.979318 1_545
Mn2 O10 1.979318 1_655
Mn2 O5 1.985898 1_555
Mn2 O3 1.985898 1_555
Mn2 O11 2.180745 1_645
Mn2 O2 2.194791 1_555
Mn3 O4 1.979318 1_455
Mn3 O0 1.979318 1_565
Mn3 O13 1.985898 1_555
Mn3 O8 1.985898 1_555
Mn3 O12 2.180745 1_465
Mn3 O9 2.194791 1_555
Mn4 O12 1.942693 1_455
Mn4 O0 1.950956 1_555
Mn4 O9 1.954260 1_555
Mn4 O14 1.961766 1_555
Mn4 O6 1.966323 1_455
Mn4 O8 1.985076 1_555
Mn5 O12 1.942693 1_565
Mn5 O4 1.950956 1_555
Mn5 O9 1.954260 1_555
Mn5 O14 1.961766 1_555
Mn5 O6 1.966323 1_565
Mn5 O13 1.985076 1_555
Co0 O0 2.047154 1_555
Co0 O4 2.047154 1_555
Co0 O6 2.081165 1_555
Co0 O5 2.169627 1_555
Co0 O3 2.169627 1_555
Co0 O1 2.183588 1_555
Co1 O10 2.047154 1_556
Co1 O15 2.047154 1_556
Co1 O7 2.081165 1_556
Co1 O13 2.169627 1_555
Co1 O8 2.169627 1_555
Co1 O14 2.183588 1_555
