# generated using pymatgen
data_ZrIr
_symmetry_space_group_name_H-M   'P 1'
_cell_length_a   6.27221200
_cell_length_b   6.27221200
_cell_length_c   7.32613600
_cell_angle_alpha   90.00000000
_cell_angle_beta   90.00000000
_cell_angle_gamma   90.00000000
_symmetry_Int_Tables_number   1
_chemical_formula_structural   ZrIr
_chemical_formula_sum   'Zr8 Ir8'
_cell_volume   288.21490368
_cell_formula_units_Z   8
loop_
 _symmetry_equiv_pos_site_id
 _symmetry_equiv_pos_as_xyz
  1  'x, y, z'
loop_
 _atom_site_type_symbol
 _atom_site_label
 _atom_site_symmetry_multiplicity
 _atom_site_fract_x
 _atom_site_fract_y
 _atom_site_fract_z
 _atom_site_occupancy
  Zr  Zr0_0  1  0.25000000  0.25000000  0.25000000  1
  Zr  Zr0_1  1  0.25000000  0.25000000  0.75000000  1
  Zr  Zr0_2  1  0.25000000  0.75000000  0.25000000  1
  Zr  Zr0_3  1  0.25000000  0.75000000  0.75000000  1
  Zr  Zr0_4  1  0.75000000  0.25000000  0.25000000  1
  Zr  Zr0_5  1  0.75000000  0.25000000  0.75000000  1
  Zr  Zr0_6  1  0.75000000  0.75000000  0.25000000  1
  Zr  Zr0_7  1  0.75000000  0.75000000  0.75000000  1
  Ir  Ir0_0  1  0.00000000  0.00000000  0.00000000  1
  Ir  Ir0_1  1  0.00000000  0.00000000  0.50000000  1
  Ir  Ir0_2  1  0.00000000  0.50000000  0.00000000  1
  Ir  Ir0_3  1  0.00000000  0.50000000  0.50000000  1
  Ir  Ir0_4  1  0.50000000  0.00000000  0.00000000  1
  Ir  Ir0_5  1  0.50000000  0.00000000  0.50000000  1
  Ir  Ir0_6  1  0.50000000  0.50000000  0.00000000  1
  Ir  Ir0_7  1  0.50000000  0.50000000  0.50000000  1
loop_
_geom_bond_atom_site_label_1
_geom_bond_atom_site_label_2
_geom_bond_distance
_geom_bond_site_symmetry_2
Zr0_0 Zr0_4 3.136106 1_555
Zr0_0 Zr0_2 3.136106 1_555
Zr0_0 Zr0_2 3.136106 1_545
Zr0_0 Zr0_4 3.136106 1_455
Zr0_1 Zr0_5 3.136106 1_455
Zr0_1 Zr0_3 3.136106 1_545
Zr0_1 Zr0_5 3.136106 1_555
Zr0_1 Zr0_3 3.136106 1_555
Zr0_2 Zr0_6 3.136106 1_455
Zr0_2 Zr0_6 3.136106 1_555
Zr0_3 Zr0_7 3.136106 1_455
Zr0_3 Zr0_7 3.136106 1_555
Zr0_4 Zr0_6 3.136106 1_545
Zr0_4 Zr0_6 3.136106 1_555
Zr0_5 Zr0_7 3.136106 1_545
Zr0_5 Zr0_7 3.136106 1_555
Ir0_0 Zr0_1 2.876125 1_554
Ir0_0 Zr0_3 2.876125 1_544
Ir0_0 Zr0_5 2.876125 1_454
Ir0_0 Zr0_7 2.876125 1_444
Ir0_0 Zr0_0 2.876125 1_555
Ir0_0 Zr0_4 2.876125 1_455
Ir0_0 Zr0_6 2.876125 1_445
Ir0_0 Zr0_2 2.876125 1_545
Ir0_0 Ir0_2 3.136106 1_555
Ir0_0 Ir0_4 3.136106 1_555
Ir0_0 Ir0_2 3.136106 1_545
Ir0_0 Ir0_4 3.136106 1_455
Ir0_1 Zr0_0 2.876125 1_555
Ir0_1 Zr0_4 2.876125 1_455
Ir0_1 Zr0_1 2.876125 1_555
Ir0_1 Zr0_5 2.876125 1_455
Ir0_1 Zr0_3 2.876125 1_545
Ir0_1 Zr0_6 2.876125 1_445
Ir0_1 Zr0_7 2.876125 1_445
Ir0_1 Zr0_2 2.876125 1_545
Ir0_1 Ir0_3 3.136106 1_555
Ir0_1 Ir0_5 3.136106 1_555
Ir0_1 Ir0_3 3.136106 1_545
Ir0_1 Ir0_5 3.136106 1_455
Ir0_2 Zr0_3 2.876125 1_554
Ir0_2 Zr0_1 2.876125 1_554
Ir0_2 Zr0_5 2.876125 1_454
Ir0_2 Zr0_7 2.876125 1_454
Ir0_2 Zr0_0 2.876125 1_555
Ir0_2 Zr0_4 2.876125 1_455
Ir0_2 Zr0_6 2.876125 1_455
Ir0_2 Zr0_2 2.876125 1_555
Ir0_2 Ir0_6 3.136106 1_555
Ir0_2 Ir0_6 3.136106 1_455
Ir0_3 Zr0_0 2.876125 1_555
Ir0_3 Zr0_4 2.876125 1_455
Ir0_3 Zr0_1 2.876125 1_555
Ir0_3 Zr0_5 2.876125 1_455
Ir0_3 Zr0_6 2.876125 1_455
Ir0_3 Zr0_2 2.876125 1_555
Ir0_3 Zr0_3 2.876125 1_555
Ir0_3 Zr0_7 2.876125 1_455
Ir0_3 Ir0_7 3.136106 1_555
Ir0_3 Ir0_7 3.136106 1_455
Ir0_4 Zr0_5 2.876125 1_554
Ir0_4 Zr0_1 2.876125 1_554
Ir0_4 Zr0_3 2.876125 1_544
Ir0_4 Zr0_7 2.876125 1_544
Ir0_4 Zr0_0 2.876125 1_555
Ir0_4 Zr0_4 2.876125 1_555
Ir0_4 Zr0_6 2.876125 1_545
Ir0_4 Zr0_2 2.876125 1_545
Ir0_4 Ir0_6 3.136106 1_555
Ir0_4 Ir0_6 3.136106 1_545
Ir0_5 Zr0_0 2.876125 1_555
Ir0_5 Zr0_1 2.876125 1_555
Ir0_5 Zr0_4 2.876125 1_555
Ir0_5 Zr0_3 2.876125 1_545
Ir0_5 Zr0_6 2.876125 1_545
Ir0_5 Zr0_2 2.876125 1_545
Ir0_5 Zr0_7 2.876125 1_545
Ir0_5 Zr0_5 2.876125 1_555
Ir0_5 Ir0_7 3.136106 1_555
Ir0_5 Ir0_7 3.136106 1_545
Ir0_6 Zr0_3 2.876125 1_554
Ir0_6 Zr0_1 2.876125 1_554
Ir0_6 Zr0_5 2.876125 1_554
Ir0_6 Zr0_7 2.876125 1_554
Ir0_6 Zr0_0 2.876125 1_555
Ir0_6 Zr0_6 2.876125 1_555
Ir0_6 Zr0_4 2.876125 1_555
Ir0_6 Zr0_2 2.876125 1_555
Ir0_7 Zr0_0 2.876125 1_555
Ir0_7 Zr0_1 2.876125 1_555
Ir0_7 Zr0_6 2.876125 1_555
Ir0_7 Zr0_4 2.876125 1_555
Ir0_7 Zr0_2 2.876125 1_555
Ir0_7 Zr0_5 2.876125 1_555
Ir0_7 Zr0_3 2.876125 1_555
Ir0_7 Zr0_7 2.876125 1_555
