# generated using pymatgen
data_RbPrH8(SO6)2
_symmetry_space_group_name_H-M   'P 1'
_cell_length_a   19.20602700
_cell_length_b   6.76701400
_cell_length_c   8.81213542
_cell_angle_alpha   82.68634259
_cell_angle_beta   90.00000000
_cell_angle_gamma   90.00000000
_symmetry_Int_Tables_number   1
_chemical_formula_structural   RbPrH8(SO6)2
_chemical_formula_sum   'Rb4 Pr4 H32 S8 O48'
_cell_volume   1135.97286005
_cell_formula_units_Z   4
loop_
 _symmetry_equiv_pos_site_id
 _symmetry_equiv_pos_as_xyz
  1  'x, y, z'
loop_
 _atom_site_type_symbol
 _atom_site_label
 _atom_site_symmetry_multiplicity
 _atom_site_fract_x
 _atom_site_fract_y
 _atom_site_fract_z
 _atom_site_occupancy
  Rb  Rb0  1  0.28939500  0.15074600  0.39793600  1
  Rb  Rb1  1  0.78939500  0.84925400  0.10206400  1
  Rb  Rb2  1  0.71060500  0.84925400  0.60206400  1
  Rb  Rb3  1  0.21060500  0.15074600  0.89793600  1
  Pr  Pr0  1  0.12369500  0.64955700  0.21769900  1
  Pr  Pr1  1  0.62369500  0.35044300  0.28230100  1
  Pr  Pr2  1  0.87630500  0.35044300  0.78230100  1
  Pr  Pr3  1  0.37630500  0.64955700  0.71769900  1
  H  H0  1  0.06641700  0.79998400  0.89136100  1
  H  H1  1  0.56641700  0.20001600  0.60863900  1
  H  H2  1  0.93358300  0.20001600  0.10863900  1
  H  H3  1  0.43358300  0.79998400  0.39136100  1
  H  H4  1  0.13604300  0.70042500  0.85224500  1
  H  H5  1  0.63604300  0.29957500  0.64775500  1
  H  H6  1  0.86395700  0.29957500  0.14775500  1
  H  H7  1  0.36395700  0.70042500  0.35224500  1
  H  H8  1  0.00944700  0.73504200  0.48042900  1
  H  H9  1  0.50944700  0.26495800  0.01957100  1
  H  H10  1  0.99055300  0.26495800  0.51957100  1
  H  H11  1  0.49055300  0.73504200  0.98042900  1
  H  H12  1  0.08131900  0.66909200  0.55975600  1
  H  H13  1  0.58131900  0.33090800  0.94024400  1
  H  H14  1  0.91868100  0.33090800  0.44024400  1
  H  H15  1  0.41868100  0.66909200  0.05975600  1
  H  H16  1  0.96364000  0.75469300  0.22762100  1
  H  H17  1  0.46364000  0.24530700  0.27237900  1
  H  H18  1  0.03636000  0.24530700  0.77237900  1
  H  H19  1  0.53636000  0.75469300  0.72762100  1
  H  H20  1  0.97227700  0.66181300  0.07199600  1
  H  H21  1  0.47227700  0.33818700  0.42800400  1
  H  H22  1  0.02772300  0.33818700  0.92800400  1
  H  H23  1  0.52772300  0.66181300  0.57199600  1
  H  H24  1  0.39536300  0.19047600  0.05189500  1
  H  H25  1  0.89536300  0.80952400  0.44810500  1
  H  H26  1  0.60463700  0.80952400  0.94810500  1
  H  H27  1  0.10463700  0.19047600  0.55189500  1
  H  H28  1  0.42131800  0.00791900  0.16517200  1
  H  H29  1  0.92131800  0.99208100  0.33482800  1
  H  H30  1  0.57868200  0.99208100  0.83482800  1
  H  H31  1  0.07868200  0.00791900  0.66517200  1
  S  S0  1  0.07451600  0.19297000  0.22165000  1
  S  S1  1  0.57451600  0.80703000  0.27835000  1
  S  S2  1  0.92548400  0.80703000  0.77835000  1
  S  S3  1  0.42548400  0.19297000  0.72165000  1
  S  S4  1  0.28106100  0.62192800  0.10294400  1
  S  S5  1  0.78106100  0.37807200  0.39705600  1
  S  S6  1  0.71893900  0.37807200  0.89705600  1
  S  S7  1  0.21893900  0.62192800  0.60294400  1
  O  O0  1  0.11913100  0.01948600  0.20072800  1
  O  O1  1  0.61913100  0.98051400  0.29927200  1
  O  O2  1  0.88086900  0.98051400  0.79927200  1
  O  O3  1  0.38086900  0.01948600  0.70072800  1
  O  O4  1  0.10044500  0.29092400  0.35582900  1
  O  O5  1  0.60044500  0.70907600  0.14417100  1
  O  O6  1  0.89955500  0.70907600  0.64417100  1
  O  O7  1  0.39955500  0.29092400  0.85582900  1
  O  O8  1  0.50096300  0.86363400  0.25771300  1
  O  O9  1  0.00096300  0.13636600  0.24228700  1
  O  O10  1  0.49903700  0.13636600  0.74228700  1
  O  O11  1  0.99903700  0.86363400  0.75771300  1
  O  O12  1  0.08304800  0.35044800  0.08522800  1
  O  O13  1  0.58304800  0.64955200  0.41477200  1
  O  O14  1  0.91695200  0.64955200  0.91477200  1
  O  O15  1  0.41695200  0.35044800  0.58522800  1
  O  O16  1  0.24113500  0.80541500  0.12732300  1
  O  O17  1  0.74113500  0.19458500  0.37267700  1
  O  O18  1  0.75886500  0.19458500  0.87267700  1
  O  O19  1  0.25886500  0.80541500  0.62732300  1
  O  O20  1  0.20082600  0.62759000  0.43877500  1
  O  O21  1  0.70082600  0.37241000  0.06122500  1
  O  O22  1  0.79917400  0.37241000  0.56122500  1
  O  O23  1  0.29917400  0.62759000  0.93877500  1
  O  O24  1  0.23322000  0.44907500  0.14941200  1
  O  O25  1  0.73322000  0.55092500  0.35058800  1
  O  O26  1  0.76678000  0.55092500  0.85058800  1
  O  O27  1  0.26678000  0.44907500  0.64941200  1
  O  O28  1  0.34621000  0.60315900  0.19476200  1
  O  O29  1  0.84621000  0.39684100  0.30523800  1
  O  O30  1  0.65379000  0.39684100  0.80523800  1
  O  O31  1  0.15379000  0.60315900  0.69476200  1
  O  O32  1  0.11311900  0.76576600  0.93501800  1
  O  O33  1  0.61311900  0.23423400  0.56498200  1
  O  O34  1  0.88688100  0.23423400  0.06498200  1
  O  O35  1  0.38688100  0.76576600  0.43501800  1
  O  O36  1  0.05855700  0.71561200  0.46076700  1
  O  O37  1  0.55855700  0.28438800  0.03923300  1
  O  O38  1  0.94144300  0.28438800  0.53923300  1
  O  O39  1  0.44144300  0.71561200  0.96076700  1
  O  O40  1  0.99787100  0.69067600  0.16444200  1
  O  O41  1  0.49787100  0.30932400  0.33555800  1
  O  O42  1  0.00212900  0.30932400  0.83555800  1
  O  O43  1  0.50212900  0.69067600  0.66444200  1
  O  O44  1  0.40029600  0.14030900  0.16189300  1
  O  O45  1  0.90029600  0.85969100  0.33810700  1
  O  O46  1  0.59970400  0.85969100  0.83810700  1
  O  O47  1  0.09970400  0.14030900  0.66189300  1
loop_
_geom_bond_atom_site_label_1
_geom_bond_atom_site_label_2
_geom_bond_distance
_geom_bond_site_symmetry_2
H0 O32 0.991704 1_555
H1 O33 0.991704 1_555
H2 O34 0.991704 1_555
H3 O35 0.991704 1_555
H4 O32 1.001749 1_555
H4 O31 1.645554 1_555
H5 O33 1.001749 1_555
H5 O30 1.645554 1_555
H6 O34 1.001749 1_555
H6 O29 1.645554 1_555
H7 O35 1.001749 1_555
H7 O28 1.645554 1_555
H8 O36 0.970953 1_555
H9 O37 0.970953 1_555
H10 O38 0.970953 1_555
H11 O39 0.970953 1_555
H12 O36 0.990564 1_555
H13 O37 0.990564 1_556
H14 O38 0.990564 1_555
H15 O39 0.990564 1_554
H16 O40 0.995622 1_555
H17 O41 0.995622 1_555
H18 O42 0.995622 1_555
H19 O43 0.995622 1_555
H20 O40 0.991937 1_555
H21 O41 0.991937 1_555
H22 O42 0.991937 1_555
H23 O43 0.991937 1_555
H24 O44 0.989959 1_555
H25 O45 0.989959 1_555
H26 O46 0.989959 1_555
H27 O47 0.989959 1_555
H28 O44 0.979728 1_555
H29 O45 0.979728 1_555
H30 O46 0.979728 1_555
H31 O47 0.979728 1_555
O0 S0 1.483758 1_555
O0 Pr0 2.490244 1_545
O0 Rb3 3.223602 1_554
O1 S1 1.483758 1_555
O1 Pr1 2.490244 1_565
O1 Rb2 3.223602 1_555
O2 S2 1.483758 1_555
O2 Pr2 2.490244 1_565
O2 Rb1 3.223602 1_556
O3 S3 1.483758 1_555
O3 Pr3 2.490244 1_545
O3 Rb0 3.223602 1_555
O4 S0 1.511622 1_555
O4 Pr0 2.611252 1_555
O5 S1 1.511622 1_555
O5 Pr1 2.611252 1_555
O6 S2 1.511622 1_555
O6 Pr2 2.611252 1_555
O7 S3 1.511622 1_555
O7 Pr3 2.611252 1_555
O8 S1 1.468900 1_555
O9 S0 1.468900 1_555
O10 S3 1.468900 1_555
O11 S2 1.468900 1_555
O12 S0 1.510468 1_555
O12 Pr0 2.582752 1_555
O12 Rb3 3.334651 1_554
O13 S1 1.510468 1_555
O13 Pr1 2.582752 1_555
O13 Rb2 3.334651 1_555
O14 S2 1.510468 1_555
O14 Pr2 2.582752 1_555
O14 Rb1 3.334651 1_556
O15 S3 1.510468 1_555
O15 Pr3 2.582752 1_555
O15 Rb0 3.334651 1_555
O16 S4 1.497931 1_555
O16 Pr0 2.572997 1_555
O16 Rb3 2.947555 1_564
O17 S5 1.497931 1_555
O17 Pr1 2.572997 1_555
O17 Rb2 2.947555 1_545
O18 S6 1.497931 1_555
O18 Pr2 2.572997 1_555
O18 Rb1 2.947555 1_546
O19 S7 1.497931 1_555
O19 Pr3 2.572997 1_555
O19 Rb0 2.947555 1_565
O20 S7 1.483663 1_555
O20 Pr0 2.436831 1_555
O21 S6 1.483663 1_554
O21 Pr1 2.436831 1_555
O22 S5 1.483663 1_555
O22 Pr2 2.436831 1_555
O23 S4 1.483663 1_556
O23 Pr3 2.436831 1_555
O24 S4 1.502725 1_555
O24 Pr0 2.614456 1_555
O24 Rb0 2.984984 1_555
O24 Rb3 3.211550 1_554
O25 S5 1.502725 1_555
O25 Pr1 2.614456 1_555
O25 Rb1 2.984984 1_555
O25 Rb2 3.211550 1_555
O26 S6 1.502725 1_555
O26 Pr2 2.614456 1_555
O26 Rb2 2.984984 1_555
O26 Rb1 3.211550 1_556
O27 S7 1.502725 1_555
O27 Pr3 2.614456 1_555
O27 Rb3 2.984984 1_555
O27 Rb0 3.211550 1_555
O28 S4 1.486696 1_555
O29 S5 1.486696 1_555
O30 S6 1.486696 1_555
O31 S7 1.486696 1_555
O32 Pr0 2.523117 1_556
O32 Rb3 3.191003 1_565
O33 Pr1 2.523117 1_555
O33 Rb2 3.191003 1_545
O34 Pr2 2.523117 1_554
O34 Rb1 3.191003 1_545
O35 Pr3 2.523117 1_555
O35 Rb0 3.191003 1_565
O36 Pr0 2.568388 1_555
O37 Pr1 2.568388 1_555
O38 Pr2 2.568388 1_555
O39 Pr3 2.568388 1_555
O40 Pr0 2.470684 1_655
O41 Pr1 2.470684 1_555
O42 Pr2 2.470684 1_455
O43 Pr3 2.470684 1_555
O44 Rb0 2.984247 1_555
O45 Rb1 2.984247 1_555
O46 Rb2 2.984247 1_555
O47 Rb3 2.984247 1_555
