# generated using pymatgen
data_In
_symmetry_space_group_name_H-M   'P 1'
_cell_length_a   6.67854765
_cell_length_b   6.67854586
_cell_length_c   16.86171594
_cell_angle_alpha   78.57771042
_cell_angle_beta   101.42228974
_cell_angle_gamma   119.99998098
_symmetry_Int_Tables_number   1
_chemical_formula_structural   In
_chemical_formula_sum   In24
_cell_volume   634.06473352
_cell_formula_units_Z   24
loop_
 _symmetry_equiv_pos_site_id
 _symmetry_equiv_pos_as_xyz
  1  'x, y, z'
loop_
 _atom_site_type_symbol
 _atom_site_label
 _atom_site_symmetry_multiplicity
 _atom_site_fract_x
 _atom_site_fract_y
 _atom_site_fract_z
 _atom_site_occupancy
  In  In0_0  1  0.00000000  0.00000000  0.00000000  1
  In  In0_1  1  0.00000000  0.00000000  0.50000000  1
  In  In0_2  1  0.00000000  0.50000000  0.00000000  1
  In  In0_3  1  0.00000000  0.50000000  0.50000000  1
  In  In0_4  1  0.50000000  0.00000000  0.00000000  1
  In  In0_5  1  0.50000000  0.00000000  0.50000000  1
  In  In0_6  1  0.50000000  0.50000000  0.00000000  1
  In  In0_7  1  0.50000000  0.50000000  0.50000000  1
  In  In1_0  1  0.38900679  0.11099371  0.16701836  1
  In  In1_1  1  0.38900678  0.11099371  0.66701836  1
  In  In1_2  1  0.38900678  0.61099371  0.16701836  1
  In  In1_3  1  0.38900679  0.61099371  0.66701836  1
  In  In1_4  1  0.88900678  0.11099371  0.16701836  1
  In  In1_5  1  0.88900678  0.11099371  0.66701836  1
  In  In1_6  1  0.88900678  0.61099371  0.16701836  1
  In  In1_7  1  0.88900678  0.61099371  0.66701836  1
  In  In2_0  1  0.11099371  0.38900678  0.33298164  1
  In  In2_1  1  0.11099371  0.38900679  0.83298164  1
  In  In2_2  1  0.11099371  0.88900678  0.33298164  1
  In  In2_3  1  0.11099371  0.88900679  0.83298164  1
  In  In2_4  1  0.61099371  0.38900679  0.33298164  1
  In  In2_5  1  0.61099371  0.38900678  0.83298164  1
  In  In2_6  1  0.61099371  0.88900678  0.33298164  1
  In  In2_7  1  0.61099371  0.88900678  0.83298164  1
loop_
_geom_bond_atom_site_label_1
_geom_bond_atom_site_label_2
_geom_bond_distance
_geom_bond_site_symmetry_2
In0_0 In0_2 3.339273 1_555
In0_0 In0_2 3.339273 1_545
In0_0 In0_4 3.339274 1_555
In0_0 In0_4 3.339274 1_455
In0_0 In0_6 3.339274 1_445
In0_0 In0_6 3.339274 1_555
In0_0 In1_4 3.351602 1_455
In0_0 In2_3 3.351602 1_544
In0_0 In1_6 3.351605 1_445
In0_0 In2_7 3.351606 1_444
In0_0 In2_1 3.351607 1_554
In0_0 In1_0 3.351607 1_555
In0_1 In0_3 3.339273 1_555
In0_1 In0_3 3.339273 1_545
In0_1 In0_5 3.339274 1_455
In0_1 In0_5 3.339274 1_555
In0_1 In0_7 3.339274 1_445
In0_1 In0_7 3.339274 1_555
In0_1 In1_5 3.351602 1_455
In0_1 In2_2 3.351602 1_545
In0_1 In1_7 3.351605 1_445
In0_1 In2_6 3.351606 1_445
In0_1 In2_0 3.351607 1_555
In0_1 In1_1 3.351607 1_555
In0_2 In0_6 3.339274 1_555
In0_2 In0_6 3.339274 1_455
In0_2 In0_4 3.339274 1_565
In0_2 In0_4 3.339274 1_455
In0_2 In1_6 3.351602 1_455
In0_2 In2_1 3.351602 1_554
In0_2 In1_4 3.351605 1_455
In0_2 In2_5 3.351606 1_454
In0_2 In2_3 3.351607 1_554
In0_2 In1_2 3.351607 1_555
In0_3 In0_7 3.339274 1_555
In0_3 In0_7 3.339274 1_455
In0_3 In0_5 3.339274 1_565
In0_3 In0_5 3.339274 1_455
In0_3 In1_7 3.351602 1_455
In0_3 In2_0 3.351602 1_555
In0_3 In1_5 3.351605 1_455
In0_3 In2_4 3.351606 1_455
In0_3 In2_2 3.351607 1_555
In0_3 In1_3 3.351607 1_555
In0_4 In0_6 3.339273 1_555
In0_4 In0_6 3.339273 1_545
In0_4 In1_0 3.351602 1_555
In0_4 In2_7 3.351602 1_544
In0_4 In1_2 3.351605 1_545
In0_4 In2_3 3.351606 1_544
In0_4 In2_5 3.351607 1_554
In0_4 In1_4 3.351607 1_555
In0_5 In0_7 3.339273 1_555
In0_5 In0_7 3.339273 1_545
In0_5 In1_1 3.351602 1_555
In0_5 In2_6 3.351602 1_545
In0_5 In1_3 3.351605 1_545
In0_5 In2_2 3.351606 1_545
In0_5 In2_4 3.351607 1_555
In0_5 In1_5 3.351607 1_555
In0_6 In1_2 3.351602 1_555
In0_6 In2_5 3.351602 1_554
In0_6 In1_0 3.351605 1_555
In0_6 In2_1 3.351606 1_554
In0_6 In2_7 3.351607 1_554
In0_6 In1_6 3.351607 1_555
In0_7 In1_3 3.351602 1_555
In0_7 In2_4 3.351602 1_555
In0_7 In1_1 3.351605 1_555
In0_7 In2_0 3.351606 1_555
In0_7 In2_6 3.351607 1_555
In0_7 In1_7 3.351607 1_555
In1_0 In2_6 3.337447 1_545
In1_0 In2_4 3.337455 1_555
In1_0 In2_2 3.337456 1_545
In1_0 In1_2 3.339273 1_555
In1_0 In1_2 3.339273 1_545
In1_0 In1_4 3.339274 1_555
In1_0 In1_4 3.339274 1_455
In1_0 In1_6 3.339274 1_555
In1_0 In1_6 3.339274 1_445
In1_1 In2_7 3.337447 1_545
In1_1 In2_5 3.337455 1_555
In1_1 In2_3 3.337456 1_545
In1_1 In1_3 3.339273 1_555
In1_1 In1_3 3.339273 1_545
In1_1 In1_5 3.339274 1_455
In1_1 In1_5 3.339274 1_555
In1_1 In1_7 3.339274 1_555
In1_1 In1_7 3.339274 1_445
In1_2 In2_4 3.337447 1_555
In1_2 In2_6 3.337455 1_555
In1_2 In2_0 3.337456 1_555
In1_2 In1_6 3.339274 1_455
In1_2 In1_6 3.339274 1_555
In1_2 In1_4 3.339274 1_455
In1_2 In1_4 3.339274 1_565
In1_3 In2_5 3.337447 1_555
In1_3 In2_7 3.337455 1_555
In1_3 In2_1 3.337456 1_555
In1_3 In1_7 3.339274 1_555
In1_3 In1_7 3.339274 1_455
In1_3 In1_5 3.339274 1_455
In1_3 In1_5 3.339274 1_565
In1_4 In2_2 3.337447 1_645
In1_4 In2_0 3.337455 1_655
In1_4 In2_6 3.337456 1_545
In1_4 In1_6 3.339273 1_555
In1_4 In1_6 3.339273 1_545
In1_5 In2_3 3.337447 1_645
In1_5 In2_1 3.337455 1_655
In1_5 In2_7 3.337456 1_545
In1_5 In1_7 3.339273 1_555
In1_5 In1_7 3.339273 1_545
In1_6 In2_0 3.337447 1_655
In1_6 In2_2 3.337455 1_655
In1_6 In2_4 3.337456 1_555
In1_7 In2_1 3.337447 1_655
In1_7 In2_3 3.337455 1_655
In1_7 In2_5 3.337456 1_555
In2_0 In2_2 3.339273 1_555
In2_0 In2_2 3.339273 1_545
In2_0 In2_4 3.339274 1_555
In2_0 In2_4 3.339274 1_455
In2_0 In2_6 3.339274 1_445
In2_0 In2_6 3.339274 1_555
In2_1 In2_3 3.339273 1_545
In2_1 In2_3 3.339273 1_555
In2_1 In2_5 3.339274 1_455
In2_1 In2_5 3.339274 1_555
In2_1 In2_7 3.339274 1_555
In2_1 In2_7 3.339274 1_445
In2_2 In2_6 3.339274 1_455
In2_2 In2_6 3.339274 1_555
In2_2 In2_4 3.339274 1_455
In2_2 In2_4 3.339274 1_565
In2_3 In2_7 3.339274 1_455
In2_3 In2_7 3.339274 1_555
In2_3 In2_5 3.339274 1_565
In2_3 In2_5 3.339274 1_455
In2_4 In2_6 3.339273 1_555
In2_4 In2_6 3.339273 1_545
In2_5 In2_7 3.339273 1_545
In2_5 In2_7 3.339273 1_555
