# generated using pymatgen
data_Ca4Mn4O11
_symmetry_space_group_name_H-M   'P 1'
_cell_length_a   5.43184297
_cell_length_b   5.43184297
_cell_length_c   7.63429000
_cell_angle_alpha   90.00000000
_cell_angle_beta   90.00000000
_cell_angle_gamma   90.00000000
_symmetry_Int_Tables_number   1
_chemical_formula_structural   Ca4Mn4O11
_chemical_formula_sum   'Ca4 Mn4 O11'
_cell_volume   225.24910101
_cell_formula_units_Z   1
loop_
 _symmetry_equiv_pos_site_id
 _symmetry_equiv_pos_as_xyz
  1  'x, y, z'
loop_
 _atom_site_type_symbol
 _atom_site_label
 _atom_site_symmetry_multiplicity
 _atom_site_fract_x
 _atom_site_fract_y
 _atom_site_fract_z
 _atom_site_occupancy
  Ca  Ca0  1  0.50000000  0.00000000  0.75000000  1
  Ca  Ca1  1  0.50000000  0.00000000  0.25000000  1
  Ca  Ca2  1  0.00000000  0.50000000  0.75000000  1
  Ca  Ca3  1  0.00000000  0.50000000  0.25000000  1
  Mn  Mn0  1  0.00000000  0.00000000  0.00557400  1
  Mn  Mn1  1  0.00000000  0.00000000  0.49442600  1
  Mn  Mn2  1  0.50000000  0.50000000  0.99282700  1
  Mn  Mn3  1  0.50000000  0.50000000  0.50717300  1
  O  O0  1  0.00000000  0.00000000  0.25000000  1
  O  O1  1  0.50000000  0.50000000  0.75000000  1
  O  O2  1  0.50000000  0.50000000  0.25000000  1
  O  O3  1  0.75477100  0.75477100  0.97710700  1
  O  O4  1  0.75477100  0.75477100  0.52289300  1
  O  O5  1  0.24522900  0.24522900  0.97710700  1
  O  O6  1  0.24522900  0.24522900  0.52289300  1
  O  O7  1  0.75477100  0.24522900  0.97710700  1
  O  O8  1  0.75477100  0.24522900  0.52289300  1
  O  O9  1  0.24522900  0.75477100  0.97710700  1
  O  O10  1  0.24522900  0.75477100  0.52289300  1
loop_
_geom_bond_atom_site_label_1
_geom_bond_atom_site_label_2
_geom_bond_distance
_geom_bond_site_symmetry_2
Ca0 O5 2.587571 1_555
Ca0 O7 2.587571 1_555
Ca0 O9 2.587571 1_545
Ca0 O3 2.587571 1_545
Ca0 O8 2.587571 1_555
Ca0 O4 2.587571 1_545
Ca0 O10 2.587571 1_545
Ca0 O6 2.587571 1_555
Ca0 O1 2.715921 1_555
Ca0 O1 2.715921 1_545
Ca1 O0 2.715921 1_655
Ca1 O2 2.715921 1_555
Ca1 O0 2.715921 1_555
Ca1 O2 2.715921 1_545
Ca1 O8 2.833687 1_555
Ca1 O4 2.833687 1_545
Ca1 O10 2.833687 1_545
Ca1 O6 2.833687 1_555
Ca1 O9 2.833687 1_544
Ca1 O3 2.833687 1_544
Ca1 O5 2.833687 1_554
Ca1 O7 2.833687 1_554
Ca2 O5 2.587571 1_555
Ca2 O3 2.587571 1_455
Ca2 O9 2.587571 1_555
Ca2 O7 2.587571 1_455
Ca2 O10 2.587571 1_555
Ca2 O6 2.587571 1_555
Ca2 O4 2.587571 1_455
Ca2 O8 2.587571 1_455
Ca2 O1 2.715921 1_455
Ca2 O1 2.715921 1_555
Ca3 O0 2.715921 1_565
Ca3 O2 2.715921 1_455
Ca3 O2 2.715921 1_555
Ca3 O0 2.715921 1_555
Ca3 O8 2.833687 1_455
Ca3 O10 2.833687 1_555
Ca3 O6 2.833687 1_555
Ca3 O4 2.833687 1_455
Ca3 O9 2.833687 1_554
Ca3 O5 2.833687 1_554
Ca3 O7 2.833687 1_454
Ca3 O3 2.833687 1_454
Mn0 O0 1.866019 1_555
Mn0 O5 1.896291 1_554
Mn0 O7 1.896291 1_454
Mn0 O9 1.896291 1_544
Mn0 O3 1.896291 1_444
Mn1 O0 1.866019 1_555
Mn1 O8 1.896291 1_455
Mn1 O10 1.896291 1_545
Mn1 O6 1.896291 1_555
Mn1 O4 1.896291 1_445
Mn2 O1 1.853812 1_555
Mn2 O7 1.960772 1_555
Mn2 O9 1.960772 1_555
Mn2 O5 1.960772 1_555
Mn2 O3 1.960772 1_555
Mn2 O2 1.963333 1_556
Mn3 O1 1.853812 1_555
Mn3 O4 1.960772 1_555
Mn3 O8 1.960772 1_555
Mn3 O10 1.960772 1_555
Mn3 O6 1.960772 1_555
Mn3 O2 1.963333 1_555
