# generated using pymatgen
data_U3As2Se
_symmetry_space_group_name_H-M   'P 1'
_cell_length_a   4.97112205
_cell_length_b   4.97112205
_cell_length_c   6.11044800
_cell_angle_alpha   90.00000000
_cell_angle_beta   90.00000000
_cell_angle_gamma   120.00000072
_symmetry_Int_Tables_number   1
_chemical_formula_structural   U3As2Se
_chemical_formula_sum   'U3 As2 Se1'
_cell_volume   130.77132793
_cell_formula_units_Z   1
loop_
 _symmetry_equiv_pos_site_id
 _symmetry_equiv_pos_as_xyz
  1  'x, y, z'
loop_
 _atom_site_type_symbol
 _atom_site_label
 _atom_site_symmetry_multiplicity
 _atom_site_fract_x
 _atom_site_fract_y
 _atom_site_fract_z
 _atom_site_occupancy
  U  U0  1  0.00000000  0.00000000  0.50000000  1
  U  U1  1  0.66666700  0.33333300  0.82986600  1
  U  U2  1  0.33333300  0.66666700  0.17013400  1
  As  As0  1  0.66666700  0.33333300  0.33121200  1
  As  As1  1  0.33333300  0.66666700  0.66878800  1
  Se  Se0  1  0.00000000  0.00000000  0.00000000  1
loop_
_geom_bond_atom_site_label_1
_geom_bond_atom_site_label_2
_geom_bond_distance
_geom_bond_site_symmetry_2
As0 U2 3.034156 1_545
As0 U2 3.034156 1_655
As0 U2 3.034164 1_555
As0 U1 3.046999 1_555
As0 U0 3.049764 1_655
As0 U0 3.049768 1_555
As0 U0 3.049768 1_665
As0 U1 3.063449 1_554
As1 U1 3.034156 1_455
As1 U1 3.034156 1_565
As1 U1 3.034164 1_555
As1 U2 3.046999 1_555
As1 U0 3.049764 1_565
As1 U0 3.049768 1_555
As1 U0 3.049768 1_665
As1 U2 3.063449 1_556
Se0 U2 3.052555 1_545
Se0 U1 3.052555 1_454
Se0 U2 3.052559 1_555
Se0 U2 3.052559 1_445
Se0 U1 3.052559 1_554
Se0 U1 3.052559 1_444
Se0 U0 3.055224 1_555
Se0 U0 3.055224 1_554
