# generated using pymatgen
data_MnNiGe
_symmetry_space_group_name_H-M   'P 1'
_cell_length_a   3.94323753
_cell_length_b   3.94323753
_cell_length_c   3.94323753
_cell_angle_alpha   60.00000000
_cell_angle_beta   60.00000000
_cell_angle_gamma   60.00000000
_symmetry_Int_Tables_number   1
_chemical_formula_structural   MnNiGe
_chemical_formula_sum   'Mn1 Ni1 Ge1'
_cell_volume   43.35546207
_cell_formula_units_Z   1
loop_
 _symmetry_equiv_pos_site_id
 _symmetry_equiv_pos_as_xyz
  1  'x, y, z'
loop_
 _atom_site_type_symbol
 _atom_site_label
 _atom_site_symmetry_multiplicity
 _atom_site_fract_x
 _atom_site_fract_y
 _atom_site_fract_z
 _atom_site_occupancy
  Mn  Mn0  1  0.00000000  0.00000000  0.00000000  1
  Ni  Ni0  1  0.25000000  0.25000000  0.25000000  1
  Ge  Ge0  1  0.50000000  0.50000000  0.50000000  1
loop_
_geom_bond_atom_site_label_1
_geom_bond_atom_site_label_2
_geom_bond_distance
_geom_bond_site_symmetry_2
Mn0 Ni0 2.414730 1_455
Mn0 Ni0 2.414730 1_545
Mn0 Ni0 2.414730 1_555
Mn0 Ni0 2.414730 1_554
Ge0 Ni0 2.414730 1_655
Ge0 Ni0 2.414730 1_555
Ge0 Ni0 2.414730 1_565
Ge0 Ni0 2.414730 1_556
Ge0 Mn0 2.788290 1_565
Ge0 Mn0 2.788290 1_566
Ge0 Mn0 2.788290 1_655
Ge0 Mn0 2.788290 1_665
Ge0 Mn0 2.788290 1_656
Ge0 Mn0 2.788290 1_556
