# generated using pymatgen
data_SrBeB2O5
_symmetry_space_group_name_H-M   'P 1'
_cell_length_a   3.88849100
_cell_length_b   5.27557000
_cell_length_c   17.74481182
_cell_angle_alpha   80.52320276
_cell_angle_beta   90.00000000
_cell_angle_gamma   90.00000000
_symmetry_Int_Tables_number   1
_chemical_formula_structural   SrBeB2O5
_chemical_formula_sum   'Sr4 Be4 B8 O20'
_cell_volume   359.04920857
_cell_formula_units_Z   4
loop_
 _symmetry_equiv_pos_site_id
 _symmetry_equiv_pos_as_xyz
  1  'x, y, z'
loop_
 _atom_site_type_symbol
 _atom_site_label
 _atom_site_symmetry_multiplicity
 _atom_site_fract_x
 _atom_site_fract_y
 _atom_site_fract_z
 _atom_site_occupancy
  Sr  Sr0  1  0.64692000  0.78407800  0.92828400  1
  Sr  Sr1  1  0.85308000  0.78407800  0.42828400  1
  Sr  Sr2  1  0.35308000  0.21592200  0.07171600  1
  Sr  Sr3  1  0.14692000  0.21592200  0.57171600  1
  Be  Be0  1  0.76318600  0.89202000  0.71368800  1
  Be  Be1  1  0.73681400  0.89202000  0.21368800  1
  Be  Be2  1  0.23681400  0.10798000  0.28631200  1
  Be  Be3  1  0.26318600  0.10798000  0.78631200  1
  B  B0  1  0.01157400  0.29756200  0.90064400  1
  B  B1  1  0.48842600  0.29756200  0.40064400  1
  B  B2  1  0.98842600  0.70243800  0.09935600  1
  B  B3  1  0.51157400  0.70243800  0.59935600  1
  B  B4  1  0.27866900  0.59709200  0.78558900  1
  B  B5  1  0.22133100  0.59709200  0.28558900  1
  B  B6  1  0.72133100  0.40290800  0.21441100  1
  B  B7  1  0.77866900  0.40290800  0.71441100  1
  O  O0  1  0.12906500  0.54091900  0.86464700  1
  O  O1  1  0.37093500  0.54091900  0.36464700  1
  O  O2  1  0.87093500  0.45908100  0.13535300  1
  O  O3  1  0.62906500  0.45908100  0.63535300  1
  O  O4  1  0.46658800  0.84090800  0.77956700  1
  O  O5  1  0.03341200  0.84090800  0.27956700  1
  O  O6  1  0.53341200  0.15909200  0.22043300  1
  O  O7  1  0.96658800  0.15909200  0.72043300  1
  O  O8  1  0.11677700  0.08171800  0.87257800  1
  O  O9  1  0.38322300  0.08171800  0.37257800  1
  O  O10  1  0.88322300  0.91828200  0.12742200  1
  O  O11  1  0.61677700  0.91828200  0.62742200  1
  O  O12  1  0.00111400  0.62529600  0.72628600  1
  O  O13  1  0.49888600  0.62529600  0.22628600  1
  O  O14  1  0.99888600  0.37470400  0.27371400  1
  O  O15  1  0.50111400  0.37470400  0.77371400  1
  O  O16  1  0.80596500  0.28286700  0.96373100  1
  O  O17  1  0.69403500  0.28286700  0.46373100  1
  O  O18  1  0.19403500  0.71713300  0.03626900  1
  O  O19  1  0.30596500  0.71713300  0.53626900  1
loop_
_geom_bond_atom_site_label_1
_geom_bond_atom_site_label_2
_geom_bond_distance
_geom_bond_site_symmetry_2
Be0 O11 1.617634 1_555
Be0 O4 1.632678 1_555
Be0 O7 1.637248 1_565
Be0 O12 1.668035 1_655
Be1 O10 1.617634 1_555
Be1 O5 1.632678 1_655
Be1 O6 1.637248 1_565
Be1 O13 1.668035 1_555
Be2 O9 1.617634 1_555
Be2 O6 1.632678 1_555
Be2 O5 1.637248 1_545
Be2 O14 1.668035 1_455
Be3 O8 1.617634 1_555
Be3 O7 1.632678 1_455
Be3 O4 1.637248 1_545
Be3 O15 1.668035 1_555
B0 O16 1.367425 1_455
B0 O8 1.377955 1_555
B0 O0 1.412429 1_555
B1 O17 1.367425 1_555
B1 O9 1.377955 1_555
B1 O1 1.412429 1_555
B2 O18 1.367425 1_655
B2 O10 1.377955 1_555
B2 O2 1.412429 1_555
B3 O19 1.367425 1_555
B3 O11 1.377955 1_555
B3 O3 1.412429 1_555
B4 O4 1.467855 1_555
B4 O12 1.497592 1_555
B4 O15 1.500149 1_555
B4 O0 1.502457 1_555
B5 O5 1.467855 1_555
B5 O13 1.497592 1_555
B5 O14 1.500149 1_455
B5 O1 1.502457 1_555
B6 O6 1.467855 1_555
B6 O14 1.497592 1_555
B6 O13 1.500149 1_555
B6 O2 1.502457 1_555
B7 O7 1.467855 1_555
B7 O15 1.497592 1_555
B7 O12 1.500149 1_655
B7 O3 1.502457 1_555
O0 Sr0 2.629198 1_455
O0 Sr0 2.729951 1_555
O1 Sr1 2.629198 1_555
O1 Sr1 2.729951 1_455
O2 Sr2 2.629198 1_655
O2 Sr2 2.729951 1_555
O3 Sr3 2.629198 1_555
O3 Sr3 2.729951 1_655
O4 Sr0 2.699101 1_555
O5 Sr1 2.699101 1_455
O6 Sr2 2.699101 1_555
O7 Sr3 2.699101 1_655
O8 Sr0 2.503927 1_445
O8 Sr0 2.679775 1_545
O9 Sr1 2.503927 1_545
O9 Sr1 2.679775 1_445
O10 Sr2 2.503927 1_665
O10 Sr2 2.679775 1_565
O11 Sr3 2.503927 1_565
O11 Sr3 2.679775 1_665
O16 Sr2 2.583576 1_556
O16 Sr0 2.687394 1_555
O16 Sr2 2.845989 1_656
O16 Sr0 2.871828 1_545
O17 Sr3 2.583576 1_655
O17 Sr1 2.687394 1_555
O17 Sr3 2.845989 1_555
O17 Sr1 2.871828 1_545
O18 Sr0 2.583576 1_554
O18 Sr2 2.687394 1_555
O18 Sr0 2.845989 1_454
O18 Sr2 2.871828 1_565
O19 Sr1 2.583576 1_455
O19 Sr3 2.687394 1_555
O19 Sr1 2.845989 1_555
O19 Sr3 2.871828 1_565
