# generated using pymatgen
data_Na2OsO4
_symmetry_space_group_name_H-M   'P 1'
_cell_length_a   9.47284678
_cell_length_b   9.47289357
_cell_length_c   3.17023793
_cell_angle_alpha   89.99999937
_cell_angle_beta   90.00000250
_cell_angle_gamma   120.00269060
_symmetry_Int_Tables_number   1
_chemical_formula_structural   Na2OsO4
_chemical_formula_sum   'Na6 Os3 O12'
_cell_volume   246.36209308
_cell_formula_units_Z   3
loop_
 _symmetry_equiv_pos_site_id
 _symmetry_equiv_pos_as_xyz
  1  'x, y, z'
loop_
 _atom_site_type_symbol
 _atom_site_label
 _atom_site_symmetry_multiplicity
 _atom_site_fract_x
 _atom_site_fract_y
 _atom_site_fract_z
 _atom_site_occupancy
  Na  Na0  1  0.00001883  0.00001095  -0.00000004  1
  Na  Na1  1  0.66666945  0.33334660  0.49999986  1
  Na  Na2  1  0.33332783  0.66666190  0.49999995  1
  Na  Na3  1  0.30573916  0.30573309  0.49999988  1
  Na  Na4  1  0.69425357  0.00000470  0.49999991  1
  Na  Na5  1  -0.00001910  0.69424021  0.49999997  1
  Os  Os0  1  0.67082175  0.67084221  0.00000005  1
  Os  Os1  1  0.32916952  -0.00001275  0.00000096  1
  Os  Os2  1  0.00001199  0.32917596  0.00000091  1
  O  O0  1  0.80805343  0.80804269  0.49999993  1
  O  O1  1  0.19196650  0.99999708  0.50000017  1
  O  O2  1  0.00000160  0.19195398  0.50000014  1
  O  O3  1  0.54217819  0.54218470  0.49999989  1
  O  O4  1  0.45782259  0.00000328  0.50000022  1
  O  O5  1  0.00000294  0.45781652  0.50000018  1
  O  O6  1  0.56654185  0.78512228  -0.00000021  1
  O  O7  1  0.21488139  0.78142884  -0.00000039  1
  O  O8  1  0.21856534  0.43344467  -0.00000039  1
  O  O9  1  0.78511384  0.56656302  -0.00000010  1
  O  O10  1  0.78142093  0.21486529  -0.00000046  1
  O  O11  1  0.43345940  0.21857578  -0.00000042  1
loop_
_geom_bond_atom_site_label_1
_geom_bond_atom_site_label_2
_geom_bond_distance
_geom_bond_site_symmetry_2
Na0 O2 2.412250 1_554
Na0 O2 2.412251 1_555
Na0 O1 2.412265 1_544
Na0 O1 2.412265 1_545
Na0 O0 2.412300 1_445
Na0 O0 2.412300 1_444
Na1 O11 2.484554 1_556
Na1 O11 2.484555 1_555
Na1 O9 2.484601 1_555
Na1 O9 2.484601 1_556
Na1 O10 2.484762 1_556
Na1 O10 2.484764 1_555
Na1 O5 2.763581 1_655
Na1 O4 2.763607 1_555
Na1 O3 2.763615 1_555
Na2 O6 2.484579 1_556
Na2 O6 2.484580 1_555
Na2 O8 2.484607 1_556
Na2 O8 2.484608 1_555
Na2 O7 2.484638 1_556
Na2 O7 2.484639 1_555
Na2 O5 2.763457 1_555
Na2 O3 2.763614 1_555
Na2 O4 2.763632 1_565
Na3 O3 2.239725 1_555
Na3 O11 2.378456 1_556
Na3 O11 2.378458 1_555
Na3 O8 2.378496 1_556
Na3 O8 2.378497 1_555
Na3 O2 2.535322 1_555
Na3 O1 2.535332 1_545
Na4 O4 2.239668 1_555
Na4 O10 2.378298 1_556
Na4 O10 2.378299 1_555
Na4 O6 2.378422 1_546
Na4 O6 2.378423 1_545
Na4 O2 2.535355 1_655
Na4 O0 2.535599 1_545
Na5 O5 2.239721 1_555
Na5 O9 2.378303 1_456
Na5 O9 2.378303 1_455
Na5 O7 2.378532 1_556
Na5 O7 2.378534 1_555
Na5 O0 2.535310 1_455
Na5 O1 2.535481 1_555
O0 Os0 2.049883 1_555
O0 Os0 2.049884 1_556
O1 Os1 2.049864 1_565
O1 Os1 2.049868 1_566
O2 Os2 2.049922 1_555
O2 Os2 2.049925 1_556
O3 Os0 1.999421 1_555
O3 Os0 1.999422 1_556
O4 Os1 1.999416 1_555
O4 Os1 1.999420 1_556
O5 Os2 1.999420 1_555
O5 Os2 1.999424 1_556
O6 Os0 1.793661 1_555
O7 Os1 1.793579 1_565
O8 Os2 1.793533 1_555
O9 Os0 1.793754 1_555
O10 Os2 1.793840 1_655
O11 Os1 1.793830 1_555
