# generated using pymatgen
data_LaMgAl7Fe2
_symmetry_space_group_name_H-M   'P 1'
_cell_length_a   12.98461600
_cell_length_b   14.47813400
_cell_length_c   4.02044800
_cell_angle_alpha   90.00000000
_cell_angle_beta   90.00000000
_cell_angle_gamma   90.00000000
_symmetry_Int_Tables_number   1
_chemical_formula_structural   LaMgAl7Fe2
_chemical_formula_sum   'La4 Mg4 Al28 Fe8'
_cell_volume   755.81612262
_cell_formula_units_Z   4
loop_
 _symmetry_equiv_pos_site_id
 _symmetry_equiv_pos_as_xyz
  1  'x, y, z'
loop_
 _atom_site_type_symbol
 _atom_site_label
 _atom_site_symmetry_multiplicity
 _atom_site_fract_x
 _atom_site_fract_y
 _atom_site_fract_z
 _atom_site_occupancy
  La  La0  1  0.83960400  0.18083500  0.00000000  1
  La  La1  1  0.16039600  0.81916500  0.00000000  1
  La  La2  1  0.33960400  0.31916500  0.00000000  1
  La  La3  1  0.66039600  0.68083500  0.00000000  1
  Mg  Mg0  1  0.83228000  0.45243500  0.00000000  1
  Mg  Mg1  1  0.16772000  0.54756500  0.00000000  1
  Mg  Mg2  1  0.33228000  0.04756500  0.00000000  1
  Mg  Mg3  1  0.66772000  0.95243500  0.00000000  1
  Al  Al0  1  0.50000000  0.00000000  0.50000000  1
  Al  Al1  1  0.00000000  0.50000000  0.50000000  1
  Al  Al2  1  0.83465000  0.00529600  0.50000000  1
  Al  Al3  1  0.16535000  0.99470400  0.50000000  1
  Al  Al4  1  0.33465000  0.49470400  0.50000000  1
  Al  Al5  1  0.66535000  0.50529600  0.50000000  1
  Al  Al6  1  0.50000000  0.50000000  0.00000000  1
  Al  Al7  1  0.00000000  0.00000000  0.00000000  1
  Al  Al8  1  0.52600000  0.36704600  0.50000000  1
  Al  Al9  1  0.47400000  0.63295400  0.50000000  1
  Al  Al10  1  0.02600000  0.13295400  0.50000000  1
  Al  Al11  1  0.97400000  0.86704600  0.50000000  1
  Al  Al12  1  0.65645200  0.11996100  0.50000000  1
  Al  Al13  1  0.34354800  0.88003900  0.50000000  1
  Al  Al14  1  0.15645200  0.38003900  0.50000000  1
  Al  Al15  1  0.84354800  0.61996100  0.50000000  1
  Al  Al16  1  0.59316000  0.24472500  0.00000000  1
  Al  Al17  1  0.40684000  0.75527500  0.00000000  1
  Al  Al18  1  0.09316000  0.25527500  0.00000000  1
  Al  Al19  1  0.90684000  0.74472500  0.00000000  1
  Al  Al20  1  0.72918000  0.32743500  0.50000000  1
  Al  Al21  1  0.27082000  0.67256500  0.50000000  1
  Al  Al22  1  0.22918000  0.17256500  0.50000000  1
  Al  Al23  1  0.77082000  0.82743500  0.50000000  1
  Al  Al24  1  0.95261000  0.32214500  0.50000000  1
  Al  Al25  1  0.04739000  0.67785500  0.50000000  1
  Al  Al26  1  0.45261100  0.17785500  0.50000000  1
  Al  Al27  1  0.54739000  0.82214500  0.50000000  1
  Fe  Fe0  1  0.63946600  0.39959700  0.00000000  1
  Fe  Fe1  1  0.36053400  0.60040300  0.00000000  1
  Fe  Fe2  1  0.13946600  0.10040300  0.00000000  1
  Fe  Fe3  1  0.86053400  0.89959700  0.00000000  1
  Fe  Fe4  1  0.53379800  0.09135000  0.00000000  1
  Fe  Fe5  1  0.46620200  0.90865000  0.00000000  1
  Fe  Fe6  1  0.03379800  0.40865000  0.00000000  1
  Fe  Fe7  1  0.96620200  0.59135000  0.00000000  1
loop_
_geom_bond_atom_site_label_1
_geom_bond_atom_site_label_2
_geom_bond_distance
_geom_bond_site_symmetry_2
Al0 Fe5 2.445977 1_545
Al0 Fe5 2.445977 1_546
Al0 Fe4 2.445977 1_555
Al0 Fe4 2.445977 1_556
Al0 Al26 2.647508 1_555
Al0 Al27 2.647511 1_545
Al0 Al12 2.672710 1_555
Al0 Al13 2.672710 1_545
Al0 Mg2 3.042691 1_556
Al0 Mg2 3.042691 1_555
Al0 Mg3 3.042691 1_546
Al0 Mg3 3.042691 1_545
Al1 Fe6 2.445977 1_555
Al1 Fe6 2.445977 1_556
Al1 Fe7 2.445977 1_455
Al1 Fe7 2.445977 1_456
Al1 Al25 2.647511 1_555
Al1 Al24 2.647511 1_455
Al1 Al14 2.672710 1_555
Al1 Al15 2.672710 1_455
Al1 Mg0 3.042691 1_456
Al1 Mg1 3.042691 1_556
Al1 Mg1 3.042691 1_555
Al1 Mg0 3.042691 1_455
Al2 Fe3 2.548696 1_546
Al2 Fe3 2.548696 1_545
Al2 Al23 2.705187 1_545
Al2 Al7 2.942196 1_656
Al2 Al7 2.942196 1_655
Al2 Mg3 3.053667 1_545
Al2 Mg3 3.053667 1_546
Al2 La0 3.241025 1_555
Al2 La0 3.241025 1_556
Al3 Fe2 2.548696 1_565
Al3 Fe2 2.548696 1_566
Al3 Al7 2.942196 1_565
Al3 Al7 2.942196 1_566
Al3 Mg2 3.053667 1_565
Al3 Mg2 3.053667 1_566
Al3 La1 3.241025 1_556
Al3 La1 3.241025 1_555
Al4 Fe1 2.548696 1_556
Al4 Fe1 2.548696 1_555
Al4 Al9 2.698215 1_555
Al4 Al6 2.942196 1_555
Al4 Al6 2.942196 1_556
Al4 Mg1 3.053667 1_556
Al4 Mg1 3.053667 1_555
Al4 Al8 3.096659 1_555
Al4 La2 3.241025 1_555
Al4 La2 3.241025 1_556
Al5 Fe0 2.548696 1_556
Al5 Fe0 2.548696 1_555
Al5 Al8 2.698215 1_555
Al5 Al6 2.942196 1_556
Al5 Al6 2.942196 1_555
Al5 Mg0 3.053667 1_555
Al5 Mg0 3.053667 1_556
Al5 Al9 3.096659 1_555
Al5 La3 3.241025 1_555
Al5 La3 3.241025 1_556
Al6 Fe0 2.322175 1_555
Al6 Fe1 2.322175 1_555
Al6 Al9 2.803625 1_554
Al6 Al9 2.803625 1_555
Al6 Al8 2.803625 1_555
Al6 Al8 2.803625 1_554
Al6 La3 3.345487 1_555
Al6 La2 3.345487 1_555
Al7 Fe2 2.322175 1_555
Al7 Fe3 2.322175 1_445
Al7 La0 3.345487 1_455
Al7 La1 3.345487 1_545
Al8 Fe0 2.536484 1_556
Al8 Fe0 2.536484 1_555
Al8 La2 3.221696 1_556
Al8 La2 3.221696 1_555
Al9 Fe1 2.536484 1_556
Al9 Fe1 2.536484 1_555
Al9 La3 3.221696 1_555
Al9 La3 3.221696 1_556
Al10 Fe2 2.536484 1_556
Al10 Fe2 2.536484 1_555
Al10 Al3 2.698215 1_545
Al10 Al22 2.699828 1_555
Al10 Al7 2.803625 1_556
Al10 Al7 2.803625 1_555
Al10 Al18 2.817416 1_556
Al10 Al18 2.817416 1_555
Al10 Al24 2.900163 1_455
Al10 Al2 3.096659 1_455
Al10 La0 3.221696 1_456
Al10 La0 3.221696 1_455
Al11 Fe3 2.536484 1_555
Al11 Fe3 2.536484 1_556
Al11 Al2 2.698215 1_565
Al11 Al23 2.699828 1_555
Al11 Al7 2.803625 1_666
Al11 Al7 2.803625 1_665
Al11 Al19 2.817416 1_556
Al11 Al19 2.817416 1_555
Al11 Al25 2.900163 1_655
Al11 Al3 3.096659 1_655
Al11 La1 3.221696 1_655
Al11 La1 3.221696 1_656
Al12 Fe4 2.597886 1_556
Al12 Fe4 2.597886 1_555
Al12 Al26 2.776348 1_555
Al12 Al16 2.824764 1_555
Al12 Al16 2.824764 1_556
Al12 Al2 2.847783 1_555
Al12 Al20 3.148781 1_555
Al12 Mg3 3.153614 1_545
Al12 Mg3 3.153614 1_546
Al12 La0 3.236264 1_556
Al12 La0 3.236264 1_555
Al13 Fe5 2.597886 1_556
Al13 Fe5 2.597886 1_555
Al13 Al27 2.776361 1_555
Al13 Al17 2.824764 1_555
Al13 Al17 2.824764 1_556
Al13 Al3 2.847783 1_555
Al13 Al21 3.148781 1_555
Al13 Mg2 3.153614 1_566
Al13 Mg2 3.153614 1_565
Al13 La1 3.236264 1_555
Al13 La1 3.236264 1_556
Al14 Fe6 2.597886 1_555
Al14 Fe6 2.597886 1_556
Al14 Al24 2.776361 1_455
Al14 Al18 2.824764 1_556
Al14 Al18 2.824764 1_555
Al14 Al4 2.847783 1_555
Al14 Al22 3.148781 1_555
Al14 Mg1 3.153614 1_555
Al14 Mg1 3.153614 1_556
Al14 La2 3.236264 1_555
Al14 La2 3.236264 1_556
Al15 Fe7 2.597886 1_555
Al15 Fe7 2.597886 1_556
Al15 Al25 2.776361 1_655
Al15 Al19 2.824764 1_555
Al15 Al19 2.824764 1_556
Al15 Al5 2.847783 1_555
Al15 Al23 3.148781 1_555
Al15 Mg0 3.153614 1_555
Al15 Mg0 3.153614 1_556
Al15 La3 3.236264 1_555
Al15 La3 3.236264 1_556
Al16 Fe0 2.321474 1_555
Al16 Fe4 2.350556 1_555
Al16 Al8 2.817416 1_555
Al16 Al8 2.817416 1_554
Al16 Al26 2.882508 1_554
Al16 Al26 2.882508 1_555
Al16 Al20 2.931607 1_554
Al16 Al20 2.931607 1_555
Al16 La0 3.330993 1_555
Al16 La2 3.464241 1_555
Al17 Fe1 2.321474 1_555
Al17 Fe5 2.350556 1_555
Al17 Al9 2.817416 1_554
Al17 Al9 2.817416 1_555
Al17 Al27 2.882516 1_555
Al17 Al27 2.882516 1_554
Al17 Al21 2.931607 1_555
Al17 Al21 2.931607 1_554
Al17 La1 3.330993 1_555
Al17 La3 3.464241 1_555
Al18 Fe2 2.321474 1_555
Al18 Fe6 2.350556 1_555
Al18 Al24 2.882516 1_455
Al18 Al24 2.882516 1_454
Al18 Al22 2.931607 1_554
Al18 Al22 2.931607 1_555
Al18 La2 3.330993 1_555
Al18 La0 3.464241 1_455
Al19 Fe3 2.321474 1_555
Al19 Fe7 2.350556 1_555
Al19 Al25 2.882516 1_655
Al19 Al25 2.882516 1_654
Al19 Al23 2.931607 1_555
Al19 Al23 2.931607 1_554
Al19 La3 3.330993 1_555
Al19 La1 3.464241 1_655
Al20 Fe0 2.547458 1_555
Al20 Fe0 2.547458 1_556
Al20 Al8 2.699828 1_555
Al20 Al5 2.705187 1_555
Al20 Al24 2.902164 1_555
Al20 Mg0 3.018014 1_555
Al20 Mg0 3.018014 1_556
Al20 La0 3.256041 1_556
Al20 La0 3.256041 1_555
Al21 Fe1 2.547458 1_556
Al21 Fe1 2.547458 1_555
Al21 Al9 2.699828 1_555
Al21 Al4 2.705187 1_555
Al21 Al25 2.902164 1_555
Al21 Mg1 3.018014 1_556
Al21 Mg1 3.018014 1_555
Al21 La1 3.256041 1_555
Al21 La1 3.256041 1_556
Al22 Fe2 2.547458 1_556
Al22 Fe2 2.547458 1_555
Al22 Al3 2.705187 1_545
Al22 Al26 2.902177 1_555
Al22 Mg2 3.018014 1_555
Al22 Mg2 3.018014 1_556
Al22 La2 3.256041 1_556
Al22 La2 3.256041 1_555
Al23 Fe3 2.547458 1_555
Al23 Fe3 2.547458 1_556
Al23 Al27 2.902164 1_555
Al23 Mg3 3.018014 1_556
Al23 Mg3 3.018014 1_555
Al23 La3 3.256041 1_556
Al23 La3 3.256041 1_555
Al24 Fe6 2.592472 1_656
Al24 Fe6 2.592472 1_655
Al24 Mg0 3.168683 1_555
Al24 Mg0 3.168683 1_556
Al24 La0 3.221772 1_556
Al24 La0 3.221772 1_555
Al25 Fe7 2.592472 1_455
Al25 Fe7 2.592472 1_456
Al25 Mg1 3.168683 1_556
Al25 Mg1 3.168683 1_555
Al25 La1 3.221772 1_556
Al25 La1 3.221772 1_555
Al26 Fe4 2.592467 1_555
Al26 Fe4 2.592467 1_556
Al26 Al8 2.900159 1_555
Al26 Mg2 3.168690 1_556
Al26 Mg2 3.168690 1_555
Al26 La2 3.221778 1_556
Al26 La2 3.221778 1_555
Al27 Fe5 2.592472 1_556
Al27 Fe5 2.592472 1_555
Al27 Al9 2.900163 1_555
Al27 Mg3 3.168683 1_556
Al27 Mg3 3.168683 1_555
Al27 La3 3.221772 1_556
Al27 La3 3.221772 1_555
Fe0 Mg0 2.617883 1_555
Fe1 Mg1 2.617883 1_555
Fe2 Mg2 2.617883 1_555
Fe3 Mg3 2.617883 1_555
Fe4 Mg3 2.658742 1_545
Fe4 Mg2 2.692329 1_555
Fe4 Fe5 2.786973 1_545
Fe5 Mg2 2.658742 1_565
Fe5 Mg3 2.692329 1_555
Fe6 Mg1 2.658742 1_555
Fe6 Mg0 2.692329 1_455
Fe6 Fe7 2.786973 1_455
Fe7 Mg0 2.658742 1_555
Fe7 Mg1 2.692329 1_655
