# generated using pymatgen
data_Mn7PbO12
_symmetry_space_group_name_H-M   'P 1'
_cell_length_a   7.68714229
_cell_length_b   7.48784536
_cell_length_c   7.49606517
_cell_angle_alpha   90.02215073
_cell_angle_beta   90.01549600
_cell_angle_gamma   89.97372583
_symmetry_Int_Tables_number   1
_chemical_formula_structural   Mn7PbO12
_chemical_formula_sum   'Mn14 Pb2 O24'
_cell_volume   431.47441294
_cell_formula_units_Z   2
loop_
 _symmetry_equiv_pos_site_id
 _symmetry_equiv_pos_as_xyz
  1  'x, y, z'
loop_
 _atom_site_type_symbol
 _atom_site_label
 _atom_site_symmetry_multiplicity
 _atom_site_fract_x
 _atom_site_fract_y
 _atom_site_fract_z
 _atom_site_occupancy
  Mn  Mn0  1  0.99999400  0.50006300  0.50908100  1
  Mn  Mn1  1  0.49973200  0.99985800  0.49542300  1
  Mn  Mn2  1  0.49986900  0.50007700  0.00006900  1
  Mn  Mn3  1  0.75061800  0.74974600  0.74992100  1
  Mn  Mn4  1  0.74979900  0.24953200  0.24973000  1
  Mn  Mn5  1  0.25026600  0.75037800  0.24976300  1
  Mn  Mn6  1  0.24945800  0.25021900  0.75018000  1
  Mn  Mn7  1  0.50015000  0.00002800  0.98831400  1
  Mn  Mn8  1  0.00015600  0.50000000  0.00542600  1
  Mn  Mn9  1  0.00016500  0.00012800  0.50070300  1
  Mn  Mn10  1  0.25062300  0.24948400  0.24976300  1
  Mn  Mn11  1  0.25006900  0.74968800  0.74991800  1
  Mn  Mn12  1  0.74986100  0.25026700  0.74996200  1
  Mn  Mn13  1  0.74943500  0.75054500  0.24981300  1
  Pb  Pb0  1  0.99995700  0.00010000  0.00506000  1
  Pb  Pb1  1  0.50019800  0.50021900  0.49427700  1
  O  O0  1  0.98224400  0.68607900  0.82498400  1
  O  O1  1  0.51735500  0.18291800  0.31482600  1
  O  O2  1  0.51652500  0.81412700  0.67557300  1
  O  O3  1  0.98184900  0.31669500  0.18544500  1
  O  O4  1  0.48341700  0.18622000  0.67528200  1
  O  O5  1  0.01808400  0.68377600  0.18494500  1
  O  O6  1  0.01775100  0.31347400  0.82534600  1
  O  O7  1  0.48267800  0.81640200  0.31537200  1
  O  O8  1  0.17611300  0.98399400  0.31660100  1
  O  O9  1  0.67985900  0.50091900  0.81133200  1
  O  O10  1  0.32380700  0.51535100  0.18365000  1
  O  O11  1  0.82011700  0.99948000  0.68959600  1
  O  O12  1  0.31977300  0.49929700  0.81125100  1
  O  O13  1  0.82429800  0.01612400  0.31639400  1
  O  O14  1  0.18006200  0.00050800  0.68965200  1
  O  O15  1  0.67562500  0.48457800  0.18390200  1
  O  O16  1  0.69029200  0.17794100  0.00046900  1
  O  O17  1  0.18952600  0.67749400  0.49938700  1
  O  O18  1  0.81013900  0.32237800  0.49952600  1
  O  O19  1  0.31011600  0.82204600  0.00059700  1
  O  O20  1  0.17651600  0.31527800  0.51572700  1
  O  O21  1  0.67800800  0.81647700  0.98360200  1
  O  O22  1  0.32239700  0.18384600  0.98344400  1
  O  O23  1  0.82309900  0.68426400  0.51569400  1
loop_
_geom_bond_atom_site_label_1
_geom_bond_atom_site_label_2
_geom_bond_distance
_geom_bond_site_symmetry_2
Mn0 O23 1.937061 1_555
Mn0 O20 1.938183 1_655
Mn0 O17 1.973584 1_655
Mn0 O18 1.976594 1_555
Mn1 O7 1.929888 1_555
Mn1 O1 1.931742 1_565
Mn1 O2 1.943090 1_555
Mn1 O4 1.944022 1_565
Mn2 O15 1.933070 1_555
Mn2 O10 1.933727 1_555
Mn2 O9 1.979167 1_554
Mn2 O12 1.979631 1_554
Mn3 O21 1.905053 1_555
Mn3 O23 1.906104 1_555
Mn3 O0 1.926939 1_555
Mn3 O2 1.944246 1_555
Mn3 O9 1.995229 1_555
Mn3 O11 1.997096 1_555
Mn4 O13 1.905734 1_555
Mn4 O15 1.914618 1_555
Mn4 O3 1.915346 1_555
Mn4 O1 1.918631 1_555
Mn4 O16 1.996699 1_555
Mn4 O18 2.004459 1_555
Mn5 O8 1.906435 1_555
Mn5 O10 1.913326 1_555
Mn5 O5 1.915859 1_555
Mn5 O7 1.917893 1_555
Mn5 O19 1.997414 1_555
Mn5 O17 2.004676 1_555
Mn6 O22 1.902296 1_555
Mn6 O20 1.907961 1_555
Mn6 O6 1.927154 1_555
Mn6 O4 1.943946 1_555
Mn6 O12 1.995071 1_555
Mn6 O14 1.996675 1_555
Mn7 O21 1.938500 1_545
Mn7 O22 1.939377 1_555
Mn7 O19 1.980029 1_546
Mn7 O16 1.980166 1_556
Mn8 O5 1.929279 1_555
Mn8 O3 1.930391 1_455
Mn8 O6 1.946709 1_554
Mn8 O0 1.947062 1_454
Mn9 O8 1.936284 1_545
Mn9 O13 1.936436 1_455
Mn9 O14 1.979257 1_555
Mn9 O11 1.980310 1_445
Mn10 O10 2.127724 1_555
Mn10 O22 2.128604 1_554
Mn10 O8 2.129083 1_545
Mn10 O20 2.131104 1_555
Mn10 O1 2.165452 1_555
Mn10 O3 2.180185 1_455
Mn11 O12 2.003323 1_555
Mn11 O14 2.005133 1_565
Mn11 O17 2.008648 1_555
Mn11 O19 2.009137 1_556
Mn11 O2 2.177291 1_555
Mn11 O0 2.187216 1_455
Mn12 O11 2.005322 1_545
Mn12 O9 2.005562 1_555
Mn12 O16 2.007649 1_556
Mn12 O18 2.007969 1_555
Mn12 O4 2.176819 1_555
Mn12 O6 2.187265 1_655
Mn13 O21 2.127742 1_554
Mn13 O15 2.128923 1_555
Mn13 O13 2.129552 1_565
Mn13 O23 2.130531 1_555
Mn13 O7 2.165426 1_555
Mn13 O5 2.179593 1_655
O0 Pb0 2.714260 1_566
O1 Pb1 2.732972 1_555
O2 Pb1 2.717570 1_555
O3 Pb0 2.732196 1_555
O4 Pb1 2.718176 1_555
O5 Pb0 2.729458 1_465
O6 Pb0 2.709686 1_456
O7 Pb1 2.724684 1_555
O8 Pb0 2.701918 1_465
O9 Pb1 2.748484 1_555
O10 Pb1 2.696589 1_555
O11 Pb0 2.738873 1_566
O12 Pb1 2.751570 1_555
O13 Pb0 2.699188 1_555
O14 Pb0 2.740185 1_456
O15 Pb1 2.691955 1_555
O16 Pb0 2.727277 1_555
O17 Pb1 2.732029 1_555
O18 Pb1 2.729195 1_555
O19 Pb0 2.731360 1_465
O20 Pb1 2.852751 1_555
O21 Pb0 2.836202 1_566
O22 Pb0 2.840147 1_456
O23 Pb1 2.844105 1_555
