# generated using pymatgen
data_YFe12
_symmetry_space_group_name_H-M   'P 1'
_cell_length_a   4.69465800
_cell_length_b   6.43164758
_cell_length_c   6.43164758
_cell_angle_alpha   82.34546627
_cell_angle_beta   68.59454500
_cell_angle_gamma   68.59454500
_symmetry_Int_Tables_number   1
_chemical_formula_structural   YFe12
_chemical_formula_sum   'Y1 Fe12'
_cell_volume   168.33230102
_cell_formula_units_Z   1
loop_
 _symmetry_equiv_pos_site_id
 _symmetry_equiv_pos_as_xyz
  1  'x, y, z'
loop_
 _atom_site_type_symbol
 _atom_site_label
 _atom_site_symmetry_multiplicity
 _atom_site_fract_x
 _atom_site_fract_y
 _atom_site_fract_z
 _atom_site_occupancy
  Y  Y0  1  0.00000000  0.00000000  0.00000000  1
  Fe  Fe0  1  0.00000000  0.35778900  0.64221100  1
  Fe  Fe1  1  0.00000000  0.64221100  0.35778900  1
  Fe  Fe2  1  0.64221100  0.35778900  0.35778900  1
  Fe  Fe3  1  0.35778900  0.64221100  0.64221100  1
  Fe  Fe4  1  0.72653300  0.77346700  0.77346700  1
  Fe  Fe5  1  0.27346700  0.22653300  0.22653300  1
  Fe  Fe6  1  0.50000000  0.22653300  0.77346700  1
  Fe  Fe7  1  0.50000000  0.77346700  0.22653300  1
  Fe  Fe8  1  0.00000000  0.00000000  0.50000000  1
  Fe  Fe9  1  0.50000000  0.00000000  0.50000000  1
  Fe  Fe10  1  0.50000000  0.50000000  0.00000000  1
  Fe  Fe11  1  0.00000000  0.50000000  0.00000000  1
loop_
_geom_bond_atom_site_label_1
_geom_bond_atom_site_label_2
_geom_bond_distance
_geom_bond_site_symmetry_2
Fe0 Fe1 2.408574 1_555
Fe0 Fe10 2.587024 1_456
Fe0 Fe11 2.587024 1_556
Fe0 Fe8 2.587024 1_555
Fe0 Fe9 2.587024 1_555
Fe0 Fe6 2.597195 1_455
Fe0 Fe6 2.597195 1_555
Fe0 Fe5 2.610221 1_555
Fe0 Fe4 2.610221 1_455
Fe0 Fe2 2.900098 1_455
Fe0 Fe2 2.900098 1_555
Fe0 Fe3 2.900098 1_455
Fe0 Fe3 2.900098 1_555
Fe0 Y0 3.029868 1_556
Fe1 Fe10 2.587024 1_555
Fe1 Fe11 2.587024 1_555
Fe1 Fe9 2.587024 1_465
Fe1 Fe8 2.587024 1_565
Fe1 Fe7 2.597195 1_455
Fe1 Fe7 2.597195 1_555
Fe1 Fe5 2.610221 1_555
Fe1 Fe4 2.610221 1_455
Fe1 Fe2 2.900098 1_555
Fe1 Fe3 2.900098 1_455
Fe1 Fe2 2.900098 1_455
Fe1 Fe3 2.900098 1_555
Fe1 Y0 3.029868 1_565
Fe2 Fe3 2.408574 1_555
Fe2 Fe9 2.587024 1_555
Fe2 Fe8 2.587024 1_655
Fe2 Fe5 2.597195 1_555
Fe2 Fe5 2.597195 1_655
Fe2 Fe6 2.610221 1_555
Fe2 Fe7 2.610221 1_555
Fe2 Y0 3.029868 1_655
Fe3 Fe8 2.587024 1_565
Fe3 Fe9 2.587024 1_565
Fe3 Fe4 2.597195 1_555
Fe3 Fe4 2.597195 1_455
Fe3 Fe6 2.610221 1_555
Fe3 Fe7 2.610221 1_555
Fe3 Y0 3.029868 1_566
Fe4 Fe8 2.428785 1_665
Fe4 Fe9 2.428785 1_565
Fe4 Fe6 2.712959 1_565
Fe4 Fe7 2.712959 1_556
Fe4 Y0 3.031506 1_566
Fe4 Y0 3.031506 1_666
Fe5 Fe8 2.428785 1_555
Fe5 Fe9 2.428785 1_555
Fe5 Fe6 2.712959 1_554
Fe5 Fe7 2.712959 1_545
Fe5 Y0 3.031506 1_655
Fe5 Y0 3.031506 1_555
Fe6 Fe8 2.428785 1_655
Fe6 Fe9 2.428785 1_555
Fe6 Y0 3.031506 1_656
Fe6 Y0 3.031506 1_556
Fe7 Fe9 2.428785 1_565
Fe7 Fe8 2.428785 1_565
Fe7 Y0 3.031506 1_665
Fe7 Y0 3.031506 1_565
Fe8 Fe9 2.347329 1_555
Fe8 Fe9 2.347329 1_455
Fe8 Y0 3.215824 1_556
Fe8 Y0 3.215824 1_555
Fe9 Y0 3.215824 1_655
Fe9 Y0 3.215824 1_556
Fe10 Fe11 2.347329 1_655
Fe10 Fe11 2.347329 1_555
Fe10 Fe4 2.428785 1_554
Fe10 Fe5 2.428785 1_555
Fe10 Fe7 2.428785 1_555
Fe10 Fe6 2.428785 1_554
Fe10 Fe3 2.587024 1_554
Fe10 Fe2 2.587024 1_555
Fe10 Y0 3.215824 1_655
Fe10 Y0 3.215824 1_565
Fe11 Fe7 2.428785 1_455
Fe11 Fe4 2.428785 1_454
Fe11 Fe5 2.428785 1_555
Fe11 Fe6 2.428785 1_554
Fe11 Fe2 2.587024 1_455
Fe11 Fe3 2.587024 1_554
Fe11 Y0 3.215824 1_555
Fe11 Y0 3.215824 1_565
