# generated using pymatgen
data_Al2Fe2Bi2O9
_symmetry_space_group_name_H-M   'P 1'
_cell_length_a   5.97497300
_cell_length_b   7.95235200
_cell_length_c   8.44613400
_cell_angle_alpha   90.00000000
_cell_angle_beta   90.00000000
_cell_angle_gamma   90.00000000
_symmetry_Int_Tables_number   1
_chemical_formula_structural   Al2Fe2Bi2O9
_chemical_formula_sum   'Al4 Fe4 Bi4 O18'
_cell_volume   401.31880438
_cell_formula_units_Z   2
loop_
 _symmetry_equiv_pos_site_id
 _symmetry_equiv_pos_as_xyz
  1  'x, y, z'
loop_
 _atom_site_type_symbol
 _atom_site_label
 _atom_site_symmetry_multiplicity
 _atom_site_fract_x
 _atom_site_fract_y
 _atom_site_fract_z
 _atom_site_occupancy
  Al  Al0  1  0.50000000  0.85662800  0.15760600  1
  Al  Al1  1  0.50000000  0.14337200  0.84239400  1
  Al  Al2  1  0.50000000  0.35662800  0.34239400  1
  Al  Al3  1  0.50000000  0.64337200  0.65760600  1
  Fe  Fe0  1  0.26330200  0.00000000  0.50000000  1
  Fe  Fe1  1  0.73669800  0.50000000  0.00000000  1
  Fe  Fe2  1  0.73669800  0.00000000  0.50000000  1
  Fe  Fe3  1  0.26330200  0.50000000  0.00000000  1
  Bi  Bi0  1  0.00000000  0.68204200  0.31966200  1
  Bi  Bi1  1  0.00000000  0.31795800  0.68033800  1
  Bi  Bi2  1  0.00000000  0.18204200  0.18033800  1
  Bi  Bi3  1  0.00000000  0.81795800  0.81966200  1
  O  O0  1  0.25295000  0.87577200  0.28254700  1
  O  O1  1  0.25295000  0.12422800  0.71745300  1
  O  O2  1  0.74705000  0.37577200  0.21745300  1
  O  O3  1  0.74705000  0.62422800  0.78254700  1
  O  O4  1  0.74705000  0.12422800  0.71745300  1
  O  O5  1  0.74705000  0.87577200  0.28254700  1
  O  O6  1  0.25295000  0.62422800  0.78254700  1
  O  O7  1  0.25295000  0.37577200  0.21745300  1
  O  O8  1  0.00000000  0.65400700  0.05875500  1
  O  O9  1  0.00000000  0.34599300  0.94124500  1
  O  O10  1  0.00000000  0.15400700  0.44124500  1
  O  O11  1  0.00000000  0.84599300  0.55875500  1
  O  O12  1  0.50000000  0.50000000  0.50000000  1
  O  O13  1  0.50000000  0.00000000  0.00000000  1
  O  O14  1  0.50000000  0.64553500  0.08930800  1
  O  O15  1  0.50000000  0.35446500  0.91069200  1
  O  O16  1  0.50000000  0.14553500  0.41069200  1
  O  O17  1  0.50000000  0.85446500  0.58930800  1
loop_
_geom_bond_atom_site_label_1
_geom_bond_atom_site_label_2
_geom_bond_distance
_geom_bond_site_symmetry_2
Al0 O13 1.752689 1_565
Al0 O14 1.775034 1_555
Al0 O0 1.820904 1_555
Al0 O5 1.820904 1_555
Al1 O13 1.752689 1_556
Al1 O15 1.775034 1_555
Al1 O1 1.820904 1_555
Al1 O4 1.820904 1_555
Al2 O12 1.752689 1_555
Al2 O16 1.775034 1_555
Al2 O7 1.820904 1_555
Al2 O2 1.820904 1_555
Al3 O12 1.752689 1_555
Al3 O17 1.775034 1_555
Al3 O6 1.820904 1_555
Al3 O3 1.820904 1_555
Fe0 O16 1.977011 1_555
Fe0 O17 1.977011 1_545
Fe0 O10 2.054563 1_555
Fe0 O11 2.054563 1_545
Fe0 O1 2.086389 1_555
Fe0 O0 2.086389 1_545
Fe1 O14 1.977011 1_555
Fe1 O15 1.977011 1_554
Fe1 O8 2.054563 1_655
Fe1 O9 2.054563 1_654
Fe1 O2 2.086389 1_555
Fe1 O3 2.086389 1_554
Fe2 O16 1.977011 1_555
Fe2 O17 1.977011 1_545
Fe2 O11 2.054563 1_645
Fe2 O10 2.054563 1_655
Fe2 O4 2.086389 1_555
Fe2 O5 2.086389 1_545
Fe3 O14 1.977011 1_555
Fe3 O15 1.977011 1_554
Fe3 O8 2.054563 1_555
Fe3 O9 2.054563 1_554
Fe3 O7 2.086389 1_555
Fe3 O6 2.086389 1_554
Bi0 O0 2.180822 1_555
Bi0 O5 2.180822 1_455
Bi0 O8 2.214904 1_555
Bi0 O11 2.403728 1_555
Bi1 O4 2.180822 1_455
Bi1 O1 2.180822 1_555
Bi1 O9 2.214904 1_555
Bi1 O10 2.403728 1_555
Bi2 O2 2.180822 1_455
Bi2 O7 2.180822 1_555
Bi2 O10 2.214904 1_555
Bi2 O9 2.403728 1_554
Bi3 O3 2.180822 1_455
Bi3 O6 2.180822 1_555
Bi3 O11 2.214904 1_555
Bi3 O8 2.403728 1_556
