# generated using pymatgen
data_Sm3(MnSn)4
_symmetry_space_group_name_H-M   'P 1'
_cell_length_a   4.57422200
_cell_length_b   7.38121800
_cell_length_c   8.65984376
_cell_angle_alpha   115.22506039
_cell_angle_beta   105.31379887
_cell_angle_gamma   90.00000000
_symmetry_Int_Tables_number   1
_chemical_formula_structural   Sm3(MnSn)4
_chemical_formula_sum   'Sm3 Mn4 Sn4'
_cell_volume   252.98045918
_cell_formula_units_Z   1
loop_
 _symmetry_equiv_pos_site_id
 _symmetry_equiv_pos_as_xyz
  1  'x, y, z'
loop_
 _atom_site_type_symbol
 _atom_site_label
 _atom_site_symmetry_multiplicity
 _atom_site_fract_x
 _atom_site_fract_y
 _atom_site_fract_z
 _atom_site_occupancy
  Sm  Sm0  1  0.00000000  0.50000000  0.00000000  1
  Sm  Sm1  1  0.87268600  0.87268600  0.74537300  1
  Sm  Sm2  1  0.12731400  0.12731400  0.25462700  1
  Mn  Mn0  1  0.67366200  0.48728900  0.34732400  1
  Mn  Mn1  1  0.67366200  0.86003500  0.34732400  1
  Mn  Mn2  1  0.32633800  0.13996500  0.65267600  1
  Mn  Mn3  1  0.32633800  0.51271100  0.65267600  1
  Sn  Sn0  1  0.78379200  0.28379200  0.56758300  1
  Sn  Sn1  1  0.21620800  0.71620800  0.43241700  1
  Sn  Sn2  1  0.50000000  0.79930700  0.00000000  1
  Sn  Sn3  1  0.50000000  0.20069300  0.00000000  1
loop_
_geom_bond_atom_site_label_1
_geom_bond_atom_site_label_2
_geom_bond_distance
_geom_bond_site_symmetry_2
Sm0 Sn2 3.179884 1_555
Sm0 Sn2 3.179884 1_455
Sm0 Sn3 3.179884 1_455
Sm0 Sn3 3.179884 1_555
Sm0 Sn1 3.239996 1_555
Sm0 Sn0 3.239996 1_454
Sm1 Sn1 3.275584 1_655
Sm1 Sn1 3.275584 1_555
Sm1 Sn2 3.326440 1_556
Sm1 Sn2 3.326443 1_656
Sm1 Sn3 3.326443 1_566
Sm1 Sn3 3.326446 1_666
Sm2 Sn0 3.275584 1_455
Sm2 Sn0 3.275584 1_555
Sm2 Sn3 3.326440 1_555
Sm2 Sn3 3.326443 1_455
Sm2 Sn2 3.326443 1_545
Sm2 Sn2 3.326446 1_445
Mn0 Sn3 2.732661 1_555
Mn0 Sn1 2.744049 1_655
Mn0 Sn1 2.744053 1_555
Mn0 Sn0 2.842995 1_555
Mn0 Sm1 3.284455 1_555
Mn0 Sm2 3.327499 1_555
Mn0 Sm2 3.327502 1_655
Mn1 Sn2 2.732661 1_555
Mn1 Sn1 2.744053 1_655
Mn1 Sn1 2.744057 1_555
Mn1 Sn0 2.843001 1_565
Mn1 Sm1 3.284458 1_555
Mn1 Sm2 3.327504 1_565
Mn1 Sm2 3.327507 1_665
Mn2 Sn3 2.732661 1_556
Mn2 Sn0 2.744053 1_455
Mn2 Sn0 2.744057 1_555
Mn2 Sn1 2.843001 1_545
Mn2 Sm2 3.284458 1_555
Mn2 Sm1 3.327504 1_545
Mn2 Sm1 3.327507 1_445
Mn3 Sn2 2.732661 1_556
Mn3 Sn0 2.744049 1_455
Mn3 Sn0 2.744053 1_555
Mn3 Sn1 2.842995 1_555
Mn3 Sm2 3.284455 1_555
Mn3 Sm1 3.327499 1_555
Mn3 Sm1 3.327502 1_455
Sn2 Sn3 2.962718 1_565
