# generated using pymatgen
data_YbZnCuP2
_symmetry_space_group_name_H-M   'P 1'
_cell_length_a   3.94798089
_cell_length_b   3.94798089
_cell_length_c   6.74739400
_cell_angle_alpha   90.00000000
_cell_angle_beta   90.00000000
_cell_angle_gamma   120.00001490
_symmetry_Int_Tables_number   1
_chemical_formula_structural   YbZnCuP2
_chemical_formula_sum   'Yb1 Zn1 Cu1 P2'
_cell_volume   91.07867848
_cell_formula_units_Z   1
loop_
 _symmetry_equiv_pos_site_id
 _symmetry_equiv_pos_as_xyz
  1  'x, y, z'
loop_
 _atom_site_type_symbol
 _atom_site_label
 _atom_site_symmetry_multiplicity
 _atom_site_fract_x
 _atom_site_fract_y
 _atom_site_fract_z
 _atom_site_occupancy
  Yb  Yb0  1  0.33333300  0.66666700  0.99559000  1
  Zn  Zn0  1  0.00000000  0.00000000  0.37211100  1
  Cu  Cu0  1  0.66666700  0.33333300  0.63700000  1
  P  P0  1  0.66666700  0.33333300  0.26241900  1
  P  P1  1  0.00000000  0.00000000  0.73288000  1
loop_
_geom_bond_atom_site_label_1
_geom_bond_atom_site_label_2
_geom_bond_distance
_geom_bond_site_symmetry_2
Cu0 P1 2.369396 1_655
Cu0 P1 2.369399 1_555
Cu0 P1 2.369399 1_665
Cu0 P0 2.527446 1_555
P0 Zn0 2.396520 1_655
P0 Zn0 2.396523 1_665
P0 Zn0 2.396523 1_555
P0 Yb0 2.904642 1_544
P0 Yb0 2.904642 1_654
P0 Yb0 2.904648 1_554
P1 Zn0 2.434251 1_555
P1 Yb0 2.887498 1_545
P1 Yb0 2.887501 1_555
P1 Yb0 2.887501 1_445
