# generated using pymatgen
data_LaZnCrMoO6
_symmetry_space_group_name_H-M   'P 1'
_cell_length_a   5.42862501
_cell_length_b   5.57280300
_cell_length_c   7.98731286
_cell_angle_alpha   90.00000000
_cell_angle_beta   89.79762499
_cell_angle_gamma   90.00000000
_symmetry_Int_Tables_number   1
_chemical_formula_structural   LaZnCrMoO6
_chemical_formula_sum   'La2 Zn2 Cr2 Mo2 O12'
_cell_volume   241.63593499
_cell_formula_units_Z   2
loop_
 _symmetry_equiv_pos_site_id
 _symmetry_equiv_pos_as_xyz
  1  'x, y, z'
loop_
 _atom_site_type_symbol
 _atom_site_label
 _atom_site_symmetry_multiplicity
 _atom_site_fract_x
 _atom_site_fract_y
 _atom_site_fract_z
 _atom_site_occupancy
  La  La0  1  0.00639500  0.96012100  0.74971600  1
  La  La1  1  0.50639500  0.53987900  0.24971600  1
  Zn  Zn0  1  0.49648900  0.49984100  0.75271200  1
  Zn  Zn1  1  0.99648900  0.00015900  0.25271200  1
  Cr  Cr0  1  0.49920400  0.00469700  0.50097300  1
  Cr  Cr1  1  0.99920400  0.49530300  0.00097300  1
  Mo  Mo0  1  0.49774400  0.01295700  0.99903500  1
  Mo  Mo1  1  0.99774400  0.48704300  0.49903500  1
  O  O0  1  0.09047300  0.44818500  0.24370900  1
  O  O1  1  0.20892300  0.21716800  0.93938200  1
  O  O2  1  0.20701300  0.20382700  0.55288900  1
  O  O3  1  0.31356500  0.69439500  0.94251800  1
  O  O4  1  0.31226300  0.69201600  0.56445000  1
  O  O5  1  0.36793000  0.96840500  0.25461500  1
  O  O6  1  0.59047300  0.05181500  0.74370900  1
  O  O7  1  0.70892300  0.28283200  0.43938200  1
  O  O8  1  0.70701300  0.29617300  0.05288900  1
  O  O9  1  0.81356500  0.80560500  0.44251800  1
  O  O10  1  0.81226300  0.80798400  0.06445000  1
  O  O11  1  0.86793000  0.53159500  0.75461500  1
loop_
_geom_bond_atom_site_label_1
_geom_bond_atom_site_label_2
_geom_bond_distance
_geom_bond_site_symmetry_2
La0 O6 2.315648 1_465
La0 O2 2.343088 1_565
La0 O1 2.359559 1_565
La0 O11 2.503860 1_455
La0 O4 2.676150 1_555
La0 O3 2.713507 1_555
La0 O9 2.806419 1_455
La0 O10 2.851373 1_456
La1 O0 2.315648 1_555
La1 O8 2.343088 1_555
La1 O7 2.359559 1_555
La1 O5 2.503860 1_555
La1 O10 2.676150 1_555
La1 O9 2.713507 1_555
La1 O3 2.806419 1_554
La1 O4 2.851373 1_555
Cr0 O2 1.978581 1_555
Cr0 O7 1.984107 1_555
Cr0 O6 2.019950 1_555
Cr0 O4 2.078377 1_545
Cr0 O9 2.087022 1_545
Cr0 O5 2.104913 1_545
Cr1 O8 1.978581 1_555
Cr1 O1 1.984107 1_654
Cr1 O0 2.019950 1_655
Cr1 O10 2.078377 1_555
Cr1 O3 2.087022 1_654
Cr1 O11 2.104913 1_554
Mo0 O8 1.992518 1_556
Mo0 O1 1.996426 1_555
Mo0 O3 2.087648 1_545
Mo0 O6 2.109992 1_555
Mo0 O10 2.121161 1_546
Mo0 O5 2.171498 1_546
Mo1 O2 1.992518 1_655
Mo1 O7 1.996426 1_555
Mo1 O9 2.087648 1_555
Mo1 O0 2.109992 1_655
Mo1 O4 2.121161 1_655
Mo1 O11 2.171498 1_555
O3 Zn0 2.109350 1_555
O4 Zn0 2.102115 1_555
O5 Zn1 2.024274 1_465
O9 Zn1 2.109350 1_565
O10 Zn1 2.102115 1_565
O11 Zn0 2.024274 1_555
