# generated using pymatgen
data_CsZr6CCl15
_symmetry_space_group_name_H-M   'P 1'
_cell_length_a   9.94011900
_cell_length_b   14.24295500
_cell_length_c   18.91456400
_cell_angle_alpha   90.00000000
_cell_angle_beta   90.00000000
_cell_angle_gamma   90.00000000
_symmetry_Int_Tables_number   1
_chemical_formula_structural   CsZr6CCl15
_chemical_formula_sum   'Cs4 Zr24 C4 Cl60'
_cell_volume   2677.86094045
_cell_formula_units_Z   4
loop_
 _symmetry_equiv_pos_site_id
 _symmetry_equiv_pos_as_xyz
  1  'x, y, z'
loop_
 _atom_site_type_symbol
 _atom_site_label
 _atom_site_symmetry_multiplicity
 _atom_site_fract_x
 _atom_site_fract_y
 _atom_site_fract_z
 _atom_site_occupancy
  Cs  Cs0  1  0.82915900  0.24746900  0.75000000  1
  Cs  Cs1  1  0.17084100  0.75253100  0.25000000  1
  Cs  Cs2  1  0.82915900  0.75253100  0.75000000  1
  Cs  Cs3  1  0.17084100  0.24746900  0.25000000  1
  Zr  Zr0  1  0.11548000  0.50000000  0.75000000  1
  Zr  Zr1  1  0.88452000  0.50000000  0.25000000  1
  Zr  Zr2  1  0.07965300  0.00000000  0.11233900  1
  Zr  Zr3  1  0.92034700  0.00000000  0.88766100  1
  Zr  Zr4  1  0.07965300  0.00000000  0.38766100  1
  Zr  Zr5  1  0.92034700  0.00000000  0.61233900  1
  Zr  Zr6  1  0.34166900  0.38526300  0.66336200  1
  Zr  Zr7  1  0.65833100  0.61473700  0.33663800  1
  Zr  Zr8  1  0.34166900  0.61473700  0.83663800  1
  Zr  Zr9  1  0.65833100  0.38526300  0.33663800  1
  Zr  Zr10  1  0.65833100  0.38526300  0.16336200  1
  Zr  Zr11  1  0.34166900  0.61473700  0.66336200  1
  Zr  Zr12  1  0.65833100  0.61473700  0.16336200  1
  Zr  Zr13  1  0.34166900  0.38526300  0.83663800  1
  Zr  Zr14  1  0.57027200  0.50000000  0.75000000  1
  Zr  Zr15  1  0.42972800  0.50000000  0.25000000  1
  Zr  Zr16  1  0.15521300  0.11442800  0.52958500  1
  Zr  Zr17  1  0.84478700  0.88557200  0.47041500  1
  Zr  Zr18  1  0.15521300  0.88557200  0.97041500  1
  Zr  Zr19  1  0.84478700  0.11442800  0.47041500  1
  Zr  Zr20  1  0.84478700  0.11442800  0.02958500  1
  Zr  Zr21  1  0.15521300  0.88557200  0.52958500  1
  Zr  Zr22  1  0.84478700  0.88557200  0.02958500  1
  Zr  Zr23  1  0.15521300  0.11442800  0.97041500  1
  C  C0  1  0.00000000  0.00000000  0.50000000  1
  C  C1  1  0.00000000  0.00000000  0.00000000  1
  C  C2  1  0.34320800  0.50000000  0.75000000  1
  C  C3  1  0.65679200  0.50000000  0.25000000  1
  Cl  Cl0  1  0.81863900  0.00000000  0.75000000  1
  Cl  Cl1  1  0.18136100  0.00000000  0.25000000  1
  Cl  Cl2  1  0.84218200  0.50000000  0.75000000  1
  Cl  Cl3  1  0.15781800  0.50000000  0.25000000  1
  Cl  Cl4  1  0.34165700  0.50000000  0.56015500  1
  Cl  Cl5  1  0.65834300  0.50000000  0.43984500  1
  Cl  Cl6  1  0.34165700  0.50000000  0.93984500  1
  Cl  Cl7  1  0.65834300  0.50000000  0.06015500  1
  Cl  Cl8  1  0.00000000  0.25130600  0.50000000  1
  Cl  Cl9  1  0.00000000  0.74869400  0.50000000  1
  Cl  Cl10  1  0.00000000  0.74869400  0.00000000  1
  Cl  Cl11  1  0.00000000  0.25130600  0.00000000  1
  Cl  Cl12  1  0.35002400  0.24797500  0.75000000  1
  Cl  Cl13  1  0.64997600  0.75202500  0.25000000  1
  Cl  Cl14  1  0.35002400  0.75202500  0.75000000  1
  Cl  Cl15  1  0.64997600  0.24797500  0.25000000  1
  Cl  Cl16  1  0.33753300  0.24929600  0.56340700  1
  Cl  Cl17  1  0.66246700  0.75070400  0.43659300  1
  Cl  Cl18  1  0.33753300  0.75070400  0.93659300  1
  Cl  Cl19  1  0.66246700  0.24929600  0.43659300  1
  Cl  Cl20  1  0.66246700  0.24929600  0.06340700  1
  Cl  Cl21  1  0.33753300  0.75070400  0.56340700  1
  Cl  Cl22  1  0.66246700  0.75070400  0.06340700  1
  Cl  Cl23  1  0.33753300  0.24929600  0.93659300  1
  Cl  Cl24  1  0.08320300  0.12322300  0.65822300  1
  Cl  Cl25  1  0.91679700  0.87677700  0.34177700  1
  Cl  Cl26  1  0.08320300  0.87677700  0.84177700  1
  Cl  Cl27  1  0.91679700  0.12322300  0.34177700  1
  Cl  Cl28  1  0.91679700  0.12322300  0.15822300  1
  Cl  Cl29  1  0.08320300  0.87677700  0.65822300  1
  Cl  Cl30  1  0.91679700  0.87677700  0.15822300  1
  Cl  Cl31  1  0.08320300  0.12322300  0.84177700  1
  Cl  Cl32  1  0.08629500  0.37581000  0.65473700  1
  Cl  Cl33  1  0.91370500  0.62419000  0.34526300  1
  Cl  Cl34  1  0.08629500  0.62419000  0.84526300  1
  Cl  Cl35  1  0.91370500  0.37581000  0.34526300  1
  Cl  Cl36  1  0.91370500  0.37581000  0.15473700  1
  Cl  Cl37  1  0.08629500  0.62419000  0.65473700  1
  Cl  Cl38  1  0.91370500  0.62419000  0.15473700  1
  Cl  Cl39  1  0.08629500  0.37581000  0.84526300  1
  Cl  Cl40  1  0.34013600  0.00000000  0.56531600  1
  Cl  Cl41  1  0.65986400  0.00000000  0.43468400  1
  Cl  Cl42  1  0.34013600  0.00000000  0.93468400  1
  Cl  Cl43  1  0.65986400  0.00000000  0.06531600  1
  Cl  Cl44  1  0.59786400  0.37630200  0.65274400  1
  Cl  Cl45  1  0.40213600  0.62369800  0.34725600  1
  Cl  Cl46  1  0.59786400  0.62369800  0.84725600  1
  Cl  Cl47  1  0.40213600  0.37630200  0.34725600  1
  Cl  Cl48  1  0.40213600  0.37630200  0.15274400  1
  Cl  Cl49  1  0.59786400  0.62369800  0.65274400  1
  Cl  Cl50  1  0.40213600  0.62369800  0.15274400  1
  Cl  Cl51  1  0.59786400  0.37630200  0.84725600  1
  Cl  Cl52  1  0.26125900  0.12519800  0.09353800  1
  Cl  Cl53  1  0.73874100  0.87480200  0.90646200  1
  Cl  Cl54  1  0.26125900  0.87480200  0.40646200  1
  Cl  Cl55  1  0.73874100  0.12519800  0.90646200  1
  Cl  Cl56  1  0.73874100  0.12519800  0.59353800  1
  Cl  Cl57  1  0.26125900  0.87480200  0.09353800  1
  Cl  Cl58  1  0.73874100  0.87480200  0.59353800  1
  Cl  Cl59  1  0.26125900  0.12519800  0.40646200  1
loop_
_geom_bond_atom_site_label_1
_geom_bond_atom_site_label_2
_geom_bond_distance
_geom_bond_site_symmetry_2
C0 Zr5 2.267563 1_455
C0 Zr4 2.267563 1_555
C0 Zr21 2.312943 1_545
C0 Zr16 2.312943 1_555
C0 Zr17 2.312943 1_445
C0 Zr19 2.312943 1_455
C1 Zr3 2.267563 1_454
C1 Zr2 2.267563 1_555
C1 Zr18 2.312943 1_544
C1 Zr23 2.312943 1_554
C1 Zr22 2.312943 1_445
C1 Zr20 2.312943 1_455
C2 Zr14 2.257043 1_555
C2 Zr0 2.263643 1_555
C2 Zr8 2.314352 1_555
C2 Zr6 2.314352 1_555
C2 Zr13 2.314352 1_555
C2 Zr11 2.314352 1_555
C3 Zr15 2.257043 1_555
C3 Zr1 2.263643 1_555
C3 Zr12 2.314352 1_555
C3 Zr9 2.314352 1_555
C3 Zr7 2.314352 1_555
C3 Zr10 2.314352 1_555
Cl0 Zr3 2.793182 1_555
Cl0 Zr5 2.793182 1_555
Cl0 Cs0 3.526241 1_555
Cl0 Cs2 3.526241 1_545
Cl1 Zr4 2.793182 1_555
Cl1 Zr2 2.793182 1_555
Cl1 Cs3 3.526241 1_555
Cl1 Cs1 3.526241 1_545
Cl2 Zr14 2.702818 1_555
Cl2 Zr0 2.716615 1_655
Cl2 Cs2 3.599116 1_555
Cl2 Cs0 3.599116 1_555
Cl3 Zr15 2.702818 1_555
Cl3 Zr1 2.716615 1_455
Cl3 Cs1 3.599116 1_555
Cl3 Cs3 3.599116 1_555
Cl4 Zr11 2.545848 1_555
Cl4 Zr6 2.545848 1_555
Cl5 Zr7 2.545848 1_555
Cl5 Zr9 2.545848 1_555
Cl6 Zr13 2.545848 1_555
Cl6 Zr8 2.545848 1_555
Cl7 Zr10 2.545848 1_555
Cl7 Zr12 2.545848 1_555
Cl8 Zr16 2.548375 1_555
Cl8 Zr19 2.548375 1_455
Cl9 Zr21 2.548375 1_555
Cl9 Zr17 2.548375 1_455
Cl10 Zr18 2.548375 1_554
Cl10 Zr22 2.548375 1_455
Cl11 Zr23 2.548375 1_554
Cl11 Zr20 2.548375 1_455
Cl12 Zr13 2.552614 1_555
Cl12 Zr6 2.552614 1_555
Cl13 Zr7 2.552614 1_555
Cl13 Zr12 2.552614 1_555
Cl14 Zr11 2.552614 1_555
Cl14 Zr8 2.552614 1_555
Cl15 Zr9 2.552614 1_555
Cl15 Zr10 2.552614 1_555
Cl16 Zr6 2.706730 1_555
Cl16 Zr16 2.717269 1_555
Cl17 Zr7 2.706730 1_555
Cl17 Zr17 2.717269 1_555
Cl18 Zr8 2.706730 1_555
Cl18 Zr18 2.717269 1_555
Cl19 Zr9 2.706730 1_555
Cl19 Zr19 2.717269 1_555
Cl20 Zr10 2.706730 1_555
Cl20 Zr20 2.717269 1_555
Cl21 Zr11 2.706730 1_555
Cl21 Zr21 2.717269 1_555
Cl22 Zr12 2.706730 1_555
Cl22 Zr22 2.717269 1_555
Cl23 Zr13 2.706730 1_555
Cl23 Zr23 2.717269 1_555
Cl24 Zr16 2.539325 1_555
Cl24 Zr5 2.540469 1_455
Cl24 Cs0 3.538614 1_455
Cl25 Zr17 2.539325 1_555
Cl25 Zr4 2.540469 1_665
Cl25 Cs1 3.538614 1_655
Cl26 Zr18 2.539325 1_555
Cl26 Zr3 2.540469 1_465
Cl26 Cs2 3.538614 1_455
Cl27 Zr19 2.539325 1_555
Cl27 Zr4 2.540469 1_655
Cl27 Cs3 3.538614 1_655
Cl28 Zr20 2.539325 1_555
Cl28 Zr2 2.540469 1_655
Cl28 Cs3 3.538614 1_655
Cl29 Zr21 2.539325 1_555
Cl29 Zr5 2.540469 1_465
Cl29 Cs2 3.538614 1_455
Cl30 Zr22 2.539325 1_555
Cl30 Zr2 2.540469 1_665
Cl30 Cs1 3.538614 1_655
Cl31 Zr23 2.539325 1_555
Cl31 Zr3 2.540469 1_455
Cl31 Cs0 3.538614 1_455
Cl32 Zr0 2.541578 1_555
Cl32 Zr6 2.547245 1_555
Cl32 Cs0 3.622300 1_455
Cl33 Zr1 2.541578 1_555
Cl33 Zr7 2.547245 1_555
Cl33 Cs1 3.622300 1_655
Cl34 Zr0 2.541578 1_555
Cl34 Zr8 2.547245 1_555
Cl34 Cs2 3.622300 1_455
Cl35 Zr1 2.541578 1_555
Cl35 Zr9 2.547245 1_555
Cl35 Cs3 3.622300 1_655
Cl36 Zr1 2.541578 1_555
Cl36 Zr10 2.547245 1_555
Cl36 Cs3 3.622300 1_655
Cl37 Zr0 2.541578 1_555
Cl37 Zr11 2.547245 1_555
Cl37 Cs2 3.622300 1_455
Cl38 Zr1 2.541578 1_555
Cl38 Zr12 2.547245 1_555
Cl38 Cs1 3.622300 1_655
Cl39 Zr0 2.541578 1_555
Cl39 Zr13 2.547245 1_555
Cl39 Cs0 3.622300 1_455
Cl40 Zr16 2.547901 1_555
Cl40 Zr21 2.547901 1_545
Cl41 Zr17 2.547901 1_545
Cl41 Zr19 2.547901 1_555
Cl42 Zr18 2.547901 1_545
Cl42 Zr23 2.547901 1_555
Cl43 Zr22 2.547901 1_545
Cl43 Zr20 2.547901 1_555
Cl44 Zr6 2.557702 1_555
Cl44 Zr14 2.561877 1_555
Cl44 Cs0 3.469425 1_555
Cl45 Zr7 2.557702 1_555
Cl45 Zr15 2.561877 1_555
Cl45 Cs1 3.469425 1_555
Cl46 Zr8 2.557702 1_555
Cl46 Zr14 2.561877 1_555
Cl46 Cs2 3.469425 1_555
Cl47 Zr9 2.557702 1_555
Cl47 Zr15 2.561877 1_555
Cl47 Cs3 3.469425 1_555
Cl48 Zr10 2.557702 1_555
Cl48 Zr15 2.561877 1_555
Cl48 Cs3 3.469425 1_555
Cl49 Zr11 2.557702 1_555
Cl49 Zr14 2.561877 1_555
Cl49 Cs2 3.469425 1_555
Cl50 Zr12 2.557702 1_555
Cl50 Zr15 2.561877 1_555
Cl50 Cs1 3.469425 1_555
Cl51 Zr13 2.557702 1_555
Cl51 Zr14 2.561877 1_555
Cl51 Cs0 3.469425 1_555
Cl52 Zr23 2.560873 1_554
Cl52 Zr2 2.562210 1_555
Cl52 Cs3 3.549467 1_555
Cl53 Zr22 2.560873 1_556
Cl53 Zr3 2.562210 1_565
Cl53 Cs2 3.549467 1_555
Cl54 Zr21 2.560873 1_555
Cl54 Zr4 2.562210 1_565
Cl54 Cs1 3.549467 1_555
Cl55 Zr20 2.560873 1_556
Cl55 Zr3 2.562210 1_555
Cl55 Cs0 3.549467 1_555
Cl56 Zr19 2.560873 1_555
Cl56 Zr5 2.562210 1_555
Cl56 Cs0 3.549467 1_555
Cl57 Zr18 2.560873 1_554
Cl57 Zr2 2.562210 1_565
Cl57 Cs1 3.549467 1_555
Cl58 Zr17 2.560873 1_555
Cl58 Zr5 2.562210 1_565
Cl58 Cs2 3.549467 1_555
Cl59 Zr16 2.560873 1_555
Cl59 Zr4 2.562210 1_555
Cl59 Cs3 3.549467 1_555
