# generated using pymatgen
data_Sr4Ca4Mn5(FeO8)3
_symmetry_space_group_name_H-M   'P 1'
_cell_length_a   7.71418600
_cell_length_b   7.71453125
_cell_length_c   7.75572800
_cell_angle_alpha   89.99896568
_cell_angle_beta   89.99976360
_cell_angle_gamma   89.98530941
_symmetry_Int_Tables_number   1
_chemical_formula_structural   Sr4Ca4Mn5(FeO8)3
_chemical_formula_sum   'Sr4 Ca4 Mn5 Fe3 O24'
_cell_volume   461.55366542
_cell_formula_units_Z   1
loop_
 _symmetry_equiv_pos_site_id
 _symmetry_equiv_pos_as_xyz
  1  'x, y, z'
loop_
 _atom_site_type_symbol
 _atom_site_label
 _atom_site_symmetry_multiplicity
 _atom_site_fract_x
 _atom_site_fract_y
 _atom_site_fract_z
 _atom_site_occupancy
  Sr  Sr0  1  0.74961700  0.25034200  0.25085600  1
  Sr  Sr1  1  0.25041700  0.25037600  0.25064500  1
  Sr  Sr2  1  0.25049400  0.25035400  0.74931500  1
  Sr  Sr3  1  0.74955300  0.74962500  0.74928500  1
  Ca  Ca0  1  0.74927400  0.74944800  0.25103700  1
  Ca  Ca1  1  0.25073300  0.74944600  0.25132200  1
  Ca  Ca2  1  0.74928200  0.25054800  0.74878300  1
  Ca  Ca3  1  0.25059900  0.74947300  0.74873200  1
  Mn  Mn0  1  0.50004300  0.50128800  0.99996500  1
  Mn  Mn1  1  0.99994300  0.99884900  0.50006600  1
  Mn  Mn2  1  0.50005900  0.99858300  0.50007000  1
  Mn  Mn3  1  0.99995500  0.50142400  0.50006600  1
  Mn  Mn4  1  0.50006200  0.50118200  0.50008800  1
  Fe  Fe0  1  0.99996000  0.99865800  0.99995500  1
  Fe  Fe1  1  0.50003900  0.99866500  0.99996600  1
  Fe  Fe2  1  0.99996000  0.50128000  0.99997400  1
  O  O0  1  0.99994100  0.99453600  0.25250100  1
  O  O1  1  0.50003800  0.99474700  0.25429400  1
  O  O2  1  0.99994600  0.50520300  0.25431700  1
  O  O3  1  0.49998500  0.50610000  0.25073000  1
  O  O4  1  0.00010700  0.99869100  0.74750700  1
  O  O5  1  0.49993100  0.99876600  0.74568200  1
  O  O6  1  0.00008700  0.50121500  0.74567200  1
  O  O7  1  0.49999500  0.50089700  0.74923800  1
  O  O8  1  0.99811200  0.24834900  0.99807200  1
  O  O9  1  0.50203100  0.25266900  0.99797600  1
  O  O10  1  0.00170600  0.75161100  0.00175400  1
  O  O11  1  0.49814200  0.74716400  0.00186700  1
  O  O12  1  0.99736200  0.24957700  0.50249300  1
  O  O13  1  0.50265800  0.25029400  0.50265000  1
  O  O14  1  0.00256100  0.75046100  0.49765500  1
  O  O15  1  0.49740700  0.74976900  0.49744000  1
  O  O16  1  0.75162100  0.99871800  0.00007500  1
  O  O17  1  0.24837000  0.99510400  0.99996600  1
  O  O18  1  0.74724100  0.50127200  0.00007400  1
  O  O19  1  0.25276000  0.50514600  0.99995900  1
  O  O20  1  0.75042500  0.99929200  0.49994000  1
  O  O21  1  0.24956900  0.99410600  0.50004600  1
  O  O22  1  0.74973300  0.50076200  0.49994900  1
  O  O23  1  0.25028100  0.50600900  0.50001800  1
loop_
_geom_bond_atom_site_label_1
_geom_bond_atom_site_label_2
_geom_bond_distance
_geom_bond_site_symmetry_2
Ca0 O3 2.687813 1_555
Ca0 O1 2.697484 1_555
Ca0 O2 2.699710 1_555
Ca0 O0 2.704822 1_555
Ca0 O22 2.721637 1_555
Ca0 O15 2.725266 1_555
Ca0 O20 2.727956 1_555
Ca0 O18 2.730278 1_555
Ca0 O14 2.734276 1_655
Ca0 O16 2.736163 1_555
Ca0 O11 2.736411 1_555
Ca0 O10 2.744120 1_655
Ca1 O3 2.686912 1_555
Ca1 O23 2.692047 1_555
Ca1 O15 2.695299 1_555
Ca1 O1 2.698546 1_555
Ca1 O21 2.698852 1_555
Ca1 O2 2.701007 1_455
Ca1 O14 2.704645 1_555
Ca1 O0 2.704821 1_455
Ca1 O19 2.711617 1_554
Ca1 O11 2.717710 1_555
Ca1 O17 2.718837 1_554
Ca1 O10 2.727117 1_555
Ca2 O13 2.695108 1_555
Ca2 O12 2.703906 1_555
Ca2 O9 2.715400 1_555
Ca2 O8 2.724512 1_555
Ca2 O7 2.725111 1_555
Ca2 O22 2.729532 1_555
Ca2 O5 2.734107 1_545
Ca2 O20 2.735331 1_545
Ca2 O6 2.735924 1_655
Ca2 O4 2.741740 1_645
Ca2 O18 2.745898 1_556
Ca2 O16 2.751884 1_546
Ca3 O23 2.692340 1_555
Ca3 O21 2.698444 1_555
Ca3 O19 2.710961 1_555
Ca3 O7 2.716033 1_555
Ca3 O17 2.718056 1_555
Ca3 O5 2.720388 1_555
Ca3 O6 2.721208 1_555
Ca3 O15 2.724576 1_555
Ca3 O4 2.725531 1_555
Ca3 O14 2.730044 1_555
Ca3 O11 2.738834 1_556
Ca3 O10 2.745459 1_556
Mn0 O11 1.896929 1_556
Mn0 O18 1.906932 1_556
Mn0 O19 1.907812 1_555
Mn0 O9 1.918099 1_555
Mn0 O7 1.944573 1_555
Mn0 O3 1.945220 1_556
Mn1 O14 1.916390 1_655
Mn1 O4 1.919086 1_655
Mn1 O0 1.920336 1_555
Mn1 O20 1.924831 1_555
Mn1 O21 1.926000 1_655
Mn1 O12 1.934438 1_565
Mn2 O5 1.904901 1_555
Mn2 O1 1.906402 1_555
Mn2 O15 1.919706 1_555
Mn2 O20 1.931379 1_555
Mn2 O21 1.932644 1_555
Mn2 O13 1.942044 1_565
Mn3 O6 1.904854 1_655
Mn3 O2 1.906185 1_555
Mn3 O14 1.921405 1_655
Mn3 O22 1.930267 1_555
Mn3 O23 1.931394 1_655
Mn3 O12 1.943080 1_555
Mn4 O15 1.917946 1_555
Mn4 O22 1.926011 1_555
Mn4 O23 1.927207 1_555
Mn4 O7 1.932341 1_555
Mn4 O3 1.934324 1_555
Mn4 O13 1.935683 1_555
Fe0 O10 1.905947 1_656
Fe0 O16 1.915733 1_556
Fe0 O17 1.916470 1_655
Fe0 O8 1.926353 1_565
Fe0 O4 1.957918 1_655
Fe0 O0 1.958936 1_556
Fe1 O11 1.940327 1_556
Fe1 O16 1.940751 1_556
Fe1 O17 1.941623 1_555
Fe1 O9 1.959646 1_565
Fe1 O5 1.972158 1_555
Fe1 O1 1.972730 1_556
Fe2 O10 1.931286 1_656
Fe2 O18 1.949522 1_556
Fe2 O19 1.950382 1_655
Fe2 O8 1.951356 1_555
Fe2 O6 1.972297 1_655
Fe2 O2 1.972848 1_556
O0 Sr0 2.760715 1_565
O0 Sr1 2.762438 1_665
O1 Sr1 2.756064 1_565
O1 Sr0 2.756340 1_565
O2 Sr1 2.756235 1_655
O2 Sr0 2.756345 1_555
O3 Sr0 2.756690 1_555
O3 Sr1 2.756864 1_555
O4 Sr3 2.725761 1_455
O4 Sr2 2.739016 1_565
O5 Sr3 2.720486 1_555
O5 Sr2 2.732850 1_565
O6 Sr3 2.721497 1_455
O6 Sr2 2.734151 1_555
O7 Sr3 2.718440 1_555
O7 Sr2 2.728034 1_555
O8 Sr2 2.740966 1_655
O8 Sr0 2.741987 1_556
O8 Sr1 2.761471 1_656
O9 Sr2 2.735841 1_555
O9 Sr0 2.737649 1_556
O9 Sr1 2.758247 1_556
O10 Sr3 2.760071 1_454
O11 Sr3 2.756674 1_554
O12 Sr0 2.731558 1_555
O12 Sr2 2.734524 1_655
O12 Sr1 2.761522 1_655
O13 Sr0 2.728174 1_555
O13 Sr2 2.728324 1_555
O13 Sr1 2.757952 1_555
O14 Sr3 2.760070 1_455
O15 Sr3 2.756556 1_555
O16 Sr3 2.734290 1_554
O16 Sr0 2.747990 1_565
O17 Sr2 2.767074 1_565
O17 Sr1 2.767394 1_566
O18 Sr3 2.730238 1_554
O18 Sr0 2.744184 1_555
O19 Sr2 2.764579 1_555
O19 Sr1 2.764642 1_556
O20 Sr3 2.729363 1_555
O20 Sr0 2.735469 1_565
O21 Sr2 2.765062 1_565
O21 Sr1 2.765848 1_565
O22 Sr3 2.724980 1_555
O22 Sr0 2.732123 1_555
O23 Sr2 2.761885 1_555
O23 Sr1 2.762227 1_555
