# generated using pymatgen
data_Li3TiNi3O8
_symmetry_space_group_name_H-M   'P 1'
_cell_length_a   5.81563420
_cell_length_b   5.87060100
_cell_length_c   10.03535515
_cell_angle_alpha   88.64157280
_cell_angle_beta   106.33273585
_cell_angle_gamma   118.96438166
_symmetry_Int_Tables_number   1
_chemical_formula_structural   Li3TiNi3O8
_chemical_formula_sum   'Li6 Ti2 Ni6 O16'
_cell_volume   285.07520294
_cell_formula_units_Z   2
loop_
 _symmetry_equiv_pos_site_id
 _symmetry_equiv_pos_as_xyz
  1  'x, y, z'
loop_
 _atom_site_type_symbol
 _atom_site_label
 _atom_site_symmetry_multiplicity
 _atom_site_fract_x
 _atom_site_fract_y
 _atom_site_fract_z
 _atom_site_occupancy
  Li  Li0  1  0.50006100  0.24998400  0.75001600  1
  Li  Li1  1  0.49995700  0.74984100  0.24999100  1
  Li  Li2  1  0.49959000  0.99999600  0.49976700  1
  Li  Li3  1  0.50037700  0.49980700  0.00028500  1
  Li  Li4  1  0.49991100  0.24988300  0.24998200  1
  Li  Li5  1  0.49998600  0.74996300  0.75003400  1
  Ti  Ti0  1  0.00017800  0.00010400  0.00000000  1
  Ti  Ti1  1  0.99979500  0.49981300  0.50002500  1
  Ni  Ni0  1  0.00005900  0.25009000  0.75000600  1
  Ni  Ni1  1  0.00001300  0.24998400  0.25001600  1
  Ni  Ni2  1  0.00003200  0.75010700  0.74995100  1
  Ni  Ni3  1  0.99993400  0.74994300  0.25000500  1
  Ni  Ni4  1  0.99963600  0.99988600  0.49991200  1
  Ni  Ni5  1  0.00036900  0.50014700  0.00004600  1
  O  O0  1  0.22053100  0.84492400  0.62512300  1
  O  O1  1  0.22092400  0.34511100  0.12528400  1
  O  O2  1  0.77958600  0.65522600  0.87482500  1
  O  O3  1  0.77903600  0.15490900  0.37470400  1
  O  O4  1  0.20354100  0.08783900  0.35364900  1
  O  O5  1  0.20382100  0.58808200  0.85355100  1
  O  O6  1  0.79633900  0.41212000  0.14633200  1
  O  O7  1  0.79622700  0.91214300  0.64642900  1
  O  O8  1  0.22926800  0.13928400  0.87316400  1
  O  O9  1  0.22884400  0.63883200  0.37314200  1
  O  O10  1  0.22004500  0.36464400  0.62772600  1
  O  O11  1  0.22022300  0.86474900  0.12785200  1
  O  O12  1  0.78007600  0.13544800  0.87230100  1
  O  O13  1  0.77970900  0.63517400  0.37218800  1
  O  O14  1  0.77082500  0.36085900  0.62684600  1
  O  O15  1  0.77110800  0.86111000  0.12684900  1
loop_
_geom_bond_atom_site_label_1
_geom_bond_atom_site_label_2
_geom_bond_distance
_geom_bond_site_symmetry_2
Li0 O14 2.120124 1_555
Li0 O8 2.120147 1_555
Li0 O12 2.123062 1_555
Li0 O10 2.123576 1_555
Li0 O0 2.262639 1_545
Li0 O2 2.263086 1_555
Li1 O15 2.121456 1_555
Li1 O9 2.121461 1_555
Li1 O13 2.122109 1_555
Li1 O11 2.122778 1_555
Li1 O1 2.260394 1_555
Li1 O3 2.261853 1_565
Li2 O9 2.087691 1_555
Li2 O14 2.088699 1_565
Li2 O3 2.169087 1_565
Li2 O0 2.169826 1_555
Li2 O4 2.187363 1_565
Li2 O7 2.192258 1_555
Li3 O8 2.087487 1_554
Li3 O15 2.087968 1_555
Li3 O1 2.168561 1_555
Li3 O2 2.171347 1_554
Li3 O6 2.186136 1_555
Li3 O5 2.193732 1_554
Li4 O3 2.052631 1_555
Li4 O1 2.052891 1_555
Li4 O4 2.081230 1_555
Li4 O6 2.081410 1_555
Li4 O11 2.169816 1_545
Li4 O13 2.170798 1_555
Li5 O2 2.054079 1_555
Li5 O0 2.054746 1_555
Li5 O5 2.079210 1_555
Li5 O7 2.080256 1_555
Li5 O10 2.171372 1_555
Li5 O12 2.171965 1_565
Ni0 O7 1.883791 1_445
Ni0 O5 1.883878 1_555
Ni0 O14 1.898032 1_455
Ni0 O8 1.898068 1_555
Ni0 O10 1.898789 1_555
Ni0 O12 1.898908 1_455
Ni1 O3 1.924936 1_455
Ni1 O1 1.925016 1_555
Ni1 O4 1.934078 1_555
Ni1 O6 1.934811 1_455
Ni1 O9 2.185269 1_555
Ni1 O15 2.185534 1_445
Ni2 O0 1.924205 1_555
Ni2 O2 1.924352 1_455
Ni2 O7 1.934314 1_455
Ni2 O5 1.934476 1_555
Ni2 O14 2.186852 1_455
Ni2 O8 2.186978 1_565
Ni3 O6 1.883672 1_555
Ni3 O4 1.883879 1_665
Ni3 O15 1.897949 1_555
Ni3 O9 1.897979 1_655
Ni3 O13 1.898951 1_555
Ni3 O11 1.898959 1_655
Ni4 O4 2.043831 1_665
Ni4 O7 2.044217 1_555
Ni4 O3 2.054975 1_565
Ni4 O0 2.055870 1_655
Ni4 O13 2.102089 1_555
Ni4 O10 2.102550 1_665
Ni5 O5 2.044138 1_554
Ni5 O6 2.044493 1_455
Ni5 O1 2.054984 1_555
Ni5 O2 2.055980 1_454
Ni5 O12 2.102011 1_454
Ni5 O11 2.102017 1_555
O0 Ti1 2.005964 1_455
O1 Ti0 2.006404 1_555
O2 Ti0 2.005371 1_666
O3 Ti1 2.006145 1_555
O8 Ti0 1.978107 1_556
O9 Ti1 1.978272 1_455
O10 Ti1 1.981329 1_455
O11 Ti0 1.981997 1_565
O12 Ti0 1.981470 1_656
O13 Ti1 1.982110 1_555
O14 Ti1 1.977431 1_555
O15 Ti0 1.978060 1_665
