# generated using pymatgen
data_Fe3OF5
_symmetry_space_group_name_H-M   'P 1'
_cell_length_a   3.18182000
_cell_length_b   6.82475000
_cell_length_c   10.79074255
_cell_angle_alpha   71.61897147
_cell_angle_beta   90.00000000
_cell_angle_gamma   90.00000000
_symmetry_Int_Tables_number   1
_chemical_formula_structural   Fe3OF5
_chemical_formula_sum   'Fe6 O2 F10'
_cell_volume   222.36732059
_cell_formula_units_Z   2
loop_
 _symmetry_equiv_pos_site_id
 _symmetry_equiv_pos_as_xyz
  1  'x, y, z'
loop_
 _atom_site_type_symbol
 _atom_site_label
 _atom_site_symmetry_multiplicity
 _atom_site_fract_x
 _atom_site_fract_y
 _atom_site_fract_z
 _atom_site_occupancy
  Fe  Fe0  1  0.00000000  0.01496900  0.99552200  1
  Fe  Fe1  1  0.50000000  0.47307600  0.00292200  1
  Fe  Fe2  1  0.00000000  0.32474300  0.35277400  1
  Fe  Fe3  1  0.50000000  0.17043000  0.65833600  1
  Fe  Fe4  1  0.50000000  0.83445000  0.33161400  1
  Fe  Fe5  1  0.00000000  0.66608800  0.66915600  1
  O  O0  1  0.00000000  0.31341900  0.00291500  1
  O  O1  1  0.50000000  0.27113200  0.45726200  1
  F  F0  1  0.00000000  0.04519200  0.32626600  1
  F  F1  1  0.00000000  0.69066200  0.00254900  1
  F  F2  1  0.50000000  0.40539400  0.20415700  1
  F  F3  1  0.50000000  0.92411600  0.13423900  1
  F  F4  1  0.00000000  0.62883700  0.32958400  1
  F  F5  1  0.00000000  0.37170700  0.66909300  1
  F  F6  1  0.50000000  0.06355000  0.86020300  1
  F  F7  1  0.50000000  0.73534700  0.52945300  1
  F  F8  1  0.50000000  0.60511500  0.80784200  1
  F  F9  1  0.00000000  0.96177300  0.66611100  1
loop_
_geom_bond_atom_site_label_1
_geom_bond_atom_site_label_2
_geom_bond_distance
_geom_bond_site_symmetry_2
Fe0 O0 2.063392 1_556
Fe1 O0 1.928294 1_655
Fe1 O0 1.928294 1_555
Fe2 O1 1.917278 1_555
Fe2 O1 1.917278 1_455
Fe3 O1 2.059041 1_555
F0 Fe2 2.016419 1_555
F0 Fe4 2.133208 1_445
F0 Fe4 2.133208 1_545
F1 Fe1 2.175403 1_455
F1 Fe1 2.175403 1_555
F1 Fe0 2.190586 1_564
F2 Fe1 2.072700 1_555
F2 Fe2 2.202062 1_655
F2 Fe2 2.202062 1_555
F3 Fe4 2.022041 1_555
F3 Fe0 2.137920 1_664
F3 Fe0 2.137920 1_564
F4 Fe2 2.010530 1_555
F4 Fe4 2.126027 1_455
F4 Fe4 2.126027 1_555
F5 Fe5 2.009291 1_555
F5 Fe3 2.128846 1_555
F5 Fe3 2.128846 1_455
F6 Fe3 2.067597 1_555
F6 Fe0 2.113707 1_655
F6 Fe0 2.113707 1_555
F7 Fe4 2.025914 1_555
F7 Fe5 2.139528 1_555
F7 Fe5 2.139528 1_655
F8 Fe1 2.011708 1_556
F8 Fe5 2.133307 1_555
F8 Fe5 2.133307 1_655
F9 Fe5 2.007857 1_555
F9 Fe3 2.119092 1_465
F9 Fe3 2.119092 1_565
