# generated using pymatgen
data_Pr(Co2B)6
_symmetry_space_group_name_H-M   'P 1'
_cell_length_a   5.95972053
_cell_length_b   5.95971848
_cell_length_c   5.95972234
_cell_angle_alpha   104.10311667
_cell_angle_beta   104.10305978
_cell_angle_gamma   104.10315989
_symmetry_Int_Tables_number   1
_chemical_formula_structural   Pr(Co2B)6
_chemical_formula_sum   'Pr1 Co12 B6'
_cell_volume   188.49450385
_cell_formula_units_Z   1
loop_
 _symmetry_equiv_pos_site_id
 _symmetry_equiv_pos_as_xyz
  1  'x, y, z'
loop_
 _atom_site_type_symbol
 _atom_site_label
 _atom_site_symmetry_multiplicity
 _atom_site_fract_x
 _atom_site_fract_y
 _atom_site_fract_z
 _atom_site_occupancy
  Pr  Pr0  1  -0.00000000  -0.00000000  0.00000000  1
  Co  Co0  1  0.13368373  0.86631827  0.50000000  1
  Co  Co1  1  0.49999900  0.13368073  0.86631527  1
  Co  Co2  1  0.86631827  0.50000000  0.13368373  1
  Co  Co3  1  0.50000100  0.86631927  0.13368473  1
  Co  Co4  1  0.13368173  0.50000000  0.86631627  1
  Co  Co5  1  0.86631627  0.13368173  0.50000000  1
  Co  Co6  1  0.53877975  0.81355728  0.53877975  1
  Co  Co7  1  0.53877875  0.53877875  0.81355328  1
  Co  Co8  1  0.81355528  0.53877975  0.53877975  1
  Co  Co9  1  0.46122025  0.18644272  0.46122025  1
  Co  Co10  1  0.46122125  0.46122125  0.18644672  1
  Co  Co11  1  0.18644472  0.46122025  0.46122025  1
  B  B0  1  0.77047231  0.32768704  0.77047131  1
  B  B1  1  0.77047331  0.77047531  0.32769004  1
  B  B2  1  0.32768904  0.77047531  0.77047231  1
  B  B3  1  0.22952769  0.67231296  0.22952869  1
  B  B4  1  0.22952669  0.22952469  0.67230996  1
  B  B5  1  0.67231096  0.22952469  0.22952769  1
loop_
_geom_bond_atom_site_label_1
_geom_bond_atom_site_label_2
_geom_bond_distance
_geom_bond_site_symmetry_2
Co0 Pr0 3.233944 1_565
Co0 Pr0 3.233948 1_566
Co1 Pr0 3.233944 1_556
Co1 Pr0 3.233947 1_656
Co2 Pr0 3.233942 1_655
Co2 Pr0 3.233946 1_665
Co3 Pr0 3.233944 1_665
Co3 Pr0 3.233947 1_565
Co4 Pr0 3.233942 1_566
Co4 Pr0 3.233946 1_556
Co5 Pr0 3.233944 1_656
Co5 Pr0 3.233948 1_655
Co6 Pr0 3.112369 1_666
Co7 Pr0 3.112371 1_666
Co8 Pr0 3.112366 1_666
Co9 Pr0 3.112369 1_555
Co10 Pr0 3.112371 1_555
Co11 Pr0 3.112366 1_555
B0 Co4 2.023545 1_655
B0 Co2 2.023561 1_556
B0 Co5 2.030698 1_555
B0 Co1 2.030708 1_555
B0 Co9 2.082003 1_555
B0 Co8 2.101717 1_555
B0 Co7 2.101722 1_555
B0 Pr0 3.041089 1_656
B1 Co5 2.023527 1_565
B1 Co0 2.023549 1_655
B1 Co3 2.030704 1_555
B1 Co2 2.030722 1_555
B1 Co10 2.082011 1_555
B1 Co6 2.101712 1_555
B1 Co8 2.101723 1_555
B1 Pr0 3.041087 1_665
B2 Co1 2.023521 1_565
B2 Co3 2.023562 1_556
B2 Co0 2.030700 1_555
B2 Co4 2.030720 1_555
B2 Co11 2.082015 1_555
B2 Co6 2.101712 1_555
B2 Co7 2.101727 1_555
B2 Pr0 3.041086 1_566
B3 Co2 2.023545 1_455
B3 Co4 2.023561 1_554
B3 Co0 2.030698 1_555
B3 Co3 2.030708 1_555
B3 Co6 2.082003 1_555
B3 Co11 2.101717 1_555
B3 Co10 2.101722 1_555
B3 Pr0 3.041089 1_565
B4 Co0 2.023527 1_545
B4 Co5 2.023549 1_455
B4 Co1 2.030704 1_555
B4 Co4 2.030722 1_555
B4 Co7 2.082011 1_555
B4 Co9 2.101712 1_555
B4 Co11 2.101723 1_555
B4 Pr0 3.041087 1_556
B5 Co3 2.023521 1_545
B5 Co1 2.023562 1_554
B5 Co5 2.030700 1_555
B5 Co2 2.030720 1_555
B5 Co8 2.082015 1_555
B5 Co9 2.101712 1_555
B5 Co10 2.101727 1_555
B5 Pr0 3.041086 1_655
