# generated using pymatgen
data_Ba4GeAs4
_symmetry_space_group_name_H-M   'P 1'
_cell_length_a   13.51874360
_cell_length_b   13.51874360
_cell_length_c   13.51874360
_cell_angle_alpha   90.00000000
_cell_angle_beta   90.00000000
_cell_angle_gamma   90.00000000
_symmetry_Int_Tables_number   1
_chemical_formula_structural   Ba4GeAs4
_chemical_formula_sum   'Ba32 Ge8 As32'
_cell_volume   2470.63729845
_cell_formula_units_Z   8
loop_
 _symmetry_equiv_pos_site_id
 _symmetry_equiv_pos_as_xyz
  1  'x, y, z'
loop_
 _atom_site_type_symbol
 _atom_site_label
 _atom_site_symmetry_multiplicity
 _atom_site_fract_x
 _atom_site_fract_y
 _atom_site_fract_z
 _atom_site_occupancy
  Ba  Ba0  1  0.14357706  0.14357706  0.14357706  1
  Ba  Ba1  1  0.35642294  0.64357706  0.35642294  1
  Ba  Ba2  1  0.64357706  0.35642294  0.35642294  1
  Ba  Ba3  1  0.35642294  0.35642294  0.64357706  1
  Ba  Ba4  1  0.14357706  0.85642294  0.85642294  1
  Ba  Ba5  1  0.85642294  0.85642294  0.14357706  1
  Ba  Ba6  1  0.85642294  0.14357706  0.85642294  1
  Ba  Ba7  1  0.64357706  0.64357706  0.64357706  1
  Ba  Ba8  1  0.90292499  0.86868274  0.64359907  1
  Ba  Ba9  1  0.90292499  0.13131726  0.35640093  1
  Ba  Ba10  1  0.86868274  0.64359907  0.90292499  1
  Ba  Ba11  1  0.13131726  0.64359907  0.09707501  1
  Ba  Ba12  1  0.64359907  0.90292499  0.86868274  1
  Ba  Ba13  1  0.35640093  0.09707501  0.86868274  1
  Ba  Ba14  1  0.59707501  0.85640093  0.36868274  1
  Ba  Ba15  1  0.59707501  0.14359907  0.63131726  1
  Ba  Ba16  1  0.40292499  0.85640093  0.63131726  1
  Ba  Ba17  1  0.14359907  0.63131726  0.59707501  1
  Ba  Ba18  1  0.63131726  0.40292499  0.85640093  1
  Ba  Ba19  1  0.63131726  0.59707501  0.14359907  1
  Ba  Ba20  1  0.85640093  0.36868274  0.59707501  1
  Ba  Ba21  1  0.36868274  0.59707501  0.85640093  1
  Ba  Ba22  1  0.85640093  0.63131726  0.40292499  1
  Ba  Ba23  1  0.14359907  0.36868274  0.40292499  1
  Ba  Ba24  1  0.36868274  0.40292499  0.14359907  1
  Ba  Ba25  1  0.35640093  0.90292499  0.13131726  1
  Ba  Ba26  1  0.64359907  0.09707501  0.13131726  1
  Ba  Ba27  1  0.86868274  0.35640093  0.09707501  1
  Ba  Ba28  1  0.13131726  0.35640093  0.90292499  1
  Ba  Ba29  1  0.09707501  0.13131726  0.64359907  1
  Ba  Ba30  1  0.09707501  0.86868274  0.35640093  1
  Ba  Ba31  1  0.40292499  0.14359907  0.36868274  1
  Ge  Ge0  1  0.00000000  0.00000000  -0.00000000  1
  Ge  Ge1  1  0.75000000  0.00000000  0.50000000  1
  Ge  Ge2  1  0.50000000  0.75000000  -0.00000000  1
  Ge  Ge3  1  0.50000000  0.25000000  -0.00000000  1
  Ge  Ge4  1  0.00000000  0.50000000  0.25000000  1
  Ge  Ge5  1  0.00000000  0.50000000  0.75000000  1
  Ge  Ge6  1  0.25000000  0.00000000  0.50000000  1
  Ge  Ge7  1  0.50000000  0.50000000  0.50000000  1
  As  As0  1  0.60486984  0.85010119  0.11427599  1
  As  As1  1  0.64989881  0.10486984  0.38572401  1
  As  As2  1  0.89513016  0.61427599  0.64989881  1
  As  As3  1  0.10486984  0.61427599  0.35010119  1
  As  As4  1  0.61427599  0.64989881  0.89513016  1
  As  As5  1  0.38572401  0.35010119  0.89513016  1
  As  As6  1  0.85010119  0.88572401  0.39513016  1
  As  As7  1  0.85010119  0.11427599  0.60486984  1
  As  As8  1  0.14989881  0.88572401  0.60486984  1
  As  As9  1  0.39406105  0.39406105  0.39406105  1
  As  As10  1  0.60486984  0.14989881  0.88572401  1
  As  As11  1  0.64989881  0.89513016  0.61427599  1
  As  As12  1  0.88572401  0.39513016  0.85010119  1
  As  As13  1  0.39513016  0.85010119  0.88572401  1
  As  As14  1  0.88572401  0.60486984  0.14989881  1
  As  As15  1  0.11427599  0.39513016  0.14989881  1
  As  As16  1  0.39513016  0.14989881  0.11427599  1
  As  As17  1  0.38572401  0.64989881  0.10486984  1
  As  As18  1  0.61427599  0.35010119  0.10486984  1
  As  As19  1  0.89513016  0.38572401  0.35010119  1
  As  As20  1  0.10486984  0.38572401  0.64989881  1
  As  As21  1  0.35010119  0.10486984  0.61427599  1
  As  As22  1  0.35010119  0.89513016  0.38572401  1
  As  As23  1  0.14989881  0.11427599  0.39513016  1
  As  As24  1  0.10593895  0.89406105  0.10593895  1
  As  As25  1  0.10593895  0.10593895  0.89406105  1
  As  As26  1  0.89406105  0.10593895  0.10593895  1
  As  As27  1  0.60593895  0.60593895  0.39406105  1
  As  As28  1  0.39406105  0.60593895  0.60593895  1
  As  As29  1  0.60593895  0.39406105  0.60593895  1
  As  As30  1  0.89406105  0.89406105  0.89406105  1
  As  As31  1  0.11427599  0.60486984  0.85010119  1
loop_
_geom_bond_atom_site_label_1
_geom_bond_atom_site_label_2
_geom_bond_distance
_geom_bond_site_symmetry_2
Ba0 Ge0 3.361879 1_555
Ba1 Ge7 3.361879 1_555
Ba2 Ge7 3.361879 1_555
Ba3 Ge7 3.361879 1_555
Ba4 Ge0 3.361879 1_566
Ba5 Ge0 3.361879 1_665
Ba6 Ge0 3.361879 1_656
Ba7 Ge7 3.361879 1_555
Ba8 Ge1 3.345745 1_565
Ba9 Ge1 3.345745 1_555
Ba10 Ge5 3.345745 1_655
Ba11 Ge4 3.345745 1_555
Ba12 Ge2 3.345745 1_556
Ba13 Ge3 3.345745 1_556
Ba14 Ge1 3.345745 1_565
Ba15 Ge1 3.345745 1_555
Ba16 Ge6 3.345745 1_565
Ba17 Ge5 3.345745 1_555
Ba18 Ge3 3.345745 1_556
Ba19 Ge2 3.345745 1_555
Ba20 Ge5 3.345745 1_655
Ba21 Ge2 3.345745 1_556
Ba22 Ge4 3.345745 1_655
Ba23 Ge4 3.345745 1_555
Ba24 Ge3 3.345745 1_555
Ba25 Ge2 3.345745 1_555
Ba26 Ge3 3.345745 1_555
Ba27 Ge4 3.345745 1_655
Ba28 Ge5 3.345745 1_555
Ba29 Ge6 3.345745 1_555
Ba30 Ge6 3.345745 1_565
Ba31 Ge6 3.345745 1_555
As0 Ge2 2.495552 1_555
As0 Ba26 3.387421 1_565
As0 Ba5 3.424740 1_555
As0 Ba12 3.436164 1_554
As0 Ba25 3.441776 1_555
As0 Ba14 3.441927 1_555
As0 Ba19 3.462001 1_555
As1 Ge1 2.495552 1_555
As1 Ba31 3.387421 1_555
As1 Ba2 3.424740 1_555
As1 Ba15 3.436164 1_555
As1 Ba14 3.441776 1_545
As1 Ba26 3.441927 1_555
As1 Ba9 3.462001 1_555
As2 Ge5 2.495552 1_655
As2 Ba22 3.387421 1_555
As2 Ba7 3.424740 1_555
As2 Ba20 3.436164 1_555
As2 Ba17 3.441776 1_655
As2 Ba8 3.441927 1_555
As2 Ba10 3.462001 1_555
As3 Ge4 2.495552 1_555
As3 Ba17 3.387421 1_555
As3 Ba1 3.424740 1_555
As3 Ba23 3.436164 1_555
As3 Ba22 3.441776 1_455
As3 Ba30 3.441927 1_555
As3 Ba11 3.462001 1_555
As4 Ge2 2.495552 1_556
As4 Ba18 3.387421 1_555
As4 Ba7 3.424740 1_555
As4 Ba21 3.436164 1_555
As4 Ba19 3.441776 1_556
As4 Ba10 3.441927 1_555
As4 Ba12 3.462001 1_555
As5 Ge3 2.495552 1_556
As5 Ba21 3.387421 1_555
As5 Ba3 3.424740 1_555
As5 Ba18 3.436164 1_555
As5 Ba24 3.441776 1_556
As5 Ba28 3.441927 1_555
As5 Ba13 3.462001 1_555
As6 Ge1 2.495552 1_565
As6 Ba30 3.387421 1_655
As6 Ba5 3.424740 1_555
As6 Ba9 3.436164 1_565
As6 Ba8 3.441776 1_555
As6 Ba22 3.441927 1_555
As6 Ba14 3.462001 1_555
As7 Ge1 2.495552 1_555
As7 Ba29 3.387421 1_655
As7 Ba6 3.424740 1_555
As7 Ba8 3.436164 1_545
As7 Ba9 3.441776 1_555
As7 Ba20 3.441927 1_555
As7 Ba15 3.462001 1_555
As8 Ge6 2.495552 1_565
As8 Ba8 3.387421 1_455
As8 Ba4 3.424740 1_555
As8 Ba29 3.436164 1_565
As8 Ba30 3.441776 1_555
As8 Ba17 3.441927 1_555
As8 Ba16 3.462001 1_555
As9 Ge7 2.480576 1_555
As9 Ba23 3.405377 1_555
As9 Ba24 3.405377 1_555
As9 Ba31 3.405377 1_555
As9 Ba2 3.449042 1_555
As9 Ba3 3.449042 1_555
As9 Ba1 3.449042 1_555
As10 Ge3 2.495552 1_556
As10 Ba12 3.387421 1_545
As10 Ba6 3.424740 1_555
As10 Ba26 3.436164 1_556
As10 Ba13 3.441776 1_555
As10 Ba15 3.441927 1_555
As10 Ba18 3.462001 1_555
As11 Ge1 2.495552 1_565
As11 Ba16 3.387421 1_555
As11 Ba7 3.424740 1_555
As11 Ba14 3.436164 1_555
As11 Ba15 3.441776 1_565
As11 Ba12 3.441927 1_555
As11 Ba8 3.462001 1_555
As12 Ge5 2.495552 1_655
As12 Ba27 3.387421 1_556
As12 Ba6 3.424740 1_555
As12 Ba28 3.436164 1_655
As12 Ba10 3.441776 1_555
As12 Ba18 3.441927 1_555
As12 Ba20 3.462001 1_555
As13 Ge2 2.495552 1_556
As13 Ba13 3.387421 1_565
As13 Ba4 3.424740 1_555
As13 Ba25 3.436164 1_556
As13 Ba12 3.441776 1_555
As13 Ba16 3.441927 1_555
As13 Ba21 3.462001 1_555
As14 Ge4 2.495552 1_655
As14 Ba10 3.387421 1_554
As14 Ba5 3.424740 1_555
As14 Ba11 3.436164 1_655
As14 Ba27 3.441776 1_555
As14 Ba19 3.441927 1_555
As14 Ba22 3.462001 1_555
As15 Ge4 2.495552 1_555
As15 Ba28 3.387421 1_554
As15 Ba0 3.424740 1_555
As15 Ba27 3.436164 1_455
As15 Ba11 3.441776 1_555
As15 Ba24 3.441927 1_555
As15 Ba23 3.462001 1_555
As16 Ge3 2.495552 1_555
As16 Ba25 3.387421 1_545
As16 Ba0 3.424740 1_555
As16 Ba13 3.436164 1_554
As16 Ba26 3.441776 1_555
As16 Ba31 3.441927 1_555
As16 Ba24 3.462001 1_555
As17 Ge2 2.495552 1_555
As17 Ba24 3.387421 1_555
As17 Ba1 3.424740 1_555
As17 Ba19 3.436164 1_555
As17 Ba21 3.441776 1_554
As17 Ba11 3.441927 1_555
As17 Ba25 3.462001 1_555
As18 Ge3 2.495552 1_555
As18 Ba19 3.387421 1_555
As18 Ba2 3.424740 1_555
As18 Ba24 3.436164 1_555
As18 Ba18 3.441776 1_554
As18 Ba27 3.441927 1_555
As18 Ba26 3.462001 1_555
As19 Ge4 2.495552 1_655
As19 Ba20 3.387421 1_555
As19 Ba2 3.424740 1_555
As19 Ba22 3.436164 1_555
As19 Ba23 3.441776 1_655
As19 Ba9 3.441927 1_555
As19 Ba27 3.462001 1_555
As20 Ge5 2.495552 1_555
As20 Ba23 3.387421 1_555
As20 Ba3 3.424740 1_555
As20 Ba17 3.436164 1_555
As20 Ba20 3.441776 1_455
As20 Ba29 3.441927 1_555
As20 Ba28 3.462001 1_555
As21 Ge6 2.495552 1_555
As21 Ba15 3.387421 1_555
As21 Ba3 3.424740 1_555
As21 Ba31 3.436164 1_555
As21 Ba16 3.441776 1_545
As21 Ba13 3.441927 1_555
As21 Ba29 3.462001 1_555
As22 Ge6 2.495552 1_565
As22 Ba14 3.387421 1_555
As22 Ba1 3.424740 1_555
As22 Ba16 3.436164 1_555
As22 Ba31 3.441776 1_565
As22 Ba25 3.441927 1_555
As22 Ba30 3.462001 1_555
As23 Ge6 2.495552 1_555
As23 Ba9 3.387421 1_455
As23 Ba0 3.424740 1_555
As23 Ba30 3.436164 1_545
As23 Ba29 3.441776 1_555
As23 Ba23 3.441927 1_555
As23 Ba31 3.462001 1_555
As24 Ge0 2.480576 1_565
As24 Ba11 3.405377 1_555
As24 Ba25 3.405377 1_555
As24 Ba30 3.405377 1_555
As24 Ba0 3.449042 1_565
As24 Ba4 3.449042 1_554
As24 Ba5 3.449042 1_455
As25 Ge0 2.480576 1_556
As25 Ba28 3.405377 1_555
As25 Ba13 3.405377 1_555
As25 Ba29 3.405377 1_555
As25 Ba0 3.449042 1_556
As25 Ba4 3.449042 1_545
As25 Ba6 3.449042 1_455
As26 Ge0 2.480576 1_655
As26 Ba27 3.405377 1_555
As26 Ba26 3.405377 1_555
As26 Ba9 3.405377 1_555
As26 Ba0 3.449042 1_655
As26 Ba5 3.449042 1_545
As26 Ba6 3.449042 1_554
As27 Ge7 2.480576 1_555
As27 Ba22 3.405377 1_555
As27 Ba19 3.405377 1_555
As27 Ba14 3.405377 1_555
As27 Ba2 3.449042 1_555
As27 Ba1 3.449042 1_555
As27 Ba7 3.449042 1_555
As28 Ge7 2.480576 1_555
As28 Ba17 3.405377 1_555
As28 Ba16 3.405377 1_555
As28 Ba21 3.405377 1_555
As28 Ba3 3.449042 1_555
As28 Ba1 3.449042 1_555
As28 Ba7 3.449042 1_555
As29 Ge7 2.480576 1_555
As29 Ba20 3.405377 1_555
As29 Ba15 3.405377 1_555
As29 Ba18 3.405377 1_555
As29 Ba2 3.449042 1_555
As29 Ba3 3.449042 1_555
As29 Ba7 3.449042 1_555
As30 Ge0 2.480576 1_666
As30 Ba12 3.405377 1_555
As30 Ba10 3.405377 1_555
As30 Ba8 3.405377 1_555
As30 Ba6 3.449042 1_565
As30 Ba5 3.449042 1_556
As30 Ba4 3.449042 1_655
As31 Ge5 2.495552 1_555
As31 Ba11 3.387421 1_556
As31 Ba4 3.424740 1_555
As31 Ba10 3.436164 1_455
As31 Ba28 3.441776 1_555
As31 Ba21 3.441927 1_555
As31 Ba17 3.462001 1_555
