# generated using pymatgen
data_Li4MnCo2O7
_symmetry_space_group_name_H-M   'P 1'
_cell_length_a   10.20778393
_cell_length_b   10.20778393
_cell_length_c   5.19497132
_cell_angle_alpha   84.34801137
_cell_angle_beta   84.34801137
_cell_angle_gamma   150.34028109
_symmetry_Int_Tables_number   1
_chemical_formula_structural   Li4MnCo2O7
_chemical_formula_sum   'Li8 Mn2 Co4 O14'
_cell_volume   247.24195151
_cell_formula_units_Z   2
loop_
 _symmetry_equiv_pos_site_id
 _symmetry_equiv_pos_as_xyz
  1  'x, y, z'
loop_
 _atom_site_type_symbol
 _atom_site_label
 _atom_site_symmetry_multiplicity
 _atom_site_fract_x
 _atom_site_fract_y
 _atom_site_fract_z
 _atom_site_occupancy
  Li  Li0  1  0.64122500  0.35877500  0.50000000  1
  Li  Li1  1  0.07030100  0.92969900  0.50000000  1
  Li  Li2  1  0.50000000  0.50000000  0.50000000  1
  Li  Li3  1  0.92969900  0.07030100  0.50000000  1
  Li  Li4  1  0.35877500  0.64122500  0.50000000  1
  Li  Li5  1  0.78580900  0.21419100  0.50000000  1
  Li  Li6  1  0.21419100  0.78580900  0.50000000  1
  Li  Li7  1  0.00000000  0.00000000  0.00000000  1
  Mn  Mn0  1  0.71328700  0.28671300  0.00000000  1
  Mn  Mn1  1  0.28671300  0.71328700  0.00000000  1
  Co  Co0  1  0.14012300  0.85987700  0.00000000  1
  Co  Co1  1  0.57090400  0.42909600  0.00000000  1
  Co  Co2  1  0.42909600  0.57090400  0.00000000  1
  Co  Co3  1  0.85987700  0.14012300  0.00000000  1
  O  O0  1  0.41566000  0.13762400  0.23440100  1
  O  O1  1  0.82007200  0.66968600  0.20749700  1
  O  O2  1  0.28564000  0.28564000  0.23296800  1
  O  O3  1  0.66968600  0.82007200  0.20749700  1
  O  O4  1  0.13762400  0.41566000  0.23440100  1
  O  O5  1  0.56392000  0.99238400  0.23200500  1
  O  O6  1  0.99238400  0.56392000  0.23200500  1
  O  O7  1  0.86237600  0.58434000  0.76559900  1
  O  O8  1  0.33031400  0.17992800  0.79250300  1
  O  O9  1  0.71436000  0.71436000  0.76703200  1
  O  O10  1  0.17992800  0.33031400  0.79250300  1
  O  O11  1  0.58434000  0.86237600  0.76559900  1
  O  O12  1  0.00761600  0.43608000  0.76799500  1
  O  O13  1  0.43608000  0.00761600  0.76799500  1
loop_
_geom_bond_atom_site_label_1
_geom_bond_atom_site_label_2
_geom_bond_distance
_geom_bond_site_symmetry_2
Li0 O8 2.036730 1_555
Li0 O1 2.036730 1_555
Li0 O7 2.123009 1_555
Li0 O0 2.123009 1_555
Li0 O6 2.137648 1_555
Li0 O13 2.137648 1_555
Li1 O7 2.073078 1_455
Li1 O0 2.073078 1_565
Li1 O9 2.117472 1_455
Li1 O2 2.117472 1_565
Li1 O1 2.377901 1_455
Li1 O8 2.377901 1_565
Li2 O9 2.091607 1_555
Li2 O2 2.091607 1_555
Li2 O3 2.156891 1_555
Li2 O1 2.156891 1_555
Li2 O8 2.156891 1_555
Li2 O10 2.156891 1_555
Li3 O11 2.073078 1_545
Li3 O4 2.073078 1_655
Li3 O9 2.117472 1_545
Li3 O2 2.117472 1_655
Li3 O3 2.377901 1_545
Li3 O10 2.377901 1_655
Li4 O10 2.036730 1_555
Li4 O3 2.036730 1_555
Li4 O11 2.123009 1_555
Li4 O4 2.123009 1_555
Li4 O5 2.137648 1_555
Li4 O12 2.137648 1_555
Li5 O13 2.118729 1_555
Li5 O6 2.118729 1_555
Li5 O12 2.127004 1_655
Li5 O5 2.127004 1_545
Li5 O4 2.158581 1_655
Li5 O11 2.158581 1_545
Li6 O12 2.118729 1_555
Li6 O5 2.118729 1_555
Li6 O13 2.127004 1_565
Li6 O6 2.127004 1_455
Li6 O0 2.158581 1_565
Li6 O7 2.158581 1_455
Li7 O3 2.008832 1_445
Li7 O1 2.008832 1_445
Li7 O8 2.008832 1_554
Li7 O10 2.008832 1_554
Li7 O2 2.254475 1_555
Li7 O9 2.254475 1_444
Mn0 O12 1.940988 1_654
Mn0 O5 1.940988 1_545
Mn0 O0 1.974753 1_555
Mn0 O7 1.974753 1_554
Mn0 O6 2.216667 1_555
Mn0 O13 2.216667 1_554
Mn1 O13 1.940988 1_564
Mn1 O6 1.940988 1_455
Mn1 O4 1.974753 1_555
Mn1 O11 1.974753 1_554
Mn1 O5 2.216667 1_555
Mn1 O12 2.216667 1_554
Co0 O8 1.864212 1_564
Co0 O1 1.864212 1_455
Co0 O6 1.964786 1_455
Co0 O13 1.964786 1_564
Co0 O0 2.219810 1_565
Co0 O7 2.219810 1_454
Co1 O7 1.886349 1_554
Co1 O0 1.886349 1_555
Co1 O2 1.906369 1_555
Co1 O9 1.906369 1_554
Co1 O1 1.966705 1_555
Co1 O8 1.966705 1_554
Co2 O11 1.886349 1_554
Co2 O4 1.886349 1_555
Co2 O2 1.906369 1_555
Co2 O9 1.906369 1_554
Co2 O3 1.966705 1_555
Co2 O10 1.966705 1_554
Co3 O10 1.864212 1_654
Co3 O3 1.864212 1_545
Co3 O5 1.964786 1_545
Co3 O12 1.964786 1_654
Co3 O4 2.219810 1_655
Co3 O11 2.219810 1_544
