# generated using pymatgen
data_Zn2W3O8
_symmetry_space_group_name_H-M   'P 1'
_cell_length_a   6.47870336
_cell_length_b   6.47870336
_cell_length_c   5.00367807
_cell_angle_alpha   72.70465759
_cell_angle_beta   72.70465759
_cell_angle_gamma   54.28294120
_symmetry_Int_Tables_number   1
_chemical_formula_structural   Zn2W3O8
_chemical_formula_sum   'Zn2 W3 O8'
_cell_volume   160.72162710
_cell_formula_units_Z   1
loop_
 _symmetry_equiv_pos_site_id
 _symmetry_equiv_pos_as_xyz
  1  'x, y, z'
loop_
 _atom_site_type_symbol
 _atom_site_label
 _atom_site_symmetry_multiplicity
 _atom_site_fract_x
 _atom_site_fract_y
 _atom_site_fract_z
 _atom_site_occupancy
  Zn  Zn0  1  0.31299000  0.31299000  0.13786100  1
  Zn  Zn1  1  0.68701000  0.68701000  0.86213900  1
  W  W0  1  0.00000000  0.00000000  0.00000000  1
  W  W1  1  0.22853100  0.77146900  0.50000000  1
  W  W2  1  0.77146900  0.22853100  0.50000000  1
  O  O0  1  0.59732400  0.59732400  0.27678100  1
  O  O1  1  0.40267600  0.40267600  0.72321900  1
  O  O2  1  0.13244900  0.13244900  0.23530400  1
  O  O3  1  0.86755100  0.86755100  0.76469600  1
  O  O4  1  0.64656300  0.13443900  0.26151200  1
  O  O5  1  0.13443900  0.64656300  0.26151200  1
  O  O6  1  0.86556100  0.35343700  0.73848800  1
  O  O7  1  0.35343700  0.86556100  0.73848800  1
loop_
_geom_bond_atom_site_label_1
_geom_bond_atom_site_label_2
_geom_bond_distance
_geom_bond_site_symmetry_2
O0 Zn1 1.985034 1_554
O0 W1 2.060166 1_555
O0 W2 2.060166 1_555
O1 Zn0 1.985034 1_556
O1 W1 2.060166 1_555
O1 W2 2.060166 1_555
O2 Zn0 1.973114 1_555
O2 W2 2.135377 1_455
O2 W1 2.135377 1_545
O2 W0 2.218123 1_555
O3 Zn1 1.973114 1_555
O3 W2 2.135377 1_565
O3 W1 2.135377 1_655
O3 W0 2.218123 1_666
O4 Zn0 1.960106 1_555
O4 W2 2.008267 1_555
O4 W0 2.069202 1_655
O5 Zn0 1.960106 1_555
O5 W1 2.008267 1_555
O5 W0 2.069202 1_565
O6 Zn1 1.960106 1_555
O6 W2 2.008267 1_555
O6 W0 2.069202 1_656
O7 Zn1 1.960106 1_555
O7 W1 2.008267 1_555
O7 W0 2.069202 1_566
