# generated using pymatgen
data_Li5Co3O8
_symmetry_space_group_name_H-M   'P 1'
_cell_length_a   2.98501200
_cell_length_b   5.00106400
_cell_length_c   9.70602778
_cell_angle_alpha   76.90985404
_cell_angle_beta   90.00000000
_cell_angle_gamma   90.00000000
_symmetry_Int_Tables_number   1
_chemical_formula_structural   Li5Co3O8
_chemical_formula_sum   'Li5 Co3 O8'
_cell_volume   141.12879685
_cell_formula_units_Z   1
loop_
 _symmetry_equiv_pos_site_id
 _symmetry_equiv_pos_as_xyz
  1  'x, y, z'
loop_
 _atom_site_type_symbol
 _atom_site_label
 _atom_site_symmetry_multiplicity
 _atom_site_fract_x
 _atom_site_fract_y
 _atom_site_fract_z
 _atom_site_occupancy
  Li  Li0  1  0.50000000  0.75399700  0.74844400  1
  Li  Li1  1  0.00000000  0.00000000  0.50000000  1
  Li  Li2  1  0.50000000  0.24600300  0.25155600  1
  Li  Li3  1  0.00000000  0.50000000  0.00000000  1
  Li  Li4  1  0.50000000  0.00000000  0.00000000  1
  Co  Co0  1  0.00000000  0.24413700  0.76067800  1
  Co  Co1  1  0.00000000  0.75586300  0.23932200  1
  Co  Co2  1  0.50000000  0.50000000  0.50000000  1
  O  O0  1  0.50000000  0.36942000  0.86576200  1
  O  O1  1  0.00000000  0.59097300  0.62904800  1
  O  O2  1  0.50000000  0.85505400  0.37707000  1
  O  O3  1  0.00000000  0.08762100  0.13889600  1
  O  O4  1  0.50000000  0.14494600  0.62293000  1
  O  O5  1  0.00000000  0.40902700  0.37095200  1
  O  O6  1  0.50000000  0.63058000  0.13423800  1
  O  O7  1  0.00000000  0.91237900  0.86110400  1
loop_
_geom_bond_atom_site_label_1
_geom_bond_atom_site_label_2
_geom_bond_distance
_geom_bond_site_symmetry_2
Li0 O0 2.000915 1_555
Li0 O4 2.056177 1_565
Li0 O7 2.107840 1_655
Li0 O7 2.107840 1_555
Li0 O1 2.159446 1_555
Li0 O1 2.159446 1_655
Li1 O4 2.137391 1_455
Li1 O4 2.137391 1_555
Li1 O2 2.137391 1_545
Li1 O2 2.137391 1_445
Li1 O5 2.143046 1_555
Li1 O1 2.143046 1_545
Li2 O6 2.000915 1_555
Li2 O2 2.056177 1_545
Li2 O3 2.107840 1_555
Li2 O3 2.107840 1_655
Li2 O5 2.159446 1_555
Li2 O5 2.159446 1_655
Li3 O0 2.176474 1_454
Li3 O0 2.176474 1_554
Li3 O6 2.176474 1_455
Li3 O6 2.176474 1_555
Li3 O3 2.193465 1_555
Li3 O7 2.193465 1_554
Li4 O6 2.005112 1_545
Li4 O0 2.005112 1_554
Li4 O3 2.122412 1_655
Li4 O7 2.122412 1_644
Li4 O7 2.122412 1_544
Li4 O3 2.122412 1_555
Co0 O7 1.723461 1_545
Co0 O1 1.907125 1_555
Co0 O0 1.987435 1_555
Co0 O0 1.987435 1_455
Co0 O4 2.135791 1_455
Co0 O4 2.135791 1_555
Co1 O3 1.723461 1_565
Co1 O5 1.907125 1_555
Co1 O6 1.987435 1_455
Co1 O6 1.987435 1_555
Co1 O2 2.135791 1_455
Co1 O2 2.135791 1_555
Co2 O2 1.901812 1_555
Co2 O4 1.901812 1_555
Co2 O5 2.064354 1_655
Co2 O5 2.064354 1_555
Co2 O1 2.064354 1_555
Co2 O1 2.064354 1_655
