# generated using pymatgen
data_Co(PO3)3
_symmetry_space_group_name_H-M   'P 1'
_cell_length_a   9.46064700
_cell_length_b   9.46373964
_cell_length_c   9.55458835
_cell_angle_alpha   109.34021983
_cell_angle_beta   105.34925477
_cell_angle_gamma   108.41714953
_symmetry_Int_Tables_number   1
_chemical_formula_structural   Co(PO3)3
_chemical_formula_sum   'Co4 P12 O36'
_cell_volume   697.62593374
_cell_formula_units_Z   4
loop_
 _symmetry_equiv_pos_site_id
 _symmetry_equiv_pos_as_xyz
  1  'x, y, z'
loop_
 _atom_site_type_symbol
 _atom_site_label
 _atom_site_symmetry_multiplicity
 _atom_site_fract_x
 _atom_site_fract_y
 _atom_site_fract_z
 _atom_site_occupancy
  Co  Co0  1  0.25789800  0.77627500  0.72768100  1
  Co  Co1  1  0.89242500  0.69592700  0.79335100  1
  Co  Co2  1  0.74210200  0.22372500  0.27231900  1
  Co  Co3  1  0.10757500  0.30407300  0.20664900  1
  P  P0  1  0.99779400  0.39424200  0.64792800  1
  P  P1  1  0.06347800  0.79694500  0.16934400  1
  P  P2  1  0.81413500  0.90687300  0.07802400  1
  P  P3  1  0.50962600  0.15774500  0.90235700  1
  P  P4  1  0.43133800  0.66568400  0.30444600  1
  P  P5  1  0.29807700  0.43648300  0.59317900  1
  P  P6  1  0.56866200  0.33431600  0.69555400  1
  P  P7  1  0.70192300  0.56351700  0.40682100  1
  P  P8  1  0.93652200  0.20305500  0.83065600  1
  P  P9  1  0.49037400  0.84225500  0.09764300  1
  P  P10  1  0.18586500  0.09312700  0.92197600  1
  P  P11  1  0.00220600  0.60575800  0.35207200  1
  O  O0  1  0.43529800  0.98386100  0.76697800  1
  O  O1  1  0.42986100  0.40456700  0.69952700  1
  O  O2  1  0.35657000  0.80419600  0.94234500  1
  O  O3  1  0.64591900  0.37889800  0.35155700  1
  O  O4  1  0.96666100  0.27668700  0.01030500  1
  O  O5  1  0.84535700  0.63358200  0.35226300  1
  O  O6  1  0.15464300  0.36641800  0.64773700  1
  O  O7  1  0.58434700  0.30125700  0.85730700  1
  O  O8  1  0.03254600  0.57494900  0.68663800  1
  O  O9  1  0.72815500  0.48693500  0.75948000  1
  O  O10  1  0.87374700  0.09263400  0.18393300  1
  O  O11  1  0.09181400  0.16453400  0.82087200  1
  O  O12  1  0.48710800  0.81586100  0.45400700  1
  O  O13  1  0.77770000  0.06654000  0.70906900  1
  O  O14  1  0.51289200  0.18413900  0.54599300  1
  O  O15  1  0.98529300  0.36824800  0.79936300  1
  O  O16  1  0.22230000  0.93346000  0.29093100  1
  O  O17  1  0.36938700  0.19690000  0.94994200  1
  O  O18  1  0.27184500  0.51306500  0.24052000  1
  O  O19  1  0.14657700  0.73778200  0.50942400  1
  O  O20  1  0.57013900  0.59543300  0.30047300  1
  O  O21  1  0.90818600  0.83546600  0.17912800  1
  O  O22  1  0.41565300  0.69874300  0.14269300  1
  O  O23  1  0.03333900  0.72331300  0.98969500  1
  O  O24  1  0.17441600  0.13990600  0.08404700  1
  O  O25  1  0.63061300  0.80310000  0.05005800  1
  O  O26  1  0.23624500  0.32682700  0.41233700  1
  O  O27  1  0.01470700  0.63175200  0.20063700  1
  O  O28  1  0.85342300  0.26221800  0.49057600  1
  O  O29  1  0.76375500  0.67317300  0.58766300  1
  O  O30  1  0.96745400  0.42505100  0.31336200  1
  O  O31  1  0.82558400  0.86009400  0.91595300  1
  O  O32  1  0.64343000  0.19580400  0.05765500  1
  O  O33  1  0.35408100  0.62110200  0.64844300  1
  O  O34  1  0.12625300  0.90736600  0.81606700  1
  O  O35  1  0.56470200  0.01613900  0.23302200  1
loop_
_geom_bond_atom_site_label_1
_geom_bond_atom_site_label_2
_geom_bond_distance
_geom_bond_site_symmetry_2
Co0 O2 1.902501 1_555
Co0 O19 1.918931 1_555
Co0 O0 1.977785 1_555
Co0 O33 2.007586 1_555
Co0 O34 2.154669 1_555
Co0 O8 2.196610 1_555
Co1 O23 1.870663 1_655
Co1 O29 1.917815 1_555
Co1 O9 1.949206 1_555
Co1 O31 1.998337 1_555
Co1 O8 2.238091 1_655
Co1 O34 2.367691 1_655
Co2 O32 1.902501 1_555
Co2 O28 1.918931 1_555
Co2 O35 1.977785 1_555
Co2 O3 2.007586 1_555
Co2 O10 2.154669 1_555
Co2 O30 2.196610 1_555
Co3 O4 1.870663 1_455
Co3 O26 1.917815 1_555
Co3 O18 1.949206 1_555
Co3 O24 1.998337 1_555
Co3 O30 2.238091 1_455
Co3 O10 2.367691 1_455
O0 P3 1.501002 1_565
O1 P5 1.564827 1_555
O1 P6 1.652004 1_555
O2 P9 1.515712 1_556
O3 P7 1.506020 1_555
O4 P8 1.528485 1_554
O5 P11 1.587226 1_655
O5 P7 1.608625 1_555
O6 P0 1.587226 1_455
O6 P5 1.608625 1_555
O7 P3 1.572017 1_555
O7 P6 1.654270 1_555
O8 P0 1.526745 1_455
O9 P6 1.512180 1_555
O10 P2 1.525024 1_545
O11 P10 1.593375 1_555
O11 P8 1.639705 1_455
O12 P4 1.456759 1_555
O13 P8 1.459994 1_555
O14 P6 1.456759 1_555
O15 P0 1.573527 1_555
O15 P8 1.634987 1_555
O16 P1 1.459994 1_555
O17 P10 1.597990 1_555
O17 P3 1.619472 1_555
O18 P4 1.512180 1_555
O19 P11 1.509083 1_555
O20 P7 1.564827 1_555
O20 P4 1.652004 1_555
O21 P2 1.593375 1_555
O21 P1 1.639705 1_655
O22 P9 1.572017 1_555
O22 P4 1.654270 1_555
O23 P1 1.528485 1_556
O24 P10 1.506873 1_554
O25 P2 1.597990 1_555
O25 P9 1.619472 1_555
O26 P5 1.516020 1_555
O27 P11 1.573527 1_555
O27 P1 1.634987 1_555
O28 P0 1.509083 1_555
O29 P7 1.516020 1_555
O30 P11 1.526745 1_655
O31 P2 1.506873 1_556
O32 P3 1.515712 1_554
O33 P5 1.506020 1_555
O34 P10 1.525024 1_565
O35 P9 1.501002 1_545
