# generated using pymatgen
data_CsPr3
_symmetry_space_group_name_H-M   'P 1'
_cell_length_a   6.66978679
_cell_length_b   6.66978679
_cell_length_c   6.66978679
_cell_angle_alpha   131.67074262
_cell_angle_beta   131.67074262
_cell_angle_gamma   70.74955287
_symmetry_Int_Tables_number   1
_chemical_formula_structural   CsPr3
_chemical_formula_sum   'Cs1 Pr3'
_cell_volume   162.16901246
_cell_formula_units_Z   1
loop_
 _symmetry_equiv_pos_site_id
 _symmetry_equiv_pos_as_xyz
  1  'x, y, z'
loop_
 _atom_site_type_symbol
 _atom_site_label
 _atom_site_symmetry_multiplicity
 _atom_site_fract_x
 _atom_site_fract_y
 _atom_site_fract_z
 _atom_site_occupancy
  Cs  Cs0  1  0.00000000  0.00000000  0.00000000  1
  Pr  Pr0  1  0.75000000  0.25000000  0.50000000  1
  Pr  Pr1  1  0.25000000  0.75000000  0.50000000  1
  Pr  Pr2  1  0.50000000  0.50000000  0.00000000  1
loop_
_geom_bond_atom_site_label_1
_geom_bond_atom_site_label_2
_geom_bond_distance
_geom_bond_site_symmetry_2
Cs0 Pr1 3.853427 1_545
Cs0 Pr0 3.853427 1_455
Cs0 Pr1 3.853427 1_555
Cs0 Pr1 3.853427 1_544
Cs0 Pr0 3.853427 1_444
Cs0 Pr0 3.853427 1_454
Cs0 Pr1 3.853427 1_444
Cs0 Pr0 3.853427 1_555
Cs0 Pr2 3.861288 1_556
Cs0 Pr2 3.861288 1_455
Cs0 Pr2 3.861288 1_444
Cs0 Pr2 3.861288 1_545
Pr0 Pr2 3.853427 1_555
Pr0 Pr2 3.853427 1_545
Pr0 Pr2 3.853427 1_556
Pr0 Pr2 3.853427 1_656
Pr0 Pr1 3.861288 1_645
Pr0 Pr1 3.861288 1_656
Pr0 Pr1 3.861288 1_544
Pr0 Pr1 3.861288 1_555
Pr1 Pr2 3.853427 1_555
Pr1 Pr2 3.853427 1_566
Pr1 Pr2 3.853427 1_556
Pr1 Pr2 3.853427 1_455
