# generated using pymatgen
data_Li6V3P8O29
_symmetry_space_group_name_H-M   'P 1'
_cell_length_a   9.87154830
_cell_length_b   9.86823504
_cell_length_c   13.93941085
_cell_angle_alpha   90.28959988
_cell_angle_beta   90.25927223
_cell_angle_gamma   59.56676218
_symmetry_Int_Tables_number   1
_chemical_formula_structural   Li6V3P8O29
_chemical_formula_sum   'Li12 V6 P16 O58'
_cell_volume   1170.79424738
_cell_formula_units_Z   2
loop_
 _symmetry_equiv_pos_site_id
 _symmetry_equiv_pos_as_xyz
  1  'x, y, z'
loop_
 _atom_site_type_symbol
 _atom_site_label
 _atom_site_symmetry_multiplicity
 _atom_site_fract_x
 _atom_site_fract_y
 _atom_site_fract_z
 _atom_site_occupancy
  Li  Li0  1  0.90293599  0.77618480  0.05884729  1
  Li  Li1  1  0.77630851  0.90260041  0.55869688  1
  Li  Li2  1  0.90459186  0.32136466  0.55952099  1
  Li  Li3  1  0.77158095  0.31834026  0.06018594  1
  Li  Li4  1  0.32078448  0.90508222  0.05942454  1
  Li  Li5  1  0.68439682  0.22377445  0.43908829  1
  Li  Li6  1  0.31857944  0.77161737  0.56015957  1
  Li  Li7  1  0.22401962  0.68423449  0.93909990  1
  Li  Li8  1  0.33273492  0.33449381  0.61600160  1
  Li  Li9  1  0.33455764  0.33244699  0.11589888  1
  Li  Li10  1  0.22750486  0.08730915  0.43852835  1
  Li  Li11  1  0.08733589  0.22784983  0.93827218  1
  V  V0  1  0.56883953  0.43223826  0.25248963  1
  V  V1  1  0.43208939  0.56900234  0.75237173  1
  V  V2  1  0.56843749  0.00027530  0.75381035  1
  V  V3  1  0.43877430  0.99652931  0.24871185  1
  V  V4  1  0.00052562  0.56825486  0.25381444  1
  V  V5  1  0.99654428  0.43851096  0.74881101  1
  P  P0  1  0.91298448  0.76958085  0.84376123  1
  P  P1  1  0.76959490  0.91272076  0.34359547  1
  P  P2  1  0.91317261  0.32083195  0.34115214  1
  P  P3  1  0.67013775  0.66343831  0.12693726  1
  P  P4  1  0.66340634  0.66975397  0.62689667  1
  P  P5  1  0.76969053  0.31783399  0.84277425  1
  P  P6  1  0.68022628  0.22926636  0.65795258  1
  P  P7  1  0.32073692  0.91339113  0.84123964  1
  P  P8  1  0.68301212  0.08806757  0.15931683  1
  P  P9  1  0.31749520  0.77013806  0.34289094  1
  P  P10  1  0.22941326  0.68018249  0.15805965  1
  P  P11  1  0.33480127  0.33036715  0.37312891  1
  P  P12  1  0.33050472  0.33474321  0.87309591  1
  P  P13  1  0.08805225  0.68292024  0.65927593  1
  P  P14  1  0.23109114  0.08957277  0.65744606  1
  P  P15  1  0.08937862  0.23099439  0.15726688  1
  O  O0  1  0.99492834  0.76725625  0.57383562  1
  O  O1  1  0.91415114  0.74936061  0.33862475  1
  O  O2  1  0.76752785  0.99489095  0.07385418  1
  O  O3  1  0.74914278  0.91319058  0.83908848  1
  O  O4  1  0.90572362  0.61813780  0.82596541  1
  O  O5  1  0.81905030  0.66580894  0.16861174  1
  O  O6  1  0.89655617  0.48176853  0.32451331  1
  O  O7  1  0.99686340  0.24479333  0.06821596  1
  O  O8  1  0.91465300  0.33774451  0.83833427  1
  O  O9  1  0.66591860  0.81860286  0.66891945  1
  O  O10  1  0.61908438  0.90420439  0.32579270  1
  O  O11  1  0.81582541  0.51682428  0.66813991  1
  O  O12  1  0.66546278  0.67002128  0.02031906  1
  O  O13  1  0.66909953  0.66610849  0.52023832  1
  O  O14  1  0.67213474  0.51462033  0.16706459  1
  O  O15  1  0.48160380  0.89671808  0.82461348  1
  O  O16  1  0.51739888  0.81634332  0.16852388  1
  O  O17  1  0.75059752  0.33190452  0.34104961  1
  O  O18  1  0.78763994  0.21112816  0.75005395  1
  O  O19  1  0.75785061  0.24425412  0.56907220  1
  O  O20  1  0.75722566  0.24896526  0.93403045  1
  O  O21  1  0.61591228  0.47761770  0.82036845  1
  O  O22  1  0.51418076  0.67237641  0.66705485  1
  O  O23  1  0.66115724  0.25682770  0.16114350  1
  O  O24  1  0.47728610  0.61626634  0.32029187  1
  O  O25  1  0.33760681  0.91495005  0.33872302  1
  O  O26  1  0.78421205  0.00956175  0.25493189  1
  O  O27  1  0.75513456  0.00231984  0.43408479  1
  O  O28  1  0.24405102  0.99737660  0.56836146  1
  O  O29  1  0.66773533  0.08002841  0.65728254  1
  O  O30  1  0.51346841  0.37322931  0.67409228  1
  O  O31  1  0.33162684  0.75085157  0.84097450  1
  O  O32  1  0.48709361  0.32718796  0.33704472  1
  O  O33  1  0.37326821  0.51339702  0.17424926  1
  O  O34  1  0.24454783  0.75764412  0.06915353  1
  O  O35  1  0.24871423  0.75724433  0.43410773  1
  O  O36  1  0.21107689  0.78795076  0.25008499  1
  O  O37  1  0.25667543  0.66120268  0.66107968  1
  O  O38  1  0.47737920  0.18676192  0.82818633  1
  O  O39  1  0.51500309  0.11234440  0.17384823  1
  O  O40  1  0.32714039  0.48714443  0.83692729  1
  O  O41  1  0.32844618  0.33292516  0.98061806  1
  O  O42  1  0.33287153  0.32771995  0.48063022  1
  O  O43  1  0.18679710  0.47704041  0.32839884  1
  O  O44  1  0.37522276  0.10975435  0.67259627  1
  O  O45  1  0.33261828  0.18144629  0.33242814  1
  O  O46  1  0.08029662  0.66755230  0.15733128  1
  O  O47  1  0.00917309  0.78447117  0.75488203  1
  O  O48  1  0.00254775  0.75535574  0.93414834  1
  O  O49  1  0.11249714  0.51489334  0.67414245  1
  O  O50  1  0.18191411  0.33189343  0.83278024  1
  O  O51  1  0.10975203  0.37507062  0.17272710  1
  O  O52  1  0.25350717  0.08130716  0.15634649  1
  O  O53  1  0.24202250  0.00340984  0.93123127  1
  O  O54  1  0.21086411  0.00253007  0.74940976  1
  O  O55  1  0.08138922  0.25396373  0.65668584  1
  O  O56  1  0.00314472  0.24221792  0.43112250  1
  O  O57  1  0.00212901  0.21088693  0.24925413  1
loop_
_geom_bond_atom_site_label_1
_geom_bond_atom_site_label_2
_geom_bond_distance
_geom_bond_site_symmetry_2
Li0 O2 1.887824 1_555
Li0 O48 1.959008 1_654
Li0 O46 2.047166 1_655
Li0 O5 2.270512 1_555
Li1 O0 1.887991 1_555
Li1 O27 1.958292 1_565
Li1 O29 2.047137 1_565
Li1 O9 2.275593 1_555
Li2 O19 1.953087 1_555
Li2 O56 1.997931 1_655
Li2 O55 2.033351 1_655
Li2 O11 2.247430 1_555
Li3 O20 1.914437 1_554
Li3 O7 1.961729 1_555
Li3 O23 2.056697 1_555
Li3 O14 2.234450 1_555
Li4 O34 1.952905 1_555
Li4 O53 1.994956 1_564
Li4 O52 2.026061 1_565
Li4 O16 2.260879 1_555
Li5 O27 1.929051 1_555
Li5 O19 1.995610 1_555
Li5 O17 2.040227 1_555
Li5 O32 2.198686 1_555
Li6 O35 1.915397 1_555
Li6 O28 1.963505 1_555
Li6 O37 2.058510 1_555
Li6 O22 2.231751 1_555
Li7 O48 1.929192 1_555
Li7 O34 1.996115 1_556
Li7 O31 2.039884 1_555
Li7 O40 2.196999 1_555
Li8 O42 1.887826 1_555
Li8 O49 2.152465 1_555
Li8 O30 2.158607 1_555
Li8 O44 2.188420 1_555
Li9 O41 1.886380 1_554
Li9 O39 2.151353 1_555
Li9 O33 2.161007 1_555
Li9 O51 2.189999 1_555
Li10 O56 1.955087 1_555
Li10 O28 1.989062 1_545
Li10 O25 2.031445 1_545
Li10 O45 2.265243 1_555
Li11 O53 1.954415 1_555
Li11 O7 1.991693 1_456
Li11 O8 2.035569 1_455
Li11 O50 2.255437 1_555
O0 P13 1.476890 1_655
O1 P1 1.519600 1_555
O1 V4 1.939764 1_655
O2 P8 1.476983 1_565
O3 P0 1.518699 1_555
O3 V2 1.942112 1_565
O4 P0 1.550722 1_555
O4 V5 1.866024 1_555
O5 P3 1.589301 1_555
O5 V4 1.947247 1_655
O6 P2 1.530497 1_555
O6 V4 1.912601 1_655
O7 P15 1.502975 1_655
O8 P5 1.541419 1_555
O8 V5 2.008880 1_555
O9 P4 1.590414 1_555
O9 V2 1.944605 1_565
O10 P1 1.548908 1_555
O10 V3 1.871483 1_555
O11 P4 1.603897 1_555
O11 V5 1.907422 1_555
O12 P3 1.487428 1_555
O13 P4 1.487635 1_555
O14 P3 1.564876 1_555
O14 V0 1.994790 1_555
O15 P7 1.529966 1_555
O15 V2 1.912708 1_565
O16 P3 1.606381 1_555
O16 V3 1.898201 1_555
O17 P2 1.552376 1_555
O17 V0 1.978920 1_555
O18 P6 1.613174 1_555
O18 P5 1.615539 1_555
O19 P6 1.506413 1_555
O20 P5 1.479871 1_555
O21 P5 1.569716 1_555
O21 V1 1.827494 1_555
O22 P4 1.566112 1_555
O22 V1 1.992526 1_555
O23 P8 1.567249 1_555
O23 V0 1.959153 1_555
O24 P9 1.570426 1_555
O24 V0 1.826386 1_555
O25 P9 1.540553 1_555
O25 V3 2.013895 1_555
O26 P8 1.609012 1_555
O26 P1 1.617044 1_545
O27 P1 1.501899 1_545
O28 P14 1.502751 1_565
O29 P6 1.538830 1_555
O29 V2 2.048146 1_555
O30 P6 1.552307 1_555
O30 V1 1.995675 1_555
O31 P7 1.552282 1_555
O31 V1 1.978636 1_555
O32 P11 1.572572 1_555
O32 V0 1.995869 1_555
O33 P10 1.552254 1_555
O33 V0 1.995356 1_555
O34 P10 1.506470 1_555
O35 P9 1.480169 1_555
O36 P10 1.613251 1_555
O36 P9 1.615847 1_555
O37 P13 1.567047 1_555
O37 V1 1.959940 1_555
O38 P12 1.574987 1_555
O38 V2 1.892844 1_555
O39 P8 1.564962 1_555
O39 V3 1.962620 1_545
O40 P12 1.572899 1_555
O40 V1 1.995887 1_555
O41 P12 1.499346 1_555
O42 P11 1.499240 1_555
O43 P11 1.573817 1_555
O43 V4 1.894110 1_555
O44 P14 1.546786 1_555
O44 V2 1.997992 1_555
O45 P11 1.582900 1_555
O45 V3 1.960137 1_545
O46 P10 1.538888 1_555
O46 V4 2.047854 1_555
O47 P13 1.609975 1_555
O47 P0 1.616158 1_455
O48 P0 1.501605 1_455
O49 P13 1.564684 1_555
O49 V5 1.963274 1_455
O50 P12 1.581878 1_555
O50 V5 1.966753 1_455
O51 P15 1.547429 1_555
O51 V4 1.995333 1_555
O52 P15 1.543577 1_555
O52 V3 2.035173 1_545
O53 P7 1.504917 1_545
O54 P14 1.614991 1_555
O54 P7 1.618943 1_545
O55 P14 1.545000 1_555
O55 V5 2.026831 1_455
O56 P2 1.505076 1_455
O57 P15 1.615875 1_555
O57 P2 1.618696 1_455
