# generated using pymatgen
data_HfMg6V
_symmetry_space_group_name_H-M   'P 1'
_cell_length_a   5.05219000
_cell_length_b   6.15410200
_cell_length_c   10.99143300
_cell_angle_alpha   90.00000000
_cell_angle_beta   90.00000000
_cell_angle_gamma   90.00000000
_symmetry_Int_Tables_number   1
_chemical_formula_structural   HfMg6V
_chemical_formula_sum   'Hf2 Mg12 V2'
_cell_volume   341.74225589
_cell_formula_units_Z   2
loop_
 _symmetry_equiv_pos_site_id
 _symmetry_equiv_pos_as_xyz
  1  'x, y, z'
loop_
 _atom_site_type_symbol
 _atom_site_label
 _atom_site_symmetry_multiplicity
 _atom_site_fract_x
 _atom_site_fract_y
 _atom_site_fract_z
 _atom_site_occupancy
  Hf  Hf0  1  0.50000000  0.50000000  0.16683200  1
  Hf  Hf1  1  0.50000000  0.00000000  0.66683200  1
  Mg  Mg0  1  0.50000000  0.25272900  0.41774900  1
  Mg  Mg1  1  0.50000000  0.74727100  0.41774900  1
  Mg  Mg2  1  0.00000000  0.75480300  0.08808100  1
  Mg  Mg3  1  0.00000000  0.24519700  0.08808100  1
  Mg  Mg4  1  0.00000000  0.00000000  0.32585800  1
  Mg  Mg5  1  0.00000000  0.50000000  0.32928500  1
  Mg  Mg6  1  0.50000000  0.75272900  0.91774900  1
  Mg  Mg7  1  0.50000000  0.24727100  0.91774900  1
  Mg  Mg8  1  0.00000000  0.25480300  0.58808100  1
  Mg  Mg9  1  0.00000000  0.74519700  0.58808100  1
  Mg  Mg10  1  0.00000000  0.50000000  0.82585800  1
  Mg  Mg11  1  0.00000000  0.00000000  0.82928500  1
  V  V0  1  0.50000000  0.00000000  0.16636200  1
  V  V1  1  0.50000000  0.50000000  0.66636200  1
loop_
_geom_bond_atom_site_label_1
_geom_bond_atom_site_label_2
_geom_bond_distance
_geom_bond_site_symmetry_2
Hf0 V0 3.077055 1_565
Hf0 V0 3.077055 1_555
Hf0 Mg5 3.093460 1_655
Hf0 Mg5 3.093460 1_555
Hf0 Mg3 3.096657 1_655
Hf0 Mg2 3.096657 1_655
Hf0 Mg3 3.096657 1_555
Hf0 Mg2 3.096657 1_555
Hf0 Mg6 3.148723 1_554
Hf0 Mg7 3.148723 1_554
Hf0 Mg1 3.149902 1_555
Hf0 Mg0 3.149902 1_555
Hf1 V1 3.077055 1_555
Hf1 V1 3.077055 1_545
Hf1 Mg11 3.093460 1_555
Hf1 Mg11 3.093460 1_655
Hf1 Mg9 3.096657 1_645
Hf1 Mg8 3.096657 1_555
Hf1 Mg8 3.096657 1_655
Hf1 Mg9 3.096657 1_545
Hf1 Mg1 3.148723 1_545
Hf1 Mg0 3.148723 1_555
Hf1 Mg6 3.149902 1_545
Hf1 Mg7 3.149902 1_555
Mg0 Mg1 3.043462 1_555
Mg0 Mg5 3.105202 1_655
Mg0 Mg5 3.105202 1_555
Mg0 Mg1 3.110640 1_545
Mg0 V1 3.127753 1_555
Mg0 Mg4 3.133736 1_555
Mg0 Mg4 3.133736 1_655
Mg0 Mg8 3.144269 1_655
Mg0 Mg8 3.144269 1_555
Mg0 V0 3.170767 1_555
Mg1 Mg5 3.105202 1_655
Mg1 Mg5 3.105202 1_555
Mg1 V1 3.127753 1_555
Mg1 Mg4 3.133736 1_565
Mg1 Mg4 3.133736 1_665
Mg1 Mg9 3.144269 1_555
Mg1 Mg9 3.144269 1_655
Mg1 V0 3.170767 1_565
Mg2 Mg4 3.017850 1_565
Mg2 Mg3 3.017935 1_565
Mg2 V0 3.065691 1_465
Mg2 V0 3.065691 1_565
Mg2 Mg5 3.080200 1_555
Mg2 Mg3 3.136167 1_555
Mg2 Mg6 3.144269 1_554
Mg2 Mg6 3.144269 1_454
Mg3 Mg4 3.017850 1_555
Mg3 V0 3.065691 1_555
Mg3 V0 3.065691 1_455
Mg3 Mg5 3.080200 1_555
Mg3 Mg7 3.144269 1_554
Mg3 Mg7 3.144269 1_454
Mg4 V0 3.074814 1_555
Mg4 V0 3.074814 1_455
Mg4 Mg5 3.077282 1_545
Mg4 Mg5 3.077282 1_555
Mg4 Mg9 3.281158 1_545
Mg4 Mg8 3.281158 1_555
Mg5 Mg8 3.219998 1_555
Mg5 Mg9 3.219998 1_555
Mg6 Mg7 3.043462 1_565
Mg6 Mg7 3.110640 1_555
Mg6 V0 3.127753 1_566
Mg6 V1 3.170767 1_555
Mg7 V0 3.127753 1_556
Mg7 V1 3.170767 1_555
Mg8 Mg9 3.017935 1_555
Mg8 V1 3.065691 1_455
Mg8 V1 3.065691 1_555
Mg8 Mg9 3.136167 1_545
Mg9 V1 3.065691 1_455
Mg9 V1 3.065691 1_555
Mg10 Mg8 3.017850 1_555
Mg10 Mg9 3.017850 1_555
Mg10 V1 3.074814 1_455
Mg10 V1 3.074814 1_555
Mg10 Mg11 3.077282 1_555
Mg10 Mg11 3.077282 1_565
Mg10 Mg6 3.133736 1_455
Mg10 Mg6 3.133736 1_555
Mg10 Mg7 3.133736 1_555
Mg10 Mg7 3.133736 1_455
Mg10 Mg2 3.281158 1_556
Mg10 Mg3 3.281158 1_556
Mg11 Mg8 3.080200 1_555
Mg11 Mg9 3.080200 1_545
Mg11 Mg6 3.105202 1_545
Mg11 Mg7 3.105202 1_455
Mg11 Mg7 3.105202 1_555
Mg11 Mg6 3.105202 1_445
Mg11 Mg3 3.219998 1_556
Mg11 Mg2 3.219998 1_546
