# generated using pymatgen
data_Mg2MnWO6
_symmetry_space_group_name_H-M   'P 1'
_cell_length_a   5.26949908
_cell_length_b   5.39108300
_cell_length_c   7.86904259
_cell_angle_alpha   90.00041810
_cell_angle_beta   89.99990026
_cell_angle_gamma   90.00204200
_symmetry_Int_Tables_number   1
_chemical_formula_structural   Mg2MnWO6
_chemical_formula_sum   'Mg4 Mn2 W2 O12'
_cell_volume   223.54617676
_cell_formula_units_Z   2
loop_
 _symmetry_equiv_pos_site_id
 _symmetry_equiv_pos_as_xyz
  1  'x, y, z'
loop_
 _atom_site_type_symbol
 _atom_site_label
 _atom_site_symmetry_multiplicity
 _atom_site_fract_x
 _atom_site_fract_y
 _atom_site_fract_z
 _atom_site_occupancy
  Mg  Mg0  1  0.00453300  0.03767800  0.27243100  1
  Mg  Mg1  1  0.49545500  0.53766400  0.22756500  1
  Mg  Mg2  1  0.99556700  0.96227000  0.72753900  1
  Mg  Mg3  1  0.50445200  0.46228300  0.77246600  1
  Mn  Mn0  1  0.99969900  0.50016700  0.49993600  1
  Mn  Mn1  1  0.49980300  0.99994600  0.00016500  1
  W  W0  1  0.50006900  0.99996400  0.49998000  1
  W  W1  1  0.00008000  0.50000800  0.99999400  1
  O  O0  1  0.65209300  0.30001000  0.40423600  1
  O  O1  1  0.84797300  0.79994700  0.09577200  1
  O  O2  1  0.34789900  0.70003600  0.59578300  1
  O  O3  1  0.15210700  0.20010700  0.90423000  1
  O  O4  1  0.18138900  0.16603100  0.54547600  1
  O  O5  1  0.31887600  0.66588400  0.95447400  1
  O  O6  1  0.81883100  0.83410600  0.45441300  1
  O  O7  1  0.68138500  0.33394800  0.04544900  1
  O  O8  1  0.12902500  0.39975300  0.22615600  1
  O  O9  1  0.37087000  0.89980700  0.27390600  1
  O  O10  1  0.62909600  0.10019800  0.72614800  1
  O  O11  1  0.87080100  0.60019300  0.77388000  1
loop_
_geom_bond_atom_site_label_1
_geom_bond_atom_site_label_2
_geom_bond_distance
_geom_bond_site_symmetry_2
Mg0 O6 2.052475 1_445
Mg0 O1 2.062902 1_445
Mg0 O9 2.068619 1_545
Mg0 O8 2.091190 1_555
Mg0 O4 2.442081 1_555
Mg0 O0 2.554435 1_455
Mg1 O7 2.054225 1_555
Mg1 O0 2.062922 1_555
Mg1 O8 2.069102 1_555
Mg1 O9 2.091816 1_555
Mg1 O5 2.441668 1_554
Mg1 O1 2.554485 1_555
Mg2 O4 2.053767 1_665
Mg2 O3 2.063385 1_665
Mg2 O10 2.069385 1_565
Mg2 O11 2.091744 1_555
Mg2 O6 2.442112 1_555
Mg2 O2 2.553572 1_655
Mg3 O5 2.052412 1_555
Mg3 O2 2.063138 1_555
Mg3 O11 2.068702 1_555
Mg3 O10 2.091590 1_555
Mg3 O7 2.441807 1_556
Mg3 O3 2.553410 1_555
Mn0 O6 2.068303 1_555
Mn0 O4 2.071250 1_655
Mn0 O0 2.255327 1_555
Mn0 O2 2.257514 1_655
Mn0 O8 2.323543 1_655
Mn0 O11 2.323594 1_555
Mn1 O5 2.069190 1_554
Mn1 O7 2.069947 1_565
Mn1 O3 2.256408 1_564
Mn1 O1 2.257158 1_555
Mn1 O9 2.322303 1_555
Mn1 O10 2.325015 1_564
O0 W0 1.955976 1_545
O1 W1 1.955820 1_654
O2 W0 1.955944 1_555
O3 W1 1.955435 1_555
O4 W0 1.936439 1_545
O5 W1 1.936475 1_555
O6 W0 1.936396 1_555
O7 W1 1.936377 1_654
O8 W1 1.980179 1_554
O9 W0 1.979852 1_555
O10 W0 1.980318 1_545
O11 W1 1.980341 1_655
