# generated using pymatgen
data_Mg2Si3
_symmetry_space_group_name_H-M   'P 1'
_cell_length_a   3.68235200
_cell_length_b   6.04856294
_cell_length_c   17.70373329
_cell_angle_alpha   87.23356874
_cell_angle_beta   84.58930635
_cell_angle_gamma   73.72584855
_symmetry_Int_Tables_number   1
_chemical_formula_structural   Mg2Si3
_chemical_formula_sum   'Mg8 Si12'
_cell_volume   376.72976266
_cell_formula_units_Z   4
loop_
 _symmetry_equiv_pos_site_id
 _symmetry_equiv_pos_as_xyz
  1  'x, y, z'
loop_
 _atom_site_type_symbol
 _atom_site_label
 _atom_site_symmetry_multiplicity
 _atom_site_fract_x
 _atom_site_fract_y
 _atom_site_fract_z
 _atom_site_occupancy
  Mg  Mg0  1  0.61287400  0.01078500  0.74231800  1
  Mg  Mg1  1  0.84606500  0.04422500  0.14948900  1
  Mg  Mg2  1  0.93982800  0.25118500  0.85354400  1
  Mg  Mg3  1  0.57044900  0.69441000  0.04531600  1
  Mg  Mg4  1  0.68587800  0.32953100  0.29565100  1
  Mg  Mg5  1  0.32516100  0.58677700  0.75224000  1
  Mg  Mg6  1  0.00402000  0.56828700  0.42757600  1
  Mg  Mg7  1  0.48245300  0.46284300  0.57659800  1
  Si  Si0  1  0.25690900  0.31171600  0.02319600  1
  Si  Si1  1  0.87629300  0.05421800  0.99404500  1
  Si  Si2  1  0.67932000  0.82825200  0.88535400  1
  Si  Si3  1  0.14296000  0.43902600  0.15582700  1
  Si  Si4  1  0.89340200  0.82515000  0.29513600  1
  Si  Si5  1  0.99830400  0.30906000  0.68522600  1
  Si  Si6  1  0.66395000  0.17792000  0.45447300  1
  Si  Si7  1  0.77409900  0.86813200  0.54838200  1
  Si  Si8  1  0.26270200  0.05302200  0.37326500  1
  Si  Si9  1  0.20924400  0.92038600  0.63204500  1
  Si  Si10  1  0.27553400  0.56711700  0.90947900  1
  Si  Si11  1  0.50035500  0.69799100  0.20087900  1
loop_
_geom_bond_atom_site_label_1
_geom_bond_atom_site_label_2
_geom_bond_distance
_geom_bond_site_symmetry_2
Mg0 Si5 2.698046 1_555
Mg0 Si5 2.713851 1_455
Mg0 Si2 2.717864 1_545
Mg0 Si9 2.724900 1_545
Mg0 Si9 2.748522 1_645
Mg1 Si1 2.742108 1_554
Mg1 Si11 2.815304 1_545
Mg1 Si4 2.839080 1_545
Mg1 Si11 2.901701 1_645
Mg1 Si3 2.902153 1_655
Mg1 Si3 2.987350 1_555
Mg2 Si1 2.724267 1_555
Mg2 Si10 2.778842 1_555
Mg2 Si10 2.810328 1_655
Mg2 Si5 2.978087 1_555
Mg2 Si2 2.985944 1_545
Mg3 Si11 2.742340 1_555
Mg3 Si1 2.796230 1_564
Mg3 Si0 2.918059 1_555
Mg3 Si0 2.919339 1_655
Mg3 Si2 2.929570 1_554
Mg3 Si10 2.948763 1_554
Mg3 Si3 3.030205 1_555
Mg3 Si1 3.036951 1_464
Mg3 Si3 3.052743 1_655
Mg4 Si11 2.692688 1_555
Mg4 Si8 2.744893 1_655
Mg4 Si8 2.819315 1_555
Mg4 Si6 2.916015 1_555
Mg4 Si4 2.930195 1_545
Mg4 Si3 3.013301 1_655
Mg5 Si5 2.696796 1_455
Mg5 Si5 2.770838 1_555
Mg5 Si10 2.771445 1_555
Mg5 Si9 2.838305 1_555
Mg6 Si4 2.747922 1_455
Mg6 Si7 2.784335 1_455
Mg6 Si6 2.932746 1_555
Mg6 Si6 2.967518 1_455
Mg6 Si8 3.161928 1_555
Mg7 Si6 2.744605 1_555
Mg7 Si5 2.774498 1_555
Mg7 Si5 2.802173 1_455
Mg7 Si9 2.854850 1_555
Mg7 Si7 2.944228 1_555
Mg7 Si7 3.099434 1_455
Si0 Si1 2.399745 1_554
Si0 Si3 2.467807 1_555
Si0 Si1 2.468594 1_454
Si0 Si10 2.485419 1_554
Si1 Si2 2.677600 1_545
Si4 Si8 2.644017 1_565
Si4 Si8 2.692851 1_665
Si5 Si9 2.463508 1_645
Si6 Si7 2.416625 1_545
Si6 Si8 2.439632 1_555
Si6 Si8 2.464219 1_655
Si7 Si9 2.374417 1_655
Si7 Si9 2.390775 1_555
Si10 Si2 2.380225 1_455
Si10 Si2 2.453449 1_555
Si11 Si3 2.509095 1_555
Si11 Si3 2.525137 1_655
Si11 Si4 2.583443 1_555
Si11 Si4 2.613139 1_455
