# generated using pymatgen
data_ZnAg2SnS4
_symmetry_space_group_name_H-M   'P 1'
_cell_length_a   7.24990160
_cell_length_b   7.24990160
_cell_length_c   7.24990160
_cell_angle_alpha   134.75223399
_cell_angle_beta   134.75223399
_cell_angle_gamma   65.91541660
_symmetry_Int_Tables_number   1
_chemical_formula_structural   ZnAg2SnS4
_chemical_formula_sum   'Zn1 Ag2 Sn1 S4'
_cell_volume   189.25842424
_cell_formula_units_Z   1
loop_
 _symmetry_equiv_pos_site_id
 _symmetry_equiv_pos_as_xyz
  1  'x, y, z'
loop_
 _atom_site_type_symbol
 _atom_site_label
 _atom_site_symmetry_multiplicity
 _atom_site_fract_x
 _atom_site_fract_y
 _atom_site_fract_z
 _atom_site_occupancy
  Zn  Zn0  1  0.00000000  0.00000000  0.00000000  1
  Ag  Ag0  1  0.75000000  0.25000000  0.50000000  1
  Ag  Ag1  1  0.25000000  0.75000000  0.50000000  1
  Sn  Sn0  1  0.50000000  0.50000000  0.00000000  1
  S  S0  1  0.63948000  0.12891100  0.00000000  1
  S  S1  1  0.12891100  0.63948000  0.00000000  1
  S  S2  1  0.36052000  0.36052000  0.48943100  1
  S  S3  1  0.87108900  0.87108900  0.51056900  1
loop_
_geom_bond_atom_site_label_1
_geom_bond_atom_site_label_2
_geom_bond_distance
_geom_bond_site_symmetry_2
Ag0 S2 2.560532 1_555
Ag0 S3 2.560532 1_545
Ag0 S0 2.560532 1_555
Ag0 S1 2.560532 1_656
Ag1 S2 2.560532 1_555
Ag1 S0 2.560532 1_566
Ag1 S3 2.560532 1_455
Ag1 S1 2.560532 1_555
S0 Zn0 2.389843 1_655
S0 Sn0 2.457676 1_555
S1 Zn0 2.389843 1_565
S1 Sn0 2.457676 1_555
S2 Zn0 2.389843 1_555
S2 Sn0 2.457676 1_556
S3 Zn0 2.389843 1_666
S3 Sn0 2.457676 1_555
