# generated using pymatgen
data_MgFe3Co5O16
_symmetry_space_group_name_H-M   'P 1'
_cell_length_a   5.82570651
_cell_length_b   5.74615884
_cell_length_c   9.13095499
_cell_angle_alpha   89.92844809
_cell_angle_beta   91.08307656
_cell_angle_gamma   119.49268480
_symmetry_Int_Tables_number   1
_chemical_formula_structural   MgFe3Co5O16
_chemical_formula_sum   'Mg1 Fe3 Co5 O16'
_cell_volume   265.99554379
_cell_formula_units_Z   1
loop_
 _symmetry_equiv_pos_site_id
 _symmetry_equiv_pos_as_xyz
  1  'x, y, z'
loop_
 _atom_site_type_symbol
 _atom_site_label
 _atom_site_symmetry_multiplicity
 _atom_site_fract_x
 _atom_site_fract_y
 _atom_site_fract_z
 _atom_site_occupancy
  Mg  Mg0  1  0.03616100  0.02339800  0.99057200  1
  Fe  Fe0  1  0.67122700  0.83478200  0.22242000  1
  Fe  Fe1  1  0.82541800  0.65571100  0.69234000  1
  Fe  Fe2  1  0.82001600  0.16461200  0.69410600  1
  Co  Co0  1  0.17811900  0.83303700  0.22912800  1
  Co  Co1  1  0.33198500  0.66927300  0.48792900  1
  Co  Co2  1  0.17889200  0.34673800  0.23101800  1
  Co  Co3  1  0.33674000  0.16922400  0.69739700  1
  Co  Co4  1  0.66685000  0.33268900  0.97985000  1
  O  O0  1  0.18181300  0.83449500  0.59996600  1
  O  O1  1  0.04278400  0.52254000  0.34866700  1
  O  O2  1  0.30823200  0.65378800  0.12131100  1
  O  O3  1  0.02245400  0.01151300  0.32014800  1
  O  O4  1  0.00447200  0.00477900  0.78899600  1
  O  O5  1  0.18310400  0.35131700  0.60043100  1
  O  O6  1  0.46093700  0.95183300  0.35324400  1
  O  O7  1  0.46257000  0.51198400  0.35511500  1
  O  O8  1  0.34884600  0.17645000  0.11438600  1
  O  O9  1  0.65027700  0.82878700  0.59299600  1
  O  O10  1  0.50624900  0.45792900  0.84047300  1
  O  O11  1  0.49684200  0.04274200  0.84187900  1
  O  O12  1  0.64450500  0.31543800  0.58924200  1
  O  O13  1  0.84855400  0.67897200  0.09800400  1
  O  O14  1  0.93803700  0.45739500  0.84113700  1
  O  O15  1  0.84449900  0.17077200  0.10058800  1
loop_
_geom_bond_atom_site_label_1
_geom_bond_atom_site_label_2
_geom_bond_distance
_geom_bond_site_symmetry_2
Mg0 O4 1.844306 1_555
Mg0 O8 1.927969 1_556
Mg0 O15 1.987086 1_456
Mg0 O13 1.994896 1_446
Fe0 O3 1.975238 1_665
Fe0 O15 2.025361 1_565
Fe0 O13 2.029027 1_555
Fe0 O2 2.041818 1_555
Fe0 O7 2.053330 1_555
Fe0 O6 2.061265 1_555
Fe1 O12 1.938579 1_555
Fe1 O4 1.949294 1_665
Fe1 O9 1.953165 1_555
Fe1 O0 2.010348 1_655
Fe1 O14 2.067262 1_555
Fe1 O10 2.142193 1_555
Fe2 O12 1.883305 1_555
Fe2 O9 1.909195 1_545
Fe2 O4 1.919250 1_655
Fe2 O14 1.984269 1_555
Fe2 O5 2.046590 1_655
Fe2 O11 2.156656 1_555
Co0 O6 1.813535 1_555
Co0 O2 1.845023 1_555
Co0 O3 1.873827 1_565
Co0 O1 1.907580 1_555
Co0 O8 2.020546 1_565
Co0 O13 2.036077 1_455
Co1 O9 1.860193 1_555
Co1 O6 1.881999 1_555
Co1 O0 1.888738 1_555
Co1 O7 1.892329 1_555
Co1 O5 1.901119 1_555
Co1 O1 1.920780 1_555
Co2 O7 1.817567 1_555
Co2 O2 1.843720 1_555
Co2 O3 1.870556 1_555
Co2 O1 1.904419 1_555
Co2 O8 2.017002 1_555
Co2 O15 2.052211 1_455
Co3 O12 1.864797 1_555
Co3 O5 1.889357 1_555
Co3 O0 1.889492 1_545
Co3 O4 1.896737 1_555
Co3 O11 1.938336 1_555
Co3 O10 1.943608 1_555
Co4 O14 1.890067 1_555
Co4 O10 1.904877 1_555
Co4 O11 1.917601 1_555
Co4 O15 2.013587 1_556
Co4 O13 2.032740 1_556
Co4 O8 2.047639 1_556
