# generated using pymatgen
data_MnSe2O5
_symmetry_space_group_name_H-M   'P 1'
_cell_length_a   5.78343847
_cell_length_b   7.39037286
_cell_length_c   10.92074915
_cell_angle_alpha   89.99999998
_cell_angle_beta   90.00000226
_cell_angle_gamma   73.85282616
_symmetry_Int_Tables_number   1
_chemical_formula_structural   MnSe2O5
_chemical_formula_sum   'Mn4 Se8 O20'
_cell_volume   448.35818826
_cell_formula_units_Z   4
loop_
 _symmetry_equiv_pos_site_id
 _symmetry_equiv_pos_as_xyz
  1  'x, y, z'
loop_
 _atom_site_type_symbol
 _atom_site_label
 _atom_site_symmetry_multiplicity
 _atom_site_fract_x
 _atom_site_fract_y
 _atom_site_fract_z
 _atom_site_occupancy
  Mn  Mn0  1  0.25000000  0.00000000  0.08245222  1
  Mn  Mn1  1  0.25000000  0.50000000  0.41754778  1
  Mn  Mn2  1  0.75000000  0.50000000  0.58245222  1
  Mn  Mn3  1  0.75000000  -0.00000000  0.91754778  1
  Se  Se0  1  0.46810201  0.64949335  0.85896350  1
  Se  Se1  1  0.96810201  0.14949335  0.35896350  1
  Se  Se2  1  0.03189799  0.35050665  0.85896350  1
  Se  Se3  1  0.53189799  0.85050665  0.35896350  1
  Se  Se4  1  0.53189799  0.35050665  0.14103650  1
  Se  Se5  1  0.03189799  0.85050665  0.64103650  1
  Se  Se6  1  0.96810201  0.64949335  0.14103650  1
  Se  Se7  1  0.46810201  0.14949335  0.64103650  1
  O  O0  1  0.75000000  0.50000000  0.92125928  1
  O  O1  1  0.25000000  -0.00000000  0.42125928  1
  O  O2  1  0.25000000  0.50000000  0.07874072  1
  O  O3  1  0.75000000  0.00000000  0.57874072  1
  O  O4  1  0.53564287  0.68838220  0.71429385  1
  O  O5  1  0.03564287  0.18838220  0.21429385  1
  O  O6  1  0.96435713  0.31161780  0.71429385  1
  O  O7  1  0.46435713  0.81161780  0.21429385  1
  O  O8  1  0.46435713  0.31161780  0.28570615  1
  O  O9  1  0.96435713  0.81161780  0.78570615  1
  O  O10  1  0.03564287  0.68838220  0.28570615  1
  O  O11  1  0.53564287  0.18838220  0.78570615  1
  O  O12  1  0.98313809  0.84631253  0.06523041  1
  O  O13  1  0.48313809  0.34631253  0.56523041  1
  O  O14  1  0.51686191  0.15368747  0.06523041  1
  O  O15  1  0.01686191  0.65368747  0.56523041  1
  O  O16  1  0.01686191  0.15368747  0.93476959  1
  O  O17  1  0.51686191  0.65368747  0.43476959  1
  O  O18  1  0.48313809  0.84631253  0.93476959  1
  O  O19  1  0.98313809  0.34631253  0.43476959  1
loop_
_geom_bond_atom_site_label_1
_geom_bond_atom_site_label_2
_geom_bond_distance
_geom_bond_site_symmetry_2
Mn0 O7 2.142014 1_545
Mn0 O5 2.142014 1_555
Mn0 O12 2.163904 1_445
Mn0 O14 2.163904 1_555
Mn0 O16 2.203953 1_554
Mn0 O18 2.203953 1_544
Mn1 O10 2.142014 1_555
Mn1 O8 2.142014 1_555
Mn1 O17 2.163904 1_555
Mn1 O19 2.163904 1_455
Mn1 O13 2.203953 1_555
Mn1 O15 2.203953 1_555
Mn2 O6 2.142014 1_555
Mn2 O4 2.142014 1_555
Mn2 O13 2.163904 1_555
Mn2 O15 2.163904 1_655
Mn2 O17 2.203953 1_555
Mn2 O19 2.203953 1_555
Mn3 O11 2.142014 1_555
Mn3 O9 2.142014 1_545
Mn3 O16 2.163904 1_655
Mn3 O18 2.163904 1_545
Mn3 O12 2.203953 1_546
Mn3 O14 2.203953 1_556
O0 Se0 1.827454 1_555
O0 Se2 1.827454 1_655
O1 Se1 1.827454 1_455
O1 Se3 1.827454 1_545
O2 Se4 1.827454 1_555
O2 Se6 1.827454 1_455
O3 Se5 1.827454 1_645
O3 Se7 1.827454 1_555
O4 Se0 1.671441 1_555
O5 Se1 1.671441 1_455
O6 Se2 1.671440 1_655
O7 Se3 1.671440 1_555
O8 Se4 1.671441 1_555
O9 Se5 1.671441 1_655
O10 Se6 1.671440 1_455
O11 Se7 1.671440 1_555
O12 Se6 1.696771 1_555
O13 Se7 1.696771 1_555
O14 Se4 1.696771 1_555
O15 Se5 1.696771 1_555
O16 Se2 1.696771 1_555
O17 Se3 1.696771 1_555
O18 Se0 1.696771 1_555
O19 Se1 1.696771 1_555
