# generated using pymatgen
data_CsTe7
_symmetry_space_group_name_H-M   'P 1'
_cell_length_a   13.69164227
_cell_length_b   19.30986543
_cell_length_c   19.30986543
_cell_angle_alpha   90.00000000
_cell_angle_beta   90.00000000
_cell_angle_gamma   90.00000000
_symmetry_Int_Tables_number   1
_chemical_formula_structural   CsTe7
_chemical_formula_sum   'Cs16 Te112'
_cell_volume   5105.21501574
_cell_formula_units_Z   16
loop_
 _symmetry_equiv_pos_site_id
 _symmetry_equiv_pos_as_xyz
  1  'x, y, z'
loop_
 _atom_site_type_symbol
 _atom_site_label
 _atom_site_symmetry_multiplicity
 _atom_site_fract_x
 _atom_site_fract_y
 _atom_site_fract_z
 _atom_site_occupancy
  Cs  Cs0  1  0.50670352  0.75000000  0.75000000  1
  Cs  Cs1  1  0.00670352  0.75000000  0.75000000  1
  Cs  Cs2  1  0.49329648  0.25000000  0.25000000  1
  Cs  Cs3  1  0.99329648  0.25000000  0.25000000  1
  Cs  Cs4  1  0.00000000  0.25000000  0.75000000  1
  Cs  Cs5  1  0.50000000  0.25000000  0.75000000  1
  Cs  Cs6  1  0.50000000  0.75000000  0.25000000  1
  Cs  Cs7  1  0.00000000  0.75000000  0.25000000  1
  Cs  Cs8  1  0.25000000  0.50633405  0.49366595  1
  Cs  Cs9  1  0.75000000  0.99366595  0.49366595  1
  Cs  Cs10  1  0.75000000  0.50633405  0.00633405  1
  Cs  Cs11  1  0.25000000  0.99366595  0.00633405  1
  Cs  Cs12  1  0.75000000  0.49366595  0.50633405  1
  Cs  Cs13  1  0.25000000  0.00633405  0.50633405  1
  Cs  Cs14  1  0.25000000  0.49366595  0.99366595  1
  Cs  Cs15  1  0.75000000  0.00633405  0.99366595  1
  Te  Te0  1  0.31832063  0.59751587  0.80063298  1
  Te  Te1  1  0.81832063  0.90248413  0.80063298  1
  Te  Te2  1  0.81832063  0.59751587  0.69936702  1
  Te  Te3  1  0.31832063  0.90248413  0.69936702  1
  Te  Te4  1  0.81832063  0.80063298  0.59751587  1
  Te  Te5  1  0.31832063  0.69936702  0.59751587  1
  Te  Te6  1  0.31832063  0.80063298  0.90248413  1
  Te  Te7  1  0.81832063  0.69936702  0.90248413  1
  Te  Te8  1  0.68167937  0.40248413  0.19936702  1
  Te  Te9  1  0.18167937  0.09751587  0.19936702  1
  Te  Te10  1  0.18167937  0.40248413  0.30063298  1
  Te  Te11  1  0.68167937  0.09751587  0.30063298  1
  Te  Te12  1  0.18167937  0.19936702  0.40248413  1
  Te  Te13  1  0.68167937  0.30063298  0.40248413  1
  Te  Te14  1  0.68167937  0.19936702  0.09751587  1
  Te  Te15  1  0.18167937  0.30063298  0.09751587  1
  Te  Te16  1  0.20276492  0.60644092  0.68086389  1
  Te  Te17  1  0.70276492  0.89355908  0.68086389  1
  Te  Te18  1  0.70276492  0.60644092  0.81913611  1
  Te  Te19  1  0.20276492  0.89355908  0.81913611  1
  Te  Te20  1  0.70276492  0.68086389  0.60644092  1
  Te  Te21  1  0.20276492  0.81913611  0.60644092  1
  Te  Te22  1  0.20276492  0.68086389  0.89355908  1
  Te  Te23  1  0.70276492  0.81913611  0.89355908  1
  Te  Te24  1  0.79723508  0.39355908  0.31913611  1
  Te  Te25  1  0.29723508  0.10644092  0.31913611  1
  Te  Te26  1  0.29723508  0.39355908  0.18086389  1
  Te  Te27  1  0.79723508  0.10644092  0.18086389  1
  Te  Te28  1  0.29723508  0.31913611  0.39355908  1
  Te  Te29  1  0.79723508  0.18086389  0.39355908  1
  Te  Te30  1  0.79723508  0.31913611  0.10644092  1
  Te  Te31  1  0.29723508  0.18086389  0.10644092  1
  Te  Te32  1  0.30271426  0.40016572  0.68803624  1
  Te  Te33  1  0.80271426  0.09983428  0.68803624  1
  Te  Te34  1  0.80271426  0.40016572  0.81196376  1
  Te  Te35  1  0.30271426  0.09983428  0.81196376  1
  Te  Te36  1  0.80271426  0.68803624  0.40016572  1
  Te  Te37  1  0.30271426  0.81196376  0.40016572  1
  Te  Te38  1  0.30271426  0.68803624  0.09983428  1
  Te  Te39  1  0.80271426  0.81196376  0.09983428  1
  Te  Te40  1  0.69728574  0.59983428  0.31196376  1
  Te  Te41  1  0.19728574  0.90016572  0.31196376  1
  Te  Te42  1  0.19728574  0.59983428  0.18803624  1
  Te  Te43  1  0.69728574  0.90016572  0.18803624  1
  Te  Te44  1  0.19728574  0.31196376  0.59983428  1
  Te  Te45  1  0.69728574  0.18803624  0.59983428  1
  Te  Te46  1  0.69728574  0.31196376  0.90016572  1
  Te  Te47  1  0.19728574  0.18803624  0.90016572  1
  Te  Te48  1  0.17199058  0.40336993  0.79908204  1
  Te  Te49  1  0.67199058  0.09663007  0.79908204  1
  Te  Te50  1  0.67199058  0.40336993  0.70091796  1
  Te  Te51  1  0.17199058  0.09663007  0.70091796  1
  Te  Te52  1  0.67199058  0.79908204  0.40336993  1
  Te  Te53  1  0.17199058  0.70091796  0.40336993  1
  Te  Te54  1  0.17199058  0.79908204  0.09663007  1
  Te  Te55  1  0.67199058  0.70091796  0.09663007  1
  Te  Te56  1  0.82800942  0.59663007  0.20091796  1
  Te  Te57  1  0.32800942  0.90336993  0.20091796  1
  Te  Te58  1  0.32800942  0.59663007  0.29908204  1
  Te  Te59  1  0.82800942  0.90336993  0.29908204  1
  Te  Te60  1  0.32800942  0.20091796  0.59663007  1
  Te  Te61  1  0.82800942  0.29908204  0.59663007  1
  Te  Te62  1  0.82800942  0.20091796  0.90336993  1
  Te  Te63  1  0.32800942  0.29908204  0.90336993  1
  Te  Te64  1  0.03660873  0.50195654  0.74873134  1
  Te  Te65  1  0.53660873  0.99804346  0.74873134  1
  Te  Te66  1  0.53660873  0.50195654  0.75126866  1
  Te  Te67  1  0.03660873  0.99804346  0.75126866  1
  Te  Te68  1  0.53660873  0.74873134  0.50195654  1
  Te  Te69  1  0.03660873  0.75126866  0.50195654  1
  Te  Te70  1  0.03660873  0.74873134  0.99804346  1
  Te  Te71  1  0.53660873  0.75126866  0.99804346  1
  Te  Te72  1  0.96339127  0.49804346  0.25126866  1
  Te  Te73  1  0.46339127  0.00195654  0.25126866  1
  Te  Te74  1  0.46339127  0.49804346  0.24873134  1
  Te  Te75  1  0.96339127  0.00195654  0.24873134  1
  Te  Te76  1  0.46339127  0.25126866  0.49804346  1
  Te  Te77  1  0.96339127  0.24873134  0.49804346  1
  Te  Te78  1  0.96339127  0.25126866  0.00195654  1
  Te  Te79  1  0.46339127  0.24873134  0.00195654  1
  Te  Te80  1  0.00656350  0.44671849  0.59527768  1
  Te  Te81  1  0.50656350  0.05328151  0.59527768  1
  Te  Te82  1  0.50656350  0.44671849  0.90472232  1
  Te  Te83  1  0.00656350  0.05328151  0.90472232  1
  Te  Te84  1  0.50656350  0.59527768  0.44671849  1
  Te  Te85  1  0.00656350  0.90472232  0.44671849  1
  Te  Te86  1  0.00656350  0.59527768  0.05328151  1
  Te  Te87  1  0.50656350  0.90472232  0.05328151  1
  Te  Te88  1  0.99343650  0.55328151  0.40472232  1
  Te  Te89  1  0.49343650  0.94671849  0.40472232  1
  Te  Te90  1  0.49343650  0.55328151  0.09527768  1
  Te  Te91  1  0.99343650  0.94671849  0.09527768  1
  Te  Te92  1  0.49343650  0.40472232  0.55328151  1
  Te  Te93  1  0.99343650  0.09527768  0.55328151  1
  Te  Te94  1  0.99343650  0.40472232  0.94671849  1
  Te  Te95  1  0.49343650  0.09527768  0.94671849  1
  Te  Te96  1  0.00678001  0.55518701  0.90761543  1
  Te  Te97  1  0.50678001  0.94481299  0.90761543  1
  Te  Te98  1  0.50678001  0.55518701  0.59238457  1
  Te  Te99  1  0.00678001  0.94481299  0.59238457  1
  Te  Te100  1  0.50678001  0.90761543  0.55518701  1
  Te  Te101  1  0.00678001  0.59238457  0.55518701  1
  Te  Te102  1  0.00678001  0.90761543  0.94481299  1
  Te  Te103  1  0.50678001  0.59238457  0.94481299  1
  Te  Te104  1  0.99321999  0.44481299  0.09238457  1
  Te  Te105  1  0.49321999  0.05518701  0.09238457  1
  Te  Te106  1  0.49321999  0.44481299  0.40761543  1
  Te  Te107  1  0.99321999  0.05518701  0.40761543  1
  Te  Te108  1  0.49321999  0.09238457  0.44481299  1
  Te  Te109  1  0.99321999  0.40761543  0.44481299  1
  Te  Te110  1  0.99321999  0.09238457  0.05518701  1
  Te  Te111  1  0.49321999  0.40761543  0.05518701  1
loop_
_geom_bond_atom_site_label_1
_geom_bond_atom_site_label_2
_geom_bond_distance
_geom_bond_site_symmetry_2
Cs0 Te5 4.034643 1_555
Cs0 Te6 4.034643 1_555
Cs0 Te3 4.034643 1_555
Cs0 Te0 4.034643 1_555
Cs0 Te17 4.083239 1_555
Cs0 Te18 4.083239 1_555
Cs0 Te23 4.083239 1_555
Cs0 Te20 4.083239 1_555
Cs1 Te1 4.034643 1_455
Cs1 Te2 4.034643 1_455
Cs1 Te4 4.034643 1_455
Cs1 Te7 4.034643 1_455
Cs1 Te22 4.083239 1_555
Cs1 Te21 4.083239 1_555
Cs1 Te19 4.083239 1_555
Cs1 Te16 4.083239 1_555
Cs2 Te8 4.034643 1_555
Cs2 Te11 4.034643 1_555
Cs2 Te14 4.034643 1_555
Cs2 Te13 4.034643 1_555
Cs2 Te25 4.083239 1_555
Cs2 Te31 4.083239 1_555
Cs2 Te28 4.083239 1_555
Cs2 Te26 4.083239 1_555
Cs3 Te15 4.034643 1_655
Cs3 Te12 4.034643 1_655
Cs3 Te10 4.034643 1_655
Cs3 Te9 4.034643 1_655
Cs3 Te24 4.083239 1_555
Cs3 Te27 4.083239 1_555
Cs3 Te30 4.083239 1_555
Cs3 Te29 4.083239 1_555
Cs4 Te61 3.900551 1_455
Cs4 Te48 3.900551 1_555
Cs4 Te62 3.900551 1_455
Cs4 Te51 3.900551 1_555
Cs4 Te44 4.139575 1_555
Cs4 Te47 4.139575 1_555
Cs4 Te33 4.139575 1_455
Cs4 Te34 4.139575 1_455
Cs5 Te50 3.900551 1_555
Cs5 Te60 3.900551 1_555
Cs5 Te63 3.900551 1_555
Cs5 Te49 3.900551 1_555
Cs5 Te45 4.139575 1_555
Cs5 Te46 4.139575 1_555
Cs5 Te35 4.139575 1_555
Cs5 Te32 4.139575 1_555
Cs6 Te57 3.900551 1_555
Cs6 Te58 3.900551 1_555
Cs6 Te52 3.900551 1_555
Cs6 Te55 3.900551 1_555
Cs6 Te40 4.139575 1_555
Cs6 Te43 4.139575 1_555
Cs6 Te37 4.139575 1_555
Cs6 Te38 4.139575 1_555
Cs7 Te53 3.900551 1_555
Cs7 Te56 3.900551 1_455
Cs7 Te54 3.900551 1_555
Cs7 Te59 3.900551 1_455
Cs7 Te41 4.139575 1_555
Cs7 Te42 4.139575 1_555
Cs7 Te39 4.139575 1_455
Cs7 Te36 4.139575 1_455
Cs8 Te101 3.906621 1_555
Cs8 Te106 3.906621 1_555
Cs8 Te88 4.013875 1_455
Cs8 Te84 4.013875 1_555
Cs8 Te80 4.035375 1_555
Cs8 Te92 4.035375 1_555
Cs8 Te109 4.109025 1_455
Cs8 Te98 4.109025 1_555
Cs8 Te28 4.149877 1_555
Cs8 Te16 4.149877 1_555
Cs8 Te53 4.277723 1_555
Cs8 Te58 4.277723 1_555
Cs8 Te5 4.334763 1_555
Cs8 Te10 4.334763 1_555
Cs8 Te32 4.337142 1_555
Cs8 Te44 4.337142 1_555
Cs9 Te107 3.906621 1_565
Cs9 Te100 3.906621 1_555
Cs9 Te85 4.013875 1_655
Cs9 Te89 4.013875 1_555
Cs9 Te81 4.035375 1_565
Cs9 Te93 4.035375 1_565
Cs9 Te99 4.109025 1_655
Cs9 Te108 4.109025 1_565
Cs9 Te29 4.149877 1_565
Cs9 Te17 4.149877 1_555
Cs9 Te52 4.277723 1_555
Cs9 Te59 4.277723 1_555
Cs9 Te4 4.334763 1_555
Cs9 Te11 4.334763 1_565
Cs9 Te45 4.337142 1_565
Cs9 Te33 4.337142 1_565
Cs10 Te104 3.906621 1_555
Cs10 Te103 3.906621 1_554
Cs10 Te86 4.013875 1_655
Cs10 Te90 4.013875 1_555
Cs10 Te94 4.035375 1_554
Cs10 Te82 4.035375 1_554
Cs10 Te111 4.109025 1_555
Cs10 Te96 4.109025 1_654
Cs10 Te30 4.149877 1_555
Cs10 Te18 4.149877 1_554
Cs10 Te55 4.277723 1_555
Cs10 Te56 4.277723 1_555
Cs10 Te7 4.334763 1_554
Cs10 Te8 4.334763 1_555
Cs10 Te34 4.337142 1_554
Cs10 Te46 4.337142 1_554
Cs11 Te105 3.906621 1_565
Cs11 Te102 3.906621 1_554
Cs11 Te91 4.013875 1_455
Cs11 Te87 4.013875 1_555
Cs11 Te83 4.035375 1_564
Cs11 Te95 4.035375 1_564
Cs11 Te97 4.109025 1_554
Cs11 Te110 4.109025 1_465
Cs11 Te31 4.149877 1_565
Cs11 Te19 4.149877 1_554
Cs11 Te54 4.277723 1_555
Cs11 Te57 4.277723 1_555
Cs11 Te6 4.334763 1_554
Cs11 Te9 4.334763 1_565
Cs11 Te35 4.337142 1_564
Cs11 Te47 4.337142 1_564
Cs12 Te109 3.906621 1_555
Cs12 Te98 3.906621 1_555
Cs12 Te80 4.013875 1_655
Cs12 Te92 4.013875 1_555
Cs12 Te88 4.035375 1_555
Cs12 Te84 4.035375 1_555
Cs12 Te106 4.109025 1_555
Cs12 Te101 4.109025 1_655
Cs12 Te24 4.149877 1_555
Cs12 Te20 4.149877 1_555
Cs12 Te50 4.277723 1_555
Cs12 Te61 4.277723 1_555
Cs12 Te2 4.334763 1_555
Cs12 Te13 4.334763 1_555
Cs12 Te36 4.337142 1_555
Cs12 Te40 4.337142 1_555
Cs13 Te108 3.906621 1_555
Cs13 Te99 3.906621 1_545
Cs13 Te93 4.013875 1_455
Cs13 Te81 4.013875 1_555
Cs13 Te89 4.035375 1_545
Cs13 Te85 4.035375 1_545
Cs13 Te107 4.109025 1_455
Cs13 Te100 4.109025 1_545
Cs13 Te25 4.149877 1_555
Cs13 Te21 4.149877 1_545
Cs13 Te60 4.277723 1_555
Cs13 Te51 4.277723 1_555
Cs13 Te3 4.334763 1_545
Cs13 Te12 4.334763 1_555
Cs13 Te37 4.337142 1_545
Cs13 Te41 4.337142 1_545
Cs14 Te96 3.906621 1_555
Cs14 Te111 3.906621 1_556
Cs14 Te82 4.013875 1_555
Cs14 Te94 4.013875 1_455
Cs14 Te90 4.035375 1_556
Cs14 Te86 4.035375 1_556
Cs14 Te103 4.109025 1_555
Cs14 Te104 4.109025 1_456
Cs14 Te26 4.149877 1_556
Cs14 Te22 4.149877 1_555
Cs14 Te48 4.277723 1_555
Cs14 Te63 4.277723 1_555
Cs14 Te0 4.334763 1_555
Cs14 Te15 4.334763 1_556
Cs14 Te38 4.337142 1_556
Cs14 Te42 4.337142 1_556
Cs15 Te110 3.906621 1_556
Cs15 Te97 3.906621 1_545
Cs15 Te83 4.013875 1_655
Cs15 Te95 4.013875 1_555
Cs15 Te87 4.035375 1_546
Cs15 Te91 4.035375 1_546
Cs15 Te102 4.109025 1_645
Cs15 Te105 4.109025 1_556
Cs15 Te27 4.149877 1_556
Cs15 Te23 4.149877 1_545
Cs15 Te62 4.277723 1_555
Cs15 Te49 4.277723 1_555
Cs15 Te1 4.334763 1_545
Cs15 Te14 4.334763 1_556
Cs15 Te43 4.337142 1_546
Cs15 Te39 4.337142 1_546
Te0 Te16 2.807417 1_555
Te0 Te22 2.883283 1_555
Te1 Te17 2.807417 1_555
Te1 Te23 2.883283 1_555
Te2 Te20 2.883283 1_555
Te10 Te26 2.807417 1_555
Te10 Te28 2.883283 1_555
Te11 Te27 2.807417 1_555
Te11 Te29 2.883283 1_555
Te12 Te28 2.807417 1_555
Te12 Te25 2.883283 1_555
Te13 Te29 2.807417 1_555
Te13 Te24 2.883283 1_555
Te14 Te30 2.807417 1_555
Te14 Te27 2.883283 1_555
Te15 Te31 2.807417 1_555
Te15 Te26 2.883283 1_555
Te16 Te5 2.883283 1_555
Te16 Te64 3.311113 1_555
Te17 Te4 2.883283 1_555
Te17 Te65 3.311113 1_555
Te18 Te2 2.807417 1_555
Te18 Te7 2.883283 1_555
Te18 Te66 3.311113 1_555
Te19 Te3 2.807417 1_555
Te19 Te6 2.883283 1_555
Te19 Te67 3.311113 1_555
Te20 Te4 2.807417 1_555
Te20 Te68 3.311113 1_555
Te21 Te5 2.807417 1_555
Te21 Te3 2.883283 1_555
Te21 Te69 3.311113 1_555
Te22 Te6 2.807417 1_555
Te22 Te70 3.311113 1_555
Te23 Te7 2.807417 1_555
Te23 Te71 3.311113 1_555
Te24 Te8 2.807417 1_555
Te24 Te72 3.311113 1_555
Te25 Te9 2.807417 1_555
Te25 Te73 3.311113 1_555
Te26 Te74 3.311113 1_555
Te27 Te75 3.311113 1_555
Te28 Te76 3.311113 1_555
Te29 Te77 3.311113 1_555
Te30 Te8 2.883283 1_555
Te30 Te78 3.311113 1_555
Te31 Te9 2.883283 1_555
Te31 Te79 3.311113 1_555
Te32 Te48 2.793783 1_555
Te32 Te44 2.808064 1_555
Te33 Te49 2.793783 1_555
Te33 Te45 2.808064 1_555
Te34 Te50 2.793783 1_555
Te34 Te46 2.808064 1_555
Te35 Te51 2.793783 1_555
Te35 Te47 2.808064 1_555
Te36 Te52 2.793783 1_555
Te36 Te40 2.808064 1_555
Te37 Te53 2.793783 1_555
Te37 Te41 2.808064 1_555
Te38 Te54 2.793783 1_555
Te38 Te42 2.808064 1_555
Te39 Te55 2.793783 1_555
Te39 Te43 2.808064 1_555
Te40 Te56 2.793783 1_555
Te41 Te57 2.793783 1_555
Te42 Te58 2.793783 1_555
Te43 Te59 2.793783 1_555
Te44 Te60 2.793783 1_555
Te45 Te61 2.793783 1_555
Te46 Te62 2.793783 1_555
Te47 Te63 2.793783 1_555
Te48 Te64 2.829343 1_555
Te49 Te65 2.829343 1_545
Te50 Te66 2.829343 1_555
Te51 Te67 2.829343 1_545
Te52 Te68 2.829343 1_555
Te53 Te69 2.829343 1_555
Te54 Te70 2.829343 1_554
Te55 Te71 2.829343 1_554
Te56 Te72 2.829343 1_555
Te57 Te73 2.829343 1_565
Te58 Te74 2.829343 1_555
Te59 Te75 2.829343 1_565
Te60 Te76 2.829343 1_555
Te61 Te77 2.829343 1_555
Te62 Te78 2.829343 1_556
Te63 Te79 2.829343 1_556
Te64 Te80 3.176054 1_555
Te64 Te96 3.261308 1_555
Te65 Te81 3.176054 1_565
Te65 Te97 3.261308 1_555
Te66 Te82 3.176054 1_555
Te66 Te98 3.261308 1_555
Te67 Te83 3.176054 1_565
Te67 Te99 3.261308 1_555
Te68 Te84 3.176054 1_555
Te69 Te85 3.176054 1_555
Te70 Te86 3.176054 1_556
Te71 Te87 3.176054 1_556
Te72 Te88 3.176054 1_555
Te73 Te89 3.176054 1_545
Te74 Te90 3.176054 1_555
Te75 Te91 3.176054 1_545
Te76 Te92 3.176054 1_555
Te77 Te93 3.176054 1_555
Te78 Te94 3.176054 1_554
Te79 Te95 3.176054 1_554
Te84 Te98 2.917381 1_555
Te85 Te99 2.917381 1_555
Te86 Te96 2.917381 1_554
Te87 Te97 2.917381 1_554
Te92 Te98 3.007519 1_555
Te93 Te99 3.007519 1_645
Te94 Te96 3.007519 1_655
Te95 Te97 3.007519 1_545
Te100 Te81 2.917381 1_565
Te100 Te89 3.007519 1_555
Te100 Te68 3.261308 1_555
Te101 Te80 2.917381 1_555
Te101 Te88 3.007519 1_455
Te101 Te69 3.261308 1_555
Te102 Te83 2.917381 1_565
Te102 Te91 3.007519 1_456
Te102 Te70 3.261308 1_555
Te103 Te82 2.917381 1_555
Te103 Te90 3.007519 1_556
Te103 Te71 3.261308 1_555
Te104 Te94 2.917381 1_554
Te104 Te86 3.007519 1_655
Te104 Te72 3.261308 1_555
Te105 Te95 2.917381 1_554
Te105 Te87 3.007519 1_545
Te105 Te73 3.261308 1_555
Te106 Te92 2.917381 1_555
Te106 Te84 3.007519 1_555
Te106 Te74 3.261308 1_555
Te107 Te93 2.917381 1_555
Te107 Te85 3.007519 1_645
Te107 Te75 3.261308 1_555
Te108 Te89 2.917381 1_545
Te108 Te81 3.007519 1_555
Te108 Te76 3.261308 1_555
Te109 Te88 2.917381 1_555
Te109 Te80 3.007519 1_655
Te109 Te77 3.261308 1_555
Te110 Te91 2.917381 1_545
Te110 Te83 3.007519 1_654
Te110 Te78 3.261308 1_555
Te111 Te90 2.917381 1_555
Te111 Te82 3.007519 1_554
Te111 Te79 3.261308 1_555
