# generated using pymatgen
data_Dy(GaFe)6
_symmetry_space_group_name_H-M   'P 1'
_cell_length_a   5.02998200
_cell_length_b   6.59468161
_cell_length_c   6.59468161
_cell_angle_alpha   80.52507019
_cell_angle_beta   67.58164414
_cell_angle_gamma   67.58164414
_symmetry_Int_Tables_number   1
_chemical_formula_structural   Dy(GaFe)6
_chemical_formula_sum   'Dy1 Ga6 Fe6'
_cell_volume   186.89043083
_cell_formula_units_Z   1
loop_
 _symmetry_equiv_pos_site_id
 _symmetry_equiv_pos_as_xyz
  1  'x, y, z'
loop_
 _atom_site_type_symbol
 _atom_site_label
 _atom_site_symmetry_multiplicity
 _atom_site_fract_x
 _atom_site_fract_y
 _atom_site_fract_z
 _atom_site_occupancy
  Dy  Dy0  1  0.00000000  0.00000000  0.00000000  1
  Ga  Ga0  1  0.00000000  0.66540100  0.33459900  1
  Ga  Ga1  1  0.00000000  0.33459900  0.66540100  1
  Ga  Ga2  1  0.34308400  0.65691600  0.65691600  1
  Ga  Ga3  1  0.65691600  0.34308400  0.34308400  1
  Ga  Ga4  1  0.31936600  0.18063400  0.18063400  1
  Ga  Ga5  1  0.68063400  0.81936600  0.81936600  1
  Fe  Fe0  1  0.50000000  0.24572200  0.75427800  1
  Fe  Fe1  1  0.50000000  0.75427800  0.24572200  1
  Fe  Fe2  1  0.00000000  0.50000000  0.00000000  1
  Fe  Fe3  1  0.50000000  0.50000000  0.00000000  1
  Fe  Fe4  1  0.00000000  0.00000000  0.50000000  1
  Fe  Fe5  1  0.50000000  0.00000000  0.50000000  1
loop_
_geom_bond_atom_site_label_1
_geom_bond_atom_site_label_2
_geom_bond_distance
_geom_bond_site_symmetry_2
Dy0 Ga1 2.852177 1_554
Dy0 Ga0 2.852177 1_545
Dy0 Ga4 2.967299 1_455
Dy0 Ga5 2.967299 1_544
Dy0 Ga4 2.967299 1_555
Dy0 Ga5 2.967299 1_444
Dy0 Ga3 2.990881 1_455
Dy0 Ga2 2.990881 1_544
Ga0 Ga1 2.819811 1_555
Ga2 Ga3 2.735873 1_555
Ga2 Ga5 2.886303 1_555
Ga2 Ga5 2.886303 1_455
Ga3 Ga4 2.886303 1_555
Ga3 Ga4 2.886303 1_655
Fe0 Fe4 2.516436 1_655
Fe0 Fe2 2.516436 1_556
Fe0 Fe3 2.516436 1_556
Fe0 Fe5 2.516436 1_555
Fe0 Ga2 2.563073 1_555
Fe0 Ga3 2.563073 1_555
Fe0 Ga4 2.620483 1_556
Fe0 Ga5 2.620483 1_545
Fe0 Ga1 2.626622 1_555
Fe0 Ga1 2.626622 1_655
Fe1 Fe5 2.516436 1_565
Fe1 Fe3 2.516436 1_555
Fe1 Fe2 2.516436 1_655
Fe1 Fe4 2.516436 1_565
Fe1 Ga2 2.563073 1_555
Fe1 Ga3 2.563073 1_555
Fe1 Ga4 2.620483 1_565
Fe1 Ga5 2.620483 1_554
Fe1 Ga0 2.626622 1_655
Fe1 Ga0 2.626622 1_555
Fe2 Fe3 2.514991 1_455
Fe2 Fe3 2.514991 1_555
Fe2 Ga4 2.547215 1_555
Fe2 Ga5 2.547215 1_454
Fe2 Ga2 2.604058 1_554
Fe2 Ga3 2.604058 1_455
Fe2 Ga1 2.617471 1_554
Fe2 Ga0 2.617471 1_555
Fe3 Ga5 2.547215 1_554
Fe3 Ga4 2.547215 1_555
Fe3 Ga3 2.604058 1_555
Fe3 Ga2 2.604058 1_554
Fe3 Ga1 2.617471 1_654
Fe3 Ga0 2.617471 1_555
Fe4 Fe5 2.514991 1_455
Fe4 Fe5 2.514991 1_555
Fe4 Ga4 2.547215 1_555
Fe4 Ga5 2.547215 1_445
Fe4 Ga2 2.604058 1_545
Fe4 Ga3 2.604058 1_455
Fe4 Ga0 2.617471 1_545
Fe4 Ga1 2.617471 1_555
Fe5 Ga5 2.547215 1_545
Fe5 Ga4 2.547215 1_555
Fe5 Ga3 2.604058 1_555
Fe5 Ga2 2.604058 1_545
Fe5 Ga0 2.617471 1_645
Fe5 Ga1 2.617471 1_555
