# generated using pymatgen
data_Sr(HoS2)2
_symmetry_space_group_name_H-M   'P 1'
_cell_length_a   3.96700583
_cell_length_b   12.01980537
_cell_length_c   14.26577097
_cell_angle_alpha   90.00000000
_cell_angle_beta   90.00000000
_cell_angle_gamma   90.00000000
_symmetry_Int_Tables_number   1
_chemical_formula_structural   Sr(HoS2)2
_chemical_formula_sum   'Sr4 Ho8 S16'
_cell_volume   680.22959264
_cell_formula_units_Z   4
loop_
 _symmetry_equiv_pos_site_id
 _symmetry_equiv_pos_as_xyz
  1  'x, y, z'
loop_
 _atom_site_type_symbol
 _atom_site_label
 _atom_site_symmetry_multiplicity
 _atom_site_fract_x
 _atom_site_fract_y
 _atom_site_fract_z
 _atom_site_occupancy
  Sr  Sr0  1  0.25000000  0.75905558  0.33737632  1
  Sr  Sr1  1  0.25000000  0.25905558  0.16262368  1
  Sr  Sr2  1  0.75000000  0.24094442  0.66262368  1
  Sr  Sr3  1  0.75000000  0.74094442  0.83737632  1
  Ho  Ho0  1  0.25000000  0.43550092  0.38932075  1
  Ho  Ho1  1  0.25000000  0.93550092  0.11067925  1
  Ho  Ho2  1  0.75000000  0.56449908  0.61067925  1
  Ho  Ho3  1  0.75000000  0.06449908  0.88932075  1
  Ho  Ho4  1  0.25000000  0.41742763  0.89983809  1
  Ho  Ho5  1  0.25000000  0.91742763  0.60016191  1
  Ho  Ho6  1  0.75000000  0.58257237  0.10016191  1
  Ho  Ho7  1  0.75000000  0.08257237  0.39983809  1
  S  S0  1  0.25000000  0.20536354  0.82813976  1
  S  S1  1  0.25000000  0.70536354  0.67186024  1
  S  S2  1  0.75000000  0.79463646  0.17186024  1
  S  S3  1  0.75000000  0.29463646  0.32813976  1
  S  S4  1  0.25000000  0.12769838  0.52822619  1
  S  S5  1  0.25000000  0.62769838  0.97177381  1
  S  S6  1  0.75000000  0.87230162  0.47177381  1
  S  S7  1  0.75000000  0.37230162  0.02822619  1
  S  S8  1  0.25000000  0.02608920  0.28400353  1
  S  S9  1  0.25000000  0.52608920  0.21599647  1
  S  S10  1  0.75000000  0.97391080  0.71599647  1
  S  S11  1  0.75000000  0.47391080  0.78400353  1
  S  S12  1  0.25000000  0.41259229  0.57710958  1
  S  S13  1  0.25000000  0.91259229  0.92289042  1
  S  S14  1  0.75000000  0.58740771  0.42289042  1
  S  S15  1  0.75000000  0.08740771  0.07710958  1
loop_
_geom_bond_atom_site_label_1
_geom_bond_atom_site_label_2
_geom_bond_distance
_geom_bond_site_symmetry_2
Ho0 S12 2.693067 1_555
Ho0 S9 2.701736 1_555
Ho0 S14 2.738156 1_555
Ho0 S14 2.738156 1_455
Ho0 S3 2.750065 1_455
Ho0 S3 2.750065 1_555
Ho1 S13 2.693067 1_554
Ho1 S8 2.701736 1_565
Ho1 S15 2.738156 1_465
Ho1 S15 2.738156 1_565
Ho1 S2 2.750065 1_455
Ho1 S2 2.750065 1_555
Ho2 S14 2.693067 1_555
Ho2 S11 2.701736 1_555
Ho2 S12 2.738156 1_555
Ho2 S12 2.738156 1_655
Ho2 S1 2.750065 1_555
Ho2 S1 2.750065 1_655
Ho3 S15 2.693067 1_556
Ho3 S10 2.701736 1_545
Ho3 S13 2.738156 1_645
Ho3 S13 2.738156 1_545
Ho3 S0 2.750065 1_655
Ho3 S0 2.750065 1_555
Ho4 S11 2.669432 1_455
Ho4 S11 2.669432 1_555
Ho4 S5 2.727809 1_555
Ho4 S0 2.746530 1_555
Ho4 S7 2.753740 1_556
Ho4 S7 2.753740 1_456
Ho5 S10 2.669432 1_555
Ho5 S10 2.669432 1_455
Ho5 S4 2.727809 1_565
Ho5 S1 2.746530 1_555
Ho5 S6 2.753740 1_455
Ho5 S6 2.753740 1_555
Ho6 S9 2.669432 1_555
Ho6 S9 2.669432 1_655
Ho6 S7 2.727809 1_555
Ho6 S2 2.746530 1_555
Ho6 S5 2.753740 1_654
Ho6 S5 2.753740 1_554
Ho7 S8 2.669432 1_655
Ho7 S8 2.669432 1_555
Ho7 S6 2.727809 1_545
Ho7 S3 2.746530 1_555
Ho7 S4 2.753740 1_655
Ho7 S4 2.753740 1_555
S0 Sr2 3.113282 1_455
S0 Sr2 3.113282 1_555
S1 Sr3 3.113282 1_555
S1 Sr3 3.113282 1_455
S2 Sr0 3.113282 1_655
S2 Sr0 3.113282 1_555
S3 Sr1 3.113282 1_555
S3 Sr1 3.113282 1_655
S4 Sr2 3.076217 1_455
S4 Sr2 3.076217 1_555
S5 Sr3 3.076217 1_555
S5 Sr3 3.076217 1_455
S6 Sr0 3.076217 1_555
S6 Sr0 3.076217 1_655
S7 Sr1 3.076217 1_555
S7 Sr1 3.076217 1_655
S8 Sr1 3.292345 1_555
S8 Sr0 3.298766 1_545
S9 Sr0 3.292345 1_555
S9 Sr1 3.298766 1_555
S10 Sr3 3.292345 1_555
S10 Sr2 3.298766 1_565
S11 Sr2 3.292345 1_555
S11 Sr3 3.298766 1_555
S12 Sr2 3.111139 1_455
S12 Sr2 3.111139 1_555
S13 Sr3 3.111139 1_455
S13 Sr3 3.111139 1_555
S14 Sr0 3.111139 1_555
S14 Sr0 3.111139 1_655
S15 Sr1 3.111139 1_655
S15 Sr1 3.111139 1_555
