# generated using pymatgen
data_MgSnF6
_symmetry_space_group_name_H-M   'P 1'
_cell_length_a   5.48265981
_cell_length_b   5.48265981
_cell_length_c   5.48265945
_cell_angle_alpha   56.09978242
_cell_angle_beta   56.09978246
_cell_angle_gamma   56.09976986
_symmetry_Int_Tables_number   1
_chemical_formula_structural   MgSnF6
_chemical_formula_sum   'Mg1 Sn1 F6'
_cell_volume   106.01065813
_cell_formula_units_Z   1
loop_
 _symmetry_equiv_pos_site_id
 _symmetry_equiv_pos_as_xyz
  1  'x, y, z'
loop_
 _atom_site_type_symbol
 _atom_site_label
 _atom_site_symmetry_multiplicity
 _atom_site_fract_x
 _atom_site_fract_y
 _atom_site_fract_z
 _atom_site_occupancy
  Mg  Mg0  1  0.50000000  0.50000000  0.50000000  1
  Sn  Sn0  1  -0.00000000  -0.00000000  0.00000000  1
  F  F0  1  0.63244172  0.86786456  0.25059066  1
  F  F1  1  0.86786456  0.25059066  0.63244172  1
  F  F2  1  0.74940934  0.36755828  0.13213544  1
  F  F3  1  0.13213544  0.74940934  0.36755828  1
  F  F4  1  0.36755828  0.13213544  0.74940934  1
  F  F5  1  0.25059066  0.63244172  0.86786456  1
loop_
_geom_bond_atom_site_label_1
_geom_bond_atom_site_label_2
_geom_bond_distance
_geom_bond_site_symmetry_2
F0 Sn0 1.975664 1_665
F0 Mg0 1.978511 1_555
F1 Sn0 1.975664 1_656
F1 Mg0 1.978511 1_555
F2 Sn0 1.975664 1_655
F2 Mg0 1.978511 1_555
F3 Sn0 1.975664 1_565
F3 Mg0 1.978511 1_555
F4 Sn0 1.975664 1_556
F4 Mg0 1.978511 1_555
F5 Sn0 1.975664 1_566
F5 Mg0 1.978511 1_555
