# generated using pymatgen
data_Ce(IO3)3
_symmetry_space_group_name_H-M   'P 1'
_cell_length_a   6.07720900
_cell_length_b   6.31375800
_cell_length_c   11.86747600
_cell_angle_alpha   90.00000000
_cell_angle_beta   90.00000000
_cell_angle_gamma   90.00000000
_symmetry_Int_Tables_number   1
_chemical_formula_structural   Ce(IO3)3
_chemical_formula_sum   'Ce2 I6 O18'
_cell_volume   455.35537385
_cell_formula_units_Z   2
loop_
 _symmetry_equiv_pos_site_id
 _symmetry_equiv_pos_as_xyz
  1  'x, y, z'
loop_
 _atom_site_type_symbol
 _atom_site_label
 _atom_site_symmetry_multiplicity
 _atom_site_fract_x
 _atom_site_fract_y
 _atom_site_fract_z
 _atom_site_occupancy
  Ce  Ce0  1  0.75000000  0.27039400  0.25000000  1
  Ce  Ce1  1  0.25000000  0.72960600  0.75000000  1
  I  I0  1  0.75000000  0.21831800  0.75000000  1
  I  I1  1  0.25000000  0.78168200  0.25000000  1
  I  I2  1  0.75000000  0.72221300  0.98949300  1
  I  I3  1  0.75000000  0.72221300  0.51050700  1
  I  I4  1  0.25000000  0.27778700  0.01050700  1
  I  I5  1  0.25000000  0.27778700  0.48949300  1
  O  O0  1  0.75000000  0.56630200  0.25000000  1
  O  O1  1  0.25000000  0.43369800  0.75000000  1
  O  O2  1  0.48822600  0.95775400  0.25000000  1
  O  O3  1  0.01177400  0.95775400  0.25000000  1
  O  O4  1  0.51177400  0.04224600  0.75000000  1
  O  O5  1  0.98822600  0.04224600  0.75000000  1
  O  O6  1  0.75000000  0.00896700  0.98661600  1
  O  O7  1  0.75000000  0.00896700  0.51338400  1
  O  O8  1  0.25000000  0.99103300  0.01338400  1
  O  O9  1  0.25000000  0.99103300  0.48661600  1
  O  O10  1  0.47652800  0.35777700  0.10510100  1
  O  O11  1  0.02347200  0.35777700  0.10510100  1
  O  O12  1  0.47652800  0.35777700  0.39489900  1
  O  O13  1  0.02347200  0.35777700  0.39489900  1
  O  O14  1  0.52347200  0.64222300  0.89489900  1
  O  O15  1  0.97652800  0.64222300  0.89489900  1
  O  O16  1  0.52347200  0.64222300  0.60510100  1
  O  O17  1  0.97652800  0.64222300  0.60510100  1
loop_
_geom_bond_atom_site_label_1
_geom_bond_atom_site_label_2
_geom_bond_distance
_geom_bond_site_symmetry_2
Ce0 O0 1.868292 1_555
Ce0 O13 2.454268 1_655
Ce0 O11 2.454268 1_655
Ce0 O10 2.454268 1_555
Ce0 O12 2.454268 1_555
Ce0 O3 2.535199 1_645
Ce0 O2 2.535199 1_545
Ce1 O1 1.868292 1_555
Ce1 O16 2.454268 1_555
Ce1 O14 2.454268 1_555
Ce1 O15 2.454268 1_455
Ce1 O17 2.454268 1_455
Ce1 O4 2.535199 1_565
Ce1 O5 2.535199 1_465
I0 O5 1.825322 1_555
I0 O4 1.825322 1_555
I1 O2 1.825322 1_555
I1 O3 1.825322 1_555
I2 O6 1.810817 1_565
I2 O15 1.846744 1_555
I2 O14 1.846744 1_555
I3 O7 1.810817 1_565
I3 O17 1.846744 1_555
I3 O16 1.846744 1_555
I4 O8 1.810817 1_545
I4 O10 1.846744 1_555
I4 O11 1.846744 1_555
I5 O9 1.810817 1_545
I5 O12 1.846744 1_555
I5 O13 1.846744 1_555
