# generated using pymatgen
data_RbOs2O9
_symmetry_space_group_name_H-M   'P 1'
_cell_length_a   5.89453600
_cell_length_b   10.67904500
_cell_length_c   13.53350000
_cell_angle_alpha   90.00000000
_cell_angle_beta   90.00000000
_cell_angle_gamma   90.00000000
_symmetry_Int_Tables_number   1
_chemical_formula_structural   RbOs2O9
_chemical_formula_sum   'Rb4 Os8 O36'
_cell_volume   851.90696368
_cell_formula_units_Z   4
loop_
 _symmetry_equiv_pos_site_id
 _symmetry_equiv_pos_as_xyz
  1  'x, y, z'
loop_
 _atom_site_type_symbol
 _atom_site_label
 _atom_site_symmetry_multiplicity
 _atom_site_fract_x
 _atom_site_fract_y
 _atom_site_fract_z
 _atom_site_occupancy
  Rb  Rb0  1  0.25312600  0.61710400  0.82955800  1
  Rb  Rb1  1  0.74687400  0.38289600  0.32955800  1
  Rb  Rb2  1  0.75312600  0.88289600  0.32955800  1
  Rb  Rb3  1  0.24687400  0.11710400  0.82955800  1
  Os  Os0  1  0.18954900  0.60111500  0.49487300  1
  Os  Os1  1  0.81045100  0.39888500  0.99487300  1
  Os  Os2  1  0.68954900  0.89888500  0.99487300  1
  Os  Os3  1  0.31045100  0.10111500  0.49487300  1
  Os  Os4  1  0.29030600  0.68635900  0.17938600  1
  Os  Os5  1  0.70969400  0.31364100  0.67938600  1
  Os  Os6  1  0.79030600  0.81364100  0.67938600  1
  Os  Os7  1  0.20969400  0.18635900  0.17938600  1
  O  O0  1  0.26486800  0.84875800  0.18987600  1
  O  O1  1  0.73513200  0.15124200  0.68987600  1
  O  O2  1  0.76486800  0.65124200  0.68987600  1
  O  O3  1  0.23513200  0.34875800  0.18987600  1
  O  O4  1  0.49325700  0.61820100  0.25529900  1
  O  O5  1  0.50674300  0.38179900  0.75529900  1
  O  O6  1  0.99325700  0.88179900  0.75529900  1
  O  O7  1  0.00674300  0.11820100  0.25529900  1
  O  O8  1  0.41475500  0.86552400  0.95581300  1
  O  O9  1  0.58524500  0.13447600  0.45581300  1
  O  O10  1  0.91475500  0.63447600  0.45581300  1
  O  O11  1  0.08524500  0.36552400  0.95581300  1
  O  O12  1  0.39193800  0.71125400  0.46140900  1
  O  O13  1  0.60806200  0.28874600  0.96140900  1
  O  O14  1  0.89193800  0.78874600  0.96140900  1
  O  O15  1  0.10806200  0.21125400  0.46140900  1
  O  O16  1  0.25794900  0.61820000  0.06357200  1
  O  O17  1  0.74205100  0.38180000  0.56357200  1
  O  O18  1  0.75794900  0.88180000  0.56357200  1
  O  O19  1  0.24205100  0.11820000  0.06357200  1
  O  O20  1  0.24294000  0.97669000  0.41622300  1
  O  O21  1  0.75706000  0.02331000  0.91622300  1
  O  O22  1  0.74294000  0.52331000  0.91622300  1
  O  O23  1  0.25706000  0.47669000  0.41622300  1
  O  O24  1  0.54236800  0.85988800  0.73945800  1
  O  O25  1  0.45763200  0.14011200  0.23945800  1
  O  O26  1  0.04236800  0.64011200  0.23945800  1
  O  O27  1  0.95763200  0.35988800  0.73945800  1
  O  O28  1  0.22675300  0.52872000  0.60969500  1
  O  O29  1  0.77324700  0.47128000  0.10969500  1
  O  O30  1  0.72675300  0.97128000  0.10969500  1
  O  O31  1  0.27324700  0.02872000  0.60969500  1
  O  O32  1  0.11389800  0.74257000  0.60923900  1
  O  O33  1  0.88610200  0.25743000  0.10923900  1
  O  O34  1  0.61389800  0.75743000  0.10923900  1
  O  O35  1  0.38610200  0.24257000  0.60923900  1
loop_
_geom_bond_atom_site_label_1
_geom_bond_atom_site_label_2
_geom_bond_distance
_geom_bond_site_symmetry_2
O0 Os4 1.746516 1_555
O0 Rb2 3.462609 1_555
O0 Rb2 3.578495 1_455
O1 Os5 1.746516 1_555
O1 Rb3 3.462609 1_555
O1 Rb3 3.578495 1_655
O2 Os6 1.746516 1_555
O2 Rb0 3.462609 1_655
O2 Rb0 3.578495 1_555
O3 Os7 1.746516 1_555
O3 Rb1 3.462609 1_455
O3 Rb1 3.578495 1_555
O4 Os4 1.736781 1_555
O4 Rb1 3.091797 1_555
O4 Rb2 3.368472 1_555
O5 Os5 1.736781 1_555
O5 Rb0 3.091797 1_555
O5 Rb3 3.368472 1_555
O6 Os6 1.736781 1_555
O6 Rb3 3.091797 1_665
O6 Rb0 3.368472 1_655
O7 Os7 1.736781 1_555
O7 Rb2 3.091797 1_445
O7 Rb1 3.368472 1_455
O8 Os2 1.740706 1_555
O8 Rb0 3.296220 1_555
O8 Rb3 3.334191 1_565
O9 Os3 1.740706 1_555
O9 Rb1 3.296220 1_555
O9 Rb2 3.334191 1_545
O10 Os0 1.740706 1_655
O10 Rb2 3.296220 1_555
O10 Rb1 3.334191 1_555
O11 Os1 1.740706 1_455
O11 Rb3 3.296220 1_555
O11 Rb0 3.334191 1_555
O12 Os0 1.735433 1_555
O12 Rb2 3.328165 1_555
O13 Os1 1.735433 1_555
O13 Rb3 3.328165 1_555
O14 Os2 1.735433 1_555
O14 Rb0 3.328165 1_655
O15 Os3 1.735433 1_555
O15 Rb1 3.328165 1_455
O16 Os4 1.738626 1_555
O16 Rb0 3.167178 1_554
O17 Os5 1.738626 1_555
O17 Rb1 3.167178 1_555
O18 Os6 1.738626 1_555
O18 Rb2 3.167178 1_555
O19 Os7 1.738626 1_555
O19 Rb3 3.167178 1_554
O20 Os3 1.748393 1_565
O20 Rb2 3.273376 1_455
O20 Rb2 3.379767 1_555
O21 Os2 1.748393 1_545
O21 Rb3 3.273376 1_655
O21 Rb3 3.379767 1_555
O22 Os1 1.748393 1_555
O22 Rb0 3.273376 1_555
O22 Rb0 3.379767 1_655
O23 Os0 1.748393 1_555
O23 Rb1 3.273376 1_555
O23 Rb1 3.379767 1_455
O24 Os6 1.743782 1_555
O24 Rb0 3.334037 1_555
O24 Rb3 3.473579 1_565
O25 Os7 1.743782 1_555
O25 Rb1 3.334037 1_555
O25 Rb2 3.473579 1_545
O26 Os4 1.743782 1_555
O26 Rb2 3.334037 1_455
O26 Rb1 3.473579 1_455
O27 Os5 1.743782 1_555
O27 Rb3 3.334037 1_655
O27 Rb0 3.473579 1_655
O28 Os0 1.749437 1_555
O28 Rb0 3.125496 1_555
O29 Os1 1.749437 1_554
O29 Rb1 3.125496 1_555
O30 Os2 1.749437 1_554
O30 Rb2 3.125496 1_555
O31 Os3 1.749437 1_555
O31 Rb3 3.125496 1_555
O32 Os0 2.208252 1_555
O32 Os6 2.261756 1_455
O32 Rb0 3.370341 1_555
O33 Os1 2.208252 1_554
O33 Os7 2.261756 1_655
O33 Rb1 3.370341 1_555
O34 Os2 2.208252 1_554
O34 Os4 2.261756 1_555
O34 Rb2 3.370341 1_555
O35 Os3 2.208252 1_555
O35 Os5 2.261756 1_555
O35 Rb3 3.370341 1_555
