# generated using pymatgen
data_Li6P6H8O23
_symmetry_space_group_name_H-M   'P 1'
_cell_length_a   8.23667705
_cell_length_b   8.18196689
_cell_length_c   9.90158040
_cell_angle_alpha   115.52721263
_cell_angle_beta   115.64949583
_cell_angle_gamma   70.61954070
_symmetry_Int_Tables_number   1
_chemical_formula_structural   Li6P6H8O23
_chemical_formula_sum   'Li6 P6 H8 O23'
_cell_volume   534.08319107
_cell_formula_units_Z   1
loop_
 _symmetry_equiv_pos_site_id
 _symmetry_equiv_pos_as_xyz
  1  'x, y, z'
loop_
 _atom_site_type_symbol
 _atom_site_label
 _atom_site_symmetry_multiplicity
 _atom_site_fract_x
 _atom_site_fract_y
 _atom_site_fract_z
 _atom_site_occupancy
  Li  Li0  1  0.22289700  0.59722700  0.67736000  1
  Li  Li1  1  0.77832500  0.40123200  0.32523700  1
  Li  Li2  1  0.14175500  0.01860500  0.84845900  1
  Li  Li3  1  0.86325000  0.97792000  0.15069100  1
  Li  Li4  1  0.09243200  0.58421100  0.93950300  1
  Li  Li5  1  0.90281300  0.41366100  0.05895700  1
  P  P0  1  0.17670500  0.21795300  0.41734400  1
  P  P1  1  0.82289900  0.78264900  0.58132800  1
  P  P2  1  0.71405400  0.10490600  0.83573200  1
  P  P3  1  0.28496600  0.89706100  0.16367900  1
  P  P4  1  0.31063200  0.25943000  0.76093000  1
  P  P5  1  0.68897600  0.74040400  0.23847200  1
  H  H0  1  0.81476600  0.52638700  0.71351500  1
  H  H1  1  0.17465700  0.46962600  0.27765200  1
  H  H2  1  0.48657200  0.70021700  0.70058000  1
  H  H3  1  0.48312900  0.33305000  0.29871000  1
  H  H4  1  0.84114200  0.38155400  0.79223100  1
  H  H5  1  0.15450200  0.61749000  0.20655000  1
  H  H6  1  0.53584100  0.72939800  0.88119100  1
  H  H7  1  0.47754900  0.26028200  0.12415700  1
  O  O0  1  0.68298100  0.93691800  0.66690500  1
  O  O1  1  0.31795300  0.06222700  0.33438200  1
  O  O2  1  0.01733300  0.80851900  0.68285900  1
  O  O3  1  0.98301800  0.19129300  0.31472100  1
  O  O4  1  0.85789600  0.50626200  0.81582400  1
  O  O5  1  0.13893800  0.49027500  0.17661900  1
  O  O6  1  0.86102900  0.20095200  0.86339100  1
  O  O7  1  0.13691400  0.80073000  0.13282900  1
  O  O8  1  0.23040100  0.15871400  0.56984500  1
  O  O9  1  0.76717600  0.84343500  0.42945900  1
  O  O10  1  0.44874100  0.68451100  0.77438700  1
  O  O11  1  0.55589500  0.30808400  0.23462800  1
  O  O12  1  0.22352700  0.40326300  0.46622900  1
  O  O13  1  0.77548700  0.59775800  0.53225100  1
  O  O14  1  0.76666800  0.53708400  0.20035800  1
  O  O15  1  0.23244100  0.46262800  0.80110200  1
  O  O16  1  0.52405300  0.24463000  0.79187300  1
  O  O17  1  0.47475800  0.75603700  0.20549700  1
  O  O18  1  0.73396100  0.04001200  0.96155000  1
  O  O19  1  0.26580900  0.96713300  0.04089200  1
  O  O20  1  0.71729400  0.84228700  0.15946600  1
  O  O21  1  0.28536900  0.15395500  0.83845300  1
  O  O22  1  0.34649800  0.71903000  0.48420300  1
loop_
_geom_bond_atom_site_label_1
_geom_bond_atom_site_label_2
_geom_bond_distance
_geom_bond_site_symmetry_2
Li0 O10 1.906968 1_555
Li0 O15 1.934516 1_555
Li0 O2 1.978505 1_555
Li0 O12 2.008337 1_555
Li1 O11 1.912242 1_555
Li1 O14 1.945413 1_555
Li1 O3 1.969703 1_555
Li1 O13 1.990846 1_555
Li2 O19 1.890092 1_546
Li2 O21 1.923773 1_555
Li2 O2 1.994667 1_545
Li2 O6 2.326068 1_455
Li3 O18 1.906277 1_564
Li3 O20 1.934765 1_555
Li3 O3 1.992734 1_565
Li3 O7 2.273608 1_655
Li4 O15 1.905068 1_555
Li4 O4 1.932551 1_455
Li4 O7 1.959016 1_556
Li5 O14 1.904369 1_555
Li5 O5 1.936725 1_655
Li5 O6 1.952694 1_554
H0 O4 0.986366 1_555
H1 O5 0.986790 1_555
H2 O10 0.975883 1_555
H3 O11 0.969444 1_555
H4 O4 0.987342 1_555
H5 O5 0.988671 1_555
H6 O10 0.975313 1_555
H7 O11 0.976509 1_555
O0 P1 1.611688 1_555
O0 P2 1.622310 1_565
O1 P0 1.610354 1_555
O1 P3 1.623078 1_545
O2 P1 1.505982 1_455
O3 P0 1.503900 1_655
O6 P2 1.522149 1_555
O7 P3 1.519707 1_555
O8 P0 1.618949 1_555
O8 P4 1.621965 1_555
O9 P1 1.617046 1_555
O9 P5 1.622823 1_555
O12 P0 1.508583 1_555
O13 P1 1.507093 1_555
O14 P5 1.510234 1_555
O15 P4 1.509397 1_555
O16 P2 1.611465 1_555
O16 P4 1.619601 1_555
O17 P3 1.612723 1_555
O17 P5 1.619782 1_555
O18 P2 1.481991 1_555
O19 P3 1.485389 1_555
O20 P5 1.486714 1_555
O21 P4 1.485147 1_555
