# generated using pymatgen
data_BaNa4Ti2Si10(BO15)2
_symmetry_space_group_name_H-M   'P 1'
_cell_length_a   7.18847572
_cell_length_b   9.73772058
_cell_length_c   9.73885087
_cell_angle_alpha   119.53268464
_cell_angle_beta   91.92363935
_cell_angle_gamma   91.51812002
_symmetry_Int_Tables_number   1
_chemical_formula_structural   BaNa4Ti2Si10(BO15)2
_chemical_formula_sum   'Ba1 Na4 Ti2 Si10 B2 O30'
_cell_volume   592.08075564
_cell_formula_units_Z   1
loop_
 _symmetry_equiv_pos_site_id
 _symmetry_equiv_pos_as_xyz
  1  'x, y, z'
loop_
 _atom_site_type_symbol
 _atom_site_label
 _atom_site_symmetry_multiplicity
 _atom_site_fract_x
 _atom_site_fract_y
 _atom_site_fract_z
 _atom_site_occupancy
  Ba  Ba0  1  -0.00000000  -0.00000000  -0.00000000  1
  Na  Na0  1  0.51203055  0.27129811  0.71444123  1
  Na  Na1  1  0.48796945  0.72870189  0.28555877  1
  Na  Na2  1  0.50699604  0.70241352  0.70233357  1
  Na  Na3  1  0.49300396  0.29758648  0.29766643  1
  Ti  Ti0  1  0.50309442  0.91523194  0.08681923  1
  Ti  Ti1  1  0.49690558  0.08476806  0.91318077  1
  Si  Si0  1  0.80742625  0.62096288  0.92556184  1
  Si  Si1  1  0.81100844  0.93642545  0.62770506  1
  Si  Si2  1  0.19257375  0.37903712  0.07443816  1
  Si  Si3  1  0.18899156  0.06357455  0.37229494  1
  Si  Si4  1  0.23444774  0.58973146  0.92454774  1
  Si  Si5  1  0.23612495  0.90890800  0.58105954  1
  Si  Si6  1  0.76555226  0.41026854  0.07545226  1
  Si  Si7  1  0.76387505  0.09109200  0.41894046  1
  Si  Si8  1  0.80031155  0.58863049  0.42599935  1
  Si  Si9  1  0.19968845  0.41136951  0.57400065  1
  B  B0  1  0.78572068  0.42295942  0.59480451  1
  B  B1  1  0.21427932  0.57704058  0.40519549  1
  O  O0  1  0.78379859  0.56888501  0.05976101  1
  O  O1  1  0.78569177  0.06928133  0.57539856  1
  O  O2  1  0.21620141  0.43111499  0.94023899  1
  O  O3  1  0.21430823  0.93071867  0.42460144  1
  O  O4  1  0.98315755  0.41191214  0.58746428  1
  O  O5  1  0.01684245  0.58808786  0.41253572  1
  O  O6  1  0.73087207  0.47444233  0.75695002  1
  O  O7  1  0.73124188  0.76647085  0.47930145  1
  O  O8  1  0.26912793  0.52555767  0.24304998  1
  O  O9  1  0.26875812  0.23352915  0.52069855  1
  O  O10  1  0.03161583  0.66454744  0.92987628  1
  O  O11  1  0.03400302  0.92637325  0.66128054  1
  O  O12  1  0.96838417  0.33545256  0.07012372  1
  O  O13  1  0.96599698  0.07362675  0.33871946  1
  O  O14  1  0.68970984  0.26780913  0.48488887  1
  O  O15  1  0.69247129  0.47308392  0.25385868  1
  O  O16  1  0.31029016  0.73219087  0.51511113  1
  O  O17  1  0.30752871  0.52691608  0.74614132  1
  O  O18  1  0.72157821  0.53859489  0.54877557  1
  O  O19  1  0.27842179  0.46140511  0.45122443  1
  O  O20  1  0.37216362  0.90692200  0.90746334  1
  O  O21  1  0.62783638  0.09307800  0.09253666  1
  O  O22  1  0.70858442  0.78200603  0.96645753  1
  O  O23  1  0.71337599  0.96831393  0.78501918  1
  O  O24  1  0.29141558  0.21799397  0.03354247  1
  O  O25  1  0.28662401  0.03168607  0.21498082  1
  O  O26  1  0.37924428  0.71676642  0.05429120  1
  O  O27  1  0.38088462  0.04134647  0.70851442  1
  O  O28  1  0.62075572  0.28323358  0.94570880  1
  O  O29  1  0.61911538  0.95865353  0.29148558  1
loop_
_geom_bond_atom_site_label_1
_geom_bond_atom_site_label_2
_geom_bond_distance
_geom_bond_site_symmetry_2
Ba0 O25 2.786342 1_555
Ba0 O23 2.786342 1_444
Ba0 O22 2.834782 1_444
Ba0 O24 2.834782 1_555
Ba0 O21 2.876791 1_455
Ba0 O20 2.876791 1_544
Ba0 O12 3.006474 1_455
Ba0 O10 3.006474 1_544
Ba0 O11 3.031056 1_544
Ba0 O13 3.031056 1_455
Na0 O28 2.305660 1_555
Na0 O6 2.354426 1_555
Na0 O27 2.379749 1_555
Na0 O9 2.411189 1_555
Na0 O14 2.597965 1_555
Na0 O1 2.707610 1_555
Na0 O17 2.814064 1_555
Na0 O2 2.982511 1_555
Na1 O26 2.305660 1_555
Na1 O8 2.354426 1_555
Na1 O29 2.379749 1_555
Na1 O7 2.411189 1_555
Na1 O16 2.597965 1_555
Na1 O3 2.707610 1_555
Na1 O15 2.814064 1_555
Na1 O0 2.982511 1_555
Na2 O18 2.256980 1_555
Na2 O20 2.281761 1_555
Na2 O16 2.403727 1_555
Na2 O17 2.405928 1_555
Na2 O22 2.653679 1_555
Na2 O23 2.685968 1_555
Na3 O19 2.256980 1_555
Na3 O21 2.281761 1_555
Na3 O14 2.403727 1_555
Na3 O15 2.405928 1_555
Na3 O24 2.653679 1_555
Na3 O25 2.685968 1_555
B0 O4 1.427701 1_555
B0 O6 1.473841 1_555
B0 O18 1.480787 1_555
B0 O14 1.485111 1_555
B1 O5 1.427701 1_555
B1 O8 1.473841 1_555
B1 O19 1.480787 1_555
B1 O16 1.485111 1_555
O0 Si6 1.627738 1_555
O0 Si0 1.630294 1_554
O1 Si1 1.619337 1_545
O1 Si7 1.642008 1_555
O2 Si4 1.627738 1_555
O2 Si2 1.630294 1_556
O3 Si3 1.619337 1_565
O3 Si5 1.642008 1_555
O4 Si9 1.566350 1_655
O5 Si8 1.566350 1_455
O6 Si0 1.619565 1_555
O7 Si8 1.640612 1_555
O7 Si1 1.640916 1_555
O8 Si2 1.619565 1_555
O9 Si9 1.640612 1_555
O9 Si3 1.640916 1_555
O10 Si4 1.638130 1_555
O10 Si0 1.649460 1_455
O11 Si1 1.640354 1_455
O11 Si5 1.645802 1_555
O12 Si6 1.638130 1_555
O12 Si2 1.649460 1_655
O13 Si3 1.640354 1_655
O13 Si7 1.645802 1_555
O14 Si7 1.624805 1_555
O15 Si8 1.638411 1_555
O15 Si6 1.643024 1_555
O16 Si5 1.624805 1_555
O17 Si9 1.638411 1_555
O17 Si4 1.643024 1_555
O18 Si8 1.610147 1_555
O19 Si9 1.610147 1_555
O20 Ti1 1.904118 1_565
O20 Ti0 1.920853 1_556
O21 Ti0 1.904118 1_545
O21 Ti1 1.920853 1_554
O22 Si0 1.607794 1_555
O22 Ti0 1.989390 1_556
O23 Si1 1.597161 1_555
O23 Ti1 2.023310 1_565
O24 Si2 1.607794 1_555
O24 Ti1 1.989390 1_554
O25 Si3 1.597161 1_555
O25 Ti0 2.023310 1_545
O26 Si4 1.585173 1_554
O26 Ti0 1.978452 1_555
O27 Si5 1.597132 1_545
O27 Ti1 1.971326 1_555
O28 Si6 1.585173 1_556
O28 Ti1 1.978452 1_555
O29 Si7 1.597132 1_565
O29 Ti0 1.971326 1_555
