# generated using pymatgen
data_LaCeRh4
_symmetry_space_group_name_H-M   'P 1'
_cell_length_a   5.37758475
_cell_length_b   5.37047996
_cell_length_c   5.37049599
_cell_angle_alpha   60.00029630
_cell_angle_beta   60.04396475
_cell_angle_gamma   60.04388364
_symmetry_Int_Tables_number   1
_chemical_formula_structural   LaCeRh4
_chemical_formula_sum   'La1 Ce1 Rh4'
_cell_volume   109.74601296
_cell_formula_units_Z   1
loop_
 _symmetry_equiv_pos_site_id
 _symmetry_equiv_pos_as_xyz
  1  'x, y, z'
loop_
 _atom_site_type_symbol
 _atom_site_label
 _atom_site_symmetry_multiplicity
 _atom_site_fract_x
 _atom_site_fract_y
 _atom_site_fract_z
 _atom_site_occupancy
  La  La0  1  0.99909511  0.00030130  0.00030330  1
  Ce  Ce0  1  0.75089158  0.74970281  0.74970081  1
  Rh  Rh0  1  0.37493399  0.37507536  0.37507536  1
  Rh  Rh1  1  0.37493399  0.87491730  0.37507536  1
  Rh  Rh2  1  0.87521236  0.37492988  0.37492988  1
  Rh  Rh3  1  0.37493399  0.37507536  0.87491730  1
loop_
_geom_bond_atom_site_label_1
_geom_bond_atom_site_label_2
_geom_bond_distance
_geom_bond_site_symmetry_2
La0 Rh2 3.148062 1_555
La0 Rh2 3.148065 1_545
La0 Rh2 3.148081 1_554
La0 Rh1 3.150495 1_545
La0 Rh3 3.150497 1_554
La0 Rh0 3.150500 1_555
La0 Rh1 3.152358 1_645
La0 Rh3 3.152358 1_654
La0 Rh3 3.152360 1_644
La0 Rh0 3.152365 1_645
La0 Rh1 3.152375 1_644
La0 Rh0 3.152380 1_654
Ce0 Rh2 3.148380 1_555
Ce0 Rh2 3.148406 1_565
Ce0 Rh2 3.148422 1_556
Ce0 Rh0 3.149556 1_655
Ce0 Rh1 3.149562 1_655
Ce0 Rh3 3.149564 1_655
Ce0 Rh1 3.152619 1_555
Ce0 Rh3 3.152620 1_555
Ce0 Rh0 3.152639 1_565
Ce0 Rh3 3.152645 1_565
Ce0 Rh0 3.152654 1_556
Ce0 Rh1 3.152659 1_556
Rh0 Rh1 2.684391 1_555
Rh0 Rh3 2.684399 1_555
Rh0 Rh1 2.686089 1_545
Rh0 Rh3 2.686097 1_554
Rh0 Rh2 2.688076 1_455
Rh0 Rh2 2.689509 1_555
Rh1 Rh3 2.684407 1_555
Rh1 Rh3 2.686105 1_564
Rh1 Rh2 2.688084 1_465
Rh1 Rh2 2.689517 1_555
Rh2 Rh3 2.688091 1_654
Rh2 Rh3 2.689524 1_555
