# generated using pymatgen
data_Sr4Ca4Fe3(CoO4)5
_symmetry_space_group_name_H-M   'P 1'
_cell_length_a   10.77518294
_cell_length_b   11.23083706
_cell_length_c   17.51196689
_cell_angle_alpha   108.79796450
_cell_angle_beta   108.06282539
_cell_angle_gamma   89.80630576
_symmetry_Int_Tables_number   1
_chemical_formula_structural   Sr4Ca4Fe3(CoO4)5
_chemical_formula_sum   'Sr16 Ca16 Fe12 Co20 O80'
_cell_volume   1896.29056761
_cell_formula_units_Z   4
loop_
 _symmetry_equiv_pos_site_id
 _symmetry_equiv_pos_as_xyz
  1  'x, y, z'
loop_
 _atom_site_type_symbol
 _atom_site_label
 _atom_site_symmetry_multiplicity
 _atom_site_fract_x
 _atom_site_fract_y
 _atom_site_fract_z
 _atom_site_occupancy
  Sr  Sr0  1  0.30708300  0.56179600  0.61109300  1
  Sr  Sr1  1  0.80785300  0.06764800  0.60874300  1
  Sr  Sr2  1  0.80617000  0.56404100  0.61166200  1
  Sr  Sr3  1  0.18931200  0.43242500  0.38319100  1
  Sr  Sr4  1  0.19789600  0.43857700  0.89607800  1
  Sr  Sr5  1  0.69438300  0.43483300  0.38243400  1
  Sr  Sr6  1  0.69477000  0.93384000  0.38496800  1
  Sr  Sr7  1  0.70323600  0.93930700  0.89521900  1
  Sr  Sr8  1  0.06000500  0.29367300  0.61014400  1
  Sr  Sr9  1  0.05633400  0.79752300  0.61033400  1
  Sr  Sr10  1  0.56180100  0.29947400  0.61053900  1
  Sr  Sr11  1  0.55375700  0.79770300  0.60967400  1
  Sr  Sr12  1  0.44778700  0.19990300  0.38530200  1
  Sr  Sr13  1  0.45095600  0.20414400  0.89401800  1
  Sr  Sr14  1  0.94657800  0.19927800  0.38444600  1
  Sr  Sr15  1  0.95025400  0.20510800  0.89545300  1
  Ca  Ca0  1  0.30783400  0.06972000  0.10509800  1
  Ca  Ca1  1  0.30705100  0.06555300  0.60612200  1
  Ca  Ca2  1  0.30210800  0.56590600  0.10897400  1
  Ca  Ca3  1  0.80718500  0.07087200  0.10675700  1
  Ca  Ca4  1  0.80400500  0.56304000  0.10993200  1
  Ca  Ca5  1  0.19723500  0.92722900  0.38749100  1
  Ca  Ca6  1  0.20258600  0.93599500  0.89826400  1
  Ca  Ca7  1  0.69615800  0.43517500  0.89907000  1
  Ca  Ca8  1  0.05432900  0.29147800  0.10711700  1
  Ca  Ca9  1  0.05169200  0.78944300  0.10820400  1
  Ca  Ca10  1  0.55244900  0.29236400  0.10615200  1
  Ca  Ca11  1  0.55315100  0.78646500  0.10491600  1
  Ca  Ca12  1  0.44073800  0.71032000  0.38718900  1
  Ca  Ca13  1  0.44671700  0.71505900  0.89694100  1
  Ca  Ca14  1  0.94011600  0.70217100  0.38740500  1
  Ca  Ca15  1  0.94958100  0.71521700  0.89858400  1
  Fe  Fe0  1  0.11367500  0.08985900  0.75476000  1
  Fe  Fe1  1  0.10934700  0.59730900  0.75564000  1
  Fe  Fe2  1  0.60388300  0.08377700  0.24200900  1
  Fe  Fe3  1  0.60517200  0.09505500  0.75059800  1
  Fe  Fe4  1  0.60968400  0.59394800  0.75796600  1
  Fe  Fe5  1  0.35308100  0.41364500  0.24502700  1
  Fe  Fe6  1  0.36206900  0.41186200  0.75516800  1
  Fe  Fe7  1  0.34843800  0.90411500  0.24465100  1
  Fe  Fe8  1  0.35651500  0.90753700  0.75227300  1
  Fe  Fe9  1  0.85823100  0.41706700  0.75907400  1
  Fe  Fe10  1  0.85854000  0.90192000  0.24325600  1
  Fe  Fe11  1  0.86159900  0.90842400  0.75243700  1
  Co  Co0  1  0.01201300  0.00184100  0.00552900  1
  Co  Co1  1  0.00336500  0.99468700  0.49319700  1
  Co  Co2  1  0.00454100  0.50124000  0.00274400  1
  Co  Co3  1  0.00179400  0.49926000  0.49901400  1
  Co  Co4  1  0.51187300  0.00354600  0.00645400  1
  Co  Co5  1  0.50277000  0.99915300  0.49689200  1
  Co  Co6  1  0.50644400  0.50148500  0.00302900  1
  Co  Co7  1  0.50062000  0.49487500  0.49067500  1
  Co  Co8  1  0.25900500  0.25244300  0.00525400  1
  Co  Co9  1  0.25548100  0.24565100  0.49701900  1
  Co  Co10  1  0.25875300  0.75315900  0.00563500  1
  Co  Co11  1  0.25037800  0.74710800  0.49517400  1
  Co  Co12  1  0.75896400  0.25520800  0.00640700  1
  Co  Co13  1  0.75409200  0.24892800  0.49426100  1
  Co  Co14  1  0.75833400  0.74923400  0.00309000  1
  Co  Co15  1  0.74981700  0.74905600  0.49714100  1
  Co  Co16  1  0.10755000  0.08855000  0.24512100  1
  Co  Co17  1  0.10311500  0.59596800  0.24615700  1
  Co  Co18  1  0.60622200  0.59398900  0.24517400  1
  Co  Co19  1  0.85474800  0.40832700  0.24490700  1
  O  O0  1  0.12681200  0.10511800  0.48959600  1
  O  O1  1  0.13019600  0.11640500  0.99415300  1
  O  O2  1  0.11255400  0.61474100  0.48647100  1
  O  O3  1  0.12011200  0.62607900  0.99402900  1
  O  O4  1  0.62639100  0.12234900  0.48873200  1
  O  O5  1  0.63010500  0.12383100  0.99666800  1
  O  O6  1  0.61094500  0.61898300  0.48789400  1
  O  O7  1  0.62017200  0.61927400  0.98886300  1
  O  O8  1  0.13769800  0.38253400  0.02041300  1
  O  O9  1  0.13176000  0.37417400  0.50575300  1
  O  O10  1  0.14352700  0.87593000  0.01364000  1
  O  O11  1  0.13347600  0.86370100  0.50082500  1
  O  O12  1  0.63854000  0.38364900  0.01787800  1
  O  O13  1  0.63583500  0.37609000  0.50559600  1
  O  O14  1  0.64353800  0.87369500  0.01540800  1
  O  O15  1  0.62476900  0.87673400  0.50168800  1
  O  O16  1  0.37645900  0.11291100  0.48908500  1
  O  O17  1  0.37557500  0.11657900  0.99237900  1
  O  O18  1  0.36343000  0.62680800  0.48663400  1
  O  O19  1  0.37337100  0.62830300  0.99341400  1
  O  O20  1  0.87552600  0.12292900  0.48959100  1
  O  O21  1  0.88131600  0.12332000  0.99826400  1
  O  O22  1  0.86969800  0.62140600  0.48736700  1
  O  O23  1  0.86994100  0.62252500  0.99015700  1
  O  O24  1  0.38762400  0.38983100  0.01728600  1
  O  O25  1  0.38533300  0.38556600  0.50274600  1
  O  O26  1  0.39374800  0.88577600  0.01711800  1
  O  O27  1  0.37797000  0.88306400  0.50742900  1
  O  O28  1  0.88405300  0.38886800  0.01567000  1
  O  O29  1  0.88389700  0.38195600  0.50363600  1
  O  O30  1  0.89561100  0.88584700  0.01854200  1
  O  O31  1  0.88629300  0.88195300  0.50219100  1
  O  O32  1  0.09718700  0.10379700  0.14392400  1
  O  O33  1  0.09628200  0.08850900  0.64351400  1
  O  O34  1  0.08285300  0.60485700  0.14168700  1
  O  O35  1  0.07747900  0.59409700  0.64191800  1
  O  O36  1  0.59292600  0.10708000  0.13991800  1
  O  O37  1  0.58381900  0.09475800  0.63977800  1
  O  O38  1  0.58623600  0.60468300  0.14085600  1
  O  O39  1  0.58226400  0.59491700  0.64624000  1
  O  O40  1  0.43620300  0.40456700  0.35530600  1
  O  O41  1  0.44868500  0.40392700  0.86389400  1
  O  O42  1  0.43615100  0.89846900  0.35504500  1
  O  O43  1  0.45035200  0.89893000  0.86080700  1
  O  O44  1  0.93206400  0.40316500  0.35215300  1
  O  O45  1  0.94653300  0.40455600  0.86601000  1
  O  O46  1  0.94510500  0.89673000  0.35494500  1
  O  O47  1  0.95095300  0.89858200  0.86137600  1
  O  O48  1  0.34198800  0.28899600  0.14014400  1
  O  O49  1  0.33717800  0.29354900  0.64456800  1
  O  O50  1  0.33549900  0.78205300  0.13892000  1
  O  O51  1  0.32549800  0.79277300  0.64116200  1
  O  O52  1  0.84423100  0.29360500  0.14220400  1
  O  O53  1  0.83792400  0.30479500  0.64860400  1
  O  O54  1  0.84070600  0.77797200  0.13738600  1
  O  O55  1  0.82939400  0.79761600  0.64002300  1
  O  O56  1  0.18567900  0.19618500  0.35314800  1
  O  O57  1  0.19407300  0.20759100  0.86489200  1
  O  O58  1  0.19418000  0.70432100  0.35365800  1
  O  O59  1  0.20513500  0.71534500  0.86318400  1
  O  O60  1  0.68799300  0.19838300  0.35265200  1
  O  O61  1  0.68811000  0.21217100  0.86138200  1
  O  O62  1  0.69324100  0.69625800  0.35381100  1
  O  O63  1  0.70696900  0.71093600  0.86523800  1
  O  O64  1  0.42237400  0.05690700  0.23872100  1
  O  O65  1  0.42326000  0.06286500  0.74482300  1
  O  O66  1  0.42422700  0.57303200  0.24776900  1
  O  O67  1  0.43108000  0.57485300  0.76075200  1
  O  O68  1  0.92324900  0.05757600  0.23835300  1
  O  O69  1  0.93353500  0.06503100  0.75146600  1
  O  O70  1  0.92445600  0.57123200  0.24889800  1
  O  O71  1  0.93307500  0.57704300  0.76265400  1
  O  O72  1  0.17172600  0.43319300  0.23959400  1
  O  O73  1  0.18267900  0.43931500  0.75372900  1
  O  O74  1  0.16994000  0.92487800  0.24652100  1
  O  O75  1  0.18154300  0.93259000  0.76103000  1
  O  O76  1  0.67168600  0.43134200  0.23787200  1
  O  O77  1  0.67862400  0.43559800  0.76141500  1
  O  O78  1  0.67606900  0.92490600  0.23844100  1
  O  O79  1  0.68408200  0.94103500  0.75325400  1
loop_
_geom_bond_atom_site_label_1
_geom_bond_atom_site_label_2
_geom_bond_distance
_geom_bond_site_symmetry_2
Ca0 O64 2.333332 1_555
Ca0 O48 2.338543 1_555
Ca0 O1 2.461086 1_554
Ca0 O17 2.504336 1_554
Ca0 O26 2.513718 1_545
Ca0 O10 2.541188 1_545
Ca0 O32 2.558124 1_555
Ca0 O36 2.943943 1_555
Ca1 O65 2.372653 1_555
Ca1 O49 2.423702 1_555
Ca1 O0 2.500845 1_555
Ca1 O27 2.509397 1_545
Ca1 O33 2.542136 1_555
Ca1 O16 2.588168 1_555
Ca1 O11 2.689497 1_545
Ca1 O37 2.853189 1_555
Ca2 O50 2.316411 1_555
Ca2 O66 2.353211 1_555
Ca2 O8 2.459141 1_555
Ca2 O24 2.489266 1_555
Ca2 O34 2.602267 1_555
Ca2 O3 2.602700 1_554
Ca2 O19 2.656539 1_554
Ca2 O38 2.943925 1_555
Ca3 O68 2.308760 1_555
Ca3 O52 2.377907 1_555
Ca3 O5 2.482210 1_554
Ca3 O21 2.502047 1_554
Ca3 O30 2.538287 1_545
Ca3 O36 2.550577 1_555
Ca3 O14 2.562495 1_545
Ca4 O54 2.314070 1_555
Ca4 O70 2.347998 1_555
Ca4 O12 2.446512 1_555
Ca4 O28 2.466921 1_555
Ca4 O38 2.575931 1_555
Ca4 O7 2.658534 1_554
Ca4 O23 2.679731 1_554
Ca4 O34 2.891842 1_655
Ca5 O58 2.377375 1_555
Ca5 O74 2.385224 1_555
Ca5 O0 2.508642 1_565
Ca5 O27 2.564848 1_555
Ca5 O11 2.584862 1_555
Ca5 O46 2.596760 1_455
Ca5 O16 2.597888 1_565
Ca5 O42 2.799588 1_555
Ca6 O75 2.330524 1_555
Ca6 O59 2.355410 1_555
Ca6 O1 2.478372 1_565
Ca6 O17 2.504064 1_565
Ca6 O10 2.573111 1_556
Ca6 O47 2.586913 1_455
Ca6 O26 2.642552 1_556
Ca6 O43 2.938271 1_555
Ca7 O77 2.360446 1_555
Ca7 O61 2.369903 1_555
Ca7 O7 2.471752 1_555
Ca7 O41 2.541966 1_555
Ca7 O23 2.547435 1_555
Ca7 O12 2.574571 1_556
Ca7 O28 2.579241 1_556
Ca7 O45 2.926728 1_555
Ca8 O72 2.308583 1_555
Ca8 O32 2.399171 1_555
Ca8 O8 2.451708 1_555
Ca8 O21 2.485112 1_454
Ca8 O52 2.521084 1_455
Ca8 O28 2.533855 1_455
Ca8 O1 2.633038 1_554
Ca8 O48 2.973347 1_555
Ca9 O34 2.326088 1_555
Ca9 O74 2.351377 1_555
Ca9 O30 2.431424 1_455
Ca9 O54 2.492191 1_455
Ca9 O3 2.539334 1_554
Ca9 O23 2.576785 1_454
Ca9 O10 2.593125 1_555
Ca9 O50 2.941943 1_555
Ca10 O76 2.294156 1_555
Ca10 O36 2.344549 1_555
Ca10 O24 2.478922 1_555
Ca10 O12 2.493647 1_555
Ca10 O48 2.520058 1_555
Ca10 O5 2.569845 1_554
Ca10 O17 2.575885 1_554
Ca11 O38 2.318452 1_555
Ca11 O78 2.321559 1_555
Ca11 O26 2.452075 1_555
Ca11 O19 2.482518 1_554
Ca11 O14 2.511572 1_555
Ca11 O7 2.572782 1_554
Ca11 O50 2.596733 1_555
Ca11 O54 2.978804 1_555
Ca12 O42 2.352228 1_555
Ca12 O66 2.382523 1_555
Ca12 O58 2.532935 1_555
Ca12 O18 2.561996 1_555
Ca12 O15 2.567091 1_555
Ca12 O6 2.583287 1_555
Ca12 O27 2.626129 1_555
Ca12 O62 2.948383 1_555
Ca13 O43 2.350385 1_555
Ca13 O67 2.351205 1_555
Ca13 O59 2.484444 1_555
Ca13 O19 2.514388 1_555
Ca13 O7 2.545266 1_555
Ca13 O26 2.562790 1_556
Ca13 O14 2.625062 1_556
Ca13 O63 3.020309 1_555
Ca14 O70 2.350181 1_555
Ca14 O46 2.433252 1_555
Ca14 O22 2.512861 1_555
Ca14 O62 2.536203 1_555
Ca14 O2 2.552010 1_655
Ca14 O31 2.559899 1_555
Ca14 O11 2.591173 1_655
Ca14 O58 2.976091 1_655
Ca15 O71 2.337687 1_555
Ca15 O47 2.353002 1_555
Ca15 O63 2.492669 1_555
Ca15 O23 2.515346 1_555
Ca15 O3 2.516676 1_655
Ca15 O30 2.564969 1_556
Ca15 O10 2.599118 1_656
Ca15 O59 3.004334 1_655
Fe0 O57 1.883242 1_555
Fe0 O33 1.893453 1_555
Fe0 O75 1.932093 1_545
Fe0 O69 1.942313 1_455
Fe1 O59 1.887951 1_555
Fe1 O35 1.901312 1_555
Fe1 O73 1.934591 1_555
Fe1 O71 1.959613 1_455
Fe2 O36 1.857189 1_555
Fe2 O60 1.882546 1_555
Fe2 O78 1.934263 1_545
Fe2 O64 1.960221 1_555
Fe3 O37 1.880987 1_555
Fe3 O61 1.892289 1_555
Fe3 O79 1.932517 1_545
Fe3 O65 1.959938 1_555
Fe4 O63 1.884560 1_555
Fe4 O39 1.889629 1_555
Fe4 O77 1.936659 1_555
Fe4 O67 1.954429 1_555
Fe5 O48 1.885593 1_555
Fe5 O40 1.896257 1_555
Fe5 O66 1.930112 1_555
Fe5 O72 1.941946 1_555
Fe6 O41 1.873783 1_555
Fe6 O49 1.900136 1_555
Fe6 O67 1.939610 1_555
Fe6 O73 1.950078 1_555
Fe7 O50 1.879461 1_555
Fe7 O42 1.892132 1_555
Fe7 O64 1.940478 1_565
Fe7 O74 1.945719 1_555
Fe8 O51 1.882120 1_555
Fe8 O43 1.889486 1_555
Fe8 O65 1.946984 1_565
Fe8 O75 1.950678 1_555
Fe9 O45 1.869665 1_555
Fe9 O53 1.883501 1_555
Fe9 O71 1.946320 1_555
Fe9 O77 1.957384 1_555
Fe10 O54 1.878726 1_555
Fe10 O46 1.908069 1_555
Fe10 O68 1.921366 1_565
Fe10 O78 1.961459 1_555
Fe11 O55 1.882797 1_555
Fe11 O47 1.890721 1_555
Fe11 O69 1.931643 1_565
Fe11 O79 1.949851 1_555
Co0 O1 1.910602 1_554
Co0 O30 1.923992 1_445
Co0 O21 1.961775 1_454
Co0 O10 2.004751 1_545
Co0 O32 2.206004 1_555
Co0 O47 2.288862 1_444
Co1 O0 1.850693 1_565
Co1 O31 1.865916 1_455
Co1 O20 1.991754 1_465
Co1 O11 2.035685 1_555
Co1 O46 2.193533 1_455
Co1 O33 2.372169 1_565
Co2 O28 1.925336 1_455
Co2 O3 1.951245 1_554
Co2 O8 1.977198 1_555
Co2 O23 1.997341 1_454
Co2 O45 2.168901 1_454
Co2 O34 2.212506 1_555
Co3 O29 1.870767 1_455
Co3 O2 1.873843 1_555
Co3 O22 1.984056 1_455
Co3 O9 1.984854 1_555
Co3 O35 2.254923 1_555
Co3 O44 2.315595 1_455
Co4 O26 1.929333 1_545
Co4 O5 1.942557 1_554
Co4 O17 1.947750 1_554
Co4 O14 2.039488 1_545
Co4 O36 2.137057 1_555
Co4 O43 2.313174 1_544
Co5 O16 1.867821 1_565
Co5 O15 1.902398 1_555
Co5 O27 1.965449 1_555
Co5 O4 1.991732 1_565
Co5 O42 2.248070 1_555
Co5 O37 2.257523 1_565
Co6 O24 1.919583 1_555
Co6 O7 1.929818 1_554
Co6 O12 1.955625 1_555
Co6 O19 2.025823 1_554
Co6 O38 2.196618 1_555
Co6 O41 2.206415 1_554
Co7 O25 1.853459 1_555
Co7 O6 1.857198 1_555
Co7 O13 1.986494 1_555
Co7 O18 2.091317 1_555
Co7 O40 2.136583 1_555
Co7 O39 2.450660 1_555
Co8 O8 1.966192 1_555
Co8 O17 1.974270 1_554
Co8 O1 1.988470 1_554
Co8 O24 1.992421 1_555
Co8 O48 2.148421 1_555
Co8 O57 2.218798 1_554
Co9 O9 1.963469 1_555
Co9 O16 1.976535 1_555
Co9 O0 2.049621 1_555
Co9 O25 2.064758 1_555
Co9 O56 2.268857 1_555
Co9 O49 2.331869 1_555
Co10 O10 1.853136 1_555
Co10 O19 1.869803 1_554
Co10 O3 1.987241 1_554
Co10 O26 2.003706 1_555
Co10 O50 2.133973 1_555
Co10 O59 2.272075 1_554
Co11 O11 1.814869 1_555
Co11 O18 1.817494 1_555
Co11 O27 1.971719 1_555
Co11 O2 2.041372 1_555
Co11 O58 2.245682 1_555
Co11 O51 2.308391 1_555
Co12 O12 1.940912 1_555
Co12 O28 1.953853 1_555
Co12 O5 1.959290 1_554
Co12 O21 1.979815 1_554
Co12 O52 2.161529 1_555
Co12 O61 2.296835 1_554
Co13 O13 1.914292 1_555
Co13 O20 1.923664 1_555
Co13 O4 1.940507 1_555
Co13 O29 1.982166 1_555
Co13 O60 2.231461 1_555
Co13 O53 2.431444 1_555
Co14 O23 1.863382 1_554
Co14 O14 1.868120 1_555
Co14 O7 1.989726 1_554
Co14 O30 2.028495 1_555
Co14 O54 2.154342 1_555
Co14 O63 2.196113 1_554
Co15 O22 1.928624 1_555
Co15 O15 1.964156 1_555
Co15 O6 2.027667 1_555
Co15 O31 2.060866 1_555
Co15 O55 2.255364 1_555
Co15 O62 2.262231 1_555
Co16 O32 1.804179 1_555
Co16 O56 1.815014 1_555
Co16 O74 1.960074 1_545
Co16 O68 1.977601 1_455
Co17 O34 1.809552 1_555
Co17 O58 1.836807 1_555
Co17 O72 1.951887 1_555
Co17 O70 1.963400 1_455
Co18 O38 1.815299 1_555
Co18 O62 1.819500 1_555
Co18 O76 1.935796 1_555
Co18 O66 1.992078 1_555
Co19 O52 1.813503 1_555
Co19 O44 1.823242 1_555
Co19 O70 1.952096 1_555
Co19 O76 1.959395 1_555
O0 Sr14 2.702596 1_455
O0 Sr8 2.740449 1_555
O1 Sr15 2.599560 1_455
O2 Sr3 2.584042 1_555
O2 Sr9 2.687507 1_555
O2 Sr0 2.738811 1_555
O3 Sr4 2.575054 1_555
O4 Sr12 2.566469 1_555
O4 Sr6 2.582122 1_545
O4 Sr1 2.625472 1_555
O4 Sr10 2.677346 1_555
O5 Sr7 2.560506 1_545
O5 Sr13 2.579261 1_555
O6 Sr11 2.646583 1_555
O6 Sr5 2.655531 1_555
O6 Sr2 2.743959 1_555
O8 Sr15 2.704599 1_454
O8 Sr4 2.705462 1_554
O9 Sr8 2.589106 1_555
O9 Sr0 2.602432 1_555
O9 Sr14 2.657301 1_455
O9 Sr3 2.674358 1_555
O11 Sr9 2.613848 1_555
O12 Sr13 2.710194 1_554
O13 Sr2 2.580645 1_555
O13 Sr10 2.585921 1_555
O13 Sr12 2.674425 1_555
O13 Sr5 2.692335 1_555
O14 Sr7 2.688685 1_554
O15 Sr11 2.633048 1_555
O15 Sr6 2.638626 1_555
O15 Sr1 2.673634 1_565
O16 Sr12 2.619911 1_555
O16 Sr10 2.724787 1_555
O17 Sr13 2.560967 1_555
O18 Sr3 2.634163 1_555
O18 Sr11 2.674581 1_555
O18 Sr0 2.738835 1_555
O19 Sr4 2.590113 1_555
O20 Sr14 2.570579 1_555
O20 Sr8 2.626752 1_655
O20 Sr6 2.639631 1_545
O20 Sr1 2.655649 1_555
O21 Sr15 2.556714 1_555
O21 Sr7 2.585613 1_545
O22 Sr5 2.593935 1_555
O22 Sr9 2.681437 1_655
O22 Sr2 2.729860 1_555
O24 Sr4 2.652339 1_554
O24 Sr13 2.734443 1_554
O25 Sr0 2.605536 1_555
O25 Sr10 2.655514 1_555
O25 Sr3 2.661175 1_555
O25 Sr12 2.667518 1_555
O27 Sr11 2.589128 1_555
O28 Sr15 2.705791 1_554
O29 Sr2 2.634354 1_555
O29 Sr8 2.654627 1_655
O29 Sr14 2.669648 1_555
O29 Sr5 2.672816 1_555
O30 Sr7 2.715228 1_554
O31 Sr9 2.614659 1_655
O31 Sr6 2.635940 1_555
O31 Sr1 2.646436 1_565
O33 Sr8 2.554111 1_555
O33 Sr1 2.970524 1_455
O33 Sr9 3.135840 1_545
O35 Sr9 2.511997 1_555
O35 Sr0 2.690667 1_555
O35 Sr2 2.805681 1_455
O37 Sr10 2.506818 1_555
O37 Sr1 2.630110 1_555
O39 Sr11 2.550363 1_555
O39 Sr2 2.659445 1_555
O39 Sr0 2.835022 1_555
O39 Sr10 3.167278 1_555
O40 Sr12 2.512043 1_555
O40 Sr5 2.676411 1_555
O40 Sr3 2.848686 1_555
O41 Sr13 2.463260 1_555
O41 Sr4 2.927029 1_555
O42 Sr6 2.676885 1_555
O43 Sr7 2.609152 1_555
O44 Sr14 2.522859 1_555
O44 Sr3 2.653974 1_655
O44 Sr5 2.771491 1_555
O45 Sr15 2.452713 1_555
O45 Sr4 2.598476 1_655
O46 Sr6 2.908050 1_555
O47 Sr7 2.912572 1_555
O49 Sr10 2.671837 1_555
O49 Sr8 2.857826 1_555
O51 Sr0 2.470668 1_555
O51 Sr11 2.686642 1_555
O51 Sr9 2.784340 1_555
O53 Sr1 2.520548 1_555
O53 Sr8 2.671833 1_655
O53 Sr10 2.836518 1_555
O53 Sr2 3.175310 1_555
O55 Sr2 2.505677 1_555
O55 Sr9 2.652909 1_655
O55 Sr11 2.850449 1_555
O56 Sr3 2.531007 1_555
O56 Sr12 2.700877 1_555
O56 Sr14 2.793207 1_455
O57 Sr4 2.470502 1_555
O57 Sr13 2.657024 1_555
O57 Sr15 2.841015 1_455
O60 Sr5 2.532785 1_555
O60 Sr14 2.666109 1_555
O60 Sr12 2.817344 1_555
O60 Sr6 3.195176 1_545
O61 Sr15 2.706439 1_555
O61 Sr13 2.793767 1_555
O62 Sr6 2.544402 1_555
O62 Sr5 3.133048 1_555
O63 Sr7 2.449496 1_555
O64 Sr12 2.480636 1_555
O65 Sr13 2.506165 1_555
O67 Sr0 2.501511 1_555
O68 Sr14 2.474087 1_555
O69 Sr15 2.455419 1_555
O69 Sr1 2.455560 1_555
O71 Sr2 2.528466 1_555
O72 Sr3 2.465360 1_555
O73 Sr4 2.449674 1_555
O73 Sr8 2.459296 1_555
O75 Sr9 2.512286 1_555
O76 Sr5 2.454044 1_555
O77 Sr10 2.500004 1_555
O78 Sr6 2.479612 1_555
O79 Sr7 2.436490 1_555
O79 Sr11 2.470338 1_555
