# generated using pymatgen
data_TeMoWSeS2
_symmetry_space_group_name_H-M   'P 1'
_cell_length_a   3.30389748
_cell_length_b   3.30389748
_cell_length_c   37.62313300
_cell_angle_alpha   90.00000000
_cell_angle_beta   90.00000000
_cell_angle_gamma   119.99998960
_symmetry_Int_Tables_number   1
_chemical_formula_structural   TeMoWSeS2
_chemical_formula_sum   'Te2 Mo2 W2 Se2 S4'
_cell_volume   355.66305994
_cell_formula_units_Z   2
loop_
 _symmetry_equiv_pos_site_id
 _symmetry_equiv_pos_as_xyz
  1  'x, y, z'
loop_
 _atom_site_type_symbol
 _atom_site_label
 _atom_site_symmetry_multiplicity
 _atom_site_fract_x
 _atom_site_fract_y
 _atom_site_fract_z
 _atom_site_occupancy
  Te  Te0  1  0.33333300  0.66666700  0.41886600  1
  Te  Te1  1  0.33333300  0.66666700  0.52043700  1
  Mo  Mo0  1  0.00000000  0.00000000  0.09392700  1
  Mo  Mo1  1  0.00000000  0.00000000  0.46966400  1
  W  W0  1  0.33333300  0.66666700  0.28177900  1
  W  W1  1  0.33333300  0.66666700  0.65757100  1
  Se  Se0  1  0.33333300  0.66666700  0.04929600  1
  Se  Se1  1  0.33333300  0.66666700  0.13855300  1
  S  S0  1  0.00000000  0.00000000  0.32255700  1
  S  S1  1  0.00000000  0.00000000  0.69834000  1
  S  S2  1  0.00000000  0.00000000  0.24099800  1
  S  S3  1  0.00000000  0.00000000  0.61676000  1
loop_
_geom_bond_atom_site_label_1
_geom_bond_atom_site_label_2
_geom_bond_distance
_geom_bond_site_symmetry_2
Mo0 Se1 2.541163 1_545
Mo0 Se1 2.541166 1_445
Mo0 Se1 2.541166 1_555
Mo0 Se0 2.541288 1_545
Mo0 Se0 2.541290 1_445
Mo0 Se0 2.541290 1_555
Mo1 Te1 2.699553 1_545
Mo1 Te1 2.699555 1_445
Mo1 Te1 2.699555 1_555
Mo1 Te0 2.700219 1_545
Mo1 Te0 2.700221 1_555
Mo1 Te0 2.700221 1_445
S0 W0 2.447924 1_545
S0 W0 2.447926 1_555
S0 W0 2.447926 1_445
S1 W1 2.447711 1_545
S1 W1 2.447714 1_445
S1 W1 2.447714 1_555
S2 W0 2.447994 1_545
S2 W0 2.447997 1_555
S2 W0 2.447997 1_445
S3 W1 2.448702 1_545
S3 W1 2.448704 1_555
S3 W1 2.448704 1_445
