# generated using pymatgen
data_KSm(WO4)2
_symmetry_space_group_name_H-M   'P 1'
_cell_length_a   7.54024558
_cell_length_b   7.54024558
_cell_length_c   7.58852449
_cell_angle_alpha   62.20348966
_cell_angle_beta   62.20348966
_cell_angle_gamma   88.85876869
_symmetry_Int_Tables_number   1
_chemical_formula_structural   KSm(WO4)2
_chemical_formula_sum   'K2 Sm2 W4 O16'
_cell_volume   326.68705132
_cell_formula_units_Z   2
loop_
 _symmetry_equiv_pos_site_id
 _symmetry_equiv_pos_as_xyz
  1  'x, y, z'
loop_
 _atom_site_type_symbol
 _atom_site_label
 _atom_site_symmetry_multiplicity
 _atom_site_fract_x
 _atom_site_fract_y
 _atom_site_fract_z
 _atom_site_occupancy
  K  K0  1  0.20344125  0.79655875  0.75000000  1
  K  K1  1  0.79655875  0.20344125  0.25000000  1
  Sm  Sm0  1  0.77236445  0.22763555  0.75000000  1
  Sm  Sm1  1  0.22763555  0.77236445  0.25000000  1
  W  W0  1  0.69547580  0.69493492  0.76514975  1
  W  W1  1  0.30452420  0.30506508  0.23485025  1
  W  W2  1  0.30506508  0.30452420  0.73485025  1
  W  W3  1  0.69493492  0.69547580  0.26514975  1
  O  O0  1  0.61816733  0.76218200  0.55545636  1
  O  O1  1  0.38183267  0.23781800  0.44454364  1
  O  O2  1  0.23781800  0.38183267  0.94454364  1
  O  O3  1  0.76218200  0.61816733  0.05545636  1
  O  O4  1  0.38631273  0.07135856  0.86874156  1
  O  O5  1  0.61368727  0.92864144  0.13125844  1
  O  O6  1  0.92864144  0.61368727  0.63125844  1
  O  O7  1  0.07135856  0.38631273  0.36874156  1
  O  O8  1  0.58289262  0.36886225  0.97462284  1
  O  O9  1  0.41710738  0.63113775  0.02537716  1
  O  O10  1  0.63113775  0.41710738  0.52537716  1
  O  O11  1  0.36886225  0.58289262  0.47462284  1
  O  O12  1  0.79286142  0.95220992  0.68499642  1
  O  O13  1  0.20713858  0.04779008  0.31500358  1
  O  O14  1  0.04779008  0.20713858  0.81500358  1
  O  O15  1  0.95220992  0.79286142  0.18499642  1
loop_
_geom_bond_atom_site_label_1
_geom_bond_atom_site_label_2
_geom_bond_distance
_geom_bond_site_symmetry_2
K0 O2 2.836285 1_555
K0 O0 2.836285 1_555
K0 O1 2.886145 1_565
K0 O3 2.886145 1_456
K0 O13 2.927444 1_565
K0 O15 2.927444 1_456
K0 O9 3.024443 1_556
K0 O11 3.024443 1_555
K0 O4 3.165550 1_565
K0 O6 3.165550 1_455
K1 O1 2.836285 1_555
K1 O3 2.836285 1_555
K1 O2 2.886145 1_654
K1 O0 2.886145 1_545
K1 O14 2.927444 1_654
K1 O12 2.927444 1_545
K1 O10 3.024443 1_555
K1 O8 3.024443 1_554
K1 O5 3.165550 1_545
K1 O7 3.165550 1_655
O0 W0 1.797178 1_555
O0 W3 2.296472 1_555
O1 W1 1.797178 1_555
O1 W2 2.296472 1_555
O2 W2 1.797178 1_555
O2 W1 2.296472 1_556
O3 W3 1.797178 1_555
O3 W0 2.296472 1_554
O4 W2 1.835823 1_555
O4 Sm1 2.383330 1_546
O4 Sm0 2.715504 1_555
O5 W3 1.835823 1_555
O5 Sm0 2.383330 1_564
O5 Sm1 2.715504 1_555
O6 W0 1.835823 1_555
O6 Sm1 2.383330 1_655
O6 Sm0 2.715504 1_555
O7 W1 1.835823 1_555
O7 Sm0 2.383330 1_455
O7 Sm1 2.715504 1_555
O8 W1 1.955784 1_556
O8 W0 2.114702 1_555
O8 Sm0 2.332732 1_555
O9 W0 1.955784 1_554
O9 W1 2.114702 1_555
O9 Sm1 2.332732 1_555
O10 W3 1.955784 1_555
O10 W2 2.114702 1_555
O10 Sm0 2.332732 1_555
O11 W2 1.955784 1_555
O11 W3 2.114702 1_555
O11 Sm1 2.332732 1_555
O12 W0 1.792243 1_555
O12 Sm0 2.334905 1_565
O13 W1 1.792243 1_555
O13 Sm1 2.334905 1_545
O14 W2 1.792243 1_555
O14 Sm0 2.334905 1_455
O15 W3 1.792243 1_555
O15 Sm1 2.334905 1_655
