# generated using pymatgen
data_Ca2Al4Si4H10O21
_symmetry_space_group_name_H-M   'P 1'
_cell_length_a   11.73915901
_cell_length_b   11.73915901
_cell_length_c   9.41330489
_cell_angle_alpha   88.62759026
_cell_angle_beta   88.62759026
_cell_angle_gamma   44.52430792
_symmetry_Int_Tables_number   1
_chemical_formula_structural   Ca2Al4Si4H10O21
_chemical_formula_sum   'Ca4 Al8 Si8 H20 O42'
_cell_volume   909.32645314
_cell_formula_units_Z   2
loop_
 _symmetry_equiv_pos_site_id
 _symmetry_equiv_pos_as_xyz
  1  'x, y, z'
loop_
 _atom_site_type_symbol
 _atom_site_label
 _atom_site_symmetry_multiplicity
 _atom_site_fract_x
 _atom_site_fract_y
 _atom_site_fract_z
 _atom_site_occupancy
  Ca  Ca0  1  0.84371600  0.44553200  0.04489700  1
  Ca  Ca1  1  0.55446800  0.15628400  0.45510300  1
  Ca  Ca2  1  0.15628400  0.55446800  0.95510300  1
  Ca  Ca3  1  0.44553200  0.84371600  0.54489700  1
  Al  Al0  1  0.96738300  0.80002200  0.60095900  1
  Al  Al1  1  0.19997800  0.03261700  0.89904100  1
  Al  Al2  1  0.03261700  0.19997800  0.39904100  1
  Al  Al3  1  0.80002200  0.96738300  0.10095900  1
  Al  Al4  1  0.11720400  0.48275400  0.28594100  1
  Al  Al5  1  0.51724600  0.88279600  0.21405900  1
  Al  Al6  1  0.88279600  0.51724600  0.71405900  1
  Al  Al7  1  0.48275400  0.11720300  0.78594100  1
  Si  Si0  1  0.11484900  0.75032800  0.29007200  1
  Si  Si1  1  0.24967200  0.88515100  0.20992800  1
  Si  Si2  1  0.88515100  0.24967200  0.70992800  1
  Si  Si3  1  0.75032800  0.11484900  0.79007200  1
  Si  Si4  1  0.76969700  0.74992800  0.46117500  1
  Si  Si5  1  0.25007200  0.23030300  0.03882500  1
  Si  Si6  1  0.23030300  0.25007200  0.53882500  1
  Si  Si7  1  0.74992800  0.76969700  0.96117500  1
  H  H0  1  0.93504100  0.15760000  0.14940200  1
  H  H1  1  0.84240000  0.06495900  0.35059800  1
  H  H2  1  0.06495900  0.84240000  0.85059800  1
  H  H3  1  0.15760000  0.93504100  0.64940200  1
  H  H4  1  0.81640400  0.19708300  0.03016300  1
  H  H5  1  0.80291700  0.18359600  0.46983700  1
  H  H6  1  0.18359600  0.80291700  0.96983700  1
  H  H7  1  0.19708300  0.81640400  0.53016300  1
  H  H8  1  0.89682600  0.46740600  0.32795800  1
  H  H9  1  0.53259400  0.10317400  0.17204200  1
  H  H10  1  0.10317400  0.53259400  0.67204200  1
  H  H11  1  0.46740600  0.89682600  0.82795800  1
  H  H12  1  0.42098900  0.47900600  0.09534700  1
  H  H13  1  0.52099400  0.57901100  0.40465300  1
  H  H14  1  0.57901100  0.52099400  0.90465300  1
  H  H15  1  0.47900600  0.42098900  0.59534700  1
  H  H16  1  0.53273700  0.31324300  0.01575400  1
  H  H17  1  0.68675700  0.46726300  0.48424600  1
  H  H18  1  0.46726300  0.68675700  0.98424600  1
  H  H19  1  0.31324300  0.53273700  0.51575400  1
  O  O0  1  0.94631300  0.91407200  0.21768500  1
  O  O1  1  0.08592800  0.05368700  0.28231500  1
  O  O2  1  0.05368700  0.08592800  0.78231500  1
  O  O3  1  0.91407200  0.94631300  0.71768500  1
  O  O4  1  0.10106800  0.75558500  0.46427300  1
  O  O5  1  0.24441500  0.89893200  0.03572700  1
  O  O6  1  0.89893200  0.24441500  0.53572700  1
  O  O7  1  0.75558500  0.10106800  0.96427300  1
  O  O8  1  0.16586400  0.58929000  0.23058600  1
  O  O9  1  0.41071000  0.83413600  0.26941400  1
  O  O10  1  0.83413600  0.41071000  0.76941400  1
  O  O11  1  0.58929000  0.16586400  0.73058600  1
  O  O12  1  0.86211700  0.79303500  0.02313600  1
  O  O13  1  0.20696500  0.13788300  0.47686400  1
  O  O14  1  0.13788300  0.20696500  0.97686400  1
  O  O15  1  0.79303500  0.86211700  0.52313600  1
  O  O16  1  0.25796300  0.32601000  0.40939400  1
  O  O17  1  0.67399000  0.74203700  0.09060600  1
  O  O18  1  0.74203700  0.67399000  0.59060600  1
  O  O19  1  0.32601000  0.25796300  0.90939400  1
  O  O20  1  0.92170000  0.60747400  0.35951600  1
  O  O21  1  0.39252600  0.07830000  0.14048400  1
  O  O22  1  0.07830000  0.39252600  0.64048400  1
  O  O23  1  0.60747400  0.92170000  0.85951600  1
  O  O24  1  0.12944900  0.40467100  0.12165700  1
  O  O25  1  0.59532900  0.87055100  0.37834300  1
  O  O26  1  0.87055100  0.59532900  0.87834300  1
  O  O27  1  0.40467100  0.12944900  0.62165700  1
  O  O28  1  0.26146400  0.73853600  0.25000000  1
  O  O29  1  0.73853600  0.26146400  0.75000000  1
  O  O30  1  0.91608700  0.37752000  0.28994600  1
  O  O31  1  0.62248000  0.08391300  0.21005400  1
  O  O32  1  0.08391300  0.62248000  0.71005400  1
  O  O33  1  0.37752000  0.91608700  0.78994600  1
  O  O34  1  0.42575600  0.42704500  0.01312400  1
  O  O35  1  0.57295500  0.57424400  0.48687600  1
  O  O36  1  0.57424400  0.57295500  0.98687600  1
  O  O37  1  0.42704500  0.42575600  0.51312400  1
  O  O38  1  0.85374300  0.23965200  0.07763100  1
  O  O39  1  0.76034800  0.14625700  0.42236900  1
  O  O40  1  0.14625700  0.76034800  0.92236900  1
  O  O41  1  0.23965200  0.85374300  0.57763100  1
loop_
_geom_bond_atom_site_label_1
_geom_bond_atom_site_label_2
_geom_bond_distance
_geom_bond_site_symmetry_2
Ca0 O38 2.347429 1_555
Ca0 O30 2.391369 1_555
Ca0 O36 2.416435 1_554
Ca0 O26 2.506745 1_554
Ca0 O14 2.523544 1_654
Ca0 O17 2.532232 1_555
Ca0 O10 2.652313 1_554
Ca1 O39 2.347429 1_555
Ca1 O31 2.391369 1_555
Ca1 O37 2.416435 1_555
Ca1 O27 2.506745 1_555
Ca1 O15 2.523544 1_545
Ca1 O16 2.532232 1_555
Ca1 O11 2.652313 1_555
Ca2 O40 2.347429 1_555
Ca2 O32 2.391369 1_555
Ca2 O34 2.416435 1_556
Ca2 O24 2.506745 1_556
Ca2 O12 2.523544 1_456
Ca2 O19 2.532232 1_555
Ca2 O8 2.652313 1_556
Ca3 O41 2.347429 1_555
Ca3 O33 2.391369 1_555
Ca3 O35 2.416435 1_555
Ca3 O25 2.506745 1_555
Ca3 O13 2.523544 1_565
Ca3 O18 2.532232 1_555
Ca3 O9 2.652313 1_555
Al0 O3 1.753042 1_555
Al0 O4 1.777243 1_655
Al0 O32 1.780216 1_655
Al0 O15 1.782103 1_555
Al1 O2 1.753042 1_555
Al1 O5 1.777243 1_546
Al1 O33 1.780216 1_545
Al1 O14 1.782103 1_555
Al2 O1 1.753042 1_555
Al2 O6 1.777243 1_455
Al2 O30 1.780216 1_455
Al2 O13 1.782103 1_555
Al3 O0 1.753042 1_555
Al3 O7 1.777243 1_564
Al3 O31 1.780216 1_565
Al3 O12 1.782103 1_555
Al4 O20 1.752612 1_455
Al4 O16 1.766568 1_555
Al4 O24 1.766853 1_555
Al4 O8 1.770628 1_555
Al5 O21 1.752612 1_565
Al5 O17 1.766568 1_555
Al5 O25 1.766853 1_555
Al5 O9 1.770628 1_555
Al6 O22 1.752612 1_655
Al6 O18 1.766568 1_555
Al6 O26 1.766853 1_555
Al6 O10 1.770628 1_555
Al7 O23 1.752603 1_545
Al7 O19 1.766570 1_555
Al7 O27 1.766849 1_555
Al7 O11 1.770637 1_555
H0 O38 0.991956 1_555
H1 O39 0.991956 1_555
H2 O40 0.991956 1_555
H3 O41 0.991956 1_555
H4 O38 0.986877 1_555
H5 O39 0.986877 1_555
H6 O40 0.986877 1_555
H7 O41 0.986877 1_555
H8 O30 0.983151 1_555
H9 O31 0.983151 1_555
H10 O32 0.983151 1_555
H11 O33 0.983151 1_555
H12 O34 0.972694 1_555
H13 O35 0.972694 1_555
H14 O36 0.972694 1_555
H15 O37 0.972694 1_555
H16 O34 0.984948 1_555
H17 O35 0.984948 1_555
H18 O36 0.984948 1_555
H19 O37 0.984948 1_555
O0 Si0 1.628685 1_655
O1 Si1 1.628685 1_545
O2 Si2 1.628685 1_455
O3 Si3 1.628685 1_565
O4 Si0 1.642209 1_555
O5 Si1 1.642209 1_555
O6 Si2 1.642209 1_555
O7 Si3 1.642209 1_555
O8 Si0 1.632889 1_555
O9 Si1 1.632889 1_555
O10 Si2 1.632889 1_555
O11 Si3 1.632889 1_555
O12 Si7 1.645810 1_554
O13 Si6 1.645810 1_555
O14 Si5 1.645810 1_556
O15 Si4 1.645810 1_555
O16 Si6 1.651154 1_555
O17 Si7 1.651154 1_554
O18 Si4 1.651154 1_555
O19 Si5 1.651154 1_556
O20 Si4 1.623662 1_555
O21 Si5 1.623662 1_555
O22 Si6 1.623662 1_555
O23 Si7 1.623662 1_555
O24 Si5 1.641218 1_555
O25 Si4 1.641218 1_555
O26 Si7 1.641218 1_555
O27 Si6 1.641218 1_555
O28 Si1 1.659951 1_555
O28 Si0 1.659951 1_555
O29 Si2 1.659951 1_555
O29 Si3 1.659951 1_555
