# generated using pymatgen
data_Cs2Sb2SO5F6
_symmetry_space_group_name_H-M   'P 1'
_cell_length_a   9.17929600
_cell_length_b   9.17929600
_cell_length_c   14.86219800
_cell_angle_alpha   90.00000000
_cell_angle_beta   90.00000000
_cell_angle_gamma   90.00000000
_symmetry_Int_Tables_number   1
_chemical_formula_structural   Cs2Sb2SO5F6
_chemical_formula_sum   'Cs8 Sb8 S4 O20 F24'
_cell_volume   1252.28100165
_cell_formula_units_Z   4
loop_
 _symmetry_equiv_pos_site_id
 _symmetry_equiv_pos_as_xyz
  1  'x, y, z'
loop_
 _atom_site_type_symbol
 _atom_site_label
 _atom_site_symmetry_multiplicity
 _atom_site_fract_x
 _atom_site_fract_y
 _atom_site_fract_z
 _atom_site_occupancy
  Cs  Cs0  1  0.16008200  0.31639300  0.37220600  1
  Cs  Cs1  1  0.83991800  0.68360700  0.87220600  1
  Cs  Cs2  1  0.18360700  0.66008200  0.62220600  1
  Cs  Cs3  1  0.33991800  0.81639300  0.87779400  1
  Cs  Cs4  1  0.81639300  0.33991800  0.12220600  1
  Cs  Cs5  1  0.66008200  0.18360700  0.37779400  1
  Cs  Cs6  1  0.31639300  0.16008200  0.62779400  1
  Cs  Cs7  1  0.68360700  0.83991800  0.12779400  1
  Sb  Sb0  1  0.36563300  0.16845200  0.12384500  1
  Sb  Sb1  1  0.63436700  0.83154800  0.62384500  1
  Sb  Sb2  1  0.33154800  0.86563300  0.37384500  1
  Sb  Sb3  1  0.13436700  0.66845200  0.12615500  1
  Sb  Sb4  1  0.66845200  0.13436700  0.87384500  1
  Sb  Sb5  1  0.86563300  0.33154800  0.62615500  1
  Sb  Sb6  1  0.16845200  0.36563300  0.87615500  1
  Sb  Sb7  1  0.83154800  0.63436700  0.37615500  1
  S  S0  1  0.04129500  0.04129500  0.00000000  1
  S  S1  1  0.95870500  0.95870500  0.50000000  1
  S  S2  1  0.45870500  0.54129500  0.25000000  1
  S  S3  1  0.54129500  0.45870500  0.75000000  1
  O  O0  1  0.57202600  0.57202600  0.00000000  1
  O  O1  1  0.42797400  0.42797400  0.50000000  1
  O  O2  1  0.92797400  0.07202600  0.25000000  1
  O  O3  1  0.07202600  0.92797400  0.75000000  1
  O  O4  1  0.10165800  0.11742000  0.08198100  1
  O  O5  1  0.89834200  0.88258000  0.58198100  1
  O  O6  1  0.38258000  0.60165800  0.33198100  1
  O  O7  1  0.39834200  0.61742000  0.16801900  1
  O  O8  1  0.61742000  0.39834200  0.83198100  1
  O  O9  1  0.60165800  0.38258000  0.66801900  1
  O  O10  1  0.11742000  0.10165800  0.91801900  1
  O  O11  1  0.88258000  0.89834200  0.41801900  1
  O  O12  1  0.42996500  0.38232200  0.24618100  1
  O  O13  1  0.57003500  0.61767800  0.74618100  1
  O  O14  1  0.11767800  0.92996500  0.49618100  1
  O  O15  1  0.07003500  0.88232200  0.00381900  1
  O  O16  1  0.88232200  0.07003500  0.99618100  1
  O  O17  1  0.92996500  0.11767800  0.50381900  1
  O  O18  1  0.38232200  0.42996500  0.75381900  1
  O  O19  1  0.61767800  0.57003500  0.25381900  1
  F  F0  1  0.11483700  0.46956100  0.17471100  1
  F  F1  1  0.88516300  0.53043900  0.67471100  1
  F  F2  1  0.03043900  0.61483700  0.42471100  1
  F  F3  1  0.38516300  0.96956100  0.07528900  1
  F  F4  1  0.96956100  0.38516300  0.92471100  1
  F  F5  1  0.61483700  0.03043900  0.57528900  1
  F  F6  1  0.46956100  0.11483700  0.82528900  1
  F  F7  1  0.53043900  0.88516300  0.32528900  1
  F  F8  1  0.28754000  0.08868000  0.23657200  1
  F  F9  1  0.71246000  0.91132000  0.73657200  1
  F  F10  1  0.41132000  0.78754000  0.48657200  1
  F  F11  1  0.21246000  0.58868000  0.01342800  1
  F  F12  1  0.58868000  0.21246000  0.98657200  1
  F  F13  1  0.78754000  0.41132000  0.51342800  1
  F  F14  1  0.08868000  0.28754000  0.76342800  1
  F  F15  1  0.91132000  0.71246000  0.26342800  1
  F  F16  1  0.36776200  0.06447600  0.42450700  1
  F  F17  1  0.63223800  0.93552400  0.92450700  1
  F  F18  1  0.43552400  0.86776200  0.67450700  1
  F  F19  1  0.13223800  0.56447600  0.82549300  1
  F  F20  1  0.56447600  0.13223800  0.17450700  1
  F  F21  1  0.86776200  0.43552400  0.32549300  1
  F  F22  1  0.06447600  0.36776200  0.57549300  1
  F  F23  1  0.93552400  0.63223800  0.07549300  1
loop_
_geom_bond_atom_site_label_1
_geom_bond_atom_site_label_2
_geom_bond_distance
_geom_bond_site_symmetry_2
Cs0 F21 2.979576 1_455
Cs0 F2 3.087069 1_555
Cs0 F16 3.096077 1_555
Cs0 F8 3.130734 1_555
Cs0 O12 3.164111 1_555
Cs0 F22 3.181308 1_555
Cs0 O1 3.271601 1_555
Cs0 F0 3.280962 1_555
Cs0 O6 3.374227 1_555
Cs0 O17 3.408113 1_455
Cs0 O2 3.587442 1_455
Cs1 F19 2.979576 1_655
Cs1 F4 3.087069 1_555
Cs1 F17 3.096077 1_555
Cs1 F9 3.130734 1_555
Cs1 O13 3.164111 1_555
Cs1 F23 3.181308 1_556
Cs1 O0 3.271601 1_556
Cs1 F1 3.280962 1_555
Cs1 O8 3.374227 1_555
Cs1 O15 3.408113 1_656
Cs1 O3 3.587442 1_655
Cs2 F22 2.979576 1_555
Cs2 F1 3.087069 1_455
Cs2 F18 3.096077 1_555
Cs2 F10 3.130734 1_555
Cs2 O14 3.164111 1_555
Cs2 F19 3.181308 1_555
Cs2 O3 3.271601 1_555
Cs2 F2 3.280962 1_555
Cs2 O5 3.374227 1_455
Cs2 O18 3.408113 1_555
Cs2 O1 3.587442 1_555
Cs3 F17 2.979576 1_555
Cs3 F6 3.087069 1_565
Cs3 F19 3.096077 1_555
Cs3 F11 3.130734 1_556
Cs3 O15 3.164111 1_556
Cs3 F18 3.181308 1_555
Cs3 O3 3.271601 1_555
Cs3 F3 3.280962 1_556
Cs3 O10 3.374227 1_565
Cs3 O13 3.408113 1_555
Cs3 O0 3.587442 1_556
Cs4 F23 2.979576 1_555
Cs4 F0 3.087069 1_655
Cs4 F20 3.096077 1_555
Cs4 F12 3.130734 1_554
Cs4 O16 3.164111 1_554
Cs4 F21 3.181308 1_555
Cs4 O2 3.271601 1_555
Cs4 F4 3.280962 1_554
Cs4 O4 3.374227 1_655
Cs4 O19 3.408113 1_555
Cs4 O0 3.587442 1_555
Cs5 F16 2.979576 1_555
Cs5 F7 3.087069 1_545
Cs5 F21 3.096077 1_555
Cs5 F13 3.130734 1_555
Cs5 O17 3.164111 1_555
Cs5 F20 3.181308 1_555
Cs5 O2 3.271601 1_555
Cs5 F5 3.280962 1_555
Cs5 O11 3.374227 1_545
Cs5 O12 3.408113 1_555
Cs5 O1 3.587442 1_555
Cs6 F18 2.979576 1_545
Cs6 F5 3.087069 1_555
Cs6 F22 3.096077 1_555
Cs6 F14 3.130734 1_555
Cs6 O18 3.164111 1_555
Cs6 F16 3.181308 1_555
Cs6 O1 3.271601 1_555
Cs6 F6 3.280962 1_555
Cs6 O9 3.374227 1_555
Cs6 O14 3.408113 1_545
Cs6 O3 3.587442 1_545
Cs7 F20 2.979576 1_565
Cs7 F3 3.087069 1_555
Cs7 F23 3.096077 1_555
Cs7 F15 3.130734 1_555
Cs7 O19 3.164111 1_555
Cs7 F17 3.181308 1_554
Cs7 O0 3.271601 1_555
Cs7 F7 3.280962 1_555
Cs7 O7 3.374227 1_555
Cs7 O16 3.408113 1_564
Cs7 O2 3.587442 1_565
O4 S0 1.509915 1_555
O5 S1 1.509915 1_555
O6 S2 1.509915 1_555
O7 S2 1.509915 1_555
O8 S3 1.509915 1_555
O9 S3 1.509915 1_555
O10 S0 1.509915 1_556
O11 S1 1.509915 1_555
O12 S2 1.484001 1_555
O13 S3 1.484001 1_555
O14 S1 1.484001 1_455
O15 S0 1.484001 1_565
O16 S0 1.484001 1_656
O17 S1 1.484001 1_545
O18 S3 1.484001 1_555
O19 S2 1.484001 1_555
F0 Sb3 1.971299 1_555
F1 Sb5 1.971299 1_555
F2 Sb7 1.971299 1_455
F3 Sb0 1.971299 1_565
F4 Sb6 1.971299 1_655
F5 Sb1 1.971299 1_545
F6 Sb4 1.971299 1_555
F7 Sb2 1.971299 1_555
F8 Sb0 1.963904 1_555
F9 Sb1 1.963904 1_555
F10 Sb2 1.963904 1_555
F11 Sb3 1.963904 1_555
F12 Sb4 1.963904 1_555
F13 Sb5 1.963904 1_555
F14 Sb6 1.963904 1_555
F15 Sb7 1.963904 1_555
F16 Sb2 2.002231 1_545
F17 Sb4 2.002231 1_565
F18 Sb1 2.002231 1_555
F19 Sb6 2.002231 1_555
F20 Sb0 2.002231 1_555
F21 Sb7 2.002231 1_555
F22 Sb5 2.002231 1_455
F23 Sb3 2.002231 1_655
