# generated using pymatgen
data_MgV(GeO3)2
_symmetry_space_group_name_H-M   'P 1'
_cell_length_a   5.27278209
_cell_length_b   6.74082178
_cell_length_c   6.74102907
_cell_angle_alpha   86.57382772
_cell_angle_beta   82.21797340
_cell_angle_gamma   82.22004165
_symmetry_Int_Tables_number   1
_chemical_formula_structural   MgV(GeO3)2
_chemical_formula_sum   'Mg2 V2 Ge4 O12'
_cell_volume   234.99433525
_cell_formula_units_Z   2
loop_
 _symmetry_equiv_pos_site_id
 _symmetry_equiv_pos_as_xyz
  1  'x, y, z'
loop_
 _atom_site_type_symbol
 _atom_site_label
 _atom_site_symmetry_multiplicity
 _atom_site_fract_x
 _atom_site_fract_y
 _atom_site_fract_z
 _atom_site_occupancy
  Mg  Mg0  1  0.75000100  0.26998000  0.73001800  1
  Mg  Mg1  1  0.24999700  0.73001000  0.26999300  1
  V  V0  1  0.25000000  0.09280400  0.90719500  1
  V  V1  1  0.75000100  0.90719100  0.09280700  1
  Ge  Ge0  1  0.78872400  0.39532500  0.20862000  1
  Ge  Ge1  1  0.71128000  0.79138300  0.60467200  1
  Ge  Ge2  1  0.21128000  0.60467200  0.79137700  1
  Ge  Ge3  1  0.28872000  0.20862000  0.39532800  1
  O  O0  1  0.59859800  0.28973000  0.42888500  1
  O  O1  1  0.90140400  0.57112000  0.71026400  1
  O  O2  1  0.40140200  0.71027800  0.57111600  1
  O  O3  1  0.09859700  0.42888900  0.28973700  1
  O  O4  1  0.11501500  0.14766000  0.62210700  1
  O  O5  1  0.38499100  0.37789800  0.85232700  1
  O  O6  1  0.88498600  0.85233300  0.37787800  1
  O  O7  1  0.61500500  0.62212000  0.14766900  1
  O  O8  1  0.86000400  0.21323400  0.02356400  1
  O  O9  1  0.63999100  0.97643700  0.78676500  1
  O  O10  1  0.13999300  0.78676600  0.97643700  1
  O  O11  1  0.36001000  0.02355000  0.21324200  1
loop_
_geom_bond_atom_site_label_1
_geom_bond_atom_site_label_2
_geom_bond_distance
_geom_bond_site_symmetry_2
Mg0 O5 2.043535 1_555
Mg0 O4 2.043564 1_655
Mg0 O9 2.135023 1_545
Mg0 O8 2.135107 1_556
Mg0 O1 2.270088 1_555
Mg0 O0 2.270131 1_555
Mg1 O7 2.043509 1_555
Mg1 O6 2.043513 1_455
Mg1 O11 2.135011 1_565
Mg1 O10 2.135179 1_554
Mg1 O3 2.269963 1_555
Mg1 O2 2.270078 1_555
Ge0 O7 1.729954 1_555
Ge0 O8 1.770649 1_555
Ge0 O3 1.837557 1_655
Ge0 O0 1.838499 1_555
Ge1 O6 1.729914 1_555
Ge1 O9 1.770649 1_555
Ge1 O2 1.837518 1_555
Ge1 O1 1.838496 1_555
Ge2 O5 1.729820 1_555
Ge2 O10 1.770684 1_555
Ge2 O1 1.837540 1_455
Ge2 O2 1.838500 1_555
Ge3 O4 1.729848 1_555
Ge3 O11 1.770693 1_555
Ge3 O0 1.837535 1_555
Ge3 O3 1.838519 1_555
O4 V0 2.133262 1_555
O5 V0 2.133238 1_555
O6 V1 2.133156 1_555
O7 V1 2.133101 1_555
O8 V0 2.165714 1_654
O8 V1 2.223901 1_545
O9 V0 2.165688 1_565
O9 V1 2.223993 1_556
O10 V1 2.165689 1_456
O10 V0 2.223876 1_565
O11 V1 2.165683 1_545
O11 V0 2.224031 1_554
