# generated using pymatgen
data_Ti2N2O
_symmetry_space_group_name_H-M   'P 1'
_cell_length_a   8.21563900
_cell_length_b   8.21920064
_cell_length_c   8.22800939
_cell_angle_alpha   109.59115730
_cell_angle_beta   109.43630530
_cell_angle_gamma   109.31135197
_symmetry_Int_Tables_number   1
_chemical_formula_structural   Ti2N2O
_chemical_formula_sum   'Ti16 N16 O8'
_cell_volume   428.09719792
_cell_formula_units_Z   8
loop_
 _symmetry_equiv_pos_site_id
 _symmetry_equiv_pos_as_xyz
  1  'x, y, z'
loop_
 _atom_site_type_symbol
 _atom_site_label
 _atom_site_symmetry_multiplicity
 _atom_site_fract_x
 _atom_site_fract_y
 _atom_site_fract_z
 _atom_site_occupancy
  Ti  Ti0  1  0.74263800  0.20459800  0.04243300  1
  Ti  Ti1  1  0.99008200  0.98940800  0.00040500  1
  Ti  Ti2  1  0.98773200  0.49318200  0.49869600  1
  Ti  Ti3  1  0.50242200  0.49649200  0.98840000  1
  Ti  Ti4  1  0.29821200  0.04851000  0.24290900  1
  Ti  Ti5  1  0.20232400  0.45228000  0.75126200  1
  Ti  Ti6  1  0.03692300  0.73728300  0.71419900  1
  Ti  Ti7  1  0.55369100  0.76772400  0.20400600  1
  Ti  Ti8  1  0.74235900  0.70676500  0.54957300  1
  Ti  Ti9  1  0.24720900  0.29067200  0.46279800  1
  Ti  Ti10  1  0.45852700  0.25354800  0.78548100  1
  Ti  Ti11  1  0.96974000  0.25253800  0.29712100  1
  Ti  Ti12  1  0.50400000  0.99290900  0.51212100  1
  Ti  Ti13  1  0.79492300  0.54574400  0.24993500  1
  Ti  Ti14  1  0.71086800  0.96011000  0.74568300  1
  Ti  Ti15  1  0.24543900  0.78563800  0.95153200  1
  N  N0  1  0.48945600  0.95022900  0.27458100  1
  N  N1  1  0.22477200  0.26315200  0.22746900  1
  N  N2  1  0.76516200  0.77544100  0.27319800  1
  N  N3  1  0.95263600  0.46278100  0.77389300  1
  N  N4  1  0.23505100  0.22544500  0.72393800  1
  N  N5  1  0.73676700  0.96303100  0.48780000  1
  N  N6  1  0.54999800  0.27592400  0.99036000  1
  N  N7  1  0.05113700  0.54151800  0.22491900  1
  N  N8  1  0.99337100  0.76809900  0.95853200  1
  N  N9  1  0.77375500  0.73131700  0.77587100  1
  N  N10  1  0.96186200  0.22732600  0.55192500  1
  N  N11  1  0.45664000  0.51139700  0.76757000  1
  N  N12  1  0.27751200  0.72563400  0.73384400  1
  N  N13  1  0.77751400  0.01201100  0.95039100  1
  N  N14  1  0.72600200  0.45139300  0.54018500  1
  N  N15  1  0.50627400  0.04676000  0.72735900  1
  O  O0  1  0.27618600  0.54741100  0.45969100  1
  O  O1  1  0.22362900  0.99237900  0.05454500  1
  O  O2  1  0.72559300  0.27797600  0.26292000  1
  O  O3  1  0.53699500  0.49026100  0.23934500  1
  O  O4  1  0.04512500  0.77739100  0.44856500  1
  O  O5  1  0.00852200  0.23717400  0.03967600  1
  O  O6  1  0.26598000  0.04151100  0.50513900  1
  O  O7  1  0.45297500  0.72703900  0.01173100  1
loop_
_geom_bond_atom_site_label_1
_geom_bond_atom_site_label_2
_geom_bond_distance
_geom_bond_site_symmetry_2
Ti0 Ti11 2.094223 1_555
Ti2 Ti6 1.983386 1_655
Ti6 Ti8 2.223360 1_455
Ti11 Ti2 2.031825 1_555
Ti11 Ti9 2.079865 1_655
Ti15 Ti6 1.925838 1_555
N0 Ti7 1.734711 1_555
N0 Ti12 1.820549 1_555
N0 Ti4 1.974134 1_565
N0 Ti15 2.272186 1_554
N1 Ti9 1.809843 1_555
N1 O5 1.813952 1_555
N1 Ti1 2.045684 1_445
N1 Ti4 2.072640 1_555
N1 Ti11 2.331931 1_455
N2 Ti7 1.609728 1_555
N2 Ti13 1.937732 1_555
N3 Ti5 2.147250 1_655
N3 Ti6 2.397351 1_655
N3 Ti15 2.408684 1_655
N3 Ti2 2.457441 1_555
N4 Ti10 1.644078 1_555
N4 Ti5 1.920813 1_555
N5 Ti7 1.960517 1_555
N5 Ti12 2.071156 1_555
N5 Ti14 2.208939 1_555
N5 Ti8 2.337381 1_555
N6 Ti10 1.515879 1_555
N6 Ti0 1.833819 1_556
N6 Ti3 1.980833 1_555
N6 Ti13 2.130902 1_556
N7 Ti13 2.192339 1_455
N7 Ti11 2.569387 1_455
N7 Ti2 2.597650 1_455
N8 Ti1 1.745441 1_556
N8 N9 1.770729 1_555
N8 O1 1.822964 1_656
N8 Ti15 2.049444 1_655
N8 Ti6 2.104989 1_655
N9 Ti8 1.722845 1_555
N9 Ti1 1.940315 1_556
N9 Ti14 2.176080 1_555
N9 Ti6 2.368811 1_655
N10 Ti5 1.845403 1_655
N10 Ti11 2.194390 1_555
N10 Ti2 2.325580 1_555
N11 Ti3 1.784057 1_555
N11 Ti5 1.928157 1_555
N11 Ti9 2.133823 1_555
N11 Ti10 2.177867 1_555
N12 Ti15 1.824418 1_555
N12 Ti6 1.965994 1_555
N12 Ti2 2.123365 1_455
N12 Ti5 2.192470 1_555
N13 Ti14 1.438289 1_545
N13 Ti0 1.673835 1_556
N13 Ti1 1.743927 1_546
N13 O5 1.844959 1_656
N13 Ti11 2.386564 1_556
N14 Ti8 2.031610 1_555
N14 Ti2 2.221907 1_555
N14 Ti6 2.331595 1_655
N15 Ti12 1.667175 1_545
N15 Ti10 1.814405 1_555
N15 Ti14 2.012560 1_545
N15 Ti0 2.214196 1_556
O0 Ti9 2.053824 1_555
O0 Ti11 2.355986 1_455
O0 Ti2 2.412725 1_455
O1 Ti4 1.300718 1_565
O1 Ti15 1.724688 1_554
O1 Ti1 1.809273 1_455
O1 Ti6 2.380683 1_554
O2 Ti0 1.779255 1_555
O2 Ti2 1.982199 1_555
O2 Ti11 2.021735 1_555
O2 Ti13 2.132747 1_555
O3 Ti13 1.979199 1_555
O3 Ti3 2.009187 1_554
O3 Ti8 2.151919 1_555
O3 Ti7 2.359764 1_555
O4 Ti13 1.900098 1_455
O4 Ti6 2.335966 1_555
O4 Ti2 2.428234 1_455
O5 Ti1 1.896453 1_445
O5 Ti0 2.119918 1_455
O5 Ti11 2.213795 1_455
O5 Ti14 2.388135 1_444
O6 Ti10 1.978044 1_555
O6 Ti12 2.108101 1_545
O6 Ti9 2.233975 1_555
O6 Ti4 2.276447 1_555
O7 Ti7 1.374904 1_555
O7 Ti15 1.877647 1_554
O7 Ti3 2.027232 1_554
O7 Ti5 2.162159 1_554
