# generated using pymatgen
data_SrMg6AlO8
_symmetry_space_group_name_H-M   'P 1'
_cell_length_a   8.75672482
_cell_length_b   4.52701762
_cell_length_c   4.52701762
_cell_angle_alpha   90.00000000
_cell_angle_beta   90.00000000
_cell_angle_gamma   90.00000000
_symmetry_Int_Tables_number   1
_chemical_formula_structural   SrMg6AlO8
_chemical_formula_sum   'Sr1 Mg6 Al1 O8'
_cell_volume   179.45934236
_cell_formula_units_Z   1
loop_
 _symmetry_equiv_pos_site_id
 _symmetry_equiv_pos_as_xyz
  1  'x, y, z'
loop_
 _atom_site_type_symbol
 _atom_site_label
 _atom_site_symmetry_multiplicity
 _atom_site_fract_x
 _atom_site_fract_y
 _atom_site_fract_z
 _atom_site_occupancy
  Sr  Sr0  1  0.00000000  0.50000000  0.50000000  1
  Mg  Mg0  1  0.50000000  0.00000000  0.00000000  1
  Mg  Mg1  1  0.50000000  0.50000000  0.50000000  1
  Mg  Mg2  1  0.26219067  0.00000000  0.50000000  1
  Mg  Mg3  1  0.73780933  0.00000000  0.50000000  1
  Mg  Mg4  1  0.26219067  0.50000000  -0.00000000  1
  Mg  Mg5  1  0.73780933  0.50000000  0.00000000  1
  Al  Al0  1  0.00000000  0.00000000  0.00000000  1
  O  O0  1  0.24646416  -0.00000000  -0.00000000  1
  O  O1  1  0.75353584  0.00000000  0.00000000  1
  O  O2  1  0.27336642  0.50000000  0.50000000  1
  O  O3  1  0.72663358  0.50000000  0.50000000  1
  O  O4  1  0.00000000  0.00000000  0.50000000  1
  O  O5  1  0.50000000  0.00000000  0.50000000  1
  O  O6  1  0.00000000  0.50000000  0.00000000  1
  O  O7  1  0.50000000  0.50000000  0.00000000  1
loop_
_geom_bond_atom_site_label_1
_geom_bond_atom_site_label_2
_geom_bond_distance
_geom_bond_site_symmetry_2
Mg0 O0 2.220144 1_555
Mg0 O1 2.220144 1_555
Mg0 O5 2.263509 1_554
Mg0 O5 2.263509 1_555
Mg0 O7 2.263509 1_545
Mg0 O7 2.263509 1_555
Mg1 O2 1.984568 1_555
Mg1 O3 1.984568 1_555
Mg1 O7 2.263509 1_556
Mg1 O5 2.263509 1_555
Mg1 O5 2.263509 1_565
Mg1 O7 2.263509 1_555
Mg2 O5 2.082431 1_555
Mg2 O2 2.265623 1_555
Mg2 O2 2.265623 1_545
Mg2 O0 2.267694 1_555
Mg2 O0 2.267694 1_556
Mg2 O4 2.295932 1_555
Mg3 O5 2.082431 1_555
Mg3 O3 2.265623 1_545
Mg3 O3 2.265623 1_555
Mg3 O1 2.267694 1_555
Mg3 O1 2.267694 1_556
Mg3 O4 2.295932 1_655
Mg4 O7 2.082431 1_555
Mg4 O2 2.265623 1_554
Mg4 O2 2.265623 1_555
Mg4 O0 2.267694 1_565
Mg4 O0 2.267694 1_555
Mg4 O6 2.295932 1_555
Mg5 O7 2.082431 1_555
Mg5 O3 2.265623 1_555
Mg5 O3 2.265623 1_554
Mg5 O1 2.267694 1_555
Mg5 O1 2.267694 1_565
Mg5 O6 2.295932 1_655
Al0 O1 2.158219 1_455
Al0 O0 2.158219 1_555
Al0 O6 2.263509 1_545
Al0 O6 2.263509 1_555
Al0 O4 2.263509 1_555
Al0 O4 2.263509 1_554
O2 Sr0 2.393795 1_555
O3 Sr0 2.393795 1_655
O4 Sr0 2.263509 1_555
O4 Sr0 2.263509 1_545
O6 Sr0 2.263509 1_555
O6 Sr0 2.263509 1_554
