# generated using pymatgen
data_Ba3Fe10SnO20
_symmetry_space_group_name_H-M   'P 1'
_cell_length_a   10.10458708
_cell_length_b   10.10458708
_cell_length_c   5.30428938
_cell_angle_alpha   75.67640998
_cell_angle_beta   75.67640998
_cell_angle_gamma   73.08995343
_symmetry_Int_Tables_number   1
_chemical_formula_structural   Ba3Fe10SnO20
_chemical_formula_sum   'Ba3 Fe10 Sn1 O20'
_cell_volume   492.98525681
_cell_formula_units_Z   1
loop_
 _symmetry_equiv_pos_site_id
 _symmetry_equiv_pos_as_xyz
  1  'x, y, z'
loop_
 _atom_site_type_symbol
 _atom_site_label
 _atom_site_symmetry_multiplicity
 _atom_site_fract_x
 _atom_site_fract_y
 _atom_site_fract_z
 _atom_site_occupancy
  Ba  Ba0  1  0.50000000  0.50000000  0.50000000  1
  Ba  Ba1  1  0.22151700  0.22151700  0.76454500  1
  Ba  Ba2  1  0.77848300  0.77848300  0.23545500  1
  Fe  Fe0  1  0.08044800  0.64747700  0.66061900  1
  Fe  Fe1  1  0.64747700  0.08044800  0.66061900  1
  Fe  Fe2  1  0.91955200  0.35252300  0.33938100  1
  Fe  Fe3  1  0.35252300  0.91955200  0.33938100  1
  Fe  Fe4  1  0.21728100  0.49662100  0.15187900  1
  Fe  Fe5  1  0.49662100  0.21728100  0.15187900  1
  Fe  Fe6  1  0.78271900  0.50337900  0.84812100  1
  Fe  Fe7  1  0.50337900  0.78271900  0.84812100  1
  Fe  Fe8  1  0.87060500  0.12939500  0.00000000  1
  Fe  Fe9  1  0.12939500  0.87060500  0.00000000  1
  Sn  Sn0  1  0.00000000  0.00000000  0.50000000  1
  O  O0  1  0.10095700  0.37710500  0.17458600  1
  O  O1  1  0.37710500  0.10095700  0.17458600  1
  O  O2  1  0.89904300  0.62289500  0.82541400  1
  O  O3  1  0.62289500  0.89904300  0.82541400  1
  O  O4  1  0.16212500  0.67857800  0.92690400  1
  O  O5  1  0.67857800  0.16212500  0.92690400  1
  O  O6  1  0.83787500  0.32142200  0.07309600  1
  O  O7  1  0.32142200  0.83787500  0.07309600  1
  O  O8  1  0.06278200  0.06278200  0.09823400  1
  O  O9  1  0.93721800  0.93721800  0.90176600  1
  O  O10  1  0.21782000  0.50064900  0.50999600  1
  O  O11  1  0.50064900  0.21782000  0.50999600  1
  O  O12  1  0.78218000  0.49935100  0.49000400  1
  O  O13  1  0.49935100  0.78218000  0.49000400  1
  O  O14  1  0.40058700  0.40058700  0.00551200  1
  O  O15  1  0.59941300  0.59941300  0.99448800  1
  O  O16  1  0.95109700  0.19438100  0.62168700  1
  O  O17  1  0.19438100  0.95109700  0.62168700  1
  O  O18  1  0.04890300  0.80561900  0.37831300  1
  O  O19  1  0.80561900  0.04890300  0.37831300  1
loop_
_geom_bond_atom_site_label_1
_geom_bond_atom_site_label_2
_geom_bond_distance
_geom_bond_site_symmetry_2
Ba0 O14 2.670111 1_556
Ba0 O15 2.670111 1_554
Ba0 O13 2.836781 1_555
Ba0 O11 2.836781 1_555
Ba0 O12 2.836781 1_555
Ba0 O10 2.836781 1_555
Ba1 O8 2.639197 1_556
Ba1 O10 2.803406 1_555
Ba1 O11 2.803406 1_555
Ba1 O0 2.820100 1_556
Ba1 O1 2.820100 1_556
Ba1 O16 3.111113 1_455
Ba1 O17 3.111113 1_545
Ba2 O9 2.639197 1_554
Ba2 O12 2.803406 1_555
Ba2 O13 2.803406 1_555
Ba2 O2 2.820100 1_554
Ba2 O3 2.820100 1_554
Ba2 O19 3.111113 1_565
Ba2 O18 3.111113 1_655
Fe0 O2 1.884248 1_455
Fe0 O10 1.898949 1_555
Fe0 O18 1.911354 1_555
Fe0 O4 1.929308 1_555
Fe1 O3 1.884248 1_545
Fe1 O11 1.898949 1_555
Fe1 O19 1.911354 1_555
Fe1 O5 1.929308 1_555
Fe2 O0 1.884248 1_655
Fe2 O12 1.898949 1_555
Fe2 O16 1.911354 1_555
Fe2 O6 1.929308 1_555
Fe3 O1 1.884248 1_565
Fe3 O13 1.898949 1_555
Fe3 O17 1.911354 1_555
Fe3 O7 1.929308 1_555
Fe4 O0 1.881032 1_555
Fe4 O14 1.894940 1_555
Fe4 O10 1.911414 1_555
Fe4 O4 1.939707 1_554
Fe5 O1 1.881032 1_555
Fe5 O14 1.894940 1_555
Fe5 O11 1.911414 1_555
Fe5 O5 1.939707 1_554
Fe6 O2 1.881032 1_555
Fe6 O15 1.894940 1_555
Fe6 O12 1.911414 1_555
Fe6 O6 1.939707 1_556
Fe7 O3 1.881032 1_555
Fe7 O15 1.894940 1_555
Fe7 O13 1.911414 1_555
Fe7 O7 1.939707 1_556
Fe8 O5 1.990015 1_554
Fe8 O6 1.990015 1_555
Fe8 O16 1.992644 1_554
Fe8 O19 1.992644 1_555
Fe8 O8 2.015481 1_655
Fe8 O9 2.015481 1_544
Fe9 O4 1.990015 1_554
Fe9 O7 1.990015 1_555
Fe9 O17 1.992644 1_554
Fe9 O18 1.992644 1_555
Fe9 O8 2.015481 1_565
Fe9 O9 2.015481 1_454
O8 Sn0 2.059774 1_555
O9 Sn0 2.059774 1_665
O16 Sn0 2.103213 1_655
O17 Sn0 2.103213 1_565
O18 Sn0 2.103213 1_565
O19 Sn0 2.103213 1_655
