# generated using pymatgen
data_USbRu
_symmetry_space_group_name_H-M   'P 1'
_cell_length_a   4.01301610
_cell_length_b   7.37937509
_cell_length_c   7.38068434
_cell_angle_alpha   119.99471546
_cell_angle_beta   90.00000000
_cell_angle_gamma   90.00000000
_symmetry_Int_Tables_number   1
_chemical_formula_structural   USbRu
_chemical_formula_sum   'U3 Sb3 Ru3'
_cell_volume   189.29575506
_cell_formula_units_Z   3
loop_
 _symmetry_equiv_pos_site_id
 _symmetry_equiv_pos_as_xyz
  1  'x, y, z'
loop_
 _atom_site_type_symbol
 _atom_site_label
 _atom_site_symmetry_multiplicity
 _atom_site_fract_x
 _atom_site_fract_y
 _atom_site_fract_z
 _atom_site_occupancy
  U  U0  1  0.50000000  0.57784709  0.00000402  1
  U  U1  1  0.50000000  0.42211507  0.42196157  1
  U  U2  1  0.50000000  0.00017008  0.57806281  1
  Sb  Sb0  1  0.00000000  0.25471788  -0.00000740  1
  Sb  Sb1  1  -0.00000000  0.74517033  0.74518969  1
  Sb  Sb2  1  -0.00000000  -0.00005266  0.25479898  1
  Ru  Ru0  1  -0.00000000  0.33328523  0.66660534  1
  Ru  Ru1  1  -0.00000000  0.66665189  0.33338692  1
  Ru  Ru2  1  0.50000000  -0.00000592  -0.00000092  1
loop_
_geom_bond_atom_site_label_1
_geom_bond_atom_site_label_2
_geom_bond_distance
_geom_bond_site_symmetry_2
Sb0 U0 3.116356 1_555
Sb0 U0 3.116356 1_455
Sb0 U2 3.376925 1_454
Sb0 U2 3.376925 1_554
Sb0 U1 3.377134 1_555
Sb0 U1 3.377134 1_455
Sb1 U1 3.116767 1_555
Sb1 U1 3.116767 1_455
Sb1 U2 3.377771 1_565
Sb1 U2 3.377771 1_465
Sb1 U0 3.377798 1_456
Sb1 U0 3.377798 1_556
Sb2 U2 3.116844 1_455
Sb2 U2 3.116844 1_555
Sb2 U0 3.377586 1_545
Sb2 U0 3.377586 1_445
Sb2 U1 3.377954 1_455
Sb2 U1 3.377954 1_555
Ru0 Sb1 2.795008 1_555
Ru0 Sb2 2.795271 1_555
Ru0 Sb0 2.795928 1_556
Ru0 U2 2.981547 1_455
Ru0 U2 2.981547 1_555
Ru0 U0 2.982950 1_456
Ru0 U0 2.982950 1_556
Ru0 U1 2.983206 1_555
Ru0 U1 2.983206 1_455
Ru1 Sb2 2.794997 1_565
Ru1 Sb1 2.795139 1_555
Ru1 Sb0 2.795819 1_555
Ru1 U1 2.981490 1_455
Ru1 U1 2.981490 1_555
Ru1 U0 2.982921 1_555
Ru1 U0 2.982921 1_455
Ru1 U2 2.983407 1_565
Ru1 U2 2.983407 1_465
Ru2 Sb0 2.749445 1_655
Ru2 Sb0 2.749445 1_555
Ru2 Sb1 2.750113 1_544
Ru2 Sb1 2.750113 1_644
Ru2 Sb2 2.750158 1_655
Ru2 Sb2 2.750158 1_555
Ru2 U2 3.114828 1_554
Ru2 U1 3.114929 1_555
Ru2 U0 3.115199 1_545
