# generated using pymatgen
data_K3MnPCO7
_symmetry_space_group_name_H-M   'P 1'
_cell_length_a   7.04805000
_cell_length_b   5.67218100
_cell_length_c   9.76642896
_cell_angle_alpha   89.06013362
_cell_angle_beta   90.00000000
_cell_angle_gamma   90.00000000
_symmetry_Int_Tables_number   1
_chemical_formula_structural   K3MnPCO7
_chemical_formula_sum   'K6 Mn2 P2 C2 O14'
_cell_volume   390.38796382
_cell_formula_units_Z   2
loop_
 _symmetry_equiv_pos_site_id
 _symmetry_equiv_pos_as_xyz
  1  'x, y, z'
loop_
 _atom_site_type_symbol
 _atom_site_label
 _atom_site_symmetry_multiplicity
 _atom_site_fract_x
 _atom_site_fract_y
 _atom_site_fract_z
 _atom_site_occupancy
  K  K0  1  0.25000000  0.76208100  0.92126200  1
  K  K1  1  0.00871900  0.25861600  0.73072100  1
  K  K2  1  0.49128100  0.25861600  0.73072100  1
  K  K3  1  0.50871900  0.74138400  0.26927900  1
  K  K4  1  0.99128100  0.74138400  0.26927900  1
  K  K5  1  0.75000000  0.23791900  0.07873800  1
  Mn  Mn0  1  0.75000000  0.77490200  0.63617700  1
  Mn  Mn1  1  0.25000000  0.22509800  0.36382300  1
  P  P0  1  0.25000000  0.71477900  0.57754700  1
  P  P1  1  0.75000000  0.28522100  0.42245300  1
  C  C0  1  0.75000000  0.74162400  0.91778900  1
  C  C1  1  0.25000000  0.25837600  0.08221100  1
  O  O0  1  0.25000000  0.26720300  0.94926200  1
  O  O1  1  0.75000000  0.94393900  0.85188700  1
  O  O2  1  0.75000000  0.54920100  0.84631400  1
  O  O3  1  0.07047800  0.76089200  0.66709600  1
  O  O4  1  0.42952200  0.76089200  0.66709600  1
  O  O5  1  0.25000000  0.45046900  0.53359100  1
  O  O6  1  0.75000000  0.12428600  0.55273400  1
  O  O7  1  0.25000000  0.87571400  0.44726600  1
  O  O8  1  0.75000000  0.54953100  0.46640900  1
  O  O9  1  0.57047800  0.23910800  0.33290400  1
  O  O10  1  0.92952200  0.23910800  0.33290400  1
  O  O11  1  0.25000000  0.45079900  0.15368600  1
  O  O12  1  0.25000000  0.05606100  0.14811300  1
  O  O13  1  0.75000000  0.73279700  0.05073800  1
loop_
_geom_bond_atom_site_label_1
_geom_bond_atom_site_label_2
_geom_bond_distance
_geom_bond_site_symmetry_2
K0 O4 2.786272 1_555
K0 O3 2.786272 1_555
K0 O12 2.794696 1_566
K0 O0 2.815858 1_555
K0 O11 2.852843 1_556
K0 O0 2.882626 1_565
K1 O6 2.640210 1_455
K1 O2 2.716115 1_455
K1 O0 2.730056 1_555
K1 O5 2.777412 1_555
K1 O1 2.800349 1_445
K1 O3 2.933171 1_545
K1 O3 2.938421 1_555
K2 O6 2.640210 1_555
K2 O2 2.716115 1_555
K2 O0 2.730056 1_555
K2 O5 2.777412 1_555
K2 O1 2.800349 1_545
K2 O4 2.933171 1_545
K2 O4 2.938421 1_555
K3 O7 2.640210 1_555
K3 O11 2.716115 1_555
K3 O13 2.730056 1_555
K3 O8 2.777412 1_555
K3 O12 2.800349 1_565
K3 O9 2.933171 1_565
K3 O9 2.938421 1_555
K4 O7 2.640210 1_655
K4 O11 2.716115 1_655
K4 O13 2.730056 1_555
K4 O8 2.777412 1_555
K4 O12 2.800349 1_665
K4 O10 2.933171 1_565
K4 O10 2.938421 1_555
K5 O9 2.786272 1_555
K5 O10 2.786272 1_555
K5 O1 2.794696 1_544
K5 O13 2.815858 1_555
K5 O2 2.852843 1_554
K5 O13 2.882626 1_545
Mn0 O8 2.110155 1_555
Mn0 O6 2.130388 1_565
Mn0 O4 2.280053 1_555
Mn0 O3 2.280053 1_655
Mn0 O1 2.328913 1_555
Mn0 O2 2.400968 1_555
Mn1 O5 2.110155 1_555
Mn1 O7 2.130388 1_545
Mn1 O10 2.280053 1_455
Mn1 O9 2.280053 1_555
Mn1 O12 2.328913 1_555
Mn1 O11 2.400968 1_555
C0 O13 1.298581 1_556
C0 O2 1.305204 1_555
C0 O1 1.306498 1_555
C1 O0 1.298581 1_554
C1 O11 1.305204 1_555
C1 O12 1.306498 1_555
O3 P0 1.562604 1_555
O4 P0 1.562604 1_555
O5 P0 1.566221 1_555
O6 P1 1.553752 1_555
O7 P0 1.553752 1_555
O8 P1 1.566221 1_555
O9 P1 1.562604 1_555
O10 P1 1.562604 1_555
