# generated using pymatgen
data_MgH4(ClO4)2
_symmetry_space_group_name_H-M   'P 1'
_cell_length_a   5.82628500
_cell_length_b   6.67830771
_cell_length_c   9.94972121
_cell_angle_alpha   97.47671192
_cell_angle_beta   90.00000000
_cell_angle_gamma   90.00000000
_symmetry_Int_Tables_number   1
_chemical_formula_structural   MgH4(ClO4)2
_chemical_formula_sum   'Mg2 H8 Cl4 O16'
_cell_volume   383.84936966
_cell_formula_units_Z   2
loop_
 _symmetry_equiv_pos_site_id
 _symmetry_equiv_pos_as_xyz
  1  'x, y, z'
loop_
 _atom_site_type_symbol
 _atom_site_label
 _atom_site_symmetry_multiplicity
 _atom_site_fract_x
 _atom_site_fract_y
 _atom_site_fract_z
 _atom_site_occupancy
  Mg  Mg0  1  0.50000000  0.50000000  0.50000000  1
  Mg  Mg1  1  0.00000000  0.50000000  0.00000000  1
  H  H0  1  0.72421900  0.86617300  0.55036900  1
  H  H1  1  0.22421900  0.13382700  0.94963100  1
  H  H2  1  0.27578100  0.13382700  0.44963100  1
  H  H3  1  0.77578100  0.86617300  0.05036900  1
  H  H4  1  0.84377800  0.73900300  0.42652800  1
  H  H5  1  0.34377800  0.26099700  0.07347200  1
  H  H6  1  0.15622200  0.26099700  0.57347200  1
  H  H7  1  0.65622200  0.73900300  0.92652800  1
  Cl  Cl0  1  0.68405600  0.25773300  0.74001700  1
  Cl  Cl1  1  0.18405600  0.74226700  0.75998300  1
  Cl  Cl2  1  0.31594400  0.74226700  0.25998300  1
  Cl  Cl3  1  0.81594400  0.25773300  0.24001700  1
  O  O0  1  0.69509500  0.44779700  0.67082600  1
  O  O1  1  0.19509500  0.55220300  0.82917400  1
  O  O2  1  0.30490500  0.55220300  0.32917400  1
  O  O3  1  0.80490500  0.44779700  0.17082600  1
  O  O4  1  0.85424800  0.11220000  0.66977700  1
  O  O5  1  0.35424800  0.88780000  0.83022300  1
  O  O6  1  0.14575200  0.88780000  0.33022300  1
  O  O7  1  0.64575200  0.11220000  0.16977700  1
  O  O8  1  0.76521400  0.31813400  0.88334100  1
  O  O9  1  0.26521400  0.68186600  0.61665900  1
  O  O10  1  0.23478600  0.68186600  0.11665900  1
  O  O11  1  0.73478600  0.31813400  0.38334100  1
  O  O12  1  0.70279200  0.74981800  0.48075500  1
  O  O13  1  0.20279200  0.25018200  0.01924500  1
  O  O14  1  0.29720800  0.25018200  0.51924500  1
  O  O15  1  0.79720800  0.74981800  0.98075500  1
loop_
_geom_bond_atom_site_label_1
_geom_bond_atom_site_label_2
_geom_bond_distance
_geom_bond_site_symmetry_2
Mg0 O12 2.073459 1_555
Mg0 O14 2.073459 1_555
Mg0 O9 2.080091 1_555
Mg0 O11 2.080091 1_555
Mg0 O2 2.111083 1_555
Mg0 O0 2.111083 1_555
Mg1 O15 2.073459 1_454
Mg1 O13 2.073459 1_555
Mg1 O10 2.080091 1_555
Mg1 O8 2.080091 1_454
Mg1 O3 2.111083 1_455
Mg1 O1 2.111083 1_554
H0 O12 0.979326 1_555
H1 O13 0.979326 1_556
H2 O14 0.979326 1_555
H3 O15 0.979326 1_554
H4 O12 0.980266 1_555
H5 O13 0.980266 1_555
H6 O14 0.980266 1_555
H7 O15 0.980266 1_555
Cl0 O4 1.496499 1_555
Cl0 O8 1.506709 1_555
Cl0 O0 1.522046 1_555
Cl1 O5 1.496499 1_555
Cl1 O9 1.506709 1_555
Cl1 O1 1.522046 1_555
Cl2 O6 1.496499 1_555
Cl2 O10 1.506709 1_555
Cl2 O2 1.522046 1_555
Cl3 O7 1.496499 1_555
Cl3 O11 1.506709 1_555
Cl3 O3 1.522046 1_555
