# generated using pymatgen
data_LiMg30BO31
_symmetry_space_group_name_H-M   'P 1'
_cell_length_a   8.43952200
_cell_length_b   8.55027200
_cell_length_c   8.60013400
_cell_angle_alpha   90.00000000
_cell_angle_beta   90.00000000
_cell_angle_gamma   90.00000000
_symmetry_Int_Tables_number   1
_chemical_formula_structural   LiMg30BO31
_chemical_formula_sum   'Li1 Mg30 B1 O31'
_cell_volume   620.58746386
_cell_formula_units_Z   1
loop_
 _symmetry_equiv_pos_site_id
 _symmetry_equiv_pos_as_xyz
  1  'x, y, z'
loop_
 _atom_site_type_symbol
 _atom_site_label
 _atom_site_symmetry_multiplicity
 _atom_site_fract_x
 _atom_site_fract_y
 _atom_site_fract_z
 _atom_site_occupancy
  Li  Li0  1  0.00000000  0.00891000  0.00000000  1
  Mg  Mg0  1  0.00000000  0.99888300  0.50000000  1
  Mg  Mg1  1  0.50000000  0.99744600  0.50000000  1
  Mg  Mg2  1  0.00000000  0.49761200  0.00000000  1
  Mg  Mg3  1  0.50000000  0.49529500  0.00000000  1
  Mg  Mg4  1  0.00000000  0.50084300  0.50000000  1
  Mg  Mg5  1  0.50000000  0.50158500  0.50000000  1
  Mg  Mg6  1  0.25607500  0.99958800  0.25304200  1
  Mg  Mg7  1  0.74392500  0.99958800  0.25304200  1
  Mg  Mg8  1  0.25607500  0.99958800  0.74695800  1
  Mg  Mg9  1  0.74392500  0.99958800  0.74695800  1
  Mg  Mg10  1  0.24964200  0.49958400  0.24963800  1
  Mg  Mg11  1  0.75035800  0.49958400  0.24963800  1
  Mg  Mg12  1  0.24964200  0.49958400  0.75036200  1
  Mg  Mg13  1  0.75035800  0.49958400  0.75036200  1
  Mg  Mg14  1  0.26429800  0.74840900  0.00000000  1
  Mg  Mg15  1  0.73570200  0.74840900  0.00000000  1
  Mg  Mg16  1  0.25014100  0.74979200  0.50000000  1
  Mg  Mg17  1  0.74985900  0.74979200  0.50000000  1
  Mg  Mg18  1  0.24498700  0.25079500  0.00000000  1
  Mg  Mg19  1  0.75501300  0.25079500  0.00000000  1
  Mg  Mg20  1  0.24786000  0.24951800  0.50000000  1
  Mg  Mg21  1  0.75214000  0.24951800  0.50000000  1
  Mg  Mg22  1  0.00000000  0.75506800  0.24560000  1
  Mg  Mg23  1  0.50000000  0.75382300  0.24427100  1
  Mg  Mg24  1  0.00000000  0.75506800  0.75440000  1
  Mg  Mg25  1  0.50000000  0.75382300  0.75572900  1
  Mg  Mg26  1  0.00000000  0.24520100  0.24834800  1
  Mg  Mg27  1  0.50000000  0.24782000  0.26121200  1
  Mg  Mg28  1  0.00000000  0.24520100  0.75165200  1
  Mg  Mg29  1  0.50000000  0.24782000  0.73878800  1
  B  B0  1  0.50000000  0.06177100  0.00000000  1
  O  O0  1  0.50000000  0.72453600  0.00000000  1
  O  O1  1  0.00000000  0.74967800  0.50000000  1
  O  O2  1  0.50000000  0.74642000  0.50000000  1
  O  O3  1  0.00000000  0.24552200  0.00000000  1
  O  O4  1  0.50000000  0.23349200  0.00000000  1
  O  O5  1  0.00000000  0.24998900  0.50000000  1
  O  O6  1  0.50000000  0.25355900  0.50000000  1
  O  O7  1  0.25136800  0.75162100  0.24762700  1
  O  O8  1  0.74863200  0.75162100  0.24762700  1
  O  O9  1  0.25136800  0.75162100  0.75237300  1
  O  O10  1  0.74863200  0.75162100  0.75237300  1
  O  O11  1  0.25026800  0.24749700  0.24741800  1
  O  O12  1  0.74973200  0.24749700  0.24741800  1
  O  O13  1  0.25026800  0.24749700  0.75258200  1
  O  O14  1  0.74973200  0.24749700  0.75258200  1
  O  O15  1  0.33752000  0.00712900  0.00000000  1
  O  O16  1  0.66248000  0.00712900  0.00000000  1
  O  O17  1  0.24670300  0.99987600  0.50000000  1
  O  O18  1  0.75329700  0.99987600  0.50000000  1
  O  O19  1  0.25060100  0.49253000  0.00000000  1
  O  O20  1  0.74939900  0.49253000  0.00000000  1
  O  O21  1  0.24931200  0.49950300  0.50000000  1
  O  O22  1  0.75068800  0.49950300  0.50000000  1
  O  O23  1  0.00000000  0.00030300  0.24617800  1
  O  O24  1  0.50000000  0.00338300  0.26798300  1
  O  O25  1  0.00000000  0.00030300  0.75382200  1
  O  O26  1  0.50000000  0.00338300  0.73201700  1
  O  O27  1  0.00000000  0.49904800  0.24933500  1
  O  O28  1  0.50000000  0.49345100  0.24942600  1
  O  O29  1  0.00000000  0.49904800  0.75066500  1
  O  O30  1  0.50000000  0.49345100  0.75057400  1
loop_
_geom_bond_atom_site_label_1
_geom_bond_atom_site_label_2
_geom_bond_distance
_geom_bond_site_symmetry_2
Li0 O3 2.023097 1_555
Li0 O23 2.118442 1_555
Li0 O25 2.118442 1_554
Mg0 O17 2.082073 1_555
Mg0 O18 2.082073 1_455
Mg0 O1 2.130771 1_555
Mg0 O5 2.147025 1_565
Mg0 O25 2.182937 1_565
Mg0 O23 2.182937 1_565
Mg1 O26 1.996023 1_565
Mg1 O24 1.996023 1_565
Mg1 O18 2.137807 1_555
Mg1 O17 2.137807 1_555
Mg1 O2 2.146341 1_555
Mg1 O6 2.189836 1_565
Mg2 O19 2.115399 1_555
Mg2 O20 2.115399 1_455
Mg2 O27 2.144350 1_555
Mg2 O29 2.144350 1_554
Mg2 O3 2.155438 1_555
Mg3 O0 1.960073 1_555
Mg3 O20 2.104941 1_555
Mg3 O19 2.104941 1_555
Mg3 O28 2.145155 1_555
Mg3 O30 2.145155 1_554
Mg3 O4 2.238487 1_555
Mg4 O21 2.104105 1_555
Mg4 O22 2.104105 1_455
Mg4 O1 2.127607 1_555
Mg4 O5 2.144870 1_555
Mg4 O29 2.155807 1_555
Mg4 O27 2.155807 1_555
Mg5 O2 2.093406 1_555
Mg5 O22 2.115762 1_555
Mg5 O21 2.115762 1_555
Mg5 O6 2.120690 1_555
Mg5 O30 2.156092 1_555
Mg5 O28 2.156092 1_555
Mg6 O24 2.062872 1_565
Mg6 O11 2.120807 1_565
Mg6 O7 2.121069 1_555
Mg6 O17 2.125346 1_555
Mg6 O23 2.161965 1_565
Mg6 O15 2.283077 1_565
Mg7 O24 2.062872 1_565
Mg7 O12 2.120807 1_565
Mg7 O8 2.121069 1_555
Mg7 O18 2.125346 1_555
Mg7 O23 2.161965 1_665
Mg7 O16 2.283077 1_565
Mg8 O26 2.062872 1_565
Mg8 O13 2.120807 1_565
Mg8 O9 2.121069 1_555
Mg8 O17 2.125346 1_555
Mg8 O25 2.161965 1_565
Mg8 O15 2.283077 1_566
Mg9 O26 2.062872 1_565
Mg9 O14 2.120807 1_565
Mg9 O10 2.121069 1_555
Mg9 O18 2.125346 1_555
Mg9 O25 2.161965 1_665
Mg9 O16 2.283077 1_566
Mg10 O27 2.106866 1_555
Mg10 O28 2.113553 1_555
Mg10 O19 2.147783 1_555
Mg10 O21 2.153149 1_555
Mg10 O7 2.155104 1_555
Mg10 O11 2.155503 1_555
Mg11 O27 2.106866 1_655
Mg11 O28 2.113553 1_555
Mg11 O20 2.147783 1_555
Mg11 O22 2.153149 1_555
Mg11 O8 2.155104 1_555
Mg11 O12 2.155503 1_555
Mg12 O29 2.106866 1_555
Mg12 O30 2.113553 1_555
Mg12 O19 2.147783 1_556
Mg12 O21 2.153149 1_555
Mg12 O9 2.155104 1_555
Mg12 O13 2.155503 1_555
Mg13 O29 2.106866 1_655
Mg13 O30 2.113553 1_555
Mg13 O20 2.147783 1_556
Mg13 O22 2.153149 1_555
Mg13 O10 2.155104 1_555
Mg13 O14 2.155503 1_555
Mg14 O0 1.999658 1_555
Mg14 O7 2.132596 1_555
Mg14 O9 2.132596 1_554
Mg14 O19 2.190887 1_555
Mg14 O15 2.296819 1_565
Mg15 O0 1.999658 1_555
Mg15 O8 2.132596 1_555
Mg15 O10 2.132596 1_554
Mg15 O20 2.190887 1_555
Mg15 O16 2.296819 1_565
Mg16 O2 2.108888 1_555
Mg16 O1 2.111071 1_555
Mg16 O17 2.138483 1_555
Mg16 O21 2.140050 1_555
Mg16 O9 2.170523 1_555
Mg16 O7 2.170523 1_555
Mg17 O2 2.108888 1_555
Mg17 O1 2.111071 1_655
Mg17 O18 2.138483 1_555
Mg17 O22 2.140050 1_555
Mg17 O10 2.170523 1_555
Mg17 O8 2.170523 1_555
Mg18 O19 2.067443 1_555
Mg18 O3 2.068065 1_555
Mg18 O11 2.128481 1_555
Mg18 O13 2.128481 1_554
Mg18 O4 2.157267 1_555
Mg18 O15 2.224962 1_555
Mg19 O20 2.067443 1_555
Mg19 O3 2.068065 1_655
Mg19 O12 2.128481 1_555
Mg19 O14 2.128481 1_554
Mg19 O4 2.157267 1_555
Mg19 O16 2.224962 1_555
Mg20 O5 2.091824 1_555
Mg20 O6 2.128222 1_555
Mg20 O17 2.134529 1_545
Mg20 O21 2.137475 1_555
Mg20 O11 2.172403 1_555
Mg20 O13 2.172403 1_555
Mg21 O5 2.091824 1_655
Mg21 O6 2.128222 1_555
Mg21 O18 2.134529 1_545
Mg21 O22 2.137475 1_555
Mg21 O12 2.172403 1_555
Mg21 O14 2.172403 1_555
Mg22 O23 2.096832 1_565
Mg22 O7 2.121702 1_555
Mg22 O8 2.121702 1_455
Mg22 O1 2.188359 1_555
Mg22 O27 2.189276 1_555
Mg23 O8 2.098618 1_555
Mg23 O7 2.098618 1_555
Mg23 O0 2.115635 1_555
Mg23 O24 2.143528 1_565
Mg23 O2 2.200214 1_555
Mg23 O28 2.226693 1_555
Mg24 O25 2.096832 1_565
Mg24 O9 2.121702 1_555
Mg24 O10 2.121702 1_455
Mg24 O1 2.188359 1_555
Mg24 O29 2.189276 1_555
Mg25 O10 2.098618 1_555
Mg25 O9 2.098618 1_555
Mg25 O0 2.115635 1_556
Mg25 O26 2.143528 1_565
Mg25 O2 2.200214 1_555
Mg25 O30 2.226693 1_555
Mg26 O23 2.094028 1_555
Mg26 O11 2.112249 1_555
Mg26 O12 2.112249 1_455
Mg26 O3 2.135828 1_555
Mg26 O5 2.164628 1_555
Mg26 O27 2.170477 1_555
Mg27 O6 2.054195 1_555
Mg27 O24 2.090814 1_555
Mg27 O28 2.102656 1_555
Mg27 O12 2.110957 1_555
Mg27 O11 2.110957 1_555
Mg27 O4 2.249796 1_555
Mg28 O25 2.094028 1_555
Mg28 O13 2.112249 1_555
Mg28 O14 2.112249 1_455
Mg28 O3 2.135828 1_556
Mg28 O5 2.164628 1_555
Mg28 O29 2.170477 1_555
Mg29 O6 2.054195 1_555
Mg29 O26 2.090814 1_555
Mg29 O30 2.102656 1_555
Mg29 O14 2.110957 1_555
Mg29 O13 2.110957 1_555
Mg29 O4 2.249796 1_556
B0 O15 1.448660 1_555
B0 O16 1.448660 1_555
B0 O4 1.468261 1_555
