# generated using pymatgen
data_LaAlCu4
_symmetry_space_group_name_H-M   'P 1'
_cell_length_a   5.15260917
_cell_length_b   5.15260917
_cell_length_c   4.16140569
_cell_angle_alpha   90.00000000
_cell_angle_beta   90.00000000
_cell_angle_gamma   118.57870914
_symmetry_Int_Tables_number   1
_chemical_formula_structural   LaAlCu4
_chemical_formula_sum   'La1 Al1 Cu4'
_cell_volume   97.02161630
_cell_formula_units_Z   1
loop_
 _symmetry_equiv_pos_site_id
 _symmetry_equiv_pos_as_xyz
  1  'x, y, z'
loop_
 _atom_site_type_symbol
 _atom_site_label
 _atom_site_symmetry_multiplicity
 _atom_site_fract_x
 _atom_site_fract_y
 _atom_site_fract_z
 _atom_site_occupancy
  La  La0  1  0.50000000  0.50000000  0.00000000  1
  Al  Al0  1  -0.00000000  0.00000000  0.50000000  1
  Cu  Cu0  1  0.16639792  0.83360208  -0.00000000  1
  Cu  Cu1  1  0.83360208  0.16639792  -0.00000000  1
  Cu  Cu2  1  -0.00000000  0.50000000  0.50000000  1
  Cu  Cu3  1  0.50000000  0.00000000  0.50000000  1
loop_
_geom_bond_atom_site_label_1
_geom_bond_atom_site_label_2
_geom_bond_distance
_geom_bond_site_symmetry_2
Al0 Cu0 2.550066 1_546
Al0 Cu0 2.550066 1_545
Al0 Cu1 2.550066 1_455
Al0 Cu1 2.550066 1_456
Al0 Cu2 2.576305 1_555
Al0 Cu2 2.576305 1_545
Al0 Cu3 2.576305 1_555
Al0 Cu3 2.576305 1_455
Al0 La0 3.354677 1_445
Al0 La0 3.354677 1_446
Al0 La0 3.354677 1_556
Al0 La0 3.354677 1_555
Cu0 Cu2 2.570820 1_554
Cu0 Cu2 2.570820 1_555
Cu0 Cu3 2.570820 1_565
Cu0 Cu3 2.570820 1_564
Cu0 Cu1 2.948567 1_465
Cu0 La0 2.955710 1_555
Cu0 La0 3.016297 1_565
Cu0 La0 3.016297 1_455
Cu0 Cu1 3.019795 1_565
Cu0 Cu1 3.019795 1_455
Cu1 Cu2 2.570820 1_654
Cu1 Cu2 2.570820 1_655
Cu1 Cu3 2.570820 1_555
Cu1 Cu3 2.570820 1_554
Cu1 La0 2.955710 1_555
Cu1 La0 3.016297 1_545
Cu1 La0 3.016297 1_655
Cu2 Cu3 2.631451 1_565
Cu2 Cu3 2.631451 1_455
Cu2 La0 3.311596 1_456
Cu2 La0 3.311596 1_455
Cu2 La0 3.311596 1_555
Cu2 La0 3.311596 1_556
Cu3 La0 3.311596 1_545
Cu3 La0 3.311596 1_555
Cu3 La0 3.311596 1_556
Cu3 La0 3.311596 1_546
