# generated using pymatgen
data_BaNaCeNbO6
_symmetry_space_group_name_H-M   'P 1'
_cell_length_a   8.50927686
_cell_length_b   8.52224338
_cell_length_c   8.47541748
_cell_angle_alpha   90.00000000
_cell_angle_beta   90.00000000
_cell_angle_gamma   90.00000000
_symmetry_Int_Tables_number   1
_chemical_formula_structural   BaNaCeNbO6
_chemical_formula_sum   'Ba4 Na4 Ce4 Nb4 O24'
_cell_volume   614.62141296
_cell_formula_units_Z   4
loop_
 _symmetry_equiv_pos_site_id
 _symmetry_equiv_pos_as_xyz
  1  'x, y, z'
loop_
 _atom_site_type_symbol
 _atom_site_label
 _atom_site_symmetry_multiplicity
 _atom_site_fract_x
 _atom_site_fract_y
 _atom_site_fract_z
 _atom_site_occupancy
  Ba  Ba0  1  -0.00000000  0.00000000  -0.00000000  1
  Ba  Ba1  1  0.50000000  0.50000000  0.50000000  1
  Ba  Ba2  1  0.50000000  0.00000000  0.50000000  1
  Ba  Ba3  1  -0.00000000  0.50000000  -0.00000000  1
  Na  Na0  1  -0.00000000  0.50000000  0.50000000  1
  Na  Na1  1  0.50000000  0.50000000  -0.00000000  1
  Na  Na2  1  0.50000000  0.00000000  -0.00000000  1
  Na  Na3  1  0.00000000  0.00000000  0.50000000  1
  Ce  Ce0  1  0.75000000  0.75000000  0.75000000  1
  Ce  Ce1  1  0.25000000  0.25000000  0.75000000  1
  Ce  Ce2  1  0.25000000  0.75000000  0.25000000  1
  Ce  Ce3  1  0.75000000  0.25000000  0.25000000  1
  Nb  Nb0  1  0.25000000  0.25000000  0.25000000  1
  Nb  Nb1  1  0.75000000  0.75000000  0.25000000  1
  Nb  Nb2  1  0.75000000  0.25000000  0.75000000  1
  Nb  Nb3  1  0.25000000  0.75000000  0.75000000  1
  O  O0  1  0.01319923  0.23141093  0.26071069  1
  O  O1  1  0.98680077  0.76858907  0.26071069  1
  O  O2  1  0.98680077  0.23141093  0.73928931  1
  O  O3  1  0.01319923  0.76858907  0.73928931  1
  O  O4  1  0.26761065  0.01355877  0.23216270  1
  O  O5  1  0.26761065  0.98644123  0.76783730  1
  O  O6  1  0.73238935  0.98644123  0.23216270  1
  O  O7  1  0.73238935  0.01355877  0.76783730  1
  O  O8  1  0.22837726  0.26501102  0.01301696  1
  O  O9  1  0.77162274  0.26501102  0.98698304  1
  O  O10  1  0.22837726  0.73498898  0.98698304  1
  O  O11  1  0.77162274  0.73498898  0.01301696  1
  O  O12  1  0.48680077  0.26858907  0.23928931  1
  O  O13  1  0.51319923  0.73141093  0.23928931  1
  O  O14  1  0.51319923  0.26858907  0.76071069  1
  O  O15  1  0.48680077  0.73141093  0.76071069  1
  O  O16  1  0.23238935  0.48644123  0.26783730  1
  O  O17  1  0.23238935  0.51355877  0.73216270  1
  O  O18  1  0.76761065  0.51355877  0.26783730  1
  O  O19  1  0.76761065  0.48644123  0.73216270  1
  O  O20  1  0.27162274  0.23498898  0.48698304  1
  O  O21  1  0.72837726  0.23498898  0.51301696  1
  O  O22  1  0.27162274  0.76501102  0.51301696  1
  O  O23  1  0.72837726  0.76501102  0.48698304  1
loop_
_geom_bond_atom_site_label_1
_geom_bond_atom_site_label_2
_geom_bond_distance
_geom_bond_site_symmetry_2
Ba0 O0 2.963853 1_555
Ba0 O2 2.963853 1_454
Ba0 O3 2.963853 1_544
Ba0 O1 2.963853 1_445
Ba0 O8 2.981519 1_555
Ba0 O10 2.981519 1_544
Ba0 O9 2.981519 1_454
Ba0 O11 2.981519 1_445
Ba0 O7 3.011747 1_454
Ba0 O6 3.011747 1_445
Ba0 O4 3.011747 1_555
Ba0 O5 3.011747 1_544
Ba1 O13 2.963853 1_555
Ba1 O14 2.963853 1_555
Ba1 O15 2.963853 1_555
Ba1 O12 2.963853 1_555
Ba1 O22 2.981519 1_555
Ba1 O20 2.981519 1_555
Ba1 O23 2.981519 1_555
Ba1 O21 2.981519 1_555
Ba1 O17 3.011747 1_555
Ba1 O19 3.011747 1_555
Ba1 O16 3.011747 1_555
Ba1 O18 3.011747 1_555
Ba2 O20 2.792709 1_555
Ba2 O22 2.792709 1_545
Ba2 O21 2.792709 1_555
Ba2 O23 2.792709 1_545
Ba2 O5 3.012768 1_545
Ba2 O4 3.012768 1_555
Ba2 O6 3.012768 1_545
Ba2 O7 3.012768 1_555
Ba2 O14 3.183477 1_555
Ba2 O13 3.183477 1_545
Ba2 O12 3.183477 1_555
Ba2 O15 3.183477 1_545
Ba3 O8 2.792709 1_555
Ba3 O10 2.792709 1_554
Ba3 O9 2.792709 1_454
Ba3 O11 2.792709 1_455
Ba3 O18 3.012768 1_455
Ba3 O16 3.012768 1_555
Ba3 O19 3.012768 1_454
Ba3 O17 3.012768 1_554
Ba3 O3 3.183477 1_554
Ba3 O1 3.183477 1_455
Ba3 O0 3.183477 1_555
Ba3 O2 3.183477 1_454
Na0 O19 2.792037 1_455
Na0 O17 2.792037 1_555
Na0 O16 2.792037 1_555
Na0 O18 2.792037 1_455
Na1 O14 2.831086 1_554
Na1 O15 2.831086 1_554
Na1 O12 2.831086 1_555
Na1 O13 2.831086 1_555
Na2 O4 2.792037 1_555
Na2 O7 2.792037 1_554
Na2 O6 2.792037 1_545
Na2 O5 2.792037 1_544
Na3 O1 2.831086 1_445
Na3 O0 2.831086 1_555
Na3 O2 2.831086 1_455
Na3 O3 2.831086 1_545
Ce0 O23 2.240414 1_555
Ce0 O11 2.240414 1_556
Ce0 O3 2.247065 1_655
Ce0 O15 2.247065 1_555
Ce0 O7 2.256176 1_565
Ce0 O19 2.256176 1_555
Ce1 O20 2.240414 1_555
Ce1 O8 2.240414 1_556
Ce1 O2 2.247065 1_455
Ce1 O14 2.247065 1_555
Ce1 O5 2.256176 1_545
Ce1 O17 2.256176 1_555
Ce2 O22 2.240414 1_555
Ce2 O10 2.240414 1_554
Ce2 O13 2.247065 1_555
Ce2 O1 2.247065 1_455
Ce2 O4 2.256176 1_565
Ce2 O16 2.256176 1_555
Ce3 O21 2.240414 1_555
Ce3 O9 2.240414 1_554
Ce3 O0 2.247065 1_655
Ce3 O12 2.247065 1_555
Ce3 O6 2.256176 1_545
Ce3 O18 2.256176 1_555
Nb0 O8 2.020993 1_555
Nb0 O20 2.020993 1_555
Nb0 O12 2.023259 1_555
Nb0 O0 2.023259 1_555
Nb0 O16 2.026222 1_555
Nb0 O4 2.026222 1_555
Nb1 O11 2.020993 1_555
Nb1 O23 2.020993 1_555
Nb1 O1 2.023259 1_555
Nb1 O13 2.023259 1_555
Nb1 O18 2.026222 1_555
Nb1 O6 2.026222 1_555
Nb2 O21 2.020993 1_555
Nb2 O9 2.020993 1_555
Nb2 O14 2.023259 1_555
Nb2 O2 2.023259 1_555
Nb2 O7 2.026222 1_555
Nb2 O19 2.026222 1_555
Nb3 O22 2.020993 1_555
Nb3 O10 2.020993 1_555
Nb3 O15 2.023259 1_555
Nb3 O3 2.023259 1_555
Nb3 O17 2.026222 1_555
Nb3 O5 2.026222 1_555
