# generated using pymatgen
data_CsMg6CrO8
_symmetry_space_group_name_H-M   'P 1'
_cell_length_a   4.59177800
_cell_length_b   4.59177800
_cell_length_c   9.09576800
_cell_angle_alpha   90.00000000
_cell_angle_beta   90.00000000
_cell_angle_gamma   90.00000000
_symmetry_Int_Tables_number   1
_chemical_formula_structural   CsMg6CrO8
_chemical_formula_sum   'Cs1 Mg6 Cr1 O8'
_cell_volume   191.77904004
_cell_formula_units_Z   1
loop_
 _symmetry_equiv_pos_site_id
 _symmetry_equiv_pos_as_xyz
  1  'x, y, z'
loop_
 _atom_site_type_symbol
 _atom_site_label
 _atom_site_symmetry_multiplicity
 _atom_site_fract_x
 _atom_site_fract_y
 _atom_site_fract_z
 _atom_site_occupancy
  Cs  Cs0  1  0.00000000  0.00000000  0.00000000  1
  Mg  Mg0  1  0.50000000  0.50000000  0.00000000  1
  Mg  Mg1  1  0.50000000  0.50000000  0.50000000  1
  Mg  Mg2  1  0.00000000  0.50000000  0.26690700  1
  Mg  Mg3  1  0.00000000  0.50000000  0.73309300  1
  Mg  Mg4  1  0.50000000  0.00000000  0.26690700  1
  Mg  Mg5  1  0.50000000  0.00000000  0.73309300  1
  Cr  Cr0  1  0.00000000  0.00000000  0.50000000  1
  O  O0  1  0.00000000  0.00000000  0.28652500  1
  O  O1  1  0.00000000  0.00000000  0.71347500  1
  O  O2  1  0.50000000  0.50000000  0.25531900  1
  O  O3  1  0.50000000  0.50000000  0.74468100  1
  O  O4  1  0.00000000  0.50000000  0.00000000  1
  O  O5  1  0.00000000  0.50000000  0.50000000  1
  O  O6  1  0.50000000  0.00000000  0.00000000  1
  O  O7  1  0.50000000  0.00000000  0.50000000  1
loop_
_geom_bond_atom_site_label_1
_geom_bond_atom_site_label_2
_geom_bond_distance
_geom_bond_site_symmetry_2
Cs0 O6 2.295889 1_555
Cs0 O4 2.295889 1_555
Cs0 O6 2.295889 1_455
Cs0 O4 2.295889 1_545
Cs0 O0 2.606165 1_555
Cs0 O1 2.606165 1_554
Mg0 O6 2.295889 1_555
Mg0 O6 2.295889 1_565
Mg0 O4 2.295889 1_555
Mg0 O4 2.295889 1_655
Mg0 O2 2.322322 1_555
Mg0 O3 2.322322 1_554
Mg1 O3 2.225562 1_555
Mg1 O2 2.225562 1_555
Mg1 O7 2.295889 1_555
Mg1 O5 2.295889 1_555
Mg1 O7 2.295889 1_565
Mg1 O5 2.295889 1_655
Mg2 O5 2.120160 1_555
Mg2 O2 2.298307 1_455
Mg2 O2 2.298307 1_555
Mg2 O0 2.302813 1_555
Mg2 O0 2.302813 1_565
Mg2 O4 2.427724 1_555
Mg3 O5 2.120160 1_555
Mg3 O3 2.298307 1_455
Mg3 O3 2.298307 1_555
Mg3 O1 2.302813 1_555
Mg3 O1 2.302813 1_565
Mg3 O4 2.427724 1_556
Mg4 O7 2.120160 1_555
Mg4 O2 2.298307 1_555
Mg4 O2 2.298307 1_545
Mg4 O0 2.302813 1_555
Mg4 O0 2.302813 1_655
Mg4 O6 2.427724 1_555
Mg5 O7 2.120160 1_555
Mg5 O3 2.298307 1_545
Mg5 O3 2.298307 1_555
Mg5 O1 2.302813 1_555
Mg5 O1 2.302813 1_655
Mg5 O6 2.427724 1_556
Cr0 O1 1.941719 1_555
Cr0 O0 1.941719 1_555
Cr0 O7 2.295889 1_455
Cr0 O7 2.295889 1_555
Cr0 O5 2.295889 1_545
Cr0 O5 2.295889 1_555
