# generated using pymatgen
data_H6CS(NO)3
_symmetry_space_group_name_H-M   'P 1'
_cell_length_a   7.65285985
_cell_length_b   7.65285985
_cell_length_c   12.96926900
_cell_angle_alpha   90.00000000
_cell_angle_beta   90.00000000
_cell_angle_gamma   119.99999872
_symmetry_Int_Tables_number   1
_chemical_formula_structural   H6CS(NO)3
_chemical_formula_sum   'H24 C4 S4 N12 O12'
_cell_volume   657.79967662
_cell_formula_units_Z   4
loop_
 _symmetry_equiv_pos_site_id
 _symmetry_equiv_pos_as_xyz
  1  'x, y, z'
loop_
 _atom_site_type_symbol
 _atom_site_label
 _atom_site_symmetry_multiplicity
 _atom_site_fract_x
 _atom_site_fract_y
 _atom_site_fract_z
 _atom_site_occupancy
  H  H0  1  0.61257200  0.69103300  0.74574600  1
  H  H1  1  0.07846000  0.38742800  0.74574600  1
  H  H2  1  0.38742800  0.30896700  0.24574600  1
  H  H3  1  0.07846000  0.69103300  0.74574600  1
  H  H4  1  0.30896700  0.92154000  0.74574600  1
  H  H5  1  0.92154000  0.61257200  0.24574600  1
  H  H6  1  0.30896700  0.38742800  0.74574600  1
  H  H7  1  0.92154000  0.30896700  0.24574600  1
  H  H8  1  0.69103300  0.07846000  0.24574600  1
  H  H9  1  0.69103300  0.61257200  0.24574600  1
  H  H10  1  0.61257200  0.92154000  0.74574600  1
  H  H11  1  0.38742800  0.07846000  0.24574600  1
  H  H12  1  0.72055200  0.74522900  0.99611900  1
  H  H13  1  0.02467800  0.27944800  0.99611900  1
  H  H14  1  0.27944800  0.25477100  0.49611900  1
  H  H15  1  0.02467800  0.74522900  0.99611900  1
  H  H16  1  0.25477100  0.97532200  0.99611900  1
  H  H17  1  0.97532200  0.72055200  0.49611900  1
  H  H18  1  0.25477100  0.27944800  0.99611900  1
  H  H19  1  0.97532200  0.25477100  0.49611900  1
  H  H20  1  0.74522900  0.02467800  0.49611900  1
  H  H21  1  0.74522900  0.72055200  0.49611900  1
  H  H22  1  0.72055200  0.97532200  0.99611900  1
  H  H23  1  0.27944800  0.02467800  0.49611900  1
  C  C0  1  0.00000000  0.00000000  0.99876300  1
  C  C1  1  0.00000000  0.00000000  0.49876300  1
  C  C2  1  0.66666700  0.33333300  0.24617800  1
  C  C3  1  0.33333300  0.66666700  0.74617800  1
  S  S0  1  0.66666700  0.33333300  0.77535300  1
  S  S1  1  0.33333300  0.66666700  0.27535300  1
  S  S2  1  0.66666700  0.33333300  0.94460500  1
  S  S3  1  0.33333300  0.66666700  0.44460500  1
  N  N0  1  0.23252900  0.46505900  0.74638100  1
  N  N1  1  0.23252900  0.76747100  0.74638100  1
  N  N2  1  0.76747100  0.53494100  0.24638100  1
  N  N3  1  0.53494100  0.76747100  0.74638100  1
  N  N4  1  0.76747100  0.23252900  0.24638100  1
  N  N5  1  0.46505900  0.23252900  0.24638100  1
  N  N6  1  0.10081700  0.20163300  0.99907200  1
  N  N7  1  0.10081700  0.89918300  0.99907200  1
  N  N8  1  0.89918300  0.79836700  0.49907200  1
  N  N9  1  0.79836700  0.89918300  0.99907200  1
  N  N10  1  0.89918300  0.10081700  0.49907200  1
  N  N11  1  0.20163300  0.10081700  0.49907200  1
  O  O0  1  0.77429100  0.54858200  0.74662400  1
  O  O1  1  0.77429100  0.22570900  0.74662400  1
  O  O2  1  0.22570900  0.45141800  0.24662400  1
  O  O3  1  0.45141800  0.22570900  0.74662400  1
  O  O4  1  0.22570900  0.77429100  0.24662400  1
  O  O5  1  0.54858200  0.77429100  0.24662400  1
  O  O6  1  0.55899700  0.11799400  0.97319400  1
  O  O7  1  0.55899700  0.44100300  0.97319400  1
  O  O8  1  0.44100300  0.88200600  0.47319400  1
  O  O9  1  0.88200600  0.44100300  0.97319400  1
  O  O10  1  0.44100300  0.55899700  0.47319400  1
  O  O11  1  0.11799400  0.55899700  0.47319400  1
loop_
_geom_bond_atom_site_label_1
_geom_bond_atom_site_label_2
_geom_bond_distance
_geom_bond_site_symmetry_2
H0 N3 1.021147 1_555
H1 N0 1.021147 1_555
H2 N5 1.021147 1_555
H3 N1 1.021147 1_555
H4 N1 1.021147 1_555
H5 N2 1.021147 1_555
H6 N0 1.021147 1_555
H7 N4 1.021147 1_555
H8 N4 1.021147 1_555
H9 N2 1.021147 1_555
H10 N3 1.021147 1_555
H11 N5 1.021147 1_555
H12 N9 1.021080 1_555
H13 N6 1.021080 1_555
H14 N11 1.021080 1_555
H15 N7 1.021080 1_555
H16 N7 1.021080 1_555
H17 N8 1.021080 1_555
H18 N6 1.021080 1_555
H19 N10 1.021080 1_555
H20 N10 1.021080 1_555
H21 N8 1.021080 1_555
H22 N9 1.021080 1_555
H23 N11 1.021080 1_555
C0 N9 1.336343 1_445
C0 N6 1.336343 1_555
C0 N7 1.336350 1_545
C1 N8 1.336343 1_445
C1 N11 1.336343 1_555
C1 N10 1.336350 1_455
C2 N4 1.336174 1_555
C2 N5 1.336174 1_555
C2 N2 1.336174 1_555
C3 N1 1.336174 1_555
C3 N0 1.336174 1_555
C3 N3 1.336174 1_555
O0 S0 1.474433 1_555
O1 S0 1.474426 1_555
O2 S1 1.474433 1_555
O3 S0 1.474433 1_555
O4 S1 1.474426 1_555
O5 S1 1.474433 1_555
O6 S2 1.474552 1_555
O7 S2 1.474558 1_555
O8 S3 1.474552 1_555
O9 S2 1.474552 1_555
O10 S3 1.474558 1_555
O11 S3 1.474552 1_555
