# generated using pymatgen
data_Li9Mn2Co5O16
_symmetry_space_group_name_H-M   'P 1'
_cell_length_a   5.10412708
_cell_length_b   5.10412708
_cell_length_c   20.63907257
_cell_angle_alpha   81.57742890
_cell_angle_beta   81.57742890
_cell_angle_gamma   32.86144513
_symmetry_Int_Tables_number   1
_chemical_formula_structural   Li9Mn2Co5O16
_chemical_formula_sum   'Li9 Mn2 Co5 O16'
_cell_volume   288.33445312
_cell_formula_units_Z   1
loop_
 _symmetry_equiv_pos_site_id
 _symmetry_equiv_pos_as_xyz
  1  'x, y, z'
loop_
 _atom_site_type_symbol
 _atom_site_label
 _atom_site_symmetry_multiplicity
 _atom_site_fract_x
 _atom_site_fract_y
 _atom_site_fract_z
 _atom_site_occupancy
  Li  Li0  1  0.24779500  0.24779500  0.06841000  1
  Li  Li1  1  0.76799000  0.76799000  0.17807200  1
  Li  Li2  1  0.25364900  0.25364900  0.30469600  1
  Li  Li3  1  0.75323900  0.75323900  0.43873300  1
  Li  Li4  1  0.24395500  0.24395500  0.56531900  1
  Li  Li5  1  0.75127200  0.75127200  0.69183500  1
  Li  Li6  1  0.24535900  0.24535900  0.81102300  1
  Li  Li7  1  0.74687800  0.74687800  0.94104100  1
  Li  Li8  1  0.49850000  0.49850000  0.12250900  1
  Mn  Mn0  1  0.99028800  0.99028800  0.00429500  1
  Mn  Mn1  1  0.49999400  0.49999400  0.37396400  1
  Co  Co0  1  0.01468900  0.01468900  0.23621200  1
  Co  Co1  1  0.00219600  0.00219600  0.50184200  1
  Co  Co2  1  0.49699600  0.49699600  0.62686500  1
  Co  Co3  1  0.99909500  0.99909500  0.75102700  1
  Co  Co4  1  0.49794000  0.49794000  0.87558200  1
  O  O0  1  0.38201300  0.38201300  0.97095300  1
  O  O1  1  0.88290500  0.88290500  0.08452900  1
  O  O2  1  0.38776700  0.38776700  0.22159700  1
  O  O3  1  0.88657900  0.88657900  0.35042100  1
  O  O4  1  0.39151300  0.39151300  0.46607800  1
  O  O5  1  0.88778800  0.88778800  0.59396200  1
  O  O6  1  0.38009500  0.38009500  0.72279400  1
  O  O7  1  0.88808300  0.88808300  0.84633500  1
  O  O8  1  0.12900000  0.12900000  0.16078500  1
  O  O9  1  0.60686900  0.60686900  0.28931500  1
  O  O10  1  0.11175600  0.11175600  0.40404100  1
  O  O11  1  0.61981300  0.61981300  0.52811400  1
  O  O12  1  0.10968600  0.10968600  0.65628600  1
  O  O13  1  0.61661900  0.61661900  0.78030500  1
  O  O14  1  0.10248100  0.10248100  0.90792400  1
  O  O15  1  0.60720100  0.60720100  0.02513600  1
loop_
_geom_bond_atom_site_label_1
_geom_bond_atom_site_label_2
_geom_bond_distance
_geom_bond_site_symmetry_2
Li0 O1 2.019790 1_455
Li0 O1 2.019790 1_545
Li0 O8 2.076181 1_555
Li0 O0 2.228352 1_554
Li0 O15 2.269937 1_455
Li0 O15 2.269937 1_545
Li1 O8 2.052319 1_565
Li1 O8 2.052319 1_655
Li1 O1 2.080849 1_555
Li1 O2 2.142082 1_655
Li1 O2 2.142082 1_565
Li1 O9 2.579526 1_555
Li2 O2 1.994527 1_555
Li2 O9 2.095223 1_545
Li2 O9 2.095223 1_455
Li2 O3 2.245930 1_545
Li2 O3 2.245930 1_455
Li2 O10 2.294405 1_555
Li3 O3 2.073622 1_555
Li3 O11 2.091351 1_555
Li3 O4 2.114067 1_565
Li3 O4 2.114067 1_655
Li3 O10 2.195238 1_565
Li3 O10 2.195238 1_655
Li4 O11 2.106313 1_455
Li4 O11 2.106313 1_545
Li4 O12 2.121187 1_555
Li4 O5 2.161362 1_545
Li4 O5 2.161362 1_455
Li4 O4 2.319248 1_555
Li5 O6 2.080819 1_565
Li5 O6 2.080819 1_655
Li5 O13 2.082564 1_555
Li5 O12 2.203455 1_655
Li5 O12 2.203455 1_565
Li5 O5 2.245547 1_555
Li6 O13 2.078305 1_455
Li6 O13 2.078305 1_545
Li6 O6 2.079093 1_555
Li6 O7 2.208957 1_455
Li6 O7 2.208957 1_545
Li6 O14 2.258847 1_555
Li7 O15 2.039091 1_556
Li7 O0 2.113225 1_655
Li7 O0 2.113225 1_565
Li7 O14 2.201282 1_655
Li7 O14 2.201282 1_565
Li7 O7 2.215131 1_555
Li8 O1 2.061756 1_545
Li8 O1 2.061756 1_455
Li8 O15 2.125645 1_555
Li8 O8 2.156255 1_565
Li8 O8 2.156255 1_655
Li8 O2 2.163494 1_555
Mn0 O1 1.820966 1_555
Mn0 O15 1.931371 1_655
Mn0 O15 1.931371 1_565
Mn0 O0 1.976023 1_564
Mn0 O0 1.976023 1_654
Mn0 O14 2.120278 1_664
Mn1 O9 1.894457 1_555
Mn1 O3 1.928329 1_545
Mn1 O3 1.928329 1_455
Mn1 O10 1.968420 1_655
Mn1 O10 1.968420 1_565
Mn1 O4 2.031215 1_555
Co0 O8 1.773143 1_555
Co0 O2 1.958122 1_545
Co0 O2 1.958122 1_455
Co0 O9 2.098172 1_455
Co0 O9 2.098172 1_545
Co0 O3 2.495324 1_445
Co1 O11 1.973664 1_545
Co1 O11 1.973664 1_455
Co1 O4 2.011968 1_455
Co1 O4 2.011968 1_545
Co1 O5 2.054074 1_445
Co1 O10 2.136322 1_555
Co2 O12 1.968548 1_565
Co2 O12 1.968548 1_655
Co2 O5 1.977548 1_455
Co2 O5 1.977548 1_545
Co2 O6 2.130249 1_555
Co2 O11 2.202618 1_555
Co3 O13 1.996506 1_565
Co3 O13 1.996506 1_655
Co3 O6 1.997222 1_565
Co3 O6 1.997222 1_655
Co3 O12 2.085502 1_665
Co3 O7 2.097098 1_555
Co4 O14 1.945859 1_655
Co4 O14 1.945859 1_565
Co4 O7 1.950401 1_545
Co4 O7 1.950401 1_455
Co4 O0 2.116721 1_555
Co4 O13 2.125856 1_555
