# generated using pymatgen
data_MgNiO2
_symmetry_space_group_name_H-M   'P 1'
_cell_length_a   2.88720800
_cell_length_b   8.14250264
_cell_length_c   8.41321032
_cell_angle_alpha   83.35366102
_cell_angle_beta   80.18009772
_cell_angle_gamma   80.04220202
_symmetry_Int_Tables_number   1
_chemical_formula_structural   MgNiO2
_chemical_formula_sum   'Mg4 Ni4 O8'
_cell_volume   191.19372446
_cell_formula_units_Z   4
loop_
 _symmetry_equiv_pos_site_id
 _symmetry_equiv_pos_as_xyz
  1  'x, y, z'
loop_
 _atom_site_type_symbol
 _atom_site_label
 _atom_site_symmetry_multiplicity
 _atom_site_fract_x
 _atom_site_fract_y
 _atom_site_fract_z
 _atom_site_occupancy
  Mg  Mg0  1  0.84506900  0.22797500  0.57186000  1
  Mg  Mg1  1  0.15493100  0.77202500  0.42814000  1
  Mg  Mg2  1  0.57904500  0.13100400  0.20917600  1
  Mg  Mg3  1  0.42095500  0.86899600  0.79082400  1
  Ni  Ni0  1  0.12917400  0.55405500  0.69167500  1
  Ni  Ni1  1  0.71221400  0.19007700  0.88276600  1
  Ni  Ni2  1  0.28778600  0.80992300  0.11723400  1
  Ni  Ni3  1  0.87082600  0.44594500  0.30832500  1
  O  O0  1  0.31908200  0.59535000  0.26627300  1
  O  O1  1  0.86681400  0.82165700  0.94574900  1
  O  O2  1  0.13318600  0.17834300  0.05425100  1
  O  O3  1  0.68091800  0.40465000  0.73372700  1
  O  O4  1  0.58936500  0.71884600  0.61145600  1
  O  O5  1  0.33589700  0.10625200  0.71058800  1
  O  O6  1  0.41063500  0.28115400  0.38854400  1
  O  O7  1  0.66410300  0.89374800  0.28941200  1
loop_
_geom_bond_atom_site_label_1
_geom_bond_atom_site_label_2
_geom_bond_distance
_geom_bond_site_symmetry_2
Mg0 O3 2.036226 1_555
Mg0 O5 2.038772 1_555
Mg0 O5 2.040455 1_655
Mg0 O6 2.111118 1_555
Mg0 O6 2.112679 1_655
Mg1 O0 2.036226 1_555
Mg1 O7 2.038772 1_555
Mg1 O7 2.040455 1_455
Mg1 O4 2.111118 1_555
Mg1 O4 2.112679 1_455
Mg2 O2 1.946537 1_555
Mg2 O2 1.947531 1_655
Mg2 O7 1.959251 1_545
Mg2 O6 1.994900 1_555
Mg3 O1 1.946537 1_555
Mg3 O1 1.947531 1_455
Mg3 O5 1.959251 1_565
Mg3 O4 1.994900 1_555
Ni0 O3 1.888161 1_555
Ni0 O3 1.889124 1_455
Ni0 O4 2.027537 1_455
Ni0 O4 2.030365 1_555
Ni1 O2 2.021402 1_556
Ni1 O2 2.023358 1_656
Ni1 O3 2.027294 1_555
Ni1 O5 2.172742 1_655
Ni1 O5 2.183327 1_555
Ni2 O1 2.021402 1_554
Ni2 O1 2.023358 1_454
Ni2 O0 2.027294 1_555
Ni2 O7 2.172742 1_455
Ni2 O7 2.183327 1_555
Ni3 O0 1.888161 1_555
Ni3 O0 1.889124 1_655
Ni3 O6 2.027537 1_655
Ni3 O6 2.030365 1_555
