# generated using pymatgen
data_LiMnSb
_symmetry_space_group_name_H-M   'P 1'
_cell_length_a   4.49390300
_cell_length_b   4.49390300
_cell_length_c   6.61315300
_cell_angle_alpha   90.00000000
_cell_angle_beta   90.00000000
_cell_angle_gamma   90.00000000
_symmetry_Int_Tables_number   1
_chemical_formula_structural   LiMnSb
_chemical_formula_sum   'Li2 Mn2 Sb2'
_cell_volume   133.55371054
_cell_formula_units_Z   2
loop_
 _symmetry_equiv_pos_site_id
 _symmetry_equiv_pos_as_xyz
  1  'x, y, z'
loop_
 _atom_site_type_symbol
 _atom_site_label
 _atom_site_symmetry_multiplicity
 _atom_site_fract_x
 _atom_site_fract_y
 _atom_site_fract_z
 _atom_site_occupancy
  Li  Li0  1  0.50000000  0.50000000  0.50000000  1
  Li  Li1  1  0.00000000  0.00000000  0.50000000  1
  Mn  Mn0  1  0.50000000  0.50000000  0.00000000  1
  Mn  Mn1  1  0.00000000  0.00000000  0.00000000  1
  Sb  Sb0  1  0.00000000  0.50000000  0.76321300  1
  Sb  Sb1  1  0.50000000  0.00000000  0.23678700  1
loop_
_geom_bond_atom_site_label_1
_geom_bond_atom_site_label_2
_geom_bond_distance
_geom_bond_site_symmetry_2
Li0 Sb0 2.842308 1_655
Li0 Sb1 2.842308 1_555
Li0 Sb0 2.842308 1_555
Li0 Sb1 2.842308 1_565
Li1 Sb1 2.842308 1_555
Li1 Sb1 2.842308 1_455
Li1 Sb0 2.842308 1_555
Li1 Sb0 2.842308 1_545
Mn0 Sb0 2.738770 1_654
Mn0 Sb0 2.738770 1_554
Mn0 Sb1 2.738770 1_555
Mn0 Sb1 2.738770 1_565
Mn1 Sb0 2.738770 1_554
Mn1 Sb1 2.738770 1_555
Mn1 Sb0 2.738770 1_544
Mn1 Sb1 2.738770 1_455
