# generated using pymatgen
data_Mg4Ni5(TeO6)3
_symmetry_space_group_name_H-M   'P 1'
_cell_length_a   8.66035643
_cell_length_b   8.66035643
_cell_length_c   10.31678369
_cell_angle_alpha   85.19836344
_cell_angle_beta   85.19836344
_cell_angle_gamma   61.74684871
_symmetry_Int_Tables_number   1
_chemical_formula_structural   Mg4Ni5(TeO6)3
_chemical_formula_sum   'Mg8 Ni10 Te6 O36'
_cell_volume   678.34378773
_cell_formula_units_Z   2
loop_
 _symmetry_equiv_pos_site_id
 _symmetry_equiv_pos_as_xyz
  1  'x, y, z'
loop_
 _atom_site_type_symbol
 _atom_site_label
 _atom_site_symmetry_multiplicity
 _atom_site_fract_x
 _atom_site_fract_y
 _atom_site_fract_z
 _atom_site_occupancy
  Mg  Mg0  1  0.34114100  0.05920400  0.07754300  1
  Mg  Mg1  1  0.36131700  0.67617000  0.96240800  1
  Mg  Mg2  1  0.94079600  0.65885900  0.42245700  1
  Mg  Mg3  1  0.32383000  0.63868300  0.53759200  1
  Mg  Mg4  1  0.67617000  0.36131700  0.46240800  1
  Mg  Mg5  1  0.05920400  0.34114100  0.57754300  1
  Mg  Mg6  1  0.65885900  0.94079600  0.92245700  1
  Mg  Mg7  1  0.63868300  0.32383000  0.03759200  1
  Ni  Ni0  1  0.30793900  0.98809400  0.73003300  1
  Ni  Ni1  1  0.98809400  0.30793900  0.23003300  1
  Ni  Ni2  1  0.14329900  0.52306200  0.05005900  1
  Ni  Ni3  1  0.52306200  0.14329900  0.55005900  1
  Ni  Ni4  1  0.47693800  0.85670100  0.44994100  1
  Ni  Ni5  1  0.82447800  0.17552200  0.75000000  1
  Ni  Ni6  1  0.17552200  0.82447800  0.25000000  1
  Ni  Ni7  1  0.85670100  0.47693800  0.94994100  1
  Ni  Ni8  1  0.69206100  0.01190600  0.26996700  1
  Ni  Ni9  1  0.01190600  0.69206100  0.76996700  1
  Te  Te0  1  0.66588900  0.65602700  0.70125400  1
  Te  Te1  1  0.00000000  0.00000000  0.00000000  1
  Te  Te2  1  0.00000000  0.00000000  0.50000000  1
  Te  Te3  1  0.65602700  0.66588900  0.20125400  1
  Te  Te4  1  0.33411100  0.34397300  0.29874600  1
  Te  Te5  1  0.34397300  0.33411100  0.79874600  1
  O  O0  1  0.89124300  0.59149400  0.60596400  1
  O  O1  1  0.23997300  0.91214100  0.56133300  1
  O  O2  1  0.43050500  0.75806400  0.29709700  1
  O  O3  1  0.93097000  0.92470000  0.16596600  1
  O  O4  1  0.08785900  0.76002700  0.93866700  1
  O  O5  1  0.07530000  0.06903000  0.33403400  1
  O  O6  1  0.59325500  0.57544500  0.05730400  1
  O  O7  1  0.90511600  0.23562100  0.56592700  1
  O  O8  1  0.09488400  0.76437900  0.43407300  1
  O  O9  1  0.22839300  0.27832900  0.16303600  1
  O  O10  1  0.44640600  0.74594400  0.80160700  1
  O  O11  1  0.77160700  0.72167100  0.83696400  1
  O  O12  1  0.76002700  0.08785900  0.43866700  1
  O  O13  1  0.55720700  0.89519100  0.61825700  1
  O  O14  1  0.25405600  0.55359400  0.69839300  1
  O  O15  1  0.40674500  0.42455500  0.94269600  1
  O  O16  1  0.55359400  0.25405600  0.19839300  1
  O  O17  1  0.10480900  0.44279300  0.88174300  1
  O  O18  1  0.24193600  0.56949500  0.20290300  1
  O  O19  1  0.74594400  0.44640600  0.30160700  1
  O  O20  1  0.59149400  0.89124300  0.10596400  1
  O  O21  1  0.44279300  0.10480900  0.38174300  1
  O  O22  1  0.76437900  0.09488400  0.93407300  1
  O  O23  1  0.57544500  0.59325500  0.55730400  1
  O  O24  1  0.56949500  0.24193600  0.70290300  1
  O  O25  1  0.92470000  0.93097000  0.66596600  1
  O  O26  1  0.27832900  0.22839300  0.66303600  1
  O  O27  1  0.42455500  0.40674500  0.44269600  1
  O  O28  1  0.91214100  0.23997300  0.06133300  1
  O  O29  1  0.89519100  0.55720700  0.11825700  1
  O  O30  1  0.10875700  0.40850600  0.39403600  1
  O  O31  1  0.06903000  0.07530000  0.83403400  1
  O  O32  1  0.23562100  0.90511600  0.06592700  1
  O  O33  1  0.72167100  0.77160700  0.33696400  1
  O  O34  1  0.75806400  0.43050500  0.79709700  1
  O  O35  1  0.40850600  0.10875700  0.89403600  1
loop_
_geom_bond_atom_site_label_1
_geom_bond_atom_site_label_2
_geom_bond_distance
_geom_bond_site_symmetry_2
Mg0 O9 1.927275 1_555
Mg0 O32 1.957007 1_545
Mg0 O20 1.987943 1_545
Mg0 O35 2.006203 1_554
Mg1 O10 1.925970 1_555
Mg1 O15 2.047845 1_555
Mg1 O6 2.069189 1_556
Mg1 O32 2.091257 1_556
Mg1 O4 2.152911 1_555
Mg2 O33 1.927275 1_555
Mg2 O8 1.957007 1_655
Mg2 O30 1.987943 1_655
Mg2 O0 2.006203 1_555
Mg3 O14 1.925970 1_555
Mg3 O23 2.047845 1_555
Mg3 O27 2.069189 1_555
Mg3 O8 2.091257 1_555
Mg3 O1 2.152911 1_555
Mg4 O19 1.925970 1_555
Mg4 O27 2.047845 1_555
Mg4 O23 2.069189 1_555
Mg4 O7 2.091257 1_555
Mg4 O12 2.152911 1_555
Mg5 O26 1.927275 1_555
Mg5 O7 1.957007 1_455
Mg5 O0 1.987943 1_455
Mg5 O30 2.006203 1_555
Mg6 O11 1.927275 1_555
Mg6 O22 1.957007 1_565
Mg6 O35 1.987943 1_565
Mg6 O20 2.006203 1_556
Mg7 O16 1.925970 1_555
Mg7 O6 2.047845 1_555
Mg7 O15 2.069189 1_554
Mg7 O22 2.091257 1_554
Mg7 O28 2.152911 1_555
Ni0 O10 1.972124 1_555
Ni0 O26 2.039120 1_565
Ni0 O31 2.070545 1_565
Ni0 O1 2.130256 1_555
Ni0 O13 2.175212 1_555
Ni0 O35 2.473399 1_565
Ni1 O19 1.972124 1_555
Ni1 O9 2.039120 1_655
Ni1 O5 2.070545 1_655
Ni1 O28 2.130256 1_555
Ni1 O29 2.175212 1_555
Ni1 O30 2.473399 1_655
Ni2 O18 2.008674 1_555
Ni2 O17 2.031771 1_554
Ni2 O29 2.092748 1_455
Ni2 O4 2.127778 1_554
Ni2 O9 2.155290 1_555
Ni2 O15 2.247769 1_554
Ni3 O24 2.008674 1_555
Ni3 O21 2.031771 1_555
Ni3 O13 2.092748 1_545
Ni3 O12 2.127778 1_555
Ni3 O26 2.155290 1_555
Ni3 O27 2.247769 1_555
Ni4 O2 2.008674 1_555
Ni4 O13 2.031771 1_555
Ni4 O21 2.092748 1_565
Ni4 O1 2.127778 1_555
Ni4 O33 2.155290 1_555
Ni4 O23 2.247769 1_555
Ni5 O22 2.078840 1_555
Ni5 O7 2.078840 1_555
Ni5 O24 2.091322 1_555
Ni5 O34 2.091322 1_555
Ni5 O25 2.105132 1_545
Ni5 O31 2.105132 1_655
Ni6 O8 2.078840 1_555
Ni6 O32 2.078840 1_555
Ni6 O18 2.091322 1_555
Ni6 O2 2.091322 1_555
Ni6 O3 2.105132 1_455
Ni6 O5 2.105132 1_565
Ni7 O34 2.008674 1_555
Ni7 O29 2.031771 1_556
Ni7 O17 2.092748 1_655
Ni7 O28 2.127778 1_556
Ni7 O11 2.155290 1_555
Ni7 O6 2.247769 1_556
Ni8 O16 1.972124 1_555
Ni8 O33 2.039120 1_545
Ni8 O3 2.070545 1_545
Ni8 O12 2.130256 1_555
Ni8 O21 2.175212 1_555
Ni8 O20 2.473399 1_545
Ni9 O14 1.972124 1_555
Ni9 O11 2.039120 1_455
Ni9 O25 2.070545 1_455
Ni9 O4 2.130256 1_555
Ni9 O17 2.175212 1_555
Ni9 O0 2.473399 1_455
O0 Te0 1.955982 1_555
O1 Te2 1.985176 1_565
O2 Te3 1.939671 1_555
O3 Te1 1.930079 1_665
O4 Te1 1.985176 1_566
O5 Te2 1.930079 1_555
O6 Te3 1.961533 1_555
O7 Te2 1.962918 1_655
O8 Te2 1.962918 1_565
O9 Te4 1.990555 1_555
O10 Te0 1.922369 1_555
O11 Te0 1.990555 1_555
O12 Te2 1.985176 1_655
O13 Te0 1.975219 1_555
O14 Te5 1.922369 1_555
O15 Te5 1.961533 1_555
O16 Te4 1.922369 1_555
O17 Te5 1.975219 1_555
O18 Te4 1.939671 1_555
O19 Te3 1.922369 1_555
O20 Te3 1.955982 1_555
O21 Te4 1.975219 1_555
O22 Te1 1.962918 1_656
O23 Te0 1.961533 1_555
O24 Te5 1.939671 1_555
O25 Te2 1.930079 1_665
O26 Te5 1.990555 1_555
O27 Te4 1.961533 1_555
O28 Te1 1.985176 1_655
O29 Te3 1.975219 1_555
O30 Te4 1.955982 1_555
O31 Te1 1.930079 1_556
O32 Te1 1.962918 1_565
O33 Te3 1.990555 1_555
O34 Te0 1.939671 1_555
O35 Te5 1.955982 1_555
