# generated using pymatgen
data_Ca4Ga3FeO10
_symmetry_space_group_name_H-M   'P 1'
_cell_length_a   5.44405800
_cell_length_b   5.66796600
_cell_length_c   15.85442232
_cell_angle_alpha   69.05597473
_cell_angle_beta   90.00000000
_cell_angle_gamma   90.00000000
_symmetry_Int_Tables_number   1
_chemical_formula_structural   Ca4Ga3FeO10
_chemical_formula_sum   'Ca8 Ga6 Fe2 O20'
_cell_volume   456.89327789
_cell_formula_units_Z   2
loop_
 _symmetry_equiv_pos_site_id
 _symmetry_equiv_pos_as_xyz
  1  'x, y, z'
loop_
 _atom_site_type_symbol
 _atom_site_label
 _atom_site_symmetry_multiplicity
 _atom_site_fract_x
 _atom_site_fract_y
 _atom_site_fract_z
 _atom_site_occupancy
  Ca  Ca0  1  0.02096000  0.63516800  0.89159800  1
  Ca  Ca1  1  0.52096000  0.36483200  0.60840200  1
  Ca  Ca2  1  0.97980000  0.08137400  0.39146800  1
  Ca  Ca3  1  0.47980000  0.91862600  0.10853200  1
  Ca  Ca4  1  0.97904000  0.36483200  0.10840200  1
  Ca  Ca5  1  0.47904000  0.63516800  0.39159800  1
  Ca  Ca6  1  0.02020000  0.91862600  0.60853200  1
  Ca  Ca7  1  0.52020000  0.08137400  0.89146800  1
  Ga  Ga0  1  0.55208200  0.68044400  0.75019100  1
  Ga  Ga1  1  0.05208200  0.31955600  0.74980900  1
  Ga  Ga2  1  0.44791800  0.31955600  0.24980900  1
  Ga  Ga3  1  0.94791800  0.68044400  0.25019100  1
  Ga  Ga4  1  0.50000000  0.50000000  0.00000000  1
  Ga  Ga5  1  0.00000000  0.50000000  0.50000000  1
  Fe  Fe0  1  0.50000000  0.00000000  0.50000000  1
  Fe  Fe1  1  0.00000000  0.00000000  0.00000000  1
  O  O0  1  0.23356300  0.71343800  0.01570700  1
  O  O1  1  0.73356300  0.28656200  0.48429300  1
  O  O2  1  0.76961400  0.75077200  0.51561800  1
  O  O3  1  0.26961400  0.24922800  0.98438200  1
  O  O4  1  0.76643700  0.28656200  0.98429300  1
  O  O5  1  0.26643700  0.71343800  0.51570700  1
  O  O6  1  0.23038600  0.24922800  0.48438200  1
  O  O7  1  0.73038600  0.75077200  0.01561800  1
  O  O8  1  0.90054500  0.62452200  0.75004300  1
  O  O9  1  0.40054500  0.37547800  0.74995700  1
  O  O10  1  0.09945500  0.37547800  0.24995700  1
  O  O11  1  0.59945500  0.62452200  0.25004300  1
  O  O12  1  0.47212200  0.71720300  0.85773300  1
  O  O13  1  0.97212200  0.28279700  0.64226700  1
  O  O14  1  0.52710800  0.06839300  0.35807500  1
  O  O15  1  0.02710800  0.93160700  0.14192500  1
  O  O16  1  0.52787800  0.28279700  0.14226700  1
  O  O17  1  0.02787800  0.71720300  0.35773300  1
  O  O18  1  0.47289200  0.93160700  0.64192500  1
  O  O19  1  0.97289200  0.06839300  0.85807500  1
loop_
_geom_bond_atom_site_label_1
_geom_bond_atom_site_label_2
_geom_bond_distance
_geom_bond_site_symmetry_2
Ca0 O19 2.333978 1_465
Ca0 O8 2.359440 1_455
Ca0 O4 2.430628 1_455
Ca0 O0 2.456064 1_556
Ca0 O12 2.521642 1_555
Ca0 O3 2.545790 1_555
Ca0 O7 2.778313 1_456
Ca0 O12 3.041969 1_455
Ca1 O18 2.333978 1_545
Ca1 O9 2.359440 1_555
Ca1 O5 2.430628 1_555
Ca1 O1 2.456064 1_555
Ca1 O13 2.521642 1_555
Ca1 O2 2.545790 1_555
Ca1 O6 2.778313 1_555
Ca1 O13 3.041969 1_455
Ca2 O17 2.324730 1_645
Ca2 O10 2.358602 1_655
Ca2 O6 2.436834 1_655
Ca2 O2 2.461321 1_545
Ca2 O14 2.527296 1_555
Ca2 O1 2.557160 1_555
Ca2 O5 2.779806 1_645
Ca2 O14 3.031737 1_655
Ca3 O16 2.324730 1_565
Ca3 O11 2.358602 1_555
Ca3 O7 2.436834 1_555
Ca3 O3 2.461321 1_564
Ca3 O15 2.527296 1_555
Ca3 O0 2.557160 1_555
Ca3 O4 2.779806 1_564
Ca3 O15 3.031737 1_655
Ca4 O15 2.333978 1_645
Ca4 O10 2.359440 1_655
Ca4 O0 2.430628 1_655
Ca4 O4 2.456064 1_554
Ca4 O16 2.521642 1_555
Ca4 O7 2.545790 1_555
Ca4 O3 2.778313 1_654
Ca4 O16 3.041969 1_655
Ca5 O14 2.333978 1_565
Ca5 O11 2.359440 1_555
Ca5 O1 2.430628 1_555
Ca5 O5 2.456064 1_555
Ca5 O17 2.521642 1_555
Ca5 O6 2.545790 1_555
Ca5 O2 2.778313 1_555
Ca5 O17 3.041969 1_655
Ca6 O13 2.324730 1_465
Ca6 O8 2.358602 1_455
Ca6 O2 2.436834 1_455
Ca6 O6 2.461321 1_565
Ca6 O18 2.527296 1_555
Ca6 O5 2.557160 1_555
Ca6 O1 2.779806 1_465
Ca6 O18 3.031737 1_455
Ca7 O12 2.324730 1_545
Ca7 O9 2.358602 1_555
Ca7 O3 2.436834 1_555
Ca7 O7 2.461321 1_546
Ca7 O19 2.527296 1_555
Ca7 O4 2.557160 1_555
Ca7 O0 2.779806 1_546
Ca7 O19 3.031737 1_455
Ga0 O12 1.842266 1_555
Ga0 O18 1.847124 1_555
Ga0 O9 1.916513 1_555
Ga0 O8 1.923490 1_555
Ga1 O13 1.842266 1_455
Ga1 O19 1.847124 1_455
Ga1 O8 1.916513 1_455
Ga1 O9 1.923490 1_555
Ga2 O16 1.842266 1_555
Ga2 O14 1.847124 1_555
Ga2 O11 1.916513 1_555
Ga2 O10 1.923490 1_555
Ga3 O17 1.842266 1_655
Ga3 O15 1.847124 1_655
Ga3 O10 1.916513 1_655
Ga3 O11 1.923490 1_555
Ga4 O4 1.960829 1_554
Ga4 O0 1.960829 1_555
Ga4 O7 1.976440 1_555
Ga4 O3 1.976440 1_554
Ga4 O12 2.154302 1_554
Ga4 O16 2.154302 1_555
Ga5 O5 1.960829 1_555
Ga5 O1 1.960829 1_455
Ga5 O2 1.976440 1_455
Ga5 O6 1.976440 1_555
Ga5 O13 2.154302 1_455
Ga5 O17 2.154302 1_555
Fe0 O2 1.990264 1_545
Fe0 O6 1.990264 1_555
Fe0 O1 2.006924 1_555
Fe0 O5 2.006924 1_545
Fe0 O18 2.147460 1_545
Fe0 O14 2.147460 1_555
Fe1 O3 1.990264 1_554
Fe1 O7 1.990264 1_445
Fe1 O0 2.006924 1_545
Fe1 O4 2.006924 1_454
Fe1 O15 2.147460 1_545
Fe1 O19 2.147460 1_454
