# generated using pymatgen
data_GdY(CoB)4
_symmetry_space_group_name_H-M   'P 1'
_cell_length_a   3.55383100
_cell_length_b   3.55383100
_cell_length_c   9.50378800
_cell_angle_alpha   90.00000000
_cell_angle_beta   90.00000000
_cell_angle_gamma   90.00000000
_symmetry_Int_Tables_number   1
_chemical_formula_structural   GdY(CoB)4
_chemical_formula_sum   'Gd1 Y1 Co4 B4'
_cell_volume   120.03013174
_cell_formula_units_Z   1
loop_
 _symmetry_equiv_pos_site_id
 _symmetry_equiv_pos_as_xyz
  1  'x, y, z'
loop_
 _atom_site_type_symbol
 _atom_site_label
 _atom_site_symmetry_multiplicity
 _atom_site_fract_x
 _atom_site_fract_y
 _atom_site_fract_z
 _atom_site_occupancy
  Gd  Gd0  1  0.00000000  0.00000000  0.00000000  1
  Y  Y0  1  0.50000000  0.50000000  0.50000000  1
  Co  Co0  1  0.00000000  0.50000000  0.25200800  1
  Co  Co1  1  0.50000000  0.00000000  0.74799200  1
  Co  Co2  1  0.50000000  0.00000000  0.25200800  1
  Co  Co3  1  0.00000000  0.50000000  0.74799200  1
  B  B0  1  0.50000000  0.50000000  0.15426300  1
  B  B1  1  0.00000000  0.00000000  0.64999500  1
  B  B2  1  0.00000000  0.00000000  0.35000500  1
  B  B3  1  0.50000000  0.50000000  0.84573700  1
loop_
_geom_bond_atom_site_label_1
_geom_bond_atom_site_label_2
_geom_bond_distance
_geom_bond_site_symmetry_2
Co0 Y0 2.951649 1_555
Co0 Y0 2.951649 1_455
Co0 Gd0 2.982214 1_565
Co0 Gd0 2.982214 1_555
Co1 Y0 2.951649 1_555
Co1 Y0 2.951649 1_545
Co1 Gd0 2.982214 1_556
Co1 Gd0 2.982214 1_656
Co2 Y0 2.951649 1_555
Co2 Y0 2.951649 1_545
Co2 Gd0 2.982214 1_655
Co2 Gd0 2.982214 1_555
Co3 Y0 2.951649 1_555
Co3 Y0 2.951649 1_455
Co3 Gd0 2.982214 1_556
Co3 Gd0 2.982214 1_566
B0 Co2 2.005087 1_555
B0 Co2 2.005087 1_565
B0 Co0 2.005087 1_555
B0 Co0 2.005087 1_655
B0 Gd0 2.909339 1_565
B0 Gd0 2.909339 1_655
B0 Gd0 2.909339 1_665
B0 Gd0 2.909339 1_555
B1 Co1 2.006197 1_555
B1 Co1 2.006197 1_455
B1 Co3 2.006197 1_545
B1 Co3 2.006197 1_555
B1 Y0 2.889112 1_455
B1 Y0 2.889112 1_445
B1 Y0 2.889112 1_545
B1 Y0 2.889112 1_555
B2 Co2 2.006197 1_455
B2 Co0 2.006197 1_545
B2 Co2 2.006197 1_555
B2 Co0 2.006197 1_555
B2 Y0 2.889112 1_455
B2 Y0 2.889112 1_445
B2 Y0 2.889112 1_545
B2 Y0 2.889112 1_555
B3 Co3 2.005087 1_555
B3 Co3 2.005087 1_655
B3 Co1 2.005087 1_555
B3 Co1 2.005087 1_565
B3 Gd0 2.909339 1_656
B3 Gd0 2.909339 1_556
B3 Gd0 2.909339 1_566
B3 Gd0 2.909339 1_666
