# generated using pymatgen
data_Tb4ZrAl15
_symmetry_space_group_name_H-M   'P 1'
_cell_length_a   12.51443202
_cell_length_b   12.51443202
_cell_length_c   12.51443257
_cell_angle_alpha   28.06630933
_cell_angle_beta   28.06630933
_cell_angle_gamma   28.06630856
_symmetry_Int_Tables_number   1
_chemical_formula_structural   Tb4ZrAl15
_chemical_formula_sum   'Tb4 Zr1 Al15'
_cell_volume   383.23011634
_cell_formula_units_Z   1
loop_
 _symmetry_equiv_pos_site_id
 _symmetry_equiv_pos_as_xyz
  1  'x, y, z'
loop_
 _atom_site_type_symbol
 _atom_site_label
 _atom_site_symmetry_multiplicity
 _atom_site_fract_x
 _atom_site_fract_y
 _atom_site_fract_z
 _atom_site_occupancy
  Tb  Tb0  1  0.86915600  0.86915600  0.86915600  1
  Tb  Tb1  1  0.13084400  0.13084400  0.13084400  1
  Tb  Tb2  1  0.60015600  0.60015600  0.60015600  1
  Tb  Tb3  1  0.39984400  0.39984400  0.39984400  1
  Zr  Zr0  1  0.00000000  0.00000000  0.00000000  1
  Al  Al0  1  0.50000000  0.50000000  0.00000000  1
  Al  Al1  1  0.00000000  0.50000000  0.50000000  1
  Al  Al2  1  0.50000000  0.00000000  0.50000000  1
  Al  Al3  1  0.36358800  0.87168800  0.36358800  1
  Al  Al4  1  0.36358800  0.36358800  0.87168800  1
  Al  Al5  1  0.87168800  0.36358800  0.36358800  1
  Al  Al6  1  0.63641200  0.12831200  0.63641200  1
  Al  Al7  1  0.63641200  0.63641200  0.12831200  1
  Al  Al8  1  0.12831200  0.63641200  0.63641200  1
  Al  Al9  1  0.11703500  0.57215800  0.11703500  1
  Al  Al10  1  0.11703500  0.11703500  0.57215800  1
  Al  Al11  1  0.57215800  0.11703500  0.11703500  1
  Al  Al12  1  0.88296500  0.42784200  0.88296500  1
  Al  Al13  1  0.88296500  0.88296500  0.42784200  1
  Al  Al14  1  0.42784200  0.88296500  0.88296500  1
loop_
_geom_bond_atom_site_label_1
_geom_bond_atom_site_label_2
_geom_bond_distance
_geom_bond_site_symmetry_2
Al0 Al9 2.870203 1_555
Al0 Al12 2.870203 1_554
Al0 Al11 2.870203 1_555
Al0 Al14 2.870203 1_554
Al0 Tb3 2.969144 1_555
Al0 Tb2 2.969144 1_554
Al0 Zr0 3.034541 1_655
Al0 Zr0 3.034541 1_565
Al0 Al1 3.034541 1_555
Al0 Al2 3.034541 1_555
Al0 Al1 3.034541 1_654
Al0 Al2 3.034541 1_564
Al1 Al10 2.870203 1_555
Al1 Al13 2.870203 1_455
Al1 Al9 2.870204 1_555
Al1 Al12 2.870204 1_455
Al1 Tb2 2.969144 1_455
Al1 Tb3 2.969144 1_555
Al1 Al2 3.034541 1_555
Al1 Al2 3.034541 1_465
Al1 Zr0 3.034541 1_565
Al1 Zr0 3.034541 1_556
Al2 Tb3 2.969144 1_555
Al2 Tb2 2.969144 1_545
Al2 Zr0 3.034541 1_556
Al2 Zr0 3.034541 1_655
Al3 Tb2 3.006000 1_555
Al3 Tb1 3.019191 1_565
Al3 Tb0 3.036434 1_554
Al3 Tb0 3.036434 1_455
Al4 Al9 2.995267 1_556
Al4 Tb2 3.006000 1_555
Al4 Tb1 3.019190 1_556
Al4 Tb0 3.036434 1_545
Al4 Tb0 3.036434 1_455
Al5 Al9 2.995267 1_655
Al5 Tb2 3.006000 1_555
Al5 Tb1 3.019191 1_655
Al5 Tb0 3.036434 1_554
Al5 Tb0 3.036434 1_545
Al6 Tb3 3.006000 1_555
Al6 Tb0 3.019191 1_545
Al6 Tb1 3.036434 1_556
Al6 Tb1 3.036434 1_655
Al7 Tb3 3.006000 1_555
Al7 Tb0 3.019190 1_554
Al7 Tb1 3.036434 1_565
Al7 Tb1 3.036434 1_655
Al8 Tb3 3.006000 1_555
Al8 Tb0 3.019191 1_455
Al8 Tb1 3.036434 1_556
Al8 Tb1 3.036434 1_565
Al9 Zr0 3.010741 1_565
Al9 Tb2 3.039401 1_455
Al9 Tb2 3.039401 1_554
Al9 Tb0 3.057313 1_454
Al10 Al11 2.762179 1_555
Al10 Al9 2.762179 1_555
Al10 Al2 2.870203 1_555
Al10 Al5 2.995267 1_455
Al10 Al3 2.995267 1_545
Al10 Zr0 3.010741 1_556
Al10 Tb2 3.039400 1_545
Al10 Tb2 3.039400 1_455
Al10 Tb0 3.057312 1_445
Al11 Al9 2.762179 1_555
Al11 Al2 2.870204 1_555
Al11 Al3 2.995267 1_545
Al11 Al4 2.995267 1_554
Al11 Zr0 3.010741 1_655
Al11 Tb2 3.039401 1_545
Al11 Tb2 3.039401 1_554
Al11 Tb0 3.057313 1_544
Al12 Al14 2.762179 1_555
Al12 Al13 2.762179 1_555
Al12 Al8 2.995267 1_655
Al12 Al7 2.995267 1_556
Al12 Zr0 3.010741 1_656
Al12 Tb3 3.039401 1_655
Al12 Tb3 3.039401 1_556
Al12 Tb1 3.057313 1_656
Al13 Al14 2.762179 1_555
Al13 Al2 2.870203 1_565
Al13 Al6 2.995267 1_565
Al13 Al8 2.995267 1_655
Al13 Zr0 3.010741 1_665
Al13 Tb3 3.039400 1_565
Al13 Tb3 3.039400 1_655
Al13 Tb1 3.057312 1_665
Al14 Al2 2.870204 1_565
Al14 Al6 2.995267 1_565
Al14 Al7 2.995267 1_556
Al14 Zr0 3.010741 1_566
Al14 Tb3 3.039401 1_565
Al14 Tb3 3.039401 1_556
Al14 Tb1 3.057313 1_566
