# generated using pymatgen
data_Ca2AlSi2O7
_symmetry_space_group_name_H-M   'P 1'
_cell_length_a   7.78737900
_cell_length_b   7.78737900
_cell_length_c   5.08893500
_cell_angle_alpha   90.00000000
_cell_angle_beta   90.00000000
_cell_angle_gamma   90.00000000
_symmetry_Int_Tables_number   1
_chemical_formula_structural   Ca2AlSi2O7
_chemical_formula_sum   'Ca4 Al2 Si4 O14'
_cell_volume   308.60966782
_cell_formula_units_Z   2
loop_
 _symmetry_equiv_pos_site_id
 _symmetry_equiv_pos_as_xyz
  1  'x, y, z'
loop_
 _atom_site_type_symbol
 _atom_site_label
 _atom_site_symmetry_multiplicity
 _atom_site_fract_x
 _atom_site_fract_y
 _atom_site_fract_z
 _atom_site_occupancy
  Ca  Ca0  1  0.16410100  0.33589900  0.51362700  1
  Ca  Ca1  1  0.83589900  0.66410100  0.51362700  1
  Ca  Ca2  1  0.66410100  0.16410100  0.48637300  1
  Ca  Ca3  1  0.33589900  0.83589900  0.48637300  1
  Al  Al0  1  0.00000000  0.00000000  0.00000000  1
  Al  Al1  1  0.50000000  0.50000000  0.00000000  1
  Si  Si0  1  0.64154100  0.85845900  0.96182100  1
  Si  Si1  1  0.35845900  0.14154100  0.96182100  1
  Si  Si2  1  0.14154100  0.64154100  0.03817900  1
  Si  Si3  1  0.85845900  0.35845900  0.03817900  1
  O  O0  1  0.00000000  0.50000000  0.17304400  1
  O  O1  1  0.50000000  0.00000000  0.82695600  1
  O  O2  1  0.08332600  0.82396100  0.19152700  1
  O  O3  1  0.91667400  0.17603900  0.19152700  1
  O  O4  1  0.17603900  0.08332600  0.80847300  1
  O  O5  1  0.41667400  0.32396100  0.80847300  1
  O  O6  1  0.82396100  0.91667400  0.80847300  1
  O  O7  1  0.58332600  0.67603900  0.80847300  1
  O  O8  1  0.32396100  0.58332600  0.19152700  1
  O  O9  1  0.67603900  0.41667400  0.19152700  1
  O  O10  1  0.63630600  0.86369400  0.28057300  1
  O  O11  1  0.36369400  0.13630600  0.28057300  1
  O  O12  1  0.13630600  0.63630600  0.71942700  1
  O  O13  1  0.86369400  0.36369400  0.71942700  1
loop_
_geom_bond_atom_site_label_1
_geom_bond_atom_site_label_2
_geom_bond_distance
_geom_bond_site_symmetry_2
Ca0 O4 2.475606 1_555
Ca0 O5 2.475606 1_555
Ca0 O11 2.497664 1_555
Ca0 O0 2.504025 1_555
Ca0 O12 2.572238 1_555
Ca0 O13 2.572238 1_455
Ca0 O3 2.819422 1_455
Ca0 O8 2.819422 1_555
Ca1 O6 2.475606 1_555
Ca1 O7 2.475606 1_555
Ca1 O10 2.497664 1_555
Ca1 O0 2.504025 1_655
Ca1 O13 2.572238 1_555
Ca1 O12 2.572238 1_655
Ca1 O9 2.819422 1_555
Ca1 O2 2.819422 1_655
Ca2 O3 2.475606 1_555
Ca2 O9 2.475606 1_555
Ca2 O13 2.497664 1_555
Ca2 O1 2.504025 1_555
Ca2 O11 2.572238 1_555
Ca2 O10 2.572238 1_545
Ca2 O6 2.819422 1_545
Ca2 O5 2.819422 1_555
Ca3 O8 2.475606 1_555
Ca3 O2 2.475606 1_555
Ca3 O12 2.497664 1_555
Ca3 O1 2.504025 1_565
Ca3 O10 2.572238 1_555
Ca3 O11 2.572238 1_565
Ca3 O7 2.819422 1_555
Ca3 O4 2.819422 1_565
Al0 O6 1.802875 1_444
Al0 O2 1.802875 1_545
Al0 O4 1.802875 1_554
Al0 O3 1.802875 1_455
Al1 O7 1.802875 1_554
Al1 O9 1.802875 1_555
Al1 O5 1.802875 1_554
Al1 O8 1.802875 1_555
O0 Si3 1.703194 1_455
O0 Si2 1.703194 1_555
O1 Si1 1.703194 1_555
O1 Si0 1.703194 1_545
O2 Si2 1.683015 1_555
O3 Si3 1.683015 1_555
O4 Si1 1.683015 1_555
O5 Si1 1.683015 1_555
O6 Si0 1.683015 1_555
O7 Si0 1.683015 1_555
O8 Si2 1.683015 1_555
O9 Si3 1.683015 1_555
O10 Si0 1.623132 1_554
O11 Si1 1.623132 1_554
O12 Si2 1.623132 1_556
O13 Si3 1.623132 1_556
