# generated using pymatgen
data_Lu4Ga21Ni10
_symmetry_space_group_name_H-M   'P 1'
_cell_length_a   10.49622975
_cell_length_b   10.49622975
_cell_length_c   15.38387765
_cell_angle_alpha   56.95695866
_cell_angle_beta   56.95695866
_cell_angle_gamma   22.09132710
_symmetry_Int_Tables_number   1
_chemical_formula_structural   Lu4Ga21Ni10
_chemical_formula_sum   'Lu4 Ga21 Ni10'
_cell_volume   529.98920553
_cell_formula_units_Z   1
loop_
 _symmetry_equiv_pos_site_id
 _symmetry_equiv_pos_as_xyz
  1  'x, y, z'
loop_
 _atom_site_type_symbol
 _atom_site_label
 _atom_site_symmetry_multiplicity
 _atom_site_fract_x
 _atom_site_fract_y
 _atom_site_fract_z
 _atom_site_occupancy
  Lu  Lu0  1  0.87990700  0.87990700  0.33322500  1
  Lu  Lu1  1  0.12009300  0.12009300  0.66677500  1
  Lu  Lu2  1  0.22964600  0.22964600  0.17516400  1
  Lu  Lu3  1  0.77035400  0.77035400  0.82483600  1
  Ga  Ga0  1  0.45900600  0.45900600  0.36862200  1
  Ga  Ga1  1  0.54099400  0.54099400  0.63137800  1
  Ga  Ga2  1  0.79803900  0.79803900  0.00412300  1
  Ga  Ga3  1  0.20196100  0.20196100  0.99587700  1
  Ga  Ga4  1  0.70194600  0.70194600  0.49760100  1
  Ga  Ga5  1  0.29805400  0.29805400  0.50239900  1
  Ga  Ga6  1  0.88364800  0.88364800  0.55151500  1
  Ga  Ga7  1  0.11635200  0.11635200  0.44848500  1
  Ga  Ga8  1  0.61563800  0.61563800  0.29729200  1
  Ga  Ga9  1  0.38436200  0.38436200  0.70270800  1
  Ga  Ga10  1  0.75222400  0.75222400  0.29364000  1
  Ga  Ga11  1  0.24777600  0.24777600  0.70636000  1
  Ga  Ga12  1  0.60245500  0.60245500  0.00261000  1
  Ga  Ga13  1  0.39754500  0.39754500  0.99739000  1
  Ga  Ga14  1  0.99356200  0.99356200  0.09103500  1
  Ga  Ga15  1  0.00643800  0.00643800  0.90896500  1
  Ga  Ga16  1  0.93527200  0.93527200  0.79571800  1
  Ga  Ga17  1  0.06472800  0.06472800  0.20428200  1
  Ga  Ga18  1  0.50000000  0.50000000  0.50000000  1
  Ga  Ga19  1  0.37219600  0.37219600  0.19704100  1
  Ga  Ga20  1  0.62780400  0.62780400  0.80295900  1
  Ni  Ni0  1  0.49754500  0.49754500  0.18628200  1
  Ni  Ni1  1  0.50245500  0.50245500  0.81371800  1
  Ni  Ni2  1  0.86582000  0.86582000  0.10536300  1
  Ni  Ni3  1  0.13418000  0.13418000  0.89463700  1
  Ni  Ni4  1  0.75009800  0.75009800  0.61457400  1
  Ni  Ni5  1  0.24990200  0.24990200  0.38542600  1
  Ni  Ni6  1  0.65289600  0.65289600  0.11471100  1
  Ni  Ni7  1  0.34710400  0.34710400  0.88528900  1
  Ni  Ni8  1  0.97538100  0.97538100  0.60805000  1
  Ni  Ni9  1  0.02461900  0.02461900  0.39195000  1
loop_
_geom_bond_atom_site_label_1
_geom_bond_atom_site_label_2
_geom_bond_distance
_geom_bond_site_symmetry_2
Lu0 Ni0 2.990135 1_655
Lu0 Ni0 2.990135 1_565
Lu0 Ni5 3.077925 1_655
Lu0 Ni5 3.077925 1_565
Lu1 Ni1 2.990135 1_455
Lu1 Ni1 2.990135 1_545
Lu1 Ni4 3.077925 1_455
Lu1 Ni4 3.077925 1_545
Lu2 Ni6 3.007259 1_455
Lu2 Ni6 3.007259 1_545
Lu2 Ni2 3.117913 1_455
Lu2 Ni2 3.117913 1_545
Lu3 Ni7 3.007259 1_655
Lu3 Ni7 3.007259 1_565
Lu3 Ni3 3.117913 1_565
Lu3 Ni3 3.117913 1_655
Ga0 Ni0 2.454424 1_555
Ga0 Ni9 2.557234 1_655
Ga0 Ni9 2.557234 1_565
Ga0 Ga18 2.587471 1_555
Ga0 Ga5 2.765750 1_555
Ga0 Ga8 2.772006 1_555
Ga0 Lu0 2.825359 1_545
Ga0 Lu0 2.825359 1_455
Ga0 Ga17 3.010248 1_565
Ga0 Ga17 3.010248 1_655
Ga0 Ga6 3.084991 1_545
Ga0 Ga6 3.084991 1_455
Ga1 Ni1 2.454424 1_555
Ga1 Ni8 2.557234 1_545
Ga1 Ni8 2.557234 1_455
Ga1 Ga18 2.587471 1_555
Ga1 Ga4 2.765750 1_555
Ga1 Ga9 2.772006 1_555
Ga1 Lu1 2.825359 1_655
Ga1 Lu1 2.825359 1_565
Ga1 Ga16 3.010248 1_545
Ga1 Ga16 3.010248 1_455
Ga1 Ga7 3.084991 1_565
Ga1 Ga7 3.084991 1_655
Ga2 Ni6 2.486819 1_555
Ga2 Ni7 2.520837 1_654
Ga2 Ni7 2.520837 1_564
Ga2 Ni2 2.606287 1_555
Ga2 Ga3 2.873638 1_564
Ga2 Ga3 2.873638 1_654
Ga2 Lu2 2.972119 1_655
Ga2 Lu2 2.972119 1_565
Ga2 Lu3 3.111387 1_554
Ga3 Ni7 2.486819 1_555
Ga3 Ni6 2.520837 1_456
Ga3 Ni6 2.520837 1_546
Ga3 Ni3 2.606287 1_555
Ga3 Lu3 2.972119 1_455
Ga3 Lu3 2.972119 1_545
Ga3 Lu2 3.111387 1_556
Ga4 Ni5 2.470581 1_655
Ga4 Ni5 2.470581 1_565
Ga4 Ni4 2.491211 1_555
Ga4 Ga5 2.851838 1_565
Ga4 Ga5 2.851838 1_655
Ga4 Lu1 2.963894 1_565
Ga4 Lu1 2.963894 1_655
Ga4 Ga7 3.034084 1_655
Ga4 Ga7 3.034084 1_565
Ga4 Lu0 3.088113 1_555
Ga5 Ni4 2.470581 1_545
Ga5 Ni4 2.470581 1_455
Ga5 Ni5 2.491211 1_555
Ga5 Lu0 2.963894 1_545
Ga5 Lu0 2.963894 1_455
Ga5 Ga6 3.034084 1_545
Ga5 Ga6 3.034084 1_455
Ga5 Lu1 3.088113 1_555
Ga6 Ni4 2.355098 1_555
Ga6 Ni8 2.480947 1_555
Ga6 Ni9 2.557304 1_665
Ga6 Ga9 3.080953 1_655
Ga6 Ga9 3.080953 1_565
Ga6 Lu0 3.401572 1_555
Ga7 Ni5 2.355098 1_555
Ga7 Ni9 2.480947 1_555
Ga7 Ni8 2.557304 1_445
Ga7 Ga8 3.080953 1_455
Ga7 Ga8 3.080953 1_545
Ga7 Lu1 3.401572 1_555
Ga8 Ni6 2.466352 1_555
Ga8 Ni9 2.578199 1_655
Ga8 Ni9 2.578199 1_565
Ga8 Lu2 2.861463 1_565
Ga8 Lu2 2.861463 1_655
Ga9 Ni7 2.466352 1_555
Ga9 Ni8 2.578199 1_455
Ga9 Ni8 2.578199 1_545
Ga9 Lu3 2.861463 1_545
Ga9 Lu3 2.861463 1_455
Ga10 Ni5 2.442357 1_565
Ga10 Ni5 2.442357 1_655
Ga10 Ni2 2.516908 1_555
Ga10 Ga4 2.703104 1_555
Ga10 Ga8 2.783339 1_555
Ga10 Ga19 2.877670 1_565
Ga10 Ga19 2.877670 1_655
Ga10 Lu2 2.919672 1_655
Ga10 Lu2 2.919672 1_565
Ga10 Lu0 3.011913 1_555
Ga11 Ni4 2.442357 1_545
Ga11 Ni4 2.442357 1_455
Ga11 Ni3 2.516908 1_555
Ga11 Ga5 2.703104 1_555
Ga11 Ga9 2.783339 1_555
Ga11 Ga20 2.877670 1_455
Ga11 Ga20 2.877670 1_545
Ga11 Lu3 2.919672 1_455
Ga11 Lu3 2.919672 1_545
Ga11 Lu1 3.011913 1_555
Ga12 Ni0 2.422781 1_555
Ga12 Ni3 2.454384 1_564
Ga12 Ni3 2.454384 1_654
Ga12 Ni6 2.458772 1_555
Ga12 Ga14 2.745373 1_455
Ga12 Ga14 2.745373 1_545
Ga12 Ga20 2.814947 1_554
Ga12 Ga3 2.832326 1_654
Ga12 Ga3 2.832326 1_564
Ga12 Lu3 2.989028 1_554
Ga13 Ni1 2.422781 1_555
Ga13 Ni2 2.454384 1_456
Ga13 Ni2 2.454384 1_546
Ga13 Ni7 2.458772 1_555
Ga13 Ga15 2.745373 1_565
Ga13 Ga15 2.745373 1_655
Ga13 Ga19 2.814947 1_556
Ga13 Ga2 2.832326 1_546
Ga13 Ga2 2.832326 1_456
Ga13 Lu2 2.989028 1_556
Ga14 Ni2 2.516168 1_555
Ga14 Ni0 2.516231 1_565
Ga14 Ni0 2.516231 1_655
Ga14 Ga15 2.662710 1_664
Ga14 Ni3 2.792183 1_664
Ga14 Ga17 2.832581 1_665
Ga14 Ga19 2.902645 1_565
Ga14 Ga19 2.902645 1_655
Ga14 Lu0 3.109829 1_555
Ga15 Ni3 2.516168 1_555
Ga15 Ni1 2.516231 1_455
Ga15 Ni1 2.516231 1_545
Ga15 Ni2 2.792183 1_446
Ga15 Ga16 2.832581 1_445
Ga15 Ga20 2.902645 1_545
Ga15 Ga20 2.902645 1_455
Ga15 Lu1 3.109829 1_555
Ga16 Ni8 2.523309 1_555
Ga16 Ni7 2.541939 1_655
Ga16 Ni7 2.541939 1_565
Ga16 Ni1 2.542179 1_655
Ga16 Ni1 2.542179 1_565
Ga16 Ga2 2.863764 1_556
Ga16 Ga9 2.976458 1_565
Ga16 Ga9 2.976458 1_655
Ga16 Lu1 3.168984 1_665
Ga16 Lu3 3.170987 1_555
Ga17 Ni9 2.523309 1_555
Ga17 Ni6 2.541939 1_455
Ga17 Ni6 2.541939 1_545
Ga17 Ni0 2.542179 1_545
Ga17 Ni0 2.542179 1_455
Ga17 Ga3 2.863764 1_554
Ga17 Ga8 2.976458 1_455
Ga17 Ga8 2.976458 1_545
Ga17 Lu0 3.168984 1_445
Ga17 Lu2 3.170987 1_555
Ga18 Ni8 2.475383 1_545
Ga18 Ni8 2.475383 1_455
Ga18 Ni9 2.475383 1_655
Ga18 Ni9 2.475383 1_565
Ga18 Ga9 2.673153 1_555
Ga18 Ga8 2.673153 1_555
Ga18 Ga7 2.882371 1_655
Ga18 Ga7 2.882371 1_565
Ga18 Ga6 2.882371 1_455
Ga18 Ga6 2.882371 1_545
Ga19 Ni0 2.494482 1_555
Ga19 Ni2 2.501262 1_545
Ga19 Ni2 2.501262 1_455
Ga19 Ni5 2.575664 1_555
Ga19 Lu0 2.971250 1_455
Ga19 Lu0 2.971250 1_545
Ga19 Lu2 3.136523 1_555
Ga20 Ni1 2.494482 1_555
Ga20 Ni3 2.501262 1_655
Ga20 Ni3 2.501262 1_565
Ga20 Ni4 2.575664 1_555
Ga20 Lu1 2.971250 1_565
Ga20 Lu1 2.971250 1_655
Ga20 Lu3 3.136523 1_555
Ni0 Ni6 2.746181 1_555
Ni1 Ni7 2.746181 1_555
