# generated using pymatgen
data_LuGeIr
_symmetry_space_group_name_H-M   'P 1'
_cell_length_a   4.21511137
_cell_length_b   6.69772823
_cell_length_c   7.54660545
_cell_angle_alpha   90.00000000
_cell_angle_beta   90.00000000
_cell_angle_gamma   90.00000000
_symmetry_Int_Tables_number   1
_chemical_formula_structural   LuGeIr
_chemical_formula_sum   'Lu4 Ge4 Ir4'
_cell_volume   213.05327782
_cell_formula_units_Z   4
loop_
 _symmetry_equiv_pos_site_id
 _symmetry_equiv_pos_as_xyz
  1  'x, y, z'
loop_
 _atom_site_type_symbol
 _atom_site_label
 _atom_site_symmetry_multiplicity
 _atom_site_fract_x
 _atom_site_fract_y
 _atom_site_fract_z
 _atom_site_occupancy
  Lu  Lu0  1  0.75000000  0.50939736  0.19166598  1
  Lu  Lu1  1  0.25000000  0.99060264  0.69166598  1
  Lu  Lu2  1  0.75000000  0.00939736  0.30833402  1
  Lu  Lu3  1  0.25000000  0.49060264  0.80833402  1
  Ge  Ge0  1  0.25000000  0.71203612  0.38488456  1
  Ge  Ge1  1  0.25000000  0.21203612  0.11511544  1
  Ge  Ge2  1  0.75000000  0.28796388  0.61511544  1
  Ge  Ge3  1  0.75000000  0.78796388  0.88488456  1
  Ir  Ir0  1  0.25000000  0.83882412  0.06247870  1
  Ir  Ir1  1  0.25000000  0.33882412  0.43752130  1
  Ir  Ir2  1  0.75000000  0.66117588  0.56247870  1
  Ir  Ir3  1  0.75000000  0.16117588  0.93752130  1
loop_
_geom_bond_atom_site_label_1
_geom_bond_atom_site_label_2
_geom_bond_distance
_geom_bond_site_symmetry_2
Ge0 Ir2 2.520725 1_555
Ge0 Ir2 2.520725 1_455
Ge0 Ir1 2.531038 1_555
Ge0 Ir0 2.577005 1_555
Ge0 Lu0 2.900004 1_455
Ge0 Lu0 2.900004 1_555
Ge0 Lu2 2.956717 1_465
Ge0 Lu2 2.956717 1_565
Ge0 Lu1 2.973387 1_555
Ge1 Ir3 2.520725 1_554
Ge1 Ir3 2.520725 1_454
Ge1 Ir0 2.531038 1_545
Ge1 Ir1 2.577005 1_555
Ge1 Lu2 2.900004 1_555
Ge1 Lu2 2.900004 1_455
Ge1 Lu0 2.956717 1_455
Ge1 Lu0 2.956717 1_555
Ge1 Lu3 2.973387 1_554
Ge2 Ir1 2.520725 1_655
Ge2 Ir1 2.520725 1_555
Ge2 Ir2 2.531038 1_555
Ge2 Ir3 2.577005 1_555
Ge2 Lu3 2.900004 1_655
Ge2 Lu3 2.900004 1_555
Ge2 Lu1 2.956717 1_545
Ge2 Lu1 2.956717 1_645
Ge2 Lu2 2.973387 1_555
Ge3 Ir0 2.520725 1_656
Ge3 Ir0 2.520725 1_556
Ge3 Ir3 2.531038 1_565
Ge3 Ir2 2.577005 1_555
Ge3 Lu1 2.900004 1_655
Ge3 Lu1 2.900004 1_555
Ge3 Lu3 2.956717 1_655
Ge3 Lu3 2.956717 1_555
Ge3 Lu0 2.973387 1_556
Ir0 Lu1 2.977303 1_554
Ir0 Lu3 3.019610 1_554
Ir0 Lu2 3.031402 1_565
Ir0 Lu2 3.031402 1_465
Ir0 Lu0 3.203205 1_455
Ir0 Lu0 3.203205 1_555
Ir1 Lu3 2.977303 1_555
Ir1 Lu1 3.019610 1_545
Ir1 Lu0 3.031402 1_455
Ir1 Lu0 3.031402 1_555
Ir1 Lu2 3.203205 1_555
Ir1 Lu2 3.203205 1_455
Ir2 Lu0 2.977303 1_555
Ir2 Lu2 3.019610 1_565
Ir2 Lu3 3.031402 1_655
Ir2 Lu3 3.031402 1_555
Ir2 Lu1 3.203205 1_555
Ir2 Lu1 3.203205 1_655
Ir3 Lu2 2.977303 1_556
Ir3 Lu0 3.019610 1_556
Ir3 Lu1 3.031402 1_545
Ir3 Lu1 3.031402 1_645
Ir3 Lu3 3.203205 1_555
Ir3 Lu3 3.203205 1_655
