# generated using pymatgen
data_Ba2CaCuNi2F14
_symmetry_space_group_name_H-M   'P 1'
_cell_length_a   5.40124500
_cell_length_b   7.37713042
_cell_length_c   14.88012529
_cell_angle_alpha   91.94929723
_cell_angle_beta   90.38627642
_cell_angle_gamma   111.11701354
_symmetry_Int_Tables_number   1
_chemical_formula_structural   Ba2CaCuNi2F14
_chemical_formula_sum   'Ba4 Ca2 Cu2 Ni4 F28'
_cell_volume   552.65817008
_cell_formula_units_Z   2
loop_
 _symmetry_equiv_pos_site_id
 _symmetry_equiv_pos_as_xyz
  1  'x, y, z'
loop_
 _atom_site_type_symbol
 _atom_site_label
 _atom_site_symmetry_multiplicity
 _atom_site_fract_x
 _atom_site_fract_y
 _atom_site_fract_z
 _atom_site_occupancy
  Ba  Ba0  1  0.13317200  0.38341300  0.62520700  1
  Ba  Ba1  1  0.24624500  0.38345400  0.12177300  1
  Ba  Ba2  1  0.86826800  0.61209600  0.37861800  1
  Ba  Ba3  1  0.74963000  0.61160000  0.87610300  1
  Ca  Ca0  1  0.42061700  0.00604700  0.75235200  1
  Ca  Ca1  1  0.58235800  0.00450600  0.25176600  1
  Cu  Cu0  1  0.49883100  0.00497500  0.99988800  1
  Cu  Cu1  1  0.50117600  0.00077500  0.50058700  1
  Ni  Ni0  1  0.10104600  0.23704700  0.87583900  1
  Ni  Ni1  1  0.89889700  0.76183500  0.12444800  1
  Ni  Ni2  1  0.14104500  0.24091100  0.37591500  1
  Ni  Ni3  1  0.85835500  0.75961600  0.62501900  1
  F  F0  1  0.93189600  0.98873200  0.34572200  1
  F  F1  1  0.87430500  0.26574600  0.45479900  1
  F  F2  1  0.12647300  0.73535600  0.54607800  1
  F  F3  1  0.67065100  0.49963800  0.59135700  1
  F  F4  1  0.61290600  0.11053000  0.61591300  1
  F  F5  1  0.49859400  0.88623200  0.88515200  1
  F  F6  1  0.39150400  0.23918100  0.95688900  1
  F  F7  1  0.94468300  0.01712100  0.15733900  1
  F  F8  1  0.37238500  0.31931900  0.77548200  1
  F  F9  1  0.32963600  0.49605200  0.40611600  1
  F  F10  1  0.83139400  0.24685700  0.79215400  1
  F  F11  1  0.18024900  0.50124100  0.91128600  1
  F  F12  1  0.41278600  0.24510100  0.29313300  1
  F  F13  1  0.16715100  0.75210700  0.20543200  1
  F  F14  1  0.49862100  0.11207600  0.11758700  1
  F  F15  1  0.63981900  0.68443500  0.22222400  1
  F  F16  1  0.13219900  0.83170700  0.02008300  1
  F  F17  1  0.07309400  0.01561800  0.65519500  1
  F  F18  1  0.86374600  0.16640100  0.98502000  1
  F  F19  1  0.69664800  0.83057100  0.51713500  1
  F  F20  1  0.60582400  0.74808400  0.04586300  1
  F  F21  1  0.58473400  0.75372000  0.70540800  1
  F  F22  1  0.95228700  0.32012200  0.27574300  1
  F  F23  1  0.30552500  0.16801700  0.48344700  1
  F  F24  1  0.38808600  0.88621600  0.38498200  1
  F  F25  1  0.05439200  0.97579000  0.84249800  1
  F  F26  1  0.04385900  0.68127800  0.72200300  1
  F  F27  1  0.82032300  0.50094200  0.09009900  1
loop_
_geom_bond_atom_site_label_1
_geom_bond_atom_site_label_2
_geom_bond_distance
_geom_bond_site_symmetry_2
Ba0 F17 2.667616 1_555
Ba0 F8 2.714096 1_555
Ba0 F3 2.769868 1_555
Ba0 F26 2.773743 1_555
Ba0 F4 2.804987 1_455
Ba0 F1 2.840094 1_455
Ba0 F2 2.898915 1_555
Ba0 F23 2.950501 1_555
Ba0 F3 2.964052 1_455
Ba0 F10 2.980698 1_455
Ba0 F21 3.126295 1_555
Ba1 F7 2.678381 1_455
Ba1 F22 2.752393 1_455
Ba1 F27 2.777691 1_455
Ba1 F14 2.798044 1_555
Ba1 F15 2.830831 1_555
Ba1 F6 2.866701 1_554
Ba1 F18 2.882881 1_454
Ba1 F27 2.949398 1_555
Ba1 F20 2.958976 1_555
Ba1 F12 3.026601 1_555
Ba1 F13 3.121284 1_555
Ba1 F11 3.329453 1_554
Ba2 F0 2.735780 1_555
Ba2 F9 2.758537 1_555
Ba2 F22 2.770930 1_555
Ba2 F15 2.782667 1_555
Ba2 F2 2.804685 1_655
Ba2 F24 2.806001 1_655
Ba2 F1 2.840955 1_555
Ba2 F19 2.929420 1_555
Ba2 F9 2.942342 1_655
Ba2 F13 3.057734 1_655
Ba2 F12 3.150331 1_555
Ba3 F25 2.663412 1_655
Ba3 F26 2.754718 1_655
Ba3 F8 2.759760 1_555
Ba3 F11 2.779135 1_655
Ba3 F5 2.815061 1_555
Ba3 F20 2.900853 1_556
Ba3 F11 2.939626 1_555
Ba3 F16 2.963522 1_656
Ba3 F6 3.026812 1_555
Ba3 F21 3.027768 1_555
Ba3 F10 3.103328 1_555
Ca0 F5 2.288970 1_545
Ca0 F4 2.313589 1_555
Ca0 F25 2.345187 1_545
Ca0 F10 2.345208 1_555
Ca0 F17 2.384167 1_555
Ca0 F21 2.418170 1_545
Ca0 F8 2.430674 1_555
Ca0 F26 2.546792 1_545
Ca1 F14 2.274848 1_555
Ca1 F24 2.297366 1_545
Ca1 F12 2.339372 1_555
Ca1 F0 2.380390 1_545
Ca1 F7 2.393228 1_555
Ca1 F13 2.419654 1_545
Ca1 F22 2.474371 1_555
Ca1 F15 2.514780 1_545
Cu0 F5 1.891981 1_545
Cu0 F14 1.896868 1_556
Cu0 F18 1.919496 1_555
Cu0 F16 1.963646 1_546
Cu0 F6 2.126620 1_555
Cu0 F20 2.294656 1_546
Cu1 F4 1.871919 1_555
Cu1 F24 1.887180 1_545
Cu1 F23 1.913422 1_555
Cu1 F19 1.929933 1_545
Cu1 F1 2.370102 1_555
Cu1 F2 2.375159 1_545
F0 Ni2 1.833283 1_665
F1 Ni2 1.919751 1_655
F2 Ni3 1.924687 1_455
F3 Ni3 1.866497 1_555
F6 Ni0 1.967590 1_555
F7 Ni1 1.856746 1_545
F8 Ni0 2.048540 1_555
F9 Ni2 1.826764 1_555
F10 Ni0 1.932552 1_655
F11 Ni0 1.893686 1_555
F12 Ni2 1.914900 1_555
F13 Ni1 1.901024 1_455
F15 Ni1 1.977176 1_555
F16 Ni1 1.969294 1_455
F17 Ni3 1.862930 1_445
F18 Ni0 2.039162 1_655
F19 Ni3 1.995399 1_555
F20 Ni1 1.932539 1_555
F21 Ni3 1.896843 1_555
F22 Ni2 2.017609 1_655
F23 Ni2 2.005569 1_555
F25 Ni0 1.899353 1_565
F26 Ni3 1.968499 1_455
F27 Ni1 1.867405 1_555
