# generated using pymatgen
data_Zn7GeN6
_symmetry_space_group_name_H-M   'P 1'
_cell_length_a   10.55641600
_cell_length_b   5.74649100
_cell_length_c   12.51721200
_cell_angle_alpha   90.00000000
_cell_angle_beta   90.00000000
_cell_angle_gamma   90.00000000
_symmetry_Int_Tables_number   1
_chemical_formula_structural   Zn7GeN6
_chemical_formula_sum   'Zn28 Ge4 N24'
_cell_volume   759.32348956
_cell_formula_units_Z   4
loop_
 _symmetry_equiv_pos_site_id
 _symmetry_equiv_pos_as_xyz
  1  'x, y, z'
loop_
 _atom_site_type_symbol
 _atom_site_label
 _atom_site_symmetry_multiplicity
 _atom_site_fract_x
 _atom_site_fract_y
 _atom_site_fract_z
 _atom_site_occupancy
  Zn  Zn0  1  0.96987100  0.75285400  0.04254300  1
  Zn  Zn1  1  0.53012900  0.74714600  0.54254300  1
  Zn  Zn2  1  0.46987100  0.74714600  0.95745700  1
  Zn  Zn3  1  0.03012900  0.75285400  0.45745700  1
  Zn  Zn4  1  0.03012900  0.24714600  0.95745700  1
  Zn  Zn5  1  0.46987100  0.25285400  0.45745700  1
  Zn  Zn6  1  0.53012900  0.25285400  0.04254300  1
  Zn  Zn7  1  0.96987100  0.24714600  0.54254300  1
  Zn  Zn8  1  0.23986700  0.65249000  0.65573700  1
  Zn  Zn9  1  0.26013300  0.84751000  0.15573700  1
  Zn  Zn10  1  0.73986700  0.84751000  0.34426300  1
  Zn  Zn11  1  0.76013300  0.65249000  0.84426300  1
  Zn  Zn12  1  0.76013300  0.34751000  0.34426300  1
  Zn  Zn13  1  0.73986700  0.15249000  0.84426300  1
  Zn  Zn14  1  0.26013300  0.15249000  0.65573700  1
  Zn  Zn15  1  0.23986700  0.34751000  0.15573700  1
  Zn  Zn16  1  0.20556300  0.68001900  0.92559600  1
  Zn  Zn17  1  0.29443700  0.81998100  0.42559600  1
  Zn  Zn18  1  0.70556300  0.81998100  0.07440400  1
  Zn  Zn19  1  0.79443700  0.68001900  0.57440400  1
  Zn  Zn20  1  0.79443700  0.31998100  0.07440400  1
  Zn  Zn21  1  0.70556300  0.18001900  0.57440400  1
  Zn  Zn22  1  0.29443700  0.18001900  0.92559600  1
  Zn  Zn23  1  0.20556300  0.31998100  0.42559600  1
  Zn  Zn24  1  0.00000000  0.42250300  0.75000000  1
  Zn  Zn25  1  0.50000000  0.07749700  0.25000000  1
  Zn  Zn26  1  0.00000000  0.57749700  0.25000000  1
  Zn  Zn27  1  0.50000000  0.92250300  0.75000000  1
  Ge  Ge0  1  0.00000000  0.91344800  0.75000000  1
  Ge  Ge1  1  0.50000000  0.58655200  0.25000000  1
  Ge  Ge2  1  0.00000000  0.08655200  0.25000000  1
  Ge  Ge3  1  0.50000000  0.41344800  0.75000000  1
  N  N0  1  0.12800900  0.69482600  0.78331600  1
  N  N1  1  0.37199100  0.80517400  0.28331600  1
  N  N2  1  0.62800900  0.80517400  0.21668400  1
  N  N3  1  0.87199100  0.69482600  0.71668400  1
  N  N4  1  0.87199100  0.30517400  0.21668400  1
  N  N5  1  0.62800900  0.19482600  0.71668400  1
  N  N6  1  0.37199100  0.19482600  0.78331600  1
  N  N7  1  0.12800900  0.30517400  0.28331600  1
  N  N8  1  0.17623900  0.61180200  0.50861900  1
  N  N9  1  0.32376100  0.88819800  0.00861900  1
  N  N10  1  0.67623900  0.88819800  0.49138100  1
  N  N11  1  0.82376100  0.61180200  0.99138100  1
  N  N12  1  0.82376100  0.38819800  0.49138100  1
  N  N13  1  0.67623900  0.11180200  0.99138100  1
  N  N14  1  0.32376100  0.11180200  0.50861900  1
  N  N15  1  0.17623900  0.38819800  0.00861900  1
  N  N16  1  0.43018500  0.63742700  0.65498700  1
  N  N17  1  0.06981500  0.86257300  0.15498700  1
  N  N18  1  0.93018500  0.86257300  0.34501300  1
  N  N19  1  0.56981500  0.63742700  0.84501300  1
  N  N20  1  0.56981500  0.36257300  0.34501300  1
  N  N21  1  0.93018500  0.13742700  0.84501300  1
  N  N22  1  0.06981500  0.13742700  0.65498700  1
  N  N23  1  0.43018500  0.36257300  0.15498700  1
loop_
_geom_bond_atom_site_label_1
_geom_bond_atom_site_label_2
_geom_bond_distance
_geom_bond_site_symmetry_2
Ge0 N0 1.891634 1_555
Ge0 N3 1.891634 1_455
Ge0 N22 1.901105 1_565
Ge0 N21 1.901105 1_465
Ge1 N2 1.891634 1_555
Ge1 N1 1.891634 1_555
Ge1 N20 1.901105 1_555
Ge1 N23 1.901105 1_555
Ge2 N7 1.891634 1_555
Ge2 N4 1.891634 1_455
Ge2 N18 1.901105 1_445
Ge2 N17 1.901105 1_545
Ge3 N5 1.891634 1_555
Ge3 N6 1.891634 1_555
Ge3 N19 1.901105 1_555
Ge3 N16 1.901105 1_555
N0 Zn16 1.961957 1_555
N0 Zn8 2.000929 1_555
N0 Zn24 2.109237 1_555
N1 Zn17 1.961957 1_555
N1 Zn9 2.000929 1_555
N1 Zn25 2.109237 1_565
N2 Zn18 1.961957 1_555
N2 Zn10 2.000929 1_555
N2 Zn25 2.109237 1_565
N3 Zn19 1.961957 1_555
N3 Zn11 2.000929 1_555
N3 Zn24 2.109237 1_655
N4 Zn20 1.961957 1_555
N4 Zn12 2.000929 1_555
N4 Zn26 2.109237 1_655
N5 Zn21 1.961957 1_555
N5 Zn13 2.000929 1_555
N5 Zn27 2.109237 1_545
N6 Zn22 1.961957 1_555
N6 Zn14 2.000929 1_555
N6 Zn27 2.109237 1_545
N7 Zn23 1.961957 1_555
N7 Zn15 2.000929 1_555
N7 Zn26 2.109237 1_555
N8 Zn3 1.856370 1_555
N8 Zn8 1.974076 1_555
N8 Zn23 1.996984 1_555
N8 Zn17 2.016922 1_555
N9 Zn2 1.856370 1_554
N9 Zn9 1.974076 1_555
N9 Zn22 1.996984 1_564
N9 Zn16 2.016922 1_554
N10 Zn1 1.856370 1_555
N10 Zn10 1.974076 1_555
N10 Zn21 1.996984 1_565
N10 Zn19 2.016922 1_555
N11 Zn0 1.856370 1_556
N11 Zn11 1.974076 1_555
N11 Zn20 1.996984 1_556
N11 Zn18 2.016922 1_556
N12 Zn7 1.856370 1_555
N12 Zn12 1.974076 1_555
N12 Zn19 1.996984 1_555
N12 Zn21 2.016922 1_555
N13 Zn6 1.856370 1_556
N13 Zn13 1.974076 1_555
N13 Zn18 1.996984 1_546
N13 Zn20 2.016922 1_556
N14 Zn5 1.856370 1_555
N14 Zn14 1.974076 1_555
N14 Zn17 1.996984 1_545
N14 Zn23 2.016922 1_555
N15 Zn4 1.856370 1_554
N15 Zn15 1.974076 1_555
N15 Zn16 1.996984 1_554
N15 Zn22 2.016922 1_554
N16 Zn1 1.868603 1_555
N16 Zn8 2.010962 1_555
N16 Zn27 2.154356 1_555
N17 Zn0 1.868603 1_455
N17 Zn9 2.010962 1_555
N17 Zn26 2.154356 1_555
N18 Zn3 1.868603 1_655
N18 Zn10 2.010962 1_555
N18 Zn26 2.154356 1_655
N19 Zn2 1.868603 1_555
N19 Zn11 2.010962 1_555
N19 Zn27 2.154356 1_555
N20 Zn5 1.868603 1_555
N20 Zn12 2.010962 1_555
N20 Zn25 2.154356 1_555
N21 Zn4 1.868603 1_655
N21 Zn13 2.010962 1_555
N21 Zn24 2.154356 1_655
N22 Zn7 1.868603 1_455
N22 Zn14 2.010962 1_555
N22 Zn24 2.154356 1_555
N23 Zn6 1.868603 1_555
N23 Zn15 2.010962 1_555
N23 Zn25 2.154356 1_555
