# generated using pymatgen
data_Ho2Sn5Rh3
_symmetry_space_group_name_H-M   'P 1'
_cell_length_a   13.46326204
_cell_length_b   13.46326204
_cell_length_c   7.34041500
_cell_angle_alpha   90.00000000
_cell_angle_beta   90.00000000
_cell_angle_gamma   161.22719459
_symmetry_Int_Tables_number   1
_chemical_formula_structural   Ho2Sn5Rh3
_chemical_formula_sum   'Ho4 Sn10 Rh6'
_cell_volume   428.18289176
_cell_formula_units_Z   2
loop_
 _symmetry_equiv_pos_site_id
 _symmetry_equiv_pos_as_xyz
  1  'x, y, z'
loop_
 _atom_site_type_symbol
 _atom_site_label
 _atom_site_symmetry_multiplicity
 _atom_site_fract_x
 _atom_site_fract_y
 _atom_site_fract_z
 _atom_site_occupancy
  Ho  Ho0  1  0.17263800  0.82736200  0.74455400  1
  Ho  Ho1  1  0.82736200  0.17263800  0.24455400  1
  Ho  Ho2  1  0.47593600  0.52406400  0.76384300  1
  Ho  Ho3  1  0.52406400  0.47593600  0.26384300  1
  Sn  Sn0  1  0.88058900  0.11941100  0.76898900  1
  Sn  Sn1  1  0.11941100  0.88058900  0.26898900  1
  Sn  Sn2  1  0.70466700  0.29533300  0.45030700  1
  Sn  Sn3  1  0.29533300  0.70466700  0.95030700  1
  Sn  Sn4  1  0.59636600  0.40363400  0.88588900  1
  Sn  Sn5  1  0.40363400  0.59636600  0.38588900  1
  Sn  Sn6  1  0.95241100  0.04758900  0.10232600  1
  Sn  Sn7  1  0.04758900  0.95241100  0.60232600  1
  Sn  Sn8  1  0.29052500  0.70947500  0.52197000  1
  Sn  Sn9  1  0.70947500  0.29052500  0.02197000  1
  Rh  Rh0  1  0.05015000  0.94985000  0.98125400  1
  Rh  Rh1  1  0.94985000  0.05015000  0.48125400  1
  Rh  Rh2  1  0.77661800  0.22338200  0.73479400  1
  Rh  Rh3  1  0.22338200  0.77661800  0.23479400  1
  Rh  Rh4  1  0.39401500  0.60598500  0.01807400  1
  Rh  Rh5  1  0.60598500  0.39401500  0.51807400  1
loop_
_geom_bond_atom_site_label_1
_geom_bond_atom_site_label_2
_geom_bond_distance
_geom_bond_site_symmetry_2
Ho0 Sn9 3.150509 1_456
Ho0 Sn9 3.150509 1_566
Ho0 Sn4 3.162797 1_455
Ho0 Sn4 3.162797 1_565
Ho0 Sn2 3.195381 1_455
Ho0 Sn2 3.195381 1_565
Ho0 Rh5 3.274212 1_455
Ho0 Rh5 3.274212 1_565
Ho0 Sn7 3.482239 1_555
Ho0 Sn8 3.532362 1_555
Ho1 Sn8 3.150509 1_545
Ho1 Sn8 3.150509 1_655
Ho1 Sn5 3.162797 1_545
Ho1 Sn5 3.162797 1_655
Ho1 Sn3 3.195381 1_544
Ho1 Sn3 3.195381 1_654
Ho1 Rh4 3.274212 1_545
Ho1 Rh4 3.274212 1_655
Ho1 Sn6 3.482239 1_555
Ho1 Sn9 3.532362 1_555
Ho2 Rh4 2.866862 1_556
Ho2 Rh1 3.099091 1_455
Ho2 Rh1 3.099091 1_565
Ho2 Sn7 3.138535 1_545
Ho2 Sn7 3.138535 1_655
Ho2 Sn4 3.322406 1_555
Ho2 Sn0 3.352427 1_565
Ho2 Sn0 3.352427 1_455
Ho2 Rh0 3.354884 1_545
Ho2 Rh0 3.354884 1_655
Ho2 Sn6 3.374190 1_456
Ho2 Sn6 3.374190 1_566
Ho2 Sn5 3.374364 1_555
Ho3 Rh5 2.866862 1_555
Ho3 Rh0 3.099091 1_544
Ho3 Rh0 3.099091 1_654
Ho3 Sn6 3.138535 1_455
Ho3 Sn6 3.138535 1_565
Ho3 Sn5 3.322406 1_555
Ho3 Sn1 3.352427 1_545
Ho3 Sn1 3.352427 1_655
Ho3 Rh1 3.354884 1_455
Ho3 Rh1 3.354884 1_565
Ho3 Sn7 3.374190 1_545
Ho3 Sn7 3.374190 1_655
Ho3 Sn4 3.374364 1_554
Sn0 Sn6 3.102828 1_556
Sn1 Sn7 3.102828 1_555
Sn2 Sn9 3.146765 1_555
Sn2 Sn8 3.209446 1_545
Sn2 Sn8 3.209446 1_655
Sn3 Sn8 3.146765 1_555
Sn3 Sn9 3.209446 1_456
Sn3 Sn9 3.209446 1_566
Sn4 Sn9 3.166533 1_556
Sn4 Sn7 3.291345 1_655
Sn4 Sn7 3.291345 1_545
Sn5 Sn8 3.166533 1_555
Sn5 Sn6 3.291345 1_455
Sn5 Sn6 3.291345 1_565
Rh0 Sn4 2.611277 1_565
Rh0 Sn4 2.611277 1_455
Rh0 Sn6 2.744415 1_466
Rh0 Sn7 2.782321 1_555
Rh0 Sn1 2.801160 1_556
Rh1 Sn5 2.611277 1_655
Rh1 Sn5 2.611277 1_545
Rh1 Sn7 2.744415 1_645
Rh1 Sn6 2.782321 1_555
Rh1 Sn0 2.801160 1_555
Rh2 Sn8 2.719986 1_545
Rh2 Sn8 2.719986 1_655
Rh2 Sn3 2.751560 1_545
Rh2 Sn3 2.751560 1_655
Rh2 Sn9 2.761392 1_556
Rh2 Sn0 2.773475 1_555
Rh2 Sn2 2.830979 1_555
Rh3 Sn9 2.719986 1_455
Rh3 Sn9 2.719986 1_565
Rh3 Sn2 2.751560 1_455
Rh3 Sn2 2.751560 1_565
Rh3 Sn8 2.761392 1_555
Rh3 Sn1 2.773475 1_555
Rh3 Sn3 2.830979 1_554
Rh4 Sn3 2.668363 1_554
Rh4 Sn5 2.711981 1_555
Rh4 Sn6 2.758707 1_565
Rh4 Sn6 2.758707 1_455
Rh4 Sn0 2.879501 1_564
Rh4 Sn0 2.879501 1_454
Rh5 Sn2 2.668363 1_555
Rh5 Sn4 2.711981 1_555
Rh5 Sn7 2.758707 1_545
Rh5 Sn7 2.758707 1_655
Rh5 Sn1 2.879501 1_655
Rh5 Sn1 2.879501 1_545
