# generated using pymatgen
data_Tm2Au
_symmetry_space_group_name_H-M   'P 1'
_cell_length_a   4.86858085
_cell_length_b   6.98467860
_cell_length_c   8.73567973
_cell_angle_alpha   90.00000000
_cell_angle_beta   90.00000000
_cell_angle_gamma   90.00000000
_symmetry_Int_Tables_number   1
_chemical_formula_structural   Tm2Au
_chemical_formula_sum   'Tm8 Au4'
_cell_volume   297.06091661
_cell_formula_units_Z   4
loop_
 _symmetry_equiv_pos_site_id
 _symmetry_equiv_pos_as_xyz
  1  'x, y, z'
loop_
 _atom_site_type_symbol
 _atom_site_label
 _atom_site_symmetry_multiplicity
 _atom_site_fract_x
 _atom_site_fract_y
 _atom_site_fract_z
 _atom_site_occupancy
  Tm  Tm0  1  0.75000000  0.64773637  0.58118633  1
  Tm  Tm1  1  0.75000000  0.14773537  0.91881367  1
  Tm  Tm2  1  0.25000000  0.35226463  0.41881367  1
  Tm  Tm3  1  0.25000000  0.85226363  0.08118633  1
  Tm  Tm4  1  0.75000000  0.01295628  0.32391956  1
  Tm  Tm5  1  0.75000000  0.51295628  0.17608044  1
  Tm  Tm6  1  0.25000000  0.98704372  0.67608044  1
  Tm  Tm7  1  0.25000000  0.48704372  0.82391956  1
  Au  Au0  1  0.75000000  0.24309997  0.59717506  1
  Au  Au1  1  0.75000000  0.74309997  0.90282394  1
  Au  Au2  1  0.25000000  0.75690003  0.40282394  1
  Au  Au3  1  0.25000000  0.25690003  0.09717506  1
loop_
_geom_bond_atom_site_label_1
_geom_bond_atom_site_label_2
_geom_bond_distance
_geom_bond_site_symmetry_2
Au0 Tm0 2.829704 1_555
Au0 Tm4 2.877865 1_555
Au0 Tm1 2.887606 1_555
Au0 Tm2 2.989121 1_555
Au0 Tm2 2.989121 1_655
Au0 Tm6 3.098309 1_645
Au0 Tm6 3.098309 1_545
Au0 Tm7 3.571047 1_655
Au0 Tm7 3.571047 1_555
Au1 Tm1 2.829698 1_565
Au1 Tm5 2.877872 1_556
Au1 Tm0 2.887596 1_555
Au1 Tm3 2.989124 1_556
Au1 Tm3 2.989124 1_656
Au1 Tm7 3.098307 1_555
Au1 Tm7 3.098307 1_655
Au1 Tm6 3.571042 1_655
Au1 Tm6 3.571042 1_555
Au2 Tm2 2.829698 1_555
Au2 Tm6 2.877872 1_555
Au2 Tm3 2.887596 1_555
Au2 Tm0 2.989124 1_455
Au2 Tm0 2.989124 1_555
Au2 Tm4 3.098307 1_565
Au2 Tm4 3.098307 1_465
Au2 Tm5 3.571042 1_455
Au2 Tm5 3.571042 1_555
Au3 Tm3 2.829704 1_545
Au3 Tm7 2.877865 1_554
Au3 Tm2 2.887606 1_555
Au3 Tm1 2.989121 1_554
Au3 Tm1 2.989121 1_454
Au3 Tm5 3.098309 1_555
Au3 Tm5 3.098309 1_455
Au3 Tm4 3.571047 1_555
Au3 Tm4 3.571047 1_455
