# generated using pymatgen
data_KSrZrBiO6
_symmetry_space_group_name_H-M   'P 1'
_cell_length_a   8.42866749
_cell_length_b   8.39295884
_cell_length_c   8.40477449
_cell_angle_alpha   90.00000000
_cell_angle_beta   90.00000000
_cell_angle_gamma   90.00000000
_symmetry_Int_Tables_number   1
_chemical_formula_structural   KSrZrBiO6
_chemical_formula_sum   'K4 Sr4 Zr4 Bi4 O24'
_cell_volume   594.56601267
_cell_formula_units_Z   4
loop_
 _symmetry_equiv_pos_site_id
 _symmetry_equiv_pos_as_xyz
  1  'x, y, z'
loop_
 _atom_site_type_symbol
 _atom_site_label
 _atom_site_symmetry_multiplicity
 _atom_site_fract_x
 _atom_site_fract_y
 _atom_site_fract_z
 _atom_site_occupancy
  K  K0  1  -0.00000000  0.50000000  0.50000000  1
  K  K1  1  0.50000000  0.50000000  0.00000000  1
  K  K2  1  0.50000000  -0.00000000  -0.00000000  1
  K  K3  1  -0.00000000  -0.00000000  0.50000000  1
  Sr  Sr0  1  0.50000000  -0.00000000  0.50000000  1
  Sr  Sr1  1  -0.00000000  0.50000000  0.00000000  1
  Sr  Sr2  1  -0.00000000  -0.00000000  -0.00000000  1
  Sr  Sr3  1  0.50000000  0.50000000  0.50000000  1
  Zr  Zr0  1  0.25000000  0.25000000  0.25000000  1
  Zr  Zr1  1  0.75000000  0.75000000  0.25000000  1
  Zr  Zr2  1  0.75000000  0.25000000  0.75000000  1
  Zr  Zr3  1  0.25000000  0.75000000  0.75000000  1
  Bi  Bi0  1  0.75000000  0.75000000  0.75000000  1
  Bi  Bi1  1  0.25000000  0.25000000  0.75000000  1
  Bi  Bi2  1  0.25000000  0.75000000  0.25000000  1
  Bi  Bi3  1  0.75000000  0.25000000  0.25000000  1
  O  O0  1  0.00160149  0.22919252  0.25810053  1
  O  O1  1  0.99839851  0.77080748  0.25810053  1
  O  O2  1  0.99839851  0.22919252  0.74189947  1
  O  O3  1  0.00160149  0.77080748  0.74189947  1
  O  O4  1  0.26696591  0.00148789  0.23111863  1
  O  O5  1  0.26696591  0.99851211  0.76888137  1
  O  O6  1  0.73303409  0.99851211  0.23111863  1
  O  O7  1  0.73303409  0.00148789  0.76888137  1
  O  O8  1  0.21713091  0.26793198  0.00025968  1
  O  O9  1  0.78286909  0.26793198  0.99974032  1
  O  O10  1  0.21713091  0.73206802  0.99974032  1
  O  O11  1  0.78286909  0.73206802  0.00025968  1
  O  O12  1  0.49839851  0.27080748  0.24189947  1
  O  O13  1  0.50160149  0.72919252  0.24189947  1
  O  O14  1  0.50160149  0.27080748  0.75810053  1
  O  O15  1  0.49839851  0.72919252  0.75810053  1
  O  O16  1  0.23303409  0.49851211  0.26888137  1
  O  O17  1  0.23303409  0.50148789  0.73111863  1
  O  O18  1  0.76696591  0.50148789  0.26888137  1
  O  O19  1  0.76696591  0.49851211  0.73111863  1
  O  O20  1  0.28286909  0.23206802  0.49974032  1
  O  O21  1  0.71713091  0.23206802  0.50025968  1
  O  O22  1  0.28286909  0.76793198  0.50025968  1
  O  O23  1  0.71713091  0.76793198  0.49974032  1
loop_
_geom_bond_atom_site_label_1
_geom_bond_atom_site_label_2
_geom_bond_distance
_geom_bond_site_symmetry_2
K0 O18 2.762501 1_455
K0 O19 2.762501 1_455
K0 O16 2.762501 1_555
K0 O17 2.762501 1_555
K0 O2 3.049539 1_455
K0 O3 3.049539 1_555
K0 O1 3.049539 1_455
K0 O0 3.049539 1_555
K0 O22 3.277392 1_555
K0 O20 3.277392 1_555
K0 O23 3.277392 1_455
K0 O21 3.277392 1_455
K1 O14 2.798923 1_554
K1 O15 2.798923 1_554
K1 O12 2.798923 1_555
K1 O13 2.798923 1_555
K1 O8 3.078659 1_555
K1 O10 3.078659 1_554
K1 O9 3.078659 1_554
K1 O11 3.078659 1_555
K1 O19 3.189122 1_554
K1 O17 3.189122 1_554
K1 O18 3.189122 1_555
K1 O16 3.189122 1_555
K2 O6 2.762501 1_545
K2 O7 2.762501 1_554
K2 O5 2.762501 1_544
K2 O4 2.762501 1_555
K2 O14 3.049539 1_554
K2 O13 3.049539 1_545
K2 O15 3.049539 1_544
K2 O12 3.049539 1_555
K2 O10 3.277392 1_544
K2 O11 3.277392 1_545
K2 O8 3.277392 1_555
K2 O9 3.277392 1_554
K3 O3 2.798923 1_545
K3 O1 2.798923 1_445
K3 O0 2.798923 1_555
K3 O2 2.798923 1_455
K3 O20 3.078659 1_555
K3 O22 3.078659 1_545
K3 O23 3.078659 1_445
K3 O21 3.078659 1_455
K3 O4 3.189122 1_555
K3 O5 3.189122 1_545
K3 O7 3.189122 1_455
K3 O6 3.189122 1_445
Bi0 O7 2.121510 1_565
Bi0 O19 2.121510 1_555
Bi0 O23 2.126874 1_555
Bi0 O11 2.126874 1_556
Bi0 O15 2.128933 1_555
Bi0 O3 2.128933 1_655
Bi1 O5 2.121510 1_545
Bi1 O17 2.121510 1_555
Bi1 O20 2.126874 1_555
Bi1 O8 2.126874 1_556
Bi1 O2 2.128933 1_455
Bi1 O14 2.128933 1_555
Bi2 O4 2.121510 1_565
Bi2 O16 2.121510 1_555
Bi2 O22 2.126874 1_555
Bi2 O10 2.126874 1_554
Bi2 O1 2.128933 1_455
Bi2 O13 2.128933 1_555
Bi3 O18 2.121510 1_555
Bi3 O6 2.121510 1_545
Bi3 O21 2.126874 1_555
Bi3 O9 2.126874 1_554
Bi3 O12 2.128933 1_555
Bi3 O0 2.128933 1_655
O0 Zr0 2.102042 1_555
O0 Sr2 2.899344 1_555
O0 Sr1 3.141959 1_555
O1 Zr1 2.102042 1_555
O1 Sr2 2.899344 1_665
O1 Sr1 3.141959 1_655
O2 Zr2 2.102042 1_555
O2 Sr2 2.899344 1_656
O2 Sr1 3.141959 1_656
O3 Zr3 2.102042 1_555
O3 Sr2 2.899344 1_566
O3 Sr1 3.141959 1_556
O4 Zr0 2.096663 1_555
O4 Sr2 2.972661 1_555
O4 Sr0 2.994194 1_555
O5 Zr3 2.096663 1_555
O5 Sr2 2.972661 1_566
O5 Sr0 2.994194 1_565
O6 Zr1 2.096663 1_555
O6 Sr2 2.972661 1_665
O6 Sr0 2.994194 1_565
O7 Zr2 2.096663 1_555
O7 Sr2 2.972661 1_656
O7 Sr0 2.994194 1_555
O8 Zr0 2.122558 1_555
O8 Sr1 2.672647 1_555
O8 Sr2 2.899345 1_555
O9 Zr2 2.122558 1_555
O9 Sr1 2.672647 1_656
O9 Sr2 2.899345 1_656
O10 Zr3 2.122558 1_555
O10 Sr1 2.672647 1_556
O10 Sr2 2.899345 1_566
O11 Zr1 2.122558 1_555
O11 Sr1 2.672647 1_655
O11 Sr2 2.899345 1_665
O12 Zr0 2.102042 1_555
O12 Sr3 2.899344 1_555
O12 Sr0 3.141959 1_555
O13 Zr1 2.102042 1_555
O13 Sr3 2.899344 1_555
O13 Sr0 3.141959 1_565
O14 Zr2 2.102042 1_555
O14 Sr3 2.899344 1_555
O14 Sr0 3.141959 1_555
O15 Zr3 2.102042 1_555
O15 Sr3 2.899344 1_555
O15 Sr0 3.141959 1_565
O16 Zr0 2.096663 1_555
O16 Sr3 2.972661 1_555
O16 Sr1 2.994194 1_555
O17 Zr3 2.096663 1_555
O17 Sr3 2.972661 1_555
O17 Sr1 2.994194 1_556
O18 Zr1 2.096663 1_555
O18 Sr3 2.972661 1_555
O18 Sr1 2.994194 1_655
O19 Zr2 2.096663 1_555
O19 Sr3 2.972661 1_555
O19 Sr1 2.994194 1_656
O20 Zr0 2.122558 1_555
O20 Sr0 2.672647 1_555
O20 Sr3 2.899345 1_555
O21 Zr2 2.122558 1_555
O21 Sr0 2.672647 1_555
O21 Sr3 2.899345 1_555
O22 Zr3 2.122558 1_555
O22 Sr0 2.672647 1_565
O22 Sr3 2.899345 1_555
O23 Zr1 2.122558 1_555
O23 Sr0 2.672647 1_565
O23 Sr3 2.899345 1_555
