# generated using pymatgen
data_Li9Mn2Co5O16
_symmetry_space_group_name_H-M   'P 1'
_cell_length_a   6.55562794
_cell_length_b   6.55562794
_cell_length_c   10.21693991
_cell_angle_alpha   59.53349015
_cell_angle_beta   59.53349015
_cell_angle_gamma   52.68071947
_symmetry_Int_Tables_number   1
_chemical_formula_structural   Li9Mn2Co5O16
_chemical_formula_sum   'Li9 Mn2 Co5 O16'
_cell_volume   287.92883369
_cell_formula_units_Z   1
loop_
 _symmetry_equiv_pos_site_id
 _symmetry_equiv_pos_as_xyz
  1  'x, y, z'
loop_
 _atom_site_type_symbol
 _atom_site_label
 _atom_site_symmetry_multiplicity
 _atom_site_fract_x
 _atom_site_fract_y
 _atom_site_fract_z
 _atom_site_occupancy
  Li  Li0  1  0.49183300  0.99935000  0.25820100  1
  Li  Li1  1  0.00065000  0.50816700  0.74179900  1
  Li  Li2  1  0.24971400  0.24971400  0.49526600  1
  Li  Li3  1  0.75111600  0.75111600  0.99905700  1
  Li  Li4  1  0.24888400  0.24888400  0.00094300  1
  Li  Li5  1  0.75028600  0.75028600  0.50473400  1
  Li  Li6  1  0.99935000  0.49183300  0.25820100  1
  Li  Li7  1  0.50816700  0.00065000  0.74179900  1
  Li  Li8  1  0.00000000  0.00000000  0.50000000  1
  Mn  Mn0  1  0.00000000  0.00000000  0.00000000  1
  Mn  Mn1  1  0.50000000  0.50000000  0.50000000  1
  Co  Co0  1  0.75296300  0.24383000  0.25830100  1
  Co  Co1  1  0.24703700  0.75617000  0.74169900  1
  Co  Co2  1  0.75617000  0.24703700  0.74169900  1
  Co  Co3  1  0.24383000  0.75296300  0.25830100  1
  Co  Co4  1  0.50000000  0.50000000  0.00000000  1
  O  O0  1  0.64458900  0.13046400  0.99716000  1
  O  O1  1  0.15058700  0.62005000  0.49236000  1
  O  O2  1  0.38942900  0.38942900  0.24338100  1
  O  O3  1  0.88318900  0.88318900  0.75686200  1
  O  O4  1  0.38504800  0.38504800  0.73254800  1
  O  O5  1  0.88730100  0.88730100  0.23318700  1
  O  O6  1  0.13046400  0.64458900  0.99716000  1
  O  O7  1  0.62005000  0.15058700  0.49236000  1
  O  O8  1  0.37995000  0.84941300  0.50764000  1
  O  O9  1  0.86953600  0.35541100  0.00284000  1
  O  O10  1  0.11269900  0.11269900  0.76681300  1
  O  O11  1  0.61495200  0.61495200  0.26745200  1
  O  O12  1  0.11681100  0.11681100  0.24313800  1
  O  O13  1  0.61057100  0.61057100  0.75661900  1
  O  O14  1  0.84941300  0.37995000  0.50764000  1
  O  O15  1  0.35541100  0.86953600  0.00284000  1
loop_
_geom_bond_atom_site_label_1
_geom_bond_atom_site_label_2
_geom_bond_distance
_geom_bond_site_symmetry_2
Li0 O11 2.092917 1_555
Li0 O8 2.106505 1_555
Li0 O5 2.129689 1_555
Li0 O12 2.151499 1_565
Li0 O2 2.154491 1_565
Li0 O0 2.205753 1_564
Li1 O4 2.092917 1_555
Li1 O1 2.106505 1_555
Li1 O10 2.129689 1_555
Li1 O3 2.151499 1_455
Li1 O13 2.154491 1_455
Li1 O9 2.205753 1_456
Li2 O7 2.085866 1_555
Li2 O1 2.085866 1_555
Li2 O2 2.130099 1_555
Li2 O8 2.165146 1_545
Li2 O14 2.165146 1_455
Li2 O10 2.287992 1_555
Li3 O3 2.046005 1_555
Li3 O6 2.128764 1_655
Li3 O0 2.128764 1_565
Li3 O9 2.195549 1_556
Li3 O15 2.195549 1_556
Li3 O11 2.261603 1_556
Li4 O12 2.046005 1_555
Li4 O15 2.128764 1_545
Li4 O9 2.128764 1_455
Li4 O0 2.195549 1_554
Li4 O6 2.195549 1_554
Li4 O4 2.261603 1_554
Li5 O14 2.085866 1_555
Li5 O8 2.085866 1_555
Li5 O13 2.130099 1_555
Li5 O1 2.165146 1_655
Li5 O7 2.165146 1_565
Li5 O5 2.287992 1_555
Li6 O11 2.092917 1_555
Li6 O14 2.106505 1_555
Li6 O5 2.129689 1_555
Li6 O12 2.151499 1_655
Li6 O2 2.154491 1_655
Li6 O6 2.205753 1_654
Li7 O4 2.092917 1_555
Li7 O7 2.106505 1_555
Li7 O10 2.129689 1_555
Li7 O3 2.151499 1_545
Li7 O13 2.154491 1_545
Li7 O15 2.205753 1_546
Li8 O1 2.079024 1_545
Li8 O7 2.079024 1_455
Li8 O14 2.079024 1_455
Li8 O8 2.079024 1_545
Li8 O3 2.166835 1_445
Li8 O12 2.166835 1_555
Mn0 O6 1.946314 1_544
Mn0 O15 1.946314 1_545
Mn0 O9 1.946314 1_455
Mn0 O0 1.946314 1_454
Mn0 O5 1.964619 1_445
Mn0 O10 1.964619 1_554
Mn1 O1 1.950796 1_555
Mn1 O7 1.950796 1_555
Mn1 O14 1.950796 1_555
Mn1 O8 1.950796 1_555
Mn1 O4 1.959103 1_555
Mn1 O11 1.959103 1_555
Co0 O12 1.937688 1_655
Co0 O7 1.975344 1_555
Co0 O2 2.019060 1_555
Co0 O5 2.046330 1_545
Co0 O11 2.054850 1_555
Co0 O9 2.156482 1_555
Co1 O3 1.937688 1_455
Co1 O8 1.975344 1_555
Co1 O13 2.019060 1_555
Co1 O10 2.046330 1_565
Co1 O4 2.054850 1_555
Co1 O6 2.156482 1_555
Co2 O3 1.937688 1_545
Co2 O14 1.975344 1_555
Co2 O13 2.019060 1_555
Co2 O10 2.046330 1_655
Co2 O4 2.054850 1_555
Co2 O0 2.156482 1_555
Co3 O12 1.937688 1_565
Co3 O1 1.975344 1_555
Co3 O2 2.019060 1_555
Co3 O5 2.046330 1_455
Co3 O11 2.054850 1_555
Co3 O15 2.156482 1_555
Co4 O0 2.006778 1_554
Co4 O9 2.006778 1_555
Co4 O6 2.006778 1_554
Co4 O15 2.006778 1_555
Co4 O2 2.053179 1_555
Co4 O13 2.053179 1_554
