# generated using pymatgen
data_Ba(ClO4)2
_symmetry_space_group_name_H-M   'P 1'
_cell_length_a   9.26868633
_cell_length_b   8.05214288
_cell_length_c   6.88919797
_cell_angle_alpha   76.24013338
_cell_angle_beta   57.54631871
_cell_angle_gamma   46.21816124
_symmetry_Int_Tables_number   1
_chemical_formula_structural   Ba(ClO4)2
_chemical_formula_sum   'Ba2 Cl4 O16'
_cell_volume   305.63281540
_cell_formula_units_Z   2
loop_
 _symmetry_equiv_pos_site_id
 _symmetry_equiv_pos_as_xyz
  1  'x, y, z'
loop_
 _atom_site_type_symbol
 _atom_site_label
 _atom_site_symmetry_multiplicity
 _atom_site_fract_x
 _atom_site_fract_y
 _atom_site_fract_z
 _atom_site_occupancy
  Ba  Ba0  1  0.24999415  0.24998624  0.25000905  1
  Ba  Ba1  1  -0.00000797  0.99998231  0.00000336  1
  Cl  Cl0  1  0.94631539  0.55369222  0.94626324  1
  Cl  Cl1  1  0.55360226  0.94635236  0.55383132  1
  Cl  Cl2  1  0.30377780  0.69624190  0.30364574  1
  Cl  Cl3  1  0.69629697  0.30370293  0.69628649  1
  O  O0  1  0.97698379  0.36430298  0.06489062  1
  O  O1  1  0.36422237  0.97698913  0.59392489  1
  O  O2  1  0.06498757  0.59374404  0.97696924  1
  O  O3  1  0.59354524  0.06509553  0.36446229  1
  O  O4  1  0.27317022  0.88560807  0.18485907  1
  O  O5  1  0.88573940  0.27302274  0.65620014  1
  O  O6  1  0.18507093  0.65620203  0.27297596  1
  O  O7  1  0.65630309  0.18495315  0.88566030  1
  O  O8  1  0.05242561  0.48411163  0.70154427  1
  O  O9  1  0.48398481  0.05244461  0.76206015  1
  O  O10  1  0.70163782  0.76189603  0.05236124  1
  O  O11  1  0.76185953  0.70170455  0.48411414  1
  O  O12  1  0.19761041  0.76598511  0.54838608  1
  O  O13  1  0.76594890  0.19760603  0.48798814  1
  O  O14  1  0.54848628  0.48796585  0.19757284  1
  O  O15  1  0.48804444  0.54841057  0.76599242  1
loop_
_geom_bond_atom_site_label_1
_geom_bond_atom_site_label_2
_geom_bond_distance
_geom_bond_site_symmetry_2
Ba0 O9 2.911914 1_554
Ba0 O8 2.912526 1_555
Ba0 O10 2.912948 1_545
Ba0 O11 2.913304 1_455
Ba0 O5 2.916216 1_455
Ba0 O6 2.916544 1_555
Ba0 O4 2.916658 1_545
Ba0 O7 2.916891 1_554
Ba0 O3 2.924671 1_555
Ba0 O2 2.925246 1_554
Ba0 O0 2.925513 1_455
Ba0 O1 2.925857 1_545
Ba1 O13 2.912212 1_465
Ba1 O14 2.912216 1_465
Ba1 O12 2.912364 1_554
Ba1 O15 2.912633 1_554
Ba1 O1 2.915984 1_554
Ba1 O2 2.916419 1_554
Ba1 O0 2.916656 1_465
Ba1 O3 2.917623 1_465
Ba1 O7 2.925042 1_464
Ba1 O6 2.925162 1_555
Ba1 O4 2.925211 1_555
Ba1 O5 2.925387 1_464
Cl0 O10 1.424970 1_556
Cl0 O8 1.425052 1_655
Cl0 O0 1.459749 1_556
Cl0 O2 1.460027 1_655
Cl1 O11 1.424905 1_555
Cl1 O9 1.425040 1_565
Cl1 O1 1.459824 1_555
Cl1 O3 1.459913 1_565
Cl2 O14 1.425240 1_555
Cl2 O12 1.425329 1_555
Cl2 O6 1.460118 1_555
Cl2 O4 1.460189 1_555
Cl3 O15 1.425153 1_555
Cl3 O13 1.425333 1_555
Cl3 O7 1.460073 1_555
Cl3 O5 1.460199 1_555
