# generated using pymatgen
data_AgPb3
_symmetry_space_group_name_H-M   'P 1'
_cell_length_a   5.86880143
_cell_length_b   5.86880143
_cell_length_c   5.86880143
_cell_angle_alpha   130.60603655
_cell_angle_beta   130.60603655
_cell_angle_gamma   72.43975644
_symmetry_Int_Tables_number   1
_chemical_formula_structural   AgPb3
_chemical_formula_sum   'Ag1 Pb3'
_cell_volume   113.87461235
_cell_formula_units_Z   1
loop_
 _symmetry_equiv_pos_site_id
 _symmetry_equiv_pos_as_xyz
  1  'x, y, z'
loop_
 _atom_site_type_symbol
 _atom_site_label
 _atom_site_symmetry_multiplicity
 _atom_site_fract_x
 _atom_site_fract_y
 _atom_site_fract_z
 _atom_site_occupancy
  Ag  Ag0  1  0.00000000  0.00000000  0.00000000  1
  Pb  Pb0  1  0.75000000  0.25000000  0.50000000  1
  Pb  Pb1  1  0.25000000  0.75000000  0.50000000  1
  Pb  Pb2  1  0.50000000  0.50000000  0.00000000  1
loop_
_geom_bond_atom_site_label_1
_geom_bond_atom_site_label_2
_geom_bond_distance
_geom_bond_site_symmetry_2
Ag0 Pb1 3.408387 1_555
Ag0 Pb1 3.408387 1_544
Ag0 Pb1 3.408387 1_545
Ag0 Pb0 3.408387 1_444
Ag0 Pb0 3.408387 1_455
Ag0 Pb0 3.408387 1_454
Ag0 Pb0 3.408387 1_555
Ag0 Pb1 3.408387 1_444
Ag0 Pb2 3.467790 1_556
Ag0 Pb2 3.467790 1_444
Ag0 Pb2 3.467790 1_455
Ag0 Pb2 3.467790 1_545
Pb0 Pb2 3.408387 1_555
Pb0 Pb2 3.408387 1_545
Pb0 Pb2 3.408387 1_556
Pb0 Pb2 3.408387 1_656
Pb0 Pb1 3.467790 1_645
Pb0 Pb1 3.467790 1_656
Pb0 Pb1 3.467790 1_544
Pb0 Pb1 3.467790 1_555
Pb1 Pb2 3.408387 1_555
Pb1 Pb2 3.408387 1_566
Pb1 Pb2 3.408387 1_556
Pb1 Pb2 3.408387 1_455
