# generated using pymatgen
data_CaLaFeWO6
_symmetry_space_group_name_H-M   'P 1'
_cell_length_a   5.64050216
_cell_length_b   8.00577387
_cell_length_c   5.75555461
_cell_angle_alpha   89.84650841
_cell_angle_beta   90.76807383
_cell_angle_gamma   89.44593530
_symmetry_Int_Tables_number   1
_chemical_formula_structural   CaLaFeWO6
_chemical_formula_sum   'Ca2 La2 Fe2 W2 O12'
_cell_volume   259.86466089
_cell_formula_units_Z   2
loop_
 _symmetry_equiv_pos_site_id
 _symmetry_equiv_pos_as_xyz
  1  'x, y, z'
loop_
 _atom_site_type_symbol
 _atom_site_label
 _atom_site_symmetry_multiplicity
 _atom_site_fract_x
 _atom_site_fract_y
 _atom_site_fract_z
 _atom_site_occupancy
  Ca  Ca0  1  0.52170100  0.25319500  0.55270600  1
  Ca  Ca1  1  0.01903500  0.75361000  0.94782900  1
  La  La0  1  0.98291100  0.24551800  0.04747400  1
  La  La1  1  0.47945800  0.74560000  0.45128300  1
  Fe  Fe0  1  0.49885200  0.50088900  0.00005500  1
  Fe  Fe1  1  0.99863200  0.00126900  0.50029700  1
  W  W0  1  0.99980500  0.49905300  0.50325200  1
  W  W1  1  0.50025800  0.99877600  0.99684600  1
  O  O0  1  0.60597000  0.76716300  0.02933800  1
  O  O1  1  0.10552700  0.26730700  0.47086300  1
  O  O2  1  0.21171900  0.94881800  0.19623000  1
  O  O3  1  0.70826600  0.44876300  0.30060800  1
  O  O4  1  0.19353200  0.56037200  0.21589000  1
  O  O5  1  0.69738000  0.05958000  0.28798600  1
  O  O6  1  0.90081300  0.73310500  0.53636800  1
  O  O7  1  0.40101600  0.23310300  0.96343100  1
  O  O8  1  0.28887400  0.55181100  0.70753900  1
  O  O9  1  0.78608100  0.05140700  0.79569200  1
  O  O10  1  0.29846100  0.94058400  0.70981900  1
  O  O11  1  0.80171000  0.44007800  0.78649300  1
loop_
_geom_bond_atom_site_label_1
_geom_bond_atom_site_label_2
_geom_bond_distance
_geom_bond_site_symmetry_2
Ca0 O1 2.389565 1_555
Ca0 O3 2.392621 1_555
Ca0 O5 2.393606 1_555
Ca0 O7 2.474013 1_555
Ca0 O11 2.557929 1_555
Ca0 O9 2.583558 1_555
Ca0 O8 2.866373 1_555
Ca0 O10 2.957377 1_545
Ca1 O4 2.378955 1_556
Ca1 O2 2.381321 1_556
Ca1 O0 2.384313 1_456
Ca1 O6 2.458003 1_455
Ca1 O10 2.587242 1_555
Ca1 O8 2.619186 1_555
Ca1 O9 2.841578 1_465
Ca1 O11 2.950730 1_455
La0 O11 2.375402 1_554
La0 O9 2.397885 1_554
La0 O7 2.414922 1_654
La0 O1 2.531081 1_655
La0 O5 2.611709 1_555
La0 O3 2.682253 1_555
La0 O2 2.817972 1_645
La0 O4 2.957155 1_655
La1 O10 2.390717 1_555
La1 O8 2.408393 1_555
La1 O6 2.421207 1_555
La1 O0 2.546244 1_555
La1 O4 2.575647 1_555
La1 O2 2.638693 1_555
La1 O3 2.836680 1_555
La1 O5 2.964924 1_565
Fe0 O8 2.082537 1_554
Fe0 O3 2.119806 1_555
Fe0 O11 2.170132 1_554
Fe0 O4 2.186425 1_555
Fe0 O0 2.227518 1_555
Fe0 O7 2.228716 1_554
Fe1 O10 2.115814 1_645
Fe1 O5 2.127061 1_555
Fe1 O9 2.130261 1_555
Fe1 O2 2.175836 1_645
Fe1 O1 2.225780 1_655
Fe1 O6 2.231620 1_545
O0 W1 1.949997 1_554
O1 W0 1.953446 1_455
O2 W1 2.045933 1_554
O3 W0 2.047060 1_555
O4 W0 2.055474 1_455
O5 W1 2.060575 1_544
O6 W0 1.960519 1_555
O7 W1 1.960731 1_545
O8 W0 2.045473 1_455
O9 W1 2.043927 1_545
O10 W1 2.050777 1_555
O11 W0 2.045457 1_555
