# generated using pymatgen
data_MgPb2
_symmetry_space_group_name_H-M   'P 1'
_cell_length_a   13.53826858
_cell_length_b   13.53826858
_cell_length_c   15.80562515
_cell_angle_alpha   74.01839509
_cell_angle_beta   74.01839509
_cell_angle_gamma   29.85423060
_symmetry_Int_Tables_number   1
_chemical_formula_structural   MgPb2
_chemical_formula_sum   'Mg16 Pb32'
_cell_volume   1382.29458635
_cell_formula_units_Z   16
loop_
 _symmetry_equiv_pos_site_id
 _symmetry_equiv_pos_as_xyz
  1  'x, y, z'
loop_
 _atom_site_type_symbol
 _atom_site_label
 _atom_site_symmetry_multiplicity
 _atom_site_fract_x
 _atom_site_fract_y
 _atom_site_fract_z
 _atom_site_occupancy
  Mg  Mg0_0  1  0.23563100  0.23563100  0.40147050  1
  Mg  Mg0_1  1  0.23563100  0.23563100  0.90147050  1
  Mg  Mg0_2  1  0.23563100  0.73563100  0.40147050  1
  Mg  Mg0_3  1  0.23563100  0.73563100  0.90147050  1
  Mg  Mg0_4  1  0.73563100  0.23563100  0.40147050  1
  Mg  Mg0_5  1  0.73563100  0.23563100  0.90147050  1
  Mg  Mg0_6  1  0.73563100  0.73563100  0.40147050  1
  Mg  Mg0_7  1  0.73563100  0.73563100  0.90147050  1
  Mg  Mg1_0  1  0.26436900  0.26436900  0.09852950  1
  Mg  Mg1_1  1  0.26436900  0.26436900  0.59852950  1
  Mg  Mg1_2  1  0.26436900  0.76436900  0.09852950  1
  Mg  Mg1_3  1  0.26436900  0.76436900  0.59852950  1
  Mg  Mg1_4  1  0.76436900  0.26436900  0.09852950  1
  Mg  Mg1_5  1  0.76436900  0.26436900  0.59852950  1
  Mg  Mg1_6  1  0.76436900  0.76436900  0.09852950  1
  Mg  Mg1_7  1  0.76436900  0.76436900  0.59852950  1
  Pb  Pb0_0  1  0.08822100  0.08822100  0.43655850  1
  Pb  Pb0_1  1  0.08822100  0.08822100  0.93655850  1
  Pb  Pb0_2  1  0.08822100  0.58822100  0.43655850  1
  Pb  Pb0_3  1  0.08822100  0.58822100  0.93655850  1
  Pb  Pb0_4  1  0.58822100  0.08822100  0.43655850  1
  Pb  Pb0_5  1  0.58822100  0.08822100  0.93655850  1
  Pb  Pb0_6  1  0.58822100  0.58822100  0.43655850  1
  Pb  Pb0_7  1  0.58822100  0.58822100  0.93655850  1
  Pb  Pb1_0  1  0.43341700  0.43341700  0.26590750  1
  Pb  Pb1_1  1  0.43341700  0.43341700  0.76590750  1
  Pb  Pb1_2  1  0.43341700  0.93341700  0.26590750  1
  Pb  Pb1_3  1  0.43341700  0.93341700  0.76590750  1
  Pb  Pb1_4  1  0.93341700  0.43341700  0.26590750  1
  Pb  Pb1_5  1  0.93341700  0.43341700  0.76590750  1
  Pb  Pb1_6  1  0.93341700  0.93341700  0.26590750  1
  Pb  Pb1_7  1  0.93341700  0.93341700  0.76590750  1
  Pb  Pb2_0  1  0.06658300  0.06658300  0.23409250  1
  Pb  Pb2_1  1  0.06658300  0.06658300  0.73409250  1
  Pb  Pb2_2  1  0.06658300  0.56658300  0.23409250  1
  Pb  Pb2_3  1  0.06658300  0.56658300  0.73409250  1
  Pb  Pb2_4  1  0.56658300  0.06658300  0.23409250  1
  Pb  Pb2_5  1  0.56658300  0.06658300  0.73409250  1
  Pb  Pb2_6  1  0.56658300  0.56658300  0.23409250  1
  Pb  Pb2_7  1  0.56658300  0.56658300  0.73409250  1
  Pb  Pb3_0  1  0.41177900  0.41177900  0.06344150  1
  Pb  Pb3_1  1  0.41177900  0.41177900  0.56344150  1
  Pb  Pb3_2  1  0.41177900  0.91177900  0.06344150  1
  Pb  Pb3_3  1  0.41177900  0.91177900  0.56344150  1
  Pb  Pb3_4  1  0.91177900  0.41177900  0.06344150  1
  Pb  Pb3_5  1  0.91177900  0.41177900  0.56344150  1
  Pb  Pb3_6  1  0.91177900  0.91177900  0.06344150  1
  Pb  Pb3_7  1  0.91177900  0.91177900  0.56344150  1
loop_
_geom_bond_atom_site_label_1
_geom_bond_atom_site_label_2
_geom_bond_distance
_geom_bond_site_symmetry_2
Mg0_0 Pb3_5 3.241696 1_455
Mg0_0 Pb3_3 3.241696 1_545
Mg0_0 Pb1_2 3.341489 1_545
Mg0_0 Pb1_4 3.341489 1_455
Mg0_0 Pb2_4 3.366250 1_555
Mg0_0 Pb2_2 3.366250 1_555
Mg0_0 Pb0_4 3.376435 1_555
Mg0_0 Pb0_2 3.376435 1_555
Mg0_0 Mg1_1 3.406003 1_555
Mg0_0 Mg0_6 3.487324 1_545
Mg0_0 Mg0_6 3.487324 1_455
Mg0_1 Pb3_4 3.241696 1_456
Mg0_1 Pb3_2 3.241696 1_546
Mg0_1 Pb1_5 3.341489 1_455
Mg0_1 Pb1_3 3.341489 1_545
Mg0_1 Pb2_3 3.366250 1_555
Mg0_1 Pb2_5 3.366250 1_555
Mg0_1 Pb0_5 3.376435 1_555
Mg0_1 Pb0_3 3.376435 1_555
Mg0_1 Mg1_0 3.406003 1_556
Mg0_1 Mg0_7 3.487324 1_545
Mg0_1 Mg0_7 3.487324 1_455
Mg0_2 Pb3_7 3.241696 1_455
Mg0_2 Pb3_1 3.241696 1_555
Mg0_2 Pb1_0 3.341489 1_555
Mg0_2 Pb1_6 3.341489 1_455
Mg0_2 Pb2_0 3.366250 1_565
Mg0_2 Pb2_6 3.366250 1_555
Mg0_2 Pb0_0 3.376435 1_565
Mg0_2 Pb0_6 3.376435 1_555
Mg0_2 Mg1_3 3.406003 1_555
Mg0_2 Mg0_4 3.487324 1_465
Mg0_2 Mg0_4 3.487324 1_555
Mg0_3 Pb3_0 3.241696 1_556
Mg0_3 Pb3_6 3.241696 1_456
Mg0_3 Pb1_1 3.341489 1_555
Mg0_3 Pb1_7 3.341489 1_455
Mg0_3 Pb2_7 3.366250 1_555
Mg0_3 Pb2_1 3.366250 1_565
Mg0_3 Pb0_7 3.376435 1_555
Mg0_3 Pb0_1 3.376435 1_565
Mg0_3 Mg1_2 3.406003 1_556
Mg0_3 Mg0_5 3.487324 1_555
Mg0_3 Mg0_5 3.487324 1_465
Mg0_4 Pb3_7 3.241696 1_545
Mg0_4 Pb3_1 3.241696 1_555
Mg0_4 Pb1_6 3.341489 1_545
Mg0_4 Pb1_0 3.341489 1_555
Mg0_4 Pb2_6 3.366250 1_555
Mg0_4 Pb2_0 3.366250 1_655
Mg0_4 Pb0_0 3.376435 1_655
Mg0_4 Pb0_6 3.376435 1_555
Mg0_4 Mg1_5 3.406003 1_555
Mg0_5 Pb3_0 3.241696 1_556
Mg0_5 Pb3_6 3.241696 1_546
Mg0_5 Pb1_1 3.341489 1_555
Mg0_5 Pb1_7 3.341489 1_545
Mg0_5 Pb2_7 3.366250 1_555
Mg0_5 Pb2_1 3.366250 1_655
Mg0_5 Pb0_1 3.376435 1_655
Mg0_5 Pb0_7 3.376435 1_555
Mg0_5 Mg1_4 3.406003 1_556
Mg0_6 Pb3_5 3.241696 1_555
Mg0_6 Pb3_3 3.241696 1_555
Mg0_6 Pb1_4 3.341489 1_555
Mg0_6 Pb1_2 3.341489 1_555
Mg0_6 Pb2_4 3.366250 1_565
Mg0_6 Pb2_2 3.366250 1_655
Mg0_6 Pb0_2 3.376435 1_655
Mg0_6 Pb0_4 3.376435 1_565
Mg0_6 Mg1_7 3.406003 1_555
Mg0_7 Pb3_2 3.241696 1_556
Mg0_7 Pb3_4 3.241696 1_556
Mg0_7 Pb1_5 3.341489 1_555
Mg0_7 Pb1_3 3.341489 1_555
Mg0_7 Pb2_5 3.366250 1_565
Mg0_7 Pb2_3 3.366250 1_655
Mg0_7 Pb0_3 3.376435 1_655
Mg0_7 Pb0_5 3.376435 1_565
Mg0_7 Mg1_6 3.406003 1_556
Mg1_0 Pb0_5 3.241696 1_554
Mg1_0 Pb0_3 3.241696 1_554
Mg1_0 Pb2_4 3.341489 1_555
Mg1_0 Pb2_2 3.341489 1_555
Mg1_0 Pb1_2 3.366250 1_545
Mg1_0 Pb1_4 3.366250 1_455
Mg1_0 Pb3_2 3.376435 1_545
Mg1_0 Pb3_4 3.376435 1_455
Mg1_0 Mg1_6 3.487324 1_455
Mg1_0 Mg1_6 3.487324 1_545
Mg1_1 Pb0_4 3.241696 1_555
Mg1_1 Pb0_2 3.241696 1_555
Mg1_1 Pb2_3 3.341489 1_555
Mg1_1 Pb2_5 3.341489 1_555
Mg1_1 Pb1_5 3.366250 1_455
Mg1_1 Pb1_3 3.366250 1_545
Mg1_1 Pb3_5 3.376435 1_455
Mg1_1 Pb3_3 3.376435 1_545
Mg1_1 Mg1_7 3.487324 1_545
Mg1_1 Mg1_7 3.487324 1_455
Mg1_2 Pb0_7 3.241696 1_554
Mg1_2 Pb0_1 3.241696 1_564
Mg1_2 Pb2_6 3.341489 1_555
Mg1_2 Pb2_0 3.341489 1_565
Mg1_2 Pb1_6 3.366250 1_455
Mg1_2 Pb1_0 3.366250 1_555
Mg1_2 Pb3_0 3.376435 1_555
Mg1_2 Pb3_6 3.376435 1_455
Mg1_2 Mg1_4 3.487324 1_555
Mg1_2 Mg1_4 3.487324 1_465
Mg1_3 Pb0_6 3.241696 1_555
Mg1_3 Pb0_0 3.241696 1_565
Mg1_3 Pb2_7 3.341489 1_555
Mg1_3 Pb2_1 3.341489 1_565
Mg1_3 Pb1_1 3.366250 1_555
Mg1_3 Pb1_7 3.366250 1_455
Mg1_3 Pb3_7 3.376435 1_455
Mg1_3 Pb3_1 3.376435 1_555
Mg1_3 Mg1_5 3.487324 1_555
Mg1_3 Mg1_5 3.487324 1_465
Mg1_4 Pb0_1 3.241696 1_654
Mg1_4 Pb0_7 3.241696 1_554
Mg1_4 Pb2_6 3.341489 1_555
Mg1_4 Pb2_0 3.341489 1_655
Mg1_4 Pb1_0 3.366250 1_555
Mg1_4 Pb1_6 3.366250 1_545
Mg1_4 Pb3_0 3.376435 1_555
Mg1_4 Pb3_6 3.376435 1_545
Mg1_5 Pb0_0 3.241696 1_655
Mg1_5 Pb0_6 3.241696 1_555
Mg1_5 Pb2_7 3.341489 1_555
Mg1_5 Pb2_1 3.341489 1_655
Mg1_5 Pb1_1 3.366250 1_555
Mg1_5 Pb1_7 3.366250 1_545
Mg1_5 Pb3_7 3.376435 1_545
Mg1_5 Pb3_1 3.376435 1_555
Mg1_6 Pb0_3 3.241696 1_654
Mg1_6 Pb0_5 3.241696 1_564
Mg1_6 Pb2_4 3.341489 1_565
Mg1_6 Pb2_2 3.341489 1_655
Mg1_6 Pb1_2 3.366250 1_555
Mg1_6 Pb1_4 3.366250 1_555
Mg1_6 Pb3_2 3.376435 1_555
Mg1_6 Pb3_4 3.376435 1_555
Mg1_7 Pb0_2 3.241696 1_655
Mg1_7 Pb0_4 3.241696 1_565
Mg1_7 Pb2_5 3.341489 1_565
Mg1_7 Pb2_3 3.341489 1_655
Mg1_7 Pb1_5 3.366250 1_555
Mg1_7 Pb1_3 3.366250 1_555
Mg1_7 Pb3_5 3.376435 1_555
Mg1_7 Pb3_3 3.376435 1_555
Pb0_0 Pb2_0 3.404930 1_555
Pb0_0 Pb0_6 3.487324 1_545
Pb0_0 Pb0_6 3.487324 1_455
Pb0_0 Pb1_2 3.562329 1_545
Pb0_0 Pb1_4 3.562329 1_455
Pb0_0 Pb3_3 3.600745 1_545
Pb0_0 Pb3_5 3.600745 1_455
Pb0_1 Pb2_1 3.404930 1_555
Pb0_1 Pb0_7 3.487324 1_545
Pb0_1 Pb0_7 3.487324 1_455
Pb0_1 Pb1_3 3.562329 1_545
Pb0_1 Pb1_5 3.562329 1_455
Pb0_1 Pb3_2 3.600745 1_546
Pb0_1 Pb3_4 3.600745 1_456
Pb0_2 Pb2_2 3.404930 1_555
Pb0_2 Pb0_4 3.487324 1_555
Pb0_2 Pb0_4 3.487324 1_465
Pb0_2 Pb1_0 3.562329 1_555
Pb0_2 Pb1_6 3.562329 1_455
Pb0_2 Pb3_1 3.600745 1_555
Pb0_2 Pb3_7 3.600745 1_455
Pb0_3 Pb2_3 3.404930 1_555
Pb0_3 Pb0_5 3.487324 1_555
Pb0_3 Pb0_5 3.487324 1_465
Pb0_3 Pb1_7 3.562329 1_455
Pb0_3 Pb1_1 3.562329 1_555
Pb0_3 Pb3_6 3.600745 1_456
Pb0_3 Pb3_0 3.600745 1_556
Pb0_4 Pb2_4 3.404930 1_555
Pb0_4 Pb1_0 3.562329 1_555
Pb0_4 Pb1_6 3.562329 1_545
Pb0_4 Pb3_1 3.600745 1_555
Pb0_4 Pb3_7 3.600745 1_545
Pb0_5 Pb2_5 3.404930 1_555
Pb0_5 Pb1_7 3.562329 1_545
Pb0_5 Pb1_1 3.562329 1_555
Pb0_5 Pb3_0 3.600745 1_556
Pb0_5 Pb3_6 3.600745 1_546
Pb0_6 Pb2_6 3.404930 1_555
Pb0_6 Pb1_2 3.562329 1_555
Pb0_6 Pb1_4 3.562329 1_555
Pb0_6 Pb3_3 3.600745 1_555
Pb0_6 Pb3_5 3.600745 1_555
Pb0_7 Pb2_7 3.404930 1_555
Pb0_7 Pb1_3 3.562329 1_555
Pb0_7 Pb1_5 3.562329 1_555
Pb0_7 Pb3_2 3.600745 1_556
Pb0_7 Pb3_4 3.600745 1_556
Pb1_0 Pb2_6 3.375306 1_555
Pb1_0 Pb3_0 3.404930 1_555
Pb1_0 Pb1_6 3.487324 1_545
Pb1_0 Pb1_6 3.487324 1_455
Pb1_0 Pb2_2 3.675955 1_555
Pb1_0 Pb2_4 3.675955 1_555
Pb1_1 Pb2_7 3.375306 1_555
Pb1_1 Pb3_1 3.404930 1_555
Pb1_1 Pb1_7 3.487324 1_545
Pb1_1 Pb1_7 3.487324 1_455
Pb1_1 Pb2_5 3.675955 1_555
Pb1_1 Pb2_3 3.675955 1_555
Pb1_2 Pb2_4 3.375306 1_565
Pb1_2 Pb3_2 3.404930 1_555
Pb1_2 Pb1_4 3.487324 1_555
Pb1_2 Pb1_4 3.487324 1_465
Pb1_2 Pb2_0 3.675955 1_565
Pb1_2 Pb2_6 3.675955 1_555
Pb1_3 Pb2_5 3.375306 1_565
Pb1_3 Pb3_3 3.404930 1_555
Pb1_3 Pb1_5 3.487324 1_555
Pb1_3 Pb1_5 3.487324 1_465
Pb1_3 Pb2_7 3.675955 1_555
Pb1_3 Pb2_1 3.675955 1_565
Pb1_4 Pb2_2 3.375306 1_655
Pb1_4 Pb3_4 3.404930 1_555
Pb1_4 Pb2_6 3.675955 1_555
Pb1_4 Pb2_0 3.675955 1_655
Pb1_5 Pb2_3 3.375306 1_655
Pb1_5 Pb3_5 3.404930 1_555
Pb1_5 Pb2_1 3.675955 1_655
Pb1_5 Pb2_7 3.675955 1_555
Pb1_6 Pb2_0 3.375306 1_665
Pb1_6 Pb3_6 3.404930 1_555
Pb1_6 Pb2_2 3.675955 1_655
Pb1_6 Pb2_4 3.675955 1_565
Pb1_7 Pb2_1 3.375306 1_665
Pb1_7 Pb3_7 3.404930 1_555
Pb1_7 Pb2_5 3.675955 1_565
Pb1_7 Pb2_3 3.675955 1_655
Pb2_0 Pb2_6 3.487324 1_545
Pb2_0 Pb2_6 3.487324 1_455
Pb2_0 Pb3_4 3.562329 1_455
Pb2_0 Pb3_2 3.562329 1_545
Pb2_1 Pb2_7 3.487324 1_545
Pb2_1 Pb2_7 3.487324 1_455
Pb2_1 Pb3_3 3.562329 1_545
Pb2_1 Pb3_5 3.562329 1_455
Pb2_2 Pb2_4 3.487324 1_555
Pb2_2 Pb2_4 3.487324 1_465
Pb2_2 Pb3_6 3.562329 1_455
Pb2_2 Pb3_0 3.562329 1_555
Pb2_3 Pb2_5 3.487324 1_555
Pb2_3 Pb2_5 3.487324 1_465
Pb2_3 Pb3_1 3.562329 1_555
Pb2_3 Pb3_7 3.562329 1_455
Pb2_4 Pb3_0 3.562329 1_555
Pb2_4 Pb3_6 3.562329 1_545
Pb2_5 Pb3_1 3.562329 1_555
Pb2_5 Pb3_7 3.562329 1_545
Pb2_6 Pb3_4 3.562329 1_555
Pb2_6 Pb3_2 3.562329 1_555
Pb2_7 Pb3_3 3.562329 1_555
Pb2_7 Pb3_5 3.562329 1_555
Pb3_0 Pb3_6 3.487324 1_545
Pb3_0 Pb3_6 3.487324 1_455
Pb3_1 Pb3_7 3.487324 1_545
Pb3_1 Pb3_7 3.487324 1_455
Pb3_2 Pb3_4 3.487324 1_555
Pb3_2 Pb3_4 3.487324 1_465
Pb3_3 Pb3_5 3.487324 1_555
Pb3_3 Pb3_5 3.487324 1_465
