# generated using pymatgen
data_CsErSiS4
_symmetry_space_group_name_H-M   'P 1'
_cell_length_a   6.38744400
_cell_length_b   6.72162200
_cell_length_c   17.96405000
_cell_angle_alpha   90.00000000
_cell_angle_beta   90.00000000
_cell_angle_gamma   90.00000000
_symmetry_Int_Tables_number   1
_chemical_formula_structural   CsErSiS4
_chemical_formula_sum   'Cs4 Er4 Si4 S16'
_cell_volume   771.26823733
_cell_formula_units_Z   4
loop_
 _symmetry_equiv_pos_site_id
 _symmetry_equiv_pos_as_xyz
  1  'x, y, z'
loop_
 _atom_site_type_symbol
 _atom_site_label
 _atom_site_symmetry_multiplicity
 _atom_site_fract_x
 _atom_site_fract_y
 _atom_site_fract_z
 _atom_site_occupancy
  Cs  Cs0  1  0.51262000  0.99409700  0.53232800  1
  Cs  Cs1  1  0.01262000  0.50590300  0.46767200  1
  Cs  Cs2  1  0.48738000  0.49409700  0.96767200  1
  Cs  Cs3  1  0.98738000  0.00590300  0.03232800  1
  Er  Er0  1  0.70878000  0.97763000  0.27163700  1
  Er  Er1  1  0.20878000  0.52237000  0.72836300  1
  Er  Er2  1  0.29122000  0.47763000  0.22836300  1
  Er  Er3  1  0.79122000  0.02237000  0.77163700  1
  Si  Si0  1  0.70908700  0.48255600  0.67027800  1
  Si  Si1  1  0.29091300  0.98255600  0.82972200  1
  Si  Si2  1  0.79091300  0.51744400  0.17027800  1
  Si  Si3  1  0.20908700  0.01744400  0.32972200  1
  S  S0  1  0.06609000  0.75327400  0.85070300  1
  S  S1  1  0.56609000  0.74672600  0.14929700  1
  S  S2  1  0.93391000  0.25327400  0.64929700  1
  S  S3  1  0.43391000  0.24672600  0.35070300  1
  S  S4  1  0.39615300  0.75327600  0.34018700  1
  S  S5  1  0.10384700  0.24672400  0.84018700  1
  S  S6  1  0.89615300  0.74672400  0.65981300  1
  S  S7  1  0.60384700  0.25327600  0.15981300  1
  S  S8  1  0.94529600  0.01144600  0.40084600  1
  S  S9  1  0.44529600  0.48855400  0.59915400  1
  S  S10  1  0.05470400  0.51144600  0.09915400  1
  S  S11  1  0.55470400  0.98855400  0.90084600  1
  S  S12  1  0.39835200  0.91922100  0.72007000  1
  S  S13  1  0.89835200  0.58077900  0.27993000  1
  S  S14  1  0.60164800  0.41922100  0.77993000  1
  S  S15  1  0.10164800  0.08077900  0.22007000  1
loop_
_geom_bond_atom_site_label_1
_geom_bond_atom_site_label_2
_geom_bond_distance
_geom_bond_site_symmetry_2
Cs0 S12 3.487191 1_555
Cs0 S9 3.559782 1_565
Cs0 S9 3.629451 1_555
Cs0 S8 3.637362 1_565
Cs0 S3 3.712354 1_565
Cs0 S6 3.743127 1_555
Cs0 S2 3.832933 1_565
Cs0 S4 3.884250 1_555
Cs1 S13 3.487191 1_455
Cs1 S8 3.559782 1_455
Cs1 S8 3.629451 1_465
Cs1 S9 3.637362 1_555
Cs1 S2 3.712354 1_455
Cs1 S4 3.743127 1_555
Cs1 S3 3.832933 1_555
Cs1 S6 3.884250 1_455
Cs2 S14 3.487191 1_555
Cs2 S11 3.559782 1_555
Cs2 S11 3.629451 1_545
Cs2 S10 3.637362 1_556
Cs2 S1 3.712354 1_556
Cs2 S5 3.743127 1_555
Cs2 S0 3.832933 1_555
Cs2 S7 3.884250 1_556
Cs3 S15 3.487191 1_655
Cs3 S10 3.559782 1_645
Cs3 S10 3.629451 1_655
Cs3 S11 3.637362 1_544
Cs3 S0 3.712354 1_644
Cs3 S7 3.743127 1_555
Cs3 S1 3.832933 1_545
Cs3 S5 3.884250 1_654
Er0 S15 2.763337 1_665
Er0 S8 2.778770 1_565
Er0 S4 2.788929 1_555
Er0 S7 2.813786 1_565
Er0 S1 2.840692 1_555
Er0 S3 2.893362 1_565
Er0 S13 2.933238 1_555
Er1 S14 2.763337 1_555
Er1 S9 2.778770 1_555
Er1 S6 2.788929 1_455
Er1 S5 2.813786 1_555
Er1 S0 2.840692 1_555
Er1 S2 2.893362 1_455
Er1 S12 2.933238 1_555
Er2 S13 2.763337 1_455
Er2 S10 2.778770 1_555
Er2 S7 2.788929 1_555
Er2 S4 2.813786 1_555
Er2 S3 2.840692 1_555
Er2 S1 2.893362 1_555
Er2 S15 2.933238 1_555
Er3 S12 2.763337 1_545
Er3 S11 2.778770 1_545
Er3 S5 2.788929 1_655
Er3 S6 2.813786 1_545
Er3 S2 2.840692 1_555
Er3 S0 2.893362 1_645
Er3 S14 2.933238 1_555
S0 Si1 2.139956 1_555
S1 Si2 2.139956 1_555
S2 Si0 2.139956 1_555
S3 Si3 2.139956 1_555
S4 Si3 2.148477 1_565
S5 Si1 2.148477 1_545
S6 Si0 2.148477 1_555
S7 Si2 2.148477 1_555
S8 Si3 2.114979 1_655
S9 Si0 2.114979 1_555
S10 Si2 2.114979 1_455
S11 Si1 2.114979 1_555
S12 Si1 2.128914 1_555
S13 Si2 2.128914 1_555
S14 Si0 2.128914 1_555
S15 Si3 2.128914 1_555
