# generated using pymatgen
data_Ca3(GeP2)2
_symmetry_space_group_name_H-M   'P 1'
_cell_length_a   17.50161348
_cell_length_b   7.06065290
_cell_length_c   7.13251705
_cell_angle_alpha   68.24469367
_cell_angle_beta   90.00000000
_cell_angle_gamma   90.00000000
_symmetry_Int_Tables_number   1
_chemical_formula_structural   Ca3(GeP2)2
_chemical_formula_sum   'Ca12 Ge8 P16'
_cell_volume   818.60877196
_cell_formula_units_Z   4
loop_
 _symmetry_equiv_pos_site_id
 _symmetry_equiv_pos_as_xyz
  1  'x, y, z'
loop_
 _atom_site_type_symbol
 _atom_site_label
 _atom_site_symmetry_multiplicity
 _atom_site_fract_x
 _atom_site_fract_y
 _atom_site_fract_z
 _atom_site_occupancy
  Ca  Ca0  1  0.31688489  0.01177689  0.78492367  1
  Ca  Ca1  1  0.81688489  0.48822311  0.21507633  1
  Ca  Ca2  1  0.06067732  0.01177355  0.74274958  1
  Ca  Ca3  1  0.18311511  0.51177689  0.78492367  1
  Ca  Ca4  1  0.43999080  0.99569601  0.26244877  1
  Ca  Ca5  1  0.93999080  0.50430399  0.73755123  1
  Ca  Ca6  1  0.56000920  0.00430399  0.73755123  1
  Ca  Ca7  1  0.06000920  0.49569601  0.26244877  1
  Ca  Ca8  1  0.43932268  0.51177355  0.74274958  1
  Ca  Ca9  1  0.93932268  0.98822645  0.25725042  1
  Ca  Ca10  1  0.56067732  0.48822645  0.25725042  1
  Ca  Ca11  1  0.68311511  0.98822311  0.21507633  1
  Ge  Ge0  1  0.87406855  0.02985364  0.79057955  1
  Ge  Ge1  1  0.12593145  0.97014636  0.20942045  1
  Ge  Ge2  1  0.62593145  0.52985364  0.79057955  1
  Ge  Ge3  1  0.24198908  0.08430643  0.31898480  1
  Ge  Ge4  1  0.74198908  0.41569357  0.68101520  1
  Ge  Ge5  1  0.75801092  0.91569357  0.68101520  1
  Ge  Ge6  1  0.25801092  0.58430643  0.31898480  1
  Ge  Ge7  1  0.37406855  0.47014636  0.20942045  1
  P  P0  1  0.43374524  0.25540096  0.49971090  1
  P  P1  1  0.68530741  0.72338789  0.96260525  1
  P  P2  1  0.81469259  0.22338789  0.96260525  1
  P  P3  1  0.31469259  0.27661211  0.03739475  1
  P  P4  1  0.30246847  0.77310182  0.50962422  1
  P  P5  1  0.80246847  0.72689818  0.49037578  1
  P  P6  1  0.69753153  0.22689818  0.49037578  1
  P  P7  1  0.19753153  0.27310182  0.50962422  1
  P  P8  1  0.05916790  0.24969627  0.00511492  1
  P  P9  1  0.18530741  0.77661211  0.03739475  1
  P  P10  1  0.55916790  0.25030373  0.99488508  1
  P  P11  1  0.94083210  0.75030373  0.99488508  1
  P  P12  1  0.93374524  0.24459904  0.50028910  1
  P  P13  1  0.56625476  0.74459904  0.50028910  1
  P  P14  1  0.06625476  0.75540096  0.49971090  1
  P  P15  1  0.44083210  0.74969627  0.00511492  1
loop_
_geom_bond_atom_site_label_1
_geom_bond_atom_site_label_2
_geom_bond_distance
_geom_bond_site_symmetry_2
Ca0 P15 2.905542 1_546
Ca0 P0 2.947250 1_555
Ca0 P7 2.989617 1_555
Ca0 P9 3.014336 1_546
Ca0 P4 3.035151 1_545
Ca0 P3 3.039218 1_556
Ca1 P11 2.905542 1_554
Ca1 P12 2.947250 1_555
Ca1 P6 2.989617 1_555
Ca1 P1 3.014336 1_554
Ca1 P5 3.035151 1_555
Ca1 P2 3.039218 1_554
Ca2 P12 2.919043 1_455
Ca2 P11 2.929284 1_445
Ca2 P14 2.935508 1_545
Ca2 P8 2.941923 1_556
Ca2 P9 3.056887 1_546
Ca2 P7 3.103531 1_555
Ca3 P8 2.905542 1_556
Ca3 P14 2.947250 1_555
Ca3 P4 2.989617 1_555
Ca3 P3 3.014336 1_556
Ca3 P7 3.035151 1_555
Ca3 P9 3.039218 1_556
Ca4 P0 2.922061 1_565
Ca4 P13 2.945306 1_555
Ca4 P10 2.946368 1_564
Ca4 P15 2.957899 1_555
Ca4 P3 2.993245 1_565
Ca4 P4 3.052417 1_555
Ca5 P12 2.922061 1_555
Ca5 P14 2.945306 1_655
Ca5 P8 2.946368 1_656
Ca5 P11 2.957899 1_555
Ca5 P2 2.993245 1_555
Ca5 P5 3.052417 1_555
Ca6 P13 2.922061 1_545
Ca6 P0 2.945306 1_555
Ca6 P15 2.946368 1_546
Ca6 P10 2.957899 1_555
Ca6 P1 2.993245 1_545
Ca6 P6 3.052417 1_555
Ca7 P14 2.922061 1_555
Ca7 P12 2.945306 1_455
Ca7 P11 2.946368 1_454
Ca7 P8 2.957899 1_555
Ca7 P9 2.993245 1_555
Ca7 P7 3.052417 1_555
Ca8 P13 2.919043 1_555
Ca8 P10 2.929284 1_555
Ca8 P0 2.935508 1_555
Ca8 P15 2.941923 1_556
Ca8 P3 3.056887 1_556
Ca8 P4 3.103531 1_555
Ca9 P14 2.919043 1_655
Ca9 P8 2.929284 1_665
Ca9 P12 2.935508 1_565
Ca9 P11 2.941923 1_554
Ca9 P2 3.056887 1_564
Ca9 P5 3.103531 1_555
Ca10 P0 2.919043 1_555
Ca10 P15 2.929284 1_555
Ca10 P13 2.935508 1_555
Ca10 P10 2.941923 1_554
Ca10 P1 3.056887 1_554
Ca10 P6 3.103531 1_555
Ca11 P10 2.905542 1_564
Ca11 P13 2.947250 1_555
Ca11 P5 2.989617 1_555
Ca11 P2 3.014336 1_564
Ca11 P6 3.035151 1_565
Ca11 P1 3.039218 1_554
Ge0 P11 2.291848 1_545
Ge0 P12 2.312928 1_555
Ge0 P2 2.386522 1_555
Ge0 Ge5 2.419317 1_545
Ge1 P8 2.291848 1_565
Ge1 P14 2.312928 1_555
Ge1 P9 2.386522 1_555
Ge1 Ge3 2.419317 1_565
Ge2 P10 2.291848 1_555
Ge2 P13 2.312928 1_555
Ge2 P1 2.386522 1_555
Ge2 Ge4 2.419317 1_555
Ge3 P3 2.339875 1_555
Ge3 P7 2.361114 1_555
Ge3 P4 2.362764 1_545
Ge4 P2 2.339875 1_555
Ge4 P6 2.361114 1_555
Ge4 P5 2.362764 1_555
Ge5 P1 2.339875 1_555
Ge5 P5 2.361114 1_555
Ge5 P6 2.362764 1_565
Ge6 P9 2.339875 1_555
Ge6 P4 2.361114 1_555
Ge6 P7 2.362764 1_555
Ge6 Ge7 2.419317 1_555
Ge7 P15 2.291848 1_555
Ge7 P0 2.312928 1_555
Ge7 P3 2.386522 1_555
