# generated using pymatgen
data_Mg2VWO6
_symmetry_space_group_name_H-M   'P 1'
_cell_length_a   5.37400900
_cell_length_b   5.21129000
_cell_length_c   9.22234890
_cell_angle_alpha   56.18127915
_cell_angle_beta   90.00000000
_cell_angle_gamma   90.00000000
_symmetry_Int_Tables_number   1
_chemical_formula_structural   Mg2VWO6
_chemical_formula_sum   'Mg4 V2 W2 O12'
_cell_volume   214.57694508
_cell_formula_units_Z   2
loop_
 _symmetry_equiv_pos_site_id
 _symmetry_equiv_pos_as_xyz
  1  'x, y, z'
loop_
 _atom_site_type_symbol
 _atom_site_label
 _atom_site_symmetry_multiplicity
 _atom_site_fract_x
 _atom_site_fract_y
 _atom_site_fract_z
 _atom_site_occupancy
  Mg  Mg0  1  0.04635200  0.25422200  0.74800400  1
  Mg  Mg1  1  0.54635200  0.74577800  0.75199600  1
  Mg  Mg2  1  0.95364800  0.74577800  0.25199600  1
  Mg  Mg3  1  0.45364800  0.25422200  0.24800400  1
  V  V0  1  0.00000000  0.50000000  0.00000000  1
  V  V1  1  0.50000000  0.50000000  0.50000000  1
  W  W0  1  0.00000000  0.00000000  0.50000000  1
  W  W1  1  0.50000000  0.00000000  0.00000000  1
  O  O0  1  0.31728100  0.75072300  0.57082200  1
  O  O1  1  0.81728100  0.24927700  0.92917800  1
  O  O2  1  0.68271900  0.24927700  0.42917800  1
  O  O3  1  0.18271900  0.75072300  0.07082200  1
  O  O4  1  0.17705100  0.38552000  0.43422900  1
  O  O5  1  0.67705100  0.61448000  0.06577100  1
  O  O6  1  0.82294900  0.61448000  0.56577100  1
  O  O7  1  0.32294900  0.38552000  0.93422900  1
  O  O8  1  0.42274200  0.11881900  0.75385700  1
  O  O9  1  0.92274200  0.88118100  0.74614300  1
  O  O10  1  0.07725800  0.11881900  0.25385700  1
  O  O11  1  0.57725800  0.88118100  0.24614300  1
loop_
_geom_bond_atom_site_label_1
_geom_bond_atom_site_label_2
_geom_bond_distance
_geom_bond_site_symmetry_2
Mg0 O9 2.063477 1_445
Mg0 O1 2.063955 1_455
Mg0 O6 2.068414 1_455
Mg0 O8 2.133033 1_555
Mg1 O8 2.063477 1_565
Mg1 O0 2.063955 1_555
Mg1 O7 2.068414 1_555
Mg1 O9 2.133033 1_555
Mg2 O10 2.063477 1_665
Mg2 O3 2.063955 1_655
Mg2 O4 2.068414 1_655
Mg2 O11 2.133033 1_555
Mg3 O11 2.063477 1_545
Mg3 O2 2.063955 1_555
Mg3 O5 2.068414 1_555
Mg3 O10 2.133033 1_555
O0 V1 2.011942 1_555
O0 W0 2.019145 1_565
O1 V0 2.011942 1_656
O1 W1 2.019145 1_556
O2 V1 2.011942 1_555
O2 W0 2.019145 1_655
O3 V0 2.011942 1_555
O3 W1 2.019145 1_565
O4 W0 1.988226 1_555
O4 V1 2.034383 1_555
O5 W1 1.988226 1_565
O5 V0 2.034383 1_655
O6 W0 1.988226 1_665
O6 V1 2.034383 1_555
O7 W1 1.988226 1_556
O7 V0 2.034383 1_556
O8 W1 2.035718 1_556
O8 V1 2.103008 1_555
O9 W0 2.035718 1_665
O9 V0 2.103008 1_656
O10 W0 2.035718 1_555
O10 V0 2.103008 1_555
O11 W1 2.035718 1_565
O11 V1 2.103008 1_555
