# generated using pymatgen
data_Na3Yb
_symmetry_space_group_name_H-M   'P 1'
_cell_length_a   7.69464385
_cell_length_b   7.69464385
_cell_length_c   6.03756100
_cell_angle_alpha   90.00000000
_cell_angle_beta   90.00000000
_cell_angle_gamma   119.99999868
_symmetry_Int_Tables_number   1
_chemical_formula_structural   Na3Yb
_chemical_formula_sum   'Na6 Yb2'
_cell_volume   309.57737611
_cell_formula_units_Z   2
loop_
 _symmetry_equiv_pos_site_id
 _symmetry_equiv_pos_as_xyz
  1  'x, y, z'
loop_
 _atom_site_type_symbol
 _atom_site_label
 _atom_site_symmetry_multiplicity
 _atom_site_fract_x
 _atom_site_fract_y
 _atom_site_fract_z
 _atom_site_occupancy
  Na  Na0  1  0.16130700  0.32261500  0.25000000  1
  Na  Na1  1  0.67738500  0.83869300  0.25000000  1
  Na  Na2  1  0.16130700  0.83869300  0.25000000  1
  Na  Na3  1  0.83869300  0.67738500  0.75000000  1
  Na  Na4  1  0.32261500  0.16130700  0.75000000  1
  Na  Na5  1  0.83869300  0.16130700  0.75000000  1
  Yb  Yb0  1  0.33333300  0.66666700  0.75000000  1
  Yb  Yb1  1  0.66666700  0.33333300  0.25000000  1
loop_
_geom_bond_atom_site_label_1
_geom_bond_atom_site_label_2
_geom_bond_distance
_geom_bond_site_symmetry_2
Na0 Na5 3.706045 1_454
Na0 Na5 3.706045 1_455
Na0 Na4 3.706052 1_554
Na0 Na4 3.706052 1_555
Na0 Na2 3.723607 1_545
Na0 Na1 3.723608 1_445
Na0 Yb0 3.790701 1_554
Na0 Yb0 3.790701 1_555
Na0 Yb1 3.847977 1_455
Na0 Yb1 3.847993 1_555
Na0 Na2 3.971036 1_555
Na0 Na1 3.971036 1_555
Na1 Na5 3.706045 1_565
Na1 Na5 3.706045 1_564
Na1 Na3 3.706052 1_555
Na1 Na3 3.706052 1_554
Na1 Na2 3.723607 1_655
Na1 Yb0 3.790701 1_554
Na1 Yb0 3.790701 1_555
Na1 Yb1 3.847977 1_565
Na1 Yb1 3.847993 1_555
Na1 Na2 3.971036 1_555
Na2 Na3 3.706045 1_455
Na2 Na3 3.706045 1_454
Na2 Na4 3.706045 1_564
Na2 Na4 3.706045 1_565
Na2 Yb0 3.790701 1_555
Na2 Yb0 3.790701 1_554
Na2 Yb1 3.847985 1_455
Na2 Yb1 3.847985 1_565
Na3 Na5 3.723607 1_565
Na3 Na4 3.723608 1_665
Na3 Yb1 3.790701 1_555
Na3 Yb1 3.790701 1_556
Na3 Yb0 3.847977 1_655
Na3 Yb0 3.847993 1_555
Na3 Na5 3.971036 1_555
Na3 Na4 3.971036 1_555
Na4 Na5 3.723607 1_455
Na4 Yb1 3.790701 1_555
Na4 Yb1 3.790701 1_556
Na4 Yb0 3.847977 1_545
Na4 Yb0 3.847993 1_555
Na4 Na5 3.971036 1_555
Na5 Yb1 3.790701 1_555
Na5 Yb1 3.790701 1_556
Na5 Yb0 3.847985 1_545
Na5 Yb0 3.847985 1_655
