# generated using pymatgen
data_Ba12(CoO3)11
_symmetry_space_group_name_H-M   'P 1'
_cell_length_a   11.57750004
_cell_length_b   11.57750004
_cell_length_c   14.79856442
_cell_angle_alpha   78.84014472
_cell_angle_beta   78.84014472
_cell_angle_gamma   119.98101582
_symmetry_Int_Tables_number   1
_chemical_formula_structural   Ba12(CoO3)11
_chemical_formula_sum   'Ba24 Co22 O66'
_cell_volume   1584.29002881
_cell_formula_units_Z   2
loop_
 _symmetry_equiv_pos_site_id
 _symmetry_equiv_pos_as_xyz
  1  'x, y, z'
loop_
 _atom_site_type_symbol
 _atom_site_label
 _atom_site_symmetry_multiplicity
 _atom_site_fract_x
 _atom_site_fract_y
 _atom_site_fract_z
 _atom_site_occupancy
  Ba  Ba0  1  0.13109000  0.54956200  0.08048100  1
  Ba  Ba1  1  0.45043800  0.86891000  0.41951900  1
  Ba  Ba2  1  0.86891000  0.45043800  0.91951900  1
  Ba  Ba3  1  0.54956200  0.13109000  0.58048100  1
  Ba  Ba4  1  0.96243500  0.38171900  0.41005100  1
  Ba  Ba5  1  0.61828100  0.03756500  0.08994900  1
  Ba  Ba6  1  0.03756500  0.61828100  0.58994900  1
  Ba  Ba7  1  0.38171900  0.96243500  0.91005100  1
  Ba  Ba8  1  0.20973300  0.79026700  0.25000000  1
  Ba  Ba9  1  0.79026700  0.20973300  0.75000000  1
  Ba  Ba10  1  0.69847800  0.30152200  0.25000000  1
  Ba  Ba11  1  0.30152200  0.69847800  0.75000000  1
  Ba  Ba12  1  0.95884100  0.87132700  0.41650900  1
  Ba  Ba13  1  0.12867300  0.04115900  0.08349100  1
  Ba  Ba14  1  0.04115900  0.12867300  0.58349100  1
  Ba  Ba15  1  0.87132700  0.95884100  0.91650900  1
  Ba  Ba16  1  0.22865900  0.30278600  0.25170500  1
  Ba  Ba17  1  0.69721400  0.77134100  0.24829500  1
  Ba  Ba18  1  0.77134100  0.69721400  0.74829500  1
  Ba  Ba19  1  0.30278600  0.22865900  0.75170500  1
  Ba  Ba20  1  0.62971900  0.54780500  0.07338800  1
  Ba  Ba21  1  0.45219500  0.37028100  0.42661200  1
  Ba  Ba22  1  0.37028100  0.45219500  0.92661200  1
  Ba  Ba23  1  0.54780500  0.62971900  0.57338800  1
  Co  Co0  1  0.87831300  0.12168700  0.25000000  1
  Co  Co1  1  0.12168700  0.87831300  0.75000000  1
  Co  Co2  1  0.97342500  0.22510200  0.05344000  1
  Co  Co3  1  0.77489800  0.02657500  0.44656000  1
  Co  Co4  1  0.02657500  0.77489800  0.94656000  1
  Co  Co5  1  0.22510200  0.97342500  0.55344000  1
  Co  Co6  1  0.93449700  0.68406300  0.13272300  1
  Co  Co7  1  0.31593700  0.06550300  0.36727700  1
  Co  Co8  1  0.06550300  0.31593700  0.86727700  1
  Co  Co9  1  0.68406300  0.93449700  0.63272300  1
  Co  Co10  1  0.84399600  0.59398700  0.31280400  1
  Co  Co11  1  0.40601300  0.15600400  0.18719600  1
  Co  Co12  1  0.15600400  0.40601300  0.68719600  1
  Co  Co13  1  0.59398700  0.84399600  0.81280400  1
  Co  Co14  1  0.75712400  0.50640500  0.48858200  1
  Co  Co15  1  0.49359500  0.24287600  0.01141800  1
  Co  Co16  1  0.24287600  0.49359500  0.51141800  1
  Co  Co17  1  0.50640500  0.75712400  0.98858200  1
  Co  Co18  1  0.32955700  0.58136200  0.33909900  1
  Co  Co19  1  0.41863800  0.67044300  0.16090100  1
  Co  Co20  1  0.67044300  0.41863800  0.66090100  1
  Co  Co21  1  0.58136200  0.32955700  0.83909900  1
  O  O0  1  0.90724700  0.79979800  0.04410500  1
  O  O1  1  0.20020200  0.09275300  0.45589500  1
  O  O2  1  0.09275300  0.20020200  0.95589500  1
  O  O3  1  0.79979800  0.90724700  0.54410500  1
  O  O4  1  0.72635500  0.62314300  0.40068100  1
  O  O5  1  0.37685700  0.27364500  0.09931900  1
  O  O6  1  0.27364500  0.37685700  0.59931900  1
  O  O7  1  0.62314300  0.72635500  0.90068100  1
  O  O8  1  0.44755100  0.55244900  0.25000000  1
  O  O9  1  0.55244900  0.44755100  0.75000000  1
  O  O10  1  0.90634900  0.58405300  0.04714500  1
  O  O11  1  0.41594700  0.09365100  0.45285500  1
  O  O12  1  0.09365100  0.41594700  0.95285500  1
  O  O13  1  0.58405300  0.90634900  0.54714500  1
  O  O14  1  0.59567300  0.27341100  0.09818600  1
  O  O15  1  0.72658900  0.40432700  0.40181400  1
  O  O16  1  0.40432700  0.72658900  0.90181400  1
  O  O17  1  0.27341100  0.59567300  0.59818600  1
  O  O18  1  0.22709900  0.55219400  0.24932400  1
  O  O19  1  0.44780600  0.77290100  0.25067600  1
  O  O20  1  0.77290100  0.44780600  0.75067600  1
  O  O21  1  0.55219400  0.22709900  0.74932400  1
  O  O22  1  0.94861700  0.62478200  0.39903800  1
  O  O23  1  0.37521800  0.05138300  0.10096200  1
  O  O24  1  0.05138300  0.37521800  0.60096200  1
  O  O25  1  0.62478200  0.94861700  0.89903800  1
  O  O26  1  0.12346700  0.80240300  0.04045700  1
  O  O27  1  0.19759700  0.87653300  0.45954300  1
  O  O28  1  0.87653300  0.19759700  0.95954300  1
  O  O29  1  0.80240300  0.12346700  0.54045700  1
  O  O30  1  0.85845500  0.25422100  0.13778400  1
  O  O31  1  0.74577900  0.14154500  0.36221600  1
  O  O32  1  0.14154500  0.74577900  0.86221600  1
  O  O33  1  0.25422100  0.85845500  0.63778400  1
  O  O34  1  0.96193300  0.56524100  0.22479300  1
  O  O35  1  0.43475900  0.03806700  0.27520700  1
  O  O36  1  0.03806700  0.43475900  0.77520700  1
  O  O37  1  0.56524100  0.96193300  0.72479300  1
  O  O38  1  0.21216900  0.61218500  0.42327100  1
  O  O39  1  0.38781500  0.78783100  0.07672900  1
  O  O40  1  0.78783100  0.38781500  0.57672900  1
  O  O41  1  0.61218500  0.21216900  0.92327100  1
  O  O42  1  0.08141400  0.25958100  0.13341700  1
  O  O43  1  0.74041900  0.91858600  0.36658300  1
  O  O44  1  0.91858600  0.74041900  0.86658300  1
  O  O45  1  0.25958100  0.08141400  0.63341700  1
  O  O46  1  0.03631100  0.85724200  0.64417000  1
  O  O47  1  0.14275800  0.96368900  0.85583000  1
  O  O48  1  0.96368900  0.14275800  0.35583000  1
  O  O49  1  0.85724200  0.03631100  0.14417000  1
  O  O50  1  0.96189900  0.78344900  0.22324600  1
  O  O51  1  0.21655100  0.03810100  0.27675400  1
  O  O52  1  0.03810100  0.21655100  0.77675400  1
  O  O53  1  0.78344900  0.96189900  0.72324600  1
  O  O54  1  0.21376700  0.39095300  0.42413200  1
  O  O55  1  0.60904700  0.78623300  0.07586800  1
  O  O56  1  0.78623300  0.60904700  0.57586800  1
  O  O57  1  0.39095300  0.21376700  0.92413200  1
  O  O58  1  0.38908300  0.56502200  0.07599400  1
  O  O59  1  0.43497800  0.61091700  0.42400600  1
  O  O60  1  0.61091700  0.43497800  0.92400600  1
  O  O61  1  0.56502200  0.38908300  0.57599400  1
  O  O62  1  0.74229000  0.56528500  0.22342700  1
  O  O63  1  0.43471500  0.25771000  0.27657300  1
  O  O64  1  0.25771000  0.43471500  0.77657300  1
  O  O65  1  0.56528500  0.74229000  0.72342700  1
loop_
_geom_bond_atom_site_label_1
_geom_bond_atom_site_label_2
_geom_bond_distance
_geom_bond_site_symmetry_2
Ba0 O12 2.631672 1_554
Ba0 O34 2.704726 1_455
Ba0 O39 2.851203 1_555
Ba0 O58 2.888323 1_555
Ba0 O26 2.921435 1_555
Ba0 O18 2.924097 1_555
Ba0 O10 2.938016 1_455
Ba0 O42 3.015530 1_555
Ba0 O16 3.063232 1_554
Ba0 O30 3.070618 1_455
Ba1 O13 2.631672 1_555
Ba1 O35 2.704726 1_565
Ba1 O38 2.851203 1_555
Ba1 O59 2.888323 1_555
Ba1 O27 2.921435 1_555
Ba1 O19 2.924097 1_555
Ba1 O11 2.938016 1_565
Ba1 O43 3.015530 1_555
Ba1 O17 3.063232 1_555
Ba1 O31 3.070618 1_565
Ba2 O10 2.631672 1_556
Ba2 O36 2.704726 1_655
Ba2 O41 2.851203 1_555
Ba2 O60 2.888323 1_555
Ba2 O28 2.921435 1_555
Ba2 O20 2.924097 1_555
Ba2 O12 2.938016 1_655
Ba2 O44 3.015530 1_555
Ba2 O14 3.063232 1_556
Ba2 O32 3.070618 1_655
Ba3 O11 2.631672 1_555
Ba3 O37 2.704726 1_545
Ba3 O40 2.851203 1_555
Ba3 O61 2.888323 1_555
Ba3 O29 2.921435 1_555
Ba3 O21 2.924097 1_555
Ba3 O13 2.938016 1_545
Ba3 O45 3.015530 1_555
Ba3 O15 3.063232 1_555
Ba3 O33 3.070618 1_545
Ba4 O29 2.634865 1_555
Ba4 O38 2.868466 1_655
Ba4 O22 2.872906 1_555
Ba4 O18 2.873889 1_655
Ba4 O15 2.893062 1_555
Ba4 O54 2.907611 1_655
Ba4 O40 2.907800 1_555
Ba4 O31 3.000539 1_555
Ba4 O48 3.031979 1_555
Ba4 O34 3.129580 1_555
Ba4 O24 3.188935 1_655
Ba5 O28 2.634865 1_554
Ba5 O39 2.868466 1_545
Ba5 O23 2.872906 1_555
Ba5 O19 2.873889 1_545
Ba5 O14 2.893062 1_555
Ba5 O55 2.907611 1_545
Ba5 O41 2.907800 1_554
Ba5 O30 3.000539 1_555
Ba5 O49 3.031979 1_555
Ba5 O35 3.129580 1_555
Ba5 O25 3.188935 1_544
Ba6 O27 2.634865 1_555
Ba6 O40 2.868466 1_455
Ba6 O24 2.872906 1_555
Ba6 O20 2.873889 1_455
Ba6 O17 2.893062 1_555
Ba6 O56 2.907611 1_455
Ba6 O38 2.907800 1_555
Ba6 O33 3.000539 1_555
Ba6 O46 3.031979 1_555
Ba6 O36 3.129580 1_555
Ba6 O22 3.188935 1_455
Ba7 O26 2.634865 1_556
Ba7 O41 2.868466 1_565
Ba7 O25 2.872906 1_555
Ba7 O21 2.873889 1_565
Ba7 O16 2.893062 1_555
Ba7 O57 2.907611 1_565
Ba7 O39 2.907800 1_556
Ba7 O32 3.000539 1_555
Ba7 O47 3.031979 1_555
Ba7 O37 3.129580 1_555
Ba7 O23 3.188935 1_566
Ba8 O23 2.769265 1_565
Ba8 O22 2.769265 1_455
Ba8 O19 2.863809 1_555
Ba8 O18 2.863809 1_555
Ba8 O34 2.911630 1_455
Ba8 O35 2.911630 1_565
Ba8 O51 2.936212 1_565
Ba8 O50 2.936212 1_455
Ba8 O38 2.977615 1_555
Ba8 O39 2.977615 1_555
Ba9 O24 2.769265 1_655
Ba9 O25 2.769265 1_545
Ba9 O20 2.863809 1_555
Ba9 O21 2.863809 1_555
Ba9 O36 2.911630 1_655
Ba9 O37 2.911630 1_545
Ba9 O52 2.936212 1_655
Ba9 O53 2.936212 1_545
Ba9 O41 2.977615 1_555
Ba9 O40 2.977615 1_555
Ba10 O31 2.581305 1_555
Ba10 O30 2.581305 1_555
Ba10 O15 2.738773 1_555
Ba10 O14 2.738773 1_555
Ba10 O62 2.765320 1_555
Ba10 O63 2.765320 1_555
Ba10 O34 2.928470 1_555
Ba10 O35 2.928470 1_555
Ba10 O11 3.322331 1_555
Ba10 O10 3.322331 1_555
Ba11 O32 2.581305 1_555
Ba11 O33 2.581305 1_555
Ba11 O16 2.738773 1_555
Ba11 O17 2.738773 1_555
Ba11 O65 2.765320 1_555
Ba11 O64 2.765320 1_555
Ba11 O37 2.928470 1_555
Ba11 O36 2.928470 1_555
Ba11 O12 3.322331 1_555
Ba11 O13 3.322331 1_555
Ba12 O3 2.617679 1_555
Ba12 O51 2.686175 1_665
Ba12 O56 2.848628 1_555
Ba12 O22 2.861495 1_555
Ba12 O4 2.886319 1_555
Ba12 O27 2.929123 1_655
Ba12 O1 2.961327 1_665
Ba12 O43 3.031422 1_555
Ba12 O48 3.065394 1_565
Ba12 O50 3.215467 1_555
Ba13 O2 2.617679 1_554
Ba13 O50 2.686175 1_445
Ba13 O57 2.848628 1_554
Ba13 O23 2.861495 1_555
Ba13 O5 2.886319 1_555
Ba13 O26 2.929123 1_545
Ba13 O0 2.961327 1_445
Ba13 O42 3.031422 1_555
Ba13 O49 3.065394 1_455
Ba13 O51 3.215467 1_555
Ba14 O1 2.617679 1_555
Ba14 O53 2.686175 1_445
Ba14 O54 2.848628 1_555
Ba14 O24 2.861495 1_555
Ba14 O6 2.886319 1_555
Ba14 O29 2.929123 1_455
Ba14 O3 2.961327 1_445
Ba14 O45 3.031422 1_555
Ba14 O46 3.065394 1_545
Ba14 O52 3.215467 1_555
Ba15 O0 2.617679 1_556
Ba15 O52 2.686175 1_665
Ba15 O55 2.848628 1_556
Ba15 O25 2.861495 1_555
Ba15 O7 2.886319 1_555
Ba15 O28 2.929123 1_565
Ba15 O2 2.961327 1_665
Ba15 O44 3.031422 1_555
Ba15 O47 3.065394 1_655
Ba15 O53 3.215467 1_555
Ba16 O48 2.569527 1_455
Ba16 O42 2.619615 1_555
Ba16 O8 2.721006 1_555
Ba16 O5 2.741972 1_555
Ba16 O63 2.758385 1_555
Ba16 O18 2.890040 1_555
Ba16 O54 2.931982 1_555
Ba16 O51 2.942516 1_555
Ba16 O58 2.977836 1_555
Ba16 O1 3.334960 1_555
Ba17 O49 2.569527 1_565
Ba17 O43 2.619615 1_555
Ba17 O8 2.721006 1_555
Ba17 O4 2.741972 1_555
Ba17 O62 2.758385 1_555
Ba17 O19 2.890040 1_555
Ba17 O55 2.931982 1_555
Ba17 O50 2.942516 1_555
Ba17 O59 2.977836 1_555
Ba17 O0 3.334960 1_555
Ba18 O46 2.569527 1_655
Ba18 O44 2.619615 1_555
Ba18 O9 2.721006 1_555
Ba18 O7 2.741972 1_555
Ba18 O65 2.758385 1_555
Ba18 O20 2.890040 1_555
Ba18 O56 2.931982 1_555
Ba18 O53 2.942516 1_555
Ba18 O60 2.977836 1_555
Ba18 O3 3.334960 1_555
Ba19 O47 2.569527 1_545
Ba19 O45 2.619615 1_555
Ba19 O9 2.721006 1_555
Ba19 O6 2.741972 1_555
Ba19 O64 2.758385 1_555
Ba19 O21 2.890040 1_555
Ba19 O57 2.931982 1_555
Ba19 O52 2.942516 1_555
Ba19 O61 2.977836 1_555
Ba19 O2 3.334960 1_555
Ba20 O60 2.767760 1_554
Ba20 O62 2.774893 1_555
Ba20 O58 2.884303 1_555
Ba20 O55 2.893876 1_555
Ba20 O5 2.932441 1_555
Ba20 O14 2.936551 1_555
Ba20 O0 2.937038 1_555
Ba20 O10 2.948949 1_555
Ba20 O7 2.999773 1_554
Ba20 O8 3.052194 1_555
Ba20 O63 3.362007 1_555
Ba20 O44 3.386204 1_554
Ba21 O61 2.767760 1_555
Ba21 O63 2.774893 1_555
Ba21 O59 2.884303 1_555
Ba21 O54 2.893876 1_555
Ba21 O4 2.932441 1_555
Ba21 O15 2.936551 1_555
Ba21 O1 2.937038 1_555
Ba21 O11 2.948949 1_555
Ba21 O6 2.999773 1_555
Ba21 O8 3.052194 1_555
Ba21 O62 3.362007 1_555
Ba21 O45 3.386204 1_555
Ba22 O58 2.767760 1_556
Ba22 O64 2.774893 1_555
Ba22 O60 2.884303 1_555
Ba22 O57 2.893876 1_555
Ba22 O7 2.932441 1_555
Ba22 O16 2.936551 1_555
Ba22 O2 2.937038 1_555
Ba22 O12 2.948949 1_555
Ba22 O5 2.999773 1_556
Ba22 O9 3.052194 1_555
Ba22 O65 3.362007 1_555
Ba22 O42 3.386204 1_556
Ba23 O59 2.767760 1_555
Ba23 O65 2.774893 1_555
Ba23 O61 2.884303 1_555
Ba23 O56 2.893876 1_555
Ba23 O6 2.932441 1_555
Ba23 O17 2.936551 1_555
Ba23 O3 2.937038 1_555
Ba23 O13 2.948949 1_555
Ba23 O4 2.999773 1_555
Ba23 O9 3.052194 1_555
Ba23 O64 3.362007 1_555
Ba23 O43 3.386204 1_555
Co0 O48 1.998857 1_555
Co0 O49 1.998857 1_555
Co0 O43 2.160094 1_545
Co0 O42 2.160094 1_655
Co0 O31 2.163098 1_555
Co0 O30 2.163098 1_555
Co1 O47 1.998857 1_555
Co1 O46 1.998857 1_555
Co1 O44 2.160094 1_455
Co1 O45 2.160094 1_565
Co1 O32 2.163098 1_555
Co1 O33 2.163098 1_555
Co2 O42 1.838509 1_655
Co2 O30 1.847042 1_555
Co2 O49 1.901584 1_555
Co2 O28 1.925679 1_554
Co2 O2 1.965356 1_654
Co2 O12 1.971351 1_654
Co3 O43 1.838509 1_545
Co3 O31 1.847042 1_555
Co3 O48 1.901584 1_555
Co3 O29 1.925679 1_555
Co3 O3 1.965356 1_545
Co3 O13 1.971351 1_545
Co4 O44 1.838509 1_455
Co4 O32 1.847042 1_555
Co4 O47 1.901584 1_555
Co4 O26 1.925679 1_556
Co4 O0 1.965356 1_456
Co4 O10 1.971351 1_456
Co5 O45 1.838509 1_565
Co5 O33 1.847042 1_555
Co5 O46 1.901584 1_555
Co5 O27 1.925679 1_555
Co5 O1 1.965356 1_565
Co5 O11 1.971351 1_565
Co6 O10 1.844170 1_555
Co6 O0 1.875415 1_555
Co6 O50 1.901455 1_555
Co6 O26 1.910941 1_655
Co6 O62 1.927576 1_555
Co6 O34 1.930920 1_555
Co7 O11 1.844170 1_555
Co7 O1 1.875415 1_555
Co7 O51 1.901455 1_555
Co7 O27 1.910941 1_545
Co7 O63 1.927576 1_555
Co7 O35 1.930920 1_555
Co8 O12 1.844170 1_555
Co8 O2 1.875415 1_555
Co8 O52 1.901455 1_555
Co8 O28 1.910941 1_455
Co8 O64 1.927576 1_555
Co8 O36 1.930920 1_555
Co9 O13 1.844170 1_555
Co9 O3 1.875415 1_555
Co9 O53 1.901455 1_555
Co9 O29 1.910941 1_565
Co9 O65 1.927576 1_555
Co9 O37 1.930920 1_555
Co10 O22 1.888288 1_555
Co10 O4 1.898398 1_555
Co10 O34 1.898687 1_555
Co10 O15 1.899614 1_555
Co10 O50 1.900827 1_555
Co10 O62 1.904805 1_555
Co11 O23 1.888288 1_555
Co11 O5 1.898398 1_555
Co11 O35 1.898687 1_555
Co11 O14 1.899614 1_555
Co11 O51 1.900827 1_555
Co11 O63 1.904805 1_555
Co12 O24 1.888288 1_555
Co12 O6 1.898398 1_555
Co12 O36 1.898687 1_555
Co12 O17 1.899614 1_555
Co12 O52 1.900827 1_555
Co12 O64 1.904805 1_555
Co13 O25 1.888288 1_555
Co13 O7 1.898398 1_555
Co13 O37 1.898687 1_555
Co13 O16 1.899614 1_555
Co13 O53 1.900827 1_555
Co13 O65 1.904805 1_555
Co14 O15 1.875096 1_555
Co14 O56 1.885914 1_555
Co14 O4 1.904115 1_555
Co14 O61 1.910952 1_555
Co14 O22 1.916372 1_555
Co14 O40 1.920182 1_555
Co15 O14 1.875096 1_555
Co15 O57 1.885914 1_554
Co15 O5 1.904115 1_555
Co15 O60 1.910952 1_554
Co15 O23 1.916372 1_555
Co15 O41 1.920182 1_554
Co16 O17 1.875096 1_555
Co16 O54 1.885914 1_555
Co16 O6 1.904115 1_555
Co16 O59 1.910952 1_555
Co16 O24 1.916372 1_555
Co16 O38 1.920182 1_555
Co17 O16 1.875096 1_555
Co17 O55 1.885914 1_556
Co17 O7 1.904115 1_555
Co17 O58 1.910952 1_556
Co17 O25 1.916372 1_555
Co17 O39 1.920182 1_556
Co18 O38 1.878147 1_555
Co18 O59 1.878352 1_555
Co18 O54 1.886774 1_555
Co18 O8 1.909812 1_555
Co18 O19 1.911326 1_555
Co18 O18 1.915594 1_555
Co19 O39 1.878147 1_555
Co19 O58 1.878352 1_555
Co19 O55 1.886774 1_555
Co19 O8 1.909812 1_555
Co19 O18 1.911326 1_555
Co19 O19 1.915594 1_555
Co20 O40 1.878147 1_555
Co20 O61 1.878352 1_555
Co20 O56 1.886774 1_555
Co20 O9 1.909812 1_555
Co20 O21 1.911326 1_555
Co20 O20 1.915594 1_555
Co21 O41 1.878147 1_555
Co21 O60 1.878352 1_555
Co21 O57 1.886774 1_555
Co21 O9 1.909812 1_555
Co21 O20 1.911326 1_555
Co21 O21 1.915594 1_555
