# generated using pymatgen
data_SrMg14AlO16
_symmetry_space_group_name_H-M   'P 1'
_cell_length_a   8.66651000
_cell_length_b   8.66651000
_cell_length_c   4.44137900
_cell_angle_alpha   90.00000000
_cell_angle_beta   90.00000000
_cell_angle_gamma   90.00000000
_symmetry_Int_Tables_number   1
_chemical_formula_structural   SrMg14AlO16
_chemical_formula_sum   'Sr1 Mg14 Al1 O16'
_cell_volume   333.58485085
_cell_formula_units_Z   1
loop_
 _symmetry_equiv_pos_site_id
 _symmetry_equiv_pos_as_xyz
  1  'x, y, z'
loop_
 _atom_site_type_symbol
 _atom_site_label
 _atom_site_symmetry_multiplicity
 _atom_site_fract_x
 _atom_site_fract_y
 _atom_site_fract_z
 _atom_site_occupancy
  Sr  Sr0  1  0.50000000  0.50000000  0.00000000  1
  Mg  Mg0  1  0.50000000  0.00000000  0.00000000  1
  Mg  Mg1  1  0.00000000  0.50000000  0.00000000  1
  Mg  Mg2  1  0.24852500  0.00000000  0.50000000  1
  Mg  Mg3  1  0.75147500  0.00000000  0.50000000  1
  Mg  Mg4  1  0.24150300  0.50000000  0.50000000  1
  Mg  Mg5  1  0.75849700  0.50000000  0.50000000  1
  Mg  Mg6  1  0.00000000  0.24852500  0.50000000  1
  Mg  Mg7  1  0.50000000  0.24150300  0.50000000  1
  Mg  Mg8  1  0.00000000  0.75147500  0.50000000  1
  Mg  Mg9  1  0.50000000  0.75849700  0.50000000  1
  Mg  Mg10  1  0.24530600  0.24530600  0.00000000  1
  Mg  Mg11  1  0.75469400  0.24530600  0.00000000  1
  Mg  Mg12  1  0.24530600  0.75469400  0.00000000  1
  Mg  Mg13  1  0.75469400  0.75469400  0.00000000  1
  Al  Al0  1  0.00000000  0.00000000  0.00000000  1
  O  O0  1  0.00000000  0.22648800  0.00000000  1
  O  O1  1  0.50000000  0.22637200  0.00000000  1
  O  O2  1  0.00000000  0.77351200  0.00000000  1
  O  O3  1  0.50000000  0.77362800  0.00000000  1
  O  O4  1  0.24965400  0.24965400  0.50000000  1
  O  O5  1  0.75034600  0.24965400  0.50000000  1
  O  O6  1  0.24965400  0.75034600  0.50000000  1
  O  O7  1  0.75034600  0.75034600  0.50000000  1
  O  O8  1  0.00000000  0.00000000  0.50000000  1
  O  O9  1  0.50000000  0.00000000  0.50000000  1
  O  O10  1  0.00000000  0.50000000  0.50000000  1
  O  O11  1  0.50000000  0.50000000  0.50000000  1
  O  O12  1  0.22648800  0.00000000  0.00000000  1
  O  O13  1  0.77351200  0.00000000  0.00000000  1
  O  O14  1  0.22637200  0.50000000  0.00000000  1
  O  O15  1  0.77362800  0.50000000  0.00000000  1
loop_
_geom_bond_atom_site_label_1
_geom_bond_atom_site_label_2
_geom_bond_distance
_geom_bond_site_symmetry_2
Mg0 O1 1.961855 1_555
Mg0 O3 1.961855 1_545
Mg0 O9 2.220689 1_554
Mg0 O9 2.220689 1_555
Mg0 O12 2.370394 1_555
Mg0 O13 2.370394 1_555
Mg1 O14 1.961855 1_555
Mg1 O15 1.961855 1_455
Mg1 O10 2.220689 1_555
Mg1 O10 2.220689 1_554
Mg1 O2 2.370394 1_555
Mg1 O0 2.370394 1_555
Mg2 O8 2.153844 1_555
Mg2 O4 2.163651 1_555
Mg2 O6 2.163651 1_545
Mg2 O9 2.179411 1_555
Mg2 O12 2.228887 1_556
Mg2 O12 2.228887 1_555
Mg3 O8 2.153844 1_655
Mg3 O5 2.163651 1_555
Mg3 O7 2.163651 1_545
Mg3 O9 2.179411 1_555
Mg3 O13 2.228887 1_555
Mg3 O13 2.228887 1_556
Mg4 O10 2.092988 1_555
Mg4 O6 2.170776 1_555
Mg4 O4 2.170776 1_555
Mg4 O14 2.224558 1_556
Mg4 O14 2.224558 1_555
Mg4 O11 2.240267 1_555
Mg5 O10 2.092988 1_655
Mg5 O7 2.170776 1_555
Mg5 O5 2.170776 1_555
Mg5 O15 2.224558 1_556
Mg5 O15 2.224558 1_555
Mg5 O11 2.240267 1_555
Mg6 O8 2.153844 1_555
Mg6 O4 2.163651 1_555
Mg6 O5 2.163651 1_455
Mg6 O10 2.179411 1_555
Mg6 O0 2.228887 1_555
Mg6 O0 2.228887 1_556
Mg7 O9 2.092988 1_555
Mg7 O5 2.170776 1_555
Mg7 O4 2.170776 1_555
Mg7 O1 2.224558 1_555
Mg7 O1 2.224558 1_556
Mg7 O11 2.240267 1_555
Mg8 O8 2.153844 1_565
Mg8 O6 2.163651 1_555
Mg8 O7 2.163651 1_455
Mg8 O10 2.179411 1_555
Mg8 O2 2.228887 1_555
Mg8 O2 2.228887 1_556
Mg9 O9 2.092988 1_565
Mg9 O7 2.170776 1_555
Mg9 O6 2.170776 1_555
Mg9 O3 2.224558 1_556
Mg9 O3 2.224558 1_555
Mg9 O11 2.240267 1_555
Mg10 O12 2.132193 1_555
Mg10 O0 2.132193 1_555
Mg10 O1 2.213399 1_555
Mg10 O14 2.213399 1_555
Mg10 O4 2.221329 1_554
Mg10 O4 2.221329 1_555
Mg11 O13 2.132193 1_555
Mg11 O0 2.132193 1_655
Mg11 O1 2.213399 1_555
Mg11 O15 2.213399 1_555
Mg11 O5 2.221329 1_554
Mg11 O5 2.221329 1_555
Mg12 O12 2.132193 1_565
Mg12 O2 2.132193 1_555
Mg12 O3 2.213399 1_555
Mg12 O14 2.213399 1_555
Mg12 O6 2.221329 1_554
Mg12 O6 2.221329 1_555
Mg13 O13 2.132193 1_565
Mg13 O2 2.132193 1_655
Mg13 O3 2.213399 1_555
Mg13 O15 2.213399 1_555
Mg13 O7 2.221329 1_555
Mg13 O7 2.221329 1_554
Al0 O0 1.962861 1_555
Al0 O12 1.962861 1_555
Al0 O2 1.962861 1_545
Al0 O13 1.962861 1_455
Al0 O8 2.220689 1_554
Al0 O8 2.220689 1_555
O1 Sr0 2.371400 1_555
O3 Sr0 2.371400 1_555
O11 Sr0 2.220689 1_555
O11 Sr0 2.220689 1_556
O14 Sr0 2.371400 1_555
O15 Sr0 2.371400 1_555
