# generated using pymatgen
data_CaGa4(WO6)2
_symmetry_space_group_name_H-M   'P 1'
_cell_length_a   5.44039941
_cell_length_b   5.25909054
_cell_length_c   9.02751377
_cell_angle_alpha   84.46983330
_cell_angle_beta   94.61662662
_cell_angle_gamma   106.33856774
_symmetry_Int_Tables_number   1
_chemical_formula_structural   CaGa4(WO6)2
_chemical_formula_sum   'Ca1 Ga4 W2 O12'
_cell_volume   246.32120994
_cell_formula_units_Z   1
loop_
 _symmetry_equiv_pos_site_id
 _symmetry_equiv_pos_as_xyz
  1  'x, y, z'
loop_
 _atom_site_type_symbol
 _atom_site_label
 _atom_site_symmetry_multiplicity
 _atom_site_fract_x
 _atom_site_fract_y
 _atom_site_fract_z
 _atom_site_occupancy
  Ca  Ca0  1  0.32030600  0.92813800  0.17407400  1
  Ga  Ga0  1  0.93966300  0.10361400  0.33055400  1
  Ga  Ga1  1  0.96436300  0.04411100  0.65863800  1
  Ga  Ga2  1  0.59501000  0.50873000  0.16687200  1
  Ga  Ga3  1  0.47004100  0.51638300  0.85556400  1
  W  W0  1  0.86113600  0.05428100  0.98066800  1
  W  W1  1  0.54694400  0.46833200  0.50744500  1
  O  O0  1  0.11407700  0.27158800  0.15072500  1
  O  O1  1  0.14368700  0.24274600  0.83922000  1
  O  O2  1  0.19546800  0.19096700  0.49686800  1
  O  O3  1  0.47871500  0.75089200  0.00318300  1
  O  O4  1  0.42566300  0.61370300  0.32465900  1
  O  O5  1  0.40924900  0.60439600  0.65017200  1
  O  O6  1  0.65595800  0.25174000  0.32724600  1
  O  O7  1  0.72080600  0.25566100  0.62557500  1
  O  O8  1  0.61869100  0.29639300  0.00867400  1
  O  O9  1  0.83123900  0.79253700  0.49611300  1
  O  O10  1  0.88137900  0.81127400  0.18241900  1
  O  O11  1  0.82800400  0.79491900  0.82133300  1
loop_
_geom_bond_atom_site_label_1
_geom_bond_atom_site_label_2
_geom_bond_distance
_geom_bond_site_symmetry_2
Ca0 O4 2.210348 1_555
Ca0 O3 2.221436 1_555
Ca0 O10 2.297818 1_455
Ca0 O0 2.365260 1_565
Ca0 O6 2.538014 1_565
Ca0 O8 2.584466 1_565
Ga0 O6 1.911707 1_555
Ga0 O0 1.953500 1_655
Ga0 O2 1.959313 1_655
Ga0 O10 2.075175 1_545
Ga0 O9 2.094248 1_545
Ga1 O11 1.918958 1_545
Ga1 O7 1.945348 1_555
Ga1 O2 1.960067 1_655
Ga1 O9 2.022778 1_545
Ga1 O1 2.049254 1_655
Ga2 O10 1.895184 1_555
Ga2 O8 1.929023 1_555
Ga2 O6 1.957134 1_555
Ga2 O4 1.957438 1_555
Ga2 O3 2.036164 1_555
Ga3 O3 1.890260 1_556
Ga3 O5 1.893042 1_555
Ga3 O1 1.950977 1_555
Ga3 O8 1.985268 1_556
Ga3 O11 2.106771 1_555
O0 W0 2.160974 1_454
O1 W0 2.047121 1_455
O2 W1 2.054611 1_555
O3 W0 2.248012 1_564
O4 W1 1.899497 1_555
O5 W1 1.835224 1_555
O6 W1 2.277739 1_555
O7 W1 1.867038 1_555
O8 W0 2.117918 1_554
O9 W1 1.953951 1_555
O10 W0 2.135613 1_564
O11 W0 2.039629 1_565
