# generated using pymatgen
data_K2TiZnO4
_symmetry_space_group_name_H-M   'P 1'
_cell_length_a   5.62003571
_cell_length_b   11.28343457
_cell_length_c   16.00863781
_cell_angle_alpha   90.00000000
_cell_angle_beta   90.00000000
_cell_angle_gamma   90.00000000
_symmetry_Int_Tables_number   1
_chemical_formula_structural   K2TiZnO4
_chemical_formula_sum   'K16 Ti8 Zn8 O32'
_cell_volume   1015.16063552
_cell_formula_units_Z   8
loop_
 _symmetry_equiv_pos_site_id
 _symmetry_equiv_pos_as_xyz
  1  'x, y, z'
loop_
 _atom_site_type_symbol
 _atom_site_label
 _atom_site_symmetry_multiplicity
 _atom_site_fract_x
 _atom_site_fract_y
 _atom_site_fract_z
 _atom_site_occupancy
  K  K0  1  0.04404088  0.23139043  0.86865444  1
  K  K1  1  0.95595912  0.76860957  0.36865444  1
  K  K2  1  0.95595912  0.73139043  0.86865444  1
  K  K3  1  0.04404088  0.26860957  0.36865444  1
  K  K4  1  0.01240811  0.48720206  0.74353639  1
  K  K5  1  0.98759189  0.51279794  0.24353639  1
  K  K6  1  0.98759189  0.98720206  0.74353639  1
  K  K7  1  0.01240811  0.01279794  0.24353639  1
  K  K8  1  0.54358093  0.26632952  0.50295159  1
  K  K9  1  0.45641907  0.73367048  0.00295159  1
  K  K10  1  0.45641907  0.76632952  0.50295159  1
  K  K11  1  0.54358093  0.23367048  0.00295159  1
  K  K12  1  0.50717644  0.01586065  0.62499873  1
  K  K13  1  0.49282356  0.98413935  0.12499873  1
  K  K14  1  0.49282356  0.51586065  0.62499873  1
  K  K15  1  0.50717644  0.48413935  0.12499873  1
  Ti  Ti0  1  0.51812677  0.48951716  0.87466575  1
  Ti  Ti1  1  0.48187323  0.51048284  0.37466575  1
  Ti  Ti2  1  0.48187323  0.98951716  0.87466575  1
  Ti  Ti3  1  0.51812677  0.01048284  0.37466575  1
  Ti  Ti4  1  0.02681636  0.26555305  0.61911172  1
  Ti  Ti5  1  0.97318364  0.73444695  0.11911172  1
  Ti  Ti6  1  0.97318364  0.76555305  0.61911172  1
  Ti  Ti7  1  0.02681636  0.23444695  0.11911172  1
  Zn  Zn0  1  0.01641914  0.01069969  0.49450201  1
  Zn  Zn1  1  0.98358086  0.98930031  0.99450201  1
  Zn  Zn2  1  0.98358086  0.51069969  0.49450201  1
  Zn  Zn3  1  0.01641914  0.48930031  0.99450201  1
  Zn  Zn4  1  0.52879704  0.23634223  0.75066655  1
  Zn  Zn5  1  0.47120296  0.76365777  0.25066655  1
  Zn  Zn6  1  0.47120296  0.73634223  0.75066655  1
  Zn  Zn7  1  0.52879704  0.26365777  0.25066655  1
  O  O0  1  0.58339664  0.33486858  0.84803621  1
  O  O1  1  0.41660336  0.66513142  0.34803621  1
  O  O2  1  0.41660336  0.83486858  0.84803621  1
  O  O3  1  0.58339664  0.16513142  0.34803621  1
  O  O4  1  0.30350528  0.30558642  0.67180511  1
  O  O5  1  0.69649472  0.69441358  0.17180511  1
  O  O6  1  0.69649472  0.80558642  0.67180511  1
  O  O7  1  0.30350528  0.19441358  0.17180511  1
  O  O8  1  0.11309463  0.59729043  0.08447085  1
  O  O9  1  0.88690537  0.40270957  0.58447085  1
  O  O10  1  0.88690537  0.09729043  0.08447085  1
  O  O11  1  0.11309463  0.90270957  0.58447085  1
  O  O12  1  0.20236882  0.51707087  0.89308536  1
  O  O13  1  0.79763118  0.48292913  0.39308536  1
  O  O14  1  0.79763118  0.01707087  0.89308536  1
  O  O15  1  0.20236882  0.98292913  0.39308536  1
  O  O16  1  0.17930086  0.69340758  0.69105419  1
  O  O17  1  0.82069914  0.30659242  0.19105419  1
  O  O18  1  0.82069914  0.19340758  0.69105419  1
  O  O19  1  0.17930086  0.80659242  0.19105419  1
  O  O20  1  0.31761007  0.02521547  0.96988403  1
  O  O21  1  0.68238993  0.97478453  0.46988403  1
  O  O22  1  0.68238993  0.52521547  0.96988403  1
  O  O23  1  0.31761007  0.47478453  0.46988403  1
  O  O24  1  0.08743941  0.17299252  0.52816613  1
  O  O25  1  0.91256059  0.82700748  0.02816613  1
  O  O26  1  0.91256059  0.67299252  0.52816613  1
  O  O27  1  0.08743941  0.32700748  0.02816613  1
  O  O28  1  0.38767770  0.08557129  0.78910995  1
  O  O29  1  0.61232230  0.91442871  0.28910995  1
  O  O30  1  0.61232230  0.58557129  0.78910995  1
  O  O31  1  0.38767770  0.41442871  0.28910995  1
loop_
_geom_bond_atom_site_label_1
_geom_bond_atom_site_label_2
_geom_bond_distance
_geom_bond_site_symmetry_2
K0 O27 2.782837 1_556
K0 O14 2.814020 1_455
K0 O28 2.838736 1_555
K0 O0 2.859071 1_455
K0 O18 3.137294 1_455
K1 O26 2.782837 1_555
K1 O15 2.814020 1_655
K1 O29 2.838736 1_555
K1 O1 2.859071 1_655
K1 O19 3.137294 1_655
K2 O25 2.782837 1_556
K2 O12 2.814020 1_655
K2 O30 2.838736 1_555
K2 O2 2.859071 1_655
K2 O16 3.137294 1_655
K3 O24 2.782837 1_555
K3 O13 2.814020 1_455
K3 O31 2.838736 1_555
K3 O3 2.859071 1_455
K3 O17 3.137294 1_455
K4 O30 2.611510 1_455
K4 O12 2.642900 1_555
K4 O16 2.645597 1_555
K4 O9 2.809033 1_455
K4 O4 2.862600 1_555
K5 O31 2.611510 1_655
K5 O13 2.642900 1_555
K5 O17 2.645597 1_555
K5 O8 2.809033 1_655
K5 O5 2.862600 1_555
K6 O28 2.611510 1_665
K6 O14 2.642900 1_565
K6 O18 2.645597 1_565
K6 O11 2.809033 1_655
K6 O6 2.862600 1_555
K7 O29 2.611510 1_445
K7 O15 2.642900 1_545
K7 O19 2.645597 1_545
K7 O10 2.809033 1_455
K7 O7 2.862600 1_555
K8 O23 2.724951 1_555
K8 O3 2.739387 1_555
K8 O9 2.791778 1_555
K8 O24 2.800675 1_555
K8 O4 3.053436 1_555
K9 O22 2.724951 1_554
K9 O2 2.739387 1_554
K9 O8 2.791778 1_555
K9 O25 2.800675 1_555
K9 O5 3.053436 1_555
K10 O21 2.724951 1_555
K10 O1 2.739387 1_555
K10 O11 2.791778 1_555
K10 O26 2.800675 1_555
K10 O6 3.053436 1_555
K11 O20 2.724951 1_554
K11 O0 2.739387 1_554
K11 O10 2.791778 1_555
K11 O27 2.800675 1_555
K11 O7 3.053436 1_555
K12 O11 2.637445 1_545
K12 O6 2.706069 1_545
K12 O21 2.711202 1_545
K12 O28 2.823454 1_555
K12 O18 2.869889 1_555
K13 O10 2.637445 1_565
K13 O7 2.706069 1_565
K13 O20 2.711202 1_564
K13 O29 2.823454 1_555
K13 O19 2.869889 1_555
K14 O9 2.637445 1_555
K14 O4 2.706069 1_555
K14 O23 2.711202 1_555
K14 O30 2.823454 1_555
K14 O16 2.869889 1_555
K15 O8 2.637445 1_555
K15 O5 2.706069 1_555
K15 O22 2.711202 1_554
K15 O31 2.823454 1_555
K15 O17 2.869889 1_555
O0 Ti0 1.833358 1_555
O0 Zn4 1.939017 1_555
O1 Ti1 1.833358 1_555
O1 Zn5 1.939017 1_555
O2 Ti2 1.833358 1_555
O2 Zn6 1.939017 1_555
O3 Ti3 1.833358 1_555
O3 Zn7 1.939017 1_555
O4 Ti4 1.825829 1_555
O4 Zn4 1.951255 1_555
O5 Ti5 1.825829 1_555
O5 Zn5 1.951255 1_555
O6 Ti6 1.825829 1_555
O6 Zn6 1.951255 1_555
O7 Ti7 1.825829 1_555
O7 Zn7 1.951255 1_555
O8 Ti5 1.822323 1_455
O8 Zn3 1.963247 1_554
O9 Ti4 1.822323 1_655
O9 Zn2 1.963247 1_555
O10 Ti7 1.822323 1_655
O10 Zn1 1.963247 1_544
O11 Ti6 1.822323 1_455
O11 Zn0 1.963247 1_565
O12 Ti0 1.825571 1_555
O12 Zn3 1.956066 1_555
O13 Ti1 1.825571 1_555
O13 Zn2 1.956066 1_555
O14 Ti2 1.825571 1_545
O14 Zn1 1.956066 1_545
O15 Ti3 1.825571 1_565
O15 Zn0 1.956066 1_565
O16 Ti6 1.825089 1_455
O16 Zn6 1.958736 1_555
O17 Ti7 1.825089 1_655
O17 Zn7 1.958736 1_555
O18 Ti4 1.825089 1_655
O18 Zn4 1.958736 1_555
O19 Ti5 1.825089 1_455
O19 Zn5 1.958736 1_555
O20 Ti2 1.827024 1_545
O20 Zn1 1.960518 1_445
O21 Ti3 1.827024 1_565
O21 Zn0 1.960518 1_665
O22 Ti0 1.827024 1_555
O22 Zn3 1.960518 1_655
O23 Ti1 1.827024 1_555
O23 Zn2 1.960518 1_455
O24 Ti4 1.823881 1_555
O24 Zn0 1.950156 1_555
O25 Ti5 1.823881 1_555
O25 Zn1 1.950156 1_554
O26 Ti6 1.823881 1_555
O26 Zn2 1.950156 1_555
O27 Ti7 1.823881 1_555
O27 Zn3 1.950156 1_554
O28 Ti2 1.825049 1_545
O28 Zn4 1.975318 1_555
O29 Ti3 1.825049 1_565
O29 Zn5 1.975318 1_555
O30 Ti0 1.825049 1_555
O30 Zn6 1.975318 1_555
O31 Ti1 1.825049 1_555
O31 Zn7 1.975318 1_555
