# generated using pymatgen
data_GaHg3AsSCl4
_symmetry_space_group_name_H-M   'P 1'
_cell_length_a   7.51812591
_cell_length_b   7.51812591
_cell_length_c   12.42827900
_cell_angle_alpha   90.00000000
_cell_angle_beta   90.00000000
_cell_angle_gamma   119.99999920
_symmetry_Int_Tables_number   1
_chemical_formula_structural   GaHg3AsSCl4
_chemical_formula_sum   'Ga2 Hg6 As2 S2 Cl8'
_cell_volume   608.36023471
_cell_formula_units_Z   2
loop_
 _symmetry_equiv_pos_site_id
 _symmetry_equiv_pos_as_xyz
  1  'x, y, z'
loop_
 _atom_site_type_symbol
 _atom_site_label
 _atom_site_symmetry_multiplicity
 _atom_site_fract_x
 _atom_site_fract_y
 _atom_site_fract_z
 _atom_site_occupancy
  Ga  Ga0  1  0.00000000  0.00000000  0.26093700  1
  Ga  Ga1  1  0.00000000  0.00000000  0.76093700  1
  Hg  Hg0  1  0.50167200  0.00334400  0.46700700  1
  Hg  Hg1  1  0.50167200  0.49832800  0.46700700  1
  Hg  Hg2  1  0.99665600  0.49832800  0.46700700  1
  Hg  Hg3  1  0.49832800  0.99665600  0.96700700  1
  Hg  Hg4  1  0.49832800  0.50167200  0.96700700  1
  Hg  Hg5  1  0.00334400  0.50167200  0.96700700  1
  As  As0  1  0.66666700  0.33333300  0.57429100  1
  As  As1  1  0.33333300  0.66666700  0.07429100  1
  S  S0  1  0.33333300  0.66666700  0.37565000  1
  S  S1  1  0.66666700  0.33333300  0.87565000  1
  Cl  Cl0  1  0.32269600  0.16134800  0.20853300  1
  Cl  Cl1  1  0.83865200  0.67730400  0.20853300  1
  Cl  Cl2  1  0.83865200  0.16134800  0.20853300  1
  Cl  Cl3  1  0.67730400  0.83865200  0.70853300  1
  Cl  Cl4  1  0.16134800  0.32269600  0.70853300  1
  Cl  Cl5  1  0.16134800  0.83865200  0.70853300  1
  Cl  Cl6  1  0.00000000  0.00000000  0.44036400  1
  Cl  Cl7  1  0.00000000  0.00000000  0.94036400  1
loop_
_geom_bond_atom_site_label_1
_geom_bond_atom_site_label_2
_geom_bond_distance
_geom_bond_site_symmetry_2
Hg0 S0 2.468666 1_545
Hg1 S0 2.468672 1_555
Hg2 S0 2.468666 1_655
Hg3 S1 2.468666 1_565
Hg4 S1 2.468672 1_555
Hg5 S1 2.468666 1_455
As0 Hg2 2.528632 1_555
As0 Hg0 2.528632 1_555
As0 Hg1 2.528638 1_555
As1 Hg3 2.528632 1_554
As1 Hg5 2.528632 1_554
As1 Hg4 2.528638 1_554
Cl0 Ga0 2.199668 1_555
Cl1 Ga0 2.199668 1_665
Cl2 Ga0 2.199668 1_655
Cl3 Ga1 2.199668 1_665
Cl4 Ga1 2.199668 1_555
Cl5 Ga1 2.199668 1_565
Cl6 Ga0 2.229969 1_555
Cl7 Ga1 2.229969 1_555
