# generated using pymatgen
data_FeNi3
_symmetry_space_group_name_H-M   'P 1'
_cell_length_a   4.03321986
_cell_length_b   4.31292821
_cell_length_c   4.96867620
_cell_angle_alpha   90.00008499
_cell_angle_beta   90.00000000
_cell_angle_gamma   90.00000000
_symmetry_Int_Tables_number   1
_chemical_formula_structural   FeNi3
_chemical_formula_sum   'Fe2 Ni6'
_cell_volume   86.43006144
_cell_formula_units_Z   2
loop_
 _symmetry_equiv_pos_site_id
 _symmetry_equiv_pos_as_xyz
  1  'x, y, z'
loop_
 _atom_site_type_symbol
 _atom_site_label
 _atom_site_symmetry_multiplicity
 _atom_site_fract_x
 _atom_site_fract_y
 _atom_site_fract_z
 _atom_site_occupancy
  Fe  Fe0  1  0.50000000  0.33274881  0.49996651  1
  Fe  Fe1  1  0.00000000  0.66725796  0.00003326  1
  Ni  Ni0  1  0.00000000  0.67233105  0.49995637  1
  Ni  Ni1  1  0.50000000  0.32763914  0.00004412  1
  Ni  Ni2  1  0.50000000  0.83213851  0.74651633  1
  Ni  Ni3  1  -0.00000000  0.16786318  0.24666503  1
  Ni  Ni4  1  -0.00000000  0.16787361  0.75333525  1
  Ni  Ni5  1  0.50000000  0.83214873  0.25348314  1
loop_
_geom_bond_atom_site_label_1
_geom_bond_atom_site_label_2
_geom_bond_distance
_geom_bond_site_symmetry_2
Fe0 Ni5 2.477715 1_555
Fe0 Ni2 2.477836 1_555
Fe0 Ni3 2.481217 1_655
Fe0 Ni3 2.481217 1_555
Fe0 Ni4 2.481375 1_555
Fe0 Ni4 2.481375 1_655
Fe0 Ni5 2.482213 1_545
Fe0 Ni2 2.482417 1_545
Fe0 Ni1 2.484050 1_555
Fe0 Ni1 2.484821 1_556
Fe0 Ni0 2.492338 1_655
Fe0 Ni0 2.492338 1_555
Fe1 Ni3 2.478060 1_555
Fe1 Ni4 2.478180 1_554
Fe1 Ni5 2.481598 1_555
Fe1 Ni5 2.481598 1_455
Fe1 Ni2 2.481755 1_554
Fe1 Ni2 2.481755 1_454
Fe1 Ni3 2.482596 1_565
Fe1 Ni4 2.482800 1_564
Fe1 Ni0 2.484052 1_555
Fe1 Ni0 2.484817 1_554
Fe1 Ni1 2.492431 1_555
Fe1 Ni1 2.492431 1_455
Ni0 Ni5 2.457964 1_455
Ni0 Ni5 2.457964 1_555
Ni0 Ni2 2.458165 1_455
Ni0 Ni2 2.458165 1_555
Ni0 Ni3 2.480219 1_565
Ni0 Ni4 2.480476 1_565
Ni0 Ni3 2.513501 1_555
Ni0 Ni4 2.513683 1_555
Ni1 Ni3 2.458279 1_655
Ni1 Ni3 2.458279 1_555
Ni1 Ni4 2.458483 1_654
Ni1 Ni4 2.458483 1_554
Ni1 Ni5 2.480437 1_545
Ni1 Ni2 2.480695 1_544
Ni1 Ni5 2.514024 1_555
Ni1 Ni2 2.514210 1_554
Ni2 Ni5 2.449722 1_555
Ni2 Ni4 2.482855 1_565
Ni2 Ni4 2.482855 1_665
Ni2 Ni5 2.518954 1_556
Ni3 Ni4 2.451196 1_554
Ni3 Ni5 2.482804 1_445
Ni3 Ni5 2.482804 1_545
Ni3 Ni4 2.517480 1_555
