# generated using pymatgen
data_VZn(GeO3)2
_symmetry_space_group_name_H-M   'P 1'
_cell_length_a   9.38558400
_cell_length_b   5.53183300
_cell_length_c   9.84020205
_cell_angle_alpha   77.22313050
_cell_angle_beta   90.00000000
_cell_angle_gamma   90.00000000
_symmetry_Int_Tables_number   1
_chemical_formula_structural   VZn(GeO3)2
_chemical_formula_sum   'V4 Zn4 Ge8 O24'
_cell_volume   498.24770974
_cell_formula_units_Z   4
loop_
 _symmetry_equiv_pos_site_id
 _symmetry_equiv_pos_as_xyz
  1  'x, y, z'
loop_
 _atom_site_type_symbol
 _atom_site_label
 _atom_site_symmetry_multiplicity
 _atom_site_fract_x
 _atom_site_fract_y
 _atom_site_fract_z
 _atom_site_occupancy
  V  V0  1  0.65529800  0.03374000  0.24668700  1
  V  V1  1  0.15529800  0.46626000  0.75331300  1
  V  V2  1  0.34470200  0.96626000  0.75331300  1
  V  V3  1  0.84470200  0.53374000  0.24668700  1
  Zn  Zn0  1  0.49831900  0.54180500  0.24459900  1
  Zn  Zn1  1  0.99831900  0.95819500  0.75540100  1
  Zn  Zn2  1  0.50168100  0.45819500  0.75540100  1
  Zn  Zn3  1  0.00168100  0.04180500  0.24459900  1
  Ge  Ge0  1  0.33610300  0.18586800  0.05771800  1
  Ge  Ge1  1  0.83610300  0.31413200  0.94228200  1
  Ge  Ge2  1  0.66389700  0.81413200  0.94228200  1
  Ge  Ge3  1  0.16389700  0.68586800  0.05771800  1
  Ge  Ge4  1  0.34088500  0.74902700  0.45404100  1
  Ge  Ge5  1  0.84088500  0.75097300  0.54595900  1
  Ge  Ge6  1  0.65911500  0.25097300  0.54595900  1
  Ge  Ge7  1  0.15911500  0.24902700  0.45404100  1
  O  O0  1  0.28014200  0.49362600  0.38400200  1
  O  O1  1  0.78014200  0.00637400  0.61599800  1
  O  O2  1  0.71985800  0.50637400  0.61599800  1
  O  O3  1  0.21985800  0.99362600  0.38400200  1
  O  O4  1  0.31469400  0.85144700  0.10855600  1
  O  O5  1  0.81469400  0.64855300  0.89144400  1
  O  O6  1  0.68530600  0.14855300  0.89144400  1
  O  O7  1  0.18530600  0.35144700  0.10855600  1
  O  O8  1  0.99361100  0.28595000  0.37102500  1
  O  O9  1  0.49361100  0.21405000  0.62897500  1
  O  O10  1  0.00638900  0.71405000  0.62897500  1
  O  O11  1  0.50638900  0.78595000  0.37102500  1
  O  O12  1  0.01491100  0.77042200  0.14248300  1
  O  O13  1  0.51491100  0.72957800  0.85751700  1
  O  O14  1  0.98508900  0.22957800  0.85751700  1
  O  O15  1  0.48508900  0.27042200  0.14248300  1
  O  O16  1  0.33758000  0.25451300  0.87231000  1
  O  O17  1  0.83758000  0.24548700  0.12769000  1
  O  O18  1  0.66242000  0.74548700  0.12769000  1
  O  O19  1  0.16242000  0.75451300  0.87231000  1
  O  O20  1  0.33712300  0.68063700  0.63802400  1
  O  O21  1  0.83712300  0.81936300  0.36197600  1
  O  O22  1  0.66287700  0.31936300  0.36197600  1
  O  O23  1  0.16287700  0.18063700  0.63802400  1
loop_
_geom_bond_atom_site_label_1
_geom_bond_atom_site_label_2
_geom_bond_distance
_geom_bond_site_symmetry_2
Ge0 O15 1.744240 1_555
Ge0 O16 1.779489 1_554
Ge0 O7 1.815221 1_555
Ge0 O4 1.817595 1_545
Ge1 O14 1.744240 1_555
Ge1 O17 1.779489 1_556
Ge1 O6 1.815221 1_555
Ge1 O5 1.817595 1_555
Ge2 O13 1.744240 1_555
Ge2 O18 1.779489 1_556
Ge2 O5 1.815221 1_555
Ge2 O6 1.817595 1_565
Ge3 O12 1.744240 1_555
Ge3 O19 1.779489 1_554
Ge3 O4 1.815221 1_555
Ge3 O7 1.817595 1_555
Ge4 O11 1.745891 1_555
Ge4 O20 1.766092 1_555
Ge4 O3 1.784276 1_555
Ge4 O0 1.796332 1_555
Ge5 O10 1.745891 1_655
Ge5 O21 1.766092 1_555
Ge5 O2 1.784276 1_555
Ge5 O1 1.796332 1_565
Ge6 O9 1.745891 1_555
Ge6 O22 1.766092 1_555
Ge6 O1 1.784276 1_555
Ge6 O2 1.796332 1_555
Ge7 O8 1.745891 1_455
Ge7 O23 1.766092 1_555
Ge7 O0 1.784276 1_555
Ge7 O3 1.796332 1_545
O0 Zn0 2.446259 1_555
O1 Zn1 2.446259 1_545
O2 Zn2 2.446259 1_555
O3 Zn3 2.446259 1_565
O4 Zn0 2.584967 1_555
O5 Zn1 2.584967 1_555
O6 Zn2 2.584967 1_555
O7 Zn3 2.584967 1_555
O8 Zn3 2.029930 1_655
O8 V3 2.141814 1_555
O9 Zn2 2.029930 1_555
O9 V2 2.141814 1_545
O10 Zn1 2.029930 1_455
O10 V1 2.141814 1_555
O11 Zn0 2.029930 1_555
O11 V0 2.141814 1_565
O12 Zn3 1.986478 1_565
O12 V3 2.173448 1_455
O13 Zn2 1.986478 1_555
O13 V2 2.173448 1_555
O14 Zn1 1.986478 1_545
O14 V1 2.173448 1_655
O15 Zn0 1.986478 1_555
O15 V0 2.173448 1_555
O16 Zn2 2.095665 1_555
O16 V2 2.178099 1_545
O16 V1 2.250208 1_555
O17 Zn3 2.095665 1_655
O17 V3 2.178099 1_555
O17 V0 2.250208 1_555
O18 Zn0 2.095665 1_555
O18 V0 2.178099 1_565
O18 V3 2.250208 1_555
O19 Zn1 2.095665 1_455
O19 V1 2.178099 1_555
O19 V2 2.250208 1_555
O20 V2 2.140412 1_555
O20 Zn2 2.145921 1_555
O20 V1 2.238428 1_555
O21 V3 2.140412 1_555
O21 Zn3 2.145921 1_665
O21 V0 2.238428 1_565
O22 V0 2.140412 1_555
O22 Zn0 2.145921 1_555
O22 V3 2.238428 1_555
O23 V1 2.140412 1_555
O23 Zn1 2.145921 1_445
O23 V2 2.238428 1_545
