# generated using pymatgen
data_Ti5Al2C3
_symmetry_space_group_name_H-M   'P 1'
_cell_length_a   32.60621460
_cell_length_b   32.60621460
_cell_length_c   32.60621501
_cell_angle_alpha   10.81631159
_cell_angle_beta   10.81631159
_cell_angle_gamma   10.81630955
_symmetry_Int_Tables_number   1
_chemical_formula_structural   Ti5Al2C3
_chemical_formula_sum   'Ti40 Al16 C24'
_cell_volume   1060.39437846
_cell_formula_units_Z   8
loop_
 _symmetry_equiv_pos_site_id
 _symmetry_equiv_pos_as_xyz
  1  'x, y, z'
loop_
 _atom_site_type_symbol
 _atom_site_label
 _atom_site_symmetry_multiplicity
 _atom_site_fract_x
 _atom_site_fract_y
 _atom_site_fract_z
 _atom_site_occupancy
  Ti  Ti0_0  1  0.25000000  0.25000000  0.25000000  1
  Ti  Ti0_1  1  0.25000000  0.25000000  0.75000000  1
  Ti  Ti0_2  1  0.25000000  0.75000000  0.25000000  1
  Ti  Ti0_3  1  0.25000000  0.75000000  0.75000000  1
  Ti  Ti0_4  1  0.75000000  0.25000000  0.25000000  1
  Ti  Ti0_5  1  0.75000000  0.25000000  0.75000000  1
  Ti  Ti0_6  1  0.75000000  0.75000000  0.25000000  1
  Ti  Ti0_7  1  0.75000000  0.75000000  0.75000000  1
  Ti  Ti1_0  1  0.10759700  0.10759700  0.10759700  1
  Ti  Ti1_1  1  0.10759700  0.10759700  0.60759700  1
  Ti  Ti1_2  1  0.10759700  0.60759700  0.10759700  1
  Ti  Ti1_3  1  0.10759700  0.60759700  0.60759700  1
  Ti  Ti1_4  1  0.60759700  0.10759700  0.10759700  1
  Ti  Ti1_5  1  0.60759700  0.10759700  0.60759700  1
  Ti  Ti1_6  1  0.60759700  0.60759700  0.10759700  1
  Ti  Ti1_7  1  0.60759700  0.60759700  0.60759700  1
  Ti  Ti2_0  1  0.15492450  0.15492450  0.15492450  1
  Ti  Ti2_1  1  0.15492450  0.15492450  0.65492450  1
  Ti  Ti2_2  1  0.15492450  0.65492450  0.15492450  1
  Ti  Ti2_3  1  0.15492450  0.65492450  0.65492450  1
  Ti  Ti2_4  1  0.65492450  0.15492450  0.15492450  1
  Ti  Ti2_5  1  0.65492450  0.15492450  0.65492450  1
  Ti  Ti2_6  1  0.65492450  0.65492450  0.15492450  1
  Ti  Ti2_7  1  0.65492450  0.65492450  0.65492450  1
  Ti  Ti3_0  1  0.34507550  0.34507550  0.34507550  1
  Ti  Ti3_1  1  0.34507550  0.34507550  0.84507550  1
  Ti  Ti3_2  1  0.34507550  0.84507550  0.34507550  1
  Ti  Ti3_3  1  0.34507550  0.84507550  0.84507550  1
  Ti  Ti3_4  1  0.84507550  0.34507550  0.34507550  1
  Ti  Ti3_5  1  0.84507550  0.34507550  0.84507550  1
  Ti  Ti3_6  1  0.84507550  0.84507550  0.34507550  1
  Ti  Ti3_7  1  0.84507550  0.84507550  0.84507550  1
  Ti  Ti4_0  1  0.39240300  0.39240300  0.39240300  1
  Ti  Ti4_1  1  0.39240300  0.39240300  0.89240300  1
  Ti  Ti4_2  1  0.39240300  0.89240300  0.39240300  1
  Ti  Ti4_3  1  0.39240300  0.89240300  0.89240300  1
  Ti  Ti4_4  1  0.89240300  0.39240300  0.39240300  1
  Ti  Ti4_5  1  0.89240300  0.39240300  0.89240300  1
  Ti  Ti4_6  1  0.89240300  0.89240300  0.39240300  1
  Ti  Ti4_7  1  0.89240300  0.89240300  0.89240300  1
  Al  Al0_0  1  0.20195100  0.20195100  0.20195100  1
  Al  Al0_1  1  0.20195100  0.20195100  0.70195100  1
  Al  Al0_2  1  0.20195100  0.70195100  0.20195100  1
  Al  Al0_3  1  0.20195100  0.70195100  0.70195100  1
  Al  Al0_4  1  0.70195100  0.20195100  0.20195100  1
  Al  Al0_5  1  0.70195100  0.20195100  0.70195100  1
  Al  Al0_6  1  0.70195100  0.70195100  0.20195100  1
  Al  Al0_7  1  0.70195100  0.70195100  0.70195100  1
  Al  Al1_0  1  0.29804900  0.29804900  0.29804900  1
  Al  Al1_1  1  0.29804900  0.29804900  0.79804900  1
  Al  Al1_2  1  0.29804900  0.79804900  0.29804900  1
  Al  Al1_3  1  0.29804900  0.79804900  0.79804900  1
  Al  Al1_4  1  0.79804900  0.29804900  0.29804900  1
  Al  Al1_5  1  0.79804900  0.29804900  0.79804900  1
  Al  Al1_6  1  0.79804900  0.79804900  0.29804900  1
  Al  Al1_7  1  0.79804900  0.79804900  0.79804900  1
  C  C0_0  1  0.06998900  0.06998900  0.06998900  1
  C  C0_1  1  0.06998900  0.06998900  0.56998900  1
  C  C0_2  1  0.06998900  0.56998900  0.06998900  1
  C  C0_3  1  0.06998900  0.56998900  0.56998900  1
  C  C0_4  1  0.56998900  0.06998900  0.06998900  1
  C  C0_5  1  0.56998900  0.06998900  0.56998900  1
  C  C0_6  1  0.56998900  0.56998900  0.06998900  1
  C  C0_7  1  0.56998900  0.56998900  0.56998900  1
  C  C1_0  1  0.43001100  0.43001100  0.43001100  1
  C  C1_1  1  0.43001100  0.43001100  0.93001100  1
  C  C1_2  1  0.43001100  0.93001100  0.43001100  1
  C  C1_3  1  0.43001100  0.93001100  0.93001100  1
  C  C1_4  1  0.93001100  0.43001100  0.43001100  1
  C  C1_5  1  0.93001100  0.43001100  0.93001100  1
  C  C1_6  1  0.93001100  0.93001100  0.43001100  1
  C  C1_7  1  0.93001100  0.93001100  0.93001100  1
  C  C2_0  1  0.00000000  0.00000000  0.00000000  1
  C  C2_1  1  0.00000000  0.00000000  0.50000000  1
  C  C2_2  1  0.00000000  0.50000000  0.00000000  1
  C  C2_3  1  0.00000000  0.50000000  0.50000000  1
  C  C2_4  1  0.50000000  0.00000000  0.00000000  1
  C  C2_5  1  0.50000000  0.00000000  0.50000000  1
  C  C2_6  1  0.50000000  0.50000000  0.00000000  1
  C  C2_7  1  0.50000000  0.50000000  0.50000000  1
loop_
_geom_bond_atom_site_label_1
_geom_bond_atom_site_label_2
_geom_bond_distance
_geom_bond_site_symmetry_2
Al0_0 Ti3_2 2.896277 1_545
Al0_0 Ti3_4 2.896277 1_455
Al0_0 Ti3_1 2.896277 1_554
Al0_0 Ti4_2 2.915002 1_545
Al0_0 Ti4_4 2.915002 1_455
Al0_0 Ti4_1 2.915002 1_554
Al0_0 Al0_6 3.073136 1_545
Al0_0 Al0_6 3.073136 1_455
Al0_0 Al0_3 3.073137 1_554
Al0_0 Al0_5 3.073137 1_554
Al0_0 Al0_3 3.073137 1_545
Al0_0 Al0_5 3.073137 1_455
Al0_1 Ti3_5 2.896277 1_455
Al0_1 Ti3_3 2.896277 1_545
Al0_1 Ti3_0 2.896277 1_555
Al0_1 Ti4_3 2.915002 1_545
Al0_1 Ti4_5 2.915002 1_455
Al0_1 Ti4_0 2.915002 1_555
Al0_1 Al0_7 3.073136 1_545
Al0_1 Al0_7 3.073136 1_455
Al0_1 Al0_4 3.073137 1_555
Al0_1 Al0_4 3.073137 1_456
Al0_1 Al0_2 3.073137 1_555
Al0_1 Al0_2 3.073137 1_546
Al0_2 Ti3_0 2.896277 1_555
Al0_2 Ti3_6 2.896277 1_455
Al0_2 Ti3_3 2.896277 1_554
Al0_2 Ti4_6 2.915002 1_455
Al0_2 Ti4_0 2.915002 1_555
Al0_2 Ti4_3 2.915002 1_554
Al0_2 Al0_4 3.073136 1_465
Al0_2 Al0_4 3.073136 1_555
Al0_2 Al0_7 3.073137 1_455
Al0_2 Al0_7 3.073137 1_554
Al0_3 Ti3_1 2.896277 1_555
Al0_3 Ti3_7 2.896277 1_455
Al0_3 Ti3_2 2.896277 1_555
Al0_3 Ti4_1 2.915002 1_555
Al0_3 Ti4_7 2.915002 1_455
Al0_3 Ti4_2 2.915002 1_555
Al0_3 Al0_5 3.073136 1_555
Al0_3 Al0_5 3.073136 1_465
Al0_3 Al0_6 3.073137 1_555
Al0_3 Al0_6 3.073137 1_456
Al0_4 Ti3_0 2.896277 1_555
Al0_4 Ti3_6 2.896277 1_545
Al0_4 Ti3_5 2.896277 1_554
Al0_4 Ti4_6 2.915002 1_545
Al0_4 Ti4_0 2.915002 1_555
Al0_4 Ti4_5 2.915002 1_554
Al0_4 Al0_7 3.073137 1_545
Al0_4 Al0_7 3.073137 1_554
Al0_5 Ti3_1 2.896277 1_555
Al0_5 Ti3_7 2.896277 1_545
Al0_5 Ti3_4 2.896277 1_555
Al0_5 Ti4_1 2.915002 1_555
Al0_5 Ti4_7 2.915002 1_545
Al0_5 Ti4_4 2.915002 1_555
Al0_5 Al0_6 3.073137 1_546
Al0_5 Al0_6 3.073137 1_555
Al0_6 Ti3_2 2.896277 1_555
Al0_6 Ti3_4 2.896277 1_555
Al0_6 Ti3_7 2.896277 1_554
Al0_6 Ti4_2 2.915002 1_555
Al0_6 Ti4_4 2.915002 1_555
Al0_6 Ti4_7 2.915002 1_554
Al0_7 Ti3_5 2.896277 1_555
Al0_7 Ti3_3 2.896277 1_555
Al0_7 Ti3_6 2.896277 1_555
Al0_7 Ti4_3 2.915002 1_555
Al0_7 Ti4_5 2.915002 1_555
Al0_7 Ti4_6 2.915002 1_555
Al1_0 Ti2_2 2.896277 1_555
Al1_0 Ti2_4 2.896277 1_555
Al1_0 Ti2_1 2.896277 1_555
Al1_0 Ti1_2 2.915002 1_555
Al1_0 Ti1_4 2.915002 1_555
Al1_0 Ti1_1 2.915002 1_555
Al1_0 Al1_6 3.073136 1_545
Al1_0 Al1_6 3.073136 1_455
Al1_0 Al1_3 3.073137 1_545
Al1_0 Al1_5 3.073137 1_554
Al1_0 Al1_3 3.073137 1_554
Al1_0 Al1_5 3.073137 1_455
Al1_1 Ti2_5 2.896277 1_555
Al1_1 Ti2_3 2.896277 1_555
Al1_1 Ti2_0 2.896277 1_556
Al1_1 Ti1_5 2.915002 1_555
Al1_1 Ti1_3 2.915002 1_555
Al1_1 Ti1_0 2.915002 1_556
Al1_1 Al1_7 3.073136 1_455
Al1_1 Al1_7 3.073136 1_545
Al1_1 Al1_2 3.073137 1_555
Al1_1 Al1_4 3.073137 1_555
Al1_1 Al1_2 3.073137 1_546
Al1_1 Al1_4 3.073137 1_456
Al1_2 Ti2_0 2.896277 1_565
Al1_2 Ti2_6 2.896277 1_555
Al1_2 Ti2_3 2.896277 1_555
Al1_2 Ti1_6 2.915002 1_555
Al1_2 Ti1_0 2.915002 1_565
Al1_2 Ti1_3 2.915002 1_555
Al1_2 Al1_4 3.073136 1_465
Al1_2 Al1_4 3.073136 1_555
Al1_2 Al1_7 3.073137 1_554
Al1_2 Al1_7 3.073137 1_455
Al1_3 Ti2_1 2.896277 1_565
Al1_3 Ti2_7 2.896277 1_555
Al1_3 Ti2_2 2.896277 1_556
Al1_3 Ti1_7 2.915002 1_555
Al1_3 Ti1_1 2.915002 1_565
Al1_3 Ti1_2 2.915002 1_556
Al1_3 Al1_5 3.073136 1_555
Al1_3 Al1_5 3.073136 1_465
Al1_3 Al1_6 3.073137 1_456
Al1_3 Al1_6 3.073137 1_555
Al1_4 Ti2_0 2.896277 1_655
Al1_4 Ti2_6 2.896277 1_555
Al1_4 Ti2_5 2.896277 1_555
Al1_4 Ti1_6 2.915002 1_555
Al1_4 Ti1_0 2.915002 1_655
Al1_4 Ti1_5 2.915002 1_555
Al1_4 Al1_7 3.073137 1_554
Al1_4 Al1_7 3.073137 1_545
Al1_5 Ti2_1 2.896277 1_655
Al1_5 Ti2_7 2.896277 1_555
Al1_5 Ti2_4 2.896277 1_556
Al1_5 Ti1_7 2.915002 1_555
Al1_5 Ti1_1 2.915002 1_655
Al1_5 Ti1_4 2.915002 1_556
Al1_5 Al1_6 3.073137 1_555
Al1_5 Al1_6 3.073137 1_546
Al1_6 Ti2_4 2.896277 1_565
Al1_6 Ti2_2 2.896277 1_655
Al1_6 Ti2_7 2.896277 1_555
Al1_6 Ti1_4 2.915002 1_565
Al1_6 Ti1_2 2.915002 1_655
Al1_6 Ti1_7 2.915002 1_555
Al1_7 Ti2_3 2.896277 1_655
Al1_7 Ti2_5 2.896277 1_565
Al1_7 Ti2_6 2.896277 1_556
Al1_7 Ti1_5 2.915002 1_565
Al1_7 Ti1_3 2.915002 1_655
Al1_7 Ti1_6 2.915002 1_556
C0_0 Ti4_5 2.067707 1_454
C0_0 Ti4_3 2.067707 1_544
C0_0 Ti4_6 2.067707 1_445
C0_0 Ti0_2 2.198124 1_545
C0_0 Ti0_4 2.198124 1_455
C0_0 Ti0_1 2.198124 1_554
C0_1 Ti4_4 2.067707 1_455
C0_1 Ti4_2 2.067707 1_545
C0_1 Ti4_7 2.067707 1_445
C0_1 Ti0_3 2.198124 1_545
C0_1 Ti0_5 2.198124 1_455
C0_1 Ti0_0 2.198124 1_555
C0_2 Ti4_7 2.067707 1_454
C0_2 Ti4_1 2.067707 1_554
C0_2 Ti4_4 2.067707 1_455
C0_2 Ti0_0 2.198124 1_555
C0_2 Ti0_6 2.198124 1_455
C0_2 Ti0_3 2.198124 1_554
C0_3 Ti4_0 2.067707 1_555
C0_3 Ti4_6 2.067707 1_455
C0_3 Ti4_5 2.067707 1_455
C0_3 Ti0_1 2.198124 1_555
C0_3 Ti0_7 2.198124 1_455
C0_3 Ti0_2 2.198124 1_555
C0_4 Ti4_7 2.067707 1_544
C0_4 Ti4_1 2.067707 1_554
C0_4 Ti4_2 2.067707 1_545
C0_4 Ti0_0 2.198124 1_555
C0_4 Ti0_6 2.198124 1_545
C0_4 Ti0_5 2.198124 1_554
C0_5 Ti4_0 2.067707 1_555
C0_5 Ti4_6 2.067707 1_545
C0_5 Ti4_3 2.067707 1_545
C0_5 Ti0_1 2.198124 1_555
C0_5 Ti0_7 2.198124 1_545
C0_5 Ti0_4 2.198124 1_555
C0_6 Ti4_5 2.067707 1_554
C0_6 Ti4_3 2.067707 1_554
C0_6 Ti4_0 2.067707 1_555
C0_6 Ti0_2 2.198124 1_555
C0_6 Ti0_4 2.198124 1_555
C0_6 Ti0_7 2.198124 1_554
C0_7 Ti4_4 2.067707 1_555
C0_7 Ti4_2 2.067707 1_555
C0_7 Ti4_1 2.067707 1_555
C0_7 Ti0_3 2.198124 1_555
C0_7 Ti0_5 2.198124 1_555
C0_7 Ti0_6 2.198124 1_555
C1_0 Ti1_3 2.067707 1_555
C1_0 Ti1_5 2.067707 1_555
C1_0 Ti1_6 2.067707 1_555
C1_0 Ti0_4 2.198124 1_555
C1_0 Ti0_2 2.198124 1_555
C1_0 Ti0_1 2.198124 1_555
C1_1 Ti1_2 2.067707 1_556
C1_1 Ti1_4 2.067707 1_556
C1_1 Ti1_7 2.067707 1_555
C1_1 Ti0_3 2.198124 1_555
C1_1 Ti0_5 2.198124 1_555
C1_1 Ti0_0 2.198124 1_556
C1_2 Ti1_1 2.067707 1_565
C1_2 Ti1_7 2.067707 1_555
C1_2 Ti1_4 2.067707 1_565
C1_2 Ti0_6 2.198124 1_555
C1_2 Ti0_0 2.198124 1_565
C1_2 Ti0_3 2.198124 1_555
C1_3 Ti1_0 2.067707 1_566
C1_3 Ti1_6 2.067707 1_556
C1_3 Ti1_5 2.067707 1_565
C1_3 Ti0_7 2.198124 1_555
C1_3 Ti0_1 2.198124 1_565
C1_3 Ti0_2 2.198124 1_556
C1_4 Ti1_1 2.067707 1_655
C1_4 Ti1_7 2.067707 1_555
C1_4 Ti1_2 2.067707 1_655
C1_4 Ti0_6 2.198124 1_555
C1_4 Ti0_0 2.198124 1_655
C1_4 Ti0_5 2.198124 1_555
C1_5 Ti1_0 2.067707 1_656
C1_5 Ti1_6 2.067707 1_556
C1_5 Ti1_3 2.067707 1_655
C1_5 Ti0_7 2.198124 1_555
C1_5 Ti0_1 2.198124 1_655
C1_5 Ti0_4 2.198124 1_556
C1_6 Ti1_3 2.067707 1_655
C1_6 Ti1_5 2.067707 1_565
C1_6 Ti1_0 2.067707 1_665
C1_6 Ti0_4 2.198124 1_565
C1_6 Ti0_2 2.198124 1_655
C1_6 Ti0_7 2.198124 1_555
C1_7 Ti1_4 2.067707 1_566
C1_7 Ti1_2 2.067707 1_656
C1_7 Ti1_1 2.067707 1_665
C1_7 Ti0_3 2.198124 1_655
C1_7 Ti0_5 2.198124 1_565
C1_7 Ti0_6 2.198124 1_556
C2_0 Ti3_3 2.109909 1_544
C2_0 Ti3_5 2.109909 1_454
C2_0 Ti2_4 2.109909 1_455
C2_0 Ti2_2 2.109909 1_545
C2_0 Ti3_6 2.109910 1_445
C2_0 Ti2_1 2.109910 1_554
C2_1 Ti3_4 2.109909 1_455
C2_1 Ti3_2 2.109909 1_545
C2_1 Ti2_3 2.109909 1_545
C2_1 Ti2_5 2.109909 1_455
C2_1 Ti3_7 2.109910 1_445
C2_1 Ti2_0 2.109910 1_555
C2_2 Ti3_7 2.109909 1_454
C2_2 Ti3_1 2.109909 1_554
C2_2 Ti2_6 2.109909 1_455
C2_2 Ti2_0 2.109909 1_555
C2_2 Ti3_4 2.109910 1_455
C2_2 Ti2_3 2.109910 1_554
C2_3 Ti3_6 2.109909 1_455
C2_3 Ti2_7 2.109909 1_455
C2_3 Ti2_1 2.109909 1_555
C2_3 Ti3_0 2.109909 1_555
C2_3 Ti3_5 2.109910 1_455
C2_3 Ti2_2 2.109910 1_555
C2_4 Ti3_7 2.109909 1_544
C2_4 Ti3_1 2.109909 1_554
C2_4 Ti2_6 2.109909 1_545
C2_4 Ti2_0 2.109909 1_555
C2_4 Ti2_5 2.109910 1_554
C2_4 Ti3_2 2.109910 1_545
C2_5 Ti3_6 2.109909 1_545
C2_5 Ti2_7 2.109909 1_545
C2_5 Ti2_1 2.109909 1_555
C2_5 Ti3_0 2.109909 1_555
C2_5 Ti3_3 2.109910 1_545
C2_5 Ti2_4 2.109910 1_555
C2_6 Ti3_3 2.109909 1_554
C2_6 Ti3_5 2.109909 1_554
C2_6 Ti2_4 2.109909 1_555
C2_6 Ti2_2 2.109909 1_555
C2_6 Ti2_7 2.109910 1_554
C2_6 Ti3_0 2.109910 1_555
C2_7 Ti3_4 2.109909 1_555
C2_7 Ti3_2 2.109909 1_555
C2_7 Ti2_3 2.109909 1_555
C2_7 Ti2_5 2.109909 1_555
C2_7 Ti3_1 2.109910 1_555
C2_7 Ti2_6 2.109910 1_555
