# generated using pymatgen
data_CsB3H8
_symmetry_space_group_name_H-M   'P 1'
_cell_length_a   5.84731870
_cell_length_b   5.84731870
_cell_length_c   9.49761700
_cell_angle_alpha   90.00000000
_cell_angle_beta   90.00000000
_cell_angle_gamma   98.71005182
_symmetry_Int_Tables_number   1
_chemical_formula_structural   CsB3H8
_chemical_formula_sum   'Cs2 B6 H16'
_cell_volume   320.98926167
_cell_formula_units_Z   2
loop_
 _symmetry_equiv_pos_site_id
 _symmetry_equiv_pos_as_xyz
  1  'x, y, z'
loop_
 _atom_site_type_symbol
 _atom_site_label
 _atom_site_symmetry_multiplicity
 _atom_site_fract_x
 _atom_site_fract_y
 _atom_site_fract_z
 _atom_site_occupancy
  Cs  Cs0  1  0.17602500  0.82684600  0.75000000  1
  Cs  Cs1  1  0.82684600  0.17602500  0.25000000  1
  B  B0  1  0.77248100  0.22025600  0.84457000  1
  B  B1  1  0.22025600  0.77248100  0.15543000  1
  B  B2  1  0.77248100  0.22025600  0.65543000  1
  B  B3  1  0.22025600  0.77248100  0.34457000  1
  B  B4  1  0.60513300  0.39463300  0.75000000  1
  B  B5  1  0.39463300  0.60513300  0.25000000  1
  H  H0  1  0.96562500  0.29384800  0.61242000  1
  H  H1  1  0.29384800  0.96562500  0.38758000  1
  H  H2  1  0.96562500  0.29384800  0.88758000  1
  H  H3  1  0.29384800  0.96562500  0.11242000  1
  H  H4  1  0.68993200  0.02995300  0.61253300  1
  H  H5  1  0.02995300  0.68993200  0.38746700  1
  H  H6  1  0.68993200  0.02995300  0.88746700  1
  H  H7  1  0.02995300  0.68993200  0.11253300  1
  H  H8  1  0.39756700  0.33795000  0.75000000  1
  H  H9  1  0.33795000  0.39756700  0.25000000  1
  H  H10  1  0.66653200  0.60286800  0.75000000  1
  H  H11  1  0.60286800  0.66653200  0.25000000  1
  H  H12  1  0.64615300  0.35297600  0.59943500  1
  H  H13  1  0.35297600  0.64615300  0.40056500  1
  H  H14  1  0.64615300  0.35297600  0.90056500  1
  H  H15  1  0.35297600  0.64615300  0.09943500  1
loop_
_geom_bond_atom_site_label_1
_geom_bond_atom_site_label_2
_geom_bond_distance
_geom_bond_site_symmetry_2
Cs0 H10 3.067404 1_455
Cs0 H8 3.072008 1_565
Cs1 H11 3.067404 1_545
Cs1 H9 3.072008 1_655
B0 H6 1.214308 1_555
B0 H2 1.216690 1_555
B0 H14 1.266635 1_555
B1 H7 1.214308 1_555
B1 H3 1.216690 1_555
B1 H15 1.266635 1_555
B2 H4 1.214308 1_555
B2 H0 1.216690 1_555
B2 H12 1.266635 1_555
B3 H5 1.214308 1_555
B3 H1 1.216690 1_555
B3 H13 1.266635 1_555
B4 H8 1.208759 1_555
B4 H10 1.216177 1_555
B4 H14 1.476307 1_555
B4 H12 1.476307 1_555
B5 H9 1.208759 1_555
B5 H11 1.216177 1_555
B5 H13 1.476307 1_555
B5 H15 1.476307 1_555
