# generated using pymatgen
data_BeNb4
_symmetry_space_group_name_H-M   'P 1'
_cell_length_a   6.40874917
_cell_length_b   6.40874917
_cell_length_c   6.40874917
_cell_angle_alpha   60.00000000
_cell_angle_beta   60.00000000
_cell_angle_gamma   60.00000000
_symmetry_Int_Tables_number   1
_chemical_formula_structural   BeNb4
_chemical_formula_sum   'Be2 Nb8'
_cell_volume   186.12504923
_cell_formula_units_Z   2
loop_
 _symmetry_equiv_pos_site_id
 _symmetry_equiv_pos_as_xyz
  1  'x, y, z'
loop_
 _atom_site_type_symbol
 _atom_site_label
 _atom_site_symmetry_multiplicity
 _atom_site_fract_x
 _atom_site_fract_y
 _atom_site_fract_z
 _atom_site_occupancy
  Be  Be0  1  0.00000000  0.00000000  0.00000000  1
  Be  Be1  1  0.75000000  0.75000000  0.75000000  1
  Nb  Nb0  1  0.60958300  0.60958300  0.60958300  1
  Nb  Nb1  1  0.17125000  0.60958300  0.60958300  1
  Nb  Nb2  1  0.60958300  0.17125000  0.60958300  1
  Nb  Nb3  1  0.57875000  0.14041700  0.14041700  1
  Nb  Nb4  1  0.14041700  0.14041700  0.14041700  1
  Nb  Nb5  1  0.60958300  0.60958300  0.17125000  1
  Nb  Nb6  1  0.14041700  0.57875000  0.14041700  1
  Nb  Nb7  1  0.14041700  0.14041700  0.57875000  1
loop_
_geom_bond_atom_site_label_1
_geom_bond_atom_site_label_2
_geom_bond_distance
_geom_bond_site_symmetry_2
Be0 Nb6 2.204284 1_545
Be0 Nb3 2.204284 1_455
Be0 Nb7 2.204284 1_554
Be0 Nb4 2.204289 1_555
Be1 Nb1 2.204284 1_655
Be1 Nb5 2.204284 1_556
Be1 Nb2 2.204284 1_565
Be1 Nb0 2.204289 1_555
