# generated using pymatgen
data_CoAsO4
_symmetry_space_group_name_H-M   'P 1'
_cell_length_a   4.95108200
_cell_length_b   5.89093100
_cell_length_c   10.42176900
_cell_angle_alpha   90.00000000
_cell_angle_beta   90.00000000
_cell_angle_gamma   90.00000000
_symmetry_Int_Tables_number   1
_chemical_formula_structural   CoAsO4
_chemical_formula_sum   'Co4 As4 O16'
_cell_volume   303.96634250
_cell_formula_units_Z   4
loop_
 _symmetry_equiv_pos_site_id
 _symmetry_equiv_pos_as_xyz
  1  'x, y, z'
loop_
 _atom_site_type_symbol
 _atom_site_label
 _atom_site_symmetry_multiplicity
 _atom_site_fract_x
 _atom_site_fract_y
 _atom_site_fract_z
 _atom_site_occupancy
  Co  Co0  1  0.42864400  0.75000000  0.72020500  1
  Co  Co1  1  0.57135600  0.25000000  0.27979500  1
  Co  Co2  1  0.92864400  0.25000000  0.77979500  1
  Co  Co3  1  0.07135600  0.75000000  0.22020500  1
  As  As0  1  0.90986700  0.75000000  0.90766800  1
  As  As1  1  0.09013300  0.25000000  0.09233200  1
  As  As2  1  0.40986700  0.25000000  0.59233200  1
  As  As3  1  0.59013300  0.75000000  0.40766800  1
  O  O0  1  0.66021000  0.75000000  0.56705200  1
  O  O1  1  0.33979000  0.25000000  0.43294800  1
  O  O2  1  0.16021000  0.25000000  0.93294800  1
  O  O3  1  0.83979000  0.75000000  0.06705200  1
  O  O4  1  0.74321100  0.96988300  0.82517700  1
  O  O5  1  0.25678900  0.03011700  0.17482300  1
  O  O6  1  0.24321100  0.03011700  0.67482300  1
  O  O7  1  0.25678900  0.46988300  0.17482300  1
  O  O8  1  0.75678900  0.96988300  0.32517700  1
  O  O9  1  0.74321100  0.53011700  0.82517700  1
  O  O10  1  0.75678900  0.53011700  0.32517700  1
  O  O11  1  0.24321100  0.46988300  0.67482300  1
  O  O12  1  0.25098200  0.75000000  0.88418700  1
  O  O13  1  0.74901800  0.25000000  0.11581300  1
  O  O14  1  0.75098200  0.25000000  0.61581300  1
  O  O15  1  0.24901800  0.75000000  0.38418700  1
loop_
_geom_bond_atom_site_label_1
_geom_bond_atom_site_label_2
_geom_bond_distance
_geom_bond_site_symmetry_2
Co0 O12 1.922069 1_555
Co0 O6 1.946685 1_565
Co0 O11 1.946685 1_555
Co0 O0 1.965218 1_555
Co0 O9 2.302239 1_555
Co0 O4 2.302239 1_555
Co1 O13 1.922069 1_555
Co1 O10 1.946685 1_555
Co1 O8 1.946685 1_545
Co1 O1 1.965218 1_555
Co1 O5 2.302239 1_555
Co1 O7 2.302239 1_555
Co2 O14 1.922069 1_555
Co2 O4 1.946685 1_545
Co2 O9 1.946685 1_555
Co2 O2 1.965218 1_655
Co2 O6 2.302239 1_655
Co2 O11 2.302239 1_655
Co3 O15 1.922069 1_555
Co3 O5 1.946685 1_565
Co3 O7 1.946685 1_555
Co3 O3 1.965218 1_455
Co3 O8 2.302239 1_455
Co3 O10 2.302239 1_455
As0 O3 1.696912 1_556
As0 O12 1.706525 1_655
As0 O9 1.760047 1_555
As0 O4 1.760047 1_555
As1 O2 1.696912 1_554
As1 O13 1.706525 1_455
As1 O5 1.760047 1_555
As1 O7 1.760047 1_555
As2 O1 1.696912 1_555
As2 O14 1.706525 1_555
As2 O11 1.760047 1_555
As2 O6 1.760047 1_555
As3 O0 1.696912 1_555
As3 O15 1.706525 1_555
As3 O10 1.760047 1_555
As3 O8 1.760047 1_555
