# generated using pymatgen
data_Ni11(GeSe2)2
_symmetry_space_group_name_H-M   'P 1'
_cell_length_a   3.61776000
_cell_length_b   3.61776000
_cell_length_c   18.41398400
_cell_angle_alpha   90.00000000
_cell_angle_beta   90.00000000
_cell_angle_gamma   90.00000000
_symmetry_Int_Tables_number   1
_chemical_formula_structural   Ni11(GeSe2)2
_chemical_formula_sum   'Ni11 Ge2 Se4'
_cell_volume   241.00567370
_cell_formula_units_Z   1
loop_
 _symmetry_equiv_pos_site_id
 _symmetry_equiv_pos_as_xyz
  1  'x, y, z'
loop_
 _atom_site_type_symbol
 _atom_site_label
 _atom_site_symmetry_multiplicity
 _atom_site_fract_x
 _atom_site_fract_y
 _atom_site_fract_z
 _atom_site_occupancy
  Ni  Ni0  1  0.00000000  0.50000000  0.40585300  1
  Ni  Ni1  1  0.50000000  0.00000000  0.90384900  1
  Ni  Ni2  1  0.50000000  0.00000000  0.40585300  1
  Ni  Ni3  1  0.00000000  0.50000000  0.90384900  1
  Ni  Ni4  1  0.50000000  0.00000000  0.09632100  1
  Ni  Ni5  1  0.00000000  0.50000000  0.59658100  1
  Ni  Ni6  1  0.00000000  0.50000000  0.09632100  1
  Ni  Ni7  1  0.50000000  0.00000000  0.59658100  1
  Ni  Ni8  1  0.00000000  0.00000000  0.50108600  1
  Ni  Ni9  1  0.50000000  0.50000000  0.99988800  1
  Ni  Ni10  1  0.50000000  0.50000000  0.30083600  1
  Ge  Ge0  1  0.00000000  0.00000000  0.99977300  1
  Ge  Ge1  1  0.50000000  0.50000000  0.50023600  1
  Se  Se0  1  0.00000000  0.00000000  0.31749700  1
  Se  Se1  1  0.50000000  0.50000000  0.82328100  1
  Se  Se2  1  0.50000000  0.50000000  0.17653600  1
  Se  Se3  1  0.00000000  0.00000000  0.67715800  1
loop_
_geom_bond_atom_site_label_1
_geom_bond_atom_site_label_2
_geom_bond_distance
_geom_bond_site_symmetry_2
Ni0 Se0 2.432926 1_555
Ni0 Se0 2.432926 1_565
Ni0 Ni8 2.519370 1_565
Ni0 Ni8 2.519370 1_555
Ni0 Ni2 2.558143 1_465
Ni0 Ni2 2.558143 1_455
Ni0 Ni2 2.558143 1_555
Ni0 Ni2 2.558143 1_565
Ni0 Ni10 2.647935 1_455
Ni0 Ni10 2.647935 1_555
Ni1 Se1 2.339455 1_555
Ni1 Se1 2.339455 1_545
Ni1 Ni9 2.529723 1_545
Ni1 Ni9 2.529723 1_555
Ni2 Se0 2.432926 1_555
Ni2 Se0 2.432926 1_655
Ni2 Ni8 2.519370 1_655
Ni2 Ni8 2.519370 1_555
Ni3 Se1 2.339455 1_555
Ni3 Se1 2.339455 1_455
Ni3 Ni9 2.529723 1_455
Ni3 Ni9 2.529723 1_555
Ni4 Se2 2.335338 1_545
Ni4 Se2 2.335338 1_555
Ni4 Ni9 2.534800 1_554
Ni4 Ni9 2.534800 1_544
Ni5 Se3 2.339560 1_565
Ni5 Se3 2.339560 1_555
Ni5 Ni8 2.522731 1_565
Ni5 Ni8 2.522731 1_555
Ni6 Se2 2.335338 1_555
Ni6 Se2 2.335338 1_455
Ni6 Ni9 2.534800 1_554
Ni6 Ni9 2.534800 1_454
Ni7 Se3 2.339560 1_655
Ni7 Se3 2.339560 1_555
Ni7 Ni8 2.522731 1_655
Ni7 Ni8 2.522731 1_555
Ni10 Se2 2.288858 1_555
Ni10 Se0 2.576474 1_665
Ni10 Se0 2.576474 1_565
Ni10 Se0 2.576474 1_655
Ni10 Se0 2.576474 1_555
Ni10 Ni2 2.647935 1_555
Ni10 Ni2 2.647935 1_565
Ge0 Ni3 2.528243 1_545
Ge0 Ni3 2.528243 1_555
Ge0 Ni1 2.528243 1_555
Ge0 Ni1 2.528243 1_455
Ge0 Ni4 2.536284 1_456
Ge0 Ni4 2.536284 1_556
Ge0 Ni6 2.536284 1_546
Ge0 Ni6 2.536284 1_556
Ge0 Ni9 2.558144 1_445
Ge0 Ni9 2.558144 1_555
Ge0 Ni9 2.558144 1_455
Ge0 Ni9 2.558144 1_545
Ge1 Ni2 2.508501 1_565
Ge1 Ni0 2.508501 1_555
Ge1 Ni0 2.508501 1_655
Ge1 Ni2 2.508501 1_555
Ge1 Ni5 2.533666 1_655
Ge1 Ni7 2.533666 1_555
Ge1 Ni7 2.533666 1_565
Ge1 Ni5 2.533666 1_555
Ge1 Ni8 2.558191 1_565
Ge1 Ni8 2.558191 1_555
Ge1 Ni8 2.558191 1_655
Ge1 Ni8 2.558191 1_665
