# generated using pymatgen
data_Li4TiCo3O8
_symmetry_space_group_name_H-M   'P 1'
_cell_length_a   5.92340850
_cell_length_b   8.34338256
_cell_length_c   5.94983851
_cell_angle_alpha   89.53346629
_cell_angle_beta   87.38348816
_cell_angle_gamma   90.55067644
_symmetry_Int_Tables_number   1
_chemical_formula_structural   Li4TiCo3O8
_chemical_formula_sum   'Li8 Ti2 Co6 O16'
_cell_volume   293.71757105
_cell_formula_units_Z   2
loop_
 _symmetry_equiv_pos_site_id
 _symmetry_equiv_pos_as_xyz
  1  'x, y, z'
loop_
 _atom_site_type_symbol
 _atom_site_label
 _atom_site_symmetry_multiplicity
 _atom_site_fract_x
 _atom_site_fract_y
 _atom_site_fract_z
 _atom_site_occupancy
  Li  Li0  1  0.99830300  0.50173700  0.99711400  1
  Li  Li1  1  0.50164100  0.99826000  0.50285000  1
  Li  Li2  1  0.49862400  0.50435900  0.00256100  1
  Li  Li3  1  0.00132400  0.99554400  0.49750200  1
  Li  Li4  1  0.74987900  0.25006900  0.24989300  1
  Li  Li5  1  0.25002500  0.75000800  0.74996000  1
  Li  Li6  1  0.24996600  0.24999300  0.25007900  1
  Li  Li7  1  0.74999800  0.75000400  0.75002600  1
  Ti  Ti0  1  0.50429400  0.49182900  0.51168300  1
  Ti  Ti1  1  0.99572300  0.00818200  0.98834800  1
  Co  Co0  1  0.74999900  0.74998700  0.24997700  1
  Co  Co1  1  0.25001300  0.24999600  0.75003800  1
  Co  Co2  1  0.24999400  0.74999700  0.24997900  1
  Co  Co3  1  0.49359300  0.99922700  0.00316600  1
  Co  Co4  1  0.00643900  0.50076700  0.49682600  1
  Co  Co5  1  0.75003600  0.24998200  0.74999100  1
  O  O0  1  0.48264800  0.76765900  0.01236000  1
  O  O1  1  0.00660700  0.27363300  0.51375700  1
  O  O2  1  0.49343300  0.22641300  0.98637400  1
  O  O3  1  0.01736700  0.73235300  0.48756400  1
  O  O4  1  0.50641500  0.26420300  0.49475400  1
  O  O5  1  0.99051100  0.75855300  0.02224100  1
  O  O6  1  0.50946800  0.74143600  0.47767500  1
  O  O7  1  0.99362300  0.23581000  0.00531100  1
  O  O8  1  0.25750800  0.50371400  0.27555100  1
  O  O9  1  0.74711700  0.99455300  0.77718600  1
  O  O10  1  0.73933000  0.51733300  0.25317500  1
  O  O11  1  0.22504400  0.99445600  0.75487000  1
  O  O12  1  0.75292300  0.50545600  0.72280800  1
  O  O13  1  0.24251400  0.99629100  0.22443800  1
  O  O14  1  0.27490600  0.50554900  0.74509800  1
  O  O15  1  0.76073800  0.98264600  0.24684800  1
loop_
_geom_bond_atom_site_label_1
_geom_bond_atom_site_label_2
_geom_bond_distance
_geom_bond_site_symmetry_2
Li0 O10 2.117758 1_556
Li0 O5 2.149929 1_556
Li0 O14 2.169736 1_655
Li0 O7 2.218749 1_556
Li0 O12 2.234700 1_555
Li0 O8 2.309622 1_656
Li1 O15 2.118037 1_555
Li1 O6 2.150023 1_555
Li1 O11 2.169725 1_555
Li1 O4 2.218875 1_565
Li1 O9 2.235224 1_555
Li1 O13 2.309188 1_555
Li2 O14 2.070781 1_554
Li2 O10 2.112300 1_555
Li2 O8 2.113280 1_555
Li2 O12 2.193207 1_554
Li2 O0 2.200890 1_555
Li2 O2 2.321759 1_554
Li3 O11 2.070350 1_555
Li3 O15 2.111942 1_455
Li3 O13 2.113877 1_555
Li3 O9 2.192561 1_455
Li3 O3 2.200030 1_555
Li3 O1 2.322974 1_565
Li4 O4 2.007589 1_555
Li4 O7 2.007652 1_555
Li4 O10 2.231581 1_555
Li4 O15 2.232954 1_545
Li4 O2 2.240858 1_554
Li4 O1 2.243477 1_655
Li5 O11 2.046651 1_555
Li5 O14 2.046689 1_555
Li5 O0 2.134028 1_556
Li5 O3 2.134153 1_555
Li5 O6 2.183594 1_555
Li5 O5 2.183849 1_456
Li6 O1 2.093360 1_555
Li6 O2 2.093841 1_554
Li6 O13 2.123643 1_545
Li6 O8 2.123727 1_555
Li6 O7 2.154475 1_455
Li6 O4 2.154557 1_555
Li7 O9 2.048239 1_555
Li7 O12 2.048265 1_555
Li7 O0 2.179070 1_556
Li7 O3 2.179666 1_655
Li7 O5 2.206480 1_556
Li7 O6 2.207171 1_555
Co0 O6 1.921112 1_555
Co0 O5 1.921187 1_555
Co0 O10 1.941453 1_555
Co0 O15 1.941504 1_555
Co0 O3 2.175688 1_655
Co0 O0 2.175756 1_555
Co1 O1 2.068826 1_555
Co1 O2 2.069076 1_555
Co1 O7 2.100080 1_456
Co1 O4 2.100182 1_555
Co1 O11 2.135642 1_545
Co1 O14 2.135725 1_555
Co2 O3 1.932231 1_555
Co2 O0 1.932490 1_555
Co2 O8 2.060280 1_555
Co2 O13 2.060353 1_555
Co2 O6 2.096040 1_555
Co2 O5 2.096249 1_455
Co3 O2 1.897330 1_564
Co3 O0 1.932770 1_555
Co3 O13 1.940556 1_555
Co3 O9 1.970312 1_554
Co3 O15 2.199020 1_555
Co3 O11 2.220083 1_554
Co4 O1 1.896934 1_555
Co4 O3 1.932925 1_555
Co4 O8 1.940524 1_555
Co4 O12 1.970290 1_455
Co4 O10 2.198724 1_455
Co4 O14 2.219623 1_555
Co5 O1 2.029513 1_655
Co5 O2 2.030174 1_555
Co5 O9 2.135806 1_545
Co5 O12 2.136176 1_555
Co5 O4 2.145499 1_555
Co5 O7 2.145698 1_556
O4 Ti0 1.902790 1_555
O5 Ti1 2.090651 1_564
O6 Ti0 2.090529 1_555
O7 Ti1 1.902818 1_554
O8 Ti0 2.075727 1_555
O9 Ti1 1.981914 1_565
O10 Ti0 2.035362 1_555
O11 Ti1 1.902975 1_465
O12 Ti0 1.981872 1_555
O13 Ti1 2.075574 1_464
O14 Ti0 1.902980 1_555
O15 Ti1 2.035157 1_564
