# generated using pymatgen
data_NaScSnO4
_symmetry_space_group_name_H-M   'P 1'
_cell_length_a   3.17528400
_cell_length_b   9.63013600
_cell_length_c   11.32677600
_cell_angle_alpha   90.00000000
_cell_angle_beta   90.00000000
_cell_angle_gamma   90.00000000
_symmetry_Int_Tables_number   1
_chemical_formula_structural   NaScSnO4
_chemical_formula_sum   'Na4 Sc4 Sn4 O16'
_cell_volume   346.35487706
_cell_formula_units_Z   4
loop_
 _symmetry_equiv_pos_site_id
 _symmetry_equiv_pos_as_xyz
  1  'x, y, z'
loop_
 _atom_site_type_symbol
 _atom_site_label
 _atom_site_symmetry_multiplicity
 _atom_site_fract_x
 _atom_site_fract_y
 _atom_site_fract_z
 _atom_site_occupancy
  Na  Na0  1  0.50000000  0.25433300  0.89676900  1
  Na  Na1  1  0.50000000  0.75433300  0.10323100  1
  Na  Na2  1  0.00000000  0.74240700  0.60066000  1
  Na  Na3  1  0.00000000  0.24240700  0.39934000  1
  Sc  Sc0  1  0.50000000  0.43068300  0.13600300  1
  Sc  Sc1  1  0.50000000  0.93068300  0.86399700  1
  Sc  Sc2  1  0.50000000  0.41986000  0.64343300  1
  Sc  Sc3  1  0.50000000  0.91986000  0.35656700  1
  Sn  Sn0  1  0.00000000  0.56193300  0.36332900  1
  Sn  Sn1  1  0.00000000  0.06193300  0.63667100  1
  Sn  Sn2  1  0.00000000  0.58315800  0.85396600  1
  Sn  Sn3  1  0.00000000  0.08315800  0.14603400  1
  O  O0  1  0.50000000  0.20253800  0.59725200  1
  O  O1  1  0.50000000  0.70253800  0.40274800  1
  O  O2  1  0.00000000  0.79088100  0.90648300  1
  O  O3  1  0.00000000  0.29088100  0.09351700  1
  O  O4  1  0.50000000  0.12191900  0.26604500  1
  O  O5  1  0.50000000  0.62191900  0.73395500  1
  O  O6  1  0.00000000  0.88925200  0.23284500  1
  O  O7  1  0.00000000  0.38925200  0.76715500  1
  O  O8  1  0.50000000  0.42153800  0.32734700  1
  O  O9  1  0.50000000  0.92153800  0.67265300  1
  O  O10  1  0.00000000  0.57235800  0.17891000  1
  O  O11  1  0.00000000  0.07235800  0.82109000  1
  O  O12  1  0.50000000  0.02436700  0.03441500  1
  O  O13  1  0.50000000  0.52436700  0.96558500  1
  O  O14  1  0.00000000  0.98477200  0.46534100  1
  O  O15  1  0.00000000  0.48477200  0.53465900  1
loop_
_geom_bond_atom_site_label_1
_geom_bond_atom_site_label_2
_geom_bond_distance
_geom_bond_site_symmetry_2
Na0 O11 2.515245 1_655
Na0 O11 2.515245 1_555
Na0 O7 2.522717 1_555
Na0 O7 2.522717 1_655
Na0 O12 2.708361 1_556
Na0 O13 2.714770 1_555
Na0 O3 2.758766 1_556
Na0 O3 2.758766 1_656
Na1 O10 2.515245 1_655
Na1 O10 2.515245 1_555
Na1 O6 2.522717 1_555
Na1 O6 2.522717 1_655
Na1 O13 2.708361 1_554
Na1 O12 2.714770 1_565
Na1 O2 2.758766 1_654
Na1 O2 2.758766 1_554
Na2 O5 2.479202 1_455
Na2 O5 2.479202 1_555
Na2 O9 2.482213 1_455
Na2 O9 2.482213 1_555
Na2 O15 2.591242 1_555
Na2 O1 2.773673 1_555
Na2 O1 2.773673 1_455
Na2 O14 2.792284 1_555
Na3 O4 2.479202 1_555
Na3 O4 2.479202 1_455
Na3 O8 2.482213 1_455
Na3 O8 2.482213 1_555
Na3 O14 2.591242 1_545
Na3 O0 2.773673 1_455
Na3 O0 2.773673 1_555
Na3 O15 2.792284 1_555
O0 Sn1 2.133870 1_655
O0 Sn1 2.133870 1_555
O0 Sc2 2.157219 1_555
O1 Sn0 2.133870 1_655
O1 Sn0 2.133870 1_555
O1 Sc3 2.157219 1_555
O2 Sn2 2.086971 1_555
O2 Sc1 2.136527 1_455
O2 Sc1 2.136527 1_555
O3 Sn3 2.086971 1_555
O3 Sc0 2.136527 1_555
O3 Sc0 2.136527 1_455
O4 Sn3 2.123144 1_555
O4 Sn3 2.123144 1_655
O4 Sc3 2.199464 1_545
O5 Sn2 2.123144 1_655
O5 Sn2 2.123144 1_555
O5 Sc2 2.199464 1_555
O6 Sn3 2.110407 1_565
O6 Sc3 2.138067 1_555
O6 Sc3 2.138067 1_455
O7 Sn2 2.110407 1_555
O7 Sc2 2.138067 1_455
O7 Sc2 2.138067 1_555
O8 Sn0 2.124777 1_655
O8 Sn0 2.124777 1_555
O8 Sc0 2.169099 1_555
O9 Sn1 2.124777 1_665
O9 Sn1 2.124777 1_565
O9 Sc1 2.169099 1_555
O10 Sn0 2.091284 1_555
O10 Sc0 2.149012 1_555
O10 Sc0 2.149012 1_455
O11 Sn1 2.091284 1_555
O11 Sc1 2.149012 1_445
O11 Sc1 2.149012 1_545
O12 Sn3 2.107027 1_555
O12 Sn3 2.107027 1_655
O12 Sc1 2.130716 1_544
O13 Sn2 2.107027 1_655
O13 Sn2 2.107027 1_555
O13 Sc0 2.130716 1_556
O14 Sn1 2.078015 1_565
O14 Sc3 2.104600 1_455
O14 Sc3 2.104600 1_555
O15 Sn0 2.078015 1_555
O15 Sc2 2.104600 1_555
O15 Sc2 2.104600 1_455
