# generated using pymatgen
data_Lu2N3
_symmetry_space_group_name_H-M   'P 1'
_cell_length_a   9.18861614
_cell_length_b   9.18861614
_cell_length_c   9.18861614
_cell_angle_alpha   109.47122063
_cell_angle_beta   109.47122063
_cell_angle_gamma   109.47122063
_symmetry_Int_Tables_number   1
_chemical_formula_structural   Lu2N3
_chemical_formula_sum   'Lu16 N24'
_cell_volume   597.21187647
_cell_formula_units_Z   8
loop_
 _symmetry_equiv_pos_site_id
 _symmetry_equiv_pos_as_xyz
  1  'x, y, z'
loop_
 _atom_site_type_symbol
 _atom_site_label
 _atom_site_symmetry_multiplicity
 _atom_site_fract_x
 _atom_site_fract_y
 _atom_site_fract_z
 _atom_site_occupancy
  Lu  Lu0  1  0.50000000  0.00000000  0.00000000  1
  Lu  Lu1  1  0.00000000  0.50000000  0.00000000  1
  Lu  Lu2  1  0.00000000  0.00000000  0.50000000  1
  Lu  Lu3  1  0.50000000  0.50000000  0.50000000  1
  Lu  Lu4  1  0.46922900  0.25000000  0.71922900  1
  Lu  Lu5  1  0.03077100  0.75000000  0.78077100  1
  Lu  Lu6  1  0.25000000  0.71922900  0.46922900  1
  Lu  Lu7  1  0.75000000  0.78077100  0.03077100  1
  Lu  Lu8  1  0.71922900  0.46922900  0.25000000  1
  Lu  Lu9  1  0.78077100  0.03077100  0.75000000  1
  Lu  Lu10  1  0.53077100  0.75000000  0.28077100  1
  Lu  Lu11  1  0.96922900  0.25000000  0.21922900  1
  Lu  Lu12  1  0.75000000  0.28077100  0.53077100  1
  Lu  Lu13  1  0.25000000  0.21922900  0.96922900  1
  Lu  Lu14  1  0.28077100  0.53077100  0.75000000  1
  Lu  Lu15  1  0.21922900  0.96922900  0.25000000  1
  N  N0  1  0.53092800  0.77004300  0.53932300  1
  N  N1  1  0.76928000  0.72995700  0.26088500  1
  N  N2  1  0.96907200  0.50839500  0.23911500  1
  N  N3  1  0.73072000  0.99160500  0.96067700  1
  N  N4  1  0.77004300  0.53932300  0.53092800  1
  N  N5  1  0.72995700  0.26088500  0.76928000  1
  N  N6  1  0.50839500  0.23911500  0.96907200  1
  N  N7  1  0.99160500  0.96067700  0.73072000  1
  N  N8  1  0.53932300  0.53092800  0.77004300  1
  N  N9  1  0.26088500  0.76928000  0.72995700  1
  N  N10  1  0.23911500  0.96907200  0.50839500  1
  N  N11  1  0.96067700  0.73072000  0.99160500  1
  N  N12  1  0.46907200  0.22995700  0.46067700  1
  N  N13  1  0.23072000  0.27004300  0.73911500  1
  N  N14  1  0.03092800  0.49160500  0.76088500  1
  N  N15  1  0.26928000  0.00839500  0.03932300  1
  N  N16  1  0.22995700  0.46067700  0.46907200  1
  N  N17  1  0.27004300  0.73911500  0.23072000  1
  N  N18  1  0.49160500  0.76088500  0.03092800  1
  N  N19  1  0.00839500  0.03932300  0.26928000  1
  N  N20  1  0.46067700  0.46907200  0.22995700  1
  N  N21  1  0.73911500  0.23072000  0.27004300  1
  N  N22  1  0.76088500  0.03092800  0.49160500  1
  N  N23  1  0.03932300  0.26928000  0.00839500  1
loop_
_geom_bond_atom_site_label_1
_geom_bond_atom_site_label_2
_geom_bond_distance
_geom_bond_site_symmetry_2
Lu0 N21 2.287358 1_555
Lu0 N15 2.287358 1_555
Lu0 N9 2.287358 1_544
Lu0 N3 2.287358 1_544
Lu0 N18 2.287358 1_545
Lu0 N6 2.287358 1_554
Lu1 N23 2.287358 1_555
Lu1 N17 2.287358 1_555
Lu1 N11 2.287358 1_454
Lu1 N5 2.287358 1_454
Lu1 N14 2.287358 1_554
Lu1 N2 2.287358 1_455
Lu2 N1 2.287358 1_445
Lu2 N13 2.287358 1_555
Lu2 N19 2.287358 1_555
Lu2 N7 2.287358 1_445
Lu2 N22 2.287358 1_455
Lu2 N10 2.287358 1_545
Lu3 N0 2.287358 1_555
Lu3 N8 2.287358 1_555
Lu3 N4 2.287358 1_555
Lu3 N12 2.287358 1_555
Lu3 N20 2.287358 1_555
Lu3 N16 2.287358 1_555
Lu4 N6 2.244124 1_555
Lu4 N5 2.244124 1_555
Lu4 N8 2.276793 1_555
Lu4 N10 2.276793 1_545
Lu4 N13 2.320320 1_555
Lu4 N12 2.320320 1_555
Lu5 N7 2.244124 1_455
Lu5 N4 2.244124 1_455
Lu5 N11 2.276793 1_455
Lu5 N9 2.276793 1_555
Lu5 N15 2.320320 1_566
Lu5 N14 2.320320 1_555
Lu6 N10 2.244124 1_555
Lu6 N9 2.244124 1_555
Lu6 N0 2.276793 1_555
Lu6 N2 2.276793 1_455
Lu6 N17 2.320320 1_555
Lu6 N16 2.320320 1_555
Lu7 N11 2.244124 1_554
Lu7 N8 2.244124 1_554
Lu7 N3 2.276793 1_554
Lu7 N1 2.276793 1_555
Lu7 N19 2.320320 1_665
Lu7 N18 2.320320 1_555
Lu8 N2 2.244124 1_555
Lu8 N1 2.244124 1_555
Lu8 N4 2.276793 1_555
Lu8 N6 2.276793 1_554
Lu8 N21 2.320320 1_555
Lu8 N20 2.320320 1_555
Lu9 N3 2.244124 1_545
Lu9 N0 2.244124 1_545
Lu9 N7 2.276793 1_545
Lu9 N5 2.276793 1_555
Lu9 N23 2.320320 1_656
Lu9 N22 2.320320 1_555
Lu10 N17 2.244124 1_555
Lu10 N18 2.244124 1_555
Lu10 N22 2.276793 1_565
Lu10 N20 2.276793 1_555
Lu10 N1 2.320320 1_555
Lu10 N0 2.320320 1_555
Lu11 N16 2.244124 1_655
Lu11 N19 2.244124 1_655
Lu11 N23 2.276793 1_655
Lu11 N21 2.276793 1_555
Lu11 N2 2.320320 1_555
Lu11 N3 2.320320 1_544
Lu12 N21 2.244124 1_555
Lu12 N22 2.244124 1_555
Lu12 N14 2.276793 1_655
Lu12 N12 2.276793 1_555
Lu12 N5 2.320320 1_555
Lu12 N4 2.320320 1_555
Lu13 N20 2.244124 1_556
Lu13 N23 2.244124 1_556
Lu13 N15 2.276793 1_556
Lu13 N13 2.276793 1_555
Lu13 N6 2.320320 1_555
Lu13 N7 2.320320 1_445
Lu14 N13 2.244124 1_555
Lu14 N14 2.244124 1_555
Lu14 N18 2.276793 1_556
Lu14 N16 2.276793 1_555
Lu14 N9 2.320320 1_555
Lu14 N8 2.320320 1_555
Lu15 N12 2.244124 1_565
Lu15 N15 2.244124 1_565
Lu15 N19 2.276793 1_565
Lu15 N17 2.276793 1_555
Lu15 N10 2.320320 1_555
Lu15 N11 2.320320 1_454
