# generated using pymatgen
data_Al4CO
_symmetry_space_group_name_H-M   'P 1'
_cell_length_a   5.11319600
_cell_length_b   9.52899528
_cell_length_c   18.86212288
_cell_angle_alpha   85.89865117
_cell_angle_beta   97.78992592
_cell_angle_gamma   122.45203672
_symmetry_Int_Tables_number   1
_chemical_formula_structural   Al4CO
_chemical_formula_sum   'Al32 C8 O8'
_cell_volume   768.35839945
_cell_formula_units_Z   8
loop_
 _symmetry_equiv_pos_site_id
 _symmetry_equiv_pos_as_xyz
  1  'x, y, z'
loop_
 _atom_site_type_symbol
 _atom_site_label
 _atom_site_symmetry_multiplicity
 _atom_site_fract_x
 _atom_site_fract_y
 _atom_site_fract_z
 _atom_site_occupancy
  Al  Al0_0  1  0.14633250  0.25560550  0.28145500  1
  Al  Al0_1  1  0.14633250  0.25560550  0.78145500  1
  Al  Al0_2  1  0.14633250  0.75560550  0.28145500  1
  Al  Al0_3  1  0.14633250  0.75560550  0.78145500  1
  Al  Al0_4  1  0.64633250  0.25560550  0.28145500  1
  Al  Al0_5  1  0.64633250  0.25560550  0.78145500  1
  Al  Al0_6  1  0.64633250  0.75560550  0.28145500  1
  Al  Al0_7  1  0.64633250  0.75560550  0.78145500  1
  Al  Al1_0  1  0.28167350  0.03607700  0.49119300  1
  Al  Al1_1  1  0.28167350  0.03607700  0.99119300  1
  Al  Al1_2  1  0.28167350  0.53607700  0.49119300  1
  Al  Al1_3  1  0.28167350  0.53607700  0.99119300  1
  Al  Al1_4  1  0.78167350  0.03607700  0.49119300  1
  Al  Al1_5  1  0.78167350  0.03607700  0.99119300  1
  Al  Al1_6  1  0.78167350  0.53607700  0.49119300  1
  Al  Al1_7  1  0.78167350  0.53607700  0.99119300  1
  Al  Al2_0  1  0.07429100  0.28473900  0.07910400  1
  Al  Al2_1  1  0.07429100  0.28473900  0.57910400  1
  Al  Al2_2  1  0.07429100  0.78473900  0.07910400  1
  Al  Al2_3  1  0.07429100  0.78473900  0.57910400  1
  Al  Al2_4  1  0.57429100  0.28473900  0.07910400  1
  Al  Al2_5  1  0.57429100  0.28473900  0.57910400  1
  Al  Al2_6  1  0.57429100  0.78473900  0.07910400  1
  Al  Al2_7  1  0.57429100  0.78473900  0.57910400  1
  Al  Al3_0  1  0.37249500  0.03737050  0.17024800  1
  Al  Al3_1  1  0.37249500  0.03737050  0.67024800  1
  Al  Al3_2  1  0.37249500  0.53737050  0.17024800  1
  Al  Al3_3  1  0.37249500  0.53737050  0.67024800  1
  Al  Al3_4  1  0.87249500  0.03737050  0.17024800  1
  Al  Al3_5  1  0.87249500  0.03737050  0.67024800  1
  Al  Al3_6  1  0.87249500  0.53737050  0.17024800  1
  Al  Al3_7  1  0.87249500  0.53737050  0.67024800  1
  C  C0_0  1  0.43014300  0.01074800  0.33879100  1
  C  C0_1  1  0.43014300  0.01074800  0.83879100  1
  C  C0_2  1  0.43014300  0.51074800  0.33879100  1
  C  C0_3  1  0.43014300  0.51074800  0.83879100  1
  C  C0_4  1  0.93014300  0.01074800  0.33879100  1
  C  C0_5  1  0.93014300  0.01074800  0.83879100  1
  C  C0_6  1  0.93014300  0.51074800  0.33879100  1
  C  C0_7  1  0.93014300  0.51074800  0.83879100  1
  O  O0_0  1  0.19506500  0.00046000  0.38920900  1
  O  O0_1  1  0.19506500  0.00046000  0.88920900  1
  O  O0_2  1  0.19506500  0.50046000  0.38920900  1
  O  O0_3  1  0.19506500  0.50046000  0.88920900  1
  O  O0_4  1  0.69506500  0.00046000  0.38920900  1
  O  O0_5  1  0.69506500  0.00046000  0.88920900  1
  O  O0_6  1  0.69506500  0.50046000  0.38920900  1
  O  O0_7  1  0.69506500  0.50046000  0.88920900  1
loop_
_geom_bond_atom_site_label_1
_geom_bond_atom_site_label_2
_geom_bond_distance
_geom_bond_site_symmetry_2
Al0_0 C0_4 2.242930 1_455
Al0_0 C0_2 2.313173 1_555
Al0_0 Al3_4 2.718074 1_455
Al0_0 Al3_2 3.076676 1_555
Al0_1 C0_5 2.242930 1_455
Al0_1 C0_3 2.313173 1_555
Al0_1 Al3_5 2.718074 1_455
Al0_1 Al3_3 3.076676 1_555
Al0_2 C0_6 2.242930 1_455
Al0_2 C0_0 2.313173 1_565
Al0_2 Al3_6 2.718074 1_455
Al0_2 Al3_0 3.076676 1_565
Al0_3 C0_7 2.242930 1_455
Al0_3 C0_1 2.313173 1_565
Al0_3 Al3_7 2.718074 1_455
Al0_3 Al3_1 3.076676 1_565
Al0_4 C0_0 2.242930 1_555
Al0_4 C0_6 2.313173 1_555
Al0_4 Al3_0 2.718074 1_555
Al0_4 Al3_6 3.076676 1_555
Al0_5 C0_1 2.242930 1_555
Al0_5 C0_7 2.313173 1_555
Al0_5 Al3_1 2.718074 1_555
Al0_5 Al3_7 3.076676 1_555
Al0_6 C0_2 2.242930 1_555
Al0_6 C0_4 2.313173 1_565
Al0_6 Al3_2 2.718074 1_555
Al0_6 Al3_4 3.076676 1_565
Al0_7 C0_3 2.242930 1_555
Al0_7 C0_5 2.313173 1_565
Al0_7 Al3_3 2.718074 1_555
Al0_7 Al3_5 3.076676 1_565
Al1_0 O0_0 1.926871 1_555
Al1_0 Al2_5 2.586018 1_555
Al1_0 Al2_3 2.606360 1_545
Al1_1 O0_1 1.926871 1_555
Al1_1 Al2_4 2.586018 1_556
Al1_1 Al2_2 2.606360 1_546
Al1_2 O0_2 1.926871 1_555
Al1_2 Al2_7 2.586018 1_555
Al1_2 Al2_1 2.606360 1_555
Al1_3 O0_3 1.926871 1_555
Al1_3 Al2_6 2.586018 1_556
Al1_3 Al2_0 2.606360 1_556
Al1_4 O0_4 1.926871 1_555
Al1_4 Al2_1 2.586018 1_655
Al1_4 Al2_7 2.606360 1_545
Al1_5 O0_5 1.926871 1_555
Al1_5 Al2_0 2.586018 1_656
Al1_5 Al2_6 2.606360 1_546
Al1_6 O0_6 1.926871 1_555
Al1_6 Al2_3 2.586018 1_655
Al1_6 Al2_5 2.606360 1_555
Al1_7 O0_7 1.926871 1_555
Al1_7 Al2_2 2.586018 1_656
Al1_7 Al2_4 2.606360 1_556
Al2_0 Al2_4 2.556598 1_455
Al2_0 Al2_4 2.556598 1_555
Al2_0 Al3_4 2.620589 1_455
Al2_0 Al3_2 2.649116 1_555
Al2_1 Al2_5 2.556598 1_455
Al2_1 Al2_5 2.556598 1_555
Al2_1 Al3_5 2.620589 1_455
Al2_1 Al3_3 2.649116 1_555
Al2_2 Al2_6 2.556598 1_555
Al2_2 Al2_6 2.556598 1_455
Al2_2 Al3_6 2.620589 1_455
Al2_2 Al3_0 2.649116 1_565
Al2_3 Al2_7 2.556598 1_555
Al2_3 Al2_7 2.556598 1_455
Al2_3 Al3_7 2.620589 1_455
Al2_3 Al3_1 2.649116 1_565
Al2_4 Al3_0 2.620589 1_555
Al2_4 Al3_6 2.649116 1_555
Al2_5 Al3_1 2.620589 1_555
Al2_5 Al3_7 2.649116 1_555
Al2_6 Al3_2 2.620589 1_555
Al2_6 Al3_4 2.649116 1_565
Al2_7 Al3_3 2.620589 1_555
Al2_7 Al3_5 2.649116 1_565
Al3_0 Al3_4 2.556598 1_555
Al3_0 Al3_4 2.556598 1_455
Al3_1 Al3_5 2.556598 1_555
Al3_1 Al3_5 2.556598 1_455
Al3_2 Al3_6 2.556598 1_555
Al3_2 Al3_6 2.556598 1_455
Al3_3 Al3_7 2.556598 1_555
Al3_3 Al3_7 2.556598 1_455
C0_0 O0_0 1.590243 1_555
C0_0 O0_4 1.590251 1_555
C0_1 O0_1 1.590243 1_555
C0_1 O0_5 1.590251 1_555
C0_2 O0_2 1.590243 1_555
C0_2 O0_6 1.590251 1_555
C0_3 O0_3 1.590243 1_555
C0_3 O0_7 1.590251 1_555
C0_4 O0_4 1.590243 1_555
C0_4 O0_0 1.590251 1_655
C0_5 O0_5 1.590243 1_555
C0_5 O0_1 1.590251 1_655
C0_6 O0_6 1.590243 1_555
C0_6 O0_2 1.590251 1_655
C0_7 O0_7 1.590243 1_555
C0_7 O0_3 1.590251 1_655
