# generated using pymatgen
data_CaMg2Ni9
_symmetry_space_group_name_H-M   'P 1'
_cell_length_a   8.33616445
_cell_length_b   8.33616445
_cell_length_c   8.33616420
_cell_angle_alpha   33.83863101
_cell_angle_beta   33.83863101
_cell_angle_gamma   33.83863001
_symmetry_Int_Tables_number   1
_chemical_formula_structural   CaMg2Ni9
_chemical_formula_sum   'Ca1 Mg2 Ni9'
_cell_volume   160.07697429
_cell_formula_units_Z   1
loop_
 _symmetry_equiv_pos_site_id
 _symmetry_equiv_pos_as_xyz
  1  'x, y, z'
loop_
 _atom_site_type_symbol
 _atom_site_label
 _atom_site_symmetry_multiplicity
 _atom_site_fract_x
 _atom_site_fract_y
 _atom_site_fract_z
 _atom_site_occupancy
  Ca  Ca0  1  0.00000000  0.00000000  0.00000000  1
  Mg  Mg0  1  0.85669300  0.85669300  0.85669300  1
  Mg  Mg1  1  0.14330700  0.14330700  0.14330700  1
  Ni  Ni0  1  0.08197600  0.58597000  0.58597000  1
  Ni  Ni1  1  0.58597000  0.58597000  0.08197600  1
  Ni  Ni2  1  0.58597000  0.08197600  0.58597000  1
  Ni  Ni3  1  0.41403000  0.91802400  0.41403000  1
  Ni  Ni4  1  0.91802400  0.41403000  0.41403000  1
  Ni  Ni5  1  0.41403000  0.41403000  0.91802400  1
  Ni  Ni6  1  0.50000000  0.50000000  0.50000000  1
  Ni  Ni7  1  0.66655200  0.66655200  0.66655200  1
  Ni  Ni8  1  0.33344800  0.33344800  0.33344800  1
loop_
_geom_bond_atom_site_label_1
_geom_bond_atom_site_label_2
_geom_bond_distance
_geom_bond_site_symmetry_2
Ca0 Ni8 2.801339 1_455
Ca0 Ni8 2.801339 1_545
Ca0 Ni7 2.801339 1_544
Ca0 Ni7 2.801339 1_454
Ca0 Ni8 2.801340 1_554
Ca0 Ni7 2.801340 1_445
Ca0 Ni3 3.140088 1_544
Ca0 Ni4 3.140088 1_454
Ca0 Ni0 3.140088 1_545
Ca0 Ni2 3.140088 1_455
Ca0 Ni5 3.140088 1_454
Ca0 Ni5 3.140088 1_544
Ca0 Ni1 3.140088 1_545
Ca0 Ni1 3.140088 1_455
Ca0 Ni4 3.140088 1_445
Ca0 Ni3 3.140088 1_445
Ca0 Ni2 3.140088 1_554
Ca0 Ni0 3.140088 1_554
Mg0 Ni3 2.792014 1_556
Mg0 Ni4 2.792014 1_556
Mg0 Ni5 2.792014 1_565
Mg0 Ni5 2.792014 1_655
Mg0 Ni4 2.792014 1_565
Mg0 Ni3 2.792014 1_655
Mg0 Ni2 2.844740 1_565
Mg0 Ni0 2.844740 1_655
Mg0 Ni1 2.844740 1_556
Mg0 Ni6 2.854861 1_655
Mg0 Ni6 2.854861 1_565
Mg0 Ni6 2.854862 1_556
Mg1 Ni2 2.792014 1_554
Mg1 Ni0 2.792014 1_554
Mg1 Ni1 2.792014 1_545
Mg1 Ni1 2.792014 1_455
Mg1 Ni0 2.792014 1_545
Mg1 Ni2 2.792014 1_455
Mg1 Ni3 2.844740 1_545
Mg1 Ni4 2.844740 1_455
Mg1 Ni5 2.844740 1_554
Mg1 Ni6 2.854861 1_455
Mg1 Ni6 2.854861 1_545
Mg1 Ni6 2.854862 1_554
Ni0 Ni6 2.392979 1_555
Ni0 Ni2 2.406651 1_465
Ni0 Ni1 2.406651 1_456
Ni0 Ni7 2.432249 1_455
Ni0 Ni8 2.440693 1_555
Ni0 Ni2 2.445409 1_555
Ni0 Ni1 2.445409 1_555
Ni1 Ni6 2.392979 1_555
Ni1 Ni2 2.406651 1_564
Ni1 Ni7 2.432249 1_554
Ni1 Ni8 2.440693 1_555
Ni1 Ni2 2.445409 1_555
Ni2 Ni6 2.392979 1_555
Ni2 Ni7 2.432249 1_545
Ni2 Ni8 2.440693 1_555
Ni3 Ni6 2.392979 1_555
Ni3 Ni4 2.406651 1_465
Ni3 Ni5 2.406651 1_564
Ni3 Ni8 2.432249 1_565
Ni3 Ni7 2.440693 1_555
Ni3 Ni4 2.445409 1_555
Ni3 Ni5 2.445409 1_555
Ni4 Ni6 2.392979 1_555
Ni4 Ni5 2.406651 1_654
Ni4 Ni8 2.432249 1_655
Ni4 Ni7 2.440693 1_555
Ni4 Ni5 2.445409 1_555
Ni5 Ni6 2.392979 1_555
Ni5 Ni8 2.432249 1_556
Ni5 Ni7 2.440693 1_555
Ni7 Ni8 2.801343 1_655
Ni7 Ni8 2.801343 1_565
Ni7 Ni8 2.801343 1_556
