# generated using pymatgen
data_Cr(CoN)3
_symmetry_space_group_name_H-M   'P 1'
_cell_length_a   6.38406966
_cell_length_b   6.30193770
_cell_length_c   3.87619500
_cell_angle_alpha   90.00000000
_cell_angle_beta   90.00000000
_cell_angle_gamma   119.28116850
_symmetry_Int_Tables_number   1
_chemical_formula_structural   Cr(CoN)3
_chemical_formula_sum   'Cr2 Co6 N6'
_cell_volume   136.02176176
_cell_formula_units_Z   2
loop_
 _symmetry_equiv_pos_site_id
 _symmetry_equiv_pos_as_xyz
  1  'x, y, z'
loop_
 _atom_site_type_symbol
 _atom_site_label
 _atom_site_symmetry_multiplicity
 _atom_site_fract_x
 _atom_site_fract_y
 _atom_site_fract_z
 _atom_site_occupancy
  Cr  Cr0  1  0.66438900  0.33285100  0.75000000  1
  Cr  Cr1  1  0.33561100  0.66714900  0.25000000  1
  Co  Co0  1  0.82269400  0.64057800  0.25000000  1
  Co  Co1  1  0.82171400  0.18070700  0.25000000  1
  Co  Co2  1  0.36057700  0.17995700  0.25000000  1
  Co  Co3  1  0.17730600  0.35942200  0.75000000  1
  Co  Co4  1  0.17828600  0.81929300  0.75000000  1
  Co  Co5  1  0.63942300  0.82004300  0.75000000  1
  N  N0  1  0.83154300  0.66067800  0.75000000  1
  N  N1  1  0.83051100  0.16973200  0.75000000  1
  N  N2  1  0.34007800  0.17035900  0.75000000  1
  N  N3  1  0.16845700  0.33932200  0.25000000  1
  N  N4  1  0.16948900  0.83026800  0.25000000  1
  N  N5  1  0.65992200  0.82964100  0.25000000  1
loop_
_geom_bond_atom_site_label_1
_geom_bond_atom_site_label_2
_geom_bond_distance
_geom_bond_site_symmetry_2
Cr0 N1 1.802183 1_555
Cr0 N0 1.802871 1_555
Cr0 N2 1.805922 1_555
Cr1 N4 1.802183 1_555
Cr1 N3 1.802871 1_555
Cr1 N5 1.805922 1_555
Co0 N5 1.926271 1_555
Co0 N4 1.934364 1_655
Co0 N0 1.941252 1_554
Co0 N0 1.941252 1_555
Co1 N5 1.930345 1_545
Co1 N3 1.932583 1_655
Co1 N1 1.941123 1_555
Co1 N1 1.941123 1_554
Co2 N4 1.927394 1_545
Co2 N3 1.928182 1_555
Co2 N2 1.941459 1_554
Co2 N2 1.941459 1_555
Co3 N2 1.926271 1_555
Co3 N1 1.934364 1_455
Co3 N3 1.941252 1_555
Co3 N3 1.941252 1_556
Co4 N2 1.930345 1_565
Co4 N0 1.932583 1_455
Co4 N4 1.941123 1_555
Co4 N4 1.941123 1_556
Co5 N1 1.927394 1_565
Co5 N0 1.928182 1_555
Co5 N5 1.941459 1_556
Co5 N5 1.941459 1_555
