# generated using pymatgen
data_BaGdCuS3
_symmetry_space_group_name_H-M   'P 1'
_cell_length_a   7.08408224
_cell_length_b   7.08408224
_cell_length_c   10.37021500
_cell_angle_alpha   90.00000000
_cell_angle_beta   90.00000000
_cell_angle_gamma   146.77413801
_symmetry_Int_Tables_number   1
_chemical_formula_structural   BaGdCuS3
_chemical_formula_sum   'Ba2 Gd2 Cu2 S6'
_cell_volume   285.16002174
_cell_formula_units_Z   2
loop_
 _symmetry_equiv_pos_site_id
 _symmetry_equiv_pos_as_xyz
  1  'x, y, z'
loop_
 _atom_site_type_symbol
 _atom_site_label
 _atom_site_symmetry_multiplicity
 _atom_site_fract_x
 _atom_site_fract_y
 _atom_site_fract_z
 _atom_site_occupancy
  Ba  Ba0  1  0.25582300  0.74417700  0.25000000  1
  Ba  Ba1  1  0.74417700  0.25582300  0.75000000  1
  Gd  Gd0  1  0.00000000  0.00000000  0.50000000  1
  Gd  Gd1  1  0.00000000  0.00000000  0.00000000  1
  Cu  Cu0  1  0.53378500  0.46621500  0.25000000  1
  Cu  Cu1  1  0.46621500  0.53378500  0.75000000  1
  S  S0  1  0.63212500  0.36787500  0.43405100  1
  S  S1  1  0.36787500  0.63212500  0.56594900  1
  S  S2  1  0.63212500  0.36787500  0.06594900  1
  S  S3  1  0.36787500  0.63212500  0.93405100  1
  S  S4  1  0.93342700  0.06657300  0.25000000  1
  S  S5  1  0.06657300  0.93342700  0.75000000  1
loop_
_geom_bond_atom_site_label_1
_geom_bond_atom_site_label_2
_geom_bond_distance
_geom_bond_site_symmetry_2
Ba0 S4 3.149037 1_565
Ba0 S4 3.149037 1_455
Ba0 S2 3.250464 1_455
Ba0 S0 3.250464 1_565
Ba0 S0 3.250464 1_455
Ba0 S2 3.250464 1_565
Ba0 S1 3.612416 1_555
Ba0 S3 3.612416 1_554
Ba1 S5 3.149037 1_655
Ba1 S5 3.149037 1_545
Ba1 S3 3.250464 1_655
Ba1 S1 3.250464 1_655
Ba1 S1 3.250464 1_545
Ba1 S3 3.250464 1_545
Ba1 S0 3.612416 1_555
Ba1 S2 3.612416 1_556
Gd0 S4 2.745591 1_455
Gd0 S5 2.745591 1_545
Gd0 S1 2.790642 1_555
Gd0 S0 2.790642 1_555
Gd0 S0 2.790642 1_445
Gd0 S1 2.790642 1_445
Gd1 S5 2.745591 1_544
Gd1 S4 2.745591 1_455
Gd1 S2 2.790642 1_555
Gd1 S2 2.790642 1_445
Gd1 S3 2.790642 1_554
Gd1 S3 2.790642 1_444
Cu0 S2 2.329277 1_555
Cu0 S0 2.329277 1_555
Cu0 S4 2.441032 1_565
Cu0 S4 2.441032 1_455
Cu1 S1 2.329277 1_555
Cu1 S3 2.329277 1_555
Cu1 S5 2.441032 1_545
Cu1 S5 2.441032 1_655
