# generated using pymatgen
data_Gd2(SO4)3
_symmetry_space_group_name_H-M   'P 1'
_cell_length_a   6.38758674
_cell_length_b   8.07471572
_cell_length_c   6.91968145
_cell_angle_alpha   115.82727688
_cell_angle_beta   89.86287093
_cell_angle_gamma   116.99697657
_symmetry_Int_Tables_number   1
_chemical_formula_structural   Gd2(SO4)3
_chemical_formula_sum   'Gd2 S3 O12'
_cell_volume   277.62299522
_cell_formula_units_Z   1
loop_
 _symmetry_equiv_pos_site_id
 _symmetry_equiv_pos_as_xyz
  1  'x, y, z'
loop_
 _atom_site_type_symbol
 _atom_site_label
 _atom_site_symmetry_multiplicity
 _atom_site_fract_x
 _atom_site_fract_y
 _atom_site_fract_z
 _atom_site_occupancy
  Gd  Gd0  1  0.74111500  0.42934000  0.44530800  1
  Gd  Gd1  1  0.34058800  0.19457300  0.81663500  1
  S  S0  1  0.16309700  0.23047200  0.34208100  1
  S  S1  1  0.91903500  0.39215400  0.93292400  1
  S  S2  1  0.47549400  0.81870800  0.06615300  1
  O  O0  1  0.08442800  0.39490100  0.42315300  1
  O  O1  1  0.35271600  0.30009100  0.54680400  1
  O  O2  1  0.34881300  0.29073000  0.20107200  1
  O  O3  1  0.00997400  0.23659200  0.84328000  1
  O  O4  1  0.73927900  0.33631100  0.73163300  1
  O  O5  1  0.72629200  0.30895300  0.05627400  1
  O  O6  1  0.50784800  0.64254500  0.02318600  1
  O  O7  1  0.33114700  0.81451800  0.90396500  1
  O  O8  1  0.59910700  0.00747800  0.27900200  1
  O  O9  1  0.17359200  0.86329800  0.54473200  1
  O  O10  1  0.82929400  0.75269200  0.69358300  1
  O  O11  1  0.91168200  0.78874500  0.51091300  1
loop_
_geom_bond_atom_site_label_1
_geom_bond_atom_site_label_2
_geom_bond_distance
_geom_bond_site_symmetry_2
Gd0 O10 2.201584 1_555
Gd0 O0 2.329103 1_655
Gd0 O4 2.403862 1_555
Gd0 O11 2.408131 1_555
Gd0 O5 2.416253 1_555
Gd0 O1 2.452973 1_555
Gd0 O2 2.492806 1_555
Gd0 O8 2.744971 1_555
Gd1 O9 2.206132 1_545
Gd1 O3 2.281024 1_555
Gd1 O1 2.354508 1_555
Gd1 O2 2.417878 1_556
Gd1 O4 2.464667 1_555
Gd1 O5 2.508364 1_556
Gd1 O6 2.874486 1_556
O0 S0 1.511768 1_555
O1 S0 1.576710 1_555
O2 S0 1.574851 1_555
O3 S1 1.510577 1_455
O4 S1 1.565932 1_555
O5 S1 1.561832 1_554
O6 S2 1.432695 1_555
O7 S2 1.433305 1_556
O8 S2 1.439749 1_545
O10 O11 1.462119 1_555
O11 O9 1.476744 1_655
