# generated using pymatgen
data_Y5Sb3F
_symmetry_space_group_name_H-M   'P 1'
_cell_length_a   9.02305625
_cell_length_b   9.02305625
_cell_length_c   6.28135600
_cell_angle_alpha   90.00000000
_cell_angle_beta   90.00000000
_cell_angle_gamma   120.00000180
_symmetry_Int_Tables_number   1
_chemical_formula_structural   Y5Sb3F
_chemical_formula_sum   'Y10 Sb6 F2'
_cell_volume   442.88539724
_cell_formula_units_Z   2
loop_
 _symmetry_equiv_pos_site_id
 _symmetry_equiv_pos_as_xyz
  1  'x, y, z'
loop_
 _atom_site_type_symbol
 _atom_site_label
 _atom_site_symmetry_multiplicity
 _atom_site_fract_x
 _atom_site_fract_y
 _atom_site_fract_z
 _atom_site_occupancy
  Y  Y0  1  0.25804500  0.00000000  0.25000000  1
  Y  Y1  1  0.74195500  0.00000000  0.75000000  1
  Y  Y2  1  0.00000000  0.25804500  0.25000000  1
  Y  Y3  1  0.00000000  0.74195500  0.75000000  1
  Y  Y4  1  0.74195500  0.74195500  0.25000000  1
  Y  Y5  1  0.25804500  0.25804500  0.75000000  1
  Y  Y6  1  0.33333300  0.66666700  0.00000000  1
  Y  Y7  1  0.66666700  0.33333300  0.00000000  1
  Y  Y8  1  0.66666700  0.33333300  0.50000000  1
  Y  Y9  1  0.33333300  0.66666700  0.50000000  1
  Sb  Sb0  1  0.61516200  0.00000000  0.25000000  1
  Sb  Sb1  1  0.38483800  0.00000000  0.75000000  1
  Sb  Sb2  1  0.00000000  0.61516200  0.25000000  1
  Sb  Sb3  1  0.00000000  0.38483800  0.75000000  1
  Sb  Sb4  1  0.38483800  0.38483800  0.25000000  1
  Sb  Sb5  1  0.61516200  0.61516200  0.75000000  1
  F  F0  1  0.00000000  0.00000000  0.00000000  1
  F  F1  1  0.00000000  0.00000000  0.50000000  1
loop_
_geom_bond_atom_site_label_1
_geom_bond_atom_site_label_2
_geom_bond_distance
_geom_bond_site_symmetry_2
Sb0 Y2 3.064945 1_655
Sb0 Y4 3.064945 1_545
Sb0 Y7 3.214083 1_555
Sb0 Y8 3.214083 1_555
Sb0 Y9 3.214085 1_545
Sb0 Y6 3.214085 1_545
Sb0 Y0 3.222287 1_555
Sb0 Y1 3.342564 1_555
Sb0 Y1 3.342564 1_554
Sb1 Y3 3.064945 1_545
Sb1 Y5 3.064945 1_555
Sb1 Y9 3.214083 1_545
Sb1 Y6 3.214083 1_546
Sb1 Y7 3.214085 1_556
Sb1 Y8 3.214085 1_555
Sb1 Y1 3.222287 1_555
Sb1 Y0 3.342564 1_556
Sb1 Y0 3.342564 1_555
Sb2 Y0 3.064945 1_565
Sb2 Y4 3.064945 1_455
Sb2 Y9 3.214083 1_555
Sb2 Y6 3.214083 1_555
Sb2 Y8 3.214085 1_455
Sb2 Y7 3.214085 1_455
Sb2 Y2 3.222287 1_555
Sb2 Y3 3.342564 1_554
Sb2 Y3 3.342564 1_555
Sb3 Y1 3.064945 1_455
Sb3 Y5 3.064945 1_555
Sb3 Y8 3.214083 1_455
Sb3 Y7 3.214083 1_456
Sb3 Y6 3.214085 1_556
Sb3 Y9 3.214085 1_555
Sb3 Y3 3.222287 1_555
Sb3 Y2 3.342564 1_556
Sb3 Y2 3.342564 1_555
Sb4 Y2 3.064945 1_555
Sb4 Y0 3.064945 1_555
Sb4 Y7 3.214090 1_555
Sb4 Y8 3.214090 1_555
Sb4 Y9 3.214090 1_555
Sb4 Y6 3.214090 1_555
Sb4 Y4 3.222287 1_555
Sb4 Y5 3.342564 1_555
Sb4 Y5 3.342564 1_554
Sb5 Y3 3.064945 1_655
Sb5 Y1 3.064945 1_565
Sb5 Y8 3.214090 1_555
Sb5 Y9 3.214090 1_555
Sb5 Y7 3.214090 1_556
Sb5 Y6 3.214090 1_556
Sb5 Y5 3.222287 1_555
Sb5 Y4 3.342564 1_556
Sb5 Y4 3.342564 1_555
F0 Y5 2.808416 1_554
F0 Y4 2.808416 1_445
F0 Y0 2.808416 1_555
F0 Y2 2.808416 1_555
F0 Y3 2.808416 1_544
F0 Y1 2.808416 1_454
F1 Y5 2.808416 1_555
F1 Y4 2.808416 1_445
F1 Y0 2.808416 1_555
F1 Y2 2.808416 1_555
F1 Y3 2.808416 1_545
F1 Y1 2.808416 1_455
