# generated using pymatgen
data_CeGaCu4
_symmetry_space_group_name_H-M   'P 1'
_cell_length_a   5.23829874
_cell_length_b   5.23829874
_cell_length_c   4.06024800
_cell_angle_alpha   90.00000000
_cell_angle_beta   90.00000000
_cell_angle_gamma   120.00000940
_symmetry_Int_Tables_number   1
_chemical_formula_structural   CeGaCu4
_chemical_formula_sum   'Ce1 Ga1 Cu4'
_cell_volume   96.48586120
_cell_formula_units_Z   1
loop_
 _symmetry_equiv_pos_site_id
 _symmetry_equiv_pos_as_xyz
  1  'x, y, z'
loop_
 _atom_site_type_symbol
 _atom_site_label
 _atom_site_symmetry_multiplicity
 _atom_site_fract_x
 _atom_site_fract_y
 _atom_site_fract_z
 _atom_site_occupancy
  Ce  Ce0  1  0.33333300  0.66666700  0.00000000  1
  Ga  Ga0  1  0.66666700  0.33333300  0.00000000  1
  Cu  Cu0  1  0.00000000  0.00000000  0.00000000  1
  Cu  Cu1  1  0.32979300  0.16489700  0.50000000  1
  Cu  Cu2  1  0.83510300  0.16489700  0.50000000  1
  Cu  Cu3  1  0.83510300  0.67020700  0.50000000  1
loop_
_geom_bond_atom_site_label_1
_geom_bond_atom_site_label_2
_geom_bond_distance
_geom_bond_site_symmetry_2
Ce0 Ga0 3.024330 1_455
Ce0 Ga0 3.024330 1_565
Ce0 Cu0 3.024330 1_565
Ce0 Cu0 3.024334 1_555
Ce0 Cu0 3.024334 1_665
Ce0 Ga0 3.024339 1_555
Ce0 Cu2 3.313850 1_565
Ce0 Cu2 3.313850 1_564
Ce0 Cu2 3.313850 1_455
Ce0 Cu2 3.313850 1_454
Ce0 Cu3 3.313850 1_555
Ce0 Cu3 3.313850 1_554
Ce0 Cu1 3.313850 1_555
Ce0 Cu1 3.313850 1_554
Ce0 Cu1 3.313850 1_565
Ce0 Cu1 3.313850 1_564
Ce0 Cu3 3.313850 1_454
Ce0 Cu3 3.313850 1_455
Cu0 Cu1 2.521852 1_554
Cu0 Cu3 2.521852 1_445
Cu0 Cu3 2.521852 1_444
Cu0 Cu1 2.521852 1_555
Cu0 Cu2 2.521854 1_455
Cu0 Cu2 2.521854 1_454
Cu0 Ga0 3.024330 1_455
Cu0 Ga0 3.024334 1_445
Cu0 Ga0 3.024334 1_555
Cu1 Ga0 2.541040 1_556
Cu1 Ga0 2.541040 1_555
Cu1 Cu3 2.591334 1_445
Cu1 Cu2 2.591334 1_455
Cu1 Cu3 2.646964 1_555
Cu1 Cu2 2.646965 1_555
Cu2 Ga0 2.541035 1_555
Cu2 Ga0 2.541035 1_556
Cu2 Cu3 2.591334 1_545
Cu2 Cu3 2.646965 1_555
Cu3 Ga0 2.541040 1_556
Cu3 Ga0 2.541040 1_555
