# generated using pymatgen
data_Mg4Si3
_symmetry_space_group_name_H-M   'P 1'
_cell_length_a   6.78386500
_cell_length_b   6.82498882
_cell_length_c   7.42641623
_cell_angle_alpha   64.49091129
_cell_angle_beta   66.66495428
_cell_angle_gamma   77.07744789
_symmetry_Int_Tables_number   1
_chemical_formula_structural   Mg4Si3
_chemical_formula_sum   'Mg8 Si6'
_cell_volume   284.35538043
_cell_formula_units_Z   2
loop_
 _symmetry_equiv_pos_site_id
 _symmetry_equiv_pos_as_xyz
  1  'x, y, z'
loop_
 _atom_site_type_symbol
 _atom_site_label
 _atom_site_symmetry_multiplicity
 _atom_site_fract_x
 _atom_site_fract_y
 _atom_site_fract_z
 _atom_site_occupancy
  Mg  Mg0  1  0.81992400  0.68418800  0.45478100  1
  Mg  Mg1  1  0.64788900  0.80335500  0.00171300  1
  Mg  Mg2  1  0.21224300  0.45666100  0.17939900  1
  Mg  Mg3  1  0.48705400  0.10869100  0.46035500  1
  Mg  Mg4  1  0.14956100  0.75889400  0.62897600  1
  Mg  Mg5  1  0.46813700  0.33082600  0.74159700  1
  Mg  Mg6  1  0.74229300  0.35003900  0.96475800  1
  Mg  Mg7  1  0.14256600  0.97244500  0.95449900  1
  Si  Si0  1  0.88374100  0.12855500  0.67957100  1
  Si  Si1  1  0.76747000  0.42942300  0.28201300  1
  Si  Si2  1  0.36212100  0.05704400  0.17839200  1
  Si  Si3  1  0.46221700  0.71032000  0.78561000  1
  Si  Si4  1  0.13190000  0.37433200  0.60675600  1
  Si  Si5  1  0.97292400  0.08535700  0.33148000  1
loop_
_geom_bond_atom_site_label_1
_geom_bond_atom_site_label_2
_geom_bond_distance
_geom_bond_site_symmetry_2
Mg0 Si1 2.712211 1_555
Mg0 Si3 2.723473 1_555
Mg0 Si5 2.787651 1_565
Mg0 Si4 2.838999 1_655
Mg1 Si2 2.630201 1_565
Mg1 Si0 2.681791 1_564
Mg1 Si1 2.709332 1_555
Mg1 Si3 2.720691 1_554
Mg2 Si2 2.691410 1_555
Mg2 Si3 2.729250 1_554
Mg2 Si4 2.813537 1_555
Mg2 Si1 2.833118 1_455
Mg2 Si5 2.873261 1_455
Mg3 Si2 2.720769 1_555
Mg3 Si3 2.735169 1_545
Mg3 Si1 2.744813 1_555
Mg3 Si4 2.818282 1_555
Mg3 Si5 3.033622 1_555
Mg4 Si3 2.696228 1_555
Mg4 Si4 2.731230 1_555
Mg4 Si5 2.818639 1_465
Mg4 Si0 2.828966 1_465
Mg4 Si2 3.007036 1_565
Mg5 Si3 2.736606 1_555
Mg5 Si4 2.746696 1_555
Mg5 Si0 2.800891 1_555
Mg5 Si2 2.839609 1_556
Mg5 Si1 3.060668 1_555
Mg6 Si1 2.708028 1_556
Mg6 Si0 2.861829 1_555
Mg6 Si4 2.886373 1_655
Mg6 Si3 2.919171 1_555
Mg6 Si2 3.082183 1_556
Mg7 Si3 2.742035 1_555
Mg7 Si4 2.855883 1_565
Mg7 Si2 2.913740 1_566
Mg7 Si0 2.918296 1_465
Mg7 Si5 2.943684 1_466
Si0 Si4 2.387644 1_655
Si0 Si5 2.544246 1_555
Si1 Si5 2.406359 1_555
Si2 Si5 2.425671 1_455
