# generated using pymatgen
data_Ge
_symmetry_space_group_name_H-M   'P 1'
_cell_length_a   6.03475995
_cell_length_b   6.03475995
_cell_length_c   6.03475995
_cell_angle_alpha   109.47122063
_cell_angle_beta   109.47122063
_cell_angle_gamma   109.47122063
_symmetry_Int_Tables_number   1
_chemical_formula_structural   Ge
_chemical_formula_sum   Ge8
_cell_volume   169.18353966
_cell_formula_units_Z   8
loop_
 _symmetry_equiv_pos_site_id
 _symmetry_equiv_pos_as_xyz
  1  'x, y, z'
loop_
 _atom_site_type_symbol
 _atom_site_label
 _atom_site_symmetry_multiplicity
 _atom_site_fract_x
 _atom_site_fract_y
 _atom_site_fract_z
 _atom_site_occupancy
  Ge  Ge0  1  -0.00000000  0.50000000  0.29889908  1
  Ge  Ge1  1  0.29889908  -0.00000000  0.50000000  1
  Ge  Ge2  1  0.50000000  0.29889908  -0.00000000  1
  Ge  Ge3  1  0.20110092  0.20110092  0.20110092  1
  Ge  Ge4  1  0.00000000  0.50000000  0.70110092  1
  Ge  Ge5  1  0.70110092  -0.00000000  0.50000000  1
  Ge  Ge6  1  0.50000000  0.70110092  -0.00000000  1
  Ge  Ge7  1  0.79889908  0.79889908  0.79889908  1
loop_
_geom_bond_atom_site_label_1
_geom_bond_atom_site_label_2
_geom_bond_distance
_geom_bond_site_symmetry_2
Ge0 Ge4 2.427192 1_555
Ge0 Ge1 2.510366 1_565
Ge0 Ge2 2.510366 1_455
Ge0 Ge3 2.510366 1_555
Ge1 Ge5 2.427192 1_555
Ge1 Ge3 2.510366 1_555
Ge1 Ge2 2.510366 1_556
Ge2 Ge6 2.427192 1_555
Ge2 Ge3 2.510366 1_555
Ge3 Ge7 2.427192 1_444
Ge4 Ge5 2.510366 1_455
Ge4 Ge6 2.510366 1_556
Ge4 Ge7 2.510366 1_455
Ge5 Ge7 2.510366 1_545
Ge5 Ge6 2.510366 1_545
Ge6 Ge7 2.510366 1_554
