# generated using pymatgen
data_PrAs2Au
_symmetry_space_group_name_H-M   'P 1'
_cell_length_a   5.85926100
_cell_length_b   5.85406700
_cell_length_c   20.93322900
_cell_angle_alpha   90.00000000
_cell_angle_beta   90.00235312
_cell_angle_gamma   90.00000000
_symmetry_Int_Tables_number   1
_chemical_formula_structural   PrAs2Au
_chemical_formula_sum   'Pr8 As16 Au8'
_cell_volume   718.02035633
_cell_formula_units_Z   8
loop_
 _symmetry_equiv_pos_site_id
 _symmetry_equiv_pos_as_xyz
  1  'x, y, z'
loop_
 _atom_site_type_symbol
 _atom_site_label
 _atom_site_symmetry_multiplicity
 _atom_site_fract_x
 _atom_site_fract_y
 _atom_site_fract_z
 _atom_site_occupancy
  Pr  Pr0  1  0.25001300  0.51418600  0.61797000  1
  Pr  Pr1  1  0.74998500  0.48581500  0.38203000  1
  Pr  Pr2  1  0.74998500  0.51418600  0.88203000  1
  Pr  Pr3  1  0.25001300  0.48581500  0.11797000  1
  Pr  Pr4  1  0.25001900  0.01435700  0.88182500  1
  Pr  Pr5  1  0.74997900  0.98564400  0.11817500  1
  Pr  Pr6  1  0.74997900  0.01435700  0.61817600  1
  Pr  Pr7  1  0.25001900  0.98564400  0.38182400  1
  As  As0  1  0.52984100  0.24740300  0.00015100  1
  As  As1  1  0.02991400  0.75265200  0.99985100  1
  As  As2  1  0.47015800  0.24740300  0.49984900  1
  As  As3  1  0.97008800  0.75265200  0.50014900  1
  As  As4  1  0.47015800  0.75259600  0.99984900  1
  As  As5  1  0.97008800  0.24734700  0.00014900  1
  As  As6  1  0.52984100  0.75259600  0.50015100  1
  As  As7  1  0.02991400  0.24734700  0.49985100  1
  As  As8  1  0.25000800  0.01427000  0.65974000  1
  As  As9  1  0.74999000  0.98573000  0.34026100  1
  As  As10  1  0.74999000  0.01427000  0.84026000  1
  As  As11  1  0.25000800  0.98573000  0.15974000  1
  As  As12  1  0.25000000  0.51422100  0.84041500  1
  As  As13  1  0.74999800  0.48577800  0.15958500  1
  As  As14  1  0.74999800  0.51422100  0.65958500  1
  As  As15  1  0.25000000  0.48577800  0.34041500  1
  Au  Au0  1  0.50000000  0.23067800  0.25000000  1
  Au  Au1  1  0.00000000  0.76931300  0.75000000  1
  Au  Au2  1  0.50000000  0.76932300  0.75000000  1
  Au  Au3  1  0.00000000  0.23068800  0.25000000  1
  Au  Au4  1  0.50000000  0.73049700  0.25000000  1
  Au  Au5  1  0.00000000  0.26949900  0.75000000  1
  Au  Au6  1  0.50000000  0.26950300  0.75000000  1
  Au  Au7  1  0.00000000  0.73050100  0.25000000  1
loop_
_geom_bond_atom_site_label_1
_geom_bond_atom_site_label_2
_geom_bond_distance
_geom_bond_site_symmetry_2
As0 As5 2.579522 1_555
As0 As4 2.917673 1_544
As0 As4 2.978043 1_554
As0 Pr5 3.180492 1_545
As0 Pr2 3.196433 1_554
As0 Pr4 3.268681 1_554
As0 Pr3 3.274032 1_555
As1 As4 2.579505 1_555
As1 As5 2.917122 1_466
As1 As5 2.978793 1_456
As1 Pr4 3.180377 1_565
As1 Pr3 3.196367 1_556
As1 Pr5 3.268951 1_456
As1 Pr2 3.274394 1_455
As2 As7 2.579505 1_555
As2 As6 2.917673 1_545
As2 As6 2.978043 1_555
As2 Pr7 3.180511 1_545
As2 Pr0 3.196435 1_555
As2 Pr6 3.268694 1_555
As2 Pr1 3.274029 1_555
As3 As6 2.579522 1_555
As3 As7 2.917122 1_665
As3 As7 2.978793 1_655
As3 Pr6 3.180402 1_565
As3 Pr1 3.196376 1_555
As3 Pr7 3.268955 1_655
As3 Pr0 3.274382 1_655
As4 Pr4 3.180500 1_565
As4 Pr3 3.196430 1_556
As4 Pr5 3.268683 1_556
As4 Pr2 3.274024 1_555
As5 Pr5 3.180380 1_545
As5 Pr2 3.196382 1_554
As5 Pr4 3.268935 1_654
As5 Pr3 3.274387 1_655
As6 Pr6 3.180514 1_565
As6 Pr1 3.196427 1_555
As6 Pr7 3.268701 1_555
As6 Pr0 3.274027 1_555
As7 Pr7 3.180387 1_545
As7 Pr0 3.196373 1_555
As7 Pr6 3.268962 1_455
As7 Pr1 3.274399 1_455
As8 Au2 2.787732 1_545
As8 Au1 2.787893 1_545
As8 Au6 2.819178 1_555
As8 Au5 2.819295 1_555
As8 Pr0 3.054372 1_555
As8 Pr0 3.055314 1_545
As8 Pr6 3.055973 1_555
As8 Pr6 3.056230 1_455
As9 Au0 2.787743 1_565
As9 Au3 2.787916 1_665
As9 Au4 2.819186 1_555
As9 Au7 2.819315 1_655
As9 Pr1 3.054360 1_555
As9 Pr1 3.055314 1_565
As9 Pr7 3.055967 1_555
As9 Pr7 3.056224 1_655
As10 Au2 2.787726 1_545
As10 Au1 2.787899 1_645
As10 Au6 2.819172 1_555
As10 Au5 2.819301 1_655
As10 Pr2 3.054372 1_555
As10 Pr2 3.055314 1_545
As10 Pr4 3.055979 1_555
As10 Pr4 3.056236 1_655
As11 Au0 2.787735 1_565
As11 Au3 2.787896 1_565
As11 Au4 2.819178 1_555
As11 Au7 2.819295 1_555
As11 Pr3 3.054366 1_555
As11 Pr3 3.055320 1_565
As11 Pr5 3.055979 1_555
As11 Pr5 3.056236 1_455
As12 Au5 2.789280 1_555
As12 Au6 2.789350 1_555
As12 Au1 2.820941 1_555
As12 Au2 2.821053 1_555
As12 Pr4 3.051931 1_555
As12 Pr4 3.053458 1_565
As12 Pr2 3.056287 1_555
As12 Pr2 3.056524 1_455
As13 Au7 2.789289 1_655
As13 Au4 2.789346 1_555
As13 Au3 2.820941 1_655
As13 Au0 2.821040 1_555
As13 Pr5 3.051943 1_555
As13 Pr5 3.053447 1_545
As13 Pr3 3.056287 1_555
As13 Pr3 3.056524 1_655
As14 Au5 2.789286 1_655
As14 Au6 2.789343 1_555
As14 Au1 2.820947 1_655
As14 Au2 2.821046 1_555
As14 Pr6 3.051925 1_555
As14 Pr6 3.053452 1_565
As14 Pr0 3.056287 1_555
As14 Pr0 3.056524 1_655
As15 Au7 2.789283 1_555
As15 Au4 2.789353 1_555
As15 Au3 2.820935 1_555
As15 Au0 2.821046 1_555
As15 Pr7 3.051937 1_555
As15 Pr7 3.053441 1_545
As15 Pr1 3.056287 1_555
As15 Pr1 3.056524 1_455
Au0 Au4 2.925974 1_555
Au0 Au4 2.928093 1_545
Au0 Au3 2.929631 1_555
Au0 Au3 2.929631 1_655
Au0 Pr7 3.437757 1_545
Au0 Pr5 3.437769 1_545
Au0 Pr1 3.466204 1_555
Au0 Pr3 3.466209 1_555
Au1 Au5 2.925945 1_555
Au1 Au5 2.928122 1_565
Au1 Au2 2.929631 1_555
Au1 Au2 2.929631 1_455
Au1 Pr6 3.437785 1_465
Au1 Pr4 3.437797 1_565
Au1 Pr0 3.466344 1_555
Au1 Pr2 3.466349 1_455
Au2 Au6 2.925980 1_555
Au2 Au6 2.928087 1_565
Au2 Pr6 3.437752 1_565
Au2 Pr4 3.437774 1_565
Au2 Pr2 3.466204 1_555
Au2 Pr0 3.466209 1_555
Au3 Au7 2.925939 1_555
Au3 Au7 2.928128 1_545
Au3 Pr7 3.437780 1_545
Au3 Pr5 3.437802 1_445
Au3 Pr3 3.466344 1_555
Au3 Pr1 3.466349 1_455
Au4 Au7 2.929631 1_555
Au4 Au7 2.929631 1_655
Au4 Pr1 3.440275 1_555
Au4 Pr3 3.440280 1_555
Au4 Pr7 3.462878 1_555
Au4 Pr5 3.462890 1_555
Au5 Au6 2.929631 1_455
Au5 Au6 2.929631 1_555
Au5 Pr0 3.440453 1_555
Au5 Pr2 3.440458 1_455
Au5 Pr6 3.462869 1_455
Au5 Pr4 3.462880 1_555
Au6 Pr2 3.440277 1_555
Au6 Pr0 3.440282 1_555
Au6 Pr6 3.462871 1_555
Au6 Pr4 3.462892 1_555
Au7 Pr3 3.440451 1_555
Au7 Pr1 3.440456 1_455
Au7 Pr7 3.462866 1_555
Au7 Pr5 3.462888 1_455
