# generated using pymatgen
data_NaAlSiO4
_symmetry_space_group_name_H-M   'P 1'
_cell_length_a   9.28339097
_cell_length_b   9.28339097
_cell_length_c   9.28339086
_cell_angle_alpha   90.20205746
_cell_angle_beta   90.20205746
_cell_angle_gamma   90.20205214
_symmetry_Int_Tables_number   1
_chemical_formula_structural   NaAlSiO4
_chemical_formula_sum   'Na6 Al6 Si6 O24'
_cell_volume   800.04017703
_cell_formula_units_Z   6
loop_
 _symmetry_equiv_pos_site_id
 _symmetry_equiv_pos_as_xyz
  1  'x, y, z'
loop_
 _atom_site_type_symbol
 _atom_site_label
 _atom_site_symmetry_multiplicity
 _atom_site_fract_x
 _atom_site_fract_y
 _atom_site_fract_z
 _atom_site_occupancy
  Na  Na0  1  0.25881400  0.73898100  0.25478700  1
  Na  Na1  1  0.73898100  0.25478700  0.25881400  1
  Na  Na2  1  0.25478700  0.25881400  0.73898100  1
  Na  Na3  1  0.23898100  0.75881400  0.75478700  1
  Na  Na4  1  0.75478700  0.23898100  0.75881400  1
  Na  Na5  1  0.75881400  0.75478700  0.23898100  1
  Al  Al0  1  0.50458400  0.75149900  0.99523700  1
  Al  Al1  1  0.99523700  0.50458400  0.75149900  1
  Al  Al2  1  0.75149900  0.99523700  0.50458400  1
  Al  Al3  1  0.00458400  0.49523700  0.25149900  1
  Al  Al4  1  0.25149900  0.00458400  0.49523700  1
  Al  Al5  1  0.49523700  0.25149900  0.00458400  1
  Si  Si0  1  0.00329900  0.75016700  0.49789800  1
  Si  Si1  1  0.49789800  0.00329900  0.75016700  1
  Si  Si2  1  0.75016700  0.49789800  0.00329900  1
  Si  Si3  1  0.50329900  0.99789800  0.25016700  1
  Si  Si4  1  0.25016700  0.50329900  0.99789800  1
  Si  Si5  1  0.99789800  0.25016700  0.50329900  1
  O  O0  1  0.65788000  0.64458600  0.99169400  1
  O  O1  1  0.99169400  0.65788000  0.64458600  1
  O  O2  1  0.64458600  0.99169400  0.65788000  1
  O  O3  1  0.34587200  0.65119700  0.01454800  1
  O  O4  1  0.02649400  0.65478300  0.35079800  1
  O  O5  1  0.35754600  0.96997500  0.34436100  1
  O  O6  1  0.65478300  0.35079800  0.02649400  1
  O  O7  1  0.96997500  0.34436100  0.35754600  1
  O  O8  1  0.65119700  0.01454800  0.34587200  1
  O  O9  1  0.34436100  0.35754600  0.96997500  1
  O  O10  1  0.01454800  0.34587200  0.65119700  1
  O  O11  1  0.35079800  0.02649400  0.65478300  1
  O  O12  1  0.15478300  0.52649400  0.85079800  1
  O  O13  1  0.46997500  0.85754600  0.84436100  1
  O  O14  1  0.15119700  0.84587200  0.51454800  1
  O  O15  1  0.84436100  0.46997500  0.85754600  1
  O  O16  1  0.51454800  0.15119700  0.84587200  1
  O  O17  1  0.85079800  0.15478300  0.52649400  1
  O  O18  1  0.15788000  0.49169400  0.14458600  1
  O  O19  1  0.49169400  0.14458600  0.15788000  1
  O  O20  1  0.14458600  0.15788000  0.49169400  1
  O  O21  1  0.84587200  0.51454800  0.15119700  1
  O  O22  1  0.52649400  0.85079800  0.15478300  1
  O  O23  1  0.85754600  0.84436100  0.46997500  1
loop_
_geom_bond_atom_site_label_1
_geom_bond_atom_site_label_2
_geom_bond_distance
_geom_bond_site_symmetry_2
Na0 O4 2.462399 1_555
Na0 O5 2.469462 1_555
Na0 O3 2.509137 1_555
Na0 O18 2.675100 1_555
Na0 O14 2.793751 1_555
Na0 O22 2.849457 1_555
Na1 O6 2.462399 1_555
Na1 O7 2.469462 1_555
Na1 O8 2.509137 1_555
Na1 O19 2.675100 1_555
Na1 O21 2.793751 1_555
Na1 O17 2.849456 1_555
Na2 O11 2.462399 1_555
Na2 O9 2.469462 1_555
Na2 O10 2.509137 1_555
Na2 O20 2.675100 1_555
Na2 O16 2.793751 1_555
Na2 O12 2.849456 1_555
Na3 O12 2.462399 1_555
Na3 O13 2.469462 1_555
Na3 O14 2.509137 1_555
Na3 O1 2.675100 1_455
Na3 O3 2.793751 1_556
Na3 O11 2.849457 1_565
Na4 O17 2.462399 1_555
Na4 O15 2.469462 1_555
Na4 O16 2.509137 1_555
Na4 O2 2.675100 1_545
Na4 O10 2.793751 1_655
Na4 O6 2.849456 1_556
Na5 O22 2.462399 1_555
Na5 O23 2.469462 1_555
Na5 O21 2.509137 1_555
Na5 O0 2.675100 1_554
Na5 O8 2.793751 1_565
Na5 O4 2.849456 1_655
Al0 O0 1.738236 1_555
Al0 O13 1.744419 1_555
Al0 O3 1.750255 1_556
Al0 O22 1.752657 1_556
Al1 O1 1.738236 1_555
Al1 O15 1.744419 1_555
Al1 O10 1.750255 1_655
Al1 O12 1.752657 1_655
Al2 O2 1.738236 1_555
Al2 O23 1.744419 1_555
Al2 O8 1.750255 1_565
Al2 O17 1.752657 1_565
Al3 O18 1.738236 1_555
Al3 O7 1.744419 1_455
Al3 O21 1.750255 1_455
Al3 O4 1.752657 1_555
Al4 O20 1.738236 1_555
Al4 O5 1.744419 1_545
Al4 O14 1.750255 1_545
Al4 O11 1.752657 1_555
Al5 O19 1.738236 1_555
Al5 O9 1.744419 1_554
Al5 O16 1.750255 1_554
Al5 O6 1.752657 1_555
O0 Si2 1.615120 1_556
O1 Si0 1.615120 1_655
O2 Si1 1.615120 1_565
O3 Si4 1.639302 1_554
O4 Si0 1.640174 1_555
O5 Si3 1.634057 1_555
O6 Si2 1.640174 1_555
O7 Si5 1.634057 1_555
O8 Si3 1.639302 1_545
O9 Si4 1.634057 1_555
O10 Si5 1.639302 1_455
O11 Si1 1.640174 1_555
O12 Si4 1.640174 1_555
O13 Si1 1.634057 1_565
O14 Si0 1.639302 1_555
O15 Si2 1.634057 1_556
O16 Si1 1.639302 1_555
O17 Si5 1.640174 1_555
O18 Si4 1.615120 1_554
O19 Si3 1.615120 1_545
O20 Si5 1.615120 1_455
O21 Si2 1.639302 1_555
O22 Si3 1.640174 1_555
O23 Si0 1.634057 1_655
