# generated using pymatgen
data_Tc3Ge
_symmetry_space_group_name_H-M   'P 1'
_cell_length_a   5.47405998
_cell_length_b   5.47405998
_cell_length_c   4.47865400
_cell_angle_alpha   90.00000000
_cell_angle_beta   90.00000000
_cell_angle_gamma   119.99999977
_symmetry_Int_Tables_number   1
_chemical_formula_structural   Tc3Ge
_chemical_formula_sum   'Tc6 Ge2'
_cell_volume   116.22438277
_cell_formula_units_Z   2
loop_
 _symmetry_equiv_pos_site_id
 _symmetry_equiv_pos_as_xyz
  1  'x, y, z'
loop_
 _atom_site_type_symbol
 _atom_site_label
 _atom_site_symmetry_multiplicity
 _atom_site_fract_x
 _atom_site_fract_y
 _atom_site_fract_z
 _atom_site_occupancy
  Tc  Tc0  1  0.16965000  0.33929900  0.25000000  1
  Tc  Tc1  1  0.66070100  0.83035000  0.25000000  1
  Tc  Tc2  1  0.16965000  0.83035000  0.25000000  1
  Tc  Tc3  1  0.83035000  0.66070100  0.75000000  1
  Tc  Tc4  1  0.33929900  0.16965000  0.75000000  1
  Tc  Tc5  1  0.83035000  0.16965000  0.75000000  1
  Ge  Ge0  1  0.33333300  0.66666700  0.75000000  1
  Ge  Ge1  1  0.66666700  0.33333300  0.25000000  1
loop_
_geom_bond_atom_site_label_1
_geom_bond_atom_site_label_2
_geom_bond_distance
_geom_bond_site_symmetry_2
Tc0 Tc2 2.688043 1_555
Tc0 Tc1 2.688043 1_555
Tc0 Tc4 2.757148 1_555
Tc0 Tc4 2.757148 1_554
Tc0 Tc5 2.757153 1_455
Tc0 Tc5 2.757153 1_454
Tc0 Tc2 2.786017 1_545
Tc0 Tc1 2.786017 1_445
Tc1 Tc2 2.688043 1_555
Tc1 Tc3 2.757148 1_554
Tc1 Tc3 2.757148 1_555
Tc1 Tc5 2.757153 1_565
Tc1 Tc5 2.757153 1_564
Tc1 Tc2 2.786017 1_655
Tc2 Tc3 2.757153 1_455
Tc2 Tc3 2.757153 1_454
Tc2 Tc4 2.757153 1_565
Tc2 Tc4 2.757153 1_564
Tc3 Tc5 2.688043 1_555
Tc3 Tc4 2.688043 1_555
Tc3 Tc5 2.786017 1_565
Tc3 Tc4 2.786017 1_665
Tc4 Tc5 2.688043 1_555
Tc4 Tc5 2.786017 1_455
Ge0 Tc2 2.724535 1_555
Ge0 Tc2 2.724535 1_556
Ge0 Tc1 2.724540 1_555
Ge0 Tc1 2.724540 1_556
Ge0 Tc0 2.724540 1_555
Ge0 Tc0 2.724540 1_556
Ge0 Tc4 2.737176 1_555
Ge0 Tc3 2.737176 1_555
Ge0 Tc3 2.737176 1_455
Ge0 Tc4 2.737176 1_565
Ge0 Tc5 2.737176 1_455
Ge0 Tc5 2.737176 1_565
Ge1 Tc5 2.724535 1_554
Ge1 Tc5 2.724535 1_555
Ge1 Tc3 2.724540 1_555
Ge1 Tc3 2.724540 1_554
Ge1 Tc4 2.724540 1_555
Ge1 Tc4 2.724540 1_554
Ge1 Tc0 2.737176 1_555
Ge1 Tc1 2.737176 1_555
Ge1 Tc1 2.737176 1_545
Ge1 Tc0 2.737176 1_655
Ge1 Tc2 2.737176 1_545
Ge1 Tc2 2.737176 1_655
