# generated using pymatgen
data_Sr4MgCr2(SO3)2
_symmetry_space_group_name_H-M   'P 1'
_cell_length_a   3.94686200
_cell_length_b   3.94686200
_cell_length_c   15.91827800
_cell_angle_alpha   90.00000000
_cell_angle_beta   90.00000000
_cell_angle_gamma   90.00000000
_symmetry_Int_Tables_number   1
_chemical_formula_structural   Sr4MgCr2(SO3)2
_chemical_formula_sum   'Sr4 Mg1 Cr2 S2 O6'
_cell_volume   247.97047195
_cell_formula_units_Z   1
loop_
 _symmetry_equiv_pos_site_id
 _symmetry_equiv_pos_as_xyz
  1  'x, y, z'
loop_
 _atom_site_type_symbol
 _atom_site_label
 _atom_site_symmetry_multiplicity
 _atom_site_fract_x
 _atom_site_fract_y
 _atom_site_fract_z
 _atom_site_occupancy
  Sr  Sr0  1  0.50000000  0.00000000  0.19128200  1
  Sr  Sr1  1  0.00000000  0.50000000  0.80871800  1
  Sr  Sr2  1  0.50000000  0.00000000  0.41436200  1
  Sr  Sr3  1  0.00000000  0.50000000  0.58563800  1
  Mg  Mg0  1  0.00000000  0.00000000  0.00000000  1
  Cr  Cr0  1  0.00000000  0.50000000  0.31051000  1
  Cr  Cr1  1  0.50000000  0.00000000  0.68949000  1
  S  S0  1  0.00000000  0.50000000  0.09666700  1
  S  S1  1  0.50000000  0.00000000  0.90333300  1
  O  O0  1  0.50000000  0.50000000  0.29257800  1
  O  O1  1  0.00000000  0.00000000  0.29169800  1
  O  O2  1  0.00000000  0.00000000  0.70830200  1
  O  O3  1  0.50000000  0.50000000  0.70742200  1
  O  O4  1  0.00000000  0.50000000  0.43138100  1
  O  O5  1  0.50000000  0.00000000  0.56861900  1
loop_
_geom_bond_atom_site_label_1
_geom_bond_atom_site_label_2
_geom_bond_distance
_geom_bond_site_symmetry_2
Mg0 S1 2.502449 1_554
Mg0 S1 2.502449 1_454
Mg0 S0 2.502449 1_545
Mg0 S0 2.502449 1_555
Cr0 O4 1.924058 1_555
Cr0 O0 1.993968 1_555
Cr0 O0 1.993968 1_455
Cr0 O1 1.996022 1_555
Cr0 O1 1.996022 1_565
Cr1 O5 1.924058 1_555
Cr1 O3 1.993968 1_555
Cr1 O3 1.993968 1_545
Cr1 O2 1.996022 1_555
Cr1 O2 1.996022 1_655
S0 Sr0 3.171312 1_455
S0 Sr0 3.171312 1_465
S0 Sr0 3.171312 1_555
S0 Sr0 3.171312 1_565
S1 Sr1 3.171312 1_545
S1 Sr1 3.171312 1_645
S1 Sr1 3.171312 1_655
S1 Sr1 3.171312 1_555
O0 Sr0 2.548421 1_565
O0 Sr0 2.548421 1_555
O0 Sr2 2.766327 1_555
O0 Sr2 2.766327 1_565
O1 Sr0 2.539581 1_555
O1 Sr0 2.539581 1_455
O1 Sr2 2.776162 1_455
O1 Sr2 2.776162 1_555
O2 Sr1 2.539581 1_555
O2 Sr1 2.539581 1_545
O2 Sr3 2.776162 1_545
O2 Sr3 2.776162 1_555
O3 Sr1 2.548421 1_655
O3 Sr1 2.548421 1_555
O3 Sr3 2.766327 1_555
O3 Sr3 2.766327 1_655
O4 Sr3 2.455506 1_555
O4 Sr2 2.803971 1_465
O4 Sr2 2.803971 1_455
O4 Sr2 2.803971 1_565
O4 Sr2 2.803971 1_555
O5 Sr2 2.455506 1_555
O5 Sr3 2.803971 1_655
O5 Sr3 2.803971 1_545
O5 Sr3 2.803971 1_645
O5 Sr3 2.803971 1_555
