# generated using pymatgen
data_LaBrO2
_symmetry_space_group_name_H-M   'P 1'
_cell_length_a   4.48366500
_cell_length_b   5.25668100
_cell_length_c   6.88140903
_cell_angle_alpha   73.40347972
_cell_angle_beta   90.00000000
_cell_angle_gamma   90.00000000
_symmetry_Int_Tables_number   1
_chemical_formula_structural   LaBrO2
_chemical_formula_sum   'La2 Br2 O4'
_cell_volume   155.43246443
_cell_formula_units_Z   2
loop_
 _symmetry_equiv_pos_site_id
 _symmetry_equiv_pos_as_xyz
  1  'x, y, z'
loop_
 _atom_site_type_symbol
 _atom_site_label
 _atom_site_symmetry_multiplicity
 _atom_site_fract_x
 _atom_site_fract_y
 _atom_site_fract_z
 _atom_site_occupancy
  La  La0  1  0.25000000  0.19265600  0.65445400  1
  La  La1  1  0.75000000  0.80734400  0.34554600  1
  Br  Br0  1  0.25000000  0.21814000  0.09922000  1
  Br  Br1  1  0.75000000  0.78186000  0.90078000  1
  O  O0  1  0.25000000  0.75205700  0.54434700  1
  O  O1  1  0.75000000  0.24794300  0.45565300  1
  O  O2  1  0.25000000  0.61760400  0.38158800  1
  O  O3  1  0.75000000  0.38239600  0.61841200  1
loop_
_geom_bond_atom_site_label_1
_geom_bond_atom_site_label_2
_geom_bond_distance
_geom_bond_site_symmetry_2
La0 O3 2.437380 1_555
La0 O3 2.437380 1_455
La0 O2 2.473779 1_555
La0 O1 2.598973 1_555
La0 O1 2.598973 1_455
La0 O0 2.634550 1_545
La0 O0 2.819287 1_555
La1 O2 2.437380 1_655
La1 O2 2.437380 1_555
La1 O3 2.473779 1_555
La1 O0 2.598973 1_555
La1 O0 2.598973 1_655
La1 O1 2.634550 1_565
La1 O1 2.819287 1_555
Br0 La0 3.101538 1_554
Br0 La1 3.235917 1_545
Br0 La1 3.235917 1_445
Br1 La1 3.101538 1_556
Br1 La0 3.235917 1_665
Br1 La0 3.235917 1_565
O0 O2 1.485317 1_555
O1 O3 1.485317 1_555
