# generated using pymatgen
data_CaMn8O13F3
_symmetry_space_group_name_H-M   'P 1'
_cell_length_a   7.32310211
_cell_length_b   5.71661951
_cell_length_c   6.91593942
_cell_angle_alpha   93.04864270
_cell_angle_beta   92.31347048
_cell_angle_gamma   82.90079682
_symmetry_Int_Tables_number   1
_chemical_formula_structural   CaMn8O13F3
_chemical_formula_sum   'Ca1 Mn8 O13 F3'
_cell_volume   286.73156782
_cell_formula_units_Z   1
loop_
 _symmetry_equiv_pos_site_id
 _symmetry_equiv_pos_as_xyz
  1  'x, y, z'
loop_
 _atom_site_type_symbol
 _atom_site_label
 _atom_site_symmetry_multiplicity
 _atom_site_fract_x
 _atom_site_fract_y
 _atom_site_fract_z
 _atom_site_occupancy
  Ca  Ca0  1  0.68028400  0.03209300  0.79614900  1
  Mn  Mn0  1  0.36519000  0.33513200  0.10749600  1
  Mn  Mn1  1  0.11774000  0.70313500  0.37303700  1
  Mn  Mn2  1  0.87522700  0.17406300  0.16758400  1
  Mn  Mn3  1  0.32996000  0.14152300  0.60235400  1
  Mn  Mn4  1  0.16492100  0.86996000  0.89097300  1
  Mn  Mn5  1  0.57979600  0.84830600  0.33264700  1
  Mn  Mn6  1  0.58839400  0.58313400  0.88137200  1
  Mn  Mn7  1  0.93358700  0.43820500  0.69726500  1
  O  O0  1  0.16968200  0.12442100  0.08326900  1
  O  O1  1  0.18223400  0.62047900  0.09094000  1
  O  O2  1  0.55237400  0.57086300  0.15448000  1
  O  O3  1  0.10499500  0.66026400  0.65588300  1
  O  O4  1  0.31357800  0.88362800  0.40898800  1
  O  O5  1  0.09293700  0.13701300  0.70111500  1
  O  O6  1  0.59825900  0.08543800  0.13648900  1
  O  O7  1  0.40824400  0.84800000  0.82464200  1
  O  O8  1  0.57475400  0.10804000  0.51018800  1
  O  O9  1  0.90554900  0.91984900  0.34266000  1
  O  O10  1  0.41797400  0.32801100  0.83812200  1
  O  O11  1  0.70896800  0.63915800  0.64911600  1
  O  O12  1  0.80882400  0.35687400  0.92447200  1
  F  F0  1  0.30178400  0.39954000  0.38471200  1
  F  F1  1  0.94284200  0.43466900  0.36718600  1
  F  F2  1  0.91190600  0.86534200  0.95886100  1
loop_
_geom_bond_atom_site_label_1
_geom_bond_atom_site_label_2
_geom_bond_distance
_geom_bond_site_symmetry_2
Ca0 O8 2.140558 1_555
Ca0 F2 2.147653 1_545
Ca0 O12 2.304366 1_555
Ca0 O7 2.384762 1_545
Ca0 O11 2.404473 1_545
Ca0 O10 2.413601 1_555
Ca0 O6 2.446746 1_556
Mn0 O10 1.915183 1_554
Mn0 O0 1.978460 1_555
Mn0 O1 1.984022 1_555
Mn0 O2 2.043190 1_555
Mn0 O6 2.095577 1_555
Mn1 O4 1.868930 1_555
Mn1 O9 1.875908 1_455
Mn1 O3 1.991649 1_555
Mn1 O1 2.042981 1_555
Mn2 O9 1.926914 1_545
Mn2 O12 2.037358 1_554
Mn2 O6 2.150343 1_555
Mn2 O0 2.236728 1_655
Mn3 O5 1.894371 1_555
Mn3 O8 1.910757 1_555
Mn3 O4 1.948682 1_545
Mn3 O10 2.027502 1_555
Mn3 O7 2.339454 1_545
Mn4 O7 1.845501 1_555
Mn4 O0 1.920655 1_566
Mn4 O1 2.028203 1_556
Mn4 O3 2.034245 1_555
Mn4 O5 2.071479 1_565
Mn5 O8 1.873454 1_565
Mn5 O2 1.981163 1_555
Mn5 O6 1.987976 1_565
Mn5 O4 2.023535 1_555
Mn5 O9 2.467303 1_555
Mn5 O11 2.635579 1_555
Mn6 O2 1.923785 1_556
Mn6 O11 1.923912 1_555
Mn6 O7 1.927341 1_555
Mn6 O12 1.963076 1_555
Mn6 O10 2.036513 1_555
Mn7 O11 1.914598 1_555
Mn7 O3 1.931445 1_655
Mn7 O12 1.954145 1_555
Mn7 O5 1.957749 1_655
F0 Mn0 1.995341 1_555
F0 Mn1 2.064716 1_555
F0 Mn3 2.149333 1_555
F1 Mn2 2.068487 1_555
F1 Mn1 2.114830 1_655
F1 Mn7 2.285487 1_555
F2 Mn4 1.933351 1_655
F2 Mn2 2.216687 1_566
