# generated using pymatgen
data_InNi3
_symmetry_space_group_name_H-M   'P 1'
_cell_length_a   5.63129093
_cell_length_b   5.63129093
_cell_length_c   16.33558544
_cell_angle_alpha   90.00000000
_cell_angle_beta   80.07478564
_cell_angle_gamma   120.00000000
_symmetry_Int_Tables_number   1
_chemical_formula_structural   InNi3
_chemical_formula_sum   'In8 Ni24'
_cell_volume   439.64755954
_cell_formula_units_Z   8
loop_
 _symmetry_equiv_pos_site_id
 _symmetry_equiv_pos_as_xyz
  1  'x, y, z'
loop_
 _atom_site_type_symbol
 _atom_site_label
 _atom_site_symmetry_multiplicity
 _atom_site_fract_x
 _atom_site_fract_y
 _atom_site_fract_z
 _atom_site_occupancy
  In  In0_0  1  0.00000000  0.00000000  0.00000000  1
  In  In0_1  1  0.00000000  0.00000000  0.50000000  1
  In  In0_2  1  0.00000000  0.50000000  0.00000000  1
  In  In0_3  1  0.00000000  0.50000000  0.50000000  1
  In  In0_4  1  0.50000000  0.00000000  0.00000000  1
  In  In0_5  1  0.50000000  0.00000000  0.50000000  1
  In  In0_6  1  0.50000000  0.50000000  0.00000000  1
  In  In0_7  1  0.50000000  0.50000000  0.50000000  1
  Ni  Ni0_0  1  0.24393250  0.12196600  0.13410150  1
  Ni  Ni0_1  1  0.24393250  0.12196600  0.63410150  1
  Ni  Ni0_2  1  0.24393250  0.62196600  0.13410150  1
  Ni  Ni0_3  1  0.24393250  0.62196600  0.63410150  1
  Ni  Ni0_4  1  0.74393250  0.12196600  0.13410150  1
  Ni  Ni0_5  1  0.74393250  0.12196600  0.63410150  1
  Ni  Ni0_6  1  0.74393250  0.62196600  0.13410150  1
  Ni  Ni0_7  1  0.74393250  0.62196600  0.63410150  1
  Ni  Ni1_0  1  0.00000000  0.25000000  0.25000000  1
  Ni  Ni1_1  1  0.00000000  0.25000000  0.75000000  1
  Ni  Ni1_2  1  0.00000000  0.75000000  0.25000000  1
  Ni  Ni1_3  1  0.00000000  0.75000000  0.75000000  1
  Ni  Ni1_4  1  0.50000000  0.25000000  0.25000000  1
  Ni  Ni1_5  1  0.50000000  0.25000000  0.75000000  1
  Ni  Ni1_6  1  0.50000000  0.75000000  0.25000000  1
  Ni  Ni1_7  1  0.50000000  0.75000000  0.75000000  1
  Ni  Ni2_0  1  0.25606750  0.37803400  0.36589850  1
  Ni  Ni2_1  1  0.25606750  0.37803400  0.86589850  1
  Ni  Ni2_2  1  0.25606750  0.87803400  0.36589850  1
  Ni  Ni2_3  1  0.25606750  0.87803400  0.86589850  1
  Ni  Ni2_4  1  0.75606750  0.37803400  0.36589850  1
  Ni  Ni2_5  1  0.75606750  0.37803400  0.86589850  1
  Ni  Ni2_6  1  0.75606750  0.87803400  0.36589850  1
  Ni  Ni2_7  1  0.75606750  0.87803400  0.86589850  1
loop_
_geom_bond_atom_site_label_1
_geom_bond_atom_site_label_2
_geom_bond_distance
_geom_bond_site_symmetry_2
In0_0 Ni2_3 2.692836 1_544
In0_0 Ni0_4 2.692836 1_455
In0_0 Ni2_7 2.692838 1_444
In0_0 Ni0_0 2.692838 1_555
In0_0 Ni2_1 2.692838 1_554
In0_0 Ni0_6 2.692838 1_445
In0_0 In0_6 2.815645 1_555
In0_0 In0_4 2.815645 1_555
In0_0 In0_2 2.815645 1_545
In0_0 In0_6 2.815645 1_445
In0_0 In0_2 2.815645 1_555
In0_0 In0_4 2.815645 1_455
In0_1 Ni2_2 2.692836 1_545
In0_1 Ni0_5 2.692836 1_455
In0_1 Ni2_6 2.692838 1_445
In0_1 Ni0_1 2.692838 1_555
In0_1 Ni2_0 2.692838 1_555
In0_1 Ni0_7 2.692838 1_445
In0_1 In0_5 2.815645 1_555
In0_1 In0_3 2.815645 1_555
In0_1 In0_7 2.815645 1_445
In0_1 In0_7 2.815645 1_555
In0_1 In0_5 2.815645 1_455
In0_1 In0_3 2.815645 1_545
In0_2 Ni2_1 2.692836 1_554
In0_2 Ni0_6 2.692836 1_455
In0_2 Ni2_5 2.692838 1_454
In0_2 Ni0_2 2.692838 1_555
In0_2 Ni2_3 2.692838 1_554
In0_2 Ni0_4 2.692838 1_455
In0_2 In0_4 2.815645 1_565
In0_2 In0_4 2.815645 1_455
In0_2 In0_6 2.815645 1_555
In0_2 In0_6 2.815645 1_455
In0_3 Ni2_0 2.692836 1_555
In0_3 Ni0_7 2.692836 1_455
In0_3 Ni2_4 2.692838 1_455
In0_3 Ni0_3 2.692838 1_555
In0_3 Ni0_5 2.692838 1_455
In0_3 Ni2_2 2.692838 1_555
In0_3 In0_5 2.815645 1_455
In0_3 In0_7 2.815645 1_555
In0_3 In0_5 2.815645 1_565
In0_3 In0_7 2.815645 1_455
In0_4 Ni2_7 2.692836 1_544
In0_4 Ni0_0 2.692836 1_555
In0_4 Ni2_3 2.692838 1_544
In0_4 Ni0_4 2.692838 1_555
In0_4 Ni2_5 2.692838 1_554
In0_4 Ni0_2 2.692838 1_545
In0_4 In0_6 2.815645 1_545
In0_4 In0_6 2.815645 1_555
In0_5 Ni0_1 2.692836 1_555
In0_5 Ni2_6 2.692836 1_545
In0_5 Ni0_5 2.692838 1_555
In0_5 Ni2_2 2.692838 1_545
In0_5 Ni2_4 2.692838 1_555
In0_5 Ni0_3 2.692838 1_545
In0_5 In0_7 2.815645 1_555
In0_5 In0_7 2.815645 1_545
In0_6 Ni2_5 2.692836 1_554
In0_6 Ni0_2 2.692836 1_555
In0_6 Ni2_1 2.692838 1_554
In0_6 Ni0_6 2.692838 1_555
In0_6 Ni2_7 2.692838 1_554
In0_6 Ni0_0 2.692838 1_555
In0_7 Ni2_4 2.692836 1_555
In0_7 Ni0_3 2.692836 1_555
In0_7 Ni2_0 2.692838 1_555
In0_7 Ni0_7 2.692838 1_555
In0_7 Ni2_6 2.692838 1_555
In0_7 Ni0_1 2.692838 1_555
Ni0_0 Ni1_4 2.466800 1_555
Ni0_0 Ni1_2 2.466800 1_545
Ni0_0 Ni1_0 2.466801 1_555
Ni0_0 Ni0_2 2.815645 1_545
Ni0_0 Ni0_2 2.815645 1_555
Ni0_0 Ni0_6 2.815645 1_555
Ni0_0 Ni0_4 2.815645 1_555
Ni0_0 Ni0_4 2.815645 1_455
Ni0_0 Ni0_6 2.815645 1_445
Ni0_1 Ni1_5 2.466800 1_555
Ni0_1 Ni1_3 2.466800 1_545
Ni0_1 Ni1_1 2.466801 1_555
Ni0_1 Ni0_5 2.815645 1_555
Ni0_1 Ni0_7 2.815645 1_555
Ni0_1 Ni0_3 2.815645 1_555
Ni0_1 Ni0_3 2.815645 1_545
Ni0_1 Ni0_7 2.815645 1_445
Ni0_1 Ni0_5 2.815645 1_455
Ni0_2 Ni1_6 2.466800 1_555
Ni0_2 Ni1_0 2.466800 1_555
Ni0_2 Ni1_2 2.466801 1_555
Ni0_2 Ni0_6 2.815645 1_555
Ni0_2 Ni0_4 2.815645 1_455
Ni0_2 Ni0_4 2.815645 1_565
Ni0_2 Ni0_6 2.815645 1_455
Ni0_3 Ni1_7 2.466800 1_555
Ni0_3 Ni1_1 2.466800 1_555
Ni0_3 Ni1_3 2.466801 1_555
Ni0_3 Ni0_7 2.815645 1_555
Ni0_3 Ni0_5 2.815645 1_565
Ni0_3 Ni0_5 2.815645 1_455
Ni0_3 Ni0_7 2.815645 1_455
Ni0_4 Ni1_0 2.466800 1_655
Ni0_4 Ni1_6 2.466800 1_545
Ni0_4 Ni1_4 2.466801 1_555
Ni0_4 Ni0_6 2.815645 1_545
Ni0_4 Ni0_6 2.815645 1_555
Ni0_5 Ni1_1 2.466800 1_655
Ni0_5 Ni1_7 2.466800 1_545
Ni0_5 Ni1_5 2.466801 1_555
Ni0_5 Ni0_7 2.815645 1_555
Ni0_5 Ni0_7 2.815645 1_545
Ni0_6 Ni1_2 2.466800 1_655
Ni0_6 Ni1_4 2.466800 1_555
Ni0_6 Ni1_6 2.466801 1_555
Ni0_7 Ni1_3 2.466800 1_655
Ni0_7 Ni1_5 2.466800 1_555
Ni0_7 Ni1_7 2.466801 1_555
Ni1_0 Ni2_0 2.466800 1_555
Ni1_0 Ni2_6 2.466800 1_445
Ni1_0 Ni2_4 2.466801 1_455
Ni1_0 Ni1_2 2.815645 1_555
Ni1_0 Ni1_6 2.815645 1_555
Ni1_0 Ni1_6 2.815645 1_445
Ni1_0 Ni1_4 2.815645 1_555
Ni1_0 Ni1_4 2.815645 1_455
Ni1_0 Ni1_2 2.815645 1_545
Ni1_1 Ni2_1 2.466800 1_555
Ni1_1 Ni2_7 2.466800 1_445
Ni1_1 Ni2_5 2.466801 1_455
Ni1_1 Ni1_7 2.815645 1_555
Ni1_1 Ni1_3 2.815645 1_555
Ni1_1 Ni1_5 2.815645 1_455
Ni1_1 Ni1_5 2.815645 1_555
Ni1_1 Ni1_3 2.815645 1_545
Ni1_1 Ni1_7 2.815645 1_445
Ni1_2 Ni2_2 2.466800 1_555
Ni1_2 Ni2_4 2.466800 1_455
Ni1_2 Ni2_6 2.466801 1_455
Ni1_2 Ni1_6 2.815645 1_555
Ni1_2 Ni1_4 2.815645 1_455
Ni1_2 Ni1_4 2.815645 1_565
Ni1_2 Ni1_6 2.815645 1_455
Ni1_3 Ni2_3 2.466800 1_555
Ni1_3 Ni2_5 2.466800 1_455
Ni1_3 Ni2_7 2.466801 1_455
Ni1_3 Ni1_7 2.815645 1_555
Ni1_3 Ni1_5 2.815645 1_565
Ni1_3 Ni1_5 2.815645 1_455
Ni1_3 Ni1_7 2.815645 1_455
Ni1_4 Ni2_4 2.466800 1_555
Ni1_4 Ni2_2 2.466800 1_545
Ni1_4 Ni2_0 2.466801 1_555
Ni1_4 Ni1_6 2.815645 1_545
Ni1_4 Ni1_6 2.815645 1_555
Ni1_5 Ni2_5 2.466800 1_555
Ni1_5 Ni2_3 2.466800 1_545
Ni1_5 Ni2_1 2.466801 1_555
Ni1_5 Ni1_7 2.815645 1_555
Ni1_5 Ni1_7 2.815645 1_545
Ni1_6 Ni2_6 2.466800 1_555
Ni1_6 Ni2_0 2.466800 1_555
Ni1_6 Ni2_2 2.466801 1_555
Ni1_7 Ni2_7 2.466800 1_555
Ni1_7 Ni2_1 2.466800 1_555
Ni1_7 Ni2_3 2.466801 1_555
Ni2_0 Ni2_2 2.815645 1_555
Ni2_0 Ni2_4 2.815645 1_555
Ni2_0 Ni2_2 2.815645 1_545
Ni2_0 Ni2_4 2.815645 1_455
Ni2_0 Ni2_6 2.815645 1_555
Ni2_0 Ni2_6 2.815645 1_445
Ni2_1 Ni2_7 2.815645 1_555
Ni2_1 Ni2_3 2.815645 1_555
Ni2_1 Ni2_5 2.815645 1_555
Ni2_1 Ni2_5 2.815645 1_455
Ni2_1 Ni2_3 2.815645 1_545
Ni2_1 Ni2_7 2.815645 1_445
Ni2_2 Ni2_6 2.815645 1_555
Ni2_2 Ni2_4 2.815645 1_455
Ni2_2 Ni2_4 2.815645 1_565
Ni2_2 Ni2_6 2.815645 1_455
Ni2_3 Ni2_7 2.815645 1_555
Ni2_3 Ni2_5 2.815645 1_565
Ni2_3 Ni2_5 2.815645 1_455
Ni2_3 Ni2_7 2.815645 1_455
Ni2_4 Ni2_6 2.815645 1_545
Ni2_4 Ni2_6 2.815645 1_555
Ni2_5 Ni2_7 2.815645 1_555
Ni2_5 Ni2_7 2.815645 1_545
