# generated using pymatgen
data_Y4V13Si2(SbO14)2
_symmetry_space_group_name_H-M   'P 1'
_cell_length_a   5.90669997
_cell_length_b   9.09731262
_cell_length_c   12.41875853
_cell_angle_alpha   87.73415565
_cell_angle_beta   76.21691232
_cell_angle_gamma   79.98629994
_symmetry_Int_Tables_number   1
_chemical_formula_structural   Y4V13Si2(SbO14)2
_chemical_formula_sum   'Y4 V13 Si2 Sb2 O28'
_cell_volume   638.23299355
_cell_formula_units_Z   1
loop_
 _symmetry_equiv_pos_site_id
 _symmetry_equiv_pos_as_xyz
  1  'x, y, z'
loop_
 _atom_site_type_symbol
 _atom_site_label
 _atom_site_symmetry_multiplicity
 _atom_site_fract_x
 _atom_site_fract_y
 _atom_site_fract_z
 _atom_site_occupancy
  Y  Y0  1  0.08493100  0.65881300  0.41093400  1
  Y  Y1  1  0.50311600  0.34015900  0.41269700  1
  Y  Y2  1  0.91486800  0.34079600  0.58816700  1
  Y  Y3  1  0.49770900  0.65939900  0.58755400  1
  V  V0  1  0.90324000  0.64320200  0.73586400  1
  V  V1  1  0.64407200  0.34235700  0.12027300  1
  V  V2  1  0.35695800  0.35808400  0.73572800  1
  V  V3  1  0.09281600  0.35715300  0.26483600  1
  V  V4  1  0.35345000  0.65754000  0.88104000  1
  V  V5  1  0.28866800  0.99953100  0.42364800  1
  V  V6  1  0.23523600  0.65615700  0.12271900  1
  V  V7  1  0.99900900  0.00024500  0.00004100  1
  V  V8  1  0.42562900  0.00037000  0.14528500  1
  V  V9  1  0.76317000  0.34292800  0.88052300  1
  V  V10  1  0.63901000  0.64482200  0.26368000  1
  V  V11  1  0.57607900  0.99818400  0.85246900  1
  V  V12  1  0.71235400  0.99958400  0.57579200  1
  Si  Si0  1  0.23339000  0.30952700  0.00053500  1
  Si  Si1  1  0.76559800  0.69119700  0.00035700  1
  Sb  Sb0  1  0.86214900  0.00098800  0.28226700  1
  Sb  Sb1  1  0.14795900  0.00024100  0.71683200  1
  O  O0  1  0.74433100  0.38592400  0.25819500  1
  O  O1  1  0.12331400  0.39142500  0.41981100  1
  O  O2  1  0.95285100  0.35134400  0.00044700  1
  O  O3  1  0.30901100  0.12769100  0.00081400  1
  O  O4  1  0.87841200  0.60843500  0.57925700  1
  O  O5  1  0.25510000  0.61161800  0.74171100  1
  O  O6  1  0.02363300  0.10547500  0.57332100  1
  O  O7  1  0.97814500  0.89437400  0.42537200  1
  O  O8  1  0.68817300  0.87324200  0.99949500  1
  O  O9  1  0.17647800  0.88328300  0.12843300  1
  O  O10  1  0.29307100  0.39036400  0.10728600  1
  O  O11  1  0.98632200  0.61095300  0.26037400  1
  O  O12  1  0.40478400  0.89499800  0.57224400  1
  O  O13  1  0.69280000  0.11781800  0.12805300  1
  O  O14  1  0.60236500  0.61125400  0.10906600  1
  O  O15  1  0.04510900  0.64980500  0.00045200  1
  O  O16  1  0.30487800  0.88341300  0.87195000  1
  O  O17  1  0.82151300  0.11745600  0.87152600  1
  O  O18  1  0.59629200  0.10508700  0.42630800  1
  O  O19  1  0.18474000  0.12392700  0.27436000  1
  O  O20  1  0.80688400  0.87478800  0.72542000  1
  O  O21  1  0.39975400  0.38865100  0.89317000  1
  O  O22  1  0.44766800  0.12481400  0.72362800  1
  O  O23  1  0.54190500  0.39230700  0.58041200  1
  O  O24  1  0.70382900  0.61013900  0.89442500  1
  O  O25  1  0.54390600  0.87314700  0.27390700  1
  O  O26  1  0.00189800  0.38907200  0.74220600  1
  O  O27  1  0.46027400  0.60736600  0.41848300  1
loop_
_geom_bond_atom_site_label_1
_geom_bond_atom_site_label_2
_geom_bond_distance
_geom_bond_site_symmetry_2
O0 V1 2.014986 1_555
O0 V3 2.050396 1_655
O0 Y1 2.173787 1_555
O0 V10 2.328500 1_555
O1 V3 2.016412 1_555
O1 Y1 2.191578 1_555
O1 Y2 2.234696 1_455
O1 Y0 2.404076 1_555
O2 Si0 1.634678 1_655
O2 V1 2.072819 1_555
O2 V9 2.076799 1_554
O3 Si0 1.636853 1_555
O3 V8 2.276436 1_555
O3 V11 2.326155 1_544
O3 V7 2.333407 1_455
O4 V0 2.026010 1_555
O4 Y3 2.193859 1_555
O4 Y0 2.229648 1_655
O4 Y2 2.407189 1_555
O5 V4 2.031362 1_555
O5 V0 2.066368 1_455
O5 Y3 2.179716 1_555
O5 V2 2.279693 1_555
O6 Y2 2.127481 1_455
O6 Sb1 2.208247 1_555
O6 V12 2.212746 1_445
O6 V5 2.250563 1_545
O7 Y0 2.128086 1_655
O7 Sb0 2.186627 1_565
O7 V5 2.206734 1_655
O7 V12 2.256492 1_555
O8 Si1 1.639979 1_556
O8 V11 2.283503 1_555
O8 V8 2.285704 1_566
O8 V7 2.334563 1_566
O9 V8 2.013385 1_565
O9 V6 2.035999 1_555
O9 V7 2.246714 1_465
O9 Sb0 2.454328 1_465
O10 Si0 1.677060 1_555
O10 V3 2.072046 1_555
O10 V1 2.086628 1_555
O10 V6 2.391307 1_555
O11 V10 2.011514 1_555
O11 V6 2.051886 1_655
O11 Y0 2.167106 1_655
O11 V3 2.287174 1_655
O12 Y3 2.130637 1_555
O12 Sb1 2.185184 1_565
O12 V12 2.202332 1_555
O12 V5 2.240015 1_555
O13 V1 2.014444 1_555
O13 V8 2.021185 1_555
O13 V7 2.243718 1_555
O13 Sb0 2.485989 1_555
O14 Si1 1.681401 1_555
O14 V10 2.023446 1_555
O14 V6 2.102455 1_555
O14 V1 2.417435 1_555
O15 Si1 1.628572 1_455
O15 V4 2.066523 1_554
O15 V6 2.100499 1_555
O16 V11 2.022822 1_555
O16 V4 2.027186 1_555
O16 V7 2.240681 1_466
O16 Sb1 2.458841 1_565
O17 V11 2.016389 1_545
O17 V9 2.023010 1_555
O17 V7 2.248854 1_556
O17 Sb1 2.495518 1_655
O18 Y1 2.123956 1_555
O18 Sb0 2.200213 1_555
O18 V5 2.205171 1_545
O18 V12 2.252579 1_545
O19 V8 2.087327 1_555
O19 V3 2.102536 1_555
O19 V5 2.286816 1_545
O19 Sb0 2.352554 1_455
O20 V11 2.047208 1_555
O20 V0 2.091881 1_555
O20 V12 2.271716 1_555
O20 Sb1 2.461754 1_665
O21 Si0 1.675512 1_556
O21 V2 2.065699 1_555
O21 V9 2.083155 1_555
O21 V4 2.416414 1_555
O22 V2 2.098696 1_555
O22 V11 2.142707 1_545
O22 Sb1 2.280753 1_555
O22 V12 2.300245 1_545
O23 V2 2.019280 1_555
O23 Y2 2.195565 1_555
O23 Y1 2.226876 1_555
O23 Y3 2.401136 1_555
O24 Si1 1.675268 1_556
O24 V0 2.080028 1_555
O24 V4 2.084382 1_555
O24 V9 2.402079 1_555
O25 V10 2.056039 1_555
O25 V8 2.117411 1_565
O25 V5 2.298545 1_555
O25 Sb0 2.399940 1_565
O26 V9 2.027281 1_455
O26 V2 2.049419 1_555
O26 Y2 2.174885 1_455
O26 V0 2.286836 1_455
O27 V10 2.008174 1_555
O27 Y0 2.208577 1_555
O27 Y3 2.240025 1_555
O27 Y1 2.401984 1_555
