# generated using pymatgen
data_Np2Tc3Ge4
_symmetry_space_group_name_H-M   'P 1'
_cell_length_a   8.22007600
_cell_length_b   5.72622600
_cell_length_c   6.81198109
_cell_angle_alpha   75.59600372
_cell_angle_beta   90.00000000
_cell_angle_gamma   90.00000000
_symmetry_Int_Tables_number   1
_chemical_formula_structural   Np2Tc3Ge4
_chemical_formula_sum   'Np4 Tc6 Ge8'
_cell_volume   310.56097884
_cell_formula_units_Z   2
loop_
 _symmetry_equiv_pos_site_id
 _symmetry_equiv_pos_as_xyz
  1  'x, y, z'
loop_
 _atom_site_type_symbol
 _atom_site_label
 _atom_site_symmetry_multiplicity
 _atom_site_fract_x
 _atom_site_fract_y
 _atom_site_fract_z
 _atom_site_occupancy
  Np  Np0  1  0.55056800  0.07706600  0.24867700  1
  Np  Np1  1  0.05056800  0.42293400  0.75132300  1
  Np  Np2  1  0.44943200  0.92293400  0.75132300  1
  Np  Np3  1  0.94943200  0.57706600  0.24867700  1
  Tc  Tc0  1  0.20595700  0.12160400  0.10610200  1
  Tc  Tc1  1  0.70595700  0.37839600  0.89389800  1
  Tc  Tc2  1  0.79404300  0.87839600  0.89389800  1
  Tc  Tc3  1  0.29404300  0.62160400  0.10610200  1
  Tc  Tc4  1  0.00000000  0.00000000  0.50000000  1
  Tc  Tc5  1  0.50000000  0.50000000  0.50000000  1
  Ge  Ge0  1  0.90004000  0.11910200  0.13419000  1
  Ge  Ge1  1  0.40004000  0.38089800  0.86581000  1
  Ge  Ge2  1  0.09996000  0.88089800  0.86581000  1
  Ge  Ge3  1  0.59996000  0.61910200  0.13419000  1
  Ge  Ge4  1  0.75016600  0.22862400  0.57327100  1
  Ge  Ge5  1  0.25016600  0.27137600  0.42672900  1
  Ge  Ge6  1  0.24983400  0.77137600  0.42672900  1
  Ge  Ge7  1  0.74983400  0.72862400  0.57327100  1
loop_
_geom_bond_atom_site_label_1
_geom_bond_atom_site_label_2
_geom_bond_distance
_geom_bond_site_symmetry_2
Np0 Tc1 2.893928 1_554
Np0 Tc0 2.984866 1_555
Np1 Tc0 2.893928 1_556
Np1 Tc1 2.984866 1_455
Np2 Tc3 2.893928 1_556
Np2 Tc2 2.984866 1_555
Np3 Tc2 2.893928 1_554
Np3 Tc3 2.984866 1_655
Ge0 Tc1 2.493986 1_554
Ge0 Tc0 2.521700 1_655
Ge0 Tc2 2.541806 1_544
Ge0 Tc4 2.550351 1_655
Ge0 Np3 2.944074 1_555
Ge0 Np0 2.970705 1_555
Ge0 Np1 3.017046 1_654
Ge0 Np3 3.033557 1_545
Ge1 Tc0 2.493986 1_556
Ge1 Tc1 2.521700 1_555
Ge1 Tc3 2.541806 1_556
Ge1 Tc5 2.550351 1_555
Ge1 Np2 2.944074 1_545
Ge1 Np1 2.970705 1_555
Ge1 Np0 3.017046 1_556
Ge1 Np2 3.033557 1_555
Ge2 Tc3 2.493986 1_556
Ge2 Tc2 2.521700 1_455
Ge2 Tc0 2.541806 1_566
Ge2 Tc4 2.550351 1_565
Ge2 Np1 2.944074 1_555
Ge2 Np2 2.970705 1_555
Ge2 Np3 3.017046 1_456
Ge2 Np1 3.033557 1_565
Ge3 Tc2 2.493986 1_554
Ge3 Tc3 2.521700 1_555
Ge3 Tc1 2.541806 1_554
Ge3 Tc5 2.550351 1_555
Ge3 Np0 2.944074 1_565
Ge3 Np3 2.970705 1_555
Ge3 Np2 3.017046 1_554
Ge3 Np0 3.033557 1_555
Ge4 Tc4 2.550605 1_655
Ge4 Tc5 2.550833 1_555
Ge4 Tc1 2.563166 1_555
Ge4 Tc2 2.596759 1_545
Ge4 Ge7 2.863114 1_545
Ge4 Ge7 2.863114 1_555
Ge4 Np0 3.047769 1_555
Ge4 Np3 3.059118 1_555
Ge4 Np1 3.078653 1_655
Ge4 Np2 3.096766 1_545
Ge5 Tc5 2.550605 1_555
Ge5 Tc4 2.550833 1_555
Ge5 Tc0 2.563166 1_555
Ge5 Tc3 2.596759 1_555
Ge5 Ge6 2.863114 1_555
Ge5 Ge6 2.863114 1_545
Ge5 Np1 3.047769 1_555
Ge5 Np2 3.059118 1_545
Ge5 Np0 3.078653 1_555
Ge5 Np3 3.096766 1_455
Ge6 Tc4 2.550605 1_565
Ge6 Tc5 2.550833 1_555
Ge6 Tc3 2.563166 1_555
Ge6 Tc0 2.596759 1_565
Ge6 Np2 3.047769 1_555
Ge6 Np1 3.059118 1_555
Ge6 Np3 3.078653 1_455
Ge6 Np0 3.096766 1_565
Ge7 Tc5 2.550605 1_555
Ge7 Tc4 2.550833 1_665
Ge7 Tc2 2.563166 1_555
Ge7 Tc1 2.596759 1_555
Ge7 Np3 3.047769 1_555
Ge7 Np0 3.059118 1_565
Ge7 Np2 3.078653 1_555
Ge7 Np1 3.096766 1_655
