# generated using pymatgen
data_Na2LiFePCO7
_symmetry_space_group_name_H-M   'P 1'
_cell_length_a   6.74927700
_cell_length_b   8.79545383
_cell_length_c   10.28040231
_cell_angle_alpha   92.48256235
_cell_angle_beta   90.14169576
_cell_angle_gamma   90.71132870
_symmetry_Int_Tables_number   1
_chemical_formula_structural   Na2LiFePCO7
_chemical_formula_sum   'Na8 Li4 Fe4 P4 C4 O28'
_cell_volume   609.65252258
_cell_formula_units_Z   4
loop_
 _symmetry_equiv_pos_site_id
 _symmetry_equiv_pos_as_xyz
  1  'x, y, z'
loop_
 _atom_site_type_symbol
 _atom_site_label
 _atom_site_symmetry_multiplicity
 _atom_site_fract_x
 _atom_site_fract_y
 _atom_site_fract_z
 _atom_site_occupancy
  Na  Na0  1  0.25267900  0.08551700  0.61932300  1
  Na  Na1  1  0.00110600  0.25879600  0.36744400  1
  Na  Na2  1  0.00292500  0.26474400  0.87919600  1
  Na  Na3  1  0.49757100  0.26435400  0.87400800  1
  Na  Na4  1  0.50365500  0.74167100  0.12569700  1
  Na  Na5  1  0.99782000  0.74020700  0.12644500  1
  Na  Na6  1  0.50539500  0.73744900  0.62562400  1
  Na  Na7  1  0.99341100  0.73733800  0.62822200  1
  Li  Li0  1  0.26289100  0.09194100  0.12305700  1
  Li  Li1  1  0.47034200  0.28341200  0.37752700  1
  Li  Li2  1  0.73814300  0.90306400  0.37818100  1
  Li  Li3  1  0.74937200  0.90061000  0.87931600  1
  Fe  Fe0  1  0.74518000  0.35220600  0.11406400  1
  Fe  Fe1  1  0.74513600  0.34832300  0.60257500  1
  Fe  Fe2  1  0.24979300  0.65205700  0.38504200  1
  Fe  Fe3  1  0.25343700  0.65185200  0.89090800  1
  P  P0  1  0.25452500  0.40289700  0.14578900  1
  P  P1  1  0.24733700  0.41502800  0.63789200  1
  P  P2  1  0.74549300  0.59085700  0.35234200  1
  P  P3  1  0.75155700  0.59028800  0.85749200  1
  C  C0  1  0.74788600  0.04858300  0.14141000  1
  C  C1  1  0.74972000  0.05016300  0.64294400  1
  C  C2  1  0.26074800  0.94862800  0.35578500  1
  C  C3  1  0.25075500  0.95010900  0.86754800  1
  O  O0  1  0.27632800  0.09343100  0.33883100  1
  O  O1  1  0.24511200  0.09317200  0.84682000  1
  O  O2  1  0.74882600  0.07394500  0.01776100  1
  O  O3  1  0.75287100  0.07786000  0.51967900  1
  O  O4  1  0.74100800  0.16303600  0.22673300  1
  O  O5  1  0.74326700  0.16390000  0.72917300  1
  O  O6  1  0.06600100  0.30379900  0.11633600  1
  O  O7  1  0.43004500  0.30179000  0.09925600  1
  O  O8  1  0.05931800  0.31821500  0.59893500  1
  O  O9  1  0.42890300  0.31894800  0.58917200  1
  O  O10  1  0.27426700  0.43430000  0.29708400  1
  O  O11  1  0.72904600  0.43182800  0.41181100  1
  O  O12  1  0.25552100  0.43780900  0.78922400  1
  O  O13  1  0.75208300  0.43791300  0.92709000  1
  O  O14  1  0.24982800  0.55727800  0.07956000  1
  O  O15  1  0.74895500  0.56710900  0.20123900  1
  O  O16  1  0.24682800  0.57181900  0.57669000  1
  O  O17  1  0.74916500  0.55888000  0.70746400  1
  O  O18  1  0.56871800  0.69566100  0.39170000  1
  O  O19  1  0.93356500  0.68270500  0.39759500  1
  O  O20  1  0.56951900  0.69066300  0.89657900  1
  O  O21  1  0.93646400  0.69148500  0.89547000  1
  O  O22  1  0.24940600  0.85347900  0.25553100  1
  O  O23  1  0.25290500  0.85100500  0.76872200  1
  O  O24  1  0.25495700  0.89257100  0.47091000  1
  O  O25  1  0.25472200  0.90154700  0.98534200  1
  O  O26  1  0.75323000  0.91263600  0.18400200  1
  O  O27  1  0.75226300  0.91312300  0.68345900  1
loop_
_geom_bond_atom_site_label_1
_geom_bond_atom_site_label_2
_geom_bond_distance
_geom_bond_site_symmetry_2
Na0 O24 2.232613 1_545
Na0 O1 2.337515 1_555
Na0 O9 2.392151 1_555
Na0 O8 2.457260 1_555
Na0 O23 2.624486 1_545
Na0 O0 2.892177 1_555
Na1 O0 2.384364 1_555
Na1 O4 2.393493 1_455
Na1 O11 2.430896 1_455
Na1 O8 2.444088 1_555
Na1 O10 2.517477 1_555
Na1 O6 2.665036 1_555
Na1 O3 2.819833 1_455
Na2 O1 2.253957 1_555
Na2 O13 2.330601 1_455
Na2 O5 2.462964 1_455
Na2 O12 2.478789 1_555
Na2 O6 2.482187 1_556
Na3 O1 2.268445 1_555
Na3 O13 2.331720 1_555
Na3 O7 2.370909 1_556
Na3 O5 2.383722 1_555
Na3 O12 2.434359 1_555
Na4 O26 2.304744 1_555
Na4 O22 2.373350 1_555
Na4 O14 2.377078 1_555
Na4 O15 2.421047 1_555
Na4 O20 2.421880 1_554
Na4 O25 2.665439 1_554
Na4 O18 2.815861 1_555
Na5 O26 2.316157 1_555
Na5 O22 2.338642 1_655
Na5 O14 2.391402 1_655
Na5 O15 2.403064 1_555
Na5 O21 2.428174 1_554
Na5 O25 2.693334 1_654
Na5 O19 2.887362 1_555
Na6 O16 2.299972 1_555
Na6 O27 2.317044 1_555
Na6 O23 2.448085 1_555
Na6 O18 2.456294 1_555
Na6 O17 2.460354 1_555
Na6 O24 2.735005 1_555
Na6 O20 2.865931 1_555
Na7 O16 2.307585 1_655
Na7 O27 2.313635 1_555
Na7 O17 2.428582 1_555
Na7 O19 2.430462 1_555
Na7 O23 2.443786 1_655
Na7 O24 2.782312 1_655
Na7 O21 2.820645 1_555
Li0 O25 2.145613 1_544
Li0 O7 2.174418 1_555
Li0 O0 2.219337 1_555
Li0 O6 2.305439 1_555
Li0 O22 2.550559 1_545
Li1 O10 2.080803 1_555
Li1 O0 2.133207 1_555
Li1 O11 2.185750 1_555
Li1 O9 2.203694 1_555
Li1 O4 2.604075 1_555
Li2 O26 2.004439 1_555
Li2 O3 2.071542 1_565
Li2 O18 2.150715 1_555
Li2 O19 2.373103 1_555
Li3 O27 2.021378 1_555
Li3 O2 2.040143 1_566
Li3 O20 2.211029 1_555
Li3 O21 2.255744 1_555
Fe0 O15 2.056331 1_555
Fe0 O4 2.068022 1_555
Fe0 O13 2.095295 1_554
Fe0 O7 2.170895 1_555
Fe0 O6 2.212213 1_655
Fe1 O17 2.102089 1_555
Fe1 O5 2.123116 1_555
Fe1 O11 2.126728 1_555
Fe1 O8 2.140451 1_655
Fe1 O9 2.150101 1_555
Fe1 O3 2.493103 1_555
Fe2 O10 2.090877 1_555
Fe2 O16 2.121442 1_555
Fe2 O19 2.158062 1_455
Fe2 O18 2.182105 1_555
Fe2 O24 2.256493 1_555
Fe2 O22 2.261791 1_555
Fe3 O12 2.113624 1_555
Fe3 O14 2.143211 1_556
Fe3 O20 2.156520 1_555
Fe3 O21 2.172114 1_455
Fe3 O23 2.199283 1_555
Fe3 O25 2.362320 1_555
C0 O26 1.291940 1_545
C0 O2 1.300085 1_555
C0 O4 1.307593 1_555
C1 O27 1.292503 1_545
C1 O3 1.300913 1_555
C1 O5 1.308782 1_555
C2 O0 1.295959 1_565
C2 O22 1.300679 1_555
C2 O24 1.302180 1_555
C3 O1 1.286299 1_565
C3 O25 1.301742 1_555
C3 O23 1.309914 1_555
O6 P0 1.555020 1_555
O7 P0 1.554069 1_555
O8 P1 1.561066 1_555
O9 P1 1.568051 1_555
O10 P0 1.572919 1_555
O11 P2 1.553417 1_555
O12 P1 1.560725 1_555
O13 P3 1.546376 1_555
O14 P0 1.545765 1_555
O15 P2 1.558659 1_555
O16 P1 1.540431 1_555
O17 P3 1.555078 1_555
O18 P2 1.560227 1_555
O19 P2 1.555427 1_555
O20 P3 1.564941 1_555
O21 P3 1.562705 1_555
