# generated using pymatgen
data_Li9Co7O16
_symmetry_space_group_name_H-M   'P 1'
_cell_length_a   19.42844750
_cell_length_b   19.42844750
_cell_length_c   4.97253471
_cell_angle_alpha   85.26088438
_cell_angle_beta   85.26088438
_cell_angle_gamma   8.83721169
_symmetry_Int_Tables_number   1
_chemical_formula_structural   Li9Co7O16
_chemical_formula_sum   'Li9 Co7 O16'
_cell_volume   287.36053396
_cell_formula_units_Z   1
loop_
 _symmetry_equiv_pos_site_id
 _symmetry_equiv_pos_as_xyz
  1  'x, y, z'
loop_
 _atom_site_type_symbol
 _atom_site_label
 _atom_site_symmetry_multiplicity
 _atom_site_fract_x
 _atom_site_fract_y
 _atom_site_fract_z
 _atom_site_occupancy
  Li  Li0  1  0.56050800  0.56050800  0.81175600  1
  Li  Li1  1  0.68739500  0.68739500  0.43879200  1
  Li  Li2  1  0.81257200  0.81257200  0.06142300  1
  Li  Li3  1  0.93920600  0.93920600  0.68022900  1
  Li  Li4  1  0.06079400  0.06079400  0.31977100  1
  Li  Li5  1  0.18742800  0.18742800  0.93857700  1
  Li  Li6  1  0.31260500  0.31260500  0.56120800  1
  Li  Li7  1  0.43949200  0.43949200  0.18824400  1
  Li  Li8  1  0.50000000  0.50000000  0.50000000  1
  Co  Co0  1  0.00000000  0.00000000  0.00000000  1
  Co  Co1  1  0.12438000  0.12438000  0.62627500  1
  Co  Co2  1  0.24999200  0.24999200  0.25001200  1
  Co  Co3  1  0.37544900  0.37544900  0.87436600  1
  Co  Co4  1  0.62455100  0.62455100  0.12563400  1
  Co  Co5  1  0.75000800  0.75000800  0.74998800  1
  Co  Co6  1  0.87562000  0.87562000  0.37372500  1
  O  O0  1  0.52656600  0.52656600  0.13680000  1
  O  O1  1  0.65359400  0.65359400  0.79065000  1
  O  O2  1  0.77889700  0.77889700  0.41473900  1
  O  O3  1  0.90421100  0.90421100  0.03816700  1
  O  O4  1  0.02771000  0.02771000  0.69553600  1
  O  O5  1  0.15350500  0.15350500  0.29200900  1
  O  O6  1  0.27891900  0.27891900  0.91478500  1
  O  O7  1  0.40499800  0.40499800  0.54039000  1
  O  O8  1  0.59500200  0.59500200  0.45961000  1
  O  O9  1  0.72108100  0.72108100  0.08521500  1
  O  O10  1  0.84649500  0.84649500  0.70799100  1
  O  O11  1  0.97229000  0.97229000  0.30446400  1
  O  O12  1  0.09578900  0.09578900  0.96183300  1
  O  O13  1  0.22110300  0.22110300  0.58526100  1
  O  O14  1  0.34640600  0.34640600  0.20935000  1
  O  O15  1  0.47343400  0.47343400  0.86320000  1
loop_
_geom_bond_atom_site_label_1
_geom_bond_atom_site_label_2
_geom_bond_distance
_geom_bond_site_symmetry_2
Li0 O0 1.997320 1_556
Li0 O4 2.076218 1_655
Li0 O4 2.076218 1_565
Li0 O8 2.112868 1_555
Li0 O12 2.198789 1_565
Li0 O12 2.198789 1_655
Li1 O1 2.096728 1_555
Li1 O9 2.100963 1_555
Li1 O13 2.152654 1_655
Li1 O13 2.152654 1_565
Li1 O5 2.157743 1_565
Li1 O5 2.157743 1_655
Li2 O2 2.099709 1_555
Li2 O10 2.105479 1_554
Li2 O6 2.151629 1_654
Li2 O6 2.151629 1_564
Li2 O14 2.158581 1_655
Li2 O14 2.158581 1_565
Li3 O3 2.146172 1_556
Li3 O7 2.152452 1_655
Li3 O7 2.152452 1_565
Li3 O11 2.176513 1_555
Li3 O15 2.242008 1_565
Li3 O15 2.242008 1_655
Li4 O12 2.146172 1_554
Li4 O8 2.152452 1_455
Li4 O8 2.152452 1_545
Li4 O4 2.176513 1_555
Li4 O0 2.242008 1_545
Li4 O0 2.242008 1_455
Li5 O13 2.099709 1_555
Li5 O5 2.105479 1_556
Li5 O9 2.151629 1_456
Li5 O9 2.151629 1_546
Li5 O1 2.158581 1_455
Li5 O1 2.158581 1_545
Li6 O14 2.096728 1_555
Li6 O6 2.100963 1_555
Li6 O2 2.152654 1_545
Li6 O2 2.152654 1_455
Li6 O10 2.157743 1_545
Li6 O10 2.157743 1_455
Li7 O15 1.997320 1_554
Li7 O11 2.076218 1_455
Li7 O11 2.076218 1_545
Li7 O7 2.112868 1_555
Li7 O3 2.198789 1_455
Li7 O3 2.198789 1_545
Li8 O0 2.003230 1_555
Li8 O15 2.003230 1_555
Li8 O4 2.123983 1_565
Li8 O4 2.123983 1_655
Li8 O11 2.123983 1_455
Li8 O11 2.123983 1_545
Co0 O4 1.781900 1_554
Co0 O11 1.781900 1_445
Co0 O0 1.969390 1_545
Co0 O0 1.969390 1_455
Co0 O15 1.969390 1_454
Co0 O15 1.969390 1_544
Co1 O12 1.924769 1_555
Co1 O5 1.930046 1_555
Co1 O1 2.083943 1_455
Co1 O1 2.083943 1_545
Co1 O8 2.092605 1_545
Co1 O8 2.092605 1_455
Co2 O13 1.929355 1_555
Co2 O6 1.930015 1_554
Co2 O2 2.077843 1_455
Co2 O2 2.077843 1_545
Co2 O9 2.078129 1_545
Co2 O9 2.078129 1_455
Co3 O14 1.931323 1_556
Co3 O7 1.937362 1_555
Co3 O3 2.072663 1_546
Co3 O3 2.072663 1_456
Co3 O10 2.082537 1_455
Co3 O10 2.082537 1_545
Co4 O1 1.931323 1_554
Co4 O8 1.937362 1_555
Co4 O12 2.072663 1_654
Co4 O12 2.072663 1_564
Co4 O5 2.082537 1_655
Co4 O5 2.082537 1_565
Co5 O2 1.929355 1_555
Co5 O9 1.930015 1_556
Co5 O13 2.077843 1_655
Co5 O13 2.077843 1_565
Co5 O6 2.078129 1_565
Co5 O6 2.078129 1_655
Co6 O3 1.924769 1_555
Co6 O10 1.930046 1_555
Co6 O14 2.083943 1_655
Co6 O14 2.083943 1_565
Co6 O7 2.092605 1_565
Co6 O7 2.092605 1_655
