# generated using pymatgen
data_PrMg2Cu9
_symmetry_space_group_name_H-M   'P 1'
_cell_length_a   5.01887201
_cell_length_b   5.01887247
_cell_length_c   16.03435310
_cell_angle_alpha   90.00000269
_cell_angle_beta   90.00001032
_cell_angle_gamma   119.99312945
_symmetry_Int_Tables_number   1
_chemical_formula_structural   PrMg2Cu9
_chemical_formula_sum   'Pr2 Mg4 Cu18'
_cell_volume   349.80371568
_cell_formula_units_Z   2
loop_
 _symmetry_equiv_pos_site_id
 _symmetry_equiv_pos_as_xyz
  1  'x, y, z'
loop_
 _atom_site_type_symbol
 _atom_site_label
 _atom_site_symmetry_multiplicity
 _atom_site_fract_x
 _atom_site_fract_y
 _atom_site_fract_z
 _atom_site_occupancy
  Pr  Pr0  1  0.66666705  0.33333279  0.24997568  1
  Pr  Pr1  1  0.33333329  0.66666691  0.75002296  1
  Mg  Mg0  1  0.66666806  0.33333150  0.46903425  1
  Mg  Mg1  1  0.33333117  0.66666777  0.96901963  1
  Mg  Mg2  1  0.66666849  0.33333188  0.03095642  1
  Mg  Mg3  1  0.33333205  0.66666884  0.53098888  1
  Cu  Cu0  1  0.33332882  0.66666735  0.24985459  1
  Cu  Cu1  1  0.66666757  0.33332780  0.75014498  1
  Cu  Cu2  1  0.16790545  0.83209493  0.37770942  1
  Cu  Cu3  1  0.16790052  0.33580422  0.37770965  1
  Cu  Cu4  1  -0.00000073  0.00000570  0.75014006  1
  Cu  Cu5  1  0.00000526  -0.00000200  0.24985949  1
  Cu  Cu6  1  0.99999945  0.00000125  0.99991242  1
  Cu  Cu7  1  0.99999900  0.00000041  0.50008746  1
  Cu  Cu8  1  0.16789884  0.33580069  0.12211288  1
  Cu  Cu9  1  0.83208719  0.16791235  0.62242938  1
  Cu  Cu10  1  0.33581813  0.16790769  0.62242980  1
  Cu  Cu11  1  0.66419883  0.83210113  0.12211181  1
  Cu  Cu12  1  0.16790301  0.83209636  0.12211223  1
  Cu  Cu13  1  0.83209526  0.66418535  0.87774986  1
  Cu  Cu14  1  0.83209007  0.16791074  0.87774962  1
  Cu  Cu15  1  0.83209310  0.66418207  0.62242916  1
  Cu  Cu16  1  0.33581457  0.16790492  0.87774952  1
  Cu  Cu17  1  0.66419556  0.83209936  0.37770984  1
loop_
_geom_bond_atom_site_label_1
_geom_bond_atom_site_label_2
_geom_bond_distance
_geom_bond_site_symmetry_2
Mg0 Mg3 3.063135 1_555
Mg0 Mg3 3.063376 1_545
Mg0 Mg3 3.063381 1_655
Mg0 Pr0 3.512462 1_555
Mg1 Mg2 3.063041 1_556
Mg1 Mg2 3.063283 1_456
Mg1 Mg2 3.063289 1_566
Mg1 Pr1 3.511470 1_555
Mg2 Pr0 3.511832 1_555
Mg3 Pr1 3.512070 1_555
Cu0 Cu12 2.502647 1_555
Cu0 Cu8 2.502754 1_555
Cu0 Cu11 2.502776 1_555
Cu0 Cu2 2.504113 1_555
Cu0 Cu3 2.504233 1_555
Cu0 Cu17 2.504244 1_555
Cu0 Cu5 2.897493 1_565
Cu0 Pr0 2.897574 1_555
Cu0 Pr0 2.897827 1_455
Cu0 Pr0 2.897843 1_565
Cu0 Cu5 2.897860 1_555
Cu0 Cu5 2.897890 1_665
Cu1 Cu14 2.500802 1_555
Cu1 Cu16 2.500920 1_555
Cu1 Cu13 2.500936 1_555
Cu1 Cu9 2.502246 1_555
Cu1 Cu10 2.502362 1_555
Cu1 Cu15 2.502383 1_555
Cu1 Cu4 2.897491 1_655
Cu1 Pr1 2.897577 1_555
Cu1 Pr1 2.897824 1_545
Cu1 Pr1 2.897844 1_655
Cu1 Cu4 2.897855 1_555
Cu1 Cu4 2.897897 1_665
Cu2 Cu7 2.445549 1_465
Cu2 Cu3 2.490807 1_555
Cu2 Cu5 2.516471 1_565
Cu2 Cu3 2.528065 1_565
Cu2 Mg3 2.847506 1_555
Cu2 Mg0 2.905677 1_565
Cu2 Mg0 2.905681 1_455
Cu2 Pr0 3.239370 1_565
Cu2 Pr0 3.239371 1_455
Cu3 Cu7 2.445616 1_455
Cu3 Cu5 2.516570 1_555
Cu3 Mg3 2.847604 1_555
Cu3 Mg0 2.905436 1_455
Cu3 Mg0 2.905467 1_555
Cu3 Pr0 3.239163 1_455
Cu3 Pr0 3.239179 1_555
Cu4 Cu9 2.514692 1_455
Cu4 Pr1 2.897574 1_545
Cu4 Pr1 2.897825 1_555
Cu4 Pr1 2.897845 1_445
Cu5 Cu8 2.515209 1_555
Cu5 Pr0 2.897575 1_455
Cu5 Pr0 2.897827 1_555
Cu5 Pr0 2.897842 1_445
Cu6 Cu8 2.443323 1_656
Cu6 Mg1 2.939576 1_645
Cu6 Mg1 2.939879 1_655
Cu6 Mg1 2.939886 1_545
Cu6 Mg2 2.939970 1_556
Cu6 Mg2 2.940299 1_656
Cu6 Mg2 2.940300 1_546
Cu7 Cu9 2.445115 1_555
Cu7 Mg3 2.939597 1_645
Cu7 Mg3 2.939904 1_545
Cu7 Mg3 2.939910 1_655
Cu7 Mg0 2.939997 1_555
Cu7 Mg0 2.940323 1_545
Cu7 Mg0 2.940324 1_655
Cu8 Mg1 2.845037 1_554
Cu8 Mg2 2.904077 1_455
Cu8 Mg2 2.904110 1_555
Cu8 Pr0 3.240470 1_455
Cu8 Pr0 3.240484 1_555
Cu9 Mg0 2.849075 1_555
Cu9 Mg3 2.906611 1_545
Cu9 Mg3 2.906617 1_655
Cu9 Pr1 3.237949 1_545
Cu9 Pr1 3.237951 1_655
Cu10 Cu7 2.445199 1_455
Cu10 Cu9 2.490699 1_555
Cu10 Cu15 2.490998 1_555
Cu10 Cu4 2.514775 1_555
Cu10 Cu9 2.528173 1_455
Cu10 Cu15 2.528396 1_445
Cu10 Mg0 2.849183 1_555
Cu10 Mg3 2.906375 1_545
Cu10 Mg3 2.906410 1_555
Cu10 Pr1 3.237739 1_545
Cu10 Pr1 3.237749 1_555
Cu11 Cu6 2.443313 1_564
Cu11 Cu12 2.490833 1_555
Cu11 Cu8 2.491126 1_555
Cu11 Cu5 2.515232 1_665
Cu11 Cu12 2.528039 1_655
Cu11 Cu8 2.528267 1_665
Cu11 Mg1 2.845023 1_554
Cu11 Mg2 2.904069 1_565
Cu11 Mg2 2.904102 1_555
Cu11 Pr0 3.240480 1_565
Cu11 Pr0 3.240497 1_555
Cu12 Cu6 2.443248 1_464
Cu12 Cu8 2.490834 1_555
Cu12 Cu5 2.515121 1_565
Cu12 Cu8 2.528038 1_565
Cu12 Mg1 2.844930 1_554
Cu12 Mg2 2.904311 1_455
Cu12 Mg2 2.904316 1_565
Cu12 Pr0 3.240685 1_455
Cu12 Pr0 3.240686 1_565
Cu13 Cu6 2.442879 1_565
Cu13 Cu14 2.490726 1_555
Cu13 Cu16 2.491027 1_555
Cu13 Cu4 2.513467 1_665
Cu13 Cu14 2.528147 1_565
Cu13 Cu16 2.528366 1_665
Cu13 Mg2 2.846575 1_556
Cu13 Mg1 2.904987 1_655
Cu13 Mg1 2.905031 1_555
Cu13 Pr1 3.239090 1_655
Cu13 Pr1 3.239109 1_555
Cu14 Cu6 2.442799 1_555
Cu14 Cu16 2.490729 1_555
Cu14 Cu4 2.513360 1_655
Cu14 Cu16 2.528143 1_655
Cu14 Mg2 2.846479 1_556
Cu14 Mg1 2.905232 1_655
Cu14 Mg1 2.905240 1_545
Cu14 Pr1 3.239298 1_655
Cu14 Pr1 3.239300 1_545
Cu15 Cu7 2.445189 1_565
Cu15 Cu9 2.490700 1_555
Cu15 Cu4 2.514795 1_665
Cu15 Cu9 2.528173 1_565
Cu15 Mg0 2.849175 1_555
Cu15 Mg3 2.906369 1_655
Cu15 Mg3 2.906405 1_555
Cu15 Pr1 3.237742 1_655
Cu15 Pr1 3.237758 1_555
Cu16 Cu6 2.442881 1_455
Cu16 Cu4 2.513449 1_555
Cu16 Mg2 2.846580 1_556
Cu16 Mg1 2.904993 1_545
Cu16 Mg1 2.905030 1_555
Cu16 Pr1 3.239087 1_545
Cu16 Pr1 3.239105 1_555
Cu17 Cu7 2.445612 1_565
Cu17 Cu2 2.490805 1_555
Cu17 Cu3 2.491100 1_555
Cu17 Cu5 2.516581 1_665
Cu17 Cu2 2.528067 1_655
Cu17 Cu3 2.528293 1_665
Cu17 Mg3 2.847600 1_555
Cu17 Mg0 2.905434 1_565
Cu17 Mg0 2.905467 1_555
Cu17 Pr0 3.239165 1_565
Cu17 Pr0 3.239181 1_555
