# generated using pymatgen
data_Y6Zn(GeS7)2
_symmetry_space_group_name_H-M   'P 1'
_cell_length_a   9.93144641
_cell_length_b   9.93144641
_cell_length_c   5.71179800
_cell_angle_alpha   90.00000000
_cell_angle_beta   90.00000000
_cell_angle_gamma   120.00000270
_symmetry_Int_Tables_number   1
_chemical_formula_structural   Y6Zn(GeS7)2
_chemical_formula_sum   'Y6 Zn1 Ge2 S14'
_cell_volume   487.89735812
_cell_formula_units_Z   1
loop_
 _symmetry_equiv_pos_site_id
 _symmetry_equiv_pos_as_xyz
  1  'x, y, z'
loop_
 _atom_site_type_symbol
 _atom_site_label
 _atom_site_symmetry_multiplicity
 _atom_site_fract_x
 _atom_site_fract_y
 _atom_site_fract_z
 _atom_site_occupancy
  Y  Y0  1  0.31182100  0.10384100  0.74881900  1
  Y  Y1  1  0.79202000  0.68817900  0.74881900  1
  Y  Y2  1  0.89615900  0.20798000  0.74881900  1
  Y  Y3  1  0.02185900  0.56313900  0.25121400  1
  Y  Y4  1  0.54127900  0.97814100  0.25121400  1
  Y  Y5  1  0.43686100  0.45872100  0.25121400  1
  Zn  Zn0  1  0.66666700  0.33333300  0.51103900  1
  Ge  Ge0  1  0.00000000  0.00000000  0.17117400  1
  Ge  Ge1  1  0.33333300  0.66666700  0.66858800  1
  S  S0  1  0.15071500  0.23356500  0.00727400  1
  S  S1  1  0.08285000  0.84928500  0.00727400  1
  S  S2  1  0.76643500  0.91715000  0.00727400  1
  S  S3  1  0.18296000  0.43328400  0.50474900  1
  S  S4  1  0.25032500  0.81704000  0.50474900  1
  S  S5  1  0.56671600  0.74967500  0.50474900  1
  S  S6  1  0.00000000  0.00000000  0.55422500  1
  S  S7  1  0.33333300  0.66666700  0.05211300  1
  S  S8  1  0.41716300  0.17459200  0.28185900  1
  S  S9  1  0.75742900  0.58283700  0.28185900  1
  S  S10  1  0.82540800  0.24257100  0.28185900  1
  S  S11  1  0.91675700  0.49505100  0.76105400  1
  S  S12  1  0.57829400  0.08324300  0.76105400  1
  S  S13  1  0.50494900  0.42170600  0.76105400  1
loop_
_geom_bond_atom_site_label_1
_geom_bond_atom_site_label_2
_geom_bond_distance
_geom_bond_site_symmetry_2
Ge0 S6 2.187910 1_555
Ge0 S0 2.241765 1_555
Ge0 S2 2.241765 1_445
Ge0 S1 2.241765 1_545
Ge1 S7 2.190617 1_556
Ge1 S4 2.239830 1_555
Ge1 S3 2.239843 1_555
Ge1 S5 2.239846 1_555
S0 Y2 2.827156 1_454
S0 Y0 2.908703 1_554
S0 Y5 2.943297 1_555
S1 Y0 2.827156 1_564
S1 Y1 2.908703 1_454
S1 Y3 2.943294 1_555
S2 Y1 2.827156 1_554
S2 Y2 2.908703 1_564
S2 Y4 2.943303 1_555
S3 Y5 2.807560 1_555
S3 Y3 2.895443 1_555
S3 Y2 2.947868 1_455
S4 Y3 2.807568 1_555
S4 Y4 2.895428 1_555
S4 Y0 2.947871 1_565
S5 Y4 2.807577 1_555
S5 Y5 2.895427 1_555
S5 Y1 2.947862 1_555
S6 Y1 2.948829 1_445
S6 Y0 2.948829 1_555
S6 Y2 2.948829 1_455
S7 Y4 2.956166 1_555
S7 Y3 2.956166 1_555
S7 Y5 2.956166 1_555
S8 Zn0 2.536263 1_555
S8 Y5 2.734868 1_555
S8 Y4 2.785963 1_545
S8 Y0 2.822587 1_555
S8 Y0 3.181640 1_554
S9 Zn0 2.536264 1_555
S9 Y3 2.734858 1_655
S9 Y5 2.785972 1_555
S9 Y1 2.822587 1_555
S9 Y1 3.181640 1_554
S10 Zn0 2.536256 1_555
S10 Y4 2.734863 1_545
S10 Y3 2.785971 1_655
S10 Y2 2.822587 1_555
S10 Y2 3.181640 1_554
S11 Zn0 2.607435 1_555
S11 Y2 2.755336 1_555
S11 Y1 2.755819 1_555
S11 Y3 2.946059 1_656
S11 Y3 3.053083 1_655
S12 Zn0 2.607434 1_555
S12 Y0 2.755336 1_555
S12 Y2 2.755819 1_555
S12 Y4 2.946058 1_546
S12 Y4 3.053083 1_545
S13 Zn0 2.607442 1_555
S13 Y1 2.755336 1_555
S13 Y0 2.755819 1_555
S13 Y5 2.946061 1_556
S13 Y5 3.053085 1_555
