# generated using pymatgen
data_Ca3V3(NiO6)2
_symmetry_space_group_name_H-M   'P 1'
_cell_length_a   10.86656807
_cell_length_b   10.86656807
_cell_length_c   10.86656807
_cell_angle_alpha   109.47122063
_cell_angle_beta   109.47122063
_cell_angle_gamma   109.47122063
_symmetry_Int_Tables_number   1
_chemical_formula_structural   Ca3V3(NiO6)2
_chemical_formula_sum   'Ca12 V12 Ni8 O48'
_cell_volume   987.76884417
_cell_formula_units_Z   4
loop_
 _symmetry_equiv_pos_site_id
 _symmetry_equiv_pos_as_xyz
  1  'x, y, z'
loop_
 _atom_site_type_symbol
 _atom_site_label
 _atom_site_symmetry_multiplicity
 _atom_site_fract_x
 _atom_site_fract_y
 _atom_site_fract_z
 _atom_site_occupancy
  Ca  Ca0  1  0.87500000  0.62500000  0.75000000  1
  Ca  Ca1  1  0.12500000  0.37500000  0.25000000  1
  Ca  Ca2  1  0.62500000  0.87500000  0.25000000  1
  Ca  Ca3  1  0.62500000  0.75000000  0.87500000  1
  Ca  Ca4  1  0.87500000  0.25000000  0.62500000  1
  Ca  Ca5  1  0.37500000  0.12500000  0.75000000  1
  Ca  Ca6  1  0.37500000  0.25000000  0.12500000  1
  Ca  Ca7  1  0.12500000  0.75000000  0.37500000  1
  Ca  Ca8  1  0.75000000  0.87500000  0.62500000  1
  Ca  Ca9  1  0.25000000  0.12500000  0.37500000  1
  Ca  Ca10  1  0.25000000  0.62500000  0.87500000  1
  Ca  Ca11  1  0.75000000  0.37500000  0.12500000  1
  V  V0  1  0.62500000  0.37500000  0.75000000  1
  V  V1  1  0.37500000  0.62500000  0.25000000  1
  V  V2  1  0.87500000  0.12500000  0.25000000  1
  V  V3  1  0.37500000  0.75000000  0.62500000  1
  V  V4  1  0.62500000  0.25000000  0.37500000  1
  V  V5  1  0.12500000  0.87500000  0.75000000  1
  V  V6  1  0.12500000  0.25000000  0.87500000  1
  V  V7  1  0.87500000  0.75000000  0.12500000  1
  V  V8  1  0.75000000  0.62500000  0.37500000  1
  V  V9  1  0.25000000  0.37500000  0.62500000  1
  V  V10  1  0.25000000  0.87500000  0.12500000  1
  V  V11  1  0.75000000  0.12500000  0.87500000  1
  Ni  Ni0  1  0.00000000  0.00000000  0.00000000  1
  Ni  Ni1  1  0.50000000  0.00000000  0.50000000  1
  Ni  Ni2  1  0.50000000  0.50000000  0.00000000  1
  Ni  Ni3  1  0.00000000  0.00000000  0.50000000  1
  Ni  Ni4  1  0.00000000  0.50000000  0.50000000  1
  Ni  Ni5  1  0.50000000  0.50000000  0.50000000  1
  Ni  Ni6  1  0.50000000  0.00000000  0.00000000  1
  Ni  Ni7  1  0.00000000  0.50000000  0.00000000  1
  O  O0  1  0.70687600  0.61961100  0.51747700  1
  O  O1  1  0.29312400  0.38038900  0.48252300  1
  O  O2  1  0.79312400  0.81060100  0.41273500  1
  O  O3  1  0.39786600  0.88038900  0.08726500  1
  O  O4  1  0.61961100  0.51747700  0.70687600  1
  O  O5  1  0.70687600  0.08726500  0.68939900  1
  O  O6  1  0.20687600  0.18939900  0.58726500  1
  O  O7  1  0.60213400  0.11961100  0.91273500  1
  O  O8  1  0.38038900  0.48252300  0.29312400  1
  O  O9  1  0.29312400  0.91273500  0.31060100  1
  O  O10  1  0.10213400  0.68939900  0.98252300  1
  O  O11  1  0.81060100  0.41273500  0.79312400  1
  O  O12  1  0.79312400  0.98252300  0.88038900  1
  O  O13  1  0.89786600  0.31060100  0.01747700  1
  O  O14  1  0.18939900  0.58726500  0.20687600  1
  O  O15  1  0.20687600  0.01747700  0.11961100  1
  O  O16  1  0.88038900  0.08726500  0.39786600  1
  O  O17  1  0.39786600  0.51747700  0.81060100  1
  O  O18  1  0.11961100  0.91273500  0.60213400  1
  O  O19  1  0.60213400  0.48252300  0.18939900  1
  O  O20  1  0.68939900  0.98252300  0.10213400  1
  O  O21  1  0.10213400  0.41273500  0.61961100  1
  O  O22  1  0.31060100  0.01747700  0.89786600  1
  O  O23  1  0.89786600  0.58726500  0.38038900  1
  O  O24  1  0.51747700  0.70687600  0.61961100  1
  O  O25  1  0.61961100  0.10213400  0.41273500  1
  O  O26  1  0.48252300  0.29312400  0.38038900  1
  O  O27  1  0.38038900  0.89786600  0.58726500  1
  O  O28  1  0.08726500  0.39786600  0.88038900  1
  O  O29  1  0.88038900  0.79312400  0.98252300  1
  O  O30  1  0.91273500  0.60213400  0.11961100  1
  O  O31  1  0.11961100  0.20687600  0.01747700  1
  O  O32  1  0.98252300  0.10213400  0.68939900  1
  O  O33  1  0.68939900  0.70687600  0.08726500  1
  O  O34  1  0.01747700  0.89786600  0.31060100  1
  O  O35  1  0.31060100  0.29312400  0.91273500  1
  O  O36  1  0.41273500  0.79312400  0.81060100  1
  O  O37  1  0.81060100  0.39786600  0.51747700  1
  O  O38  1  0.58726500  0.20687600  0.18939900  1
  O  O39  1  0.18939900  0.60213400  0.48252300  1
  O  O40  1  0.08726500  0.68939900  0.70687600  1
  O  O41  1  0.91273500  0.31060100  0.29312400  1
  O  O42  1  0.98252300  0.88038900  0.79312400  1
  O  O43  1  0.01747700  0.11961100  0.20687600  1
  O  O44  1  0.41273500  0.61961100  0.10213400  1
  O  O45  1  0.58726500  0.38038900  0.89786600  1
  O  O46  1  0.51747700  0.81060100  0.39786600  1
  O  O47  1  0.48252300  0.18939900  0.60213400  1
loop_
_geom_bond_atom_site_label_1
_geom_bond_atom_site_label_2
_geom_bond_distance
_geom_bond_site_symmetry_2
Ca0 O40 2.427508 1_655
Ca0 O4 2.427508 1_555
Ca0 O42 2.427508 1_555
Ca0 O11 2.427508 1_555
Ca0 O10 2.545202 1_655
Ca0 O37 2.545202 1_555
Ca0 O29 2.545202 1_555
Ca0 O0 2.545202 1_555
Ca1 O8 2.427508 1_555
Ca1 O43 2.427508 1_555
Ca1 O41 2.427508 1_455
Ca1 O14 2.427508 1_555
Ca1 O13 2.545202 1_455
Ca1 O39 2.545202 1_555
Ca1 O31 2.545202 1_555
Ca1 O1 2.545202 1_555
Ca2 O44 2.427508 1_555
Ca2 O16 2.427508 1_565
Ca2 O46 2.427508 1_555
Ca2 O20 2.427508 1_555
Ca2 O25 2.545202 1_565
Ca2 O3 2.545202 1_555
Ca2 O2 2.545202 1_555
Ca2 O33 2.545202 1_555
Ca3 O29 2.427508 1_555
Ca3 O24 2.427508 1_555
Ca3 O33 2.427508 1_556
Ca3 O36 2.427508 1_555
Ca3 O17 2.545202 1_555
Ca3 O20 2.545202 1_556
Ca3 O12 2.545202 1_555
Ca3 O4 2.545202 1_555
Ca4 O25 2.427508 1_555
Ca4 O28 2.427508 1_655
Ca4 O37 2.427508 1_555
Ca4 O32 2.427508 1_555
Ca4 O16 2.545202 1_555
Ca4 O21 2.545202 1_655
Ca4 O11 2.545202 1_555
Ca4 O5 2.545202 1_555
Ca5 O18 2.427508 1_545
Ca5 O45 2.427508 1_555
Ca5 O22 2.427508 1_555
Ca5 O47 2.427508 1_555
Ca5 O27 2.545202 1_545
Ca5 O7 2.545202 1_555
Ca5 O6 2.545202 1_555
Ca5 O35 2.545202 1_555
Ca6 O31 2.427508 1_555
Ca6 O26 2.427508 1_555
Ca6 O35 2.427508 1_554
Ca6 O38 2.427508 1_555
Ca6 O19 2.545202 1_555
Ca6 O22 2.545202 1_554
Ca6 O15 2.545202 1_555
Ca6 O8 2.545202 1_555
Ca7 O27 2.427508 1_555
Ca7 O30 2.427508 1_455
Ca7 O39 2.427508 1_555
Ca7 O34 2.427508 1_555
Ca7 O23 2.545202 1_455
Ca7 O14 2.545202 1_555
Ca7 O18 2.545202 1_555
Ca7 O9 2.545202 1_555
Ca8 O5 2.427508 1_565
Ca8 O0 2.427508 1_555
Ca8 O12 2.427508 1_555
Ca8 O2 2.427508 1_555
Ca8 O32 2.545202 1_565
Ca8 O46 2.545202 1_555
Ca8 O42 2.545202 1_555
Ca8 O24 2.545202 1_555
Ca9 O15 2.427508 1_555
Ca9 O9 2.427508 1_545
Ca9 O1 2.427508 1_555
Ca9 O6 2.427508 1_555
Ca9 O47 2.545202 1_555
Ca9 O26 2.545202 1_555
Ca9 O34 2.545202 1_545
Ca9 O43 2.545202 1_555
Ca10 O3 2.427508 1_556
Ca10 O21 2.427508 1_555
Ca10 O10 2.427508 1_555
Ca10 O17 2.427508 1_555
Ca10 O44 2.545202 1_556
Ca10 O40 2.545202 1_555
Ca10 O28 2.545202 1_555
Ca10 O36 2.545202 1_555
Ca11 O23 2.427508 1_555
Ca11 O7 2.427508 1_554
Ca11 O19 2.427508 1_555
Ca11 O13 2.427508 1_555
Ca11 O45 2.545202 1_554
Ca11 O30 2.545202 1_555
Ca11 O41 2.545202 1_555
Ca11 O38 2.545202 1_555
Ni0 O42 2.093316 1_444
Ni0 O29 2.093316 1_444
Ni0 O43 2.093316 1_555
Ni0 O31 2.093316 1_555
Ni0 O12 2.093316 1_444
Ni0 O15 2.093316 1_555
Ni1 O46 2.093316 1_545
Ni1 O9 2.093316 1_545
Ni1 O5 2.093316 1_555
Ni1 O47 2.093316 1_555
Ni1 O25 2.093316 1_555
Ni1 O27 2.093316 1_545
Ni2 O17 2.093316 1_554
Ni2 O35 2.093316 1_554
Ni2 O33 2.093316 1_555
Ni2 O44 2.093316 1_555
Ni2 O19 2.093316 1_555
Ni2 O45 2.093316 1_554
Ni3 O2 2.093316 1_445
Ni3 O32 2.093316 1_455
Ni3 O6 2.093316 1_555
Ni3 O34 2.093316 1_545
Ni3 O18 2.093316 1_545
Ni3 O16 2.093316 1_455
Ni4 O37 2.093316 1_455
Ni4 O21 2.093316 1_555
Ni4 O40 2.093316 1_555
Ni4 O41 2.093316 1_455
Ni4 O23 2.093316 1_455
Ni4 O39 2.093316 1_555
Ni5 O4 2.093316 1_555
Ni5 O8 2.093316 1_555
Ni5 O0 2.093316 1_555
Ni5 O24 2.093316 1_555
Ni5 O26 2.093316 1_555
Ni5 O1 2.093316 1_555
Ni6 O36 2.093316 1_544
Ni6 O20 2.093316 1_545
Ni6 O22 2.093316 1_554
Ni6 O38 2.093316 1_555
Ni6 O3 2.093316 1_545
Ni6 O7 2.093316 1_554
Ni7 O10 2.093316 1_554
Ni7 O11 2.093316 1_454
Ni7 O14 2.093316 1_555
Ni7 O13 2.093316 1_455
Ni7 O28 2.093316 1_554
Ni7 O30 2.093316 1_455
O0 V8 1.773665 1_555
O1 V9 1.773665 1_555
O2 V8 1.773665 1_555
O3 V10 1.773665 1_555
O4 V0 1.773665 1_555
O5 V11 1.773665 1_555
O6 V9 1.773665 1_555
O7 V11 1.773665 1_555
O8 V1 1.773665 1_555
O9 V10 1.773665 1_555
O10 V10 1.773665 1_556
O11 V0 1.773665 1_555
O12 V11 1.773665 1_565
O13 V11 1.773665 1_554
O14 V1 1.773665 1_555
O15 V10 1.773665 1_545
O16 V2 1.773665 1_555
O17 V9 1.773665 1_555
O18 V5 1.773665 1_555
O19 V8 1.773665 1_555
O20 V2 1.773665 1_565
O21 V9 1.773665 1_555
O22 V5 1.773665 1_545
O23 V8 1.773665 1_555
O24 V3 1.773665 1_555
O25 V4 1.773665 1_555
O26 V4 1.773665 1_555
O27 V3 1.773665 1_555
O28 V6 1.773665 1_555
O29 V7 1.773665 1_556
O30 V7 1.773665 1_555
O31 V6 1.773665 1_554
O32 V6 1.773665 1_655
O33 V7 1.773665 1_555
O34 V7 1.773665 1_455
O35 V6 1.773665 1_555
O36 V3 1.773665 1_555
O37 V4 1.773665 1_555
O38 V4 1.773665 1_555
O39 V3 1.773665 1_555
O40 V5 1.773665 1_555
O41 V2 1.773665 1_555
O42 V5 1.773665 1_655
O43 V2 1.773665 1_455
O44 V1 1.773665 1_555
O45 V0 1.773665 1_555
O46 V1 1.773665 1_555
O47 V0 1.773665 1_555
