# generated using pymatgen
data_Nd2Si2O7
_symmetry_space_group_name_H-M   'P 1'
_cell_length_a   6.73920506
_cell_length_b   6.73920506
_cell_length_c   24.51274893
_cell_angle_alpha   90.00000000
_cell_angle_beta   90.00000000
_cell_angle_gamma   90.00000000
_symmetry_Int_Tables_number   1
_chemical_formula_structural   Nd2Si2O7
_chemical_formula_sum   'Nd16 Si16 O56'
_cell_volume   1113.29269528
_cell_formula_units_Z   8
loop_
 _symmetry_equiv_pos_site_id
 _symmetry_equiv_pos_as_xyz
  1  'x, y, z'
loop_
 _atom_site_type_symbol
 _atom_site_label
 _atom_site_symmetry_multiplicity
 _atom_site_fract_x
 _atom_site_fract_y
 _atom_site_fract_z
 _atom_site_occupancy
  Nd  Nd0  1  0.25892529  0.20461361  0.15476405  1
  Nd  Nd1  1  0.79538639  0.25892529  0.40476405  1
  Nd  Nd2  1  0.20461361  0.74107471  0.90476405  1
  Nd  Nd3  1  0.74107471  0.79538639  0.65476405  1
  Nd  Nd4  1  0.01939167  0.33688251  0.00592609  1
  Nd  Nd5  1  0.66311749  0.01939167  0.25592609  1
  Nd  Nd6  1  0.33688251  0.98060833  0.75592609  1
  Nd  Nd7  1  0.98060833  0.66311749  0.50592609  1
  Nd  Nd8  1  0.83300584  0.58069692  0.15346170  1
  Nd  Nd9  1  0.41930308  0.83300584  0.40346170  1
  Nd  Nd10  1  0.58069692  0.16699416  0.90346170  1
  Nd  Nd11  1  0.16699416  0.41930308  0.65346170  1
  Nd  Nd12  1  0.62402760  0.74231345  0.01420738  1
  Nd  Nd13  1  0.25768655  0.62402760  0.26420738  1
  Nd  Nd14  1  0.74231345  0.37597240  0.76420738  1
  Nd  Nd15  1  0.37597240  0.25768655  0.51420738  1
  Si  Si0  1  0.50475676  0.21135898  0.03278923  1
  Si  Si1  1  0.78864102  0.50475676  0.28278923  1
  Si  Si2  1  0.21135898  0.49524324  0.78278923  1
  Si  Si3  1  0.49524324  0.78864102  0.53278923  1
  Si  Si4  1  0.09761246  0.80694188  0.04067209  1
  Si  Si5  1  0.19305812  0.09761246  0.29067209  1
  Si  Si6  1  0.80694188  0.90238754  0.79067209  1
  Si  Si7  1  0.90238754  0.19305812  0.54067209  1
  Si  Si8  1  0.75830463  0.12324571  0.13173021  1
  Si  Si9  1  0.87675429  0.75830463  0.38173021  1
  Si  Si10  1  0.12324571  0.24169537  0.88173021  1
  Si  Si11  1  0.24169537  0.87675429  0.63173021  1
  Si  Si12  1  0.34923374  0.73958839  0.13889159  1
  Si  Si13  1  0.26041161  0.34923374  0.38889159  1
  Si  Si14  1  0.73958839  0.65076626  0.88889159  1
  Si  Si15  1  0.65076626  0.26041161  0.63889159  1
  O  O0  1  0.26081429  0.37953636  0.92173764  1
  O  O1  1  0.62046364  0.26081429  0.17173764  1
  O  O2  1  0.37953636  0.73918571  0.67173764  1
  O  O3  1  0.73918571  0.62046364  0.42173764  1
  O  O4  1  0.45746723  0.04798106  0.98638324  1
  O  O5  1  0.95201894  0.45746723  0.23638324  1
  O  O6  1  0.04798106  0.54253277  0.73638324  1
  O  O7  1  0.54253277  0.95201894  0.48638324  1
  O  O8  1  0.97628224  0.98497395  0.01343569  1
  O  O9  1  0.01502605  0.97628224  0.26343569  1
  O  O10  1  0.98497395  0.02371776  0.76343569  1
  O  O11  1  0.02371776  0.01502605  0.51343569  1
  O  O12  1  0.62027878  0.06741170  0.07838860  1
  O  O13  1  0.93258830  0.62027878  0.32838860  1
  O  O14  1  0.06741170  0.37972122  0.82838860  1
  O  O15  1  0.37972122  0.93258830  0.57838860  1
  O  O16  1  0.21539240  0.88033136  0.09707394  1
  O  O17  1  0.11966864  0.21539240  0.34707394  1
  O  O18  1  0.88033136  0.78460760  0.84707394  1
  O  O19  1  0.78460760  0.11966864  0.59707394  1
  O  O20  1  0.82626756  0.92919445  0.16445689  1
  O  O21  1  0.31010089  0.29840702  0.06158912  1
  O  O22  1  0.07080555  0.82626756  0.41445689  1
  O  O23  1  0.17373244  0.07080555  0.66445689  1
  O  O24  1  0.93330468  0.64052283  0.06002776  1
  O  O25  1  0.35947717  0.93330468  0.31002776  1
  O  O26  1  0.64052283  0.06669532  0.81002776  1
  O  O27  1  0.06669532  0.35947717  0.56002776  1
  O  O28  1  0.26424790  0.05921783  0.86226431  1
  O  O29  1  0.94078217  0.26424790  0.11226431  1
  O  O30  1  0.05921783  0.73575210  0.61226431  1
  O  O31  1  0.73575210  0.94078217  0.36226431  1
  O  O32  1  0.74439505  0.30975435  0.50198764  1
  O  O33  1  0.69024565  0.74439505  0.75198764  1
  O  O34  1  0.30975435  0.25560495  0.25198764  1
  O  O35  1  0.25560495  0.69024565  0.00198764  1
  O  O36  1  0.43889593  0.21471826  0.41362209  1
  O  O37  1  0.78528174  0.43889593  0.66362209  1
  O  O38  1  0.21471826  0.56110407  0.16362209  1
  O  O39  1  0.56110407  0.78528174  0.91362209  1
  O  O40  1  0.46051113  0.34182017  0.60656564  1
  O  O41  1  0.65817983  0.46051113  0.85656564  1
  O  O42  1  0.34182017  0.53948887  0.35656564  1
  O  O43  1  0.53948887  0.65817983  0.10656564  1
  O  O44  1  0.11090507  0.38950562  0.43990489  1
  O  O45  1  0.61049438  0.11090507  0.68990489  1
  O  O46  1  0.38950562  0.88909493  0.18990489  1
  O  O47  1  0.88909493  0.61049438  0.93990489  1
  O  O48  1  0.34717463  0.62566399  0.50601221  1
  O  O49  1  0.37433601  0.34717463  0.75601221  1
  O  O50  1  0.62566399  0.65282537  0.25601221  1
  O  O51  1  0.65282537  0.37433601  0.00601221  1
  O  O52  1  0.68989911  0.70159298  0.56158912  1
  O  O53  1  0.29840702  0.68989911  0.81158912  1
  O  O54  1  0.70159298  0.31010089  0.31158912  1
  O  O55  1  0.92919445  0.17373244  0.91445689  1
loop_
_geom_bond_atom_site_label_1
_geom_bond_atom_site_label_2
_geom_bond_distance
_geom_bond_site_symmetry_2
Nd0 O21 2.394790 1_555
Nd0 O29 2.417375 1_455
Nd0 O38 2.430582 1_555
Nd0 O34 2.432109 1_555
Nd0 O46 2.457186 1_545
Nd0 O1 2.500601 1_555
Nd0 O16 2.619516 1_545
Nd1 O54 2.394790 1_555
Nd1 O31 2.417375 1_545
Nd1 O36 2.430582 1_555
Nd1 O32 2.432109 1_555
Nd1 O44 2.457186 1_655
Nd1 O3 2.500601 1_555
Nd1 O17 2.619516 1_655
Nd2 O53 2.394790 1_555
Nd2 O28 2.417375 1_565
Nd2 O39 2.430582 1_555
Nd2 O35 2.432109 1_556
Nd2 O47 2.457186 1_455
Nd2 O0 2.500601 1_555
Nd2 O18 2.619516 1_455
Nd3 O52 2.394790 1_555
Nd3 O30 2.417375 1_655
Nd3 O37 2.430582 1_555
Nd3 O33 2.432109 1_555
Nd3 O45 2.457186 1_565
Nd3 O2 2.500601 1_555
Nd3 O19 2.619516 1_565
Nd4 O8 2.396393 1_445
Nd4 O21 2.401506 1_555
Nd4 O51 2.483228 1_455
Nd4 O24 2.506523 1_455
Nd4 O55 2.570152 1_454
Nd4 O47 2.605803 1_454
Nd4 O0 2.643589 1_554
Nd4 O29 2.704597 1_455
Nd4 O35 2.866084 1_555
Nd5 O9 2.396393 1_645
Nd5 O54 2.401506 1_555
Nd5 O50 2.483228 1_545
Nd5 O25 2.506523 1_545
Nd5 O20 2.570152 1_545
Nd5 O46 2.605803 1_545
Nd5 O1 2.643589 1_555
Nd5 O31 2.704597 1_545
Nd5 O34 2.866084 1_555
Nd6 O10 2.396393 1_465
Nd6 O53 2.401506 1_555
Nd6 O49 2.483228 1_565
Nd6 O26 2.506523 1_565
Nd6 O23 2.570152 1_565
Nd6 O45 2.605803 1_565
Nd6 O2 2.643589 1_555
Nd6 O28 2.704597 1_565
Nd6 O33 2.866084 1_555
Nd7 O11 2.396393 1_665
Nd7 O52 2.401506 1_555
Nd7 O48 2.483228 1_655
Nd7 O27 2.506523 1_655
Nd7 O22 2.570152 1_655
Nd7 O44 2.605803 1_655
Nd7 O3 2.643589 1_555
Nd7 O30 2.704597 1_655
Nd7 O32 2.866084 1_555
Nd8 O5 2.337643 1_555
Nd8 O43 2.346678 1_555
Nd8 O20 2.364447 1_555
Nd8 O24 2.421780 1_555
Nd8 O29 2.468890 1_555
Nd8 O38 2.587838 1_655
Nd8 O1 2.626718 1_555
Nd8 O50 2.916839 1_555
Nd9 O7 2.337643 1_555
Nd9 O42 2.346678 1_555
Nd9 O22 2.364447 1_555
Nd9 O25 2.421780 1_555
Nd9 O31 2.468890 1_555
Nd9 O36 2.587838 1_565
Nd9 O3 2.626718 1_555
Nd9 O48 2.916839 1_555
Nd10 O4 2.337643 1_555
Nd10 O41 2.346678 1_555
Nd10 O55 2.364447 1_555
Nd10 O26 2.421780 1_555
Nd10 O28 2.468890 1_555
Nd10 O39 2.587838 1_545
Nd10 O0 2.626718 1_555
Nd10 O51 2.916839 1_556
Nd11 O6 2.337643 1_555
Nd11 O40 2.346678 1_555
Nd11 O23 2.364447 1_555
Nd11 O27 2.421780 1_555
Nd11 O30 2.468890 1_555
Nd11 O37 2.587838 1_455
Nd11 O2 2.626718 1_555
Nd11 O49 2.916839 1_555
Nd12 O43 2.402407 1_555
Nd12 O4 2.443068 1_564
Nd12 O24 2.465025 1_555
Nd12 O51 2.495556 1_555
Nd12 O39 2.518525 1_554
Nd12 O35 2.525376 1_555
Nd12 O12 2.697376 1_565
Nd12 O47 2.701397 1_554
Nd12 O8 2.882736 1_555
Nd13 O42 2.402407 1_555
Nd13 O5 2.443068 1_455
Nd13 O25 2.465025 1_555
Nd13 O50 2.495556 1_555
Nd13 O38 2.518525 1_555
Nd13 O34 2.525376 1_555
Nd13 O13 2.697376 1_455
Nd13 O46 2.701397 1_555
Nd13 O9 2.882736 1_555
Nd14 O41 2.402407 1_555
Nd14 O6 2.443068 1_655
Nd14 O26 2.465025 1_555
Nd14 O49 2.495556 1_555
Nd14 O37 2.518525 1_555
Nd14 O33 2.525376 1_555
Nd14 O14 2.697376 1_655
Nd14 O45 2.701397 1_555
Nd14 O10 2.882736 1_555
Nd15 O40 2.402407 1_555
Nd15 O7 2.443068 1_545
Nd15 O27 2.465025 1_555
Nd15 O48 2.495556 1_555
Nd15 O36 2.518525 1_555
Nd15 O32 2.525376 1_555
Nd15 O15 2.697376 1_545
Nd15 O44 2.701397 1_555
Nd15 O11 2.882736 1_555
O0 Si10 1.638354 1_555
O1 Si8 1.638354 1_555
O2 Si11 1.638354 1_555
O3 Si9 1.638354 1_555
O4 Si0 1.614882 1_556
O5 Si1 1.614882 1_555
O6 Si2 1.614882 1_555
O7 Si3 1.614882 1_555
O8 Si4 1.598071 1_655
O9 Si5 1.598071 1_565
O10 Si6 1.598071 1_545
O11 Si7 1.598071 1_455
O12 Si8 1.648185 1_555
O12 Si0 1.672298 1_555
O13 Si9 1.648185 1_555
O13 Si1 1.672298 1_555
O14 Si10 1.648185 1_555
O14 Si2 1.672298 1_555
O15 Si11 1.648185 1_555
O15 Si3 1.672298 1_555
O16 Si12 1.662522 1_555
O16 Si4 1.669170 1_555
O17 Si13 1.662522 1_555
O17 Si5 1.669170 1_555
O18 Si14 1.662522 1_555
O18 Si6 1.669170 1_555
O19 Si15 1.662522 1_555
O19 Si7 1.669170 1_555
O20 Si8 1.601109 1_565
O21 Si0 1.601066 1_555
O22 Si9 1.601109 1_455
O23 Si11 1.601109 1_545
O24 Si4 1.645925 1_655
O25 Si5 1.645925 1_565
O26 Si6 1.645925 1_545
O27 Si7 1.645925 1_455
O28 Si10 1.625712 1_555
O29 Si8 1.625712 1_555
O30 Si11 1.625712 1_555
O31 Si9 1.625712 1_555
O32 Si7 1.628302 1_555
O33 Si6 1.628302 1_555
O34 Si5 1.628302 1_555
O35 Si4 1.628302 1_555
O36 Si13 1.623612 1_555
O37 Si15 1.623612 1_555
O38 Si12 1.623612 1_555
O39 Si14 1.623612 1_555
O40 Si15 1.604009 1_555
O41 Si14 1.604009 1_555
O42 Si13 1.604009 1_555
O43 Si12 1.604009 1_555
O44 Si13 1.628655 1_555
O45 Si15 1.628655 1_555
O46 Si12 1.628655 1_555
O47 Si14 1.628655 1_555
O48 Si3 1.622624 1_555
O49 Si2 1.622624 1_555
O50 Si1 1.622624 1_555
O51 Si0 1.622624 1_555
O52 Si3 1.601066 1_555
O53 Si2 1.601066 1_555
O54 Si1 1.601066 1_555
O55 Si10 1.601109 1_655
