# generated using pymatgen
data_ErSbO4
_symmetry_space_group_name_H-M   'P 1'
_cell_length_a   5.29735686
_cell_length_b   7.54655613
_cell_length_c   7.43056554
_cell_angle_alpha   81.37962189
_cell_angle_beta   90.34544499
_cell_angle_gamma   91.93022309
_symmetry_Int_Tables_number   1
_chemical_formula_structural   ErSbO4
_chemical_formula_sum   'Er4 Sb4 O16'
_cell_volume   293.52771217
_cell_formula_units_Z   4
loop_
 _symmetry_equiv_pos_site_id
 _symmetry_equiv_pos_as_xyz
  1  'x, y, z'
loop_
 _atom_site_type_symbol
 _atom_site_label
 _atom_site_symmetry_multiplicity
 _atom_site_fract_x
 _atom_site_fract_y
 _atom_site_fract_z
 _atom_site_occupancy
  Er  Er0  1  0.26407945  0.13255224  0.61409403  1
  Er  Er1  1  0.73592055  0.86744776  0.38590597  1
  Er  Er2  1  0.21441607  0.15556389  0.10974158  1
  Er  Er3  1  0.78558393  0.84443611  0.89025842  1
  Sb  Sb0  1  0.23803827  0.66401500  0.19409487  1
  Sb  Sb1  1  0.76196173  0.33598500  0.80590513  1
  Sb  Sb2  1  0.72439912  0.33596749  0.30869965  1
  Sb  Sb3  1  0.27560088  0.66403251  0.69130035  1
  O  O0  1  0.08899364  0.43375793  0.68908770  1
  O  O1  1  0.91100636  0.56624207  0.31091230  1
  O  O2  1  0.60684709  0.32698426  0.56120049  1
  O  O3  1  0.39315291  0.67301574  0.43879951  1
  O  O4  1  0.87460607  0.33076544  0.06229090  1
  O  O5  1  0.12539393  0.66923456  0.93770910  1
  O  O6  1  0.40046248  0.43106619  0.19380087  1
  O  O7  1  0.59953752  0.56893381  0.80619913  1
  O  O8  1  0.03867517  0.88689647  0.17383999  1
  O  O9  1  0.96132483  0.11310353  0.82616001  1
  O  O10  1  0.50871942  0.11040444  0.32344810  1
  O  O11  1  0.49128058  0.88959556  0.67655190  1
  O  O12  1  0.46776966  0.18501384  0.88028254  1
  O  O13  1  0.53223034  0.81498616  0.11971746  1
  O  O14  1  0.99357665  0.16946633  0.38370175  1
  O  O15  1  0.00642335  0.83053367  0.61629825  1
loop_
_geom_bond_atom_site_label_1
_geom_bond_atom_site_label_2
_geom_bond_distance
_geom_bond_site_symmetry_2
Er0 O11 2.216408 1_545
Er0 O14 2.217217 1_455
Er0 O9 2.240993 1_455
Er0 O2 2.293614 1_555
Er0 O12 2.326686 1_555
Er0 O10 2.555016 1_555
Er0 O15 2.614857 1_545
Er0 O0 2.620221 1_555
Er1 O10 2.216408 1_565
Er1 O15 2.217217 1_655
Er1 O8 2.240993 1_655
Er1 O3 2.293614 1_555
Er1 O13 2.326686 1_555
Er1 O11 2.555016 1_555
Er1 O14 2.614857 1_565
Er1 O1 2.620221 1_555
Er2 O12 2.156758 1_554
Er2 O8 2.189306 1_545
Er2 O10 2.216313 1_555
Er2 O4 2.264004 1_455
Er2 O14 2.371622 1_455
Er2 O6 2.434731 1_555
Er2 O9 2.545538 1_454
Er3 O13 2.156758 1_556
Er3 O9 2.189306 1_565
Er3 O11 2.216313 1_555
Er3 O5 2.264004 1_655
Er3 O15 2.371622 1_655
Er3 O7 2.434731 1_555
Er3 O8 2.545538 1_656
O0 Sb3 1.972303 1_555
O0 Sb1 2.009759 1_455
O1 Sb2 1.972303 1_555
O1 Sb0 2.009759 1_655
O2 Sb2 1.971218 1_555
O2 Sb1 2.000310 1_555
O3 Sb3 1.971218 1_555
O3 Sb0 2.000310 1_555
O4 Sb1 1.988058 1_554
O4 Sb2 2.007062 1_555
O5 Sb0 1.988058 1_556
O5 Sb3 2.007062 1_555
O6 Sb0 1.983387 1_555
O6 Sb2 2.017488 1_555
O7 Sb1 1.983387 1_555
O7 Sb3 2.017488 1_555
O8 Sb0 2.002232 1_555
O9 Sb1 2.002232 1_555
O10 Sb2 2.007369 1_555
O11 Sb3 2.007369 1_555
O12 Sb1 1.932415 1_555
O13 Sb0 1.932415 1_555
O14 Sb2 1.955474 1_555
O15 Sb3 1.955474 1_555
