# generated using pymatgen
data_Cs2CuPb(NO2)6
_symmetry_space_group_name_H-M   'P 1'
_cell_length_a   7.86004200
_cell_length_b   7.86004200
_cell_length_c   7.86004200
_cell_angle_alpha   60.00000000
_cell_angle_beta   60.00000000
_cell_angle_gamma   60.00000000
_symmetry_Int_Tables_number   1
_chemical_formula_structural   Cs2CuPb(NO2)6
_chemical_formula_sum   'Cs2 Cu1 Pb1 N6 O12'
_cell_volume   343.36782899
_cell_formula_units_Z   1
loop_
 _symmetry_equiv_pos_site_id
 _symmetry_equiv_pos_as_xyz
  1  'x, y, z'
loop_
 _atom_site_type_symbol
 _atom_site_label
 _atom_site_symmetry_multiplicity
 _atom_site_fract_x
 _atom_site_fract_y
 _atom_site_fract_z
 _atom_site_occupancy
  Cs  Cs0  1  0.25000000  0.25000000  0.25000000  1
  Cs  Cs1  1  0.75000000  0.75000000  0.75000000  1
  Cu  Cu0  1  0.00000000  0.00000000  0.00000000  1
  Pb  Pb0  1  0.50000000  0.50000000  0.50000000  1
  N  N0  1  0.80552500  0.19447500  0.19447500  1
  N  N1  1  0.19447500  0.80552500  0.80552500  1
  N  N2  1  0.19447500  0.19447500  0.80552500  1
  N  N3  1  0.80552500  0.80552500  0.19447500  1
  N  N4  1  0.19447500  0.80552500  0.19447500  1
  N  N5  1  0.80552500  0.19447500  0.80552500  1
  O  O0  1  0.84268900  0.15731100  0.34956300  1
  O  O1  1  0.15731100  0.84268900  0.65043700  1
  O  O2  1  0.34956300  0.65043700  0.84268900  1
  O  O3  1  0.65043700  0.34956300  0.15731100  1
  O  O4  1  0.15731100  0.34956300  0.84268900  1
  O  O5  1  0.34956300  0.15731100  0.65043700  1
  O  O6  1  0.84268900  0.65043700  0.15731100  1
  O  O7  1  0.65043700  0.84268900  0.34956300  1
  O  O8  1  0.34956300  0.84268900  0.15731100  1
  O  O9  1  0.84268900  0.34956300  0.65043700  1
  O  O10  1  0.15731100  0.65043700  0.34956300  1
  O  O11  1  0.65043700  0.15731100  0.84268900  1
loop_
_geom_bond_atom_site_label_1
_geom_bond_atom_site_label_2
_geom_bond_distance
_geom_bond_site_symmetry_2
Cs0 O6 3.263366 1_455
Cs0 O0 3.263366 1_455
Cs0 O8 3.263366 1_545
Cs0 O11 3.263366 1_554
Cs0 O4 3.263366 1_554
Cs0 O9 3.263366 1_455
Cs0 O1 3.263366 1_545
Cs0 O5 3.263366 1_555
Cs0 O2 3.263366 1_554
Cs0 O7 3.263366 1_545
Cs0 O3 3.263366 1_555
Cs0 O10 3.263366 1_555
Cs1 O2 3.263366 1_555
Cs1 O1 3.263366 1_655
Cs1 O8 3.263366 1_556
Cs1 O0 3.263366 1_565
Cs1 O4 3.263366 1_655
Cs1 O3 3.263366 1_556
Cs1 O11 3.263366 1_565
Cs1 O9 3.263366 1_555
Cs1 O5 3.263366 1_565
Cs1 O7 3.263366 1_555
Cs1 O10 3.263366 1_655
Cs1 O6 3.263366 1_556
Cu0 N1 2.161741 1_544
Cu0 N3 2.161741 1_445
Cu0 N5 2.161741 1_454
Cu0 N2 2.161741 1_554
Cu0 N0 2.161741 1_455
Cu0 N4 2.161741 1_545
N0 O0 1.253509 1_555
N0 O3 1.253509 1_555
N1 O2 1.253509 1_555
N1 O1 1.253509 1_555
N2 O4 1.253509 1_555
N2 O5 1.253509 1_555
N3 O7 1.253509 1_555
N3 O6 1.253509 1_555
N4 O8 1.253509 1_555
N4 O10 1.253509 1_555
N5 O9 1.253509 1_555
N5 O11 1.253509 1_555
