# generated using pymatgen
data_Na4TeH10(SeO8)2
_symmetry_space_group_name_H-M   'P 1'
_cell_length_a   6.77183505
_cell_length_b   10.93069934
_cell_length_c   12.58262800
_cell_angle_alpha   90.00000000
_cell_angle_beta   90.00000000
_cell_angle_gamma   114.95168006
_symmetry_Int_Tables_number   1
_chemical_formula_structural   Na4TeH10(SeO8)2
_chemical_formula_sum   'Na8 Te2 H20 Se4 O32'
_cell_volume   844.44620725
_cell_formula_units_Z   2
loop_
 _symmetry_equiv_pos_site_id
 _symmetry_equiv_pos_as_xyz
  1  'x, y, z'
loop_
 _atom_site_type_symbol
 _atom_site_label
 _atom_site_symmetry_multiplicity
 _atom_site_fract_x
 _atom_site_fract_y
 _atom_site_fract_z
 _atom_site_occupancy
  Na  Na0  1  0.10360600  0.20805000  0.71850000  1
  Na  Na1  1  0.89639400  0.79195000  0.28150000  1
  Na  Na2  1  0.58165500  0.16719700  0.97639100  1
  Na  Na3  1  0.58165500  0.66719700  0.52360900  1
  Na  Na4  1  0.89639400  0.29195000  0.21850000  1
  Na  Na5  1  0.10360600  0.70805000  0.78150000  1
  Na  Na6  1  0.41834500  0.33280300  0.47639100  1
  Na  Na7  1  0.41834500  0.83280300  0.02360900  1
  Te  Te0  1  0.00000000  0.50000000  0.00000000  1
  Te  Te1  1  0.00000000  0.00000000  0.50000000  1
  H  H0  1  0.97724200  0.98767200  0.12982100  1
  H  H1  1  0.97724200  0.48767200  0.37017900  1
  H  H2  1  0.02275800  0.51232800  0.62982100  1
  H  H3  1  0.04680200  0.83840100  0.61884400  1
  H  H4  1  0.02275800  0.01232800  0.87017900  1
  H  H5  1  0.21141800  0.70529500  0.44670000  1
  H  H6  1  0.21141800  0.20529500  0.05330000  1
  H  H7  1  0.28375000  0.24954600  0.93841800  1
  H  H8  1  0.95319800  0.66159900  0.11884400  1
  H  H9  1  0.04680200  0.33840100  0.88115600  1
  H  H10  1  0.93865400  0.95431500  0.75422400  1
  H  H11  1  0.28375000  0.74954600  0.56158200  1
  H  H12  1  0.95319800  0.16159900  0.38115600  1
  H  H13  1  0.78858200  0.29470500  0.55330000  1
  H  H14  1  0.78858200  0.79470500  0.94670000  1
  H  H15  1  0.71625000  0.25045400  0.43841800  1
  H  H16  1  0.06134600  0.04568500  0.24577600  1
  H  H17  1  0.71625000  0.75045400  0.06158200  1
  H  H18  1  0.93865400  0.45431500  0.74577600  1
  H  H19  1  0.06134600  0.54568500  0.25422400  1
  Se  Se0  1  0.49104400  0.00328800  0.72045100  1
  Se  Se1  1  0.50895600  0.99671200  0.27954900  1
  Se  Se2  1  0.49104400  0.50328800  0.77954900  1
  Se  Se3  1  0.50895600  0.49671200  0.22045100  1
  O  O0  1  0.32641700  0.35534300  0.83678900  1
  O  O1  1  0.10172100  0.39808400  0.08300800  1
  O  O2  1  0.67744700  0.89318700  0.44521000  1
  O  O3  1  0.67358300  0.64465700  0.16321100  1
  O  O4  1  0.23704200  0.16976400  0.98632100  1
  O  O5  1  0.89827900  0.60191600  0.91699200  1
  O  O6  1  0.40370000  0.48821500  0.65220600  1
  O  O7  1  0.23704200  0.66976400  0.51367900  1
  O  O8  1  0.34468100  0.11482500  0.66983900  1
  O  O9  1  0.65531900  0.88517500  0.33016100  1
  O  O10  1  0.59630000  0.51178500  0.34779400  1
  O  O11  1  0.91636000  0.00444800  0.81458500  1
  O  O12  1  0.59630000  0.01178500  0.15220600  1
  O  O13  1  0.08364000  0.99555200  0.18541500  1
  O  O14  1  0.76295800  0.83023600  0.01367900  1
  O  O15  1  0.34468100  0.61482500  0.83016100  1
  O  O16  1  0.67358300  0.14465700  0.33678900  1
  O  O17  1  0.76295800  0.33023600  0.48632100  1
  O  O18  1  0.91351400  0.35488300  0.88334800  1
  O  O19  1  0.10172100  0.89808400  0.41699200  1
  O  O20  1  0.32641700  0.85534300  0.66321100  1
  O  O21  1  0.32255300  0.10681300  0.55479000  1
  O  O22  1  0.08648600  0.64511700  0.11665200  1
  O  O23  1  0.08648600  0.14511700  0.38334800  1
  O  O24  1  0.40370000  0.98821500  0.84779400  1
  O  O25  1  0.08364000  0.49555200  0.31458500  1
  O  O26  1  0.91351400  0.85488300  0.61665200  1
  O  O27  1  0.67744700  0.39318700  0.05479000  1
  O  O28  1  0.65531900  0.38517500  0.16983900  1
  O  O29  1  0.91636000  0.50444800  0.68541500  1
  O  O30  1  0.89827900  0.10191600  0.58300800  1
  O  O31  1  0.32255300  0.60681300  0.94521000  1
loop_
_geom_bond_atom_site_label_1
_geom_bond_atom_site_label_2
_geom_bond_distance
_geom_bond_site_symmetry_2
Na0 O30 2.196528 1_455
Na0 O0 2.243760 1_555
Na0 O8 2.341359 1_555
Na0 O11 2.375187 1_455
Na1 O19 2.196528 1_655
Na1 O3 2.243760 1_555
Na1 O9 2.341359 1_555
Na1 O13 2.375187 1_655
Na2 O4 2.348963 1_555
Na2 O24 2.430799 1_545
Na2 O27 2.478705 1_556
Na2 O18 2.596132 1_555
Na2 O12 2.816321 1_556
Na3 O7 2.348963 1_555
Na3 O6 2.430799 1_555
Na3 O2 2.478705 1_555
Na3 O26 2.596132 1_555
Na3 O10 2.816321 1_555
Na4 O1 2.196528 1_655
Na4 O16 2.243760 1_555
Na4 O28 2.341359 1_555
Na4 O25 2.375187 1_655
Na5 O5 2.196528 1_455
Na5 O20 2.243760 1_555
Na5 O15 2.341359 1_555
Na5 O29 2.375187 1_455
Na6 O17 2.348963 1_555
Na6 O10 2.430799 1_555
Na6 O21 2.478705 1_555
Na6 O23 2.596132 1_555
Na6 O6 2.816321 1_555
Na7 O14 2.348963 1_555
Na7 O12 2.430799 1_565
Na7 O31 2.478705 1_554
Na7 O22 2.596132 1_555
Na7 O24 2.816321 1_554
H0 O13 0.981590 1_655
H1 O25 0.981590 1_655
H2 O29 0.981590 1_455
H3 O26 0.992527 1_455
H4 O11 0.981590 1_455
H5 O7 0.973690 1_555
H6 O4 0.973690 1_554
H7 O4 0.995557 1_555
H7 O0 1.665575 1_555
H8 O22 0.992527 1_655
H9 O18 0.992527 1_455
H10 O11 0.984746 1_565
H11 O7 0.995557 1_555
H11 O20 1.665575 1_555
H12 O23 0.992527 1_655
H13 O17 0.973690 1_555
H14 O14 0.973690 1_556
H15 O17 0.995557 1_555
H15 O16 1.665575 1_555
H16 O13 0.984746 1_545
H17 O14 0.995557 1_555
H17 O3 1.665575 1_555
H18 O29 0.984746 1_555
H19 O25 0.984746 1_555
O0 Se2 1.689868 1_555
O1 Te0 1.858455 1_555
O2 O9 1.454184 1_555
O2 Te1 2.111359 1_665
O3 Se3 1.689868 1_555
O5 Te0 1.858455 1_656
O6 Se2 1.691795 1_555
O8 Se0 1.973282 1_555
O9 Se1 1.973282 1_555
O10 Se3 1.691795 1_555
O12 Se1 1.691795 1_545
O15 O31 1.454184 1_555
O15 Se2 1.973282 1_555
O16 Se1 1.689868 1_545
O18 Te0 2.056631 1_656
O19 Te1 1.858455 1_565
O20 Se0 1.689868 1_565
O21 O8 1.454184 1_555
O21 Te1 2.111359 1_555
O22 Te0 2.056631 1_555
O23 Te1 2.056631 1_555
O24 Se0 1.691795 1_565
O26 Te1 2.056631 1_665
O27 O28 1.454184 1_555
O27 Te0 2.111359 1_655
O28 Se3 1.973282 1_555
O30 Te1 1.858455 1_655
O31 Te0 2.111359 1_556
