# generated using pymatgen
data_Li(NiO2)4
_symmetry_space_group_name_H-M   'P 1'
_cell_length_a   5.67495963
_cell_length_b   5.67495963
_cell_length_c   5.27911428
_cell_angle_alpha   73.55564264
_cell_angle_beta   73.55564264
_cell_angle_gamma   59.10847116
_symmetry_Int_Tables_number   1
_chemical_formula_structural   Li(NiO2)4
_chemical_formula_sum   'Li1 Ni4 O8'
_cell_volume   137.95511662
_cell_formula_units_Z   1
loop_
 _symmetry_equiv_pos_site_id
 _symmetry_equiv_pos_as_xyz
  1  'x, y, z'
loop_
 _atom_site_type_symbol
 _atom_site_label
 _atom_site_symmetry_multiplicity
 _atom_site_fract_x
 _atom_site_fract_y
 _atom_site_fract_z
 _atom_site_occupancy
  Li  Li0  1  0.00000000  0.00000000  0.50000000  1
  Ni  Ni0  1  0.74825300  0.74825300  0.01095300  1
  Ni  Ni1  1  0.25016100  0.74983900  0.00000000  1
  Ni  Ni2  1  0.74983900  0.25016100  0.00000000  1
  Ni  Ni3  1  0.25174700  0.25174700  0.98904700  1
  O  O0  1  0.61087700  0.61087700  0.80427500  1
  O  O1  1  0.11342100  0.62803500  0.80944000  1
  O  O2  1  0.62803500  0.11342100  0.80944000  1
  O  O3  1  0.10789400  0.10789400  0.79428400  1
  O  O4  1  0.89210600  0.89210600  0.20571600  1
  O  O5  1  0.37196500  0.88657900  0.19056000  1
  O  O6  1  0.88657900  0.37196500  0.19056000  1
  O  O7  1  0.38912300  0.38912300  0.19572500  1
loop_
_geom_bond_atom_site_label_1
_geom_bond_atom_site_label_2
_geom_bond_distance
_geom_bond_site_symmetry_2
Li0 O3 2.150682 1_555
Li0 O4 2.150682 1_445
Li0 O2 2.187817 1_455
Li0 O6 2.187817 1_455
Li0 O5 2.187817 1_545
Li0 O1 2.187817 1_545
Ni0 O1 1.898064 1_654
Ni0 O2 1.898064 1_564
Ni0 O5 1.905006 1_555
Ni0 O6 1.905006 1_555
Ni0 O0 1.998317 1_554
Ni0 O4 2.006190 1_555
Ni1 O1 1.865057 1_554
Ni1 O5 1.865057 1_555
Ni1 O7 1.867114 1_555
Ni1 O0 1.867114 1_554
Ni1 O4 1.876849 1_455
Ni1 O3 1.876849 1_564
Ni2 O2 1.865057 1_554
Ni2 O6 1.865057 1_555
Ni2 O7 1.867114 1_555
Ni2 O0 1.867114 1_554
Ni2 O4 1.876849 1_545
Ni2 O3 1.876849 1_654
Ni3 O6 1.898064 1_456
Ni3 O5 1.898064 1_546
Ni3 O2 1.905006 1_555
Ni3 O1 1.905006 1_555
Ni3 O7 1.998317 1_556
Ni3 O3 2.006190 1_555
