# generated using pymatgen
data_NbRh
_symmetry_space_group_name_H-M   'P 1'
_cell_length_a   5.71724056
_cell_length_b   9.67990974
_cell_length_c   27.46954330
_cell_angle_alpha   90.00000000
_cell_angle_beta   90.00000000
_cell_angle_gamma   90.00000000
_symmetry_Int_Tables_number   1
_chemical_formula_structural   NbRh
_chemical_formula_sum   'Nb48 Rh48'
_cell_volume   1520.22969998
_cell_formula_units_Z   48
loop_
 _symmetry_equiv_pos_site_id
 _symmetry_equiv_pos_as_xyz
  1  'x, y, z'
loop_
 _atom_site_type_symbol
 _atom_site_label
 _atom_site_symmetry_multiplicity
 _atom_site_fract_x
 _atom_site_fract_y
 _atom_site_fract_z
 _atom_site_occupancy
  Nb  Nb0_0  1  0.00000000  0.02302706  0.12500806  1
  Nb  Nb0_1  1  0.00000000  0.02302706  0.62500806  1
  Nb  Nb0_2  1  0.00000000  0.52302706  0.12500806  1
  Nb  Nb0_3  1  0.00000000  0.52302706  0.62500806  1
  Nb  Nb0_4  1  0.50000000  0.02302706  0.12500806  1
  Nb  Nb0_5  1  0.50000000  0.02302706  0.62500806  1
  Nb  Nb0_6  1  0.50000000  0.52302706  0.12500806  1
  Nb  Nb0_7  1  0.50000000  0.52302706  0.62500806  1
  Nb  Nb1_0  1  0.00000000  0.47697294  0.37500806  1
  Nb  Nb1_1  1  0.00000000  0.47697294  0.87500806  1
  Nb  Nb1_2  1  0.00000000  0.97697294  0.37500806  1
  Nb  Nb1_3  1  0.00000000  0.97697294  0.87500806  1
  Nb  Nb1_4  1  0.50000000  0.47697294  0.37500806  1
  Nb  Nb1_5  1  0.50000000  0.47697294  0.87500806  1
  Nb  Nb1_6  1  0.50000000  0.97697294  0.37500806  1
  Nb  Nb1_7  1  0.50000000  0.97697294  0.87500806  1
  Nb  Nb2_0  1  0.00000000  0.16550787  0.29226159  1
  Nb  Nb2_1  1  0.00000000  0.16550787  0.79226160  1
  Nb  Nb2_2  1  0.00000000  0.66550787  0.29226159  1
  Nb  Nb2_3  1  0.00000000  0.66550787  0.79226160  1
  Nb  Nb2_4  1  0.50000000  0.16550787  0.29226159  1
  Nb  Nb2_5  1  0.50000000  0.16550787  0.79226160  1
  Nb  Nb2_6  1  0.50000000  0.66550787  0.29226159  1
  Nb  Nb2_7  1  0.50000000  0.66550787  0.79226160  1
  Nb  Nb3_0  1  0.00000000  0.33451262  0.20773016  1
  Nb  Nb3_1  1  0.00000000  0.33451262  0.70773016  1
  Nb  Nb3_2  1  0.00000000  0.83451262  0.20773016  1
  Nb  Nb3_3  1  0.00000000  0.83451262  0.70773016  1
  Nb  Nb3_4  1  0.50000000  0.33451262  0.20773016  1
  Nb  Nb3_5  1  0.50000000  0.33451262  0.70773016  1
  Nb  Nb3_6  1  0.50000000  0.83451262  0.20773016  1
  Nb  Nb3_7  1  0.50000000  0.83451262  0.70773016  1
  Nb  Nb4_0  1  0.00000000  0.16548738  0.45773017  1
  Nb  Nb4_1  1  0.00000000  0.16548738  0.95773017  1
  Nb  Nb4_2  1  0.00000000  0.66548738  0.45773017  1
  Nb  Nb4_3  1  0.00000000  0.66548738  0.95773017  1
  Nb  Nb4_4  1  0.50000000  0.16548738  0.45773017  1
  Nb  Nb4_5  1  0.50000000  0.16548738  0.95773017  1
  Nb  Nb4_6  1  0.50000000  0.66548738  0.45773017  1
  Nb  Nb4_7  1  0.50000000  0.66548738  0.95773017  1
  Nb  Nb5_0  1  0.00000000  0.33449214  0.04226159  1
  Nb  Nb5_1  1  0.00000000  0.33449214  0.54226160  1
  Nb  Nb5_2  1  0.00000000  0.83449214  0.04226159  1
  Nb  Nb5_3  1  0.00000000  0.83449214  0.54226160  1
  Nb  Nb5_4  1  0.50000000  0.33449214  0.04226159  1
  Nb  Nb5_5  1  0.50000000  0.33449214  0.54226160  1
  Nb  Nb5_6  1  0.50000000  0.83449214  0.04226159  1
  Nb  Nb5_7  1  0.50000000  0.83449214  0.54226160  1
  Rh  Rh0_0  1  0.25000000  0.26680937  0.12500339  1
  Rh  Rh0_1  1  0.25000000  0.26680937  0.62500339  1
  Rh  Rh0_2  1  0.25000000  0.76680936  0.12500339  1
  Rh  Rh0_3  1  0.25000000  0.76680936  0.62500339  1
  Rh  Rh0_4  1  0.75000000  0.26680937  0.12500339  1
  Rh  Rh0_5  1  0.75000000  0.26680937  0.62500339  1
  Rh  Rh0_6  1  0.75000000  0.76680936  0.12500339  1
  Rh  Rh0_7  1  0.75000000  0.76680936  0.62500339  1
  Rh  Rh1_0  1  0.25000000  0.23319064  0.37500339  1
  Rh  Rh1_1  1  0.25000000  0.23319064  0.87500339  1
  Rh  Rh1_2  1  0.25000000  0.73319063  0.37500339  1
  Rh  Rh1_3  1  0.25000000  0.73319063  0.87500339  1
  Rh  Rh1_4  1  0.75000000  0.23319064  0.37500339  1
  Rh  Rh1_5  1  0.75000000  0.23319064  0.87500339  1
  Rh  Rh1_6  1  0.75000000  0.73319063  0.37500339  1
  Rh  Rh1_7  1  0.75000000  0.73319063  0.87500339  1
  Rh  Rh2_0  1  0.25000000  0.41468811  0.29140088  1
  Rh  Rh2_1  1  0.25000000  0.41468811  0.79140089  1
  Rh  Rh2_2  1  0.25000000  0.91468811  0.29140088  1
  Rh  Rh2_3  1  0.25000000  0.91468811  0.79140089  1
  Rh  Rh2_4  1  0.75000000  0.41468811  0.29140088  1
  Rh  Rh2_5  1  0.75000000  0.41468811  0.79140089  1
  Rh  Rh2_6  1  0.75000000  0.91468811  0.29140088  1
  Rh  Rh2_7  1  0.75000000  0.91468811  0.79140089  1
  Rh  Rh3_0  1  0.25000000  0.08532682  0.20859590  1
  Rh  Rh3_1  1  0.25000000  0.08532682  0.70859590  1
  Rh  Rh3_2  1  0.25000000  0.58532681  0.20859590  1
  Rh  Rh3_3  1  0.25000000  0.58532681  0.70859590  1
  Rh  Rh3_4  1  0.75000000  0.08532682  0.20859590  1
  Rh  Rh3_5  1  0.75000000  0.08532682  0.70859590  1
  Rh  Rh3_6  1  0.75000000  0.58532681  0.20859590  1
  Rh  Rh3_7  1  0.75000000  0.58532681  0.70859590  1
  Rh  Rh4_0  1  0.25000000  0.41467318  0.45859590  1
  Rh  Rh4_1  1  0.25000000  0.41467318  0.95859590  1
  Rh  Rh4_2  1  0.25000000  0.91467318  0.45859590  1
  Rh  Rh4_3  1  0.25000000  0.91467318  0.95859590  1
  Rh  Rh4_4  1  0.75000000  0.41467318  0.45859590  1
  Rh  Rh4_5  1  0.75000000  0.41467318  0.95859590  1
  Rh  Rh4_6  1  0.75000000  0.91467318  0.45859590  1
  Rh  Rh4_7  1  0.75000000  0.91467318  0.95859590  1
  Rh  Rh5_0  1  0.25000000  0.08531189  0.04140088  1
  Rh  Rh5_1  1  0.25000000  0.08531189  0.54140089  1
  Rh  Rh5_2  1  0.25000000  0.58531189  0.04140088  1
  Rh  Rh5_3  1  0.25000000  0.58531189  0.54140089  1
  Rh  Rh5_4  1  0.75000000  0.08531189  0.04140088  1
  Rh  Rh5_5  1  0.75000000  0.08531189  0.54140089  1
  Rh  Rh5_6  1  0.75000000  0.58531189  0.04140088  1
  Rh  Rh5_7  1  0.75000000  0.58531189  0.54140089  1
loop_
_geom_bond_atom_site_label_1
_geom_bond_atom_site_label_2
_geom_bond_distance
_geom_bond_site_symmetry_2
Nb0_0 Rh0_0 2.758902 1_555
Nb0_0 Rh0_4 2.758902 1_455
Nb0_0 Rh3_0 2.771059 1_555
Nb0_0 Rh3_4 2.771059 1_455
Nb0_0 Rh5_0 2.771468 1_555
Nb0_0 Rh5_4 2.771468 1_455
Nb0_0 Nb0_4 2.858620 1_555
Nb0_0 Nb0_4 2.858620 1_455
Nb0_0 Rh0_6 2.862541 1_445
Nb0_0 Rh0_2 2.862541 1_545
Nb0_0 Nb3_2 2.914348 1_545
Nb0_0 Nb5_2 2.914994 1_545
Nb0_1 Rh0_1 2.758902 1_555
Nb0_1 Rh0_5 2.758902 1_455
Nb0_1 Rh3_1 2.771059 1_555
Nb0_1 Rh3_5 2.771059 1_455
Nb0_1 Rh5_1 2.771468 1_555
Nb0_1 Rh5_5 2.771468 1_455
Nb0_1 Nb0_5 2.858620 1_555
Nb0_1 Nb0_5 2.858620 1_455
Nb0_1 Rh0_3 2.862541 1_545
Nb0_1 Rh0_7 2.862541 1_445
Nb0_1 Nb3_3 2.914348 1_545
Nb0_1 Nb5_3 2.914994 1_545
Nb0_2 Rh0_2 2.758902 1_555
Nb0_2 Rh0_6 2.758902 1_455
Nb0_2 Rh3_6 2.771059 1_455
Nb0_2 Rh3_2 2.771059 1_555
Nb0_2 Rh5_2 2.771468 1_555
Nb0_2 Rh5_6 2.771468 1_455
Nb0_2 Nb0_6 2.858620 1_555
Nb0_2 Nb0_6 2.858620 1_455
Nb0_2 Rh0_0 2.862541 1_555
Nb0_2 Rh0_4 2.862541 1_455
Nb0_2 Nb3_0 2.914348 1_555
Nb0_2 Nb5_0 2.914994 1_555
Nb0_3 Rh0_3 2.758902 1_555
Nb0_3 Rh0_7 2.758902 1_455
Nb0_3 Rh3_7 2.771059 1_455
Nb0_3 Rh3_3 2.771059 1_555
Nb0_3 Rh5_7 2.771468 1_455
Nb0_3 Rh5_3 2.771468 1_555
Nb0_3 Nb0_7 2.858620 1_455
Nb0_3 Nb0_7 2.858620 1_555
Nb0_3 Rh0_1 2.862541 1_555
Nb0_3 Rh0_5 2.862541 1_455
Nb0_3 Nb3_1 2.914348 1_555
Nb0_3 Nb5_1 2.914994 1_555
Nb0_4 Rh0_0 2.758902 1_555
Nb0_4 Rh0_4 2.758902 1_555
Nb0_4 Rh3_0 2.771059 1_555
Nb0_4 Rh3_4 2.771059 1_555
Nb0_4 Rh5_4 2.771468 1_555
Nb0_4 Rh5_0 2.771468 1_555
Nb0_4 Rh0_2 2.862541 1_545
Nb0_4 Rh0_6 2.862541 1_545
Nb0_4 Nb3_6 2.914348 1_545
Nb0_4 Nb5_6 2.914994 1_545
Nb0_5 Rh0_1 2.758902 1_555
Nb0_5 Rh0_5 2.758902 1_555
Nb0_5 Rh3_1 2.771059 1_555
Nb0_5 Rh3_5 2.771059 1_555
Nb0_5 Rh5_5 2.771468 1_555
Nb0_5 Rh5_1 2.771468 1_555
Nb0_5 Rh0_3 2.862541 1_545
Nb0_5 Rh0_7 2.862541 1_545
Nb0_5 Nb3_7 2.914348 1_545
Nb0_5 Nb5_7 2.914994 1_545
Nb0_6 Rh0_2 2.758902 1_555
Nb0_6 Rh0_6 2.758902 1_555
Nb0_6 Rh3_6 2.771059 1_555
Nb0_6 Rh3_2 2.771059 1_555
Nb0_6 Rh5_2 2.771468 1_555
Nb0_6 Rh5_6 2.771468 1_555
Nb0_6 Rh0_0 2.862541 1_555
Nb0_6 Rh0_4 2.862541 1_555
Nb0_6 Nb3_4 2.914348 1_555
Nb0_6 Nb5_4 2.914994 1_555
Nb0_7 Rh0_7 2.758902 1_555
Nb0_7 Rh0_3 2.758902 1_555
Nb0_7 Rh3_3 2.771059 1_555
Nb0_7 Rh3_7 2.771059 1_555
Nb0_7 Rh5_7 2.771468 1_555
Nb0_7 Rh5_3 2.771468 1_555
Nb0_7 Rh0_1 2.862541 1_555
Nb0_7 Rh0_5 2.862541 1_555
Nb0_7 Nb3_5 2.914348 1_555
Nb0_7 Nb5_5 2.914994 1_555
Nb1_0 Rh1_0 2.758902 1_555
Nb1_0 Rh1_4 2.758902 1_455
Nb1_0 Rh4_0 2.771059 1_555
Nb1_0 Rh4_4 2.771059 1_455
Nb1_0 Rh2_0 2.771468 1_555
Nb1_0 Rh2_4 2.771468 1_455
Nb1_0 Nb1_4 2.858620 1_455
Nb1_0 Nb1_4 2.858620 1_555
Nb1_0 Rh1_2 2.862541 1_555
Nb1_0 Rh1_6 2.862541 1_455
Nb1_0 Nb4_2 2.914348 1_555
Nb1_0 Nb2_2 2.914994 1_555
Nb1_1 Rh1_1 2.758902 1_555
Nb1_1 Rh1_5 2.758902 1_455
Nb1_1 Rh4_1 2.771059 1_555
Nb1_1 Rh4_5 2.771059 1_455
Nb1_1 Rh2_1 2.771468 1_555
Nb1_1 Rh2_5 2.771468 1_455
Nb1_1 Nb1_5 2.858620 1_455
Nb1_1 Nb1_5 2.858620 1_555
Nb1_1 Rh1_3 2.862541 1_555
Nb1_1 Rh1_7 2.862541 1_455
Nb1_1 Nb4_3 2.914348 1_555
Nb1_1 Nb2_3 2.914994 1_555
Nb1_2 Rh1_2 2.758902 1_555
Nb1_2 Rh1_6 2.758902 1_455
Nb1_2 Rh4_6 2.771059 1_455
Nb1_2 Rh4_2 2.771059 1_555
Nb1_2 Rh2_2 2.771468 1_555
Nb1_2 Rh2_6 2.771468 1_455
Nb1_2 Nb1_6 2.858620 1_555
Nb1_2 Nb1_6 2.858620 1_455
Nb1_2 Rh1_0 2.862541 1_565
Nb1_2 Rh1_4 2.862541 1_465
Nb1_2 Nb4_0 2.914348 1_565
Nb1_2 Nb2_0 2.914994 1_565
Nb1_3 Rh1_3 2.758902 1_555
Nb1_3 Rh1_7 2.758902 1_455
Nb1_3 Rh4_3 2.771059 1_555
Nb1_3 Rh4_7 2.771059 1_455
Nb1_3 Rh2_7 2.771468 1_455
Nb1_3 Rh2_3 2.771468 1_555
Nb1_3 Nb1_7 2.858620 1_455
Nb1_3 Nb1_7 2.858620 1_555
Nb1_3 Rh1_1 2.862541 1_565
Nb1_3 Rh1_5 2.862541 1_465
Nb1_3 Nb4_1 2.914348 1_565
Nb1_3 Nb2_1 2.914994 1_565
Nb1_4 Rh1_0 2.758902 1_555
Nb1_4 Rh1_4 2.758902 1_555
Nb1_4 Rh4_4 2.771059 1_555
Nb1_4 Rh4_0 2.771059 1_555
Nb1_4 Rh2_0 2.771468 1_555
Nb1_4 Rh2_4 2.771468 1_555
Nb1_4 Rh1_2 2.862541 1_555
Nb1_4 Rh1_6 2.862541 1_555
Nb1_4 Nb4_6 2.914348 1_555
Nb1_4 Nb2_6 2.914994 1_555
Nb1_5 Rh1_1 2.758902 1_555
Nb1_5 Rh1_5 2.758902 1_555
Nb1_5 Rh4_1 2.771059 1_555
Nb1_5 Rh4_5 2.771059 1_555
Nb1_5 Rh2_5 2.771468 1_555
Nb1_5 Rh2_1 2.771468 1_555
Nb1_5 Rh1_3 2.862541 1_555
Nb1_5 Rh1_7 2.862541 1_555
Nb1_5 Nb4_7 2.914348 1_555
Nb1_5 Nb2_7 2.914994 1_555
Nb1_6 Rh1_2 2.758902 1_555
Nb1_6 Rh1_6 2.758902 1_555
Nb1_6 Rh4_6 2.771059 1_555
Nb1_6 Rh4_2 2.771059 1_555
Nb1_6 Rh2_2 2.771468 1_555
Nb1_6 Rh2_6 2.771468 1_555
Nb1_6 Rh1_0 2.862541 1_565
Nb1_6 Rh1_4 2.862541 1_565
Nb1_6 Nb4_4 2.914348 1_565
Nb1_6 Nb2_4 2.914994 1_565
Nb1_7 Rh1_3 2.758902 1_555
Nb1_7 Rh1_7 2.758902 1_555
Nb1_7 Rh4_7 2.771059 1_555
Nb1_7 Rh4_3 2.771059 1_555
Nb1_7 Rh2_3 2.771468 1_555
Nb1_7 Rh2_7 2.771468 1_555
Nb1_7 Rh1_1 2.862541 1_565
Nb1_7 Rh1_5 2.862541 1_565
Nb1_7 Nb4_5 2.914348 1_565
Nb1_7 Nb2_5 2.914994 1_565
Nb2_0 Rh1_0 2.763720 1_555
Nb2_0 Rh1_4 2.763720 1_455
Nb2_0 Rh2_4 2.803825 1_455
Nb2_0 Rh2_0 2.803825 1_555
Nb2_0 Rh3_0 2.815550 1_555
Nb2_0 Rh3_4 2.815550 1_455
Nb2_0 Rh2_6 2.817489 1_445
Nb2_0 Rh2_2 2.817489 1_545
Nb2_0 Nb3_0 2.840458 1_555
Nb2_0 Nb2_4 2.858620 1_455
Nb2_0 Nb2_4 2.858620 1_555
Nb2_1 Rh1_5 2.763720 1_455
Nb2_1 Rh1_1 2.763720 1_555
Nb2_1 Rh2_1 2.803825 1_555
Nb2_1 Rh2_5 2.803825 1_455
Nb2_1 Rh3_1 2.815550 1_555
Nb2_1 Rh3_5 2.815550 1_455
Nb2_1 Rh2_3 2.817489 1_545
Nb2_1 Rh2_7 2.817489 1_445
Nb2_1 Nb3_1 2.840458 1_555
Nb2_1 Nb2_5 2.858620 1_455
Nb2_1 Nb2_5 2.858620 1_555
Nb2_2 Rh1_2 2.763720 1_555
Nb2_2 Rh1_6 2.763720 1_455
Nb2_2 Rh2_2 2.803825 1_555
Nb2_2 Rh2_6 2.803825 1_455
Nb2_2 Rh3_2 2.815550 1_555
Nb2_2 Rh3_6 2.815550 1_455
Nb2_2 Rh2_0 2.817489 1_555
Nb2_2 Rh2_4 2.817489 1_455
Nb2_2 Nb3_2 2.840458 1_555
Nb2_2 Nb2_6 2.858620 1_455
Nb2_2 Nb2_6 2.858620 1_555
Nb2_3 Rh1_3 2.763720 1_555
Nb2_3 Rh1_7 2.763720 1_455
Nb2_3 Rh2_3 2.803825 1_555
Nb2_3 Rh2_7 2.803825 1_455
Nb2_3 Rh3_3 2.815550 1_555
Nb2_3 Rh3_7 2.815550 1_455
Nb2_3 Rh2_1 2.817489 1_555
Nb2_3 Rh2_5 2.817489 1_455
Nb2_3 Nb3_3 2.840458 1_555
Nb2_3 Nb2_7 2.858620 1_455
Nb2_3 Nb2_7 2.858620 1_555
Nb2_4 Rh1_0 2.763720 1_555
Nb2_4 Rh1_4 2.763720 1_555
Nb2_4 Rh2_0 2.803825 1_555
Nb2_4 Rh2_4 2.803825 1_555
Nb2_4 Rh3_0 2.815550 1_555
Nb2_4 Rh3_4 2.815550 1_555
Nb2_4 Rh2_6 2.817489 1_545
Nb2_4 Rh2_2 2.817489 1_545
Nb2_4 Nb3_4 2.840458 1_555
Nb2_5 Rh1_5 2.763720 1_555
Nb2_5 Rh1_1 2.763720 1_555
Nb2_5 Rh2_1 2.803825 1_555
Nb2_5 Rh2_5 2.803825 1_555
Nb2_5 Rh3_1 2.815550 1_555
Nb2_5 Rh3_5 2.815550 1_555
Nb2_5 Rh2_3 2.817489 1_545
Nb2_5 Rh2_7 2.817489 1_545
Nb2_5 Nb3_5 2.840458 1_555
Nb2_6 Rh1_2 2.763720 1_555
Nb2_6 Rh1_6 2.763720 1_555
Nb2_6 Rh2_2 2.803825 1_555
Nb2_6 Rh2_6 2.803825 1_555
Nb2_6 Rh3_2 2.815550 1_555
Nb2_6 Rh3_6 2.815550 1_555
Nb2_6 Rh2_0 2.817489 1_555
Nb2_6 Rh2_4 2.817489 1_555
Nb2_6 Nb3_6 2.840458 1_555
Nb2_7 Rh1_3 2.763720 1_555
Nb2_7 Rh1_7 2.763720 1_555
Nb2_7 Rh2_3 2.803825 1_555
Nb2_7 Rh2_7 2.803825 1_555
Nb2_7 Rh3_3 2.815550 1_555
Nb2_7 Rh3_7 2.815550 1_555
Nb2_7 Rh2_1 2.817489 1_555
Nb2_7 Rh2_5 2.817489 1_555
Nb2_7 Nb3_7 2.840458 1_555
Nb3_0 Rh0_0 2.763427 1_555
Nb3_0 Rh0_4 2.763427 1_455
Nb3_0 Rh3_0 2.803872 1_555
Nb3_0 Rh3_4 2.803872 1_455
Nb3_0 Rh2_0 2.815648 1_555
Nb3_0 Rh2_4 2.815648 1_455
Nb3_0 Rh3_2 2.817444 1_555
Nb3_0 Rh3_6 2.817444 1_455
Nb3_0 Nb3_4 2.858620 1_455
Nb3_0 Nb3_4 2.858620 1_555
Nb3_1 Rh0_1 2.763427 1_555
Nb3_1 Rh0_5 2.763427 1_455
Nb3_1 Rh3_1 2.803872 1_555
Nb3_1 Rh3_5 2.803872 1_455
Nb3_1 Rh2_5 2.815648 1_455
Nb3_1 Rh2_1 2.815648 1_555
Nb3_1 Rh3_7 2.817444 1_455
Nb3_1 Rh3_3 2.817444 1_555
Nb3_1 Nb3_5 2.858620 1_455
Nb3_1 Nb3_5 2.858620 1_555
Nb3_2 Rh0_2 2.763427 1_555
Nb3_2 Rh0_6 2.763427 1_455
Nb3_2 Rh3_2 2.803872 1_555
Nb3_2 Rh3_6 2.803872 1_455
Nb3_2 Rh2_2 2.815648 1_555
Nb3_2 Rh2_6 2.815648 1_455
Nb3_2 Rh3_0 2.817444 1_565
Nb3_2 Rh3_4 2.817444 1_465
Nb3_2 Nb3_6 2.858620 1_555
Nb3_2 Nb3_6 2.858620 1_455
Nb3_3 Rh0_3 2.763427 1_555
Nb3_3 Rh0_7 2.763427 1_455
Nb3_3 Rh3_7 2.803872 1_455
Nb3_3 Rh3_3 2.803872 1_555
Nb3_3 Rh2_7 2.815648 1_455
Nb3_3 Rh2_3 2.815648 1_555
Nb3_3 Rh3_5 2.817444 1_465
Nb3_3 Rh3_1 2.817444 1_565
Nb3_3 Nb3_7 2.858620 1_455
Nb3_3 Nb3_7 2.858620 1_555
Nb3_4 Rh0_0 2.763427 1_555
Nb3_4 Rh0_4 2.763427 1_555
Nb3_4 Rh3_4 2.803872 1_555
Nb3_4 Rh3_0 2.803872 1_555
Nb3_4 Rh2_0 2.815648 1_555
Nb3_4 Rh2_4 2.815648 1_555
Nb3_4 Rh3_2 2.817444 1_555
Nb3_4 Rh3_6 2.817444 1_555
Nb3_5 Rh0_1 2.763427 1_555
Nb3_5 Rh0_5 2.763427 1_555
Nb3_5 Rh3_1 2.803872 1_555
Nb3_5 Rh3_5 2.803872 1_555
Nb3_5 Rh2_5 2.815648 1_555
Nb3_5 Rh2_1 2.815648 1_555
Nb3_5 Rh3_7 2.817444 1_555
Nb3_5 Rh3_3 2.817444 1_555
Nb3_6 Rh0_2 2.763427 1_555
Nb3_6 Rh0_6 2.763427 1_555
Nb3_6 Rh3_6 2.803872 1_555
Nb3_6 Rh3_2 2.803872 1_555
Nb3_6 Rh2_2 2.815648 1_555
Nb3_6 Rh2_6 2.815648 1_555
Nb3_6 Rh3_0 2.817444 1_565
Nb3_6 Rh3_4 2.817444 1_565
Nb3_7 Rh0_3 2.763427 1_555
Nb3_7 Rh0_7 2.763427 1_555
Nb3_7 Rh3_3 2.803872 1_555
Nb3_7 Rh3_7 2.803872 1_555
Nb3_7 Rh2_7 2.815648 1_555
Nb3_7 Rh2_3 2.815648 1_555
Nb3_7 Rh3_1 2.817444 1_565
Nb3_7 Rh3_5 2.817444 1_565
Nb4_0 Rh1_4 2.763427 1_455
Nb4_0 Rh1_0 2.763427 1_555
Nb4_0 Rh4_0 2.803872 1_555
Nb4_0 Rh4_4 2.803872 1_455
Nb4_0 Rh5_1 2.815648 1_555
Nb4_0 Rh5_5 2.815648 1_455
Nb4_0 Rh4_2 2.817444 1_545
Nb4_0 Rh4_6 2.817444 1_445
Nb4_0 Nb5_1 2.840458 1_555
Nb4_0 Nb4_4 2.858620 1_555
Nb4_0 Nb4_4 2.858620 1_455
Nb4_1 Rh1_5 2.763427 1_455
Nb4_1 Rh1_1 2.763427 1_555
Nb4_1 Rh4_1 2.803872 1_555
Nb4_1 Rh4_5 2.803872 1_455
Nb4_1 Rh5_0 2.815648 1_556
Nb4_1 Rh5_4 2.815648 1_456
Nb4_1 Rh4_7 2.817444 1_445
Nb4_1 Rh4_3 2.817444 1_545
Nb4_1 Nb5_0 2.840458 1_556
Nb4_1 Nb4_5 2.858620 1_555
Nb4_1 Nb4_5 2.858620 1_455
Nb4_2 Rh1_6 2.763427 1_455
Nb4_2 Rh1_2 2.763427 1_555
Nb4_2 Rh4_6 2.803872 1_455
Nb4_2 Rh4_2 2.803872 1_555
Nb4_2 Rh5_3 2.815648 1_555
Nb4_2 Rh5_7 2.815648 1_455
Nb4_2 Rh4_0 2.817444 1_555
Nb4_2 Rh4_4 2.817444 1_455
Nb4_2 Nb5_3 2.840458 1_555
Nb4_2 Nb4_6 2.858620 1_455
Nb4_2 Nb4_6 2.858620 1_555
Nb4_3 Rh1_3 2.763427 1_555
Nb4_3 Rh1_7 2.763427 1_455
Nb4_3 Rh4_3 2.803872 1_555
Nb4_3 Rh4_7 2.803872 1_455
Nb4_3 Rh5_2 2.815648 1_556
Nb4_3 Rh5_6 2.815648 1_456
Nb4_3 Rh4_1 2.817444 1_555
Nb4_3 Rh4_5 2.817444 1_455
Nb4_3 Nb5_2 2.840458 1_556
Nb4_3 Nb4_7 2.858620 1_455
Nb4_3 Nb4_7 2.858620 1_555
Nb4_4 Rh1_0 2.763427 1_555
Nb4_4 Rh1_4 2.763427 1_555
Nb4_4 Rh4_4 2.803872 1_555
Nb4_4 Rh4_0 2.803872 1_555
Nb4_4 Rh5_5 2.815648 1_555
Nb4_4 Rh5_1 2.815648 1_555
Nb4_4 Rh4_2 2.817444 1_545
Nb4_4 Rh4_6 2.817444 1_545
Nb4_4 Nb5_5 2.840458 1_555
Nb4_5 Rh1_5 2.763427 1_555
Nb4_5 Rh1_1 2.763427 1_555
Nb4_5 Rh4_5 2.803872 1_555
Nb4_5 Rh4_1 2.803872 1_555
Nb4_5 Rh5_0 2.815648 1_556
Nb4_5 Rh5_4 2.815648 1_556
Nb4_5 Rh4_3 2.817444 1_545
Nb4_5 Rh4_7 2.817444 1_545
Nb4_5 Nb5_4 2.840458 1_556
Nb4_6 Rh1_6 2.763427 1_555
Nb4_6 Rh1_2 2.763427 1_555
Nb4_6 Rh4_2 2.803872 1_555
Nb4_6 Rh4_6 2.803872 1_555
Nb4_6 Rh5_3 2.815648 1_555
Nb4_6 Rh5_7 2.815648 1_555
Nb4_6 Rh4_0 2.817444 1_555
Nb4_6 Rh4_4 2.817444 1_555
Nb4_6 Nb5_7 2.840458 1_555
Nb4_7 Rh1_3 2.763427 1_555
Nb4_7 Rh1_7 2.763427 1_555
Nb4_7 Rh4_3 2.803872 1_555
Nb4_7 Rh4_7 2.803872 1_555
Nb4_7 Rh5_2 2.815648 1_556
Nb4_7 Rh5_6 2.815648 1_556
Nb4_7 Rh4_1 2.817444 1_555
Nb4_7 Rh4_5 2.817444 1_555
Nb4_7 Nb5_6 2.840458 1_556
Nb5_0 Rh0_4 2.763720 1_455
Nb5_0 Rh0_0 2.763720 1_555
Nb5_0 Rh5_0 2.803825 1_555
Nb5_0 Rh5_4 2.803825 1_455
Nb5_0 Rh4_1 2.815550 1_554
Nb5_0 Rh4_5 2.815550 1_454
Nb5_0 Rh5_2 2.817489 1_555
Nb5_0 Rh5_6 2.817489 1_455
Nb5_0 Nb5_4 2.858620 1_455
Nb5_0 Nb5_4 2.858620 1_555
Nb5_1 Rh0_1 2.763720 1_555
Nb5_1 Rh0_5 2.763720 1_455
Nb5_1 Rh5_5 2.803825 1_455
Nb5_1 Rh5_1 2.803825 1_555
Nb5_1 Rh4_0 2.815550 1_555
Nb5_1 Rh4_4 2.815550 1_455
Nb5_1 Rh5_3 2.817489 1_555
Nb5_1 Rh5_7 2.817489 1_455
Nb5_1 Nb5_5 2.858620 1_455
Nb5_1 Nb5_5 2.858620 1_555
Nb5_2 Rh0_2 2.763720 1_555
Nb5_2 Rh0_6 2.763720 1_455
Nb5_2 Rh5_2 2.803825 1_555
Nb5_2 Rh5_6 2.803825 1_455
Nb5_2 Rh4_3 2.815550 1_554
Nb5_2 Rh4_7 2.815550 1_454
Nb5_2 Rh5_4 2.817489 1_465
Nb5_2 Rh5_0 2.817489 1_565
Nb5_2 Nb5_6 2.858620 1_555
Nb5_2 Nb5_6 2.858620 1_455
Nb5_3 Rh0_3 2.763720 1_555
Nb5_3 Rh0_7 2.763720 1_455
Nb5_3 Rh5_7 2.803825 1_455
Nb5_3 Rh5_3 2.803825 1_555
Nb5_3 Rh4_6 2.815550 1_455
Nb5_3 Rh4_2 2.815550 1_555
Nb5_3 Rh5_1 2.817489 1_565
Nb5_3 Rh5_5 2.817489 1_465
Nb5_3 Nb5_7 2.858620 1_455
Nb5_3 Nb5_7 2.858620 1_555
Nb5_4 Rh0_4 2.763720 1_555
Nb5_4 Rh0_0 2.763720 1_555
Nb5_4 Rh5_0 2.803825 1_555
Nb5_4 Rh5_4 2.803825 1_555
Nb5_4 Rh4_1 2.815550 1_554
Nb5_4 Rh4_5 2.815550 1_554
Nb5_4 Rh5_2 2.817489 1_555
Nb5_4 Rh5_6 2.817489 1_555
Nb5_5 Rh0_1 2.763720 1_555
Nb5_5 Rh0_5 2.763720 1_555
Nb5_5 Rh5_5 2.803825 1_555
Nb5_5 Rh5_1 2.803825 1_555
Nb5_5 Rh4_4 2.815550 1_555
Nb5_5 Rh4_0 2.815550 1_555
Nb5_5 Rh5_7 2.817489 1_555
Nb5_5 Rh5_3 2.817489 1_555
Nb5_6 Rh0_2 2.763720 1_555
Nb5_6 Rh0_6 2.763720 1_555
Nb5_6 Rh5_6 2.803825 1_555
Nb5_6 Rh5_2 2.803825 1_555
Nb5_6 Rh4_3 2.815550 1_554
Nb5_6 Rh4_7 2.815550 1_554
Nb5_6 Rh5_0 2.817489 1_565
Nb5_6 Rh5_4 2.817489 1_565
Nb5_7 Rh0_3 2.763720 1_555
Nb5_7 Rh0_7 2.763720 1_555
Nb5_7 Rh5_7 2.803825 1_555
Nb5_7 Rh5_3 2.803825 1_555
Nb5_7 Rh4_2 2.815550 1_555
Nb5_7 Rh4_6 2.815550 1_555
Nb5_7 Rh5_1 2.817489 1_565
Nb5_7 Rh5_5 2.817489 1_565
Rh0_0 Rh0_4 2.858620 1_455
Rh0_0 Rh0_4 2.858620 1_555
Rh0_0 Rh3_0 2.891171 1_555
Rh0_0 Rh5_0 2.891477 1_555
Rh0_1 Rh0_5 2.858620 1_455
Rh0_1 Rh0_5 2.858620 1_555
Rh0_1 Rh3_1 2.891171 1_555
Rh0_1 Rh5_1 2.891477 1_555
Rh0_2 Rh0_6 2.858620 1_455
Rh0_2 Rh0_6 2.858620 1_555
Rh0_2 Rh3_2 2.891171 1_555
Rh0_2 Rh5_2 2.891477 1_555
Rh0_3 Rh0_7 2.858620 1_555
Rh0_3 Rh0_7 2.858620 1_455
Rh0_3 Rh3_3 2.891171 1_555
Rh0_3 Rh5_3 2.891477 1_555
Rh0_4 Rh3_4 2.891171 1_555
Rh0_4 Rh5_4 2.891477 1_555
Rh0_5 Rh3_5 2.891171 1_555
Rh0_5 Rh5_5 2.891477 1_555
Rh0_6 Rh3_6 2.891171 1_555
Rh0_6 Rh5_6 2.891477 1_555
Rh0_7 Rh3_7 2.891171 1_555
Rh0_7 Rh5_7 2.891477 1_555
Rh1_0 Rh1_4 2.858620 1_555
Rh1_0 Rh1_4 2.858620 1_455
Rh1_0 Rh4_0 2.891171 1_555
Rh1_0 Rh2_0 2.891477 1_555
Rh1_1 Rh1_5 2.858620 1_455
Rh1_1 Rh1_5 2.858620 1_555
Rh1_1 Rh4_1 2.891171 1_555
Rh1_1 Rh2_1 2.891477 1_555
Rh1_2 Rh1_6 2.858620 1_455
Rh1_2 Rh1_6 2.858620 1_555
Rh1_2 Rh4_2 2.891171 1_555
Rh1_2 Rh2_2 2.891477 1_555
Rh1_3 Rh1_7 2.858620 1_455
Rh1_3 Rh1_7 2.858620 1_555
Rh1_3 Rh4_3 2.891171 1_555
Rh1_3 Rh2_3 2.891477 1_555
Rh1_4 Rh4_4 2.891171 1_555
Rh1_4 Rh2_4 2.891477 1_555
Rh1_5 Rh4_5 2.891171 1_555
Rh1_5 Rh2_5 2.891477 1_555
Rh1_6 Rh4_6 2.891171 1_555
Rh1_6 Rh2_6 2.891477 1_555
Rh1_7 Rh4_7 2.891171 1_555
Rh1_7 Rh2_7 2.891477 1_555
Rh2_0 Rh3_2 2.811087 1_555
Rh2_0 Rh2_4 2.858620 1_555
Rh2_0 Rh2_4 2.858620 1_455
Rh2_1 Rh3_3 2.811087 1_555
Rh2_1 Rh2_5 2.858620 1_555
Rh2_1 Rh2_5 2.858620 1_455
Rh2_2 Rh3_0 2.811087 1_565
Rh2_2 Rh2_6 2.858620 1_455
Rh2_2 Rh2_6 2.858620 1_555
Rh2_3 Rh3_1 2.811087 1_565
Rh2_3 Rh2_7 2.858620 1_555
Rh2_3 Rh2_7 2.858620 1_455
Rh2_4 Rh3_6 2.811087 1_555
Rh2_5 Rh3_7 2.811087 1_555
Rh2_6 Rh3_4 2.811087 1_565
Rh2_7 Rh3_5 2.811087 1_565
Rh3_0 Rh3_4 2.858620 1_455
Rh3_0 Rh3_4 2.858620 1_555
Rh3_1 Rh3_5 2.858620 1_555
Rh3_1 Rh3_5 2.858620 1_455
Rh3_2 Rh3_6 2.858620 1_455
Rh3_2 Rh3_6 2.858620 1_555
Rh3_3 Rh3_7 2.858620 1_455
Rh3_3 Rh3_7 2.858620 1_555
Rh4_0 Rh5_3 2.811087 1_555
Rh4_0 Rh4_4 2.858620 1_555
Rh4_0 Rh4_4 2.858620 1_455
Rh4_1 Rh5_2 2.811087 1_556
Rh4_1 Rh4_5 2.858620 1_455
Rh4_1 Rh4_5 2.858620 1_555
Rh4_2 Rh5_1 2.811087 1_565
Rh4_2 Rh4_6 2.858620 1_455
Rh4_2 Rh4_6 2.858620 1_555
Rh4_3 Rh5_0 2.811087 1_566
Rh4_3 Rh4_7 2.858620 1_555
Rh4_3 Rh4_7 2.858620 1_455
Rh4_4 Rh5_7 2.811087 1_555
Rh4_5 Rh5_6 2.811087 1_556
Rh4_6 Rh5_5 2.811087 1_565
Rh4_7 Rh5_4 2.811087 1_566
Rh5_0 Rh5_4 2.858620 1_455
Rh5_0 Rh5_4 2.858620 1_555
Rh5_1 Rh5_5 2.858620 1_455
Rh5_1 Rh5_5 2.858620 1_555
Rh5_2 Rh5_6 2.858620 1_455
Rh5_2 Rh5_6 2.858620 1_555
Rh5_3 Rh5_7 2.858620 1_455
Rh5_3 Rh5_7 2.858620 1_555
