# generated using pymatgen
data_KRbMg6
_symmetry_space_group_name_H-M   'P 1'
_cell_length_a   5.20672100
_cell_length_b   6.62564100
_cell_length_c   15.35475100
_cell_angle_alpha   90.00000000
_cell_angle_beta   90.00000000
_cell_angle_gamma   90.00000000
_symmetry_Int_Tables_number   1
_chemical_formula_structural   KRbMg6
_chemical_formula_sum   'K2 Rb2 Mg12'
_cell_volume   529.70611380
_cell_formula_units_Z   2
loop_
 _symmetry_equiv_pos_site_id
 _symmetry_equiv_pos_as_xyz
  1  'x, y, z'
loop_
 _atom_site_type_symbol
 _atom_site_label
 _atom_site_symmetry_multiplicity
 _atom_site_fract_x
 _atom_site_fract_y
 _atom_site_fract_z
 _atom_site_occupancy
  K  K0  1  0.50000000  0.00000000  0.17982600  1
  K  K1  1  0.50000000  0.50000000  0.67982600  1
  Rb  Rb0  1  0.50000000  0.50000000  0.18218200  1
  Rb  Rb1  1  0.50000000  0.00000000  0.68218200  1
  Mg  Mg0  1  0.50000000  0.25067200  0.42352700  1
  Mg  Mg1  1  0.50000000  0.74932800  0.42352700  1
  Mg  Mg2  1  0.00000000  0.75268100  0.03524400  1
  Mg  Mg3  1  0.00000000  0.24731900  0.03524400  1
  Mg  Mg4  1  0.00000000  0.00000000  0.35809500  1
  Mg  Mg5  1  0.00000000  0.50000000  0.36235200  1
  Mg  Mg6  1  0.50000000  0.75067200  0.92352700  1
  Mg  Mg7  1  0.50000000  0.24932800  0.92352700  1
  Mg  Mg8  1  0.00000000  0.25268100  0.53524400  1
  Mg  Mg9  1  0.00000000  0.74731900  0.53524400  1
  Mg  Mg10  1  0.00000000  0.50000000  0.85809500  1
  Mg  Mg11  1  0.00000000  0.00000000  0.86235200  1
loop_
_geom_bond_atom_site_label_1
_geom_bond_atom_site_label_2
_geom_bond_distance
_geom_bond_site_symmetry_2
K0 Rb0 3.313018 1_555
K0 Rb0 3.313018 1_545
K0 Mg4 3.777587 1_655
K0 Mg4 3.777587 1_555
K0 Mg3 3.793566 1_655
K0 Mg2 3.793566 1_645
K0 Mg2 3.793566 1_545
K0 Mg3 3.793566 1_555
K0 Mg0 4.093994 1_555
K0 Mg1 4.093994 1_545
K1 Rb1 3.313018 1_565
K1 Rb1 3.313018 1_555
K1 Mg10 3.777587 1_655
K1 Mg10 3.777587 1_555
K1 Mg9 3.793566 1_555
K1 Mg9 3.793566 1_655
K1 Mg8 3.793566 1_555
K1 Mg8 3.793566 1_655
K1 Mg6 4.093994 1_555
K1 Mg7 4.093994 1_555
Mg0 Mg8 3.117726 1_655
Mg0 Mg8 3.117726 1_555
Mg0 Mg5 3.223164 1_555
Mg0 Mg5 3.223164 1_655
Mg0 Mg4 3.247362 1_655
Mg0 Mg4 3.247362 1_555
Mg0 Mg1 3.303916 1_555
Mg0 Mg1 3.321725 1_545
Mg0 Rb0 4.057322 1_555
Mg1 Mg9 3.117726 1_555
Mg1 Mg9 3.117726 1_655
Mg1 Mg5 3.223164 1_555
Mg1 Mg5 3.223164 1_655
Mg1 Mg4 3.247362 1_565
Mg1 Mg4 3.247362 1_665
Mg1 Rb0 4.057322 1_555
Mg2 Mg6 3.117726 1_554
Mg2 Mg6 3.117726 1_454
Mg2 Mg3 3.277294 1_565
Mg2 Mg3 3.348347 1_555
Mg2 Rb0 3.830244 1_555
Mg2 Rb0 3.830244 1_455
Mg3 Mg7 3.117726 1_554
Mg3 Mg7 3.117726 1_454
Mg3 Rb0 3.830244 1_555
Mg3 Rb0 3.830244 1_455
Mg4 Mg8 3.194008 1_555
Mg4 Mg9 3.194008 1_545
Mg4 Mg5 3.313465 1_545
Mg4 Mg5 3.313465 1_555
Mg5 Mg9 3.119722 1_555
Mg5 Mg8 3.119722 1_555
Mg5 Rb0 3.798792 1_455
Mg5 Rb0 3.798792 1_555
Mg6 Mg7 3.303916 1_565
Mg6 Mg7 3.321725 1_555
Mg6 Rb1 4.057322 1_565
Mg7 Rb1 4.057322 1_555
Mg8 Mg9 3.277294 1_555
Mg8 Mg9 3.348347 1_545
Mg8 Rb1 3.830244 1_555
Mg8 Rb1 3.830244 1_455
Mg9 Rb1 3.830244 1_565
Mg9 Rb1 3.830244 1_465
Mg10 Mg2 3.194008 1_556
Mg10 Mg3 3.194008 1_556
Mg10 Mg7 3.247362 1_455
Mg10 Mg6 3.247362 1_555
Mg10 Mg7 3.247362 1_555
Mg10 Mg6 3.247362 1_455
Mg10 Mg11 3.313465 1_555
Mg10 Mg11 3.313465 1_565
Mg11 Mg2 3.119722 1_546
Mg11 Mg3 3.119722 1_556
Mg11 Mg6 3.223164 1_445
Mg11 Mg6 3.223164 1_545
Mg11 Mg7 3.223164 1_455
Mg11 Mg7 3.223164 1_555
Mg11 Rb1 3.798792 1_555
Mg11 Rb1 3.798792 1_455
