# generated using pymatgen
data_Ti2ZnN
_symmetry_space_group_name_H-M   'P 1'
_cell_length_a   16.50313142
_cell_length_b   16.50313142
_cell_length_c   8.30109744
_cell_angle_alpha   90.00000000
_cell_angle_beta   90.00000000
_cell_angle_gamma   159.04373341
_symmetry_Int_Tables_number   1
_chemical_formula_structural   Ti2ZnN
_chemical_formula_sum   'Ti32 Zn16 N16'
_cell_volume   808.59831731
_cell_formula_units_Z   16
loop_
 _symmetry_equiv_pos_site_id
 _symmetry_equiv_pos_as_xyz
  1  'x, y, z'
loop_
 _atom_site_type_symbol
 _atom_site_label
 _atom_site_symmetry_multiplicity
 _atom_site_fract_x
 _atom_site_fract_y
 _atom_site_fract_z
 _atom_site_occupancy
  Ti  Ti0_0  1  0.39438762  0.10561239  0.12500000  1
  Ti  Ti0_1  1  0.39438762  0.10561239  0.62500000  1
  Ti  Ti0_2  1  0.39438762  0.60561239  0.12500000  1
  Ti  Ti0_3  1  0.39438762  0.60561239  0.62500000  1
  Ti  Ti0_4  1  0.89438762  0.10561238  0.12500000  1
  Ti  Ti0_5  1  0.89438762  0.10561238  0.62500000  1
  Ti  Ti0_6  1  0.89438762  0.60561239  0.12500000  1
  Ti  Ti0_7  1  0.89438762  0.60561239  0.62500000  1
  Ti  Ti1_0  1  0.10561239  0.39438762  0.37500000  1
  Ti  Ti1_1  1  0.10561239  0.39438762  0.87500000  1
  Ti  Ti1_2  1  0.10561238  0.89438762  0.37500000  1
  Ti  Ti1_3  1  0.10561238  0.89438762  0.87500000  1
  Ti  Ti1_4  1  0.60561239  0.39438762  0.37500000  1
  Ti  Ti1_5  1  0.60561239  0.39438762  0.87500000  1
  Ti  Ti1_6  1  0.60561238  0.89438761  0.37500000  1
  Ti  Ti1_7  1  0.60561238  0.89438761  0.87500000  1
  Ti  Ti2_0  1  0.30579930  0.19420071  0.12500000  1
  Ti  Ti2_1  1  0.30579930  0.19420071  0.62500000  1
  Ti  Ti2_2  1  0.30579930  0.69420070  0.12500000  1
  Ti  Ti2_3  1  0.30579930  0.69420070  0.62500000  1
  Ti  Ti2_4  1  0.80579930  0.19420070  0.12500000  1
  Ti  Ti2_5  1  0.80579930  0.19420070  0.62500000  1
  Ti  Ti2_6  1  0.80579929  0.69420070  0.12500000  1
  Ti  Ti2_7  1  0.80579929  0.69420070  0.62500000  1
  Ti  Ti3_0  1  0.19420070  0.30579930  0.37500000  1
  Ti  Ti3_1  1  0.19420070  0.30579930  0.87500000  1
  Ti  Ti3_2  1  0.19420070  0.80579930  0.37500000  1
  Ti  Ti3_3  1  0.19420070  0.80579930  0.87500000  1
  Ti  Ti3_4  1  0.69420070  0.30579930  0.37500000  1
  Ti  Ti3_5  1  0.69420070  0.30579930  0.87500000  1
  Ti  Ti3_6  1  0.69420070  0.80579929  0.37500000  1
  Ti  Ti3_7  1  0.69420070  0.80579929  0.87500000  1
  Zn  Zn0_0  1  0.47981521  0.02018479  0.12500000  1
  Zn  Zn0_1  1  0.47981521  0.02018479  0.62500000  1
  Zn  Zn0_2  1  0.47981521  0.52018479  0.12500000  1
  Zn  Zn0_3  1  0.47981521  0.52018479  0.62500000  1
  Zn  Zn0_4  1  0.97981521  0.02018479  0.12500000  1
  Zn  Zn0_5  1  0.97981521  0.02018479  0.62500000  1
  Zn  Zn0_6  1  0.97981521  0.52018479  0.12500000  1
  Zn  Zn0_7  1  0.97981521  0.52018479  0.62500000  1
  Zn  Zn1_0  1  0.02018479  0.47981521  0.37500000  1
  Zn  Zn1_1  1  0.02018479  0.47981521  0.87500000  1
  Zn  Zn1_2  1  0.02018479  0.97981521  0.37500000  1
  Zn  Zn1_3  1  0.02018479  0.97981521  0.87500000  1
  Zn  Zn1_4  1  0.52018479  0.47981521  0.37500000  1
  Zn  Zn1_5  1  0.52018479  0.47981521  0.87500000  1
  Zn  Zn1_6  1  0.52018479  0.97981521  0.37500000  1
  Zn  Zn1_7  1  0.52018479  0.97981521  0.87500000  1
  N  N0_0  1  0.09976299  0.40023701  0.12500000  1
  N  N0_1  1  0.09976299  0.40023701  0.62500000  1
  N  N0_2  1  0.09976299  0.90023701  0.12500000  1
  N  N0_3  1  0.09976299  0.90023701  0.62500000  1
  N  N0_4  1  0.59976299  0.40023701  0.12500000  1
  N  N0_5  1  0.59976299  0.40023701  0.62500000  1
  N  N0_6  1  0.59976299  0.90023701  0.12500000  1
  N  N0_7  1  0.59976299  0.90023701  0.62500000  1
  N  N1_0  1  0.40023701  0.09976299  0.37500000  1
  N  N1_1  1  0.40023701  0.09976299  0.87500000  1
  N  N1_2  1  0.40023701  0.59976299  0.37500000  1
  N  N1_3  1  0.40023701  0.59976299  0.87500000  1
  N  N1_4  1  0.90023701  0.09976299  0.37500000  1
  N  N1_5  1  0.90023701  0.09976299  0.87500000  1
  N  N1_6  1  0.90023701  0.59976299  0.37500000  1
  N  N1_7  1  0.90023701  0.59976299  0.87500000  1
loop_
_geom_bond_atom_site_label_1
_geom_bond_atom_site_label_2
_geom_bond_distance
_geom_bond_site_symmetry_2
Ti0_0 Zn0_0 2.772626 1_555
Ti0_1 Zn0_1 2.772626 1_555
Ti0_2 Zn0_2 2.772626 1_555
Ti0_3 Zn0_3 2.772626 1_555
Ti0_4 Zn0_4 2.772626 1_555
Ti0_5 Zn0_5 2.772626 1_555
Ti0_6 Zn0_6 2.772626 1_555
Ti0_7 Zn0_7 2.772626 1_555
Ti1_0 Zn1_0 2.772626 1_555
Ti1_1 Zn1_1 2.772626 1_555
Ti1_2 Zn1_2 2.772626 1_555
Ti1_3 Zn1_3 2.772626 1_555
Ti1_4 Zn1_4 2.772626 1_555
Ti1_5 Zn1_5 2.772626 1_555
Ti1_6 Zn1_6 2.772626 1_555
Ti1_7 Zn1_7 2.772626 1_555
Ti2_0 Zn1_4 2.809762 1_555
Ti2_0 Zn1_5 2.809762 1_554
Ti2_0 Zn1_2 2.809762 1_545
Ti2_0 Zn1_3 2.809762 1_544
Ti2_0 Zn0_4 2.886813 1_455
Ti2_0 Zn0_2 2.886813 1_555
Ti2_1 Zn1_4 2.809762 1_555
Ti2_1 Zn1_5 2.809762 1_555
Ti2_1 Zn1_2 2.809762 1_545
Ti2_1 Zn1_3 2.809762 1_545
Ti2_1 Zn0_5 2.886813 1_455
Ti2_1 Zn0_3 2.886813 1_555
Ti2_2 Zn1_1 2.809762 1_554
Ti2_2 Zn1_0 2.809762 1_555
Ti2_2 Zn1_7 2.809762 1_554
Ti2_2 Zn1_6 2.809762 1_555
Ti2_2 Zn0_0 2.886813 1_565
Ti2_2 Zn0_6 2.886813 1_455
Ti2_3 Zn1_0 2.809762 1_555
Ti2_3 Zn1_1 2.809762 1_555
Ti2_3 Zn1_6 2.809762 1_555
Ti2_3 Zn1_7 2.809762 1_555
Ti2_3 Zn0_1 2.886813 1_565
Ti2_3 Zn0_7 2.886813 1_455
Ti2_4 Zn1_0 2.809762 1_655
Ti2_4 Zn1_1 2.809762 1_654
Ti2_4 Zn1_6 2.809762 1_545
Ti2_4 Zn1_7 2.809762 1_544
Ti2_4 Zn0_0 2.886813 1_555
Ti2_4 Zn0_6 2.886813 1_555
Ti2_5 Zn1_0 2.809762 1_655
Ti2_5 Zn1_1 2.809762 1_655
Ti2_5 Zn1_7 2.809762 1_545
Ti2_5 Zn1_6 2.809762 1_545
Ti2_5 Zn0_1 2.886813 1_555
Ti2_5 Zn0_7 2.886813 1_555
Ti2_6 Zn1_3 2.809762 1_654
Ti2_6 Zn1_5 2.809762 1_554
Ti2_6 Zn1_2 2.809762 1_655
Ti2_6 Zn1_4 2.809762 1_555
Ti2_6 Zn0_2 2.886813 1_555
Ti2_6 Zn0_4 2.886813 1_565
Ti2_7 Zn1_4 2.809762 1_555
Ti2_7 Zn1_3 2.809762 1_655
Ti2_7 Zn1_5 2.809762 1_555
Ti2_7 Zn1_2 2.809762 1_655
Ti2_7 Zn0_3 2.886813 1_555
Ti2_7 Zn0_5 2.886813 1_565
Ti3_0 Zn0_5 2.809762 1_455
Ti3_0 Zn0_4 2.809762 1_455
Ti3_0 Zn0_2 2.809762 1_555
Ti3_0 Zn0_3 2.809762 1_555
Ti3_0 Zn1_2 2.886813 1_545
Ti3_0 Zn1_4 2.886813 1_555
Ti3_1 Zn0_5 2.809762 1_455
Ti3_1 Zn0_4 2.809762 1_456
Ti3_1 Zn0_2 2.809762 1_556
Ti3_1 Zn0_3 2.809762 1_555
Ti3_1 Zn1_3 2.886813 1_545
Ti3_1 Zn1_5 2.886813 1_555
Ti3_2 Zn0_6 2.809762 1_455
Ti3_2 Zn0_7 2.809762 1_455
Ti3_2 Zn0_1 2.809762 1_565
Ti3_2 Zn0_0 2.809762 1_565
Ti3_2 Zn1_6 2.886813 1_555
Ti3_2 Zn1_0 2.886813 1_555
Ti3_3 Zn0_6 2.809762 1_456
Ti3_3 Zn0_7 2.809762 1_455
Ti3_3 Zn0_0 2.809762 1_566
Ti3_3 Zn0_1 2.809762 1_565
Ti3_3 Zn1_7 2.886813 1_555
Ti3_3 Zn1_1 2.886813 1_555
Ti3_4 Zn0_6 2.809762 1_555
Ti3_4 Zn0_7 2.809762 1_555
Ti3_4 Zn0_1 2.809762 1_555
Ti3_4 Zn0_0 2.809762 1_555
Ti3_4 Zn1_6 2.886813 1_545
Ti3_4 Zn1_0 2.886813 1_655
Ti3_5 Zn0_6 2.809762 1_556
Ti3_5 Zn0_7 2.809762 1_555
Ti3_5 Zn0_1 2.809762 1_555
Ti3_5 Zn0_0 2.809762 1_556
Ti3_5 Zn1_7 2.886813 1_545
Ti3_5 Zn1_1 2.886813 1_655
Ti3_6 Zn0_2 2.809762 1_555
Ti3_6 Zn0_3 2.809762 1_555
Ti3_6 Zn0_5 2.809762 1_565
Ti3_6 Zn0_4 2.809762 1_565
Ti3_6 Zn1_4 2.886813 1_555
Ti3_6 Zn1_2 2.886813 1_655
Ti3_7 Zn0_2 2.809762 1_556
Ti3_7 Zn0_3 2.809762 1_555
Ti3_7 Zn0_4 2.809762 1_566
Ti3_7 Zn0_5 2.809762 1_565
Ti3_7 Zn1_5 2.886813 1_555
Ti3_7 Zn1_3 2.886813 1_655
Zn0_0 Zn1_6 2.454275 1_545
Zn0_0 Zn1_7 2.454275 1_544
Zn0_0 Zn0_6 3.001264 1_555
Zn0_0 Zn0_6 3.001264 1_445
Zn0_1 Zn1_7 2.454275 1_545
Zn0_1 Zn1_6 2.454275 1_545
Zn0_1 Zn0_7 3.001264 1_555
Zn0_1 Zn0_7 3.001264 1_445
Zn0_2 Zn1_5 2.454275 1_554
Zn0_2 Zn1_4 2.454275 1_555
Zn0_2 Zn0_4 3.001264 1_565
Zn0_2 Zn0_4 3.001264 1_455
Zn0_3 Zn1_5 2.454275 1_555
Zn0_3 Zn1_4 2.454275 1_555
Zn0_3 Zn0_5 3.001264 1_455
Zn0_3 Zn0_5 3.001264 1_565
Zn0_4 Zn1_3 2.454275 1_644
Zn0_4 Zn1_2 2.454275 1_645
Zn0_5 Zn1_2 2.454275 1_645
Zn0_5 Zn1_3 2.454275 1_645
Zn0_6 Zn1_1 2.454275 1_654
Zn0_6 Zn1_0 2.454275 1_655
Zn0_7 Zn1_1 2.454275 1_655
Zn0_7 Zn1_0 2.454275 1_655
Zn1_0 Zn1_6 3.001264 1_555
Zn1_0 Zn1_6 3.001264 1_445
Zn1_1 Zn1_7 3.001264 1_555
Zn1_1 Zn1_7 3.001264 1_445
Zn1_2 Zn1_4 3.001264 1_565
Zn1_2 Zn1_4 3.001264 1_455
Zn1_3 Zn1_5 3.001264 1_565
Zn1_3 Zn1_5 3.001264 1_455
N0_0 Ti2_2 2.070720 1_555
N0_0 Ti2_4 2.070720 1_455
N0_0 Ti1_0 2.083940 1_555
N0_0 Ti1_1 2.083940 1_554
N0_0 Ti0_2 2.085559 1_555
N0_0 Ti0_4 2.085559 1_455
N0_1 Ti2_5 2.070720 1_455
N0_1 Ti2_3 2.070720 1_555
N0_1 Ti1_0 2.083940 1_555
N0_1 Ti1_1 2.083940 1_555
N0_1 Ti0_3 2.085559 1_555
N0_1 Ti0_5 2.085559 1_455
N0_2 Ti2_6 2.070720 1_455
N0_2 Ti2_0 2.070720 1_565
N0_2 Ti1_3 2.083940 1_554
N0_2 Ti1_2 2.083940 1_555
N0_2 Ti0_6 2.085559 1_455
N0_2 Ti0_0 2.085559 1_565
N0_3 Ti2_7 2.070720 1_455
N0_3 Ti2_1 2.070720 1_565
N0_3 Ti1_3 2.083940 1_555
N0_3 Ti1_2 2.083940 1_555
N0_3 Ti0_7 2.085559 1_455
N0_3 Ti0_1 2.085559 1_565
N0_4 Ti2_6 2.070720 1_555
N0_4 Ti2_0 2.070720 1_555
N0_4 Ti1_5 2.083940 1_554
N0_4 Ti1_4 2.083940 1_555
N0_4 Ti0_6 2.085559 1_555
N0_4 Ti0_0 2.085559 1_555
N0_5 Ti2_7 2.070720 1_555
N0_5 Ti2_1 2.070720 1_555
N0_5 Ti1_4 2.083940 1_555
N0_5 Ti1_5 2.083940 1_555
N0_5 Ti0_7 2.085559 1_555
N0_5 Ti0_1 2.085559 1_555
N0_6 Ti2_2 2.070720 1_555
N0_6 Ti2_4 2.070720 1_565
N0_6 Ti1_7 2.083940 1_554
N0_6 Ti1_6 2.083940 1_555
N0_6 Ti0_2 2.085559 1_555
N0_6 Ti0_4 2.085559 1_565
N0_7 Ti2_3 2.070720 1_555
N0_7 Ti2_5 2.070720 1_565
N0_7 Ti1_6 2.083940 1_555
N0_7 Ti1_7 2.083940 1_555
N0_7 Ti0_3 2.085559 1_555
N0_7 Ti0_5 2.085559 1_565
N1_0 Ti3_2 2.070720 1_545
N1_0 Ti3_4 2.070720 1_555
N1_0 Ti0_0 2.083940 1_555
N1_0 Ti0_1 2.083940 1_555
N1_0 Ti1_4 2.085559 1_555
N1_0 Ti1_2 2.085559 1_545
N1_1 Ti3_5 2.070720 1_555
N1_1 Ti3_3 2.070720 1_545
N1_1 Ti0_0 2.083940 1_556
N1_1 Ti0_1 2.083940 1_555
N1_1 Ti1_5 2.085559 1_555
N1_1 Ti1_3 2.085559 1_545
N1_2 Ti3_6 2.070720 1_555
N1_2 Ti3_0 2.070720 1_555
N1_2 Ti0_3 2.083940 1_555
N1_2 Ti0_2 2.083940 1_555
N1_2 Ti1_6 2.085559 1_555
N1_2 Ti1_0 2.085559 1_555
N1_3 Ti3_7 2.070720 1_555
N1_3 Ti3_1 2.070720 1_555
N1_3 Ti0_3 2.083940 1_555
N1_3 Ti0_2 2.083940 1_556
N1_3 Ti1_7 2.085559 1_555
N1_3 Ti1_1 2.085559 1_555
N1_4 Ti3_6 2.070720 1_545
N1_4 Ti3_0 2.070720 1_655
N1_4 Ti0_5 2.083940 1_555
N1_4 Ti0_4 2.083940 1_555
N1_4 Ti1_6 2.085559 1_545
N1_4 Ti1_0 2.085559 1_655
N1_5 Ti3_7 2.070720 1_545
N1_5 Ti3_1 2.070720 1_655
N1_5 Ti0_5 2.083940 1_555
N1_5 Ti0_4 2.083940 1_556
N1_5 Ti1_7 2.085559 1_545
N1_5 Ti1_1 2.085559 1_655
N1_6 Ti3_4 2.070720 1_555
N1_6 Ti3_2 2.070720 1_655
N1_6 Ti0_7 2.083940 1_555
N1_6 Ti0_6 2.083940 1_555
N1_6 Ti1_4 2.085559 1_555
N1_6 Ti1_2 2.085559 1_655
N1_7 Ti3_5 2.070720 1_555
N1_7 Ti3_3 2.070720 1_655
N1_7 Ti0_6 2.083940 1_556
N1_7 Ti0_7 2.083940 1_555
N1_7 Ti1_5 2.085559 1_555
N1_7 Ti1_3 2.085559 1_655
