# generated using pymatgen
data_V(C4N3)2
_symmetry_space_group_name_H-M   'P 1'
_cell_length_a   5.26888000
_cell_length_b   7.33899100
_cell_length_c   10.54445200
_cell_angle_alpha   90.00000000
_cell_angle_beta   90.00000000
_cell_angle_gamma   90.00000000
_symmetry_Int_Tables_number   1
_chemical_formula_structural   V(C4N3)2
_chemical_formula_sum   'V2 C16 N12'
_cell_volume   407.73564207
_cell_formula_units_Z   2
loop_
 _symmetry_equiv_pos_site_id
 _symmetry_equiv_pos_as_xyz
  1  'x, y, z'
loop_
 _atom_site_type_symbol
 _atom_site_label
 _atom_site_symmetry_multiplicity
 _atom_site_fract_x
 _atom_site_fract_y
 _atom_site_fract_z
 _atom_site_occupancy
  V  V0  1  0.00000000  0.50000000  0.50000000  1
  V  V1  1  0.00000000  0.00000000  0.00000000  1
  C  C0  1  0.38481100  0.00000000  0.75642100  1
  C  C1  1  0.38481100  0.50000000  0.74357900  1
  C  C2  1  0.61518900  0.00000000  0.24357900  1
  C  C3  1  0.61518900  0.50000000  0.25642100  1
  C  C4  1  0.57520900  0.00000000  0.66291400  1
  C  C5  1  0.57520900  0.50000000  0.83708600  1
  C  C6  1  0.42479100  0.00000000  0.33708600  1
  C  C7  1  0.42479100  0.50000000  0.16291400  1
  C  C8  1  0.68628400  0.16141300  0.61828700  1
  C  C9  1  0.68628400  0.33858700  0.88171300  1
  C  C10  1  0.31371600  0.16141300  0.38171300  1
  C  C11  1  0.68628400  0.66141300  0.88171300  1
  C  C12  1  0.31371600  0.83858700  0.38171300  1
  C  C13  1  0.31371600  0.66141300  0.11828700  1
  C  C14  1  0.68628400  0.83858700  0.61828700  1
  C  C15  1  0.31371600  0.33858700  0.11828700  1
  N  N0  1  0.78787600  0.29090100  0.57724700  1
  N  N1  1  0.78787600  0.20909900  0.92275300  1
  N  N2  1  0.21212300  0.29090100  0.42275300  1
  N  N3  1  0.78787600  0.79090100  0.92275300  1
  N  N4  1  0.21212300  0.70909900  0.42275300  1
  N  N5  1  0.21212300  0.79090100  0.07724700  1
  N  N6  1  0.78787600  0.70909900  0.57724700  1
  N  N7  1  0.21212300  0.20909900  0.07724700  1
  N  N8  1  0.23170400  0.00000000  0.83746700  1
  N  N9  1  0.23170400  0.50000000  0.66253300  1
  N  N10  1  0.76829600  0.00000000  0.16253300  1
  N  N11  1  0.76829600  0.50000000  0.33746700  1
loop_
_geom_bond_atom_site_label_1
_geom_bond_atom_site_label_2
_geom_bond_distance
_geom_bond_site_symmetry_2
C0 N8 1.175196 1_555
C0 C4 1.406604 1_555
C1 N9 1.175196 1_555
C1 C5 1.406604 1_555
C2 N10 1.175196 1_555
C2 C6 1.406604 1_555
C3 N11 1.175196 1_555
C3 C7 1.406604 1_555
C4 C8 1.402583 1_555
C5 C9 1.402583 1_555
C8 N0 1.173405 1_555
C9 N1 1.173405 1_555
C10 N2 1.173408 1_555
C10 C6 1.402583 1_555
C11 N3 1.173405 1_555
C11 C5 1.402583 1_555
C12 N4 1.173408 1_555
C12 C6 1.402583 1_565
C13 N5 1.173408 1_555
C13 C7 1.402583 1_555
C14 N6 1.173405 1_555
C14 C4 1.402583 1_565
C15 N7 1.173408 1_555
C15 C7 1.402583 1_555
N0 V0 2.065801 1_655
N1 V1 2.065801 1_656
N2 V0 2.065798 1_555
N3 V1 2.065801 1_666
N4 V0 2.065798 1_555
N5 V1 2.065798 1_565
N6 V0 2.065801 1_655
N7 V1 2.065798 1_555
N8 V1 2.104183 1_556
N9 V0 2.104183 1_555
N10 V1 2.104183 1_655
N11 V0 2.104183 1_655
