# generated using pymatgen
data_PrZr3F15
_symmetry_space_group_name_H-M   'P 1'
_cell_length_a   8.21835325
_cell_length_b   8.21835325
_cell_length_c   8.20625382
_cell_angle_alpha   79.64614105
_cell_angle_beta   79.64614105
_cell_angle_gamma   99.32457483
_symmetry_Int_Tables_number   1
_chemical_formula_structural   PrZr3F15
_chemical_formula_sum   'Pr2 Zr6 F30'
_cell_volume   525.43155570
_cell_formula_units_Z   2
loop_
 _symmetry_equiv_pos_site_id
 _symmetry_equiv_pos_as_xyz
  1  'x, y, z'
loop_
 _atom_site_type_symbol
 _atom_site_label
 _atom_site_symmetry_multiplicity
 _atom_site_fract_x
 _atom_site_fract_y
 _atom_site_fract_z
 _atom_site_occupancy
  Pr  Pr0  1  0.17739773  0.82260227  0.25000000  1
  Pr  Pr1  1  0.82260227  0.17739773  0.75000000  1
  Zr  Zr0  1  0.75634402  0.24365598  0.25000000  1
  Zr  Zr1  1  0.24365598  0.75634402  0.75000000  1
  Zr  Zr2  1  0.73796276  0.67800746  0.67409879  1
  Zr  Zr3  1  0.32199254  0.26203724  0.82590121  1
  Zr  Zr4  1  0.26203724  0.32199254  0.32590121  1
  Zr  Zr5  1  0.67800746  0.73796276  0.17409879  1
  F  F0  1  0.31795170  0.35259136  0.05607523  1
  F  F1  1  0.93104841  0.80198548  0.14285072  1
  F  F2  1  0.84132089  0.47085631  0.68386579  1
  F  F3  1  0.47085631  0.84132089  0.18386579  1
  F  F4  1  0.80198548  0.93104841  0.64285072  1
  F  F5  1  0.35259136  0.31795170  0.55607523  1
  F  F6  1  0.68204830  0.64740864  0.94392477  1
  F  F7  1  0.06895159  0.19801452  0.85714928  1
  F  F8  1  0.15867911  0.52914369  0.31613421  1
  F  F9  1  0.52914369  0.15867911  0.81613421  1
  F  F10  1  0.19801452  0.06895159  0.35714928  1
  F  F11  1  0.64740864  0.68204830  0.44392477  1
  F  F12  1  0.46936720  0.53063280  0.25000000  1
  F  F13  1  0.74616646  0.94325981  0.97508954  1
  F  F14  1  0.05674019  0.25383354  0.52491046  1
  F  F15  1  0.25383354  0.05674019  0.02491046  1
  F  F16  1  0.94325981  0.74616646  0.47508954  1
  F  F17  1  0.53063280  0.46936720  0.75000000  1
  F  F18  1  0.76740586  0.28479172  0.00144328  1
  F  F19  1  0.00790383  0.26929265  0.22445586  1
  F  F20  1  0.77481453  0.50075881  0.22191905  1
  F  F21  1  0.50075881  0.77481453  0.72191905  1
  F  F22  1  0.26929265  0.00790383  0.72445586  1
  F  F23  1  0.28479172  0.76740586  0.50144328  1
  F  F24  1  0.23259414  0.71520828  0.99855672  1
  F  F25  1  0.99209617  0.73070735  0.77554414  1
  F  F26  1  0.22518547  0.49924119  0.77808095  1
  F  F27  1  0.49924119  0.22518547  0.27808095  1
  F  F28  1  0.73070735  0.99209617  0.27554414  1
  F  F29  1  0.71520828  0.23259414  0.49855672  1
loop_
_geom_bond_atom_site_label_1
_geom_bond_atom_site_label_2
_geom_bond_distance
_geom_bond_site_symmetry_2
F0 Zr4 2.138692 1_555
F0 Zr3 2.147908 1_554
F1 Zr5 2.018042 1_555
F1 Pr0 2.341603 1_655
F2 Zr2 2.017501 1_555
F2 Pr1 2.348191 1_555
F3 Zr5 2.017501 1_555
F3 Pr0 2.348191 1_555
F4 Zr2 2.018042 1_555
F4 Pr1 2.341603 1_565
F5 Zr3 2.138692 1_555
F5 Zr4 2.147908 1_555
F6 Zr2 2.138692 1_555
F6 Zr5 2.147908 1_556
F7 Zr3 2.018042 1_555
F7 Pr1 2.341603 1_455
F8 Zr4 2.017501 1_555
F8 Pr0 2.348191 1_555
F9 Zr3 2.017501 1_555
F9 Pr1 2.348191 1_555
F10 Zr4 2.018042 1_555
F10 Pr0 2.341603 1_545
F11 Zr5 2.138692 1_555
F11 Zr2 2.147908 1_555
F12 Zr5 2.125848 1_555
F12 Zr4 2.125848 1_555
F13 Zr5 2.049873 1_556
F13 Pr1 2.328688 1_565
F14 Zr4 2.049873 1_555
F14 Pr1 2.328688 1_455
F15 Zr3 2.049873 1_554
F15 Pr0 2.328688 1_545
F16 Zr2 2.049873 1_555
F16 Pr0 2.328688 1_655
F17 Zr3 2.125848 1_555
F17 Zr2 2.125848 1_555
F18 Zr0 1.989606 1_555
F18 Pr1 2.385440 1_554
F19 Zr0 2.012386 1_455
F19 Zr4 2.388335 1_555
F20 Zr0 2.061364 1_555
F20 Zr5 2.219699 1_555
F21 Zr1 2.061364 1_555
F21 Zr2 2.219699 1_555
F22 Zr1 2.012386 1_545
F22 Zr3 2.388335 1_555
F23 Zr1 1.989606 1_555
F23 Pr0 2.385440 1_555
F24 Zr1 1.989606 1_555
F24 Pr0 2.385440 1_556
F25 Zr1 2.012386 1_655
F25 Zr2 2.388335 1_555
F26 Zr1 2.061364 1_555
F26 Zr3 2.219699 1_555
F27 Zr0 2.061364 1_555
F27 Zr4 2.219699 1_555
F28 Zr0 2.012386 1_565
F28 Zr5 2.388335 1_555
F29 Zr0 1.989606 1_555
F29 Pr1 2.385440 1_555
