# generated using pymatgen
data_InGaSb2
_symmetry_space_group_name_H-M   'P 1'
_cell_length_a   4.48272082
_cell_length_b   4.48272082
_cell_length_c   6.37069927
_cell_angle_alpha   90.00000000
_cell_angle_beta   90.00000000
_cell_angle_gamma   90.00000000
_symmetry_Int_Tables_number   1
_chemical_formula_structural   InGaSb2
_chemical_formula_sum   'In1 Ga1 Sb2'
_cell_volume   128.01783818
_cell_formula_units_Z   1
loop_
 _symmetry_equiv_pos_site_id
 _symmetry_equiv_pos_as_xyz
  1  'x, y, z'
loop_
 _atom_site_type_symbol
 _atom_site_label
 _atom_site_symmetry_multiplicity
 _atom_site_fract_x
 _atom_site_fract_y
 _atom_site_fract_z
 _atom_site_occupancy
  In  In0  1  0.50000000  0.50000000  0.50000000  1
  Ga  Ga0  1  0.00000000  0.00000000  0.00000000  1
  Sb  Sb0  1  -0.00000000  0.50000000  0.23263691  1
  Sb  Sb1  1  0.50000000  0.00000000  0.76736309  1
loop_
_geom_bond_atom_site_label_1
_geom_bond_atom_site_label_2
_geom_bond_distance
_geom_bond_site_symmetry_2
In0 Sb1 2.815119 1_555
In0 Sb0 2.815119 1_655
In0 Sb1 2.815119 1_565
In0 Sb0 2.815119 1_555
Ga0 Sb0 2.687043 1_555
Ga0 Sb0 2.687043 1_545
Ga0 Sb1 2.687043 1_554
Ga0 Sb1 2.687043 1_454
