# generated using pymatgen
data_Zr3Sn
_symmetry_space_group_name_H-M   'P 1'
_cell_length_a   6.31049308
_cell_length_b   6.31049308
_cell_length_c   5.18045641
_cell_angle_alpha   90.00000000
_cell_angle_beta   90.00000000
_cell_angle_gamma   120.00000083
_symmetry_Int_Tables_number   1
_chemical_formula_structural   Zr3Sn
_chemical_formula_sum   'Zr6 Sn2'
_cell_volume   178.65914093
_cell_formula_units_Z   2
loop_
 _symmetry_equiv_pos_site_id
 _symmetry_equiv_pos_as_xyz
  1  'x, y, z'
loop_
 _atom_site_type_symbol
 _atom_site_label
 _atom_site_symmetry_multiplicity
 _atom_site_fract_x
 _atom_site_fract_y
 _atom_site_fract_z
 _atom_site_occupancy
  Zr  Zr0  1  0.16791936  0.33584071  0.25000000  1
  Zr  Zr1  1  0.66415929  0.83208064  0.25000000  1
  Zr  Zr2  1  0.16791936  0.83208064  0.25000000  1
  Zr  Zr3  1  0.83208064  0.66415929  0.75000000  1
  Zr  Zr4  1  0.33584071  0.16791936  0.75000000  1
  Zr  Zr5  1  0.83208064  0.16791936  0.75000000  1
  Sn  Sn0  1  0.33333300  0.66666700  0.75000000  1
  Sn  Sn1  1  0.66666700  0.33333300  0.25000000  1
loop_
_geom_bond_atom_site_label_1
_geom_bond_atom_site_label_2
_geom_bond_distance
_geom_bond_site_symmetry_2
Zr0 Zr1 3.131519 1_555
Zr0 Zr2 3.131519 1_555
Zr0 Zr5 3.174568 1_455
Zr0 Zr5 3.174568 1_454
Zr0 Zr4 3.174581 1_555
Zr0 Zr4 3.174581 1_554
Zr0 Zr1 3.178974 1_445
Zr0 Zr2 3.178974 1_545
Zr1 Zr2 3.131519 1_555
Zr1 Zr5 3.174568 1_564
Zr1 Zr5 3.174568 1_565
Zr1 Zr3 3.174581 1_554
Zr1 Zr3 3.174581 1_555
Zr1 Zr2 3.178974 1_655
Zr2 Zr4 3.174568 1_565
Zr2 Zr4 3.174568 1_564
Zr2 Zr3 3.174568 1_455
Zr2 Zr3 3.174568 1_454
Zr3 Zr4 3.131519 1_555
Zr3 Zr5 3.131519 1_555
Zr3 Zr4 3.178974 1_665
Zr3 Zr5 3.178974 1_565
Zr4 Zr5 3.131519 1_555
Zr4 Zr5 3.178974 1_455
Sn0 Zr3 3.155267 1_455
Sn0 Zr4 3.155267 1_565
Sn0 Zr5 3.155276 1_565
Sn0 Zr5 3.155276 1_455
Sn0 Zr3 3.155286 1_555
Sn0 Zr4 3.155286 1_555
Sn0 Zr0 3.158810 1_555
Sn0 Zr0 3.158810 1_556
Sn0 Zr1 3.158810 1_555
Sn0 Zr1 3.158810 1_556
Sn0 Zr2 3.158813 1_556
Sn0 Zr2 3.158813 1_555
Sn1 Zr1 3.155267 1_545
Sn1 Zr0 3.155267 1_655
Sn1 Zr2 3.155276 1_545
Sn1 Zr2 3.155276 1_655
Sn1 Zr0 3.155286 1_555
Sn1 Zr1 3.155286 1_555
Sn1 Zr3 3.158810 1_554
Sn1 Zr3 3.158810 1_555
Sn1 Zr4 3.158810 1_555
Sn1 Zr4 3.158810 1_554
Sn1 Zr5 3.158813 1_555
Sn1 Zr5 3.158813 1_554
