# generated using pymatgen
data_Ta4CoNi
_symmetry_space_group_name_H-M   'P 1'
_cell_length_a   4.98504123
_cell_length_b   4.98504123
_cell_length_c   4.98504123
_cell_angle_alpha   104.01288211
_cell_angle_beta   104.01288211
_cell_angle_gamma   121.04558677
_symmetry_Int_Tables_number   1
_chemical_formula_structural   Ta4CoNi
_chemical_formula_sum   'Ta4 Co1 Ni1'
_cell_volume   92.39713985
_cell_formula_units_Z   1
loop_
 _symmetry_equiv_pos_site_id
 _symmetry_equiv_pos_as_xyz
  1  'x, y, z'
loop_
 _atom_site_type_symbol
 _atom_site_label
 _atom_site_symmetry_multiplicity
 _atom_site_fract_x
 _atom_site_fract_y
 _atom_site_fract_z
 _atom_site_occupancy
  Ta  Ta0  1  0.41017612  0.91017612  0.82035324  1
  Ta  Ta1  1  0.08982388  0.58982388  0.17964676  1
  Ta  Ta2  1  0.58982388  0.41017612  0.50000000  1
  Ta  Ta3  1  0.91017612  0.08982388  0.50000000  1
  Co  Co0  1  0.50000000  0.50000000  0.00000000  1
  Ni  Ni0  1  0.00000000  -0.00000000  0.00000000  1
loop_
_geom_bond_atom_site_label_1
_geom_bond_atom_site_label_2
_geom_bond_distance
_geom_bond_site_symmetry_2
Ta0 Ta1 2.780496 1_555
Ta0 Ta1 2.906636 1_556
Ta0 Ta1 2.906645 1_666
Ta0 Ta2 3.143706 1_455
Ta0 Ta3 3.143706 1_455
Ta0 Ta2 3.143710 1_565
Ta0 Ta3 3.143710 1_565
Ta0 Ta3 3.260713 1_566
Ta0 Ta2 3.260713 1_566
Ta0 Ta2 3.260719 1_555
Ta0 Ta3 3.260719 1_465
Ta1 Ta3 3.143706 1_565
Ta1 Ta2 3.143706 1_565
Ta1 Ta3 3.143710 1_455
Ta1 Ta2 3.143710 1_455
Ta1 Ta2 3.260713 1_454
Ta1 Ta3 3.260713 1_454
Ta1 Ta2 3.260719 1_555
Ta1 Ta3 3.260719 1_465
Ta2 Ta3 2.780488 1_555
Ta2 Ta3 2.906645 1_565
Ta2 Ta3 2.906645 1_455
Co0 Ni0 2.453026 1_555
Co0 Ni0 2.453026 1_665
Co0 Ta1 2.611601 1_555
Co0 Ta0 2.611601 1_554
Co0 Ta0 2.611603 1_544
Co0 Ta1 2.611603 1_655
Co0 Ta3 2.611603 1_565
Co0 Ta2 2.611603 1_555
Co0 Ta2 2.611603 1_554
Co0 Ta3 2.611603 1_454
Ni0 Ta0 2.611601 1_544
Ni0 Ta1 2.611601 1_545
Ni0 Ta1 2.611603 1_555
Ni0 Ta0 2.611603 1_444
Ni0 Ta2 2.611603 1_555
Ni0 Ta2 2.611603 1_444
Ni0 Ta3 2.611603 1_455
Ni0 Ta3 2.611603 1_454
