# generated using pymatgen
data_Sc2W5(SeO4)3
_symmetry_space_group_name_H-M   'P 1'
_cell_length_a   7.54546200
_cell_length_b   10.29356739
_cell_length_c   10.90749792
_cell_angle_alpha   85.26646380
_cell_angle_beta   73.54172393
_cell_angle_gamma   87.24951574
_symmetry_Int_Tables_number   1
_chemical_formula_structural   Sc2W5(SeO4)3
_chemical_formula_sum   'Sc4 W10 Se6 O24'
_cell_volume   809.43061109
_cell_formula_units_Z   2
loop_
 _symmetry_equiv_pos_site_id
 _symmetry_equiv_pos_as_xyz
  1  'x, y, z'
loop_
 _atom_site_type_symbol
 _atom_site_label
 _atom_site_symmetry_multiplicity
 _atom_site_fract_x
 _atom_site_fract_y
 _atom_site_fract_z
 _atom_site_occupancy
  Sc  Sc0  1  0.69096100  0.43608500  0.72422000  1
  Sc  Sc1  1  0.39704400  0.23682100  0.39639200  1
  Sc  Sc2  1  0.36794100  0.77336200  0.41019800  1
  Sc  Sc3  1  0.08523100  0.07390800  0.02582700  1
  W  W0  1  0.77290400  0.82222400  0.87300700  1
  W  W1  1  0.18826600  0.96013800  0.76294500  1
  W  W2  1  0.11816200  0.63136900  0.89785800  1
  W  W3  1  0.67724700  0.51664700  0.98286200  1
  W  W4  1  0.00108700  0.90979600  0.53372700  1
  W  W5  1  0.01518900  0.35989900  0.82763000  1
  W  W6  1  0.73975100  0.63888100  0.21819000  1
  W  W7  1  0.96831200  0.21332900  0.56483900  1
  W  W8  1  0.83830500  0.34561800  0.18269900  1
  W  W9  1  0.72641900  0.10609000  0.93353300  1
  Se  Se0  1  0.35512600  0.29896300  0.06974300  1
  Se  Se1  1  0.44784200  0.18561100  0.71645600  1
  Se  Se2  1  0.53055200  0.76270700  0.68061300  1
  Se  Se3  1  0.24087300  0.77222700  0.11833500  1
  Se  Se4  1  0.70338300  0.98000600  0.28111600  1
  Se  Se5  1  0.12918300  0.50455900  0.46837000  1
  O  O0  1  0.09825700  0.90899900  0.14373300  1
  O  O1  1  0.60440500  0.30365300  0.01851500  1
  O  O2  1  0.34704800  0.14208000  0.02050200  1
  O  O3  1  0.18229000  0.64364800  0.52791500  1
  O  O4  1  0.19664500  0.17971300  0.76453300  1
  O  O5  1  0.99999100  0.08025300  0.43918100  1
  O  O6  1  0.48842500  0.04871800  0.33913000  1
  O  O7  1  0.31175100  0.27553900  0.23188300  1
  O  O8  1  0.25238200  0.74891100  0.74742600  1
  O  O9  1  0.59549200  0.60289900  0.65629100  1
  O  O10  1  0.50553000  0.20609600  0.55242900  1
  O  O11  1  0.23740700  0.72366600  0.27351900  1
  O  O12  1  0.34088000  0.42889100  0.44022000  1
  O  O13  1  0.81463900  0.47539200  0.30748800  1
  O  O14  1  0.82724300  0.80913500  0.68297200  1
  O  O15  1  0.81633900  0.24417000  0.76584600  1
  O  O16  1  0.99473600  0.42008100  0.62234200  1
  O  O17  1  0.61222300  0.83036700  0.25876300  1
  O  O18  1  0.68278200  0.70892600  0.03728800  1
  O  O19  1  0.44388800  0.34657800  0.76018800  1
  O  O20  1  0.99288300  0.26481900  0.01419300  1
  O  O21  1  0.53527600  0.81357100  0.52554700  1
  O  O22  1  0.78040100  0.04727800  0.12117900  1
  O  O23  1  0.08111000  0.65857600  0.09365800  1
loop_
_geom_bond_atom_site_label_1
_geom_bond_atom_site_label_2
_geom_bond_distance
_geom_bond_site_symmetry_2
O0 Se3 1.722468 1_555
O0 Sc3 2.059230 1_565
O1 Se0 1.805869 1_555
O1 W3 2.261428 1_554
O1 W9 2.343146 1_554
O2 Se0 1.752481 1_555
O2 Sc3 2.111830 1_555
O2 W9 2.765638 1_554
O3 Se5 1.728653 1_555
O3 Sc2 2.066674 1_555
O4 Se1 1.820384 1_555
O4 W1 2.265754 1_545
O4 W5 2.285043 1_555
O4 Sc3 2.869440 1_556
O5 W4 1.961383 1_645
O5 W7 1.976095 1_555
O6 Se4 1.706935 1_545
O6 Sc1 2.107615 1_555
O7 Se0 1.703587 1_555
O7 Sc1 2.074740 1_555
O8 W2 2.007552 1_555
O8 Se2 2.025222 1_555
O8 W1 2.214403 1_555
O9 Se2 1.713913 1_555
O9 Sc0 1.997527 1_555
O10 Se1 1.714691 1_555
O10 Sc1 2.083879 1_555
O11 Se3 1.718198 1_555
O11 Sc2 2.112014 1_555
O12 Se5 1.701364 1_555
O12 Sc1 2.068279 1_555
O13 W8 1.951541 1_555
O13 W6 2.012506 1_555
O14 W0 2.010475 1_555
O14 W4 2.021481 1_655
O14 Se2 2.319063 1_555
O15 W9 2.187751 1_555
O15 W7 2.208630 1_555
O15 Sc0 2.218036 1_555
O15 W5 2.236403 1_655
O16 Se5 1.866572 1_655
O16 Sc0 2.250892 1_555
O16 W7 2.300944 1_555
O16 W5 2.319310 1_655
O17 Se4 1.778722 1_555
O17 Sc2 2.165367 1_555
O17 W6 2.174295 1_555
O18 W0 2.018459 1_554
O18 W3 2.118360 1_554
O18 W6 2.194122 1_555
O19 Se1 1.758255 1_555
O19 Sc0 2.041835 1_555
O20 Sc3 2.059370 1_655
O20 W8 2.091598 1_555
O20 W5 2.149466 1_654
O21 Se2 1.719780 1_555
O21 Sc2 2.093981 1_555
O22 Se4 1.767865 1_545
O22 W9 2.228408 1_554
O22 Sc3 2.259465 1_655
O23 Se3 1.807049 1_555
O23 W2 2.114386 1_554
O23 W6 2.557861 1_455
