# generated using pymatgen
data_Ba3Tb2WO9
_symmetry_space_group_name_H-M   'P 1'
_cell_length_a   6.11781678
_cell_length_b   10.59212161
_cell_length_c   8.66724279
_cell_angle_alpha   65.76616047
_cell_angle_beta   89.72475978
_cell_angle_gamma   106.51399420
_symmetry_Int_Tables_number   1
_chemical_formula_structural   Ba3Tb2WO9
_chemical_formula_sum   'Ba6 Tb4 W2 O18'
_cell_volume   486.26073805
_cell_formula_units_Z   2
loop_
 _symmetry_equiv_pos_site_id
 _symmetry_equiv_pos_as_xyz
  1  'x, y, z'
loop_
 _atom_site_type_symbol
 _atom_site_label
 _atom_site_symmetry_multiplicity
 _atom_site_fract_x
 _atom_site_fract_y
 _atom_site_fract_z
 _atom_site_occupancy
  Ba  Ba0  1  0.49471100  0.49186300  0.24966600  1
  Ba  Ba1  1  0.17470100  0.83981700  0.57152200  1
  Ba  Ba2  1  0.82181400  0.16682800  0.92225500  1
  Ba  Ba3  1  0.17195600  0.84147000  0.08366700  1
  Ba  Ba4  1  0.84485300  0.16650500  0.41107800  1
  Ba  Ba5  1  0.49196500  0.49351700  0.76181200  1
  Tb  Tb0  1  0.00020300  0.50452000  0.99781700  1
  Tb  Tb1  1  0.66646400  0.82881300  0.33551600  1
  Tb  Tb2  1  0.33333300  0.16666700  0.66666700  1
  Tb  Tb3  1  0.33333300  0.16666700  0.16666700  1
  W  W0  1  0.99641600  0.49776200  0.50189200  1
  W  W1  1  0.67025100  0.83557100  0.83144100  1
  O  O0  1  0.54388600  0.01209300  0.28002900  1
  O  O1  1  0.17291500  0.35926000  0.59910100  1
  O  O2  1  0.86008700  0.70690900  0.91892100  1
  O  O3  1  0.12278000  0.32124100  0.05330500  1
  O  O4  1  0.80658000  0.62642400  0.41441200  1
  O  O5  1  0.49375200  0.97407300  0.73423200  1
  O  O6  1  0.28434500  0.66282800  0.41475800  1
  O  O7  1  0.95738200  0.00260000  0.74791200  1
  O  O8  1  0.64594600  0.37039300  0.06414900  1
  O  O9  1  0.64798300  0.84607900  0.05440700  1
  O  O10  1  0.29757600  0.19294100  0.40717300  1
  O  O11  1  0.98586800  0.52256100  0.71566900  1
  O  O12  1  0.38232100  0.67050600  0.91857600  1
  O  O13  1  0.02072100  0.96294000  0.26918400  1
  O  O14  1  0.70928500  0.33073300  0.58542100  1
  O  O15  1  0.01868400  0.48725400  0.27892600  1
  O  O16  1  0.68079800  0.81077300  0.61766500  1
  O  O17  1  0.36909100  0.14039200  0.92616000  1
loop_
_geom_bond_atom_site_label_1
_geom_bond_atom_site_label_2
_geom_bond_distance
_geom_bond_site_symmetry_2
Ba0 O8 2.730868 1_555
Ba0 O10 2.758277 1_555
Ba0 O4 2.803843 1_555
Ba0 O15 2.906852 1_555
Ba0 O12 2.930711 1_554
Ba0 O1 3.146393 1_555
Ba0 O2 3.175871 1_554
Ba0 O14 3.215239 1_555
Ba0 O6 3.227609 1_555
Ba0 O15 3.229396 1_655
Ba0 O9 3.254580 1_555
Ba0 O3 3.400661 1_555
Ba1 O13 2.715063 1_555
Ba1 O5 2.813489 1_555
Ba1 O11 2.918990 1_455
Ba1 O6 2.933882 1_555
Ba1 O0 2.937947 1_565
Ba1 O16 2.956964 1_455
Ba1 O2 3.110746 1_455
Ba1 O16 3.208347 1_555
Ba1 O7 3.244297 1_465
Ba1 O10 3.256023 1_565
Ba1 O12 3.283421 1_555
Ba1 O4 3.420139 1_455
Ba2 O3 2.681146 1_656
Ba2 O17 2.702051 1_555
Ba2 O14 2.923868 1_555
Ba2 O9 2.953823 1_546
Ba2 O7 2.993850 1_555
Ba2 O1 3.062641 1_655
Ba2 O0 3.063632 1_556
Ba2 O11 3.271885 1_555
Ba2 O8 3.286679 1_556
Ba2 O5 3.359407 1_545
Ba2 O13 3.374096 1_646
Ba2 O17 3.437425 1_655
Ba3 O13 2.730868 1_555
Ba3 O17 2.758277 1_564
Ba3 O2 2.803843 1_454
Ba3 O9 2.906852 1_555
Ba3 O6 2.930711 1_555
Ba3 O5 3.146393 1_554
Ba3 O4 3.175871 1_455
Ba3 O7 3.215239 1_464
Ba3 O12 3.227590 1_554
Ba3 O9 3.229396 1_455
Ba3 O15 3.254580 1_555
Ba3 O0 3.400670 1_565
Ba4 O0 2.681137 1_555
Ba4 O10 2.702051 1_655
Ba4 O7 2.923868 1_555
Ba4 O15 2.953823 1_655
Ba4 O14 2.993850 1_555
Ba4 O5 3.062641 1_545
Ba4 O3 3.063623 1_655
Ba4 O16 3.271876 1_545
Ba4 O13 3.286679 1_645
Ba4 O1 3.359407 1_655
Ba4 O8 3.374096 1_555
Ba4 O10 3.437425 1_555
Ba5 O8 2.715061 1_556
Ba5 O1 2.813497 1_555
Ba5 O16 2.918990 1_555
Ba5 O12 2.933882 1_555
Ba5 O3 2.937947 1_556
Ba5 O11 2.956964 1_555
Ba5 O4 3.110757 1_555
Ba5 O11 3.208347 1_455
Ba5 O14 3.244316 1_555
Ba5 O17 3.256033 1_555
Ba5 O6 3.283421 1_555
Ba5 O2 3.420129 1_555
O0 Tb1 2.151058 1_545
O0 Tb3 2.279433 1_555
O1 W0 1.980554 1_455
O1 Tb2 2.372879 1_555
O2 W1 1.959825 1_555
O2 Tb0 2.375897 1_655
O3 Tb0 2.151044 1_554
O3 Tb3 2.279433 1_555
O4 W0 1.959825 1_555
O4 Tb1 2.375897 1_555
O5 W1 1.980554 1_555
O5 Tb2 2.372893 1_565
O6 W0 1.970410 1_455
O6 Tb1 2.384217 1_555
O7 W1 1.977221 1_545
O7 Tb2 2.348072 1_655
O8 Tb0 2.147808 1_654
O8 Tb3 2.273138 1_555
O9 W1 1.987000 1_554
O9 Tb1 2.372990 1_555
O10 Tb2 2.170080 1_555
O10 Tb3 2.230920 1_555
O11 W0 1.978452 1_555
O11 Tb0 2.377472 1_655
O12 W1 1.970409 1_555
O12 Tb0 2.384216 1_555
O13 Tb1 2.147808 1_455
O13 Tb3 2.273140 1_565
O14 W0 1.977221 1_555
O14 Tb2 2.348073 1_555
O15 W0 1.987000 1_455
O15 Tb0 2.372990 1_554
O16 W1 1.978437 1_555
O16 Tb1 2.377484 1_555
O17 Tb2 2.170070 1_555
O17 Tb3 2.230935 1_556
