# generated using pymatgen
data_Cs2LiTm2(WO4)4
_symmetry_space_group_name_H-M   'P 1'
_cell_length_a   7.52476449
_cell_length_b   7.85678636
_cell_length_c   7.50636782
_cell_angle_alpha   63.53548120
_cell_angle_beta   63.25452989
_cell_angle_gamma   90.36259599
_symmetry_Int_Tables_number   1
_chemical_formula_structural   Cs2LiTm2(WO4)4
_chemical_formula_sum   'Cs2 Li1 Tm2 W4 O16'
_cell_volume   342.68848430
_cell_formula_units_Z   1
loop_
 _symmetry_equiv_pos_site_id
 _symmetry_equiv_pos_as_xyz
  1  'x, y, z'
loop_
 _atom_site_type_symbol
 _atom_site_label
 _atom_site_symmetry_multiplicity
 _atom_site_fract_x
 _atom_site_fract_y
 _atom_site_fract_z
 _atom_site_occupancy
  Cs  Cs0  1  0.78494600  0.22852200  0.72913700  1
  Cs  Cs1  1  0.21446000  0.80917200  0.24501900  1
  Li  Li0  1  0.93715400  0.93168400  0.89517100  1
  Tm  Tm0  1  0.26699500  0.78633300  0.73267700  1
  Tm  Tm1  1  0.75722700  0.19779000  0.25189800  1
  W  W0  1  0.29481500  0.31038900  0.71001600  1
  W  W1  1  0.70499300  0.67159200  0.30905300  1
  W  W2  1  0.69373500  0.70333100  0.80001800  1
  W  W3  1  0.30955600  0.30237800  0.20931400  1
  O  O0  1  0.37166500  0.25288300  0.93432800  1
  O  O1  1  0.63322800  0.75467700  0.05116100  1
  O  O2  1  0.75888100  0.62866800  0.56977400  1
  O  O3  1  0.24283400  0.37494000  0.43546400  1
  O  O4  1  0.61113800  0.92206000  0.63760900  1
  O  O5  1  0.38480700  0.07661500  0.36217800  1
  O  O6  1  0.04252300  0.34135700  0.88289500  1
  O  O7  1  0.96034500  0.66049900  0.10681100  1
  O  O8  1  0.40021100  0.61500000  0.54915800  1
  O  O9  1  0.58834100  0.36133100  0.46468800  1
  O  O10  1  0.36964400  0.58223400  0.96813200  1
  O  O11  1  0.63315500  0.41711900  0.03165600  1
  O  O12  1  0.21707500  0.04841000  0.78975200  1
  O  O13  1  0.77060800  0.95293700  0.19393700  1
  O  O14  1  0.97109700  0.79368700  0.69919300  1
  O  O15  1  0.03889900  0.21805900  0.29810100  1
loop_
_geom_bond_atom_site_label_1
_geom_bond_atom_site_label_2
_geom_bond_distance
_geom_bond_site_symmetry_2
Cs0 Li0 2.651816 1_545
Cs0 O9 2.834513 1_555
Cs0 O0 2.835348 1_555
Cs0 O2 2.867113 1_555
Cs0 O6 2.962819 1_655
Cs0 O15 2.966668 1_655
Cs0 O3 2.984575 1_655
Cs0 O11 3.056601 1_556
Cs0 O13 3.130141 1_546
Cs0 O4 3.197404 1_545
Cs0 O1 3.232328 1_546
Cs1 O1 2.945454 1_555
Cs1 O7 2.989039 1_455
Cs1 O14 2.999879 1_455
Cs1 O2 3.006882 1_455
Cs1 O0 3.034774 1_564
Cs1 O8 3.047599 1_555
Cs1 O12 3.070164 1_564
Cs1 O5 3.075589 1_565
Cs1 O3 3.108966 1_555
Cs1 O10 3.163439 1_554
Li0 O12 1.931954 1_665
Li0 O7 2.081167 1_556
Li0 O13 2.105871 1_556
Li0 O14 2.119372 1_555
Li0 O1 2.152557 1_556
O0 W0 1.890833 1_555
O0 W3 2.116552 1_556
O1 W2 1.957430 1_554
O1 W1 2.069843 1_555
O2 W2 1.927728 1_555
O2 W1 2.058157 1_555
O3 W3 1.886242 1_555
O3 W0 2.110436 1_555
O4 W2 1.911538 1_555
O4 Tm1 2.408126 1_565
O4 Tm0 2.444570 1_555
O5 W3 1.888653 1_555
O5 Tm0 2.413302 1_545
O5 Tm1 2.573089 1_555
O6 W0 1.848558 1_555
O6 Tm1 2.320743 1_456
O7 W1 1.870523 1_555
O7 Tm0 2.419243 1_654
O8 W1 2.063562 1_555
O8 W0 2.086409 1_555
O8 Tm0 2.267499 1_555
O9 W0 2.025048 1_555
O9 W1 2.142243 1_555
O9 Tm1 2.416651 1_555
O10 W3 2.004826 1_556
O10 W2 2.139067 1_555
O10 Tm0 2.238332 1_555
O11 W2 2.019034 1_554
O11 W3 2.120933 1_555
O11 Tm1 2.333381 1_555
O12 W0 1.873149 1_555
O12 Tm0 2.283786 1_545
O13 W1 1.943292 1_555
O13 Tm1 2.146925 1_565
O14 W2 1.874395 1_555
O14 Tm0 2.348718 1_655
O15 W3 1.843537 1_555
O15 Tm1 2.311830 1_455
