# generated using pymatgen
data_CaAl2Si2HO9
_symmetry_space_group_name_H-M   'P 1'
_cell_length_a   5.34945721
_cell_length_b   5.34945721
_cell_length_c   13.03258300
_cell_angle_alpha   90.00000000
_cell_angle_beta   90.00000000
_cell_angle_gamma   113.98130780
_symmetry_Int_Tables_number   1
_chemical_formula_structural   CaAl2Si2HO9
_chemical_formula_sum   'Ca2 Al4 Si4 H2 O18'
_cell_volume   340.75571767
_cell_formula_units_Z   2
loop_
 _symmetry_equiv_pos_site_id
 _symmetry_equiv_pos_as_xyz
  1  'x, y, z'
loop_
 _atom_site_type_symbol
 _atom_site_label
 _atom_site_symmetry_multiplicity
 _atom_site_fract_x
 _atom_site_fract_y
 _atom_site_fract_z
 _atom_site_occupancy
  Ca  Ca0  1  0.67373100  0.32626900  0.75000000  1
  Ca  Ca1  1  0.32626900  0.67373100  0.25000000  1
  Al  Al0  1  0.00000000  0.50000000  0.50000000  1
  Al  Al1  1  0.00000000  0.50000000  0.00000000  1
  Al  Al2  1  0.50000000  0.00000000  0.00000000  1
  Al  Al3  1  0.50000000  0.00000000  0.50000000  1
  Si  Si0  1  0.97918200  0.02081800  0.13098500  1
  Si  Si1  1  0.02081800  0.97918200  0.86901500  1
  Si  Si2  1  0.02081800  0.97918200  0.63098500  1
  Si  Si3  1  0.97918200  0.02081800  0.36901500  1
  H  H0  1  0.33143400  0.66856600  0.75000000  1
  H  H1  1  0.66856600  0.33143400  0.25000000  1
  O  O0  1  0.89063000  0.64634500  0.61632600  1
  O  O1  1  0.10937000  0.35365500  0.38367400  1
  O  O2  1  0.10937000  0.35365500  0.11632600  1
  O  O3  1  0.35365500  0.10937000  0.88367400  1
  O  O4  1  0.89063000  0.64634500  0.88367400  1
  O  O5  1  0.64634500  0.89063000  0.11632600  1
  O  O6  1  0.64634500  0.89063000  0.38367400  1
  O  O7  1  0.35365500  0.10937000  0.61632600  1
  O  O8  1  0.34984000  0.65016000  0.55927200  1
  O  O9  1  0.65016000  0.34984000  0.44072800  1
  O  O10  1  0.65016000  0.34984000  0.05927200  1
  O  O11  1  0.34984000  0.65016000  0.94072800  1
  O  O12  1  0.95213600  0.04786400  0.75000000  1
  O  O13  1  0.04786400  0.95213600  0.25000000  1
  O  O14  1  0.86328300  0.13671700  0.56582600  1
  O  O15  1  0.13671700  0.86328300  0.43417400  1
  O  O16  1  0.13671700  0.86328300  0.06582600  1
  O  O17  1  0.86328300  0.13671700  0.93417400  1
loop_
_geom_bond_atom_site_label_1
_geom_bond_atom_site_label_2
_geom_bond_distance
_geom_bond_site_symmetry_2
Ca0 O3 2.387060 1_555
Ca0 O4 2.387060 1_555
Ca0 O0 2.387060 1_555
Ca0 O7 2.387060 1_555
Ca0 O12 2.497826 1_555
Ca1 O6 2.387060 1_555
Ca1 O1 2.387060 1_555
Ca1 O5 2.387060 1_555
Ca1 O2 2.387060 1_555
Ca1 O13 2.497826 1_555
Al0 O8 1.876780 1_555
Al0 O9 1.876780 1_455
Al0 O0 1.904167 1_455
Al0 O1 1.904167 1_555
Al0 O14 1.972861 1_455
Al0 O15 1.972861 1_555
Al1 O10 1.876780 1_455
Al1 O11 1.876780 1_554
Al1 O2 1.904167 1_555
Al1 O4 1.904167 1_454
Al1 O16 1.972861 1_555
Al1 O17 1.972861 1_454
Al2 O11 1.876780 1_544
Al2 O10 1.876780 1_555
Al2 O5 1.904167 1_545
Al2 O3 1.904167 1_554
Al2 O17 1.972861 1_554
Al2 O16 1.972861 1_545
Al3 O8 1.876780 1_545
Al3 O9 1.876780 1_555
Al3 O7 1.904167 1_555
Al3 O6 1.904167 1_545
Al3 O14 1.972861 1_555
Al3 O15 1.972861 1_545
O0 Si2 1.638207 1_655
O1 Si3 1.638207 1_455
O2 Si0 1.638207 1_455
O3 Si1 1.638207 1_545
O4 Si1 1.638207 1_655
O5 Si0 1.638207 1_565
O6 Si3 1.638207 1_565
O7 Si2 1.638207 1_545
O12 Si1 1.668994 1_645
O12 Si2 1.668994 1_645
O13 Si0 1.668994 1_465
O13 Si3 1.668994 1_465
O14 Si2 1.648877 1_645
O15 Si3 1.648877 1_465
O16 Si0 1.648877 1_465
O17 Si1 1.648877 1_645
