# generated using pymatgen
data_Sc(MnN)3
_symmetry_space_group_name_H-M   'P 1'
_cell_length_a   7.41176368
_cell_length_b   7.40329137
_cell_length_c   3.78546200
_cell_angle_alpha   90.00000000
_cell_angle_beta   90.00000000
_cell_angle_gamma   120.63752364
_symmetry_Int_Tables_number   1
_chemical_formula_structural   Sc(MnN)3
_chemical_formula_sum   'Sc2 Mn6 N6'
_cell_volume   178.71868978
_cell_formula_units_Z   2
loop_
 _symmetry_equiv_pos_site_id
 _symmetry_equiv_pos_as_xyz
  1  'x, y, z'
loop_
 _atom_site_type_symbol
 _atom_site_label
 _atom_site_symmetry_multiplicity
 _atom_site_fract_x
 _atom_site_fract_y
 _atom_site_fract_z
 _atom_site_occupancy
  Sc  Sc0  1  0.66874500  0.33004000  0.75000000  1
  Sc  Sc1  1  0.33125500  0.66996000  0.25000000  1
  Mn  Mn0  1  0.86447400  0.73236800  0.25000000  1
  Mn  Mn1  1  0.86915600  0.13169100  0.25000000  1
  Mn  Mn2  1  0.26699000  0.13479200  0.25000000  1
  Mn  Mn3  1  0.13552600  0.26763200  0.75000000  1
  Mn  Mn4  1  0.13084400  0.86830900  0.75000000  1
  Mn  Mn5  1  0.73301000  0.86520800  0.75000000  1
  N  N0  1  0.82616900  0.65661400  0.75000000  1
  N  N1  1  0.83177600  0.16957400  0.75000000  1
  N  N2  1  0.34262600  0.17288900  0.75000000  1
  N  N3  1  0.17383100  0.34338600  0.25000000  1
  N  N4  1  0.16822400  0.83042600  0.25000000  1
  N  N5  1  0.65737400  0.82711100  0.25000000  1
loop_
_geom_bond_atom_site_label_1
_geom_bond_atom_site_label_2
_geom_bond_distance
_geom_bond_site_symmetry_2
Mn0 N0 1.953274 1_554
Mn0 N0 1.953274 1_555
Mn0 N4 1.982351 1_655
Mn0 N5 1.986318 1_555
Mn1 N1 1.953725 1_555
Mn1 N1 1.953725 1_554
Mn1 N5 1.985192 1_545
Mn1 N3 1.987088 1_655
Mn2 N2 1.953227 1_555
Mn2 N2 1.953227 1_554
Mn2 N4 1.982952 1_545
Mn2 N3 1.987040 1_555
Mn3 N3 1.953274 1_555
Mn3 N3 1.953274 1_556
Mn3 N1 1.982351 1_455
Mn3 N2 1.986318 1_555
Mn4 N4 1.953725 1_555
Mn4 N4 1.953725 1_556
Mn4 N2 1.985192 1_565
Mn4 N0 1.987088 1_455
Mn5 N5 1.953227 1_555
Mn5 N5 1.953227 1_556
Mn5 N1 1.982952 1_565
Mn5 N0 1.987040 1_555
N0 Sc0 2.081253 1_555
N1 Sc0 2.081935 1_555
N2 Sc0 2.080830 1_555
N3 Sc1 2.081253 1_555
N4 Sc1 2.081935 1_555
N5 Sc1 2.080830 1_555
