# generated using pymatgen
data_Co5(P2O7)4
_symmetry_space_group_name_H-M   'P 1'
_cell_length_a   6.55904900
_cell_length_b   8.20710363
_cell_length_c   10.19385702
_cell_angle_alpha   108.41130206
_cell_angle_beta   89.16774826
_cell_angle_gamma   93.94584475
_symmetry_Int_Tables_number   1
_chemical_formula_structural   Co5(P2O7)4
_chemical_formula_sum   'Co5 P8 O28'
_cell_volume   519.40603925
_cell_formula_units_Z   1
loop_
 _symmetry_equiv_pos_site_id
 _symmetry_equiv_pos_as_xyz
  1  'x, y, z'
loop_
 _atom_site_type_symbol
 _atom_site_label
 _atom_site_symmetry_multiplicity
 _atom_site_fract_x
 _atom_site_fract_y
 _atom_site_fract_z
 _atom_site_occupancy
  Co  Co0  1  0.27561300  0.88153300  0.61611100  1
  Co  Co1  1  0.33968200  0.87342300  0.06042300  1
  Co  Co2  1  0.50000000  0.50000000  0.00000000  1
  Co  Co3  1  0.66031800  0.12657700  0.93957700  1
  Co  Co4  1  0.72438700  0.11846700  0.38388900  1
  P  P0  1  0.16273800  0.20178100  0.01403100  1
  P  P1  1  0.19053900  0.18287400  0.30361400  1
  P  P2  1  0.27239500  0.55197000  0.74214600  1
  P  P3  1  0.47906800  0.75004800  0.31707900  1
  P  P4  1  0.52093200  0.24995200  0.68292100  1
  P  P5  1  0.72760500  0.44803000  0.25785400  1
  P  P6  1  0.80946100  0.81712600  0.69638600  1
  P  P7  1  0.83726200  0.79821900  0.98596900  1
  O  O0  1  0.03431200  0.85229300  0.06844300  1
  O  O1  1  0.01394500  0.09768300  0.36544900  1
  O  O2  1  0.07175000  0.45143000  0.73202500  1
  O  O3  1  0.09909200  0.21946900  0.17034700  1
  O  O4  1  0.25227200  0.37865300  0.01311900  1
  O  O5  1  0.24912200  0.35185900  0.41379600  1
  O  O6  1  0.28784400  0.68839400  0.66655600  1
  O  O7  1  0.30783200  0.80362300  0.42018100  1
  O  O8  1  0.35407300  0.64149800  0.89403800  1
  O  O9  1  0.33678900  0.11551100  0.65247100  1
  O  O10  1  0.33102800  0.06904600  0.97069100  1
  O  O11  1  0.41026200  0.70653400  0.16408200  1
  O  O12  1  0.36423600  0.06323300  0.25075100  1
  O  O13  1  0.45067400  0.42617600  0.67000200  1
  O  O14  1  0.54932600  0.57382400  0.32999800  1
  O  O15  1  0.63576400  0.93676700  0.74924900  1
  O  O16  1  0.58973800  0.29346600  0.83591800  1
  O  O17  1  0.66897200  0.93095400  0.02930900  1
  O  O18  1  0.66321100  0.88448900  0.34752900  1
  O  O19  1  0.64592700  0.35850200  0.10596200  1
  O  O20  1  0.69216800  0.19637700  0.57981900  1
  O  O21  1  0.71215600  0.31160600  0.33344400  1
  O  O22  1  0.75087800  0.64814100  0.58620400  1
  O  O23  1  0.74772800  0.62134700  0.98688100  1
  O  O24  1  0.90090800  0.78053100  0.82965300  1
  O  O25  1  0.92825000  0.54857000  0.26797500  1
  O  O26  1  0.98605500  0.90231700  0.63455100  1
  O  O27  1  0.96568800  0.14770700  0.93155700  1
loop_
_geom_bond_atom_site_label_1
_geom_bond_atom_site_label_2
_geom_bond_distance
_geom_bond_site_symmetry_2
Co0 O6 1.821271 1_555
Co0 O9 1.853254 1_565
Co0 O7 1.908476 1_555
Co0 O26 1.919752 1_455
Co1 O0 2.001227 1_555
Co1 O11 2.054899 1_555
Co1 O12 2.069377 1_565
Co1 O10 2.087884 1_564
Co1 O8 2.118846 1_554
Co1 O17 2.218726 1_555
Co2 O23 1.872163 1_554
Co2 O4 1.872163 1_555
Co2 O11 2.082094 1_555
Co2 O16 2.082094 1_554
Co2 O19 2.099245 1_555
Co2 O8 2.099245 1_554
Co3 O27 2.001227 1_555
Co3 O16 2.054899 1_555
Co3 O15 2.069377 1_545
Co3 O17 2.087884 1_546
Co3 O19 2.118846 1_556
Co3 O10 2.218726 1_555
Co4 O21 1.821271 1_555
Co4 O18 1.853254 1_545
Co4 O20 1.908476 1_555
Co4 O1 1.919752 1_655
O0 P7 1.513662 1_454
O1 P1 1.540623 1_555
O2 P2 1.491370 1_555
O3 P0 1.605418 1_555
O3 P1 1.612978 1_555
O4 P0 1.530740 1_555
O5 P1 1.512561 1_555
O6 P2 1.544253 1_555
O7 P3 1.516960 1_555
O8 P2 1.573404 1_555
O9 P4 1.543926 1_555
O10 P0 1.564497 1_556
O11 P3 1.552447 1_555
O12 P1 1.534403 1_555
O13 P4 1.592249 1_555
O13 P2 1.623463 1_555
O14 P3 1.592249 1_555
O14 P5 1.623463 1_555
O15 P6 1.534403 1_555
O16 P4 1.552447 1_555
O17 P7 1.564497 1_554
O18 P3 1.543926 1_555
O19 P5 1.573404 1_555
O20 P4 1.516960 1_555
O21 P5 1.544253 1_555
O22 P6 1.512561 1_555
O23 P7 1.530740 1_555
O24 P7 1.605418 1_555
O24 P6 1.612978 1_555
O25 P5 1.491370 1_555
O26 P6 1.540623 1_555
O27 P0 1.513662 1_656
