# generated using pymatgen
data_Tb5Si2BO13
_symmetry_space_group_name_H-M   'P 1'
_cell_length_a   6.82219900
_cell_length_b   9.29088700
_cell_length_c   9.30084319
_cell_angle_alpha   60.38977490
_cell_angle_beta   90.00000000
_cell_angle_gamma   90.00000000
_symmetry_Int_Tables_number   1
_chemical_formula_structural   Tb5Si2BO13
_chemical_formula_sum   'Tb10 Si4 B2 O26'
_cell_volume   512.53897909
_cell_formula_units_Z   2
loop_
 _symmetry_equiv_pos_site_id
 _symmetry_equiv_pos_as_xyz
  1  'x, y, z'
loop_
 _atom_site_type_symbol
 _atom_site_label
 _atom_site_symmetry_multiplicity
 _atom_site_fract_x
 _atom_site_fract_y
 _atom_site_fract_z
 _atom_site_occupancy
  Tb  Tb0  1  0.73990300  0.34478500  0.33248600  1
  Tb  Tb1  1  0.26003700  0.65366100  0.67761300  1
  Tb  Tb2  1  0.73996300  0.65366100  0.67761300  1
  Tb  Tb3  1  0.26009700  0.34478500  0.33248600  1
  Tb  Tb4  1  0.50000000  0.75277800  0.23353200  1
  Tb  Tb5  1  0.50000000  0.99033500  0.77401200  1
  Tb  Tb6  1  0.50000000  0.24799600  0.98256100  1
  Tb  Tb7  1  0.00000000  0.24330000  0.76359300  1
  Tb  Tb8  1  0.00000000  0.99383200  0.23680900  1
  Tb  Tb9  1  0.00000000  0.76444600  0.98776500  1
  Si  Si0  1  0.50000000  0.96936700  0.39946100  1
  Si  Si1  1  0.00000000  0.36746400  0.03282800  1
  Si  Si2  1  0.00000000  0.59908500  0.37390600  1
  Si  Si3  1  0.00000000  0.02933200  0.59828500  1
  B  B0  1  0.50000000  0.63078000  0.97033600  1
  B  B1  1  0.50000000  0.40919200  0.62383500  1
  O  O0  1  0.69225500  0.90517800  0.34146100  1
  O  O1  1  0.67980300  0.74037500  0.91337300  1
  O  O2  1  0.68020200  0.35531500  0.73613800  1
  O  O3  1  0.19177200  0.09229600  0.65932000  1
  O  O4  1  0.19174300  0.24583900  0.09215400  1
  O  O5  1  0.18933700  0.65413500  0.24982600  1
  O  O6  1  0.80822800  0.09229600  0.65932000  1
  O  O7  1  0.80825700  0.24583900  0.09215400  1
  O  O8  1  0.81066300  0.65413500  0.24982600  1
  O  O9  1  0.30774500  0.90517800  0.34146100  1
  O  O10  1  0.32019700  0.74037500  0.91337300  1
  O  O11  1  0.31979800  0.35531500  0.73613800  1
  O  O12  1  0.50000000  0.52010600  0.15412800  1
  O  O13  1  0.50000000  0.34463100  0.50699500  1
  O  O14  1  0.50000000  0.16933800  0.32799300  1
  O  O15  1  0.00000000  0.48509200  0.83328800  1
  O  O16  1  0.00000000  0.67772800  0.49408100  1
  O  O17  1  0.00000000  0.82836000  0.68166800  1
  O  O18  1  0.50000000  0.53386900  0.88056600  1
  O  O19  1  0.50000000  0.59530300  0.53431700  1
  O  O20  1  0.50000000  0.86709000  0.60215700  1
  O  O21  1  0.00000000  0.47162400  0.13241800  1
  O  O22  1  0.00000000  0.39545500  0.47314700  1
  O  O23  1  0.00000000  0.13327900  0.39498500  1
  O  O24  1  0.50000000  0.99768000  0.00587100  1
  O  O25  1  0.00000000  0.99937100  0.99672000  1
loop_
_geom_bond_atom_site_label_1
_geom_bond_atom_site_label_2
_geom_bond_distance
_geom_bond_site_symmetry_2
B0 O12 1.497485 1_556
B0 O18 1.500237 1_555
B0 O10 1.512968 1_555
B0 O1 1.512968 1_555
B1 O13 1.478134 1_555
B1 O19 1.503480 1_555
B1 O11 1.528482 1_555
B1 O2 1.528482 1_555
O0 Si0 1.638560 1_555
O0 Tb8 2.289429 1_655
O0 Tb4 2.477380 1_555
O0 Tb2 2.849883 1_555
O1 Tb9 2.335268 1_655
O1 Tb5 2.367154 1_555
O1 Tb2 2.715049 1_555
O2 Tb6 2.345262 1_555
O2 Tb7 2.376050 1_655
O2 Tb2 2.579714 1_555
O3 Si3 1.644477 1_555
O3 Tb5 2.336333 1_545
O3 Tb7 2.442355 1_555
O3 Tb3 2.813193 1_555
O4 Si1 1.635961 1_555
O4 Tb6 2.332761 1_554
O4 Tb8 2.427009 1_545
O4 Tb3 2.844243 1_555
O5 Si2 1.636647 1_555
O5 Tb4 2.284191 1_555
O5 Tb9 2.488207 1_554
O5 Tb3 2.627011 1_555
O6 Si3 1.644477 1_655
O6 Tb5 2.336333 1_545
O6 Tb7 2.442355 1_655
O6 Tb0 2.813193 1_555
O7 Si1 1.635961 1_655
O7 Tb6 2.332761 1_554
O7 Tb8 2.427009 1_645
O7 Tb0 2.844243 1_555
O8 Si2 1.636647 1_655
O8 Tb4 2.284191 1_555
O8 Tb9 2.488207 1_654
O8 Tb0 2.627011 1_555
O9 Si0 1.638560 1_555
O9 Tb8 2.289429 1_555
O9 Tb4 2.477380 1_555
O9 Tb1 2.849883 1_555
O10 Tb9 2.335268 1_555
O10 Tb5 2.367154 1_555
O10 Tb1 2.715049 1_555
O11 Tb6 2.345262 1_555
O11 Tb7 2.376050 1_555
O11 Tb1 2.579714 1_555
O12 Tb0 2.326716 1_555
O12 Tb3 2.326716 1_555
O12 Tb4 2.606939 1_555
O13 Tb0 2.304512 1_555
O13 Tb3 2.304512 1_555
O14 Si0 1.635014 1_545
O14 Tb0 2.324828 1_555
O14 Tb3 2.324828 1_555
O15 Si1 1.623081 1_556
O15 Tb2 2.335715 1_455
O15 Tb1 2.335715 1_555
O15 Tb7 2.627889 1_555
O16 Si2 1.609419 1_555
O16 Tb1 2.394542 1_555
O16 Tb2 2.394542 1_455
O16 Tb8 2.721482 1_555
O17 Si3 1.630010 1_565
O17 Tb1 2.417345 1_555
O17 Tb2 2.417345 1_455
O17 Tb9 2.605223 1_555
O18 Tb1 2.325039 1_555
O18 Tb2 2.325039 1_555
O18 Tb6 2.337621 1_555
O19 Tb1 2.337600 1_555
O19 Tb2 2.337600 1_555
O19 Tb4 2.433555 1_555
O20 Si0 1.639151 1_555
O20 Tb5 2.382156 1_555
O20 Tb1 2.393618 1_555
O20 Tb2 2.393618 1_555
O21 Si1 1.637163 1_555
O21 Tb9 2.365288 1_554
O21 Tb0 2.415153 1_455
O21 Tb3 2.415153 1_555
O22 Si2 1.644876 1_555
O22 Tb7 2.349934 1_555
O22 Tb0 2.385460 1_455
O22 Tb3 2.385460 1_555
O23 Si3 1.644229 1_555
O23 Tb8 2.392992 1_545
O23 Tb0 2.493842 1_455
O23 Tb3 2.493842 1_555
O24 Tb5 2.191006 1_554
O24 Tb4 2.213537 1_555
O24 Tb6 2.226529 1_564
O25 Tb8 2.208056 1_556
O25 Tb9 2.224993 1_555
O25 Tb7 2.231957 1_565
