# generated using pymatgen
data_Cs2U(Si2O5)3
_symmetry_space_group_name_H-M   'P 1'
_cell_length_a   9.08543928
_cell_length_b   9.08543928
_cell_length_c   13.70409600
_cell_angle_alpha   90.00000000
_cell_angle_beta   90.00000000
_cell_angle_gamma   131.89734469
_symmetry_Int_Tables_number   1
_chemical_formula_structural   Cs2U(Si2O5)3
_chemical_formula_sum   'Cs4 U2 Si12 O30'
_cell_volume   842.00576904
_cell_formula_units_Z   2
loop_
 _symmetry_equiv_pos_site_id
 _symmetry_equiv_pos_as_xyz
  1  'x, y, z'
loop_
 _atom_site_type_symbol
 _atom_site_label
 _atom_site_symmetry_multiplicity
 _atom_site_fract_x
 _atom_site_fract_y
 _atom_site_fract_z
 _atom_site_occupancy
  Cs  Cs0  1  0.11120000  0.88880000  0.17318500  1
  Cs  Cs1  1  0.88880000  0.11120000  0.67318500  1
  Cs  Cs2  1  0.22214000  0.77786000  0.86806000  1
  Cs  Cs3  1  0.77786000  0.22214000  0.36806000  1
  U  U0  1  0.36881100  0.63118900  0.51823100  1
  U  U1  1  0.63118900  0.36881100  0.01823100  1
  Si  Si0  1  0.35674600  0.64325400  0.24952800  1
  Si  Si1  1  0.64325400  0.35674600  0.74952800  1
  Si  Si2  1  0.38963700  0.01986100  0.59334000  1
  Si  Si3  1  0.98013900  0.61036300  0.59334000  1
  Si  Si4  1  0.61036300  0.98013900  0.09334000  1
  Si  Si5  1  0.01986100  0.38963700  0.09334000  1
  Si  Si6  1  0.82582100  0.74089600  0.44306300  1
  Si  Si7  1  0.25910400  0.17417900  0.44306300  1
  Si  Si8  1  0.17417900  0.25910400  0.94306300  1
  Si  Si9  1  0.74089600  0.82582100  0.94306300  1
  Si  Si10  1  0.54680500  0.45319500  0.27222800  1
  Si  Si11  1  0.45319500  0.54680500  0.77222800  1
  O  O0  1  0.32971400  0.67028600  0.36194500  1
  O  O1  1  0.67028600  0.32971400  0.86194500  1
  O  O2  1  0.49729000  0.85856000  0.19435900  1
  O  O3  1  0.14144000  0.50271000  0.19435900  1
  O  O4  1  0.50271000  0.14144000  0.69435900  1
  O  O5  1  0.85856000  0.49729000  0.69435900  1
  O  O6  1  0.45391100  0.54608900  0.23430200  1
  O  O7  1  0.54608900  0.45391100  0.73430200  1
  O  O8  1  0.49053700  0.94189700  0.54685800  1
  O  O9  1  0.05810300  0.50946300  0.54685800  1
  O  O10  1  0.50946300  0.05810300  0.04685800  1
  O  O11  1  0.94189700  0.49053700  0.04685800  1
  O  O12  1  0.39025600  0.15734000  0.51622300  1
  O  O13  1  0.84266000  0.60974400  0.51622300  1
  O  O14  1  0.60974400  0.84266000  0.01622300  1
  O  O15  1  0.15734000  0.39025600  0.01622300  1
  O  O16  1  0.16109700  0.83890300  0.62964800  1
  O  O17  1  0.83890300  0.16109700  0.12964800  1
  O  O18  1  0.68377300  0.77225600  0.48729600  1
  O  O19  1  0.22774400  0.31622700  0.48729600  1
  O  O20  1  0.31622700  0.22774400  0.98729600  1
  O  O21  1  0.77225600  0.68377300  0.98729600  1
  O  O22  1  0.04938800  0.95061200  0.41745100  1
  O  O23  1  0.95061200  0.04938800  0.91745100  1
  O  O24  1  0.74503300  0.61999700  0.33852300  1
  O  O25  1  0.38000300  0.25496700  0.33852300  1
  O  O26  1  0.25496700  0.38000300  0.83852300  1
  O  O27  1  0.61999700  0.74503300  0.83852300  1
  O  O28  1  0.60754700  0.39245300  0.18087800  1
  O  O29  1  0.39245300  0.60754700  0.68087800  1
loop_
_geom_bond_atom_site_label_1
_geom_bond_atom_site_label_2
_geom_bond_distance
_geom_bond_site_symmetry_2
Cs0 O11 3.319972 1_455
Cs0 O10 3.319972 1_565
Cs0 O25 3.363696 1_565
Cs0 O24 3.363696 1_455
Cs0 O20 3.432348 1_564
Cs0 O21 3.432348 1_454
Cs0 O22 3.501053 1_555
Cs0 O28 3.704811 1_565
Cs0 O28 3.704811 1_455
Cs0 O2 3.708301 1_555
Cs0 O3 3.708301 1_555
Cs1 O9 3.319972 1_655
Cs1 O8 3.319972 1_545
Cs1 O26 3.363696 1_655
Cs1 O27 3.363696 1_545
Cs1 O18 3.432348 1_545
Cs1 O19 3.432348 1_655
Cs1 O23 3.501053 1_555
Cs1 O29 3.704811 1_655
Cs1 O29 3.704811 1_545
Cs1 O4 3.708301 1_555
Cs1 O5 3.708301 1_555
Cs2 O10 3.228612 1_566
Cs2 O11 3.228612 1_456
Cs2 O16 3.420630 1_555
Cs2 O5 3.439436 1_455
Cs2 O4 3.439436 1_565
Cs3 O9 3.228612 1_655
Cs3 O8 3.228612 1_545
Cs3 O17 3.420630 1_555
Cs3 O2 3.439436 1_545
Cs3 O3 3.439436 1_655
O0 Si0 1.604545 1_555
O0 U0 2.237857 1_555
O1 Si1 1.604545 1_555
O1 U1 2.237857 1_556
O2 Si4 1.635974 1_555
O2 Si0 1.640893 1_555
O3 Si5 1.635974 1_555
O3 Si0 1.640893 1_555
O4 Si2 1.635974 1_555
O4 Si1 1.640893 1_555
O5 Si3 1.635974 1_555
O5 Si1 1.640893 1_555
O6 Si0 1.625734 1_555
O6 Si10 1.626684 1_555
O7 Si1 1.625734 1_555
O7 Si11 1.626684 1_555
O8 Si2 1.617141 1_565
O8 U0 2.275123 1_555
O9 Si3 1.617141 1_455
O9 U0 2.275123 1_555
O10 Si4 1.617141 1_545
O10 U1 2.275123 1_555
O11 Si5 1.617141 1_655
O11 U1 2.275123 1_555
O12 Si2 1.633297 1_555
O12 Si7 1.640707 1_555
O13 Si3 1.633297 1_555
O13 Si6 1.640707 1_555
O14 Si4 1.633297 1_555
O14 Si9 1.640707 1_554
O15 Si5 1.633297 1_555
O15 Si8 1.640707 1_554
O16 Si2 1.643950 1_565
O16 Si3 1.643950 1_455
O17 Si4 1.643950 1_545
O17 Si5 1.643950 1_655
O18 Si6 1.614095 1_555
O18 U0 2.261101 1_555
O19 Si7 1.614095 1_555
O19 U0 2.261101 1_555
O20 Si8 1.614095 1_555
O20 U1 2.261101 1_556
O21 Si9 1.614095 1_555
O21 U1 2.261101 1_556
O22 Si6 1.646327 1_455
O22 Si7 1.646327 1_565
O23 Si9 1.646327 1_545
O23 Si8 1.646327 1_655
O24 Si10 1.649334 1_555
O24 Si6 1.649512 1_555
O25 Si10 1.649334 1_555
O25 Si7 1.649512 1_555
O26 Si11 1.649334 1_555
O26 Si8 1.649512 1_555
O27 Si11 1.649334 1_555
O27 Si9 1.649512 1_555
O28 Si10 1.607190 1_555
O28 U1 2.263190 1_555
O29 Si11 1.607190 1_555
O29 U0 2.263190 1_555
