# generated using pymatgen
data_Li7Mn2(CoO4)3
_symmetry_space_group_name_H-M   'P 1'
_cell_length_a   5.14061057
_cell_length_b   5.14061057
_cell_length_c   15.34873013
_cell_angle_alpha   80.40859077
_cell_angle_beta   80.40859077
_cell_angle_gamma   32.83626333
_symmetry_Int_Tables_number   1
_chemical_formula_structural   Li7Mn2(CoO4)3
_chemical_formula_sum   'Li7 Mn2 Co3 O12'
_cell_volume   216.59111385
_cell_formula_units_Z   1
loop_
 _symmetry_equiv_pos_site_id
 _symmetry_equiv_pos_as_xyz
  1  'x, y, z'
loop_
 _atom_site_type_symbol
 _atom_site_label
 _atom_site_symmetry_multiplicity
 _atom_site_fract_x
 _atom_site_fract_y
 _atom_site_fract_z
 _atom_site_occupancy
  Li  Li0  1  0.75199100  0.75199100  0.90729300  1
  Li  Li1  1  0.23714100  0.23714100  0.75936200  1
  Li  Li2  1  0.75295400  0.75295400  0.59177300  1
  Li  Li3  1  0.25089900  0.25089900  0.41183700  1
  Li  Li4  1  0.74933400  0.74933400  0.24510600  1
  Li  Li5  1  0.25209300  0.25209300  0.08367600  1
  Li  Li6  1  0.50204300  0.50204300  0.83559300  1
  Mn  Mn0  1  0.00118500  0.00118500  0.99616600  1
  Mn  Mn1  1  0.50459700  0.50459700  0.49980400  1
  Co  Co0  1  0.99021200  0.99021200  0.68242500  1
  Co  Co1  1  0.00453700  0.00453700  0.32984800  1
  Co  Co2  1  0.49667100  0.49667100  0.16805200  1
  O  O0  1  0.11664200  0.11664200  0.88917500  1
  O  O1  1  0.61425900  0.61425900  0.70324800  1
  O  O2  1  0.11453500  0.11453500  0.53358100  1
  O  O3  1  0.61631100  0.61631100  0.37926600  1
  O  O4  1  0.11727500  0.11727500  0.20685300  1
  O  O5  1  0.60557300  0.60557300  0.04417100  1
  O  O6  1  0.38967900  0.38967900  0.96468300  1
  O  O7  1  0.87329400  0.87329400  0.78438400  1
  O  O8  1  0.39527100  0.39527100  0.61500800  1
  O  O9  1  0.89369100  0.89369100  0.46034100  1
  O  O10  1  0.38428600  0.38428600  0.28786100  1
  O  O11  1  0.88552600  0.88552600  0.12049500  1
loop_
_geom_bond_atom_site_label_1
_geom_bond_atom_site_label_2
_geom_bond_distance
_geom_bond_site_symmetry_2
Li0 O0 2.024630 1_565
Li0 O0 2.024630 1_655
Li0 O7 2.050842 1_555
Li0 O6 2.268570 1_655
Li0 O6 2.268570 1_565
Li0 O5 2.333440 1_556
Li1 O7 2.059301 1_455
Li1 O7 2.059301 1_545
Li1 O0 2.135307 1_555
Li1 O1 2.164286 1_545
Li1 O1 2.164286 1_455
Li1 O8 2.478043 1_555
Li2 O1 1.996341 1_555
Li2 O8 2.093344 1_655
Li2 O8 2.093344 1_565
Li2 O9 2.241259 1_555
Li2 O2 2.279456 1_565
Li2 O2 2.279456 1_655
Li3 O3 2.086458 1_545
Li3 O3 2.086458 1_455
Li3 O2 2.104103 1_555
Li3 O10 2.117016 1_555
Li3 O9 2.238893 1_545
Li3 O9 2.238893 1_455
Li4 O4 2.101821 1_565
Li4 O4 2.101821 1_655
Li4 O11 2.137674 1_555
Li4 O10 2.148596 1_565
Li4 O10 2.148596 1_655
Li4 O3 2.241154 1_555
Li5 O6 2.077468 1_554
Li5 O11 2.102491 1_455
Li5 O11 2.102491 1_545
Li5 O4 2.113977 1_555
Li5 O5 2.207064 1_455
Li5 O5 2.207064 1_545
Li6 O0 2.094680 1_655
Li6 O0 2.094680 1_565
Li6 O6 2.095472 1_555
Li6 O1 2.137766 1_555
Li6 O7 2.165134 1_455
Li6 O7 2.165134 1_545
Mn0 O0 1.828562 1_555
Mn0 O6 1.933522 1_455
Mn0 O6 1.933522 1_545
Mn0 O5 1.994330 1_546
Mn0 O5 1.994330 1_456
Mn0 O11 2.046076 1_446
Mn1 O8 1.904414 1_555
Mn1 O2 1.936665 1_565
Mn1 O2 1.936665 1_655
Mn1 O9 1.975969 1_455
Mn1 O9 1.975969 1_545
Mn1 O3 1.982060 1_555
Co0 O7 1.775296 1_555
Co0 O1 1.961042 1_655
Co0 O1 1.961042 1_565
Co0 O8 2.096453 1_655
Co0 O8 2.096453 1_565
Co0 O2 2.397790 1_665
Co1 O4 2.017628 1_555
Co1 O3 2.047441 1_455
Co1 O3 2.047441 1_545
Co1 O10 2.048983 1_545
Co1 O10 2.048983 1_455
Co1 O9 2.108548 1_445
Co2 O10 1.975339 1_555
Co2 O5 2.014795 1_555
Co2 O11 2.030603 1_545
Co2 O11 2.030603 1_455
Co2 O4 2.031388 1_655
Co2 O4 2.031388 1_565
