# generated using pymatgen
data_NaVH8(NF3)2
_symmetry_space_group_name_H-M   'P 1'
_cell_length_a   6.06816836
_cell_length_b   6.06816836
_cell_length_c   6.06816836
_cell_angle_alpha   60.00000000
_cell_angle_beta   60.00000000
_cell_angle_gamma   60.00000000
_symmetry_Int_Tables_number   1
_chemical_formula_structural   NaVH8(NF3)2
_chemical_formula_sum   'Na1 V1 H8 N2 F6'
_cell_volume   158.00028423
_cell_formula_units_Z   1
loop_
 _symmetry_equiv_pos_site_id
 _symmetry_equiv_pos_as_xyz
  1  'x, y, z'
loop_
 _atom_site_type_symbol
 _atom_site_label
 _atom_site_symmetry_multiplicity
 _atom_site_fract_x
 _atom_site_fract_y
 _atom_site_fract_z
 _atom_site_occupancy
  Na  Na0  1  0.50000000  0.50000000  0.50000000  1
  V  V0  1  0.00000000  0.00000000  0.00000000  1
  H  H0  1  0.31894100  0.31894100  0.31894100  1
  H  H1  1  0.68105900  0.68105900  0.68105900  1
  H  H2  1  0.31894100  0.31894100  0.04317600  1
  H  H3  1  0.31894100  0.04317600  0.31894100  1
  H  H4  1  0.68105900  0.68105900  0.95682400  1
  H  H5  1  0.68105900  0.95682400  0.68105900  1
  H  H6  1  0.04317600  0.31894100  0.31894100  1
  H  H7  1  0.95682400  0.68105900  0.68105900  1
  N  N0  1  0.25000000  0.25000000  0.25000000  1
  N  N1  1  0.75000000  0.75000000  0.75000000  1
  F  F0  1  0.76740900  0.23259100  0.23259100  1
  F  F1  1  0.23259100  0.76740900  0.76740900  1
  F  F2  1  0.23259100  0.76740900  0.23259100  1
  F  F3  1  0.76740900  0.23259100  0.76740900  1
  F  F4  1  0.23259100  0.23259100  0.76740900  1
  F  F5  1  0.76740900  0.76740900  0.23259100  1
loop_
_geom_bond_atom_site_label_1
_geom_bond_atom_site_label_2
_geom_bond_distance
_geom_bond_site_symmetry_2
H0 N0 1.024733 1_555
H1 N1 1.024733 1_555
H2 N0 1.024738 1_555
H3 N0 1.024738 1_555
H4 N1 1.024738 1_555
H5 N1 1.024738 1_555
H6 N0 1.024738 1_555
H7 N1 1.024738 1_555
F0 V0 1.996023 1_655
F0 Na0 2.294820 1_555
F1 V0 1.996023 1_566
F1 Na0 2.294820 1_555
F2 V0 1.996023 1_565
F2 Na0 2.294820 1_555
F3 V0 1.996023 1_656
F3 Na0 2.294820 1_555
F4 V0 1.996023 1_556
F4 Na0 2.294820 1_555
F5 V0 1.996023 1_665
F5 Na0 2.294820 1_555
