# generated using pymatgen
data_Li(TmGe)4
_symmetry_space_group_name_H-M   'P 1'
_cell_length_a   7.02251026
_cell_length_b   7.57533660
_cell_length_c   14.43342650
_cell_angle_alpha   90.00000000
_cell_angle_beta   90.00000000
_cell_angle_gamma   90.00000000
_symmetry_Int_Tables_number   1
_chemical_formula_structural   Li(TmGe)4
_chemical_formula_sum   'Li4 Tm16 Ge16'
_cell_volume   767.82767645
_cell_formula_units_Z   4
loop_
 _symmetry_equiv_pos_site_id
 _symmetry_equiv_pos_as_xyz
  1  'x, y, z'
loop_
 _atom_site_type_symbol
 _atom_site_label
 _atom_site_symmetry_multiplicity
 _atom_site_fract_x
 _atom_site_fract_y
 _atom_site_fract_z
 _atom_site_occupancy
  Li  Li0  1  0.16174215  0.52322998  0.75000000  1
  Li  Li1  1  0.83825785  0.47677002  0.25000000  1
  Li  Li2  1  0.33825785  0.02322998  0.25000000  1
  Li  Li3  1  0.66174215  0.97677002  0.75000000  1
  Tm  Tm0  1  0.32918049  0.17599697  0.62757419  1
  Tm  Tm1  1  0.67081951  0.82400303  0.37242581  1
  Tm  Tm2  1  0.17081951  0.67599697  0.37242581  1
  Tm  Tm3  1  0.67081951  0.82400303  0.12757419  1
  Tm  Tm4  1  0.82918049  0.32400303  0.62757419  1
  Tm  Tm5  1  0.32918049  0.17599697  0.87242581  1
  Tm  Tm6  1  0.82918049  0.32400303  0.87242581  1
  Tm  Tm7  1  0.17081951  0.67599697  0.12757419  1
  Tm  Tm8  1  0.01553420  0.18683659  0.09769586  1
  Tm  Tm9  1  0.98446580  0.81316341  0.90230414  1
  Tm  Tm10  1  0.48446580  0.68683659  0.90230414  1
  Tm  Tm11  1  0.98446580  0.81316341  0.59769586  1
  Tm  Tm12  1  0.51553420  0.31316341  0.09769586  1
  Tm  Tm13  1  0.01553420  0.18683659  0.40230414  1
  Tm  Tm14  1  0.51553420  0.31316341  0.40230414  1
  Tm  Tm15  1  0.48446580  0.68683659  0.59769586  1
  Ge  Ge0  1  0.01802019  0.08789399  0.75000000  1
  Ge  Ge1  1  0.98197981  0.91210601  0.25000000  1
  Ge  Ge2  1  0.48197981  0.58789399  0.25000000  1
  Ge  Ge3  1  0.51802019  0.41210601  0.75000000  1
  Ge  Ge4  1  0.28365548  0.86316641  0.75000000  1
  Ge  Ge5  1  0.71634452  0.13683359  0.25000000  1
  Ge  Ge6  1  0.21634452  0.36316641  0.25000000  1
  Ge  Ge7  1  0.78365548  0.63683359  0.75000000  1
  Ge  Ge8  1  0.16829021  0.46587132  0.53649880  1
  Ge  Ge9  1  0.83170979  0.53412868  0.46350120  1
  Ge  Ge10  1  0.33170979  0.96587132  0.46350120  1
  Ge  Ge11  1  0.83170979  0.53412868  0.03649880  1
  Ge  Ge12  1  0.66829021  0.03412868  0.53649880  1
  Ge  Ge13  1  0.16829021  0.46587132  0.96350120  1
  Ge  Ge14  1  0.66829021  0.03412868  0.96350120  1
  Ge  Ge15  1  0.33170979  0.96587132  0.03649880  1
loop_
_geom_bond_atom_site_label_1
_geom_bond_atom_site_label_2
_geom_bond_distance
_geom_bond_site_symmetry_2
Ge0 Ge4 2.525458 1_545
Ge0 Li3 2.639785 1_445
Ge0 Tm4 2.842552 1_455
Ge0 Tm6 2.842552 1_455
Ge0 Tm0 2.888354 1_555
Ge0 Tm5 2.888354 1_555
Ge0 Tm11 3.036316 1_445
Ge0 Tm9 3.036316 1_445
Ge1 Ge5 2.525458 1_565
Ge1 Li2 2.639785 1_665
Ge1 Tm7 2.842552 1_655
Ge1 Tm2 2.842552 1_655
Ge1 Tm3 2.888354 1_555
Ge1 Tm1 2.888354 1_555
Ge1 Tm13 3.036316 1_665
Ge1 Tm8 3.036316 1_665
Ge2 Ge6 2.525458 1_555
Ge2 Li1 2.639785 1_555
Ge2 Tm1 2.842552 1_555
Ge2 Tm3 2.842552 1_555
Ge2 Tm7 2.888354 1_555
Ge2 Tm2 2.888354 1_555
Ge2 Tm14 3.036316 1_555
Ge2 Tm12 3.036316 1_555
Ge3 Ge7 2.525458 1_555
Ge3 Li0 2.639785 1_555
Ge3 Tm0 2.842552 1_555
Ge3 Tm5 2.842552 1_555
Ge3 Tm6 2.888354 1_555
Ge3 Tm4 2.888354 1_555
Ge3 Tm10 3.036316 1_555
Ge3 Tm15 3.036316 1_555
Ge4 Li0 2.713721 1_555
Ge4 Li3 2.791103 1_555
Ge4 Tm15 2.933477 1_555
Ge4 Tm10 2.933477 1_555
Ge4 Tm0 2.973301 1_565
Ge4 Tm5 2.973301 1_565
Ge4 Tm11 3.064366 1_455
Ge4 Tm9 3.064366 1_455
Ge5 Li1 2.713721 1_555
Ge5 Li2 2.791103 1_555
Ge5 Tm14 2.933477 1_555
Ge5 Tm12 2.933477 1_555
Ge5 Tm3 2.973301 1_545
Ge5 Tm1 2.973301 1_545
Ge5 Tm13 3.064366 1_655
Ge5 Tm8 3.064366 1_655
Ge6 Li2 2.713721 1_555
Ge6 Li1 2.791103 1_455
Ge6 Tm13 2.933477 1_555
Ge6 Tm8 2.933477 1_555
Ge6 Tm7 2.973301 1_555
Ge6 Tm2 2.973301 1_555
Ge6 Tm12 3.064366 1_555
Ge6 Tm14 3.064366 1_555
Ge7 Li3 2.713721 1_555
Ge7 Li0 2.791103 1_655
Ge7 Tm11 2.933477 1_555
Ge7 Tm9 2.933477 1_555
Ge7 Tm6 2.973301 1_555
Ge7 Tm4 2.973301 1_555
Ge7 Tm10 3.064366 1_555
Ge7 Tm15 3.064366 1_555
Ge8 Ge9 2.638985 1_455
Ge8 Tm0 2.797591 1_555
Ge8 Tm2 2.853440 1_555
Ge8 Tm15 2.917537 1_555
Ge8 Tm4 2.924729 1_455
Ge8 Tm11 3.060724 1_455
Ge8 Tm13 3.061105 1_555
Ge8 Li0 3.112377 1_555
Ge8 Tm14 3.322071 1_555
Ge9 Tm1 2.797591 1_555
Ge9 Tm4 2.853440 1_555
Ge9 Tm14 2.917537 1_555
Ge9 Tm2 2.924729 1_655
Ge9 Tm13 3.060724 1_655
Ge9 Tm11 3.061105 1_555
Ge9 Li1 3.112377 1_555
Ge9 Tm15 3.322071 1_555
Ge10 Ge12 2.638985 1_565
Ge10 Tm2 2.797591 1_555
Ge10 Tm0 2.853440 1_565
Ge10 Tm13 2.917537 1_565
Ge10 Tm1 2.924729 1_555
Ge10 Tm14 3.060724 1_565
Ge10 Tm15 3.061105 1_555
Ge10 Li2 3.112377 1_565
Ge10 Tm11 3.322071 1_455
Ge11 Ge13 2.638985 1_654
Ge11 Tm3 2.797591 1_555
Ge11 Tm6 2.853440 1_554
Ge11 Tm12 2.917537 1_555
Ge11 Tm7 2.924729 1_655
Ge11 Tm8 3.060724 1_655
Ge11 Tm9 3.061105 1_554
Ge11 Li1 3.112377 1_555
Ge11 Tm10 3.322071 1_554
Ge12 Tm4 2.797591 1_555
Ge12 Tm1 2.853440 1_545
Ge12 Tm11 2.917537 1_545
Ge12 Tm0 2.924729 1_555
Ge12 Tm15 3.060724 1_545
Ge12 Tm14 3.061105 1_555
Ge12 Li3 3.112377 1_545
Ge12 Tm13 3.322071 1_655
Ge13 Tm5 2.797591 1_555
Ge13 Tm7 2.853440 1_556
Ge13 Tm10 2.917537 1_555
Ge13 Tm6 2.924729 1_455
Ge13 Tm9 3.060724 1_455
Ge13 Tm8 3.061105 1_556
Ge13 Li0 3.112377 1_555
Ge13 Tm12 3.322071 1_556
Ge14 Ge15 2.638985 1_546
Ge14 Tm6 2.797591 1_555
Ge14 Tm3 2.853440 1_546
Ge14 Tm9 2.917537 1_545
Ge14 Tm5 2.924729 1_555
Ge14 Tm10 3.060724 1_545
Ge14 Tm12 3.061105 1_556
Ge14 Li3 3.112377 1_545
Ge14 Tm8 3.322071 1_656
Ge15 Tm7 2.797591 1_555
Ge15 Tm5 2.853440 1_564
Ge15 Tm8 2.917537 1_565
Ge15 Tm3 2.924729 1_555
Ge15 Tm12 3.060724 1_565
Ge15 Tm10 3.061105 1_554
Ge15 Li2 3.112377 1_565
Ge15 Tm9 3.322071 1_454
