# generated using pymatgen
data_MgZnBr4O7
_symmetry_space_group_name_H-M   'P 1'
_cell_length_a   14.85955200
_cell_length_b   6.32271000
_cell_length_c   11.77445301
_cell_angle_alpha   66.68204815
_cell_angle_beta   90.00000000
_cell_angle_gamma   90.00000000
_symmetry_Int_Tables_number   1
_chemical_formula_structural   MgZnBr4O7
_chemical_formula_sum   'Mg4 Zn4 Br16 O28'
_cell_volume   1015.88582310
_cell_formula_units_Z   4
loop_
 _symmetry_equiv_pos_site_id
 _symmetry_equiv_pos_as_xyz
  1  'x, y, z'
loop_
 _atom_site_type_symbol
 _atom_site_label
 _atom_site_symmetry_multiplicity
 _atom_site_fract_x
 _atom_site_fract_y
 _atom_site_fract_z
 _atom_site_occupancy
  Mg  Mg0  1  0.00000000  0.50000000  0.50000000  1
  Mg  Mg1  1  0.50000000  0.50000000  0.00000000  1
  Mg  Mg2  1  0.00000000  0.50000000  0.00000000  1
  Mg  Mg3  1  0.50000000  0.50000000  0.50000000  1
  Zn  Zn0  1  0.73923500  0.79137000  0.21825000  1
  Zn  Zn1  1  0.76076500  0.79137000  0.71825000  1
  Zn  Zn2  1  0.26076500  0.20863000  0.78175000  1
  Zn  Zn3  1  0.23923500  0.20863000  0.28175000  1
  Br  Br0  1  0.67127900  0.14272500  0.06299500  1
  Br  Br1  1  0.82872100  0.14272500  0.56299500  1
  Br  Br2  1  0.32872100  0.85727500  0.93700500  1
  Br  Br3  1  0.17127900  0.85727500  0.43700500  1
  Br  Br4  1  0.06794900  0.86446400  0.11959700  1
  Br  Br5  1  0.43205100  0.86446400  0.61959700  1
  Br  Br6  1  0.93205100  0.13553600  0.88040300  1
  Br  Br7  1  0.56794900  0.13553600  0.38040300  1
  Br  Br8  1  0.76967000  0.44429700  0.21153900  1
  Br  Br9  1  0.73033000  0.44429700  0.71153900  1
  Br  Br10  1  0.23033000  0.55570300  0.78846100  1
  Br  Br11  1  0.26967000  0.55570300  0.28846100  1
  Br  Br12  1  0.82677700  0.89318800  0.36372500  1
  Br  Br13  1  0.67322300  0.89318800  0.86372500  1
  Br  Br14  1  0.17322300  0.10681200  0.63627500  1
  Br  Br15  1  0.32677700  0.10681200  0.13627500  1
  O  O0  1  0.06471400  0.80261000  0.38475400  1
  O  O1  1  0.43528600  0.80261000  0.88475400  1
  O  O2  1  0.93528600  0.19739000  0.61524600  1
  O  O3  1  0.56471400  0.19739000  0.11524600  1
  O  O4  1  0.87266800  0.62790500  0.46744900  1
  O  O5  1  0.62733200  0.62790500  0.96744900  1
  O  O6  1  0.12733200  0.37209500  0.53255100  1
  O  O7  1  0.37266800  0.37209500  0.03255100  1
  O  O8  1  0.98594300  0.48459300  0.30779000  1
  O  O9  1  0.51405700  0.48459300  0.80779000  1
  O  O10  1  0.01405700  0.51540700  0.69221000  1
  O  O11  1  0.48594300  0.51540700  0.19221000  1
  O  O12  1  0.90037400  0.31743500  0.95176800  1
  O  O13  1  0.59962600  0.31743500  0.45176800  1
  O  O14  1  0.09962600  0.68256500  0.04823200  1
  O  O15  1  0.40037400  0.68256500  0.54823200  1
  O  O16  1  0.90951100  0.86101200  0.98669100  1
  O  O17  1  0.59048900  0.86101200  0.48669100  1
  O  O18  1  0.09048900  0.13898800  0.01330900  1
  O  O19  1  0.40951100  0.13898800  0.51330900  1
  O  O20  1  0.98201200  0.28120800  0.18503900  1
  O  O21  1  0.51798800  0.28120800  0.68503900  1
  O  O22  1  0.01798800  0.71879200  0.81496100  1
  O  O23  1  0.48201200  0.71879200  0.31496100  1
  O  O24  1  0.99844900  0.28265100  0.29781200  1
  O  O25  1  0.50155100  0.28265100  0.79781200  1
  O  O26  1  0.00155100  0.71734900  0.70218800  1
  O  O27  1  0.49844900  0.71734900  0.20218800  1
loop_
_geom_bond_atom_site_label_1
_geom_bond_atom_site_label_2
_geom_bond_distance
_geom_bond_site_symmetry_2
Mg0 O4 2.033606 1_455
Mg0 O6 2.033606 1_555
Mg0 O0 2.090797 1_555
Mg0 O2 2.090797 1_455
Mg0 O10 2.312916 1_555
Mg0 O8 2.312916 1_455
Mg1 O5 2.033606 1_554
Mg1 O7 2.033606 1_555
Mg1 O3 2.090797 1_555
Mg1 O1 2.090797 1_554
Mg1 O9 2.312916 1_554
Mg1 O11 2.312916 1_555
Mg2 O20 2.084693 1_455
Mg2 O22 2.084693 1_554
Mg2 O14 2.089373 1_555
Mg2 O12 2.089373 1_454
Mg2 O18 2.599913 1_555
Mg2 O16 2.599913 1_454
Mg3 O21 2.084693 1_555
Mg3 O23 2.084693 1_555
Mg3 O15 2.089373 1_555
Mg3 O13 2.089373 1_555
Mg3 O17 2.599913 1_555
Mg3 O19 2.599913 1_555
Br0 O3 1.781517 1_555
Br0 Zn0 2.466086 1_545
Br1 O2 1.781517 1_555
Br1 Zn1 2.466086 1_545
Br2 O1 1.781517 1_555
Br2 Zn2 2.466086 1_565
Br3 O0 1.781517 1_555
Br3 Zn3 2.466086 1_565
Br4 O18 1.723797 1_565
Br4 O14 1.736499 1_555
Br5 O19 1.723797 1_565
Br5 O15 1.736499 1_555
Br6 O16 1.723797 1_545
Br6 O12 1.736499 1_555
Br7 O17 1.723797 1_545
Br7 O13 1.736499 1_555
Br8 Zn0 2.272361 1_555
Br9 Zn1 2.272361 1_555
Br10 Zn2 2.272361 1_555
Br11 Zn3 2.272361 1_555
Br12 O4 1.774321 1_555
Br12 Zn0 2.431782 1_555
Br13 O5 1.774321 1_555
Br13 Zn1 2.431782 1_555
Br14 O6 1.774321 1_555
Br14 Zn2 2.431782 1_555
Br15 O7 1.774321 1_555
Br15 Zn3 2.431782 1_555
O10 O26 1.340658 1_555
O11 O27 1.340658 1_555
O20 O24 1.353695 1_555
O21 O25 1.353695 1_555
O22 O26 1.353695 1_555
O23 O27 1.353695 1_555
O24 O8 1.340658 1_555
O25 O9 1.340658 1_555
