# generated using pymatgen
data_Eu2ZnPtO6
_symmetry_space_group_name_H-M   'P 1'
_cell_length_a   5.79662200
_cell_length_b   5.53434100
_cell_length_c   9.57966510
_cell_angle_alpha   54.85609485
_cell_angle_beta   90.00000000
_cell_angle_gamma   90.00000000
_symmetry_Int_Tables_number   1
_chemical_formula_structural   Eu2ZnPtO6
_chemical_formula_sum   'Eu4 Zn2 Pt2 O12'
_cell_volume   251.29851608
_cell_formula_units_Z   2
loop_
 _symmetry_equiv_pos_site_id
 _symmetry_equiv_pos_as_xyz
  1  'x, y, z'
loop_
 _atom_site_type_symbol
 _atom_site_label
 _atom_site_symmetry_multiplicity
 _atom_site_fract_x
 _atom_site_fract_y
 _atom_site_fract_z
 _atom_site_occupancy
  Eu  Eu0  1  0.06286700  0.73128300  0.75280400  1
  Eu  Eu1  1  0.93713300  0.26871700  0.24719600  1
  Eu  Eu2  1  0.56286700  0.26871700  0.74719600  1
  Eu  Eu3  1  0.43713300  0.73128300  0.25280400  1
  Zn  Zn0  1  0.50000000  0.50000000  0.00000000  1
  Zn  Zn1  1  0.00000000  0.50000000  0.50000000  1
  Pt  Pt0  1  0.50000000  0.00000000  0.50000000  1
  Pt  Pt1  1  0.00000000  0.00000000  0.00000000  1
  O  O0  1  0.46284800  0.85631000  0.74716500  1
  O  O1  1  0.53715200  0.14369000  0.25283500  1
  O  O2  1  0.96284800  0.14369000  0.75283500  1
  O  O3  1  0.03715200  0.85631000  0.24716500  1
  O  O4  1  0.79289500  0.75627700  0.55565300  1
  O  O5  1  0.20710500  0.24372300  0.44434700  1
  O  O6  1  0.29289500  0.24372300  0.94434700  1
  O  O7  1  0.70710500  0.75627700  0.05565300  1
  O  O8  1  0.30790800  0.65143100  0.54793400  1
  O  O9  1  0.69209200  0.34856900  0.45206600  1
  O  O10  1  0.80790800  0.34856900  0.95206600  1
  O  O11  1  0.19209200  0.65143100  0.04793400  1
loop_
_geom_bond_atom_site_label_1
_geom_bond_atom_site_label_2
_geom_bond_distance
_geom_bond_site_symmetry_2
Eu0 O2 2.355052 1_465
Eu0 O10 2.378968 1_455
Eu0 O4 2.394645 1_455
Eu0 O0 2.411284 1_555
Eu0 O6 2.593385 1_555
Eu0 O8 2.657654 1_555
Eu0 O11 2.703940 1_556
Eu0 O5 2.797456 1_565
Eu1 O3 2.355052 1_645
Eu1 O11 2.378968 1_655
Eu1 O5 2.394645 1_655
Eu1 O1 2.411284 1_555
Eu1 O7 2.593385 1_555
Eu1 O9 2.657654 1_555
Eu1 O10 2.703940 1_554
Eu1 O4 2.797456 1_545
Eu2 O0 2.355052 1_545
Eu2 O8 2.378968 1_555
Eu2 O6 2.394645 1_555
Eu2 O2 2.411284 1_555
Eu2 O4 2.593385 1_555
Eu2 O10 2.657654 1_555
Eu2 O9 2.703940 1_555
Eu2 O7 2.797456 1_546
Eu3 O1 2.355052 1_565
Eu3 O9 2.378968 1_555
Eu3 O7 2.394645 1_555
Eu3 O3 2.411284 1_555
Eu3 O5 2.593385 1_555
Eu3 O11 2.657654 1_555
Eu3 O8 2.703940 1_555
Eu3 O6 2.797456 1_564
O0 Pt0 2.029118 1_565
O0 Zn0 2.074300 1_556
O1 Pt0 2.029118 1_555
O1 Zn0 2.074300 1_555
O2 Pt1 2.029118 1_656
O2 Zn1 2.074300 1_655
O3 Pt1 2.029118 1_565
O3 Zn1 2.074300 1_555
O4 Pt0 2.039180 1_565
O4 Zn1 2.146542 1_655
O5 Pt0 2.039180 1_555
O5 Zn1 2.146542 1_555
O6 Pt1 2.039180 1_556
O6 Zn0 2.146542 1_556
O7 Pt1 2.039180 1_665
O7 Zn0 2.146542 1_555
O8 Pt0 2.037722 1_565
O8 Zn1 2.131167 1_555
O9 Pt0 2.037722 1_555
O9 Zn1 2.131167 1_655
O10 Pt1 2.037722 1_656
O10 Zn0 2.131167 1_556
O11 Pt1 2.037722 1_565
O11 Zn0 2.131167 1_555
