# generated using pymatgen
data_Tb(NO5)3
_symmetry_space_group_name_H-M   'P 1'
_cell_length_a   7.18158800
_cell_length_b   8.55524956
_cell_length_c   11.71524960
_cell_angle_alpha   71.45423684
_cell_angle_beta   78.71466247
_cell_angle_gamma   71.73467222
_symmetry_Int_Tables_number   1
_chemical_formula_structural   Tb(NO5)3
_chemical_formula_sum   'Tb2 N6 O30'
_cell_volume   644.33123866
_cell_formula_units_Z   2
loop_
 _symmetry_equiv_pos_site_id
 _symmetry_equiv_pos_as_xyz
  1  'x, y, z'
loop_
 _atom_site_type_symbol
 _atom_site_label
 _atom_site_symmetry_multiplicity
 _atom_site_fract_x
 _atom_site_fract_y
 _atom_site_fract_z
 _atom_site_occupancy
  Tb  Tb0  1  0.47066600  0.35442200  0.29006800  1
  Tb  Tb1  1  0.52933400  0.64557800  0.70993200  1
  N  N0  1  0.57518500  0.08248700  0.18702300  1
  N  N1  1  0.42481500  0.91751300  0.81297700  1
  N  N2  1  0.24087600  0.32933300  0.51289300  1
  N  N3  1  0.75912400  0.67066700  0.48710700  1
  N  N4  1  0.23900400  0.66743500  0.17120800  1
  N  N5  1  0.76099600  0.33256500  0.82879200  1
  O  O0  1  0.78272600  0.59030800  0.06164800  1
  O  O1  1  0.21727400  0.40969200  0.93835200  1
  O  O2  1  0.78376500  0.11497700  0.51385200  1
  O  O3  1  0.21623500  0.88502300  0.48614800  1
  O  O4  1  0.86740300  0.33593600  0.28175600  1
  O  O5  1  0.13259700  0.66406400  0.71824400  1
  O  O6  1  0.97980700  0.22228300  0.23792900  1
  O  O7  1  0.02019300  0.77771700  0.76207100  1
  O  O8  1  0.18826700  0.26853500  0.99099200  1
  O  O9  1  0.81173300  0.73146500  0.00900800  1
  O  O10  1  0.81215900  0.11919700  0.61300300  1
  O  O11  1  0.18784100  0.88080300  0.38699700  1
  O  O12  1  0.58477300  0.23717500  0.12423000  1
  O  O13  1  0.41522700  0.76282500  0.87577000  1
  O  O14  1  0.55751400  0.05860700  0.30434700  1
  O  O15  1  0.44248600  0.94139300  0.69565300  1
  O  O16  1  0.57623000  0.97412000  0.14126800  1
  O  O17  1  0.42377000  0.02588000  0.85873200  1
  O  O18  1  0.22183800  0.26953800  0.42673900  1
  O  O19  1  0.77816200  0.73046200  0.57326100  1
  O  O20  1  0.39286700  0.38831300  0.49271100  1
  O  O21  1  0.60713300  0.61168700  0.50728900  1
  O  O22  1  0.12301500  0.32987100  0.60251500  1
  O  O23  1  0.87698500  0.67012900  0.39748500  1
  O  O24  1  0.37823900  0.65764200  0.23097000  1
  O  O25  1  0.62176100  0.34235800  0.76903000  1
  O  O26  1  0.23408700  0.51756700  0.16457000  1
  O  O27  1  0.76591300  0.48243300  0.83543000  1
  O  O28  1  0.12260300  0.79965400  0.12603700  1
  O  O29  1  0.87739700  0.20034600  0.87396300  1
loop_
_geom_bond_atom_site_label_1
_geom_bond_atom_site_label_2
_geom_bond_distance
_geom_bond_site_symmetry_2
N0 O16 1.207106 1_545
N0 O12 1.309687 1_555
N0 O14 1.310112 1_555
N1 O17 1.207106 1_565
N1 O13 1.309687 1_555
N1 O15 1.310112 1_555
N2 O22 1.213115 1_555
N2 O20 1.292405 1_555
N2 O18 1.313547 1_555
N3 O23 1.213115 1_555
N3 O21 1.292405 1_555
N3 O19 1.313547 1_555
N4 O28 1.207479 1_555
N4 O24 1.296622 1_555
N4 O26 1.320646 1_555
N5 O29 1.207479 1_555
N5 O25 1.296622 1_555
N5 O27 1.320646 1_555
O0 O9 1.231158 1_555
O1 O8 1.231158 1_555
O4 O6 1.234519 1_555
O4 Tb0 2.787686 1_555
O5 O7 1.234519 1_555
O5 Tb1 2.787686 1_555
O10 O2 1.231319 1_555
O11 O3 1.231319 1_555
O12 Tb0 2.356608 1_555
O13 Tb1 2.356608 1_555
O14 Tb0 2.367254 1_555
O15 Tb1 2.367254 1_555
O18 Tb0 2.288724 1_555
O19 Tb1 2.288724 1_555
O20 Tb0 2.418543 1_555
O21 Tb1 2.418543 1_555
O24 Tb0 2.368000 1_555
O25 Tb1 2.368000 1_555
O26 Tb0 2.276441 1_555
O27 Tb1 2.276441 1_555
