# generated using pymatgen
data_Er2Mn12P7
_symmetry_space_group_name_H-M   'P 1'
_cell_length_a   9.28351044
_cell_length_b   9.28351044
_cell_length_c   3.58311700
_cell_angle_alpha   90.00000000
_cell_angle_beta   90.00000000
_cell_angle_gamma   120.00000311
_symmetry_Int_Tables_number   1
_chemical_formula_structural   Er2Mn12P7
_chemical_formula_sum   'Er2 Mn12 P7'
_cell_volume   267.43365971
_cell_formula_units_Z   1
loop_
 _symmetry_equiv_pos_site_id
 _symmetry_equiv_pos_as_xyz
  1  'x, y, z'
loop_
 _atom_site_type_symbol
 _atom_site_label
 _atom_site_symmetry_multiplicity
 _atom_site_fract_x
 _atom_site_fract_y
 _atom_site_fract_z
 _atom_site_occupancy
  Er  Er0  1  0.33333300  0.66666700  0.00000000  1
  Er  Er1  1  0.00000000  0.00000000  0.50000000  1
  Mn  Mn0  1  0.04373500  0.28365400  0.00000000  1
  Mn  Mn1  1  0.71634600  0.76008100  0.00000000  1
  Mn  Mn2  1  0.23991900  0.95626500  0.00000000  1
  Mn  Mn3  1  0.54714200  0.05697800  0.00000000  1
  Mn  Mn4  1  0.94302200  0.49016500  0.00000000  1
  Mn  Mn5  1  0.50983500  0.45285800  0.00000000  1
  Mn  Mn6  1  0.62126200  0.89643200  0.50000000  1
  Mn  Mn7  1  0.10356800  0.72483000  0.50000000  1
  Mn  Mn8  1  0.27517000  0.37873800  0.50000000  1
  Mn  Mn9  1  0.79125200  0.22977700  0.50000000  1
  Mn  Mn10  1  0.77022300  0.56147500  0.50000000  1
  Mn  Mn11  1  0.43852500  0.20874800  0.50000000  1
  P  P0  1  0.78770900  0.04255600  0.00000000  1
  P  P1  1  0.95744400  0.74515300  0.00000000  1
  P  P2  1  0.25484700  0.21229100  0.00000000  1
  P  P3  1  0.38452200  0.92410900  0.50000000  1
  P  P4  1  0.07589100  0.46041400  0.50000000  1
  P  P5  1  0.53958600  0.61547800  0.50000000  1
  P  P6  1  0.66666700  0.33333300  0.00000000  1
loop_
_geom_bond_atom_site_label_1
_geom_bond_atom_site_label_2
_geom_bond_distance
_geom_bond_site_symmetry_2
Er0 P4 2.830495 1_554
Er0 P4 2.830495 1_555
Er0 P3 2.830495 1_555
Er0 P3 2.830495 1_554
Er0 P5 2.830495 1_554
Er0 P5 2.830495 1_555
Er1 P2 2.833450 1_555
Er1 P2 2.833450 1_556
Er1 P1 2.833450 1_445
Er1 P1 2.833450 1_446
Er1 P0 2.833450 1_455
Er1 P0 2.833450 1_456
Mn0 P0 2.310647 1_455
Mn0 P4 2.345563 1_555
Mn0 P4 2.345563 1_554
Mn0 P2 2.361856 1_555
Mn1 P1 2.310647 1_555
Mn1 P5 2.345561 1_554
Mn1 P5 2.345561 1_555
Mn1 P0 2.361856 1_565
Mn2 P2 2.310647 1_565
Mn2 P3 2.345557 1_555
Mn2 P3 2.345557 1_554
Mn2 P1 2.361856 1_455
Mn3 P6 2.228564 1_555
Mn3 P3 2.268953 1_544
Mn3 P3 2.268953 1_545
Mn3 P0 2.303170 1_555
Mn4 P6 2.228566 1_555
Mn4 P4 2.268953 1_655
Mn4 P4 2.268953 1_654
Mn4 P1 2.303161 1_555
Mn5 P6 2.228581 1_555
Mn5 P5 2.268953 1_554
Mn5 P5 2.268953 1_555
Mn5 P2 2.303165 1_555
Mn6 P0 2.311152 1_565
Mn6 P0 2.311152 1_566
Mn6 P5 2.323826 1_555
Mn6 P3 2.336866 1_555
Mn7 P1 2.311153 1_455
Mn7 P1 2.311153 1_456
Mn7 P3 2.323828 1_555
Mn7 P4 2.336857 1_555
Mn8 P2 2.311153 1_555
Mn8 P2 2.311153 1_556
Mn8 P4 2.323835 1_555
Mn8 P5 2.336861 1_555
Mn9 P4 2.430871 1_655
Mn9 P0 2.484849 1_556
Mn9 P0 2.484849 1_555
Mn9 P6 2.565832 1_555
Mn9 P6 2.565832 1_556
Mn10 P5 2.430877 1_555
Mn10 P1 2.484849 1_556
Mn10 P1 2.484849 1_555
Mn10 P6 2.565838 1_555
Mn10 P6 2.565838 1_556
Mn11 P3 2.430868 1_545
Mn11 P2 2.484849 1_556
Mn11 P2 2.484849 1_555
Mn11 P6 2.565837 1_555
Mn11 P6 2.565837 1_556
