# generated using pymatgen
data_CdHg3
_symmetry_space_group_name_H-M   'P 1'
_cell_length_a   6.57399213
_cell_length_b   6.57399213
_cell_length_c   5.31791965
_cell_angle_alpha   90.00000000
_cell_angle_beta   90.00000000
_cell_angle_gamma   120.00000212
_symmetry_Int_Tables_number   1
_chemical_formula_structural   CdHg3
_chemical_formula_sum   'Cd2 Hg6'
_cell_volume   199.03559586
_cell_formula_units_Z   2
loop_
 _symmetry_equiv_pos_site_id
 _symmetry_equiv_pos_as_xyz
  1  'x, y, z'
loop_
 _atom_site_type_symbol
 _atom_site_label
 _atom_site_symmetry_multiplicity
 _atom_site_fract_x
 _atom_site_fract_y
 _atom_site_fract_z
 _atom_site_occupancy
  Cd  Cd0  1  0.33333300  0.66666700  0.75000000  1
  Cd  Cd1  1  0.66666700  0.33333300  0.25000000  1
  Hg  Hg0  1  0.16802194  0.33604587  0.25000000  1
  Hg  Hg1  1  0.66395413  0.83197806  0.25000000  1
  Hg  Hg2  1  0.16802194  0.83197806  0.25000000  1
  Hg  Hg3  1  0.83197806  0.66395413  0.75000000  1
  Hg  Hg4  1  0.33604587  0.16802194  0.75000000  1
  Hg  Hg5  1  0.83197806  0.16802194  0.75000000  1
loop_
_geom_bond_atom_site_label_1
_geom_bond_atom_site_label_2
_geom_bond_distance
_geom_bond_site_symmetry_2
Cd0 Hg1 3.257782 1_556
Cd0 Hg1 3.257782 1_555
Cd0 Hg0 3.257782 1_556
Cd0 Hg0 3.257782 1_555
Cd0 Hg2 3.257786 1_556
Cd0 Hg2 3.257786 1_555
Cd0 Hg4 3.287023 1_565
Cd0 Hg3 3.287023 1_455
Cd0 Hg5 3.287032 1_455
Cd0 Hg5 3.287032 1_565
Cd0 Hg3 3.287042 1_555
Cd0 Hg4 3.287042 1_555
Cd1 Hg4 3.257782 1_555
Cd1 Hg4 3.257782 1_554
Cd1 Hg3 3.257782 1_555
Cd1 Hg3 3.257782 1_554
Cd1 Hg5 3.257786 1_555
Cd1 Hg5 3.257786 1_554
Cd1 Hg1 3.287023 1_545
Cd1 Hg0 3.287023 1_655
Cd1 Hg2 3.287032 1_545
Cd1 Hg2 3.287032 1_655
Cd1 Hg0 3.287042 1_555
Cd1 Hg1 3.287042 1_555
Hg0 Hg1 3.260254 1_555
Hg0 Hg2 3.260254 1_555
Hg0 Hg5 3.275717 1_454
Hg0 Hg5 3.275717 1_455
Hg0 Hg4 3.275731 1_554
Hg0 Hg4 3.275731 1_555
Hg0 Hg1 3.313738 1_445
Hg0 Hg2 3.313738 1_545
Hg1 Hg2 3.260254 1_555
Hg1 Hg5 3.275717 1_564
Hg1 Hg5 3.275717 1_565
Hg1 Hg3 3.275731 1_555
Hg1 Hg3 3.275731 1_554
Hg1 Hg2 3.313738 1_655
Hg2 Hg3 3.275717 1_454
Hg2 Hg3 3.275717 1_455
Hg2 Hg4 3.275717 1_564
Hg2 Hg4 3.275717 1_565
Hg3 Hg4 3.260254 1_555
Hg3 Hg5 3.260254 1_555
Hg3 Hg4 3.313738 1_665
Hg3 Hg5 3.313738 1_565
Hg4 Hg5 3.260254 1_555
Hg4 Hg5 3.313738 1_455
