# generated using pymatgen
data_YbCo3
_symmetry_space_group_name_H-M   'P 1'
_cell_length_a   4.97932890
_cell_length_b   4.97932890
_cell_length_c   8.51512646
_cell_angle_alpha   72.99942071
_cell_angle_beta   72.99942071
_cell_angle_gamma   60.00001466
_symmetry_Int_Tables_number   1
_chemical_formula_structural   YbCo3
_chemical_formula_sum   'Yb3 Co9'
_cell_volume   172.10146733
_cell_formula_units_Z   3
loop_
 _symmetry_equiv_pos_site_id
 _symmetry_equiv_pos_as_xyz
  1  'x, y, z'
loop_
 _atom_site_type_symbol
 _atom_site_label
 _atom_site_symmetry_multiplicity
 _atom_site_fract_x
 _atom_site_fract_y
 _atom_site_fract_z
 _atom_site_occupancy
  Yb  Yb0  1  0.14155800  0.14155800  0.57532600  1
  Yb  Yb1  1  0.85844200  0.85844200  0.42467400  1
  Yb  Yb2  1  0.00000000  0.00000000  0.00000000  1
  Co  Co0  1  0.07970200  0.58271400  0.75487100  1
  Co  Co1  1  0.58271400  0.58271400  0.75487100  1
  Co  Co2  1  0.58271400  0.07970200  0.75487100  1
  Co  Co3  1  0.92029800  0.41728600  0.24512900  1
  Co  Co4  1  0.41728600  0.41728600  0.24512900  1
  Co  Co5  1  0.41728600  0.92029800  0.24512900  1
  Co  Co6  1  0.33418200  0.33418200  0.99745500  1
  Co  Co7  1  0.66581800  0.66581800  0.00254500  1
  Co  Co8  1  0.50000000  0.50000000  0.50000000  1
loop_
_geom_bond_atom_site_label_1
_geom_bond_atom_site_label_2
_geom_bond_distance
_geom_bond_site_symmetry_2
Co0 Co6 2.423140 1_555
Co0 Co7 2.445842 1_456
Co0 Co1 2.474667 1_455
Co0 Co2 2.474667 1_465
Co0 Co8 2.502852 1_555
Co0 Co1 2.504662 1_555
Co0 Co2 2.504663 1_555
Co0 Yb0 2.875665 1_565
Co0 Yb0 2.875669 1_555
Co0 Yb1 3.007611 1_455
Co0 Yb2 3.171550 1_566
Co0 Yb2 3.171554 1_556
Co1 Co6 2.423140 1_555
Co1 Co7 2.445837 1_556
Co1 Co2 2.474667 1_565
Co1 Co8 2.502855 1_555
Co1 Co2 2.504662 1_555
Co1 Yb0 2.875668 1_565
Co1 Yb0 2.875668 1_655
Co1 Yb1 3.007609 1_555
Co1 Yb2 3.171552 1_566
Co1 Yb2 3.171552 1_656
Co2 Co6 2.423140 1_555
Co2 Co7 2.445842 1_546
Co2 Co8 2.502852 1_555
Co2 Yb0 2.875665 1_655
Co2 Yb0 2.875669 1_555
Co2 Yb1 3.007611 1_545
Co2 Yb2 3.171550 1_656
Co2 Yb2 3.171554 1_556
Co3 Co7 2.423140 1_555
Co3 Co6 2.445842 1_654
Co3 Co4 2.474667 1_655
Co3 Co5 2.474667 1_645
Co3 Co8 2.502852 1_555
Co3 Co4 2.504662 1_555
Co3 Co5 2.504663 1_555
Co3 Yb1 2.875665 1_545
Co3 Yb1 2.875669 1_555
Co3 Yb0 3.007611 1_655
Co3 Yb2 3.171550 1_655
Co3 Yb2 3.171554 1_665
Co4 Co7 2.423140 1_555
Co4 Co6 2.445837 1_554
Co4 Co5 2.474667 1_545
Co4 Co8 2.502855 1_555
Co4 Co5 2.504662 1_555
Co4 Yb1 2.875668 1_545
Co4 Yb1 2.875668 1_455
Co4 Yb0 3.007609 1_555
Co4 Yb2 3.171552 1_565
Co4 Yb2 3.171552 1_655
Co5 Co7 2.423140 1_555
Co5 Co6 2.445842 1_564
Co5 Co8 2.502852 1_555
Co5 Yb1 2.875665 1_455
Co5 Yb1 2.875669 1_555
Co5 Yb0 3.007611 1_565
Co5 Yb2 3.171550 1_565
Co5 Yb2 3.171554 1_665
Co6 Yb2 2.874888 1_566
Co6 Yb2 2.874888 1_656
Co6 Yb2 2.874892 1_556
Co7 Yb2 2.874888 1_655
Co7 Yb2 2.874888 1_565
Co7 Yb2 2.874892 1_665
Co8 Yb1 2.937530 1_555
Co8 Yb0 2.937530 1_555
Co8 Yb1 2.937531 1_455
Co8 Yb1 2.937531 1_545
Co8 Yb0 2.937531 1_565
Co8 Yb0 2.937531 1_655
