# generated using pymatgen
data_SrNi5As3
_symmetry_space_group_name_H-M   'P 1'
_cell_length_a   6.35050039
_cell_length_b   6.35050039
_cell_length_c   11.84709328
_cell_angle_alpha   90.00000000
_cell_angle_beta   90.00000000
_cell_angle_gamma   145.80967994
_symmetry_Int_Tables_number   1
_chemical_formula_structural   SrNi5As3
_chemical_formula_sum   'Sr2 Ni10 As6'
_cell_volume   268.48526780
_cell_formula_units_Z   2
loop_
 _symmetry_equiv_pos_site_id
 _symmetry_equiv_pos_as_xyz
  1  'x, y, z'
loop_
 _atom_site_type_symbol
 _atom_site_label
 _atom_site_symmetry_multiplicity
 _atom_site_fract_x
 _atom_site_fract_y
 _atom_site_fract_z
 _atom_site_occupancy
  Sr  Sr0  1  0.16437226  0.83562774  0.25000000  1
  Sr  Sr1  1  0.83562774  0.16437226  0.75000000  1
  Ni  Ni0  1  0.19292350  0.80707650  0.93311820  1
  Ni  Ni1  1  0.80707650  0.19292350  0.43311820  1
  Ni  Ni2  1  -0.00000000  0.00000000  0.00000000  1
  Ni  Ni3  1  -0.00000000  0.00000000  0.50000000  1
  Ni  Ni4  1  0.54797878  0.45202122  0.64464749  1
  Ni  Ni5  1  0.45202122  0.54797878  0.35535251  1
  Ni  Ni6  1  0.45202122  0.54797878  0.14464749  1
  Ni  Ni7  1  0.19292350  0.80707650  0.56688180  1
  Ni  Ni8  1  0.80707650  0.19292350  0.06688180  1
  Ni  Ni9  1  0.54797878  0.45202122  0.85535251  1
  As  As0  1  0.62129365  0.37870635  0.45977162  1
  As  As1  1  0.11325263  0.88674737  0.75000000  1
  As  As2  1  0.62129365  0.37870635  0.04022838  1
  As  As3  1  0.37870635  0.62129365  0.95977162  1
  As  As4  1  0.88674737  0.11325263  0.25000000  1
  As  As5  1  0.37870635  0.62129365  0.54022838  1
loop_
_geom_bond_atom_site_label_1
_geom_bond_atom_site_label_2
_geom_bond_distance
_geom_bond_site_symmetry_2
Ni0 Sr1 3.345522 1_455
Ni0 Sr1 3.345522 1_565
Ni1 Sr0 3.345522 1_545
Ni1 Sr0 3.345522 1_655
Ni4 Sr1 3.418819 1_455
Ni4 Sr1 3.418819 1_565
Ni5 Sr0 3.418819 1_655
Ni5 Sr0 3.418819 1_545
Ni6 Sr0 3.418819 1_655
Ni6 Sr0 3.418819 1_545
Ni7 Sr1 3.345522 1_455
Ni7 Sr1 3.345522 1_565
Ni8 Sr0 3.345522 1_655
Ni8 Sr0 3.345522 1_545
Ni9 Sr1 3.418819 1_455
Ni9 Sr1 3.418819 1_565
As0 Ni1 2.277372 1_555
As0 Ni4 2.364173 1_555
As0 Ni5 2.398563 1_555
As0 Ni7 2.418943 1_655
As0 Ni7 2.418943 1_545
As0 Ni3 2.424924 1_665
As0 Ni3 2.424924 1_555
As0 Sr0 3.151911 1_655
As0 Sr0 3.151911 1_545
As1 Ni0 2.375255 1_555
As1 Ni7 2.375255 1_555
As1 Ni4 2.381309 1_455
As1 Ni4 2.381309 1_565
As1 Ni9 2.381309 1_565
As1 Ni9 2.381309 1_455
As1 Sr1 3.282185 1_455
As1 Sr1 3.282185 1_565
As1 Sr1 3.370323 1_465
As2 Ni8 2.277372 1_555
As2 Ni9 2.364173 1_554
As2 Ni6 2.398563 1_555
As2 Ni0 2.418943 1_654
As2 Ni0 2.418943 1_544
As2 Ni2 2.424924 1_665
As2 Ni2 2.424924 1_555
As2 Sr0 3.151911 1_655
As2 Sr0 3.151911 1_545
As3 Ni0 2.277372 1_555
As3 Ni6 2.364173 1_556
As3 Ni9 2.398563 1_555
As3 Ni8 2.418943 1_566
As3 Ni8 2.418943 1_456
As3 Ni2 2.424924 1_556
As3 Ni2 2.424924 1_666
As3 Sr1 3.151911 1_565
As3 Sr1 3.151911 1_455
As4 Ni1 2.375255 1_555
As4 Ni8 2.375255 1_555
As4 Ni5 2.381309 1_545
As4 Ni6 2.381309 1_545
As4 Ni5 2.381309 1_655
As4 Ni6 2.381309 1_655
As4 Sr0 3.282185 1_545
As4 Sr0 3.282185 1_655
As4 Sr0 3.370323 1_645
As5 Ni7 2.277372 1_555
As5 Ni5 2.364173 1_555
As5 Ni4 2.398563 1_555
As5 Ni1 2.418943 1_565
As5 Ni1 2.418943 1_455
As5 Ni3 2.424924 1_555
As5 Ni3 2.424924 1_665
As5 Sr1 3.151911 1_565
As5 Sr1 3.151911 1_455
