# generated using pymatgen
data_Mg16Al12Ge
_symmetry_space_group_name_H-M   'P 1'
_cell_length_a   9.09015624
_cell_length_b   9.09015624
_cell_length_c   9.09015679
_cell_angle_alpha   109.31284202
_cell_angle_beta   109.31284202
_cell_angle_gamma   109.31284666
_symmetry_Int_Tables_number   1
_chemical_formula_structural   Mg16Al12Ge
_chemical_formula_sum   'Mg16 Al12 Ge1'
_cell_volume   581.58458491
_cell_formula_units_Z   1
loop_
 _symmetry_equiv_pos_site_id
 _symmetry_equiv_pos_as_xyz
  1  'x, y, z'
loop_
 _atom_site_type_symbol
 _atom_site_label
 _atom_site_symmetry_multiplicity
 _atom_site_fract_x
 _atom_site_fract_y
 _atom_site_fract_z
 _atom_site_occupancy
  Mg  Mg0  1  0.40899800  0.40899800  0.70585900  1
  Mg  Mg1  1  0.68314300  0.68314300  0.28323100  1
  Mg  Mg2  1  0.99803200  0.99803200  0.34587600  1
  Mg  Mg3  1  0.00256300  0.00256300  0.00256300  1
  Mg  Mg4  1  0.59593300  0.31679500  0.99843500  1
  Mg  Mg5  1  0.70585900  0.40899800  0.40899800  1
  Mg  Mg6  1  0.31679500  0.99843500  0.59593300  1
  Mg  Mg7  1  0.34587600  0.99803200  0.99803200  1
  Mg  Mg8  1  0.68314300  0.28323100  0.68314300  1
  Mg  Mg9  1  0.99843500  0.59593300  0.31679500  1
  Mg  Mg10  1  0.59593300  0.99843500  0.31679500  1
  Mg  Mg11  1  0.28323100  0.68314300  0.68314300  1
  Mg  Mg12  1  0.99803200  0.34587600  0.99803200  1
  Mg  Mg13  1  0.99843500  0.31679500  0.59593300  1
  Mg  Mg14  1  0.40899800  0.70585900  0.40899800  1
  Mg  Mg15  1  0.31679500  0.59593300  0.99843500  1
  Al  Al0  1  0.35818800  0.35818800  0.17018200  1
  Al  Al1  1  0.18566600  0.18566600  0.80987700  1
  Al  Al2  1  0.81618200  0.63163900  0.00266500  1
  Al  Al3  1  0.00266500  0.81618200  0.63163900  1
  Al  Al4  1  0.35818800  0.17018200  0.35818800  1
  Al  Al5  1  0.00266500  0.63163900  0.81618200  1
  Al  Al6  1  0.18566600  0.80987700  0.18566600  1
  Al  Al7  1  0.80987700  0.18566600  0.18566600  1
  Al  Al8  1  0.63163900  0.00266500  0.81618200  1
  Al  Al9  1  0.17018200  0.35818800  0.35818800  1
  Al  Al10  1  0.81618200  0.00266500  0.63163900  1
  Al  Al11  1  0.63163900  0.81618200  0.00266500  1
  Ge  Ge0  1  0.69104900  0.69104900  0.69104900  1
loop_
_geom_bond_atom_site_label_1
_geom_bond_atom_site_label_2
_geom_bond_distance
_geom_bond_site_symmetry_2
Mg0 Mg11 3.102982 1_555
Mg0 Mg8 3.102982 1_555
Mg0 Mg15 3.176546 1_555
Mg0 Mg4 3.176546 1_555
Mg0 Mg13 3.246487 1_455
Mg0 Mg6 3.246487 1_545
Mg1 Mg2 3.022424 1_555
Mg1 Mg15 3.100684 1_554
Mg1 Mg4 3.100684 1_554
Mg1 Mg5 3.102982 1_555
Mg1 Mg14 3.102982 1_555
Mg1 Mg10 3.165479 1_555
Mg1 Mg9 3.165479 1_555
Mg2 Mg6 3.032126 1_655
Mg2 Mg3 3.148255 1_665
Mg3 Mg7 3.148255 1_544
Mg4 Mg7 3.032126 1_545
Mg4 Mg8 3.165479 1_555
Mg4 Mg9 3.193516 1_556
Mg4 Mg6 3.193516 1_545
Mg4 Mg5 3.246487 1_556
Mg5 Mg8 3.102982 1_555
Mg5 Mg9 3.176545 1_555
Mg6 Mg8 3.100684 1_565
Mg6 Mg9 3.193516 1_455
Mg10 Mg7 3.032126 1_554
Mg10 Mg8 3.100684 1_565
Mg10 Mg14 3.176545 1_555
Mg10 Mg13 3.193516 1_565
Mg10 Mg15 3.193516 1_554
Mg10 Mg5 3.246487 1_565
Mg11 Mg7 3.022424 1_555
Mg11 Mg13 3.100684 1_455
Mg11 Mg9 3.100684 1_455
Mg11 Mg14 3.102982 1_555
Mg11 Mg6 3.165479 1_555
Mg11 Mg15 3.165479 1_555
Mg12 Mg8 3.022424 1_555
Mg12 Mg15 3.032126 1_655
Mg12 Mg9 3.032126 1_556
Mg12 Mg3 3.148255 1_656
Mg13 Mg2 3.032126 1_545
Mg13 Mg8 3.165479 1_555
Mg13 Mg5 3.176546 1_555
Mg13 Mg15 3.193516 1_655
Mg14 Mg6 3.176546 1_555
Mg14 Mg9 3.246487 1_455
Mg14 Mg15 3.246487 1_554
Al0 Al1 2.687792 1_554
Al0 Al4 2.788062 1_555
Al0 Al9 2.788062 1_555
Al0 Mg1 2.952931 1_555
Al0 Mg14 2.957572 1_555
Al0 Mg5 2.957572 1_555
Al0 Mg7 3.071262 1_544
Al0 Mg12 3.071262 1_454
Al0 Mg15 3.103307 1_554
Al0 Mg4 3.103307 1_554
Al0 Mg3 3.129490 1_555
Al1 Al3 2.755925 1_545
Al1 Al10 2.755925 1_455
Al1 Mg13 2.964042 1_455
Al1 Mg6 2.964042 1_545
Al1 Mg0 2.991677 1_555
Al1 Mg15 3.122031 1_555
Al1 Mg4 3.122031 1_555
Al1 Mg12 3.143314 1_455
Al1 Mg7 3.143314 1_545
Al1 Mg3 3.260806 1_556
Al2 Al6 2.755925 1_655
Al2 Al5 2.765476 1_654
Al2 Mg4 2.878715 1_554
Al2 Mg9 2.973792 1_555
Al2 Ge0 2.982665 1_554
Al2 Mg8 2.997950 1_554
Al2 Mg2 3.103655 1_555
Al2 Mg1 3.132254 1_555
Al2 Mg0 3.146929 1_554
Al2 Mg3 3.234765 1_665
Al3 Al5 2.736707 1_555
Al3 Mg9 2.878715 1_455
Al3 Mg6 2.973792 1_555
Al3 Ge0 2.982665 1_455
Al3 Mg1 2.997950 1_455
Al3 Mg7 3.103655 1_555
Al3 Mg11 3.132254 1_555
Al3 Mg5 3.146928 1_455
Al3 Mg3 3.234766 1_566
Al4 Al6 2.687792 1_545
Al4 Al9 2.788062 1_555
Al4 Mg8 2.952931 1_555
Al4 Mg5 2.957572 1_555
Al4 Mg0 2.957572 1_555
Al4 Mg2 3.071262 1_445
Al4 Mg7 3.071262 1_544
Al4 Mg10 3.103307 1_545
Al4 Mg6 3.103307 1_545
Al4 Mg3 3.129490 1_555
Al5 Al6 2.755925 1_556
Al5 Mg13 2.878715 1_455
Al5 Mg15 2.973792 1_555
Al5 Ge0 2.982665 1_455
Al5 Mg8 2.997950 1_455
Al5 Mg7 3.103655 1_555
Al5 Mg11 3.132254 1_555
Al5 Mg5 3.146929 1_455
Al5 Mg3 3.234765 1_566
Al6 Mg9 2.964042 1_455
Al6 Mg15 2.964042 1_554
Al6 Mg14 2.991677 1_555
Al6 Mg10 3.122031 1_555
Al6 Mg6 3.122032 1_555
Al6 Mg7 3.143314 1_554
Al6 Mg2 3.143314 1_455
Al6 Mg3 3.260806 1_565
Al7 Al9 2.687792 1_655
Al7 Al8 2.755925 1_554
Al7 Mg10 2.964042 1_545
Al7 Mg4 2.964042 1_554
Al7 Mg5 2.991677 1_555
Al7 Mg9 3.122031 1_555
Al7 Mg13 3.122032 1_555
Al7 Mg12 3.143314 1_554
Al7 Mg2 3.143314 1_545
Al7 Mg3 3.260806 1_655
Al8 Mg6 2.878715 1_545
Al8 Mg4 2.973792 1_555
Al8 Ge0 2.982665 1_545
Al8 Mg11 2.997950 1_545
Al8 Mg12 3.103655 1_555
Al8 Mg8 3.132254 1_555
Al8 Mg14 3.146929 1_545
Al8 Mg3 3.234765 1_656
Al9 Mg11 2.952931 1_555
Al9 Mg14 2.957572 1_555
Al9 Mg0 2.957572 1_555
Al9 Mg2 3.071262 1_445
Al9 Mg12 3.071262 1_454
Al9 Mg9 3.103307 1_455
Al9 Mg13 3.103307 1_455
Al9 Mg3 3.129490 1_555
Al10 Al8 2.736707 1_555
Al10 Al3 2.765476 1_645
Al10 Mg10 2.878715 1_545
Al10 Mg13 2.973792 1_555
Al10 Ge0 2.982665 1_545
Al10 Mg1 2.997950 1_545
Al10 Mg12 3.103655 1_555
Al10 Mg8 3.132254 1_555
Al10 Mg14 3.146928 1_545
Al10 Mg3 3.234766 1_656
Al11 Al2 2.736707 1_555
Al11 Al7 2.755925 1_565
Al11 Al8 2.765476 1_564
Al11 Mg15 2.878715 1_554
Al11 Mg10 2.973792 1_555
Al11 Ge0 2.982665 1_554
Al11 Mg11 2.997950 1_554
Al11 Mg2 3.103655 1_555
Al11 Mg1 3.132254 1_555
Al11 Mg0 3.146929 1_554
Al11 Mg3 3.234765 1_665
Ge0 Mg3 2.853775 1_666
Ge0 Mg0 3.045277 1_555
Ge0 Mg5 3.045278 1_555
Ge0 Mg14 3.045278 1_555
