# generated using pymatgen
data_Ba3Sr3(BiN)2
_symmetry_space_group_name_H-M   'P 1'
_cell_length_a   7.63906135
_cell_length_b   7.63906135
_cell_length_c   12.79439500
_cell_angle_alpha   90.00000000
_cell_angle_beta   90.00000000
_cell_angle_gamma   119.99999435
_symmetry_Int_Tables_number   1
_chemical_formula_structural   Ba3Sr3(BiN)2
_chemical_formula_sum   'Ba6 Sr6 Bi4 N4'
_cell_volume   646.59211838
_cell_formula_units_Z   2
loop_
 _symmetry_equiv_pos_site_id
 _symmetry_equiv_pos_as_xyz
  1  'x, y, z'
loop_
 _atom_site_type_symbol
 _atom_site_label
 _atom_site_symmetry_multiplicity
 _atom_site_fract_x
 _atom_site_fract_y
 _atom_site_fract_z
 _atom_site_occupancy
  Ba  Ba0  1  0.82515000  0.17485000  0.75000000  1
  Ba  Ba1  1  0.17485000  0.82515000  0.25000000  1
  Ba  Ba2  1  0.34970000  0.17485000  0.75000000  1
  Ba  Ba3  1  0.65030000  0.82515000  0.25000000  1
  Ba  Ba4  1  0.82515000  0.65030000  0.75000000  1
  Ba  Ba5  1  0.17485000  0.34970000  0.25000000  1
  Sr  Sr0  1  0.50000000  0.50000000  0.00000000  1
  Sr  Sr1  1  0.00000000  0.50000000  0.00000000  1
  Sr  Sr2  1  0.50000000  0.50000000  0.50000000  1
  Sr  Sr3  1  0.50000000  0.00000000  0.00000000  1
  Sr  Sr4  1  0.00000000  0.50000000  0.50000000  1
  Sr  Sr5  1  0.50000000  0.00000000  0.50000000  1
  Bi  Bi0  1  0.00000000  0.00000000  0.00000000  1
  Bi  Bi1  1  0.00000000  0.00000000  0.50000000  1
  Bi  Bi2  1  0.66666700  0.33333300  0.25000000  1
  Bi  Bi3  1  0.33333300  0.66666700  0.75000000  1
  N  N0  1  0.66666700  0.33333300  0.88728900  1
  N  N1  1  0.33333300  0.66666700  0.11271100  1
  N  N2  1  0.33333300  0.66666700  0.38728900  1
  N  N3  1  0.66666700  0.33333300  0.61271100  1
loop_
_geom_bond_atom_site_label_1
_geom_bond_atom_site_label_2
_geom_bond_distance
_geom_bond_site_symmetry_2
Ba0 N0 2.735416 1_555
Ba0 N3 2.735416 1_555
Ba0 Bi3 3.821065 1_545
Ba0 Bi3 3.821065 1_655
Ba0 Bi0 3.947561 1_656
Ba0 Bi1 3.947561 1_655
Ba1 N1 2.735416 1_555
Ba1 N2 2.735416 1_555
Ba1 Bi2 3.821065 1_565
Ba1 Bi2 3.821065 1_455
Ba1 Bi1 3.947561 1_565
Ba1 Bi0 3.947561 1_565
Ba2 N0 2.735421 1_555
Ba2 N3 2.735421 1_555
Ba2 Bi3 3.821061 1_545
Ba2 Bi3 3.821069 1_555
Ba2 Bi0 3.947561 1_556
Ba2 Bi1 3.947561 1_555
Ba3 N2 2.735421 1_555
Ba3 N1 2.735421 1_555
Ba3 Bi2 3.821061 1_565
Ba3 Bi2 3.821069 1_555
Ba3 Bi0 3.947561 1_665
Ba3 Bi1 3.947561 1_665
Ba4 N3 2.735421 1_555
Ba4 N0 2.735421 1_555
Ba4 Bi3 3.821061 1_655
Ba4 Bi3 3.821069 1_555
Ba4 Bi0 3.947561 1_666
Ba4 Bi1 3.947561 1_665
Ba5 N1 2.735421 1_555
Ba5 N2 2.735421 1_555
Ba5 Bi2 3.821061 1_455
Ba5 Bi2 3.821069 1_555
Ba5 Bi0 3.947561 1_555
Ba5 Bi1 3.947561 1_555
Bi0 Sr3 3.819531 1_455
Bi0 Sr3 3.819531 1_555
Bi0 Sr1 3.819531 1_545
Bi0 Sr1 3.819531 1_555
Bi0 Sr0 3.819531 1_555
Bi0 Sr0 3.819531 1_445
Bi1 Sr5 3.819531 1_555
Bi1 Sr4 3.819531 1_545
Bi1 Sr5 3.819531 1_455
Bi1 Sr4 3.819531 1_555
Bi1 Sr2 3.819531 1_555
Bi1 Sr2 3.819531 1_445
Bi2 Sr3 3.885095 1_555
Bi2 Sr4 3.885095 1_655
Bi2 Sr1 3.885095 1_655
Bi2 Sr5 3.885095 1_555
Bi2 Sr0 3.885099 1_555
Bi2 Sr2 3.885099 1_555
Bi3 Sr5 3.885095 1_565
Bi3 Sr3 3.885095 1_566
Bi3 Sr4 3.885095 1_555
Bi3 Sr1 3.885095 1_556
Bi3 Sr0 3.885099 1_556
Bi3 Sr2 3.885099 1_555
N0 Sr3 2.634861 1_556
N0 Sr1 2.634861 1_656
N0 Sr0 2.634866 1_556
N1 Sr3 2.634861 1_565
N1 Sr1 2.634861 1_555
N1 Sr0 2.634866 1_555
N2 Sr4 2.634861 1_555
N2 Sr5 2.634861 1_565
N2 Sr2 2.634866 1_555
N3 Sr4 2.634861 1_655
N3 Sr5 2.634861 1_555
N3 Sr2 2.634866 1_555
