# generated using pymatgen
data_Ba2YNi3O7
_symmetry_space_group_name_H-M   'P 1'
_cell_length_a   5.59433563
_cell_length_b   5.59351569
_cell_length_c   11.51464700
_cell_angle_alpha   90.00008835
_cell_angle_beta   89.99989225
_cell_angle_gamma   87.96817255
_symmetry_Int_Tables_number   1
_chemical_formula_structural   Ba2YNi3O7
_chemical_formula_sum   'Ba4 Y2 Ni6 O14'
_cell_volume   360.08984572
_cell_formula_units_Z   2
loop_
 _symmetry_equiv_pos_site_id
 _symmetry_equiv_pos_as_xyz
  1  'x, y, z'
loop_
 _atom_site_type_symbol
 _atom_site_label
 _atom_site_symmetry_multiplicity
 _atom_site_fract_x
 _atom_site_fract_y
 _atom_site_fract_z
 _atom_site_occupancy
  Ba  Ba0  1  0.49999900  0.00000400  0.81617300  1
  Ba  Ba1  1  0.99999900  0.50000400  0.81617500  1
  Ba  Ba2  1  0.50000400  0.00000000  0.18379200  1
  Ba  Ba3  1  0.00000300  0.49999900  0.18379100  1
  Y  Y0  1  0.49999700  0.99999600  0.49996600  1
  Y  Y1  1  0.99999900  0.49999900  0.49996600  1
  Ni  Ni0  1  0.00000200  0.00000200  0.00000900  1
  Ni  Ni1  1  0.99999800  0.99999800  0.65677800  1
  Ni  Ni2  1  0.00000100  0.00000100  0.34318600  1
  Ni  Ni3  1  0.50000300  0.50000400  0.00001300  1
  Ni  Ni4  1  0.49999700  0.49999200  0.66079500  1
  Ni  Ni5  1  0.50000000  0.50000000  0.33923300  1
  O  O0  1  0.76466800  0.76466300  0.00000400  1
  O  O1  1  0.23533500  0.23534300  0.00000500  1
  O  O2  1  0.75100600  0.24896400  0.62254500  1
  O  O3  1  0.24898900  0.75102700  0.62254400  1
  O  O4  1  0.24900600  0.75101600  0.37752300  1
  O  O5  1  0.75099400  0.24898400  0.37752200  1
  O  O6  1  0.24792000  0.24790700  0.62370700  1
  O  O7  1  0.75207500  0.75208500  0.62370700  1
  O  O8  1  0.75203800  0.75205100  0.37629000  1
  O  O9  1  0.24796300  0.24795100  0.37628900  1
  O  O10  1  0.49999600  0.50001100  0.83724200  1
  O  O11  1  0.99999700  0.00000900  0.83922000  1
  O  O12  1  0.00000900  0.99999300  0.16078100  1
  O  O13  1  0.50000700  0.49999700  0.16274400  1
loop_
_geom_bond_atom_site_label_1
_geom_bond_atom_site_label_2
_geom_bond_distance
_geom_bond_site_symmetry_2
Ba0 O10 2.807222 1_545
Ba0 O10 2.807298 1_555
Ba0 O11 2.809719 1_555
Ba0 O11 2.809738 1_455
Ba0 O1 2.875329 1_556
Ba0 O0 2.875347 1_546
Ba0 O6 2.946915 1_555
Ba0 O7 2.946940 1_545
Ba0 O2 3.003438 1_555
Ba0 O3 3.003501 1_545
Ba1 O10 2.807652 1_655
Ba1 O10 2.807682 1_555
Ba1 O11 2.809291 1_555
Ba1 O11 2.809345 1_565
Ba1 O0 2.875247 1_556
Ba1 O1 2.875280 1_656
Ba1 O7 2.946987 1_555
Ba1 O6 2.947014 1_655
Ba1 O3 3.003586 1_655
Ba1 O2 3.003633 1_555
Ba2 O13 2.807224 1_555
Ba2 O13 2.807255 1_545
Ba2 O12 2.809663 1_545
Ba2 O12 2.809715 1_645
Ba2 O0 2.874952 1_545
Ba2 O1 2.874979 1_555
Ba2 O8 2.947192 1_545
Ba2 O9 2.947200 1_555
Ba2 O5 3.004329 1_555
Ba2 O4 3.004359 1_545
Ba3 O13 2.807625 1_455
Ba3 O13 2.807668 1_555
Ba3 O12 2.809248 1_555
Ba3 O12 2.809312 1_545
Ba3 O1 2.874877 1_555
Ba3 O0 2.874922 1_455
Ba3 O9 2.947253 1_555
Ba3 O8 2.947278 1_455
Ba3 O4 3.004469 1_555
Ba3 O5 3.004471 1_455
Ni0 O12 1.851233 1_545
Ni0 O11 1.851429 1_454
Ni0 O0 1.894465 1_445
Ni0 O1 1.894469 1_555
Ni1 O2 1.974196 1_565
Ni1 O3 1.974211 1_655
Ni1 O6 2.031731 1_665
Ni1 O7 2.031751 1_555
Ni1 O11 2.100755 1_565
Ni2 O5 1.974553 1_455
Ni2 O4 1.974557 1_545
Ni2 O9 2.032121 1_555
Ni2 O8 2.032127 1_445
Ni2 O12 2.100329 1_545
Ni3 O13 1.873790 1_555
Ni3 O10 1.874251 1_554
Ni3 O0 2.130536 1_555
Ni3 O1 2.130556 1_555
Ni4 O2 1.999400 1_555
Ni4 O3 1.999428 1_555
Ni4 O10 2.031725 1_555
Ni4 O6 2.073708 1_555
Ni4 O7 2.073744 1_555
Ni5 O5 1.999399 1_555
Ni5 O4 1.999400 1_555
Ni5 O13 2.032209 1_555
Ni5 O9 2.073333 1_555
Ni5 O8 2.073347 1_555
O2 Y0 2.458064 1_545
O2 Y1 2.458230 1_555
O3 Y0 2.458057 1_555
O3 Y1 2.458191 1_455
O4 Y0 2.457145 1_555
O4 Y1 2.457317 1_455
O5 Y0 2.457197 1_545
O5 Y1 2.457311 1_555
O6 Y0 2.408956 1_545
O6 Y1 2.409036 1_455
O7 Y0 2.408964 1_555
O7 Y1 2.409021 1_555
O8 Y0 2.408505 1_555
O8 Y1 2.408591 1_555
O9 Y0 2.408526 1_545
O9 Y1 2.408589 1_455
