# generated using pymatgen
data_Mn3Sb2(IO)4
_symmetry_space_group_name_H-M   'P 1'
_cell_length_a   6.62267135
_cell_length_b   8.04123379
_cell_length_c   15.38197537
_cell_angle_alpha   89.97724084
_cell_angle_beta   90.01931267
_cell_angle_gamma   114.28521117
_symmetry_Int_Tables_number   1
_chemical_formula_structural   Mn3Sb2(IO)4
_chemical_formula_sum   'Mn6 Sb4 I8 O8'
_cell_volume   746.67076019
_cell_formula_units_Z   2
loop_
 _symmetry_equiv_pos_site_id
 _symmetry_equiv_pos_as_xyz
  1  'x, y, z'
loop_
 _atom_site_type_symbol
 _atom_site_label
 _atom_site_symmetry_multiplicity
 _atom_site_fract_x
 _atom_site_fract_y
 _atom_site_fract_z
 _atom_site_occupancy
  Mn  Mn0  1  0.00020700  0.99977500  0.00027100  1
  Mn  Mn1  1  0.49886500  0.99874300  0.49957200  1
  Mn  Mn2  1  0.75713200  0.01325800  0.24975300  1
  Mn  Mn3  1  0.74296000  0.98719500  0.75000600  1
  Mn  Mn4  1  0.24346500  0.98796300  0.74975200  1
  Mn  Mn5  1  0.25728000  0.01353800  0.25039700  1
  Sb  Sb0  1  0.40796100  0.81494500  0.94167100  1
  Sb  Sb1  1  0.59241200  0.18490100  0.05814500  1
  Sb  Sb2  1  0.09196500  0.18514700  0.44192100  1
  Sb  Sb3  1  0.90740900  0.81486400  0.55819600  1
  I  I0  1  0.84478300  0.68986500  0.87610600  1
  I  I1  1  0.15556400  0.31006600  0.12410500  1
  I  I2  1  0.65535100  0.31002200  0.37596300  1
  I  I3  1  0.34461400  0.68977800  0.62392000  1
  I  I4  1  0.87414800  0.74731200  0.15821900  1
  I  I5  1  0.12568800  0.25267600  0.84214600  1
  I  I6  1  0.62614700  0.25268200  0.65789400  1
  I  I7  1  0.37441200  0.74718500  0.34190000  1
  O  O0  1  0.30913900  0.99979400  0.00003300  1
  O  O1  1  0.80858200  0.99989500  0.50001600  1
  O  O2  1  0.69128100  0.99990900  0.00004800  1
  O  O3  1  0.19071800  0.00001700  0.50001300  1
  O  O4  1  0.46663500  0.93375000  0.82653700  1
  O  O5  1  0.53341700  0.06646100  0.17336900  1
  O  O6  1  0.03333600  0.06659700  0.32677300  1
  O  O7  1  0.96653100  0.93366500  0.67327100  1
loop_
_geom_bond_atom_site_label_1
_geom_bond_atom_site_label_2
_geom_bond_distance
_geom_bond_site_symmetry_2
Mn0 O0 2.045897 1_555
Mn0 O2 2.046360 1_455
Mn1 O3 2.045005 1_565
Mn1 O1 2.047371 1_555
Mn2 O5 2.068435 1_555
Mn2 O6 2.070536 1_655
Mn3 O4 2.067259 1_555
Mn3 O7 2.072822 1_555
Mn4 O7 2.068477 1_455
Mn4 O4 2.073133 1_555
Mn5 O6 2.069760 1_555
Mn5 O5 2.071288 1_555
I0 Mn0 2.968177 1_656
I0 Mn3 3.354858 1_555
I0 Mn4 3.359845 1_655
I1 Mn0 2.967042 1_545
I1 Mn2 3.348715 1_455
I1 Mn5 3.351093 1_555
I2 Mn1 2.969560 1_545
I2 Mn5 3.345859 1_555
I2 Mn2 3.353443 1_555
I3 Mn1 2.963863 1_555
I3 Mn3 3.354300 1_555
I3 Mn4 3.357106 1_555
I4 Mn2 2.919351 1_565
I4 Mn5 2.926334 1_665
I4 Mn0 3.053589 1_655
I5 Mn4 2.920290 1_545
I5 Mn3 2.922291 1_445
I5 Mn0 3.057703 1_546
I6 Mn4 2.917737 1_545
I6 Mn3 2.918713 1_545
I6 Mn1 3.065563 1_545
I7 Mn5 2.921241 1_565
I7 Mn2 2.924101 1_565
I7 Mn1 3.047040 1_555
O0 Sb1 2.058413 1_565
O0 Sb0 2.060414 1_554
O1 Sb2 2.059188 1_665
O1 Sb3 2.059758 1_555
O2 Sb1 2.059812 1_565
O2 Sb0 2.059977 1_554
O3 Sb3 2.059198 1_445
O3 Sb2 2.059548 1_555
O4 Sb0 1.973279 1_555
O5 Sb1 1.973341 1_555
O6 Sb2 1.973093 1_555
O7 Sb3 1.972893 1_555
