# generated using pymatgen
data_HoMnO3
_symmetry_space_group_name_H-M   'P 1'
_cell_length_a   6.10733139
_cell_length_b   6.10733168
_cell_length_c   11.40796997
_cell_angle_alpha   90.00001482
_cell_angle_beta   90.00000886
_cell_angle_gamma   119.99970365
_symmetry_Int_Tables_number   1
_chemical_formula_structural   HoMnO3
_chemical_formula_sum   'Ho6 Mn6 O18'
_cell_volume   368.50491952
_cell_formula_units_Z   6
loop_
 _symmetry_equiv_pos_site_id
 _symmetry_equiv_pos_as_xyz
  1  'x, y, z'
loop_
 _atom_site_type_symbol
 _atom_site_label
 _atom_site_symmetry_multiplicity
 _atom_site_fract_x
 _atom_site_fract_y
 _atom_site_fract_z
 _atom_site_occupancy
  Ho  Ho0  1  0.66666648  0.33333333  0.23005307  1
  Ho  Ho1  1  0.33333303  0.66666639  0.73005323  1
  Ho  Ho2  1  0.66666661  0.33333330  0.73005331  1
  Ho  Ho3  1  0.33333330  0.66666651  0.23005317  1
  Ho  Ho4  1  -0.00000014  -0.00000015  0.77508179  1
  Ho  Ho5  1  0.00000014  0.00000011  0.27508188  1
  Mn  Mn0  1  0.66643331  -0.00000360  0.49930423  1
  Mn  Mn1  1  0.66643758  0.66643754  0.99930465  1
  Mn  Mn2  1  0.00000381  0.33356668  0.99930452  1
  Mn  Mn3  1  -0.00000372  0.66643333  0.49930424  1
  Mn  Mn4  1  0.33356231  0.33356226  0.49930431  1
  Mn  Mn5  1  0.33356683  0.00000378  0.99930457  1
  O  O0  1  0.66666700  0.33333348  0.01862536  1
  O  O1  1  0.33333289  0.66666644  0.51862416  1
  O  O2  1  0.66666640  0.33333278  0.51862418  1
  O  O3  1  0.33333343  0.66666701  0.01862537  1
  O  O4  1  -0.00000005  -0.00000001  0.97619477  1
  O  O5  1  0.00000011  0.00000009  0.47619493  1
  O  O6  1  0.36003942  0.00000036  0.83575783  1
  O  O7  1  0.36004126  0.36004137  0.33575811  1
  O  O8  1  -0.00000027  0.63995988  0.33575636  1
  O  O9  1  0.00000027  0.36003948  0.83575779  1
  O  O10  1  0.63996080  0.63996073  0.83575797  1
  O  O11  1  0.63995984  -0.00000039  0.33575638  1
  O  O12  1  0.30605209  0.00000074  0.16306169  1
  O  O13  1  0.30605251  0.30605265  0.66306091  1
  O  O14  1  -0.00000049  0.69394678  0.66306082  1
  O  O15  1  0.00000068  0.30605202  0.16306169  1
  O  O16  1  0.69394875  0.69394871  0.16306195  1
  O  O17  1  0.69394682  -0.00000059  0.66306076  1
loop_
_geom_bond_atom_site_label_1
_geom_bond_atom_site_label_2
_geom_bond_distance
_geom_bond_site_symmetry_2
Ho0 O16 2.257301 1_555
Ho0 O15 2.257303 1_655
Ho0 O12 2.257305 1_555
Ho0 O11 2.300664 1_555
Ho0 O7 2.300668 1_555
Ho0 O8 2.300668 1_655
Ho0 O0 2.411961 1_555
Ho1 O13 2.257300 1_555
Ho1 O14 2.257300 1_555
Ho1 O17 2.257309 1_565
Ho1 O10 2.300672 1_555
Ho1 O6 2.300673 1_565
Ho1 O9 2.300676 1_555
Ho1 O1 2.411976 1_555
Ho2 O13 2.257302 1_555
Ho2 O17 2.257302 1_555
Ho2 O14 2.257308 1_655
Ho2 O10 2.300670 1_555
Ho2 O9 2.300672 1_655
Ho2 O6 2.300677 1_555
Ho2 O2 2.411977 1_555
Ho3 O16 2.257302 1_555
Ho3 O12 2.257304 1_565
Ho3 O15 2.257306 1_555
Ho3 O8 2.300663 1_555
Ho3 O7 2.300667 1_555
Ho3 O11 2.300667 1_565
Ho3 O3 2.411962 1_555
Ho4 O14 2.264264 1_545
Ho4 O17 2.264264 1_455
Ho4 O13 2.264270 1_555
Ho4 O4 2.294291 1_555
Ho4 O6 2.305254 1_555
Ho4 O9 2.305255 1_555
Ho4 O10 2.305263 1_445
Ho5 O12 2.264253 1_555
Ho5 O15 2.264253 1_555
Ho5 O16 2.264257 1_445
Ho5 O5 2.294292 1_555
Ho5 O8 2.305254 1_545
Ho5 O11 2.305254 1_455
Ho5 O7 2.305275 1_555
Mn0 O11 1.872742 1_555
Mn0 O17 1.875671 1_555
Mn0 O1 2.046965 1_545
Mn0 O2 2.046984 1_555
Mn0 O5 2.054179 1_655
Mn1 O10 1.872730 1_555
Mn1 O16 1.875679 1_556
Mn1 O0 2.046979 1_556
Mn1 O3 2.046980 1_556
Mn1 O4 2.054174 1_665
Mn2 O9 1.872729 1_555
Mn2 O15 1.875679 1_556
Mn2 O3 2.046965 1_556
Mn2 O0 2.046988 1_456
Mn2 O4 2.054178 1_555
Mn3 O8 1.872743 1_555
Mn3 O14 1.875671 1_555
Mn3 O2 2.046965 1_455
Mn3 O1 2.046986 1_555
Mn3 O5 2.054178 1_565
Mn4 O7 1.872726 1_555
Mn4 O13 1.875670 1_555
Mn4 O2 2.046978 1_555
Mn4 O1 2.046979 1_555
Mn4 O5 2.054171 1_555
Mn5 O6 1.872729 1_555
Mn5 O12 1.875678 1_556
Mn5 O0 2.046965 1_556
Mn5 O3 2.046987 1_546
Mn5 O4 2.054180 1_555
