# generated using pymatgen
data_Tb3Sn7
_symmetry_space_group_name_H-M   'P 1'
_cell_length_a   4.38584916
_cell_length_b   4.42007258
_cell_length_c   13.62622690
_cell_angle_alpha   90.00000000
_cell_angle_beta   99.26112347
_cell_angle_gamma   90.00000000
_symmetry_Int_Tables_number   1
_chemical_formula_structural   Tb3Sn7
_chemical_formula_sum   'Tb3 Sn7'
_cell_volume   260.71170047
_cell_formula_units_Z   1
loop_
 _symmetry_equiv_pos_site_id
 _symmetry_equiv_pos_as_xyz
  1  'x, y, z'
loop_
 _atom_site_type_symbol
 _atom_site_label
 _atom_site_symmetry_multiplicity
 _atom_site_fract_x
 _atom_site_fract_y
 _atom_site_fract_z
 _atom_site_occupancy
  Tb  Tb0  1  -0.00000000  0.50000000  -0.00000000  1
  Tb  Tb1  1  0.31265454  0.00000000  0.62530808  1
  Tb  Tb2  1  0.68734546  -0.00000000  0.37469192  1
  Sn  Sn0  1  0.50000000  -0.00000000  -0.00000000  1
  Sn  Sn1  1  0.40394513  0.50000000  0.80788826  1
  Sn  Sn2  1  0.59605487  0.50000000  0.19211174  1
  Sn  Sn3  1  0.09583872  -0.00000000  0.19167645  1
  Sn  Sn4  1  0.90416128  -0.00000000  0.80832355  1
  Sn  Sn5  1  0.21307646  0.50000000  0.42615193  1
  Sn  Sn6  1  0.78692354  0.50000000  0.57384807  1
loop_
_geom_bond_atom_site_label_1
_geom_bond_atom_site_label_2
_geom_bond_distance
_geom_bond_site_symmetry_2
Sn0 Tb0 3.113387 1_545
Sn0 Tb0 3.113387 1_645
Sn0 Tb0 3.113387 1_655
Sn0 Tb0 3.113387 1_555
Sn0 Sn3 3.384357 1_555
Sn0 Sn4 3.384357 1_554
Sn0 Sn4 3.384359 1_454
Sn0 Sn3 3.384359 1_655
Sn0 Sn2 3.399917 1_545
Sn0 Sn2 3.399917 1_555
Sn0 Sn1 3.399917 1_554
Sn0 Sn1 3.399917 1_544
Sn1 Sn4 3.113388 1_565
Sn1 Sn4 3.113388 1_555
Sn1 Sn4 3.113397 1_465
Sn1 Sn4 3.113397 1_455
Sn1 Tb1 3.303558 1_565
Sn1 Tb1 3.303558 1_555
Sn1 Tb0 3.388816 1_656
Sn1 Tb0 3.388822 1_556
Sn2 Sn3 3.113388 1_555
Sn2 Sn3 3.113388 1_565
Sn2 Sn3 3.113397 1_665
Sn2 Sn3 3.113397 1_655
Sn2 Tb2 3.303558 1_565
Sn2 Tb2 3.303558 1_555
Sn2 Tb0 3.388816 1_555
Sn2 Tb0 3.388822 1_655
Sn3 Tb2 3.296500 1_555
Sn3 Tb2 3.296506 1_455
Sn3 Tb0 3.395471 1_555
Sn3 Tb0 3.395471 1_545
Sn4 Tb1 3.296500 1_555
Sn4 Tb1 3.296506 1_655
Sn4 Tb0 3.395471 1_656
Sn4 Tb0 3.395471 1_646
Sn5 Sn6 2.958770 1_555
Sn5 Sn6 2.958776 1_455
Sn5 Tb2 3.189375 1_565
Sn5 Tb2 3.189375 1_555
Sn5 Tb2 3.189381 1_465
Sn5 Tb2 3.189381 1_455
Sn5 Tb1 3.472455 1_565
Sn5 Tb1 3.472455 1_555
Sn6 Tb1 3.189375 1_565
Sn6 Tb1 3.189375 1_555
Sn6 Tb1 3.189381 1_665
Sn6 Tb1 3.189381 1_655
Sn6 Tb2 3.472455 1_565
Sn6 Tb2 3.472455 1_555
