# generated using pymatgen
data_Ti6Al16Os7
_symmetry_space_group_name_H-M   'P 1'
_cell_length_a   8.61780874
_cell_length_b   8.61780874
_cell_length_c   8.61780874
_cell_angle_alpha   60.00000000
_cell_angle_beta   60.00000000
_cell_angle_gamma   60.00000000
_symmetry_Int_Tables_number   1
_chemical_formula_structural   Ti6Al16Os7
_chemical_formula_sum   'Ti6 Al16 Os7'
_cell_volume   452.55936495
_cell_formula_units_Z   1
loop_
 _symmetry_equiv_pos_site_id
 _symmetry_equiv_pos_as_xyz
  1  'x, y, z'
loop_
 _atom_site_type_symbol
 _atom_site_label
 _atom_site_symmetry_multiplicity
 _atom_site_fract_x
 _atom_site_fract_y
 _atom_site_fract_z
 _atom_site_occupancy
  Ti  Ti0  1  0.71992600  0.71992600  0.28007400  1
  Ti  Ti1  1  0.28007400  0.71992600  0.28007400  1
  Ti  Ti2  1  0.71992600  0.28007400  0.28007400  1
  Ti  Ti3  1  0.28007400  0.28007400  0.71992600  1
  Ti  Ti4  1  0.71992600  0.28007400  0.71992600  1
  Ti  Ti5  1  0.28007400  0.71992600  0.71992600  1
  Al  Al0  1  0.87876500  0.87876500  0.36370400  1
  Al  Al1  1  0.87876500  0.36370400  0.87876500  1
  Al  Al2  1  0.36370400  0.87876500  0.87876500  1
  Al  Al3  1  0.87876500  0.87876500  0.87876500  1
  Al  Al4  1  0.12123500  0.12123500  0.63629600  1
  Al  Al5  1  0.12123500  0.63629600  0.12123500  1
  Al  Al6  1  0.63629600  0.12123500  0.12123500  1
  Al  Al7  1  0.12123500  0.12123500  0.12123500  1
  Al  Al8  1  0.65534500  0.65534500  0.03396500  1
  Al  Al9  1  0.65534500  0.03396500  0.65534500  1
  Al  Al10  1  0.03396500  0.65534500  0.65534500  1
  Al  Al11  1  0.65534500  0.65534500  0.65534500  1
  Al  Al12  1  0.34465500  0.34465500  0.96603500  1
  Al  Al13  1  0.34465500  0.96603500  0.34465500  1
  Al  Al14  1  0.96603500  0.34465500  0.34465500  1
  Al  Al15  1  0.34465500  0.34465500  0.34465500  1
  Os  Os0  1  0.00000000  0.00000000  0.00000000  1
  Os  Os1  1  0.00000000  0.00000000  0.50000000  1
  Os  Os2  1  0.50000000  0.00000000  0.50000000  1
  Os  Os3  1  0.00000000  0.50000000  0.50000000  1
  Os  Os4  1  0.50000000  0.50000000  0.00000000  1
  Os  Os5  1  0.00000000  0.50000000  0.00000000  1
  Os  Os6  1  0.50000000  0.00000000  0.00000000  1
loop_
_geom_bond_atom_site_label_1
_geom_bond_atom_site_label_2
_geom_bond_distance
_geom_bond_site_symmetry_2
Al0 Os0 2.559171 1_665
Al0 Os3 2.666200 1_655
Al0 Os2 2.666200 1_565
Al0 Os1 2.666207 1_665
Al0 Ti0 2.848455 1_555
Al0 Ti1 2.848462 1_655
Al0 Ti2 2.848462 1_565
Al1 Os0 2.559171 1_656
Al1 Os3 2.666200 1_655
Al1 Os4 2.666200 1_556
Al1 Os5 2.666207 1_656
Al1 Ti4 2.848455 1_555
Al1 Ti2 2.848462 1_556
Al1 Ti3 2.848462 1_655
Al2 Os0 2.559171 1_566
Al2 Os2 2.666200 1_565
Al2 Os4 2.666200 1_556
Al2 Os6 2.666207 1_566
Al2 Ti5 2.848455 1_555
Al2 Ti3 2.848462 1_565
Al2 Ti1 2.848462 1_556
Al3 Os0 2.559178 1_666
Al3 Os1 2.666199 1_665
Al3 Os5 2.666199 1_656
Al3 Os6 2.666199 1_566
Al3 Ti0 2.848461 1_556
Al3 Ti5 2.848461 1_655
Al3 Ti4 2.848461 1_565
Al4 Os0 2.559171 1_556
Al4 Os3 2.666200 1_555
Al4 Os2 2.666200 1_555
Al4 Os1 2.666207 1_555
Al4 Ti3 2.848455 1_555
Al4 Ti4 2.848462 1_455
Al4 Ti5 2.848462 1_545
Al5 Os0 2.559171 1_565
Al5 Os3 2.666200 1_555
Al5 Os4 2.666200 1_555
Al5 Os5 2.666207 1_555
Al5 Ti1 2.848455 1_555
Al5 Ti5 2.848462 1_554
Al5 Ti0 2.848462 1_455
Al6 Os0 2.559171 1_655
Al6 Os4 2.666200 1_555
Al6 Os2 2.666200 1_555
Al6 Os6 2.666207 1_555
Al6 Ti2 2.848455 1_555
Al6 Ti0 2.848462 1_545
Al6 Ti4 2.848462 1_554
Al7 Os0 2.559178 1_555
Al7 Os1 2.666199 1_555
Al7 Os5 2.666199 1_555
Al7 Os6 2.666199 1_555
Al7 Ti1 2.848461 1_545
Al7 Ti2 2.848461 1_455
Al7 Ti3 2.848461 1_554
Al8 Os4 2.499200 1_555
Al8 Os6 2.499200 1_565
Al8 Os5 2.499200 1_655
Al8 Ti0 2.790756 1_555
Al8 Ti1 2.790756 1_555
Al8 Ti2 2.790756 1_555
Al9 Os2 2.499200 1_555
Al9 Os1 2.499200 1_655
Al9 Os6 2.499200 1_556
Al9 Ti3 2.790756 1_555
Al9 Ti4 2.790756 1_555
Al9 Ti2 2.790756 1_555
Al10 Os3 2.499200 1_555
Al10 Os1 2.499200 1_565
Al10 Os5 2.499200 1_556
Al10 Ti5 2.790756 1_555
Al10 Ti3 2.790756 1_555
Al10 Ti1 2.790756 1_555
Al11 Os3 2.499200 1_655
Al11 Os4 2.499200 1_556
Al11 Os2 2.499200 1_565
Al11 Ti5 2.790756 1_555
Al11 Ti0 2.790756 1_555
Al11 Ti4 2.790756 1_555
Al12 Os5 2.499200 1_556
Al12 Os6 2.499200 1_556
Al12 Os4 2.499200 1_556
Al12 Ti5 2.790756 1_555
Al12 Ti3 2.790756 1_555
Al12 Ti4 2.790756 1_555
Al13 Os1 2.499200 1_565
Al13 Os6 2.499200 1_565
Al13 Os2 2.499200 1_565
Al13 Ti5 2.790756 1_555
Al13 Ti0 2.790756 1_555
Al13 Ti1 2.790756 1_555
Al14 Os1 2.499200 1_655
Al14 Os5 2.499200 1_655
Al14 Os3 2.499200 1_655
Al14 Ti0 2.790756 1_555
Al14 Ti4 2.790756 1_555
Al14 Ti2 2.790756 1_555
Al15 Os4 2.499200 1_555
Al15 Os2 2.499200 1_555
Al15 Os3 2.499200 1_555
Al15 Ti3 2.790756 1_555
Al15 Ti1 2.790756 1_555
Al15 Ti2 2.790756 1_555
Os1 Ti5 3.068822 1_545
Os1 Ti4 3.068822 1_455
Os1 Ti1 3.068822 1_545
Os1 Ti2 3.068822 1_455
Os2 Ti3 3.068822 1_555
Os2 Ti2 3.068822 1_555
Os2 Ti5 3.068822 1_545
Os2 Ti0 3.068822 1_545
Os3 Ti3 3.068822 1_555
Os3 Ti1 3.068822 1_555
Os3 Ti0 3.068822 1_455
Os3 Ti4 3.068822 1_455
Os4 Ti1 3.068822 1_555
Os4 Ti2 3.068822 1_555
Os4 Ti5 3.068822 1_554
Os4 Ti4 3.068822 1_554
Os5 Ti5 3.068822 1_554
Os5 Ti0 3.068822 1_455
Os5 Ti2 3.068822 1_455
Os5 Ti3 3.068822 1_554
Os6 Ti4 3.068822 1_554
Os6 Ti0 3.068822 1_545
Os6 Ti1 3.068822 1_545
Os6 Ti3 3.068822 1_554
