# generated using pymatgen
data_SrCuO2
_symmetry_space_group_name_H-M   'P 1'
_cell_length_a   4.42121400
_cell_length_b   7.49544651
_cell_length_c   4.25138472
_cell_angle_alpha   119.39512040
_cell_angle_beta   90.00000000
_cell_angle_gamma   90.00000000
_symmetry_Int_Tables_number   1
_chemical_formula_structural   SrCuO2
_chemical_formula_sum   'Sr1 Cu1 O2'
_cell_volume   122.74817482
_cell_formula_units_Z   1
loop_
 _symmetry_equiv_pos_site_id
 _symmetry_equiv_pos_as_xyz
  1  'x, y, z'
loop_
 _atom_site_type_symbol
 _atom_site_label
 _atom_site_symmetry_multiplicity
 _atom_site_fract_x
 _atom_site_fract_y
 _atom_site_fract_z
 _atom_site_occupancy
  Sr  Sr0  1  0.50000000  0.06145200  0.24470100  1
  Cu  Cu0  1  0.50000000  0.64172400  0.47725900  1
  O  O0  1  0.50000000  0.39857300  0.41883800  1
  O  O1  1  0.50000000  0.90417100  0.60360200  1
loop_
_geom_bond_atom_site_label_1
_geom_bond_atom_site_label_2
_geom_bond_distance
_geom_bond_site_symmetry_2
Cu0 O0 1.714330 1_555
Cu0 O1 1.766628 1_555
O0 Sr0 2.257603 1_555
O1 Sr0 2.341735 1_565
O1 Sr0 2.379968 1_566
