# generated using pymatgen
data_PrIClO13
_symmetry_space_group_name_H-M   'P 1'
_cell_length_a   7.18385800
_cell_length_b   11.53671000
_cell_length_c   13.36936337
_cell_angle_alpha   84.04846787
_cell_angle_beta   90.00000000
_cell_angle_gamma   90.00000000
_symmetry_Int_Tables_number   1
_chemical_formula_structural   PrIClO13
_chemical_formula_sum   'Pr4 I4 Cl4 O52'
_cell_volume   1102.05494440
_cell_formula_units_Z   4
loop_
 _symmetry_equiv_pos_site_id
 _symmetry_equiv_pos_as_xyz
  1  'x, y, z'
loop_
 _atom_site_type_symbol
 _atom_site_label
 _atom_site_symmetry_multiplicity
 _atom_site_fract_x
 _atom_site_fract_y
 _atom_site_fract_z
 _atom_site_occupancy
  Pr  Pr0  1  0.12875000  0.00603400  0.18213600  1
  Pr  Pr1  1  0.62875000  0.99396600  0.31786400  1
  Pr  Pr2  1  0.87125000  0.99396600  0.81786400  1
  Pr  Pr3  1  0.37125000  0.00603400  0.68213600  1
  I  I0  1  0.12785100  0.91676200  0.44345200  1
  I  I1  1  0.62785100  0.08323800  0.05654800  1
  I  I2  1  0.87214900  0.08323800  0.55654800  1
  I  I3  1  0.37214900  0.91676200  0.94345200  1
  Cl  Cl0  1  0.26207100  0.44802100  0.38249800  1
  Cl  Cl1  1  0.76207100  0.55197900  0.11750200  1
  Cl  Cl2  1  0.73792900  0.55197900  0.61750200  1
  Cl  Cl3  1  0.23792900  0.44802100  0.88249800  1
  O  O0  1  0.20560300  0.71320900  0.18082500  1
  O  O1  1  0.70560300  0.28679100  0.31917500  1
  O  O2  1  0.79439700  0.28679100  0.81917500  1
  O  O3  1  0.29439700  0.71320900  0.68082500  1
  O  O4  1  0.07327600  0.24092200  0.09090200  1
  O  O5  1  0.57327600  0.75907800  0.40909800  1
  O  O6  1  0.92672400  0.75907800  0.90909800  1
  O  O7  1  0.42672400  0.24092200  0.59090200  1
  O  O8  1  0.80022800  0.03630000  0.16384600  1
  O  O9  1  0.30022800  0.96370000  0.33615400  1
  O  O10  1  0.19977200  0.96370000  0.83615400  1
  O  O11  1  0.69977200  0.03630000  0.66384600  1
  O  O12  1  0.09992300  0.24629000  0.18213800  1
  O  O13  1  0.59992300  0.75371000  0.31786200  1
  O  O14  1  0.90007700  0.75371000  0.81786200  1
  O  O15  1  0.40007700  0.24629000  0.68213800  1
  O  O16  1  0.94970500  0.93212200  0.33387100  1
  O  O17  1  0.44970500  0.06787800  0.16612900  1
  O  O18  1  0.05029500  0.06787800  0.66612900  1
  O  O19  1  0.55029500  0.93212200  0.83387100  1
  O  O20  1  0.07539500  0.08842400  0.45349300  1
  O  O21  1  0.57539500  0.91157600  0.04650700  1
  O  O22  1  0.92460500  0.91157600  0.54650700  1
  O  O23  1  0.42460500  0.08842400  0.95349300  1
  O  O24  1  0.32193900  0.92832700  0.53621200  1
  O  O25  1  0.82193900  0.07167300  0.96378800  1
  O  O26  1  0.67806100  0.07167300  0.46378800  1
  O  O27  1  0.17806100  0.92832700  0.03621200  1
  O  O28  1  0.14388700  0.76106100  0.44731700  1
  O  O29  1  0.64388700  0.23893900  0.05268300  1
  O  O30  1  0.85611300  0.23893900  0.55268300  1
  O  O31  1  0.35611300  0.76106100  0.94731700  1
  O  O32  1  0.21511800  0.41281500  0.48599600  1
  O  O33  1  0.71511800  0.58718500  0.01400400  1
  O  O34  1  0.78488200  0.58718500  0.51400400  1
  O  O35  1  0.28488200  0.41281500  0.98599600  1
  O  O36  1  0.31594600  0.34879500  0.33055200  1
  O  O37  1  0.81594600  0.65120500  0.16944800  1
  O  O38  1  0.68405400  0.65120500  0.66944800  1
  O  O39  1  0.18405400  0.34879500  0.83055200  1
  O  O40  1  0.10437800  0.50819700  0.32900400  1
  O  O41  1  0.60437800  0.49180300  0.17099600  1
  O  O42  1  0.89562200  0.49180300  0.67099600  1
  O  O43  1  0.39562200  0.50819700  0.82900400  1
  O  O44  1  0.41243900  0.53502900  0.37687300  1
  O  O45  1  0.91243900  0.46497100  0.12312700  1
  O  O46  1  0.58756100  0.46497100  0.62312700  1
  O  O47  1  0.08756100  0.53502900  0.87687300  1
  O  O48  1  0.24229400  0.65249000  0.61737900  1
  O  O49  1  0.74229400  0.34751000  0.88262100  1
  O  O50  1  0.75770600  0.34751000  0.38262100  1
  O  O51  1  0.25770600  0.65249000  0.11737900  1
loop_
_geom_bond_atom_site_label_1
_geom_bond_atom_site_label_2
_geom_bond_distance
_geom_bond_site_symmetry_2
I0 O28 1.795357 1_555
I0 O24 1.879931 1_555
I0 O9 1.929616 1_555
I0 O16 1.939510 1_455
I0 O22 2.004152 1_455
I0 O20 2.034011 1_565
I1 O29 1.795357 1_555
I1 O25 1.879931 1_554
I1 O8 1.929616 1_555
I1 O17 1.939510 1_555
I1 O23 2.004152 1_554
I1 O21 2.034011 1_545
I2 O30 1.795357 1_555
I2 O26 1.879931 1_555
I2 O11 1.929616 1_555
I2 O18 1.939510 1_655
I2 O20 2.004152 1_655
I2 O22 2.034011 1_545
I3 O31 1.795357 1_555
I3 O27 1.879931 1_556
I3 O10 1.929616 1_555
I3 O19 1.939510 1_555
I3 O21 2.004152 1_556
I3 O23 2.034011 1_565
Cl0 O32 1.441120 1_555
Cl0 O36 1.451688 1_555
Cl0 O44 1.471213 1_555
Cl0 O40 1.474387 1_555
Cl1 O33 1.441120 1_555
Cl1 O37 1.451688 1_555
Cl1 O45 1.471213 1_555
Cl1 O41 1.474387 1_555
Cl2 O34 1.441120 1_555
Cl2 O38 1.451688 1_555
Cl2 O46 1.471213 1_555
Cl2 O42 1.474387 1_555
Cl3 O35 1.441120 1_555
Cl3 O39 1.451688 1_555
Cl3 O47 1.471213 1_555
Cl3 O43 1.474387 1_555
O0 O51 1.213884 1_555
O1 O50 1.213884 1_555
O2 O49 1.213884 1_555
O3 O48 1.213884 1_555
O4 Pr0 2.881728 1_555
O5 Pr1 2.881728 1_555
O6 Pr2 2.881728 1_555
O7 Pr3 2.881728 1_555
O8 Pr0 2.394550 1_655
O8 Pr1 2.405718 1_545
O9 Pr1 2.394550 1_555
O9 Pr0 2.405718 1_565
O10 Pr2 2.394550 1_455
O10 Pr3 2.405718 1_565
O11 Pr3 2.394550 1_555
O11 Pr2 2.405718 1_545
O12 O4 1.242569 1_555
O12 Pr0 2.779492 1_555
O13 O5 1.242569 1_555
O13 Pr1 2.779492 1_555
O14 O6 1.242569 1_555
O14 Pr2 2.779492 1_555
O15 O7 1.242569 1_555
O15 Pr3 2.779492 1_555
O16 Pr1 2.416488 1_555
O16 Pr0 2.477499 1_665
O17 Pr0 2.416488 1_555
O17 Pr1 2.477499 1_545
O18 Pr3 2.416488 1_555
O18 Pr2 2.477499 1_445
O19 Pr2 2.416488 1_555
O19 Pr3 2.477499 1_565
O24 Pr3 2.257856 1_565
O25 Pr2 2.257856 1_545
O26 Pr1 2.257856 1_545
O27 Pr0 2.257856 1_565
