# generated using pymatgen
data_Co3P2(HO)16
_symmetry_space_group_name_H-M   'P 1'
_cell_length_a   8.39635739
_cell_length_b   8.39635739
_cell_length_c   4.70163976
_cell_angle_alpha   81.06295358
_cell_angle_beta   81.06295358
_cell_angle_gamma   105.84547262
_symmetry_Int_Tables_number   1
_chemical_formula_structural   Co3P2(HO)16
_chemical_formula_sum   'Co3 P2 H16 O16'
_cell_volume   308.09766846
_cell_formula_units_Z   1
loop_
 _symmetry_equiv_pos_site_id
 _symmetry_equiv_pos_as_xyz
  1  'x, y, z'
loop_
 _atom_site_type_symbol
 _atom_site_label
 _atom_site_symmetry_multiplicity
 _atom_site_fract_x
 _atom_site_fract_y
 _atom_site_fract_z
 _atom_site_occupancy
  Co  Co0  1  0.00000000  0.00000000  0.00000000  1
  Co  Co1  1  0.60997200  0.39002800  0.00000000  1
  Co  Co2  1  0.39002800  0.60997200  0.00000000  1
  P  P0  1  0.31343500  0.31343500  0.61545700  1
  P  P1  1  0.68656500  0.68656500  0.38454300  1
  H  H0  1  0.95829000  0.79575700  0.63338000  1
  H  H1  1  0.79575700  0.95829000  0.63338000  1
  H  H2  1  0.04171000  0.20424300  0.36662000  1
  H  H3  1  0.20424300  0.04171000  0.36662000  1
  H  H4  1  0.94822800  0.68564200  0.94413600  1
  H  H5  1  0.68564200  0.94822800  0.94413600  1
  H  H6  1  0.05177200  0.31435800  0.05586400  1
  H  H7  1  0.31435800  0.05177200  0.05586400  1
  H  H8  1  0.82728700  0.43890200  0.52406500  1
  H  H9  1  0.43890200  0.82728700  0.52406500  1
  H  H10  1  0.17271300  0.56109800  0.47593500  1
  H  H11  1  0.56109800  0.17271300  0.47593500  1
  H  H12  1  0.82456700  0.26408600  0.72047400  1
  H  H13  1  0.26408600  0.82456700  0.72047400  1
  H  H14  1  0.17543300  0.73591400  0.27952600  1
  H  H15  1  0.73591400  0.17543300  0.27952600  1
  O  O0  1  0.15641600  0.15641600  0.61934700  1
  O  O1  1  0.84358400  0.84358400  0.38065300  1
  O  O2  1  0.39412500  0.39412500  0.28712500  1
  O  O3  1  0.60587500  0.60587500  0.71287500  1
  O  O4  1  0.24377000  0.43965300  0.76838300  1
  O  O5  1  0.43965300  0.24377000  0.76838300  1
  O  O6  1  0.75623000  0.56034700  0.23161700  1
  O  O7  1  0.56034700  0.75623000  0.23161700  1
  O  O8  1  0.02135100  0.78808900  0.79745700  1
  O  O9  1  0.78808900  0.02135100  0.79745700  1
  O  O10  1  0.97864900  0.21191100  0.20254300  1
  O  O11  1  0.21191100  0.97864900  0.20254300  1
  O  O12  1  0.82974600  0.38250400  0.72467800  1
  O  O13  1  0.38250400  0.82974600  0.72467800  1
  O  O14  1  0.17025400  0.61749600  0.27532200  1
  O  O15  1  0.61749600  0.17025400  0.27532200  1
loop_
_geom_bond_atom_site_label_1
_geom_bond_atom_site_label_2
_geom_bond_distance
_geom_bond_site_symmetry_2
Co0 O0 2.061597 1_554
Co0 O1 2.061597 1_445
Co0 O9 2.180002 1_454
Co0 O8 2.180002 1_544
Co0 O11 2.180002 1_545
Co0 O10 2.180002 1_455
Co1 O3 2.096768 1_554
Co1 O2 2.096768 1_555
Co1 O12 2.105155 1_554
Co1 O15 2.105155 1_555
Co1 O5 2.163180 1_554
Co1 O6 2.163180 1_555
Co2 O2 2.096768 1_555
Co2 O3 2.096768 1_554
Co2 O13 2.105155 1_554
Co2 O14 2.105155 1_555
Co2 O4 2.163180 1_554
Co2 O7 2.163180 1_555
H0 O8 1.004836 1_655
H0 O1 1.708583 1_555
H1 O9 1.004836 1_565
H1 O1 1.708583 1_555
H2 O10 1.004836 1_455
H2 O0 1.708583 1_555
H3 O11 1.004836 1_545
H3 O0 1.708583 1_555
H4 O8 0.994081 1_655
H5 O9 0.994081 1_565
H6 O10 0.994081 1_455
H7 O11 0.994081 1_545
H8 O12 0.993442 1_555
H9 O13 0.993442 1_555
H10 O14 0.993442 1_555
H11 O15 0.993442 1_555
H12 O12 0.986730 1_555
H13 O13 0.986730 1_555
H14 O14 0.986730 1_555
H15 O15 0.986730 1_555
O0 P0 1.585075 1_555
O1 P1 1.585075 1_555
O2 P0 1.549346 1_555
O3 P1 1.549346 1_555
O4 P0 1.557825 1_555
O5 P0 1.557825 1_555
O6 P1 1.557825 1_555
O7 P1 1.557825 1_555
