# generated using pymatgen
data_YbTl(MoO4)2
_symmetry_space_group_name_H-M   'P 1'
_cell_length_a   6.24163000
_cell_length_b   15.22521100
_cell_length_c   9.05711600
_cell_angle_alpha   90.00000000
_cell_angle_beta   90.00000000
_cell_angle_gamma   90.00000000
_symmetry_Int_Tables_number   1
_chemical_formula_structural   YbTl(MoO4)2
_chemical_formula_sum   'Yb4 Tl4 Mo8 O32'
_cell_volume   860.69894472
_cell_formula_units_Z   4
loop_
 _symmetry_equiv_pos_site_id
 _symmetry_equiv_pos_as_xyz
  1  'x, y, z'
loop_
 _atom_site_type_symbol
 _atom_site_label
 _atom_site_symmetry_multiplicity
 _atom_site_fract_x
 _atom_site_fract_y
 _atom_site_fract_z
 _atom_site_occupancy
  Yb  Yb0  1  0.75000000  0.89866200  0.69439600  1
  Yb  Yb1  1  0.25000000  0.10133800  0.30560400  1
  Yb  Yb2  1  0.25000000  0.60133800  0.19439600  1
  Yb  Yb3  1  0.75000000  0.39866200  0.80560400  1
  Tl  Tl0  1  0.75000000  0.62360100  0.57133500  1
  Tl  Tl1  1  0.25000000  0.37639900  0.42866500  1
  Tl  Tl2  1  0.25000000  0.87639900  0.07133500  1
  Tl  Tl3  1  0.75000000  0.12360100  0.92866500  1
  Mo  Mo0  1  0.75000000  0.95917100  0.27095000  1
  Mo  Mo1  1  0.25000000  0.04082900  0.72905000  1
  Mo  Mo2  1  0.25000000  0.54082900  0.77095000  1
  Mo  Mo3  1  0.75000000  0.45917100  0.22905000  1
  Mo  Mo4  1  0.75000000  0.71708600  0.00117200  1
  Mo  Mo5  1  0.25000000  0.28291400  0.99882800  1
  Mo  Mo6  1  0.25000000  0.78291400  0.50117200  1
  Mo  Mo7  1  0.75000000  0.21708600  0.49882800  1
  O  O0  1  0.75000000  0.84746800  0.21318300  1
  O  O1  1  0.25000000  0.15253200  0.78681700  1
  O  O2  1  0.25000000  0.65253200  0.71318300  1
  O  O3  1  0.75000000  0.34746800  0.28681700  1
  O  O4  1  0.75000000  0.96562200  0.46734500  1
  O  O5  1  0.25000000  0.03437800  0.53265500  1
  O  O6  1  0.25000000  0.53437800  0.96734500  1
  O  O7  1  0.75000000  0.46562200  0.03265500  1
  O  O8  1  0.75000000  0.64046300  0.84928800  1
  O  O9  1  0.25000000  0.35953700  0.15071200  1
  O  O10  1  0.25000000  0.85953700  0.34928800  1
  O  O11  1  0.75000000  0.14046300  0.65071200  1
  O  O12  1  0.75000000  0.82409400  0.91474500  1
  O  O13  1  0.25000000  0.17590600  0.08525500  1
  O  O14  1  0.25000000  0.67590600  0.41474500  1
  O  O15  1  0.75000000  0.32409400  0.58525500  1
  O  O16  1  0.00790600  0.80450800  0.60324100  1
  O  O17  1  0.99209400  0.19549200  0.39675900  1
  O  O18  1  0.99209400  0.69549200  0.10324100  1
  O  O19  1  0.50790600  0.19549200  0.39675900  1
  O  O20  1  0.00790600  0.30450800  0.89675900  1
  O  O21  1  0.49209400  0.80450800  0.60324100  1
  O  O22  1  0.49209400  0.30450800  0.89675900  1
  O  O23  1  0.50790600  0.69549200  0.10324100  1
  O  O24  1  0.48780500  0.98759300  0.80374300  1
  O  O25  1  0.51219500  0.01240700  0.19625700  1
  O  O26  1  0.51219500  0.51240700  0.30374300  1
  O  O27  1  0.98780500  0.01240700  0.19625700  1
  O  O28  1  0.48780500  0.48759300  0.69625700  1
  O  O29  1  0.01219500  0.98759300  0.80374300  1
  O  O30  1  0.01219500  0.48759300  0.69625700  1
  O  O31  1  0.98780500  0.51240700  0.30374300  1
loop_
_geom_bond_atom_site_label_1
_geom_bond_atom_site_label_2
_geom_bond_distance
_geom_bond_site_symmetry_2
Mo0 O0 1.779361 1_555
Mo0 O4 1.781482 1_555
Mo0 O25 1.821465 1_565
Mo0 O27 1.821465 1_565
Mo1 O1 1.779361 1_555
Mo1 O5 1.781482 1_555
Mo1 O29 1.821465 1_545
Mo1 O24 1.821465 1_545
Mo2 O2 1.779361 1_555
Mo2 O6 1.781482 1_555
Mo2 O28 1.821465 1_555
Mo2 O30 1.821465 1_555
Mo3 O3 1.779361 1_555
Mo3 O7 1.781482 1_555
Mo3 O31 1.821465 1_555
Mo3 O26 1.821465 1_555
Mo4 O23 1.801668 1_555
Mo4 O18 1.801668 1_555
Mo4 O8 1.803696 1_554
Mo4 O12 1.807512 1_554
Mo5 O22 1.801668 1_555
Mo5 O20 1.801668 1_555
Mo5 O9 1.803696 1_556
Mo5 O13 1.807512 1_556
Mo6 O21 1.801668 1_555
Mo6 O16 1.801668 1_555
Mo6 O10 1.803696 1_555
Mo6 O14 1.807512 1_555
Mo7 O19 1.801668 1_555
Mo7 O17 1.801668 1_555
Mo7 O11 1.803696 1_555
Mo7 O15 1.807512 1_555
O4 Yb0 2.295263 1_555
O5 Yb1 2.295263 1_555
O6 Yb2 2.295263 1_556
O7 Yb3 2.295263 1_554
O8 Tl0 2.530509 1_555
O9 Tl1 2.530509 1_555
O10 Tl2 2.530509 1_555
O11 Tl3 2.530509 1_555
O12 Yb0 2.296053 1_555
O13 Yb1 2.296053 1_555
O14 Yb2 2.296053 1_555
O15 Yb3 2.296053 1_555
O16 Yb0 2.308222 1_455
O17 Yb1 2.308222 1_655
O18 Yb2 2.308222 1_655
O19 Yb1 2.308222 1_555
O20 Yb3 2.308222 1_455
O21 Yb0 2.308222 1_555
O22 Yb3 2.308222 1_555
O23 Yb2 2.308222 1_555
O24 Yb0 2.343574 1_555
O25 Yb1 2.343574 1_555
O26 Yb2 2.343574 1_555
O27 Yb1 2.343574 1_655
O28 Yb3 2.343574 1_555
O29 Yb0 2.343574 1_455
O30 Yb3 2.343574 1_455
O31 Yb2 2.343574 1_655
