# generated using pymatgen
data_C4SBr4
_symmetry_space_group_name_H-M   'P 1'
_cell_length_a   4.45793700
_cell_length_b   12.73757100
_cell_length_c   16.93342100
_cell_angle_alpha   90.00000000
_cell_angle_beta   90.00000000
_cell_angle_gamma   90.00000000
_symmetry_Int_Tables_number   1
_chemical_formula_structural   C4SBr4
_chemical_formula_sum   'C16 S4 Br16'
_cell_volume   961.53533927
_cell_formula_units_Z   4
loop_
 _symmetry_equiv_pos_site_id
 _symmetry_equiv_pos_as_xyz
  1  'x, y, z'
loop_
 _atom_site_type_symbol
 _atom_site_label
 _atom_site_symmetry_multiplicity
 _atom_site_fract_x
 _atom_site_fract_y
 _atom_site_fract_z
 _atom_site_occupancy
  C  C0  1  0.18620600  0.16607500  0.75812800  1
  C  C1  1  0.81379400  0.83392500  0.25812800  1
  C  C2  1  0.81379400  0.66607500  0.75812800  1
  C  C3  1  0.18620600  0.33392500  0.25812800  1
  C  C4  1  0.16273400  0.16719500  0.61216400  1
  C  C5  1  0.83726600  0.83280500  0.11216400  1
  C  C6  1  0.83726600  0.66719500  0.61216400  1
  C  C7  1  0.16273400  0.33280500  0.11216400  1
  C  C8  1  0.30056200  0.25608600  0.64170200  1
  C  C9  1  0.69943800  0.74391400  0.14170200  1
  C  C10  1  0.69943800  0.75608600  0.64170200  1
  C  C11  1  0.30056200  0.24391400  0.14170200  1
  C  C12  1  0.31380900  0.25553900  0.72634600  1
  C  C13  1  0.68619100  0.74446100  0.22634600  1
  C  C14  1  0.68619100  0.75553900  0.72634600  1
  C  C15  1  0.31380900  0.24446100  0.22634600  1
  S  S0  1  0.04435000  0.08412800  0.68628000  1
  S  S1  1  0.95565000  0.91587200  0.18628000  1
  S  S2  1  0.95565000  0.58412800  0.68628000  1
  S  S3  1  0.04435000  0.41587200  0.18628000  1
  Br  Br0  1  0.15253000  0.12920100  0.86470100  1
  Br  Br1  1  0.84747000  0.87079900  0.36470100  1
  Br  Br2  1  0.84747000  0.62920100  0.86470100  1
  Br  Br3  1  0.15253000  0.37079900  0.36470100  1
  Br  Br4  1  0.47579000  0.36460900  0.78804800  1
  Br  Br5  1  0.52421000  0.63539100  0.28804800  1
  Br  Br6  1  0.52421000  0.86460900  0.78804800  1
  Br  Br7  1  0.47579000  0.13539100  0.28804800  1
  Br  Br8  1  0.09373100  0.13124500  0.50656000  1
  Br  Br9  1  0.90626900  0.86875500  0.00656000  1
  Br  Br10  1  0.90626900  0.63124500  0.50656000  1
  Br  Br11  1  0.09373100  0.36875500  0.00656000  1
  Br  Br12  1  0.45204800  0.36509800  0.57807100  1
  Br  Br13  1  0.54795200  0.63490200  0.07807100  1
  Br  Br14  1  0.54795200  0.86509800  0.57807100  1
  Br  Br15  1  0.45204800  0.13490200  0.07807100  1
loop_
_geom_bond_atom_site_label_1
_geom_bond_atom_site_label_2
_geom_bond_distance
_geom_bond_site_symmetry_2
C0 C12 1.382680 1_555
C0 S0 1.723263 1_555
C1 C13 1.382680 1_555
C1 S1 1.723263 1_555
C2 S2 1.723263 1_555
C3 S3 1.723263 1_555
C4 C8 1.381920 1_555
C4 S0 1.724283 1_555
C5 C9 1.381920 1_555
C5 S1 1.724283 1_555
C6 S2 1.724283 1_555
C7 S3 1.724283 1_555
C10 C6 1.381920 1_555
C10 C14 1.434545 1_555
C11 C7 1.381920 1_555
C11 C15 1.434545 1_555
C12 C8 1.434545 1_555
C13 C9 1.434545 1_555
C14 C2 1.382680 1_555
C15 C3 1.382680 1_555
Br0 C0 1.870799 1_555
Br1 C1 1.870799 1_555
Br2 C2 1.870799 1_555
Br3 C3 1.870799 1_555
Br4 C12 1.882341 1_555
Br5 C13 1.882341 1_555
Br6 C14 1.882341 1_555
Br7 C15 1.882341 1_555
Br8 C4 1.871391 1_555
Br9 C5 1.871391 1_555
Br10 C6 1.871391 1_555
Br11 C7 1.871391 1_555
Br12 C8 1.882844 1_555
Br13 C9 1.882844 1_555
Br14 C10 1.882844 1_555
Br15 C11 1.882844 1_555
