# generated using pymatgen
data_Sm5Pb3
_symmetry_space_group_name_H-M   'P 1'
_cell_length_a   9.22681541
_cell_length_b   9.22681361
_cell_length_c   6.81506037
_cell_angle_alpha   89.99978947
_cell_angle_beta   90.00021059
_cell_angle_gamma   119.99978806
_symmetry_Int_Tables_number   1
_chemical_formula_structural   Sm5Pb3
_chemical_formula_sum   'Sm10 Pb6'
_cell_volume   502.46387836
_cell_formula_units_Z   2
loop_
 _symmetry_equiv_pos_site_id
 _symmetry_equiv_pos_as_xyz
  1  'x, y, z'
loop_
 _atom_site_type_symbol
 _atom_site_label
 _atom_site_symmetry_multiplicity
 _atom_site_fract_x
 _atom_site_fract_y
 _atom_site_fract_z
 _atom_site_occupancy
  Sm  Sm0  1  0.66666983  0.33334950  0.50000029  1
  Sm  Sm1  1  0.33335066  0.66667019  0.50000018  1
  Sm  Sm2  1  0.33333072  0.66665026  0.00000025  1
  Sm  Sm3  1  0.66664982  0.33332948  0.00000017  1
  Sm  Sm4  1  0.76110004  0.76109819  0.24999731  1
  Sm  Sm5  1  0.23889890  0.99999573  0.25000125  1
  Sm  Sm6  1  -0.00000725  0.23889557  0.25000122  1
  Sm  Sm7  1  0.23890154  0.23889978  0.74999732  1
  Sm  Sm8  1  0.76110329  0.00000751  0.75000123  1
  Sm  Sm9  1  0.00000406  0.76110254  0.75000123  1
  Pb  Pb0  1  0.39382528  0.39381334  0.25000547  1
  Pb  Pb1  1  0.60617980  0.00001622  0.24999401  1
  Pb  Pb2  1  -0.00000910  0.60616721  0.24999731  1
  Pb  Pb3  1  0.60618692  0.60617493  0.75000546  1
  Pb  Pb4  1  0.39383250  0.00000879  0.74999730  1
  Pb  Pb5  1  -0.00001603  0.39382078  0.74999399  1
loop_
_geom_bond_atom_site_label_1
_geom_bond_atom_site_label_2
_geom_bond_distance
_geom_bond_site_symmetry_2
Pb0 Sm5 3.170618 1_545
Pb0 Sm6 3.170755 1_555
Pb0 Sm3 3.309994 1_555
Pb0 Sm0 3.310000 1_555
Pb0 Sm2 3.310132 1_555
Pb0 Sm1 3.310162 1_555
Pb0 Sm4 3.388833 1_555
Pb0 Sm7 3.695145 1_555
Pb0 Sm7 3.695247 1_554
Pb1 Sm6 3.170573 1_655
Pb1 Sm4 3.170792 1_545
Pb1 Sm3 3.310021 1_555
Pb1 Sm0 3.310176 1_555
Pb1 Sm1 3.310202 1_545
Pb1 Sm2 3.310316 1_545
Pb1 Sm5 3.388739 1_545
Pb1 Sm8 3.695187 1_554
Pb1 Sm8 3.695268 1_555
Pb2 Sm4 3.170640 1_455
Pb2 Sm5 3.170720 1_555
Pb2 Sm0 3.310035 1_455
Pb2 Sm3 3.310169 1_455
Pb2 Sm2 3.310214 1_555
Pb2 Sm1 3.310326 1_555
Pb2 Sm6 3.388756 1_555
Pb2 Sm9 3.695201 1_554
Pb2 Sm9 3.695260 1_555
Pb3 Sm9 3.170613 1_655
Pb3 Sm8 3.170756 1_565
Pb3 Sm0 3.309995 1_555
Pb3 Sm3 3.310002 1_556
Pb3 Sm1 3.310131 1_555
Pb3 Sm2 3.310161 1_556
Pb3 Sm7 3.388838 1_555
Pb3 Sm4 3.695143 1_556
Pb3 Sm4 3.695246 1_555
Pb4 Sm7 3.170641 1_555
Pb4 Sm9 3.170718 1_545
Pb4 Sm3 3.310032 1_556
Pb4 Sm0 3.310165 1_555
Pb4 Sm1 3.310208 1_545
Pb4 Sm2 3.310320 1_546
Pb4 Sm8 3.388746 1_555
Pb4 Sm5 3.695195 1_545
Pb4 Sm5 3.695254 1_546
Pb5 Sm8 3.170577 1_455
Pb5 Sm7 3.170794 1_555
Pb5 Sm0 3.310025 1_455
Pb5 Sm3 3.310180 1_456
Pb5 Sm2 3.310207 1_556
Pb5 Sm1 3.310321 1_555
Pb5 Sm9 3.388748 1_555
Pb5 Sm6 3.695193 1_555
Pb5 Sm6 3.695274 1_556
