# generated using pymatgen
data_Nd6CdFe13
_symmetry_space_group_name_H-M   'P 1'
_cell_length_a   8.03793000
_cell_length_b   8.03793000
_cell_length_c   12.86219814
_cell_angle_alpha   108.20773916
_cell_angle_beta   108.20773916
_cell_angle_gamma   90.00000000
_symmetry_Int_Tables_number   1
_chemical_formula_structural   Nd6CdFe13
_chemical_formula_sum   'Nd12 Cd2 Fe26'
_cell_volume   745.46912975
_cell_formula_units_Z   2
loop_
 _symmetry_equiv_pos_site_id
 _symmetry_equiv_pos_as_xyz
  1  'x, y, z'
loop_
 _atom_site_type_symbol
 _atom_site_label
 _atom_site_symmetry_multiplicity
 _atom_site_fract_x
 _atom_site_fract_y
 _atom_site_fract_z
 _atom_site_occupancy
  Nd  Nd0  1  0.97652500  0.47652500  0.62827500  1
  Nd  Nd1  1  0.65175000  0.15175000  0.62827500  1
  Nd  Nd2  1  0.15175000  0.97652500  0.62827500  1
  Nd  Nd3  1  0.47652500  0.65175000  0.62827500  1
  Nd  Nd4  1  0.02347500  0.52347500  0.37172500  1
  Nd  Nd5  1  0.34825000  0.84825000  0.37172500  1
  Nd  Nd6  1  0.84825000  0.02347500  0.37172500  1
  Nd  Nd7  1  0.52347500  0.34825000  0.37172500  1
  Nd  Nd8  1  0.60523800  0.60523800  0.21047600  1
  Nd  Nd9  1  0.10523800  0.10523800  0.21047600  1
  Nd  Nd10  1  0.39476200  0.39476200  0.78952400  1
  Nd  Nd11  1  0.89476200  0.89476200  0.78952400  1
  Cd  Cd0  1  0.25000000  0.25000000  0.50000000  1
  Cd  Cd1  1  0.75000000  0.75000000  0.50000000  1
  Fe  Fe0  1  0.11930300  0.61930300  0.88191900  1
  Fe  Fe1  1  0.76261500  0.26261500  0.88191900  1
  Fe  Fe2  1  0.26261500  0.11930300  0.88191900  1
  Fe  Fe3  1  0.61930300  0.76261500  0.88191900  1
  Fe  Fe4  1  0.88069700  0.38069700  0.11808100  1
  Fe  Fe5  1  0.23738500  0.73738500  0.11808100  1
  Fe  Fe6  1  0.73738500  0.88069700  0.11808100  1
  Fe  Fe7  1  0.38069700  0.23738500  0.11808100  1
  Fe  Fe8  1  0.71133700  0.56698800  0.00000000  1
  Fe  Fe9  1  0.28866300  0.43301200  0.00000000  1
  Fe  Fe10  1  0.78866300  0.06698800  0.00000000  1
  Fe  Fe11  1  0.21133700  0.93301200  0.00000000  1
  Fe  Fe12  1  0.56698800  0.28866300  0.00000000  1
  Fe  Fe13  1  0.43301200  0.71133700  0.00000000  1
  Fe  Fe14  1  0.06698800  0.21133700  0.00000000  1
  Fe  Fe15  1  0.93301200  0.78866300  0.00000000  1
  Fe  Fe16  1  0.29106600  0.79106600  0.80989200  1
  Fe  Fe17  1  0.51882700  0.01882700  0.80989200  1
  Fe  Fe18  1  0.01882700  0.29106600  0.80989200  1
  Fe  Fe19  1  0.79106600  0.51882700  0.80989200  1
  Fe  Fe20  1  0.70893400  0.20893400  0.19010800  1
  Fe  Fe21  1  0.48117300  0.98117300  0.19010800  1
  Fe  Fe22  1  0.98117300  0.70893400  0.19010800  1
  Fe  Fe23  1  0.20893400  0.48117300  0.19010800  1
  Fe  Fe24  1  0.00000000  0.50000000  0.00000000  1
  Fe  Fe25  1  0.50000000  0.00000000  0.00000000  1
loop_
_geom_bond_atom_site_label_1
_geom_bond_atom_site_label_2
_geom_bond_distance
_geom_bond_site_symmetry_2
Nd0 Nd11 3.539703 1_555
Nd0 Nd10 3.539703 1_655
Nd0 Nd4 3.567900 1_655
Nd0 Nd1 3.691831 1_555
Nd0 Nd6 3.946806 1_555
Nd0 Nd7 3.946806 1_555
Nd1 Nd11 3.539703 1_545
Nd1 Nd10 3.539703 1_555
Nd1 Nd5 3.567900 1_545
Nd1 Nd7 3.946806 1_555
Nd1 Nd6 3.946806 1_555
Nd2 Nd6 3.567900 1_465
Nd2 Nd3 3.691831 1_555
Nd2 Nd5 3.946806 1_555
Nd2 Nd4 3.946806 1_555
Nd3 Nd7 3.567900 1_555
Nd3 Nd5 3.946806 1_555
Nd3 Nd4 3.946806 1_555
Nd4 Nd9 3.539703 1_555
Nd4 Nd8 3.539703 1_455
Nd4 Nd5 3.691831 1_555
Nd5 Nd8 3.539703 1_555
Nd5 Nd9 3.539703 1_565
Nd6 Nd9 3.539703 1_655
Nd6 Nd8 3.539703 1_545
Nd6 Nd7 3.691831 1_555
Nd7 Nd8 3.539703 1_555
Nd7 Nd9 3.539703 1_555
Nd10 Nd3 3.539703 1_555
Nd10 Nd2 3.539703 1_545
Nd11 Nd2 3.539703 1_655
Nd11 Nd3 3.539703 1_555
Cd0 Nd9 3.340610 1_555
Cd0 Nd10 3.340610 1_555
Cd0 Nd2 3.355371 1_545
Cd0 Nd7 3.355371 1_555
Cd0 Nd0 3.355371 1_455
Cd0 Nd4 3.355371 1_555
Cd0 Nd1 3.355371 1_555
Cd0 Nd5 3.355371 1_545
Cd0 Nd6 3.355372 1_455
Cd0 Nd3 3.355372 1_555
Cd1 Nd8 3.340610 1_555
Cd1 Nd11 3.340610 1_555
Cd1 Nd3 3.355371 1_555
Cd1 Nd6 3.355371 1_565
Cd1 Nd0 3.355371 1_555
Cd1 Nd4 3.355371 1_655
Cd1 Nd1 3.355371 1_565
Cd1 Nd5 3.355371 1_555
Cd1 Nd7 3.355372 1_555
Cd1 Nd2 3.355372 1_655
Fe0 Fe24 2.442579 1_556
Fe0 Fe11 2.473226 1_556
Fe0 Fe13 2.473226 1_556
Fe0 Fe16 2.503816 1_555
Fe0 Fe18 2.544867 1_555
Fe0 Fe19 2.544867 1_455
Fe0 Fe9 2.555621 1_556
Fe0 Fe15 2.555621 1_456
Fe0 Fe5 2.724904 1_556
Fe0 Nd0 2.932232 1_455
Fe0 Nd11 3.142618 1_455
Fe0 Nd10 3.142618 1_555
Fe1 Fe24 2.442589 1_656
Fe1 Fe12 2.473218 1_556
Fe1 Fe10 2.473218 1_556
Fe1 Fe17 2.503795 1_555
Fe1 Fe19 2.544885 1_555
Fe1 Fe18 2.544885 1_655
Fe1 Fe8 2.555625 1_556
Fe1 Fe14 2.555625 1_656
Fe1 Fe4 2.724904 1_556
Fe1 Nd1 2.932232 1_555
Fe1 Nd10 3.142615 1_555
Fe1 Nd11 3.142615 1_545
Fe2 Fe25 2.442584 1_556
Fe2 Fe9 2.473225 1_556
Fe2 Fe7 2.724904 1_556
Fe2 Nd2 2.932232 1_545
Fe2 Nd11 3.142612 1_445
Fe2 Nd10 3.142622 1_555
Fe3 Fe8 2.473219 1_556
Fe3 Fe6 2.724904 1_556
Fe3 Nd3 2.932232 1_555
Fe3 Nd10 3.142612 1_555
Fe3 Nd11 3.142622 1_555
Fe4 Fe8 2.555621 1_555
Fe4 Nd4 2.932232 1_655
Fe4 Nd9 3.142618 1_655
Fe4 Nd8 3.142618 1_555
Fe5 Fe9 2.555625 1_555
Fe5 Nd5 2.932232 1_555
Fe5 Nd9 3.142615 1_565
Fe5 Nd8 3.142615 1_555
Fe6 Fe8 2.473225 1_555
Fe6 Nd6 2.932232 1_565
Fe6 Nd9 3.142612 1_665
Fe6 Nd8 3.142622 1_555
Fe7 Fe9 2.473219 1_555
Fe7 Nd7 2.932232 1_555
Fe7 Nd8 3.142612 1_555
Fe7 Nd9 3.142622 1_555
Fe8 Nd8 3.012194 1_555
Fe8 Nd10 3.012194 1_554
Fe9 Nd10 3.012194 1_554
Fe9 Nd8 3.012194 1_555
Fe10 Fe25 2.381910 1_555
Fe10 Fe4 2.473226 1_555
Fe10 Fe12 2.519857 1_555
Fe10 Fe15 2.520137 1_545
Fe10 Fe14 2.520137 1_655
Fe10 Fe6 2.555618 1_545
Fe10 Fe3 2.555628 1_544
Fe10 Fe17 2.631977 1_554
Fe10 Fe20 2.631980 1_555
Fe10 Nd11 3.012194 1_544
Fe10 Nd9 3.012194 1_655
Fe11 Fe25 2.381910 1_565
Fe11 Fe5 2.473218 1_555
Fe11 Fe13 2.519857 1_555
Fe11 Fe15 2.520137 1_455
Fe11 Fe14 2.520137 1_565
Fe11 Fe2 2.555618 1_564
Fe11 Fe7 2.555628 1_565
Fe11 Fe21 2.631977 1_555
Fe11 Fe16 2.631980 1_554
Fe11 Nd9 3.012194 1_565
Fe11 Nd11 3.012194 1_454
Fe12 Fe25 2.381910 1_555
Fe12 Fe4 2.473226 1_555
Fe12 Fe9 2.520137 1_555
Fe12 Fe8 2.520137 1_555
Fe12 Fe7 2.555618 1_555
Fe12 Fe2 2.555628 1_554
Fe12 Fe17 2.631977 1_554
Fe12 Fe20 2.631980 1_555
Fe12 Nd10 3.012194 1_554
Fe12 Nd8 3.012194 1_555
Fe13 Fe25 2.381910 1_565
Fe13 Fe5 2.473218 1_555
Fe13 Fe9 2.520137 1_555
Fe13 Fe8 2.520137 1_555
Fe13 Fe3 2.555618 1_554
Fe13 Fe6 2.555628 1_555
Fe13 Fe21 2.631977 1_555
Fe13 Fe16 2.631980 1_554
Fe13 Nd8 3.012194 1_555
Fe13 Nd10 3.012194 1_554
Fe14 Fe24 2.381910 1_555
Fe14 Fe2 2.473219 1_554
Fe14 Fe7 2.473225 1_555
Fe14 Fe9 2.519857 1_555
Fe14 Fe4 2.555621 1_455
Fe14 Fe23 2.631976 1_555
Fe14 Fe18 2.631981 1_554
Fe14 Nd9 3.012194 1_555
Fe14 Nd11 3.012194 1_444
Fe15 Fe24 2.381910 1_655
Fe15 Fe6 2.473219 1_555
Fe15 Fe3 2.473225 1_554
Fe15 Fe8 2.519857 1_555
Fe15 Fe5 2.555625 1_655
Fe15 Fe19 2.631976 1_554
Fe15 Fe22 2.631981 1_555
Fe15 Nd11 3.012194 1_554
Fe15 Nd9 3.012194 1_665
Fe16 Fe3 2.544870 1_555
Fe16 Fe2 2.544870 1_565
Fe16 Fe25 2.547017 1_566
Fe16 Fe17 2.589039 1_565
Fe16 Nd3 3.078066 1_555
Fe16 Nd2 3.078066 1_555
Fe16 Nd10 3.244300 1_555
Fe16 Nd11 3.244300 1_455
Fe16 Nd0 3.295364 1_455
Fe17 Fe2 2.544882 1_555
Fe17 Fe3 2.544882 1_545
Fe17 Fe25 2.547023 1_556
Fe17 Nd2 3.078071 1_545
Fe17 Nd3 3.078071 1_545
Fe17 Nd10 3.244294 1_555
Fe17 Nd11 3.244294 1_545
Fe17 Nd1 3.295355 1_555
Fe18 Fe2 2.503805 1_555
Fe18 Fe24 2.547020 1_556
Fe18 Fe19 2.589039 1_455
Fe18 Fe9 2.631976 1_556
Fe18 Nd0 3.078065 1_455
Fe18 Nd1 3.078072 1_455
Fe18 Nd10 3.244292 1_555
Fe18 Nd11 3.244302 1_445
Fe18 Nd2 3.295359 1_545
Fe19 Fe3 2.503805 1_555
Fe19 Fe24 2.547020 1_656
Fe19 Fe8 2.631981 1_556
Fe19 Nd0 3.078065 1_555
Fe19 Nd1 3.078072 1_555
Fe19 Nd11 3.244292 1_555
Fe19 Nd10 3.244302 1_555
Fe19 Nd3 3.295359 1_555
Fe20 Fe4 2.503816 1_555
Fe20 Fe6 2.544870 1_545
Fe20 Fe7 2.544870 1_555
Fe20 Fe25 2.547017 1_555
Fe20 Fe21 2.589039 1_545
Fe20 Nd6 3.078066 1_555
Fe20 Nd7 3.078066 1_555
Fe20 Nd9 3.244300 1_655
Fe20 Nd8 3.244300 1_555
Fe20 Nd4 3.295364 1_655
Fe21 Fe5 2.503795 1_555
Fe21 Fe7 2.544882 1_565
Fe21 Fe6 2.544882 1_555
Fe21 Fe25 2.547023 1_565
Fe21 Nd7 3.078071 1_565
Fe21 Nd6 3.078071 1_565
Fe21 Nd9 3.244294 1_565
Fe21 Nd8 3.244294 1_555
Fe21 Nd5 3.295355 1_555
Fe22 Fe6 2.503805 1_555
Fe22 Fe4 2.544867 1_555
Fe22 Fe5 2.544885 1_655
Fe22 Fe24 2.547020 1_655
Fe22 Fe23 2.589039 1_655
Fe22 Fe8 2.631976 1_555
Fe22 Nd4 3.078065 1_655
Fe22 Nd5 3.078072 1_655
Fe22 Nd8 3.244292 1_555
Fe22 Nd9 3.244302 1_665
Fe22 Nd6 3.295359 1_565
Fe23 Fe7 2.503805 1_555
Fe23 Fe4 2.544867 1_455
Fe23 Fe5 2.544885 1_555
Fe23 Fe24 2.547020 1_555
Fe23 Fe9 2.631981 1_555
Fe23 Nd4 3.078065 1_555
Fe23 Nd5 3.078072 1_555
Fe23 Nd9 3.244292 1_555
Fe23 Nd8 3.244302 1_555
Fe23 Nd7 3.295359 1_555
Fe24 Fe8 2.381910 1_455
Fe24 Fe9 2.381910 1_555
Fe24 Fe4 2.442579 1_455
Fe24 Fe5 2.442589 1_555
Fe25 Fe7 2.442584 1_555
Fe25 Fe6 2.442584 1_545
Fe25 Fe3 2.442584 1_544
