# generated using pymatgen
data_Nd4S4Cl2O
_symmetry_space_group_name_H-M   'P 1'
_cell_length_a   9.27095612
_cell_length_b   9.27095612
_cell_length_c   6.91407500
_cell_angle_alpha   90.00000000
_cell_angle_beta   90.00000000
_cell_angle_gamma   120.83696210
_symmetry_Int_Tables_number   1
_chemical_formula_structural   Nd4S4Cl2O
_chemical_formula_sum   'Nd8 S8 Cl4 O2'
_cell_volume   510.25690356
_cell_formula_units_Z   2
loop_
 _symmetry_equiv_pos_site_id
 _symmetry_equiv_pos_as_xyz
  1  'x, y, z'
loop_
 _atom_site_type_symbol
 _atom_site_label
 _atom_site_symmetry_multiplicity
 _atom_site_fract_x
 _atom_site_fract_y
 _atom_site_fract_z
 _atom_site_occupancy
  Nd  Nd0  1  0.80418200  0.19581800  0.23692800  1
  Nd  Nd1  1  0.39348700  0.19209600  0.25898300  1
  Nd  Nd2  1  0.80790400  0.60651300  0.25898300  1
  Nd  Nd3  1  0.19581800  0.80418200  0.73692800  1
  Nd  Nd4  1  0.60651300  0.80790400  0.75898300  1
  Nd  Nd5  1  0.19209600  0.39348700  0.75898300  1
  Nd  Nd6  1  0.68043900  0.31956100  0.78612500  1
  Nd  Nd7  1  0.31956100  0.68043900  0.28612500  1
  S  S0  1  0.53887200  0.46112800  0.53485800  1
  S  S1  1  0.94405300  0.46798900  0.52175400  1
  S  S2  1  0.53201100  0.05594700  0.52175400  1
  S  S3  1  0.46112800  0.53887200  0.03485800  1
  S  S4  1  0.05594700  0.53201100  0.02175400  1
  S  S5  1  0.46798900  0.94405300  0.02175400  1
  S  S6  1  0.86545200  0.13454800  0.85914700  1
  S  S7  1  0.13454800  0.86545200  0.35914700  1
  Cl  Cl0  1  0.26472200  0.13353000  0.86258900  1
  Cl  Cl1  1  0.86647000  0.73527800  0.86258900  1
  Cl  Cl2  1  0.73527800  0.86647000  0.36258900  1
  Cl  Cl3  1  0.13353000  0.26472200  0.36258900  1
  O  O0  1  0.66732200  0.33267800  0.13094300  1
  O  O1  1  0.33267800  0.66732200  0.63094300  1
loop_
_geom_bond_atom_site_label_1
_geom_bond_atom_site_label_2
_geom_bond_distance
_geom_bond_site_symmetry_2
Nd0 O0 2.325355 1_555
Nd0 S6 2.792612 1_554
Nd0 S2 2.927832 1_555
Nd0 S1 2.927832 1_555
Nd0 S4 3.149241 1_655
Nd0 S5 3.149241 1_545
Nd1 O0 2.352723 1_555
Nd1 S7 2.821389 1_545
Nd1 S2 2.864475 1_555
Nd1 S0 2.868697 1_555
Nd1 S5 3.175514 1_545
Nd1 S3 3.326193 1_555
Nd2 O0 2.352723 1_555
Nd2 S7 2.821389 1_655
Nd2 S1 2.864475 1_555
Nd2 S0 2.868697 1_555
Nd2 S4 3.175514 1_655
Nd2 S3 3.326193 1_555
Nd3 O1 2.325355 1_555
Nd3 S7 2.792612 1_555
Nd3 S4 2.927832 1_556
Nd3 S5 2.927832 1_556
Nd3 S2 3.149241 1_565
Nd3 S1 3.149241 1_455
Nd4 O1 2.352723 1_555
Nd4 S6 2.821389 1_565
Nd4 S5 2.864475 1_556
Nd4 S3 2.868697 1_556
Nd4 S2 3.175514 1_565
Nd4 S0 3.326193 1_555
Nd5 O1 2.352723 1_555
Nd5 S6 2.821389 1_455
Nd5 S4 2.864475 1_556
Nd5 S3 2.868697 1_556
Nd5 S1 3.175514 1_455
Nd5 S0 3.326193 1_555
Nd6 O0 2.393462 1_556
Nd6 S1 2.785650 1_555
Nd6 S2 2.785650 1_555
Nd6 S0 2.868658 1_555
Nd6 S6 3.025764 1_555
Nd6 S4 3.409326 1_656
Nd6 S5 3.409326 1_546
Nd7 O1 2.393462 1_555
Nd7 S5 2.785650 1_555
Nd7 S4 2.785650 1_555
Nd7 S3 2.868658 1_555
Nd7 S7 3.025764 1_555
Nd7 S2 3.409326 1_565
Nd7 S1 3.409326 1_455
Cl0 Nd5 2.904898 1_555
Cl0 Nd3 2.913136 1_545
Cl0 Nd1 2.926914 1_556
Cl0 Nd6 3.360583 1_555
Cl1 Nd4 2.904898 1_555
Cl1 Nd3 2.913136 1_655
Cl1 Nd2 2.926914 1_556
Cl1 Nd6 3.360583 1_555
Cl2 Nd2 2.904898 1_555
Cl2 Nd0 2.913136 1_565
Cl2 Nd4 2.926914 1_555
Cl2 Nd7 3.360583 1_555
Cl3 Nd1 2.904898 1_555
Cl3 Nd0 2.913136 1_455
Cl3 Nd5 2.926914 1_555
Cl3 Nd7 3.360583 1_555
