# generated using pymatgen
data_CoSn3
_symmetry_space_group_name_H-M   'P 1'
_cell_length_a   6.23901932
_cell_length_b   6.24619064
_cell_length_c   9.04144602
_cell_angle_alpha   90.00000000
_cell_angle_beta   69.81678457
_cell_angle_gamma   90.00000000
_symmetry_Int_Tables_number   1
_chemical_formula_structural   CoSn3
_chemical_formula_sum   'Co4 Sn12'
_cell_volume   330.70997638
_cell_formula_units_Z   4
loop_
 _symmetry_equiv_pos_site_id
 _symmetry_equiv_pos_as_xyz
  1  'x, y, z'
loop_
 _atom_site_type_symbol
 _atom_site_label
 _atom_site_symmetry_multiplicity
 _atom_site_fract_x
 _atom_site_fract_y
 _atom_site_fract_z
 _atom_site_occupancy
  Co  Co0  1  0.92016691  0.00000000  0.15966817  1
  Co  Co1  1  0.42016691  0.50000000  0.15966817  1
  Co  Co2  1  0.07983309  0.00000000  0.84033283  1
  Co  Co3  1  0.57983309  0.50000000  0.84033283  1
  Sn  Sn0  1  0.33693543  0.16257766  -0.00000000  1
  Sn  Sn1  1  0.83693443  0.33742134  -0.00000000  1
  Sn  Sn2  1  0.16306457  0.66257766  0.00000000  1
  Sn  Sn3  1  0.66306557  0.83742234  0.00000000  1
  Sn  Sn4  1  0.52329256  0.19090670  0.32985495  1
  Sn  Sn5  1  0.02329256  0.30909230  0.32985495  1
  Sn  Sn6  1  0.64685249  0.69090670  0.32985495  1
  Sn  Sn7  1  0.14685149  0.80909230  0.32985495  1
  Sn  Sn8  1  0.85314751  0.19090670  0.67014405  1
  Sn  Sn9  1  0.35314751  0.30909230  0.67014405  1
  Sn  Sn10  1  0.97670744  0.69090670  0.67014405  1
  Sn  Sn11  1  0.47670644  0.80909230  0.67014405  1
loop_
_geom_bond_atom_site_label_1
_geom_bond_atom_site_label_2
_geom_bond_distance
_geom_bond_site_symmetry_2
Co0 Sn5 2.681836 1_655
Co0 Sn6 2.681846 1_545
Co0 Sn0 2.699296 1_655
Co0 Sn3 2.699300 1_545
Co0 Sn7 2.700285 1_645
Co0 Sn4 2.700295 1_555
Co0 Sn2 2.704254 1_645
Co0 Sn1 2.704256 1_555
Co0 Co2 2.709959 1_654
Co1 Sn4 2.681840 1_555
Co1 Sn7 2.681844 1_555
Co1 Sn1 2.699293 1_555
Co1 Sn2 2.699305 1_555
Co1 Sn6 2.700286 1_555
Co1 Sn5 2.700298 1_555
Co1 Sn3 2.704257 1_555
Co1 Sn0 2.704259 1_555
Co1 Co3 2.709959 1_554
Co2 Sn9 2.681848 1_555
Co2 Sn10 2.681852 1_445
Co2 Sn3 2.699289 1_446
Co2 Sn0 2.699299 1_556
Co2 Sn11 2.700298 1_545
Co2 Sn8 2.700300 1_455
Co2 Sn1 2.704249 1_456
Co2 Sn2 2.704254 1_546
Co3 Sn11 2.681850 1_555
Co3 Sn8 2.681852 1_555
Co3 Sn2 2.699294 1_556
Co3 Sn1 2.699296 1_556
Co3 Sn10 2.700300 1_555
Co3 Sn9 2.700303 1_555
Co3 Sn0 2.704251 1_556
Co3 Sn3 2.704256 1_556
Sn0 Sn3 2.874895 1_545
Sn0 Sn5 3.087733 1_555
Sn0 Sn9 3.087741 1_554
Sn1 Sn2 2.874900 1_655
Sn1 Sn4 3.087731 1_555
Sn1 Sn8 3.087739 1_554
Sn2 Sn7 3.087731 1_555
Sn3 Sn6 3.087733 1_555
Sn4 Sn9 2.980640 1_555
Sn4 Sn5 3.205666 1_555
Sn4 Sn5 3.205666 1_655
Sn4 Sn6 3.216831 1_545
Sn4 Sn6 3.216831 1_555
Sn4 Sn7 3.347194 1_545
Sn5 Sn8 2.980640 1_455
Sn5 Sn7 3.216829 1_545
Sn5 Sn7 3.216829 1_555
Sn5 Sn6 3.347190 1_455
Sn6 Sn7 3.205660 1_655
Sn6 Sn7 3.205672 1_555
Sn8 Sn9 3.205666 1_655
Sn8 Sn9 3.205666 1_555
Sn10 Sn7 2.980640 1_655
Sn10 Sn3 3.087739 1_556
Sn10 Sn11 3.205660 1_655
Sn10 Sn11 3.205672 1_555
Sn10 Sn8 3.216831 1_565
Sn10 Sn8 3.216831 1_555
Sn10 Sn9 3.347190 1_655
Sn11 Sn6 2.980640 1_555
Sn11 Sn2 3.087738 1_556
Sn11 Sn9 3.216829 1_555
Sn11 Sn9 3.216829 1_565
Sn11 Sn8 3.347194 1_565
