# generated using pymatgen
data_NdO2
_symmetry_space_group_name_H-M   'P 1'
_cell_length_a   5.40408500
_cell_length_b   6.53929200
_cell_length_c   6.55138355
_cell_angle_alpha   70.68373261
_cell_angle_beta   90.00000000
_cell_angle_gamma   90.00000000
_symmetry_Int_Tables_number   1
_chemical_formula_structural   NdO2
_chemical_formula_sum   'Nd4 O8'
_cell_volume   218.48576072
_cell_formula_units_Z   4
loop_
 _symmetry_equiv_pos_site_id
 _symmetry_equiv_pos_as_xyz
  1  'x, y, z'
loop_
 _atom_site_type_symbol
 _atom_site_label
 _atom_site_symmetry_multiplicity
 _atom_site_fract_x
 _atom_site_fract_y
 _atom_site_fract_z
 _atom_site_occupancy
  Nd  Nd0  1  0.00169900  0.25108400  0.75222500  1
  Nd  Nd1  1  0.49830100  0.25108400  0.25222500  1
  Nd  Nd2  1  0.50169900  0.74891600  0.74777500  1
  Nd  Nd3  1  0.99830100  0.74891600  0.24777500  1
  O  O0  1  0.30218100  0.08979700  0.59388900  1
  O  O1  1  0.70481500  0.41147900  0.91529500  1
  O  O2  1  0.20481500  0.58852100  0.58470500  1
  O  O3  1  0.80218100  0.91020300  0.90611100  1
  O  O4  1  0.19781900  0.08979700  0.09388900  1
  O  O5  1  0.79518500  0.41147900  0.41529500  1
  O  O6  1  0.29518500  0.58852100  0.08470500  1
  O  O7  1  0.69781900  0.91020300  0.40611100  1
loop_
_geom_bond_atom_site_label_1
_geom_bond_atom_site_label_2
_geom_bond_distance
_geom_bond_site_symmetry_2
Nd0 O0 2.355642 1_555
Nd0 O1 2.357294 1_455
Nd0 O3 2.379321 1_445
Nd0 O2 2.382496 1_555
Nd0 O4 2.384146 1_556
Nd0 O5 2.384613 1_455
Nd1 O4 2.355642 1_555
Nd1 O5 2.357294 1_555
Nd1 O7 2.379321 1_545
Nd1 O6 2.382496 1_555
Nd1 O0 2.384146 1_555
Nd1 O1 2.384613 1_554
Nd2 O3 2.355642 1_555
Nd2 O2 2.357294 1_555
Nd2 O0 2.379321 1_565
Nd2 O1 2.382496 1_555
Nd2 O7 2.384146 1_555
Nd2 O6 2.384613 1_556
Nd3 O7 2.355642 1_555
Nd3 O6 2.357294 1_655
Nd3 O4 2.379321 1_665
Nd3 O5 2.382496 1_555
Nd3 O3 2.384146 1_554
Nd3 O2 2.384613 1_655
