# generated using pymatgen
data_ZnSnAs2O7
_symmetry_space_group_name_H-M   'P 1'
_cell_length_a   9.46821800
_cell_length_b   7.52950800
_cell_length_c   10.12187968
_cell_angle_alpha   59.61600476
_cell_angle_beta   90.00000000
_cell_angle_gamma   90.00000000
_symmetry_Int_Tables_number   1
_chemical_formula_structural   ZnSnAs2O7
_chemical_formula_sum   'Zn4 Sn4 As8 O28'
_cell_volume   622.49111416
_cell_formula_units_Z   4
loop_
 _symmetry_equiv_pos_site_id
 _symmetry_equiv_pos_as_xyz
  1  'x, y, z'
loop_
 _atom_site_type_symbol
 _atom_site_label
 _atom_site_symmetry_multiplicity
 _atom_site_fract_x
 _atom_site_fract_y
 _atom_site_fract_z
 _atom_site_occupancy
  Zn  Zn0  1  0.05410300  0.73778900  0.90868800  1
  Zn  Zn1  1  0.55410300  0.26221100  0.59131200  1
  Zn  Zn2  1  0.94589700  0.26221100  0.09131200  1
  Zn  Zn3  1  0.44589700  0.73778900  0.40868800  1
  Sn  Sn0  1  0.96302600  0.23616400  0.62519000  1
  Sn  Sn1  1  0.46302600  0.76383600  0.87481000  1
  Sn  Sn2  1  0.03697400  0.76383600  0.37481000  1
  Sn  Sn3  1  0.53697400  0.23616400  0.12519000  1
  As  As0  1  0.78430700  0.57109200  0.75451100  1
  As  As1  1  0.28430700  0.42890800  0.74548900  1
  As  As2  1  0.21569300  0.42890800  0.24548900  1
  As  As3  1  0.71569300  0.57109200  0.25451100  1
  As  As4  1  0.74524600  0.02404700  0.93154500  1
  As  As5  1  0.24524600  0.97595300  0.56845500  1
  As  As6  1  0.25475400  0.97595300  0.06845500  1
  As  As7  1  0.75475400  0.02404700  0.43154500  1
  O  O0  1  0.77149100  0.13045800  0.04393000  1
  O  O1  1  0.27149100  0.86954200  0.45607000  1
  O  O2  1  0.22850900  0.86954200  0.95607000  1
  O  O3  1  0.72850900  0.13045800  0.54393000  1
  O  O4  1  0.61937600  0.62554200  0.78644900  1
  O  O5  1  0.11937600  0.37445800  0.71355100  1
  O  O6  1  0.38062400  0.37445800  0.21355100  1
  O  O7  1  0.88062400  0.62554200  0.28644900  1
  O  O8  1  0.90839900  0.54291300  0.89056400  1
  O  O9  1  0.40839900  0.45708700  0.60943600  1
  O  O10  1  0.09160100  0.45708700  0.10943600  1
  O  O11  1  0.59160100  0.54291300  0.39056400  1
  O  O12  1  0.83500400  0.77484100  0.57082600  1
  O  O13  1  0.33500400  0.22515900  0.92917400  1
  O  O14  1  0.16499600  0.22515900  0.42917400  1
  O  O15  1  0.66499600  0.77484100  0.07082600  1
  O  O16  1  0.90293500  0.06924800  0.31813000  1
  O  O17  1  0.40293500  0.93075200  0.18187000  1
  O  O18  1  0.09706500  0.93075200  0.68187000  1
  O  O19  1  0.59706500  0.06924800  0.81813000  1
  O  O20  1  0.70869800  0.36381500  0.22689800  1
  O  O21  1  0.20869800  0.63618500  0.27310200  1
  O  O22  1  0.29130200  0.63618500  0.77310200  1
  O  O23  1  0.79130200  0.36381500  0.72689800  1
  O  O24  1  0.60249100  0.96887700  0.36330500  1
  O  O25  1  0.10249100  0.03112300  0.13669500  1
  O  O26  1  0.39750900  0.03112300  0.63669500  1
  O  O27  1  0.89750900  0.96887700  0.86330500  1
loop_
_geom_bond_atom_site_label_1
_geom_bond_atom_site_label_2
_geom_bond_distance
_geom_bond_site_symmetry_2
As0 O4 1.686791 1_555
As0 O23 1.720328 1_555
As0 O8 1.739639 1_555
As0 O12 1.776336 1_555
As1 O5 1.686791 1_555
As1 O22 1.720328 1_555
As1 O9 1.739639 1_555
As1 O13 1.776336 1_555
As2 O6 1.686791 1_555
As2 O21 1.720328 1_555
As2 O10 1.739639 1_555
As2 O14 1.776336 1_555
As3 O7 1.686791 1_555
As3 O20 1.720328 1_555
As3 O11 1.739639 1_555
As3 O15 1.776336 1_555
As4 O0 1.708716 1_556
As4 O19 1.734036 1_555
As4 O27 1.737320 1_545
As4 O15 1.846546 1_546
As4 O23 2.380141 1_555
As5 O1 1.708716 1_555
As5 O18 1.734036 1_555
As5 O26 1.737320 1_565
As5 O14 1.846546 1_565
As5 O22 2.380141 1_555
As6 O2 1.708716 1_554
As6 O17 1.734036 1_555
As6 O25 1.737320 1_565
As6 O13 1.846546 1_564
As6 O21 2.380141 1_555
As7 O3 1.708716 1_555
As7 O16 1.734036 1_555
As7 O24 1.737320 1_545
As7 O12 1.846546 1_545
As7 O20 2.380141 1_555
O0 Zn2 2.102920 1_555
O0 Sn3 2.627290 1_555
O1 Zn3 2.102920 1_555
O1 Sn2 2.627290 1_555
O2 Zn0 2.102920 1_555
O2 Sn1 2.627290 1_555
O3 Zn1 2.102920 1_555
O3 Sn0 2.627290 1_555
O4 Sn1 2.240031 1_555
O5 Sn0 2.240031 1_455
O6 Sn3 2.240031 1_555
O7 Sn2 2.240031 1_655
O8 Zn0 2.088578 1_655
O8 Zn2 2.092265 1_556
O9 Zn1 2.088578 1_555
O9 Zn3 2.092265 1_555
O10 Zn2 2.088578 1_455
O10 Zn0 2.092265 1_554
O11 Zn3 2.088578 1_555
O11 Zn1 2.092265 1_555
O16 Zn2 2.042781 1_555
O16 Sn2 2.427626 1_645
O17 Zn3 2.042781 1_555
O17 Sn3 2.427626 1_565
O18 Zn0 2.042781 1_555
O18 Sn0 2.427626 1_465
O19 Zn1 2.042781 1_555
O19 Sn1 2.427626 1_545
O20 Sn3 2.372381 1_555
O21 Sn2 2.372381 1_555
O22 Sn1 2.372381 1_555
O23 Sn0 2.372381 1_555
O24 Zn3 2.151348 1_555
O24 Sn3 2.310257 1_565
O25 Zn2 2.151348 1_455
O25 Sn2 2.310257 1_545
O26 Zn1 2.151348 1_555
O26 Sn1 2.310257 1_545
O27 Zn0 2.151348 1_655
O27 Sn0 2.310257 1_565
