# generated using pymatgen
data_Tb3CrS6
_symmetry_space_group_name_H-M   'P 1'
_cell_length_a   3.77874971
_cell_length_b   13.33567874
_cell_length_c   15.97057998
_cell_angle_alpha   90.00000000
_cell_angle_beta   90.00000000
_cell_angle_gamma   90.00000000
_symmetry_Int_Tables_number   1
_chemical_formula_structural   Tb3CrS6
_chemical_formula_sum   'Tb12 Cr4 S24'
_cell_volume   804.79253544
_cell_formula_units_Z   4
loop_
 _symmetry_equiv_pos_site_id
 _symmetry_equiv_pos_as_xyz
  1  'x, y, z'
loop_
 _atom_site_type_symbol
 _atom_site_label
 _atom_site_symmetry_multiplicity
 _atom_site_fract_x
 _atom_site_fract_y
 _atom_site_fract_z
 _atom_site_occupancy
  Tb  Tb0  1  0.00000000  0.54991415  0.27937169  1
  Tb  Tb1  1  -0.00000000  0.45008585  0.72062831  1
  Tb  Tb2  1  0.50000000  0.95008585  0.77937169  1
  Tb  Tb3  1  0.50000000  0.04991415  0.22062831  1
  Tb  Tb4  1  -0.00000000  0.75688471  0.09824968  1
  Tb  Tb5  1  0.00000000  0.24311529  0.90175032  1
  Tb  Tb6  1  0.50000000  0.74311529  0.59824968  1
  Tb  Tb7  1  0.50000000  0.25688471  0.40175032  1
  Tb  Tb8  1  -0.00000000  0.31868778  0.14759851  1
  Tb  Tb9  1  0.00000000  0.68131222  0.85240149  1
  Tb  Tb10  1  0.50000000  0.18131222  0.64759851  1
  Tb  Tb11  1  0.50000000  0.81868778  0.35240149  1
  Cr  Cr0  1  -0.00000000  0.00000000  0.50000000  1
  Cr  Cr1  1  0.50000000  0.50000000  0.00000000  1
  Cr  Cr2  1  0.00000000  0.00000000  0.00000000  1
  Cr  Cr3  1  0.50000000  0.50000000  0.50000000  1
  S  S0  1  -0.00000000  0.12010928  0.10761550  1
  S  S1  1  0.00000000  0.87989072  0.89238450  1
  S  S2  1  0.50000000  0.37989072  0.60761550  1
  S  S3  1  0.50000000  0.62010928  0.39238450  1
  S  S4  1  -0.00000000  0.18872009  0.28968067  1
  S  S5  1  -0.00000000  0.81127991  0.71031933  1
  S  S6  1  0.50000000  0.31127991  0.78968067  1
  S  S7  1  0.50000000  0.68872009  0.21031933  1
  S  S8  1  -0.00000000  0.17983006  0.52000765  1
  S  S9  1  -0.00000000  0.82016994  0.47999235  1
  S  S10  1  0.50000000  0.32016994  0.02000765  1
  S  S11  1  0.50000000  0.67983006  0.97999235  1
  S  S12  1  -0.00000000  0.52182767  0.09738405  1
  S  S13  1  -0.00000000  0.47817233  0.90261595  1
  S  S14  1  0.50000000  0.97817233  0.59738405  1
  S  S15  1  0.50000000  0.02182767  0.40261595  1
  S  S16  1  -0.00000000  0.10309795  0.75302568  1
  S  S17  1  0.00000000  0.89690205  0.24697432  1
  S  S18  1  0.50000000  0.39690205  0.25302568  1
  S  S19  1  0.50000000  0.60309795  0.74697432  1
  S  S20  1  0.00000000  0.41759772  0.42527200  1
  S  S21  1  0.00000000  0.58240228  0.57472800  1
  S  S22  1  0.50000000  0.08240228  0.92527200  1
  S  S23  1  0.50000000  0.91759772  0.07472800  1
loop_
_geom_bond_atom_site_label_1
_geom_bond_atom_site_label_2
_geom_bond_distance
_geom_bond_site_symmetry_2
Cr0 S9 2.419350 1_545
Cr0 S8 2.419350 1_555
Cr0 S15 2.464420 1_555
Cr0 S15 2.464420 1_455
Cr0 S14 2.464420 1_445
Cr0 S14 2.464420 1_545
Cr1 S11 2.419350 1_554
Cr1 S10 2.419350 1_555
Cr1 S13 2.464420 1_554
Cr1 S13 2.464420 1_654
Cr1 S12 2.464420 1_555
Cr1 S12 2.464420 1_655
Cr2 S0 2.349348 1_555
Cr2 S1 2.349348 1_544
Cr2 S23 2.490305 1_445
Cr2 S23 2.490305 1_545
Cr2 S22 2.490305 1_454
Cr2 S22 2.490305 1_554
Cr3 S2 2.349348 1_555
Cr3 S3 2.349348 1_555
Cr3 S20 2.490305 1_655
Cr3 S20 2.490305 1_555
Cr3 S21 2.490305 1_555
Cr3 S21 2.490305 1_655
S0 Tb8 2.724078 1_555
S0 Tb3 2.775538 1_555
S0 Tb3 2.775538 1_455
S1 Tb9 2.724078 1_555
S1 Tb2 2.775538 1_455
S1 Tb2 2.775538 1_555
S2 Tb10 2.724078 1_555
S2 Tb1 2.775538 1_555
S2 Tb1 2.775538 1_655
S3 Tb11 2.724078 1_555
S3 Tb0 2.775538 1_655
S3 Tb0 2.775538 1_555
S4 Tb7 2.756720 1_555
S4 Tb7 2.756720 1_455
S4 Tb8 2.855342 1_555
S4 Tb3 2.865726 1_455
S4 Tb3 2.865726 1_555
S5 Tb6 2.756720 1_455
S5 Tb6 2.756720 1_555
S5 Tb9 2.855342 1_555
S5 Tb2 2.865726 1_555
S5 Tb2 2.865726 1_455
S6 Tb5 2.756720 1_555
S6 Tb5 2.756720 1_655
S6 Tb10 2.855342 1_555
S6 Tb1 2.865726 1_555
S6 Tb1 2.865726 1_655
S7 Tb4 2.756720 1_655
S7 Tb4 2.756720 1_555
S7 Tb11 2.855342 1_555
S7 Tb0 2.865726 1_655
S7 Tb0 2.865726 1_555
S8 Tb10 2.778912 1_555
S8 Tb10 2.778912 1_455
S8 Tb7 2.862273 1_455
S8 Tb7 2.862273 1_555
S9 Tb11 2.778912 1_555
S9 Tb11 2.778912 1_455
S9 Tb6 2.862273 1_455
S9 Tb6 2.862273 1_555
S10 Tb8 2.778912 1_555
S10 Tb8 2.778912 1_655
S10 Tb5 2.862273 1_654
S10 Tb5 2.862273 1_554
S11 Tb9 2.778912 1_555
S11 Tb9 2.778912 1_655
S11 Tb4 2.862273 1_556
S11 Tb4 2.862273 1_656
S12 Tb8 2.825218 1_555
S12 Tb0 2.930483 1_555
S12 Tb4 3.134676 1_555
S13 Tb9 2.825218 1_555
S13 Tb1 2.930483 1_555
S13 Tb5 3.134676 1_555
S14 Tb10 2.825218 1_565
S14 Tb2 2.930483 1_555
S14 Tb6 3.134676 1_555
S15 Tb11 2.825218 1_545
S15 Tb3 2.930483 1_555
S15 Tb7 3.134676 1_555
S16 Tb10 2.737266 1_455
S16 Tb10 2.737266 1_555
S16 Tb2 2.812561 1_545
S16 Tb2 2.812561 1_445
S16 Tb5 3.021291 1_555
S17 Tb11 2.737266 1_455
S17 Tb11 2.737266 1_555
S17 Tb3 2.812561 1_565
S17 Tb3 2.812561 1_465
S17 Tb4 3.021291 1_555
S18 Tb8 2.737266 1_555
S18 Tb8 2.737266 1_655
S18 Tb0 2.812561 1_655
S18 Tb0 2.812561 1_555
S18 Tb7 3.021291 1_555
S19 Tb9 2.737266 1_555
S19 Tb9 2.737266 1_655
S19 Tb1 2.812561 1_555
S19 Tb1 2.812561 1_655
S19 Tb6 3.021291 1_555
S20 Tb7 2.881707 1_555
S20 Tb7 2.881707 1_455
S20 Tb0 2.922839 1_555
S21 Tb6 2.881707 1_455
S21 Tb6 2.881707 1_555
S21 Tb1 2.922839 1_555
S22 Tb5 2.881707 1_555
S22 Tb5 2.881707 1_655
S22 Tb2 2.922839 1_545
S23 Tb4 2.881707 1_655
S23 Tb4 2.881707 1_555
S23 Tb3 2.922839 1_565
