# generated using pymatgen
data_Sr4LaMn5O13
_symmetry_space_group_name_H-M   'P 1'
_cell_length_a   7.68736000
_cell_length_b   9.73398731
_cell_length_c   9.65747343
_cell_angle_alpha   98.91373059
_cell_angle_beta   113.45288008
_cell_angle_gamma   66.74027862
_symmetry_Int_Tables_number   1
_chemical_formula_structural   Sr4LaMn5O13
_chemical_formula_sum   'Sr8 La2 Mn10 O26'
_cell_volume   609.07123023
_cell_formula_units_Z   2
loop_
 _symmetry_equiv_pos_site_id
 _symmetry_equiv_pos_as_xyz
  1  'x, y, z'
loop_
 _atom_site_type_symbol
 _atom_site_label
 _atom_site_symmetry_multiplicity
 _atom_site_fract_x
 _atom_site_fract_y
 _atom_site_fract_z
 _atom_site_occupancy
  Sr  Sr0  1  0.53898100  0.32054900  0.89786100  1
  Sr  Sr1  1  0.03836700  0.32050600  0.89786100  1
  Sr  Sr2  1  0.96163700  0.67943400  0.10211200  1
  Sr  Sr3  1  0.46104500  0.67938200  0.10210900  1
  Sr  Sr4  1  0.15952200  0.88464800  0.70139500  1
  Sr  Sr5  1  0.65719100  0.88463000  0.70137200  1
  Sr  Sr6  1  0.34280100  0.11539400  0.29865400  1
  Sr  Sr7  1  0.84047800  0.11539200  0.29863700  1
  La  La0  1  0.24960800  0.50015000  0.49999800  1
  La  La1  1  0.75040500  0.49982800  0.49998400  1
  Mn  Mn0  1  0.50017500  0.99974400  0.00009000  1
  Mn  Mn1  1  0.70707600  0.19463900  0.60874600  1
  Mn  Mn2  1  0.20521200  0.19521100  0.60551100  1
  Mn  Mn3  1  0.29289600  0.80539500  0.39121500  1
  Mn  Mn4  1  0.79480200  0.80481000  0.39452600  1
  Mn  Mn5  1  0.00001100  0.99996900  0.00001000  1
  Mn  Mn6  1  0.59830300  0.60485300  0.80164700  1
  Mn  Mn7  1  0.09672400  0.60621600  0.79960900  1
  Mn  Mn8  1  0.40175700  0.39513300  0.19835200  1
  Mn  Mn9  1  0.90324400  0.39377500  0.20037700  1
  O  O0  1  0.24311400  0.50298100  0.98920600  1
  O  O1  1  0.75691400  0.49689900  0.01073700  1
  O  O2  1  0.63628700  0.41388900  0.68650600  1
  O  O3  1  0.13195700  0.41419300  0.67805700  1
  O  O4  1  0.36367100  0.58618200  0.31345400  1
  O  O5  1  0.86801200  0.58585900  0.32192600  1
  O  O6  1  0.46467400  0.15887800  0.58848500  1
  O  O7  1  0.96501300  0.15896900  0.58853300  1
  O  O8  1  0.03491500  0.84110800  0.41151200  1
  O  O9  1  0.53535800  0.84121400  0.41156400  1
  O  O10  1  0.85783700  0.08494400  0.80058200  1
  O  O11  1  0.35795800  0.08308900  0.79895200  1
  O  O12  1  0.14213200  0.91509000  0.19941500  1
  O  O13  1  0.64213000  0.91682400  0.20114000  1
  O  O14  1  0.55632300  0.80473100  0.91732600  1
  O  O15  1  0.05476700  0.80462300  0.91428500  1
  O  O16  1  0.44377800  0.19522400  0.08284700  1
  O  O17  1  0.94522100  0.19538900  0.08570500  1
  O  O18  1  0.43301000  0.72251800  0.58868300  1
  O  O19  1  0.93995600  0.71938300  0.59927100  1
  O  O20  1  0.56691600  0.27758400  0.41127100  1
  O  O21  1  0.05994100  0.28074800  0.40065300  1
  O  O22  1  0.34705500  0.60144800  0.79028700  1
  O  O23  1  0.84183000  0.60139200  0.79024800  1
  O  O24  1  0.15814000  0.39862200  0.20966900  1
  O  O25  1  0.65285700  0.39856000  0.20961800  1
loop_
_geom_bond_atom_site_label_1
_geom_bond_atom_site_label_2
_geom_bond_distance
_geom_bond_site_symmetry_2
La0 O5 2.599008 1_455
La0 O3 2.599345 1_555
La0 O4 2.649640 1_555
La0 O2 2.649699 1_555
La0 O22 2.729083 1_555
La0 O24 2.730103 1_555
La0 O18 2.877681 1_555
La0 O20 2.879667 1_555
La0 O19 2.882709 1_455
La0 O21 2.884140 1_555
La0 O8 3.146302 1_555
La0 O6 3.149025 1_555
La1 O3 2.598776 1_655
La1 O5 2.599491 1_555
La1 O2 2.649264 1_555
La1 O4 2.650048 1_555
La1 O25 2.729639 1_555
La1 O23 2.729668 1_555
La1 O20 2.877039 1_555
La1 O18 2.880422 1_555
La1 O21 2.881882 1_655
La1 O19 2.884861 1_555
La1 O7 3.145583 1_555
La1 O9 3.149866 1_555
Mn0 O14 1.893633 1_554
Mn0 O16 1.897461 1_565
Mn0 O13 1.927618 1_555
Mn0 O11 1.929793 1_564
Mn1 O20 1.898508 1_555
Mn1 O6 1.957755 1_555
Mn1 O7 1.957988 1_555
Mn1 O10 1.960149 1_555
Mn1 O2 2.079942 1_555
Mn2 O6 1.953550 1_555
Mn2 O7 1.953573 1_455
Mn2 O21 1.967724 1_555
Mn2 O11 1.983307 1_555
Mn2 O3 2.062709 1_555
Mn3 O18 1.898215 1_555
Mn3 O9 1.958251 1_555
Mn3 O8 1.958606 1_555
Mn3 O12 1.959873 1_555
Mn3 O4 2.079633 1_555
Mn4 O8 1.953193 1_655
Mn4 O9 1.953305 1_555
Mn4 O19 1.966422 1_555
Mn4 O13 1.982401 1_555
Mn4 O5 2.062596 1_555
Mn5 O15 1.906740 1_554
Mn5 O17 1.907240 1_465
Mn5 O12 1.920986 1_555
Mn5 O10 1.921510 1_464
Mn6 O22 1.903769 1_555
Mn6 O23 1.905523 1_555
Mn6 O2 1.991546 1_555
Mn6 O14 2.062791 1_555
Mn6 O1 2.086678 1_556
Mn6 O18 2.157950 1_555
Mn7 O0 1.914616 1_555
Mn7 O22 1.944115 1_555
Mn7 O23 1.944279 1_455
Mn7 O3 2.029376 1_555
Mn7 O19 2.040859 1_455
Mn7 O15 2.046939 1_555
Mn8 O25 1.903038 1_555
Mn8 O24 1.905758 1_555
Mn8 O4 1.992021 1_555
Mn8 O16 2.062263 1_555
Mn8 O0 2.086682 1_554
Mn8 O20 2.157099 1_555
Mn9 O1 1.914474 1_555
Mn9 O25 1.944141 1_555
Mn9 O24 1.944626 1_655
Mn9 O5 2.029824 1_555
Mn9 O21 2.039764 1_655
Mn9 O17 2.046759 1_555
O0 Sr0 2.650734 1_555
O0 Sr1 2.650986 1_555
O0 Sr3 2.679869 1_556
O0 Sr2 2.680205 1_456
O1 Sr3 2.651033 1_555
O1 Sr2 2.651348 1_555
O1 Sr0 2.679455 1_554
O1 Sr1 2.679740 1_654
O2 Sr0 2.806811 1_555
O2 Sr1 2.807209 1_655
O3 Sr0 2.861349 1_555
O3 Sr1 2.861662 1_555
O4 Sr3 2.806345 1_555
O4 Sr2 2.806923 1_455
O5 Sr3 2.861097 1_555
O5 Sr2 2.861348 1_555
O6 Sr6 2.598111 1_555
O6 Sr5 2.646216 1_545
O6 Sr0 3.102275 1_555
O7 Sr7 2.598810 1_555
O7 Sr4 2.646734 1_645
O7 Sr1 3.101338 1_655
O8 Sr4 2.598647 1_555
O8 Sr7 2.646470 1_465
O8 Sr2 3.102476 1_455
O9 Sr5 2.597819 1_555
O9 Sr6 2.645729 1_565
O9 Sr3 3.103569 1_555
O10 Sr4 2.777714 1_645
O10 Sr5 2.778326 1_545
O10 Sr1 2.978950 1_655
O10 Sr0 2.979240 1_555
O11 Sr5 2.750099 1_545
O11 Sr4 2.750464 1_545
O11 Sr1 2.998130 1_555
O11 Sr0 2.998302 1_555
O12 Sr7 2.777759 1_465
O12 Sr6 2.778369 1_565
O12 Sr2 2.979607 1_455
O12 Sr3 2.980056 1_555
O13 Sr6 2.750596 1_565
O13 Sr7 2.751060 1_565
O13 Sr2 2.998215 1_555
O13 Sr3 2.998466 1_555
O14 Sr2 2.761800 1_556
O14 Sr3 2.762388 1_556
O14 Sr5 2.796773 1_555
O14 Sr4 2.797095 1_555
O15 Sr2 2.774095 1_456
O15 Sr3 2.774805 1_556
O15 Sr5 2.790977 1_455
O15 Sr4 2.791407 1_555
O16 Sr1 2.762819 1_554
O16 Sr0 2.763443 1_554
O16 Sr6 2.795732 1_555
O16 Sr7 2.796112 1_555
O17 Sr1 2.773865 1_654
O17 Sr0 2.774580 1_554
O17 Sr6 2.791122 1_655
O17 Sr7 2.791567 1_555
O18 Sr4 2.600831 1_555
O18 Sr5 2.601377 1_555
O19 Sr4 2.595632 1_655
O19 Sr5 2.595712 1_555
O20 Sr7 2.600897 1_555
O20 Sr6 2.601572 1_555
O21 Sr7 2.595742 1_455
O21 Sr6 2.595887 1_555
O22 Sr4 2.650282 1_555
O22 Sr0 2.684469 1_555
O22 Sr3 2.851060 1_556
O23 Sr5 2.650563 1_555
O23 Sr1 2.684480 1_655
O23 Sr2 2.851657 1_556
O24 Sr6 2.650763 1_555
O24 Sr2 2.683688 1_455
O24 Sr1 2.851341 1_554
O25 Sr7 2.650342 1_555
O25 Sr3 2.683624 1_555
O25 Sr0 2.850675 1_554
