# generated using pymatgen
data_CsMg14Ti
_symmetry_space_group_name_H-M   'P 1'
_cell_length_a   6.53394700
_cell_length_b   6.57329901
_cell_length_c   10.60353812
_cell_angle_alpha   90.00000000
_cell_angle_beta   90.00000000
_cell_angle_gamma   120.19943576
_symmetry_Int_Tables_number   1
_chemical_formula_structural   CsMg14Ti
_chemical_formula_sum   'Cs1 Mg14 Ti1'
_cell_volume   393.60820058
_cell_formula_units_Z   1
loop_
 _symmetry_equiv_pos_site_id
 _symmetry_equiv_pos_as_xyz
  1  'x, y, z'
loop_
 _atom_site_type_symbol
 _atom_site_label
 _atom_site_symmetry_multiplicity
 _atom_site_fract_x
 _atom_site_fract_y
 _atom_site_fract_z
 _atom_site_occupancy
  Cs  Cs0  1  0.15827832  0.82913866  0.12500000  1
  Mg  Mg0  1  0.16481009  0.33240455  0.62500000  1
  Mg  Mg1  1  0.16847082  0.83423491  0.62500000  1
  Mg  Mg2  1  0.66301557  0.33176135  0.12500000  1
  Mg  Mg3  1  0.66643467  0.32989289  0.62500000  1
  Mg  Mg4  1  0.66301557  0.83125322  0.12500000  1
  Mg  Mg5  1  0.66643467  0.83654077  0.62500000  1
  Mg  Mg6  1  0.33616082  0.18161158  0.38653626  1
  Mg  Mg7  1  0.33616082  0.18161158  0.86346374  1
  Mg  Mg8  1  0.33616082  0.65455023  0.38653626  1
  Mg  Mg9  1  0.33616082  0.65455023  0.86346374  1
  Mg  Mg10  1  0.84007021  0.17003560  0.36825695  1
  Mg  Mg11  1  0.84007021  0.17003560  0.88174305  1
  Mg  Mg12  1  0.81876989  0.65938544  0.39368605  1
  Mg  Mg13  1  0.81876989  0.65938544  0.85631395  1
  Ti  Ti0  1  0.18721683  0.34360791  0.12500000  1
loop_
_geom_bond_atom_site_label_1
_geom_bond_atom_site_label_2
_geom_bond_distance
_geom_bond_site_symmetry_2
Cs0 Mg2 3.243034 1_455
Cs0 Mg4 3.243034 1_455
Cs0 Ti0 3.290710 1_565
Cs0 Ti0 3.290710 1_555
Cs0 Mg2 3.290956 1_565
Cs0 Mg4 3.290957 1_555
Cs0 Mg9 3.420599 1_554
Cs0 Mg8 3.420599 1_555
Cs0 Mg7 3.420605 1_564
Cs0 Mg6 3.420605 1_565
Cs0 Mg12 3.434066 1_455
Cs0 Mg13 3.434066 1_454
Mg0 Mg6 3.121864 1_555
Mg0 Mg7 3.121864 1_555
Mg0 Mg8 3.121871 1_555
Mg0 Mg9 3.121871 1_555
Mg0 Mg5 3.248085 1_445
Mg0 Mg3 3.248085 1_455
Mg0 Mg11 3.282440 1_455
Mg0 Mg10 3.282440 1_455
Mg0 Mg5 3.285924 1_555
Mg0 Mg3 3.285924 1_555
Mg0 Mg1 3.286714 1_555
Mg0 Mg1 3.286715 1_545
Mg1 Mg12 3.148947 1_455
Mg1 Mg13 3.148947 1_455
Mg1 Mg8 3.207973 1_555
Mg1 Mg9 3.207973 1_555
Mg1 Mg6 3.207980 1_565
Mg1 Mg7 3.207980 1_565
Mg1 Mg3 3.246071 1_565
Mg1 Mg5 3.246072 1_555
Mg1 Mg3 3.287928 1_455
Mg1 Mg5 3.287928 1_455
Mg2 Ti0 3.148733 1_555
Mg2 Mg4 3.283309 1_555
Mg2 Mg4 3.289990 1_545
Mg2 Mg7 3.332460 1_554
Mg2 Mg6 3.332460 1_555
Mg2 Ti0 3.386602 1_655
Mg3 Mg6 3.143965 1_555
Mg3 Mg7 3.143965 1_555
Mg3 Mg5 3.242951 1_545
Mg3 Mg5 3.330348 1_555
Mg4 Ti0 3.148733 1_555
Mg4 Mg9 3.332460 1_554
Mg4 Mg8 3.332460 1_555
Mg4 Ti0 3.386602 1_665
Mg5 Mg8 3.143965 1_555
Mg5 Mg9 3.143965 1_555
Mg6 Mg8 3.108767 1_555
Mg6 Ti0 3.288502 1_555
Mg6 Mg8 3.464532 1_545
Mg7 Mg9 3.108767 1_555
Mg7 Ti0 3.288502 1_556
Mg7 Mg9 3.464532 1_545
Mg8 Ti0 3.288508 1_555
Mg9 Ti0 3.288508 1_556
Mg10 Mg8 3.209687 1_655
Mg10 Mg6 3.209687 1_655
Mg10 Mg2 3.218528 1_555
Mg10 Mg4 3.218534 1_545
Mg10 Ti0 3.239809 1_655
Mg10 Mg12 3.299885 1_545
Mg10 Mg12 3.299885 1_555
Mg10 Mg3 3.316928 1_555
Mg10 Mg5 3.316935 1_545
Mg10 Mg8 3.337075 1_545
Mg10 Mg6 3.337075 1_555
Mg11 Mg9 3.209687 1_655
Mg11 Mg7 3.209687 1_655
Mg11 Mg2 3.218528 1_556
Mg11 Mg4 3.218534 1_546
Mg11 Ti0 3.239809 1_656
Mg11 Mg13 3.299885 1_545
Mg11 Mg13 3.299885 1_555
Mg11 Mg3 3.316928 1_555
Mg11 Mg5 3.316935 1_545
Mg11 Mg9 3.337075 1_545
Mg11 Mg7 3.337075 1_555
Mg12 Mg5 3.086875 1_555
Mg12 Mg3 3.086882 1_555
Mg12 Mg6 3.138391 1_555
Mg12 Mg8 3.138391 1_555
Mg12 Mg6 3.397549 1_665
Mg12 Mg8 3.397549 1_655
Mg12 Mg4 3.403760 1_555
Mg12 Mg2 3.403766 1_555
Mg13 Mg5 3.086875 1_555
Mg13 Mg3 3.086882 1_555
Mg13 Mg7 3.138391 1_555
Mg13 Mg9 3.138391 1_555
Mg13 Mg7 3.397549 1_665
Mg13 Mg9 3.397549 1_655
Mg13 Mg4 3.403760 1_556
Mg13 Mg2 3.403766 1_556
