# generated using pymatgen
data_BaAlCuNiO5
_symmetry_space_group_name_H-M   'P 1'
_cell_length_a   3.71617900
_cell_length_b   3.71617900
_cell_length_c   7.62007200
_cell_angle_alpha   90.00000000
_cell_angle_beta   90.00000000
_cell_angle_gamma   90.00000000
_symmetry_Int_Tables_number   1
_chemical_formula_structural   BaAlCuNiO5
_chemical_formula_sum   'Ba1 Al1 Cu1 Ni1 O5'
_cell_volume   105.23309038
_cell_formula_units_Z   1
loop_
 _symmetry_equiv_pos_site_id
 _symmetry_equiv_pos_as_xyz
  1  'x, y, z'
loop_
 _atom_site_type_symbol
 _atom_site_label
 _atom_site_symmetry_multiplicity
 _atom_site_fract_x
 _atom_site_fract_y
 _atom_site_fract_z
 _atom_site_occupancy
  Ba  Ba0  1  0.00000000  0.00000000  0.97585200  1
  Al  Al0  1  0.00000000  0.00000000  0.47956800  1
  Cu  Cu0  1  0.50000000  0.50000000  0.24608400  1
  Ni  Ni0  1  0.50000000  0.50000000  0.68828800  1
  O  O0  1  0.00000000  0.50000000  0.62034200  1
  O  O1  1  0.50000000  0.00000000  0.62034200  1
  O  O2  1  0.00000000  0.50000000  0.30297000  1
  O  O3  1  0.50000000  0.00000000  0.30297000  1
  O  O4  1  0.50000000  0.50000000  0.95149800  1
loop_
_geom_bond_atom_site_label_1
_geom_bond_atom_site_label_2
_geom_bond_distance
_geom_bond_site_symmetry_2
Ba0 O4 2.634280 1_445
Ba0 O4 2.634280 1_555
Ba0 O4 2.634280 1_545
Ba0 O4 2.634280 1_455
Al0 O0 2.145507 1_545
Al0 O0 2.145507 1_555
Al0 O1 2.145507 1_555
Al0 O1 2.145507 1_455
Al0 O3 2.294205 1_455
Al0 O3 2.294205 1_555
Al0 O2 2.294205 1_555
Al0 O2 2.294205 1_545
Cu0 O2 1.907983 1_655
Cu0 O3 1.907983 1_555
Cu0 O2 1.907983 1_555
Cu0 O3 1.907983 1_565
Cu0 O4 2.244767 1_554
Ni0 O1 1.928877 1_565
Ni0 O0 1.928877 1_555
Ni0 O0 1.928877 1_655
Ni0 O1 1.928877 1_555
Ni0 O4 2.005679 1_555
