# generated using pymatgen
data_Mg4Ti3
_symmetry_space_group_name_H-M   'P 1'
_cell_length_a   8.06349567
_cell_length_b   8.06349567
_cell_length_c   4.95369200
_cell_angle_alpha   90.00000000
_cell_angle_beta   90.00000000
_cell_angle_gamma   119.99999730
_symmetry_Int_Tables_number   1
_chemical_formula_structural   Mg4Ti3
_chemical_formula_sum   'Mg8 Ti6'
_cell_volume   278.93714937
_cell_formula_units_Z   2
loop_
 _symmetry_equiv_pos_site_id
 _symmetry_equiv_pos_as_xyz
  1  'x, y, z'
loop_
 _atom_site_type_symbol
 _atom_site_label
 _atom_site_symmetry_multiplicity
 _atom_site_fract_x
 _atom_site_fract_y
 _atom_site_fract_z
 _atom_site_occupancy
  Mg  Mg0  1  0.19632000  0.24898000  0.75000000  1
  Mg  Mg1  1  0.75102000  0.94734000  0.75000000  1
  Mg  Mg2  1  0.94734000  0.19632000  0.25000000  1
  Mg  Mg3  1  0.33333300  0.66666700  0.75000000  1
  Mg  Mg4  1  0.66666700  0.33333300  0.25000000  1
  Mg  Mg5  1  0.05266000  0.80368000  0.75000000  1
  Mg  Mg6  1  0.24898000  0.05266000  0.25000000  1
  Mg  Mg7  1  0.80368000  0.75102000  0.25000000  1
  Ti  Ti0  1  0.37862000  0.48764900  0.25000000  1
  Ti  Ti1  1  0.51235100  0.89097100  0.25000000  1
  Ti  Ti2  1  0.89097100  0.37862000  0.75000000  1
  Ti  Ti3  1  0.10902900  0.62138000  0.25000000  1
  Ti  Ti4  1  0.48764900  0.10902900  0.75000000  1
  Ti  Ti5  1  0.62138000  0.51235100  0.75000000  1
loop_
_geom_bond_atom_site_label_1
_geom_bond_atom_site_label_2
_geom_bond_distance
_geom_bond_site_symmetry_2
Mg0 Mg3 2.973741 1_555
Mg0 Ti5 2.996452 1_555
Mg0 Ti0 3.028257 1_555
Mg0 Ti0 3.028257 1_556
Mg0 Ti4 3.072929 1_555
Mg0 Mg6 3.081109 1_556
Mg0 Mg6 3.081109 1_555
Mg0 Mg2 3.081109 1_455
Mg0 Mg2 3.081109 1_456
Mg0 Ti2 3.119124 1_455
Mg0 Mg5 3.174176 1_545
Mg0 Mg1 3.174176 1_445
Mg1 Mg3 2.973739 1_555
Mg1 Ti4 2.996452 1_565
Mg1 Ti1 3.028257 1_555
Mg1 Ti1 3.028257 1_556
Mg1 Ti2 3.072929 1_565
Mg1 Mg7 3.081109 1_555
Mg1 Mg7 3.081109 1_556
Mg1 Mg2 3.081109 1_565
Mg1 Mg2 3.081109 1_566
Mg1 Ti5 3.119124 1_555
Mg1 Mg5 3.174176 1_655
Mg2 Mg4 2.973733 1_555
Mg2 Ti3 2.996452 1_655
Mg2 Ti2 3.028257 1_555
Mg2 Ti2 3.028257 1_554
Mg2 Ti0 3.072929 1_655
Mg2 Ti1 3.119124 1_545
Mg2 Mg6 3.174176 1_655
Mg2 Mg7 3.174176 1_545
Mg3 Mg5 2.973733 1_555
Mg3 Ti3 2.979756 1_555
Mg3 Ti3 2.979756 1_556
Mg3 Ti1 2.979757 1_555
Mg3 Ti1 2.979757 1_556
Mg3 Ti0 2.979760 1_556
Mg3 Ti0 2.979760 1_555
Mg3 Ti4 3.135798 1_565
Mg3 Ti2 3.135800 1_455
Mg3 Ti5 3.135806 1_555
Mg4 Mg6 2.973739 1_555
Mg4 Mg7 2.973741 1_555
Mg4 Ti2 2.979756 1_554
Mg4 Ti2 2.979756 1_555
Mg4 Ti4 2.979757 1_555
Mg4 Ti4 2.979757 1_554
Mg4 Ti5 2.979760 1_554
Mg4 Ti5 2.979760 1_555
Mg4 Ti1 3.135798 1_545
Mg4 Ti3 3.135800 1_655
Mg4 Ti0 3.135806 1_555
Mg5 Ti2 2.996452 1_455
Mg5 Ti3 3.028257 1_555
Mg5 Ti3 3.028257 1_556
Mg5 Ti5 3.072929 1_455
Mg5 Mg7 3.081109 1_456
Mg5 Mg7 3.081109 1_455
Mg5 Mg6 3.081109 1_565
Mg5 Mg6 3.081109 1_566
Mg5 Ti4 3.119124 1_565
Mg6 Ti1 2.996452 1_545
Mg6 Ti4 3.028257 1_555
Mg6 Ti4 3.028257 1_554
Mg6 Ti3 3.072929 1_545
Mg6 Ti0 3.119124 1_555
Mg6 Mg7 3.174176 1_445
Mg7 Ti0 2.996452 1_555
Mg7 Ti5 3.028257 1_554
Mg7 Ti5 3.028257 1_555
Mg7 Ti1 3.072929 1_555
Mg7 Ti3 3.119124 1_655
Ti0 Ti3 2.869245 1_555
Ti0 Ti1 2.869245 1_555
Ti0 Ti5 3.101019 1_554
Ti0 Ti5 3.101019 1_555
Ti1 Ti3 2.869245 1_555
Ti1 Ti4 3.101019 1_565
Ti1 Ti4 3.101019 1_564
Ti2 Ti5 2.869245 1_555
Ti2 Ti4 2.869245 1_555
Ti2 Ti3 3.101020 1_656
Ti2 Ti3 3.101020 1_655
Ti4 Ti5 2.869245 1_555
