# generated using pymatgen
data_Sr2YFeCu2O7
_symmetry_space_group_name_H-M   'P 1'
_cell_length_a   12.28734132
_cell_length_b   12.28734132
_cell_length_c   12.28734132
_cell_angle_alpha   154.47876971
_cell_angle_beta   154.01666703
_cell_angle_gamma   36.74105343
_symmetry_Int_Tables_number   1
_chemical_formula_structural   Sr2YFeCu2O7
_chemical_formula_sum   'Sr4 Y2 Fe2 Cu4 O14'
_cell_volume   349.69106495
_cell_formula_units_Z   2
loop_
 _symmetry_equiv_pos_site_id
 _symmetry_equiv_pos_as_xyz
  1  'x, y, z'
loop_
 _atom_site_type_symbol
 _atom_site_label
 _atom_site_symmetry_multiplicity
 _atom_site_fract_x
 _atom_site_fract_y
 _atom_site_fract_z
 _atom_site_occupancy
  Sr  Sr0  1  0.13475000  0.63897500  0.47208200  1
  Sr  Sr1  1  0.86525000  0.33733200  0.50422500  1
  Sr  Sr2  1  0.66689300  0.13897500  0.50422500  1
  Sr  Sr3  1  0.33310700  0.83733200  0.47208200  1
  Y  Y0  1  0.50000000  0.98470800  0.48470800  1
  Y  Y1  1  0.00000000  0.48470800  0.48470800  1
  Fe  Fe0  1  0.68368800  0.77604000  0.95972700  1
  Fe  Fe1  1  0.31631200  0.27604000  0.09235200  1
  Cu  Cu0  1  0.07194700  0.05432400  0.98471500  1
  Cu  Cu1  1  0.92805300  0.91276900  0.98237800  1
  Cu  Cu2  1  0.56960900  0.55432400  0.98237800  1
  Cu  Cu3  1  0.43039100  0.41276900  0.98471500  1
  O  O0  1  0.35878600  0.63475100  0.49353700  1
  O  O1  1  0.64121400  0.13475100  0.27596400  1
  O  O2  1  0.81789900  0.30077500  0.99592200  1
  O  O3  1  0.18210100  0.17802300  0.48287600  1
  O  O4  1  0.80485300  0.80077500  0.48287600  1
  O  O5  1  0.19514700  0.67802300  0.99592200  1
  O  O6  1  0.30808100  0.79140000  0.97252800  1
  O  O7  1  0.69191900  0.66444700  0.48331800  1
  O  O8  1  0.31887200  0.29140000  0.48331800  1
  O  O9  1  0.68112800  0.16444700  0.97252800  1
  O  O10  1  0.71910700  0.63654200  0.00509400  1
  O  O11  1  0.28089300  0.28598700  0.91743500  1
  O  O12  1  0.13144800  0.13654200  0.91743500  1
  O  O13  1  0.86855200  0.78598700  0.00509400  1
loop_
_geom_bond_atom_site_label_1
_geom_bond_atom_site_label_2
_geom_bond_distance
_geom_bond_site_symmetry_2
Fe0 O13 1.879057 1_556
Fe0 O10 1.879078 1_556
Fe0 O0 1.951929 1_555
Fe0 O1 1.961175 1_566
Fe1 O11 1.879067 1_554
Fe1 O12 1.879067 1_554
Fe1 O1 1.951932 1_555
Fe1 O0 1.961175 1_555
Cu0 O8 1.939374 1_556
Cu0 O6 1.939829 1_545
Cu0 O2 1.950264 1_455
Cu0 O4 1.957320 1_445
Cu0 O12 2.452800 1_555
Cu1 O9 1.939375 1_565
Cu1 O7 1.939838 1_555
Cu1 O3 1.950260 1_666
Cu1 O5 1.957324 1_655
Cu1 O13 2.452800 1_556
Cu2 O6 1.939378 1_555
Cu2 O8 1.939835 1_555
Cu2 O4 1.950259 1_556
Cu2 O2 1.957319 1_555
Cu2 O10 2.452811 1_556
Cu3 O7 1.939375 1_556
Cu3 O9 1.939832 1_555
Cu3 O5 1.950259 1_555
Cu3 O3 1.957319 1_555
Cu3 O11 2.452811 1_555
O0 Sr0 2.478132 1_555
O0 Sr3 2.478132 1_555
O1 Sr1 2.478122 1_555
O1 Sr2 2.478144 1_555
O2 Y1 2.373043 1_656
O2 Y0 2.443079 1_545
O2 Sr0 2.784462 1_656
O2 Sr2 2.824220 1_555
O3 Y1 2.373043 1_555
O3 Y0 2.443079 1_545
O3 Sr1 2.784462 1_455
O3 Sr3 2.824220 1_545
O4 Y0 2.373043 1_555
O4 Y1 2.443079 1_655
O4 Sr2 2.784462 1_565
O4 Sr0 2.824220 1_655
O5 Y0 2.373043 1_556
O5 Y1 2.443079 1_555
O5 Sr3 2.784462 1_556
O5 Sr1 2.824220 1_455
O6 Y1 2.400134 1_555
O6 Y0 2.474917 1_556
O6 Sr0 2.813814 1_555
O6 Sr2 2.897279 1_566
O7 Y1 2.400127 1_655
O7 Y0 2.474910 1_555
O7 Sr1 2.813823 1_555
O7 Sr3 2.897287 1_555
O8 Y0 2.400141 1_545
O8 Y1 2.474924 1_555
O8 Sr2 2.813806 1_555
O8 Sr0 2.897270 1_555
O9 Y0 2.400134 1_545
O9 Y1 2.474917 1_656
O9 Sr3 2.813814 1_545
O9 Sr1 2.897279 1_556
O10 Sr0 2.501645 1_655
O10 Sr2 2.635095 1_554
O10 Sr2 2.920309 1_565
O10 Sr0 3.148770 1_554
O11 Sr1 2.501645 1_455
O11 Sr3 2.635095 1_545
O11 Sr3 2.920309 1_556
O11 Sr1 3.148770 1_556
O12 Sr2 2.501645 1_455
O12 Sr0 2.635095 1_545
O12 Sr0 2.920309 1_556
O12 Sr2 3.148770 1_556
O13 Sr3 2.501645 1_655
O13 Sr1 2.635095 1_554
O13 Sr1 2.920309 1_565
O13 Sr3 3.148770 1_554
