# generated using pymatgen
data_AgHPbC2SN2O
_symmetry_space_group_name_H-M   'P 1'
_cell_length_a   4.11075400
_cell_length_b   7.36186300
_cell_length_c   21.94678300
_cell_angle_alpha   90.00000000
_cell_angle_beta   90.00000000
_cell_angle_gamma   90.00000000
_symmetry_Int_Tables_number   1
_chemical_formula_structural   AgHPbC2SN2O
_chemical_formula_sum   'Ag4 H4 Pb4 C8 S4 N8 O4'
_cell_volume   664.17127520
_cell_formula_units_Z   4
loop_
 _symmetry_equiv_pos_site_id
 _symmetry_equiv_pos_as_xyz
  1  'x, y, z'
loop_
 _atom_site_type_symbol
 _atom_site_label
 _atom_site_symmetry_multiplicity
 _atom_site_fract_x
 _atom_site_fract_y
 _atom_site_fract_z
 _atom_site_occupancy
  Ag  Ag0  1  0.25000000  0.50995700  0.30173000  1
  Ag  Ag1  1  0.25000000  0.99004300  0.80173000  1
  Ag  Ag2  1  0.75000000  0.49004300  0.69827000  1
  Ag  Ag3  1  0.75000000  0.00995700  0.19827000  1
  H  H0  1  0.25000000  0.78948100  0.54788000  1
  H  H1  1  0.25000000  0.71051900  0.04788000  1
  H  H2  1  0.75000000  0.21051900  0.45212000  1
  H  H3  1  0.75000000  0.28948100  0.95212000  1
  Pb  Pb0  1  0.25000000  0.19161600  0.54349300  1
  Pb  Pb1  1  0.25000000  0.30838400  0.04349300  1
  Pb  Pb2  1  0.75000000  0.80838400  0.45650700  1
  Pb  Pb3  1  0.75000000  0.69161600  0.95650700  1
  C  C0  1  0.25000000  0.46279200  0.39666900  1
  C  C1  1  0.25000000  0.03720800  0.89666900  1
  C  C2  1  0.75000000  0.53720800  0.60333100  1
  C  C3  1  0.75000000  0.96279200  0.10333100  1
  C  C4  1  0.75000000  0.53756900  0.17702000  1
  C  C5  1  0.75000000  0.96243100  0.67702000  1
  C  C6  1  0.25000000  0.46243100  0.82298000  1
  C  C7  1  0.25000000  0.03756900  0.32298000  1
  S  S0  1  0.75000000  0.64534400  0.24313400  1
  S  S1  1  0.75000000  0.85465600  0.74313400  1
  S  S2  1  0.25000000  0.35465600  0.75686600  1
  S  S3  1  0.25000000  0.14534400  0.25686600  1
  N  N0  1  0.75000000  0.46137600  0.12958200  1
  N  N1  1  0.75000000  0.03862400  0.62958200  1
  N  N2  1  0.25000000  0.53862400  0.87041800  1
  N  N3  1  0.25000000  0.96137600  0.37041800  1
  N  N4  1  0.25000000  0.40984900  0.44718300  1
  N  N5  1  0.25000000  0.09015100  0.94718300  1
  N  N6  1  0.75000000  0.59015100  0.55281700  1
  N  N7  1  0.75000000  0.90984900  0.05281700  1
  O  O0  1  0.25000000  0.87282400  0.51323700  1
  O  O1  1  0.25000000  0.62717600  0.01323700  1
  O  O2  1  0.75000000  0.12717600  0.48676300  1
  O  O3  1  0.75000000  0.37282400  0.98676300  1
loop_
_geom_bond_atom_site_label_1
_geom_bond_atom_site_label_2
_geom_bond_distance
_geom_bond_site_symmetry_2
Ag0 C0 2.112339 1_555
Ag0 S0 2.621405 1_455
Ag0 S0 2.621405 1_555
Ag0 S3 2.859121 1_555
Ag1 C1 2.112339 1_565
Ag1 S1 2.621405 1_455
Ag1 S1 2.621405 1_555
Ag1 S2 2.859121 1_565
Ag2 C2 2.112339 1_555
Ag2 S2 2.621405 1_655
Ag2 S2 2.621405 1_555
Ag2 S1 2.859121 1_555
Ag3 C3 2.112339 1_545
Ag3 S3 2.621405 1_655
Ag3 S3 2.621405 1_555
Ag3 S0 2.859121 1_545
H0 O0 0.976993 1_555
H1 O1 0.976993 1_555
H2 O2 0.976993 1_555
H3 O3 0.976993 1_555
C0 N4 1.175138 1_555
C1 N5 1.175138 1_555
C2 N6 1.175138 1_555
C3 N7 1.175138 1_555
C4 N0 1.182602 1_555
C4 S0 1.653751 1_555
C5 N1 1.182602 1_565
C5 S1 1.653751 1_555
C6 N2 1.182602 1_555
C6 S2 1.653751 1_555
C7 N3 1.182602 1_545
C7 S3 1.653751 1_555
N4 Pb0 2.654971 1_555
N5 Pb1 2.654971 1_556
N6 Pb2 2.654971 1_555
N7 Pb3 2.654971 1_554
O0 Pb0 2.439032 1_565
O0 Pb2 2.449440 1_555
O0 Pb2 2.449440 1_455
O1 Pb1 2.439032 1_555
O1 Pb3 2.449440 1_454
O1 Pb3 2.449440 1_554
O2 Pb2 2.439032 1_545
O2 Pb0 2.449440 1_555
O2 Pb0 2.449440 1_655
O3 Pb3 2.439032 1_555
O3 Pb1 2.449440 1_556
O3 Pb1 2.449440 1_656
