# generated using pymatgen
data_Sr3Cr2Cu2S2O5
_symmetry_space_group_name_H-M   'P 1'
_cell_length_a   3.97293604
_cell_length_b   3.97292504
_cell_length_c   13.34001002
_cell_angle_alpha   81.45286051
_cell_angle_beta   81.45204867
_cell_angle_gamma   89.99887394
_symmetry_Int_Tables_number   1
_chemical_formula_structural   Sr3Cr2Cu2S2O5
_chemical_formula_sum   'Sr3 Cr2 Cu2 S2 O5'
_cell_volume   205.85714569
_cell_formula_units_Z   1
loop_
 _symmetry_equiv_pos_site_id
 _symmetry_equiv_pos_as_xyz
  1  'x, y, z'
loop_
 _atom_site_type_symbol
 _atom_site_label
 _atom_site_symmetry_multiplicity
 _atom_site_fract_x
 _atom_site_fract_y
 _atom_site_fract_z
 _atom_site_occupancy
  Sr  Sr0  1  0.50000100  0.49999000  0.99999400  1
  Sr  Sr1  1  0.35854500  0.35857500  0.28305500  1
  Sr  Sr2  1  0.64145700  0.64145200  0.71693900  1
  Cr  Cr0  1  0.07270800  0.07272000  0.85425800  1
  Cr  Cr1  1  0.92727100  0.92722600  0.14581200  1
  Cu  Cu0  1  0.24981500  0.75017900  0.50000100  1
  Cu  Cu1  1  0.75018200  0.24981200  0.50001200  1
  S  S0  1  0.80271600  0.80272200  0.39335600  1
  S  S1  1  0.19726600  0.19726400  0.60667400  1
  O  O0  1  0.00005000  0.00005300  0.99990200  1
  O  O1  1  0.91804300  0.41810800  0.16396300  1
  O  O2  1  0.41811800  0.91805300  0.16396400  1
  O  O3  1  0.08194900  0.58188800  0.83603400  1
  O  O4  1  0.58187900  0.08195700  0.83603700  1
loop_
_geom_bond_atom_site_label_1
_geom_bond_atom_site_label_2
_geom_bond_distance
_geom_bond_site_symmetry_2
Cr0 O0 1.899488 1_555
Cr0 O4 2.000326 1_455
Cr0 O3 2.000340 1_545
Cr0 O3 2.000922 1_555
Cr0 O4 2.000937 1_555
Cr1 O0 1.902957 1_664
Cr1 O2 2.000155 1_655
Cr1 O1 2.000281 1_565
Cr1 O1 2.000755 1_555
Cr1 O2 2.000895 1_555
Cu0 S0 2.423938 1_555
Cu0 S1 2.424159 1_555
Cu0 S0 2.426037 1_455
Cu0 S1 2.426226 1_565
Cu1 S0 2.424043 1_555
Cu1 S1 2.424086 1_555
Cu1 S0 2.426088 1_545
Cu1 S1 2.426143 1_655
S0 Sr1 3.152232 1_555
S0 Sr1 3.156090 1_655
S0 Sr1 3.156236 1_565
S0 Sr1 3.160187 1_665
S1 Sr2 3.152080 1_555
S1 Sr2 3.155929 1_455
S1 Sr2 3.155969 1_545
S1 Sr2 3.159911 1_445
O0 Sr0 2.809219 1_455
O0 Sr0 2.809257 1_555
O0 Sr0 2.809298 1_545
O0 Sr0 2.809371 1_445
O1 Sr1 2.521406 1_655
O1 Sr1 2.521798 1_555
O1 Sr0 2.918421 1_554
O1 Sr0 2.919100 1_654
O2 Sr1 2.521438 1_565
O2 Sr1 2.521741 1_555
O2 Sr0 2.918465 1_554
O2 Sr0 2.919068 1_564
O3 Sr2 2.521404 1_455
O3 Sr2 2.521848 1_555
O3 Sr0 2.918350 1_555
O3 Sr0 2.919000 1_455
O4 Sr2 2.521452 1_545
O4 Sr2 2.521840 1_555
O4 Sr0 2.918242 1_555
O4 Sr0 2.919043 1_545
