# generated using pymatgen
data_Sr5(OsN3)2
_symmetry_space_group_name_H-M   'P 1'
_cell_length_a   6.30832133
_cell_length_b   7.01567742
_cell_length_c   13.23199281
_cell_angle_alpha   90.00000142
_cell_angle_beta   100.85517857
_cell_angle_gamma   123.78411303
_symmetry_Int_Tables_number   1
_chemical_formula_structural   Sr5(OsN3)2
_chemical_formula_sum   'Sr10 Os4 N12'
_cell_volume   474.06384546
_cell_formula_units_Z   2
loop_
 _symmetry_equiv_pos_site_id
 _symmetry_equiv_pos_as_xyz
  1  'x, y, z'
loop_
 _atom_site_type_symbol
 _atom_site_label
 _atom_site_symmetry_multiplicity
 _atom_site_fract_x
 _atom_site_fract_y
 _atom_site_fract_z
 _atom_site_occupancy
  Sr  Sr0  1  0.13170700  0.80666600  0.99962100  1
  Sr  Sr1  1  0.86829300  0.67495900  0.50037900  1
  Sr  Sr2  1  0.86829300  0.19333400  0.00037900  1
  Sr  Sr3  1  0.13170700  0.32504100  0.49962100  1
  Sr  Sr4  1  0.31746300  0.05835700  0.71705900  1
  Sr  Sr5  1  0.68253700  0.74089400  0.78294100  1
  Sr  Sr6  1  0.68253700  0.94164300  0.28294100  1
  Sr  Sr7  1  0.31746300  0.25910600  0.21705900  1
  Sr  Sr8  1  0.00000000  0.39030500  0.75000000  1
  Sr  Sr9  1  0.00000000  0.60969500  0.25000000  1
  Os  Os0  1  0.53681600  0.86494600  0.55664800  1
  Os  Os1  1  0.46318400  0.32813000  0.94335200  1
  Os  Os2  1  0.46318400  0.13505400  0.44335200  1
  Os  Os3  1  0.53681600  0.67187000  0.05664800  1
  N  N0  1  0.88718500  0.99347600  0.62341200  1
  N  N1  1  0.11281500  0.10629200  0.87658800  1
  N  N2  1  0.11281500  0.00652400  0.37658800  1
  N  N3  1  0.88718500  0.89370800  0.12341200  1
  N  N4  1  0.29418700  0.69426700  0.64018000  1
  N  N5  1  0.70581300  0.40008000  0.85982000  1
  N  N6  1  0.70581300  0.30573300  0.35982000  1
  N  N7  1  0.29418700  0.59992000  0.14018000  1
  N  N8  1  0.58221200  0.26798600  0.58220300  1
  N  N9  1  0.41778800  0.68577400  0.91779700  1
  N  N10  1  0.41778800  0.73201400  0.41779700  1
  N  N11  1  0.58221200  0.31422600  0.08220300  1
loop_
_geom_bond_atom_site_label_1
_geom_bond_atom_site_label_2
_geom_bond_distance
_geom_bond_site_symmetry_2
N0 Os0 1.877964 1_555
N0 Sr4 2.543490 1_665
N0 Sr1 2.699766 1_555
N0 Sr3 2.726647 1_665
N0 Sr5 2.782954 1_555
N0 Sr8 2.900079 1_665
N1 Os1 1.877963 1_555
N1 Sr5 2.543493 1_445
N1 Sr0 2.699771 1_545
N1 Sr2 2.726643 1_456
N1 Sr4 2.782956 1_555
N1 Sr8 2.900073 1_555
N2 Os2 1.877964 1_555
N2 Sr6 2.543490 1_445
N2 Sr3 2.699766 1_555
N2 Sr1 2.726647 1_445
N2 Sr7 2.782954 1_555
N2 Sr9 2.900079 1_545
N3 Os3 1.877963 1_555
N3 Sr7 2.543493 1_665
N3 Sr2 2.699771 1_565
N3 Sr0 2.726643 1_654
N3 Sr6 2.782956 1_555
N3 Sr9 2.900073 1_655
N4 Os0 1.896609 1_555
N4 Sr8 2.591851 1_555
N4 Sr5 2.653819 1_555
N4 Sr4 2.666018 1_565
N4 Sr3 2.747531 1_555
N4 Sr1 2.895137 1_455
N5 Os1 1.896609 1_555
N5 Sr8 2.591851 1_655
N5 Sr4 2.653819 1_555
N5 Sr5 2.666018 1_555
N5 Sr2 2.747530 1_556
N5 Sr0 2.895137 1_655
N6 Os2 1.896609 1_555
N6 Sr9 2.591851 1_655
N6 Sr7 2.653819 1_555
N6 Sr6 2.666018 1_545
N6 Sr1 2.747531 1_555
N6 Sr3 2.895137 1_655
N7 Os3 1.896609 1_555
N7 Sr9 2.591851 1_555
N7 Sr6 2.653819 1_555
N7 Sr7 2.666018 1_555
N7 Sr0 2.747530 1_554
N7 Sr2 2.895137 1_455
N8 Os2 1.873697 1_555
N8 Sr4 2.554842 1_555
N8 Os0 2.693445 1_545
N8 Sr1 2.754395 1_555
N8 Sr8 2.809418 1_655
N8 Sr3 3.086467 1_555
N9 Os3 1.873697 1_556
N9 Sr5 2.554842 1_555
N9 Os1 2.693445 1_555
N9 Sr0 2.754395 1_555
N9 Sr8 2.809418 1_555
N9 Sr2 3.086468 1_566
N10 Os0 1.873697 1_555
N10 Sr6 2.554842 1_555
N10 Os2 2.693445 1_565
N10 Sr3 2.754395 1_555
N10 Sr9 2.809418 1_555
N10 Sr1 3.086467 1_555
N11 Os1 1.873697 1_554
N11 Sr7 2.554842 1_555
N11 Os3 2.693445 1_555
N11 Sr2 2.754395 1_555
N11 Sr9 2.809418 1_655
N11 Sr0 3.086468 1_544
