# generated using pymatgen
data_YbAg(WO4)2
_symmetry_space_group_name_H-M   'P 1'
_cell_length_a   7.48824428
_cell_length_b   7.48824428
_cell_length_c   7.25567542
_cell_angle_alpha   65.12897279
_cell_angle_beta   65.12897279
_cell_angle_gamma   94.73034940
_symmetry_Int_Tables_number   1
_chemical_formula_structural   YbAg(WO4)2
_chemical_formula_sum   'Yb2 Ag2 W4 O16'
_cell_volume   317.82899026
_cell_formula_units_Z   2
loop_
 _symmetry_equiv_pos_site_id
 _symmetry_equiv_pos_as_xyz
  1  'x, y, z'
loop_
 _atom_site_type_symbol
 _atom_site_label
 _atom_site_symmetry_multiplicity
 _atom_site_fract_x
 _atom_site_fract_y
 _atom_site_fract_z
 _atom_site_occupancy
  Yb  Yb0  1  0.70521000  0.29479000  0.00000000  1
  Yb  Yb1  1  0.29479000  0.70521000  0.00000000  1
  Ag  Ag0  1  0.71044700  0.71044700  0.50975600  1
  Ag  Ag1  1  0.28955300  0.28955300  0.49024400  1
  W  W0  1  0.22254600  0.22254600  0.00729300  1
  W  W1  1  0.77745400  0.77745400  0.99270700  1
  W  W2  1  0.82971700  0.17028300  0.50000000  1
  W  W3  1  0.17028300  0.82971700  0.50000000  1
  O  O0  1  0.34828900  0.10243700  0.23272500  1
  O  O1  1  0.65171100  0.89756300  0.76727500  1
  O  O2  1  0.89756300  0.65171100  0.76727500  1
  O  O3  1  0.10243700  0.34828900  0.23272500  1
  O  O4  1  0.67366200  0.21267600  0.36378100  1
  O  O5  1  0.32633800  0.78732400  0.63621900  1
  O  O6  1  0.78732400  0.32633800  0.63621900  1
  O  O7  1  0.21267600  0.67366200  0.36378100  1
  O  O8  1  0.69449300  0.94552800  0.11039900  1
  O  O9  1  0.30550700  0.05447200  0.88960100  1
  O  O10  1  0.05447200  0.30550700  0.88960100  1
  O  O11  1  0.94552800  0.69449300  0.11039900  1
  O  O12  1  0.97661600  0.97661600  0.34009700  1
  O  O13  1  0.02338400  0.02338400  0.65990300  1
  O  O14  1  0.54497200  0.54497200  0.16765700  1
  O  O15  1  0.45502800  0.45502800  0.83234300  1
loop_
_geom_bond_atom_site_label_1
_geom_bond_atom_site_label_2
_geom_bond_distance
_geom_bond_site_symmetry_2
Ag0 O15 2.158746 1_555
Ag0 O12 2.162805 1_555
Ag0 O1 2.694528 1_555
Ag0 O2 2.694528 1_555
Ag0 O8 2.746729 1_555
Ag0 O11 2.746729 1_555
Ag1 O14 2.158746 1_555
Ag1 O13 2.162805 1_555
Ag1 O3 2.694528 1_555
Ag1 O0 2.694528 1_555
Ag1 O10 2.746729 1_555
Ag1 O9 2.746729 1_555
O0 W3 1.937390 1_545
O0 W0 2.137438 1_555
O0 Yb0 2.364824 1_555
O1 W2 1.937390 1_565
O1 W1 2.137438 1_555
O1 Yb1 2.364824 1_556
O2 W3 1.937390 1_655
O2 W1 2.137438 1_555
O2 Yb0 2.364824 1_556
O3 W2 1.937390 1_455
O3 W0 2.137438 1_555
O3 Yb1 2.364824 1_555
O4 W2 1.792202 1_555
O4 Yb0 2.342455 1_555
O5 W3 1.792202 1_555
O5 Yb1 2.342455 1_556
O6 W2 1.792202 1_555
O6 Yb0 2.342455 1_556
O7 W3 1.792202 1_555
O7 Yb1 2.342455 1_555
O8 W1 1.812709 1_554
O8 Yb0 2.374302 1_565
O9 W0 1.812709 1_556
O9 Yb1 2.374302 1_546
O10 W0 1.812709 1_556
O10 Yb0 2.374302 1_456
O11 W1 1.812709 1_554
O11 Yb1 2.374302 1_655
O12 W0 2.138528 1_665
O12 W2 2.294373 1_565
O12 W3 2.294373 1_655
O13 W1 2.138528 1_445
O13 W2 2.294373 1_455
O13 W3 2.294373 1_545
O14 W1 1.858810 1_554
O14 Yb1 2.736639 1_555
O14 Yb0 2.736639 1_555
O15 W0 1.858810 1_556
O15 Yb0 2.736639 1_556
O15 Yb1 2.736639 1_556
