# generated using pymatgen
data_Sn4Ir
_symmetry_space_group_name_H-M   'P 1'
_cell_length_a   6.29834162
_cell_length_b   6.34597624
_cell_length_c   6.62268903
_cell_angle_alpha   118.62720280
_cell_angle_beta   90.00000000
_cell_angle_gamma   90.00000000
_symmetry_Int_Tables_number   1
_chemical_formula_structural   Sn4Ir
_chemical_formula_sum   'Sn8 Ir2'
_cell_volume   232.34462426
_cell_formula_units_Z   2
loop_
 _symmetry_equiv_pos_site_id
 _symmetry_equiv_pos_as_xyz
  1  'x, y, z'
loop_
 _atom_site_type_symbol
 _atom_site_label
 _atom_site_symmetry_multiplicity
 _atom_site_fract_x
 _atom_site_fract_y
 _atom_site_fract_z
 _atom_site_occupancy
  Sn  Sn0  1  0.67533173  0.30471774  0.25522548  1
  Sn  Sn1  1  0.32466827  0.95050674  0.25522548  1
  Sn  Sn2  1  0.82466827  0.80471774  0.25522548  1
  Sn  Sn3  1  0.17533173  0.45050674  0.25522548  1
  Sn  Sn4  1  0.82466827  0.19528226  0.74477452  1
  Sn  Sn5  1  0.17533173  0.54949326  0.74477452  1
  Sn  Sn6  1  0.67533173  0.69528226  0.74477452  1
  Sn  Sn7  1  0.32466827  0.04949326  0.74477452  1
  Ir  Ir0  1  0.50000000  0.50000000  0.00000000  1
  Ir  Ir1  1  -0.00000000  0.00000000  0.00000000  1
loop_
_geom_bond_atom_site_label_1
_geom_bond_atom_site_label_2
_geom_bond_distance
_geom_bond_site_symmetry_2
Sn0 Sn6 2.992412 1_555
Sn0 Sn1 3.151282 1_545
Sn0 Sn4 3.247387 1_554
Sn0 Sn3 3.282259 1_655
Sn0 Sn3 3.282259 1_555
Sn0 Sn2 3.309461 1_545
Sn0 Sn2 3.309461 1_555
Sn1 Sn7 2.992408 1_565
Sn1 Sn5 3.247384 1_554
Sn1 Sn2 3.282259 1_455
Sn1 Sn2 3.282259 1_555
Sn1 Sn3 3.309461 1_565
Sn1 Sn3 3.309461 1_555
Sn2 Sn4 2.992412 1_565
Sn2 Sn3 3.151282 1_655
Sn2 Sn6 3.247387 1_554
Sn3 Sn5 2.992408 1_555
Sn3 Sn7 3.247384 1_554
Sn4 Sn5 3.151282 1_655
Sn4 Sn7 3.282259 1_555
Sn4 Sn7 3.282259 1_655
Sn4 Sn6 3.309461 1_555
Sn4 Sn6 3.309461 1_545
Sn5 Sn6 3.282259 1_455
Sn5 Sn6 3.282259 1_555
Sn5 Sn7 3.309461 1_555
Sn5 Sn7 3.309461 1_565
Sn6 Sn7 3.151282 1_565
Ir0 Sn1 2.760330 1_555
Ir0 Sn7 2.760330 1_554
Ir0 Sn0 2.760334 1_555
Ir0 Sn6 2.760334 1_554
Ir0 Sn2 2.765119 1_555
Ir0 Sn4 2.765119 1_554
Ir0 Sn5 2.765122 1_554
Ir0 Sn3 2.765122 1_555
Ir1 Sn3 2.760330 1_555
Ir1 Sn5 2.760330 1_544
Ir1 Sn2 2.760334 1_445
Ir1 Sn4 2.760334 1_454
Ir1 Sn6 2.765119 1_444
Ir1 Sn0 2.765119 1_455
Ir1 Sn1 2.765122 1_545
Ir1 Sn7 2.765122 1_554
