# generated using pymatgen
data_BaNaMg14
_symmetry_space_group_name_H-M   'P 1'
_cell_length_a   6.69569443
_cell_length_b   6.54509235
_cell_length_c   10.76017869
_cell_angle_alpha   90.00000000
_cell_angle_beta   90.00000000
_cell_angle_gamma   119.25871190
_symmetry_Int_Tables_number   1
_chemical_formula_structural   BaNaMg14
_chemical_formula_sum   'Ba1 Na1 Mg14'
_cell_volume   411.39342639
_cell_formula_units_Z   1
loop_
 _symmetry_equiv_pos_site_id
 _symmetry_equiv_pos_as_xyz
  1  'x, y, z'
loop_
 _atom_site_type_symbol
 _atom_site_label
 _atom_site_symmetry_multiplicity
 _atom_site_fract_x
 _atom_site_fract_y
 _atom_site_fract_z
 _atom_site_occupancy
  Ba  Ba0  1  0.16449081  0.83224491  0.12500000  1
  Na  Na0  1  0.16861900  0.33430900  0.12500000  1
  Mg  Mg0  1  0.16339470  0.33169685  0.62500000  1
  Mg  Mg1  1  0.16432183  0.83216041  0.62500000  1
  Mg  Mg2  1  0.66279437  0.33609759  0.12500000  1
  Mg  Mg3  1  0.66785576  0.33308667  0.62500000  1
  Mg  Mg4  1  0.66279437  0.82669578  0.12500000  1
  Mg  Mg5  1  0.66785576  0.83476809  0.62500000  1
  Mg  Mg6  1  0.34162236  0.17522031  0.39235952  1
  Mg  Mg7  1  0.34162236  0.17522031  0.85764048  1
  Mg  Mg8  1  0.34162236  0.66640305  0.39235952  1
  Mg  Mg9  1  0.34162236  0.66640305  0.85764048  1
  Mg  Mg10  1  0.83127576  0.16563838  0.37604248  1
  Mg  Mg11  1  0.83127576  0.16563838  0.87395752  1
  Mg  Mg12  1  0.82441623  0.66220862  0.38728416  1
  Mg  Mg13  1  0.82441623  0.66220862  0.86271584  1
loop_
_geom_bond_atom_site_label_1
_geom_bond_atom_site_label_2
_geom_bond_distance
_geom_bond_site_symmetry_2
Ba0 Na0 3.272635 1_565
Ba0 Na0 3.272635 1_555
Ba0 Mg2 3.341605 1_455
Ba0 Mg4 3.341605 1_455
Ba0 Mg2 3.354389 1_565
Ba0 Mg4 3.354389 1_555
Ba0 Mg13 3.451271 1_454
Ba0 Mg12 3.451271 1_455
Ba0 Mg9 3.481298 1_554
Ba0 Mg8 3.481298 1_555
Ba0 Mg7 3.481304 1_564
Ba0 Mg6 3.481304 1_565
Mg0 Mg6 3.151819 1_555
Mg0 Mg7 3.151819 1_555
Mg0 Mg8 3.151825 1_555
Mg0 Mg9 3.151825 1_555
Mg0 Mg1 3.272551 1_555
Mg0 Mg1 3.272551 1_545
Mg0 Mg10 3.307561 1_455
Mg0 Mg11 3.307561 1_455
Mg0 Mg5 3.322432 1_445
Mg0 Mg3 3.322433 1_455
Mg0 Mg5 3.373280 1_555
Mg0 Mg3 3.373280 1_555
Mg1 Mg8 3.179870 1_555
Mg1 Mg9 3.179870 1_555
Mg1 Mg6 3.179876 1_565
Mg1 Mg7 3.179876 1_565
Mg1 Mg12 3.238066 1_455
Mg1 Mg13 3.238066 1_455
Mg1 Mg3 3.332560 1_455
Mg1 Mg5 3.332560 1_455
Mg1 Mg3 3.363200 1_565
Mg1 Mg5 3.363200 1_555
Mg2 Mg4 3.211010 1_555
Mg2 Na0 3.303141 1_555
Mg2 Mg4 3.334082 1_545
Mg2 Na0 3.392584 1_655
Mg2 Mg7 3.434531 1_554
Mg2 Mg6 3.434531 1_555
Mg3 Mg6 3.146281 1_555
Mg3 Mg7 3.146281 1_555
Mg3 Mg5 3.261541 1_545
Mg3 Mg5 3.283551 1_555
Mg4 Na0 3.303141 1_555
Mg4 Na0 3.392584 1_665
Mg4 Mg9 3.434531 1_554
Mg4 Mg8 3.434531 1_555
Mg5 Mg8 3.146281 1_555
Mg5 Mg9 3.146281 1_555
Mg6 Mg8 3.214836 1_555
Mg6 Mg8 3.330256 1_545
Mg6 Na0 3.446920 1_555
Mg7 Mg9 3.214836 1_555
Mg7 Mg9 3.330256 1_545
Mg7 Na0 3.446920 1_556
Mg8 Na0 3.446926 1_555
Mg9 Na0 3.446926 1_556
Mg10 Mg12 3.275026 1_545
Mg10 Mg12 3.275026 1_555
Mg10 Mg3 3.278230 1_555
Mg10 Mg5 3.278237 1_545
Mg10 Mg8 3.314327 1_545
Mg10 Mg6 3.314328 1_555
Mg10 Mg2 3.323316 1_555
Mg10 Mg4 3.323322 1_545
Mg10 Na0 3.343651 1_655
Mg10 Mg8 3.391462 1_655
Mg10 Mg6 3.391463 1_655
Mg11 Mg13 3.275026 1_545
Mg11 Mg13 3.275026 1_555
Mg11 Mg3 3.278230 1_555
Mg11 Mg5 3.278237 1_545
Mg11 Mg9 3.314327 1_545
Mg11 Mg7 3.314328 1_555
Mg11 Mg2 3.323316 1_556
Mg11 Mg4 3.323322 1_546
Mg11 Na0 3.343651 1_656
Mg11 Mg9 3.391462 1_655
Mg11 Mg7 3.391463 1_655
Mg12 Mg5 3.174030 1_555
Mg12 Mg3 3.174037 1_555
Mg12 Mg6 3.246605 1_555
Mg12 Mg8 3.246606 1_555
Mg12 Mg4 3.381408 1_555
Mg12 Mg2 3.381414 1_555
Mg12 Mg6 3.450152 1_665
Mg12 Mg8 3.450152 1_655
Mg13 Mg5 3.174030 1_555
Mg13 Mg3 3.174037 1_555
Mg13 Mg7 3.246605 1_555
Mg13 Mg9 3.246606 1_555
Mg13 Mg4 3.381408 1_556
Mg13 Mg2 3.381414 1_556
Mg13 Mg7 3.450152 1_665
Mg13 Mg9 3.450152 1_655
