# generated using pymatgen
data_Ba4Bi(PbO4)3
_symmetry_space_group_name_H-M   'P 1'
_cell_length_a   4.36870100
_cell_length_b   4.36870100
_cell_length_c   17.54155000
_cell_angle_alpha   90.00000000
_cell_angle_beta   90.00000000
_cell_angle_gamma   90.00000000
_symmetry_Int_Tables_number   1
_chemical_formula_structural   Ba4Bi(PbO4)3
_chemical_formula_sum   'Ba4 Bi1 Pb3 O12'
_cell_volume   334.79010202
_cell_formula_units_Z   1
loop_
 _symmetry_equiv_pos_site_id
 _symmetry_equiv_pos_as_xyz
  1  'x, y, z'
loop_
 _atom_site_type_symbol
 _atom_site_label
 _atom_site_symmetry_multiplicity
 _atom_site_fract_x
 _atom_site_fract_y
 _atom_site_fract_z
 _atom_site_occupancy
  Ba  Ba0  1  0.50000000  0.50000000  0.86941100  1
  Ba  Ba1  1  0.50000000  0.50000000  0.62348400  1
  Ba  Ba2  1  0.50000000  0.50000000  0.37651600  1
  Ba  Ba3  1  0.50000000  0.50000000  0.13058900  1
  Bi  Bi0  1  0.00000000  0.00000000  0.00000000  1
  Pb  Pb0  1  0.00000000  0.00000000  0.74888800  1
  Pb  Pb1  1  0.00000000  0.00000000  0.50000000  1
  Pb  Pb2  1  0.00000000  0.00000000  0.25111200  1
  O  O0  1  0.00000000  0.50000000  0.75312300  1
  O  O1  1  0.00000000  0.50000000  0.50000000  1
  O  O2  1  0.00000000  0.50000000  0.24687700  1
  O  O3  1  0.00000000  0.50000000  0.00000000  1
  O  O4  1  0.50000000  0.00000000  0.75312300  1
  O  O5  1  0.50000000  0.00000000  0.50000000  1
  O  O6  1  0.50000000  0.00000000  0.24687700  1
  O  O7  1  0.50000000  0.00000000  0.00000000  1
  O  O8  1  0.00000000  0.00000000  0.87620700  1
  O  O9  1  0.00000000  0.00000000  0.62543000  1
  O  O10  1  0.00000000  0.00000000  0.37457000  1
  O  O11  1  0.00000000  0.00000000  0.12379300  1
loop_
_geom_bond_atom_site_label_1
_geom_bond_atom_site_label_2
_geom_bond_distance
_geom_bond_site_symmetry_2
Ba0 O4 2.988723 1_565
Ba0 O0 2.988723 1_555
Ba0 O0 2.988723 1_655
Ba0 O4 2.988723 1_555
Ba0 O8 3.091437 1_655
Ba0 O8 3.091437 1_665
Ba0 O8 3.091437 1_555
Ba0 O8 3.091437 1_565
Ba0 O3 3.165256 1_656
Ba0 O3 3.165256 1_556
Ba0 O7 3.165256 1_556
Ba0 O7 3.165256 1_566
Ba1 O5 3.076261 1_555
Ba1 O5 3.076261 1_565
Ba1 O1 3.076261 1_555
Ba1 O1 3.076261 1_655
Ba1 O9 3.089327 1_555
Ba1 O9 3.089327 1_655
Ba1 O9 3.089327 1_565
Ba1 O9 3.089327 1_665
Ba1 O4 3.153217 1_565
Ba1 O0 3.153217 1_555
Ba1 O4 3.153217 1_555
Ba1 O0 3.153217 1_655
Ba2 O5 3.076261 1_555
Ba2 O5 3.076261 1_565
Ba2 O1 3.076261 1_655
Ba2 O1 3.076261 1_555
Ba2 O10 3.089327 1_565
Ba2 O10 3.089327 1_655
Ba2 O10 3.089327 1_665
Ba2 O10 3.089327 1_555
Ba2 O2 3.153217 1_555
Ba2 O6 3.153217 1_555
Ba2 O2 3.153217 1_655
Ba2 O6 3.153217 1_565
Ba3 O6 2.988723 1_555
Ba3 O6 2.988723 1_565
Ba3 O2 2.988723 1_655
Ba3 O2 2.988723 1_555
Ba3 O11 3.091437 1_555
Ba3 O11 3.091437 1_655
Ba3 O11 3.091437 1_565
Ba3 O11 3.091437 1_665
Ba3 O7 3.165256 1_565
Ba3 O3 3.165256 1_555
Ba3 O3 3.165256 1_655
Ba3 O7 3.165256 1_555
Bi0 O11 2.171521 1_555
Bi0 O8 2.171521 1_554
Bi0 O7 2.184350 1_455
Bi0 O7 2.184350 1_555
Bi0 O3 2.184350 1_545
Bi0 O3 2.184350 1_555
O0 Pb0 2.185613 1_555
O0 Pb0 2.185613 1_565
O1 Pb1 2.184350 1_565
O1 Pb1 2.184350 1_555
O2 Pb2 2.185613 1_565
O2 Pb2 2.185613 1_555
O4 Pb0 2.185613 1_655
O4 Pb0 2.185613 1_555
O5 Pb1 2.184350 1_655
O5 Pb1 2.184350 1_555
O6 Pb2 2.185613 1_655
O6 Pb2 2.185613 1_555
O8 Pb0 2.233373 1_555
O9 Pb0 2.165645 1_555
O9 Pb1 2.200237 1_555
O10 Pb2 2.165645 1_555
O10 Pb1 2.200237 1_555
O11 Pb2 2.233373 1_555
