# generated using pymatgen
data_AlTeH6C2Cl3
_symmetry_space_group_name_H-M   'P 1'
_cell_length_a   6.64709200
_cell_length_b   11.05095000
_cell_length_c   14.00993400
_cell_angle_alpha   90.00000000
_cell_angle_beta   90.00000000
_cell_angle_gamma   90.00000000
_symmetry_Int_Tables_number   1
_chemical_formula_structural   AlTeH6C2Cl3
_chemical_formula_sum   'Al4 Te4 H24 C8 Cl12'
_cell_volume   1029.12325740
_cell_formula_units_Z   4
loop_
 _symmetry_equiv_pos_site_id
 _symmetry_equiv_pos_as_xyz
  1  'x, y, z'
loop_
 _atom_site_type_symbol
 _atom_site_label
 _atom_site_symmetry_multiplicity
 _atom_site_fract_x
 _atom_site_fract_y
 _atom_site_fract_z
 _atom_site_occupancy
  Al  Al0  1  0.54659600  0.25000000  0.56051700  1
  Al  Al1  1  0.45340400  0.75000000  0.43948300  1
  Al  Al2  1  0.54659600  0.75000000  0.93948300  1
  Al  Al3  1  0.45340400  0.25000000  0.06051700  1
  Te  Te0  1  0.63779900  0.25000000  0.36941400  1
  Te  Te1  1  0.36220100  0.75000000  0.63058600  1
  Te  Te2  1  0.63779900  0.75000000  0.13058600  1
  Te  Te3  1  0.36220100  0.25000000  0.86941400  1
  H  H0  1  0.95884200  0.38587700  0.42525000  1
  H  H1  1  0.04115800  0.88587700  0.57475000  1
  H  H2  1  0.95884200  0.61412300  0.07475000  1
  H  H3  1  0.04115800  0.11412300  0.92525000  1
  H  H4  1  0.04115800  0.61412300  0.57475000  1
  H  H5  1  0.95884200  0.11412300  0.42525000  1
  H  H6  1  0.04115800  0.38587700  0.92525000  1
  H  H7  1  0.95884200  0.88587700  0.07475000  1
  H  H8  1  0.77406600  0.47850500  0.36527500  1
  H  H9  1  0.22593400  0.97850500  0.63472500  1
  H  H10  1  0.77406600  0.52149500  0.13472500  1
  H  H11  1  0.22593400  0.02149500  0.86527500  1
  H  H12  1  0.22593400  0.52149500  0.63472500  1
  H  H13  1  0.77406600  0.02149500  0.36527500  1
  H  H14  1  0.22593400  0.47850500  0.86527500  1
  H  H15  1  0.77406600  0.97850500  0.13472500  1
  H  H16  1  0.93793700  0.38124800  0.29676400  1
  H  H17  1  0.06206300  0.88124800  0.70323600  1
  H  H18  1  0.93793700  0.61875200  0.20323600  1
  H  H19  1  0.06206300  0.11875200  0.79676400  1
  H  H20  1  0.06206300  0.61875200  0.70323600  1
  H  H21  1  0.93793700  0.11875200  0.29676400  1
  H  H22  1  0.06206300  0.38124800  0.79676400  1
  H  H23  1  0.93793700  0.88124800  0.20323600  1
  C  C0  1  0.85725100  0.39285700  0.36432300  1
  C  C1  1  0.14274900  0.89285700  0.63567700  1
  C  C2  1  0.85725100  0.60714300  0.13567700  1
  C  C3  1  0.14274900  0.10714300  0.86432300  1
  C  C4  1  0.14274900  0.60714300  0.63567700  1
  C  C5  1  0.85725100  0.10714300  0.36432300  1
  C  C6  1  0.14274900  0.39285700  0.86432300  1
  C  C7  1  0.85725100  0.89285700  0.13567700  1
  Cl  Cl0  1  0.22431800  0.25000000  0.57250400  1
  Cl  Cl1  1  0.77568200  0.75000000  0.42749600  1
  Cl  Cl2  1  0.22431800  0.75000000  0.92749600  1
  Cl  Cl3  1  0.77568200  0.25000000  0.07250400  1
  Cl  Cl4  1  0.66936700  0.08683900  0.61870000  1
  Cl  Cl5  1  0.33063300  0.58683900  0.38130000  1
  Cl  Cl6  1  0.66936700  0.91316100  0.88130000  1
  Cl  Cl7  1  0.33063300  0.41316100  0.11870000  1
  Cl  Cl8  1  0.33063300  0.91316100  0.38130000  1
  Cl  Cl9  1  0.66936700  0.41316100  0.61870000  1
  Cl  Cl10  1  0.33063300  0.08683900  0.11870000  1
  Cl  Cl11  1  0.66936700  0.58683900  0.88130000  1
loop_
_geom_bond_atom_site_label_1
_geom_bond_atom_site_label_2
_geom_bond_distance
_geom_bond_site_symmetry_2
Al0 Cl4 2.140452 1_555
Al0 Cl9 2.140452 1_555
Al0 Cl0 2.148784 1_555
Al0 Te0 2.745118 1_555
Al1 Cl5 2.140452 1_555
Al1 Cl8 2.140452 1_555
Al1 Cl1 2.148784 1_555
Al1 Te1 2.745118 1_555
Al2 Cl6 2.140452 1_555
Al2 Cl11 2.140452 1_555
Al2 Cl2 2.148784 1_555
Al2 Te2 2.745118 1_556
Al3 Cl7 2.140452 1_555
Al3 Cl10 2.140452 1_555
Al3 Cl3 2.148784 1_555
Al3 Te3 2.745118 1_554
C0 H0 1.091130 1_555
C0 H16 1.095428 1_555
C0 H8 1.096251 1_555
C0 Te0 2.150641 1_555
C1 H1 1.091130 1_555
C1 H17 1.095428 1_555
C1 H9 1.096251 1_555
C1 Te1 2.150641 1_555
C2 H2 1.091130 1_555
C2 H18 1.095428 1_555
C2 H10 1.096251 1_555
C2 Te2 2.150641 1_555
C3 H3 1.091130 1_555
C3 H19 1.095428 1_555
C3 H11 1.096251 1_555
C3 Te3 2.150641 1_555
C4 H4 1.091130 1_555
C4 H20 1.095428 1_555
C4 H12 1.096251 1_555
C4 Te1 2.150641 1_555
C5 H5 1.091130 1_555
C5 H21 1.095428 1_555
C5 H13 1.096251 1_555
C5 Te0 2.150641 1_555
C6 H6 1.091130 1_555
C6 H22 1.095428 1_555
C6 H14 1.096251 1_555
C6 Te3 2.150641 1_555
C7 H7 1.091130 1_555
C7 H23 1.095428 1_555
C7 H15 1.096251 1_555
C7 Te2 2.150641 1_555
