# generated using pymatgen
data_TlAs5PbS9
_symmetry_space_group_name_H-M   'P 1'
_cell_length_a   8.30963841
_cell_length_b   11.13348657
_cell_length_c   36.08888796
_cell_angle_alpha   90.00000000
_cell_angle_beta   90.00000000
_cell_angle_gamma   90.00000000
_symmetry_Int_Tables_number   1
_chemical_formula_structural   TlAs5PbS9
_chemical_formula_sum   'Tl8 As40 Pb8 S72'
_cell_volume   3338.77240665
_cell_formula_units_Z   8
loop_
 _symmetry_equiv_pos_site_id
 _symmetry_equiv_pos_as_xyz
  1  'x, y, z'
loop_
 _atom_site_type_symbol
 _atom_site_label
 _atom_site_symmetry_multiplicity
 _atom_site_fract_x
 _atom_site_fract_y
 _atom_site_fract_z
 _atom_site_occupancy
  Tl  Tl0  1  0.36495382  0.15854187  0.12274089  1
  Tl  Tl1  1  0.63504618  0.84145813  0.87725911  1
  Tl  Tl2  1  0.13504618  0.84145813  0.62274089  1
  Tl  Tl3  1  0.63504618  0.65854187  0.37725911  1
  Tl  Tl4  1  0.86495382  0.15854187  0.37725911  1
  Tl  Tl5  1  0.36495382  0.34145813  0.62274089  1
  Tl  Tl6  1  0.86495382  0.34145813  0.87725911  1
  Tl  Tl7  1  0.13504618  0.65854187  0.12274089  1
  As  As0  1  0.04318824  0.11824849  0.02915892  1
  As  As1  1  0.95681176  0.88175151  0.97084108  1
  As  As2  1  0.45681176  0.88175151  0.52915892  1
  As  As3  1  0.95681176  0.61824849  0.47084108  1
  As  As4  1  0.54318824  0.11824849  0.47084108  1
  As  As5  1  0.04318824  0.38175151  0.52915892  1
  As  As6  1  0.54318824  0.38175151  0.97084108  1
  As  As7  1  0.45681176  0.61824849  0.02915892  1
  As  As8  1  0.37433432  0.40175655  0.31505504  1
  As  As9  1  0.62566568  0.59824345  0.68494496  1
  As  As10  1  0.12566568  0.59824345  0.81505504  1
  As  As11  1  0.62566568  0.90175655  0.18494496  1
  As  As12  1  0.87433432  0.40175655  0.18494496  1
  As  As13  1  0.37433432  0.09824345  0.81505504  1
  As  As14  1  0.87433432  0.09824345  0.68494496  1
  As  As15  1  0.12566568  0.90175655  0.31505504  1
  As  As16  1  0.28371198  0.36402405  0.45165996  1
  As  As17  1  0.71628802  0.63597595  0.54834004  1
  As  As18  1  0.21628802  0.63597595  0.95165996  1
  As  As19  1  0.71628802  0.86402405  0.04834004  1
  As  As20  1  0.78371198  0.36402405  0.04834004  1
  As  As21  1  0.28371198  0.13597595  0.95165996  1
  As  As22  1  0.78371198  0.13597595  0.54834004  1
  As  As23  1  0.21628802  0.86402405  0.45165996  1
  As  As24  1  0.36444763  0.05962185  0.38465309  1
  As  As25  1  0.63555237  0.94037815  0.61534691  1
  As  As26  1  0.13555237  0.94037815  0.88465309  1
  As  As27  1  0.63555237  0.55962185  0.11534691  1
  As  As28  1  0.86444763  0.05962185  0.11534691  1
  As  As29  1  0.36444763  0.44037815  0.88465309  1
  As  As30  1  0.86444763  0.44037815  0.61534691  1
  As  As31  1  0.13555237  0.55962185  0.38465309  1
  As  As32  1  0.29396579  0.39159319  0.19488628  1
  As  As33  1  0.70603421  0.60840681  0.80511372  1
  As  As34  1  0.20603421  0.60840681  0.69488628  1
  As  As35  1  0.70603421  0.89159319  0.30511372  1
  As  As36  1  0.79396579  0.39159319  0.30511372  1
  As  As37  1  0.29396579  0.10840681  0.69488628  1
  As  As38  1  0.79396579  0.10840681  0.80511372  1
  As  As39  1  0.20603421  0.89159319  0.19488628  1
  Pb  Pb0  1  0.39461415  0.13580197  0.25304241  1
  Pb  Pb1  1  0.60538585  0.86419803  0.74695759  1
  Pb  Pb2  1  0.10538585  0.86419803  0.75304241  1
  Pb  Pb3  1  0.60538585  0.63580197  0.24695759  1
  Pb  Pb4  1  0.89461415  0.13580197  0.24695759  1
  Pb  Pb5  1  0.39461415  0.36419803  0.75304241  1
  Pb  Pb6  1  0.89461415  0.36419803  0.74695759  1
  Pb  Pb7  1  0.10538585  0.63580197  0.25304241  1
  S  S0  1  0.17751124  0.37156772  0.36278202  1
  S  S1  1  0.82248876  0.62843228  0.63721798  1
  S  S2  1  0.32248876  0.62843228  0.86278202  1
  S  S3  1  0.82248876  0.87156772  0.13721798  1
  S  S4  1  0.67751124  0.37156772  0.13721798  1
  S  S5  1  0.17751124  0.12843228  0.86278202  1
  S  S6  1  0.67751124  0.12843228  0.63721798  1
  S  S7  1  0.32248876  0.87156772  0.36278202  1
  S  S8  1  0.13938121  0.08782250  0.19122793  1
  S  S9  1  0.86061879  0.91217750  0.80877207  1
  S  S10  1  0.36061879  0.91217750  0.69122793  1
  S  S11  1  0.86061879  0.58782250  0.30877207  1
  S  S12  1  0.63938121  0.08782250  0.30877207  1
  S  S13  1  0.13938121  0.41217750  0.69122793  1
  S  S14  1  0.63938121  0.41217750  0.80877207  1
  S  S15  1  0.36061879  0.58782250  0.19122793  1
  S  S16  1  0.04457345  0.30511621  0.05657271  1
  S  S17  1  0.95542655  0.69488379  0.94342729  1
  S  S18  1  0.45542655  0.69488379  0.55657271  1
  S  S19  1  0.95542655  0.80511621  0.44342729  1
  S  S20  1  0.54457345  0.30511621  0.44342729  1
  S  S21  1  0.04457345  0.19488379  0.55657271  1
  S  S22  1  0.54457345  0.19488379  0.94342729  1
  S  S23  1  0.45542655  0.80511621  0.05657271  1
  S  S24  1  0.10322349  0.38539052  0.14720616  1
  S  S25  1  0.89677651  0.61460948  0.85279384  1
  S  S26  1  0.39677651  0.61460948  0.64720616  1
  S  S27  1  0.89677651  0.88539052  0.35279384  1
  S  S28  1  0.60322349  0.38539052  0.35279384  1
  S  S29  1  0.10322349  0.11460948  0.64720616  1
  S  S30  1  0.60322349  0.11460948  0.85279384  1
  S  S31  1  0.39677651  0.88539052  0.14720616  1
  S  S32  1  0.41662988  0.49537123  0.07982056  1
  S  S33  1  0.58337012  0.50462877  0.92017944  1
  S  S34  1  0.08337012  0.50462877  0.57982056  1
  S  S35  1  0.58337012  0.99537123  0.42017944  1
  S  S36  1  0.91662988  0.49537123  0.42017944  1
  S  S37  1  0.41662988  0.00462877  0.57982056  1
  S  S38  1  0.91662988  0.00462877  0.92017944  1
  S  S39  1  0.08337012  0.99537123  0.07982056  1
  S  S40  1  0.31089144  0.11304021  0.01498311  1
  S  S41  1  0.68910856  0.88695979  0.98501689  1
  S  S42  1  0.18910856  0.88695979  0.51498311  1
  S  S43  1  0.68910856  0.61304021  0.48501689  1
  S  S44  1  0.81089144  0.11304021  0.48501689  1
  S  S45  1  0.31089144  0.38695979  0.51498311  1
  S  S46  1  0.81089144  0.38695979  0.98501689  1
  S  S47  1  0.18910856  0.61304021  0.01498311  1
  S  S48  1  0.13507671  0.10213509  0.31035703  1
  S  S49  1  0.86492329  0.89786491  0.68964297  1
  S  S50  1  0.36492329  0.89786491  0.81035703  1
  S  S51  1  0.86492329  0.60213509  0.18964297  1
  S  S52  1  0.63507671  0.10213509  0.18964297  1
  S  S53  1  0.13507671  0.39786491  0.81035703  1
  S  S54  1  0.63507671  0.39786491  0.68964297  1
  S  S55  1  0.36492329  0.60213509  0.31035703  1
  S  S56  1  0.12825451  0.38503415  0.24547902  1
  S  S57  1  0.87174549  0.61496585  0.75452098  1
  S  S58  1  0.37174549  0.61496585  0.74547902  1
  S  S59  1  0.87174549  0.88503415  0.25452098  1
  S  S60  1  0.62825451  0.38503415  0.25452098  1
  S  S61  1  0.12825451  0.11496585  0.74547902  1
  S  S62  1  0.62825451  0.11496585  0.75452098  1
  S  S63  1  0.37174549  0.88503415  0.24547902  1
  S  S64  1  0.17560737  0.06106179  0.43286048  1
  S  S65  1  0.82439263  0.93893821  0.56713952  1
  S  S66  1  0.32439263  0.93893821  0.93286048  1
  S  S67  1  0.82439263  0.56106179  0.06713952  1
  S  S68  1  0.67560737  0.06106179  0.06713952  1
  S  S69  1  0.17560737  0.43893821  0.93286048  1
  S  S70  1  0.67560737  0.43893821  0.56713952  1
  S  S71  1  0.32439263  0.56106179  0.43286048  1
loop_
_geom_bond_atom_site_label_1
_geom_bond_atom_site_label_2
_geom_bond_distance
_geom_bond_site_symmetry_2
As0 S40 2.283322 1_555
As0 S16 2.303768 1_555
As0 S39 2.307773 1_545
As1 S41 2.283322 1_555
As1 S17 2.303768 1_555
As1 S38 2.307773 1_565
As2 S42 2.283322 1_555
As2 S18 2.303768 1_555
As2 S37 2.307773 1_565
As3 S43 2.283322 1_555
As3 S19 2.303768 1_555
As3 S36 2.307773 1_555
As4 S44 2.283322 1_555
As4 S20 2.303768 1_555
As4 S35 2.307773 1_545
As5 S45 2.283322 1_555
As5 S21 2.303768 1_555
As5 S34 2.307773 1_555
As6 S46 2.283322 1_555
As6 S22 2.303768 1_555
As6 S33 2.307773 1_555
As7 S47 2.283322 1_555
As7 S23 2.303768 1_555
As7 S32 2.307773 1_555
As8 S55 2.238711 1_555
As8 S28 2.346415 1_555
As8 S0 2.398881 1_555
As9 S54 2.238711 1_555
As9 S26 2.346415 1_555
As9 S1 2.398881 1_555
As10 S53 2.238711 1_555
As10 S25 2.346415 1_455
As10 S2 2.398881 1_555
As11 S52 2.238711 1_565
As11 S31 2.346415 1_555
As11 S3 2.398881 1_555
As12 S51 2.238711 1_555
As12 S24 2.346415 1_655
As12 S4 2.398881 1_555
As13 S50 2.238711 1_545
As13 S30 2.346415 1_555
As13 S5 2.398881 1_555
As14 S49 2.238711 1_545
As14 S29 2.346415 1_655
As14 S6 2.398881 1_555
As15 S48 2.238711 1_565
As15 S27 2.346415 1_455
As15 S7 2.398881 1_555
As16 S20 2.284115 1_555
As16 S45 2.310549 1_555
As16 S71 2.320983 1_555
As17 S18 2.284115 1_555
As17 S43 2.310549 1_555
As17 S70 2.320983 1_555
As18 S17 2.284115 1_455
As18 S47 2.310549 1_556
As18 S69 2.320983 1_555
As19 S23 2.284115 1_555
As19 S41 2.310549 1_554
As19 S68 2.320983 1_565
As20 S16 2.284115 1_655
As20 S46 2.310549 1_554
As20 S67 2.320983 1_555
As21 S22 2.284115 1_555
As21 S40 2.310549 1_556
As21 S66 2.320983 1_545
As22 S21 2.284115 1_655
As22 S44 2.310549 1_555
As22 S65 2.320983 1_545
As23 S19 2.284115 1_455
As23 S42 2.310549 1_555
As23 S64 2.320983 1_565
As24 S7 2.264539 1_545
As24 S35 2.337705 1_545
As24 S64 2.342939 1_555
As25 S6 2.264539 1_565
As25 S37 2.337705 1_565
As25 S65 2.342939 1_555
As26 S5 2.264539 1_565
As26 S38 2.337705 1_465
As26 S66 2.342939 1_555
As27 S4 2.264539 1_555
As27 S32 2.337705 1_555
As27 S67 2.342939 1_555
As28 S3 2.264539 1_545
As28 S39 2.337705 1_645
As28 S68 2.342939 1_555
As29 S2 2.264539 1_555
As29 S33 2.337705 1_555
As29 S69 2.342939 1_555
As30 S1 2.264539 1_555
As30 S34 2.337705 1_655
As30 S70 2.342939 1_555
As31 S0 2.264539 1_555
As31 S36 2.337705 1_455
As31 S71 2.342939 1_555
As32 S15 2.257694 1_555
As32 S56 2.288043 1_555
As32 S24 2.340487 1_555
As33 S14 2.257694 1_555
As33 S57 2.288043 1_555
As33 S25 2.340487 1_555
As34 S13 2.257694 1_555
As34 S58 2.288043 1_555
As34 S26 2.340487 1_555
As35 S12 2.257694 1_565
As35 S59 2.288043 1_555
As35 S27 2.340487 1_555
As36 S11 2.257694 1_555
As36 S60 2.288043 1_555
As36 S28 2.340487 1_555
As37 S10 2.257694 1_545
As37 S61 2.288043 1_555
As37 S29 2.340487 1_555
As38 S9 2.257694 1_545
As38 S62 2.288043 1_555
As38 S30 2.340487 1_555
As39 S8 2.257694 1_565
As39 S63 2.288043 1_555
As39 S31 2.340487 1_555
Pb0 S63 2.811660 1_545
Pb0 S12 2.909848 1_555
Pb0 S48 3.011653 1_555
Pb0 S52 3.060742 1_555
Pb0 S8 3.124112 1_555
Pb1 S62 2.811660 1_565
Pb1 S10 2.909848 1_555
Pb1 S49 3.011653 1_555
Pb1 S50 3.060742 1_555
Pb1 S9 3.124112 1_555
Pb2 S61 2.811660 1_565
Pb2 S9 2.909848 1_455
Pb2 S50 3.011653 1_555
Pb2 S49 3.060742 1_455
Pb2 S10 3.124112 1_555
Pb3 S60 2.811660 1_555
Pb3 S15 2.909848 1_555
Pb3 S51 3.011653 1_555
Pb3 S55 3.060742 1_555
Pb3 S11 3.124112 1_555
Pb4 S59 2.811660 1_545
Pb4 S8 2.909848 1_655
Pb4 S52 3.011653 1_555
Pb4 S48 3.060742 1_655
Pb4 S12 3.124112 1_555
Pb5 S58 2.811660 1_555
Pb5 S14 2.909848 1_555
Pb5 S53 3.011653 1_555
Pb5 S54 3.060742 1_555
Pb5 S13 3.124112 1_555
Pb6 S57 2.811660 1_555
Pb6 S13 2.909848 1_655
Pb6 S54 3.011653 1_555
Pb6 S53 3.060742 1_655
Pb6 S14 3.124112 1_555
Pb7 S56 2.811660 1_555
Pb7 S11 2.909848 1_455
Pb7 S55 3.011653 1_555
Pb7 S51 3.060742 1_455
Pb7 S15 3.124112 1_555
S8 Tl0 3.200361 1_555
S9 Tl1 3.200361 1_555
S10 Tl2 3.200361 1_555
S11 Tl3 3.200361 1_555
S12 Tl4 3.200361 1_555
S13 Tl5 3.200361 1_555
S14 Tl6 3.200361 1_555
S15 Tl7 3.200361 1_555
S24 Tl7 3.177725 1_555
S25 Tl6 3.177725 1_555
S26 Tl5 3.177725 1_555
S27 Tl4 3.177725 1_565
S28 Tl3 3.177725 1_555
S29 Tl2 3.177725 1_545
S30 Tl1 3.177725 1_545
S31 Tl0 3.177725 1_565
