# generated using pymatgen
data_Li2CdSb
_symmetry_space_group_name_H-M   'P 1'
_cell_length_a   4.82105828
_cell_length_b   4.82105828
_cell_length_c   4.82105828
_cell_angle_alpha   60.00000000
_cell_angle_beta   60.00000000
_cell_angle_gamma   60.00000000
_symmetry_Int_Tables_number   1
_chemical_formula_structural   Li2CdSb
_chemical_formula_sum   'Li2 Cd1 Sb1'
_cell_volume   79.23410304
_cell_formula_units_Z   1
loop_
 _symmetry_equiv_pos_site_id
 _symmetry_equiv_pos_as_xyz
  1  'x, y, z'
loop_
 _atom_site_type_symbol
 _atom_site_label
 _atom_site_symmetry_multiplicity
 _atom_site_fract_x
 _atom_site_fract_y
 _atom_site_fract_z
 _atom_site_occupancy
  Li  Li0  1  0.75000000  0.75000000  0.75000000  1
  Li  Li1  1  0.25000000  0.25000000  0.25000000  1
  Cd  Cd0  1  0.00000000  0.00000000  0.00000000  1
  Sb  Sb0  1  0.50000000  0.50000000  0.50000000  1
loop_
_geom_bond_atom_site_label_1
_geom_bond_atom_site_label_2
_geom_bond_distance
_geom_bond_site_symmetry_2
Li0 Sb0 2.952283 1_555
Li0 Sb0 2.952283 1_556
Li0 Sb0 2.952283 1_565
Li0 Sb0 2.952283 1_655
Li1 Sb0 2.952283 1_555
Li1 Sb0 2.952283 1_455
Li1 Sb0 2.952283 1_554
Li1 Sb0 2.952283 1_545
Cd0 Li1 2.952283 1_455
Cd0 Li1 2.952283 1_554
Cd0 Li1 2.952283 1_555
Cd0 Li0 2.952283 1_544
Cd0 Li0 2.952283 1_444
Cd0 Li0 2.952283 1_445
Cd0 Li1 2.952283 1_545
Cd0 Li0 2.952283 1_454
