# generated using pymatgen
data_Cs2LaBr5
_symmetry_space_group_name_H-M   'P 1'
_cell_length_a   9.01123709
_cell_length_b   9.66439088
_cell_length_c   14.48346464
_cell_angle_alpha   90.00000000
_cell_angle_beta   90.00000000
_cell_angle_gamma   90.00000000
_symmetry_Int_Tables_number   1
_chemical_formula_structural   Cs2LaBr5
_chemical_formula_sum   'Cs8 La4 Br20'
_cell_volume   1261.33767110
_cell_formula_units_Z   4
loop_
 _symmetry_equiv_pos_site_id
 _symmetry_equiv_pos_as_xyz
  1  'x, y, z'
loop_
 _atom_site_type_symbol
 _atom_site_label
 _atom_site_symmetry_multiplicity
 _atom_site_fract_x
 _atom_site_fract_y
 _atom_site_fract_z
 _atom_site_occupancy
  Cs  Cs0  1  0.94372894  0.00502546  0.82853371  1
  Cs  Cs1  1  0.05627106  0.99497454  0.17146629  1
  Cs  Cs2  1  0.44372894  0.99497454  0.67146629  1
  Cs  Cs3  1  0.05627106  0.50502546  0.17146629  1
  Cs  Cs4  1  0.55627106  0.00502546  0.32853371  1
  Cs  Cs5  1  0.94372894  0.49497454  0.82853371  1
  Cs  Cs6  1  0.55627106  0.49497454  0.32853371  1
  Cs  Cs7  1  0.44372894  0.50502546  0.67146629  1
  La  La0  1  0.93055657  0.75000000  0.50398380  1
  La  La1  1  0.06944343  0.25000000  0.49601620  1
  La  La2  1  0.43055657  0.25000000  0.99601620  1
  La  La3  1  0.56944343  0.75000000  0.00398380  1
  Br  Br0  1  0.11766148  0.75000000  0.67234506  1
  Br  Br1  1  0.88233852  0.25000000  0.32765494  1
  Br  Br2  1  0.61766148  0.25000000  0.82765494  1
  Br  Br3  1  0.38233852  0.75000000  0.17234506  1
  Br  Br4  1  0.83998929  0.04270395  0.57135566  1
  Br  Br5  1  0.16001071  0.95729605  0.42864434  1
  Br  Br6  1  0.33998929  0.95729605  0.92864434  1
  Br  Br7  1  0.16001071  0.54270395  0.42864434  1
  Br  Br8  1  0.66001071  0.04270395  0.07135566  1
  Br  Br9  1  0.83998929  0.45729605  0.57135566  1
  Br  Br10  1  0.66001071  0.45729605  0.07135566  1
  Br  Br11  1  0.33998929  0.54270395  0.92864434  1
  Br  Br12  1  0.59858613  0.75000000  0.51229328  1
  Br  Br13  1  0.40141387  0.25000000  0.48770672  1
  Br  Br14  1  0.09858613  0.25000000  0.98770672  1
  Br  Br15  1  0.90141387  0.75000000  0.01229328  1
  Br  Br16  1  0.65296918  0.75000000  0.80502986  1
  Br  Br17  1  0.34703082  0.25000000  0.19497014  1
  Br  Br18  1  0.15296918  0.25000000  0.69497014  1
  Br  Br19  1  0.84703082  0.75000000  0.30502986  1
loop_
_geom_bond_atom_site_label_1
_geom_bond_atom_site_label_2
_geom_bond_distance
_geom_bond_site_symmetry_2
Br0 La0 2.964593 1_455
Br0 Cs0 3.694386 1_465
Br0 Cs5 3.694386 1_455
Br0 Cs7 3.773433 1_555
Br0 Cs2 3.773433 1_555
Br1 La1 2.964593 1_655
Br1 Cs1 3.694386 1_645
Br1 Cs3 3.694386 1_655
Br1 Cs4 3.773433 1_555
Br1 Cs6 3.773433 1_555
Br2 La2 2.964593 1_555
Br2 Cs2 3.694386 1_545
Br2 Cs7 3.694386 1_555
Br2 Cs0 3.773433 1_555
Br2 Cs5 3.773433 1_555
Br3 La3 2.964593 1_555
Br3 Cs4 3.694386 1_565
Br3 Cs6 3.694386 1_555
Br3 Cs3 3.773433 1_555
Br3 Cs1 3.773433 1_555
Br4 La1 3.078876 1_655
Br4 La0 3.101667 1_545
Br4 Cs0 3.857570 1_555
Br4 Cs2 3.881457 1_545
Br5 La0 3.078876 1_455
Br5 La1 3.101667 1_565
Br5 Cs1 3.857570 1_555
Br5 Cs4 3.881457 1_565
Br6 La3 3.078876 1_556
Br6 La2 3.101667 1_565
Br6 Cs2 3.857570 1_555
Br6 Cs0 3.881457 1_465
Br7 La0 3.078876 1_455
Br7 La1 3.101667 1_555
Br7 Cs3 3.857570 1_555
Br7 Cs6 3.881457 1_555
Br8 La2 3.078876 1_554
Br8 La3 3.101667 1_545
Br8 Cs4 3.857570 1_555
Br8 Cs1 3.881457 1_645
Br9 La1 3.078876 1_655
Br9 La0 3.101667 1_555
Br9 Cs5 3.857570 1_555
Br9 Cs7 3.881457 1_555
Br10 La2 3.078876 1_554
Br10 La3 3.101667 1_555
Br10 Cs6 3.857570 1_555
Br10 Cs3 3.881457 1_655
Br11 La3 3.078876 1_556
Br11 La2 3.101667 1_555
Br11 Cs7 3.857570 1_555
Br11 Cs5 3.881457 1_455
Br12 La0 2.993884 1_555
Br12 Cs7 3.587095 1_555
Br12 Cs2 3.587095 1_555
Br12 Cs6 3.647386 1_555
Br12 Cs4 3.647386 1_565
Br13 La1 2.993884 1_555
Br13 Cs4 3.587095 1_555
Br13 Cs6 3.587095 1_555
Br13 Cs2 3.647386 1_545
Br13 Cs7 3.647386 1_555
Br14 La2 2.993884 1_555
Br14 Cs0 3.587095 1_455
Br14 Cs5 3.587095 1_455
Br14 Cs1 3.647386 1_546
Br14 Cs3 3.647386 1_556
Br15 La3 2.993884 1_555
Br15 Cs3 3.587095 1_655
Br15 Cs1 3.587095 1_655
Br15 Cs0 3.647386 1_564
Br15 Cs5 3.647386 1_554
Br16 La3 2.978221 1_556
Br16 Cs7 3.592006 1_555
Br16 Cs2 3.592006 1_555
Br16 Cs5 3.613227 1_555
Br16 Cs0 3.613227 1_565
Br17 La2 2.978221 1_554
Br17 Cs4 3.592006 1_555
Br17 Cs6 3.592006 1_555
Br17 Cs1 3.613227 1_545
Br17 Cs3 3.613227 1_555
Br18 La1 2.978221 1_555
Br18 Cs5 3.592006 1_455
Br18 Cs0 3.592006 1_455
Br18 Cs2 3.613227 1_545
Br18 Cs7 3.613227 1_555
Br19 La0 2.978221 1_555
Br19 Cs3 3.592006 1_655
Br19 Cs1 3.592006 1_655
Br19 Cs4 3.613227 1_565
Br19 Cs6 3.613227 1_555
