# generated using pymatgen
data_RbNdSe2
_symmetry_space_group_name_H-M   'P 1'
_cell_length_a   8.35686144
_cell_length_b   8.35686144
_cell_length_c   8.35686194
_cell_angle_alpha   30.29820548
_cell_angle_beta   30.29820548
_cell_angle_gamma   30.29820264
_symmetry_Int_Tables_number   1
_chemical_formula_structural   RbNdSe2
_chemical_formula_sum   'Rb1 Nd1 Se2'
_cell_volume   131.63538915
_cell_formula_units_Z   1
loop_
 _symmetry_equiv_pos_site_id
 _symmetry_equiv_pos_as_xyz
  1  'x, y, z'
loop_
 _atom_site_type_symbol
 _atom_site_label
 _atom_site_symmetry_multiplicity
 _atom_site_fract_x
 _atom_site_fract_y
 _atom_site_fract_z
 _atom_site_occupancy
  Rb  Rb0  1  0.00000000  0.00000000  0.00000000  1
  Nd  Nd0  1  0.50000000  0.50000000  0.50000000  1
  Se  Se0  1  0.23390980  0.23390980  0.23390980  1
  Se  Se1  1  0.76609020  0.76609020  0.76609020  1
loop_
_geom_bond_atom_site_label_1
_geom_bond_atom_site_label_2
_geom_bond_distance
_geom_bond_site_symmetry_2
Rb0 Se0 3.465059 1_455
Rb0 Se0 3.465059 1_545
Rb0 Se1 3.465059 1_544
Rb0 Se1 3.465059 1_454
Rb0 Se0 3.465059 1_554
Rb0 Se1 3.465059 1_445
Nd0 Se1 2.990405 1_455
Nd0 Se1 2.990405 1_545
Nd0 Se0 2.990405 1_565
Nd0 Se0 2.990405 1_655
Nd0 Se1 2.990405 1_554
Nd0 Se0 2.990405 1_556
