# generated using pymatgen
data_MoW3(SeS)4
_symmetry_space_group_name_H-M   'P 1'
_cell_length_a   3.24606879
_cell_length_b   3.24606879
_cell_length_c   35.60438529
_cell_angle_alpha   90.00000000
_cell_angle_beta   90.00000000
_cell_angle_gamma   120.00001163
_symmetry_Int_Tables_number   1
_chemical_formula_structural   MoW3(SeS)4
_chemical_formula_sum   'Mo1 W3 Se4 S4'
_cell_volume   324.89985026
_cell_formula_units_Z   1
loop_
 _symmetry_equiv_pos_site_id
 _symmetry_equiv_pos_as_xyz
  1  'x, y, z'
loop_
 _atom_site_type_symbol
 _atom_site_label
 _atom_site_symmetry_multiplicity
 _atom_site_fract_x
 _atom_site_fract_y
 _atom_site_fract_z
 _atom_site_occupancy
  Mo  Mo0  1  0.00000000  -0.00000000  0.09417721  1
  W  W0  1  0.00000000  0.00000000  0.46978275  1
  W  W1  1  0.33333300  0.66666700  0.28133280  1
  W  W2  1  0.33333300  0.66666700  0.65762210  1
  Se  Se0  1  0.33333300  0.66666700  0.04700076  1
  Se  Se1  1  0.33333300  0.66666700  0.42230774  1
  Se  Se2  1  0.33333300  0.66666700  0.14141488  1
  Se  Se3  1  0.33333300  0.66666700  0.51725798  1
  S  S0  1  -0.00000000  -0.00000000  0.32455721  1
  S  S1  1  0.00000000  -0.00000000  0.70081030  1
  S  S2  1  0.00000000  0.00000000  0.23811467  1
  S  S3  1  0.00000000  0.00000000  0.61437060  1
loop_
_geom_bond_atom_site_label_1
_geom_bond_atom_site_label_2
_geom_bond_distance
_geom_bond_site_symmetry_2
Mo0 Se0 2.516678 1_545
Mo0 Se0 2.516680 1_445
Mo0 Se0 2.516680 1_555
Mo0 Se2 2.518133 1_545
Mo0 Se2 2.518135 1_445
Mo0 Se2 2.518135 1_555
Se1 W0 2.523785 1_565
Se1 W0 2.523787 1_665
Se1 W0 2.523787 1_555
Se3 W0 2.523790 1_565
Se3 W0 2.523792 1_665
Se3 W0 2.523792 1_555
S0 W1 2.425030 1_545
S0 W1 2.425032 1_555
S0 W1 2.425032 1_445
S1 W2 2.424212 1_545
S1 W2 2.424214 1_445
S1 W2 2.424214 1_555
S2 W1 2.424888 1_545
S2 W1 2.424890 1_445
S2 W1 2.424890 1_555
S3 W2 2.425642 1_545
S3 W2 2.425644 1_445
S3 W2 2.425644 1_555
