# generated using pymatgen
data_YMg14Nb
_symmetry_space_group_name_H-M   'P 1'
_cell_length_a   6.46870203
_cell_length_b   6.34477422
_cell_length_c   10.29135417
_cell_angle_alpha   90.00000000
_cell_angle_beta   90.00000000
_cell_angle_gamma   119.36825976
_symmetry_Int_Tables_number   1
_chemical_formula_structural   YMg14Nb
_chemical_formula_sum   'Y1 Mg14 Nb1'
_cell_volume   368.10021493
_cell_formula_units_Z   1
loop_
 _symmetry_equiv_pos_site_id
 _symmetry_equiv_pos_as_xyz
  1  'x, y, z'
loop_
 _atom_site_type_symbol
 _atom_site_label
 _atom_site_symmetry_multiplicity
 _atom_site_fract_x
 _atom_site_fract_y
 _atom_site_fract_z
 _atom_site_occupancy
  Y  Y0  1  0.16410818  0.33205359  0.12500000  1
  Mg  Mg0  1  0.16659886  0.33329893  0.62500000  1
  Mg  Mg1  1  0.16442628  0.83221264  0.62500000  1
  Mg  Mg2  1  0.66216606  0.32802461  0.12500000  1
  Mg  Mg3  1  0.66556493  0.33434513  0.62500000  1
  Mg  Mg4  1  0.66216606  0.83414046  0.12500000  1
  Mg  Mg5  1  0.66556493  0.83121880  0.62500000  1
  Mg  Mg6  1  0.33309225  0.15828426  0.37617173  1
  Mg  Mg7  1  0.33309225  0.15828426  0.87382827  1
  Mg  Mg8  1  0.33309225  0.67480900  0.37617173  1
  Mg  Mg9  1  0.33309225  0.67480900  0.87382827  1
  Mg  Mg10  1  0.83078958  0.16539529  0.38061588  1
  Mg  Mg11  1  0.83078958  0.16539529  0.86938412  1
  Mg  Mg12  1  0.84257341  0.67128720  0.36701508  1
  Mg  Mg13  1  0.84257341  0.67128720  0.88298492  1
  Nb  Nb0  1  0.17030971  0.83515436  0.12500000  1
loop_
_geom_bond_atom_site_label_1
_geom_bond_atom_site_label_2
_geom_bond_distance
_geom_bond_site_symmetry_2
Mg0 Mg10 3.147890 1_455
Mg0 Mg11 3.147890 1_455
Mg0 Mg1 3.172411 1_545
Mg0 Mg1 3.172411 1_555
Mg0 Mg7 3.181758 1_555
Mg0 Mg6 3.181758 1_555
Mg0 Mg9 3.181764 1_555
Mg0 Mg8 3.181764 1_555
Mg0 Mg5 3.224412 1_555
Mg0 Mg3 3.224413 1_555
Mg0 Mg5 3.244299 1_445
Mg0 Mg3 3.244300 1_455
Mg1 Mg9 3.132748 1_555
Mg1 Mg8 3.132748 1_555
Mg1 Mg7 3.132755 1_565
Mg1 Mg6 3.132755 1_565
Mg1 Mg13 3.215770 1_455
Mg1 Mg12 3.215770 1_455
Mg1 Mg3 3.223897 1_455
Mg1 Mg5 3.223898 1_455
Mg1 Mg3 3.244813 1_565
Mg1 Mg5 3.244814 1_555
Mg2 Mg4 3.133583 1_545
Mg2 Mg6 3.181860 1_555
Mg2 Mg7 3.181860 1_554
Mg2 Nb0 3.184832 1_545
Mg2 Mg4 3.211191 1_555
Mg2 Y0 3.234401 1_555
Mg2 Y0 3.234454 1_655
Mg2 Nb0 3.283880 1_655
Mg3 Mg5 3.152551 1_555
Mg3 Mg7 3.174017 1_555
Mg3 Mg6 3.174017 1_555
Mg3 Mg5 3.192223 1_545
Mg4 Mg8 3.181860 1_555
Mg4 Mg9 3.181860 1_554
Mg4 Nb0 3.184832 1_555
Mg4 Y0 3.234401 1_555
Mg4 Y0 3.234454 1_665
Mg4 Nb0 3.283880 1_655
Mg5 Mg8 3.174018 1_555
Mg5 Mg9 3.174018 1_555
Mg6 Mg8 3.067541 1_545
Mg6 Nb0 3.142655 1_545
Mg6 Y0 3.205345 1_555
Mg6 Mg8 3.277233 1_555
Mg7 Mg9 3.067541 1_545
Mg7 Nb0 3.142655 1_546
Mg7 Y0 3.205345 1_556
Mg7 Mg9 3.277233 1_555
Mg8 Nb0 3.142649 1_555
Mg8 Y0 3.205351 1_555
Mg9 Nb0 3.142649 1_556
Mg9 Y0 3.205351 1_556
Mg10 Mg3 3.120988 1_555
Mg10 Mg5 3.120994 1_545
Mg10 Mg12 3.176168 1_555
Mg10 Mg12 3.176168 1_545
Mg10 Mg8 3.197898 1_545
Mg10 Mg6 3.197898 1_555
Mg10 Mg2 3.206038 1_555
Mg10 Mg4 3.206044 1_545
Mg10 Y0 3.232807 1_655
Mg10 Mg8 3.271929 1_655
Mg10 Mg6 3.271929 1_655
Mg11 Mg3 3.120988 1_555
Mg11 Mg5 3.120994 1_545
Mg11 Mg13 3.176168 1_555
Mg11 Mg13 3.176168 1_545
Mg11 Mg9 3.197898 1_545
Mg11 Mg7 3.197898 1_555
Mg11 Mg2 3.206038 1_556
Mg11 Mg4 3.206044 1_546
Mg11 Y0 3.232807 1_656
Mg11 Mg9 3.271929 1_655
Mg11 Mg7 3.271929 1_655
Mg12 Nb0 3.101118 1_655
Mg12 Mg4 3.132995 1_555
Mg12 Mg2 3.133001 1_555
Mg12 Mg6 3.163525 1_665
Mg12 Mg8 3.163526 1_655
Mg12 Mg5 3.244913 1_555
Mg12 Mg3 3.244919 1_555
Mg12 Mg6 3.308040 1_555
Mg12 Mg8 3.308040 1_555
Mg13 Nb0 3.101118 1_656
Mg13 Mg4 3.132995 1_556
Mg13 Mg2 3.133001 1_556
Mg13 Mg7 3.163525 1_665
Mg13 Mg9 3.163526 1_655
Mg13 Mg5 3.244913 1_555
Mg13 Mg3 3.244919 1_555
Mg13 Mg7 3.308040 1_555
Mg13 Mg9 3.308040 1_555
Nb0 Y0 3.172580 1_565
Nb0 Y0 3.172580 1_555
