# generated using pymatgen
data_CaZrTi2O7
_symmetry_space_group_name_H-M   'P 1'
_cell_length_a   7.28565500
_cell_length_b   7.31520240
_cell_length_c   11.47749456
_cell_angle_alpha   80.97728709
_cell_angle_beta   80.84894122
_cell_angle_gamma   60.60794090
_symmetry_Int_Tables_number   1
_chemical_formula_structural   CaZrTi2O7
_chemical_formula_sum   'Ca4 Zr4 Ti8 O28'
_cell_volume   523.97314528
_cell_formula_units_Z   4
loop_
 _symmetry_equiv_pos_site_id
 _symmetry_equiv_pos_as_xyz
  1  'x, y, z'
loop_
 _atom_site_type_symbol
 _atom_site_label
 _atom_site_symmetry_multiplicity
 _atom_site_fract_x
 _atom_site_fract_y
 _atom_site_fract_z
 _atom_site_occupancy
  Ca  Ca0  1  0.24760300  0.49970200  0.00047600  1
  Ca  Ca1  1  0.50008900  0.75363000  0.48912100  1
  Ca  Ca2  1  0.75239700  0.50029800  0.99952400  1
  Ca  Ca3  1  0.49991100  0.24637000  0.51087900  1
  Zr  Zr0  1  0.00349500  0.24302200  0.52701800  1
  Zr  Zr1  1  0.75566700  0.99912700  0.97470600  1
  Zr  Zr2  1  0.99650500  0.75697800  0.47298200  1
  Zr  Zr3  1  0.24433300  0.00087300  0.02529400  1
  Ti  Ti0  1  0.13709500  0.37260700  0.75263700  1
  Ti  Ti1  1  0.62224400  0.88498900  0.74580400  1
  Ti  Ti2  1  0.86290500  0.62739300  0.24736300  1
  Ti  Ti3  1  0.37775600  0.11501100  0.25419600  1
  Ti  Ti4  1  0.87463000  0.12754100  0.25169500  1
  Ti  Ti5  1  0.12537000  0.87245900  0.74830500  1
  Ti  Ti6  1  0.41473600  0.51744100  0.24613600  1
  Ti  Ti7  1  0.58526400  0.48255900  0.75386400  1
  O  O0  1  0.19851400  0.44512900  0.22247300  1
  O  O1  1  0.57926600  0.83569300  0.28170700  1
  O  O2  1  0.80148600  0.55487100  0.77752700  1
  O  O3  1  0.42073400  0.16430700  0.71829300  1
  O  O4  1  0.33718700  0.60408700  0.39508600  1
  O  O5  1  0.39168800  0.66895600  0.09843300  1
  O  O6  1  0.66281300  0.39591300  0.60491400  1
  O  O7  1  0.60831200  0.33104400  0.90156700  1
  O  O8  1  0.12082600  0.29569000  0.92577000  1
  O  O9  1  0.70839800  0.87809200  0.57110800  1
  O  O10  1  0.87917400  0.70431000  0.07423000  1
  O  O11  1  0.29160200  0.12190800  0.42889200  1
  O  O12  1  0.06083800  0.16285000  0.70905700  1
  O  O13  1  0.83694200  0.93228100  0.79094200  1
  O  O14  1  0.93916200  0.83715000  0.29094300  1
  O  O15  1  0.16305800  0.06771900  0.20905800  1
  O  O16  1  0.25238100  0.55627100  0.77740900  1
  O  O17  1  0.43233400  0.78028900  0.71673200  1
  O  O18  1  0.74761900  0.44372900  0.22259100  1
  O  O19  1  0.56766600  0.21971100  0.28326800  1
  O  O20  1  0.54095400  0.88055500  0.91741700  1
  O  O21  1  0.11780700  0.46413100  0.58348000  1
  O  O22  1  0.45904600  0.11944500  0.08258300  1
  O  O23  1  0.88219300  0.53586900  0.41652000  1
  O  O24  1  0.87841100  0.11867700  0.08240700  1
  O  O25  1  0.87937100  0.12454900  0.42021100  1
  O  O26  1  0.12158900  0.88132300  0.91759300  1
  O  O27  1  0.12062900  0.87545100  0.57978900  1
loop_
_geom_bond_atom_site_label_1
_geom_bond_atom_site_label_2
_geom_bond_distance
_geom_bond_site_symmetry_2
Ca0 O8 2.412855 1_554
Ca0 O10 2.427569 1_455
Ca0 O5 2.446790 1_555
Ca0 O7 2.454609 1_554
Ca0 O0 2.512107 1_555
Ca0 O16 2.526029 1_554
Ca0 O22 2.536188 1_555
Ca0 O26 2.543656 1_554
Ca1 O11 2.403346 1_565
Ca1 O1 2.411478 1_555
Ca1 O4 2.412950 1_555
Ca1 O9 2.469218 1_555
Ca1 O23 2.511469 1_555
Ca1 O6 2.526766 1_555
Ca1 O27 2.545130 1_555
Ca1 O17 2.600285 1_555
Ca2 O10 2.412855 1_556
Ca2 O8 2.427569 1_655
Ca2 O7 2.446790 1_555
Ca2 O5 2.454609 1_556
Ca2 O2 2.512107 1_555
Ca2 O18 2.526029 1_556
Ca2 O20 2.536188 1_555
Ca2 O24 2.543656 1_556
Ca3 O9 2.403346 1_545
Ca3 O3 2.411478 1_555
Ca3 O6 2.412950 1_555
Ca3 O11 2.469218 1_555
Ca3 O21 2.511469 1_555
Ca3 O4 2.526766 1_555
Ca3 O25 2.545130 1_555
Ca3 O19 2.600285 1_555
O0 Ti6 1.958137 1_555
O0 Ti3 2.109404 1_555
O0 Ti2 2.129614 1_455
O1 Ti3 1.852204 1_565
O1 Ti2 1.893706 1_555
O2 Ti7 1.958137 1_555
O2 Ti1 2.109404 1_555
O2 Ti0 2.129614 1_655
O3 Ti1 1.852204 1_545
O3 Ti0 1.893706 1_555
O4 Ti6 1.823384 1_555
O4 Zr2 2.256968 1_455
O5 Ti6 1.857173 1_555
O5 Zr3 2.200307 1_565
O6 Ti7 1.823384 1_555
O6 Zr0 2.256968 1_655
O7 Ti7 1.857173 1_555
O7 Zr1 2.200307 1_545
O8 Ti0 1.979695 1_555
O8 Zr3 2.101201 1_556
O9 Ti1 2.004290 1_555
O9 Zr2 2.048164 1_555
O10 Ti2 1.979695 1_555
O10 Zr1 2.101201 1_554
O11 Ti3 2.004290 1_555
O11 Zr0 2.048164 1_555
O12 Ti5 1.929607 1_545
O12 Ti0 2.019700 1_555
O12 Zr0 2.129952 1_555
O13 Ti1 1.918330 1_555
O13 Ti5 1.919440 1_655
O13 Zr1 2.163396 1_555
O14 Ti4 1.929607 1_565
O14 Ti2 2.019700 1_555
O14 Zr2 2.129952 1_555
O15 Ti3 1.918330 1_555
O15 Ti4 1.919440 1_455
O15 Zr3 2.163396 1_555
O16 Ti0 1.973545 1_555
O16 Ti5 2.018130 1_555
O16 Ti7 2.190734 1_555
O17 Ti7 1.909063 1_555
O17 Ti1 1.969653 1_555
O17 Ti5 1.981492 1_555
O18 Ti2 1.973545 1_555
O18 Ti4 2.018130 1_555
O18 Ti6 2.190734 1_555
O19 Ti6 1.909063 1_555
O19 Ti3 1.969653 1_555
O19 Ti4 1.981492 1_555
O20 Ti1 1.964497 1_555
O20 Zr3 2.145148 1_566
O20 Zr1 2.338742 1_555
O21 Ti0 1.955541 1_555
O21 Zr2 2.150504 1_455
O21 Zr0 2.356359 1_555
O22 Ti3 1.964497 1_555
O22 Zr1 2.145148 1_544
O22 Zr3 2.338742 1_555
O23 Ti2 1.955541 1_555
O23 Zr0 2.150504 1_655
O23 Zr2 2.356359 1_555
O24 Ti4 1.949605 1_555
O24 Zr1 2.133284 1_544
O24 Zr3 2.376135 1_655
O25 Ti4 1.936441 1_555
O25 Zr0 2.127627 1_655
O25 Zr2 2.392973 1_545
O26 Ti5 1.949605 1_555
O26 Zr3 2.133284 1_566
O26 Zr1 2.376135 1_455
O27 Ti5 1.936441 1_555
O27 Zr2 2.127627 1_455
O27 Zr0 2.392973 1_565
