# generated using pymatgen
data_Pu4Co
_symmetry_space_group_name_H-M   'P 1'
_cell_length_a   7.12472449
_cell_length_b   7.12472449
_cell_length_c   7.12472449
_cell_angle_alpha   60.00000000
_cell_angle_beta   60.00000000
_cell_angle_gamma   60.00000000
_symmetry_Int_Tables_number   1
_chemical_formula_structural   Pu4Co
_chemical_formula_sum   'Pu8 Co2'
_cell_volume   255.73444482
_cell_formula_units_Z   2
loop_
 _symmetry_equiv_pos_site_id
 _symmetry_equiv_pos_as_xyz
  1  'x, y, z'
loop_
 _atom_site_type_symbol
 _atom_site_label
 _atom_site_symmetry_multiplicity
 _atom_site_fract_x
 _atom_site_fract_y
 _atom_site_fract_z
 _atom_site_occupancy
  Pu  Pu0  1  0.38995800  0.38995800  0.38995800  1
  Pu  Pu1  1  0.38995800  0.38995800  0.83012500  1
  Pu  Pu2  1  0.38995800  0.83012500  0.38995800  1
  Pu  Pu3  1  0.86004200  0.86004200  0.41987500  1
  Pu  Pu4  1  0.86004200  0.86004200  0.86004200  1
  Pu  Pu5  1  0.83012500  0.38995800  0.38995800  1
  Pu  Pu6  1  0.86004200  0.41987500  0.86004200  1
  Pu  Pu7  1  0.41987500  0.86004200  0.86004200  1
  Co  Co0  1  0.00000000  0.00000000  0.00000000  1
  Co  Co1  1  0.25000000  0.25000000  0.25000000  1
loop_
_geom_bond_atom_site_label_1
_geom_bond_atom_site_label_2
_geom_bond_distance
_geom_bond_site_symmetry_2
Co0 Pu4 2.442539 1_444
Co0 Pu3 2.442544 1_445
Co0 Pu6 2.442544 1_454
Co0 Pu7 2.442544 1_544
Co1 Pu0 2.442539 1_555
Co1 Pu2 2.442544 1_545
Co1 Pu5 2.442544 1_455
Co1 Pu1 2.442544 1_554
