# generated using pymatgen
data_Dy4CdIr
_symmetry_space_group_name_H-M   'P 1'
_cell_length_a   9.57982082
_cell_length_b   9.57978214
_cell_length_c   9.57980919
_cell_angle_alpha   60.00015944
_cell_angle_beta   60.00033751
_cell_angle_gamma   60.00019648
_symmetry_Int_Tables_number   1
_chemical_formula_structural   Dy4CdIr
_chemical_formula_sum   'Dy16 Cd4 Ir4'
_cell_volume   621.66605714
_cell_formula_units_Z   4
loop_
 _symmetry_equiv_pos_site_id
 _symmetry_equiv_pos_as_xyz
  1  'x, y, z'
loop_
 _atom_site_type_symbol
 _atom_site_label
 _atom_site_symmetry_multiplicity
 _atom_site_fract_x
 _atom_site_fract_y
 _atom_site_fract_z
 _atom_site_occupancy
  Dy  Dy0  1  0.59875664  0.59876632  0.59875716  1
  Dy  Dy1  1  0.59874829  0.59875860  0.20372471  1
  Dy  Dy2  1  0.59875233  0.20372236  0.59875287  1
  Dy  Dy3  1  0.20372449  0.59875868  0.59874867  1
  Dy  Dy4  1  0.05953571  0.44047765  0.44047563  1
  Dy  Dy5  1  0.44047422  0.05951701  0.05953021  1
  Dy  Dy6  1  0.44047671  0.05952889  0.44047673  1
  Dy  Dy7  1  0.05952416  0.44047482  0.05952446  1
  Dy  Dy8  1  0.44047569  0.44047766  0.05953577  1
  Dy  Dy9  1  0.05952956  0.05951730  0.44047456  1
  Dy  Dy10  1  0.18845435  0.81155261  0.81155029  1
  Dy  Dy11  1  0.81154645  0.18844704  0.18845443  1
  Dy  Dy12  1  0.81155347  0.18844957  0.81155406  1
  Dy  Dy13  1  0.18845277  0.81154528  0.18845328  1
  Dy  Dy14  1  0.81154977  0.81155274  0.18845480  1
  Dy  Dy15  1  0.18845434  0.18844675  0.81154690  1
  Cd  Cd0  1  0.83036361  0.83036428  0.83036427  1
  Cd  Cd1  1  0.83037624  0.83037561  0.50887283  1
  Cd  Cd2  1  0.83038312  0.50889004  0.83037562  1
  Cd  Cd3  1  0.50887265  0.83037517  0.83037687  1
  Ir  Ir0  1  0.39131243  0.39131569  0.39131217  1
  Ir  Ir1  1  0.39131062  0.39131278  0.82606081  1
  Ir  Ir2  1  0.39131091  0.82605939  0.39131139  1
  Ir  Ir3  1  0.82606047  0.39131276  0.39131051  1
loop_
_geom_bond_atom_site_label_1
_geom_bond_atom_site_label_2
_geom_bond_distance
_geom_bond_site_symmetry_2
Dy0 Ir2 2.816880 1_555
Dy0 Ir1 2.816942 1_555
Dy0 Ir3 2.816946 1_555
Dy1 Ir0 2.816798 1_555
Dy1 Ir2 2.816860 1_555
Dy1 Ir3 2.816934 1_555
Dy2 Ir0 2.816806 1_555
Dy2 Ir1 2.816936 1_555
Dy2 Ir3 2.816938 1_555
Dy3 Ir0 2.816802 1_555
Dy3 Ir2 2.816857 1_555
Dy3 Ir1 2.816935 1_555
Dy4 Ir0 2.788122 1_555
Dy4 Ir3 2.788363 1_455
Dy5 Ir2 2.788166 1_545
Dy5 Ir1 2.788288 1_554
Dy6 Ir0 2.788190 1_555
Dy6 Ir2 2.788310 1_545
Dy7 Ir3 2.788223 1_455
Dy7 Ir1 2.788228 1_554
Dy8 Ir0 2.788115 1_555
Dy8 Ir1 2.788358 1_554
Dy9 Ir2 2.788172 1_545
Dy9 Ir3 2.788287 1_455
Dy10 Ir1 3.448197 1_555
Dy10 Ir2 3.448214 1_555
Dy11 Ir3 3.448150 1_555
Dy11 Ir0 3.448177 1_555
Dy12 Ir3 3.448246 1_555
Dy12 Ir1 3.448247 1_555
Dy13 Ir2 3.448109 1_555
Dy13 Ir0 3.448115 1_555
Dy14 Ir3 3.448197 1_555
Dy14 Ir2 3.448218 1_555
Dy15 Ir1 3.448155 1_555
Dy15 Ir0 3.448178 1_555
Cd0 Cd2 3.079505 1_555
Cd0 Cd1 3.079712 1_555
Cd0 Cd3 3.079713 1_555
Cd0 Dy12 3.260157 1_565
Cd0 Dy14 3.260196 1_556
Cd0 Dy10 3.260202 1_655
Cd0 Dy2 3.419065 1_565
Cd0 Dy1 3.419076 1_556
Cd0 Dy3 3.419081 1_655
Cd0 Dy7 3.465494 1_656
Cd0 Dy9 3.465499 1_665
Cd0 Dy5 3.465499 1_566
Cd1 Cd2 3.079856 1_555
Cd1 Cd3 3.079963 1_555
Cd1 Dy14 3.259870 1_555
Cd1 Dy11 3.259897 1_565
Cd1 Dy13 3.259946 1_655
Cd1 Dy0 3.419035 1_555
Cd1 Dy2 3.419036 1_565
Cd1 Dy3 3.419039 1_655
Cd1 Dy9 3.465418 1_665
Cd1 Dy4 3.465426 1_655
Cd1 Dy6 3.465445 1_565
Cd2 Cd3 3.079894 1_555
Cd2 Dy15 3.260008 1_655
Cd2 Dy11 3.260043 1_556
Cd2 Dy12 3.260087 1_555
Cd2 Dy3 3.418958 1_655
Cd2 Dy1 3.419017 1_556
Cd2 Dy0 3.419198 1_555
Cd2 Dy7 3.465306 1_656
Cd2 Dy4 3.465515 1_655
Cd2 Dy8 3.465579 1_556
Cd3 Dy10 3.259875 1_555
Cd3 Dy15 3.259901 1_565
Cd3 Dy13 3.259946 1_556
Cd3 Dy1 3.419030 1_556
Cd3 Dy0 3.419032 1_555
Cd3 Dy2 3.419037 1_565
Cd3 Dy5 3.465417 1_566
Cd3 Dy8 3.465420 1_556
Cd3 Dy6 3.465444 1_565
