# generated using pymatgen
data_Ga2CuAg(TeSe)2
_symmetry_space_group_name_H-M   'P 1'
_cell_length_a   7.27427263
_cell_length_b   7.27427263
_cell_length_c   6.03968418
_cell_angle_alpha   65.59244592
_cell_angle_beta   65.59244592
_cell_angle_gamma   107.90994023
_symmetry_Int_Tables_number   1
_chemical_formula_structural   Ga2CuAg(TeSe)2
_chemical_formula_sum   'Ga2 Cu1 Ag1 Te2 Se2'
_cell_volume   216.49726509
_cell_formula_units_Z   1
loop_
 _symmetry_equiv_pos_site_id
 _symmetry_equiv_pos_as_xyz
  1  'x, y, z'
loop_
 _atom_site_type_symbol
 _atom_site_label
 _atom_site_symmetry_multiplicity
 _atom_site_fract_x
 _atom_site_fract_y
 _atom_site_fract_z
 _atom_site_occupancy
  Ga  Ga0  1  0.74106000  0.25894000  0.50000000  1
  Ga  Ga1  1  0.50883300  0.49116700  0.00000000  1
  Cu  Cu0  1  0.00735000  0.99265000  0.00000000  1
  Ag  Ag0  1  0.24152200  0.75847800  0.50000000  1
  Te  Te0  1  0.64434600  0.88122200  0.48932900  1
  Te  Te1  1  0.11877800  0.35565400  0.51067100  1
  Se  Se0  1  0.38236000  0.14425000  0.97154800  1
  Se  Se1  1  0.85575000  0.61764000  0.02845200  1
loop_
_geom_bond_atom_site_label_1
_geom_bond_atom_site_label_2
_geom_bond_distance
_geom_bond_site_symmetry_2
Ga0 Se0 2.484229 1_555
Ga0 Se1 2.484229 1_555
Ga0 Te1 2.653953 1_655
Ga0 Te0 2.653953 1_545
Ga1 Se0 2.511064 1_554
Ga1 Se1 2.511064 1_555
Ga1 Te1 2.658908 1_555
Ga1 Te0 2.658908 1_554
Cu0 Se0 2.508578 1_564
Cu0 Se1 2.508578 1_455
Cu0 Te0 2.572604 1_455
Cu0 Te1 2.572604 1_564
Ag0 Se1 2.690453 1_456
Ag0 Se0 2.690453 1_564
Ag0 Te0 2.752263 1_555
Ag0 Te1 2.752263 1_555
