# generated using pymatgen
data_Ba4(Sn3Bi)3
_symmetry_space_group_name_H-M   'P 1'
_cell_length_a   7.42606764
_cell_length_b   7.42607028
_cell_length_c   22.29252675
_cell_angle_alpha   89.99995605
_cell_angle_beta   90.00002375
_cell_angle_gamma   120.00010433
_symmetry_Int_Tables_number   1
_chemical_formula_structural   Ba4(Sn3Bi)3
_chemical_formula_sum   'Ba8 Sn18 Bi6'
_cell_volume   1064.65139456
_cell_formula_units_Z   2
loop_
 _symmetry_equiv_pos_site_id
 _symmetry_equiv_pos_as_xyz
  1  'x, y, z'
loop_
 _atom_site_type_symbol
 _atom_site_label
 _atom_site_symmetry_multiplicity
 _atom_site_fract_x
 _atom_site_fract_y
 _atom_site_fract_z
 _atom_site_occupancy
  Ba  Ba0  1  0.33333247  0.66666724  0.13574117  1
  Ba  Ba1  1  0.66666706  0.33333463  0.86424944  1
  Ba  Ba2  1  0.66666661  0.33333449  0.63579986  1
  Ba  Ba3  1  0.33333168  0.66666579  0.36420552  1
  Ba  Ba4  1  0.00000048  0.00000047  0.99999086  1
  Ba  Ba5  1  0.00000030  -0.00000081  0.50000569  1
  Ba  Ba6  1  -0.00000072  -0.00000096  0.24997054  1
  Ba  Ba7  1  0.00000009  0.00000044  0.75002673  1
  Sn  Sn0  1  0.19727616  0.39455178  0.62464159  1
  Sn  Sn1  1  0.80272282  0.60544536  0.37536027  1
  Sn  Sn2  1  0.60544854  0.80272446  0.62464159  1
  Sn  Sn3  1  0.80271063  0.60542113  0.12465102  1
  Sn  Sn4  1  0.39455309  0.19727477  0.37536004  1
  Sn  Sn5  1  0.19729330  0.39458706  0.87535459  1
  Sn  Sn6  1  0.19727593  0.80272426  0.62464146  1
  Sn  Sn7  1  0.39457925  0.19728998  0.12465092  1
  Sn  Sn8  1  0.80272315  0.19727566  0.37536003  1
  Sn  Sn9  1  0.60541291  0.80270673  0.87535468  1
  Sn  Sn10  1  0.80271001  0.19728979  0.12465082  1
  Sn  Sn11  1  0.19729412  0.80270708  0.87535471  1
  Sn  Sn12  1  0.53145298  0.06290798  0.24999501  1
  Sn  Sn13  1  0.46854215  0.93708439  0.75000273  1
  Sn  Sn14  1  0.93709124  0.46854594  0.24999505  1
  Sn  Sn15  1  0.06291613  0.53145808  0.75000262  1
  Sn  Sn16  1  0.53145386  0.46854549  0.24999507  1
  Sn  Sn17  1  0.46854180  0.53145823  0.75000258  1
  Bi  Bi0  1  0.49999982  0.99999885  -0.00000247  1
  Bi  Bi1  1  0.00000283  0.50000156  -0.00000229  1
  Bi  Bi2  1  0.50000045  0.99999958  0.50000010  1
  Bi  Bi3  1  0.49999945  0.50000186  -0.00000242  1
  Bi  Bi4  1  0.00000084  0.49999972  0.50000016  1
  Bi  Bi5  1  0.49999957  0.49999997  0.50000032  1
loop_
_geom_bond_atom_site_label_1
_geom_bond_atom_site_label_2
_geom_bond_distance
_geom_bond_site_symmetry_2
Ba0 Sn12 3.602918 1_565
Ba0 Sn14 3.602919 1_455
Ba0 Sn16 3.602930 1_555
Ba0 Bi1 3.708436 1_555
Ba0 Bi0 3.708446 1_555
Ba0 Bi3 3.708452 1_555
Ba0 Sn3 3.742033 1_455
Ba0 Sn10 3.742037 1_455
Ba0 Sn10 3.742038 1_565
Ba0 Sn7 3.742039 1_565
Ba0 Sn7 3.742050 1_555
Ba0 Sn3 3.742053 1_555
Ba1 Sn15 3.602844 1_655
Ba1 Sn17 3.602845 1_555
Ba1 Sn13 3.602849 1_545
Ba1 Bi0 3.708542 1_546
Ba1 Bi3 3.708544 1_556
Ba1 Bi1 3.708546 1_656
Ba1 Sn11 3.742064 1_655
Ba1 Sn9 3.742067 1_555
Ba1 Sn11 3.742068 1_545
Ba1 Sn5 3.742069 1_655
Ba1 Sn5 3.742070 1_555
Ba1 Sn9 3.742077 1_545
Ba2 Sn17 3.602151 1_555
Ba2 Sn15 3.602151 1_655
Ba2 Sn13 3.602155 1_545
Ba2 Bi5 3.709468 1_555
Ba2 Bi4 3.709476 1_655
Ba2 Bi2 3.709481 1_545
Ba2 Sn6 3.742117 1_655
Ba2 Sn0 3.742118 1_555
Ba2 Sn2 3.742119 1_555
Ba2 Sn6 3.742124 1_545
Ba2 Sn0 3.742130 1_655
Ba2 Sn2 3.742133 1_545
Ba3 Sn14 3.602231 1_455
Ba3 Sn12 3.602240 1_565
Ba3 Sn16 3.602245 1_555
Ba3 Bi4 3.709371 1_555
Ba3 Bi2 3.709383 1_555
Ba3 Bi5 3.709386 1_555
Ba3 Sn8 3.742109 1_455
Ba3 Sn4 3.742109 1_565
Ba3 Sn1 3.742110 1_455
Ba3 Sn8 3.742119 1_565
Ba3 Sn1 3.742132 1_555
Ba3 Sn4 3.742136 1_555
Ba4 Bi3 3.713027 1_446
Ba4 Bi3 3.713030 1_556
Ba4 Bi0 3.713033 1_446
Ba4 Bi1 3.713035 1_556
Ba4 Bi0 3.713035 1_546
Ba4 Bi1 3.713036 1_546
Ba4 Sn5 3.762908 1_555
Ba4 Sn9 3.762912 1_445
Ba4 Sn11 3.762913 1_545
Ba4 Sn7 3.763267 1_556
Ba4 Sn3 3.763270 1_446
Ba4 Sn10 3.763274 1_456
Ba5 Bi5 3.713028 1_445
Ba5 Bi5 3.713029 1_555
Ba5 Bi4 3.713033 1_545
Ba5 Bi2 3.713033 1_545
Ba5 Bi2 3.713034 1_445
Ba5 Bi4 3.713037 1_555
Ba5 Sn6 3.762746 1_545
Ba5 Sn2 3.762752 1_445
Ba5 Sn0 3.762757 1_555
Ba5 Sn4 3.762917 1_555
Ba5 Sn1 3.762919 1_445
Ba5 Sn8 3.762922 1_455
Ba6 Sn16 3.735001 1_445
Ba6 Sn14 3.735004 1_445
Ba6 Sn12 3.735004 1_555
Ba6 Sn16 3.735008 1_555
Ba6 Sn12 3.735017 1_455
Ba6 Sn14 3.735019 1_455
Ba6 Sn3 3.774134 1_445
Ba6 Sn7 3.774142 1_555
Ba6 Sn10 3.774146 1_455
Ba6 Sn8 3.775182 1_455
Ba6 Sn4 3.775183 1_555
Ba6 Sn1 3.775185 1_445
Ba7 Sn17 3.735009 1_555
Ba7 Sn17 3.735012 1_445
Ba7 Sn15 3.735013 1_555
Ba7 Sn13 3.735014 1_445
Ba7 Sn13 3.735017 1_545
Ba7 Sn15 3.735020 1_545
Ba7 Sn5 3.774309 1_555
Ba7 Sn9 3.774311 1_445
Ba7 Sn11 3.774314 1_545
Ba7 Sn0 3.775099 1_555
Ba7 Sn2 3.775101 1_445
Ba7 Sn6 3.775109 1_545
Sn0 Sn2 3.031113 1_555
Sn0 Sn6 3.031118 1_555
Sn0 Sn17 3.294452 1_555
Sn0 Sn15 3.294458 1_555
Sn1 Sn4 3.031095 1_555
Sn1 Sn8 3.031098 1_555
Sn1 Sn14 3.294542 1_555
Sn1 Sn16 3.294543 1_555
Sn2 Sn6 3.031117 1_555
Sn3 Sn7 3.030806 1_555
Sn4 Sn8 3.031095 1_555
Sn5 Sn9 3.030720 1_555
Sn10 Sn7 3.030807 1_555
Sn10 Sn3 3.030810 1_555
Sn10 Sn14 3.294103 1_555
Sn10 Sn12 3.294104 1_555
Sn11 Sn9 3.030719 1_555
Sn11 Sn5 3.030725 1_555
Sn11 Sn13 3.294221 1_555
Sn11 Sn15 3.294228 1_555
Sn12 Sn16 3.012289 1_555
Sn12 Sn14 3.012292 1_555
Sn12 Sn7 3.294099 1_555
Sn12 Sn4 3.294534 1_555
Sn12 Sn8 3.294543 1_555
Sn13 Sn15 3.012203 1_555
Sn13 Sn17 3.012207 1_555
Sn13 Sn9 3.294222 1_555
Sn13 Sn6 3.294459 1_555
Sn13 Sn2 3.294460 1_555
Sn14 Sn16 3.012289 1_555
Sn14 Sn3 3.294098 1_555
Sn14 Sn8 3.294542 1_555
Sn15 Sn17 3.012203 1_555
Sn15 Sn5 3.294222 1_555
Sn15 Sn6 3.294456 1_555
Sn16 Sn7 3.294100 1_555
Sn16 Sn3 3.294101 1_555
Sn16 Sn4 3.294544 1_555
Sn17 Sn5 3.294223 1_555
Sn17 Sn9 3.294226 1_555
Sn17 Sn2 3.294453 1_555
Bi0 Sn11 3.409816 1_554
Bi0 Sn9 3.409818 1_554
Bi0 Sn10 3.410020 1_565
Bi0 Sn7 3.410030 1_565
Bi0 Bi1 3.713007 1_555
Bi0 Bi3 3.713011 1_555
Bi0 Bi1 3.713050 1_665
Bi0 Bi3 3.713059 1_565
Bi1 Sn11 3.409817 1_554
Bi1 Sn5 3.409821 1_554
Bi1 Sn10 3.410023 1_455
Bi1 Sn3 3.410030 1_455
Bi1 Bi3 3.713008 1_555
Bi1 Bi3 3.713060 1_455
Bi2 Sn4 3.409810 1_565
Bi2 Sn8 3.409810 1_565
Bi2 Sn2 3.409838 1_555
Bi2 Sn6 3.409839 1_555
Bi2 Bi4 3.713027 1_555
Bi2 Bi5 3.713029 1_555
Bi2 Bi4 3.713031 1_665
Bi2 Bi5 3.713041 1_565
Bi3 Sn9 3.409814 1_554
Bi3 Sn5 3.409820 1_554
Bi3 Sn7 3.410027 1_555
Bi3 Sn3 3.410027 1_555
Bi4 Sn1 3.409812 1_455
Bi4 Sn8 3.409818 1_455
Bi4 Sn0 3.409837 1_555
Bi4 Sn6 3.409839 1_555
Bi4 Bi5 3.713023 1_555
Bi4 Bi5 3.713044 1_455
Bi5 Sn1 3.409814 1_555
Bi5 Sn4 3.409826 1_555
Bi5 Sn0 3.409834 1_555
Bi5 Sn2 3.409840 1_555
