# generated using pymatgen
data_CaFe2CuO5
_symmetry_space_group_name_H-M   'P 1'
_cell_length_a   6.07828100
_cell_length_b   6.07985985
_cell_length_c   27.37704439
_cell_angle_alpha   89.87318198
_cell_angle_beta   90.00000000
_cell_angle_gamma   60.00858450
_symmetry_Int_Tables_number   1
_chemical_formula_structural   CaFe2CuO5
_chemical_formula_sum   'Ca8 Fe16 Cu8 O40'
_cell_volume   876.24928552
_cell_formula_units_Z   8
loop_
 _symmetry_equiv_pos_site_id
 _symmetry_equiv_pos_as_xyz
  1  'x, y, z'
loop_
 _atom_site_type_symbol
 _atom_site_label
 _atom_site_symmetry_multiplicity
 _atom_site_fract_x
 _atom_site_fract_y
 _atom_site_fract_z
 _atom_site_occupancy
  Ca  Ca0  1  0.17016000  0.49701700  0.14571400  1
  Ca  Ca1  1  0.66595900  0.50203100  0.34962400  1
  Ca  Ca2  1  0.83201100  0.50203100  0.84962400  1
  Ca  Ca3  1  0.33282300  0.49701700  0.64571400  1
  Ca  Ca4  1  0.83955900  0.16190100  0.15160500  1
  Ca  Ca5  1  0.99915900  0.83938800  0.35169800  1
  Ca  Ca6  1  0.16145400  0.83938800  0.85169800  1
  Ca  Ca7  1  0.99854000  0.16190100  0.65160500  1
  Fe  Fe0  1  0.66874300  0.99721700  0.25037900  1
  Fe  Fe1  1  0.33404000  0.99721700  0.75037900  1
  Fe  Fe2  1  0.33573400  0.49447800  0.45823900  1
  Fe  Fe3  1  0.82722300  0.50655600  0.04221300  1
  Fe  Fe4  1  0.66622200  0.50655600  0.54221300  1
  Fe  Fe5  1  0.16978800  0.49447800  0.95823900  1
  Fe  Fe6  1  0.00698500  0.16628400  0.45804300  1
  Fe  Fe7  1  0.17225100  0.83581200  0.04194900  1
  Fe  Fe8  1  0.99193700  0.83581200  0.54194900  1
  Fe  Fe9  1  0.82673100  0.16628400  0.95804300  1
  Fe  Fe10  1  0.33813600  0.16564500  0.36358200  1
  Fe  Fe11  1  0.50250100  0.83680800  0.13765100  1
  Fe  Fe12  1  0.66069000  0.83680800  0.63765100  1
  Fe  Fe13  1  0.49621900  0.16564500  0.86358200  1
  Fe  Fe14  1  0.16816600  0.50199200  0.25337500  1
  Fe  Fe15  1  0.32984300  0.50199200  0.75337500  1
  Cu  Cu0  1  0.66277700  0.83549900  0.45561000  1
  Cu  Cu1  1  0.50414600  0.16239400  0.04455700  1
  Cu  Cu2  1  0.33346000  0.16239400  0.54455700  1
  Cu  Cu3  1  0.50172400  0.83549900  0.95561000  1
  Cu  Cu4  1  0.16522200  0.00105300  0.25047300  1
  Cu  Cu5  1  0.83372500  0.00105300  0.75047300  1
  Cu  Cu6  1  0.66988100  0.50050800  0.24551300  1
  Cu  Cu7  1  0.82961100  0.50050800  0.74551300  1
  O  O0  1  0.49920800  0.33691800  0.20980100  1
  O  O1  1  0.83734700  0.66139900  0.29042400  1
  O  O2  1  0.50125400  0.66139900  0.79042400  1
  O  O3  1  0.16387400  0.33691800  0.70980100  1
  O  O4  1  0.66808200  0.47278800  0.46282300  1
  O  O5  1  0.13579700  0.53202600  0.03731200  1
  O  O6  1  0.33217700  0.53202600  0.53731200  1
  O  O7  1  0.85913000  0.47278800  0.96282300  1
  O  O8  1  0.49709200  0.84370900  0.20832700  1
  O  O9  1  0.34466900  0.17178600  0.29343900  1
  O  O10  1  0.48354500  0.17178600  0.79343900  1
  O  O11  1  0.65919900  0.84370900  0.70832700  1
  O  O12  1  0.32272300  0.68090500  0.29028600  1
  O  O13  1  0.02170700  0.31766900  0.21012400  1
  O  O14  1  0.66062400  0.31766900  0.71012400  1
  O  O15  1  0.99637200  0.68090500  0.79028600  1
  O  O16  1  0.82475400  0.15867800  0.29082000  1
  O  O17  1  0.98385200  0.81909900  0.20796900  1
  O  O18  1  0.19704900  0.81909900  0.70796900  1
  O  O19  1  0.01656900  0.15867800  0.79082000  1
  O  O20  1  0.50762100  0.12560200  0.11395900  1
  O  O21  1  0.62985700  0.87084100  0.38605300  1
  O  O22  1  0.49930200  0.87084100  0.88605300  1
  O  O23  1  0.36677700  0.12560200  0.61395900  1
  O  O24  1  0.86330000  0.16769500  0.03601000  1
  O  O25  1  0.02963700  0.83293700  0.46257400  1
  O  O26  1  0.13742600  0.83293700  0.96257400  1
  O  O27  1  0.96900500  0.16769500  0.53601000  1
  O  O28  1  0.33356300  0.46638000  0.38686100  1
  O  O29  1  0.79563000  0.53278600  0.11351800  1
  O  O30  1  0.67158400  0.53278600  0.61351800  1
  O  O31  1  0.20005600  0.46638000  0.88686100  1
  O  O32  1  0.20564400  0.83487500  0.11296900  1
  O  O33  1  0.03625400  0.17138100  0.38688000  1
  O  O34  1  0.79236500  0.17138100  0.88688000  1
  O  O35  1  0.95948200  0.83487500  0.61296900  1
  O  O36  1  0.49996100  0.80574200  0.02708700  1
  O  O37  1  0.30937700  0.19219900  0.47253600  1
  O  O38  1  0.49842400  0.19219900  0.97253600  1
  O  O39  1  0.69429600  0.80574200  0.52708700  1
loop_
_geom_bond_atom_site_label_1
_geom_bond_atom_site_label_2
_geom_bond_distance
_geom_bond_site_symmetry_2
Ca0 O20 2.332465 1_555
Ca0 O32 2.346142 1_555
Ca0 O29 2.347524 1_455
Ca0 O17 2.412394 1_455
Ca0 O0 2.464165 1_555
Ca0 O13 2.467344 1_555
Ca1 O21 2.364052 1_555
Ca1 O28 2.367504 1_555
Ca1 O33 2.369587 1_655
Ca1 O1 2.377598 1_555
Ca1 O16 2.425211 1_555
Ca1 O12 2.428616 1_555
Ca2 O22 2.364055 1_555
Ca2 O31 2.367493 1_655
Ca2 O34 2.369590 1_555
Ca2 O2 2.377602 1_555
Ca2 O19 2.425211 1_655
Ca2 O15 2.428612 1_555
Ca3 O23 2.332465 1_555
Ca3 O35 2.346138 1_455
Ca3 O30 2.347524 1_555
Ca3 O18 2.412394 1_555
Ca3 O3 2.464165 1_555
Ca3 O14 2.467344 1_555
Ca4 O32 2.368466 1_645
Ca4 O20 2.372307 1_555
Ca4 O29 2.372951 1_555
Ca4 O17 2.377488 1_545
Ca4 O13 2.396725 1_655
Ca4 O0 2.399405 1_555
Ca5 O33 2.348697 1_665
Ca5 O21 2.351936 1_555
Ca5 O28 2.362877 1_655
Ca5 O16 2.366067 1_565
Ca5 O12 2.394937 1_655
Ca5 O1 2.454485 1_555
Ca6 O34 2.348700 1_465
Ca6 O22 2.351931 1_555
Ca6 O31 2.362882 1_555
Ca6 O19 2.366067 1_565
Ca6 O15 2.394941 1_455
Ca6 O2 2.454481 1_555
Ca7 O35 2.368463 1_545
Ca7 O23 2.372307 1_655
Ca7 O30 2.372951 1_555
Ca7 O18 2.377488 1_645
Ca7 O14 2.396725 1_555
Ca7 O3 2.399406 1_655
Fe0 O16 2.006026 1_565
Fe0 O17 2.030074 1_555
Fe0 O8 2.064773 1_555
Fe0 O9 2.076475 1_565
Fe0 O1 2.078230 1_555
Fe0 O0 2.103263 1_565
Fe1 O19 2.006021 1_565
Fe1 O18 2.030074 1_555
Fe1 O11 2.064773 1_555
Fe1 O10 2.076475 1_565
Fe1 O2 2.078230 1_555
Fe1 O3 2.103263 1_565
Fe2 O4 1.961520 1_555
Fe2 O37 1.961528 1_555
Fe2 O28 1.962567 1_555
Fe2 O25 1.970700 1_555
Fe2 O6 2.176265 1_555
Fe3 O36 1.953562 1_555
Fe3 O29 1.960572 1_555
Fe3 O5 1.962176 1_655
Fe3 O24 1.967574 1_555
Fe3 O7 2.183088 1_554
Fe4 O39 1.953555 1_555
Fe4 O30 1.960572 1_555
Fe4 O6 1.962182 1_555
Fe4 O27 1.967572 1_555
Fe4 O4 2.183089 1_555
Fe5 O7 1.961520 1_455
Fe5 O38 1.961528 1_555
Fe5 O31 1.962567 1_555
Fe5 O26 1.970700 1_555
Fe5 O5 2.176265 1_556
Fe6 O33 1.957924 1_555
Fe6 O37 1.962240 1_555
Fe6 O25 1.965142 1_545
Fe6 O4 1.973957 1_455
Fe6 O27 2.146528 1_455
Fe7 O36 1.950116 1_555
Fe7 O32 1.954583 1_555
Fe7 O24 1.958253 1_465
Fe7 O5 1.971475 1_555
Fe7 O26 2.184294 1_554
Fe8 O39 1.950122 1_555
Fe8 O35 1.954583 1_555
Fe8 O27 1.958253 1_565
Fe8 O6 1.971475 1_655
Fe8 O25 2.184294 1_655
Fe9 O34 1.957924 1_555
Fe9 O38 1.962240 1_555
Fe9 O26 1.965142 1_645
Fe9 O7 1.973957 1_555
Fe9 O24 2.146528 1_556
Fe10 O21 1.884921 1_545
Fe10 O9 1.921385 1_555
Fe10 O28 1.924689 1_555
Fe10 O33 1.926425 1_555
Fe11 O20 1.885255 1_565
Fe11 O32 1.932294 1_555
Fe11 O29 1.934056 1_555
Fe11 O8 1.935371 1_555
Fe12 O23 1.885252 1_565
Fe12 O35 1.932305 1_555
Fe12 O30 1.934053 1_555
Fe12 O11 1.935371 1_555
Fe13 O22 1.884921 1_545
Fe13 O10 1.921385 1_555
Fe13 O31 1.924692 1_555
Fe13 O34 1.926425 1_555
Fe14 O1 2.016799 1_455
Fe14 O12 2.028156 1_555
Fe14 O9 2.054625 1_555
Fe14 O17 2.085050 1_455
Fe14 O13 2.110371 1_555
Fe14 O0 2.113177 1_555
Fe15 O2 2.016795 1_555
Fe15 O15 2.028160 1_455
Fe15 O10 2.054625 1_555
Fe15 O18 2.085049 1_555
Fe15 O14 2.110367 1_555
Fe15 O3 2.113181 1_555
Cu0 O21 1.915108 1_555
Cu0 O39 1.965298 1_555
Cu0 O4 2.197741 1_555
Cu0 O37 2.208910 1_565
Cu0 O25 2.230294 1_655
Cu1 O20 1.911534 1_555
Cu1 O38 1.978346 1_554
Cu1 O24 2.211731 1_555
Cu1 O36 2.234069 1_545
Cu1 O5 2.251736 1_555
Cu2 O23 1.911534 1_555
Cu2 O37 1.978346 1_555
Cu2 O27 2.211731 1_455
Cu2 O39 2.234066 1_545
Cu2 O6 2.251736 1_555
Cu3 O22 1.915108 1_555
Cu3 O36 1.965298 1_556
Cu3 O7 2.197741 1_555
Cu3 O38 2.208911 1_565
Cu3 O26 2.230294 1_555
Cu4 O13 1.999634 1_555
Cu4 O12 2.005213 1_545
Cu4 O8 2.095528 1_545
Cu4 O16 2.107875 1_455
Cu4 O9 2.188188 1_555
Cu4 O17 2.240113 1_445
Cu5 O14 1.999634 1_555
Cu5 O15 2.005213 1_545
Cu5 O11 2.095528 1_545
Cu5 O19 2.107879 1_655
Cu5 O10 2.188188 1_555
Cu5 O18 2.240113 1_645
Cu6 O0 2.014236 1_555
Cu6 O8 2.071978 1_555
Cu6 O13 2.091823 1_655
Cu6 O1 2.122620 1_555
Cu6 O16 2.185546 1_555
Cu6 O12 2.202324 1_555
Cu7 O3 2.014236 1_655
Cu7 O11 2.071978 1_555
Cu7 O14 2.091823 1_555
Cu7 O2 2.122620 1_555
Cu7 O19 2.185546 1_655
Cu7 O15 2.202324 1_555
