# generated using pymatgen
data_Zr2InAu2
_symmetry_space_group_name_H-M   'P 1'
_cell_length_a   7.64674300
_cell_length_b   7.64674300
_cell_length_c   3.60755600
_cell_angle_alpha   90.00000000
_cell_angle_beta   90.00000000
_cell_angle_gamma   90.00000000
_symmetry_Int_Tables_number   1
_chemical_formula_structural   Zr2InAu2
_chemical_formula_sum   'Zr4 In2 Au4'
_cell_volume   210.94346219
_cell_formula_units_Z   2
loop_
 _symmetry_equiv_pos_site_id
 _symmetry_equiv_pos_as_xyz
  1  'x, y, z'
loop_
 _atom_site_type_symbol
 _atom_site_label
 _atom_site_symmetry_multiplicity
 _atom_site_fract_x
 _atom_site_fract_y
 _atom_site_fract_z
 _atom_site_occupancy
  Zr  Zr0  1  0.17046400  0.32953600  0.00000000  1
  Zr  Zr1  1  0.82953600  0.67046400  0.00000000  1
  Zr  Zr2  1  0.67046400  0.17046400  0.00000000  1
  Zr  Zr3  1  0.32953600  0.82953600  0.00000000  1
  In  In0  1  0.00000000  0.00000000  0.50000000  1
  In  In1  1  0.50000000  0.50000000  0.50000000  1
  Au  Au0  1  0.37115700  0.12884300  0.50000000  1
  Au  Au1  1  0.62884300  0.87115700  0.50000000  1
  Au  Au2  1  0.87115700  0.37115700  0.50000000  1
  Au  Au3  1  0.12884300  0.62884300  0.50000000  1
loop_
_geom_bond_atom_site_label_1
_geom_bond_atom_site_label_2
_geom_bond_distance
_geom_bond_site_symmetry_2
In0 Zr0 3.361918 1_556
In0 Zr0 3.361918 1_555
In0 Zr2 3.361918 1_456
In0 Zr2 3.361918 1_455
In0 Zr3 3.361918 1_546
In0 Zr3 3.361918 1_545
In0 Zr1 3.361918 1_445
In0 Zr1 3.361918 1_446
In1 Zr3 3.361918 1_555
In1 Zr3 3.361918 1_556
In1 Zr1 3.361918 1_555
In1 Zr1 3.361918 1_556
In1 Zr2 3.361918 1_555
In1 Zr2 3.361918 1_556
In1 Zr0 3.361918 1_555
In1 Zr0 3.361918 1_556
Au0 Au1 2.786649 1_545
Au0 Zr0 2.822039 1_555
Au0 Zr0 2.822039 1_556
Au0 Zr3 2.931410 1_546
Au0 Zr3 2.931410 1_545
Au0 Zr2 2.931410 1_556
Au0 Zr2 2.931410 1_555
Au0 In0 3.004285 1_555
Au0 In1 3.004285 1_555
Au1 Zr1 2.822039 1_555
Au1 Zr1 2.822039 1_556
Au1 Zr3 2.931410 1_555
Au1 Zr3 2.931410 1_556
Au1 Zr2 2.931410 1_566
Au1 Zr2 2.931410 1_565
Au1 In1 3.004285 1_555
Au1 In0 3.004285 1_665
Au2 Au3 2.786649 1_655
Au2 Zr2 2.822039 1_556
Au2 Zr2 2.822039 1_555
Au2 Zr0 2.931410 1_655
Au2 Zr0 2.931410 1_656
Au2 Zr1 2.931410 1_555
Au2 Zr1 2.931410 1_556
Au2 In0 3.004285 1_655
Au2 In1 3.004285 1_555
Au3 Zr3 2.822039 1_555
Au3 Zr3 2.822039 1_556
Au3 Zr0 2.931410 1_555
Au3 Zr0 2.931410 1_556
Au3 Zr1 2.931410 1_455
Au3 Zr1 2.931410 1_456
Au3 In0 3.004285 1_565
Au3 In1 3.004285 1_555
