# generated using pymatgen
data_MgV4O9
_symmetry_space_group_name_H-M   'P 1'
_cell_length_a   4.99781900
_cell_length_b   8.29526000
_cell_length_c   8.29526000
_cell_angle_alpha   90.00000000
_cell_angle_beta   90.00000000
_cell_angle_gamma   90.00000000
_symmetry_Int_Tables_number   1
_chemical_formula_structural   MgV4O9
_chemical_formula_sum   'Mg2 V8 O18'
_cell_volume   343.90661481
_cell_formula_units_Z   2
loop_
 _symmetry_equiv_pos_site_id
 _symmetry_equiv_pos_as_xyz
  1  'x, y, z'
loop_
 _atom_site_type_symbol
 _atom_site_label
 _atom_site_symmetry_multiplicity
 _atom_site_fract_x
 _atom_site_fract_y
 _atom_site_fract_z
 _atom_site_occupancy
  Mg  Mg0  1  0.16018600  0.25000000  0.25000000  1
  Mg  Mg1  1  0.83981500  0.75000000  0.74999900  1
  V  V0  1  0.63146000  0.53203500  0.34028100  1
  V  V1  1  0.36854100  0.84028000  0.46796600  1
  V  V2  1  0.63146000  0.34028000  0.96796600  1
  V  V3  1  0.36854100  0.03203400  0.84028000  1
  V  V4  1  0.63146000  0.96796600  0.15971900  1
  V  V5  1  0.63146000  0.15972000  0.53203500  1
  V  V6  1  0.36854100  0.46796600  0.65971900  1
  V  V7  1  0.36854100  0.65971900  0.03203400  1
  O  O0  1  0.49999900  0.75000000  0.25000000  1
  O  O1  1  0.49999900  0.25000100  0.75000000  1
  O  O2  1  0.05215600  0.68542800  0.98031000  1
  O  O3  1  0.05215600  0.51969100  0.68542700  1
  O  O4  1  0.05215600  0.98031000  0.81457300  1
  O  O5  1  0.05215600  0.81457300  0.51969000  1
  O  O6  1  0.94784500  0.31457300  0.01969000  1
  O  O7  1  0.94784500  0.48030900  0.31457300  1
  O  O8  1  0.94784500  0.01969000  0.18542700  1
  O  O9  1  0.94784500  0.18542700  0.48030900  1
  O  O10  1  0.44680900  0.04740100  0.35570400  1
  O  O11  1  0.44680900  0.14429500  0.04740200  1
  O  O12  1  0.44680900  0.35570400  0.45259900  1
  O  O13  1  0.44680900  0.45259900  0.14429600  1
  O  O14  1  0.55319000  0.54740100  0.85570400  1
  O  O15  1  0.55319000  0.85570400  0.95259900  1
  O  O16  1  0.55319000  0.64429600  0.54740100  1
  O  O17  1  0.55319000  0.95259800  0.64429600  1
loop_
_geom_bond_atom_site_label_1
_geom_bond_atom_site_label_2
_geom_bond_distance
_geom_bond_site_symmetry_2
Mg0 O7 2.250125 1_455
Mg0 O9 2.250125 1_455
Mg0 O8 2.250132 1_455
Mg0 O6 2.250132 1_455
Mg0 O11 2.375988 1_555
Mg0 O12 2.375991 1_555
Mg0 O13 2.375991 1_555
Mg0 O10 2.375991 1_555
Mg1 O3 2.250123 1_655
Mg1 O5 2.250125 1_655
Mg1 O4 2.250134 1_655
Mg1 O2 2.250137 1_655
Mg1 O17 2.375988 1_555
Mg1 O16 2.375991 1_555
Mg1 O14 2.376000 1_555
Mg1 O15 2.376003 1_555
O0 V1 2.064381 1_555
O0 V0 2.064381 1_555
O0 V7 2.064384 1_555
O0 V4 2.064389 1_555
O1 V6 2.064377 1_555
O1 V5 2.064381 1_555
O1 V2 2.064383 1_555
O1 V3 2.064388 1_555
O2 V7 1.652235 1_556
O3 V6 1.652236 1_555
O4 V3 1.652233 1_565
O5 V1 1.652233 1_555
O6 V2 1.652233 1_554
O7 V0 1.652238 1_555
O8 V4 1.652234 1_545
O9 V5 1.652237 1_555
O10 V5 1.964504 1_555
O10 V4 1.982146 1_545
O10 V1 1.993031 1_545
O11 V4 1.964483 1_545
O11 V2 1.982149 1_554
O11 V3 1.993034 1_554
O12 V0 1.964500 1_555
O12 V5 1.982142 1_555
O12 V6 1.993023 1_555
O13 V2 1.964497 1_554
O13 V0 1.982149 1_555
O13 V7 1.993023 1_555
O14 V7 1.964489 1_556
O14 V6 1.982141 1_555
O14 V2 1.993033 1_555
O15 V3 1.964493 1_565
O15 V7 1.982141 1_556
O15 V4 1.993025 1_556
O16 V6 1.964489 1_555
O16 V1 1.982134 1_555
O16 V0 1.993022 1_555
O17 V1 1.964489 1_555
O17 V3 1.982137 1_565
O17 V5 1.993036 1_565
