# generated using pymatgen
data_EuInO3
_symmetry_space_group_name_H-M   'P 1'
_cell_length_a   5.71229300
_cell_length_b   5.99688300
_cell_length_c   8.16256900
_cell_angle_alpha   90.00000000
_cell_angle_beta   90.00000000
_cell_angle_gamma   90.00000000
_symmetry_Int_Tables_number   1
_chemical_formula_structural   EuInO3
_chemical_formula_sum   'Eu4 In4 O12'
_cell_volume   279.61657825
_cell_formula_units_Z   4
loop_
 _symmetry_equiv_pos_site_id
 _symmetry_equiv_pos_as_xyz
  1  'x, y, z'
loop_
 _atom_site_type_symbol
 _atom_site_label
 _atom_site_symmetry_multiplicity
 _atom_site_fract_x
 _atom_site_fract_y
 _atom_site_fract_z
 _atom_site_occupancy
  Eu  Eu0  1  0.01507100  0.43841700  0.25000000  1
  Eu  Eu1  1  0.98492900  0.56158300  0.75000000  1
  Eu  Eu2  1  0.51507100  0.06158300  0.75000000  1
  Eu  Eu3  1  0.48492900  0.93841700  0.25000000  1
  In  In0  1  0.00000000  0.00000000  0.00000000  1
  In  In1  1  0.50000000  0.50000000  0.00000000  1
  In  In2  1  0.00000000  0.00000000  0.50000000  1
  In  In3  1  0.50000000  0.50000000  0.50000000  1
  O  O0  1  0.31576300  0.18836100  0.06424600  1
  O  O1  1  0.68423700  0.81163900  0.93575400  1
  O  O2  1  0.81576300  0.31163900  0.93575400  1
  O  O3  1  0.68423700  0.81163900  0.56424600  1
  O  O4  1  0.18423700  0.68836100  0.06424600  1
  O  O5  1  0.31576300  0.18836100  0.43575400  1
  O  O6  1  0.18423700  0.68836100  0.43575400  1
  O  O7  1  0.81576300  0.31163900  0.56424600  1
  O  O8  1  0.62936300  0.56101600  0.25000000  1
  O  O9  1  0.37063700  0.43898400  0.75000000  1
  O  O10  1  0.12936300  0.93898400  0.75000000  1
  O  O11  1  0.87063700  0.06101600  0.25000000  1
loop_
_geom_bond_atom_site_label_1
_geom_bond_atom_site_label_2
_geom_bond_distance
_geom_bond_site_symmetry_2
Eu0 O8 2.322707 1_455
Eu0 O6 2.340811 1_555
Eu0 O4 2.340811 1_555
Eu0 O11 2.408924 1_455
Eu0 O5 2.738232 1_555
Eu0 O0 2.738232 1_555
Eu0 O2 2.907527 1_454
Eu0 O7 2.907527 1_455
Eu1 O9 2.322707 1_655
Eu1 O7 2.340811 1_555
Eu1 O2 2.340811 1_555
Eu1 O10 2.408924 1_655
Eu1 O3 2.738232 1_555
Eu1 O1 2.738232 1_555
Eu1 O6 2.907527 1_655
Eu1 O4 2.907527 1_656
Eu2 O10 2.322707 1_545
Eu2 O1 2.340811 1_545
Eu2 O3 2.340811 1_545
Eu2 O9 2.408924 1_555
Eu2 O7 2.738232 1_555
Eu2 O2 2.738232 1_555
Eu2 O5 2.907527 1_555
Eu2 O0 2.907527 1_556
Eu3 O11 2.322707 1_565
Eu3 O5 2.340811 1_565
Eu3 O0 2.340811 1_565
Eu3 O8 2.408924 1_555
Eu3 O4 2.738232 1_555
Eu3 O6 2.738232 1_555
Eu3 O3 2.907527 1_555
Eu3 O1 2.907527 1_554
In0 O0 2.191895 1_555
In0 O1 2.191895 1_444
In0 O11 2.200947 1_455
In0 O10 2.200947 1_544
In0 O4 2.207993 1_545
In0 O2 2.207993 1_454
In1 O2 2.191895 1_554
In1 O4 2.191895 1_555
In1 O9 2.200947 1_554
In1 O8 2.200947 1_555
In1 O1 2.207993 1_554
In1 O0 2.207993 1_555
In2 O5 2.191895 1_555
In2 O3 2.191895 1_445
In2 O11 2.200947 1_455
In2 O10 2.200947 1_545
In2 O6 2.207993 1_545
In2 O7 2.207993 1_455
In3 O7 2.191895 1_555
In3 O6 2.191895 1_555
In3 O8 2.200947 1_555
In3 O9 2.200947 1_555
In3 O3 2.207993 1_555
In3 O5 2.207993 1_555
