# generated using pymatgen
data_BaCaGdBiO6
_symmetry_space_group_name_H-M   'P 1'
_cell_length_a   8.57562636
_cell_length_b   8.60809954
_cell_length_c   8.58865367
_cell_angle_alpha   90.00000000
_cell_angle_beta   90.00000000
_cell_angle_gamma   90.00000000
_symmetry_Int_Tables_number   1
_chemical_formula_structural   BaCaGdBiO6
_chemical_formula_sum   'Ba4 Ca4 Gd4 Bi4 O24'
_cell_volume   634.01308547
_cell_formula_units_Z   4
loop_
 _symmetry_equiv_pos_site_id
 _symmetry_equiv_pos_as_xyz
  1  'x, y, z'
loop_
 _atom_site_type_symbol
 _atom_site_label
 _atom_site_symmetry_multiplicity
 _atom_site_fract_x
 _atom_site_fract_y
 _atom_site_fract_z
 _atom_site_occupancy
  Ba  Ba0  1  -0.00000000  -0.00000000  0.00000000  1
  Ba  Ba1  1  0.50000000  0.50000000  0.50000000  1
  Ba  Ba2  1  -0.00000000  0.50000000  -0.00000000  1
  Ba  Ba3  1  -0.00000000  -0.00000000  0.50000000  1
  Ca  Ca0  1  -0.00000000  0.50000000  0.50000000  1
  Ca  Ca1  1  0.50000000  -0.00000000  0.50000000  1
  Ca  Ca2  1  0.50000000  0.50000000  0.00000000  1
  Ca  Ca3  1  0.50000000  -0.00000000  0.00000000  1
  Gd  Gd0  1  0.25551555  0.25119027  0.25191885  1
  Gd  Gd1  1  0.74448445  0.74880973  0.25191885  1
  Gd  Gd2  1  0.74448445  0.25119027  0.74808115  1
  Gd  Gd3  1  0.25551555  0.74880973  0.74808115  1
  Bi  Bi0  1  0.74306490  0.74836040  0.75005328  1
  Bi  Bi1  1  0.25693510  0.25163960  0.75005328  1
  Bi  Bi2  1  0.25693510  0.74836040  0.24994672  1
  Bi  Bi3  1  0.74306490  0.25163960  0.24994672  1
  O  O0  1  0.99054349  0.21345892  0.27512423  1
  O  O1  1  0.00945651  0.78654108  0.27512423  1
  O  O2  1  0.00945651  0.21345892  0.72487577  1
  O  O3  1  0.99054349  0.78654108  0.72487577  1
  O  O4  1  0.30357612  0.99155265  0.20393403  1
  O  O5  1  0.30357612  0.00844735  0.79606597  1
  O  O6  1  0.69642388  0.00844735  0.20393403  1
  O  O7  1  0.69642388  0.99155265  0.79606597  1
  O  O8  1  0.22289594  0.28509293  0.99372896  1
  O  O9  1  0.77710406  0.28509293  0.00627104  1
  O  O10  1  0.22289594  0.71490707  0.00627104  1
  O  O11  1  0.77710406  0.71490707  0.99372896  1
  O  O12  1  0.50662466  0.31446418  0.20868705  1
  O  O13  1  0.49337534  0.68553582  0.20868705  1
  O  O14  1  0.49337534  0.31446418  0.79131295  1
  O  O15  1  0.50662466  0.68553582  0.79131295  1
  O  O16  1  0.20696440  0.50877190  0.30929065  1
  O  O17  1  0.20696440  0.49122810  0.69070935  1
  O  O18  1  0.79303560  0.49122810  0.30929065  1
  O  O19  1  0.79303560  0.50877190  0.69070935  1
  O  O20  1  0.30416251  0.19946448  0.50948909  1
  O  O21  1  0.69583749  0.19946448  0.49051091  1
  O  O22  1  0.30416251  0.80053552  0.49051091  1
  O  O23  1  0.69583749  0.80053552  0.50948909  1
loop_
_geom_bond_atom_site_label_1
_geom_bond_atom_site_label_2
_geom_bond_distance
_geom_bond_site_symmetry_2
Ba0 O2 2.994397 1_554
Ba0 O3 2.994397 1_444
Ba0 O1 2.994397 1_545
Ba0 O0 2.994397 1_455
Ba0 O8 3.111153 1_554
Ba0 O11 3.111153 1_444
Ba0 O9 3.111153 1_455
Ba0 O10 3.111153 1_545
Ba0 O5 3.138561 1_554
Ba0 O7 3.138561 1_444
Ba0 O6 3.138561 1_455
Ba0 O4 3.138561 1_545
Ba1 O14 2.968825 1_555
Ba1 O15 2.968825 1_555
Ba1 O12 2.968825 1_555
Ba1 O13 2.968825 1_555
Ba1 O19 3.000587 1_555
Ba1 O16 3.000587 1_555
Ba1 O18 3.000587 1_555
Ba1 O17 3.000587 1_555
Ba1 O20 3.085433 1_555
Ba1 O23 3.085433 1_555
Ba1 O21 3.085433 1_555
Ba1 O22 3.085433 1_555
Ba2 O8 2.660622 1_554
Ba2 O9 2.660622 1_455
Ba2 O10 2.660622 1_555
Ba2 O11 2.660622 1_454
Ba2 O17 3.195653 1_554
Ba2 O19 3.195653 1_454
Ba2 O16 3.195653 1_555
Ba2 O18 3.195653 1_455
Ba3 O1 2.667044 1_545
Ba3 O0 2.667044 1_455
Ba3 O2 2.667044 1_555
Ba3 O3 2.667044 1_445
Ba3 O23 3.123849 1_445
Ba3 O22 3.123849 1_545
Ba3 O21 3.123849 1_455
Ba3 O20 3.123849 1_555
Ca0 O17 2.416325 1_555
Ca0 O16 2.416325 1_555
Ca0 O19 2.416325 1_455
Ca0 O18 2.416325 1_455
Ca1 O22 2.403175 1_545
Ca1 O20 2.403175 1_555
Ca1 O23 2.403175 1_545
Ca1 O21 2.403175 1_555
Ca2 O14 2.401349 1_554
Ca2 O15 2.401349 1_554
Ca2 O13 2.401349 1_555
Ca2 O12 2.401349 1_555
Ca2 O9 3.012006 1_555
Ca2 O10 3.012006 1_555
Ca2 O11 3.012006 1_554
Ca2 O8 3.012006 1_554
Ca3 O7 2.431153 1_544
Ca3 O5 2.431153 1_554
Ca3 O6 2.431153 1_555
Ca3 O4 2.431153 1_545
Gd0 O12 2.252052 1_555
Gd0 O8 2.254050 1_554
Gd0 O20 2.294786 1_555
Gd0 O0 2.304033 1_455
Gd0 O16 2.309225 1_555
Gd0 O4 2.309736 1_545
Gd1 O13 2.252052 1_555
Gd1 O11 2.254050 1_554
Gd1 O23 2.294786 1_555
Gd1 O1 2.304033 1_655
Gd1 O18 2.309225 1_555
Gd1 O6 2.309736 1_565
Gd2 O14 2.252052 1_555
Gd2 O9 2.254050 1_556
Gd2 O21 2.294786 1_555
Gd2 O2 2.304033 1_655
Gd2 O19 2.309225 1_555
Gd2 O7 2.309736 1_545
Gd3 O15 2.252052 1_555
Gd3 O10 2.254050 1_556
Gd3 O22 2.294786 1_555
Gd3 O3 2.304033 1_455
Gd3 O17 2.309225 1_555
Gd3 O5 2.309736 1_565
Bi0 O15 2.128214 1_555
Bi0 O11 2.132637 1_555
Bi0 O23 2.152814 1_555
Bi0 O3 2.158441 1_555
Bi0 O19 2.167237 1_555
Bi0 O7 2.167619 1_555
Bi1 O14 2.128214 1_555
Bi1 O8 2.132637 1_555
Bi1 O20 2.152814 1_555
Bi1 O2 2.158441 1_555
Bi1 O17 2.167237 1_555
Bi1 O5 2.167619 1_555
Bi2 O13 2.128214 1_555
Bi2 O10 2.132637 1_555
Bi2 O22 2.152814 1_555
Bi2 O1 2.158441 1_555
Bi2 O16 2.167237 1_555
Bi2 O4 2.167619 1_555
Bi3 O12 2.128214 1_555
Bi3 O9 2.132637 1_555
Bi3 O21 2.152814 1_555
Bi3 O0 2.158441 1_555
Bi3 O18 2.167237 1_555
Bi3 O6 2.167619 1_555
