# generated using pymatgen
data_RbSb3Se5
_symmetry_space_group_name_H-M   'P 1'
_cell_length_a   4.08382906
_cell_length_b   12.44218135
_cell_length_c   22.07184659
_cell_angle_alpha   90.00000000
_cell_angle_beta   90.00000000
_cell_angle_gamma   90.00000000
_symmetry_Int_Tables_number   1
_chemical_formula_structural   RbSb3Se5
_chemical_formula_sum   'Rb4 Sb12 Se20'
_cell_volume   1121.50896925
_cell_formula_units_Z   4
loop_
 _symmetry_equiv_pos_site_id
 _symmetry_equiv_pos_as_xyz
  1  'x, y, z'
loop_
 _atom_site_type_symbol
 _atom_site_label
 _atom_site_symmetry_multiplicity
 _atom_site_fract_x
 _atom_site_fract_y
 _atom_site_fract_z
 _atom_site_occupancy
  Rb  Rb0  1  0.25000000  0.67266522  0.59368770  1
  Rb  Rb1  1  0.25000000  0.82733478  0.09368770  1
  Rb  Rb2  1  0.75000000  0.32733478  0.40631230  1
  Rb  Rb3  1  0.75000000  0.17266522  0.90631230  1
  Sb  Sb0  1  0.25000000  0.97113404  0.69872057  1
  Sb  Sb1  1  0.25000000  0.52886596  0.19872057  1
  Sb  Sb2  1  0.75000000  0.02886596  0.30127943  1
  Sb  Sb3  1  0.75000000  0.47113404  0.80127943  1
  Sb  Sb4  1  0.75000000  0.82520326  0.83845996  1
  Sb  Sb5  1  0.75000000  0.67479674  0.33845996  1
  Sb  Sb6  1  0.25000000  0.17479674  0.16154004  1
  Sb  Sb7  1  0.25000000  0.32520326  0.66154004  1
  Sb  Sb8  1  0.75000000  0.11571159  0.55862710  1
  Sb  Sb9  1  0.75000000  0.38428841  0.05862710  1
  Sb  Sb10  1  0.25000000  0.88428841  0.44137290  1
  Sb  Sb11  1  0.25000000  0.61571159  0.94137290  1
  Se  Se0  1  0.75000000  0.82070158  0.70429057  1
  Se  Se1  1  0.75000000  0.67929842  0.20429057  1
  Se  Se2  1  0.25000000  0.17929842  0.29570943  1
  Se  Se3  1  0.25000000  0.32070158  0.79570943  1
  Se  Se4  1  0.75000000  0.15239283  0.68028132  1
  Se  Se5  1  0.75000000  0.34760717  0.18028132  1
  Se  Se6  1  0.25000000  0.84760717  0.31971868  1
  Se  Se7  1  0.25000000  0.65239283  0.81971868  1
  Se  Se8  1  0.25000000  0.97835101  0.83791035  1
  Se  Se9  1  0.25000000  0.52164899  0.33791035  1
  Se  Se10  1  0.75000000  0.02164899  0.16208965  1
  Se  Se11  1  0.75000000  0.47835101  0.66208965  1
  Se  Se12  1  0.75000000  0.77648499  0.96215477  1
  Se  Se13  1  0.75000000  0.72351501  0.46215477  1
  Se  Se14  1  0.25000000  0.22351501  0.03784523  1
  Se  Se15  1  0.25000000  0.27648499  0.53784523  1
  Se  Se16  1  0.25000000  0.95284310  0.57604171  1
  Se  Se17  1  0.25000000  0.54715690  0.07604171  1
  Se  Se18  1  0.75000000  0.04715690  0.42395829  1
  Se  Se19  1  0.75000000  0.45284310  0.92395829  1
loop_
_geom_bond_atom_site_label_1
_geom_bond_atom_site_label_2
_geom_bond_distance
_geom_bond_site_symmetry_2
Rb0 Se11 3.506283 1_455
Rb0 Se11 3.506283 1_555
Rb0 Se16 3.507714 1_555
Rb0 Se13 3.605291 1_555
Rb0 Se13 3.605291 1_455
Rb0 Se0 3.677159 1_455
Rb0 Se0 3.677159 1_555
Rb1 Se10 3.506283 1_565
Rb1 Se10 3.506283 1_465
Rb1 Se17 3.507714 1_555
Rb1 Se12 3.605291 1_554
Rb1 Se12 3.605291 1_454
Rb1 Se1 3.677159 1_455
Rb1 Se1 3.677159 1_555
Rb2 Se9 3.506283 1_655
Rb2 Se9 3.506283 1_555
Rb2 Se18 3.507714 1_555
Rb2 Se15 3.605291 1_555
Rb2 Se15 3.605291 1_655
Rb2 Se2 3.677159 1_555
Rb2 Se2 3.677159 1_655
Rb3 Se8 3.506283 1_645
Rb3 Se8 3.506283 1_545
Rb3 Se19 3.507714 1_555
Rb3 Se14 3.605291 1_656
Rb3 Se14 3.605291 1_556
Rb3 Se3 3.677159 1_555
Rb3 Se3 3.677159 1_655
Sb0 Se16 2.717296 1_555
Sb0 Se0 2.772692 1_555
Sb0 Se0 2.772692 1_455
Sb0 Se4 3.069402 1_465
Sb0 Se4 3.069402 1_565
Sb0 Se8 3.073487 1_555
Sb1 Se17 2.717296 1_555
Sb1 Se1 2.772692 1_455
Sb1 Se1 2.772692 1_555
Sb1 Se5 3.069402 1_455
Sb1 Se5 3.069402 1_555
Sb1 Se9 3.073487 1_555
Sb2 Se18 2.717296 1_555
Sb2 Se2 2.772692 1_655
Sb2 Se2 2.772692 1_555
Sb2 Se6 3.069402 1_545
Sb2 Se6 3.069402 1_645
Sb2 Se10 3.073487 1_555
Sb3 Se19 2.717296 1_555
Sb3 Se3 2.772692 1_555
Sb3 Se3 2.772692 1_655
Sb3 Se7 3.069402 1_555
Sb3 Se7 3.069402 1_655
Sb3 Se11 3.073487 1_555
Sb4 Se8 2.792931 1_655
Sb4 Se8 2.792931 1_555
Sb4 Se12 2.796654 1_555
Sb4 Se0 2.961896 1_555
Sb4 Se7 2.993931 1_655
Sb4 Se7 2.993931 1_555
Sb5 Se9 2.792931 1_555
Sb5 Se9 2.792931 1_655
Sb5 Se13 2.796654 1_555
Sb5 Se1 2.961896 1_555
Sb5 Se6 2.993931 1_655
Sb5 Se6 2.993931 1_555
Sb6 Se10 2.792931 1_555
Sb6 Se10 2.792931 1_455
Sb6 Se14 2.796654 1_555
Sb6 Se2 2.961896 1_555
Sb6 Se5 2.993931 1_555
Sb6 Se5 2.993931 1_455
Sb7 Se11 2.792931 1_455
Sb7 Se11 2.792931 1_555
Sb7 Se15 2.796654 1_555
Sb7 Se3 2.961896 1_555
Sb7 Se4 2.993931 1_455
Sb7 Se4 2.993931 1_555
Sb8 Se4 2.723644 1_555
Sb8 Se15 2.895048 1_655
Sb8 Se15 2.895048 1_555
Sb8 Se16 2.902346 1_545
Sb8 Se16 2.902346 1_645
Sb8 Se18 3.092354 1_555
Sb9 Se5 2.723644 1_555
Sb9 Se14 2.895048 1_555
Sb9 Se14 2.895048 1_655
Sb9 Se17 2.902346 1_555
Sb9 Se17 2.902346 1_655
Sb9 Se19 3.092354 1_554
Sb10 Se6 2.723644 1_555
Sb10 Se13 2.895048 1_455
Sb10 Se13 2.895048 1_555
Sb10 Se18 2.902346 1_565
Sb10 Se18 2.902346 1_465
Sb10 Se16 3.092354 1_555
Sb11 Se7 2.723644 1_555
Sb11 Se12 2.895048 1_455
Sb11 Se12 2.895048 1_555
Sb11 Se19 2.902346 1_555
Sb11 Se19 2.902346 1_455
Sb11 Se17 3.092354 1_556
