# generated using pymatgen
data_Nd2S3O20
_symmetry_space_group_name_H-M   'P 1'
_cell_length_a   6.92283015
_cell_length_b   6.92283015
_cell_length_c   20.06569612
_cell_angle_alpha   81.47478249
_cell_angle_beta   81.47478249
_cell_angle_gamma   60.71262649
_symmetry_Int_Tables_number   1
_chemical_formula_structural   Nd2S3O20
_chemical_formula_sum   'Nd4 S6 O40'
_cell_volume   826.26764562
_cell_formula_units_Z   2
loop_
 _symmetry_equiv_pos_site_id
 _symmetry_equiv_pos_as_xyz
  1  'x, y, z'
loop_
 _atom_site_type_symbol
 _atom_site_label
 _atom_site_symmetry_multiplicity
 _atom_site_fract_x
 _atom_site_fract_y
 _atom_site_fract_z
 _atom_site_occupancy
  Nd  Nd0  1  0.81947100  0.84282100  0.39202500  1
  Nd  Nd1  1  0.18052900  0.15717900  0.60797500  1
  Nd  Nd2  1  0.15717900  0.18052900  0.10797500  1
  Nd  Nd3  1  0.84282100  0.81947100  0.89202500  1
  S  S0  1  0.77475300  0.80719500  0.07935000  1
  S  S1  1  0.22524700  0.19280500  0.92065000  1
  S  S2  1  0.19280500  0.22524700  0.42065000  1
  S  S3  1  0.80719500  0.77475300  0.57935000  1
  S  S4  1  0.74018500  0.25981500  0.25000000  1
  S  S5  1  0.25981500  0.74018500  0.75000000  1
  O  O0  1  0.35027700  0.27946100  0.18131000  1
  O  O1  1  0.64972300  0.72053900  0.81869000  1
  O  O2  1  0.72053900  0.64972300  0.31869000  1
  O  O3  1  0.27946100  0.35027700  0.68131000  1
  O  O4  1  0.37537000  0.37368900  0.07907500  1
  O  O5  1  0.62463000  0.62631100  0.92092500  1
  O  O6  1  0.62631100  0.62463000  0.42092500  1
  O  O7  1  0.37368900  0.37537000  0.57907500  1
  O  O8  1  0.53308200  0.88965300  0.09568000  1
  O  O9  1  0.46691800  0.11034700  0.90432000  1
  O  O10  1  0.11034700  0.46691800  0.40432000  1
  O  O11  1  0.88965300  0.53308200  0.59568000  1
  O  O12  1  0.82417000  0.86509100  0.00685000  1
  O  O13  1  0.17583000  0.13490900  0.99315000  1
  O  O14  1  0.13490900  0.17583000  0.49315000  1
  O  O15  1  0.86509100  0.82417000  0.50685000  1
  O  O16  1  0.58741600  0.37046100  0.19346200  1
  O  O17  1  0.41258400  0.62953900  0.80653800  1
  O  O18  1  0.62953900  0.41258400  0.30653800  1
  O  O19  1  0.37046100  0.58741600  0.69346200  1
  O  O20  1  0.84645700  0.91537600  0.12329300  1
  O  O21  1  0.15354300  0.08462400  0.87670700  1
  O  O22  1  0.08462400  0.15354300  0.37670700  1
  O  O23  1  0.91537600  0.84645700  0.62329300  1
  O  O24  1  0.43549100  0.10541800  0.40528800  1
  O  O25  1  0.56450900  0.89458200  0.59471200  1
  O  O26  1  0.89458200  0.56450900  0.09471200  1
  O  O27  1  0.10541800  0.43549100  0.90528800  1
  O  O28  1  0.18313200  0.80689900  0.14848700  1
  O  O29  1  0.81686800  0.19310100  0.85151300  1
  O  O30  1  0.19310100  0.81686800  0.35151300  1
  O  O31  1  0.80689900  0.18313200  0.64848700  1
  O  O32  1  0.71957500  0.29678600  0.41500400  1
  O  O33  1  0.28042500  0.70321400  0.58499600  1
  O  O34  1  0.70321400  0.28042500  0.08499600  1
  O  O35  1  0.29678600  0.71957500  0.91500400  1
  O  O36  1  0.76020700  0.04181200  0.27798200  1
  O  O37  1  0.23979300  0.95818800  0.72201800  1
  O  O38  1  0.95818800  0.23979300  0.22201800  1
  O  O39  1  0.04181200  0.76020700  0.77798200  1
loop_
_geom_bond_atom_site_label_1
_geom_bond_atom_site_label_2
_geom_bond_distance
_geom_bond_site_symmetry_2
Nd0 O15 2.347909 1_555
Nd0 O24 2.376458 1_565
Nd0 O10 2.391196 1_655
Nd0 O6 2.427469 1_555
Nd0 O36 2.468472 1_565
Nd0 O2 2.489824 1_555
Nd0 O30 2.519660 1_655
Nd0 O32 2.962475 1_565
Nd1 O14 2.347909 1_555
Nd1 O25 2.376458 1_545
Nd1 O11 2.391196 1_455
Nd1 O7 2.427469 1_555
Nd1 O37 2.468472 1_545
Nd1 O3 2.489824 1_555
Nd1 O31 2.519660 1_455
Nd1 O33 2.962475 1_545
Nd2 O13 2.347909 1_554
Nd2 O26 2.376458 1_455
Nd2 O8 2.391196 1_545
Nd2 O4 2.427469 1_555
Nd2 O38 2.468472 1_455
Nd2 O0 2.489824 1_555
Nd2 O28 2.519660 1_545
Nd2 O34 2.962475 1_455
Nd3 O12 2.347909 1_556
Nd3 O27 2.376458 1_655
Nd3 O9 2.391196 1_565
Nd3 O5 2.427469 1_555
Nd3 O39 2.468472 1_655
Nd3 O1 2.489824 1_555
Nd3 O29 2.519660 1_565
Nd3 O35 2.962475 1_655
O8 S0 1.480148 1_555
O9 S1 1.480148 1_555
O10 S2 1.480148 1_555
O11 S3 1.480148 1_555
O12 S0 1.485845 1_555
O13 S1 1.485845 1_555
O14 S2 1.485845 1_555
O15 S3 1.485845 1_555
O16 S4 1.515839 1_555
O17 S5 1.515839 1_555
O18 S4 1.515839 1_555
O19 S5 1.515839 1_555
O20 S0 1.507994 1_555
O21 S1 1.507994 1_555
O22 S2 1.507994 1_555
O23 S3 1.507994 1_555
O24 S2 1.471229 1_555
O25 S3 1.471229 1_555
O26 S0 1.471229 1_555
O27 S1 1.471229 1_555
O32 O6 2.050759 1_555
O33 O7 2.050759 1_555
O34 O4 2.050759 1_555
O35 O5 2.050759 1_555
O36 S4 1.476251 1_555
O37 S5 1.476251 1_555
O38 S4 1.476251 1_555
O39 S5 1.476251 1_555
