# generated using pymatgen
data_MgTi11O20
_symmetry_space_group_name_H-M   'P 1'
_cell_length_a   10.67734647
_cell_length_b   10.67735801
_cell_length_c   5.25023500
_cell_angle_alpha   82.66692779
_cell_angle_beta   82.66558343
_cell_angle_gamma   138.45776123
_symmetry_Int_Tables_number   1
_chemical_formula_structural   MgTi11O20
_chemical_formula_sum   'Mg1 Ti11 O20'
_cell_volume   370.34090420
_cell_formula_units_Z   1
loop_
 _symmetry_equiv_pos_site_id
 _symmetry_equiv_pos_as_xyz
  1  'x, y, z'
loop_
 _atom_site_type_symbol
 _atom_site_label
 _atom_site_symmetry_multiplicity
 _atom_site_fract_x
 _atom_site_fract_y
 _atom_site_fract_z
 _atom_site_occupancy
  Mg  Mg0  1  0.47596384  0.47595358  0.60961236  1
  Ti  Ti0  1  0.21543537  0.40134659  0.26988396  1
  Ti  Ti1  1  0.71122381  0.90143116  0.26752268  1
  Ti  Ti2  1  0.78683218  0.09508722  0.73531461  1
  Ti  Ti3  1  0.28731602  0.59783002  0.72983843  1
  Ti  Ti4  1  0.40134308  0.21543308  0.26989984  1
  Ti  Ti5  1  0.90142692  0.71122190  0.26752648  1
  Ti  Ti6  1  0.59783577  0.28731765  0.72983350  1
  Ti  Ti7  1  0.09508580  0.78682633  0.73531011  1
  Ti  Ti8  1  0.97233553  0.97233409  0.60118504  1
  Ti  Ti9  1  0.52753692  0.02650879  0.39116385  1
  Ti  Ti10  1  0.02650631  0.52753520  0.39116455  1
  O  O0  1  0.25568477  0.25568898  0.45451723  1
  O  O1  1  0.76836594  0.76836651  0.45224612  1
  O  O2  1  0.73849397  0.24098392  0.54056450  1
  O  O3  1  0.24099060  0.73849261  0.54055822  1
  O  O4  1  0.16567317  0.53280533  0.09800789  1
  O  O5  1  0.66621929  0.03935670  0.09772041  1
  O  O6  1  0.83545938  0.96369388  0.89696815  1
  O  O7  1  0.32993212  0.46710261  0.90883911  1
  O  O8  1  0.03935041  0.66621173  0.09771574  1
  O  O9  1  0.53281695  0.16567953  0.09799891  1
  O  O10  1  0.96369180  0.83546259  0.89697645  1
  O  O11  1  0.46709067  0.32992309  0.90885022  1
  O  O12  1  0.05687061  0.37621576  0.62379930  1
  O  O13  1  0.55849597  0.87893520  0.63580120  1
  O  O14  1  0.93936964  0.12282650  0.36980773  1
  O  O15  1  0.43958132  0.62509817  0.37599799  1
  O  O16  1  0.87892911  0.55850919  0.63578894  1
  O  O17  1  0.37621722  0.05687092  0.62378948  1
  O  O18  1  0.12283007  0.93937048  0.36980108  1
  O  O19  1  0.62509642  0.43957870  0.37599790  1
loop_
_geom_bond_atom_site_label_1
_geom_bond_atom_site_label_2
_geom_bond_distance
_geom_bond_site_symmetry_2
Mg0 O11 2.005975 1_555
Mg0 O7 2.006066 1_555
Mg0 O1 2.066224 1_555
Mg0 O0 2.103246 1_555
Mg0 O19 2.177037 1_555
Mg0 O15 2.177231 1_555
O0 Ti8 2.002038 1_445
O0 Ti0 2.065226 1_555
O0 Ti4 2.065234 1_555
O1 Ti8 1.966483 1_555
O1 Ti5 2.104339 1_555
O1 Ti1 2.104380 1_555
O2 Ti10 2.029855 1_655
O2 Ti9 2.030082 1_555
O2 Ti6 2.084335 1_555
O2 Ti2 2.161079 1_555
O3 Ti9 2.029852 1_565
O3 Ti10 2.030093 1_555
O3 Ti3 2.084347 1_555
O3 Ti7 2.161091 1_555
O4 Ti3 1.889948 1_554
O4 Ti10 1.961864 1_555
O4 Ti0 1.995565 1_555
O5 Ti2 1.889739 1_554
O5 Ti9 1.909074 1_555
O5 Ti1 2.006995 1_545
O6 Ti1 1.917649 1_556
O6 Ti8 1.933428 1_555
O6 Ti2 1.963943 1_565
O7 Ti0 1.834233 1_556
O7 Ti3 1.940017 1_555
O8 Ti7 1.889744 1_554
O8 Ti10 1.909106 1_555
O8 Ti5 2.007023 1_455
O9 Ti6 1.889947 1_554
O9 Ti9 1.961880 1_555
O9 Ti4 1.995653 1_555
O10 Ti5 1.917654 1_556
O10 Ti8 1.933431 1_555
O10 Ti7 1.964037 1_655
O11 Ti4 1.834273 1_556
O11 Ti6 1.940093 1_555
O12 Ti2 1.957322 1_455
O12 Ti3 1.983399 1_555
O12 Ti10 2.142157 1_555
O12 Ti0 2.186447 1_555
O13 Ti2 1.937418 1_565
O13 Ti3 1.970709 1_555
O13 Ti9 2.147848 1_565
O13 Ti1 2.223877 1_555
O14 Ti1 1.961773 1_545
O14 Ti0 1.972978 1_655
O14 Ti8 2.153867 1_545
O14 Ti2 2.181222 1_555
O15 Ti1 1.944543 1_555
O15 Ti0 1.966471 1_555
O15 Ti3 2.135739 1_555
O16 Ti7 1.937374 1_655
O16 Ti6 1.970690 1_555
O16 Ti10 2.147938 1_655
O16 Ti5 2.223743 1_555
O17 Ti7 1.957350 1_545
O17 Ti6 1.983433 1_555
O17 Ti9 2.142091 1_555
O17 Ti4 2.186391 1_555
O18 Ti5 1.961777 1_455
O18 Ti4 1.972954 1_565
O18 Ti8 2.153856 1_455
O18 Ti7 2.181268 1_555
O19 Ti5 1.944537 1_555
O19 Ti4 1.966427 1_555
O19 Ti6 2.135767 1_555
