# generated using pymatgen
data_Sr2LiGe3
_symmetry_space_group_name_H-M   'P 1'
_cell_length_a   11.93127096
_cell_length_b   10.19284061
_cell_length_c   8.75553823
_cell_angle_alpha   77.64251812
_cell_angle_beta   56.56416567
_cell_angle_gamma   45.79331621
_symmetry_Int_Tables_number   1
_chemical_formula_structural   Sr2LiGe3
_chemical_formula_sum   'Sr8 Li4 Ge12'
_cell_volume   610.63695137
_cell_formula_units_Z   4
loop_
 _symmetry_equiv_pos_site_id
 _symmetry_equiv_pos_as_xyz
  1  'x, y, z'
loop_
 _atom_site_type_symbol
 _atom_site_label
 _atom_site_symmetry_multiplicity
 _atom_site_fract_x
 _atom_site_fract_y
 _atom_site_fract_z
 _atom_site_occupancy
  Sr  Sr0  1  0.62218600  0.62218600  0.37781400  1
  Sr  Sr1  1  0.37781400  0.37781400  0.62218600  1
  Sr  Sr2  1  0.62781400  0.62781400  0.87218600  1
  Sr  Sr3  1  0.87218600  0.87218600  0.62781400  1
  Sr  Sr4  1  0.12385700  0.12385700  0.87614300  1
  Sr  Sr5  1  0.87614300  0.87614300  0.12385700  1
  Sr  Sr6  1  0.12614300  0.12614300  0.37385700  1
  Sr  Sr7  1  0.37385700  0.37385700  0.12614300  1
  Li  Li0  1  0.83305400  0.16694600  0.83305400  1
  Li  Li1  1  0.16694600  0.83305400  0.16694600  1
  Li  Li2  1  0.41694600  0.08305400  0.41694600  1
  Li  Li3  1  0.08305400  0.41694600  0.08305400  1
  Ge  Ge0  1  0.17119600  0.83460300  0.66246200  1
  Ge  Ge1  1  0.33173900  0.66246200  0.83460300  1
  Ge  Ge2  1  0.66246200  0.33173900  0.17119600  1
  Ge  Ge3  1  0.83460300  0.17119600  0.33173900  1
  Ge  Ge4  1  0.07880400  0.41539700  0.58753800  1
  Ge  Ge5  1  0.91826100  0.58753800  0.41539700  1
  Ge  Ge6  1  0.58753800  0.91826100  0.07880400  1
  Ge  Ge7  1  0.41539700  0.07880400  0.91826100  1
  Ge  Ge8  1  0.66666000  0.33334000  0.66666000  1
  Ge  Ge9  1  0.33334000  0.66666000  0.33334000  1
  Ge  Ge10  1  0.58334000  0.91666000  0.58334000  1
  Ge  Ge11  1  0.91666000  0.58334000  0.91666000  1
loop_
_geom_bond_atom_site_label_1
_geom_bond_atom_site_label_2
_geom_bond_distance
_geom_bond_site_symmetry_2
Li0 Sr5 3.408849 1_546
Li0 Sr4 3.408849 1_655
Li0 Sr7 3.429288 1_556
Li0 Sr6 3.429288 1_655
Li0 Sr3 3.450211 1_545
Li0 Sr2 3.450211 1_555
Li1 Sr5 3.408849 1_455
Li1 Sr4 3.408849 1_564
Li1 Sr7 3.429288 1_555
Li1 Sr6 3.429288 1_565
Li1 Sr2 3.450211 1_554
Li1 Sr3 3.450211 1_455
Li2 Sr7 3.408849 1_555
Li2 Sr6 3.408849 1_555
Li2 Sr5 3.429288 1_545
Li2 Sr4 3.429288 1_555
Li2 Sr1 3.450211 1_555
Li2 Sr0 3.450211 1_545
Li3 Sr7 3.408849 1_555
Li3 Sr6 3.408849 1_555
Li3 Sr4 3.429288 1_554
Li3 Sr5 3.429288 1_455
Li3 Sr1 3.450211 1_554
Li3 Sr0 3.450211 1_455
Ge0 Li0 2.539634 1_465
Ge0 Sr0 3.337340 1_555
Ge0 Sr4 3.374332 1_565
Ge0 Sr6 3.400001 1_565
Ge0 Sr1 3.408591 1_555
Ge0 Sr5 3.445772 1_456
Ge0 Sr3 3.493344 1_455
Ge1 Li1 2.539634 1_556
Ge1 Sr1 3.337340 1_555
Ge1 Sr5 3.374332 1_456
Ge1 Sr7 3.400001 1_556
Ge1 Sr0 3.408591 1_555
Ge1 Sr4 3.445772 1_565
Ge1 Sr2 3.493344 1_555
Ge2 Li0 2.539634 1_554
Ge2 Sr1 3.337340 1_555
Ge2 Sr5 3.374332 1_545
Ge2 Sr7 3.400001 1_555
Ge2 Sr0 3.408591 1_555
Ge2 Sr4 3.445772 1_654
Ge2 Sr2 3.493344 1_554
Ge3 Li1 2.539634 1_645
Ge3 Sr0 3.337340 1_555
Ge3 Sr4 3.374332 1_654
Ge3 Sr6 3.400001 1_655
Ge3 Sr1 3.408591 1_555
Ge3 Sr5 3.445772 1_545
Ge3 Sr3 3.493344 1_545
Ge4 Li2 2.539634 1_555
Ge4 Sr2 3.337340 1_455
Ge4 Sr6 3.374332 1_555
Ge4 Sr4 3.400001 1_555
Ge4 Sr3 3.408591 1_455
Ge4 Sr7 3.445772 1_555
Ge4 Sr1 3.493344 1_555
Ge5 Li3 2.539634 1_655
Ge5 Sr3 3.337340 1_555
Ge5 Sr7 3.374332 1_655
Ge5 Sr5 3.400001 1_555
Ge5 Sr2 3.408591 1_555
Ge5 Sr6 3.445772 1_655
Ge5 Sr0 3.493344 1_555
Ge6 Li2 2.539634 1_565
Ge6 Sr3 3.337340 1_554
Ge6 Sr7 3.374332 1_565
Ge6 Sr5 3.400001 1_555
Ge6 Sr2 3.408591 1_554
Ge6 Sr6 3.445772 1_565
Ge6 Sr0 3.493344 1_555
Ge7 Li3 2.539634 1_556
Ge7 Sr2 3.337340 1_545
Ge7 Sr6 3.374332 1_556
Ge7 Sr4 3.400001 1_555
Ge7 Sr3 3.408591 1_545
Ge7 Sr7 3.445772 1_556
Ge7 Sr1 3.493344 1_555
Ge8 Li0 2.524814 1_555
Ge8 Sr0 3.385090 1_555
Ge8 Sr1 3.385090 1_555
Ge8 Sr6 3.430886 1_655
Ge8 Sr7 3.430886 1_556
Ge8 Sr2 3.451798 1_555
Ge8 Sr3 3.451798 1_545
Ge9 Li1 2.524814 1_555
Ge9 Sr0 3.385090 1_555
Ge9 Sr1 3.385090 1_555
Ge9 Sr6 3.430886 1_565
Ge9 Sr7 3.430886 1_555
Ge9 Sr2 3.451798 1_554
Ge9 Sr3 3.451798 1_455
Ge10 Li2 2.524814 1_565
Ge10 Sr3 3.385090 1_555
Ge10 Sr2 3.385090 1_555
Ge10 Sr5 3.430886 1_555
Ge10 Sr4 3.430886 1_565
Ge10 Sr1 3.451798 1_565
Ge10 Sr0 3.451798 1_555
Ge11 Li3 2.524814 1_656
Ge11 Sr3 3.385090 1_555
Ge11 Sr2 3.385090 1_555
Ge11 Sr5 3.430886 1_556
Ge11 Sr4 3.430886 1_655
Ge11 Sr1 3.451798 1_655
Ge11 Sr0 3.451798 1_556
