# generated using pymatgen
data_HfInPt2
_symmetry_space_group_name_H-M   'P 1'
_cell_length_a   6.74067800
_cell_length_b   6.74067800
_cell_length_c   13.20187800
_cell_angle_alpha   90.00000000
_cell_angle_beta   90.00000000
_cell_angle_gamma   90.00000000
_symmetry_Int_Tables_number   1
_chemical_formula_structural   HfInPt2
_chemical_formula_sum   'Hf8 In8 Pt16'
_cell_volume   599.85029687
_cell_formula_units_Z   8
loop_
 _symmetry_equiv_pos_site_id
 _symmetry_equiv_pos_as_xyz
  1  'x, y, z'
loop_
 _atom_site_type_symbol
 _atom_site_label
 _atom_site_symmetry_multiplicity
 _atom_site_fract_x
 _atom_site_fract_y
 _atom_site_fract_z
 _atom_site_occupancy
  Hf  Hf0_0  1  0.00000000  0.00000000  0.00000000  1
  Hf  Hf0_1  1  0.00000000  0.00000000  0.50000000  1
  Hf  Hf0_2  1  0.00000000  0.50000000  0.00000000  1
  Hf  Hf0_3  1  0.00000000  0.50000000  0.50000000  1
  Hf  Hf0_4  1  0.50000000  0.00000000  0.00000000  1
  Hf  Hf0_5  1  0.50000000  0.00000000  0.50000000  1
  Hf  Hf0_6  1  0.50000000  0.50000000  0.00000000  1
  Hf  Hf0_7  1  0.50000000  0.50000000  0.50000000  1
  In  In0_0  1  0.00000000  0.00000000  0.25000000  1
  In  In0_1  1  0.00000000  0.00000000  0.75000000  1
  In  In0_2  1  0.00000000  0.50000000  0.25000000  1
  In  In0_3  1  0.00000000  0.50000000  0.75000000  1
  In  In0_4  1  0.50000000  0.00000000  0.25000000  1
  In  In0_5  1  0.50000000  0.00000000  0.75000000  1
  In  In0_6  1  0.50000000  0.50000000  0.25000000  1
  In  In0_7  1  0.50000000  0.50000000  0.75000000  1
  Pt  Pt0_0  1  0.25000000  0.25000000  0.11248250  1
  Pt  Pt0_1  1  0.25000000  0.25000000  0.61248250  1
  Pt  Pt0_2  1  0.25000000  0.75000000  0.11248250  1
  Pt  Pt0_3  1  0.25000000  0.75000000  0.61248250  1
  Pt  Pt0_4  1  0.75000000  0.25000000  0.11248250  1
  Pt  Pt0_5  1  0.75000000  0.25000000  0.61248250  1
  Pt  Pt0_6  1  0.75000000  0.75000000  0.11248250  1
  Pt  Pt0_7  1  0.75000000  0.75000000  0.61248250  1
  Pt  Pt1_0  1  0.25000000  0.25000000  0.38751750  1
  Pt  Pt1_1  1  0.25000000  0.25000000  0.88751750  1
  Pt  Pt1_2  1  0.25000000  0.75000000  0.38751750  1
  Pt  Pt1_3  1  0.25000000  0.75000000  0.88751750  1
  Pt  Pt1_4  1  0.75000000  0.25000000  0.38751750  1
  Pt  Pt1_5  1  0.75000000  0.25000000  0.88751750  1
  Pt  Pt1_6  1  0.75000000  0.75000000  0.38751750  1
  Pt  Pt1_7  1  0.75000000  0.75000000  0.88751750  1
loop_
_geom_bond_atom_site_label_1
_geom_bond_atom_site_label_2
_geom_bond_distance
_geom_bond_site_symmetry_2
Hf0_0 Pt0_6 2.807981 1_445
Hf0_0 Pt0_2 2.807981 1_545
Hf0_0 Pt0_4 2.807981 1_455
Hf0_0 Pt0_0 2.807981 1_555
Hf0_0 Pt1_1 2.807981 1_554
Hf0_0 Pt1_3 2.807981 1_544
Hf0_0 Pt1_7 2.807981 1_444
Hf0_0 Pt1_5 2.807981 1_454
Hf0_0 In0_0 3.300469 1_555
Hf0_0 In0_1 3.300470 1_554
Hf0_1 Pt0_1 2.807981 1_555
Hf0_1 Pt0_5 2.807981 1_455
Hf0_1 Pt0_3 2.807981 1_545
Hf0_1 Pt0_7 2.807981 1_445
Hf0_1 Pt1_6 2.807981 1_445
Hf0_1 Pt1_2 2.807981 1_545
Hf0_1 Pt1_4 2.807981 1_455
Hf0_1 Pt1_0 2.807981 1_555
Hf0_1 In0_0 3.300469 1_555
Hf0_1 In0_1 3.300470 1_555
Hf0_2 Pt0_4 2.807981 1_455
Hf0_2 Pt0_0 2.807981 1_555
Hf0_2 Pt0_2 2.807981 1_555
Hf0_2 Pt0_6 2.807981 1_455
Hf0_2 Pt1_1 2.807981 1_554
Hf0_2 Pt1_3 2.807981 1_554
Hf0_2 Pt1_5 2.807981 1_454
Hf0_2 Pt1_7 2.807981 1_454
Hf0_2 In0_2 3.300469 1_555
Hf0_2 In0_3 3.300470 1_554
Hf0_3 Pt0_1 2.807981 1_555
Hf0_3 Pt0_5 2.807981 1_455
Hf0_3 Pt0_3 2.807981 1_555
Hf0_3 Pt0_7 2.807981 1_455
Hf0_3 Pt1_4 2.807981 1_455
Hf0_3 Pt1_0 2.807981 1_555
Hf0_3 Pt1_6 2.807981 1_455
Hf0_3 Pt1_2 2.807981 1_555
Hf0_3 In0_2 3.300469 1_555
Hf0_3 In0_3 3.300470 1_555
Hf0_4 Pt0_2 2.807981 1_545
Hf0_4 Pt0_0 2.807981 1_555
Hf0_4 Pt0_4 2.807981 1_555
Hf0_4 Pt0_6 2.807981 1_545
Hf0_4 Pt1_1 2.807981 1_554
Hf0_4 Pt1_7 2.807981 1_544
Hf0_4 Pt1_5 2.807981 1_554
Hf0_4 Pt1_3 2.807981 1_544
Hf0_4 In0_4 3.300469 1_555
Hf0_4 In0_5 3.300470 1_554
Hf0_5 Pt0_1 2.807981 1_555
Hf0_5 Pt0_3 2.807981 1_545
Hf0_5 Pt0_5 2.807981 1_555
Hf0_5 Pt0_7 2.807981 1_545
Hf0_5 Pt1_2 2.807981 1_545
Hf0_5 Pt1_0 2.807981 1_555
Hf0_5 Pt1_6 2.807981 1_545
Hf0_5 Pt1_4 2.807981 1_555
Hf0_5 In0_4 3.300469 1_555
Hf0_5 In0_5 3.300470 1_555
Hf0_6 Pt0_0 2.807981 1_555
Hf0_6 Pt0_4 2.807981 1_555
Hf0_6 Pt0_2 2.807981 1_555
Hf0_6 Pt0_6 2.807981 1_555
Hf0_6 Pt1_1 2.807981 1_554
Hf0_6 Pt1_5 2.807981 1_554
Hf0_6 Pt1_3 2.807981 1_554
Hf0_6 Pt1_7 2.807981 1_554
Hf0_6 In0_6 3.300469 1_555
Hf0_6 In0_7 3.300470 1_554
Hf0_7 Pt0_1 2.807981 1_555
Hf0_7 Pt0_5 2.807981 1_555
Hf0_7 Pt0_3 2.807981 1_555
Hf0_7 Pt0_7 2.807981 1_555
Hf0_7 Pt1_0 2.807981 1_555
Hf0_7 Pt1_6 2.807981 1_555
Hf0_7 Pt1_4 2.807981 1_555
Hf0_7 Pt1_2 2.807981 1_555
Hf0_7 In0_6 3.300469 1_555
Hf0_7 In0_7 3.300470 1_555
In0_0 Pt1_2 2.995930 1_545
In0_0 Pt1_4 2.995930 1_455
In0_0 Pt1_0 2.995930 1_555
In0_0 Pt1_6 2.995930 1_445
In0_0 Pt0_0 2.995930 1_555
In0_0 Pt0_6 2.995930 1_445
In0_0 Pt0_4 2.995930 1_455
In0_0 Pt0_2 2.995930 1_545
In0_0 In0_4 3.370339 1_555
In0_0 In0_2 3.370339 1_555
In0_0 In0_2 3.370339 1_545
In0_0 In0_4 3.370339 1_455
In0_1 Pt1_1 2.995930 1_555
In0_1 Pt1_5 2.995930 1_455
In0_1 Pt1_3 2.995930 1_545
In0_1 Pt1_7 2.995930 1_445
In0_1 Pt0_1 2.995930 1_555
In0_1 Pt0_5 2.995930 1_455
In0_1 Pt0_3 2.995930 1_545
In0_1 Pt0_7 2.995930 1_445
In0_1 In0_5 3.370339 1_555
In0_1 In0_3 3.370339 1_555
In0_1 In0_3 3.370339 1_545
In0_1 In0_5 3.370339 1_455
In0_2 Pt1_2 2.995930 1_555
In0_2 Pt1_4 2.995930 1_455
In0_2 Pt1_0 2.995930 1_555
In0_2 Pt1_6 2.995930 1_455
In0_2 Pt0_0 2.995930 1_555
In0_2 Pt0_2 2.995930 1_555
In0_2 Pt0_6 2.995930 1_455
In0_2 Pt0_4 2.995930 1_455
In0_2 In0_6 3.370339 1_555
In0_2 In0_6 3.370339 1_455
In0_3 Pt1_1 2.995930 1_555
In0_3 Pt1_5 2.995930 1_455
In0_3 Pt1_7 2.995930 1_455
In0_3 Pt1_3 2.995930 1_555
In0_3 Pt0_1 2.995930 1_555
In0_3 Pt0_5 2.995930 1_455
In0_3 Pt0_3 2.995930 1_555
In0_3 Pt0_7 2.995930 1_455
In0_3 In0_7 3.370339 1_555
In0_3 In0_7 3.370339 1_455
In0_4 Pt1_4 2.995930 1_555
In0_4 Pt1_2 2.995930 1_545
In0_4 Pt1_6 2.995930 1_545
In0_4 Pt1_0 2.995930 1_555
In0_4 Pt0_0 2.995930 1_555
In0_4 Pt0_2 2.995930 1_545
In0_4 Pt0_4 2.995930 1_555
In0_4 Pt0_6 2.995930 1_545
In0_4 In0_6 3.370339 1_555
In0_4 In0_6 3.370339 1_545
In0_5 Pt1_1 2.995930 1_555
In0_5 Pt1_3 2.995930 1_545
In0_5 Pt1_7 2.995930 1_545
In0_5 Pt1_5 2.995930 1_555
In0_5 Pt0_1 2.995930 1_555
In0_5 Pt0_3 2.995930 1_545
In0_5 Pt0_5 2.995930 1_555
In0_5 Pt0_7 2.995930 1_545
In0_5 In0_7 3.370339 1_555
In0_5 In0_7 3.370339 1_545
In0_6 Pt1_4 2.995930 1_555
In0_6 Pt1_2 2.995930 1_555
In0_6 Pt1_0 2.995930 1_555
In0_6 Pt1_6 2.995930 1_555
In0_6 Pt0_0 2.995930 1_555
In0_6 Pt0_2 2.995930 1_555
In0_6 Pt0_4 2.995930 1_555
In0_6 Pt0_6 2.995930 1_555
In0_7 Pt1_1 2.995930 1_555
In0_7 Pt1_7 2.995930 1_555
In0_7 Pt1_5 2.995930 1_555
In0_7 Pt1_3 2.995930 1_555
In0_7 Pt0_1 2.995930 1_555
In0_7 Pt0_7 2.995930 1_555
In0_7 Pt0_5 2.995930 1_555
In0_7 Pt0_3 2.995930 1_555
Pt0_0 Pt1_1 2.969960 1_554
Pt0_1 Pt1_0 2.969960 1_555
Pt0_2 Pt1_3 2.969960 1_554
Pt0_3 Pt1_2 2.969960 1_555
Pt0_4 Pt1_5 2.969960 1_554
Pt0_5 Pt1_4 2.969960 1_555
Pt0_6 Pt1_7 2.969960 1_554
Pt0_7 Pt1_6 2.969960 1_555
