# generated using pymatgen
data_Sr4U3ZnO12
_symmetry_space_group_name_H-M   'P 1'
_cell_length_a   5.92023500
_cell_length_b   6.03878477
_cell_length_c   8.54992769
_cell_angle_alpha   90.35176741
_cell_angle_beta   90.70498968
_cell_angle_gamma   90.02889086
_symmetry_Int_Tables_number   1
_chemical_formula_structural   Sr4U3ZnO12
_chemical_formula_sum   'Sr4 U3 Zn1 O12'
_cell_volume   305.63972772
_cell_formula_units_Z   1
loop_
 _symmetry_equiv_pos_site_id
 _symmetry_equiv_pos_as_xyz
  1  'x, y, z'
loop_
 _atom_site_type_symbol
 _atom_site_label
 _atom_site_symmetry_multiplicity
 _atom_site_fract_x
 _atom_site_fract_y
 _atom_site_fract_z
 _atom_site_occupancy
  Sr  Sr0  1  0.48658700  0.46498500  0.22959400  1
  Sr  Sr1  1  0.01320500  0.94732400  0.22686000  1
  Sr  Sr2  1  0.51341300  0.53501500  0.77040600  1
  Sr  Sr3  1  0.98679500  0.05267600  0.77314000  1
  U  U0  1  0.50000000  0.00000000  0.50000000  1
  U  U1  1  0.00000000  0.50000000  0.50000000  1
  U  U2  1  0.50000000  0.00000000  0.00000000  1
  Zn  Zn0  1  0.00000000  0.50000000  0.00000000  1
  O  O0  1  0.28531000  0.71919500  0.04231000  1
  O  O1  1  0.20865800  0.20230000  0.43708700  1
  O  O2  1  0.70156400  0.29267000  0.56118100  1
  O  O3  1  0.78096600  0.78581800  0.96294300  1
  O  O4  1  0.71469000  0.28080500  0.95769000  1
  O  O5  1  0.79134200  0.79770000  0.56291300  1
  O  O6  1  0.29843600  0.70733000  0.43881900  1
  O  O7  1  0.21903400  0.21418200  0.03705700  1
  O  O8  1  0.90808000  0.53094200  0.26418300  1
  O  O9  1  0.59894200  0.03350500  0.25186300  1
  O  O10  1  0.09192000  0.46905800  0.73581700  1
  O  O11  1  0.40105800  0.96649500  0.74813700  1
loop_
_geom_bond_atom_site_label_1
_geom_bond_atom_site_label_2
_geom_bond_distance
_geom_bond_site_symmetry_2
O0 U2 2.153714 1_565
O0 Zn0 2.170913 1_555
O0 Sr0 2.515083 1_555
O0 Sr1 2.649671 1_555
O0 Sr2 2.917570 1_554
O1 U0 2.178096 1_555
O1 U1 2.248093 1_555
O1 Sr1 2.617926 1_545
O1 Sr0 2.911135 1_555
O2 U0 2.189148 1_555
O2 U1 2.234135 1_655
O2 Sr2 2.569253 1_555
O2 Sr3 2.862775 1_555
O3 U2 2.133125 1_566
O3 Zn0 2.181700 1_656
O3 Sr3 2.606546 1_565
O3 Sr2 2.723147 1_555
O3 Sr1 2.797951 1_656
O4 U2 2.153714 1_556
O4 Zn0 2.170913 1_656
O4 Sr2 2.515083 1_555
O4 Sr3 2.649671 1_555
O4 Sr0 2.917570 1_556
O5 U0 2.178096 1_565
O5 U1 2.248093 1_655
O5 Sr3 2.617926 1_565
O5 Sr2 2.911135 1_555
O6 U0 2.189148 1_565
O6 U1 2.234135 1_555
O6 Sr0 2.569253 1_555
O6 Sr1 2.862775 1_555
O7 U2 2.133125 1_555
O7 Zn0 2.181700 1_555
O7 Sr1 2.606546 1_545
O7 Sr0 2.723147 1_555
O7 Sr3 2.797951 1_454
O8 U1 2.091392 1_655
O8 Zn0 2.336269 1_655
O8 Sr0 2.540119 1_555
O8 Sr1 2.612421 1_655
O9 U0 2.218282 1_555
O9 U2 2.232648 1_555
O9 Sr1 2.518788 1_645
O9 Sr0 2.696785 1_555
O10 U1 2.091392 1_555
O10 Zn0 2.336269 1_556
O10 Sr2 2.540119 1_555
O10 Sr3 2.612421 1_455
O11 U0 2.218282 1_565
O11 U2 2.232648 1_566
O11 Sr3 2.518788 1_465
O11 Sr2 2.696785 1_555
