# generated using pymatgen
data_Na2Mg3H10(SO6)3
_symmetry_space_group_name_H-M   'P 1'
_cell_length_a   10.85149780
_cell_length_b   10.85149780
_cell_length_c   10.09567500
_cell_angle_alpha   90.00000000
_cell_angle_beta   90.00000000
_cell_angle_gamma   140.53487566
_symmetry_Int_Tables_number   1
_chemical_formula_structural   Na2Mg3H10(SO6)3
_chemical_formula_sum   'Na4 Mg6 H20 S6 O36'
_cell_volume   755.62161990
_cell_formula_units_Z   2
loop_
 _symmetry_equiv_pos_site_id
 _symmetry_equiv_pos_as_xyz
  1  'x, y, z'
loop_
 _atom_site_type_symbol
 _atom_site_label
 _atom_site_symmetry_multiplicity
 _atom_site_fract_x
 _atom_site_fract_y
 _atom_site_fract_z
 _atom_site_occupancy
  Na  Na0  1  0.76648900  0.18863300  0.26908600  1
  Na  Na1  1  0.18863300  0.76648900  0.26908600  1
  Na  Na2  1  0.23351100  0.81136700  0.76908600  1
  Na  Na3  1  0.81136700  0.23351100  0.76908600  1
  Mg  Mg0  1  0.77821400  0.77821400  0.49401700  1
  Mg  Mg1  1  0.22178600  0.22178600  0.99401700  1
  Mg  Mg2  1  0.48630800  0.64357100  0.77845400  1
  Mg  Mg3  1  0.64357100  0.48630800  0.77845400  1
  Mg  Mg4  1  0.51369200  0.35642900  0.27845400  1
  Mg  Mg5  1  0.35642900  0.51369200  0.27845400  1
  H  H0  1  0.81810800  0.81810800  0.73089700  1
  H  H1  1  0.18189200  0.18189200  0.23089700  1
  H  H2  1  0.56240800  0.56240800  0.98941300  1
  H  H3  1  0.43759200  0.43759200  0.48941300  1
  H  H4  1  0.00294700  0.83531300  0.86709400  1
  H  H5  1  0.83531300  0.00294700  0.86709400  1
  H  H6  1  0.99705300  0.16468700  0.36709400  1
  H  H7  1  0.16468700  0.99705300  0.36709400  1
  H  H8  1  0.04930000  0.32758400  0.43869900  1
  H  H9  1  0.32758400  0.04930000  0.43869900  1
  H  H10  1  0.95070000  0.67241600  0.93869900  1
  H  H11  1  0.67241600  0.95070000  0.93869900  1
  H  H12  1  0.93814300  0.51716300  0.05768600  1
  H  H13  1  0.51716300  0.93814300  0.05768600  1
  H  H14  1  0.06185700  0.48283700  0.55768600  1
  H  H15  1  0.48283700  0.06185700  0.55768600  1
  H  H16  1  0.86172500  0.58730700  0.11957600  1
  H  H17  1  0.58730700  0.86172500  0.11957600  1
  H  H18  1  0.13827500  0.41269300  0.61957600  1
  H  H19  1  0.41269300  0.13827500  0.61957600  1
  S  S0  1  0.53447500  0.84523200  0.49838200  1
  S  S1  1  0.84523200  0.53447500  0.49838200  1
  S  S2  1  0.46552500  0.15476800  0.99838200  1
  S  S3  1  0.15476800  0.46552500  0.99838200  1
  S  S4  1  0.80511600  0.80511600  0.18100300  1
  S  S5  1  0.19488400  0.19488400  0.68100300  1
  O  O0  1  0.71297600  0.90804200  0.48889700  1
  O  O1  1  0.90804200  0.71297600  0.48889700  1
  O  O2  1  0.28702400  0.09195800  0.98889700  1
  O  O3  1  0.09195800  0.28702400  0.98889700  1
  O  O4  1  0.39383800  0.70059300  0.39186800  1
  O  O5  1  0.70059300  0.39383800  0.39186800  1
  O  O6  1  0.60616200  0.29940700  0.89186800  1
  O  O7  1  0.29940700  0.60616200  0.89186800  1
  O  O8  1  0.58936100  0.01874900  0.47783300  1
  O  O9  1  0.01874900  0.58936100  0.47783300  1
  O  O10  1  0.41063900  0.98125100  0.97783300  1
  O  O11  1  0.98125100  0.41063900  0.97783300  1
  O  O12  1  0.44199900  0.75644400  0.63103900  1
  O  O13  1  0.75644400  0.44199900  0.63103900  1
  O  O14  1  0.55800100  0.24355600  0.13103900  1
  O  O15  1  0.24355600  0.55800100  0.13103900  1
  O  O16  1  0.92580300  0.92580300  0.06522900  1
  O  O17  1  0.07419700  0.07419700  0.56522900  1
  O  O18  1  0.62412400  0.74152500  0.17936900  1
  O  O19  1  0.74152500  0.62412400  0.17936900  1
  O  O20  1  0.37587600  0.25847500  0.67936900  1
  O  O21  1  0.25847500  0.37587600  0.67936900  1
  O  O22  1  0.91745000  0.91745000  0.30549300  1
  O  O23  1  0.08255000  0.08255000  0.80549300  1
  O  O24  1  0.69751000  0.69751000  0.68855800  1
  O  O25  1  0.30249000  0.30249000  0.18855800  1
  O  O26  1  0.51461600  0.51461600  0.41036600  1
  O  O27  1  0.48538400  0.48538400  0.91036600  1
  O  O28  1  0.70751700  0.94084100  0.85003900  1
  O  O29  1  0.94084100  0.70751700  0.85003900  1
  O  O30  1  0.29248300  0.05915900  0.35003900  1
  O  O31  1  0.05915900  0.29248300  0.35003900  1
  O  O32  1  0.02318900  0.36985400  0.58776900  1
  O  O33  1  0.36985400  0.02318900  0.58776900  1
  O  O34  1  0.97681100  0.63014600  0.08776900  1
  O  O35  1  0.63014600  0.97681100  0.08776900  1
loop_
_geom_bond_atom_site_label_1
_geom_bond_atom_site_label_2
_geom_bond_distance
_geom_bond_site_symmetry_2
Na0 O35 2.360582 1_545
Na0 O8 2.462355 1_555
Na0 O31 2.549158 1_655
Na1 O34 2.360582 1_455
Na1 O9 2.462355 1_555
Na1 O30 2.549158 1_565
Na2 O33 2.360582 1_565
Na2 O10 2.462355 1_555
Na2 O29 2.549158 1_455
Na3 O32 2.360582 1_655
Na3 O11 2.462355 1_555
Na3 O28 2.549158 1_545
Mg0 O0 2.007129 1_555
Mg0 O1 2.007129 1_555
Mg0 O24 2.051121 1_555
Mg0 O26 2.108089 1_555
Mg0 O22 2.159491 1_555
Mg0 O17 2.284894 1_665
Mg1 O3 2.007129 1_555
Mg1 O2 2.007129 1_555
Mg1 O25 2.051121 1_556
Mg1 O27 2.108089 1_555
Mg1 O23 2.159491 1_555
Mg1 O16 2.284894 1_446
Mg2 O7 2.077977 1_555
Mg2 O24 2.085095 1_555
Mg2 O21 2.112469 1_555
Mg2 O27 2.166485 1_555
Mg2 O28 2.175859 1_555
Mg2 O12 2.203552 1_555
Mg3 O6 2.077977 1_555
Mg3 O24 2.085095 1_555
Mg3 O20 2.112469 1_555
Mg3 O27 2.166485 1_555
Mg3 O29 2.175859 1_555
Mg3 O13 2.203552 1_555
Mg4 O5 2.077977 1_555
Mg4 O25 2.085095 1_555
Mg4 O19 2.112469 1_555
Mg4 O26 2.166485 1_555
Mg4 O30 2.175859 1_555
Mg4 O14 2.203552 1_555
Mg5 O4 2.077977 1_555
Mg5 O25 2.085095 1_555
Mg5 O18 2.112469 1_555
Mg5 O26 2.166485 1_555
Mg5 O31 2.175859 1_555
Mg5 O15 2.203552 1_555
H0 O24 0.981640 1_555
H1 O25 0.981640 1_555
H2 O27 0.977448 1_555
H3 O26 0.977448 1_555
H4 O29 0.981805 1_455
H5 O28 0.981805 1_545
H6 O31 0.981805 1_655
H7 O30 0.981805 1_565
H8 O31 1.010258 1_555
H9 O30 1.010258 1_555
H10 O29 1.010258 1_555
H11 O28 1.010258 1_555
H12 O34 0.988506 1_555
H12 O11 1.743517 1_554
H13 O35 0.988506 1_555
H13 O10 1.743517 1_554
H14 O32 0.988506 1_555
H14 O9 1.743517 1_555
H15 O33 0.988506 1_555
H15 O8 1.743517 1_555
H16 O34 0.991196 1_555
H16 O19 1.740675 1_555
H17 O35 0.991196 1_555
H17 O18 1.740675 1_555
H18 O32 0.991196 1_555
H18 O21 1.740675 1_555
H19 O33 0.991196 1_555
H19 O20 1.740675 1_555
O0 S0 1.478933 1_555
O1 S1 1.478933 1_555
O2 S2 1.478933 1_555
O3 S3 1.478933 1_555
O4 S0 1.500145 1_555
O5 S1 1.500145 1_555
O6 S2 1.500145 1_555
O7 S3 1.500145 1_555
O8 S0 1.487145 1_545
O9 S1 1.487145 1_455
O10 S2 1.487145 1_565
O11 S3 1.487145 1_655
O12 S0 1.495356 1_555
O13 S1 1.495356 1_555
O14 S2 1.495356 1_554
O15 S3 1.495356 1_554
O16 S4 1.465673 1_555
O17 S5 1.465673 1_555
O18 S4 1.497088 1_555
O19 S4 1.497088 1_555
O20 S5 1.497088 1_555
O21 S5 1.497088 1_555
O22 S4 1.502374 1_555
O23 S5 1.502374 1_555
