# generated using pymatgen
data_Cs2InCl5O
_symmetry_space_group_name_H-M   'P 1'
_cell_length_a   7.49773300
_cell_length_b   11.52491200
_cell_length_c   14.65219200
_cell_angle_alpha   90.00000000
_cell_angle_beta   90.00000000
_cell_angle_gamma   90.00000000
_symmetry_Int_Tables_number   1
_chemical_formula_structural   Cs2InCl5O
_chemical_formula_sum   'Cs8 In4 Cl20 O4'
_cell_volume   1266.10635809
_cell_formula_units_Z   4
loop_
 _symmetry_equiv_pos_site_id
 _symmetry_equiv_pos_as_xyz
  1  'x, y, z'
loop_
 _atom_site_type_symbol
 _atom_site_label
 _atom_site_symmetry_multiplicity
 _atom_site_fract_x
 _atom_site_fract_y
 _atom_site_fract_z
 _atom_site_occupancy
  Cs  Cs0  1  0.21189900  0.49059500  0.37063000  1
  Cs  Cs1  1  0.28810100  0.00940500  0.87063000  1
  Cs  Cs2  1  0.78810100  0.99059500  0.62937000  1
  Cs  Cs3  1  0.71189900  0.50940500  0.12937000  1
  Cs  Cs4  1  0.78810100  0.50940500  0.62937000  1
  Cs  Cs5  1  0.71189900  0.99059500  0.12937000  1
  Cs  Cs6  1  0.21189900  0.00940500  0.37063000  1
  Cs  Cs7  1  0.28810100  0.49059500  0.87063000  1
  In  In0  1  0.26279800  0.75000000  0.61618200  1
  In  In1  1  0.23720200  0.75000000  0.11618200  1
  In  In2  1  0.73720200  0.25000000  0.38381800  1
  In  In3  1  0.76279800  0.25000000  0.88381800  1
  Cl  Cl0  1  0.89971600  0.75000000  0.23762100  1
  Cl  Cl1  1  0.60028400  0.75000000  0.73762100  1
  Cl  Cl2  1  0.10028400  0.25000000  0.76237900  1
  Cl  Cl3  1  0.39971600  0.25000000  0.26237900  1
  Cl  Cl4  1  0.39914700  0.75000000  0.26138500  1
  Cl  Cl5  1  0.10085300  0.75000000  0.76138500  1
  Cl  Cl6  1  0.60085300  0.25000000  0.73861500  1
  Cl  Cl7  1  0.89914700  0.25000000  0.23861500  1
  Cl  Cl8  1  0.44736900  0.75000000  0.98705600  1
  Cl  Cl9  1  0.05263100  0.75000000  0.48705600  1
  Cl  Cl10  1  0.55263100  0.25000000  0.01294400  1
  Cl  Cl11  1  0.94736900  0.25000000  0.51294400  1
  Cl  Cl12  1  0.22511400  0.53009100  0.10994600  1
  Cl  Cl13  1  0.27488600  0.96990900  0.60994600  1
  Cl  Cl14  1  0.77488600  0.03009100  0.89005400  1
  Cl  Cl15  1  0.72511400  0.46990900  0.39005400  1
  Cl  Cl16  1  0.77488600  0.46990900  0.89005400  1
  Cl  Cl17  1  0.72511400  0.03009100  0.39005400  1
  Cl  Cl18  1  0.22511400  0.96990900  0.10994600  1
  Cl  Cl19  1  0.27488600  0.53009100  0.60994600  1
  O  O0  1  0.94997000  0.75000000  0.12488200  1
  O  O1  1  0.55003000  0.75000000  0.62488200  1
  O  O2  1  0.05003000  0.25000000  0.87511800  1
  O  O3  1  0.44997000  0.25000000  0.37511800  1
loop_
_geom_bond_atom_site_label_1
_geom_bond_atom_site_label_2
_geom_bond_distance
_geom_bond_site_symmetry_2
Cs0 O3 3.298355 1_555
Cs1 O2 3.298355 1_555
Cs2 O1 3.298355 1_555
Cs3 O0 3.298355 1_555
Cs4 O1 3.298355 1_555
Cs5 O0 3.298355 1_555
Cs6 O3 3.298355 1_555
Cs7 O2 3.298355 1_555
In0 O1 2.157358 1_555
In1 O0 2.157358 1_455
In2 O3 2.157358 1_555
In3 O2 2.157358 1_655
Cl0 O0 1.694301 1_555
Cl0 Cs5 3.491047 1_555
Cl0 Cs3 3.491047 1_555
Cl1 O1 1.694301 1_555
Cl1 Cs2 3.491047 1_555
Cl1 Cs4 3.491047 1_555
Cl2 O2 1.694301 1_555
Cl2 Cs1 3.491047 1_555
Cl2 Cs7 3.491047 1_555
Cl3 O3 1.694301 1_555
Cl3 Cs0 3.491047 1_555
Cl3 Cs6 3.491047 1_555
Cl4 In1 2.449646 1_555
Cl4 Cs0 3.670291 1_555
Cl4 Cs6 3.670291 1_565
Cl4 Cs3 4.114471 1_555
Cl4 Cs5 4.114471 1_555
Cl5 In0 2.449646 1_555
Cl5 Cs7 3.670291 1_555
Cl5 Cs1 3.670291 1_565
Cl5 Cs4 4.114471 1_455
Cl5 Cs2 4.114471 1_455
Cl6 In3 2.449646 1_555
Cl6 Cs2 3.670291 1_545
Cl6 Cs4 3.670291 1_555
Cl6 Cs7 4.114471 1_555
Cl6 Cs1 4.114471 1_555
Cl7 In2 2.449646 1_555
Cl7 Cs5 3.670291 1_545
Cl7 Cs3 3.670291 1_555
Cl7 Cs6 4.114471 1_655
Cl7 Cs0 4.114471 1_655
Cl8 In1 2.462246 1_556
Cl8 Cs7 3.643336 1_555
Cl8 Cs1 3.643336 1_565
Cl8 Cs5 3.996312 1_556
Cl8 Cs3 3.996312 1_556
Cl9 In0 2.462246 1_555
Cl9 Cs0 3.643336 1_555
Cl9 Cs6 3.643336 1_565
Cl9 Cs2 3.996312 1_455
Cl9 Cs4 3.996312 1_455
Cl10 In3 2.462246 1_554
Cl10 Cs5 3.643336 1_545
Cl10 Cs3 3.643336 1_555
Cl10 Cs1 3.996312 1_554
Cl10 Cs7 3.996312 1_554
Cl11 In2 2.462246 1_555
Cl11 Cs2 3.643336 1_545
Cl11 Cs4 3.643336 1_555
Cl11 Cs0 3.996312 1_655
Cl11 Cs6 3.996312 1_655
Cl12 In1 2.537697 1_555
Cl12 Cs7 3.567323 1_554
Cl12 Cs3 3.668618 1_555
Cl12 Cs0 3.847895 1_555
Cl12 Cs3 3.865818 1_455
Cl13 In0 2.537697 1_555
Cl13 Cs6 3.567323 1_565
Cl13 Cs2 3.668618 1_455
Cl13 Cs1 3.847895 1_565
Cl13 Cs2 3.865818 1_555
Cl14 In3 2.537697 1_555
Cl14 Cs5 3.567323 1_546
Cl14 Cs1 3.668618 1_555
Cl14 Cs2 3.847895 1_545
Cl14 Cs1 3.865818 1_655
Cl15 In2 2.537697 1_555
Cl15 Cs4 3.567323 1_555
Cl15 Cs0 3.668618 1_655
Cl15 Cs3 3.847895 1_555
Cl15 Cs0 3.865818 1_555
Cl16 In3 2.537697 1_555
Cl16 Cs3 3.567323 1_556
Cl16 Cs7 3.668618 1_555
Cl16 Cs4 3.847895 1_555
Cl16 Cs7 3.865818 1_655
Cl17 In2 2.537697 1_555
Cl17 Cs2 3.567323 1_545
Cl17 Cs6 3.668618 1_655
Cl17 Cs5 3.847895 1_545
Cl17 Cs6 3.865818 1_555
Cl18 In1 2.537697 1_555
Cl18 Cs1 3.567323 1_564
Cl18 Cs5 3.668618 1_555
Cl18 Cs6 3.847895 1_565
Cl18 Cs5 3.865818 1_455
Cl19 In0 2.537697 1_555
Cl19 Cs0 3.567323 1_555
Cl19 Cs4 3.668618 1_455
Cl19 Cs7 3.847895 1_555
Cl19 Cs4 3.865818 1_555
