# generated using pymatgen
data_NiH7C3NO6
_symmetry_space_group_name_H-M   'P 1'
_cell_length_a   7.39227307
_cell_length_b   7.47117459
_cell_length_c   8.02157771
_cell_angle_alpha   91.03073894
_cell_angle_beta   90.00000210
_cell_angle_gamma   60.34873945
_symmetry_Int_Tables_number   1
_chemical_formula_structural   NiH7C3NO6
_chemical_formula_sum   'Ni2 H14 C6 N2 O12'
_cell_volume   384.92819212
_cell_formula_units_Z   2
loop_
 _symmetry_equiv_pos_site_id
 _symmetry_equiv_pos_as_xyz
  1  'x, y, z'
loop_
 _atom_site_type_symbol
 _atom_site_label
 _atom_site_symmetry_multiplicity
 _atom_site_fract_x
 _atom_site_fract_y
 _atom_site_fract_z
 _atom_site_occupancy
  Ni  Ni0  1  0.66771700  0.66618300  0.25050800  1
  Ni  Ni1  1  0.33390000  0.33381700  0.74949200  1
  H  H0  1  0.58853700  0.41031800  0.49822400  1
  H  H1  1  0.41009900  0.00000000  0.50000000  1
  H  H2  1  0.99885500  0.58968200  0.50177600  1
  H  H3  1  0.40897600  0.59020600  0.99933400  1
  H  H4  1  0.58661700  0.00000000  0.00000000  1
  H  H5  1  0.99918200  0.40979400  0.00066600  1
  H  H6  1  0.98179500  0.91274100  0.34557600  1
  H  H7  1  0.93443100  0.14896800  0.28761600  1
  H  H8  1  0.89453500  0.08725900  0.65442400  1
  H  H9  1  0.08339900  0.85103200  0.71238400  1
  H  H10  1  0.89085200  0.02072900  0.84528800  1
  H  H11  1  0.08495000  0.06537800  0.78792300  1
  H  H12  1  0.91158100  0.97927100  0.15471200  1
  H  H13  1  0.15032800  0.93462200  0.21207700  1
  C  C0  1  0.44206200  0.55942300  0.50139400  1
  C  C1  1  0.55955900  0.00000000  0.50000000  1
  C  C2  1  0.00148400  0.44057700  0.49860600  1
  C  C3  1  0.55723500  0.44299300  0.99997300  1
  C  C4  1  0.43715300  0.00000000  0.00000000  1
  C  C5  1  0.00022800  0.55700700  0.00002700  1
  N  N0  1  0.99570300  0.99524700  0.25010900  1
  N  N1  1  0.99095000  0.00475300  0.74989100  1
  O  O0  1  0.42221300  0.69503600  0.39901900  1
  O  O1  1  0.70104500  0.88002700  0.39807700  1
  O  O2  1  0.88740500  0.41641700  0.39193400  1
  O  O3  1  0.11724800  0.30496400  0.60098100  1
  O  O4  1  0.58107300  0.11997300  0.60192300  1
  O  O5  1  0.30382200  0.58358300  0.60806600  1
  O  O6  1  0.57935700  0.30165000  0.89697300  1
  O  O7  1  0.30197000  0.11134700  0.89393200  1
  O  O8  1  0.11875500  0.57680400  0.89729300  1
  O  O9  1  0.88100700  0.69835000  0.10302700  1
  O  O10  1  0.41331700  0.88865300  0.10606800  1
  O  O11  1  0.69555900  0.42319600  0.10270700  1
loop_
_geom_bond_atom_site_label_1
_geom_bond_atom_site_label_2
_geom_bond_distance
_geom_bond_site_symmetry_2
Ni0 O11 2.072811 1_555
Ni0 O9 2.080491 1_555
Ni0 O1 2.082278 1_555
Ni0 O0 2.088765 1_555
Ni0 O2 2.117593 1_555
Ni0 O10 2.149006 1_555
Ni1 O8 2.072811 1_555
Ni1 O6 2.080490 1_555
Ni1 O4 2.082282 1_555
Ni1 O3 2.088771 1_555
Ni1 O5 2.117593 1_555
Ni1 O7 2.149006 1_555
H6 N0 1.027946 1_555
H7 N0 1.042854 1_545
H8 N1 1.027948 1_555
H9 N1 1.042854 1_465
H10 N1 1.027952 1_555
H11 N1 1.042841 1_455
H12 N0 1.027952 1_555
H13 N0 1.042841 1_455
C0 H0 1.104332 1_555
C0 O0 1.267006 1_555
C0 O5 1.273183 1_555
C1 H1 1.104849 1_555
C1 O1 1.269579 1_545
C1 O4 1.269582 1_555
C2 H2 1.104335 1_455
C2 O3 1.267006 1_555
C2 O2 1.273177 1_455
C3 H3 1.103804 1_555
C3 O11 1.265428 1_556
C3 O6 1.273681 1_555
C4 H4 1.104879 1_555
C4 O7 1.271813 1_554
C4 O10 1.271813 1_545
C5 H5 1.103804 1_455
C5 O8 1.265428 1_554
C5 O9 1.273681 1_455
