# generated using pymatgen
data_V5Fe5Si6
_symmetry_space_group_name_H-M   'P 1'
_cell_length_a   6.86266901
_cell_length_b   6.86266901
_cell_length_c   4.72320100
_cell_angle_alpha   90.00000000
_cell_angle_beta   90.00000000
_cell_angle_gamma   119.40609362
_symmetry_Int_Tables_number   1
_chemical_formula_structural   V5Fe5Si6
_chemical_formula_sum   'V5 Fe5 Si6'
_cell_volume   193.78549037
_cell_formula_units_Z   1
loop_
 _symmetry_equiv_pos_site_id
 _symmetry_equiv_pos_as_xyz
  1  'x, y, z'
loop_
 _atom_site_type_symbol
 _atom_site_label
 _atom_site_symmetry_multiplicity
 _atom_site_fract_x
 _atom_site_fract_y
 _atom_site_fract_z
 _atom_site_occupancy
  V  V0  1  0.99276900  0.77113600  0.00000000  1
  V  V1  1  0.77113600  0.99276900  0.00000000  1
  V  V2  1  0.76921600  0.76921600  0.50000000  1
  V  V3  1  0.99524700  0.22268200  0.50000000  1
  V  V4  1  0.22268200  0.99524700  0.50000000  1
  Fe  Fe0  1  0.67214900  0.33610600  0.25025900  1
  Fe  Fe1  1  0.33610600  0.67214900  0.25025900  1
  Fe  Fe2  1  0.33610600  0.67214900  0.74974100  1
  Fe  Fe3  1  0.67214900  0.33610600  0.74974100  1
  Fe  Fe4  1  0.24136500  0.24136500  0.00000000  1
  Si  Si0  1  0.58206300  0.58206300  0.00000000  1
  Si  Si1  1  0.00784500  0.40445600  0.00000000  1
  Si  Si2  1  0.40445600  0.00784500  0.00000000  1
  Si  Si3  1  0.40473000  0.40473000  0.50000000  1
  Si  Si4  1  0.00232300  0.58962200  0.50000000  1
  Si  Si5  1  0.58962200  0.00232300  0.50000000  1
loop_
_geom_bond_atom_site_label_1
_geom_bond_atom_site_label_2
_geom_bond_distance
_geom_bond_site_symmetry_2
V0 V1 2.626520 1_555
V0 V2 2.812678 1_555
V0 V2 2.812678 1_554
V0 V4 2.837097 1_655
V0 V4 2.837097 1_654
V1 V2 2.812678 1_554
V1 V2 2.812678 1_555
V1 V3 2.837097 1_564
V1 V3 2.837097 1_565
V2 V4 2.711143 1_655
V2 V3 2.711143 1_565
Fe0 Fe3 2.359154 1_555
Fe0 Fe3 2.364047 1_554
Fe0 Si0 2.377646 1_555
Fe0 Si4 2.383550 1_655
Fe0 Si5 2.384375 1_555
Fe0 Si2 2.404780 1_555
Fe0 Si3 2.414518 1_555
Fe0 Si1 2.421447 1_655
Fe0 V0 2.949727 1_555
Fe0 V2 2.953870 1_555
Fe0 V1 2.997024 1_545
Fe1 Fe2 2.359154 1_555
Fe1 Fe2 2.364047 1_554
Fe1 Si0 2.377646 1_555
Fe1 Si5 2.383550 1_565
Fe1 Si4 2.384375 1_555
Fe1 Si1 2.404780 1_555
Fe1 Si3 2.414518 1_555
Fe1 Si2 2.421447 1_565
Fe1 V1 2.949727 1_555
Fe1 V2 2.953870 1_555
Fe1 V0 2.997024 1_455
Fe2 Si0 2.377646 1_556
Fe2 Si5 2.383550 1_565
Fe2 Si4 2.384375 1_555
Fe2 Si1 2.404780 1_556
Fe2 Si3 2.414518 1_555
Fe2 Si2 2.421447 1_566
Fe2 V1 2.949727 1_556
Fe2 V2 2.953870 1_555
Fe2 V0 2.997024 1_456
Fe3 Si0 2.377646 1_556
Fe3 Si4 2.383550 1_655
Fe3 Si5 2.384375 1_555
Fe3 Si2 2.404780 1_556
Fe3 Si3 2.414518 1_555
Fe3 Si1 2.421447 1_656
Fe3 V0 2.949727 1_556
Fe3 V2 2.953870 1_555
Fe3 V1 2.997024 1_546
Fe4 Si0 2.359055 1_555
Fe4 Si2 2.362687 1_555
Fe4 Si1 2.362687 1_555
Fe4 Si3 2.618530 1_555
Fe4 Si3 2.618530 1_554
Fe4 V0 2.813889 1_445
Fe4 V1 2.813889 1_445
Fe4 V3 2.869451 1_454
Fe4 V4 2.869451 1_545
Fe4 V4 2.869451 1_544
Fe4 V3 2.869451 1_455
Si0 V1 2.456921 1_555
Si0 V0 2.456921 1_555
Si0 Si3 2.661740 1_555
Si0 Si3 2.661740 1_554
Si0 V2 2.693783 1_555
Si0 V2 2.693783 1_554
Si1 V1 2.472677 1_445
Si1 V0 2.568784 1_455
Si1 V3 2.652332 1_455
Si1 V3 2.652332 1_454
Si2 V0 2.472677 1_445
Si2 V1 2.568784 1_545
Si2 V4 2.652332 1_545
Si2 V4 2.652332 1_544
Si3 V4 2.451564 1_545
Si3 V3 2.451564 1_455
Si3 V2 2.523767 1_555
Si4 V4 2.429386 1_555
Si4 V2 2.452419 1_455
Si4 V3 2.494704 1_455
Si4 V0 2.685769 1_456
Si4 V0 2.685769 1_455
Si5 V3 2.429386 1_555
Si5 V2 2.452419 1_545
Si5 V4 2.494704 1_545
Si5 V1 2.685769 1_545
Si5 V1 2.685769 1_546
