# generated using pymatgen
data_Na2CoP2O7
_symmetry_space_group_name_H-M   'P 1'
_cell_length_a   6.54630200
_cell_length_b   9.55282378
_cell_length_c   11.06920744
_cell_angle_alpha   115.32074098
_cell_angle_beta   85.92540204
_cell_angle_gamma   106.57192191
_symmetry_Int_Tables_number   1
_chemical_formula_structural   Na2CoP2O7
_chemical_formula_sum   'Na8 Co4 P8 O28'
_cell_volume   598.68935107
_cell_formula_units_Z   4
loop_
 _symmetry_equiv_pos_site_id
 _symmetry_equiv_pos_as_xyz
  1  'x, y, z'
loop_
 _atom_site_type_symbol
 _atom_site_label
 _atom_site_symmetry_multiplicity
 _atom_site_fract_x
 _atom_site_fract_y
 _atom_site_fract_z
 _atom_site_occupancy
  Na  Na0  1  0.22029200  0.03856300  0.10959700  1
  Na  Na1  1  0.39735700  0.52749800  0.34955400  1
  Na  Na2  1  0.96514200  0.29122400  0.52180900  1
  Na  Na3  1  0.15590800  0.43443000  0.05355400  1
  Na  Na4  1  0.60648500  0.54030500  0.96594000  1
  Na  Na5  1  0.03247400  0.70634000  0.47785500  1
  Na  Na6  1  0.61126200  0.47343200  0.65075700  1
  Na  Na7  1  0.82606700  0.95069400  0.90303500  1
  Co  Co0  1  0.71929800  0.88550800  0.21904500  1
  Co  Co1  1  0.28011600  0.11161400  0.77602400  1
  Co  Co2  1  0.35690800  0.76493500  0.73434700  1
  Co  Co3  1  0.63694900  0.23356900  0.25971100  1
  P  P0  1  0.88046600  0.86070300  0.68421300  1
  P  P1  1  0.11721800  0.13530000  0.30991700  1
  P  P2  1  0.07840100  0.38722800  0.79094700  1
  P  P3  1  0.57683000  0.84014100  0.45654500  1
  P  P4  1  0.29287800  0.76868200  0.03719000  1
  P  P5  1  0.92057200  0.60816000  0.20837100  1
  P  P6  1  0.42069400  0.15828400  0.53866200  1
  P  P7  1  0.70124300  0.22461400  0.95883500  1
  O  O0  1  0.77318200  0.06825700  0.03309200  1
  O  O1  1  0.27831300  0.50680700  0.81436300  1
  O  O2  1  0.91554400  0.36873600  0.90168100  1
  O  O3  1  0.69228500  0.76210800  0.77589700  1
  O  O4  1  0.03237100  0.76085700  0.69455500  1
  O  O5  1  0.98381800  0.01769300  0.70031800  1
  O  O6  1  0.71718900  0.48781400  0.19124100  1
  O  O7  1  0.64160600  0.70697100  0.43747600  1
  O  O8  1  0.96363800  0.44394800  0.65318500  1
  O  O9  1  0.21691500  0.08256600  0.46251000  1
  O  O10  1  0.37888300  0.71245600  0.95051300  1
  O  O11  1  0.11401800  0.21863600  0.84132400  1
  O  O12  1  0.55611900  0.97584200  0.31591000  1
  O  O13  1  0.38566600  0.77586700  0.54192000  1
  O  O14  1  0.04139200  0.55356800  0.34434800  1
  O  O15  1  0.96517400  0.24047600  0.28802400  1
  O  O16  1  0.22219300  0.92519700  0.96095700  1
  O  O17  1  0.36075900  0.29250100  0.55868000  1
  O  O18  1  0.61213300  0.27244200  0.05007300  1
  O  O19  1  0.61127000  0.21948500  0.45339800  1
  O  O20  1  0.43708800  0.02037900  0.67814100  1
  O  O21  1  0.07599000  0.62620900  0.09456700  1
  O  O22  1  0.56199600  0.23179000  0.83155800  1
  O  O23  1  0.88612900  0.77741200  0.15669200  1
  O  O24  1  0.43265000  0.76542200  0.16361800  1
  O  O25  1  0.30498900  0.23391100  0.21706800  1
  O  O26  1  0.77643700  0.92069900  0.53109400  1
  O  O27  1  0.01589100  0.97662900  0.29698800  1
loop_
_geom_bond_atom_site_label_1
_geom_bond_atom_site_label_2
_geom_bond_distance
_geom_bond_site_symmetry_2
Na0 O16 1.536464 1_544
Na0 O25 1.676200 1_555
Na0 P1 2.148578 1_555
Na1 O7 1.916586 1_555
Na1 O14 2.420295 1_555
Na1 O13 2.434806 1_555
Na1 O25 2.454083 1_555
Na1 O6 2.638443 1_555
Na2 O8 1.560375 1_555
Na2 O19 2.304191 1_555
Na2 O15 2.420473 1_555
Na2 P1 2.497342 1_655
Na3 O21 1.907278 1_555
Na3 O2 2.146176 1_454
Na3 O11 2.338864 1_554
Na4 O10 2.574428 1_555
Na4 O22 2.608725 1_555
Na4 O23 2.651997 1_556
Na4 O1 2.682092 1_555
Na4 O24 2.779334 1_556
Na4 O2 2.824061 1_555
Na4 O6 2.920615 1_556
Na5 O14 1.583902 1_555
Na5 O4 2.226297 1_555
Na5 O13 2.289972 1_555
Na6 O17 1.956837 1_555
Na6 O8 2.405639 1_555
Na6 O3 2.409865 1_555
Na6 O19 2.474760 1_555
Na6 O1 2.733770 1_555
Na7 O0 1.490521 1_566
Na7 O3 1.760552 1_555
Co0 O12 1.614634 1_555
Co0 O23 1.631557 1_555
Co0 O24 1.883411 1_555
Co0 O27 1.975706 1_655
Co1 O20 1.591980 1_555
Co1 O11 1.624901 1_555
Co1 O22 1.857416 1_555
Co1 O5 1.965872 1_455
Co2 O13 2.169188 1_555
Co2 O4 2.186366 1_555
Co2 O3 2.284805 1_555
Co2 O16 2.566039 1_555
Co2 O10 2.667127 1_555
Co2 O20 2.671852 1_565
Co3 O15 2.171739 1_555
Co3 O19 2.196713 1_555
Co3 O25 2.257513 1_555
O1 P2 1.423694 1_555
O2 P2 1.600721 1_655
O2 P7 1.944469 1_555
O3 P0 1.847351 1_555
O4 P0 1.600735 1_455
O5 P0 1.395810 1_545
O6 P5 1.451398 1_555
O7 P3 1.381320 1_555
O8 P2 2.070056 1_655
O9 P6 1.449532 1_555
O9 P1 2.145869 1_555
O10 P4 1.086716 1_556
O11 P2 1.989975 1_555
O13 P3 1.651086 1_555
O14 P5 2.058864 1_455
O15 P1 1.694663 1_655
O17 P6 1.370600 1_555
O18 P7 1.114729 1_554
O19 P6 1.636334 1_555
O21 P5 1.598542 1_455
O21 P4 1.944364 1_555
O22 P7 1.766710 1_555
O23 P5 2.002411 1_555
O24 P4 1.741311 1_555
O25 P1 1.855457 1_555
O26 P3 1.420222 1_555
O27 P1 1.418589 1_565
