# generated using pymatgen
data_CsSn
_symmetry_space_group_name_H-M   'P 1'
_cell_length_a   12.27962004
_cell_length_b   12.27973759
_cell_length_c   13.27075621
_cell_angle_alpha   117.55934169
_cell_angle_beta   117.55870135
_cell_angle_gamma   89.99999128
_symmetry_Int_Tables_number   1
_chemical_formula_structural   CsSn
_chemical_formula_sum   'Cs16 Sn16'
_cell_volume   1513.30002708
_cell_formula_units_Z   16
loop_
 _symmetry_equiv_pos_site_id
 _symmetry_equiv_pos_as_xyz
  1  'x, y, z'
loop_
 _atom_site_type_symbol
 _atom_site_label
 _atom_site_symmetry_multiplicity
 _atom_site_fract_x
 _atom_site_fract_y
 _atom_site_fract_z
 _atom_site_occupancy
  Cs  Cs0  1  0.25468326  0.00468246  0.74999378  1
  Cs  Cs1  1  0.24530970  0.25468155  0.24999330  1
  Cs  Cs2  1  0.00468847  0.49531654  0.25000622  1
  Cs  Cs3  1  0.49531739  0.24531845  0.75000670  1
  Cs  Cs4  1  0.74531674  0.99531754  0.25000622  1
  Cs  Cs5  1  0.75469030  0.74531845  0.75000670  1
  Cs  Cs6  1  0.99531153  0.50468246  0.74999378  1
  Cs  Cs7  1  0.50468261  0.75468155  0.24999330  1
  Cs  Cs8  1  0.60868671  0.25000000  0.50000000  1
  Cs  Cs9  1  0.75000307  0.60869139  0.00001057  1
  Cs  Cs10  1  0.24999250  0.89130861  0.99998943  1
  Cs  Cs11  1  0.89131512  0.75000000  0.50000000  1
  Cs  Cs12  1  0.39131329  0.75000000  0.50000000  1
  Cs  Cs13  1  0.24999693  0.39130861  0.99998943  1
  Cs  Cs14  1  0.75000750  0.10869139  0.00001057  1
  Cs  Cs15  1  0.10868488  0.25000000  0.50000000  1
  Sn  Sn0  1  0.13399061  0.71909272  0.14556541  1
  Sn  Sn1  1  0.57353997  0.48845427  0.35443690  1
  Sn  Sn2  1  0.78092523  0.36600554  0.35444800  1
  Sn  Sn3  1  0.48842620  0.78090728  0.85443459  1
  Sn  Sn4  1  0.36597821  0.57353299  0.85444733  1
  Sn  Sn5  1  0.92647623  0.13399446  0.64555200  1
  Sn  Sn6  1  0.71910207  0.01154573  0.64556310  1
  Sn  Sn7  1  0.01152987  0.92646701  0.14555267  1
  Sn  Sn8  1  0.86600939  0.28090728  0.85443459  1
  Sn  Sn9  1  0.42646003  0.51154673  0.64556310  1
  Sn  Sn10  1  0.21907477  0.63399446  0.64555200  1
  Sn  Sn11  1  0.51157480  0.21909272  0.14556541  1
  Sn  Sn12  1  0.63402179  0.42646701  0.14555267  1
  Sn  Sn13  1  0.07352377  0.86600554  0.35444800  1
  Sn  Sn14  1  0.28089793  0.98845327  0.35443690  1
  Sn  Sn15  1  0.98846913  0.07353299  0.85444733  1
loop_
_geom_bond_atom_site_label_1
_geom_bond_atom_site_label_2
_geom_bond_distance
_geom_bond_site_symmetry_2
Cs0 Sn13 4.040554 1_545
Cs0 Sn11 4.040829 1_556
Cs0 Sn15 4.053548 1_455
Cs0 Sn10 4.053850 1_545
Cs0 Cs11 4.171147 1_445
Cs0 Cs10 4.171209 1_545
Cs0 Cs3 4.178778 1_555
Cs0 Sn5 4.189659 1_455
Cs0 Sn3 4.189699 1_545
Cs0 Cs12 4.376278 1_545
Cs0 Cs13 4.376305 1_555
Cs1 Sn15 4.040495 1_454
Cs1 Sn9 4.040759 1_555
Cs1 Sn14 4.053680 1_545
Cs1 Sn11 4.053935 1_555
Cs1 Cs10 4.171210 1_544
Cs1 Cs8 4.171256 1_555
Cs1 Cs2 4.178769 1_555
Cs1 Sn7 4.189916 1_545
Cs1 Sn1 4.189996 1_555
Cs1 Cs15 4.376374 1_555
Cs1 Cs13 4.376408 1_554
Cs2 Sn10 4.040552 1_555
Cs2 Sn8 4.040831 1_454
Cs2 Sn12 4.053536 1_455
Cs2 Sn13 4.053863 1_555
Cs2 Cs9 4.171213 1_455
Cs2 Sn2 4.189633 1_455
Cs2 Sn0 4.189710 1_555
Cs3 Sn12 4.040497 1_556
Cs3 Sn14 4.040759 1_545
Cs3 Sn9 4.053682 1_555
Cs3 Sn8 4.053923 1_555
Cs3 Cs9 4.171205 1_556
Cs3 Cs8 4.171248 1_555
Cs3 Sn4 4.189915 1_555
Cs3 Sn6 4.189975 1_555
Cs4 Sn5 4.040554 1_565
Cs4 Sn3 4.040827 1_554
Cs4 Sn7 4.053536 1_655
Cs4 Sn2 4.053850 1_565
Cs4 Cs7 4.178778 1_555
Cs4 Sn13 4.189659 1_655
Cs4 Sn11 4.189693 1_565
Cs4 Cs8 4.376278 1_565
Cs4 Cs9 4.376305 1_555
Cs5 Sn7 4.040493 1_656
Cs5 Sn1 4.040757 1_555
Cs5 Sn6 4.053669 1_565
Cs5 Sn3 4.053923 1_555
Cs5 Cs6 4.178777 1_555
Cs5 Sn15 4.189909 1_565
Cs5 Sn9 4.189989 1_555
Cs5 Cs9 4.376408 1_556
Cs6 Sn2 4.040554 1_555
Cs6 Sn0 4.040831 1_656
Cs6 Sn4 4.053536 1_655
Cs6 Sn5 4.053851 1_555
Cs6 Sn10 4.189639 1_655
Cs6 Sn8 4.189700 1_555
Cs6 Cs8 4.376288 1_555
Cs7 Sn4 4.040497 1_554
Cs7 Sn6 4.040757 1_565
Cs7 Sn1 4.053670 1_555
Cs7 Sn0 4.053923 1_555
Cs7 Sn12 4.189915 1_555
Cs7 Sn14 4.189969 1_555
Cs8 Sn5 4.069383 1_555
Cs8 Sn2 4.069393 1_555
Cs8 Sn11 4.104640 1_555
Cs8 Sn8 4.104640 1_555
Cs8 Sn6 4.117593 1_555
Cs8 Sn1 4.117594 1_555
Cs8 Sn14 4.160851 1_545
Cs8 Sn9 4.160860 1_555
Cs9 Sn7 4.069081 1_655
Cs9 Sn3 4.069444 1_554
Cs9 Sn13 4.104570 1_655
Cs9 Sn9 4.104714 1_554
Cs9 Sn0 4.117212 1_655
Cs9 Sn4 4.117621 1_554
Cs9 Sn12 4.160604 1_555
Cs9 Sn8 4.161001 1_554
Cs10 Sn4 4.069088 1_555
Cs10 Sn0 4.069451 1_556
Cs10 Sn10 4.104564 1_555
Cs10 Sn14 4.104709 1_556
Cs10 Sn3 4.117223 1_555
Cs10 Sn7 4.117633 1_556
Cs10 Sn15 4.160604 1_465
Cs10 Sn11 4.161001 1_566
Cs10 Cs6 4.376301 1_455
Cs10 Cs7 4.376403 1_556
Cs11 Sn1 4.069109 1_555
Cs11 Sn6 4.069118 1_565
Cs11 Sn15 4.104620 1_565
Cs11 Sn12 4.104620 1_555
Cs11 Sn2 4.117308 1_555
Cs11 Sn5 4.117310 1_565
Cs11 Sn10 4.160717 1_655
Cs11 Sn13 4.160727 1_655
Cs11 Cs2 4.171143 1_655
Cs11 Cs5 4.376374 1_555
Cs11 Cs7 4.376383 1_555
Cs12 Sn13 4.069383 1_555
Cs12 Sn10 4.069393 1_555
Cs12 Sn3 4.104637 1_555
Cs12 Sn0 4.104640 1_555
Cs12 Sn14 4.117581 1_555
Cs12 Sn9 4.117583 1_555
Cs12 Sn6 4.160844 1_565
Cs12 Sn1 4.160853 1_555
Cs12 Cs7 4.171248 1_555
Cs12 Cs5 4.171256 1_555
Cs12 Cs2 4.376292 1_555
Cs13 Sn15 4.069088 1_455
Cs13 Sn11 4.069451 1_556
Cs13 Sn5 4.104570 1_455
Cs13 Sn1 4.104711 1_556
Cs13 Sn8 4.117212 1_455
Cs13 Sn12 4.117621 1_556
Cs13 Sn4 4.160604 1_555
Cs13 Sn0 4.161001 1_556
Cs13 Cs6 4.171204 1_455
Cs13 Cs7 4.171205 1_556
Cs14 Sn12 4.069088 1_555
Cs14 Sn8 4.069451 1_554
Cs14 Sn2 4.104564 1_555
Cs14 Sn6 4.104706 1_554
Cs14 Sn11 4.117212 1_555
Cs14 Sn15 4.117621 1_554
Cs14 Sn7 4.160597 1_645
Cs14 Sn3 4.160995 1_544
Cs14 Cs4 4.171209 1_545
Cs14 Cs5 4.171210 1_544
Cs14 Cs2 4.376292 1_655
Cs14 Cs3 4.376403 1_554
Cs15 Sn9 4.069116 1_555
Cs15 Sn14 4.069125 1_545
Cs15 Sn7 4.104617 1_545
Cs15 Sn4 4.104620 1_555
Cs15 Sn10 4.117308 1_555
Cs15 Sn13 4.117310 1_545
Cs15 Sn2 4.160717 1_455
Cs15 Sn5 4.160727 1_455
Cs15 Cs6 4.171138 1_455
Cs15 Cs4 4.171147 1_445
Cs15 Cs3 4.376383 1_555
Sn0 Sn7 2.957391 1_555
Sn0 Sn13 2.960932 1_555
Sn0 Sn14 2.960998 1_555
Sn1 Sn2 2.957367 1_555
Sn1 Sn11 2.961004 1_555
Sn1 Sn12 2.961046 1_555
Sn3 Sn4 2.957391 1_555
Sn3 Sn9 2.960994 1_555
Sn4 Sn9 2.961048 1_555
Sn5 Sn6 2.957367 1_555
Sn5 Sn8 2.960932 1_555
Sn6 Sn8 2.961007 1_555
Sn10 Sn9 2.957361 1_555
Sn10 Sn3 2.960949 1_555
Sn10 Sn4 2.961022 1_555
Sn11 Sn12 2.957385 1_555
Sn11 Sn2 2.960941 1_555
Sn12 Sn2 2.961022 1_555
Sn13 Sn14 2.957361 1_555
Sn13 Sn7 2.961018 1_555
Sn14 Sn7 2.961065 1_555
Sn15 Sn8 2.957385 1_555
Sn15 Sn5 2.961020 1_555
Sn15 Sn6 2.961054 1_555
