# generated using pymatgen
data_Li4Ti3Co2Sn3O16
_symmetry_space_group_name_H-M   'P 1'
_cell_length_a   6.17429669
_cell_length_b   9.86655191
_cell_length_c   6.11732300
_cell_angle_alpha   89.86639746
_cell_angle_beta   60.03382507
_cell_angle_gamma   89.98237536
_symmetry_Int_Tables_number   1
_chemical_formula_structural   Li4Ti3Co2Sn3O16
_chemical_formula_sum   'Li4 Ti3 Co2 Sn3 O16'
_cell_volume   322.84307591
_cell_formula_units_Z   1
loop_
 _symmetry_equiv_pos_site_id
 _symmetry_equiv_pos_as_xyz
  1  'x, y, z'
loop_
 _atom_site_type_symbol
 _atom_site_label
 _atom_site_symmetry_multiplicity
 _atom_site_fract_x
 _atom_site_fract_y
 _atom_site_fract_z
 _atom_site_occupancy
  Li  Li0  1  0.31835300  0.89166600  0.36045300  1
  Li  Li1  1  0.02441100  0.99324900  0.95751700  1
  Li  Li2  1  0.99976800  0.50043400  0.98405500  1
  Li  Li3  1  0.66480900  0.39465000  0.67364500  1
  Ti  Ti0  1  0.17374800  0.22600800  0.65799800  1
  Ti  Ti1  1  0.32257200  0.70425200  0.80538300  1
  Ti  Ti2  1  0.77572200  0.73171200  0.86911100  1
  Co  Co0  1  0.66563200  0.99952000  0.66842800  1
  Co  Co1  1  0.34236700  0.49789200  0.31970700  1
  Sn  Sn0  1  0.84267500  0.71429600  0.34310900  1
  Sn  Sn1  1  0.66385900  0.20856200  0.16464600  1
  Sn  Sn2  1  0.17006000  0.21059500  0.16779800  1
  O  O0  1  0.48260900  0.33609500  0.03546200  1
  O  O1  1  0.32574400  0.09827700  0.34922900  1
  O  O2  1  0.00410500  0.31755900  0.99063900  1
  O  O3  1  0.00529000  0.81024100  0.98520300  1
  O  O4  1  0.84807800  0.09274000  0.30618600  1
  O  O5  1  0.19277400  0.59725300  0.66412500  1
  O  O6  1  0.65589100  0.60727000  0.69508800  1
  O  O7  1  0.50734300  0.83568800  0.99196400  1
  O  O8  1  0.68933800  0.60436700  0.15255200  1
  O  O9  1  0.16754200  0.60141700  0.14411500  1
  O  O10  1  0.47746300  0.32962900  0.49220600  1
  O  O11  1  0.03318700  0.33201400  0.49353400  1
  O  O12  1  0.95944900  0.83228900  0.54263800  1
  O  O13  1  0.51179700  0.83161100  0.53446100  1
  O  O14  1  0.85430200  0.10380800  0.82448100  1
  O  O15  1  0.32141000  0.10474800  0.82627200  1
loop_
_geom_bond_atom_site_label_1
_geom_bond_atom_site_label_2
_geom_bond_distance
_geom_bond_site_symmetry_2
Li0 O12 2.006605 1_455
Li0 O7 2.031177 1_554
Li0 O1 2.039291 1_565
Li0 O13 2.043874 1_555
Li1 O3 1.811561 1_555
Li1 O15 1.934910 1_565
Li1 O14 1.950491 1_465
Li1 O4 2.094659 1_466
Li2 O2 1.805190 1_655
Li2 O8 1.953924 1_556
Li2 O5 1.955774 1_655
Li2 O9 2.010701 1_656
Li3 O0 2.001322 1_556
Li3 O10 2.065879 1_555
Li3 O11 2.065910 1_655
Li3 O6 2.101216 1_555
Co0 O14 2.107916 1_565
Co0 O15 2.116730 1_565
Co0 O4 2.126691 1_565
Co0 O13 2.259043 1_555
Co0 O12 2.283673 1_555
Co0 O7 2.353500 1_555
Co1 O5 2.078059 1_555
Co1 O9 2.124798 1_555
Co1 O8 2.132301 1_555
Co1 O0 2.197655 1_555
Co1 O11 2.327973 1_555
Co1 O10 2.331465 1_555
O0 Sn1 2.082832 1_555
O0 Sn2 2.085378 1_555
O1 Ti0 2.067916 1_555
O1 Sn2 2.107903 1_555
O1 Sn1 2.111402 1_555
O2 Ti0 1.983062 1_555
O2 Sn2 2.107494 1_556
O2 Sn1 2.113062 1_456
O3 Ti1 1.998164 1_555
O3 Ti2 2.030415 1_455
O3 Sn0 2.119604 1_456
O4 Sn1 2.080322 1_555
O4 Sn2 2.082449 1_655
O5 Ti1 1.788875 1_555
O5 Ti2 2.596739 1_455
O6 Ti2 1.995419 1_555
O6 Ti1 2.054487 1_555
O6 Sn0 2.142605 1_555
O7 Ti2 1.766792 1_555
O7 Ti1 2.365286 1_555
O8 Ti2 1.983928 1_554
O8 Sn0 2.130870 1_555
O9 Ti1 2.061264 1_554
O9 Sn0 2.076367 1_455
O10 Ti0 1.920098 1_555
O10 Sn1 2.114973 1_555
O11 Ti0 1.930312 1_555
O11 Sn2 2.109078 1_555
O12 Ti2 1.997097 1_555
O12 Sn0 2.061860 1_555
O13 Ti1 1.935873 1_555
O13 Sn0 2.121210 1_555
O14 Sn1 2.084700 1_556
O14 Ti0 2.090493 1_655
O15 Ti0 2.062375 1_555
O15 Sn2 2.094756 1_556
