# generated using pymatgen
data_Dy2Fe12P7
_symmetry_space_group_name_H-M   'P 1'
_cell_length_a   8.96496797
_cell_length_b   8.96496797
_cell_length_c   3.63604000
_cell_angle_alpha   90.00000000
_cell_angle_beta   90.00000000
_cell_angle_gamma   119.99999979
_symmetry_Int_Tables_number   1
_chemical_formula_structural   Dy2Fe12P7
_chemical_formula_sum   'Dy2 Fe12 P7'
_cell_volume   253.07938450
_cell_formula_units_Z   1
loop_
 _symmetry_equiv_pos_site_id
 _symmetry_equiv_pos_as_xyz
  1  'x, y, z'
loop_
 _atom_site_type_symbol
 _atom_site_label
 _atom_site_symmetry_multiplicity
 _atom_site_fract_x
 _atom_site_fract_y
 _atom_site_fract_z
 _atom_site_occupancy
  Dy  Dy0  1  0.33333300  0.66666700  0.00000000  1
  Dy  Dy1  1  0.00000000  0.00000000  0.50000000  1
  Fe  Fe0  1  0.72230100  0.76099100  0.00000000  1
  Fe  Fe1  1  0.23900900  0.96131000  0.00000000  1
  Fe  Fe2  1  0.03869000  0.27769900  0.00000000  1
  Fe  Fe3  1  0.94190300  0.48900300  0.00000000  1
  Fe  Fe4  1  0.51099700  0.45289900  0.00000000  1
  Fe  Fe5  1  0.54710100  0.05809700  0.00000000  1
  Fe  Fe6  1  0.09848500  0.71694900  0.50000000  1
  Fe  Fe7  1  0.28305100  0.38153600  0.50000000  1
  Fe  Fe8  1  0.61846400  0.90151500  0.50000000  1
  Fe  Fe9  1  0.76333400  0.55013400  0.50000000  1
  Fe  Fe10  1  0.44986600  0.21320100  0.50000000  1
  Fe  Fe11  1  0.78679900  0.23666600  0.50000000  1
  P  P0  1  0.96331300  0.74382900  0.00000000  1
  P  P1  1  0.25617100  0.21948400  0.00000000  1
  P  P2  1  0.78051600  0.03668700  0.00000000  1
  P  P3  1  0.06789700  0.44481400  0.50000000  1
  P  P4  1  0.55518600  0.62308200  0.50000000  1
  P  P5  1  0.37691800  0.93210300  0.50000000  1
  P  P6  1  0.66666700  0.33333300  0.00000000  1
loop_
_geom_bond_atom_site_label_1
_geom_bond_atom_site_label_2
_geom_bond_distance
_geom_bond_site_symmetry_2
Dy0 P5 2.861936 1_554
Dy0 P5 2.861936 1_555
Dy0 P3 2.861941 1_554
Dy0 P3 2.861941 1_555
Dy0 P4 2.861950 1_554
Dy0 P4 2.861950 1_555
Dy0 Fe6 2.981643 1_555
Dy0 Fe6 2.981643 1_554
Dy0 Fe8 2.981647 1_554
Dy0 Fe8 2.981647 1_555
Dy0 Fe7 2.981650 1_555
Dy0 Fe7 2.981650 1_554
Dy0 Fe3 3.043325 1_455
Dy0 Fe5 3.043326 1_565
Dy0 Fe4 3.043341 1_555
Dy0 Fe1 3.150563 1_555
Dy0 Fe2 3.150570 1_555
Dy0 Fe0 3.150572 1_555
Dy1 P2 2.816424 1_456
Dy1 P2 2.816424 1_455
Dy1 P0 2.816424 1_446
Dy1 P0 2.816424 1_445
Dy1 P1 2.816424 1_556
Dy1 P1 2.816424 1_555
Dy1 Fe1 2.959715 1_546
Dy1 Fe1 2.959715 1_545
Dy1 Fe2 2.959715 1_556
Dy1 Fe2 2.959715 1_555
Dy1 Fe0 2.959715 1_445
Dy1 Fe0 2.959715 1_446
Dy1 Fe6 3.075565 1_545
Dy1 Fe8 3.075565 1_445
Dy1 Fe7 3.075565 1_555
Fe0 P0 2.241557 1_555
Fe0 P2 2.256389 1_565
Fe0 P4 2.286051 1_554
Fe0 P4 2.286051 1_555
Fe1 P1 2.241557 1_565
Fe1 P0 2.256389 1_455
Fe1 P5 2.286054 1_555
Fe1 P5 2.286054 1_554
Fe2 P2 2.241557 1_455
Fe2 P1 2.256389 1_555
Fe2 P3 2.286049 1_555
Fe2 P3 2.286049 1_554
Fe3 P6 2.143021 1_555
Fe3 P0 2.194840 1_555
Fe3 P3 2.277157 1_655
Fe3 P3 2.277157 1_654
Fe4 P6 2.143021 1_555
Fe4 P1 2.194837 1_555
Fe4 P4 2.277157 1_555
Fe4 P4 2.277157 1_554
Fe5 P6 2.143021 1_555
Fe5 P2 2.194832 1_555
Fe5 P5 2.277157 1_544
Fe5 P5 2.277157 1_545
Fe6 P0 2.263576 1_455
Fe6 P0 2.263576 1_456
Fe6 P5 2.266386 1_555
Fe6 P3 2.314786 1_555
Fe7 P1 2.263576 1_556
Fe7 P1 2.263576 1_555
Fe7 P3 2.266380 1_555
Fe7 P4 2.314782 1_555
Fe8 P2 2.263576 1_566
Fe8 P2 2.263576 1_565
Fe8 P4 2.266389 1_555
Fe8 P5 2.314777 1_555
Fe9 P4 2.264981 1_555
Fe9 P6 2.479816 1_555
Fe9 P6 2.479816 1_556
Fe9 P0 2.534072 1_556
Fe9 P0 2.534072 1_555
Fe10 P5 2.264998 1_545
Fe10 P6 2.479815 1_555
Fe10 P6 2.479815 1_556
Fe10 P1 2.534069 1_555
Fe10 P1 2.534069 1_556
Fe11 P3 2.264993 1_655
Fe11 P6 2.479805 1_555
Fe11 P6 2.479805 1_556
Fe11 P2 2.534075 1_556
Fe11 P2 2.534075 1_555
