# generated using pymatgen
data_YFe3
_symmetry_space_group_name_H-M   'P 1'
_cell_length_a   5.14693485
_cell_length_b   5.14693485
_cell_length_c   8.63263364
_cell_angle_alpha   72.65592460
_cell_angle_beta   72.65592460
_cell_angle_gamma   60.00001478
_symmetry_Int_Tables_number   1
_chemical_formula_structural   YFe3
_chemical_formula_sum   'Y3 Fe9'
_cell_volume   185.94496938
_cell_formula_units_Z   3
loop_
 _symmetry_equiv_pos_site_id
 _symmetry_equiv_pos_as_xyz
  1  'x, y, z'
loop_
 _atom_site_type_symbol
 _atom_site_label
 _atom_site_symmetry_multiplicity
 _atom_site_fract_x
 _atom_site_fract_y
 _atom_site_fract_z
 _atom_site_occupancy
  Y  Y0  1  0.14198000  0.14198000  0.57405900  1
  Y  Y1  1  0.85802000  0.85802000  0.42594100  1
  Y  Y2  1  0.00000000  0.00000000  0.00000000  1
  Fe  Fe0  1  0.08231400  0.58024900  0.75718700  1
  Fe  Fe1  1  0.58024900  0.58024900  0.75718700  1
  Fe  Fe2  1  0.58024900  0.08231400  0.75718700  1
  Fe  Fe3  1  0.91768600  0.41975100  0.24281300  1
  Fe  Fe4  1  0.41975100  0.41975100  0.24281300  1
  Fe  Fe5  1  0.41975100  0.91768600  0.24281300  1
  Fe  Fe6  1  0.33259500  0.33259500  0.00221500  1
  Fe  Fe7  1  0.66740500  0.66740500  0.99778500  1
  Fe  Fe8  1  0.50000000  0.50000000  0.50000000  1
loop_
_geom_bond_atom_site_label_1
_geom_bond_atom_site_label_2
_geom_bond_distance
_geom_bond_site_symmetry_2
Fe0 Fe7 2.455318 1_455
Fe0 Fe6 2.476581 1_556
Fe0 Fe8 2.556286 1_555
Fe0 Fe1 2.562839 1_555
Fe0 Fe2 2.562840 1_555
Fe0 Fe1 2.584096 1_455
Fe0 Fe2 2.584096 1_465
Fe0 Y0 2.970827 1_565
Fe0 Y0 2.970827 1_555
Fe0 Y1 3.071454 1_455
Fe0 Y2 3.239728 1_556
Fe0 Y2 3.239733 1_566
Fe1 Fe7 2.455321 1_555
Fe1 Fe6 2.476578 1_556
Fe1 Fe8 2.556283 1_555
Fe1 Fe2 2.562839 1_555
Fe1 Fe2 2.584096 1_565
Fe1 Y0 2.970827 1_655
Fe1 Y0 2.970827 1_565
Fe1 Y1 3.071458 1_555
Fe1 Y2 3.239731 1_656
Fe1 Y2 3.239731 1_566
Fe2 Fe7 2.455318 1_545
Fe2 Fe6 2.476581 1_556
Fe2 Fe8 2.556286 1_555
Fe2 Y0 2.970827 1_655
Fe2 Y0 2.970827 1_555
Fe2 Y1 3.071454 1_545
Fe2 Y2 3.239728 1_556
Fe2 Y2 3.239733 1_656
Fe3 Fe6 2.455318 1_655
Fe3 Fe7 2.476581 1_554
Fe3 Fe8 2.556286 1_555
Fe3 Fe4 2.562839 1_555
Fe3 Fe5 2.562840 1_555
Fe3 Fe4 2.584096 1_655
Fe3 Fe5 2.584096 1_645
Fe3 Y1 2.970827 1_545
Fe3 Y1 2.970827 1_555
Fe3 Y0 3.071454 1_655
Fe3 Y2 3.239728 1_665
Fe3 Y2 3.239733 1_655
Fe4 Fe6 2.455321 1_555
Fe4 Fe7 2.476578 1_554
Fe4 Fe8 2.556283 1_555
Fe4 Fe5 2.562839 1_555
Fe4 Fe5 2.584096 1_545
Fe4 Y1 2.970827 1_455
Fe4 Y1 2.970827 1_545
Fe4 Y0 3.071458 1_555
Fe4 Y2 3.239731 1_655
Fe4 Y2 3.239731 1_565
Fe5 Fe6 2.455318 1_565
Fe5 Fe7 2.476581 1_554
Fe5 Fe8 2.556286 1_555
Fe5 Y1 2.970827 1_455
Fe5 Y1 2.970827 1_555
Fe5 Y0 3.071454 1_565
Fe5 Y2 3.239728 1_665
Fe5 Y2 3.239733 1_565
Fe6 Y2 2.971638 1_555
Fe6 Y2 2.971639 1_565
Fe6 Y2 2.971639 1_655
Fe7 Y2 2.971638 1_666
Fe7 Y2 2.971639 1_566
Fe7 Y2 2.971639 1_656
Fe8 Y1 3.031602 1_545
Fe8 Y1 3.031602 1_455
Fe8 Y0 3.031602 1_565
Fe8 Y0 3.031602 1_655
Fe8 Y1 3.031606 1_555
Fe8 Y0 3.031606 1_555
