# generated using pymatgen
data_Cs19(W2N5)6
_symmetry_space_group_name_H-M   'P 1'
_cell_length_a   12.31953056
_cell_length_b   12.31953056
_cell_length_c   12.31953072
_cell_angle_alpha   65.66055939
_cell_angle_beta   65.66055939
_cell_angle_gamma   65.66055343
_symmetry_Int_Tables_number   1
_chemical_formula_structural   Cs19(W2N5)6
_chemical_formula_sum   'Cs19 W12 N30'
_cell_volume   1484.57213179
_cell_formula_units_Z   1
loop_
 _symmetry_equiv_pos_site_id
 _symmetry_equiv_pos_as_xyz
  1  'x, y, z'
loop_
 _atom_site_type_symbol
 _atom_site_label
 _atom_site_symmetry_multiplicity
 _atom_site_fract_x
 _atom_site_fract_y
 _atom_site_fract_z
 _atom_site_occupancy
  Cs  Cs0  1  0.44290800  0.82802100  0.55631900  1
  Cs  Cs1  1  0.82802100  0.55631900  0.44290800  1
  Cs  Cs2  1  0.55631900  0.44290800  0.82802100  1
  Cs  Cs3  1  0.94424900  0.05507500  0.32312800  1
  Cs  Cs4  1  0.05507500  0.32312800  0.94424900  1
  Cs  Cs5  1  0.32312800  0.94424900  0.05507500  1
  Cs  Cs6  1  0.55709200  0.17197900  0.44368100  1
  Cs  Cs7  1  0.17197900  0.44368100  0.55709200  1
  Cs  Cs8  1  0.44368100  0.55709200  0.17197900  1
  Cs  Cs9  1  0.05575100  0.94492500  0.67687200  1
  Cs  Cs10  1  0.94492500  0.67687200  0.05575100  1
  Cs  Cs11  1  0.67687200  0.05575100  0.94492500  1
  Cs  Cs12  1  0.57611200  0.92312200  0.75030000  1
  Cs  Cs13  1  0.92312200  0.75030000  0.57611200  1
  Cs  Cs14  1  0.75030000  0.57611200  0.92312200  1
  Cs  Cs15  1  0.07687800  0.24970000  0.42388800  1
  Cs  Cs16  1  0.24970000  0.42388800  0.07687800  1
  Cs  Cs17  1  0.42388800  0.07687800  0.24970000  1
  Cs  Cs18  1  0.50000000  0.50000000  0.50000000  1
  W  W0  1  0.60034300  0.74444700  0.20841400  1
  W  W1  1  0.74444700  0.20841400  0.60034300  1
  W  W2  1  0.20841400  0.60034300  0.74444700  1
  W  W3  1  0.09951800  0.71026600  0.24295300  1
  W  W4  1  0.71026600  0.24295300  0.09951800  1
  W  W5  1  0.24295300  0.09951800  0.71026600  1
  W  W6  1  0.39965700  0.25555300  0.79158600  1
  W  W7  1  0.25555300  0.79158600  0.39965700  1
  W  W8  1  0.79158600  0.39965700  0.25555300  1
  W  W9  1  0.90048200  0.28973400  0.75704700  1
  W  W10  1  0.28973400  0.75704700  0.90048200  1
  W  W11  1  0.75704700  0.90048200  0.28973400  1
  N  N0  1  0.33043400  0.16955000  0.74996100  1
  N  N1  1  0.16955000  0.74996100  0.33043400  1
  N  N2  1  0.74996100  0.33043400  0.16955000  1
  N  N3  1  0.83045000  0.25003900  0.66956600  1
  N  N4  1  0.25003900  0.66956600  0.83045000  1
  N  N5  1  0.66956600  0.83045000  0.25003900  1
  N  N6  1  0.69257500  0.57080900  0.23887800  1
  N  N7  1  0.57080900  0.23887800  0.69257500  1
  N  N8  1  0.23887800  0.69257500  0.57080900  1
  N  N9  1  0.19546200  0.73509800  0.07186100  1
  N  N10  1  0.73509800  0.07186100  0.19546200  1
  N  N11  1  0.07186100  0.19546200  0.73509800  1
  N  N12  1  0.30742500  0.42919100  0.76112200  1
  N  N13  1  0.42919100  0.76112200  0.30742500  1
  N  N14  1  0.76112200  0.30742500  0.42919100  1
  N  N15  1  0.80453800  0.26490200  0.92813900  1
  N  N16  1  0.26490200  0.92813900  0.80453800  1
  N  N17  1  0.92813900  0.80453800  0.26490200  1
  N  N18  1  0.69044800  0.89367400  0.45181100  1
  N  N19  1  0.89367400  0.45181100  0.69044800  1
  N  N20  1  0.45181100  0.69044800  0.89367400  1
  N  N21  1  0.19009600  0.95311700  0.39305200  1
  N  N22  1  0.95311700  0.39305200  0.19009600  1
  N  N23  1  0.39305200  0.19009600  0.95311700  1
  N  N24  1  0.30955200  0.10632600  0.54818900  1
  N  N25  1  0.10632600  0.54818900  0.30955200  1
  N  N26  1  0.54818900  0.30955200  0.10632600  1
  N  N27  1  0.80990400  0.04688300  0.60694800  1
  N  N28  1  0.04688300  0.60694800  0.80990400  1
  N  N29  1  0.60694800  0.80990400  0.04688300  1
loop_
_geom_bond_atom_site_label_1
_geom_bond_atom_site_label_2
_geom_bond_distance
_geom_bond_site_symmetry_2
Cs0 N18 3.090326 1_555
Cs0 N24 3.110287 1_565
Cs1 N19 3.090326 1_555
Cs1 N25 3.110287 1_655
Cs2 N20 3.090326 1_555
Cs2 N26 3.110287 1_556
Cs3 N21 3.100935 1_645
Cs3 N27 3.170464 1_555
Cs4 N22 3.100935 1_456
Cs4 N28 3.170464 1_555
Cs5 N23 3.100935 1_564
Cs5 N29 3.170464 1_555
Cs6 N24 3.090326 1_555
Cs6 N18 3.110287 1_545
Cs7 N25 3.090326 1_555
Cs7 N19 3.110287 1_455
Cs8 N26 3.090326 1_555
Cs8 N20 3.110287 1_554
Cs9 N27 3.100935 1_465
Cs9 N21 3.170464 1_555
Cs10 N28 3.100935 1_654
Cs10 N22 3.170464 1_555
Cs11 N29 3.100935 1_546
Cs11 N23 3.170464 1_555
Cs12 N0 3.286813 1_565
Cs12 N20 3.300992 1_555
Cs12 N27 3.308567 1_565
Cs12 N29 3.456350 1_556
Cs12 N18 3.470840 1_555
Cs12 N16 3.588400 1_555
Cs12 N7 3.631860 1_565
Cs13 N1 3.286814 1_655
Cs13 N18 3.300991 1_555
Cs13 N28 3.308567 1_655
Cs13 N27 3.456350 1_565
Cs13 N19 3.470840 1_555
Cs13 N17 3.588400 1_555
Cs13 N8 3.631860 1_655
Cs14 N2 3.286814 1_556
Cs14 N19 3.300992 1_555
Cs14 N29 3.308567 1_556
Cs14 N28 3.456350 1_655
Cs14 N20 3.470839 1_555
Cs14 N15 3.588400 1_555
Cs14 N6 3.631860 1_556
Cs15 N3 3.286814 1_455
Cs15 N24 3.300991 1_555
Cs15 N22 3.308567 1_455
Cs15 N21 3.456350 1_545
Cs15 N25 3.470840 1_555
Cs15 N11 3.588400 1_555
Cs15 N14 3.631860 1_455
Cs16 N4 3.286814 1_554
Cs16 N25 3.300992 1_555
Cs16 N23 3.308567 1_554
Cs16 N22 3.456350 1_455
Cs16 N26 3.470839 1_555
Cs16 N9 3.588400 1_555
Cs16 N12 3.631860 1_554
Cs17 N5 3.286813 1_545
Cs17 N26 3.300992 1_555
Cs17 N21 3.308567 1_545
Cs17 N23 3.456350 1_554
Cs17 N24 3.470840 1_555
Cs17 N10 3.588400 1_555
Cs17 N13 3.631860 1_545
Cs18 N14 3.136847 1_555
Cs18 N8 3.136847 1_555
Cs18 N13 3.136847 1_555
Cs18 N7 3.136847 1_555
Cs18 N12 3.136847 1_555
Cs18 N6 3.136847 1_555
N0 W6 1.914654 1_555
N0 W5 1.921881 1_555
N1 W7 1.914654 1_555
N1 W3 1.921881 1_555
N2 W8 1.914654 1_555
N2 W4 1.921881 1_555
N3 W1 1.914654 1_555
N3 W9 1.921881 1_555
N4 W2 1.914654 1_555
N4 W10 1.921881 1_555
N5 W0 1.914654 1_555
N5 W11 1.921881 1_555
N6 W0 1.922000 1_555
N6 W8 1.924941 1_555
N7 W1 1.922000 1_555
N7 W6 1.924941 1_555
N8 W2 1.922000 1_555
N8 W7 1.924941 1_555
N9 W3 1.909542 1_555
N9 W10 1.909622 1_554
N10 W4 1.909542 1_555
N10 W11 1.909622 1_545
N11 W5 1.909541 1_555
N11 W9 1.909622 1_455
N12 W6 1.922000 1_555
N12 W2 1.924941 1_555
N13 W7 1.922000 1_555
N13 W0 1.924941 1_555
N14 W8 1.922000 1_555
N14 W1 1.924941 1_555
N15 W9 1.909542 1_555
N15 W4 1.909622 1_556
N16 W10 1.909542 1_555
N16 W5 1.909622 1_565
N17 W11 1.909541 1_555
N17 W3 1.909622 1_655
N18 W11 1.798714 1_555
N19 W9 1.798714 1_555
N20 W10 1.798714 1_555
N21 W7 1.792990 1_555
N22 W8 1.792990 1_555
N23 W6 1.792990 1_555
N24 W5 1.798714 1_555
N25 W3 1.798714 1_555
N26 W4 1.798714 1_555
N27 W1 1.792990 1_555
N28 W2 1.792990 1_555
N29 W0 1.792990 1_555
