# generated using pymatgen
data_FeP2O7
_symmetry_space_group_name_H-M   'P 1'
_cell_length_a   6.45101500
_cell_length_b   9.67455709
_cell_length_c   10.64708785
_cell_angle_alpha   115.31209262
_cell_angle_beta   85.82475855
_cell_angle_gamma   107.12268632
_symmetry_Int_Tables_number   1
_chemical_formula_structural   FeP2O7
_chemical_formula_sum   'Fe4 P8 O28'
_cell_volume   572.98683979
_cell_formula_units_Z   4
loop_
 _symmetry_equiv_pos_site_id
 _symmetry_equiv_pos_as_xyz
  1  'x, y, z'
loop_
 _atom_site_type_symbol
 _atom_site_label
 _atom_site_symmetry_multiplicity
 _atom_site_fract_x
 _atom_site_fract_y
 _atom_site_fract_z
 _atom_site_occupancy
  Fe  Fe0  1  0.37461800  0.49700900  0.74798200  1
  Fe  Fe1  1  0.62538200  0.50299100  0.25201800  1
  Fe  Fe2  1  0.72727900  0.09245700  0.22086500  1
  Fe  Fe3  1  0.27272100  0.90754300  0.77913500  1
  P  P0  1  0.41543700  0.68193000  0.53717700  1
  P  P1  1  0.07301600  0.18367400  0.79407900  1
  P  P2  1  0.88994000  0.54917100  0.69811600  1
  P  P3  1  0.58456300  0.31807000  0.46282300  1
  P  P4  1  0.31134100  0.80080200  0.03501800  1
  P  P5  1  0.92698400  0.81632600  0.20592100  1
  P  P6  1  0.11006000  0.45082900  0.30188400  1
  P  P7  1  0.68865900  0.19919800  0.96498200  1
  O  O0  1  0.43901200  0.67314200  0.67748800  1
  O  O1  1  0.55070100  0.07186500  0.82769700  1
  O  O2  1  0.79759200  0.45327500  0.53760500  1
  O  O3  1  0.30472100  0.45661500  0.20980900  1
  O  O4  1  0.45387800  0.91596600  0.16772500  1
  O  O5  1  0.00241300  0.27155400  0.28155900  1
  O  O6  1  0.39075300  0.65804900  0.94373900  1
  O  O7  1  0.60199100  0.65717100  0.44260200  1
  O  O8  1  0.10757400  0.05111800  0.82413300  1
  O  O9  1  0.56098800  0.32685800  0.32251200  1
  O  O10  1  0.27097300  0.89127400  0.95582200  1
  O  O11  1  0.60924700  0.34195100  0.05626100  1
  O  O12  1  0.72902700  0.10872600  0.04417800  1
  O  O13  1  0.69527900  0.54338500  0.79019100  1
  O  O14  1  0.99758700  0.72844600  0.71844100  1
  O  O15  1  0.92132900  0.26615400  0.91136800  1
  O  O16  1  0.39800900  0.34282900  0.55739800  1
  O  O17  1  0.07867100  0.73384600  0.08863200  1
  O  O18  1  0.20240800  0.54672500  0.46239500  1
  O  O19  1  0.72214100  0.67380200  0.18898700  1
  O  O20  1  0.89242600  0.94888200  0.17586700  1
  O  O21  1  0.36137300  0.84020800  0.58058000  1
  O  O22  1  0.94462200  0.51587300  0.27207400  1
  O  O23  1  0.05537800  0.48412700  0.72792600  1
  O  O24  1  0.63862700  0.15979200  0.41942000  1
  O  O25  1  0.04237300  0.88391200  0.34842100  1
  O  O26  1  0.27785900  0.32619800  0.81101300  1
  O  O27  1  0.95643000  0.10409500  0.64842300  1
loop_
_geom_bond_atom_site_label_1
_geom_bond_atom_site_label_2
_geom_bond_distance
_geom_bond_site_symmetry_2
Fe0 O26 1.962330 1_555
Fe0 O16 1.965961 1_555
Fe0 O6 1.985356 1_555
Fe0 O13 2.024543 1_555
Fe0 O23 2.047559 1_555
Fe0 O0 2.066630 1_555
Fe1 O19 1.962330 1_555
Fe1 O7 1.965961 1_555
Fe1 O11 1.985356 1_555
Fe1 O3 2.024543 1_555
Fe1 O22 2.047559 1_555
Fe1 O9 2.066630 1_555
Fe2 O20 1.876680 1_545
Fe2 O12 1.952659 1_555
Fe2 O4 1.972869 1_545
Fe2 O5 1.992169 1_655
Fe2 O24 2.021457 1_555
Fe2 O9 2.574765 1_555
Fe3 O8 1.876680 1_565
Fe3 O1 1.940067 1_565
Fe3 O10 1.952659 1_555
Fe3 O14 1.992169 1_455
Fe3 O21 2.021457 1_555
Fe3 O0 2.574765 1_555
O0 P0 1.552871 1_555
O1 P7 1.565330 1_555
O2 P3 1.563262 1_555
O2 P2 1.613463 1_555
O3 P6 1.538632 1_555
O4 P4 1.524158 1_555
O5 P6 1.590270 1_555
O6 P4 1.520098 1_556
O7 P0 1.518776 1_555
O8 P1 1.525229 1_555
O9 P3 1.552871 1_555
O10 P4 1.530428 1_556
O11 P7 1.520098 1_554
O12 P7 1.530428 1_554
O13 P2 1.538632 1_555
O14 P2 1.590270 1_555
O15 P1 1.607324 1_655
O15 P7 1.617790 1_555
O16 P3 1.518776 1_555
O17 P5 1.607324 1_455
O17 P4 1.617790 1_555
O18 P0 1.563262 1_555
O18 P6 1.613463 1_555
O19 P5 1.558580 1_555
O20 P5 1.525229 1_555
O21 P0 1.538146 1_555
O22 P6 1.500430 1_655
O23 P2 1.500430 1_455
O24 P3 1.538146 1_555
O25 P5 1.520893 1_455
O26 P1 1.558580 1_555
O27 P1 1.539914 1_655
