# generated using pymatgen
data_Cs(MoS)9
_symmetry_space_group_name_H-M   'P 1'
_cell_length_a   9.42967963
_cell_length_b   9.42967963
_cell_length_c   13.12519800
_cell_angle_alpha   90.00000000
_cell_angle_beta   90.00000000
_cell_angle_gamma   119.99999739
_symmetry_Int_Tables_number   1
_chemical_formula_structural   Cs(MoS)9
_chemical_formula_sum   'Cs2 Mo18 S18'
_cell_volume   1010.71888996
_cell_formula_units_Z   2
loop_
 _symmetry_equiv_pos_site_id
 _symmetry_equiv_pos_as_xyz
  1  'x, y, z'
loop_
 _atom_site_type_symbol
 _atom_site_label
 _atom_site_symmetry_multiplicity
 _atom_site_fract_x
 _atom_site_fract_y
 _atom_site_fract_z
 _atom_site_occupancy
  Cs  Cs0  1  0.66666700  0.33333300  0.25000000  1
  Cs  Cs1  1  0.33333300  0.66666700  0.75000000  1
  Mo  Mo0  1  0.17926200  0.02758500  0.25000000  1
  Mo  Mo1  1  0.18073700  0.02833100  0.58321600  1
  Mo  Mo2  1  0.18073700  0.02833100  0.91678400  1
  Mo  Mo3  1  0.97241500  0.15167700  0.25000000  1
  Mo  Mo4  1  0.97166900  0.15240500  0.58321600  1
  Mo  Mo5  1  0.97166900  0.15240500  0.91678400  1
  Mo  Mo6  1  0.84832300  0.82073800  0.25000000  1
  Mo  Mo7  1  0.84759500  0.81926300  0.58321600  1
  Mo  Mo8  1  0.84759500  0.81926300  0.91678400  1
  Mo  Mo9  1  0.81926300  0.97166900  0.08321600  1
  Mo  Mo10  1  0.81926300  0.97166900  0.41678400  1
  Mo  Mo11  1  0.82073800  0.97241500  0.75000000  1
  Mo  Mo12  1  0.02833100  0.84759500  0.08321600  1
  Mo  Mo13  1  0.02833100  0.84759500  0.41678400  1
  Mo  Mo14  1  0.02758500  0.84832300  0.75000000  1
  Mo  Mo15  1  0.15240500  0.18073700  0.08321600  1
  Mo  Mo16  1  0.15240500  0.18073700  0.41678400  1
  Mo  Mo17  1  0.15167700  0.17926200  0.75000000  1
  S  S0  1  0.05151200  0.72312500  0.25000000  1
  S  S1  1  0.05160400  0.72327100  0.58348600  1
  S  S2  1  0.05160400  0.72327100  0.91651400  1
  S  S3  1  0.27687500  0.32838800  0.25000000  1
  S  S4  1  0.27672900  0.32833300  0.58348600  1
  S  S5  1  0.27672900  0.32833300  0.91651400  1
  S  S6  1  0.67161200  0.94848800  0.25000000  1
  S  S7  1  0.67166700  0.94839600  0.58348600  1
  S  S8  1  0.67166700  0.94839600  0.91651400  1
  S  S9  1  0.94839600  0.27672900  0.08348600  1
  S  S10  1  0.94839600  0.27672900  0.41651400  1
  S  S11  1  0.94848800  0.27687500  0.75000000  1
  S  S12  1  0.72327100  0.67166700  0.08348600  1
  S  S13  1  0.72327100  0.67166700  0.41651400  1
  S  S14  1  0.72312500  0.67161200  0.75000000  1
  S  S15  1  0.32833300  0.05160400  0.08348600  1
  S  S16  1  0.32833300  0.05160400  0.41651400  1
  S  S17  1  0.32838800  0.05151200  0.75000000  1
loop_
_geom_bond_atom_site_label_1
_geom_bond_atom_site_label_2
_geom_bond_distance
_geom_bond_site_symmetry_2
Cs0 S6 3.652503 1_545
Cs0 S0 3.652513 1_655
Cs0 S3 3.652522 1_555
Cs0 S10 3.679269 1_555
Cs0 S9 3.679269 1_555
Cs0 S16 3.679274 1_555
Cs0 S15 3.679274 1_555
Cs0 S13 3.679277 1_555
Cs0 S12 3.679277 1_555
Cs1 S17 3.652503 1_565
Cs1 S11 3.652513 1_455
Cs1 S14 3.652522 1_555
Cs1 S2 3.679269 1_555
Cs1 S1 3.679269 1_555
Cs1 S8 3.679274 1_555
Cs1 S7 3.679274 1_555
Cs1 S5 3.679277 1_555
Cs1 S4 3.679277 1_555
Mo0 S0 2.497017 1_545
Mo0 S3 2.506388 1_555
Mo0 S16 2.546650 1_555
Mo0 S15 2.546650 1_555
Mo1 S1 2.500977 1_545
Mo1 S4 2.502297 1_555
Mo1 S16 2.543052 1_555
Mo1 S17 2.544402 1_555
Mo2 S2 2.500977 1_545
Mo2 S5 2.502297 1_555
Mo2 S15 2.543052 1_556
Mo2 S17 2.544402 1_555
Mo3 S3 2.497018 1_655
Mo3 S6 2.506386 1_545
Mo3 S10 2.546650 1_555
Mo3 S9 2.546650 1_555
Mo4 S4 2.500978 1_655
Mo4 S7 2.502295 1_545
Mo4 S10 2.543057 1_555
Mo4 S11 2.544402 1_555
Mo5 S5 2.500978 1_655
Mo5 S8 2.502295 1_545
Mo5 S9 2.543057 1_556
Mo5 S11 2.544402 1_555
Mo6 S6 2.497026 1_555
Mo6 S0 2.506379 1_655
Mo6 S13 2.546650 1_555
Mo6 S12 2.546650 1_555
Mo7 S7 2.500986 1_555
Mo7 S1 2.502288 1_655
Mo7 S13 2.543054 1_555
Mo7 S14 2.544402 1_555
Mo8 S8 2.500986 1_555
Mo8 S2 2.502288 1_655
Mo8 S12 2.543054 1_556
Mo8 S14 2.544402 1_555
Mo9 S9 2.500977 1_565
Mo9 S12 2.502297 1_555
Mo9 S8 2.543052 1_554
Mo9 S6 2.544402 1_555
Mo10 S10 2.500977 1_565
Mo10 S13 2.502297 1_555
Mo10 S7 2.543052 1_555
Mo10 S6 2.544402 1_555
Mo11 S11 2.497017 1_565
Mo11 S14 2.506388 1_555
Mo11 S8 2.546650 1_555
Mo11 S7 2.546650 1_555
Mo12 S12 2.500978 1_455
Mo12 S15 2.502295 1_565
Mo12 S2 2.543057 1_554
Mo12 S0 2.544402 1_555
Mo13 S13 2.500978 1_455
Mo13 S16 2.502295 1_565
Mo13 S1 2.543057 1_555
Mo13 S0 2.544402 1_555
Mo14 S14 2.497018 1_455
Mo14 S17 2.506386 1_565
Mo14 S2 2.546650 1_555
Mo14 S1 2.546650 1_555
Mo15 S15 2.500986 1_555
Mo15 S9 2.502288 1_455
Mo15 S5 2.543054 1_554
Mo15 S3 2.544402 1_555
Mo16 S16 2.500986 1_555
Mo16 S10 2.502288 1_455
Mo16 S4 2.543054 1_555
Mo16 S3 2.544402 1_555
Mo17 S17 2.497026 1_555
Mo17 S11 2.506379 1_455
Mo17 S5 2.546650 1_555
Mo17 S4 2.546650 1_555
