# generated using pymatgen
data_PuMg
_symmetry_space_group_name_H-M   'P 1'
_cell_length_a   10.81568200
_cell_length_b   6.10507200
_cell_length_c   12.27788800
_cell_angle_alpha   90.00000000
_cell_angle_beta   90.00000000
_cell_angle_gamma   90.00000000
_symmetry_Int_Tables_number   1
_chemical_formula_structural   PuMg
_chemical_formula_sum   'Pu16 Mg16'
_cell_volume   810.71529647
_cell_formula_units_Z   16
loop_
 _symmetry_equiv_pos_site_id
 _symmetry_equiv_pos_as_xyz
  1  'x, y, z'
loop_
 _atom_site_type_symbol
 _atom_site_label
 _atom_site_symmetry_multiplicity
 _atom_site_fract_x
 _atom_site_fract_y
 _atom_site_fract_z
 _atom_site_occupancy
  Pu  Pu0_0  1  0.37500000  0.25000100  0.17997400  1
  Pu  Pu0_1  1  0.37500000  0.25000100  0.67997400  1
  Pu  Pu0_2  1  0.37500000  0.75000100  0.17997400  1
  Pu  Pu0_3  1  0.37500000  0.75000100  0.67997400  1
  Pu  Pu0_4  1  0.87500000  0.25000100  0.17997400  1
  Pu  Pu0_5  1  0.87500000  0.25000100  0.67997400  1
  Pu  Pu0_6  1  0.87500000  0.75000100  0.17997400  1
  Pu  Pu0_7  1  0.87500000  0.75000100  0.67997400  1
  Pu  Pu1_0  1  0.12500000  0.25000100  0.32002600  1
  Pu  Pu1_1  1  0.12500000  0.25000100  0.82002600  1
  Pu  Pu1_2  1  0.12500000  0.75000100  0.32002600  1
  Pu  Pu1_3  1  0.12500000  0.75000100  0.82002600  1
  Pu  Pu1_4  1  0.62500000  0.25000100  0.32002600  1
  Pu  Pu1_5  1  0.62500000  0.25000100  0.82002600  1
  Pu  Pu1_6  1  0.62500000  0.75000100  0.32002600  1
  Pu  Pu1_7  1  0.62500000  0.75000100  0.82002600  1
  Mg  Mg0_0  1  0.12500000  0.00000000  0.06984250  1
  Mg  Mg0_1  1  0.12500000  0.00000000  0.56984250  1
  Mg  Mg0_2  1  0.12500000  0.50000000  0.06984250  1
  Mg  Mg0_3  1  0.12500000  0.50000000  0.56984250  1
  Mg  Mg0_4  1  0.62500000  0.00000000  0.06984250  1
  Mg  Mg0_5  1  0.62500000  0.00000000  0.56984250  1
  Mg  Mg0_6  1  0.62500000  0.50000000  0.06984250  1
  Mg  Mg0_7  1  0.62500000  0.50000000  0.56984250  1
  Mg  Mg1_0  1  0.37500000  0.00000000  0.43015700  1
  Mg  Mg1_1  1  0.37500000  0.00000000  0.93015700  1
  Mg  Mg1_2  1  0.37500000  0.50000000  0.43015700  1
  Mg  Mg1_3  1  0.37500000  0.50000000  0.93015700  1
  Mg  Mg1_4  1  0.87500000  0.00000000  0.43015700  1
  Mg  Mg1_5  1  0.87500000  0.00000000  0.93015700  1
  Mg  Mg1_6  1  0.87500000  0.50000000  0.43015700  1
  Mg  Mg1_7  1  0.87500000  0.50000000  0.93015700  1
loop_
_geom_bond_atom_site_label_1
_geom_bond_atom_site_label_2
_geom_bond_distance
_geom_bond_site_symmetry_2
Pu0_0 Pu0_2 3.052536 1_545
Pu0_0 Pu0_2 3.052536 1_555
Pu0_0 Pu1_0 3.204374 1_555
Pu0_0 Pu1_4 3.204374 1_555
Pu0_1 Pu0_3 3.052536 1_545
Pu0_1 Pu0_3 3.052536 1_555
Pu0_1 Pu1_1 3.204374 1_555
Pu0_1 Pu1_5 3.204374 1_555
Pu0_2 Pu1_2 3.204374 1_555
Pu0_2 Pu1_6 3.204374 1_555
Pu0_3 Pu1_3 3.204374 1_555
Pu0_3 Pu1_7 3.204374 1_555
Pu0_4 Pu0_6 3.052536 1_545
Pu0_4 Pu0_6 3.052536 1_555
Pu0_4 Pu1_0 3.204374 1_655
Pu0_4 Pu1_4 3.204374 1_555
Pu0_5 Pu0_7 3.052536 1_545
Pu0_5 Pu0_7 3.052536 1_555
Pu0_5 Pu1_1 3.204374 1_655
Pu0_5 Pu1_5 3.204374 1_555
Pu0_6 Pu1_2 3.204374 1_655
Pu0_6 Pu1_6 3.204374 1_555
Pu0_7 Pu1_3 3.204374 1_655
Pu0_7 Pu1_7 3.204374 1_555
Pu1_0 Pu1_2 3.052536 1_545
Pu1_0 Pu1_2 3.052536 1_555
Pu1_1 Pu1_3 3.052536 1_545
Pu1_1 Pu1_3 3.052536 1_555
Pu1_4 Pu1_6 3.052536 1_545
Pu1_4 Pu1_6 3.052536 1_555
Pu1_5 Pu1_7 3.052536 1_545
Pu1_5 Pu1_7 3.052536 1_555
Mg0_0 Mg0_2 3.052536 1_545
Mg0_0 Mg0_2 3.052536 1_555
Mg0_0 Mg1_5 3.201962 1_454
Mg0_0 Mg1_1 3.201962 1_554
Mg0_0 Pu0_6 3.386600 1_445
Mg0_0 Pu0_2 3.386600 1_545
Mg0_0 Pu0_4 3.386605 1_455
Mg0_0 Pu0_0 3.386605 1_555
Mg0_0 Pu1_3 3.425975 1_544
Mg0_0 Pu1_1 3.425981 1_554
Mg0_0 Pu1_2 3.430010 1_545
Mg0_0 Pu1_0 3.430016 1_555
Mg0_1 Mg0_3 3.052536 1_555
Mg0_1 Mg0_3 3.052536 1_545
Mg0_1 Mg1_4 3.201962 1_455
Mg0_1 Mg1_0 3.201962 1_555
Mg0_1 Pu0_7 3.386600 1_445
Mg0_1 Pu0_3 3.386600 1_545
Mg0_1 Pu0_5 3.386605 1_455
Mg0_1 Pu0_1 3.386605 1_555
Mg0_1 Pu1_2 3.425975 1_545
Mg0_1 Pu1_0 3.425981 1_555
Mg0_1 Pu1_3 3.430010 1_545
Mg0_1 Pu1_1 3.430016 1_555
Mg0_2 Mg1_7 3.201962 1_454
Mg0_2 Mg1_3 3.201962 1_554
Mg0_2 Pu0_4 3.386600 1_455
Mg0_2 Pu0_0 3.386600 1_555
Mg0_2 Pu0_6 3.386605 1_455
Mg0_2 Pu0_2 3.386605 1_555
Mg0_2 Pu1_1 3.425975 1_554
Mg0_2 Pu1_3 3.425981 1_554
Mg0_2 Pu1_0 3.430010 1_555
Mg0_2 Pu1_2 3.430016 1_555
Mg0_3 Mg1_6 3.201962 1_455
Mg0_3 Mg1_2 3.201962 1_555
Mg0_3 Pu0_5 3.386600 1_455
Mg0_3 Pu0_1 3.386600 1_555
Mg0_3 Pu0_7 3.386605 1_455
Mg0_3 Pu0_3 3.386605 1_555
Mg0_3 Pu1_0 3.425975 1_555
Mg0_3 Pu1_2 3.425981 1_555
Mg0_3 Pu1_1 3.430010 1_555
Mg0_3 Pu1_3 3.430016 1_555
Mg0_4 Mg0_6 3.052536 1_555
Mg0_4 Mg0_6 3.052536 1_545
Mg0_4 Mg1_5 3.201962 1_554
Mg0_4 Mg1_1 3.201962 1_554
Mg0_4 Pu0_6 3.386600 1_545
Mg0_4 Pu0_2 3.386600 1_545
Mg0_4 Pu0_4 3.386605 1_555
Mg0_4 Pu0_0 3.386605 1_555
Mg0_4 Pu1_7 3.425975 1_544
Mg0_4 Pu1_5 3.425981 1_554
Mg0_4 Pu1_6 3.430010 1_545
Mg0_4 Pu1_4 3.430016 1_555
Mg0_5 Mg0_7 3.052536 1_545
Mg0_5 Mg0_7 3.052536 1_555
Mg0_5 Mg1_4 3.201962 1_555
Mg0_5 Mg1_0 3.201962 1_555
Mg0_5 Pu0_7 3.386600 1_545
Mg0_5 Pu0_3 3.386600 1_545
Mg0_5 Pu0_5 3.386605 1_555
Mg0_5 Pu0_1 3.386605 1_555
Mg0_5 Pu1_6 3.425975 1_545
Mg0_5 Pu1_4 3.425981 1_555
Mg0_5 Pu1_7 3.430010 1_545
Mg0_5 Pu1_5 3.430016 1_555
Mg0_6 Mg1_7 3.201962 1_554
Mg0_6 Mg1_3 3.201962 1_554
Mg0_6 Pu0_4 3.386600 1_555
Mg0_6 Pu0_0 3.386600 1_555
Mg0_6 Pu0_6 3.386605 1_555
Mg0_6 Pu0_2 3.386605 1_555
Mg0_6 Pu1_5 3.425975 1_554
Mg0_6 Pu1_7 3.425981 1_554
Mg0_6 Pu1_4 3.430010 1_555
Mg0_6 Pu1_6 3.430016 1_555
Mg0_7 Mg1_6 3.201962 1_555
Mg0_7 Mg1_2 3.201962 1_555
Mg0_7 Pu0_5 3.386600 1_555
Mg0_7 Pu0_1 3.386600 1_555
Mg0_7 Pu0_7 3.386605 1_555
Mg0_7 Pu0_3 3.386605 1_555
Mg0_7 Pu1_4 3.425975 1_555
Mg0_7 Pu1_6 3.425981 1_555
Mg0_7 Pu1_5 3.430010 1_555
Mg0_7 Pu1_7 3.430016 1_555
Mg1_0 Mg1_2 3.052536 1_545
Mg1_0 Mg1_2 3.052536 1_555
Mg1_0 Pu1_2 3.386597 1_545
Mg1_0 Pu1_6 3.386597 1_545
Mg1_0 Pu1_0 3.386603 1_555
Mg1_0 Pu1_4 3.386603 1_555
Mg1_0 Pu0_3 3.425981 1_545
Mg1_0 Pu0_1 3.425986 1_555
Mg1_0 Pu0_2 3.430005 1_545
Mg1_0 Pu0_0 3.430010 1_555
Mg1_1 Mg1_3 3.052536 1_545
Mg1_1 Mg1_3 3.052536 1_555
Mg1_1 Pu1_3 3.386597 1_545
Mg1_1 Pu1_7 3.386597 1_545
Mg1_1 Pu1_1 3.386603 1_555
Mg1_1 Pu1_5 3.386603 1_555
Mg1_1 Pu0_2 3.425981 1_546
Mg1_1 Pu0_0 3.425986 1_556
Mg1_1 Pu0_3 3.430005 1_545
Mg1_1 Pu0_1 3.430010 1_555
Mg1_2 Pu1_0 3.386597 1_555
Mg1_2 Pu1_4 3.386597 1_555
Mg1_2 Pu1_2 3.386603 1_555
Mg1_2 Pu1_6 3.386603 1_555
Mg1_2 Pu0_1 3.425981 1_555
Mg1_2 Pu0_3 3.425986 1_555
Mg1_2 Pu0_0 3.430005 1_555
Mg1_2 Pu0_2 3.430010 1_555
Mg1_3 Pu1_1 3.386597 1_555
Mg1_3 Pu1_5 3.386597 1_555
Mg1_3 Pu1_3 3.386603 1_555
Mg1_3 Pu1_7 3.386603 1_555
Mg1_3 Pu0_0 3.425981 1_556
Mg1_3 Pu0_2 3.425986 1_556
Mg1_3 Pu0_1 3.430005 1_555
Mg1_3 Pu0_3 3.430010 1_555
Mg1_4 Mg1_6 3.052536 1_555
Mg1_4 Mg1_6 3.052536 1_545
Mg1_4 Pu1_2 3.386597 1_645
Mg1_4 Pu1_6 3.386597 1_545
Mg1_4 Pu1_0 3.386603 1_655
Mg1_4 Pu1_4 3.386603 1_555
Mg1_4 Pu0_7 3.425981 1_545
Mg1_4 Pu0_5 3.425986 1_555
Mg1_4 Pu0_6 3.430005 1_545
Mg1_4 Pu0_4 3.430010 1_555
Mg1_5 Mg1_7 3.052536 1_545
Mg1_5 Mg1_7 3.052536 1_555
Mg1_5 Pu1_3 3.386597 1_645
Mg1_5 Pu1_7 3.386597 1_545
Mg1_5 Pu1_1 3.386603 1_655
Mg1_5 Pu1_5 3.386603 1_555
Mg1_5 Pu0_6 3.425981 1_546
Mg1_5 Pu0_4 3.425986 1_556
Mg1_5 Pu0_7 3.430005 1_545
Mg1_5 Pu0_5 3.430010 1_555
Mg1_6 Pu1_0 3.386597 1_655
Mg1_6 Pu1_4 3.386597 1_555
Mg1_6 Pu1_2 3.386603 1_655
Mg1_6 Pu1_6 3.386603 1_555
Mg1_6 Pu0_5 3.425981 1_555
Mg1_6 Pu0_7 3.425986 1_555
Mg1_6 Pu0_4 3.430005 1_555
Mg1_6 Pu0_6 3.430010 1_555
Mg1_7 Pu1_1 3.386597 1_655
Mg1_7 Pu1_5 3.386597 1_555
Mg1_7 Pu1_3 3.386603 1_655
Mg1_7 Pu1_7 3.386603 1_555
Mg1_7 Pu0_4 3.425981 1_556
Mg1_7 Pu0_6 3.425986 1_556
Mg1_7 Pu0_5 3.430005 1_555
Mg1_7 Pu0_7 3.430010 1_555
