# generated using pymatgen
data_Li3Mg5Bi3Pb
_symmetry_space_group_name_H-M   'P 1'
_cell_length_a   15.92388381
_cell_length_b   15.92388381
_cell_length_c   15.92388361
_cell_angle_alpha   17.67453785
_cell_angle_beta   17.67453785
_cell_angle_gamma   17.67453660
_symmetry_Int_Tables_number   1
_chemical_formula_structural   Li3Mg5Bi3Pb
_chemical_formula_sum   'Li3 Mg5 Bi3 Pb1'
_cell_volume   324.89166948
_cell_formula_units_Z   1
loop_
 _symmetry_equiv_pos_site_id
 _symmetry_equiv_pos_as_xyz
  1  'x, y, z'
loop_
 _atom_site_type_symbol
 _atom_site_label
 _atom_site_symmetry_multiplicity
 _atom_site_fract_x
 _atom_site_fract_y
 _atom_site_fract_z
 _atom_site_occupancy
  Li  Li0  1  0.37507100  0.37507100  0.37507100  1
  Li  Li1  1  0.12514300  0.12514300  0.12514300  1
  Li  Li2  1  0.87502200  0.87502200  0.87502200  1
  Mg  Mg0  1  0.49952300  0.49952300  0.49952300  1
  Mg  Mg1  1  0.25044500  0.25044500  0.25044500  1
  Mg  Mg2  1  0.00005500  0.00005500  0.00005500  1
  Mg  Mg3  1  0.74980300  0.74980300  0.74980300  1
  Mg  Mg4  1  0.62555700  0.62555700  0.62555700  1
  Bi  Bi0  1  0.06252100  0.06252100  0.06252100  1
  Bi  Bi1  1  0.81259300  0.81259300  0.81259300  1
  Bi  Bi2  1  0.56191600  0.56191600  0.56191600  1
  Pb  Pb0  1  0.31235100  0.31235100  0.31235100  1
loop_
_geom_bond_atom_site_label_1
_geom_bond_atom_site_label_2
_geom_bond_distance
_geom_bond_site_symmetry_2
Li0 Pb0 2.948717 1_555
Mg1 Pb0 2.910447 1_555
Mg2 Pb0 2.992961 1_455
Mg2 Pb0 2.992961 1_545
Mg2 Pb0 2.992961 1_554
Mg4 Pb0 2.979096 1_655
Mg4 Pb0 2.979096 1_565
Mg4 Pb0 2.979097 1_556
Bi0 Mg2 2.936775 1_555
Bi0 Li1 2.944109 1_555
Bi0 Mg3 2.986463 1_544
Bi0 Mg3 2.986463 1_454
Bi0 Mg3 2.986463 1_445
Bi0 Li0 2.989036 1_455
Bi0 Li0 2.989036 1_545
Bi0 Li0 2.989036 1_554
Bi1 Li2 2.935036 1_555
Bi1 Mg3 2.952008 1_555
Bi1 Mg0 2.981134 1_655
Bi1 Mg0 2.981134 1_565
Bi1 Mg0 2.981134 1_556
Bi1 Li1 2.989036 1_566
Bi1 Li1 2.989036 1_656
Bi1 Li1 2.989036 1_665
Bi2 Mg0 2.933343 1_555
Bi2 Li2 2.980593 1_455
Bi2 Li2 2.980593 1_545
Bi2 Li2 2.980593 1_554
Bi2 Mg4 2.992017 1_555
Bi2 Mg1 3.006001 1_565
Bi2 Mg1 3.006001 1_655
Bi2 Mg1 3.006001 1_556
