# generated using pymatgen
data_Mg3Si3(BiO6)2
_symmetry_space_group_name_H-M   'P 1'
_cell_length_a   10.80909689
_cell_length_b   10.80909689
_cell_length_c   10.80909689
_cell_angle_alpha   109.47122063
_cell_angle_beta   109.47122063
_cell_angle_gamma   109.47122063
_symmetry_Int_Tables_number   1
_chemical_formula_structural   Mg3Si3(BiO6)2
_chemical_formula_sum   'Mg12 Si12 Bi8 O48'
_cell_volume   972.17923071
_cell_formula_units_Z   4
loop_
 _symmetry_equiv_pos_site_id
 _symmetry_equiv_pos_as_xyz
  1  'x, y, z'
loop_
 _atom_site_type_symbol
 _atom_site_label
 _atom_site_symmetry_multiplicity
 _atom_site_fract_x
 _atom_site_fract_y
 _atom_site_fract_z
 _atom_site_occupancy
  Mg  Mg0  1  0.25000000  0.37500000  0.12500000  1
  Mg  Mg1  1  0.75000000  0.12500000  0.37500000  1
  Mg  Mg2  1  0.37500000  0.12500000  0.25000000  1
  Mg  Mg3  1  0.12500000  0.37500000  0.75000000  1
  Mg  Mg4  1  0.25000000  0.87500000  0.62500000  1
  Mg  Mg5  1  0.12500000  0.25000000  0.37500000  1
  Mg  Mg6  1  0.62500000  0.25000000  0.87500000  1
  Mg  Mg7  1  0.75000000  0.62500000  0.87500000  1
  Mg  Mg8  1  0.87500000  0.75000000  0.62500000  1
  Mg  Mg9  1  0.87500000  0.62500000  0.25000000  1
  Mg  Mg10  1  0.62500000  0.87500000  0.75000000  1
  Mg  Mg11  1  0.37500000  0.75000000  0.12500000  1
  Si  Si0  1  0.12500000  0.75000000  0.87500000  1
  Si  Si1  1  0.87500000  0.25000000  0.12500000  1
  Si  Si2  1  0.75000000  0.37500000  0.62500000  1
  Si  Si3  1  0.12500000  0.87500000  0.25000000  1
  Si  Si4  1  0.25000000  0.12500000  0.87500000  1
  Si  Si5  1  0.37500000  0.62500000  0.75000000  1
  Si  Si6  1  0.37500000  0.25000000  0.62500000  1
  Si  Si7  1  0.87500000  0.12500000  0.75000000  1
  Si  Si8  1  0.62500000  0.37500000  0.25000000  1
  Si  Si9  1  0.75000000  0.87500000  0.12500000  1
  Si  Si10  1  0.25000000  0.62500000  0.37500000  1
  Si  Si11  1  0.62500000  0.75000000  0.37500000  1
  Bi  Bi0  1  0.50000000  0.00000000  0.00000000  1
  Bi  Bi1  1  0.50000000  0.50000000  0.00000000  1
  Bi  Bi2  1  0.00000000  0.50000000  0.50000000  1
  Bi  Bi3  1  0.00000000  0.00000000  0.50000000  1
  Bi  Bi4  1  0.50000000  0.50000000  0.50000000  1
  Bi  Bi5  1  0.00000000  0.50000000  0.00000000  1
  Bi  Bi6  1  0.50000000  0.00000000  0.50000000  1
  Bi  Bi7  1  0.00000000  0.00000000  0.00000000  1
  O  O0  1  0.60166100  0.89279600  0.36753000  1
  O  O1  1  0.36753000  0.60166100  0.89279600  1
  O  O2  1  0.26587000  0.29113600  0.89833900  1
  O  O3  1  0.47473400  0.60720400  0.20886400  1
  O  O4  1  0.29113600  0.89279600  0.02526600  1
  O  O5  1  0.13247000  0.02526600  0.23413000  1
  O  O6  1  0.36753000  0.26587000  0.47473400  1
  O  O7  1  0.89279600  0.36753000  0.60166100  1
  O  O8  1  0.20886400  0.23413000  0.60166100  1
  O  O9  1  0.47473400  0.36753000  0.26587000  1
  O  O10  1  0.89279600  0.02526600  0.29113600  1
  O  O11  1  0.60720400  0.89833900  0.13247000  1
  O  O12  1  0.89833900  0.13247000  0.60720400  1
  O  O13  1  0.26587000  0.47473400  0.36753000  1
  O  O14  1  0.60166100  0.20886400  0.23413000  1
  O  O15  1  0.23413000  0.60166100  0.20886400  1
  O  O16  1  0.02526600  0.29113600  0.89279600  1
  O  O17  1  0.89833900  0.26587000  0.29113600  1
  O  O18  1  0.02526600  0.23413000  0.13247000  1
  O  O19  1  0.79113600  0.76587000  0.39833900  1
  O  O20  1  0.20886400  0.47473400  0.60720400  1
  O  O21  1  0.60720400  0.20886400  0.47473400  1
  O  O22  1  0.23413000  0.13247000  0.02526600  1
  O  O23  1  0.13247000  0.60720400  0.89833900  1
  O  O24  1  0.39833900  0.10720400  0.63247000  1
  O  O25  1  0.63247000  0.39833900  0.10720400  1
  O  O26  1  0.73413000  0.70886400  0.10166100  1
  O  O27  1  0.52526600  0.39279600  0.79113600  1
  O  O28  1  0.70886400  0.10720400  0.97473400  1
  O  O29  1  0.86753000  0.97473400  0.76587000  1
  O  O30  1  0.63247000  0.73413000  0.52526600  1
  O  O31  1  0.10720400  0.63247000  0.39833900  1
  O  O32  1  0.86753000  0.39279600  0.10166100  1
  O  O33  1  0.76587000  0.86753000  0.97473400  1
  O  O34  1  0.39279600  0.79113600  0.52526600  1
  O  O35  1  0.70886400  0.10166100  0.73413000  1
  O  O36  1  0.79113600  0.52526600  0.39279600  1
  O  O37  1  0.97473400  0.76587000  0.86753000  1
  O  O38  1  0.10166100  0.73413000  0.70886400  1
  O  O39  1  0.97473400  0.70886400  0.10720400  1
  O  O40  1  0.76587000  0.39833900  0.79113600  1
  O  O41  1  0.39833900  0.79113600  0.76587000  1
  O  O42  1  0.73413000  0.52526600  0.63247000  1
  O  O43  1  0.10166100  0.86753000  0.39279600  1
  O  O44  1  0.39279600  0.10166100  0.86753000  1
  O  O45  1  0.10720400  0.97473400  0.70886400  1
  O  O46  1  0.52526600  0.63247000  0.73413000  1
  O  O47  1  0.29113600  0.89833900  0.26587000  1
loop_
_geom_bond_atom_site_label_1
_geom_bond_atom_site_label_2
_geom_bond_distance
_geom_bond_site_symmetry_2
Mg0 O22 2.399345 1_555
Mg0 O13 2.399345 1_555
Mg0 O2 2.399355 1_554
Mg0 O15 2.399355 1_555
Mg0 O9 2.443925 1_555
Mg0 O16 2.443925 1_554
Mg0 O18 2.443925 1_555
Mg0 O3 2.443925 1_555
Mg1 O21 2.399345 1_555
Mg1 O10 2.399345 1_555
Mg1 O7 2.399350 1_555
Mg1 O11 2.399350 1_545
Mg1 O17 2.443919 1_555
Mg1 O14 2.443919 1_555
Mg1 O12 2.443922 1_555
Mg1 O0 2.443922 1_545
Mg2 O5 2.399345 1_555
Mg2 O9 2.399345 1_555
Mg2 O47 2.399355 1_545
Mg2 O14 2.399355 1_555
Mg2 O6 2.443925 1_555
Mg2 O22 2.443925 1_555
Mg2 O21 2.443925 1_555
Mg2 O4 2.443925 1_545
Mg3 O16 2.399345 1_555
Mg3 O20 2.399345 1_555
Mg3 O12 2.399350 1_455
Mg3 O1 2.399350 1_555
Mg3 O8 2.443919 1_555
Mg3 O2 2.443919 1_555
Mg3 O7 2.443922 1_455
Mg3 O23 2.443922 1_555
Mg4 O45 2.399345 1_555
Mg4 O34 2.399345 1_555
Mg4 O44 2.399350 1_565
Mg4 O31 2.399350 1_555
Mg4 O38 2.443919 1_555
Mg4 O41 2.443919 1_555
Mg4 O24 2.443922 1_565
Mg4 O43 2.443922 1_555
Mg5 O18 2.399345 1_555
Mg5 O6 2.399345 1_555
Mg5 O17 2.399355 1_455
Mg5 O8 2.399355 1_555
Mg5 O5 2.443925 1_555
Mg5 O10 2.443925 1_455
Mg5 O13 2.443925 1_555
Mg5 O20 2.443925 1_555
Mg6 O28 2.399345 1_555
Mg6 O27 2.399345 1_555
Mg6 O32 2.399350 1_556
Mg6 O24 2.399350 1_555
Mg6 O40 2.443919 1_555
Mg6 O35 2.443919 1_555
Mg6 O44 2.443922 1_555
Mg6 O25 2.443922 1_556
Mg7 O42 2.399345 1_555
Mg7 O33 2.399345 1_555
Mg7 O40 2.399355 1_555
Mg7 O26 2.399355 1_556
Mg7 O27 2.443925 1_555
Mg7 O37 2.443925 1_555
Mg7 O46 2.443925 1_555
Mg7 O39 2.443925 1_556
Mg8 O37 2.399345 1_555
Mg8 O30 2.399345 1_555
Mg8 O19 2.399355 1_555
Mg8 O38 2.399355 1_655
Mg8 O36 2.443925 1_555
Mg8 O29 2.443925 1_555
Mg8 O45 2.443925 1_655
Mg8 O42 2.443925 1_555
Mg9 O39 2.399345 1_555
Mg9 O36 2.399345 1_555
Mg9 O25 2.399350 1_555
Mg9 O43 2.399350 1_655
Mg9 O26 2.443919 1_555
Mg9 O19 2.443919 1_555
Mg9 O32 2.443922 1_555
Mg9 O31 2.443922 1_655
Mg10 O29 2.399345 1_555
Mg10 O46 2.399345 1_555
Mg10 O41 2.399355 1_555
Mg10 O35 2.399355 1_565
Mg10 O30 2.443925 1_555
Mg10 O33 2.443925 1_555
Mg10 O34 2.443925 1_555
Mg10 O28 2.443925 1_565
Mg11 O3 2.399345 1_555
Mg11 O4 2.399345 1_555
Mg11 O23 2.399350 1_554
Mg11 O0 2.399350 1_555
Mg11 O47 2.443919 1_555
Mg11 O15 2.443919 1_555
Mg11 O11 2.443922 1_555
Mg11 O1 2.443922 1_554
Bi0 O41 2.322111 1_544
Bi0 O14 2.322111 1_555
Bi0 O4 2.322113 1_545
Bi0 O28 2.322113 1_554
Bi0 O44 2.322122 1_554
Bi0 O11 2.322122 1_545
Bi1 O26 2.322111 1_555
Bi1 O2 2.322111 1_554
Bi1 O3 2.322113 1_555
Bi1 O27 2.322113 1_554
Bi1 O1 2.322122 1_554
Bi1 O25 2.322122 1_555
Bi2 O38 2.322111 1_555
Bi2 O17 2.322111 1_455
Bi2 O20 2.322113 1_555
Bi2 O36 2.322113 1_455
Bi2 O31 2.322122 1_555
Bi2 O7 2.322122 1_455
Bi3 O8 2.322111 1_555
Bi3 O19 2.322111 1_445
Bi3 O10 2.322113 1_455
Bi3 O45 2.322113 1_545
Bi3 O43 2.322122 1_545
Bi3 O12 2.322122 1_455
Bi4 O42 2.322113 1_555
Bi4 O30 2.322113 1_555
Bi4 O46 2.322113 1_555
Bi4 O6 2.322113 1_555
Bi4 O13 2.322113 1_555
Bi4 O9 2.322113 1_555
Bi5 O15 2.322111 1_555
Bi5 O40 2.322111 1_454
Bi5 O16 2.322113 1_554
Bi5 O39 2.322113 1_455
Bi5 O32 2.322122 1_455
Bi5 O23 2.322122 1_554
Bi6 O35 2.322111 1_555
Bi6 O47 2.322111 1_545
Bi6 O21 2.322113 1_555
Bi6 O34 2.322113 1_545
Bi6 O24 2.322122 1_555
Bi6 O0 2.322122 1_545
Bi7 O29 2.322113 1_444
Bi7 O33 2.322113 1_444
Bi7 O37 2.322113 1_444
Bi7 O22 2.322113 1_555
Bi7 O5 2.322113 1_555
Bi7 O18 2.322113 1_555
O0 Si11 1.667823 1_555
O1 Si5 1.667823 1_555
O2 Si4 1.667831 1_555
O3 Si11 1.667828 1_555
O4 Si0 1.667828 1_554
O5 Si3 1.667828 1_545
O6 Si6 1.667828 1_555
O7 Si2 1.667823 1_555
O8 Si6 1.667831 1_555
O9 Si8 1.667828 1_555
O10 Si9 1.667828 1_545
O11 Si9 1.667823 1_555
O12 Si7 1.667823 1_555
O13 Si10 1.667828 1_555
O14 Si8 1.667831 1_555
O15 Si10 1.667831 1_555
O16 Si7 1.667828 1_455
O17 Si1 1.667831 1_555
O18 Si1 1.667828 1_455
O19 Si11 1.667831 1_555
O20 Si5 1.667828 1_555
O21 Si2 1.667828 1_555
O22 Si4 1.667828 1_554
O23 Si0 1.667823 1_555
O24 Si6 1.667823 1_555
O25 Si8 1.667823 1_555
O26 Si9 1.667831 1_555
O27 Si6 1.667828 1_555
O28 Si1 1.667828 1_556
O29 Si7 1.667828 1_565
O30 Si11 1.667828 1_555
O31 Si10 1.667823 1_555
O32 Si1 1.667823 1_555
O33 Si9 1.667828 1_556
O34 Si10 1.667828 1_555
O35 Si7 1.667831 1_555
O36 Si8 1.667828 1_555
O37 Si0 1.667828 1_655
O38 Si0 1.667831 1_555
O39 Si3 1.667828 1_655
O40 Si2 1.667831 1_555
O41 Si5 1.667831 1_555
O42 Si2 1.667828 1_555
O43 Si3 1.667823 1_555
O44 Si4 1.667823 1_555
O45 Si4 1.667828 1_565
O46 Si5 1.667828 1_555
O47 Si3 1.667831 1_555
