# generated using pymatgen
data_KLi(BH4)2
_symmetry_space_group_name_H-M   'P 1'
_cell_length_a   4.40536800
_cell_length_b   7.89735100
_cell_length_c   14.09264500
_cell_angle_alpha   90.00000000
_cell_angle_beta   90.00000000
_cell_angle_gamma   90.00000000
_symmetry_Int_Tables_number   1
_chemical_formula_structural   KLi(BH4)2
_chemical_formula_sum   'K4 Li4 B8 H32'
_cell_volume   490.29351119
_cell_formula_units_Z   4
loop_
 _symmetry_equiv_pos_site_id
 _symmetry_equiv_pos_as_xyz
  1  'x, y, z'
loop_
 _atom_site_type_symbol
 _atom_site_label
 _atom_site_symmetry_multiplicity
 _atom_site_fract_x
 _atom_site_fract_y
 _atom_site_fract_z
 _atom_site_occupancy
  K  K0  1  0.75000000  0.15976200  0.37080900  1
  K  K1  1  0.75000000  0.65976200  0.12919100  1
  K  K2  1  0.25000000  0.84023800  0.62919100  1
  K  K3  1  0.25000000  0.34023800  0.87080900  1
  Li  Li0  1  0.75000000  0.31175000  0.63759400  1
  Li  Li1  1  0.75000000  0.81175000  0.86240600  1
  Li  Li2  1  0.25000000  0.68825000  0.36240600  1
  Li  Li3  1  0.25000000  0.18825000  0.13759400  1
  B  B0  1  0.75000000  0.25397200  0.04687100  1
  B  B1  1  0.75000000  0.75397200  0.45312900  1
  B  B2  1  0.25000000  0.74602800  0.95312900  1
  B  B3  1  0.25000000  0.24602800  0.54687100  1
  B  B4  1  0.75000000  0.57055700  0.73759900  1
  B  B5  1  0.75000000  0.07055700  0.76240100  1
  B  B6  1  0.25000000  0.42944300  0.26240100  1
  B  B7  1  0.25000000  0.92944300  0.23759900  1
  H  H0  1  0.52606400  0.16559900  0.03043100  1
  H  H1  1  0.97393600  0.66559900  0.46956900  1
  H  H2  1  0.02606400  0.83440100  0.96956900  1
  H  H3  1  0.47393600  0.33440100  0.53043100  1
  H  H4  1  0.47393600  0.83440100  0.96956900  1
  H  H5  1  0.02606400  0.33440100  0.53043100  1
  H  H6  1  0.97393600  0.16559900  0.03043100  1
  H  H7  1  0.52606400  0.66559900  0.46956900  1
  H  H8  1  0.75000000  0.30257100  0.12916000  1
  H  H9  1  0.75000000  0.80257100  0.37084000  1
  H  H10  1  0.25000000  0.69742900  0.87084000  1
  H  H11  1  0.25000000  0.19742900  0.62916000  1
  H  H12  1  0.75000000  0.37718300  0.99343700  1
  H  H13  1  0.75000000  0.87718300  0.50656300  1
  H  H14  1  0.25000000  0.62281700  0.00656300  1
  H  H15  1  0.25000000  0.12281700  0.49343700  1
  H  H16  1  0.51966700  0.50994000  0.70231800  1
  H  H17  1  0.98033300  0.00994000  0.79768200  1
  H  H18  1  0.01966700  0.49006000  0.29768200  1
  H  H19  1  0.48033300  0.99006000  0.20231800  1
  H  H20  1  0.48033300  0.49006000  0.29768200  1
  H  H21  1  0.01966700  0.99006000  0.20231800  1
  H  H22  1  0.98033300  0.50994000  0.70231800  1
  H  H23  1  0.51966700  0.00994000  0.79768200  1
  H  H24  1  0.75000000  0.72339900  0.72335400  1
  H  H25  1  0.75000000  0.22339900  0.77664600  1
  H  H26  1  0.25000000  0.27660100  0.27664600  1
  H  H27  1  0.25000000  0.77660100  0.22335400  1
  H  H28  1  0.75000000  0.54497200  0.82369600  1
  H  H29  1  0.75000000  0.04497200  0.67630400  1
  H  H30  1  0.25000000  0.45502700  0.17630400  1
  H  H31  1  0.25000000  0.95502800  0.32369600  1
loop_
_geom_bond_atom_site_label_1
_geom_bond_atom_site_label_2
_geom_bond_distance
_geom_bond_site_symmetry_2
B0 H8 1.221531 1_555
B0 H12 1.230389 1_554
B0 H0 1.230440 1_555
B0 H6 1.230440 1_555
B1 H9 1.221531 1_555
B1 H13 1.230389 1_555
B1 H7 1.230440 1_555
B1 H1 1.230440 1_555
B2 H10 1.221531 1_555
B2 H14 1.230389 1_556
B2 H4 1.230440 1_555
B2 H2 1.230440 1_555
B3 H11 1.221531 1_555
B3 H15 1.230389 1_555
B3 H5 1.230440 1_555
B3 H3 1.230440 1_555
B4 H24 1.223627 1_555
B4 H22 1.227191 1_555
B4 H16 1.227191 1_555
B4 H28 1.230043 1_555
B5 H25 1.223627 1_555
B5 H23 1.227191 1_555
B5 H17 1.227191 1_555
B5 H29 1.230043 1_555
B6 H26 1.223627 1_555
B6 H20 1.227191 1_555
B6 H18 1.227191 1_555
B6 H30 1.230042 1_555
B7 H27 1.223627 1_555
B7 H19 1.227191 1_555
B7 H21 1.227191 1_555
B7 H31 1.230043 1_555
H0 Li3 1.947251 1_555
H0 K3 2.905416 1_554
H1 Li2 1.947251 1_655
H1 K2 2.905416 1_655
H2 Li1 1.947251 1_455
H2 K1 2.905416 1_456
H3 Li0 1.947251 1_555
H3 K0 2.905416 1_555
H4 Li1 1.947251 1_555
H4 K1 2.905416 1_556
H5 Li0 1.947251 1_455
H5 K0 2.905416 1_455
H6 Li3 1.947251 1_655
H6 K3 2.905416 1_654
H7 Li2 1.947251 1_555
H7 K2 2.905416 1_555
H8 K1 2.820863 1_555
H9 K0 2.820863 1_565
H10 K3 2.820863 1_555
H11 K2 2.820863 1_545
H12 K3 2.814864 1_555
H12 K3 2.814864 1_655
H12 K1 2.939427 1_556
H13 K2 2.814864 1_655
H13 K2 2.814864 1_555
H13 K0 2.939427 1_565
H14 K1 2.814864 1_455
H14 K1 2.814864 1_555
H14 K3 2.939427 1_554
H15 K0 2.814864 1_455
H15 K0 2.814864 1_555
H15 K2 2.939427 1_545
H16 Li0 2.076386 1_555
H16 K3 2.974156 1_555
H16 K2 3.045900 1_555
H17 Li1 2.076386 1_545
H17 K2 2.974156 1_645
H17 K3 3.045900 1_655
H18 Li2 2.076386 1_555
H18 K1 2.974156 1_455
H18 K0 3.045900 1_455
H19 Li3 2.076386 1_565
H19 K0 2.974156 1_565
H19 K1 3.045900 1_555
H20 Li2 2.076386 1_555
H20 K1 2.974156 1_555
H20 K0 3.045900 1_555
H21 Li3 2.076386 1_565
H21 K0 2.974156 1_465
H21 K1 3.045900 1_455
H22 Li0 2.076386 1_555
H22 K3 2.974156 1_655
H22 K2 3.045900 1_655
H23 Li1 2.076386 1_545
H23 K2 2.974156 1_545
H23 K3 3.045900 1_555
H24 Li1 2.080123 1_555
H24 K2 2.732063 1_655
H24 K2 2.732063 1_555
H25 Li0 2.080123 1_555
H25 K3 2.732063 1_555
H25 K3 2.732063 1_655
H26 Li3 2.080123 1_555
H26 K0 2.732063 1_455
H26 K0 2.732063 1_555
H27 Li2 2.080123 1_555
H27 K1 2.732063 1_455
H27 K1 2.732063 1_555
H28 Li1 2.176321 1_555
H28 K3 2.811915 1_555
H28 K3 2.811915 1_655
H29 Li0 2.176321 1_555
H29 K2 2.811915 1_645
H29 K2 2.811915 1_545
H30 Li3 2.176313 1_555
H30 K1 2.811920 1_455
H30 K1 2.811920 1_555
H31 Li2 2.176321 1_555
H31 K0 2.811915 1_465
H31 K0 2.811915 1_565
