# generated using pymatgen
data_TmZn3
_symmetry_space_group_name_H-M   'P 1'
_cell_length_a   4.27475184
_cell_length_b   6.59024117
_cell_length_c   9.90023197
_cell_angle_alpha   90.00001477
_cell_angle_beta   90.00001963
_cell_angle_gamma   90.00000000
_symmetry_Int_Tables_number   1
_chemical_formula_structural   TmZn3
_chemical_formula_sum   'Tm4 Zn12'
_cell_volume   278.90582609
_cell_formula_units_Z   4
loop_
 _symmetry_equiv_pos_site_id
 _symmetry_equiv_pos_as_xyz
  1  'x, y, z'
loop_
 _atom_site_type_symbol
 _atom_site_label
 _atom_site_symmetry_multiplicity
 _atom_site_fract_x
 _atom_site_fract_y
 _atom_site_fract_z
 _atom_site_occupancy
  Tm  Tm0  1  0.75000000  0.22040237  0.83672245  1
  Tm  Tm1  1  0.75000000  0.72040137  0.66327655  1
  Tm  Tm2  1  0.25000000  0.77960035  0.16328673  1
  Tm  Tm3  1  0.25000000  0.27960035  0.33671327  1
  Zn  Zn0  1  0.75000000  0.96317438  0.39768451  1
  Zn  Zn1  1  0.75000000  0.46317538  0.10231749  1
  Zn  Zn2  1  0.25000000  0.03683637  0.60235036  1
  Zn  Zn3  1  0.25000000  0.53683437  0.89764764  1
  Zn  Zn4  1  0.75000000  0.58115298  0.35195946  1
  Zn  Zn5  1  0.75000000  0.08115198  0.14804154  1
  Zn  Zn6  1  0.25000000  0.41885691  0.64806245  1
  Zn  Zn7  1  0.25000000  0.91885691  0.85193655  1
  Zn  Zn8  1  0.75000000  0.28335583  0.54285955  1
  Zn  Zn9  1  0.75000000  0.78335283  0.95713745  1
  Zn  Zn10  1  0.25000000  0.71662281  0.45720434  1
  Zn  Zn11  1  0.25000000  0.21662481  0.04279666  1
loop_
_geom_bond_atom_site_label_1
_geom_bond_atom_site_label_2
_geom_bond_distance
_geom_bond_site_symmetry_2
Tm0 Zn7 2.922371 1_645
Tm0 Zn7 2.922371 1_545
Tm0 Zn8 2.938744 1_555
Tm0 Zn11 2.954884 1_656
Tm0 Zn11 2.954885 1_556
Tm0 Zn3 3.046462 1_655
Tm0 Zn3 3.046463 1_555
Tm0 Zn1 3.077954 1_556
Tm0 Zn9 3.117226 1_545
Tm0 Zn6 3.125296 1_555
Tm0 Zn6 3.125297 1_655
Tm0 Zn5 3.215851 1_556
Tm0 Zn2 3.378731 1_555
Tm0 Zn2 3.378732 1_655
Tm0 Tm1 3.715696 1_555
Tm0 Tm1 3.715707 1_545
Tm1 Zn6 2.922367 1_555
Tm1 Zn6 2.922367 1_655
Tm1 Zn9 2.938722 1_555
Tm1 Zn10 2.954870 1_555
Tm1 Zn10 2.954871 1_655
Tm1 Zn2 3.046478 1_565
Tm1 Zn2 3.046478 1_665
Tm1 Zn0 3.077930 1_555
Tm1 Zn8 3.117209 1_555
Tm1 Zn7 3.125298 1_655
Tm1 Zn7 3.125299 1_555
Tm1 Zn4 3.215828 1_555
Tm1 Zn3 3.378727 1_655
Tm1 Zn3 3.378728 1_555
Tm2 Zn5 2.922415 1_465
Tm2 Zn5 2.922415 1_565
Tm2 Zn10 2.939302 1_555
Tm2 Zn9 2.955395 1_454
Tm2 Zn9 2.955396 1_554
Tm2 Zn1 3.046517 1_455
Tm2 Zn1 3.046517 1_555
Tm2 Zn3 3.078303 1_554
Tm2 Zn11 3.117358 1_565
Tm2 Zn4 3.125351 1_555
Tm2 Zn4 3.125352 1_455
Tm2 Zn7 3.216157 1_554
Tm2 Zn0 3.378924 1_555
Tm2 Zn0 3.378925 1_455
Tm2 Tm3 3.715613 1_565
Tm2 Tm3 3.715614 1_555
Tm3 Zn4 2.922420 1_555
Tm3 Zn4 2.922420 1_455
Tm3 Zn11 2.939290 1_555
Tm3 Zn8 2.955375 1_555
Tm3 Zn8 2.955376 1_455
Tm3 Zn0 3.046526 1_545
Tm3 Zn0 3.046526 1_445
Tm3 Zn2 3.078280 1_555
Tm3 Zn10 3.117349 1_555
Tm3 Zn5 3.125348 1_455
Tm3 Zn5 3.125349 1_555
Tm3 Zn6 3.216147 1_555
Tm3 Zn1 3.378913 1_455
Tm3 Zn1 3.378914 1_555
Zn0 Zn8 2.553065 1_565
Zn0 Zn4 2.557988 1_555
Zn0 Zn5 2.590933 1_565
Zn0 Zn10 2.748761 1_655
Zn0 Zn10 2.748762 1_555
Zn0 Zn2 2.984909 1_665
Zn0 Zn2 2.984910 1_565
Zn1 Zn9 2.553072 1_554
Zn1 Zn5 2.557999 1_555
Zn1 Zn4 2.590924 1_555
Zn1 Zn11 2.748759 1_555
Zn1 Zn11 2.748760 1_655
Zn1 Zn3 2.984933 1_554
Zn1 Zn3 2.984934 1_654
Zn2 Zn6 2.557960 1_555
Zn2 Zn7 2.590401 1_545
Zn2 Zn8 2.748575 1_455
Zn2 Zn8 2.748575 1_555
Zn3 Zn7 2.557971 1_555
Zn3 Zn6 2.590387 1_555
Zn3 Zn9 2.748569 1_555
Zn3 Zn9 2.748569 1_455
Zn4 Zn8 2.724620 1_555
Zn5 Zn9 2.724656 1_544
Zn6 Zn8 2.539801 1_455
Zn6 Zn8 2.539801 1_555
Zn7 Zn9 2.539800 1_555
Zn7 Zn9 2.539800 1_455
Zn10 Zn4 2.539899 1_455
Zn10 Zn4 2.539899 1_555
Zn10 Zn2 2.553078 1_565
Zn10 Zn6 2.724183 1_555
Zn11 Zn5 2.539906 1_555
Zn11 Zn5 2.539906 1_455
Zn11 Zn3 2.553074 1_554
Zn11 Zn7 2.724206 1_544
