# generated using pymatgen
data_K5Mo6IO29
_symmetry_space_group_name_H-M   'P 1'
_cell_length_a   7.61645100
_cell_length_b   10.30008694
_cell_length_c   17.92688531
_cell_angle_alpha   83.01061213
_cell_angle_beta   84.26142227
_cell_angle_gamma   87.62376133
_symmetry_Int_Tables_number   1
_chemical_formula_structural   K5Mo6IO29
_chemical_formula_sum   'K10 Mo12 I2 O58'
_cell_volume   1388.30814951
_cell_formula_units_Z   2
loop_
 _symmetry_equiv_pos_site_id
 _symmetry_equiv_pos_as_xyz
  1  'x, y, z'
loop_
 _atom_site_type_symbol
 _atom_site_label
 _atom_site_symmetry_multiplicity
 _atom_site_fract_x
 _atom_site_fract_y
 _atom_site_fract_z
 _atom_site_occupancy
  K  K0  1  0.37831700  0.96203200  0.21120900  1
  K  K1  1  0.62168300  0.03796800  0.78879100  1
  K  K2  1  0.31321200  0.24497200  0.47882900  1
  K  K3  1  0.68678800  0.75502800  0.52117100  1
  K  K4  1  0.21474600  0.20843900  0.00081700  1
  K  K5  1  0.78525400  0.79156100  0.99918300  1
  K  K6  1  0.16923400  0.51982100  0.14639200  1
  K  K7  1  0.83076600  0.48017900  0.85360800  1
  K  K8  1  0.16173600  0.64407700  0.39186000  1
  K  K9  1  0.83826400  0.35592300  0.60814000  1
  Mo  Mo0  1  0.69504800  0.46684800  0.38750700  1
  Mo  Mo1  1  0.30495200  0.53315200  0.61249300  1
  Mo  Mo2  1  0.64438000  0.57589000  0.20719700  1
  Mo  Mo3  1  0.35562000  0.42411000  0.79280300  1
  Mo  Mo4  1  0.68762000  0.36776800  0.07482000  1
  Mo  Mo5  1  0.31238000  0.63223200  0.92518000  1
  Mo  Mo6  1  0.82164800  0.05627400  0.12235300  1
  Mo  Mo7  1  0.17835200  0.94372600  0.87764700  1
  Mo  Mo8  1  0.86972700  0.94314700  0.30637200  1
  Mo  Mo9  1  0.13027300  0.05685300  0.69362800  1
  Mo  Mo10  1  0.81995000  0.14748600  0.43709400  1
  Mo  Mo11  1  0.18005000  0.85251400  0.56290600  1
  I  I0  1  0.76182900  0.26134300  0.25449100  1
  I  I1  1  0.23817100  0.73865700  0.74550900  1
  O  O0  1  0.48857000  0.53735800  0.41141100  1
  O  O1  1  0.51143000  0.46264200  0.58858900  1
  O  O2  1  0.84068300  0.52195100  0.44602000  1
  O  O3  1  0.15931700  0.47804900  0.55398000  1
  O  O4  1  0.45275500  0.66846000  0.23147500  1
  O  O5  1  0.54724500  0.33154000  0.76852500  1
  O  O6  1  0.78179400  0.67656400  0.14366000  1
  O  O7  1  0.21820600  0.32343600  0.85634000  1
  O  O8  1  0.52661500  0.30768800  0.02679900  1
  O  O9  1  0.47338500  0.69231200  0.97320100  1
  O  O10  1  0.79715000  0.48608800  0.01086000  1
  O  O11  1  0.20285000  0.51391200  0.98914000  1
  O  O12  1  0.65679800  0.00294600  0.07328200  1
  O  O13  1  0.34320200  0.99705400  0.92671800  1
  O  O14  1  0.02001700  0.97685500  0.09253800  1
  O  O15  1  0.97998300  0.02314500  0.90746200  1
  O  O16  1  0.73571500  0.83614100  0.36858600  1
  O  O17  1  0.26428500  0.16385900  0.63141400  1
  O  O18  1  0.06245100  0.85255300  0.28157300  1
  O  O19  1  0.93754900  0.14744700  0.71842700  1
  O  O20  1  0.69876100  0.03019200  0.49600500  1
  O  O21  1  0.30123900  0.96980800  0.50399500  1
  O  O22  1  0.96964100  0.20511800  0.49244200  1
  O  O23  1  0.03035900  0.79488200  0.50755800  1
  O  O24  1  0.57986600  0.38012700  0.28731500  1
  O  O25  1  0.42013400  0.61987300  0.71268500  1
  O  O26  1  0.84423200  0.39976200  0.18008300  1
  O  O27  1  0.15576800  0.60023800  0.81991700  1
  O  O28  1  0.62879600  0.20558800  0.17983500  1
  O  O29  1  0.37120400  0.79441200  0.82016500  1
  O  O30  1  0.94675900  0.14024000  0.22156500  1
  O  O31  1  0.05324100  0.85976000  0.77843500  1
  O  O32  1  0.67975200  0.12159500  0.32800500  1
  O  O33  1  0.32024800  0.87840500  0.67199500  1
  O  O34  1  0.89590200  0.31413000  0.33109000  1
  O  O35  1  0.10409800  0.68587000  0.66891000  1
  O  O36  1  0.77340700  0.57663500  0.29509400  1
  O  O37  1  0.22659300  0.42336500  0.70490600  1
  O  O38  1  0.53751000  0.47884500  0.13612800  1
  O  O39  1  0.46249000  0.52115500  0.86387200  1
  O  O40  1  0.87015300  0.22668100  0.06694800  1
  O  O41  1  0.12984700  0.77331900  0.93305200  1
  O  O42  1  0.74861500  0.94606900  0.21680100  1
  O  O43  1  0.25138500  0.05393100  0.78319900  1
  O  O44  1  0.97586700  0.03862300  0.37732600  1
  O  O45  1  0.02413300  0.96137700  0.62267400  1
  O  O46  1  0.64843400  0.29371700  0.44033900  1
  O  O47  1  0.35156600  0.70628300  0.55966100  1
  O  O48  1  0.25182700  0.79727200  0.10720800  1
  O  O49  1  0.74817300  0.20272800  0.89279200  1
  O  O50  1  0.41929900  0.86566100  0.36921000  1
  O  O51  1  0.58070100  0.13433900  0.63079000  1
  O  O52  1  0.27603000  0.17520400  0.31022800  1
  O  O53  1  0.72397000  0.82479600  0.68977200  1
  O  O54  1  0.21854800  0.24348400  0.20160200  1
  O  O55  1  0.78145200  0.75651600  0.79839800  1
  O  O56  1  0.18428300  0.36478000  0.29106700  1
  O  O57  1  0.81571700  0.63522000  0.70893300  1
loop_
_geom_bond_atom_site_label_1
_geom_bond_atom_site_label_2
_geom_bond_distance
_geom_bond_site_symmetry_2
K0 O18 2.814677 1_555
K0 O42 2.829412 1_555
K0 O48 2.923857 1_555
K0 O50 2.927876 1_555
K0 O52 3.018135 1_565
K0 O4 3.037856 1_555
K0 O54 3.089078 1_565
K0 O12 3.092230 1_565
K0 O28 3.176177 1_565
K1 O19 2.814677 1_555
K1 O43 2.829412 1_555
K1 O49 2.923857 1_555
K1 O51 2.927876 1_555
K1 O53 3.018135 1_545
K1 O5 3.037856 1_555
K1 O55 3.089078 1_545
K1 O13 3.092230 1_545
K1 O29 3.176177 1_545
K2 O46 2.629963 1_555
K2 O22 2.648141 1_455
K2 O17 2.754077 1_555
K2 O21 2.818977 1_545
K2 O3 3.031556 1_555
K2 O52 3.232447 1_555
K3 O47 2.629963 1_555
K3 O23 2.648141 1_655
K3 O16 2.754077 1_555
K3 O20 2.818977 1_565
K3 O2 3.031556 1_555
K3 O53 3.232447 1_555
K4 O7 2.711867 1_554
K4 O8 2.728131 1_555
K4 O40 2.778534 1_455
K4 O13 2.780230 1_544
K4 O14 3.073160 1_545
K4 O11 3.125974 1_554
K5 O6 2.711867 1_556
K5 O9 2.728131 1_555
K5 O41 2.778534 1_655
K5 O12 2.780230 1_566
K5 O15 3.073160 1_565
K5 O10 3.125974 1_556
K6 O26 2.791865 1_455
K6 O38 2.810211 1_555
K6 O11 2.812892 1_554
K6 O56 2.885523 1_555
K6 O54 2.919273 1_555
K6 O48 2.937372 1_555
K6 O4 3.291603 1_555
K6 O6 3.306270 1_455
K7 O27 2.791865 1_655
K7 O39 2.810211 1_555
K7 O10 2.812892 1_556
K7 O57 2.885523 1_555
K7 O55 2.919273 1_555
K7 O49 2.937372 1_555
K7 O5 3.291603 1_555
K7 O7 3.306270 1_655
K8 O0 2.716914 1_555
K8 O23 2.820650 1_555
K8 O2 2.826213 1_455
K8 O18 2.867555 1_555
K8 O50 3.034582 1_555
K8 O3 3.186493 1_555
K9 O1 2.716914 1_555
K9 O22 2.820650 1_555
K9 O3 2.826213 1_655
K9 O19 2.867555 1_555
K9 O51 3.034582 1_555
K9 O2 3.186493 1_555
Mo0 O0 1.740837 1_555
Mo0 O2 1.755730 1_555
Mo0 O46 1.943532 1_555
Mo0 O36 1.944691 1_555
Mo0 O24 2.358837 1_555
Mo0 O34 2.390763 1_555
Mo1 O1 1.740837 1_555
Mo1 O3 1.755730 1_555
Mo1 O47 1.943532 1_555
Mo1 O37 1.944691 1_555
Mo1 O25 2.358837 1_555
Mo1 O35 2.390763 1_555
Mo2 O6 1.741313 1_555
Mo2 O4 1.757061 1_555
Mo2 O36 1.939572 1_555
Mo2 O38 1.967148 1_555
Mo2 O24 2.367760 1_555
Mo2 O26 2.383691 1_555
Mo3 O7 1.741313 1_555
Mo3 O5 1.757061 1_555
Mo3 O37 1.939572 1_555
Mo3 O39 1.967148 1_555
Mo3 O25 2.367760 1_555
Mo3 O27 2.383691 1_555
Mo4 O8 1.741123 1_555
Mo4 O10 1.746088 1_555
Mo4 O38 1.941732 1_555
Mo4 O40 1.976785 1_555
Mo4 O28 2.379785 1_555
Mo4 O26 2.392994 1_555
Mo5 O9 1.741123 1_555
Mo5 O11 1.746088 1_555
Mo5 O39 1.941732 1_555
Mo5 O41 1.976785 1_555
Mo5 O29 2.379785 1_555
Mo5 O27 2.392994 1_555
Mo6 O12 1.745764 1_555
Mo6 O14 1.754991 1_645
Mo6 O40 1.939038 1_555
Mo6 O42 1.964935 1_545
Mo6 O28 2.341016 1_555
Mo6 O30 2.366622 1_555
Mo7 O13 1.745764 1_555
Mo7 O15 1.754991 1_465
Mo7 O41 1.939038 1_555
Mo7 O43 1.964935 1_565
Mo7 O29 2.341016 1_555
Mo7 O31 2.366622 1_555
Mo8 O16 1.751277 1_555
Mo8 O18 1.754963 1_655
Mo8 O42 1.926738 1_555
Mo8 O44 1.953089 1_565
Mo8 O32 2.337328 1_565
Mo8 O30 2.438458 1_565
Mo9 O17 1.751277 1_555
Mo9 O19 1.754963 1_455
Mo9 O43 1.926738 1_555
Mo9 O45 1.953089 1_545
Mo9 O33 2.337328 1_545
Mo9 O31 2.438458 1_545
Mo10 O20 1.736065 1_555
Mo10 O22 1.749978 1_555
Mo10 O44 1.934705 1_555
Mo10 O46 1.954865 1_555
Mo10 O32 2.367267 1_555
Mo10 O34 2.441460 1_555
Mo11 O21 1.736065 1_555
Mo11 O23 1.749978 1_555
Mo11 O45 1.934705 1_555
Mo11 O47 1.954865 1_555
Mo11 O33 2.367267 1_555
Mo11 O35 2.441460 1_555
I0 O24 1.906683 1_555
I0 O32 1.909898 1_555
I0 O26 1.910457 1_555
I0 O28 1.911576 1_555
I0 O34 1.931885 1_555
I0 O30 1.937907 1_555
I1 O25 1.906683 1_555
I1 O33 1.909898 1_555
I1 O27 1.910457 1_555
I1 O29 1.911576 1_555
I1 O35 1.931885 1_555
I1 O31 1.937907 1_555
