# generated using pymatgen
data_Sm2AlNi2
_symmetry_space_group_name_H-M   'P 1'
_cell_length_a   4.23151143
_cell_length_b   5.41389075
_cell_length_c   5.44671244
_cell_angle_alpha   119.79830649
_cell_angle_beta   112.83576505
_cell_angle_gamma   90.00102191
_symmetry_Int_Tables_number   1
_chemical_formula_structural   Sm2AlNi2
_chemical_formula_sum   'Sm2 Al1 Ni2'
_cell_volume   96.84773551
_cell_formula_units_Z   1
loop_
 _symmetry_equiv_pos_site_id
 _symmetry_equiv_pos_as_xyz
  1  'x, y, z'
loop_
 _atom_site_type_symbol
 _atom_site_label
 _atom_site_symmetry_multiplicity
 _atom_site_fract_x
 _atom_site_fract_y
 _atom_site_fract_z
 _atom_site_occupancy
  Sm  Sm0  1  0.79808391  0.29799080  0.59598131  1
  Sm  Sm1  1  0.20191622  0.70200868  0.40401933  1
  Al  Al0  1  0.00000012  -0.00000001  0.00000033  1
  Ni  Ni0  1  0.49999728  0.26129535  0.99999742  1
  Ni  Ni1  1  0.50000247  0.73870518  0.00000261  1
loop_
_geom_bond_atom_site_label_1
_geom_bond_atom_site_label_2
_geom_bond_distance
_geom_bond_site_symmetry_2
Al0 Ni1 2.545087 1_445
Al0 Ni0 2.545089 1_554
Al0 Ni1 2.545137 1_545
Al0 Ni0 2.545140 1_454
Al0 Sm0 3.200692 1_454
Al0 Sm1 3.200694 1_545
Al0 Sm1 3.200805 1_555
Al0 Sm0 3.200807 1_444
Al0 Sm1 3.289065 1_544
Al0 Sm0 3.289065 1_455
Al0 Sm0 3.291019 1_555
Al0 Sm1 3.291020 1_444
Ni0 Ni1 2.584631 1_556
Ni0 Ni1 2.829260 1_546
Ni0 Sm0 2.889447 1_556
Ni0 Sm1 2.889530 1_545
Ni0 Sm0 3.010297 1_555
Ni0 Sm1 3.010393 1_556
Ni0 Sm0 3.010839 1_455
Ni0 Sm1 3.010885 1_656
Ni1 Sm1 2.889441 1_554
Ni1 Sm0 2.889529 1_565
Ni1 Sm1 3.010302 1_555
Ni1 Sm0 3.010395 1_554
Ni1 Sm1 3.010843 1_655
Ni1 Sm0 3.010887 1_454
