# generated using pymatgen
data_LiMn2CoO6
_symmetry_space_group_name_H-M   'P 1'
_cell_length_a   6.54991948
_cell_length_b   6.54991948
_cell_length_c   5.91368943
_cell_angle_alpha   76.03673709
_cell_angle_beta   76.03673709
_cell_angle_gamma   25.92846598
_symmetry_Int_Tables_number   1
_chemical_formula_structural   LiMn2CoO6
_chemical_formula_sum   'Li1 Mn2 Co1 O6'
_cell_volume   107.47803239
_cell_formula_units_Z   1
loop_
 _symmetry_equiv_pos_site_id
 _symmetry_equiv_pos_as_xyz
  1  'x, y, z'
loop_
 _atom_site_type_symbol
 _atom_site_label
 _atom_site_symmetry_multiplicity
 _atom_site_fract_x
 _atom_site_fract_y
 _atom_site_fract_z
 _atom_site_occupancy
  Li  Li0  1  0.00000000  0.00000000  0.00000000  1
  Mn  Mn0  1  0.66850200  0.66850200  0.18038500  1
  Mn  Mn1  1  0.33149800  0.33149800  0.81961500  1
  Co  Co0  1  0.00000000  0.00000000  0.50000000  1
  O  O0  1  0.48470300  0.48470300  0.74589700  1
  O  O1  1  0.82654500  0.82654500  0.04287300  1
  O  O2  1  0.51529700  0.51529700  0.25410300  1
  O  O3  1  0.84514500  0.84514500  0.60167200  1
  O  O4  1  0.17345500  0.17345500  0.95712700  1
  O  O5  1  0.15485500  0.15485500  0.39832800  1
loop_
_geom_bond_atom_site_label_1
_geom_bond_atom_site_label_2
_geom_bond_distance
_geom_bond_site_symmetry_2
Li0 O2 2.144933 1_545
Li0 O2 2.144933 1_455
Li0 O0 2.144933 1_454
Li0 O0 2.144933 1_544
Li0 O4 2.165512 1_554
Li0 O1 2.165512 1_445
Mn0 O2 1.895516 1_555
Mn0 O5 1.933778 1_655
Mn0 O5 1.933778 1_565
Mn0 O4 1.965962 1_654
Mn0 O4 1.965962 1_564
Mn0 O1 1.979738 1_555
Mn1 O0 1.895516 1_555
Mn1 O3 1.933778 1_455
Mn1 O3 1.933778 1_545
Mn1 O1 1.965962 1_546
Mn1 O1 1.965962 1_456
Mn1 O4 1.979738 1_555
Co0 O5 1.918565 1_555
Co0 O3 1.918565 1_445
Co0 O0 2.042376 1_545
Co0 O0 2.042376 1_455
Co0 O2 2.042376 1_545
Co0 O2 2.042376 1_455
