# generated using pymatgen
data_K4Na4Mo7WO24
_symmetry_space_group_name_H-M   'P 1'
_cell_length_a   7.98667700
_cell_length_b   7.98667700
_cell_length_c   8.01211200
_cell_angle_alpha   90.00000000
_cell_angle_beta   90.00000000
_cell_angle_gamma   90.00000000
_symmetry_Int_Tables_number   1
_chemical_formula_structural   K4Na4Mo7WO24
_chemical_formula_sum   'K4 Na4 Mo7 W1 O24'
_cell_volume   511.06866428
_cell_formula_units_Z   1
loop_
 _symmetry_equiv_pos_site_id
 _symmetry_equiv_pos_as_xyz
  1  'x, y, z'
loop_
 _atom_site_type_symbol
 _atom_site_label
 _atom_site_symmetry_multiplicity
 _atom_site_fract_x
 _atom_site_fract_y
 _atom_site_fract_z
 _atom_site_occupancy
  K  K0  1  0.24890700  0.24890700  0.25070400  1
  K  K1  1  0.24890700  0.75109300  0.25070400  1
  K  K2  1  0.75109300  0.24890700  0.25070400  1
  K  K3  1  0.75109300  0.75109300  0.25070400  1
  Na  Na0  1  0.24796900  0.24796900  0.74951300  1
  Na  Na1  1  0.24796900  0.75203100  0.74951300  1
  Na  Na2  1  0.75203100  0.24796900  0.74951300  1
  Na  Na3  1  0.75203100  0.75203100  0.74951300  1
  Mo  Mo0  1  0.00000000  0.00000000  0.50141300  1
  Mo  Mo1  1  0.00000000  0.50000000  0.99722900  1
  Mo  Mo2  1  0.00000000  0.50000000  0.50255600  1
  Mo  Mo3  1  0.50000000  0.00000000  0.99722900  1
  Mo  Mo4  1  0.50000000  0.00000000  0.50255600  1
  Mo  Mo5  1  0.50000000  0.50000000  0.99795200  1
  Mo  Mo6  1  0.50000000  0.50000000  0.50209300  1
  W  W0  1  0.00000000  0.00000000  0.99686800  1
  O  O0  1  0.24419400  0.00000000  0.99471700  1
  O  O1  1  0.25422800  0.00000000  0.50495800  1
  O  O2  1  0.23849300  0.50000000  0.99514500  1
  O  O3  1  0.24343500  0.50000000  0.50486500  1
  O  O4  1  0.75580600  0.00000000  0.99471700  1
  O  O5  1  0.74577200  0.00000000  0.50495800  1
  O  O6  1  0.76150700  0.50000000  0.99514500  1
  O  O7  1  0.75656500  0.50000000  0.50486500  1
  O  O8  1  0.00000000  0.24419400  0.99471700  1
  O  O9  1  0.00000000  0.25422800  0.50495800  1
  O  O10  1  0.00000000  0.75580600  0.99471700  1
  O  O11  1  0.00000000  0.74577200  0.50495800  1
  O  O12  1  0.50000000  0.23849300  0.99514500  1
  O  O13  1  0.50000000  0.24343500  0.50486500  1
  O  O14  1  0.50000000  0.76150700  0.99514500  1
  O  O15  1  0.50000000  0.75656500  0.50486500  1
  O  O16  1  0.00000000  0.00000000  0.23786400  1
  O  O17  1  0.00000000  0.00000000  0.75800200  1
  O  O18  1  0.00000000  0.50000000  0.25872700  1
  O  O19  1  0.00000000  0.50000000  0.74352200  1
  O  O20  1  0.50000000  0.00000000  0.25872700  1
  O  O21  1  0.50000000  0.00000000  0.74352200  1
  O  O22  1  0.50000000  0.50000000  0.26276000  1
  O  O23  1  0.50000000  0.50000000  0.73937600  1
loop_
_geom_bond_atom_site_label_1
_geom_bond_atom_site_label_2
_geom_bond_distance
_geom_bond_site_symmetry_2
K0 O16 2.813253 1_555
K0 O18 2.824475 1_555
K0 O20 2.824475 1_555
K0 O22 2.837707 1_555
K0 O1 2.846671 1_555
K0 O9 2.846671 1_555
K0 O0 2.856555 1_554
K0 O8 2.856555 1_554
K0 O13 2.858378 1_555
K0 O3 2.858378 1_555
K0 O12 2.867241 1_554
K0 O2 2.867241 1_554
K1 O16 2.813253 1_565
K1 O18 2.824475 1_555
K1 O20 2.824475 1_565
K1 O22 2.837707 1_555
K1 O11 2.846671 1_555
K1 O1 2.846671 1_565
K1 O10 2.856555 1_554
K1 O0 2.856555 1_564
K1 O3 2.858378 1_555
K1 O15 2.858378 1_555
K1 O14 2.867241 1_554
K1 O2 2.867241 1_554
K2 O16 2.813253 1_655
K2 O18 2.824475 1_655
K2 O20 2.824475 1_555
K2 O22 2.837707 1_555
K2 O5 2.846671 1_555
K2 O9 2.846671 1_655
K2 O8 2.856555 1_654
K2 O4 2.856555 1_554
K2 O13 2.858378 1_555
K2 O7 2.858378 1_555
K2 O6 2.867241 1_554
K2 O12 2.867241 1_554
K3 O16 2.813253 1_665
K3 O20 2.824475 1_565
K3 O18 2.824475 1_655
K3 O22 2.837707 1_555
K3 O11 2.846671 1_655
K3 O5 2.846671 1_565
K3 O4 2.856555 1_564
K3 O10 2.856555 1_654
K3 O15 2.858378 1_555
K3 O7 2.858378 1_555
K3 O6 2.867241 1_554
K3 O14 2.867241 1_554
Na0 O9 2.786383 1_555
Na0 O1 2.786383 1_555
Na0 O8 2.789757 1_555
Na0 O0 2.789757 1_555
Na0 O17 2.801603 1_555
Na0 O13 2.809843 1_555
Na0 O3 2.809843 1_555
Na0 O2 2.816132 1_555
Na0 O12 2.816132 1_555
Na0 O19 2.824218 1_555
Na0 O21 2.824218 1_555
Na0 O23 2.847815 1_555
Na1 O11 2.786383 1_555
Na1 O1 2.786383 1_565
Na1 O10 2.789757 1_555
Na1 O0 2.789757 1_565
Na1 O17 2.801603 1_565
Na1 O15 2.809843 1_555
Na1 O3 2.809843 1_555
Na1 O2 2.816132 1_555
Na1 O14 2.816132 1_555
Na1 O19 2.824218 1_555
Na1 O21 2.824218 1_565
Na1 O23 2.847815 1_555
Na2 O5 2.786383 1_555
Na2 O9 2.786383 1_655
Na2 O4 2.789757 1_555
Na2 O8 2.789757 1_655
Na2 O17 2.801603 1_655
Na2 O7 2.809843 1_555
Na2 O13 2.809843 1_555
Na2 O6 2.816132 1_555
Na2 O12 2.816132 1_555
Na2 O19 2.824218 1_655
Na2 O21 2.824218 1_555
Na2 O23 2.847815 1_555
Na3 O11 2.786383 1_655
Na3 O5 2.786383 1_565
Na3 O4 2.789757 1_565
Na3 O10 2.789757 1_655
Na3 O17 2.801603 1_665
Na3 O15 2.809843 1_555
Na3 O7 2.809843 1_555
Na3 O14 2.816132 1_555
Na3 O6 2.816132 1_555
Na3 O19 2.824218 1_655
Na3 O21 2.824218 1_565
Na3 O23 2.847815 1_555
Mo0 O11 2.030636 1_545
Mo0 O1 2.030636 1_555
Mo0 O5 2.030636 1_455
Mo0 O9 2.030636 1_555
Mo0 O17 2.055820 1_555
Mo0 O16 2.111584 1_555
Mo1 O6 1.904840 1_455
Mo1 O2 1.904840 1_555
Mo1 O19 2.032729 1_555
Mo1 O8 2.043139 1_555
Mo1 O10 2.043139 1_555
Mo1 O18 2.095151 1_556
Mo2 O19 1.930647 1_555
Mo2 O7 1.944325 1_455
Mo2 O3 1.944325 1_555
Mo2 O18 1.953585 1_555
Mo2 O9 1.962996 1_555
Mo2 O11 1.962996 1_555
Mo3 O14 1.904840 1_545
Mo3 O12 1.904840 1_555
Mo3 O21 2.032729 1_555
Mo3 O4 2.043139 1_555
Mo3 O0 2.043139 1_555
Mo3 O20 2.095151 1_556
Mo4 O21 1.930647 1_555
Mo4 O15 1.944325 1_545
Mo4 O13 1.944325 1_555
Mo4 O20 1.953585 1_555
Mo4 O1 1.962996 1_555
Mo4 O5 1.962996 1_555
Mo5 O23 2.071740 1_555
Mo5 O12 2.088693 1_555
Mo5 O2 2.088693 1_555
Mo5 O6 2.088693 1_555
Mo5 O14 2.088693 1_555
Mo5 O22 2.121671 1_556
Mo6 O23 1.901138 1_555
Mo6 O22 1.917563 1_555
Mo6 O3 2.049222 1_555
Mo6 O13 2.049222 1_555
Mo6 O15 2.049222 1_555
Mo6 O7 2.049222 1_555
O0 W0 1.950375 1_555
O4 W0 1.950375 1_655
O8 W0 1.950375 1_555
O10 W0 1.950375 1_565
O16 W0 1.930887 1_554
O17 W0 1.913821 1_555
