# generated using pymatgen
data_U2(GeRh)3
_symmetry_space_group_name_H-M   'P 1'
_cell_length_a   5.49448000
_cell_length_b   5.49448000
_cell_length_c   41.15433800
_cell_angle_alpha   90.00000000
_cell_angle_beta   90.00000000
_cell_angle_gamma   90.00000000
_symmetry_Int_Tables_number   1
_chemical_formula_structural   U2(GeRh)3
_chemical_formula_sum   'U16 Ge24 Rh24'
_cell_volume   1242.42108709
_cell_formula_units_Z   8
loop_
 _symmetry_equiv_pos_site_id
 _symmetry_equiv_pos_as_xyz
  1  'x, y, z'
loop_
 _atom_site_type_symbol
 _atom_site_label
 _atom_site_symmetry_multiplicity
 _atom_site_fract_x
 _atom_site_fract_y
 _atom_site_fract_z
 _atom_site_occupancy
  U  U0_0  1  0.25000000  0.25000000  0.37880350  1
  U  U0_1  1  0.25000000  0.25000000  0.87880350  1
  U  U0_2  1  0.25000000  0.75000000  0.37880350  1
  U  U0_3  1  0.25000000  0.75000000  0.87880350  1
  U  U0_4  1  0.75000000  0.25000000  0.37880350  1
  U  U0_5  1  0.75000000  0.25000000  0.87880350  1
  U  U0_6  1  0.75000000  0.75000000  0.37880350  1
  U  U0_7  1  0.75000000  0.75000000  0.87880350  1
  U  U1_0  1  0.25000000  0.25000000  0.12119650  1
  U  U1_1  1  0.25000000  0.25000000  0.62119650  1
  U  U1_2  1  0.25000000  0.75000000  0.12119650  1
  U  U1_3  1  0.25000000  0.75000000  0.62119650  1
  U  U1_4  1  0.75000000  0.25000000  0.12119650  1
  U  U1_5  1  0.75000000  0.25000000  0.62119650  1
  U  U1_6  1  0.75000000  0.75000000  0.12119650  1
  U  U1_7  1  0.75000000  0.75000000  0.62119650  1
  Ge  Ge0_0  1  0.25000000  0.25000000  0.19183400  1
  Ge  Ge0_1  1  0.25000000  0.25000000  0.69183400  1
  Ge  Ge0_2  1  0.25000000  0.75000000  0.19183400  1
  Ge  Ge0_3  1  0.25000000  0.75000000  0.69183400  1
  Ge  Ge0_4  1  0.75000000  0.25000000  0.19183400  1
  Ge  Ge0_5  1  0.75000000  0.25000000  0.69183400  1
  Ge  Ge0_6  1  0.75000000  0.75000000  0.19183400  1
  Ge  Ge0_7  1  0.75000000  0.75000000  0.69183400  1
  Ge  Ge1_0  1  0.25000000  0.25000000  0.30816600  1
  Ge  Ge1_1  1  0.25000000  0.25000000  0.80816600  1
  Ge  Ge1_2  1  0.25000000  0.75000000  0.30816600  1
  Ge  Ge1_3  1  0.25000000  0.75000000  0.80816600  1
  Ge  Ge1_4  1  0.75000000  0.25000000  0.30816600  1
  Ge  Ge1_5  1  0.75000000  0.25000000  0.80816600  1
  Ge  Ge1_6  1  0.75000000  0.75000000  0.30816600  1
  Ge  Ge1_7  1  0.75000000  0.75000000  0.80816600  1
  Ge  Ge2_0  1  0.25000000  0.25000000  0.00000000  1
  Ge  Ge2_1  1  0.25000000  0.25000000  0.50000000  1
  Ge  Ge2_2  1  0.25000000  0.75000000  0.00000000  1
  Ge  Ge2_3  1  0.25000000  0.75000000  0.50000000  1
  Ge  Ge2_4  1  0.75000000  0.25000000  0.00000000  1
  Ge  Ge2_5  1  0.75000000  0.25000000  0.50000000  1
  Ge  Ge2_6  1  0.75000000  0.75000000  0.00000000  1
  Ge  Ge2_7  1  0.75000000  0.75000000  0.50000000  1
  Rh  Rh0_0  1  0.25000000  0.25000000  0.06219250  1
  Rh  Rh0_1  1  0.25000000  0.25000000  0.56219250  1
  Rh  Rh0_2  1  0.25000000  0.75000000  0.06219250  1
  Rh  Rh0_3  1  0.25000000  0.75000000  0.56219250  1
  Rh  Rh0_4  1  0.75000000  0.25000000  0.06219250  1
  Rh  Rh0_5  1  0.75000000  0.25000000  0.56219250  1
  Rh  Rh0_6  1  0.75000000  0.75000000  0.06219250  1
  Rh  Rh0_7  1  0.75000000  0.75000000  0.56219250  1
  Rh  Rh1_0  1  0.25000000  0.25000000  0.43780750  1
  Rh  Rh1_1  1  0.25000000  0.25000000  0.93780750  1
  Rh  Rh1_2  1  0.25000000  0.75000000  0.43780750  1
  Rh  Rh1_3  1  0.25000000  0.75000000  0.93780750  1
  Rh  Rh1_4  1  0.75000000  0.25000000  0.43780750  1
  Rh  Rh1_5  1  0.75000000  0.25000000  0.93780750  1
  Rh  Rh1_6  1  0.75000000  0.75000000  0.43780750  1
  Rh  Rh1_7  1  0.75000000  0.75000000  0.93780750  1
  Rh  Rh2_0  1  0.25000000  0.25000000  0.25000000  1
  Rh  Rh2_1  1  0.25000000  0.25000000  0.75000000  1
  Rh  Rh2_2  1  0.25000000  0.75000000  0.25000000  1
  Rh  Rh2_3  1  0.25000000  0.75000000  0.75000000  1
  Rh  Rh2_4  1  0.75000000  0.25000000  0.25000000  1
  Rh  Rh2_5  1  0.75000000  0.25000000  0.75000000  1
  Rh  Rh2_6  1  0.75000000  0.75000000  0.25000000  1
  Rh  Rh2_7  1  0.75000000  0.75000000  0.75000000  1
loop_
_geom_bond_atom_site_label_1
_geom_bond_atom_site_label_2
_geom_bond_distance
_geom_bond_site_symmetry_2
U0_0 U0_4 2.747240 1_555
U0_0 U0_2 2.747240 1_555
U0_0 U0_4 2.747240 1_455
U0_0 U0_2 2.747240 1_545
U0_1 U0_5 2.747240 1_455
U0_1 U0_3 2.747240 1_545
U0_1 U0_5 2.747240 1_555
U0_1 U0_3 2.747240 1_555
U0_2 U0_6 2.747240 1_455
U0_2 U0_6 2.747240 1_555
U0_3 U0_7 2.747240 1_455
U0_3 U0_7 2.747240 1_555
U0_4 U0_6 2.747240 1_545
U0_4 U0_6 2.747240 1_555
U0_5 U0_7 2.747240 1_545
U0_5 U0_7 2.747240 1_555
U1_0 U1_4 2.747240 1_455
U1_0 U1_4 2.747240 1_555
U1_0 U1_2 2.747240 1_555
U1_0 U1_2 2.747240 1_545
U1_1 U1_3 2.747240 1_545
U1_1 U1_3 2.747240 1_555
U1_1 U1_5 2.747240 1_455
U1_1 U1_5 2.747240 1_555
U1_2 U1_6 2.747240 1_555
U1_2 U1_6 2.747240 1_455
U1_3 U1_7 2.747240 1_555
U1_3 U1_7 2.747240 1_455
U1_4 U1_6 2.747240 1_545
U1_4 U1_6 2.747240 1_555
U1_5 U1_7 2.747240 1_555
U1_5 U1_7 2.747240 1_545
Ge0_0 Rh2_0 2.393783 1_555
Ge0_0 Ge0_4 2.747240 1_455
Ge0_0 Ge0_2 2.747240 1_545
Ge0_0 Ge0_2 2.747240 1_555
Ge0_0 Ge0_4 2.747240 1_555
Ge0_0 U1_0 2.907040 1_555
Ge0_1 Rh2_1 2.393783 1_555
Ge0_1 Ge0_5 2.747240 1_455
Ge0_1 Ge0_3 2.747240 1_555
Ge0_1 Ge0_5 2.747240 1_555
Ge0_1 Ge0_3 2.747240 1_545
Ge0_1 U1_1 2.907040 1_555
Ge0_2 Rh2_2 2.393783 1_555
Ge0_2 Ge0_6 2.747240 1_455
Ge0_2 Ge0_6 2.747240 1_555
Ge0_2 U1_2 2.907040 1_555
Ge0_3 Rh2_3 2.393783 1_555
Ge0_3 Ge0_7 2.747240 1_555
Ge0_3 Ge0_7 2.747240 1_455
Ge0_3 U1_3 2.907040 1_555
Ge0_4 Rh2_4 2.393783 1_555
Ge0_4 Ge0_6 2.747240 1_545
Ge0_4 Ge0_6 2.747240 1_555
Ge0_4 U1_4 2.907040 1_555
Ge0_5 Rh2_5 2.393783 1_555
Ge0_5 Ge0_7 2.747240 1_555
Ge0_5 Ge0_7 2.747240 1_545
Ge0_5 U1_5 2.907040 1_555
Ge0_6 Rh2_6 2.393783 1_555
Ge0_6 U1_6 2.907040 1_555
Ge0_7 Rh2_7 2.393783 1_555
Ge0_7 U1_7 2.907040 1_555
Ge1_0 Rh2_0 2.393783 1_555
Ge1_0 Ge1_2 2.747240 1_555
Ge1_0 Ge1_4 2.747240 1_455
Ge1_0 Ge1_4 2.747240 1_555
Ge1_0 Ge1_2 2.747240 1_545
Ge1_0 U0_0 2.907040 1_555
Ge1_1 Rh2_1 2.393783 1_555
Ge1_1 Ge1_5 2.747240 1_555
Ge1_1 Ge1_3 2.747240 1_555
Ge1_1 Ge1_5 2.747240 1_455
Ge1_1 Ge1_3 2.747240 1_545
Ge1_1 U0_1 2.907040 1_555
Ge1_2 Rh2_2 2.393783 1_555
Ge1_2 Ge1_6 2.747240 1_555
Ge1_2 Ge1_6 2.747240 1_455
Ge1_2 U0_2 2.907040 1_555
Ge1_3 Rh2_3 2.393783 1_555
Ge1_3 Ge1_7 2.747240 1_455
Ge1_3 Ge1_7 2.747240 1_555
Ge1_3 U0_3 2.907040 1_555
Ge1_4 Rh2_4 2.393783 1_555
Ge1_4 Ge1_6 2.747240 1_555
Ge1_4 Ge1_6 2.747240 1_545
Ge1_4 U0_4 2.907040 1_555
Ge1_5 Rh2_5 2.393783 1_555
Ge1_5 Ge1_7 2.747240 1_545
Ge1_5 Ge1_7 2.747240 1_555
Ge1_5 U0_5 2.907040 1_555
Ge1_6 Rh2_6 2.393783 1_555
Ge1_6 U0_6 2.907040 1_555
Ge1_7 Rh2_7 2.393783 1_555
Ge1_7 U0_7 2.907040 1_555
Ge2_0 Rh0_0 2.559491 1_555
Ge2_0 Rh1_1 2.559491 1_554
Ge2_0 Ge2_2 2.747240 1_545
Ge2_0 Ge2_2 2.747240 1_555
Ge2_0 Ge2_4 2.747240 1_455
Ge2_0 Ge2_4 2.747240 1_555
Ge2_1 Rh0_1 2.559491 1_555
Ge2_1 Rh1_0 2.559491 1_555
Ge2_1 Ge2_3 2.747240 1_555
Ge2_1 Ge2_3 2.747240 1_545
Ge2_1 Ge2_5 2.747240 1_455
Ge2_1 Ge2_5 2.747240 1_555
Ge2_2 Rh0_2 2.559491 1_555
Ge2_2 Rh1_3 2.559491 1_554
Ge2_2 Ge2_6 2.747240 1_555
Ge2_2 Ge2_6 2.747240 1_455
Ge2_3 Rh0_3 2.559491 1_555
Ge2_3 Rh1_2 2.559491 1_555
Ge2_3 Ge2_7 2.747240 1_455
Ge2_3 Ge2_7 2.747240 1_555
Ge2_4 Rh0_4 2.559491 1_555
Ge2_4 Rh1_5 2.559491 1_554
Ge2_4 Ge2_6 2.747240 1_555
Ge2_4 Ge2_6 2.747240 1_545
Ge2_5 Rh0_5 2.559491 1_555
Ge2_5 Rh1_4 2.559491 1_555
Ge2_5 Ge2_7 2.747240 1_555
Ge2_5 Ge2_7 2.747240 1_545
Ge2_6 Rh0_6 2.559491 1_555
Ge2_6 Rh1_7 2.559491 1_554
Ge2_7 Rh0_7 2.559491 1_555
Ge2_7 Rh1_6 2.559491 1_555
Rh0_0 U1_0 2.428271 1_555
Rh0_1 U1_1 2.428271 1_555
Rh0_2 U1_2 2.428271 1_555
Rh0_3 U1_3 2.428271 1_555
Rh0_4 U1_4 2.428271 1_555
Rh0_5 U1_5 2.428271 1_555
Rh0_6 U1_6 2.428271 1_555
Rh0_7 U1_7 2.428271 1_555
Rh1_0 U0_0 2.428271 1_555
Rh1_1 U0_1 2.428271 1_555
Rh1_2 U0_2 2.428271 1_555
Rh1_3 U0_3 2.428271 1_555
Rh1_4 U0_4 2.428271 1_555
Rh1_5 U0_5 2.428271 1_555
Rh1_6 U0_6 2.428271 1_555
Rh1_7 U0_7 2.428271 1_555
