# generated using pymatgen
data_Er2MgTl2(WO4)4
_symmetry_space_group_name_H-M   'P 1'
_cell_length_a   7.49524762
_cell_length_b   7.83263789
_cell_length_c   7.48052043
_cell_angle_alpha   64.02215410
_cell_angle_beta   63.46314850
_cell_angle_gamma   90.28544995
_symmetry_Int_Tables_number   1
_chemical_formula_structural   Er2MgTl2(WO4)4
_chemical_formula_sum   'Er2 Mg1 Tl2 W4 O16'
_cell_volume   342.02720184
_cell_formula_units_Z   1
loop_
 _symmetry_equiv_pos_site_id
 _symmetry_equiv_pos_as_xyz
  1  'x, y, z'
loop_
 _atom_site_type_symbol
 _atom_site_label
 _atom_site_symmetry_multiplicity
 _atom_site_fract_x
 _atom_site_fract_y
 _atom_site_fract_z
 _atom_site_occupancy
  Er  Er0  1  0.26581380  0.78378579  0.73447044  1
  Er  Er1  1  0.76145220  0.19914386  0.25069106  1
  Mg  Mg0  1  0.92345836  0.96469388  0.87607110  1
  Tl  Tl0  1  0.75115972  0.26185663  0.72649276  1
  Tl  Tl1  1  0.22246683  0.79988372  0.23904634  1
  W  W0  1  0.28930027  0.31583772  0.70033208  1
  W  W1  1  0.70343657  0.66725760  0.31618153  1
  W  W2  1  0.68810725  0.69788157  0.80518555  1
  W  W3  1  0.30922173  0.29043881  0.20534173  1
  O  O0  1  0.37683620  0.24079177  0.94541815  1
  O  O1  1  0.63206274  0.76093808  0.04986163  1
  O  O2  1  0.76825673  0.61308693  0.57334496  1
  O  O3  1  0.24762961  0.37321087  0.42934559  1
  O  O4  1  0.61175679  0.91245508  0.63454854  1
  O  O5  1  0.38958550  0.07131870  0.35899513  1
  O  O6  1  0.04656253  0.35285129  0.88423396  1
  O  O7  1  0.95927112  0.66305909  0.10352215  1
  O  O8  1  0.41077330  0.62749558  0.53417387  1
  O  O9  1  0.59730165  0.35678652  0.47124087  1
  O  O10  1  0.37265130  0.57890382  0.96856997  1
  O  O11  1  0.63947912  0.41763137  0.02973872  1
  O  O12  1  0.21268622  0.03689904  0.79510207  1
  O  O13  1  0.78676981  0.95381154  0.18543479  1
  O  O14  1  0.96617598  0.80527386  0.69716075  1
  O  O15  1  0.03445167  0.21303988  0.30692529  1
loop_
_geom_bond_atom_site_label_1
_geom_bond_atom_site_label_2
_geom_bond_distance
_geom_bond_site_symmetry_2
Er0 O12 2.220132 1_565
Er0 O10 2.255457 1_555
Er0 O8 2.255992 1_555
Er0 O14 2.381765 1_455
Er0 O7 2.412110 1_456
Er0 O4 2.424851 1_555
Er0 O5 2.435389 1_565
Er1 O13 2.170130 1_545
Er1 O15 2.276565 1_655
Er1 O6 2.319363 1_654
Er1 O11 2.320382 1_555
Er1 O9 2.397145 1_555
Er1 O4 2.448250 1_545
Er1 O5 2.582886 1_555
Mg0 O12 1.975007 1_665
Mg0 O13 2.029830 1_556
Mg0 O14 2.130254 1_555
Mg0 O1 2.148925 1_556
Mg0 O7 2.332744 1_556
O0 W3 1.993104 1_556
O0 W0 2.066839 1_555
O0 Tl0 2.496782 1_555
O1 W2 1.969112 1_554
O1 W1 2.114026 1_555
O1 Tl1 2.833058 1_555
O2 W2 1.972782 1_555
O2 W1 2.058855 1_555
O2 Tl0 2.449794 1_555
O3 W3 1.924779 1_555
O3 W0 2.043968 1_555
O4 W2 1.887962 1_555
O5 W3 1.878924 1_555
O6 W0 1.845236 1_555
O7 W1 1.878686 1_555
O8 W1 1.979893 1_555
O8 W0 2.154401 1_555
O9 W0 2.084501 1_555
O9 W1 2.139414 1_555
O9 Tl0 2.502187 1_555
O10 W3 2.049201 1_556
O10 W2 2.085855 1_555
O11 W2 1.996918 1_554
O11 W3 2.183793 1_555
O12 W0 1.967902 1_555
O13 W1 1.975205 1_555
O14 W2 1.893823 1_555
O15 W3 1.836295 1_555
