# generated using pymatgen
data_Nb5PbSe8
_symmetry_space_group_name_H-M   'P 1'
_cell_length_a   18.84263249
_cell_length_b   18.84263249
_cell_length_c   18.87250695
_cell_angle_alpha   77.00402864
_cell_angle_beta   77.00402864
_cell_angle_gamma   21.44907054
_symmetry_Int_Tables_number   1
_chemical_formula_structural   Nb5PbSe8
_chemical_formula_sum   'Nb40 Pb8 Se64'
_cell_volume   2385.18775802
_cell_formula_units_Z   8
loop_
 _symmetry_equiv_pos_site_id
 _symmetry_equiv_pos_as_xyz
  1  'x, y, z'
loop_
 _atom_site_type_symbol
 _atom_site_label
 _atom_site_symmetry_multiplicity
 _atom_site_fract_x
 _atom_site_fract_y
 _atom_site_fract_z
 _atom_site_occupancy
  Nb  Nb0_0  1  0.00000000  0.00000000  0.00000000  1
  Nb  Nb0_1  1  0.00000000  0.00000000  0.50000000  1
  Nb  Nb0_2  1  0.00000000  0.50000000  0.00000000  1
  Nb  Nb0_3  1  0.00000000  0.50000000  0.50000000  1
  Nb  Nb0_4  1  0.50000000  0.00000000  0.00000000  1
  Nb  Nb0_5  1  0.50000000  0.00000000  0.50000000  1
  Nb  Nb0_6  1  0.50000000  0.50000000  0.00000000  1
  Nb  Nb0_7  1  0.50000000  0.50000000  0.50000000  1
  Nb  Nb1_0  1  0.17942400  0.17942400  0.49829250  1
  Nb  Nb1_1  1  0.17942400  0.17942400  0.99829250  1
  Nb  Nb1_2  1  0.17942400  0.67942400  0.49829250  1
  Nb  Nb1_3  1  0.17942400  0.67942400  0.99829250  1
  Nb  Nb1_4  1  0.67942400  0.17942400  0.49829250  1
  Nb  Nb1_5  1  0.67942400  0.17942400  0.99829250  1
  Nb  Nb1_6  1  0.67942400  0.67942400  0.49829250  1
  Nb  Nb1_7  1  0.67942400  0.67942400  0.99829250  1
  Nb  Nb2_0  1  0.32057600  0.32057600  0.00170750  1
  Nb  Nb2_1  1  0.32057600  0.32057600  0.50170750  1
  Nb  Nb2_2  1  0.32057600  0.82057600  0.00170750  1
  Nb  Nb2_3  1  0.32057600  0.82057600  0.50170750  1
  Nb  Nb2_4  1  0.82057600  0.32057600  0.00170750  1
  Nb  Nb2_5  1  0.82057600  0.32057600  0.50170750  1
  Nb  Nb2_6  1  0.82057600  0.82057600  0.00170750  1
  Nb  Nb2_7  1  0.82057600  0.82057600  0.50170750  1
  Nb  Nb3_0  1  0.14457200  0.14457200  0.18387650  1
  Nb  Nb3_1  1  0.14457200  0.14457200  0.68387650  1
  Nb  Nb3_2  1  0.14457200  0.64457200  0.18387650  1
  Nb  Nb3_3  1  0.14457200  0.64457200  0.68387650  1
  Nb  Nb3_4  1  0.64457200  0.14457200  0.18387650  1
  Nb  Nb3_5  1  0.64457200  0.14457200  0.68387650  1
  Nb  Nb3_6  1  0.64457200  0.64457200  0.18387650  1
  Nb  Nb3_7  1  0.64457200  0.64457200  0.68387650  1
  Nb  Nb4_0  1  0.35542800  0.35542800  0.31612350  1
  Nb  Nb4_1  1  0.35542800  0.35542800  0.81612350  1
  Nb  Nb4_2  1  0.35542800  0.85542800  0.31612350  1
  Nb  Nb4_3  1  0.35542800  0.85542800  0.81612350  1
  Nb  Nb4_4  1  0.85542800  0.35542800  0.31612350  1
  Nb  Nb4_5  1  0.85542800  0.35542800  0.81612350  1
  Nb  Nb4_6  1  0.85542800  0.85542800  0.31612350  1
  Nb  Nb4_7  1  0.85542800  0.85542800  0.81612350  1
  Pb  Pb0_0  1  0.25000000  0.25000000  0.25000000  1
  Pb  Pb0_1  1  0.25000000  0.25000000  0.75000000  1
  Pb  Pb0_2  1  0.25000000  0.75000000  0.25000000  1
  Pb  Pb0_3  1  0.25000000  0.75000000  0.75000000  1
  Pb  Pb0_4  1  0.75000000  0.25000000  0.25000000  1
  Pb  Pb0_5  1  0.75000000  0.25000000  0.75000000  1
  Pb  Pb0_6  1  0.75000000  0.75000000  0.25000000  1
  Pb  Pb0_7  1  0.75000000  0.75000000  0.75000000  1
  Se  Se0_0  1  0.28493650  0.28493650  0.40071450  1
  Se  Se0_1  1  0.28493650  0.28493650  0.90071450  1
  Se  Se0_2  1  0.28493650  0.78493650  0.40071450  1
  Se  Se0_3  1  0.28493650  0.78493650  0.90071450  1
  Se  Se0_4  1  0.78493650  0.28493650  0.40071450  1
  Se  Se0_5  1  0.78493650  0.28493650  0.90071450  1
  Se  Se0_6  1  0.78493650  0.78493650  0.40071450  1
  Se  Se0_7  1  0.78493650  0.78493650  0.90071450  1
  Se  Se1_0  1  0.21506350  0.21506350  0.09928550  1
  Se  Se1_1  1  0.21506350  0.21506350  0.59928550  1
  Se  Se1_2  1  0.21506350  0.71506350  0.09928550  1
  Se  Se1_3  1  0.21506350  0.71506350  0.59928550  1
  Se  Se1_4  1  0.71506350  0.21506350  0.09928550  1
  Se  Se1_5  1  0.71506350  0.21506350  0.59928550  1
  Se  Se1_6  1  0.71506350  0.71506350  0.09928550  1
  Se  Se1_7  1  0.71506350  0.71506350  0.59928550  1
  Se  Se2_0  1  0.04235550  0.04235550  0.09631700  1
  Se  Se2_1  1  0.04235550  0.04235550  0.59631700  1
  Se  Se2_2  1  0.04235550  0.54235550  0.09631700  1
  Se  Se2_3  1  0.04235550  0.54235550  0.59631700  1
  Se  Se2_4  1  0.54235550  0.04235550  0.09631700  1
  Se  Se2_5  1  0.54235550  0.04235550  0.59631700  1
  Se  Se2_6  1  0.54235550  0.54235550  0.09631700  1
  Se  Se2_7  1  0.54235550  0.54235550  0.59631700  1
  Se  Se3_0  1  0.45764450  0.45764450  0.40368300  1
  Se  Se3_1  1  0.45764450  0.45764450  0.90368300  1
  Se  Se3_2  1  0.45764450  0.95764450  0.40368300  1
  Se  Se3_3  1  0.45764450  0.95764450  0.90368300  1
  Se  Se3_4  1  0.95764450  0.45764450  0.40368300  1
  Se  Se3_5  1  0.95764450  0.45764450  0.90368300  1
  Se  Se3_6  1  0.95764450  0.95764450  0.40368300  1
  Se  Se3_7  1  0.95764450  0.95764450  0.90368300  1
  Se  Se4_0  1  0.07498650  0.07498650  0.24568850  1
  Se  Se4_1  1  0.07498650  0.07498650  0.74568850  1
  Se  Se4_2  1  0.07498650  0.57498650  0.24568850  1
  Se  Se4_3  1  0.07498650  0.57498650  0.74568850  1
  Se  Se4_4  1  0.57498650  0.07498650  0.24568850  1
  Se  Se4_5  1  0.57498650  0.07498650  0.74568850  1
  Se  Se4_6  1  0.57498650  0.57498650  0.24568850  1
  Se  Se4_7  1  0.57498650  0.57498650  0.74568850  1
  Se  Se5_0  1  0.42501350  0.42501350  0.25431150  1
  Se  Se5_1  1  0.42501350  0.42501350  0.75431150  1
  Se  Se5_2  1  0.42501350  0.92501350  0.25431150  1
  Se  Se5_3  1  0.42501350  0.92501350  0.75431150  1
  Se  Se5_4  1  0.92501350  0.42501350  0.25431150  1
  Se  Se5_5  1  0.92501350  0.42501350  0.75431150  1
  Se  Se5_6  1  0.92501350  0.92501350  0.25431150  1
  Se  Se5_7  1  0.92501350  0.92501350  0.75431150  1
  Se  Se6_0  1  0.11971400  0.11971400  0.41964050  1
  Se  Se6_1  1  0.11971400  0.11971400  0.91964050  1
  Se  Se6_2  1  0.11971400  0.61971400  0.41964050  1
  Se  Se6_3  1  0.11971400  0.61971400  0.91964050  1
  Se  Se6_4  1  0.61971400  0.11971400  0.41964050  1
  Se  Se6_5  1  0.61971400  0.11971400  0.91964050  1
  Se  Se6_6  1  0.61971400  0.61971400  0.41964050  1
  Se  Se6_7  1  0.61971400  0.61971400  0.91964050  1
  Se  Se7_0  1  0.38028600  0.38028600  0.08035950  1
  Se  Se7_1  1  0.38028600  0.38028600  0.58035950  1
  Se  Se7_2  1  0.38028600  0.88028600  0.08035950  1
  Se  Se7_3  1  0.38028600  0.88028600  0.58035950  1
  Se  Se7_4  1  0.88028600  0.38028600  0.08035950  1
  Se  Se7_5  1  0.88028600  0.38028600  0.58035950  1
  Se  Se7_6  1  0.88028600  0.88028600  0.08035950  1
  Se  Se7_7  1  0.88028600  0.88028600  0.58035950  1
loop_
_geom_bond_atom_site_label_1
_geom_bond_atom_site_label_2
_geom_bond_distance
_geom_bond_site_symmetry_2
Nb0_0 Se3_7 2.658706 1_444
Nb0_0 Se2_0 2.658706 1_555
Nb0_0 Se0_5 2.673666 1_454
Nb0_0 Se0_3 2.673666 1_544
Nb0_0 Se1_2 2.673666 1_545
Nb0_0 Se1_4 2.673666 1_455
Nb0_1 Se3_6 2.658706 1_445
Nb0_1 Se2_1 2.658706 1_555
Nb0_1 Se0_4 2.673666 1_455
Nb0_1 Se1_5 2.673666 1_455
Nb0_1 Se1_3 2.673666 1_545
Nb0_1 Se0_2 2.673666 1_545
Nb0_2 Se2_2 2.658706 1_555
Nb0_2 Se3_5 2.658706 1_454
Nb0_2 Se0_1 2.673666 1_554
Nb0_2 Se0_7 2.673666 1_454
Nb0_2 Se1_6 2.673666 1_455
Nb0_2 Se1_0 2.673666 1_555
Nb0_3 Se2_3 2.658706 1_555
Nb0_3 Se3_4 2.658706 1_455
Nb0_3 Se0_6 2.673666 1_455
Nb0_3 Se0_0 2.673666 1_555
Nb0_3 Se1_7 2.673666 1_455
Nb0_3 Se1_1 2.673666 1_555
Nb0_4 Se3_3 2.658706 1_544
Nb0_4 Se2_4 2.658706 1_555
Nb0_4 Se0_1 2.673666 1_554
Nb0_4 Se0_7 2.673666 1_544
Nb0_4 Se1_6 2.673666 1_545
Nb0_4 Se1_0 2.673666 1_555
Nb0_5 Se2_5 2.658706 1_555
Nb0_5 Se3_2 2.658706 1_545
Nb0_5 Se0_6 2.673666 1_545
Nb0_5 Se1_7 2.673666 1_545
Nb0_5 Se0_0 2.673666 1_555
Nb0_5 Se1_1 2.673666 1_555
Nb0_6 Se3_1 2.658706 1_554
Nb0_6 Se2_6 2.658706 1_555
Nb0_6 Se0_5 2.673666 1_554
Nb0_6 Se0_3 2.673666 1_554
Nb0_6 Se1_4 2.673666 1_555
Nb0_6 Se1_2 2.673666 1_555
Nb0_7 Se2_7 2.658706 1_555
Nb0_7 Se3_0 2.658706 1_555
Nb0_7 Se0_4 2.673666 1_555
Nb0_7 Se0_2 2.673666 1_555
Nb0_7 Se1_3 2.673666 1_555
Nb0_7 Se1_5 2.673666 1_555
Nb1_0 Se3_2 2.549421 1_545
Nb1_0 Se3_4 2.549421 1_455
Nb1_0 Se1_1 2.554519 1_555
Nb1_0 Se7_5 2.737311 1_455
Nb1_0 Se7_3 2.737311 1_545
Nb1_0 Se6_0 2.931482 1_555
Nb1_1 Se3_5 2.549421 1_455
Nb1_1 Se3_3 2.549421 1_545
Nb1_1 Se1_0 2.554519 1_556
Nb1_1 Se7_4 2.737311 1_456
Nb1_1 Se7_2 2.737311 1_546
Nb1_1 Se6_1 2.931482 1_555
Nb1_2 Se3_0 2.549421 1_555
Nb1_2 Se3_6 2.549421 1_455
Nb1_2 Se1_3 2.554519 1_555
Nb1_2 Se7_7 2.737311 1_455
Nb1_2 Se7_1 2.737311 1_555
Nb1_2 Se6_2 2.931482 1_555
Nb1_3 Se3_1 2.549421 1_555
Nb1_3 Se3_7 2.549421 1_455
Nb1_3 Se1_2 2.554519 1_556
Nb1_3 Se7_0 2.737311 1_556
Nb1_3 Se7_6 2.737311 1_456
Nb1_3 Se6_3 2.931482 1_555
Nb1_4 Se3_0 2.549421 1_555
Nb1_4 Se3_6 2.549421 1_545
Nb1_4 Se1_5 2.554519 1_555
Nb1_4 Se7_7 2.737311 1_545
Nb1_4 Se7_1 2.737311 1_555
Nb1_4 Se6_4 2.931482 1_555
Nb1_5 Se3_1 2.549421 1_555
Nb1_5 Se3_7 2.549421 1_545
Nb1_5 Se1_4 2.554519 1_556
Nb1_5 Se7_0 2.737311 1_556
Nb1_5 Se7_6 2.737311 1_546
Nb1_5 Se6_5 2.931482 1_555
Nb1_6 Se3_4 2.549421 1_555
Nb1_6 Se3_2 2.549421 1_555
Nb1_6 Se1_7 2.554519 1_555
Nb1_6 Se7_3 2.737311 1_555
Nb1_6 Se7_5 2.737311 1_555
Nb1_6 Se6_6 2.931482 1_555
Nb1_7 Se3_5 2.549421 1_555
Nb1_7 Se3_3 2.549421 1_555
Nb1_7 Se1_6 2.554519 1_556
Nb1_7 Se7_4 2.737311 1_556
Nb1_7 Se7_2 2.737311 1_556
Nb1_7 Se6_7 2.931482 1_555
Nb2_0 Se2_4 2.549421 1_555
Nb2_0 Se2_2 2.549421 1_555
Nb2_0 Se0_1 2.554519 1_554
Nb2_0 Se6_5 2.737311 1_554
Nb2_0 Se6_3 2.737311 1_554
Nb2_0 Se7_0 2.931482 1_555
Nb2_1 Se2_3 2.549421 1_555
Nb2_1 Se2_5 2.549421 1_555
Nb2_1 Se0_0 2.554519 1_555
Nb2_1 Se6_4 2.737311 1_555
Nb2_1 Se6_2 2.737311 1_555
Nb2_1 Se7_1 2.931482 1_555
Nb2_2 Se2_6 2.549421 1_555
Nb2_2 Se2_0 2.549421 1_565
Nb2_2 Se0_3 2.554519 1_554
Nb2_2 Se6_7 2.737311 1_554
Nb2_2 Se6_1 2.737311 1_564
Nb2_2 Se7_2 2.931482 1_555
Nb2_3 Se2_7 2.549421 1_555
Nb2_3 Se2_1 2.549421 1_565
Nb2_3 Se0_2 2.554519 1_555
Nb2_3 Se6_6 2.737311 1_555
Nb2_3 Se6_0 2.737311 1_565
Nb2_3 Se7_3 2.931482 1_555
Nb2_4 Se2_6 2.549421 1_555
Nb2_4 Se2_0 2.549421 1_655
Nb2_4 Se0_5 2.554519 1_554
Nb2_4 Se6_7 2.737311 1_554
Nb2_4 Se6_1 2.737311 1_654
Nb2_4 Se7_4 2.931482 1_555
Nb2_5 Se2_7 2.549421 1_555
Nb2_5 Se2_1 2.549421 1_655
Nb2_5 Se0_4 2.554519 1_555
Nb2_5 Se6_0 2.737311 1_655
Nb2_5 Se6_6 2.737311 1_555
Nb2_5 Se7_5 2.931482 1_555
Nb2_6 Se2_2 2.549421 1_655
Nb2_6 Se2_4 2.549421 1_565
Nb2_6 Se0_7 2.554519 1_554
Nb2_6 Se6_5 2.737311 1_564
Nb2_6 Se6_3 2.737311 1_654
Nb2_6 Se7_6 2.931482 1_555
Nb2_7 Se2_5 2.549421 1_565
Nb2_7 Se2_3 2.549421 1_655
Nb2_7 Se0_6 2.554519 1_555
Nb2_7 Se6_4 2.737311 1_565
Nb2_7 Se6_2 2.737311 1_655
Nb2_7 Se7_7 2.931482 1_555
Nb3_0 Se4_0 2.573624 1_555
Nb3_0 Se5_4 2.607110 1_455
Nb3_0 Se5_2 2.607110 1_545
Nb3_0 Se1_0 2.730161 1_555
Nb3_0 Se7_4 2.764630 1_455
Nb3_0 Se7_2 2.764630 1_545
Nb3_1 Se4_1 2.573624 1_555
Nb3_1 Se5_3 2.607110 1_545
Nb3_1 Se5_5 2.607110 1_455
Nb3_1 Se1_1 2.730161 1_555
Nb3_1 Se7_5 2.764630 1_455
Nb3_1 Se7_3 2.764630 1_545
Nb3_2 Se4_2 2.573624 1_555
Nb3_2 Se5_0 2.607110 1_555
Nb3_2 Se5_6 2.607110 1_455
Nb3_2 Se1_2 2.730161 1_555
Nb3_2 Se7_0 2.764630 1_555
Nb3_2 Se7_6 2.764630 1_455
Nb3_3 Se4_3 2.573624 1_555
Nb3_3 Se5_7 2.607110 1_455
Nb3_3 Se5_1 2.607110 1_555
Nb3_3 Se1_3 2.730161 1_555
Nb3_3 Se7_7 2.764630 1_455
Nb3_3 Se7_1 2.764630 1_555
Nb3_4 Se4_4 2.573624 1_555
Nb3_4 Se5_0 2.607110 1_555
Nb3_4 Se5_6 2.607110 1_545
Nb3_4 Se1_4 2.730161 1_555
Nb3_4 Se7_0 2.764630 1_555
Nb3_4 Se7_6 2.764630 1_545
Nb3_5 Se4_5 2.573624 1_555
Nb3_5 Se5_1 2.607110 1_555
Nb3_5 Se5_7 2.607110 1_545
Nb3_5 Se1_5 2.730161 1_555
Nb3_5 Se7_7 2.764630 1_545
Nb3_5 Se7_1 2.764630 1_555
Nb3_6 Se4_6 2.573624 1_555
Nb3_6 Se5_4 2.607110 1_555
Nb3_6 Se5_2 2.607110 1_555
Nb3_6 Se1_6 2.730161 1_555
Nb3_6 Se7_4 2.764630 1_555
Nb3_6 Se7_2 2.764630 1_555
Nb3_7 Se4_7 2.573624 1_555
Nb3_7 Se5_3 2.607110 1_555
Nb3_7 Se5_5 2.607110 1_555
Nb3_7 Se1_7 2.730161 1_555
Nb3_7 Se7_3 2.764630 1_555
Nb3_7 Se7_5 2.764630 1_555
Nb4_0 Se5_0 2.573624 1_555
Nb4_0 Se4_2 2.607110 1_555
Nb4_0 Se4_4 2.607110 1_555
Nb4_0 Se0_0 2.730161 1_555
Nb4_0 Se6_4 2.764630 1_555
Nb4_0 Se6_2 2.764630 1_555
Nb4_1 Se5_1 2.573624 1_555
Nb4_1 Se4_5 2.607110 1_555
Nb4_1 Se4_3 2.607110 1_555
Nb4_1 Se0_1 2.730161 1_555
Nb4_1 Se6_5 2.764630 1_555
Nb4_1 Se6_3 2.764630 1_555
Nb4_2 Se5_2 2.573624 1_555
Nb4_2 Se4_6 2.607110 1_555
Nb4_2 Se4_0 2.607110 1_565
Nb4_2 Se0_2 2.730161 1_555
Nb4_2 Se6_0 2.764630 1_565
Nb4_2 Se6_6 2.764630 1_555
Nb4_3 Se5_3 2.573624 1_555
Nb4_3 Se4_7 2.607110 1_555
Nb4_3 Se4_1 2.607110 1_565
Nb4_3 Se0_3 2.730161 1_555
Nb4_3 Se6_7 2.764630 1_555
Nb4_3 Se6_1 2.764630 1_565
Nb4_4 Se5_4 2.573624 1_555
Nb4_4 Se4_6 2.607110 1_555
Nb4_4 Se4_0 2.607110 1_655
Nb4_4 Se0_4 2.730161 1_555
Nb4_4 Se6_0 2.764630 1_655
Nb4_4 Se6_6 2.764630 1_555
Nb4_5 Se5_5 2.573624 1_555
Nb4_5 Se4_7 2.607110 1_555
Nb4_5 Se4_1 2.607110 1_655
Nb4_5 Se0_5 2.730161 1_555
Nb4_5 Se6_7 2.764630 1_555
Nb4_5 Se6_1 2.764630 1_655
Nb4_6 Se5_6 2.573624 1_555
Nb4_6 Se4_2 2.607110 1_655
Nb4_6 Se4_4 2.607110 1_565
Nb4_6 Se0_6 2.730161 1_555
Nb4_6 Se6_4 2.764630 1_565
Nb4_6 Se6_2 2.764630 1_655
Nb4_7 Se5_7 2.573624 1_555
Nb4_7 Se4_5 2.607110 1_565
Nb4_7 Se4_3 2.607110 1_655
Nb4_7 Se0_7 2.730161 1_555
Nb4_7 Se6_5 2.764630 1_565
Nb4_7 Se6_3 2.764630 1_655
Pb0_0 Se4_4 3.268941 1_555
Pb0_0 Se5_2 3.268941 1_545
Pb0_0 Se5_4 3.268941 1_455
Pb0_0 Se4_2 3.268941 1_555
Pb0_0 Se0_0 3.383501 1_555
Pb0_0 Se1_0 3.383501 1_555
Pb0_0 Se2_2 3.444307 1_555
Pb0_0 Se2_4 3.444307 1_555
Pb0_0 Se3_2 3.444307 1_545
Pb0_0 Se3_4 3.444307 1_455
Pb0_0 Pb0_6 3.506376 1_545
Pb0_0 Pb0_6 3.506376 1_455
Pb0_1 Se4_5 3.268941 1_555
Pb0_1 Se4_3 3.268941 1_555
Pb0_1 Se5_5 3.268941 1_455
Pb0_1 Se5_3 3.268941 1_545
Pb0_1 Se0_1 3.383501 1_555
Pb0_1 Se1_1 3.383501 1_555
Pb0_1 Se3_3 3.444307 1_545
Pb0_1 Se3_5 3.444307 1_455
Pb0_1 Se2_5 3.444307 1_555
Pb0_1 Se2_3 3.444307 1_555
Pb0_1 Pb0_7 3.506376 1_455
Pb0_1 Pb0_7 3.506376 1_545
Pb0_2 Se5_0 3.268941 1_555
Pb0_2 Se5_6 3.268941 1_455
Pb0_2 Se4_0 3.268941 1_565
Pb0_2 Se4_6 3.268941 1_555
Pb0_2 Se1_2 3.383501 1_555
Pb0_2 Se0_2 3.383501 1_555
Pb0_2 Se2_6 3.444307 1_555
Pb0_2 Se2_0 3.444307 1_565
Pb0_2 Se3_6 3.444307 1_455
Pb0_2 Se3_0 3.444307 1_555
Pb0_2 Pb0_4 3.506376 1_555
Pb0_2 Pb0_4 3.506376 1_465
Pb0_3 Se4_1 3.268941 1_565
Pb0_3 Se4_7 3.268941 1_555
Pb0_3 Se5_1 3.268941 1_555
Pb0_3 Se5_7 3.268941 1_455
Pb0_3 Se0_3 3.383501 1_555
Pb0_3 Se1_3 3.383501 1_555
Pb0_3 Se3_1 3.444307 1_555
Pb0_3 Se3_7 3.444307 1_455
Pb0_3 Se2_1 3.444307 1_565
Pb0_3 Se2_7 3.444307 1_555
Pb0_3 Pb0_5 3.506376 1_555
Pb0_3 Pb0_5 3.506376 1_465
Pb0_4 Se5_0 3.268941 1_555
Pb0_4 Se5_6 3.268941 1_545
Pb0_4 Se4_0 3.268941 1_655
Pb0_4 Se4_6 3.268941 1_555
Pb0_4 Se1_4 3.383501 1_555
Pb0_4 Se0_4 3.383501 1_555
Pb0_4 Se2_6 3.444307 1_555
Pb0_4 Se2_0 3.444307 1_655
Pb0_4 Se3_0 3.444307 1_555
Pb0_4 Se3_6 3.444307 1_545
Pb0_5 Se4_1 3.268941 1_655
Pb0_5 Se4_7 3.268941 1_555
Pb0_5 Se5_1 3.268941 1_555
Pb0_5 Se5_7 3.268941 1_545
Pb0_5 Se0_5 3.383501 1_555
Pb0_5 Se1_5 3.383501 1_555
Pb0_5 Se3_1 3.444307 1_555
Pb0_5 Se3_7 3.444307 1_545
Pb0_5 Se2_1 3.444307 1_655
Pb0_5 Se2_7 3.444307 1_555
Pb0_6 Se5_2 3.268941 1_555
Pb0_6 Se5_4 3.268941 1_555
Pb0_6 Se4_4 3.268941 1_565
Pb0_6 Se4_2 3.268941 1_655
Pb0_6 Se1_6 3.383501 1_555
Pb0_6 Se0_6 3.383501 1_555
Pb0_6 Se2_2 3.444307 1_655
Pb0_6 Se2_4 3.444307 1_565
Pb0_6 Se3_2 3.444307 1_555
Pb0_6 Se3_4 3.444307 1_555
Pb0_7 Se4_3 3.268941 1_655
Pb0_7 Se4_5 3.268941 1_565
Pb0_7 Se5_3 3.268941 1_555
Pb0_7 Se5_5 3.268941 1_555
Pb0_7 Se0_7 3.383501 1_555
Pb0_7 Se1_7 3.383501 1_555
Pb0_7 Se3_3 3.444307 1_555
Pb0_7 Se2_5 3.444307 1_565
Pb0_7 Se2_3 3.444307 1_655
Pb0_7 Se3_5 3.444307 1_555
