# generated using pymatgen
data_KB5O12
_symmetry_space_group_name_H-M   'P 1'
_cell_length_a   7.21278179
_cell_length_b   7.21278179
_cell_length_c   10.83384400
_cell_angle_alpha   90.00000000
_cell_angle_beta   90.00000000
_cell_angle_gamma   91.62359356
_symmetry_Int_Tables_number   1
_chemical_formula_structural   KB5O12
_chemical_formula_sum   'K2 B10 O24'
_cell_volume   563.39602072
_cell_formula_units_Z   2
loop_
 _symmetry_equiv_pos_site_id
 _symmetry_equiv_pos_as_xyz
  1  'x, y, z'
loop_
 _atom_site_type_symbol
 _atom_site_label
 _atom_site_symmetry_multiplicity
 _atom_site_fract_x
 _atom_site_fract_y
 _atom_site_fract_z
 _atom_site_occupancy
  K  K0  1  0.53948700  0.53948700  0.50000000  1
  K  K1  1  0.03948700  0.03948700  0.00000000  1
  B  B0  1  0.89598800  0.89598800  0.50000000  1
  B  B1  1  0.39598800  0.39598800  0.00000000  1
  B  B2  1  0.90750700  0.73990500  0.69948300  1
  B  B3  1  0.73990500  0.90750700  0.30051700  1
  B  B4  1  0.40750700  0.23990500  0.80051700  1
  B  B5  1  0.23990500  0.40750700  0.19948300  1
  B  B6  1  0.92145900  0.06743500  0.69979100  1
  B  B7  1  0.06743500  0.92145900  0.30020900  1
  B  B8  1  0.42145900  0.56743500  0.80020900  1
  B  B9  1  0.56743500  0.42145900  0.19979100  1
  O  O0  1  0.88699100  0.72190100  0.57811600  1
  O  O1  1  0.72190100  0.88699100  0.42188400  1
  O  O2  1  0.38699100  0.22190100  0.92188400  1
  O  O3  1  0.22190100  0.38699100  0.07811600  1
  O  O4  1  0.89248000  0.06290900  0.57584800  1
  O  O5  1  0.06290900  0.89248000  0.42415200  1
  O  O6  1  0.39248000  0.56290900  0.92415200  1
  O  O7  1  0.56290900  0.39248000  0.07584800  1
  O  O8  1  0.44451500  0.71861800  0.72809700  1
  O  O9  1  0.71861800  0.44451500  0.27190300  1
  O  O10  1  0.94451500  0.21861800  0.77190300  1
  O  O11  1  0.21861800  0.94451500  0.22809700  1
  O  O12  1  0.93032100  0.89588400  0.76766700  1
  O  O13  1  0.89588400  0.93032100  0.23233300  1
  O  O14  1  0.43032100  0.39588400  0.73233300  1
  O  O15  1  0.39588400  0.43032100  0.26766700  1
  O  O16  1  0.90622200  0.56109300  0.76883200  1
  O  O17  1  0.56109300  0.90622200  0.23116800  1
  O  O18  1  0.40622200  0.06109300  0.73116800  1
  O  O19  1  0.06109300  0.40622200  0.26883200  1
  O  O20  1  0.41493700  0.07564900  0.61146600  1
  O  O21  1  0.07564900  0.41493700  0.38853400  1
  O  O22  1  0.91493700  0.57564900  0.88853400  1
  O  O23  1  0.57564900  0.91493700  0.11146600  1
loop_
_geom_bond_atom_site_label_1
_geom_bond_atom_site_label_2
_geom_bond_distance
_geom_bond_site_symmetry_2
K0 O14 2.825277 1_555
K0 O15 2.825277 1_555
K0 O9 2.880176 1_555
K0 O8 2.880176 1_555
K0 O0 2.922813 1_555
K0 O1 2.922813 1_555
K1 O12 2.825277 1_444
K1 O13 2.825277 1_445
K1 O11 2.880176 1_545
K1 O10 2.880176 1_454
K1 O3 2.922813 1_555
K1 O2 2.922813 1_554
B0 O4 1.458468 1_565
B0 O5 1.458468 1_655
B0 O0 1.514091 1_555
B0 O1 1.514091 1_555
B1 O7 1.458468 1_555
B1 O6 1.458468 1_554
B1 O2 1.514091 1_554
B1 O3 1.514091 1_555
B2 O0 1.329119 1_555
B2 O12 1.352027 1_555
B2 O16 1.492412 1_555
B3 O1 1.329119 1_555
B3 O13 1.352027 1_555
B3 O17 1.492412 1_555
B4 O2 1.329119 1_555
B4 O14 1.352027 1_555
B4 O18 1.492412 1_555
B5 O3 1.329119 1_555
B5 O15 1.352027 1_555
B5 O19 1.492412 1_555
B6 O10 1.347892 1_555
B6 O4 1.359200 1_555
B6 O12 1.442352 1_545
B7 O11 1.347892 1_555
B7 O5 1.359200 1_555
B7 O13 1.442352 1_455
B8 O8 1.347892 1_555
B8 O6 1.359200 1_555
B8 O14 1.442352 1_555
B9 O9 1.347892 1_555
B9 O7 1.359200 1_555
B9 O15 1.442352 1_555
O16 O22 1.302450 1_555
O17 O23 1.302450 1_555
O18 O20 1.302450 1_555
O19 O21 1.302450 1_555
