# generated using pymatgen
data_Te4Mo3W(SeS)2
_symmetry_space_group_name_H-M   'P 1'
_cell_length_a   3.39843025
_cell_length_b   3.39843025
_cell_length_c   38.61682700
_cell_angle_alpha   90.00000000
_cell_angle_beta   90.00000000
_cell_angle_gamma   120.00000484
_symmetry_Int_Tables_number   1
_chemical_formula_structural   Te4Mo3W(SeS)2
_chemical_formula_sum   'Te4 Mo3 W1 Se2 S2'
_cell_volume   386.24593194
_cell_formula_units_Z   1
loop_
 _symmetry_equiv_pos_site_id
 _symmetry_equiv_pos_as_xyz
  1  'x, y, z'
loop_
 _atom_site_type_symbol
 _atom_site_label
 _atom_site_symmetry_multiplicity
 _atom_site_fract_x
 _atom_site_fract_y
 _atom_site_fract_z
 _atom_site_occupancy
  Te  Te0  1  0.66666700  0.33333300  0.04547800  1
  Te  Te1  1  0.66666700  0.33333300  0.42112700  1
  Te  Te2  1  0.66666700  0.33333300  0.14244100  1
  Te  Te3  1  0.66666700  0.33333300  0.51815700  1
  Mo  Mo0  1  0.33333300  0.66666700  0.09390700  1
  Mo  Mo1  1  0.33333300  0.66666700  0.46963000  1
  Mo  Mo2  1  0.66666700  0.33333300  0.28178900  1
  W  W0  1  0.66666700  0.33333300  0.65754000  1
  Se  Se0  1  0.33333300  0.66666700  0.70033600  1
  Se  Se1  1  0.33333300  0.66666700  0.61475800  1
  S  S0  1  0.33333300  0.66666700  0.32070300  1
  S  S1  1  0.33333300  0.66666700  0.24288200  1
loop_
_geom_bond_atom_site_label_1
_geom_bond_atom_site_label_2
_geom_bond_distance
_geom_bond_site_symmetry_2
Mo0 Te0 2.710594 1_455
Mo0 Te0 2.710594 1_565
Mo0 Te0 2.710598 1_555
Mo0 Te2 2.713393 1_455
Mo0 Te2 2.713393 1_565
Mo0 Te2 2.713398 1_555
Mo1 Te1 2.712566 1_565
Mo1 Te1 2.712566 1_455
Mo1 Te1 2.712571 1_555
Mo1 Te3 2.713206 1_455
Mo1 Te3 2.713206 1_565
Mo1 Te3 2.713211 1_555
Mo2 S1 2.471269 1_545
Mo2 S1 2.471269 1_655
Mo2 S1 2.471273 1_555
Mo2 S0 2.471433 1_545
Mo2 S0 2.471433 1_655
Mo2 S0 2.471438 1_555
Se0 W0 2.565347 1_455
Se0 W0 2.565347 1_565
Se0 W0 2.565352 1_555
Se1 W0 2.564999 1_455
Se1 W0 2.564999 1_565
Se1 W0 2.565003 1_555
