# generated using pymatgen
data_YFe3(BO3)4
_symmetry_space_group_name_H-M   'P 1'
_cell_length_a   9.61627077
_cell_length_b   9.61627077
_cell_length_c   7.65740300
_cell_angle_alpha   90.00000000
_cell_angle_beta   90.00000000
_cell_angle_gamma   120.00000530
_symmetry_Int_Tables_number   1
_chemical_formula_structural   YFe3(BO3)4
_chemical_formula_sum   'Y3 Fe9 B12 O36'
_cell_volume   613.23294641
_cell_formula_units_Z   3
loop_
 _symmetry_equiv_pos_site_id
 _symmetry_equiv_pos_as_xyz
  1  'x, y, z'
loop_
 _atom_site_type_symbol
 _atom_site_label
 _atom_site_symmetry_multiplicity
 _atom_site_fract_x
 _atom_site_fract_y
 _atom_site_fract_z
 _atom_site_occupancy
  Y  Y0  1  0.66435300  0.00000000  0.33333300  1
  Y  Y1  1  0.00000000  0.66435300  0.66666700  1
  Y  Y2  1  0.33564700  0.33564700  0.00000000  1
  Fe  Fe0  1  0.11544400  0.00000000  0.33333300  1
  Fe  Fe1  1  0.00000000  0.11544400  0.66666700  1
  Fe  Fe2  1  0.88455600  0.88455600  0.00000000  1
  Fe  Fe3  1  0.54860600  0.21173700  0.65495300  1
  Fe  Fe4  1  0.78826300  0.33686800  0.98828600  1
  Fe  Fe5  1  0.21173700  0.54860600  0.34504700  1
  Fe  Fe6  1  0.66313200  0.45139400  0.32161900  1
  Fe  Fe7  1  0.33686800  0.78826300  0.01171400  1
  Fe  Fe8  1  0.45139400  0.66313200  0.67838100  1
  B  B0  1  0.22152700  0.00000000  0.83333300  1
  B  B1  1  0.00000000  0.22152700  0.16666700  1
  B  B2  1  0.77847300  0.77847300  0.50000000  1
  B  B3  1  0.66764700  0.00000000  0.83333300  1
  B  B4  1  0.00000000  0.66764700  0.16666700  1
  B  B5  1  0.33235300  0.33235300  0.50000000  1
  B  B6  1  0.12607700  0.44869800  0.84956100  1
  B  B7  1  0.55130200  0.67737900  0.18289400  1
  B  B8  1  0.44869800  0.12607700  0.15043900  1
  B  B9  1  0.32262100  0.87392300  0.51622800  1
  B  B10  1  0.67737900  0.55130200  0.81710600  1
  B  B11  1  0.87392300  0.32262100  0.48377200  1
  O  O0  1  0.36110300  0.14690300  0.81376400  1
  O  O1  1  0.85309700  0.21420000  0.14709800  1
  O  O2  1  0.14690300  0.36110300  0.18623600  1
  O  O3  1  0.78580000  0.63889700  0.48043100  1
  O  O4  1  0.21420000  0.85309700  0.85290200  1
  O  O5  1  0.63889700  0.78580000  0.51956900  1
  O  O6  1  0.27775000  0.58078500  0.87530200  1
  O  O7  1  0.41921500  0.69696500  0.20863600  1
  O  O8  1  0.58078500  0.27775000  0.12469800  1
  O  O9  1  0.30303500  0.72225000  0.54196900  1
  O  O10  1  0.69696500  0.41921500  0.79136400  1
  O  O11  1  0.72225000  0.30303500  0.45803100  1
  O  O12  1  0.47366800  0.00653000  0.51940800  1
  O  O13  1  0.99347000  0.46713700  0.85274100  1
  O  O14  1  0.00653000  0.47366800  0.48059200  1
  O  O15  1  0.53286300  0.52633200  0.18607500  1
  O  O16  1  0.46713700  0.99347000  0.14725900  1
  O  O17  1  0.52633200  0.53286300  0.81392500  1
  O  O18  1  0.07777700  0.00000000  0.83333300  1
  O  O19  1  0.00000000  0.07777700  0.16666700  1
  O  O20  1  0.92222300  0.92222300  0.50000000  1
  O  O21  1  0.12344500  0.30532400  0.82286500  1
  O  O22  1  0.69467600  0.81812100  0.15619800  1
  O  O23  1  0.30532400  0.12344500  0.17713500  1
  O  O24  1  0.18187900  0.87655500  0.48953100  1
  O  O25  1  0.81812100  0.69467600  0.84380200  1
  O  O26  1  0.87655500  0.18187900  0.51046900  1
  O  O27  1  0.32987200  0.47470500  0.50945000  1
  O  O28  1  0.52529500  0.85516800  0.84278300  1
  O  O29  1  0.47470500  0.32987200  0.49055000  1
  O  O30  1  0.14483200  0.67012800  0.17611700  1
  O  O31  1  0.85516800  0.52529500  0.15721700  1
  O  O32  1  0.67012800  0.14483200  0.82388300  1
  O  O33  1  0.81144900  0.00000000  0.83333300  1
  O  O34  1  0.00000000  0.81144900  0.16666700  1
  O  O35  1  0.18855100  0.18855100  0.50000000  1
loop_
_geom_bond_atom_site_label_1
_geom_bond_atom_site_label_2
_geom_bond_distance
_geom_bond_site_symmetry_2
Fe0 O23 2.001564 1_555
Fe0 O24 2.001564 1_545
Fe0 O34 2.033679 1_545
Fe0 O35 2.033684 1_555
Fe0 O19 2.061763 1_555
Fe0 O20 2.061767 1_445
Fe1 O21 2.001564 1_555
Fe1 O26 2.001564 1_455
Fe1 O33 2.033679 1_455
Fe1 O35 2.033684 1_555
Fe1 O18 2.061763 1_555
Fe1 O20 2.061767 1_445
Fe2 O22 2.001564 1_555
Fe2 O25 2.001564 1_554
Fe2 O34 2.033684 1_655
Fe2 O33 2.033684 1_564
Fe2 O19 2.061767 1_665
Fe2 O18 2.061767 1_664
Fe3 O0 1.998624 1_555
Fe3 O12 2.017070 1_555
Fe3 O29 2.046389 1_555
Fe3 O32 2.050533 1_555
Fe3 O10 2.064149 1_555
Fe3 O11 2.089699 1_555
Fe4 O1 1.998622 1_556
Fe4 O13 2.017070 1_555
Fe4 O32 2.046389 1_555
Fe4 O31 2.050538 1_556
Fe4 O8 2.064155 1_556
Fe4 O10 2.089705 1_555
Fe5 O2 1.998624 1_555
Fe5 O14 2.017070 1_555
Fe5 O27 2.046389 1_555
Fe5 O30 2.050533 1_555
Fe5 O7 2.064149 1_555
Fe5 O9 2.089699 1_555
Fe6 O3 1.998628 1_555
Fe6 O15 2.017066 1_555
Fe6 O31 2.046384 1_555
Fe6 O29 2.050538 1_555
Fe6 O11 2.064147 1_555
Fe6 O8 2.089693 1_555
Fe7 O4 1.998622 1_554
Fe7 O16 2.017070 1_555
Fe7 O30 2.046389 1_555
Fe7 O28 2.050538 1_554
Fe7 O6 2.064155 1_554
Fe7 O7 2.089705 1_555
Fe8 O5 1.998628 1_555
Fe8 O17 2.017066 1_555
Fe8 O28 2.046384 1_555
Fe8 O27 2.050538 1_555
Fe8 O9 2.064147 1_555
Fe8 O6 2.089693 1_555
B0 O18 1.382339 1_555
B0 O0 1.386900 1_555
B0 O4 1.386900 1_545
B1 O19 1.382339 1_555
B1 O2 1.386900 1_555
B1 O1 1.386900 1_455
B2 O20 1.382339 1_555
B2 O3 1.386900 1_555
B2 O5 1.386900 1_555
B3 O33 1.382839 1_555
B3 O32 1.382864 1_555
B3 O28 1.382868 1_545
B4 O34 1.382839 1_555
B4 O30 1.382864 1_555
B4 O31 1.382868 1_455
B5 O35 1.382839 1_555
B5 O29 1.382874 1_555
B5 O27 1.382874 1_555
B6 O13 1.372676 1_455
B6 O21 1.381453 1_555
B6 O6 1.388137 1_555
B7 O15 1.372685 1_555
B7 O22 1.381452 1_555
B7 O7 1.388139 1_555
B8 O16 1.372676 1_545
B8 O23 1.381453 1_555
B8 O8 1.388137 1_555
B9 O12 1.372681 1_565
B9 O24 1.381454 1_555
B9 O9 1.388138 1_555
B10 O17 1.372685 1_555
B10 O25 1.381452 1_555
B10 O10 1.388139 1_555
B11 O14 1.372681 1_655
B11 O26 1.381454 1_555
B11 O11 1.388138 1_555
O0 Y2 2.414998 1_556
O1 Y0 2.414993 1_555
O2 Y2 2.414998 1_555
O3 Y1 2.414997 1_655
O4 Y1 2.414993 1_555
O5 Y0 2.414997 1_565
O12 Y0 2.347694 1_555
O13 Y1 2.347697 1_655
O14 Y1 2.347694 1_555
O15 Y2 2.347698 1_555
O16 Y0 2.347697 1_565
O17 Y2 2.347698 1_556
O21 Y2 2.343890 1_556
O22 Y0 2.343891 1_565
O23 Y2 2.343890 1_555
O24 Y1 2.343895 1_555
O25 Y1 2.343891 1_655
O26 Y0 2.343895 1_555
