# generated using pymatgen
data_Fe4OF6
_symmetry_space_group_name_H-M   'P 1'
_cell_length_a   5.17836936
_cell_length_b   7.13900568
_cell_length_c   7.20734726
_cell_angle_alpha   91.59163549
_cell_angle_beta   90.29356073
_cell_angle_gamma   89.79435402
_symmetry_Int_Tables_number   1
_chemical_formula_structural   Fe4OF6
_chemical_formula_sum   'Fe8 O2 F12'
_cell_volume   266.33627750
_cell_formula_units_Z   2
loop_
 _symmetry_equiv_pos_site_id
 _symmetry_equiv_pos_as_xyz
  1  'x, y, z'
loop_
 _atom_site_type_symbol
 _atom_site_label
 _atom_site_symmetry_multiplicity
 _atom_site_fract_x
 _atom_site_fract_y
 _atom_site_fract_z
 _atom_site_occupancy
  Fe  Fe0  1  0.44176599  0.50859093  0.74176047  1
  Fe  Fe1  1  0.94001859  0.74478801  0.51025186  1
  Fe  Fe2  1  0.96674423  0.74591778  0.02353440  1
  Fe  Fe3  1  0.46737143  0.02427167  0.74400071  1
  Fe  Fe4  1  0.53355850  0.97724280  0.25478066  1
  Fe  Fe5  1  0.06050396  0.25254770  0.48933151  1
  Fe  Fe6  1  0.03272534  0.25497489  0.97651051  1
  Fe  Fe7  1  0.56072271  0.49009935  0.25416574  1
  O  O0  1  0.25068265  0.25393961  0.75050721  1
  O  O1  1  0.75097900  0.74802603  0.25156338  1
  F  F0  1  0.88023333  0.28456788  0.23246540  1
  F  F1  1  0.38430459  0.23538561  0.29329057  1
  F  F2  1  0.11804923  0.71157937  0.76745718  1
  F  F3  1  0.61676747  0.76499280  0.70650073  1
  F  F4  1  0.75070965  0.03342090  0.95990513  1
  F  F5  1  0.75532431  0.05647370  0.52645727  1
  F  F6  1  0.75888275  0.46113340  0.53871104  1
  F  F7  1  0.73919197  0.47349446  0.94369928  1
  F  F8  1  0.25270727  0.52646483  0.06187301  1
  F  F9  1  0.25447243  0.53923470  0.46420396  1
  F  F10  1  0.24878015  0.96694287  0.03800940  1
  F  F11  1  0.23550544  0.94590769  0.47102158  1
loop_
_geom_bond_atom_site_label_1
_geom_bond_atom_site_label_2
_geom_bond_distance
_geom_bond_site_symmetry_2
Fe0 O0 2.075565 1_555
Fe1 O1 2.102033 1_555
Fe2 O1 1.991726 1_555
Fe3 O0 1.983090 1_555
Fe4 O1 1.982631 1_555
Fe5 O0 2.119756 1_555
Fe6 O0 1.986280 1_555
Fe7 O1 2.092049 1_555
F0 Fe6 2.015787 1_654
F0 Fe5 2.086949 1_655
F0 Fe7 2.210745 1_555
F1 Fe4 2.008526 1_545
F1 Fe7 2.064883 1_555
F1 Fe5 2.199114 1_555
F2 Fe2 2.017095 1_456
F2 Fe1 2.085164 1_455
F2 Fe0 2.217024 1_555
F3 Fe3 2.015390 1_565
F3 Fe0 2.067968 1_555
F3 Fe1 2.198775 1_555
F4 Fe3 2.133100 1_555
F4 Fe6 2.157083 1_655
F4 Fe2 2.388528 1_546
F4 Fe4 2.452992 1_546
F5 Fe5 2.137624 1_655
F5 Fe3 2.186571 1_555
F5 Fe4 2.322251 1_545
F5 Fe1 2.418882 1_545
F6 Fe5 2.177883 1_655
F6 Fe0 2.224006 1_555
F6 Fe1 2.249722 1_555
F6 Fe7 2.302620 1_555
F7 Fe0 2.132550 1_555
F7 Fe6 2.190850 1_655
F7 Fe2 2.334374 1_556
F7 Fe7 2.425049 1_556
F8 Fe7 2.127585 1_555
F8 Fe2 2.174135 1_455
F8 Fe6 2.318425 1_554
F8 Fe0 2.510706 1_554
F9 Fe1 2.208263 1_455
F9 Fe7 2.218289 1_555
F9 Fe0 2.234549 1_555
F9 Fe5 2.295153 1_555
F10 Fe4 2.142854 1_555
F10 Fe2 2.153951 1_455
F10 Fe6 2.388609 1_564
F10 Fe3 2.452579 1_564
F11 Fe1 2.127331 1_455
F11 Fe4 2.215334 1_555
F11 Fe3 2.354777 1_565
F11 Fe5 2.366806 1_565
