# generated using pymatgen
data_Li2V3CrO8
_symmetry_space_group_name_H-M   'P 1'
_cell_length_a   6.06371996
_cell_length_b   10.13271578
_cell_length_c   5.96009813
_cell_angle_alpha   105.17626912
_cell_angle_beta   59.40956752
_cell_angle_gamma   90.00807298
_symmetry_Int_Tables_number   1
_chemical_formula_structural   Li2V3CrO8
_chemical_formula_sum   'Li4 V6 Cr2 O16'
_cell_volume   300.31239262
_cell_formula_units_Z   2
loop_
 _symmetry_equiv_pos_site_id
 _symmetry_equiv_pos_as_xyz
  1  'x, y, z'
loop_
 _atom_site_type_symbol
 _atom_site_label
 _atom_site_symmetry_multiplicity
 _atom_site_fract_x
 _atom_site_fract_y
 _atom_site_fract_z
 _atom_site_occupancy
  Li  Li0  1  0.31191300  0.55962900  0.37085800  1
  Li  Li1  1  0.81904900  0.05957000  0.36842200  1
  Li  Li2  1  0.18790900  0.94037300  0.62929200  1
  Li  Li3  1  0.68093500  0.44047800  0.63157800  1
  V  V0  1  0.24997000  0.75012600  0.99994700  1
  V  V1  1  0.75014400  0.25003400  0.99976400  1
  V  V2  1  0.74979600  0.75003600  0.00032700  1
  V  V3  1  0.25017500  0.25002100  0.99972800  1
  V  V4  1  0.00380900  0.50035600  0.00283000  1
  V  V5  1  0.49626100  0.99956200  0.99717900  1
  Cr  Cr0  1  0.74975200  0.74995100  0.50007700  1
  Cr  Cr1  1  0.25025400  0.24993500  0.49972800  1
  O  O0  1  0.09498000  0.62524200  0.78773000  1
  O  O1  1  0.61886700  0.12540100  0.78510700  1
  O  O2  1  0.40485600  0.87477500  0.21237600  1
  O  O3  1  0.88115500  0.37459700  0.21487500  1
  O  O4  1  0.88475700  0.85532600  0.22333200  1
  O  O5  1  0.39112900  0.35563700  0.22297900  1
  O  O6  1  0.09984300  0.62561900  0.23983600  1
  O  O7  1  0.61040300  0.13456900  0.23372700  1
  O  O8  1  0.65414200  0.63465700  0.23580800  1
  O  O9  1  0.16316700  0.12487000  0.23848200  1
  O  O10  1  0.84563000  0.86531600  0.76451400  1
  O  O11  1  0.33693200  0.37515000  0.76151100  1
  O  O12  1  0.40001200  0.87443600  0.76040400  1
  O  O13  1  0.88994900  0.36530400  0.76599600  1
  O  O14  1  0.61504400  0.64476200  0.77680600  1
  O  O15  1  0.10916600  0.14427000  0.77678500  1
loop_
_geom_bond_atom_site_label_1
_geom_bond_atom_site_label_2
_geom_bond_distance
_geom_bond_site_symmetry_2
Li0 O5 1.973712 1_555
Li0 O6 2.001557 1_555
Li0 O8 2.037671 1_555
Li0 O0 2.038256 1_555
Li1 O4 1.975374 1_545
Li1 O9 2.003691 1_655
Li1 O1 2.037331 1_555
Li1 O7 2.043550 1_555
Li2 O15 1.972660 1_565
Li2 O12 2.001923 1_555
Li2 O10 2.038033 1_455
Li2 O2 2.038468 1_555
Li3 O14 1.975779 1_555
Li3 O11 2.003226 1_555
Li3 O3 2.037419 1_555
Li3 O13 2.044891 1_555
Cr0 O14 2.018049 1_555
Cr0 O4 2.019500 1_555
Cr0 O12 2.030505 1_555
Cr0 O6 2.031213 1_655
Cr0 O8 2.036550 1_555
Cr0 O10 2.038688 1_555
Cr1 O5 2.021924 1_555
Cr1 O15 2.023012 1_555
Cr1 O9 2.027993 1_555
Cr1 O11 2.029382 1_555
Cr1 O7 2.038542 1_555
Cr1 O13 2.039324 1_455
O0 V4 1.917908 1_556
O0 V2 2.011977 1_456
O0 V0 2.110889 1_555
O1 V5 1.913987 1_545
O1 V1 2.013858 1_555
O1 V3 2.115022 1_555
O2 V5 1.917399 1_554
O2 V2 2.010864 1_555
O2 V0 2.110209 1_554
O3 V4 1.913220 1_655
O3 V1 2.014193 1_554
O3 V3 2.116038 1_654
O4 V2 1.984670 1_555
O4 V0 2.017375 1_654
O5 V1 1.990393 1_554
O5 V3 2.014442 1_554
O6 V4 1.960550 1_555
O6 V0 2.020871 1_554
O7 V1 1.919016 1_554
O7 V5 2.078747 1_544
O8 V2 1.924417 1_555
O8 V4 2.071350 1_655
O9 V5 1.961681 1_544
O9 V3 2.022846 1_554
O10 V2 1.924994 1_556
O10 V5 2.069891 1_555
O11 V4 1.961330 1_556
O11 V3 2.020462 1_555
O12 V5 1.959812 1_555
O12 V0 2.017885 1_555
O13 V1 1.916695 1_555
O13 V4 2.078958 1_656
O14 V2 1.985931 1_556
O14 V0 2.017379 1_555
O15 V1 1.991059 1_455
O15 V3 2.013834 1_555
