# generated using pymatgen
data_LiSmEu2O4
_symmetry_space_group_name_H-M   'P 1'
_cell_length_a   3.49789300
_cell_length_b   11.59536600
_cell_length_c   11.69817200
_cell_angle_alpha   90.00000000
_cell_angle_beta   90.00000000
_cell_angle_gamma   90.00000000
_symmetry_Int_Tables_number   1
_chemical_formula_structural   LiSmEu2O4
_chemical_formula_sum   'Li4 Sm4 Eu8 O16'
_cell_volume   474.47024741
_cell_formula_units_Z   4
loop_
 _symmetry_equiv_pos_site_id
 _symmetry_equiv_pos_as_xyz
  1  'x, y, z'
loop_
 _atom_site_type_symbol
 _atom_site_label
 _atom_site_symmetry_multiplicity
 _atom_site_fract_x
 _atom_site_fract_y
 _atom_site_fract_z
 _atom_site_occupancy
  Li  Li0  1  0.25000000  0.34737400  0.90952300  1
  Li  Li1  1  0.25000000  0.84737400  0.59047700  1
  Li  Li2  1  0.75000000  0.65262600  0.09047700  1
  Li  Li3  1  0.75000000  0.15262600  0.40952300  1
  Sm  Sm0  1  0.25000000  0.14021000  0.20396900  1
  Sm  Sm1  1  0.25000000  0.64021000  0.29603100  1
  Sm  Sm2  1  0.75000000  0.85979000  0.79603100  1
  Sm  Sm3  1  0.75000000  0.35979000  0.70396900  1
  Eu  Eu0  1  0.25000000  0.09805800  0.61441500  1
  Eu  Eu1  1  0.25000000  0.59805800  0.88558500  1
  Eu  Eu2  1  0.75000000  0.90194200  0.38558500  1
  Eu  Eu3  1  0.75000000  0.40194200  0.11441500  1
  Eu  Eu4  1  0.25000000  0.36503100  0.42529700  1
  Eu  Eu5  1  0.25000000  0.86503100  0.07470300  1
  Eu  Eu6  1  0.75000000  0.63496900  0.57470300  1
  Eu  Eu7  1  0.75000000  0.13496900  0.92529700  1
  O  O0  1  0.25000000  0.25694200  0.04338400  1
  O  O1  1  0.25000000  0.75694200  0.45661600  1
  O  O2  1  0.75000000  0.74305800  0.95661600  1
  O  O3  1  0.75000000  0.24305800  0.54338400  1
  O  O4  1  0.25000000  0.05956000  0.39167500  1
  O  O5  1  0.25000000  0.55956000  0.10832500  1
  O  O6  1  0.75000000  0.94044000  0.60832500  1
  O  O7  1  0.75000000  0.44044000  0.89167500  1
  O  O8  1  0.25000000  0.47463800  0.62685400  1
  O  O9  1  0.25000000  0.97463800  0.87314600  1
  O  O10  1  0.75000000  0.52536200  0.37314600  1
  O  O11  1  0.75000000  0.02536200  0.12685400  1
  O  O12  1  0.25000000  0.23973500  0.78026100  1
  O  O13  1  0.25000000  0.73973500  0.71973900  1
  O  O14  1  0.75000000  0.76026500  0.21973900  1
  O  O15  1  0.75000000  0.26026500  0.28026100  1
loop_
_geom_bond_atom_site_label_1
_geom_bond_atom_site_label_2
_geom_bond_distance
_geom_bond_site_symmetry_2
Li0 O0 1.884590 1_556
Li0 O12 1.960694 1_555
Li0 O7 2.065657 1_455
Li0 O7 2.065657 1_555
Li1 O1 1.884590 1_555
Li1 O13 1.960694 1_555
Li1 O6 2.065657 1_455
Li1 O6 2.065657 1_555
Li2 O2 1.884590 1_554
Li2 O14 1.960694 1_555
Li2 O5 2.065657 1_655
Li2 O5 2.065657 1_555
Li3 O3 1.884590 1_555
Li3 O15 1.960694 1_555
Li3 O4 2.065657 1_555
Li3 O4 2.065657 1_655
Eu0 O6 2.530642 1_445
Eu0 O6 2.530642 1_545
Eu0 O12 2.542194 1_555
Eu0 O3 2.564396 1_455
Eu0 O3 2.564396 1_555
Eu0 O4 2.643613 1_555
Eu1 O7 2.530642 1_555
Eu1 O7 2.530642 1_455
Eu1 O13 2.542194 1_555
Eu1 O2 2.564396 1_555
Eu1 O2 2.564396 1_455
Eu1 O5 2.643613 1_556
Eu2 O4 2.530642 1_565
Eu2 O4 2.530642 1_665
Eu2 O14 2.542194 1_555
Eu2 O1 2.564396 1_655
Eu2 O1 2.564396 1_555
Eu2 O6 2.643613 1_555
Eu3 O5 2.530642 1_555
Eu3 O5 2.530642 1_655
Eu3 O15 2.542194 1_555
Eu3 O0 2.564396 1_555
Eu3 O0 2.564396 1_655
Eu3 O7 2.643613 1_554
Eu4 O10 2.624355 1_455
Eu4 O10 2.624355 1_555
Eu4 O3 2.639582 1_455
Eu4 O3 2.639582 1_555
Eu4 O8 2.678567 1_555
Eu4 O15 2.722718 1_555
Eu4 O15 2.722718 1_455
Eu5 O11 2.624355 1_565
Eu5 O11 2.624355 1_465
Eu5 O2 2.639582 1_554
Eu5 O2 2.639582 1_454
Eu5 O9 2.678567 1_554
Eu5 O14 2.722718 1_555
Eu5 O14 2.722718 1_455
Eu6 O8 2.624355 1_555
Eu6 O8 2.624355 1_655
Eu6 O1 2.639582 1_555
Eu6 O1 2.639582 1_655
Eu6 O10 2.678567 1_555
Eu6 O13 2.722718 1_555
Eu6 O13 2.722718 1_655
Eu7 O9 2.624355 1_545
Eu7 O9 2.624355 1_645
Eu7 O0 2.639582 1_556
Eu7 O0 2.639582 1_656
Eu7 O11 2.678567 1_556
Eu7 O12 2.722718 1_655
Eu7 O12 2.722718 1_555
O0 Sm0 2.315395 1_555
O1 Sm1 2.315395 1_555
O2 Sm2 2.315395 1_555
O3 Sm3 2.315395 1_555
O4 Sm0 2.386661 1_555
O5 Sm1 2.386661 1_555
O6 Sm2 2.386661 1_555
O7 Sm3 2.386661 1_555
O8 Sm3 2.376140 1_555
O8 Sm3 2.376140 1_455
O9 Sm2 2.376140 1_455
O9 Sm2 2.376140 1_555
O10 Sm1 2.376140 1_655
O10 Sm1 2.376140 1_555
O11 Sm0 2.376140 1_555
O11 Sm0 2.376140 1_655
O12 Sm3 2.406911 1_555
O12 Sm3 2.406911 1_455
O13 Sm2 2.406911 1_455
O13 Sm2 2.406911 1_555
O14 Sm1 2.406911 1_655
O14 Sm1 2.406911 1_555
O15 Sm0 2.406911 1_555
O15 Sm0 2.406911 1_655
