# generated using pymatgen
data_Zn3Fe12(CoO12)2
_symmetry_space_group_name_H-M   'P 1'
_cell_length_a   10.47280531
_cell_length_b   10.47280531
_cell_length_c   10.47280531
_cell_angle_alpha   146.46331196
_cell_angle_beta   131.50223910
_cell_angle_gamma   60.25230686
_symmetry_Int_Tables_number   1
_chemical_formula_structural   Zn3Fe12(CoO12)2
_chemical_formula_sum   'Zn3 Fe12 Co2 O24'
_cell_volume   470.87118232
_cell_formula_units_Z   1
loop_
 _symmetry_equiv_pos_site_id
 _symmetry_equiv_pos_as_xyz
  1  'x, y, z'
loop_
 _atom_site_type_symbol
 _atom_site_label
 _atom_site_symmetry_multiplicity
 _atom_site_fract_x
 _atom_site_fract_y
 _atom_site_fract_z
 _atom_site_occupancy
  Zn  Zn0  1  0.99712000  0.00000000  0.99712000  1
  Zn  Zn1  1  0.66717000  0.66506100  0.00210900  1
  Zn  Zn2  1  0.33704900  0.33493900  0.00210900  1
  Fe  Fe0  1  0.37720100  0.74446900  0.12167000  1
  Fe  Fe1  1  0.03873800  0.41547100  0.12232000  1
  Fe  Fe2  1  0.70684900  0.08358200  0.12232000  1
  Fe  Fe3  1  0.54656600  0.91976800  0.62679800  1
  Fe  Fe4  1  0.20452900  0.58195200  0.62257600  1
  Fe  Fe5  1  0.87554700  0.24773400  0.62781300  1
  Fe  Fe6  1  0.70703000  0.08023200  0.62679800  1
  Fe  Fe7  1  0.38007900  0.75226600  0.62781300  1
  Fe  Fe8  1  0.04062400  0.41804800  0.62257600  1
  Fe  Fe9  1  0.37720100  0.25553100  0.63273300  1
  Fe  Fe10  1  0.03873800  0.91641800  0.62326700  1
  Fe  Fe11  1  0.70684900  0.58452900  0.62326700  1
  Co  Co0  1  0.41571300  0.16618300  0.24953000  1
  Co  Co1  1  0.08334700  0.83381700  0.24953000  1
  O  O0  1  0.13598800  0.26965700  0.40564500  1
  O  O1  1  0.80315100  0.93772800  0.40703400  1
  O  O2  1  0.46930600  0.60388400  0.40703400  1
  O  O3  1  0.28362800  0.42267400  0.86095400  1
  O  O4  1  0.95589100  0.09070100  0.86519000  1
  O  O5  1  0.62086800  0.75642300  0.86444600  1
  O  O6  1  0.43828000  0.57732600  0.86095400  1
  O  O7  1  0.10802300  0.24357700  0.86444600  1
  O  O8  1  0.77448800  0.90929900  0.86519000  1
  O  O9  1  0.13598800  0.73034300  0.86633000  1
  O  O10  1  0.80315100  0.39611600  0.86542300  1
  O  O11  1  0.46930600  0.06227200  0.86542300  1
  O  O12  1  0.60112500  0.21850600  0.81963100  1
  O  O13  1  0.28914300  0.90949700  0.86094600  1
  O  O14  1  0.95144900  0.57180300  0.86094600  1
  O  O15  1  0.45714500  0.08137800  0.37576600  1
  O  O16  1  0.13359800  0.74862700  0.38497200  1
  O  O17  1  0.79925000  0.40090700  0.39834200  1
  O  O18  1  0.29438800  0.91862200  0.37576600  1
  O  O19  1  0.99743500  0.59909300  0.39834200  1
  O  O20  1  0.63634500  0.25137300  0.38497200  1
  O  O21  1  0.60112500  0.78149400  0.38261800  1
  O  O22  1  0.28914300  0.42819700  0.37964600  1
  O  O23  1  0.95144900  0.09050300  0.37964600  1
loop_
_geom_bond_atom_site_label_1
_geom_bond_atom_site_label_2
_geom_bond_distance
_geom_bond_site_symmetry_2
Fe0 O21 1.939226 1_555
Fe0 O3 2.040674 1_554
Fe0 O6 2.040674 1_554
Fe0 O9 2.076766 1_554
Fe0 O18 2.134946 1_555
Fe0 O15 2.134950 1_565
Fe1 O19 1.950896 1_455
Fe1 O4 2.033727 1_454
Fe1 O10 2.038801 1_454
Fe1 O7 2.063199 1_554
Fe1 O22 2.130588 1_555
Fe1 O16 2.132039 1_555
Fe2 O17 1.950899 1_555
Fe2 O8 2.033719 1_544
Fe2 O11 2.038806 1_554
Fe2 O5 2.063203 1_544
Fe2 O23 2.130588 1_555
Fe2 O20 2.132043 1_555
Fe3 O12 1.976089 1_565
Fe3 O21 1.976098 1_555
Fe3 O8 2.059488 1_555
Fe3 O2 2.095533 1_555
Fe3 O11 2.095542 1_565
Fe3 O18 2.159573 1_555
Fe4 O19 1.953785 1_455
Fe4 O9 2.038389 1_555
Fe4 O0 2.038393 1_555
Fe4 O6 2.052327 1_555
Fe4 O22 2.143188 1_555
Fe4 O13 2.143192 1_555
Fe5 O1 2.016622 1_545
Fe5 O10 2.016626 1_555
Fe5 O7 2.037001 1_655
Fe5 O20 2.090052 1_555
Fe5 O23 2.098283 1_555
Fe5 O14 2.098283 1_555
Fe6 O21 1.976085 1_545
Fe6 O12 1.976089 1_555
Fe6 O4 2.059491 1_555
Fe6 O10 2.095534 1_555
Fe6 O1 2.095542 1_545
Fe6 O15 2.159569 1_555
Fe7 O11 2.016622 1_565
Fe7 O2 2.016626 1_555
Fe7 O5 2.036996 1_555
Fe7 O16 2.090056 1_555
Fe7 O22 2.098283 1_555
Fe7 O13 2.098283 1_555
Fe8 O17 1.953777 1_455
Fe8 O0 2.038389 1_555
Fe8 O9 2.038393 1_555
Fe8 O3 2.052331 1_555
Fe8 O23 2.143197 1_455
Fe8 O14 2.143197 1_455
Fe9 O12 1.939226 1_555
Fe9 O3 2.040665 1_555
Fe9 O6 2.040678 1_555
Fe9 O0 2.076766 1_555
Fe9 O18 2.134942 1_545
Fe9 O15 2.134963 1_555
Fe10 O19 1.950896 1_455
Fe10 O4 2.033727 1_465
Fe10 O1 2.038806 1_455
Fe10 O7 2.063199 1_565
Fe10 O13 2.130588 1_555
Fe10 O16 2.132035 1_555
Fe11 O17 1.950904 1_555
Fe11 O8 2.033724 1_555
Fe11 O2 2.038810 1_555
Fe11 O5 2.063208 1_555
Fe11 O14 2.130588 1_555
Fe11 O20 2.132043 1_555
Co0 O15 1.881386 1_555
Co0 O22 1.922088 1_555
Co0 O13 1.922088 1_544
Co0 O20 1.933748 1_555
Co1 O18 1.881391 1_555
Co1 O23 1.922088 1_465
Co1 O14 1.922088 1_454
Co1 O16 1.933753 1_555
O0 Zn0 2.020479 1_454
O1 Zn1 2.002551 1_555
O2 Zn2 2.002551 1_555
O3 Zn2 2.000185 1_556
O4 Zn0 1.997006 1_555
O5 Zn1 2.035162 1_556
O6 Zn1 2.000189 1_556
O7 Zn2 2.035176 1_556
O8 Zn0 1.997015 1_565
O9 Zn0 2.020479 1_465
O10 Zn1 2.002556 1_556
O11 Zn2 2.002547 1_556
