# generated using pymatgen
data_YbMgPd
_symmetry_space_group_name_H-M   'P 1'
_cell_length_a   4.13146914
_cell_length_b   7.01189823
_cell_length_c   8.55607656
_cell_angle_alpha   90.00000000
_cell_angle_beta   90.00000000
_cell_angle_gamma   90.00000000
_symmetry_Int_Tables_number   1
_chemical_formula_structural   YbMgPd
_chemical_formula_sum   'Yb4 Mg4 Pd4'
_cell_volume   247.86475605
_cell_formula_units_Z   4
loop_
 _symmetry_equiv_pos_site_id
 _symmetry_equiv_pos_as_xyz
  1  'x, y, z'
loop_
 _atom_site_type_symbol
 _atom_site_label
 _atom_site_symmetry_multiplicity
 _atom_site_fract_x
 _atom_site_fract_y
 _atom_site_fract_z
 _atom_site_occupancy
  Yb  Yb0  1  0.25000000  0.53975971  0.17633809  1
  Yb  Yb1  1  0.75000000  0.46024029  0.82366191  1
  Yb  Yb2  1  0.25000000  0.03975971  0.32366191  1
  Yb  Yb3  1  0.75000000  0.96024029  0.67633809  1
  Mg  Mg0  1  0.25000000  0.63635504  0.55847173  1
  Mg  Mg1  1  0.75000000  0.36364496  0.44152827  1
  Mg  Mg2  1  0.25000000  0.13635504  0.94152827  1
  Mg  Mg3  1  0.75000000  0.86364496  0.05847173  1
  Pd  Pd0  1  0.75000000  0.75545415  0.37166785  1
  Pd  Pd1  1  0.25000000  0.24454585  0.62833215  1
  Pd  Pd2  1  0.75000000  0.25545415  0.12833215  1
  Pd  Pd3  1  0.25000000  0.74454585  0.87166785  1
loop_
_geom_bond_atom_site_label_1
_geom_bond_atom_site_label_2
_geom_bond_distance
_geom_bond_site_symmetry_2
Yb0 Yb1 3.699136 1_454
Yb0 Yb1 3.699136 1_554
Yb0 Yb2 3.725664 1_565
Yb0 Yb2 3.725664 1_555
Yb1 Yb3 3.725664 1_545
Yb1 Yb3 3.725664 1_555
Yb2 Yb3 3.699136 1_445
Yb2 Yb3 3.699136 1_545
Mg0 Pd0 2.742127 1_455
Mg0 Pd0 2.742127 1_555
Mg0 Pd3 2.785042 1_555
Mg0 Pd1 2.811598 1_555
Mg0 Mg1 2.987471 1_455
Mg0 Mg1 2.987471 1_555
Mg0 Yb3 3.231400 1_555
Mg0 Yb3 3.231400 1_455
Mg0 Yb1 3.307648 1_555
Mg0 Yb1 3.307648 1_455
Mg0 Yb0 3.338984 1_555
Mg0 Yb2 3.469502 1_565
Mg1 Pd1 2.742127 1_555
Mg1 Pd1 2.742127 1_655
Mg1 Pd2 2.785042 1_555
Mg1 Pd0 2.811598 1_555
Mg1 Yb2 3.231400 1_555
Mg1 Yb2 3.231400 1_655
Mg1 Yb0 3.307648 1_555
Mg1 Yb0 3.307648 1_655
Mg1 Yb1 3.338984 1_555
Mg1 Yb3 3.469502 1_545
Mg2 Pd2 2.742127 1_556
Mg2 Pd2 2.742127 1_456
Mg2 Pd1 2.785042 1_555
Mg2 Pd3 2.811598 1_545
Mg2 Mg3 2.987471 1_546
Mg2 Mg3 2.987471 1_446
Mg2 Yb1 3.231400 1_555
Mg2 Yb1 3.231400 1_455
Mg2 Yb3 3.307648 1_545
Mg2 Yb3 3.307648 1_445
Mg2 Yb2 3.338984 1_556
Mg2 Yb0 3.469502 1_556
Mg3 Pd3 2.742127 1_654
Mg3 Pd3 2.742127 1_554
Mg3 Pd0 2.785042 1_555
Mg3 Pd2 2.811598 1_565
Mg3 Yb0 3.231400 1_655
Mg3 Yb0 3.231400 1_555
Mg3 Yb2 3.307648 1_665
Mg3 Yb2 3.307648 1_565
Mg3 Yb3 3.338984 1_554
Mg3 Yb1 3.469502 1_554
Pd0 Yb2 2.900017 1_565
Pd0 Yb2 2.900017 1_665
Pd0 Yb3 2.976111 1_555
Pd0 Yb0 3.057416 1_555
Pd0 Yb0 3.057416 1_655
Pd1 Yb3 2.900017 1_545
Pd1 Yb3 2.900017 1_445
Pd1 Yb2 2.976111 1_555
Pd1 Yb1 3.057416 1_455
Pd1 Yb1 3.057416 1_555
Pd2 Yb0 2.900017 1_555
Pd2 Yb0 2.900017 1_655
Pd2 Yb1 2.976111 1_554
Pd2 Yb2 3.057416 1_555
Pd2 Yb2 3.057416 1_655
Pd3 Yb1 2.900017 1_455
Pd3 Yb1 2.900017 1_555
Pd3 Yb0 2.976111 1_556
Pd3 Yb3 3.057416 1_555
Pd3 Yb3 3.057416 1_455
