# generated using pymatgen
data_Mg7Si4
_symmetry_space_group_name_H-M   'P 1'
_cell_length_a   5.55595500
_cell_length_b   5.89591837
_cell_length_c   13.60069292
_cell_angle_alpha   94.44220467
_cell_angle_beta   96.61324048
_cell_angle_gamma   100.54547888
_symmetry_Int_Tables_number   1
_chemical_formula_structural   Mg7Si4
_chemical_formula_sum   'Mg14 Si8'
_cell_volume   432.86462207
_cell_formula_units_Z   2
loop_
 _symmetry_equiv_pos_site_id
 _symmetry_equiv_pos_as_xyz
  1  'x, y, z'
loop_
 _atom_site_type_symbol
 _atom_site_label
 _atom_site_symmetry_multiplicity
 _atom_site_fract_x
 _atom_site_fract_y
 _atom_site_fract_z
 _atom_site_occupancy
  Mg  Mg0  1  0.29704200  0.93439700  0.19430800  1
  Mg  Mg1  1  0.15636300  0.48386300  0.27884200  1
  Mg  Mg2  1  0.90432900  0.93455700  0.35416800  1
  Mg  Mg3  1  0.64672600  0.36891300  0.32760000  1
  Mg  Mg4  1  0.97615200  0.49775100  0.03994600  1
  Mg  Mg5  1  0.14485700  0.79810000  0.54947500  1
  Mg  Mg6  1  0.21917600  0.39597900  0.86343400  1
  Mg  Mg7  1  0.39258600  0.30205700  0.66700700  1
  Mg  Mg8  1  0.45432700  0.32505500  0.07634400  1
  Mg  Mg9  1  0.51476700  0.82821900  0.99971800  1
  Mg  Mg10  1  0.02405300  0.98402800  0.96504900  1
  Mg  Mg11  1  0.34332900  0.85564400  0.76803700  1
  Mg  Mg12  1  0.80412400  0.20042500  0.53023900  1
  Mg  Mg13  1  0.62255100  0.68273600  0.54783800  1
  Si  Si0  1  0.66919400  0.21132900  0.87732500  1
  Si  Si1  1  0.82096300  0.10755600  0.16359800  1
  Si  Si2  1  0.75896300  0.69002400  0.18033900  1
  Si  Si3  1  0.93828700  0.50275700  0.69599300  1
  Si  Si4  1  0.72524900  0.60961500  0.83687200  1
  Si  Si5  1  0.41473500  0.92640000  0.40109600  1
  Si  Si6  1  0.28045700  0.29256800  0.45669600  1
  Si  Si7  1  0.88810900  0.06058000  0.72234800  1
loop_
_geom_bond_atom_site_label_1
_geom_bond_atom_site_label_2
_geom_bond_distance
_geom_bond_site_symmetry_2
Mg0 Si5 2.819214 1_555
Mg0 Si1 2.991372 1_565
Mg0 Si1 3.002199 1_465
Mg0 Si2 3.049512 1_455
Mg0 Si2 3.181487 1_555
Mg1 Si6 2.814568 1_555
Mg1 Si1 2.850786 1_455
Mg1 Si2 2.949668 1_455
Mg1 Si5 3.006713 1_555
Mg2 Si2 2.631789 1_555
Mg2 Si6 2.832896 1_665
Mg2 Si5 2.844149 1_655
Mg2 Si5 2.857574 1_555
Mg2 Si1 2.877274 1_565
Mg3 Si6 2.834903 1_555
Mg3 Si2 2.903028 1_555
Mg3 Si1 2.966120 1_555
Mg3 Si5 2.989544 1_545
Mg4 Si2 2.661446 1_555
Mg4 Si0 2.854927 1_554
Mg4 Mg6 2.960826 1_654
Mg4 Si1 3.011902 1_555
Mg4 Si4 3.120655 1_554
Mg5 Si5 2.722377 1_555
Mg5 Si3 2.941637 1_455
Mg6 Si3 2.789462 1_455
Mg6 Si7 2.871184 1_455
Mg6 Si0 2.896847 1_555
Mg6 Si4 2.937845 1_555
Mg6 Mg7 2.988481 1_555
Mg6 Si0 3.083057 1_455
Mg6 Mg9 3.108465 1_555
Mg6 Mg8 3.127799 1_556
Mg6 Si4 3.217957 1_455
Mg7 Si6 2.850437 1_555
Mg7 Si3 3.014503 1_555
Mg7 Si3 3.029311 1_455
Mg7 Si4 3.030250 1_555
Mg7 Si7 3.104959 1_455
Mg7 Si0 3.218018 1_555
Mg8 Si2 2.672007 1_555
Mg8 Si1 2.799505 1_555
Mg8 Si0 3.155568 1_554
Mg9 Si1 2.847262 1_566
Mg9 Si2 2.913138 1_556
Mg9 Si4 2.939431 1_555
Mg9 Si0 2.968383 1_565
Mg10 Si0 2.789200 1_465
Mg10 Si4 2.839731 1_455
Mg10 Mg6 2.980902 1_565
Mg10 Si1 3.129503 1_466
Mg11 Si0 2.718930 1_565
Mg11 Si3 2.795663 1_455
Mg11 Si4 2.891825 1_555
Mg11 Si7 3.019230 1_465
Mg11 Mg6 3.093654 1_555
Mg11 Si7 3.196612 1_565
Mg12 Si3 2.705423 1_555
Mg12 Si5 2.789536 1_545
Mg12 Si7 2.813909 1_555
Mg12 Si6 2.909832 1_655
Mg12 Si6 3.122988 1_555
Mg13 Si6 2.802880 1_555
Mg13 Si5 2.810826 1_555
Mg13 Si3 2.908946 1_555
Mg13 Si7 3.153450 1_565
Si0 Si4 2.426097 1_555
Si0 Si7 2.721782 1_555
Si1 Si2 2.454616 1_545
Si3 Si4 2.465258 1_555
Si3 Si7 2.627661 1_555
Si5 Si6 2.501168 1_565
