# generated using pymatgen
data_ScV(SeO4)2
_symmetry_space_group_name_H-M   'P 1'
_cell_length_a   5.20974000
_cell_length_b   9.15410300
_cell_length_c   15.29675529
_cell_angle_alpha   69.59834278
_cell_angle_beta   90.00000000
_cell_angle_gamma   90.00000000
_symmetry_Int_Tables_number   1
_chemical_formula_structural   ScV(SeO4)2
_chemical_formula_sum   'Sc4 V4 Se8 O32'
_cell_volume   683.74909345
_cell_formula_units_Z   4
loop_
 _symmetry_equiv_pos_site_id
 _symmetry_equiv_pos_as_xyz
  1  'x, y, z'
loop_
 _atom_site_type_symbol
 _atom_site_label
 _atom_site_symmetry_multiplicity
 _atom_site_fract_x
 _atom_site_fract_y
 _atom_site_fract_z
 _atom_site_occupancy
  Sc  Sc0  1  0.80405600  0.80620400  0.61092800  1
  Sc  Sc1  1  0.69594400  0.80620400  0.11092800  1
  Sc  Sc2  1  0.19594400  0.19379600  0.38907200  1
  Sc  Sc3  1  0.30405600  0.19379600  0.88907200  1
  V  V0  1  0.35530800  0.62997100  0.51577000  1
  V  V1  1  0.14469200  0.62997100  0.01577000  1
  V  V2  1  0.64469200  0.37002900  0.48423000  1
  V  V3  1  0.85530800  0.37002900  0.98423000  1
  Se  Se0  1  0.70644100  0.39447400  0.69541400  1
  Se  Se1  1  0.79355900  0.39447400  0.19541400  1
  Se  Se2  1  0.29355900  0.60552600  0.30458600  1
  Se  Se3  1  0.20644100  0.60552600  0.80458600  1
  Se  Se4  1  0.30331600  0.05832900  0.62969000  1
  Se  Se5  1  0.19668400  0.05832900  0.12969000  1
  Se  Se6  1  0.69668400  0.94167100  0.37031000  1
  Se  Se7  1  0.80331600  0.94167100  0.87031000  1
  O  O0  1  0.59472200  0.58451800  0.62645200  1
  O  O1  1  0.90527800  0.58451800  0.12645200  1
  O  O2  1  0.40527800  0.41548200  0.37354800  1
  O  O3  1  0.09472200  0.41548200  0.87354800  1
  O  O4  1  0.72303500  0.29533200  0.61686400  1
  O  O5  1  0.77696500  0.29533200  0.11686400  1
  O  O6  1  0.27696500  0.70466800  0.38313600  1
  O  O7  1  0.22303500  0.70466800  0.88313600  1
  O  O8  1  0.43267200  0.31983500  0.75379100  1
  O  O9  1  0.06732800  0.31983500  0.25379100  1
  O  O10  1  0.56732800  0.68016500  0.24620900  1
  O  O11  1  0.93267200  0.68016500  0.74620900  1
  O  O12  1  0.48781700  0.89223500  0.66474100  1
  O  O13  1  0.01218300  0.89223500  0.16474100  1
  O  O14  1  0.51218300  0.10776500  0.33525900  1
  O  O15  1  0.98781700  0.10776500  0.83525900  1
  O  O16  1  0.01868900  0.99488100  0.60017000  1
  O  O17  1  0.48131100  0.99488100  0.10017000  1
  O  O18  1  0.98131100  0.00511900  0.39983000  1
  O  O19  1  0.51868900  0.00511900  0.89983000  1
  O  O20  1  0.41674800  0.15922900  0.51511000  1
  O  O21  1  0.08325200  0.15922900  0.01511000  1
  O  O22  1  0.58325200  0.84077100  0.48489000  1
  O  O23  1  0.91674800  0.84077100  0.98489000  1
  O  O24  1  0.28792400  0.43994700  0.54017100  1
  O  O25  1  0.21207600  0.43994700  0.04017100  1
  O  O26  1  0.71207600  0.56005300  0.45982900  1
  O  O27  1  0.78792400  0.56005300  0.95982900  1
  O  O28  1  0.10797100  0.70157300  0.55977800  1
  O  O29  1  0.39202900  0.70157300  0.05977800  1
  O  O30  1  0.89202900  0.29842700  0.44022200  1
  O  O31  1  0.60797100  0.29842700  0.94022200  1
loop_
_geom_bond_atom_site_label_1
_geom_bond_atom_site_label_2
_geom_bond_distance
_geom_bond_site_symmetry_2
O0 Se0 1.788454 1_555
O0 V0 2.025883 1_555
O0 Sc0 2.242314 1_555
O1 Se1 1.788454 1_555
O1 V1 2.025883 1_655
O1 Sc1 2.242314 1_555
O2 Se2 1.788454 1_555
O2 V2 2.025883 1_555
O2 Sc2 2.242314 1_555
O3 Se3 1.788454 1_555
O3 V3 2.025883 1_455
O3 Sc3 2.242314 1_555
O4 Se0 1.742171 1_555
O4 V2 1.945052 1_555
O5 Se1 1.742171 1_555
O5 V3 1.945052 1_554
O6 Se2 1.742171 1_555
O6 V0 1.945052 1_555
O7 Se3 1.742171 1_555
O7 V1 1.945052 1_556
O8 Se0 1.695021 1_555
O8 Sc3 2.097095 1_555
O9 Se1 1.695021 1_455
O9 Sc2 2.097095 1_555
O10 Se2 1.695021 1_555
O10 Sc1 2.097095 1_555
O11 Se3 1.695021 1_655
O11 Sc0 2.097095 1_555
O12 Se4 1.718943 1_565
O12 Sc0 2.112846 1_555
O13 Se5 1.718943 1_565
O13 Sc1 2.112846 1_455
O14 Se6 1.718943 1_545
O14 Sc2 2.112846 1_555
O15 Se7 1.718943 1_545
O15 Sc3 2.112846 1_655
O16 Se4 1.709647 1_565
O16 Sc0 2.015530 1_455
O17 Se5 1.709647 1_565
O17 Sc1 2.015530 1_555
O18 Se6 1.709647 1_545
O18 Sc2 2.015530 1_655
O19 Se7 1.709647 1_545
O19 Sc3 2.015530 1_555
O20 Se4 1.773594 1_555
O20 Sc2 2.171435 1_555
O20 V2 2.172908 1_555
O21 Se5 1.773594 1_555
O21 Sc3 2.171435 1_554
O21 V3 2.172908 1_454
O22 Se6 1.773594 1_555
O22 Sc0 2.171435 1_555
O22 V0 2.172908 1_555
O23 Se7 1.773594 1_555
O23 Sc1 2.171435 1_556
O23 V1 2.172908 1_656
O24 V0 1.683966 1_555
O24 V2 2.231231 1_555
O25 V1 1.683966 1_555
O25 V3 2.231231 1_454
O26 V2 1.683966 1_555
O26 V0 2.231231 1_555
O27 V3 1.683966 1_555
O27 V1 2.231231 1_656
O28 V0 1.688434 1_555
O28 Sc0 2.135174 1_455
O29 V1 1.688434 1_555
O29 Sc1 2.135174 1_555
O30 V2 1.688434 1_555
O30 Sc2 2.135174 1_655
O31 V3 1.688434 1_555
O31 Sc3 2.135174 1_555
