# generated using pymatgen
data_LiCo(CO3)2
_symmetry_space_group_name_H-M   'P 1'
_cell_length_a   6.49385373
_cell_length_b   9.35371211
_cell_length_c   9.35274032
_cell_angle_alpha   113.09499736
_cell_angle_beta   102.80144419
_cell_angle_gamma   103.20683677
_symmetry_Int_Tables_number   1
_chemical_formula_structural   LiCo(CO3)2
_chemical_formula_sum   'Li4 Co4 C8 O24'
_cell_volume   477.04535587
_cell_formula_units_Z   4
loop_
 _symmetry_equiv_pos_site_id
 _symmetry_equiv_pos_as_xyz
  1  'x, y, z'
loop_
 _atom_site_type_symbol
 _atom_site_label
 _atom_site_symmetry_multiplicity
 _atom_site_fract_x
 _atom_site_fract_y
 _atom_site_fract_z
 _atom_site_occupancy
  Li  Li0  1  0.63356700  0.20811300  0.15351700  1
  Li  Li1  1  0.67510800  0.72326000  0.65909800  1
  Li  Li2  1  0.82176400  0.58677500  0.03189200  1
  Li  Li3  1  0.85270100  0.09671900  0.53465800  1
  Co  Co0  1  0.01386900  0.01018400  0.01114800  1
  Co  Co1  1  0.48574100  0.24042500  0.74263200  1
  Co  Co2  1  0.02208000  0.50604600  0.51035000  1
  Co  Co3  1  0.48535900  0.74170000  0.24617000  1
  C  C0  1  0.13334900  0.57251000  0.31796600  1
  C  C1  1  0.10769100  0.07001500  0.79994200  1
  C  C2  1  0.39826200  0.44262500  0.68090800  1
  C  C3  1  0.36369000  0.93869400  0.17768400  1
  C  C4  1  0.63747600  0.54760300  0.30862300  1
  C  C5  1  0.62648300  0.05347300  0.81072400  1
  C  C6  1  0.88773700  0.44595100  0.70413500  1
  C  C7  1  0.84865200  0.93359800  0.19417700  1
  O  O0  1  0.09239800  0.42532300  0.30639700  1
  O  O1  1  0.04521600  0.91902300  0.78161300  1
  O  O2  1  0.43602600  0.45028000  0.82768000  1
  O  O3  1  0.41871300  0.96342500  0.32850600  1
  O  O4  1  0.17475800  0.60740800  0.20471600  1
  O  O5  1  0.14663600  0.10152900  0.68471600  1
  O  O6  1  0.36617500  0.55709400  0.64863400  1
  O  O7  1  0.32098300  0.05191700  0.13894700  1
  O  O8  1  0.36406800  0.80207200  0.06718500  1
  O  O9  1  0.40449700  0.30455400  0.57279700  1
  O  O10  1  0.12060200  0.18356400  0.94052400  1
  O  O11  1  0.11746200  0.67953800  0.45128800  1
  O  O12  1  0.60953300  0.55280400  0.16793100  1
  O  O13  1  0.59528100  0.05356700  0.66748200  1
  O  O14  1  0.92063600  0.58712600  0.69814100  1
  O  O15  1  0.87438000  0.07538800  0.19301700  1
  O  O16  1  0.68892500  0.43294800  0.33223400  1
  O  O17  1  0.68092800  0.94356000  0.84097700  1
  O  O18  1  0.83439900  0.42077400  0.81615500  1
  O  O19  1  0.79271900  0.90784900  0.30896600  1
  O  O20  1  0.88947400  0.82334800  0.07844400  1
  O  O21  1  0.92032000  0.33498800  0.58000700  1
  O  O22  1  0.58963600  0.17670400  0.91837900  1
  O  O23  1  0.60270500  0.66783600  0.42132700  1
loop_
_geom_bond_atom_site_label_1
_geom_bond_atom_site_label_2
_geom_bond_distance
_geom_bond_site_symmetry_2
Li0 O16 1.994102 1_555
Li0 O22 2.044729 1_554
Li0 O7 2.153981 1_555
Li0 O15 2.261440 1_555
Li1 O23 1.988968 1_555
Li1 O17 2.080198 1_555
Li1 O6 2.195203 1_555
Li1 O14 2.308991 1_555
Li1 O1 2.359026 1_655
Li2 O20 1.998570 1_555
Li2 O18 2.040255 1_554
Li2 O12 2.124471 1_555
Li2 O4 2.411575 1_655
Li2 O2 2.461320 1_554
Li3 O21 2.017058 1_555
Li3 O19 2.030778 1_545
Li3 O5 2.083075 1_655
Li3 O13 2.346459 1_555
Co0 O7 1.944314 1_555
Co0 O10 2.019010 1_554
Co0 O15 2.051135 1_455
Co0 O1 2.052821 1_544
Co0 O20 2.132136 1_445
Co0 O17 2.162711 1_444
Co1 O9 1.918847 1_555
Co1 O2 1.941251 1_555
Co1 O13 1.969970 1_555
Co1 O22 1.993273 1_555
Co1 O5 2.107747 1_555
Co1 O18 2.258248 1_555
Co2 O11 1.928169 1_555
Co2 O14 1.946784 1_455
Co2 O0 1.957262 1_555
Co2 O21 1.986610 1_455
Co2 O6 2.154306 1_555
Co2 O16 2.180958 1_455
Co3 O4 1.977411 1_555
Co3 O19 2.022646 1_555
Co3 O8 2.025365 1_555
Co3 O12 2.050790 1_555
Co3 O23 2.077747 1_555
Co3 O3 2.094393 1_555
C0 O4 1.287679 1_555
C0 O0 1.296512 1_555
C0 O11 1.300989 1_555
C1 O5 1.283812 1_555
C1 O10 1.295671 1_555
C1 O1 1.306176 1_545
C2 O6 1.268295 1_555
C2 O9 1.307485 1_555
C2 O2 1.309700 1_555
C3 O3 1.286023 1_555
C3 O8 1.291358 1_555
C3 O7 1.311664 1_565
C4 O16 1.275680 1_555
C4 O12 1.309661 1_555
C4 O23 1.310867 1_555
C5 O17 1.269651 1_545
C5 O13 1.310183 1_555
C5 O22 1.312241 1_555
C6 O18 1.261031 1_555
C6 O14 1.314157 1_555
C6 O21 1.316706 1_555
C7 O19 1.295462 1_555
C7 O20 1.296820 1_555
C7 O15 1.303015 1_565
