# generated using pymatgen
data_Ca2Cu2Si3(HO3)4
_symmetry_space_group_name_H-M   'P 1'
_cell_length_a   13.71079400
_cell_length_b   5.56936000
_cell_length_c   7.47678007
_cell_angle_alpha   82.85669131
_cell_angle_beta   90.00000000
_cell_angle_gamma   90.00000000
_symmetry_Int_Tables_number   1
_chemical_formula_structural   Ca2Cu2Si3(HO3)4
_chemical_formula_sum   'Ca4 Cu4 Si6 H8 O24'
_cell_volume   566.49810021
_cell_formula_units_Z   2
loop_
 _symmetry_equiv_pos_site_id
 _symmetry_equiv_pos_as_xyz
  1  'x, y, z'
loop_
 _atom_site_type_symbol
 _atom_site_label
 _atom_site_symmetry_multiplicity
 _atom_site_fract_x
 _atom_site_fract_y
 _atom_site_fract_z
 _atom_site_occupancy
  Ca  Ca0  1  0.38404400  0.94076900  0.80945100  1
  Ca  Ca1  1  0.88404400  0.05923100  0.19054900  1
  Ca  Ca2  1  0.61595600  0.05923100  0.19054900  1
  Ca  Ca3  1  0.11595600  0.94076900  0.80945100  1
  Cu  Cu0  1  0.25000000  0.77755300  0.44550900  1
  Cu  Cu1  1  0.75000000  0.22244700  0.55449100  1
  Cu  Cu2  1  0.25000000  0.27838700  0.47306900  1
  Cu  Cu3  1  0.75000000  0.72161300  0.52693100  1
  Si  Si0  1  0.41237300  0.48805700  0.22669700  1
  Si  Si1  1  0.91237300  0.51194300  0.77330300  1
  Si  Si2  1  0.58762700  0.51194300  0.77330300  1
  Si  Si3  1  0.08762700  0.48805700  0.22669700  1
  Si  Si4  1  0.25000000  0.44266100  0.92164400  1
  Si  Si5  1  0.75000000  0.55733900  0.07835600  1
  H  H0  1  0.43179300  0.88415500  0.23531200  1
  H  H1  1  0.93179300  0.11584500  0.76468800  1
  H  H2  1  0.56820700  0.11584500  0.76468800  1
  H  H3  1  0.06820700  0.88415500  0.23531200  1
  H  H4  1  0.40326400  0.08804800  0.41914800  1
  H  H5  1  0.90326400  0.91195200  0.58085200  1
  H  H6  1  0.59673600  0.91195200  0.58085200  1
  H  H7  1  0.09673600  0.08804800  0.41914800  1
  O  O0  1  0.25000000  0.20423700  0.81990200  1
  O  O1  1  0.75000000  0.79576300  0.18009800  1
  O  O2  1  0.34772100  0.43619100  0.05116800  1
  O  O3  1  0.84772100  0.56380900  0.94883200  1
  O  O4  1  0.65227900  0.56380900  0.94883200  1
  O  O5  1  0.15227900  0.43619100  0.05116800  1
  O  O6  1  0.34525000  0.53291900  0.40225300  1
  O  O7  1  0.84525000  0.46708100  0.59774700  1
  O  O8  1  0.65475000  0.46708100  0.59774700  1
  O  O9  1  0.15475000  0.53291900  0.40225300  1
  O  O10  1  0.25000000  0.70029000  0.79467000  1
  O  O11  1  0.75000000  0.29971000  0.20533000  1
  O  O12  1  0.46124400  0.76941300  0.16131500  1
  O  O13  1  0.96124400  0.23058700  0.83868500  1
  O  O14  1  0.53875600  0.23058700  0.83868500  1
  O  O15  1  0.03875600  0.76941300  0.16131500  1
  O  O16  1  0.51492400  0.73506900  0.72507400  1
  O  O17  1  0.01492400  0.26493100  0.27492600  1
  O  O18  1  0.48507600  0.26493100  0.27492600  1
  O  O19  1  0.98507600  0.73506900  0.72507400  1
  O  O20  1  0.34804100  0.02160700  0.49908500  1
  O  O21  1  0.84804100  0.97839300  0.50091500  1
  O  O22  1  0.65195900  0.97839300  0.50091500  1
  O  O23  1  0.15195900  0.02160700  0.49908500  1
loop_
_geom_bond_atom_site_label_1
_geom_bond_atom_site_label_2
_geom_bond_distance
_geom_bond_site_symmetry_2
Ca0 O16 2.260597 1_555
Ca0 O10 2.284837 1_555
Ca0 O0 2.359115 1_565
Ca0 O20 2.360388 1_565
Ca0 O14 2.690805 1_565
Ca0 O12 2.885806 1_556
Ca1 O17 2.260597 1_655
Ca1 O11 2.284837 1_555
Ca1 O1 2.359115 1_545
Ca1 O21 2.360388 1_545
Ca1 O15 2.690805 1_645
Ca1 O13 2.885806 1_554
Ca2 O18 2.260597 1_555
Ca2 O11 2.284837 1_555
Ca2 O1 2.359115 1_545
Ca2 O22 2.360388 1_545
Ca2 O12 2.690805 1_545
Ca2 O14 2.885806 1_554
Ca3 O19 2.260597 1_455
Ca3 O10 2.284837 1_555
Ca3 O0 2.359115 1_565
Ca3 O23 2.360388 1_565
Ca3 O13 2.690805 1_465
Ca3 O15 2.885806 1_556
Cu0 O9 1.943189 1_555
Cu0 O6 1.943189 1_555
Cu0 O20 1.987534 1_565
Cu0 O23 1.987534 1_565
Cu0 O10 2.592492 1_555
Cu1 O8 1.943189 1_555
Cu1 O7 1.943189 1_555
Cu1 O21 1.987534 1_545
Cu1 O22 1.987534 1_545
Cu1 O11 2.592492 1_555
Cu2 O9 1.951595 1_555
Cu2 O6 1.951595 1_555
Cu2 O20 1.954678 1_555
Cu2 O23 1.954678 1_555
Cu2 O0 2.574657 1_555
Cu3 O8 1.951595 1_555
Cu3 O7 1.951595 1_555
Cu3 O21 1.954678 1_555
Cu3 O22 1.954678 1_555
Cu3 O1 2.574657 1_555
H0 O12 0.982573 1_555
H1 O13 0.982573 1_555
H2 O14 0.982573 1_555
H3 O15 0.982573 1_555
H4 O20 1.006186 1_555
H5 O21 1.006186 1_555
H6 O22 1.006186 1_555
H7 O23 1.006186 1_555
O0 Si4 1.610318 1_555
O1 Si5 1.610318 1_555
O2 Si0 1.638857 1_555
O2 Si4 1.650943 1_554
O3 Si1 1.638857 1_555
O3 Si5 1.650943 1_556
O4 Si2 1.638857 1_555
O4 Si5 1.650943 1_556
O5 Si3 1.638857 1_555
O5 Si4 1.650943 1_554
O6 Si0 1.647380 1_555
O7 Si1 1.647380 1_555
O8 Si2 1.647380 1_555
O9 Si3 1.647380 1_555
O10 Si4 1.619023 1_555
O11 Si5 1.619023 1_555
O12 Si0 1.718385 1_555
O13 Si1 1.718385 1_555
O14 Si2 1.718385 1_555
O15 Si3 1.718385 1_555
O16 Si2 1.598892 1_555
O17 Si3 1.598892 1_555
O18 Si0 1.598892 1_555
O19 Si1 1.598892 1_555
