# generated using pymatgen
data_Te2Mo(WSe2)3
_symmetry_space_group_name_H-M   'P 1'
_cell_length_a   3.38229887
_cell_length_b   3.38229887
_cell_length_c   38.49632000
_cell_angle_alpha   90.00000000
_cell_angle_beta   90.00000000
_cell_angle_gamma   120.00001709
_symmetry_Int_Tables_number   1
_chemical_formula_structural   Te2Mo(WSe2)3
_chemical_formula_sum   'Te2 Mo1 W3 Se6'
_cell_volume   381.39389292
_cell_formula_units_Z   1
loop_
 _symmetry_equiv_pos_site_id
 _symmetry_equiv_pos_as_xyz
  1  'x, y, z'
loop_
 _atom_site_type_symbol
 _atom_site_label
 _atom_site_symmetry_multiplicity
 _atom_site_fract_x
 _atom_site_fract_y
 _atom_site_fract_z
 _atom_site_occupancy
  Te  Te0  1  0.00000000  0.00000000  0.70663800  1
  Te  Te1  1  0.00000000  0.00000000  0.60844300  1
  Mo  Mo0  1  0.00000000  0.00000000  0.46967500  1
  W  W0  1  0.00000000  0.00000000  0.09391500  1
  W  W1  1  0.33333300  0.66666700  0.28182100  1
  W  W2  1  0.33333300  0.66666700  0.65756000  1
  Se  Se0  1  0.00000000  0.00000000  0.32493400  1
  Se  Se1  1  0.33333300  0.66666700  0.05078400  1
  Se  Se2  1  0.33333300  0.66666700  0.42668900  1
  Se  Se3  1  0.33333300  0.66666700  0.13704400  1
  Se  Se4  1  0.33333300  0.66666700  0.51261200  1
  Se  Se5  1  0.00000000  0.00000000  0.23863400  1
loop_
_geom_bond_atom_site_label_1
_geom_bond_atom_site_label_2
_geom_bond_distance
_geom_bond_site_symmetry_2
Te0 W2 2.717140 1_545
Te0 W2 2.717141 1_555
Te0 W2 2.717141 1_445
Te1 W2 2.718184 1_545
Te1 W2 2.718185 1_555
Te1 W2 2.718185 1_445
Mo0 Se4 2.558406 1_545
Mo0 Se4 2.558408 1_445
Mo0 Se4 2.558408 1_555
Mo0 Se2 2.559625 1_545
Mo0 Se2 2.559627 1_445
Mo0 Se2 2.559627 1_555
Se0 W1 2.562789 1_545
Se0 W1 2.562790 1_445
Se0 W1 2.562790 1_555
Se1 W0 2.563237 1_565
Se1 W0 2.563239 1_665
Se1 W0 2.563239 1_555
Se3 W0 2.563188 1_565
Se3 W0 2.563189 1_555
Se3 W0 2.563189 1_665
Se5 W1 2.564634 1_545
Se5 W1 2.564636 1_555
Se5 W1 2.564636 1_445
