# generated using pymatgen
data_Mn2Cr13S20
_symmetry_space_group_name_H-M   'P 1'
_cell_length_a   7.94423700
_cell_length_b   8.10831631
_cell_length_c   8.76805221
_cell_angle_alpha   102.40087512
_cell_angle_beta   104.95458445
_cell_angle_gamma   88.61048121
_symmetry_Int_Tables_number   1
_chemical_formula_structural   Mn2Cr13S20
_chemical_formula_sum   'Mn2 Cr13 S20'
_cell_volume   532.63810043
_cell_formula_units_Z   1
loop_
 _symmetry_equiv_pos_site_id
 _symmetry_equiv_pos_as_xyz
  1  'x, y, z'
loop_
 _atom_site_type_symbol
 _atom_site_label
 _atom_site_symmetry_multiplicity
 _atom_site_fract_x
 _atom_site_fract_y
 _atom_site_fract_z
 _atom_site_occupancy
  Mn  Mn0  1  0.30034000  0.29999900  0.70050500  1
  Mn  Mn1  1  0.69966000  0.70000100  0.29949500  1
  Cr  Cr0  1  0.10084700  0.10134600  0.89909400  1
  Cr  Cr1  1  0.50000000  0.50000000  0.50000000  1
  Cr  Cr2  1  0.89915300  0.89865400  0.10090600  1
  Cr  Cr3  1  0.13455400  0.61959000  0.06491100  1
  Cr  Cr4  1  0.53638400  0.01936100  0.66535500  1
  Cr  Cr5  1  0.93624000  0.41874300  0.26580600  1
  Cr  Cr6  1  0.33492000  0.81864200  0.86575700  1
  Cr  Cr7  1  0.73350100  0.21908100  0.46627100  1
  Cr  Cr8  1  0.06376000  0.58125700  0.73419400  1
  Cr  Cr9  1  0.46361600  0.98063900  0.33464500  1
  Cr  Cr10  1  0.86544600  0.38041000  0.93508900  1
  Cr  Cr11  1  0.26649900  0.78091900  0.53372900  1
  Cr  Cr12  1  0.66508000  0.18135800  0.13424300  1
  S  S0  1  0.19451800  0.48278800  0.50387600  1
  S  S1  1  0.98997800  0.28135300  0.70773300  1
  S  S2  1  0.79714200  0.07809800  0.90550900  1
  S  S3  1  0.59233300  0.88417900  0.10494000  1
  S  S4  1  0.39110900  0.68006300  0.30637600  1
  S  S5  1  0.60889100  0.31993700  0.69362400  1
  S  S6  1  0.40766700  0.11582100  0.89506000  1
  S  S7  1  0.20285800  0.92190200  0.09449100  1
  S  S8  1  0.01002200  0.71864700  0.29226700  1
  S  S9  1  0.80548200  0.51721200  0.49612400  1
  S  S10  1  0.67725300  0.44908900  0.09426200  1
  S  S11  1  0.47586100  0.24943100  0.29346500  1
  S  S12  1  0.27652000  0.04892900  0.49552000  1
  S  S13  1  0.07736800  0.85041300  0.69331700  1
  S  S14  1  0.87503300  0.64872200  0.89499600  1
  S  S15  1  0.12496700  0.35127800  0.10500400  1
  S  S16  1  0.92263200  0.14958700  0.30668300  1
  S  S17  1  0.72348000  0.95107100  0.50448000  1
  S  S18  1  0.52413900  0.75056900  0.70653500  1
  S  S19  1  0.32274700  0.55091100  0.90573800  1
loop_
_geom_bond_atom_site_label_1
_geom_bond_atom_site_label_2
_geom_bond_distance
_geom_bond_site_symmetry_2
Mn0 S12 2.383718 1_555
Mn0 S19 2.385116 1_555
Mn0 S5 2.477479 1_555
Mn0 S6 2.479691 1_555
Mn0 S0 2.482895 1_555
Mn0 S1 2.491755 1_455
Mn1 S17 2.383718 1_555
Mn1 S10 2.385116 1_555
Mn1 S4 2.477479 1_555
Mn1 S3 2.479691 1_555
Mn1 S9 2.482895 1_555
Mn1 S8 2.491755 1_655
Cr0 S15 2.381587 1_556
Cr0 S13 2.387036 1_545
Cr0 S1 2.438860 1_455
Cr0 S2 2.440592 1_455
Cr0 S7 2.450684 1_546
Cr0 S6 2.452824 1_555
Cr1 S18 2.388176 1_555
Cr1 S11 2.388176 1_555
Cr1 S9 2.443588 1_555
Cr1 S0 2.443588 1_555
Cr1 S4 2.451025 1_555
Cr1 S5 2.451025 1_555
Cr2 S14 2.381587 1_554
Cr2 S16 2.387036 1_565
Cr2 S8 2.438860 1_655
Cr2 S7 2.440592 1_655
Cr2 S2 2.450684 1_564
Cr2 S3 2.452824 1_555
Cr3 S14 2.251274 1_454
Cr3 S19 2.279426 1_554
Cr3 S15 2.283148 1_555
Cr3 S8 2.426806 1_555
Cr3 S7 2.467612 1_555
Cr3 S4 2.500481 1_555
Cr4 S12 2.253781 1_555
Cr4 S17 2.283013 1_545
Cr4 S18 2.292648 1_545
Cr4 S6 2.461985 1_555
Cr4 S5 2.463320 1_555
Cr4 S2 2.513526 1_555
Cr5 S10 2.256821 1_555
Cr5 S15 2.292367 1_655
Cr5 S16 2.295739 1_555
Cr5 S8 2.463181 1_655
Cr5 S9 2.478827 1_555
Cr5 S0 2.492498 1_655
Cr6 S13 2.254740 1_555
Cr6 S19 2.280208 1_555
Cr6 S18 2.285860 1_555
Cr6 S6 2.435421 1_565
Cr6 S7 2.479123 1_556
Cr6 S3 2.494594 1_556
Cr7 S11 2.254037 1_555
Cr7 S17 2.275044 1_545
Cr7 S16 2.288746 1_555
Cr7 S5 2.429316 1_555
Cr7 S9 2.440711 1_555
Cr7 S1 2.500631 1_555
Cr8 S19 2.256821 1_555
Cr8 S14 2.292367 1_455
Cr8 S13 2.295739 1_555
Cr8 S1 2.463181 1_455
Cr8 S0 2.478827 1_555
Cr8 S9 2.492498 1_455
Cr9 S17 2.253781 1_555
Cr9 S12 2.283013 1_565
Cr9 S11 2.292648 1_565
Cr9 S3 2.461985 1_555
Cr9 S4 2.463320 1_555
Cr9 S7 2.513526 1_555
Cr10 S15 2.251274 1_656
Cr10 S10 2.279426 1_556
Cr10 S14 2.283148 1_555
Cr10 S1 2.426806 1_555
Cr10 S2 2.467612 1_555
Cr10 S5 2.500481 1_555
Cr11 S18 2.254037 1_555
Cr11 S12 2.275044 1_565
Cr11 S13 2.288746 1_555
Cr11 S4 2.429316 1_555
Cr11 S0 2.440711 1_555
Cr11 S8 2.500631 1_555
Cr12 S16 2.254740 1_555
Cr12 S10 2.280208 1_555
Cr12 S11 2.285860 1_555
Cr12 S3 2.435421 1_545
Cr12 S2 2.479123 1_554
Cr12 S6 2.494594 1_554
