# generated using pymatgen
data_Sn2GeTe3
_symmetry_space_group_name_H-M   'P 1'
_cell_length_a   4.42633067
_cell_length_b   4.42633067
_cell_length_c   10.98346400
_cell_angle_alpha   90.00000000
_cell_angle_beta   90.00000000
_cell_angle_gamma   120.00001002
_symmetry_Int_Tables_number   1
_chemical_formula_structural   Sn2GeTe3
_chemical_formula_sum   'Sn2 Ge1 Te3'
_cell_volume   186.36211416
_cell_formula_units_Z   1
loop_
 _symmetry_equiv_pos_site_id
 _symmetry_equiv_pos_as_xyz
  1  'x, y, z'
loop_
 _atom_site_type_symbol
 _atom_site_label
 _atom_site_symmetry_multiplicity
 _atom_site_fract_x
 _atom_site_fract_y
 _atom_site_fract_z
 _atom_site_occupancy
  Sn  Sn0  1  0.33333300  0.66666700  0.82713500  1
  Sn  Sn1  1  0.66666700  0.33333300  0.17286500  1
  Ge  Ge0  1  0.00000000  0.00000000  0.50000000  1
  Te  Te0  1  0.33333300  0.66666700  0.34809200  1
  Te  Te1  1  0.66666700  0.33333300  0.65190800  1
  Te  Te2  1  0.00000000  0.00000000  0.00000000  1
loop_
_geom_bond_atom_site_label_1
_geom_bond_atom_site_label_2
_geom_bond_distance
_geom_bond_site_symmetry_2
Sn0 Te2 3.183659 1_566
Sn0 Te2 3.183662 1_666
Sn0 Te2 3.183662 1_556
Sn0 Te1 3.199198 1_455
Sn0 Te1 3.199198 1_565
Sn0 Te1 3.199205 1_555
Sn1 Te2 3.183659 1_655
Sn1 Te2 3.183662 1_555
Sn1 Te2 3.183662 1_665
Sn1 Te0 3.199198 1_545
Sn1 Te0 3.199198 1_655
Sn1 Te0 3.199205 1_555
Ge0 Te0 3.051983 1_545
Ge0 Te1 3.051983 1_455
Ge0 Te1 3.051986 1_555
Ge0 Te0 3.051986 1_555
Ge0 Te0 3.051986 1_445
Ge0 Te1 3.051986 1_445
