# generated using pymatgen
data_Tb2Fe17N2
_symmetry_space_group_name_H-M   'P 1'
_cell_length_a   6.45495037
_cell_length_b   6.45495037
_cell_length_c   6.51782990
_cell_angle_alpha   83.56858471
_cell_angle_beta   83.56858471
_cell_angle_gamma   82.82082178
_symmetry_Int_Tables_number   1
_chemical_formula_structural   Tb2Fe17N2
_chemical_formula_sum   'Tb2 Fe17 N2'
_cell_volume   266.42317513
_cell_formula_units_Z   1
loop_
 _symmetry_equiv_pos_site_id
 _symmetry_equiv_pos_as_xyz
  1  'x, y, z'
loop_
 _atom_site_type_symbol
 _atom_site_label
 _atom_site_symmetry_multiplicity
 _atom_site_fract_x
 _atom_site_fract_y
 _atom_site_fract_z
 _atom_site_occupancy
  Tb  Tb0  1  0.34095600  0.34095600  0.34401100  1
  Tb  Tb1  1  0.65904400  0.65904400  0.65598900  1
  Fe  Fe0  1  0.65538800  0.65538800  0.14486000  1
  Fe  Fe1  1  0.65491200  0.14710000  0.66037500  1
  Fe  Fe2  1  0.14710000  0.65491200  0.66037500  1
  Fe  Fe3  1  0.34461200  0.34461200  0.85514000  1
  Fe  Fe4  1  0.34508800  0.85290000  0.33962500  1
  Fe  Fe5  1  0.85290000  0.34508800  0.33962500  1
  Fe  Fe6  1  0.70874100  0.29125900  0.00000000  1
  Fe  Fe7  1  0.28361000  0.99809800  0.71770800  1
  Fe  Fe8  1  0.00190200  0.71639000  0.28229200  1
  Fe  Fe9  1  0.71639000  0.00190200  0.28229200  1
  Fe  Fe10  1  0.99809800  0.28361000  0.71770800  1
  Fe  Fe11  1  0.29125900  0.70874100  0.00000000  1
  Fe  Fe12  1  0.00000000  0.00000000  0.50000000  1
  Fe  Fe13  1  0.00000000  0.50000000  0.00000000  1
  Fe  Fe14  1  0.50000000  0.00000000  0.00000000  1
  Fe  Fe15  1  0.09573900  0.09573900  0.09508500  1
  Fe  Fe16  1  0.90426100  0.90426100  0.90491500  1
  N  N0  1  0.50000000  0.00000000  0.50000000  1
  N  N1  1  0.00000000  0.50000000  0.50000000  1
loop_
_geom_bond_atom_site_label_1
_geom_bond_atom_site_label_2
_geom_bond_distance
_geom_bond_site_symmetry_2
Fe0 Fe13 2.455540 1_655
Fe0 Fe14 2.455540 1_565
Fe0 Fe5 2.530516 1_555
Fe0 Fe4 2.530516 1_555
Fe0 Fe9 2.590060 1_565
Fe0 Fe8 2.590060 1_655
Fe0 Fe6 2.599348 1_555
Fe0 Fe11 2.599348 1_555
Fe0 Fe16 2.669578 1_554
Fe0 Tb0 3.126181 1_555
Fe0 Tb1 3.181284 1_554
Fe0 Tb1 3.336922 1_555
Fe1 N0 1.920410 1_555
Fe1 Fe14 2.464173 1_556
Fe1 Fe12 2.475516 1_655
Fe1 Fe3 2.530516 1_555
Fe1 Fe6 2.569305 1_556
Fe1 Fe16 2.640554 1_545
Fe2 N1 1.920410 1_555
Fe2 Fe3 2.530516 1_555
Fe3 Fe7 2.590060 1_545
Fe3 Fe6 2.599348 1_556
Fe3 Tb1 3.126181 1_555
Fe3 Tb0 3.181284 1_556
Fe3 Tb0 3.336922 1_555
Fe4 N0 1.920410 1_565
Fe5 N1 1.920410 1_655
Fe5 Fe6 2.569305 1_555
Fe6 Fe9 2.470590 1_555
Fe6 Tb0 3.089450 1_555
Fe6 Tb1 3.089450 1_554
Fe7 N0 1.876442 1_565
Fe8 N1 1.876442 1_555
Fe9 N0 1.876442 1_555
Fe10 N1 1.876442 1_655
Fe10 Fe13 2.433435 1_656
Fe10 Fe12 2.436704 1_655
Fe10 Fe6 2.470590 1_556
Fe10 Fe3 2.590060 1_655
Fe10 Fe16 2.718005 1_545
Fe10 Fe15 2.721381 1_656
Fe11 Fe13 2.446083 1_555
Fe11 Fe14 2.446083 1_565
Fe11 Fe7 2.470590 1_554
Fe11 Fe8 2.470590 1_555
Fe11 Fe4 2.569305 1_555
Fe11 Fe2 2.569305 1_554
Fe11 Fe3 2.599348 1_554
Fe11 Fe15 2.756951 1_565
Fe11 Fe16 2.756951 1_454
Fe11 Tb0 3.089450 1_555
Fe11 Tb1 3.089450 1_554
Fe12 Fe7 2.436704 1_545
Fe12 Fe8 2.436704 1_545
Fe12 Fe9 2.436704 1_455
Fe12 Fe4 2.475516 1_545
Fe12 Fe5 2.475516 1_455
Fe12 Fe2 2.475516 1_545
Fe12 Fe16 2.663403 1_445
Fe12 Fe15 2.663403 1_555
Fe12 Tb1 3.305951 1_445
Fe12 Tb0 3.305951 1_555
Fe13 Fe8 2.433435 1_555
Fe13 Fe6 2.446083 1_455
Fe13 Fe3 2.455540 1_554
Fe13 Fe5 2.464173 1_455
Fe13 Fe2 2.464173 1_554
Fe13 Fe16 2.625993 1_454
Fe13 Fe15 2.625993 1_555
Fe13 Tb0 3.309123 1_555
Fe13 Tb1 3.309123 1_454
Fe14 Fe9 2.433435 1_555
Fe14 Fe7 2.433435 1_544
Fe14 Fe6 2.446083 1_555
Fe14 Fe3 2.455540 1_554
Fe14 Fe4 2.464173 1_545
Fe14 Fe16 2.625993 1_544
Fe14 Fe15 2.625993 1_555
Fe14 Tb0 3.309123 1_555
Fe14 Tb1 3.309123 1_544
Fe15 Fe16 2.379053 1_444
Fe15 Fe5 2.640554 1_455
Fe15 Fe4 2.640554 1_545
Fe15 Fe3 2.669578 1_554
Fe15 Fe8 2.718005 1_545
Fe15 Fe9 2.718005 1_455
Fe15 Fe7 2.721381 1_544
Fe15 Fe6 2.756951 1_455
Fe15 Tb0 3.069230 1_555
Fe16 Fe2 2.640554 1_655
Fe16 Fe7 2.718005 1_655
Fe16 Fe8 2.721381 1_656
Fe16 Fe9 2.721381 1_566
Fe16 Fe6 2.756951 1_566
Fe16 Tb1 3.069230 1_555
N0 Tb1 2.469659 1_545
N0 Tb0 2.469659 1_555
N1 Tb1 2.469659 1_455
N1 Tb0 2.469659 1_555
