# generated using pymatgen
data_Li7Co5O12
_symmetry_space_group_name_H-M   'P 1'
_cell_length_a   5.07275000
_cell_length_b   5.77761239
_cell_length_c   7.64622877
_cell_angle_alpha   100.34891381
_cell_angle_beta   95.78842686
_cell_angle_gamma   107.22383146
_symmetry_Int_Tables_number   1
_chemical_formula_structural   Li7Co5O12
_chemical_formula_sum   'Li7 Co5 O12'
_cell_volume   207.71763940
_cell_formula_units_Z   1
loop_
 _symmetry_equiv_pos_site_id
 _symmetry_equiv_pos_as_xyz
  1  'x, y, z'
loop_
 _atom_site_type_symbol
 _atom_site_label
 _atom_site_symmetry_multiplicity
 _atom_site_fract_x
 _atom_site_fract_y
 _atom_site_fract_z
 _atom_site_occupancy
  Li  Li0  1  0.50862600  0.08851700  0.84010400  1
  Li  Li1  1  0.49697200  0.58226100  0.83798000  1
  Li  Li2  1  0.49708700  0.24960500  0.50097000  1
  Li  Li3  1  0.50291300  0.75039500  0.49903000  1
  Li  Li4  1  0.50302800  0.41773900  0.16202000  1
  Li  Li5  1  0.49137400  0.91148300  0.15989600  1
  Li  Li6  1  0.00000000  0.50000000  0.00000000  1
  Co  Co0  1  0.00000000  0.00000000  0.00000000  1
  Co  Co1  1  0.00213900  0.17091100  0.67502900  1
  Co  Co2  1  0.00036500  0.66447200  0.67239500  1
  Co  Co3  1  0.99963500  0.33552800  0.32760500  1
  Co  Co4  1  0.99786100  0.82908900  0.32497100  1
  O  O0  1  0.21919000  0.80412400  0.91487300  1
  O  O1  1  0.22489300  0.26606400  0.91032000  1
  O  O2  1  0.21235800  0.95024600  0.57410600  1
  O  O3  1  0.23110800  0.44382700  0.58827700  1
  O  O4  1  0.22423500  0.10595800  0.23741000  1
  O  O5  1  0.23225100  0.62922600  0.26245500  1
  O  O6  1  0.76774900  0.37077400  0.73754500  1
  O  O7  1  0.77576500  0.89404200  0.76259000  1
  O  O8  1  0.76889200  0.55617300  0.41172300  1
  O  O9  1  0.78764200  0.04975400  0.42589400  1
  O  O10  1  0.77510700  0.73393600  0.08968000  1
  O  O11  1  0.78081000  0.19587600  0.08512700  1
loop_
_geom_bond_atom_site_label_1
_geom_bond_atom_site_label_2
_geom_bond_distance
_geom_bond_site_symmetry_2
Li0 O1 2.060212 1_555
Li0 O0 2.064098 1_545
Li0 O7 2.067509 1_545
Li0 O11 2.086781 1_556
Li0 O6 2.097646 1_555
Li0 O2 2.263228 1_545
Li1 O3 2.096928 1_555
Li1 O1 2.138255 1_555
Li1 O10 2.139308 1_556
Li1 O7 2.146178 1_555
Li1 O6 2.199791 1_555
Li1 O0 2.222707 1_555
Li2 O6 2.030316 1_555
Li2 O3 2.081942 1_555
Li2 O2 2.102699 1_545
Li2 O8 2.163745 1_555
Li2 O9 2.185311 1_555
Li2 O4 2.195886 1_555
Li3 O5 2.030316 1_555
Li3 O8 2.081942 1_555
Li3 O9 2.102699 1_565
Li3 O3 2.163745 1_555
Li3 O2 2.185311 1_555
Li3 O7 2.195886 1_555
Li4 O8 2.096928 1_555
Li4 O10 2.138255 1_555
Li4 O1 2.139308 1_554
Li4 O4 2.146178 1_555
Li4 O5 2.199791 1_555
Li4 O11 2.222707 1_555
Li5 O10 2.060212 1_555
Li5 O11 2.064098 1_565
Li5 O4 2.067509 1_565
Li5 O0 2.086781 1_554
Li5 O5 2.097646 1_555
Li5 O9 2.263228 1_565
Li6 O11 2.036493 1_455
Li6 O0 2.036493 1_554
Li6 O10 2.082413 1_455
Li6 O1 2.082413 1_554
Li6 O5 2.106310 1_555
Li6 O6 2.106310 1_454
Co0 O11 1.888715 1_455
Co0 O0 1.888715 1_544
Co0 O1 1.905957 1_554
Co0 O10 1.905957 1_445
Co0 O4 1.932813 1_555
Co0 O7 1.932813 1_444
Co1 O1 1.918982 1_555
Co1 O6 1.924849 1_455
Co1 O3 1.929244 1_555
Co1 O7 1.943656 1_445
Co1 O9 1.988591 1_455
Co1 O2 1.993928 1_545
Co2 O6 1.938149 1_455
Co2 O0 1.958998 1_555
Co2 O2 2.001177 1_555
Co2 O3 2.037111 1_555
Co2 O7 2.063431 1_455
Co2 O8 2.094681 1_455
Co3 O5 1.938149 1_655
Co3 O11 1.958998 1_555
Co3 O9 2.001177 1_555
Co3 O8 2.037111 1_555
Co3 O4 2.063431 1_655
Co3 O3 2.094681 1_655
Co4 O10 1.918982 1_555
Co4 O5 1.924849 1_655
Co4 O8 1.929244 1_555
Co4 O4 1.943656 1_665
Co4 O2 1.988591 1_655
Co4 O9 1.993928 1_565
