# generated using pymatgen
data_CoGe(OF)6
_symmetry_space_group_name_H-M   'P 1'
_cell_length_a   8.71621000
_cell_length_b   6.02305400
_cell_length_c   7.68982665
_cell_angle_alpha   75.07719700
_cell_angle_beta   90.00000000
_cell_angle_gamma   90.00000000
_symmetry_Int_Tables_number   1
_chemical_formula_structural   CoGe(OF)6
_chemical_formula_sum   'Co2 Ge2 O12 F12'
_cell_volume   390.08669369
_cell_formula_units_Z   2
loop_
 _symmetry_equiv_pos_site_id
 _symmetry_equiv_pos_as_xyz
  1  'x, y, z'
loop_
 _atom_site_type_symbol
 _atom_site_label
 _atom_site_symmetry_multiplicity
 _atom_site_fract_x
 _atom_site_fract_y
 _atom_site_fract_z
 _atom_site_occupancy
  Co  Co0  1  0.50000000  0.50000000  0.00000000  1
  Co  Co1  1  0.00000000  0.50000000  0.50000000  1
  Ge  Ge0  1  0.50000000  0.00000000  0.50000000  1
  Ge  Ge1  1  0.00000000  0.00000000  0.00000000  1
  O  O0  1  0.52636700  0.44065700  0.78477200  1
  O  O1  1  0.02636700  0.55934300  0.71522800  1
  O  O2  1  0.47363300  0.55934300  0.21522800  1
  O  O3  1  0.97363300  0.44065700  0.28477200  1
  O  O4  1  0.66198800  0.32980100  0.09415400  1
  O  O5  1  0.16198800  0.67019900  0.40584600  1
  O  O6  1  0.33801200  0.67019900  0.90584600  1
  O  O7  1  0.83801200  0.32980100  0.59415400  1
  O  O8  1  0.61331500  0.75828400  0.96601100  1
  O  O9  1  0.11331500  0.24171600  0.53398900  1
  O  O10  1  0.38668500  0.24171600  0.03398900  1
  O  O11  1  0.88668500  0.75828400  0.46601100  1
  F  F0  1  0.33299700  0.83232300  0.60802100  1
  F  F1  1  0.83299700  0.16767700  0.89197900  1
  F  F2  1  0.66700300  0.16767700  0.39197900  1
  F  F3  1  0.16700300  0.83232300  0.10802100  1
  F  F4  1  0.61236800  0.73409600  0.54184500  1
  F  F5  1  0.11236800  0.26590400  0.95815500  1
  F  F6  1  0.38763200  0.26590400  0.45815500  1
  F  F7  1  0.88763200  0.73409600  0.04184500  1
  F  F8  1  0.55865100  0.04045000  0.71728600  1
  F  F9  1  0.05865100  0.95955000  0.78271400  1
  F  F10  1  0.44134900  0.95955000  0.28271400  1
  F  F11  1  0.94134900  0.04045000  0.21728600  1
loop_
_geom_bond_atom_site_label_1
_geom_bond_atom_site_label_2
_geom_bond_distance
_geom_bond_site_symmetry_2
Co0 O4 1.785032 1_555
Co0 O6 1.785032 1_554
Co0 O2 1.795687 1_555
Co0 O0 1.795687 1_554
Co0 O8 1.804018 1_554
Co0 O10 1.804018 1_555
Co1 O5 1.785032 1_555
Co1 O7 1.785032 1_455
Co1 O1 1.795687 1_555
Co1 O3 1.795687 1_455
Co1 O11 1.804018 1_455
Co1 O9 1.804018 1_555
F0 Ge0 1.843029 1_565
F1 Ge1 1.843029 1_656
F2 Ge0 1.843029 1_555
F3 Ge1 1.843029 1_565
F4 Ge0 1.833675 1_565
F5 Ge1 1.833675 1_556
F6 Ge0 1.833675 1_555
F7 Ge1 1.833675 1_665
F8 Ge0 1.822701 1_555
F9 Ge1 1.822701 1_566
F10 Ge0 1.822701 1_565
F11 Ge1 1.822701 1_655
