# generated using pymatgen
data_Mg14GaCu
_symmetry_space_group_name_H-M   'P 1'
_cell_length_a   6.22726084
_cell_length_b   6.27553593
_cell_length_c   10.17697604
_cell_angle_alpha   90.00000000
_cell_angle_beta   90.00000000
_cell_angle_gamma   120.25677953
_symmetry_Int_Tables_number   1
_chemical_formula_structural   Mg14GaCu
_chemical_formula_sum   'Mg14 Ga1 Cu1'
_cell_volume   343.53240318
_cell_formula_units_Z   1
loop_
 _symmetry_equiv_pos_site_id
 _symmetry_equiv_pos_as_xyz
  1  'x, y, z'
loop_
 _atom_site_type_symbol
 _atom_site_label
 _atom_site_symmetry_multiplicity
 _atom_site_fract_x
 _atom_site_fract_y
 _atom_site_fract_z
 _atom_site_occupancy
  Mg  Mg0  1  0.16936865  0.33468383  0.62500000  1
  Mg  Mg1  1  0.17030557  0.83515228  0.62500000  1
  Mg  Mg2  1  0.67859916  0.33972392  0.12500000  1
  Mg  Mg3  1  0.66560610  0.33200479  0.62500000  1
  Mg  Mg4  1  0.67859916  0.83887424  0.12500000  1
  Mg  Mg5  1  0.66560610  0.83360032  0.62500000  1
  Mg  Mg6  1  0.32596514  0.16511339  0.35697262  1
  Mg  Mg7  1  0.32596514  0.16511339  0.89302738  1
  Mg  Mg8  1  0.32596514  0.66085274  0.35697262  1
  Mg  Mg9  1  0.32596514  0.66085274  0.89302738  1
  Mg  Mg10  1  0.83897203  0.16948651  0.36767778  1
  Mg  Mg11  1  0.83897203  0.16948651  0.88232222  1
  Mg  Mg12  1  0.83574149  0.66787124  0.37260842  1
  Mg  Mg13  1  0.83574149  0.66787124  0.87739158  1
  Ga  Ga0  1  0.16040661  0.83020281  0.12500000  1
  Cu  Cu0  1  0.15822105  0.32911003  0.12500000  1
loop_
_geom_bond_atom_site_label_1
_geom_bond_atom_site_label_2
_geom_bond_distance
_geom_bond_site_symmetry_2
Mg0 Mg5 3.098705 1_555
Mg0 Mg3 3.098705 1_555
Mg0 Mg5 3.128623 1_445
Mg0 Mg3 3.128623 1_455
Mg0 Mg1 3.137772 1_555
Mg0 Mg1 3.137772 1_545
Mg0 Mg10 3.164857 1_455
Mg0 Mg11 3.164857 1_455
Mg0 Mg6 3.251079 1_555
Mg0 Mg7 3.251079 1_555
Mg0 Mg8 3.251085 1_555
Mg0 Mg9 3.251085 1_555
Mg1 Mg3 3.089284 1_565
Mg1 Mg5 3.089284 1_555
Mg1 Mg12 3.136272 1_455
Mg1 Mg13 3.136272 1_455
Mg1 Mg3 3.137999 1_455
Mg1 Mg5 3.137999 1_455
Mg1 Mg8 3.262659 1_555
Mg1 Mg9 3.262659 1_555
Mg1 Mg6 3.262665 1_565
Mg1 Mg7 3.262665 1_565
Mg2 Mg7 3.028409 1_554
Mg2 Mg6 3.028409 1_555
Mg2 Mg4 3.132436 1_555
Mg2 Mg4 3.143100 1_545
Mg3 Mg5 3.127755 1_545
Mg3 Mg5 3.147781 1_555
Mg3 Mg6 3.283039 1_555
Mg3 Mg7 3.283039 1_555
Mg4 Mg9 3.028409 1_554
Mg4 Mg8 3.028409 1_555
Mg5 Mg8 3.283039 1_555
Mg5 Mg9 3.283039 1_555
Mg10 Mg8 3.048501 1_655
Mg10 Mg6 3.048501 1_655
Mg10 Mg2 3.051793 1_555
Mg10 Mg4 3.051800 1_545
Mg10 Mg12 3.138217 1_545
Mg10 Mg12 3.138217 1_555
Mg10 Mg8 3.182753 1_545
Mg10 Mg6 3.182753 1_555
Mg10 Mg3 3.189548 1_555
Mg10 Mg5 3.189554 1_545
Mg11 Mg9 3.048501 1_655
Mg11 Mg7 3.048501 1_655
Mg11 Mg2 3.051793 1_556
Mg11 Mg4 3.051800 1_546
Mg11 Mg13 3.138217 1_545
Mg11 Mg13 3.138217 1_555
Mg11 Mg9 3.182753 1_545
Mg11 Mg7 3.182753 1_555
Mg11 Mg3 3.189548 1_555
Mg11 Mg5 3.189554 1_545
Mg12 Mg6 3.079293 1_665
Mg12 Mg8 3.079293 1_655
Mg12 Mg4 3.085030 1_555
Mg12 Mg2 3.085036 1_555
Mg12 Mg5 3.148370 1_555
Mg12 Mg3 3.148376 1_555
Mg12 Mg6 3.156560 1_555
Mg12 Mg8 3.156560 1_555
Mg13 Mg7 3.079293 1_665
Mg13 Mg9 3.079293 1_655
Mg13 Mg4 3.085030 1_556
Mg13 Mg2 3.085036 1_556
Mg13 Mg5 3.148370 1_555
Mg13 Mg3 3.148376 1_555
Mg13 Mg7 3.156560 1_555
Mg13 Mg9 3.156560 1_555
Ga0 Mg9 2.978227 1_554
Ga0 Mg8 2.978227 1_555
Ga0 Mg7 2.978233 1_564
Ga0 Mg6 2.978233 1_565
Ga0 Mg2 3.028125 1_455
Ga0 Mg4 3.028125 1_455
Ga0 Mg13 3.065892 1_454
Ga0 Mg12 3.065892 1_455
Ga0 Mg2 3.199845 1_565
Ga0 Mg4 3.199846 1_555
Cu0 Mg7 2.967661 1_554
Cu0 Mg6 2.967661 1_555
Cu0 Mg9 2.967668 1_554
Cu0 Mg8 2.967668 1_555
Cu0 Mg11 3.008058 1_454
Cu0 Mg10 3.008058 1_455
Cu0 Mg4 3.020840 1_445
Cu0 Mg2 3.020841 1_455
Cu0 Ga0 3.137790 1_555
Cu0 Ga0 3.137790 1_545
Cu0 Mg4 3.207484 1_555
Cu0 Mg2 3.207484 1_555
