# generated using pymatgen
data_Mg30TiAlO32
_symmetry_space_group_name_H-M   'P 1'
_cell_length_a   8.52953800
_cell_length_b   8.52953800
_cell_length_c   8.52311200
_cell_angle_alpha   90.00000000
_cell_angle_beta   90.00000000
_cell_angle_gamma   90.00000000
_symmetry_Int_Tables_number   1
_chemical_formula_structural   Mg30TiAlO32
_chemical_formula_sum   'Mg30 Ti1 Al1 O32'
_cell_volume   620.08212496
_cell_formula_units_Z   1
loop_
 _symmetry_equiv_pos_site_id
 _symmetry_equiv_pos_as_xyz
  1  'x, y, z'
loop_
 _atom_site_type_symbol
 _atom_site_label
 _atom_site_symmetry_multiplicity
 _atom_site_fract_x
 _atom_site_fract_y
 _atom_site_fract_z
 _atom_site_occupancy
  Mg  Mg0  1  0.50000000  0.00000000  0.00000000  1
  Mg  Mg1  1  0.50000000  0.00000000  0.50000000  1
  Mg  Mg2  1  0.00000000  0.50000000  0.00000000  1
  Mg  Mg3  1  0.00000000  0.50000000  0.50000000  1
  Mg  Mg4  1  0.50000000  0.50000000  0.00000000  1
  Mg  Mg5  1  0.50000000  0.50000000  0.50000000  1
  Mg  Mg6  1  0.25021000  0.00000000  0.25153800  1
  Mg  Mg7  1  0.25021000  0.00000000  0.74846200  1
  Mg  Mg8  1  0.74979000  0.00000000  0.25153800  1
  Mg  Mg9  1  0.74979000  0.00000000  0.74846200  1
  Mg  Mg10  1  0.25009400  0.50000000  0.25048100  1
  Mg  Mg11  1  0.25009400  0.50000000  0.74951900  1
  Mg  Mg12  1  0.74990600  0.50000000  0.25048100  1
  Mg  Mg13  1  0.74990600  0.50000000  0.74951900  1
  Mg  Mg14  1  0.00000000  0.25021000  0.25153800  1
  Mg  Mg15  1  0.00000000  0.25021000  0.74846200  1
  Mg  Mg16  1  0.50000000  0.25009400  0.25048100  1
  Mg  Mg17  1  0.50000000  0.25009400  0.74951900  1
  Mg  Mg18  1  0.00000000  0.74979000  0.25153800  1
  Mg  Mg19  1  0.00000000  0.74979000  0.74846200  1
  Mg  Mg20  1  0.50000000  0.74990600  0.25048100  1
  Mg  Mg21  1  0.50000000  0.74990600  0.74951900  1
  Mg  Mg22  1  0.25041000  0.25041000  0.00000000  1
  Mg  Mg23  1  0.25050500  0.25050500  0.50000000  1
  Mg  Mg24  1  0.74959000  0.25041000  0.00000000  1
  Mg  Mg25  1  0.74949500  0.25050500  0.50000000  1
  Mg  Mg26  1  0.25041000  0.74959000  0.00000000  1
  Mg  Mg27  1  0.25050500  0.74949500  0.50000000  1
  Mg  Mg28  1  0.74959000  0.74959000  0.00000000  1
  Mg  Mg29  1  0.74949500  0.74949500  0.50000000  1
  Ti  Ti0  1  0.00000000  0.00000000  0.50000000  1
  Al  Al0  1  0.00000000  0.00000000  0.00000000  1
  O  O0  1  0.00000000  0.23707300  0.00000000  1
  O  O1  1  0.00000000  0.25957400  0.50000000  1
  O  O2  1  0.50000000  0.24816100  0.00000000  1
  O  O3  1  0.50000000  0.25095200  0.50000000  1
  O  O4  1  0.00000000  0.76292700  0.00000000  1
  O  O5  1  0.00000000  0.74042600  0.50000000  1
  O  O6  1  0.50000000  0.75183900  0.00000000  1
  O  O7  1  0.50000000  0.74904800  0.50000000  1
  O  O8  1  0.24971800  0.24971800  0.24941600  1
  O  O9  1  0.24971800  0.24971800  0.75058400  1
  O  O10  1  0.75028200  0.24971800  0.24941600  1
  O  O11  1  0.75028200  0.24971800  0.75058400  1
  O  O12  1  0.24971800  0.75028200  0.24941600  1
  O  O13  1  0.24971800  0.75028200  0.75058400  1
  O  O14  1  0.75028200  0.75028200  0.24941600  1
  O  O15  1  0.75028200  0.75028200  0.75058400  1
  O  O16  1  0.00000000  0.00000000  0.22407900  1
  O  O17  1  0.00000000  0.00000000  0.77592100  1
  O  O18  1  0.50000000  0.00000000  0.24572600  1
  O  O19  1  0.50000000  0.00000000  0.75427400  1
  O  O20  1  0.00000000  0.50000000  0.24572600  1
  O  O21  1  0.00000000  0.50000000  0.75427400  1
  O  O22  1  0.50000000  0.50000000  0.24863400  1
  O  O23  1  0.50000000  0.50000000  0.75136600  1
  O  O24  1  0.23707300  0.00000000  0.00000000  1
  O  O25  1  0.25957400  0.00000000  0.50000000  1
  O  O26  1  0.76292700  0.00000000  0.00000000  1
  O  O27  1  0.74042600  0.00000000  0.50000000  1
  O  O28  1  0.24816100  0.50000000  0.00000000  1
  O  O29  1  0.25095200  0.50000000  0.50000000  1
  O  O30  1  0.75183900  0.50000000  0.00000000  1
  O  O31  1  0.74904800  0.50000000  0.50000000  1
loop_
_geom_bond_atom_site_label_1
_geom_bond_atom_site_label_2
_geom_bond_distance
_geom_bond_site_symmetry_2
Mg0 O18 2.094350 1_555
Mg0 O19 2.094350 1_554
Mg0 O6 2.116699 1_545
Mg0 O2 2.116699 1_555
Mg0 O26 2.242646 1_555
Mg0 O24 2.242646 1_555
Mg1 O25 2.050723 1_555
Mg1 O27 2.050723 1_555
Mg1 O7 2.140505 1_545
Mg1 O3 2.140505 1_555
Mg1 O18 2.167206 1_555
Mg1 O19 2.167206 1_555
Mg2 O21 2.094350 1_554
Mg2 O20 2.094350 1_555
Mg2 O30 2.116699 1_455
Mg2 O28 2.116699 1_555
Mg2 O4 2.242646 1_555
Mg2 O0 2.242646 1_555
Mg3 O1 2.050723 1_555
Mg3 O5 2.050723 1_555
Mg3 O31 2.140505 1_455
Mg3 O29 2.140505 1_555
Mg3 O21 2.167206 1_555
Mg3 O20 2.167206 1_555
Mg4 O22 2.119135 1_555
Mg4 O23 2.119135 1_554
Mg4 O30 2.148070 1_555
Mg4 O2 2.148070 1_555
Mg4 O28 2.148070 1_555
Mg4 O6 2.148070 1_555
Mg5 O3 2.124264 1_555
Mg5 O29 2.124264 1_555
Mg5 O7 2.124264 1_555
Mg5 O31 2.124264 1_555
Mg5 O22 2.142421 1_555
Mg5 O23 2.142421 1_555
Mg6 O25 2.119175 1_555
Mg6 O12 2.130060 1_545
Mg6 O8 2.130060 1_555
Mg6 O18 2.131169 1_555
Mg6 O24 2.146813 1_555
Mg6 O16 2.146970 1_555
Mg7 O25 2.119175 1_555
Mg7 O13 2.130060 1_545
Mg7 O9 2.130060 1_555
Mg7 O19 2.131169 1_555
Mg7 O24 2.146813 1_556
Mg7 O17 2.146970 1_555
Mg8 O27 2.119175 1_555
Mg8 O14 2.130060 1_545
Mg8 O10 2.130060 1_555
Mg8 O18 2.131169 1_555
Mg8 O26 2.146813 1_555
Mg8 O16 2.146970 1_655
Mg9 O27 2.119175 1_555
Mg9 O11 2.130060 1_555
Mg9 O15 2.130060 1_545
Mg9 O19 2.131169 1_555
Mg9 O26 2.146813 1_556
Mg9 O17 2.146970 1_655
Mg10 O29 2.126691 1_555
Mg10 O22 2.131641 1_555
Mg10 O20 2.133571 1_555
Mg10 O8 2.134812 1_555
Mg10 O12 2.134812 1_555
Mg10 O28 2.134941 1_555
Mg11 O29 2.126691 1_555
Mg11 O23 2.131641 1_555
Mg11 O21 2.133571 1_555
Mg11 O9 2.134812 1_555
Mg11 O13 2.134812 1_555
Mg11 O28 2.134941 1_556
Mg12 O31 2.126691 1_555
Mg12 O22 2.131641 1_555
Mg12 O20 2.133571 1_655
Mg12 O10 2.134812 1_555
Mg12 O14 2.134812 1_555
Mg12 O30 2.134941 1_555
Mg13 O31 2.126691 1_555
Mg13 O23 2.131641 1_555
Mg13 O21 2.133571 1_655
Mg13 O11 2.134812 1_555
Mg13 O15 2.134812 1_555
Mg13 O30 2.134941 1_556
Mg14 O1 2.119175 1_555
Mg14 O10 2.130060 1_455
Mg14 O8 2.130060 1_555
Mg14 O20 2.131169 1_555
Mg14 O0 2.146813 1_555
Mg14 O16 2.146970 1_555
Mg15 O1 2.119175 1_555
Mg15 O9 2.130060 1_555
Mg15 O11 2.130060 1_455
Mg15 O21 2.131169 1_555
Mg15 O0 2.146813 1_556
Mg15 O17 2.146970 1_555
Mg16 O3 2.126691 1_555
Mg16 O22 2.131641 1_555
Mg16 O18 2.133571 1_555
Mg16 O8 2.134812 1_555
Mg16 O10 2.134812 1_555
Mg16 O2 2.134941 1_555
Mg17 O3 2.126691 1_555
Mg17 O23 2.131641 1_555
Mg17 O19 2.133571 1_555
Mg17 O11 2.134812 1_555
Mg17 O9 2.134812 1_555
Mg17 O2 2.134941 1_556
Mg18 O5 2.119175 1_555
Mg18 O14 2.130060 1_455
Mg18 O12 2.130060 1_555
Mg18 O20 2.131169 1_555
Mg18 O4 2.146813 1_555
Mg18 O16 2.146970 1_565
Mg19 O5 2.119175 1_555
Mg19 O15 2.130060 1_455
Mg19 O13 2.130060 1_555
Mg19 O21 2.131169 1_555
Mg19 O4 2.146813 1_556
Mg19 O17 2.146970 1_565
Mg20 O7 2.126691 1_555
Mg20 O22 2.131641 1_555
Mg20 O18 2.133571 1_565
Mg20 O12 2.134812 1_555
Mg20 O14 2.134812 1_555
Mg20 O6 2.134941 1_555
Mg21 O7 2.126691 1_555
Mg21 O23 2.131641 1_555
Mg21 O19 2.133571 1_565
Mg21 O15 2.134812 1_555
Mg21 O13 2.134812 1_555
Mg21 O6 2.134941 1_556
Mg22 O9 2.125817 1_554
Mg22 O8 2.125817 1_555
Mg22 O2 2.128974 1_555
Mg22 O28 2.128974 1_555
Mg22 O0 2.138909 1_555
Mg22 O24 2.138909 1_555
Mg23 O3 2.128080 1_555
Mg23 O29 2.128080 1_555
Mg23 O8 2.135777 1_555
Mg23 O9 2.135777 1_555
Mg23 O1 2.138092 1_555
Mg23 O25 2.138092 1_555
Mg24 O11 2.125817 1_554
Mg24 O10 2.125817 1_555
Mg24 O30 2.128974 1_555
Mg24 O2 2.128974 1_555
Mg24 O26 2.138909 1_555
Mg24 O0 2.138909 1_655
Mg25 O31 2.128080 1_555
Mg25 O3 2.128080 1_555
Mg25 O10 2.135777 1_555
Mg25 O11 2.135777 1_555
Mg25 O1 2.138092 1_655
Mg25 O27 2.138092 1_555
Mg26 O13 2.125817 1_554
Mg26 O12 2.125817 1_555
Mg26 O28 2.128974 1_555
Mg26 O6 2.128974 1_555
Mg26 O24 2.138909 1_565
Mg26 O4 2.138909 1_555
Mg27 O29 2.128080 1_555
Mg27 O7 2.128080 1_555
Mg27 O13 2.135777 1_555
Mg27 O12 2.135777 1_555
Mg27 O25 2.138092 1_565
Mg27 O5 2.138092 1_555
Mg28 O15 2.125817 1_554
Mg28 O14 2.125817 1_555
Mg28 O30 2.128974 1_555
Mg28 O6 2.128974 1_555
Mg28 O26 2.138909 1_565
Mg28 O4 2.138909 1_655
Mg29 O31 2.128080 1_555
Mg29 O7 2.128080 1_555
Mg29 O14 2.135777 1_555
Mg29 O15 2.135777 1_555
Mg29 O5 2.138092 1_655
Mg29 O27 2.138092 1_565
Al0 O16 1.909850 1_555
Al0 O17 1.909850 1_554
Al0 O24 2.022123 1_555
Al0 O4 2.022123 1_545
Al0 O0 2.022123 1_555
Al0 O26 2.022123 1_455
O1 Ti0 2.214046 1_555
O5 Ti0 2.214046 1_565
O16 Ti0 2.351706 1_555
O17 Ti0 2.351706 1_555
O25 Ti0 2.214046 1_555
O27 Ti0 2.214046 1_655
