# generated using pymatgen
data_BaMgAl3P2(HO7)2
_symmetry_space_group_name_H-M   'P 1'
_cell_length_a   7.09919354
_cell_length_b   7.09640506
_cell_length_c   7.03007466
_cell_angle_alpha   61.19799540
_cell_angle_beta   118.78575465
_cell_angle_gamma   121.00555639
_symmetry_Int_Tables_number   1
_chemical_formula_structural   BaMgAl3P2(HO7)2
_chemical_formula_sum   'Ba1 Mg1 Al3 P2 H2 O14'
_cell_volume   252.84350923
_cell_formula_units_Z   1
loop_
 _symmetry_equiv_pos_site_id
 _symmetry_equiv_pos_as_xyz
  1  'x, y, z'
loop_
 _atom_site_type_symbol
 _atom_site_label
 _atom_site_symmetry_multiplicity
 _atom_site_fract_x
 _atom_site_fract_y
 _atom_site_fract_z
 _atom_site_occupancy
  Ba  Ba0  1  0.00189800  0.00089300  0.00152500  1
  Mg  Mg0  1  0.40344500  0.40313500  0.50153800  1
  Al  Al0  1  0.99238600  0.99067100  0.50164000  1
  Al  Al1  1  0.49782200  0.00108100  0.50439600  1
  Al  Al2  1  0.00225300  0.49612100  0.49899200  1
  P  P0  1  0.29682500  0.69561000  0.91431900  1
  P  P1  1  0.69709200  0.29529400  0.08898500  1
  H  H0  1  0.30813500  0.72301900  0.29441200  1
  H  H1  1  0.72254800  0.30708200  0.70791500  1
  O  O0  1  0.37684300  0.61102100  0.17566200  1
  O  O1  1  0.61233400  0.37551500  0.82755100  1
  O  O2  1  0.14740000  0.84068500  0.82456000  1
  O  O3  1  0.84211300  0.14599400  0.17856700  1
  O  O4  1  0.14903400  0.48920300  0.81515700  1
  O  O5  1  0.50657600  0.85126000  0.81979500  1
  O  O6  1  0.49086800  0.14741900  0.18834300  1
  O  O7  1  0.85273600  0.50505400  0.18348700  1
  O  O8  1  0.29289700  0.71481000  0.43230400  1
  O  O9  1  0.71634500  0.29115500  0.57129800  1
  O  O10  1  0.74935600  0.92323000  0.58356000  1
  O  O11  1  0.09237700  0.25646500  0.57331900  1
  O  O12  1  0.92465300  0.74786600  0.41929100  1
  O  O13  1  0.25816300  0.09127900  0.42981100  1
loop_
_geom_bond_atom_site_label_1
_geom_bond_atom_site_label_2
_geom_bond_distance
_geom_bond_site_symmetry_2
Ba0 O12 2.757831 1_445
Ba0 O10 2.760578 1_444
Ba0 O3 2.773809 1_455
Ba0 O2 2.778057 1_544
Ba0 O4 2.833692 1_554
Ba0 O6 2.839461 1_555
Ba0 O11 2.857480 1_554
Ba0 O13 2.858306 1_555
Ba0 O5 2.873765 1_444
Ba0 O7 2.875325 1_445
Mg0 O0 2.018460 1_555
Mg0 O1 2.020812 1_555
Mg0 O11 2.100911 1_555
Mg0 O13 2.106775 1_555
Al0 O12 1.837043 1_555
Al0 O10 1.837957 1_555
Al0 O13 1.872727 1_665
Al0 O11 1.872815 1_665
Al0 O2 1.992486 1_655
Al0 O3 1.994294 1_565
Al1 O13 1.875835 1_555
Al1 O10 1.888554 1_545
Al1 O5 1.927283 1_545
Al1 O8 1.933254 1_545
Al1 O6 1.934290 1_555
Al1 O9 1.950750 1_555
Al2 O11 1.875508 1_555
Al2 O12 1.887090 1_455
Al2 O7 1.927896 1_455
Al2 O9 1.932209 1_455
Al2 O4 1.935324 1_555
Al2 O8 1.953760 1_555
H0 O8 0.997448 1_555
H0 O0 1.731306 1_555
H1 O9 0.997934 1_555
H1 O1 1.724581 1_555
O0 P0 1.530372 1_554
O1 P1 1.530917 1_556
O2 P0 1.561367 1_555
O3 P1 1.560606 1_555
O4 P0 1.558359 1_555
O5 P0 1.558891 1_555
O6 P1 1.558283 1_555
O7 P1 1.558671 1_555
