# generated using pymatgen
data_V7(CuS6)2
_symmetry_space_group_name_H-M   'P 1'
_cell_length_a   6.65619800
_cell_length_b   6.70742887
_cell_length_c   8.02854629
_cell_angle_alpha   108.01552420
_cell_angle_beta   90.05983249
_cell_angle_gamma   106.54850921
_symmetry_Int_Tables_number   1
_chemical_formula_structural   V7(CuS6)2
_chemical_formula_sum   'V7 Cu2 S12'
_cell_volume   325.18393491
_cell_formula_units_Z   1
loop_
 _symmetry_equiv_pos_site_id
 _symmetry_equiv_pos_as_xyz
  1  'x, y, z'
loop_
 _atom_site_type_symbol
 _atom_site_label
 _atom_site_symmetry_multiplicity
 _atom_site_fract_x
 _atom_site_fract_y
 _atom_site_fract_z
 _atom_site_occupancy
  V  V0  1  0.05177600  0.35796900  0.84554400  1
  V  V1  1  0.71597100  0.02486100  0.51300900  1
  V  V2  1  0.38482800  0.68988700  0.18118100  1
  V  V3  1  0.61517200  0.31011300  0.81881900  1
  V  V4  1  0.28402900  0.97513900  0.48699100  1
  V  V5  1  0.94822400  0.64203100  0.15445600  1
  V  V6  1  0.00000000  0.00000000  0.00000000  1
  Cu  Cu0  1  0.66686400  0.66732700  0.66606500  1
  Cu  Cu1  1  0.33313600  0.33267300  0.33393500  1
  S  S0  1  0.85575900  0.40308800  0.62771700  1
  S  S1  1  0.52250200  0.06914700  0.29568800  1
  S  S2  1  0.18832800  0.73918900  0.96343000  1
  S  S3  1  0.81167200  0.26081100  0.03657000  1
  S  S4  1  0.47749800  0.93085300  0.70431200  1
  S  S5  1  0.14424100  0.59691200  0.37228300  1
  S  S6  1  0.31954100  0.29850000  0.01426000  1
  S  S7  1  0.99232800  0.96964100  0.68812400  1
  S  S8  1  0.65759600  0.63618800  0.35002700  1
  S  S9  1  0.34240400  0.36381200  0.64997300  1
  S  S10  1  0.00767200  0.03035900  0.31187600  1
  S  S11  1  0.68045900  0.70150000  0.98574000  1
loop_
_geom_bond_atom_site_label_1
_geom_bond_atom_site_label_2
_geom_bond_distance
_geom_bond_site_symmetry_2
Cu0 S4 2.396171 1_555
Cu0 S0 2.397841 1_555
Cu0 S7 2.472023 1_555
Cu0 S8 2.479916 1_555
Cu0 S9 2.481435 1_555
Cu0 S11 2.504316 1_555
Cu1 S1 2.396171 1_555
Cu1 S5 2.397841 1_555
Cu1 S10 2.472023 1_555
Cu1 S9 2.479916 1_555
Cu1 S8 2.481435 1_555
Cu1 S6 2.504316 1_555
S0 V3 2.309855 1_555
S0 V1 2.314796 1_555
S0 V0 2.323759 1_655
S1 V4 2.304366 1_545
S1 V1 2.307510 1_555
S1 V2 2.319455 1_545
S2 V5 2.315387 1_456
S2 V0 2.331846 1_555
S2 V2 2.339993 1_556
S2 V6 2.377007 1_566
S3 V0 2.315387 1_654
S3 V5 2.331846 1_555
S3 V3 2.339993 1_554
S3 V6 2.377007 1_655
S4 V1 2.304366 1_565
S4 V4 2.307510 1_555
S4 V3 2.319455 1_565
S5 V2 2.309855 1_555
S5 V4 2.314796 1_555
S5 V5 2.323759 1_455
S6 V0 2.429944 1_554
S6 V6 2.444884 1_555
S6 V2 2.459525 1_555
S6 V3 2.516953 1_554
S7 V0 2.431847 1_665
S7 V6 2.447871 1_666
S7 V1 2.490445 1_565
S7 V4 2.526151 1_655
S8 V2 2.435804 1_555
S8 V1 2.443657 1_565
S8 V5 2.492054 1_555
S9 V3 2.435804 1_555
S9 V4 2.443657 1_545
S9 V0 2.492054 1_555
S10 V5 2.431847 1_445
S10 V6 2.447871 1_555
S10 V4 2.490445 1_545
S10 V1 2.526151 1_455
S11 V5 2.429944 1_556
S11 V6 2.444884 1_666
S11 V3 2.459525 1_555
S11 V2 2.516953 1_556
