# generated using pymatgen
data_Na4FeO5
_symmetry_space_group_name_H-M   'P 1'
_cell_length_a   5.67801886
_cell_length_b   5.72605597
_cell_length_c   16.16354023
_cell_angle_alpha   95.17650994
_cell_angle_beta   95.35075835
_cell_angle_gamma   79.45123845
_symmetry_Int_Tables_number   1
_chemical_formula_structural   Na4FeO5
_chemical_formula_sum   'Na16 Fe4 O20'
_cell_volume   512.94822111
_cell_formula_units_Z   4
loop_
 _symmetry_equiv_pos_site_id
 _symmetry_equiv_pos_as_xyz
  1  'x, y, z'
loop_
 _atom_site_type_symbol
 _atom_site_label
 _atom_site_symmetry_multiplicity
 _atom_site_fract_x
 _atom_site_fract_y
 _atom_site_fract_z
 _atom_site_occupancy
  Na  Na0  1  0.70531000  0.50305400  0.69259100  1
  Na  Na1  1  0.95721400  0.74640600  0.44754600  1
  Na  Na2  1  0.44176800  0.24622200  0.94582400  1
  Na  Na3  1  0.18074200  0.98721500  0.20224700  1
  Na  Na4  1  0.59564100  0.01600500  0.59678800  1
  Na  Na5  1  0.83703300  0.24581100  0.34851000  1
  Na  Na6  1  0.34234400  0.76050800  0.84716500  1
  Na  Na7  1  0.09082000  0.50285600  0.10568100  1
  Na  Na8  1  0.90200100  0.48990500  0.89586300  1
  Na  Na9  1  0.15561900  0.74770700  0.64304400  1
  Na  Na10  1  0.64679300  0.22954000  0.15312200  1
  Na  Na11  1  0.40203200  0.99851000  0.39826200  1
  Na  Na12  1  0.80982600  0.00901800  0.79905800  1
  Na  Na13  1  0.06879700  0.26084600  0.54929700  1
  Na  Na14  1  0.55355700  0.74427000  0.05666000  1
  Na  Na15  1  0.29665600  0.49650300  0.30096000  1
  Fe  Fe0  1  0.27231400  0.28681900  0.73836100  1
  Fe  Fe1  1  0.52766600  0.53495200  0.48226200  1
  Fe  Fe2  1  0.99762100  0.99535500  0.00056600  1
  Fe  Fe3  1  0.72741400  0.72308100  0.26582800  1
  O  O0  1  0.36176200  0.36531800  0.64728400  1
  O  O1  1  0.62513000  0.62605800  0.37492500  1
  O  O2  1  0.09273500  0.09409400  0.90630300  1
  O  O3  1  0.90114000  0.89970700  0.09500500  1
  O  O4  1  0.51163600  0.36027800  0.81174400  1
  O  O5  1  0.77000300  0.62153300  0.55782700  1
  O  O6  1  0.25677300  0.10498800  0.06258300  1
  O  O7  1  0.99435700  0.85131600  0.31086000  1
  O  O8  1  0.42228500  0.96786700  0.73322600  1
  O  O9  1  0.68727700  0.21892800  0.48224100  1
  O  O10  1  0.18877600  0.69585100  0.98138700  1
  O  O11  1  0.92924700  0.44193000  0.23336100  1
  O  O12  1  0.06014900  0.54884100  0.76782800  1
  O  O13  1  0.32001500  0.80609900  0.51659500  1
  O  O14  1  0.80684700  0.29603400  0.01956700  1
  O  O15  1  0.55332600  0.03227600  0.26759100  1
  O  O16  1  0.01658800  0.13777500  0.69379700  1
  O  O17  1  0.26506900  0.39103200  0.44001200  1
  O  O18  1  0.73961700  0.88681200  0.93763400  1
  O  O19  1  0.48609900  0.62868100  0.19059300  1
loop_
_geom_bond_atom_site_label_1
_geom_bond_atom_site_label_2
_geom_bond_distance
_geom_bond_site_symmetry_2
Na0 O0 2.270703 1_555
Na0 O12 2.299105 1_655
Na0 O5 2.418087 1_555
Na0 O16 2.479199 1_655
Na0 O4 2.568114 1_555
Na0 O8 2.900532 1_555
Na1 O1 2.307625 1_555
Na1 O13 2.316505 1_655
Na1 O7 2.378920 1_555
Na1 O5 2.383340 1_555
Na1 O17 2.429763 1_655
Na1 O9 2.890073 1_565
Na2 O2 2.321644 1_555
Na2 O14 2.343807 1_556
Na2 O4 2.406515 1_555
Na2 O18 2.414801 1_545
Na2 O6 2.505035 1_556
Na2 O10 2.748692 1_555
Na3 O15 2.321976 1_565
Na3 O3 2.323252 1_455
Na3 O7 2.387911 1_455
Na3 O19 2.438075 1_555
Na3 O6 2.510053 1_565
Na3 O11 2.758215 1_465
Na4 O0 2.316340 1_555
Na4 O5 2.349381 1_545
Na4 O13 2.367130 1_545
Na4 O9 2.416212 1_555
Na4 O8 2.553858 1_545
Na4 O16 2.893364 1_655
Na5 O1 2.310741 1_555
Na5 O7 2.320656 1_545
Na5 O11 2.402827 1_555
Na5 O15 2.416682 1_555
Na5 O9 2.422782 1_555
Na5 O17 2.938259 1_655
Na6 O2 2.345842 1_565
Na6 O4 2.358630 1_555
Na6 O12 2.393370 1_555
Na6 O8 2.399032 1_555
Na6 O10 2.494010 1_555
Na6 O18 2.746080 1_555
Na7 O3 2.343818 1_455
Na7 O6 2.369276 1_555
Na7 O11 2.413024 1_455
Na7 O14 2.433699 1_455
Na7 O10 2.529998 1_554
Na7 O19 2.698010 1_555
Na8 O2 2.339721 1_655
Na8 O18 2.354390 1_555
Na8 O12 2.405541 1_655
Na8 O10 2.437643 1_655
Na8 O14 2.518704 1_556
Na8 O4 2.677814 1_555
Na9 O0 2.289701 1_555
Na9 O16 2.330121 1_565
Na9 O13 2.398729 1_555
Na9 O8 2.441778 1_555
Na9 O12 2.550097 1_555
Na9 O5 2.655267 1_455
Na10 O3 2.338648 1_545
Na10 O19 2.347896 1_555
Na10 O15 2.400124 1_555
Na10 O11 2.403083 1_555
Na10 O14 2.504366 1_555
Na10 O6 2.709240 1_555
Na11 O1 2.291302 1_555
Na11 O17 2.301324 1_565
Na11 O15 2.389402 1_565
Na11 O13 2.413158 1_555
Na11 O9 2.467381 1_565
Na11 O7 2.820283 1_455
Na12 O2 2.331824 1_655
Na12 O4 2.386973 1_555
Na12 O16 2.394237 1_655
Na12 O8 2.395358 1_545
Na12 O18 2.493420 1_545
Na12 O12 2.782218 1_645
Na13 O0 2.309859 1_555
Na13 O9 2.372901 1_455
Na13 O17 2.413896 1_555
Na13 O5 2.423250 1_455
Na13 O16 2.557793 1_555
Na13 O13 2.761648 1_545
Na14 O3 2.320953 1_555
Na14 O10 2.350866 1_554
Na14 O19 2.403602 1_555
Na14 O6 2.415599 1_565
Na14 O18 2.541996 1_554
Na14 O14 2.747180 1_555
Na15 O1 2.321390 1_555
Na15 O11 2.322823 1_455
Na15 O17 2.410034 1_555
Na15 O19 2.410781 1_555
Na15 O7 2.411486 1_455
Na15 O15 2.819625 1_555
Fe0 O0 1.723248 1_555
Fe0 O12 1.801509 1_555
Fe0 O4 1.802503 1_555
Fe0 O8 1.866525 1_545
Fe0 O16 1.871706 1_555
Fe1 O13 1.845259 1_555
Fe1 O5 1.859575 1_555
Fe1 O9 1.869589 1_555
Fe1 O17 1.878060 1_555
Fe1 O1 2.009113 1_555
Fe2 O3 1.829440 1_555
Fe2 O2 1.831246 1_664
Fe2 O10 1.870982 1_654
Fe2 O18 1.873085 1_554
Fe2 O6 1.874491 1_665
Fe2 O14 1.875028 1_565
Fe3 O11 1.861362 1_555
Fe3 O15 1.862210 1_565
Fe3 O7 1.863233 1_555
Fe3 O19 1.868214 1_555
Fe3 O1 2.059471 1_555
