# generated using pymatgen
data_KNbCl6
_symmetry_space_group_name_H-M   'P 1'
_cell_length_a   7.50744881
_cell_length_b   14.78284486
_cell_length_c   12.83757125
_cell_angle_alpha   29.72559891
_cell_angle_beta   54.21093120
_cell_angle_gamma   59.47935827
_symmetry_Int_Tables_number   1
_chemical_formula_structural   KNbCl6
_chemical_formula_sum   'K2 Nb2 Cl12'
_cell_volume   573.05390637
_cell_formula_units_Z   2
loop_
 _symmetry_equiv_pos_site_id
 _symmetry_equiv_pos_as_xyz
  1  'x, y, z'
loop_
 _atom_site_type_symbol
 _atom_site_label
 _atom_site_symmetry_multiplicity
 _atom_site_fract_x
 _atom_site_fract_y
 _atom_site_fract_z
 _atom_site_occupancy
  K  K0  1  0.29475100  0.00000000  0.28609800  1
  K  K1  1  0.13305400  0.50000000  0.28609800  1
  Nb  Nb0  1  0.00786100  0.00000000  0.00138400  1
  Nb  Nb1  1  0.98937200  0.50000000  0.00138400  1
  Cl  Cl0  1  0.21795100  0.27097100  0.23325200  1
  Cl  Cl1  1  0.76846400  0.00000000  0.23065100  1
  Cl  Cl2  1  0.22456800  0.23010800  0.77303500  1
  Cl  Cl3  1  0.22456800  0.76989200  0.23325000  1
  Cl  Cl4  1  0.76914800  0.26989200  0.23325000  1
  Cl  Cl5  1  0.22593700  0.50000000  0.77323700  1
  Cl  Cl6  1  0.77023300  0.50000000  0.23065100  1
  Cl  Cl7  1  0.21795100  0.72902900  0.77519400  1
  Cl  Cl8  1  0.77360300  0.22902900  0.77519400  1
  Cl  Cl9  1  0.77360300  0.77097100  0.23325200  1
  Cl  Cl10  1  0.22759000  0.00000000  0.77323700  1
  Cl  Cl11  1  0.76914800  0.73010800  0.77303500  1
loop_
_geom_bond_atom_site_label_1
_geom_bond_atom_site_label_2
_geom_bond_distance
_geom_bond_site_symmetry_2
Cl0 Nb1 2.416117 1_455
Cl0 K0 3.198479 1_555
Cl1 Nb0 2.388688 1_655
Cl1 K0 3.192755 1_555
Cl2 Nb0 2.352719 1_556
Cl3 Nb0 2.352713 1_565
Cl4 Nb1 2.352719 1_555
Cl5 Nb1 2.376654 1_456
Cl6 Nb1 2.388687 1_555
Cl6 K1 3.192770 1_655
Cl7 Nb1 2.416117 1_456
Cl7 K0 3.198479 1_565
Cl8 Nb0 2.416122 1_656
Cl8 K1 3.198482 1_655
Cl9 Nb0 2.416122 1_665
Cl9 K1 3.198482 1_655
Cl10 Nb0 2.376654 1_556
Cl11 Nb1 2.352713 1_556
