# generated using pymatgen
data_Mg14CuBiO16
_symmetry_space_group_name_H-M   'P 1'
_cell_length_a   8.73450442
_cell_length_b   8.70077501
_cell_length_c   4.37563892
_cell_angle_alpha   90.00000000
_cell_angle_beta   90.00000000
_cell_angle_gamma   90.00000000
_symmetry_Int_Tables_number   1
_chemical_formula_structural   Mg14CuBiO16
_chemical_formula_sum   'Mg14 Cu1 Bi1 O16'
_cell_volume   332.53524627
_cell_formula_units_Z   1
loop_
 _symmetry_equiv_pos_site_id
 _symmetry_equiv_pos_as_xyz
  1  'x, y, z'
loop_
 _atom_site_type_symbol
 _atom_site_label
 _atom_site_symmetry_multiplicity
 _atom_site_fract_x
 _atom_site_fract_y
 _atom_site_fract_z
 _atom_site_occupancy
  Mg  Mg0  1  0.50000000  0.00000000  0.00000000  1
  Mg  Mg1  1  0.50000000  0.50000000  0.00000000  1
  Mg  Mg2  1  -0.00000000  0.22968711  0.50000000  1
  Mg  Mg3  1  -0.00000000  0.77031289  0.50000000  1
  Mg  Mg4  1  0.50000000  0.24559109  0.50000000  1
  Mg  Mg5  1  0.50000000  0.75440891  0.50000000  1
  Mg  Mg6  1  0.24856773  0.00000000  0.50000000  1
  Mg  Mg7  1  0.26452101  0.50000000  0.50000000  1
  Mg  Mg8  1  0.75143227  0.00000000  0.50000000  1
  Mg  Mg9  1  0.73547899  0.50000000  0.50000000  1
  Mg  Mg10  1  0.25539907  0.23706387  -0.00000000  1
  Mg  Mg11  1  0.25539907  0.76293613  0.00000000  1
  Mg  Mg12  1  0.74460093  0.23706387  -0.00000000  1
  Mg  Mg13  1  0.74460093  0.76293613  0.00000000  1
  Cu  Cu0  1  -0.00000000  0.00000000  0.00000000  1
  Bi  Bi0  1  -0.00000000  0.50000000  0.00000000  1
  O  O0  1  0.27096381  0.00000000  -0.00000000  1
  O  O1  1  0.26782762  0.50000000  0.00000000  1
  O  O2  1  0.72903619  0.00000000  0.00000000  1
  O  O3  1  0.73217238  0.50000000  -0.00000000  1
  O  O4  1  0.24854633  0.25151270  0.50000000  1
  O  O5  1  0.24854633  0.74848730  0.50000000  1
  O  O6  1  0.75145367  0.25151270  0.50000000  1
  O  O7  1  0.75145367  0.74848730  0.50000000  1
  O  O8  1  -0.00000000  0.00000000  0.50000000  1
  O  O9  1  -0.00000000  0.50000000  0.50000000  1
  O  O10  1  0.50000000  0.00000000  0.50000000  1
  O  O11  1  0.50000000  0.50000000  0.50000000  1
  O  O12  1  -0.00000000  0.23659892  0.00000000  1
  O  O13  1  -0.00000000  0.76340108  -0.00000000  1
  O  O14  1  0.50000000  0.25167669  0.00000000  1
  O  O15  1  0.50000000  0.74832331  -0.00000000  1
loop_
_geom_bond_atom_site_label_1
_geom_bond_atom_site_label_2
_geom_bond_distance
_geom_bond_site_symmetry_2
Mg0 O2 2.000518 1_555
Mg0 O0 2.000518 1_555
Mg0 O10 2.187819 1_554
Mg0 O10 2.187819 1_555
Mg0 O14 2.189782 1_555
Mg0 O15 2.189782 1_545
Mg1 O3 2.027911 1_555
Mg1 O1 2.027911 1_555
Mg1 O15 2.160605 1_555
Mg1 O14 2.160605 1_555
Mg1 O11 2.187819 1_554
Mg1 O11 2.187819 1_555
Mg2 O8 1.998456 1_555
Mg2 O4 2.179219 1_555
Mg2 O6 2.179219 1_455
Mg2 O12 2.188646 1_556
Mg2 O12 2.188646 1_555
Mg2 O9 2.351932 1_555
Mg3 O8 1.998456 1_565
Mg3 O5 2.179219 1_555
Mg3 O7 2.179219 1_455
Mg3 O13 2.188646 1_555
Mg3 O13 2.188646 1_556
Mg3 O9 2.351932 1_555
Mg4 O10 2.136833 1_555
Mg4 O14 2.188460 1_556
Mg4 O14 2.188460 1_555
Mg4 O4 2.196927 1_555
Mg4 O6 2.196927 1_555
Mg4 O11 2.213555 1_555
Mg5 O10 2.136833 1_565
Mg5 O15 2.188460 1_556
Mg5 O15 2.188460 1_555
Mg5 O5 2.196927 1_555
Mg5 O7 2.196927 1_555
Mg5 O11 2.213555 1_555
Mg6 O8 2.171116 1_555
Mg6 O4 2.188355 1_555
Mg6 O5 2.188355 1_545
Mg6 O10 2.196136 1_555
Mg6 O0 2.196547 1_555
Mg6 O0 2.196547 1_556
Mg7 O11 2.056792 1_555
Mg7 O5 2.166530 1_555
Mg7 O4 2.166530 1_555
Mg7 O1 2.188010 1_555
Mg7 O1 2.188010 1_556
Mg7 O9 2.310460 1_555
Mg8 O8 2.171116 1_655
Mg8 O6 2.188355 1_555
Mg8 O7 2.188355 1_545
Mg8 O10 2.196136 1_555
Mg8 O2 2.196547 1_555
Mg8 O2 2.196547 1_556
Mg9 O11 2.056792 1_555
Mg9 O7 2.166530 1_555
Mg9 O6 2.166530 1_555
Mg9 O3 2.188010 1_556
Mg9 O3 2.188010 1_555
Mg9 O9 2.310460 1_655
Mg10 O0 2.067115 1_555
Mg10 O14 2.140248 1_555
Mg10 O4 2.192246 1_554
Mg10 O4 2.192246 1_555
Mg10 O12 2.230788 1_555
Mg10 O1 2.290322 1_555
Mg11 O0 2.067115 1_565
Mg11 O15 2.140248 1_555
Mg11 O5 2.192246 1_554
Mg11 O5 2.192246 1_555
Mg11 O13 2.230788 1_555
Mg11 O1 2.290322 1_555
Mg12 O2 2.067115 1_555
Mg12 O14 2.140248 1_555
Mg12 O6 2.192246 1_555
Mg12 O6 2.192246 1_554
Mg12 O12 2.230788 1_655
Mg12 O3 2.290322 1_555
Mg13 O2 2.067115 1_565
Mg13 O15 2.140248 1_555
Mg13 O7 2.192246 1_555
Mg13 O7 2.192246 1_554
Mg13 O13 2.230788 1_655
Mg13 O3 2.290322 1_555
Cu0 O12 2.058594 1_555
Cu0 O13 2.058594 1_545
Cu0 O8 2.187819 1_555
Cu0 O8 2.187819 1_554
Cu0 O0 2.366735 1_555
Cu0 O2 2.366735 1_455
Bi0 O9 2.187819 1_554
Bi0 O9 2.187819 1_555
Bi0 O13 2.291794 1_555
Bi0 O12 2.291794 1_555
Bi0 O1 2.339342 1_555
Bi0 O3 2.339342 1_455
