# generated using pymatgen
data_Li2MnP2O7
_symmetry_space_group_name_H-M   'P 1'
_cell_length_a   6.81628301
_cell_length_b   13.07504001
_cell_length_c   7.25244801
_cell_angle_alpha   89.99700117
_cell_angle_beta   90.00549891
_cell_angle_gamma   89.99683536
_symmetry_Int_Tables_number   1
_chemical_formula_structural   Li2MnP2O7
_chemical_formula_sum   'Li8 Mn4 P8 O28'
_cell_volume   646.36117446
_cell_formula_units_Z   4
loop_
 _symmetry_equiv_pos_site_id
 _symmetry_equiv_pos_as_xyz
  1  'x, y, z'
loop_
 _atom_site_type_symbol
 _atom_site_label
 _atom_site_symmetry_multiplicity
 _atom_site_fract_x
 _atom_site_fract_y
 _atom_site_fract_z
 _atom_site_occupancy
  Li  Li0  1  0.00074600  0.23522900  0.99999100  1
  Li  Li1  1  0.49850100  0.73512800  0.49950800  1
  Li  Li2  1  0.50118600  0.26469100  0.99941200  1
  Li  Li3  1  0.99853600  0.76482500  0.49970400  1
  Li  Li4  1  0.50094300  0.73547000  0.99951000  1
  Li  Li5  1  0.99874900  0.23545300  0.49968600  1
  Li  Li6  1  0.00056200  0.76457300  0.99998400  1
  Li  Li7  1  0.49872100  0.26455400  0.49953700  1
  Mn  Mn0  1  0.50068600  0.49975000  0.49971100  1
  Mn  Mn1  1  0.00474600  0.00006100  0.50565500  1
  Mn  Mn2  1  0.99550000  0.99984600  0.00564200  1
  Mn  Mn3  1  0.49697500  0.50022600  0.99663000  1
  P  P0  1  0.82038600  0.38781000  0.74942000  1
  P  P1  1  0.32046900  0.88775600  0.25072100  1
  P  P2  1  0.17978400  0.38770200  0.24897000  1
  P  P3  1  0.67993600  0.88777100  0.75017600  1
  P  P4  1  0.82003900  0.61216800  0.74884600  1
  P  P5  1  0.32019000  0.11223500  0.25038700  1
  P  P6  1  0.18001600  0.61227900  0.24955500  1
  P  P7  1  0.68022000  0.11220800  0.75051700  1
  O  O0  1  0.92622100  0.50004600  0.74911800  1
  O  O1  1  0.42611300  0.00003600  0.25039400  1
  O  O2  1  0.07452300  0.50004500  0.24926700  1
  O  O3  1  0.57442200  0.00003800  0.75012500  1
  O  O4  1  0.01859300  0.30833800  0.24954200  1
  O  O5  1  0.51887900  0.80835100  0.74844600  1
  O  O6  1  0.98137000  0.30830900  0.75061200  1
  O  O7  1  0.48147700  0.80827100  0.24933200  1
  O  O8  1  0.01915000  0.69181800  0.25059900  1
  O  O9  1  0.51939400  0.19176900  0.74920800  1
  O  O10  1  0.98069200  0.69182800  0.74961200  1
  O  O11  1  0.48093600  0.19184800  0.24854200  1
  O  O12  1  0.18816900  0.11590600  0.07649800  1
  O  O13  1  0.69065400  0.61636800  0.57321700  1
  O  O14  1  0.80864400  0.11665600  0.92677100  1
  O  O15  1  0.31112400  0.61611400  0.42401800  1
  O  O16  1  0.68910900  0.38409200  0.92380500  1
  O  O17  1  0.19199700  0.88323300  0.42693400  1
  O  O18  1  0.30903300  0.38334300  0.07325400  1
  O  O19  1  0.81194700  0.88405200  0.57632600  1
  O  O20  1  0.68884200  0.61620900  0.92326800  1
  O  O21  1  0.19178000  0.11695100  0.42661700  1
  O  O22  1  0.30918600  0.61698300  0.07381100  1
  O  O23  1  0.81215100  0.11614900  0.57664000  1
  O  O24  1  0.80832500  0.88304700  0.92647800  1
  O  O25  1  0.31072500  0.38343600  0.42356000  1
  O  O26  1  0.18853900  0.88380900  0.07674600  1
  O  O27  1  0.69111100  0.38321800  0.57370300  1
loop_
_geom_bond_atom_site_label_1
_geom_bond_atom_site_label_2
_geom_bond_distance
_geom_bond_site_symmetry_2
Li0 O6 2.049705 1_455
Li0 O4 2.050434 1_556
Li0 O12 2.091311 1_556
Li0 O14 2.097695 1_455
Li1 O5 2.048304 1_555
Li1 O7 2.054224 1_555
Li1 O15 2.086308 1_555
Li1 O13 2.100471 1_555
Li2 O11 2.047091 1_556
Li2 O9 2.053641 1_555
Li2 O16 2.092605 1_555
Li2 O18 2.099778 1_556
Li3 O8 2.048180 1_655
Li3 O10 2.051969 1_555
Li3 O19 2.087236 1_555
Li3 O17 2.101101 1_655
Li4 O7 2.050995 1_556
Li4 O5 2.058713 1_555
Li4 O20 2.092290 1_555
Li4 O22 2.097419 1_556
Li5 O4 2.053655 1_655
Li5 O6 2.057536 1_555
Li5 O23 2.088729 1_555
Li5 O21 2.100649 1_655
Li6 O10 2.054345 1_455
Li6 O8 2.055312 1_556
Li6 O26 2.093412 1_556
Li6 O24 2.097691 1_455
Li7 O9 2.050368 1_555
Li7 O11 2.057218 1_555
Li7 O25 2.088389 1_555
Li7 O27 2.101545 1_555
Mn0 O15 2.070100 1_555
Mn0 O13 2.070275 1_555
Mn0 O27 2.072160 1_555
Mn0 O25 2.072348 1_555
Mn1 O17 2.070845 1_545
Mn1 O21 2.071227 1_555
Mn1 O19 2.071416 1_445
Mn1 O23 2.071788 1_455
Mn2 O14 2.069202 1_564
Mn2 O24 2.071171 1_554
Mn2 O12 2.071651 1_665
Mn2 O26 2.073332 1_655
Mn3 O22 2.069373 1_556
Mn3 O18 2.070207 1_556
Mn3 O20 2.072067 1_555
Mn3 O16 2.073600 1_555
O0 P4 1.634894 1_555
O0 P0 1.635258 1_555
O1 P5 1.635016 1_555
O1 P1 1.635201 1_545
O2 P6 1.634207 1_555
O2 P2 1.634722 1_555
O3 P7 1.634373 1_555
O3 P3 1.634585 1_545
O4 P2 1.511335 1_555
O5 P3 1.511220 1_555
O6 P0 1.511475 1_555
O7 P1 1.511461 1_555
O8 P6 1.511229 1_555
O9 P7 1.511238 1_555
O10 P4 1.511339 1_555
O11 P5 1.511425 1_555
O12 P5 1.549938 1_555
O13 P4 1.550159 1_555
O14 P7 1.550304 1_555
O15 P6 1.549805 1_555
O16 P0 1.550095 1_555
O17 P1 1.550414 1_555
O18 P2 1.550369 1_555
O19 P3 1.549832 1_555
O20 P4 1.550139 1_555
O21 P5 1.550377 1_555
O22 P6 1.550401 1_555
O23 P7 1.549768 1_555
O24 P3 1.550587 1_555
O25 P2 1.550086 1_555
O26 P1 1.550209 1_555
O27 P0 1.550456 1_555
