# generated using pymatgen
data_KZrSnSbO6
_symmetry_space_group_name_H-M   'P 1'
_cell_length_a   5.80843908
_cell_length_b   5.80843908
_cell_length_c   5.80843908
_cell_angle_alpha   60.00000000
_cell_angle_beta   60.00000000
_cell_angle_gamma   60.00000000
_symmetry_Int_Tables_number   1
_chemical_formula_structural   KZrSnSbO6
_chemical_formula_sum   'K1 Zr1 Sn1 Sb1 O6'
_cell_volume   138.56811781
_cell_formula_units_Z   1
loop_
 _symmetry_equiv_pos_site_id
 _symmetry_equiv_pos_as_xyz
  1  'x, y, z'
loop_
 _atom_site_type_symbol
 _atom_site_label
 _atom_site_symmetry_multiplicity
 _atom_site_fract_x
 _atom_site_fract_y
 _atom_site_fract_z
 _atom_site_occupancy
  K  K0  1  0.25000000  0.25000000  0.25000000  1
  Zr  Zr0  1  0.50000000  0.50000000  0.50000000  1
  Sn  Sn0  1  0.75000000  0.75000000  0.75000000  1
  Sb  Sb0  1  0.00000000  -0.00000000  0.00000000  1
  O  O0  1  0.75632555  0.24367445  0.24367445  1
  O  O1  1  0.24367445  0.75632555  0.75632555  1
  O  O2  1  0.75632555  0.24367445  0.75632555  1
  O  O3  1  0.24367445  0.75632555  0.24367445  1
  O  O4  1  0.75632555  0.75632555  0.24367445  1
  O  O5  1  0.24367445  0.24367445  0.75632555  1
loop_
_geom_bond_atom_site_label_1
_geom_bond_atom_site_label_2
_geom_bond_distance
_geom_bond_site_symmetry_2
K0 O4 2.904684 1_545
K0 O3 2.904684 1_555
K0 O1 2.904684 1_545
K0 O0 2.904684 1_455
K0 O0 2.904684 1_555
K0 O3 2.904684 1_545
K0 O2 2.904684 1_455
K0 O4 2.904684 1_455
K0 O1 2.904684 1_554
K0 O5 2.904684 1_555
K0 O5 2.904684 1_554
K0 O2 2.904684 1_554
O0 Sb0 2.001633 1_655
O0 Zr0 2.105554 1_555
O1 Sb0 2.001633 1_566
O1 Zr0 2.105554 1_555
O2 Sb0 2.001633 1_656
O2 Zr0 2.105554 1_555
O3 Sb0 2.001633 1_565
O3 Zr0 2.105554 1_555
O4 Sb0 2.001633 1_665
O4 Zr0 2.105554 1_555
O5 Sb0 2.001633 1_556
O5 Zr0 2.105554 1_555
