# generated using pymatgen
data_Li2In2SiSe6
_symmetry_space_group_name_H-M   'P 1'
_cell_length_a   7.45653943
_cell_length_b   7.45653943
_cell_length_c   12.80378957
_cell_angle_alpha   73.12782287
_cell_angle_beta   73.12782287
_cell_angle_gamma   60.69186433
_symmetry_Int_Tables_number   1
_chemical_formula_structural   Li2In2SiSe6
_chemical_formula_sum   'Li4 In4 Si2 Se12'
_cell_volume   584.60807872
_cell_formula_units_Z   2
loop_
 _symmetry_equiv_pos_site_id
 _symmetry_equiv_pos_as_xyz
  1  'x, y, z'
loop_
 _atom_site_type_symbol
 _atom_site_label
 _atom_site_symmetry_multiplicity
 _atom_site_fract_x
 _atom_site_fract_y
 _atom_site_fract_z
 _atom_site_occupancy
  Li  Li0  1  0.97910000  0.60203800  0.15781500  1
  Li  Li1  1  0.60203800  0.97910000  0.65781500  1
  Li  Li2  1  0.39961900  0.59982300  0.49994600  1
  Li  Li3  1  0.59982300  0.39961900  0.99994600  1
  In  In0  1  0.07342900  0.88545600  0.81102900  1
  In  In1  1  0.88545600  0.07342900  0.31102900  1
  In  In2  1  0.09017300  0.22344300  0.50787100  1
  In  In3  1  0.22344300  0.09017300  0.00787100  1
  Si  Si0  1  0.99467000  0.45599700  0.75244900  1
  Si  Si1  1  0.45599700  0.99467000  0.25244900  1
  Se  Se0  1  0.22819700  0.74002700  0.99487400  1
  Se  Se1  1  0.74002700  0.22819700  0.49487400  1
  Se  Se2  1  0.87196700  0.33570000  0.12108900  1
  Se  Se3  1  0.33570000  0.87196700  0.62108900  1
  Se  Se4  1  0.79043100  0.28512500  0.80337300  1
  Se  Se5  1  0.28512500  0.79043100  0.30337300  1
  Se  Se6  1  0.31398200  0.27743100  0.80276400  1
  Se  Se7  1  0.27743100  0.31398200  0.30276400  1
  Se  Se8  1  0.79326500  0.74973900  0.83182700  1
  Se  Se9  1  0.74973900  0.79326500  0.33182700  1
  Se  Se10  1  0.03841000  0.56273800  0.56426500  1
  Se  Se11  1  0.56273800  0.03841000  0.06426500  1
loop_
_geom_bond_atom_site_label_1
_geom_bond_atom_site_label_2
_geom_bond_distance
_geom_bond_site_symmetry_2
Li0 Se2 2.667697 1_555
Li0 Se9 2.677115 1_555
Li0 Se0 2.690114 1_654
Li0 Se7 2.900186 1_655
Li1 Se3 2.667697 1_555
Li1 Se8 2.677115 1_555
Li1 Se1 2.690114 1_565
Li1 Se6 2.900186 1_565
Li2 Se5 2.658282 1_555
Li2 Se3 2.683650 1_555
Li2 Se1 2.692293 1_555
Li2 Se10 2.705242 1_555
Li3 Se4 2.658282 1_555
Li3 Se2 2.683650 1_556
Li3 Se0 2.692293 1_555
Li3 Se11 2.705242 1_556
In0 Se0 2.630323 1_555
In0 Se3 2.633948 1_555
In0 Se8 2.655094 1_455
In0 Se4 2.671627 1_465
In1 Se1 2.630323 1_555
In1 Se2 2.633948 1_555
In1 Se9 2.655094 1_545
In1 Se5 2.671627 1_645
In2 Se3 2.638096 1_545
In2 Se1 2.646470 1_455
In2 Se10 2.648338 1_555
In2 Se7 2.658431 1_555
In3 Se2 2.638096 1_455
In3 Se0 2.646470 1_544
In3 Se11 2.648338 1_555
In3 Se6 2.658431 1_554
Se4 Si0 2.282278 1_555
Se5 Si1 2.282278 1_555
Se6 Si0 2.268399 1_455
Se7 Si1 2.268399 1_545
Se8 Si0 2.295993 1_555
Se9 Si1 2.295993 1_555
Se10 Si0 2.286957 1_455
Se11 Si1 2.286957 1_545
