# generated using pymatgen
data_Mg3Si4
_symmetry_space_group_name_H-M   'P 1'
_cell_length_a   5.29351600
_cell_length_b   6.87493940
_cell_length_c   7.97203707
_cell_angle_alpha   111.85008216
_cell_angle_beta   96.79171382
_cell_angle_gamma   100.35309428
_symmetry_Int_Tables_number   1
_chemical_formula_structural   Mg3Si4
_chemical_formula_sum   'Mg6 Si8'
_cell_volume   259.39349776
_cell_formula_units_Z   2
loop_
 _symmetry_equiv_pos_site_id
 _symmetry_equiv_pos_as_xyz
  1  'x, y, z'
loop_
 _atom_site_type_symbol
 _atom_site_label
 _atom_site_symmetry_multiplicity
 _atom_site_fract_x
 _atom_site_fract_y
 _atom_site_fract_z
 _atom_site_occupancy
  Mg  Mg0  1  0.71377600  0.44912000  0.25200900  1
  Mg  Mg1  1  0.08911900  0.16435700  0.04159300  1
  Mg  Mg2  1  0.31931500  0.08891500  0.40211300  1
  Mg  Mg3  1  0.58808500  0.17521200  0.79623000  1
  Mg  Mg4  1  0.44607600  0.62145700  0.66962000  1
  Mg  Mg5  1  0.95911200  0.68988400  0.99541900  1
  Si  Si0  1  0.82884700  0.39801800  0.57769400  1
  Si  Si1  1  0.12196900  0.29560600  0.76136500  1
  Si  Si2  1  0.25840200  0.60623300  0.29067000  1
  Si  Si3  1  0.66198500  0.86983200  0.48069900  1
  Si  Si4  1  0.82165500  0.06919000  0.30387400  1
  Si  Si5  1  0.00110400  0.76947100  0.63402900  1
  Si  Si6  1  0.43719700  0.58652500  0.01408400  1
  Si  Si7  1  0.50008600  0.96946900  0.03403100  1
loop_
_geom_bond_atom_site_label_1
_geom_bond_atom_site_label_2
_geom_bond_distance
_geom_bond_site_symmetry_2
Mg0 Si0 2.759973 1_555
Mg0 Si6 2.794197 1_555
Mg0 Si2 2.817112 1_555
Mg0 Si2 2.827733 1_655
Mg0 Si3 2.871039 1_555
Mg0 Si4 2.933216 1_555
Mg0 Si7 3.016987 1_545
Mg0 Si5 3.024331 1_655
Mg1 Si1 2.714976 1_554
Mg1 Si7 2.747724 1_545
Mg1 Si2 2.843428 1_555
Mg1 Si4 2.861832 1_455
Mg1 Si7 3.148796 1_445
Mg2 Si4 2.622254 1_455
Mg2 Si3 2.714223 1_545
Mg2 Si4 2.871569 1_555
Mg2 Si0 2.929660 1_555
Mg2 Si2 3.042742 1_545
Mg2 Si7 3.058340 1_545
Mg2 Si1 3.086216 1_555
Mg3 Si3 2.735891 1_545
Mg3 Si1 2.755622 1_555
Mg3 Si7 2.789204 1_546
Mg3 Si1 2.874992 1_655
Mg3 Si0 2.969127 1_555
Mg3 Si6 3.022370 1_556
Mg4 Si5 2.753645 1_555
Mg4 Si0 2.763011 1_555
Mg4 Si3 2.847857 1_555
Mg4 Si6 2.849246 1_556
Mg4 Si7 2.937621 1_556
Mg4 Si1 2.938015 1_555
Mg4 Si5 3.014236 1_655
Mg4 Si2 3.023538 1_555
Mg5 Si6 2.750959 1_656
Mg5 Si6 2.762293 1_556
Mg5 Si2 2.972197 1_656
Mg5 Si1 3.004642 1_655
Mg5 Si7 3.059828 1_656
Mg5 Si0 3.094698 1_555
Mg5 Si4 3.115831 1_566
Mg5 Si5 3.151217 1_655
Si0 Si1 2.381173 1_655
Si0 Si5 2.401481 1_655
Si0 Si4 2.480581 1_555
Si1 Si6 2.418579 1_556
Si2 Si3 2.437755 1_555
Si2 Si6 2.468453 1_555
Si3 Si5 2.397226 1_655
Si3 Si4 2.425604 1_565
Si4 Si7 2.368948 1_545
Si6 Si7 2.535379 1_555
