# generated using pymatgen
data_BaSrSmMnO6
_symmetry_space_group_name_H-M   'P 1'
_cell_length_a   5.85127959
_cell_length_b   5.85128068
_cell_length_c   5.85128680
_cell_angle_alpha   59.99993240
_cell_angle_beta   59.99994943
_cell_angle_gamma   60.00004173
_symmetry_Int_Tables_number   1
_chemical_formula_structural   BaSrSmMnO6
_chemical_formula_sum   'Ba1 Sr1 Sm1 Mn1 O6'
_cell_volume   141.65696052
_cell_formula_units_Z   1
loop_
 _symmetry_equiv_pos_site_id
 _symmetry_equiv_pos_as_xyz
  1  'x, y, z'
loop_
 _atom_site_type_symbol
 _atom_site_label
 _atom_site_symmetry_multiplicity
 _atom_site_fract_x
 _atom_site_fract_y
 _atom_site_fract_z
 _atom_site_occupancy
  Ba  Ba0  1  0.24999981  0.25000009  0.24999973  1
  Sr  Sr0  1  0.75000033  0.74999902  0.75000077  1
  Sm  Sm0  1  0.50000003  0.50000004  0.49999976  1
  Mn  Mn0  1  0.00000011  0.00000012  0.99999984  1
  O  O0  1  0.77303959  0.22696063  0.22695998  1
  O  O1  1  0.22696031  0.77303962  0.77303997  1
  O  O2  1  0.77303966  0.22696020  0.77303981  1
  O  O3  1  0.22696039  0.77304008  0.22695992  1
  O  O4  1  0.77303880  0.77303871  0.22696112  1
  O  O5  1  0.22696098  0.22696149  0.77303909  1
loop_
_geom_bond_atom_site_label_1
_geom_bond_atom_site_label_2
_geom_bond_distance
_geom_bond_site_symmetry_2
Ba0 O1 2.931842 1_554
Ba0 O3 2.931844 1_545
Ba0 O2 2.931844 1_554
Ba0 O0 2.931844 1_455
Ba0 O5 2.931845 1_554
Ba0 O2 2.931846 1_455
Ba0 O4 2.931846 1_455
Ba0 O0 2.931846 1_555
Ba0 O1 2.931847 1_545
Ba0 O3 2.931848 1_555
Ba0 O4 2.931848 1_545
Ba0 O5 2.931852 1_555
Mn0 O3 1.878088 1_546
Mn0 O2 1.878088 1_455
Mn0 O1 1.878088 1_545
Mn0 O0 1.878090 1_456
Mn0 O5 1.878092 1_555
Mn0 O4 1.878094 1_446
O0 Sm0 2.259394 1_555
O0 Sr0 2.931837 1_554
O0 Sr0 2.931851 1_545
O1 Sm0 2.259397 1_555
O1 Sr0 2.931845 1_455
O1 Sr0 2.931846 1_555
O2 Sm0 2.259395 1_555
O2 Sr0 2.931843 1_555
O2 Sr0 2.931848 1_545
O3 Sm0 2.259394 1_555
O3 Sr0 2.931843 1_554
O3 Sr0 2.931848 1_455
O4 Sm0 2.259382 1_555
O4 Sr0 2.931845 1_554
O4 Sr0 2.931852 1_555
O5 Sm0 2.259382 1_555
O5 Sr0 2.931841 1_455
O5 Sr0 2.931852 1_545
