# generated using pymatgen
data_Mn(CO)5
_symmetry_space_group_name_H-M   'P 1'
_cell_length_a   6.53492900
_cell_length_b   11.99997178
_cell_length_c   12.48809225
_cell_angle_alpha   61.72902824
_cell_angle_beta   74.83222566
_cell_angle_gamma   74.19946051
_symmetry_Int_Tables_number   1
_chemical_formula_structural   Mn(CO)5
_chemical_formula_sum   'Mn4 C20 O20'
_cell_volume   819.66614497
_cell_formula_units_Z   4
loop_
 _symmetry_equiv_pos_site_id
 _symmetry_equiv_pos_as_xyz
  1  'x, y, z'
loop_
 _atom_site_type_symbol
 _atom_site_label
 _atom_site_symmetry_multiplicity
 _atom_site_fract_x
 _atom_site_fract_y
 _atom_site_fract_z
 _atom_site_occupancy
  Mn  Mn0  1  0.38047900  0.02660900  0.72564500  1
  Mn  Mn1  1  0.13273300  0.47339100  0.77435500  1
  Mn  Mn2  1  0.61952100  0.97339100  0.27435500  1
  Mn  Mn3  1  0.86726700  0.52660900  0.22564500  1
  C  C0  1  0.56860500  0.88942800  0.70529500  1
  C  C1  1  0.16332800  0.61057200  0.79470500  1
  C  C2  1  0.43139500  0.11057200  0.29470500  1
  C  C3  1  0.83667200  0.38942800  0.20529500  1
  C  C4  1  0.16266300  0.03511800  0.64929800  1
  C  C5  1  0.84707900  0.46488200  0.85070200  1
  C  C6  1  0.83733700  0.96488200  0.35070200  1
  C  C7  1  0.15292100  0.53511800  0.14929800  1
  C  C8  1  0.54300000  0.05761100  0.80798100  1
  C  C9  1  0.40859300  0.44238900  0.69201900  1
  C  C10  1  0.45700000  0.94238900  0.19201900  1
  C  C11  1  0.59140700  0.55761100  0.30798100  1
  C  C12  1  0.22707800  0.93000900  0.87651400  1
  C  C13  1  0.03360200  0.56999100  0.62348600  1
  C  C14  1  0.77292200  0.06999100  0.12348600  1
  C  C15  1  0.96639800  0.43000900  0.37651400  1
  C  C16  1  0.48660400  0.15703500  0.58052000  1
  C  C17  1  0.22415900  0.34296500  0.91948000  1
  C  C18  1  0.51339600  0.84296500  0.41948000  1
  C  C19  1  0.77584100  0.65703500  0.08052000  1
  O  O0  1  0.68717200  0.80327800  0.69252200  1
  O  O1  1  0.18297200  0.69672200  0.80747800  1
  O  O2  1  0.31282800  0.19672200  0.30747800  1
  O  O3  1  0.81702800  0.30327800  0.19252200  1
  O  O4  1  0.02434000  0.04128300  0.60350600  1
  O  O5  1  0.66913000  0.45871700  0.89649400  1
  O  O6  1  0.97566000  0.95871700  0.39649400  1
  O  O7  1  0.33087000  0.54128300  0.10350600  1
  O  O8  1  0.64145700  0.08020100  0.85809200  1
  O  O9  1  0.57975000  0.41979900  0.64190800  1
  O  O10  1  0.35854300  0.91979900  0.14190800  1
  O  O11  1  0.42025000  0.58020100  0.35809200  1
  O  O12  1  0.13000000  0.87054100  0.96982900  1
  O  O13  1  0.97037000  0.62945900  0.53017100  1
  O  O14  1  0.87000000  0.12945900  0.03017100  1
  O  O15  1  0.02963000  0.37054100  0.46982900  1
  O  O16  1  0.55293400  0.23922200  0.49106700  1
  O  O17  1  0.28322300  0.26077800  0.00893300  1
  O  O18  1  0.44706600  0.76077800  0.50893300  1
  O  O19  1  0.71677700  0.73922200  0.99106700  1
loop_
_geom_bond_atom_site_label_1
_geom_bond_atom_site_label_2
_geom_bond_distance
_geom_bond_site_symmetry_2
C0 O0 1.161833 1_555
C0 Mn0 1.848390 1_565
C1 O1 1.161833 1_555
C1 Mn1 1.848390 1_555
C2 O2 1.161833 1_555
C2 Mn2 1.848390 1_545
C3 O3 1.161833 1_555
C3 Mn3 1.848390 1_555
C4 O4 1.159132 1_555
C4 Mn0 1.866643 1_555
C5 O5 1.159127 1_555
C5 Mn1 1.866643 1_655
C6 O6 1.159132 1_555
C6 Mn2 1.866643 1_555
C7 O7 1.159127 1_555
C7 Mn3 1.866643 1_455
C8 O8 1.159936 1_555
C8 Mn0 1.863490 1_555
C9 O9 1.159931 1_555
C9 Mn1 1.863495 1_555
C10 O10 1.159936 1_555
C10 Mn2 1.863490 1_555
C11 O11 1.159931 1_555
C11 Mn3 1.863495 1_555
C12 O12 1.158281 1_555
C12 Mn0 1.863864 1_565
C13 O13 1.158284 1_455
C13 Mn1 1.863861 1_555
C14 O14 1.158281 1_555
C14 Mn2 1.863864 1_545
C15 O15 1.158284 1_655
C15 Mn3 1.863861 1_555
C16 O16 1.159412 1_555
C16 Mn0 1.860511 1_555
C17 O17 1.159412 1_556
C17 Mn1 1.860511 1_555
C18 O18 1.159412 1_555
C18 Mn2 1.860511 1_555
C19 O19 1.159412 1_554
C19 Mn3 1.860511 1_555
