# generated using pymatgen
data_Ba2MgV2CuF14
_symmetry_space_group_name_H-M   'P 1'
_cell_length_a   5.33865656
_cell_length_b   7.52291023
_cell_length_c   14.75538506
_cell_angle_alpha   91.99488421
_cell_angle_beta   90.17389783
_cell_angle_gamma   110.81654501
_symmetry_Int_Tables_number   1
_chemical_formula_structural   Ba2MgV2CuF14
_chemical_formula_sum   'Ba4 Mg2 V4 Cu2 F28'
_cell_volume   553.51453223
_cell_formula_units_Z   2
loop_
 _symmetry_equiv_pos_site_id
 _symmetry_equiv_pos_as_xyz
  1  'x, y, z'
loop_
 _atom_site_type_symbol
 _atom_site_label
 _atom_site_symmetry_multiplicity
 _atom_site_fract_x
 _atom_site_fract_y
 _atom_site_fract_z
 _atom_site_occupancy
  Ba  Ba0  1  0.10817300  0.36815400  0.62409400  1
  Ba  Ba1  1  0.25968800  0.36612200  0.12450900  1
  Ba  Ba2  1  0.89219000  0.62921000  0.37483800  1
  Ba  Ba3  1  0.74087800  0.63349500  0.87510300  1
  Mg  Mg0  1  0.43252600  0.99952200  0.74974100  1
  Mg  Mg1  1  0.55850600  0.99540300  0.25041600  1
  V  V0  1  0.09821100  0.24195700  0.87353600  1
  V  V1  1  0.90428700  0.76007500  0.12572000  1
  V  V2  1  0.14070100  0.23705100  0.37394400  1
  V  V3  1  0.85827800  0.76068000  0.62566300  1
  Cu  Cu0  1  0.50316300  0.00133200  0.00042200  1
  Cu  Cu1  1  0.49835800  0.99801600  0.50064200  1
  F  F0  1  0.89643600  0.98481400  0.33751000  1
  F  F1  1  0.87467300  0.27825300  0.45706000  1
  F  F2  1  0.12514200  0.71778000  0.54312300  1
  F  F3  1  0.64546100  0.49740600  0.59858100  1
  F  F4  1  0.59980900  0.09430700  0.62680000  1
  F  F5  1  0.50484400  0.90798600  0.87380700  1
  F  F6  1  0.40559200  0.28245200  0.95570100  1
  F  F7  1  0.91386300  0.01293800  0.15955100  1
  F  F8  1  0.36533400  0.32652500  0.77446500  1
  F  F9  1  0.35387000  0.50096200  0.40045100  1
  F  F10  1  0.80718800  0.22961400  0.79013000  1
  F  F11  1  0.15336700  0.50547200  0.90218900  1
  F  F12  1  0.42034100  0.22277200  0.28923000  1
  F  F13  1  0.19817700  0.77475900  0.21062000  1
  F  F14  1  0.49708100  0.09374400  0.12651900  1
  F  F15  1  0.63763200  0.67924600  0.22335700  1
  F  F16  1  0.12897400  0.83307900  0.01667900  1
  F  F17  1  0.10178900  0.01388100  0.66078600  1
  F  F18  1  0.87417800  0.16803200  0.98507500  1
  F  F19  1  0.71124500  0.83626600  0.51553700  1
  F  F20  1  0.59580000  0.71791000  0.04210600  1
  F  F21  1  0.58128900  0.77669700  0.71112500  1
  F  F22  1  0.96206000  0.32384700  0.27598000  1
  F  F23  1  0.28876500  0.16134800  0.48394400  1
  F  F24  1  0.39677200  0.90258800  0.37453500  1
  F  F25  1  0.08920700  0.98976100  0.83891200  1
  F  F26  1  0.04074000  0.67828500  0.72440600  1
  F  F27  1  0.84907200  0.49524200  0.10043800  1
loop_
_geom_bond_atom_site_label_1
_geom_bond_atom_site_label_2
_geom_bond_distance
_geom_bond_site_symmetry_2
Ba0 F8 2.690982 1_555
Ba0 F1 2.711446 1_455
Ba0 F3 2.713773 1_555
Ba0 F17 2.726424 1_555
Ba0 F4 2.764754 1_455
Ba0 F26 2.850177 1_555
Ba0 F2 2.898916 1_555
Ba0 F23 2.912162 1_555
Ba0 F10 2.946474 1_455
Ba0 F3 2.986036 1_455
Ba1 F22 2.707954 1_455
Ba1 F7 2.711154 1_455
Ba1 F27 2.721744 1_455
Ba1 F6 2.730980 1_554
Ba1 F14 2.766868 1_555
Ba1 F15 2.848183 1_555
Ba1 F18 2.875828 1_454
Ba1 F20 2.926441 1_555
Ba1 F12 2.938234 1_555
Ba1 F27 2.971317 1_555
Ba2 F15 2.718130 1_555
Ba2 F9 2.719236 1_555
Ba2 F2 2.726456 1_655
Ba2 F0 2.742264 1_555
Ba2 F24 2.747586 1_655
Ba2 F22 2.814812 1_555
Ba2 F1 2.915407 1_555
Ba2 F19 2.919940 1_555
Ba2 F13 2.945554 1_655
Ba2 F9 2.976333 1_655
Ba3 F26 2.703892 1_655
Ba3 F20 2.706962 1_556
Ba3 F11 2.732325 1_655
Ba3 F25 2.736750 1_655
Ba3 F5 2.775676 1_555
Ba3 F8 2.830204 1_555
Ba3 F16 2.907821 1_656
Ba3 F6 2.909346 1_555
Ba3 F21 2.926096 1_555
Ba3 F11 2.968572 1_555
Cu0 F18 1.950445 1_554
Cu0 F14 1.967890 1_555
Cu0 F16 1.969064 1_545
Cu0 F5 1.974038 1_544
Cu0 F20 2.451105 1_545
Cu0 F6 2.461173 1_554
Cu1 F23 1.954260 1_565
Cu1 F19 1.954670 1_555
Cu1 F24 1.973846 1_555
Cu1 F4 1.975967 1_565
Cu1 F2 2.433387 1_555
Cu1 F1 2.446647 1_565
F0 V2 1.938100 1_665
F0 Mg1 2.237809 1_555
F1 V2 1.978434 1_655
F2 V3 1.981713 1_455
F3 V3 1.927699 1_555
F4 Mg0 2.060108 1_545
F5 Mg0 2.060810 1_555
F6 V0 1.965309 1_555
F7 V1 1.932623 1_545
F7 Mg1 2.294338 1_545
F8 V0 2.001987 1_555
F8 Mg0 2.622775 1_545
F9 V2 1.930587 1_555
F10 V0 1.953205 1_655
F10 Mg0 2.193694 1_545
F11 V0 1.929084 1_555
F12 V2 1.979577 1_555
F12 Mg1 2.151491 1_545
F13 V1 1.974457 1_455
F13 Mg1 2.111004 1_555
F14 Mg1 2.063961 1_545
F15 V1 1.982435 1_555
F15 Mg1 2.577548 1_555
F16 V1 1.983478 1_455
F17 V3 1.937547 1_445
F17 Mg0 2.232382 1_545
F18 V0 2.012798 1_655
F19 V3 1.988415 1_555
F20 V1 1.980958 1_555
F21 V3 1.979592 1_555
F21 Mg0 2.155886 1_555
F22 V2 1.981241 1_655
F22 Mg1 2.652476 1_545
F23 V2 1.990007 1_555
F24 Mg1 2.063324 1_555
F25 V0 1.931429 1_565
F25 Mg0 2.240912 1_555
F26 V3 1.984773 1_455
F26 Mg0 2.587364 1_555
F27 V1 1.930168 1_555
