# generated using pymatgen
data_As2H2CCl4
_symmetry_space_group_name_H-M   'P 1'
_cell_length_a   12.45465653
_cell_length_b   12.45465653
_cell_length_c   11.60986266
_cell_angle_alpha   65.77594479
_cell_angle_beta   65.77594479
_cell_angle_gamma   100.38296296
_symmetry_Int_Tables_number   1
_chemical_formula_structural   As2H2CCl4
_chemical_formula_sum   'As12 H12 C6 Cl24'
_cell_volume   1359.81229960
_cell_formula_units_Z   6
loop_
 _symmetry_equiv_pos_site_id
 _symmetry_equiv_pos_as_xyz
  1  'x, y, z'
loop_
 _atom_site_type_symbol
 _atom_site_label
 _atom_site_symmetry_multiplicity
 _atom_site_fract_x
 _atom_site_fract_y
 _atom_site_fract_z
 _atom_site_occupancy
  As  As0  1  0.98973100  0.72663700  0.89417700  1
  As  As1  1  0.72663700  0.98973100  0.39417700  1
  As  As2  1  0.77951000  0.41898400  0.07791500  1
  As  As3  1  0.41898400  0.77951000  0.57791500  1
  As  As4  1  0.17250100  0.24105100  0.96521400  1
  As  As5  1  0.24105100  0.17250100  0.46521400  1
  As  As6  1  0.48292100  0.44916600  0.77755500  1
  As  As7  1  0.44916600  0.48292100  0.27755500  1
  As  As8  1  0.11802800  0.81733500  0.27769500  1
  As  As9  1  0.81733500  0.11802800  0.77769500  1
  As  As10  1  0.91426200  0.51051200  0.45403100  1
  As  As11  1  0.51051200  0.91426200  0.95403100  1
  H  H0  1  0.00866000  0.51828200  0.02740900  1
  H  H1  1  0.51828200  0.00866000  0.52740900  1
  H  H2  1  0.01800100  0.54507300  0.85801800  1
  H  H3  1  0.54507300  0.01800100  0.35801800  1
  H  H4  1  0.35412900  0.21270700  0.00185700  1
  H  H5  1  0.21270700  0.35412900  0.50185700  1
  H  H6  1  0.37907600  0.21768000  0.83532200  1
  H  H7  1  0.21768000  0.37907600  0.33532200  1
  H  H8  1  0.87957100  0.68753500  0.49714500  1
  H  H9  1  0.68753500  0.87957100  0.99714500  1
  H  H10  1  0.88910300  0.71693600  0.32695100  1
  H  H11  1  0.71693600  0.88910300  0.82695100  1
  C  C0  1  0.96456200  0.54434600  0.96126000  1
  C  C1  1  0.54434600  0.96456200  0.46126000  1
  C  C2  1  0.35474500  0.26464800  0.89849400  1
  C  C3  1  0.26464800  0.35474500  0.39849400  1
  C  C4  1  0.93386900  0.69082600  0.39239800  1
  C  C5  1  0.69082600  0.93386900  0.89239800  1
  Cl  Cl0  1  0.89926800  0.74744100  0.76084300  1
  Cl  Cl1  1  0.74744100  0.89926800  0.26084300  1
  Cl  Cl2  1  0.81984800  0.68267600  0.10628500  1
  Cl  Cl3  1  0.68267600  0.81984800  0.60628500  1
  Cl  Cl4  1  0.74969800  0.33241300  0.30419500  1
  Cl  Cl5  1  0.33241300  0.74969800  0.80419500  1
  Cl  Cl6  1  0.81619800  0.26420300  0.03772800  1
  Cl  Cl7  1  0.26420300  0.81619800  0.53772800  1
  Cl  Cl8  1  0.21546000  0.41116400  0.75452900  1
  Cl  Cl9  1  0.41116400  0.21546000  0.25452900  1
  Cl  Cl10  1  0.15079200  0.33135700  0.09913900  1
  Cl  Cl11  1  0.33135700  0.15079200  0.59913900  1
  Cl  Cl12  1  0.63900000  0.41232700  0.81427800  1
  Cl  Cl13  1  0.41232700  0.63900000  0.31427800  1
  Cl  Cl14  1  0.56597000  0.47554300  0.55300900  1
  Cl  Cl15  1  0.47554300  0.56597000  0.05300900  1
  Cl  Cl16  1  0.07806100  0.97000400  0.32014500  1
  Cl  Cl17  1  0.97000400  0.07806100  0.82014500  1
  Cl  Cl18  1  0.15143400  0.90594200  0.04917600  1
  Cl  Cl19  1  0.90594200  0.15143400  0.54917600  1
  Cl  Cl20  1  0.08519700  0.56096700  0.23911000  1
  Cl  Cl21  1  0.56096700  0.08519700  0.73911000  1
  Cl  Cl22  1  0.00824600  0.49218300  0.58396100  1
  Cl  Cl23  1  0.49218300  0.00824600  0.08396100  1
loop_
_geom_bond_atom_site_label_1
_geom_bond_atom_site_label_2
_geom_bond_distance
_geom_bond_site_symmetry_2
As0 C0 1.987843 1_555
As0 Cl0 2.222643 1_555
As0 Cl2 2.245217 1_556
As1 C1 1.987843 1_555
As1 Cl1 2.222643 1_555
As1 Cl3 2.245217 1_555
As2 C0 1.997524 1_554
As2 Cl4 2.220985 1_555
As2 Cl6 2.241273 1_555
As3 C1 1.997524 1_555
As3 Cl5 2.220985 1_555
As3 Cl7 2.241273 1_555
As4 C2 1.992050 1_555
As4 Cl10 2.226071 1_556
As4 Cl8 2.241183 1_555
As5 C3 1.992050 1_555
As5 Cl11 2.226071 1_555
As5 Cl9 2.241183 1_555
As6 C2 1.997887 1_555
As6 Cl14 2.221695 1_555
As6 Cl12 2.238783 1_555
As7 C3 1.997887 1_555
As7 Cl15 2.221695 1_555
As7 Cl13 2.238783 1_555
As8 C4 1.996444 1_455
As8 Cl18 2.226167 1_555
As8 Cl16 2.239418 1_555
As9 C5 1.996444 1_545
As9 Cl19 2.226167 1_555
As9 Cl17 2.239418 1_555
As10 C4 1.988790 1_555
As10 Cl22 2.227209 1_655
As10 Cl20 2.241689 1_655
As11 C5 1.988790 1_555
As11 Cl23 2.227209 1_566
As11 Cl21 2.241689 1_565
C0 H0 1.096647 1_656
C0 H2 1.101830 1_655
C1 H1 1.096647 1_565
C1 H3 1.101830 1_565
C2 H6 1.097954 1_555
C2 H4 1.101013 1_556
C3 H7 1.097954 1_555
C3 H5 1.101013 1_555
C4 H10 1.097352 1_555
C4 H8 1.100971 1_555
C5 H11 1.097352 1_555
C5 H9 1.100971 1_555
