# generated using pymatgen
data_Ca(BH4)2
_symmetry_space_group_name_H-M   'P 1'
_cell_length_a   6.99262700
_cell_length_b   6.99262700
_cell_length_c   4.35049700
_cell_angle_alpha   90.00000000
_cell_angle_beta   90.00000000
_cell_angle_gamma   90.00000000
_symmetry_Int_Tables_number   1
_chemical_formula_structural   Ca(BH4)2
_chemical_formula_sum   'Ca2 B4 H16'
_cell_volume   212.72552250
_cell_formula_units_Z   2
loop_
 _symmetry_equiv_pos_site_id
 _symmetry_equiv_pos_as_xyz
  1  'x, y, z'
loop_
 _atom_site_type_symbol
 _atom_site_label
 _atom_site_symmetry_multiplicity
 _atom_site_fract_x
 _atom_site_fract_y
 _atom_site_fract_z
 _atom_site_occupancy
  Ca  Ca0  1  0.50000000  0.00000000  0.24710900  1
  Ca  Ca1  1  0.00000000  0.50000000  0.75289100  1
  B  B0  1  0.20006400  0.31487500  0.25281300  1
  B  B1  1  0.79993600  0.68512500  0.25281300  1
  B  B2  1  0.31487500  0.79993600  0.74718700  1
  B  B3  1  0.68512500  0.20006400  0.74718700  1
  H  H0  1  0.37445900  0.30241700  0.24003300  1
  H  H1  1  0.62554100  0.69758300  0.24003300  1
  H  H2  1  0.30241700  0.62554100  0.75996700  1
  H  H3  1  0.69758300  0.37445900  0.75996700  1
  H  H4  1  0.13800900  0.23830100  0.48510100  1
  H  H5  1  0.86199100  0.76169900  0.48510100  1
  H  H6  1  0.23830100  0.86199100  0.51489900  1
  H  H7  1  0.76169900  0.13800900  0.51489900  1
  H  H8  1  0.17082500  0.48839900  0.25456300  1
  H  H9  1  0.82917500  0.51160100  0.25456300  1
  H  H10  1  0.48839900  0.82917500  0.74543700  1
  H  H11  1  0.51160100  0.17082500  0.74543700  1
  H  H12  1  0.12506100  0.23763500  0.03106100  1
  H  H13  1  0.87493900  0.76236500  0.03106100  1
  H  H14  1  0.23763500  0.87493900  0.96893900  1
  H  H15  1  0.76236500  0.12506100  0.96893900  1
loop_
_geom_bond_atom_site_label_1
_geom_bond_atom_site_label_2
_geom_bond_distance
_geom_bond_site_symmetry_2
Ca0 H0 2.289869 1_555
Ca0 H1 2.289869 1_545
Ca0 H15 2.365401 1_554
Ca0 H14 2.365401 1_544
Ca0 H6 2.374310 1_545
Ca0 H7 2.374310 1_555
Ca0 H10 2.476603 1_545
Ca0 H11 2.476603 1_555
Ca0 H10 2.489348 1_544
Ca0 H11 2.489348 1_554
Ca1 H2 2.289869 1_555
Ca1 H3 2.289869 1_455
Ca1 H13 2.365401 1_456
Ca1 H12 2.365401 1_556
Ca1 H5 2.374310 1_455
Ca1 H4 2.374310 1_555
Ca1 H9 2.476603 1_455
Ca1 H8 2.476603 1_555
Ca1 H9 2.489348 1_456
Ca1 H8 2.489348 1_556
B0 H4 1.223214 1_555
B0 H12 1.223721 1_555
B0 H0 1.223850 1_555
B0 H8 1.230517 1_555
B1 H5 1.223214 1_555
B1 H13 1.223721 1_555
B1 H1 1.223850 1_555
B1 H9 1.230517 1_555
B2 H6 1.223214 1_555
B2 H14 1.223721 1_555
B2 H2 1.223850 1_555
B2 H10 1.230517 1_555
B3 H7 1.223214 1_555
B3 H15 1.223721 1_555
B3 H3 1.223850 1_555
B3 H11 1.230517 1_555
