# generated using pymatgen
data_ScGaPt
_symmetry_space_group_name_H-M   'P 1'
_cell_length_a   4.34341961
_cell_length_b   6.34604063
_cell_length_c   7.52512216
_cell_angle_alpha   90.00000000
_cell_angle_beta   90.00000000
_cell_angle_gamma   90.00000000
_symmetry_Int_Tables_number   1
_chemical_formula_structural   ScGaPt
_chemical_formula_sum   'Sc4 Ga4 Pt4'
_cell_volume   207.41883498
_cell_formula_units_Z   4
loop_
 _symmetry_equiv_pos_site_id
 _symmetry_equiv_pos_as_xyz
  1  'x, y, z'
loop_
 _atom_site_type_symbol
 _atom_site_label
 _atom_site_symmetry_multiplicity
 _atom_site_fract_x
 _atom_site_fract_y
 _atom_site_fract_z
 _atom_site_occupancy
  Sc  Sc0  1  0.25000000  0.00946703  0.28972770  1
  Sc  Sc1  1  0.25000000  0.50946703  0.21027230  1
  Sc  Sc2  1  0.75000000  0.99053297  0.71027230  1
  Sc  Sc3  1  0.75000000  0.49053297  0.78972770  1
  Ga  Ga0  1  0.25000000  0.18903082  0.92098608  1
  Ga  Ga1  1  0.25000000  0.68903082  0.57901392  1
  Ga  Ga2  1  0.75000000  0.81096918  0.07901392  1
  Ga  Ga3  1  0.75000000  0.31096918  0.42098608  1
  Pt  Pt0  1  0.25000000  0.26680665  0.59138031  1
  Pt  Pt1  1  0.25000000  0.76680765  0.90861969  1
  Pt  Pt2  1  0.75000000  0.73319235  0.40861969  1
  Pt  Pt3  1  0.75000000  0.23319335  0.09138031  1
loop_
_geom_bond_atom_site_label_1
_geom_bond_atom_site_label_2
_geom_bond_distance
_geom_bond_site_symmetry_2
Ga0 Pt0 2.528955 1_555
Ga0 Pt3 2.537519 1_556
Ga0 Pt3 2.537519 1_456
Ga0 Pt1 2.681061 1_545
Ga0 Sc2 2.969408 1_445
Ga0 Sc2 2.969408 1_545
Ga0 Sc1 2.978940 1_556
Ga0 Sc0 2.999694 1_556
Ga0 Sc3 3.058240 1_555
Ga0 Sc3 3.058240 1_455
Ga1 Pt1 2.528957 1_555
Ga1 Pt2 2.537518 1_555
Ga1 Pt2 2.537518 1_455
Ga1 Pt0 2.681067 1_555
Ga1 Sc3 2.969408 1_555
Ga1 Sc3 2.969408 1_455
Ga1 Sc0 2.978940 1_565
Ga1 Sc1 2.999694 1_555
Ga1 Sc2 3.058240 1_555
Ga1 Sc2 3.058240 1_455
Ga2 Pt2 2.528957 1_555
Ga2 Pt1 2.537518 1_554
Ga2 Pt1 2.537518 1_654
Ga2 Pt3 2.681067 1_565
Ga2 Sc0 2.969408 1_665
Ga2 Sc0 2.969408 1_565
Ga2 Sc3 2.978940 1_554
Ga2 Sc2 2.999694 1_554
Ga2 Sc1 3.058240 1_655
Ga2 Sc1 3.058240 1_555
Ga3 Pt3 2.528955 1_555
Ga3 Pt0 2.537519 1_555
Ga3 Pt0 2.537519 1_655
Ga3 Pt2 2.681061 1_555
Ga3 Sc1 2.969408 1_655
Ga3 Sc1 2.969408 1_555
Ga3 Sc2 2.978940 1_545
Ga3 Sc3 2.999694 1_555
Ga3 Sc0 3.058240 1_655
Ga3 Sc0 3.058240 1_555
Pt0 Sc0 2.796382 1_555
Pt0 Sc2 2.930978 1_545
Pt0 Sc2 2.930978 1_445
Pt0 Sc3 2.993311 1_555
Pt0 Sc3 2.993311 1_455
Pt0 Sc1 3.255173 1_555
Pt1 Sc1 2.796386 1_556
Pt1 Sc3 2.930982 1_555
Pt1 Sc3 2.930982 1_455
Pt1 Sc2 2.993308 1_455
Pt1 Sc2 2.993308 1_555
Pt1 Sc0 3.255170 1_566
Pt2 Sc2 2.796386 1_555
Pt2 Sc0 2.930982 1_665
Pt2 Sc0 2.930982 1_565
Pt2 Sc1 2.993308 1_655
Pt2 Sc1 2.993308 1_555
Pt2 Sc3 3.255170 1_555
Pt3 Sc3 2.796382 1_554
Pt3 Sc1 2.930978 1_655
Pt3 Sc1 2.930978 1_555
Pt3 Sc0 2.993311 1_555
Pt3 Sc0 2.993311 1_655
Pt3 Sc2 3.255173 1_544
