# generated using pymatgen
data_LiHo2Ag2(WO4)4
_symmetry_space_group_name_H-M   'P 1'
_cell_length_a   7.36000286
_cell_length_b   7.52390115
_cell_length_c   7.52390115
_cell_angle_alpha   92.72819170
_cell_angle_beta   115.44143474
_cell_angle_gamma   115.44143474
_symmetry_Int_Tables_number   1
_chemical_formula_structural   LiHo2Ag2(WO4)4
_chemical_formula_sum   'Li1 Ho2 Ag2 W4 O16'
_cell_volume   325.69502449
_cell_formula_units_Z   1
loop_
 _symmetry_equiv_pos_site_id
 _symmetry_equiv_pos_as_xyz
  1  'x, y, z'
loop_
 _atom_site_type_symbol
 _atom_site_label
 _atom_site_symmetry_multiplicity
 _atom_site_fract_x
 _atom_site_fract_y
 _atom_site_fract_z
 _atom_site_occupancy
  Li  Li0  1  0.00000000  0.00000000  0.00000000  1
  Ho  Ho0  1  0.00000000  0.71149900  0.28850100  1
  Ho  Ho1  1  0.00000000  0.28850100  0.71149900  1
  Ag  Ag0  1  0.53143000  0.68891500  0.68891500  1
  Ag  Ag1  1  0.46857000  0.31108500  0.31108500  1
  W  W0  1  0.97516200  0.23594400  0.23594400  1
  W  W1  1  0.02483800  0.76405600  0.76405600  1
  W  W2  1  0.50000000  0.83858900  0.16141100  1
  W  W3  1  0.50000000  0.16141100  0.83858900  1
  O  O0  1  0.76491300  0.36231000  0.10208100  1
  O  O1  1  0.23508700  0.63769000  0.89791900  1
  O  O2  1  0.23508700  0.89791900  0.63769000  1
  O  O3  1  0.76491300  0.10208100  0.36231000  1
  O  O4  1  0.65303900  0.69486800  0.21697800  1
  O  O5  1  0.34696100  0.30513200  0.78302200  1
  O  O6  1  0.34696100  0.78302200  0.30513200  1
  O  O7  1  0.65303900  0.21697800  0.69486800  1
  O  O8  1  0.91270600  0.70838200  0.95295500  1
  O  O9  1  0.08729400  0.29161800  0.04704500  1
  O  O10  1  0.08729400  0.04704500  0.29161800  1
  O  O11  1  0.91270600  0.95295500  0.70838200  1
  O  O12  1  0.66236200  0.98712700  0.98712700  1
  O  O13  1  0.33763800  0.01287300  0.01287300  1
  O  O14  1  0.84925500  0.53681500  0.53681500  1
  O  O15  1  0.15074500  0.46318500  0.46318500  1
loop_
_geom_bond_atom_site_label_1
_geom_bond_atom_site_label_2
_geom_bond_distance
_geom_bond_site_symmetry_2
Li0 O9 1.967661 1_555
Li0 O10 1.967661 1_555
Li0 O11 1.967661 1_444
Li0 O8 1.967661 1_444
Li0 O13 2.404078 1_555
Li0 O12 2.404078 1_444
Ho0 O4 2.316175 1_455
Ho0 O6 2.316175 1_555
Ho0 O10 2.318368 1_565
Ho0 O8 2.318368 1_454
Ho0 O2 2.349898 1_555
Ho0 O0 2.349898 1_455
Ho0 O15 2.685274 1_555
Ho0 O14 2.685274 1_455
Ho1 O7 2.316175 1_455
Ho1 O5 2.316175 1_555
Ho1 O9 2.318368 1_556
Ho1 O11 2.318368 1_445
Ho1 O3 2.349898 1_455
Ho1 O1 2.349898 1_555
Ho1 O15 2.685274 1_555
Ho1 O14 2.685274 1_455
Ag0 O15 2.273271 1_555
Ag0 O11 2.583062 1_555
Ag0 O8 2.583062 1_555
Ag0 O12 2.608169 1_555
Ag1 O14 2.273271 1_555
Ag1 O10 2.583062 1_555
Ag1 O9 2.583062 1_555
Ag1 O13 2.608169 1_555
O0 W3 1.969305 1_554
O0 W0 2.080640 1_555
O1 W2 1.969305 1_556
O1 W1 2.080640 1_555
O2 W3 1.969305 1_565
O2 W1 2.080640 1_555
O3 W2 1.969305 1_545
O3 W0 2.080640 1_555
O4 W2 1.815958 1_555
O5 W3 1.815958 1_555
O6 W2 1.815958 1_555
O7 W3 1.815958 1_555
O8 W1 1.908919 1_655
O9 W0 1.908919 1_455
O10 W0 1.908919 1_455
O11 W1 1.908919 1_655
O12 W0 2.137737 1_566
O12 W3 2.175976 1_565
O12 W2 2.175976 1_556
O13 W1 2.137737 1_544
O13 W2 2.175976 1_545
O13 W3 2.175976 1_554
O14 W1 1.855124 1_655
O15 W0 1.855124 1_455
