# generated using pymatgen
data_V20Ga(GeS10)4
_symmetry_space_group_name_H-M   'P 1'
_cell_length_a   11.86013608
_cell_length_b   11.86013608
_cell_length_c   11.86013608
_cell_angle_alpha   99.61794910
_cell_angle_beta   99.61794910
_cell_angle_gamma   131.74716539
_symmetry_Int_Tables_number   1
_chemical_formula_structural   V20Ga(GeS10)4
_chemical_formula_sum   'V20 Ga1 Ge4 S40'
_cell_volume   1135.95907471
_cell_formula_units_Z   1
loop_
 _symmetry_equiv_pos_site_id
 _symmetry_equiv_pos_as_xyz
  1  'x, y, z'
loop_
 _atom_site_type_symbol
 _atom_site_label
 _atom_site_symmetry_multiplicity
 _atom_site_fract_x
 _atom_site_fract_y
 _atom_site_fract_z
 _atom_site_occupancy
  V  V0  1  0.96145500  0.88603500  0.64744400  1
  V  V1  1  0.35642300  0.07560400  0.23777400  1
  V  V2  1  0.56424200  0.68888400  0.04172200  1
  V  V3  1  0.15791000  0.48482600  0.43825700  1
  V  V4  1  0.76744100  0.29058800  0.84147200  1
  V  V5  1  0.88135200  0.64357700  0.71918100  1
  V  V6  1  0.28034600  0.84209000  0.32691500  1
  V  V7  1  0.47748000  0.43575800  0.12464100  1
  V  V8  1  0.07403000  0.23255800  0.52314600  1
  V  V9  1  0.68598900  0.03854500  0.92458000  1
  V  V10  1  0.70941200  0.55088400  0.47685400  1
  V  V11  1  0.11396500  0.76140900  0.07542000  1
  V  V12  1  0.31111600  0.35283800  0.87535900  1
  V  V13  1  0.92439600  0.16217100  0.28081900  1
  V  V14  1  0.51517400  0.95343100  0.67308500  1
  V  V15  1  0.04656900  0.71965400  0.56174300  1
  V  V16  1  0.44911600  0.92597000  0.15852800  1
  V  V17  1  0.64716200  0.52252000  0.95827800  1
  V  V18  1  0.23859100  0.31401100  0.35255600  1
  V  V19  1  0.83782900  0.11864800  0.76222600  1
  Ga  Ga0  1  0.00000000  0.00000000  0.00000000  1
  Ge  Ge0  1  0.19980200  0.59928100  0.80029700  1
  Ge  Ge1  1  0.40071900  0.20101600  0.60052100  1
  Ge  Ge2  1  0.60049500  0.80019800  0.39947900  1
  Ge  Ge3  1  0.79898400  0.39950500  0.19970300  1
  S  S0  1  0.82214000  0.46658000  0.54684900  1
  S  S1  1  0.22413400  0.67481700  0.14914700  1
  S  S2  1  0.42489300  0.26781600  0.94756100  1
  S  S3  1  0.02301900  0.06446800  0.34977500  1
  S  S4  1  0.61759300  0.86171800  0.74776200  1
  S  S5  1  0.92501400  0.77586600  0.45068300  1
  S  S6  1  0.32675600  0.97698100  0.04144900  1
  S  S7  1  0.52266800  0.57510700  0.84292200  1
  S  S8  1  0.13016800  0.38240700  0.24412500  1
  S  S9  1  0.72470900  0.17786000  0.64444000  1
  S  S10  1  0.13828200  0.88604400  0.75587500  1
  S  S11  1  0.53342000  0.08026900  0.35556000  1
  S  S12  1  0.73218400  0.67974600  0.15707800  1
  S  S13  1  0.32518300  0.47433000  0.54931700  1
  S  S14  1  0.93553200  0.28530700  0.95855100  1
  S  S15  1  0.71469300  0.67324400  0.65022500  1
  S  S16  1  0.11395600  0.86983200  0.25223800  1
  S  S17  1  0.32025400  0.47733200  0.05243900  1
  S  S18  1  0.91973100  0.27529100  0.45315100  1
  S  S19  1  0.52567000  0.07498600  0.85085300  1
  S  S20  1  0.72240900  0.15725700  0.14663700  1
  S  S21  1  0.91627600  0.75194300  0.94265000  1
  S  S22  1  0.11641200  0.35357300  0.74626000  1
  S  S23  1  0.31836200  0.95483500  0.54649200  1
  S  S24  1  0.51714500  0.55395700  0.34489300  1
  S  S25  1  0.62984800  0.88358800  0.23716100  1
  S  S26  1  0.82774700  0.48285500  0.03681200  1
  S  S27  1  0.02637300  0.08372400  0.83566700  1
  S  S28  1  0.22812900  0.68163800  0.63647300  1
  S  S29  1  0.42422800  0.27759100  0.43484800  1
  S  S30  1  0.44604300  0.79093500  0.96318800  1
  S  S31  1  0.64642700  0.39268700  0.76283900  1
  S  S32  1  0.84274300  0.98938000  0.56515200  1
  S  S33  1  0.04516500  0.59165700  0.36352700  1
  S  S34  1  0.24805700  0.19070600  0.16433300  1
  S  S35  1  0.80929400  0.97362700  0.05735000  1
  S  S36  1  0.01062000  0.57577200  0.85336300  1
  S  S37  1  0.20906500  0.17225300  0.65510700  1
  S  S38  1  0.40834300  0.77187100  0.45350800  1
  S  S39  1  0.60731300  0.37015200  0.25374000  1
loop_
_geom_bond_atom_site_label_1
_geom_bond_atom_site_label_2
_geom_bond_distance
_geom_bond_site_symmetry_2
Ga0 S35 2.306352 1_445
Ga0 S21 2.306358 1_444
Ga0 S27 2.306358 1_554
Ga0 S34 2.306358 1_555
Ge0 S36 2.281569 1_555
Ge0 S22 2.281901 1_555
Ge0 S30 2.288048 1_555
Ge0 S28 2.292899 1_555
Ge1 S29 2.281569 1_555
Ge1 S31 2.281901 1_555
Ge1 S37 2.288043 1_555
Ge1 S23 2.292899 1_545
Ge2 S32 2.281569 1_555
Ge2 S25 2.281901 1_555
Ge2 S24 2.288048 1_555
Ge2 S38 2.292905 1_555
Ge3 S20 2.281569 1_555
Ge3 S39 2.281901 1_555
Ge3 S26 2.288048 1_555
Ge3 S33 2.292899 1_655
S0 V15 2.269722 1_655
S0 V10 2.272226 1_555
S0 V5 2.280526 1_555
S1 V6 2.279631 1_555
S1 V16 2.282674 1_555
S1 V11 2.287322 1_555
S2 V17 2.290379 1_555
S2 V7 2.297230 1_556
S2 V12 2.299016 1_555
S3 V18 2.271486 1_555
S3 V8 2.275238 1_555
S3 V13 2.276341 1_455
S4 V9 2.269464 1_565
S4 V14 2.272669 1_555
S4 V19 2.283374 1_565
S5 V15 2.279616 1_655
S5 V10 2.282678 1_555
S5 V0 2.287326 1_555
S6 V11 2.271486 1_555
S6 V16 2.275238 1_555
S6 V1 2.276331 1_565
S7 V12 2.290392 1_555
S7 V17 2.297245 1_555
S7 V2 2.299030 1_556
S8 V18 2.269472 1_555
S8 V3 2.272669 1_555
S8 V13 2.283374 1_455
S9 V14 2.269722 1_545
S9 V4 2.272230 1_555
S9 V19 2.280532 1_555
S10 V0 2.269464 1_455
S10 V15 2.272669 1_555
S10 V5 2.283378 1_455
S11 V6 2.269718 1_545
S11 V16 2.272226 1_545
S11 V1 2.280531 1_555
S12 V7 2.290377 1_555
S12 V2 2.297236 1_555
S12 V17 2.299033 1_554
S13 V3 2.279634 1_555
S13 V8 2.282674 1_555
S13 V18 2.287322 1_555
S14 V9 2.271486 1_555
S14 V4 2.275247 1_555
S14 V19 2.276332 1_555
S15 V0 2.271486 1_555
S15 V10 2.275238 1_555
S15 V5 2.276341 1_555
S16 V11 2.269469 1_555
S16 V6 2.272669 1_555
S16 V1 2.283381 1_565
S17 V2 2.290386 1_555
S17 V12 2.297236 1_554
S17 V7 2.299027 1_555
S18 V3 2.269715 1_655
S18 V8 2.272226 1_655
S18 V13 2.280526 1_555
S19 V14 2.279619 1_545
S19 V4 2.282671 1_555
S19 V9 2.287312 1_555
S20 V16 2.547974 1_545
S20 V9 2.583760 1_554
S20 V13 2.604616 1_555
S21 V11 2.519150 1_656
S21 V17 2.534996 1_555
S21 V5 2.575629 1_555
S22 V12 2.554742 1_555
S22 V8 2.576917 1_555
S22 V19 2.615661 1_455
S23 V6 2.532665 1_555
S23 V14 2.567510 1_555
S23 V15 2.567807 1_555
S24 V7 2.549054 1_555
S24 V10 2.566671 1_555
S24 V18 2.586094 1_555
S25 V2 2.554737 1_555
S25 V16 2.576917 1_555
S25 V13 2.615656 1_565
S26 V17 2.549033 1_554
S26 V4 2.566671 1_554
S26 V11 2.586099 1_655
S27 V0 2.519155 1_445
S27 V12 2.534999 1_555
S27 V19 2.575615 1_455
S28 V15 2.532657 1_555
S28 V3 2.567510 1_555
S28 V14 2.567813 1_555
S29 V10 2.547974 1_555
S29 V18 2.583760 1_555
S29 V1 2.604624 1_555
S30 V2 2.549033 1_556
S30 V16 2.566676 1_556
S30 V9 2.586099 1_565
S31 V17 2.554737 1_555
S31 V4 2.576908 1_555
S31 V5 2.615656 1_555
S32 V8 2.547974 1_665
S32 V0 2.583760 1_555
S32 V19 2.604625 1_565
S33 V3 2.532658 1_555
S33 V15 2.567510 1_555
S33 V6 2.567813 1_555
S34 V18 2.519155 1_555
S34 V7 2.535008 1_555
S34 V1 2.575614 1_555
S35 V9 2.519148 1_564
S35 V2 2.535006 1_555
S35 V13 2.575627 1_565
S36 V4 2.547977 1_455
S36 V11 2.583760 1_556
S36 V5 2.604616 1_455
S37 V12 2.549052 1_555
S37 V8 2.566669 1_555
S37 V0 2.586103 1_445
S38 V14 2.532664 1_555
S38 V6 2.567510 1_555
S38 V3 2.567817 1_555
S39 V7 2.554743 1_555
S39 V10 2.576917 1_555
S39 V1 2.615652 1_555
