# generated using pymatgen
data_LaMn7O12
_symmetry_space_group_name_H-M   'P 1'
_cell_length_a   6.55703054
_cell_length_b   6.55703054
_cell_length_c   7.61037796
_cell_angle_alpha   54.93721674
_cell_angle_beta   54.93721674
_cell_angle_gamma   70.51122172
_symmetry_Int_Tables_number   1
_chemical_formula_structural   LaMn7O12
_chemical_formula_sum   'La1 Mn7 O12'
_cell_volume   219.21798492
_cell_formula_units_Z   1
loop_
 _symmetry_equiv_pos_site_id
 _symmetry_equiv_pos_as_xyz
  1  'x, y, z'
loop_
 _atom_site_type_symbol
 _atom_site_label
 _atom_site_symmetry_multiplicity
 _atom_site_fract_x
 _atom_site_fract_y
 _atom_site_fract_z
 _atom_site_occupancy
  La  La0  1  0.00000000  0.00000000  0.00000000  1
  Mn  Mn0  1  0.50000000  0.50000000  0.00000000  1
  Mn  Mn1  1  0.50000000  0.50000000  0.50000000  1
  Mn  Mn2  1  0.00000000  0.00000000  0.50000000  1
  Mn  Mn3  1  0.00000000  0.50000000  0.00000000  1
  Mn  Mn4  1  0.50000000  0.00000000  0.00000000  1
  Mn  Mn5  1  0.00000000  0.50000000  0.50000000  1
  Mn  Mn6  1  0.50000000  0.00000000  0.50000000  1
  O  O0  1  0.17145600  0.17145600  0.13424200  1
  O  O1  1  0.82854400  0.82854400  0.86575800  1
  O  O2  1  0.17870300  0.17870300  0.51044000  1
  O  O3  1  0.82129700  0.82129700  0.48956000  1
  O  O4  1  0.69981200  0.31734300  0.16683400  1
  O  O5  1  0.68265700  0.30018800  0.83316600  1
  O  O6  1  0.30018800  0.68265700  0.83316600  1
  O  O7  1  0.31734300  0.69981200  0.16683400  1
  O  O8  1  0.13386200  0.48484500  0.68547500  1
  O  O9  1  0.51515500  0.86613800  0.31452500  1
  O  O10  1  0.86613800  0.51515500  0.31452500  1
  O  O11  1  0.48484500  0.13386200  0.68547500  1
loop_
_geom_bond_atom_site_label_1
_geom_bond_atom_site_label_2
_geom_bond_distance
_geom_bond_site_symmetry_2
La0 O0 2.655973 1_555
La0 O1 2.655973 1_444
La0 O7 2.692115 1_545
La0 O4 2.692115 1_455
La0 O6 2.692115 1_544
La0 O5 2.692115 1_454
La0 O11 2.704017 1_554
La0 O8 2.704017 1_554
La0 O9 2.704017 1_445
La0 O10 2.704017 1_445
La0 O3 2.740702 1_445
La0 O2 2.740702 1_554
Mn0 O7 1.969807 1_555
Mn0 O4 1.969807 1_555
Mn0 O5 1.969807 1_554
Mn0 O6 1.969807 1_554
Mn1 O10 1.967367 1_555
Mn1 O9 1.967367 1_555
Mn1 O8 1.967367 1_555
Mn1 O11 1.967367 1_555
Mn2 O2 1.970390 1_555
Mn2 O3 1.970390 1_445
Mn2 O1 1.982009 1_445
Mn2 O0 1.982009 1_555
Mn3 O6 1.968587 1_554
Mn3 O4 1.968587 1_455
Mn3 O0 2.030635 1_555
Mn3 O1 2.030635 1_454
Mn3 O10 2.076302 1_455
Mn3 O8 2.076302 1_554
Mn4 O5 1.968587 1_554
Mn4 O7 1.968587 1_545
Mn4 O0 2.030635 1_555
Mn4 O1 2.030635 1_544
Mn4 O9 2.076302 1_545
Mn4 O11 2.076302 1_554
Mn5 O8 1.994208 1_555
Mn5 O10 1.994208 1_455
Mn5 O3 2.021195 1_455
Mn5 O2 2.021195 1_555
Mn5 O5 2.101366 1_455
Mn5 O7 2.101366 1_555
Mn6 O11 1.994208 1_555
Mn6 O9 1.994208 1_545
Mn6 O3 2.021195 1_545
Mn6 O2 2.021195 1_555
Mn6 O6 2.101366 1_545
Mn6 O4 2.101366 1_555
