# generated using pymatgen
data_Mn4Se3N2
_symmetry_space_group_name_H-M   'P 1'
_cell_length_a   6.22916600
_cell_length_b   15.08554900
_cell_length_c   3.12982800
_cell_angle_alpha   90.00000000
_cell_angle_beta   90.00000000
_cell_angle_gamma   90.00000000
_symmetry_Int_Tables_number   1
_chemical_formula_structural   Mn4Se3N2
_chemical_formula_sum   'Mn8 Se6 N4'
_cell_volume   294.11115442
_cell_formula_units_Z   2
loop_
 _symmetry_equiv_pos_site_id
 _symmetry_equiv_pos_as_xyz
  1  'x, y, z'
loop_
 _atom_site_type_symbol
 _atom_site_label
 _atom_site_symmetry_multiplicity
 _atom_site_fract_x
 _atom_site_fract_y
 _atom_site_fract_z
 _atom_site_occupancy
  Mn  Mn0  1  0.69697000  0.98141900  0.50000000  1
  Mn  Mn1  1  0.30303000  0.01858100  0.50000000  1
  Mn  Mn2  1  0.19697000  0.51858100  0.00000000  1
  Mn  Mn3  1  0.80303000  0.48141900  0.00000000  1
  Mn  Mn4  1  0.98504700  0.66398800  0.50000000  1
  Mn  Mn5  1  0.01495300  0.33601200  0.50000000  1
  Mn  Mn6  1  0.48504700  0.83601200  0.00000000  1
  Mn  Mn7  1  0.51495300  0.16398800  0.00000000  1
  Se  Se0  1  0.50000000  0.50000000  0.50000000  1
  Se  Se1  1  0.00000000  0.00000000  0.00000000  1
  Se  Se2  1  0.63233200  0.28464000  0.50000000  1
  Se  Se3  1  0.36766800  0.71536000  0.50000000  1
  Se  Se4  1  0.13233200  0.21536000  0.00000000  1
  Se  Se5  1  0.86766800  0.78464000  0.00000000  1
  N  N0  1  0.55506300  0.09057800  0.50000000  1
  N  N1  1  0.44493700  0.90942200  0.50000000  1
  N  N2  1  0.05506300  0.40942200  0.00000000  1
  N  N3  1  0.94493700  0.59057800  0.00000000  1
loop_
_geom_bond_atom_site_label_1
_geom_bond_atom_site_label_2
_geom_bond_distance
_geom_bond_site_symmetry_2
Mn0 N0 1.868980 1_565
Mn0 N1 1.909032 1_555
Mn0 Se1 2.467925 1_666
Mn0 Se1 2.467925 1_665
Mn1 N1 1.868980 1_545
Mn1 N0 1.909032 1_555
Mn1 Se1 2.467925 1_555
Mn1 Se1 2.467925 1_556
Mn2 N2 1.868980 1_555
Mn2 N3 1.909032 1_455
Mn2 Se0 2.467925 1_554
Mn2 Se0 2.467925 1_555
Mn3 N3 1.868980 1_555
Mn3 N2 1.909032 1_655
Mn3 Se0 2.467925 1_555
Mn3 Se0 2.467925 1_554
Mn4 N3 1.933335 1_556
Mn4 N3 1.933335 1_555
Mn4 Se3 2.506238 1_655
Mn4 Se5 2.509251 1_556
Mn4 Se5 2.509251 1_555
Mn5 N2 1.933335 1_556
Mn5 N2 1.933335 1_555
Mn5 Se2 2.506238 1_455
Mn5 Se4 2.509251 1_556
Mn5 Se4 2.509251 1_555
Mn6 N1 1.933335 1_554
Mn6 N1 1.933335 1_555
Mn6 Se5 2.506238 1_555
Mn6 Se3 2.509251 1_554
Mn6 Se3 2.509251 1_555
Mn7 N0 1.933335 1_554
Mn7 N0 1.933335 1_555
Mn7 Se4 2.506238 1_555
Mn7 Se2 2.509251 1_555
Mn7 Se2 2.509251 1_554
