# generated using pymatgen
data_Ba2Mg2Tl2W3O10
_symmetry_space_group_name_H-M   'P 1'
_cell_length_a   3.99055400
_cell_length_b   4.15312908
_cell_length_c   19.42510924
_cell_angle_alpha   95.68451531
_cell_angle_beta   95.60588453
_cell_angle_gamma   89.94271979
_symmetry_Int_Tables_number   1
_chemical_formula_structural   Ba2Mg2Tl2W3O10
_chemical_formula_sum   'Ba2 Mg2 Tl2 W3 O10'
_cell_volume   318.81034566
_cell_formula_units_Z   1
loop_
 _symmetry_equiv_pos_site_id
 _symmetry_equiv_pos_as_xyz
  1  'x, y, z'
loop_
 _atom_site_type_symbol
 _atom_site_label
 _atom_site_symmetry_multiplicity
 _atom_site_fract_x
 _atom_site_fract_y
 _atom_site_fract_z
 _atom_site_occupancy
  Ba  Ba0  1  0.15823300  0.09327000  0.31801200  1
  Ba  Ba1  1  0.85314500  0.76828400  0.68067700  1
  Mg  Mg0  1  0.00401500  0.90160900  0.90278900  1
  Mg  Mg1  1  0.06347700  0.02313200  0.09450300  1
  Tl  Tl0  1  0.72355100  0.69586000  0.44152400  1
  Tl  Tl1  1  0.28302000  0.25201200  0.55730800  1
  W  W0  1  0.46030700  0.35898000  0.83245500  1
  W  W1  1  0.59106400  0.54712800  0.16690000  1
  W  W2  1  0.42428500  0.39045100  0.99945800  1
  O  O0  1  0.96875800  0.38012200  0.85650100  1
  O  O1  1  0.40264200  0.27988100  0.73168800  1
  O  O2  1  0.48681400  0.86687100  0.85283900  1
  O  O3  1  0.78310800  0.85313000  0.56030800  1
  O  O4  1  0.32799000  0.86515900  0.99780300  1
  O  O5  1  0.59173400  0.03439000  0.14533600  1
  O  O6  1  0.63300000  0.54862700  0.26754400  1
  O  O7  1  0.07823000  0.55369100  0.14352700  1
  O  O8  1  0.22871400  0.29155300  0.43826900  1
  O  O9  1  0.91091400  0.29693800  0.00352400  1
loop_
_geom_bond_atom_site_label_1
_geom_bond_atom_site_label_2
_geom_bond_distance
_geom_bond_site_symmetry_2
Ba0 O8 2.388553 1_555
Ba0 O6 2.977299 1_555
Ba0 O6 2.981368 1_455
Ba0 O6 3.095489 1_545
Ba0 O6 3.104744 1_445
Ba1 O3 2.388456 1_555
Ba1 O1 2.941357 1_565
Ba1 O1 3.013586 1_555
Ba1 O1 3.077732 1_665
Ba1 O1 3.141562 1_655
Mg0 O4 2.165544 1_555
Mg0 O2 2.191722 1_455
Mg0 O2 2.238554 1_555
Mg0 O0 2.259744 1_465
Mg0 O0 2.260328 1_455
Mg0 O9 2.483363 1_466
Mg1 O5 2.207924 1_455
Mg1 O9 2.230148 1_455
Mg1 O5 2.237279 1_555
Mg1 O7 2.251241 1_545
Mg1 O4 2.283616 1_544
Mg1 O7 2.310687 1_555
O0 W0 2.037107 1_555
O0 W0 2.060125 1_655
O1 W0 1.943474 1_555
O2 W0 2.108099 1_555
O2 W0 2.120557 1_565
O3 Tl0 2.324172 1_555
O3 Tl1 2.592310 1_565
O3 Tl1 2.603060 1_665
O4 W2 2.011027 1_555
O4 W2 2.212119 1_565
O5 W1 2.106854 1_545
O5 W1 2.129226 1_555
O6 W1 1.945205 1_555
O7 W1 2.039916 1_455
O7 W1 2.053246 1_555
O8 Tl1 2.323387 1_555
O8 Tl0 2.585352 1_555
O8 Tl0 2.623810 1_455
O9 W2 1.975531 1_554
O9 W2 2.096009 1_654
