# generated using pymatgen
data_CaTi4(PO4)6
_symmetry_space_group_name_H-M   'P 1'
_cell_length_a   8.87169715
_cell_length_b   8.87169715
_cell_length_c   8.87169707
_cell_angle_alpha   57.70203607
_cell_angle_beta   57.70203607
_cell_angle_gamma   57.70202840
_symmetry_Int_Tables_number   1
_chemical_formula_structural   CaTi4(PO4)6
_chemical_formula_sum   'Ca1 Ti4 P6 O24'
_cell_volume   467.67964498
_cell_formula_units_Z   1
loop_
 _symmetry_equiv_pos_site_id
 _symmetry_equiv_pos_as_xyz
  1  'x, y, z'
loop_
 _atom_site_type_symbol
 _atom_site_label
 _atom_site_symmetry_multiplicity
 _atom_site_fract_x
 _atom_site_fract_y
 _atom_site_fract_z
 _atom_site_occupancy
  Ca  Ca0  1  0.00000000  0.00000000  0.00000000  1
  Ti  Ti0  1  0.63999100  0.63999100  0.63999100  1
  Ti  Ti1  1  0.85157000  0.85157000  0.85157000  1
  Ti  Ti2  1  0.14843000  0.14843000  0.14843000  1
  Ti  Ti3  1  0.36000900  0.36000900  0.36000900  1
  P  P0  1  0.75305400  0.02994300  0.46000400  1
  P  P1  1  0.46000400  0.75305400  0.02994300  1
  P  P2  1  0.02994300  0.46000400  0.75305400  1
  P  P3  1  0.24694600  0.97005700  0.53999600  1
  P  P4  1  0.53999600  0.24694600  0.97005700  1
  P  P5  1  0.97005700  0.53999600  0.24694600  1
  O  O0  1  0.46143600  0.56321800  0.19731800  1
  O  O1  1  0.19731800  0.46143600  0.56321800  1
  O  O2  1  0.56321800  0.19731800  0.46143600  1
  O  O3  1  0.53856400  0.43678200  0.80268200  1
  O  O4  1  0.80268200  0.53856400  0.43678200  1
  O  O5  1  0.43678200  0.80268200  0.53856400  1
  O  O6  1  0.08945800  0.91750800  0.73480900  1
  O  O7  1  0.73480900  0.08945800  0.91750800  1
  O  O8  1  0.91750800  0.73480900  0.08945800  1
  O  O9  1  0.91054200  0.08249200  0.26519100  1
  O  O10  1  0.26519100  0.91054200  0.08249200  1
  O  O11  1  0.00463600  0.37866500  0.19659500  1
  O  O12  1  0.37866500  0.19659500  0.00463600  1
  O  O13  1  0.19659500  0.00463600  0.37866500  1
  O  O14  1  0.99536400  0.62133500  0.80340500  1
  O  O15  1  0.62133500  0.80340500  0.99536400  1
  O  O16  1  0.80340500  0.99536400  0.62133500  1
  O  O17  1  0.48504300  0.74578100  0.84877300  1
  O  O18  1  0.74578100  0.84877300  0.48504300  1
  O  O19  1  0.84877300  0.48504300  0.74578100  1
  O  O20  1  0.51495700  0.25421900  0.15122700  1
  O  O21  1  0.25421900  0.15122700  0.51495700  1
  O  O22  1  0.15122700  0.51495700  0.25421900  1
  O  O23  1  0.08249200  0.26519100  0.91054200  1
loop_
_geom_bond_atom_site_label_1
_geom_bond_atom_site_label_2
_geom_bond_distance
_geom_bond_site_symmetry_2
Ca0 O10 2.434043 1_545
Ca0 O7 2.434043 1_454
Ca0 O9 2.434043 1_455
Ca0 O6 2.434043 1_544
Ca0 O23 2.434043 1_554
Ca0 O8 2.434043 1_445
O0 P1 1.538284 1_555
O0 Ti3 1.925623 1_555
O1 P2 1.538284 1_555
O1 Ti3 1.925623 1_555
O2 P0 1.538283 1_555
O2 Ti3 1.925623 1_555
O3 P4 1.538284 1_555
O3 Ti0 1.925623 1_555
O4 P5 1.538284 1_555
O4 Ti0 1.925623 1_555
O5 P3 1.538283 1_555
O5 Ti0 1.925623 1_555
O6 P3 1.552754 1_555
O6 Ti1 2.050573 1_455
O7 P4 1.552754 1_555
O7 Ti1 2.050573 1_545
O8 P5 1.552754 1_555
O8 Ti1 2.050573 1_554
O9 P0 1.552754 1_555
O9 Ti2 2.050573 1_655
O10 P1 1.552754 1_555
O10 Ti2 2.050573 1_565
O11 P5 1.552349 1_455
O11 Ti2 1.883538 1_555
O12 P4 1.552349 1_554
O12 Ti2 1.883538 1_555
O13 P3 1.552349 1_545
O13 Ti2 1.883538 1_555
O14 P2 1.552349 1_655
O14 Ti1 1.883538 1_555
O15 P1 1.552349 1_556
O15 Ti1 1.883538 1_555
O16 P0 1.552349 1_565
O16 Ti1 1.883538 1_555
O17 P1 1.533244 1_556
O17 Ti0 1.989820 1_555
O18 P0 1.533244 1_565
O18 Ti0 1.989820 1_555
O19 P2 1.533244 1_655
O19 Ti0 1.989820 1_555
O20 P4 1.533244 1_554
O20 Ti3 1.989820 1_555
O21 P3 1.533244 1_545
O21 Ti3 1.989820 1_555
O22 P5 1.533244 1_455
O22 Ti3 1.989820 1_555
O23 P2 1.552754 1_555
O23 Ti2 2.050573 1_556
