# generated using pymatgen
data_Sr2Y2Cr2O7
_symmetry_space_group_name_H-M   'P 1'
_cell_length_a   12.89450996
_cell_length_b   12.89450996
_cell_length_c   12.89450996
_cell_angle_alpha   154.81343322
_cell_angle_beta   154.42804373
_cell_angle_gamma   36.19898658
_symmetry_Int_Tables_number   1
_chemical_formula_structural   Sr2Y2Cr2O7
_chemical_formula_sum   'Sr4 Y4 Cr4 O14'
_cell_volume   393.32337070
_cell_formula_units_Z   2
loop_
 _symmetry_equiv_pos_site_id
 _symmetry_equiv_pos_as_xyz
  1  'x, y, z'
loop_
 _atom_site_type_symbol
 _atom_site_label
 _atom_site_symmetry_multiplicity
 _atom_site_fract_x
 _atom_site_fract_y
 _atom_site_fract_z
 _atom_site_occupancy
  Sr  Sr0  1  0.82992700  0.84459800  0.96367300  1
  Sr  Sr1  1  0.17007300  0.13374600  0.01467000  1
  Sr  Sr2  1  0.61907500  0.63374600  0.96367300  1
  Sr  Sr3  1  0.38092500  0.34459800  0.01467000  1
  Y  Y0  1  0.50000000  0.47802600  0.97802600  1
  Y  Y1  1  0.00000000  0.97802600  0.97802600  1
  Y  Y2  1  0.20092500  0.77186500  0.47279000  1
  Y  Y3  1  0.79907500  0.27186500  0.57094000  1
  Cr  Cr0  1  0.93092800  0.40077200  0.47382600  1
  Cr  Cr1  1  0.06907200  0.54289800  0.46984400  1
  Cr  Cr2  1  0.57305400  0.04289800  0.47382600  1
  Cr  Cr3  1  0.42694600  0.90077200  0.46984400  1
  O  O0  1  0.83276000  0.66342400  0.99618400  1
  O  O1  1  0.16724000  0.16342400  0.83066400  1
  O  O2  1  0.72920800  0.70011500  0.54852300  1
  O  O3  1  0.27079200  0.81931600  0.97090700  1
  O  O4  1  0.34840900  0.31931600  0.54852300  1
  O  O5  1  0.65159100  0.20011500  0.97090700  1
  O  O6  1  0.14102500  0.11130000  0.38114800  1
  O  O7  1  0.85897500  0.24012300  0.97027400  1
  O  O8  1  0.76984800  0.74012300  0.38114800  1
  O  O9  1  0.23015200  0.61130000  0.97027400  1
  O  O10  1  0.38386200  0.76933700  0.48834300  1
  O  O11  1  0.61613800  0.10448200  0.38547600  1
  O  O12  1  0.21900600  0.60448200  0.48834300  1
  O  O13  1  0.78099400  0.26933700  0.38547600  1
loop_
_geom_bond_atom_site_label_1
_geom_bond_atom_site_label_2
_geom_bond_distance
_geom_bond_site_symmetry_2
Cr0 O9 2.031988 1_655
Cr0 O6 2.036454 1_655
Cr0 O2 2.044373 1_555
Cr0 O5 2.063025 1_554
Cr0 O13 2.393370 1_555
Cr1 O8 2.031991 1_455
Cr1 O7 2.036457 1_454
Cr1 O3 2.044372 1_555
Cr1 O4 2.063022 1_555
Cr1 O12 2.393370 1_555
Cr2 O7 2.031986 1_555
Cr2 O8 2.036454 1_545
Cr2 O4 2.044370 1_555
Cr2 O3 2.063025 1_544
Cr2 O11 2.393358 1_555
Cr3 O6 2.031991 1_565
Cr3 O9 2.036459 1_554
Cr3 O5 2.044372 1_565
Cr3 O2 2.063026 1_555
Cr3 O10 2.393359 1_555
O0 Y2 2.187930 1_656
O0 Y3 2.210016 1_555
O0 Sr0 2.691056 1_555
O0 Sr2 2.691056 1_555
O1 Y3 2.187930 1_455
O1 Y2 2.210016 1_545
O1 Sr1 2.691043 1_556
O1 Sr3 2.691067 1_556
O2 Y1 2.257007 1_655
O2 Sr0 2.669552 1_555
O2 Y0 2.712945 1_554
O2 Sr3 2.985154 1_555
O3 Y1 2.257012 1_555
O3 Sr1 2.669549 1_566
O3 Y0 2.712955 1_555
O3 Sr2 2.985154 1_555
O4 Y0 2.257023 1_555
O4 Sr2 2.669533 1_555
O4 Y1 2.712958 1_544
O4 Sr1 2.985154 1_555
O5 Y0 2.257012 1_555
O5 Sr3 2.669530 1_556
O5 Y1 2.712955 1_645
O5 Sr0 2.985154 1_545
O6 Y1 2.259036 1_544
O6 Sr0 2.588170 1_444
O6 Y0 2.865100 1_555
O7 Y1 2.259045 1_645
O7 Sr1 2.588170 1_656
O7 Y0 2.865106 1_555
O8 Y0 2.259036 1_554
O8 Sr2 2.588170 1_554
O8 Y1 2.865100 1_655
O9 Y0 2.259028 1_555
O9 Sr3 2.588170 1_556
O9 Y1 2.865093 1_555
O10 Y2 2.154038 1_555
O10 Sr0 2.496888 1_555
O10 Sr3 2.584110 1_555
O11 Y3 2.154037 1_555
O11 Sr1 2.496887 1_555
O11 Sr2 2.584110 1_544
O12 Y2 2.154026 1_555
O12 Sr2 2.496893 1_555
O12 Sr1 2.584110 1_555
O13 Y3 2.154026 1_555
O13 Sr3 2.496898 1_555
O13 Sr0 2.584110 1_544
