# generated using pymatgen
data_Er5Pb3
_symmetry_space_group_name_H-M   'P 1'
_cell_length_a   8.99779700
_cell_length_b   8.99779744
_cell_length_c   6.58284400
_cell_angle_alpha   90.00000000
_cell_angle_beta   90.00000000
_cell_angle_gamma   120.00000206
_symmetry_Int_Tables_number   1
_chemical_formula_structural   Er5Pb3
_chemical_formula_sum   'Er10 Pb6'
_cell_volume   461.54769759
_cell_formula_units_Z   2
loop_
 _symmetry_equiv_pos_site_id
 _symmetry_equiv_pos_as_xyz
  1  'x, y, z'
loop_
 _atom_site_type_symbol
 _atom_site_label
 _atom_site_symmetry_multiplicity
 _atom_site_fract_x
 _atom_site_fract_y
 _atom_site_fract_z
 _atom_site_occupancy
  Er  Er0  1  0.66666700  0.33333300  0.00000000  1
  Er  Er1  1  0.33333300  0.66666700  0.00000000  1
  Er  Er2  1  0.33333300  0.66666700  0.50000000  1
  Er  Er3  1  0.66666700  0.33333300  0.50000000  1
  Er  Er4  1  0.75975300  0.75975300  0.75000000  1
  Er  Er5  1  0.24024700  0.00000000  0.75000000  1
  Er  Er6  1  0.00000000  0.24024700  0.75000000  1
  Er  Er7  1  0.24024700  0.24024700  0.25000000  1
  Er  Er8  1  0.75975300  0.00000000  0.25000000  1
  Er  Er9  1  0.00000000  0.75975300  0.25000000  1
  Pb  Pb0  1  0.39210100  0.39210100  0.75000000  1
  Pb  Pb1  1  0.60789900  0.00000000  0.75000000  1
  Pb  Pb2  1  0.00000000  0.60789900  0.75000000  1
  Pb  Pb3  1  0.60789900  0.60789900  0.25000000  1
  Pb  Pb4  1  0.39210100  0.00000000  0.25000000  1
  Pb  Pb5  1  0.00000000  0.39210100  0.25000000  1
loop_
_geom_bond_atom_site_label_1
_geom_bond_atom_site_label_2
_geom_bond_distance
_geom_bond_site_symmetry_2
Er0 Pb5 3.224530 1_655
Er0 Pb1 3.224530 1_554
Er0 Pb2 3.224533 1_654
Er0 Pb4 3.224533 1_555
Er0 Pb0 3.224538 1_554
Er0 Pb3 3.224538 1_555
Er1 Pb2 3.224530 1_554
Er1 Pb4 3.224530 1_565
Er1 Pb5 3.224533 1_555
Er1 Pb1 3.224533 1_564
Er1 Pb3 3.224538 1_555
Er1 Pb0 3.224538 1_554
Er2 Pb2 3.224530 1_555
Er2 Pb4 3.224530 1_565
Er2 Pb5 3.224533 1_555
Er2 Pb1 3.224533 1_565
Er2 Pb3 3.224538 1_555
Er2 Pb0 3.224538 1_555
Er3 Pb5 3.224530 1_655
Er3 Pb1 3.224530 1_555
Er3 Pb2 3.224533 1_655
Er3 Pb4 3.224533 1_555
Er3 Pb0 3.224538 1_555
Er3 Pb3 3.224538 1_555
Er4 Pb2 3.081148 1_655
Er4 Pb1 3.081148 1_565
Er4 Pb0 3.308058 1_555
Er4 Pb3 3.563759 1_556
Er4 Pb3 3.563759 1_555
Er5 Pb2 3.081147 1_545
Er5 Pb0 3.081148 1_555
Er5 Pb1 3.308058 1_555
Er5 Pb4 3.563759 1_555
Er5 Pb4 3.563759 1_556
Er6 Pb1 3.081147 1_455
Er6 Pb0 3.081147 1_555
Er6 Pb2 3.308058 1_555
Er6 Pb5 3.563759 1_555
Er6 Pb5 3.563759 1_556
Er7 Pb5 3.081148 1_555
Er7 Pb4 3.081148 1_555
Er7 Pb3 3.308058 1_555
Er7 Pb0 3.563759 1_555
Er7 Pb0 3.563759 1_554
Er8 Pb5 3.081147 1_655
Er8 Pb3 3.081148 1_545
Er8 Pb4 3.308058 1_555
Er8 Pb1 3.563759 1_555
Er8 Pb1 3.563759 1_554
Er9 Pb4 3.081147 1_565
Er9 Pb3 3.081147 1_455
Er9 Pb5 3.308058 1_555
Er9 Pb2 3.563759 1_554
Er9 Pb2 3.563759 1_555
