# generated using pymatgen
data_KMg2(AsO6)2
_symmetry_space_group_name_H-M   'P 1'
_cell_length_a   6.50538598
_cell_length_b   9.57690867
_cell_length_c   9.57690867
_cell_angle_alpha   81.95183698
_cell_angle_beta   107.91229646
_cell_angle_gamma   107.91229646
_symmetry_Int_Tables_number   1
_chemical_formula_structural   KMg2(AsO6)2
_chemical_formula_sum   'K2 Mg4 As4 O24'
_cell_volume   539.53588298
_cell_formula_units_Z   2
loop_
 _symmetry_equiv_pos_site_id
 _symmetry_equiv_pos_as_xyz
  1  'x, y, z'
loop_
 _atom_site_type_symbol
 _atom_site_label
 _atom_site_symmetry_multiplicity
 _atom_site_fract_x
 _atom_site_fract_y
 _atom_site_fract_z
 _atom_site_occupancy
  K  K0  1  0.25000000  0.06417800  0.93582200  1
  K  K1  1  0.75000000  0.93582200  0.06417800  1
  Mg  Mg0  1  0.12121100  0.37407000  0.05456000  1
  Mg  Mg1  1  0.37878900  0.94543900  0.62593000  1
  Mg  Mg2  1  0.87878900  0.62593000  0.94543900  1
  Mg  Mg3  1  0.62121100  0.05456000  0.37407000  1
  As  As0  1  0.38693200  0.64995900  0.87217700  1
  As  As1  1  0.11306800  0.12782300  0.35004100  1
  As  As2  1  0.61306800  0.35004100  0.12782300  1
  As  As3  1  0.88693200  0.87217700  0.64995900  1
  O  O0  1  0.60598900  0.16942000  0.18314700  1
  O  O1  1  0.89401100  0.81685300  0.83058000  1
  O  O2  1  0.39401100  0.83058000  0.81685300  1
  O  O3  1  0.10598900  0.18314700  0.16942000  1
  O  O4  1  0.25420700  0.52742200  0.39035100  1
  O  O5  1  0.24579300  0.60964900  0.47257800  1
  O  O6  1  0.74579300  0.47257800  0.60964900  1
  O  O7  1  0.75420700  0.39035100  0.52742200  1
  O  O8  1  0.36824100  0.34449700  0.98786800  1
  O  O9  1  0.13175900  0.01213200  0.65550300  1
  O  O10  1  0.63175900  0.65550300  0.01213200  1
  O  O11  1  0.86824100  0.98786800  0.34449700  1
  O  O12  1  0.83709100  0.42112400  0.04982500  1
  O  O13  1  0.66290900  0.95017500  0.57887600  1
  O  O14  1  0.16290900  0.57887600  0.95017500  1
  O  O15  1  0.33709100  0.04982500  0.42112400  1
  O  O16  1  0.85502000  0.20290700  0.83930500  1
  O  O17  1  0.64498000  0.16069500  0.79709300  1
  O  O18  1  0.14498000  0.79709300  0.16069500  1
  O  O19  1  0.35502000  0.83930500  0.20290700  1
  O  O20  1  0.12943500  0.26600800  0.45225900  1
  O  O21  1  0.37056500  0.54774100  0.73399200  1
  O  O22  1  0.87056500  0.73399200  0.54774100  1
  O  O23  1  0.62943500  0.45225900  0.26600800  1
loop_
_geom_bond_atom_site_label_1
_geom_bond_atom_site_label_2
_geom_bond_distance
_geom_bond_site_symmetry_2
K0 O8 2.629783 1_555
K0 O9 2.629783 1_555
K0 O0 2.801402 1_556
K0 O1 2.801402 1_445
K0 O16 3.084957 1_455
K0 O17 3.084957 1_555
K0 O3 3.136902 1_556
K0 O2 3.136902 1_545
K0 O18 3.151974 1_546
K0 O19 3.151974 1_546
K1 O11 2.629783 1_555
K1 O10 2.629783 1_555
K1 O3 2.801402 1_665
K1 O2 2.801402 1_554
K1 O18 3.084957 1_655
K1 O19 3.084957 1_555
K1 O0 3.136902 1_565
K1 O1 3.136902 1_554
K1 O16 3.151974 1_564
K1 O17 3.151974 1_564
Mg0 O3 1.988842 1_555
Mg0 O8 2.008151 1_554
Mg0 O12 2.019019 1_455
Mg0 O14 2.051965 1_554
Mg0 O16 2.634327 1_454
Mg1 O2 1.988838 1_555
Mg1 O9 2.008157 1_565
Mg1 O13 2.019016 1_555
Mg1 O15 2.051969 1_565
Mg1 O17 2.634333 1_565
Mg2 O1 1.988838 1_555
Mg2 O10 2.008157 1_556
Mg2 O14 2.019016 1_655
Mg2 O12 2.051969 1_556
Mg2 O18 2.634333 1_656
Mg3 O0 1.988842 1_555
Mg3 O11 2.008151 1_545
Mg3 O15 2.019019 1_555
Mg3 O13 2.051965 1_545
Mg3 O19 2.634327 1_545
As0 O21 1.712589 1_555
As0 O2 1.727541 1_555
As0 O10 1.729386 1_556
As0 O14 1.749935 1_555
As1 O20 1.712589 1_555
As1 O3 1.727541 1_555
As1 O11 1.729386 1_445
As1 O15 1.749935 1_555
As2 O23 1.712589 1_555
As2 O0 1.727541 1_555
As2 O8 1.729386 1_554
As2 O12 1.749935 1_555
As3 O22 1.712589 1_555
As3 O1 1.727541 1_555
As3 O9 1.729386 1_665
As3 O13 1.749935 1_555
O4 O5 1.212401 1_555
O6 O7 1.212401 1_555
O16 O17 1.249032 1_555
O18 O19 1.249032 1_555
