# generated using pymatgen
data_Sm4CdPt
_symmetry_space_group_name_H-M   'P 1'
_cell_length_a   9.85959738
_cell_length_b   9.85958876
_cell_length_c   9.85960962
_cell_angle_alpha   59.99962991
_cell_angle_beta   59.99988352
_cell_angle_gamma   59.99992736
_symmetry_Int_Tables_number   1
_chemical_formula_structural   Sm4CdPt
_chemical_formula_sum   'Sm16 Cd4 Pt4'
_cell_volume   677.73648921
_cell_formula_units_Z   4
loop_
 _symmetry_equiv_pos_site_id
 _symmetry_equiv_pos_as_xyz
  1  'x, y, z'
loop_
 _atom_site_type_symbol
 _atom_site_label
 _atom_site_symmetry_multiplicity
 _atom_site_fract_x
 _atom_site_fract_y
 _atom_site_fract_z
 _atom_site_occupancy
  Sm  Sm0  1  0.35105500  0.35104963  0.35104622  1
  Sm  Sm1  1  0.35105676  0.35105220  0.94683544  1
  Sm  Sm2  1  0.35105627  0.94684196  0.35104685  1
  Sm  Sm3  1  0.94685150  0.35104925  0.35104566  1
  Sm  Sm4  1  0.80877334  0.19123546  0.19121693  1
  Sm  Sm5  1  0.19123393  0.80876841  0.80877071  1
  Sm  Sm6  1  0.19124507  0.80877101  0.19121035  1
  Sm  Sm7  1  0.80877171  0.19122395  0.80877102  1
  Sm  Sm8  1  0.19123685  0.19122065  0.80877043  1
  Sm  Sm9  1  0.80877356  0.80877124  0.19121401  1
  Sm  Sm10  1  0.93599663  0.56399715  0.56400340  1
  Sm  Sm11  1  0.56399870  0.93599319  0.93600636  1
  Sm  Sm12  1  0.56399425  0.93600319  0.56400585  1
  Sm  Sm13  1  0.93598689  0.56400125  0.93601256  1
  Sm  Sm14  1  0.56399737  0.56400254  0.93600984  1
  Sm  Sm15  1  0.93599325  0.93600562  0.56400475  1
  Cd  Cd0  1  0.58062786  0.58063630  0.58066132  1
  Cd  Cd1  1  0.58064596  0.58066395  0.25803575  1
  Cd  Cd2  1  0.58062870  0.25807117  0.58066289  1
  Cd  Cd3  1  0.25809307  0.58063411  0.58064931  1
  Pt  Pt0  1  0.14301076  0.14301682  0.14302405  1
  Pt  Pt1  1  0.14300857  0.14303690  0.57093878  1
  Pt  Pt2  1  0.14301399  0.57094442  0.14302681  1
  Pt  Pt3  1  0.57094903  0.14301066  0.14302970  1
loop_
_geom_bond_atom_site_label_1
_geom_bond_atom_site_label_2
_geom_bond_distance
_geom_bond_site_symmetry_2
Sm0 Sm14 3.575817 1_554
Sm0 Sm12 3.575882 1_545
Sm0 Sm10 3.575981 1_455
Sm1 Sm11 3.575928 1_545
Sm1 Sm14 3.575976 1_555
Sm1 Sm13 3.576004 1_455
Sm10 Sm3 3.575949 1_555
Sm10 Sm14 3.667794 1_555
Sm10 Sm12 3.667806 1_555
Sm10 Sm13 3.667837 1_555
Sm10 Sm15 3.667841 1_555
Sm10 Sm7 3.690424 1_555
Sm10 Sm8 3.690484 1_655
Sm10 Sm9 3.690555 1_555
Sm10 Sm6 3.690609 1_655
Sm11 Sm2 3.575836 1_556
Sm11 Sm14 3.667664 1_555
Sm11 Sm13 3.667667 1_555
Sm11 Sm15 3.667747 1_555
Sm11 Sm12 3.667752 1_555
Sm11 Sm6 3.690255 1_556
Sm11 Sm9 3.690319 1_556
Sm11 Sm8 3.690396 1_565
Sm11 Sm7 3.690445 1_565
Sm12 Sm2 3.575960 1_555
Sm12 Sm15 3.667767 1_555
Sm12 Sm14 3.667773 1_555
Sm12 Sm8 3.690311 1_565
Sm12 Sm5 3.690375 1_555
Sm12 Sm4 3.690540 1_565
Sm12 Sm9 3.690633 1_555
Sm13 Sm3 3.575811 1_556
Sm13 Sm14 3.667674 1_555
Sm13 Sm15 3.667810 1_555
Sm13 Sm9 3.690264 1_556
Sm13 Sm4 3.690303 1_556
Sm13 Sm5 3.690512 1_655
Sm13 Sm8 3.690588 1_655
Sm14 Sm6 3.690228 1_556
Sm14 Sm4 3.690330 1_556
Sm14 Sm5 3.690427 1_555
Sm14 Sm7 3.690554 1_555
Sm15 Sm3 3.575874 1_565
Sm15 Sm2 3.575985 1_655
Sm15 Sm7 3.690346 1_565
Sm15 Sm5 3.690471 1_655
Sm15 Sm4 3.690525 1_565
Sm15 Sm6 3.690667 1_655
Cd0 Cd3 3.180133 1_555
Cd0 Cd2 3.180348 1_555
Cd0 Cd1 3.180737 1_555
Cd0 Sm14 3.347653 1_555
Cd0 Sm10 3.347703 1_555
Cd0 Sm12 3.347716 1_555
Cd0 Sm1 3.472893 1_555
Cd0 Sm2 3.473154 1_555
Cd0 Sm3 3.473313 1_555
Cd0 Sm5 3.556122 1_555
Cd0 Sm7 3.556236 1_555
Cd0 Sm9 3.556499 1_555
Cd1 Cd3 3.180537 1_555
Cd1 Cd2 3.180787 1_555
Cd1 Sm11 3.347284 1_554
Cd1 Sm14 3.347328 1_554
Cd1 Sm13 3.347335 1_554
Cd1 Sm2 3.473075 1_555
Cd1 Sm0 3.473208 1_555
Cd1 Sm3 3.473296 1_555
Cd1 Sm6 3.556086 1_555
Cd1 Sm9 3.556175 1_555
Cd1 Sm4 3.556294 1_555
Cd2 Cd3 3.180201 1_555
Cd2 Sm11 3.347577 1_545
Cd2 Sm12 3.347635 1_545
Cd2 Sm15 3.347649 1_545
Cd2 Sm1 3.472898 1_555
Cd2 Sm0 3.473212 1_555
Cd2 Sm3 3.473293 1_555
Cd2 Sm8 3.556109 1_555
Cd2 Sm7 3.556206 1_555
Cd2 Sm4 3.556515 1_555
Cd3 Sm13 3.347822 1_455
Cd3 Sm15 3.347837 1_455
Cd3 Sm10 3.347871 1_455
Cd3 Sm1 3.472921 1_555
Cd3 Sm2 3.473092 1_555
Cd3 Sm0 3.473258 1_555
Cd3 Sm5 3.556197 1_555
Cd3 Sm8 3.556304 1_555
Cd3 Sm6 3.556493 1_555
Pt0 Sm4 2.899151 1_455
Pt0 Sm6 2.899198 1_545
Pt0 Sm8 2.899250 1_554
Pt0 Sm3 2.903005 1_455
Pt0 Sm2 2.903091 1_545
Pt0 Sm1 2.903174 1_554
Pt0 Sm15 3.575249 1_445
Pt0 Sm13 3.575288 1_454
Pt0 Sm11 3.575339 1_544
Pt1 Sm7 2.899167 1_455
Pt1 Sm8 2.899216 1_555
Pt1 Sm5 2.899355 1_545
Pt1 Sm3 2.902968 1_455
Pt1 Sm0 2.903023 1_555
Pt1 Sm2 2.903226 1_545
Pt1 Sm10 3.575127 1_455
Pt1 Sm15 3.575311 1_445
Pt1 Sm12 3.575355 1_545
Pt2 Sm9 2.899172 1_455
Pt2 Sm6 2.899180 1_555
Pt2 Sm5 2.899253 1_554
Pt2 Sm3 2.903014 1_455
Pt2 Sm0 2.903037 1_555
Pt2 Sm1 2.903203 1_554
Pt2 Sm10 3.575241 1_455
Pt2 Sm14 3.575309 1_554
Pt2 Sm13 3.575324 1_454
Pt3 Sm4 2.899142 1_555
Pt3 Sm9 2.899154 1_545
Pt3 Sm7 2.899274 1_554
Pt3 Sm0 2.903014 1_555
Pt3 Sm2 2.903039 1_545
Pt3 Sm1 2.903214 1_554
Pt3 Sm12 3.575208 1_545
Pt3 Sm14 3.575343 1_554
Pt3 Sm11 3.575364 1_544
