# generated using pymatgen
data_Ca(CuO2)2
_symmetry_space_group_name_H-M   'P 1'
_cell_length_a   3.40729205
_cell_length_b   9.24067677
_cell_length_c   10.16555799
_cell_angle_alpha   90.00000000
_cell_angle_beta   90.00000000
_cell_angle_gamma   90.00000000
_symmetry_Int_Tables_number   1
_chemical_formula_structural   Ca(CuO2)2
_chemical_formula_sum   'Ca4 Cu8 O16'
_cell_volume   320.06955159
_cell_formula_units_Z   4
loop_
 _symmetry_equiv_pos_site_id
 _symmetry_equiv_pos_as_xyz
  1  'x, y, z'
loop_
 _atom_site_type_symbol
 _atom_site_label
 _atom_site_symmetry_multiplicity
 _atom_site_fract_x
 _atom_site_fract_y
 _atom_site_fract_z
 _atom_site_occupancy
  Ca  Ca0  1  0.40271870  0.25000000  0.34496446  1
  Ca  Ca1  1  0.40271870  0.75000000  0.15503554  1
  Ca  Ca2  1  0.59728130  0.25000000  0.84496446  1
  Ca  Ca3  1  0.59728130  0.75000000  0.65503554  1
  Cu  Cu0  1  0.86758772  0.06899300  0.11209405  1
  Cu  Cu1  1  0.86758772  0.56899300  0.38790595  1
  Cu  Cu2  1  0.13241228  0.56899300  0.88790595  1
  Cu  Cu3  1  0.86758772  0.93100700  0.38790595  1
  Cu  Cu4  1  0.13241228  0.93100700  0.88790595  1
  Cu  Cu5  1  0.86758772  0.43100700  0.11209405  1
  Cu  Cu6  1  0.13241228  0.43100700  0.61209405  1
  Cu  Cu7  1  0.13241228  0.06899300  0.61209405  1
  O  O0  1  0.11545725  0.38795845  0.95793774  1
  O  O1  1  0.88454275  0.61204155  0.04206226  1
  O  O2  1  0.56926797  0.50000000  0.25000000  1
  O  O3  1  0.88454275  0.38795845  0.45793774  1
  O  O4  1  0.88454275  0.11204155  0.45793774  1
  O  O5  1  0.89740143  0.75000000  0.31372882  1
  O  O6  1  0.11545725  0.61204155  0.54206226  1
  O  O7  1  0.10259857  0.75000000  0.81372882  1
  O  O8  1  0.56926797  0.00000000  0.25000000  1
  O  O9  1  0.43073203  0.50000000  0.75000000  1
  O  O10  1  0.11545725  0.11204155  0.95793774  1
  O  O11  1  0.10259857  0.25000000  0.68627118  1
  O  O12  1  0.89740143  0.25000000  0.18627118  1
  O  O13  1  0.43073203  0.00000000  0.75000000  1
  O  O14  1  0.11545725  0.88795845  0.54206226  1
  O  O15  1  0.88454275  0.88795845  0.04206226  1
loop_
_geom_bond_atom_site_label_1
_geom_bond_atom_site_label_2
_geom_bond_distance
_geom_bond_site_symmetry_2
Ca0 O12 2.333118 1_555
Ca0 O12 2.359428 1_455
Ca0 O3 2.374726 1_555
Ca0 O4 2.374726 1_555
Ca0 O4 2.461982 1_455
Ca0 O3 2.461982 1_455
Ca0 O8 2.567265 1_555
Ca0 O2 2.567265 1_555
Ca1 O5 2.333118 1_555
Ca1 O5 2.359428 1_455
Ca1 O1 2.374726 1_555
Ca1 O15 2.374726 1_555
Ca1 O1 2.461982 1_455
Ca1 O15 2.461982 1_455
Ca1 O8 2.567265 1_565
Ca1 O2 2.567265 1_555
Ca2 O11 2.333118 1_555
Ca2 O11 2.359428 1_655
Ca2 O10 2.374726 1_555
Ca2 O0 2.374726 1_555
Ca2 O10 2.461982 1_655
Ca2 O0 2.461982 1_655
Ca2 O9 2.567265 1_555
Ca2 O13 2.567265 1_555
Ca3 O7 2.333118 1_555
Ca3 O7 2.359428 1_655
Ca3 O6 2.374726 1_555
Ca3 O14 2.374726 1_555
Ca3 O6 2.461982 1_655
Ca3 O14 2.461982 1_655
Ca3 O13 2.567265 1_565
Ca3 O9 2.567265 1_555
Cu0 O15 1.818980 1_545
Cu0 O10 1.824085 1_654
Cu0 O12 1.837551 1_555
Cu0 O8 1.845252 1_555
Cu1 O3 1.818980 1_555
Cu1 O6 1.824085 1_655
Cu1 O5 1.837551 1_555
Cu1 O2 1.845252 1_555
Cu2 O0 1.818980 1_555
Cu2 O1 1.824085 1_456
Cu2 O7 1.837551 1_555
Cu2 O9 1.845252 1_555
Cu3 O4 1.818980 1_565
Cu3 O14 1.824085 1_655
Cu3 O5 1.837551 1_555
Cu3 O8 1.845252 1_565
Cu4 O10 1.818980 1_565
Cu4 O15 1.824085 1_456
Cu4 O7 1.837551 1_555
Cu4 O13 1.845252 1_565
Cu5 O1 1.818980 1_555
Cu5 O0 1.824085 1_654
Cu5 O12 1.837551 1_555
Cu5 O2 1.845252 1_555
Cu6 O6 1.818980 1_555
Cu6 O3 1.824085 1_455
Cu6 O11 1.837551 1_555
Cu6 O9 1.845252 1_555
Cu7 O14 1.818980 1_545
Cu7 O4 1.824085 1_455
Cu7 O11 1.837551 1_555
Cu7 O13 1.845252 1_555
