# generated using pymatgen
data_Li6V3Cu(PO4)6
_symmetry_space_group_name_H-M   'P 1'
_cell_length_a   8.45956351
_cell_length_b   8.50528532
_cell_length_c   8.62561788
_cell_angle_alpha   61.74335475
_cell_angle_beta   62.52707523
_cell_angle_gamma   62.89876088
_symmetry_Int_Tables_number   1
_chemical_formula_structural   Li6V3Cu(PO4)6
_chemical_formula_sum   'Li6 V3 Cu1 P6 O24'
_cell_volume   462.14528839
_cell_formula_units_Z   1
loop_
 _symmetry_equiv_pos_site_id
 _symmetry_equiv_pos_as_xyz
  1  'x, y, z'
loop_
 _atom_site_type_symbol
 _atom_site_label
 _atom_site_symmetry_multiplicity
 _atom_site_fract_x
 _atom_site_fract_y
 _atom_site_fract_z
 _atom_site_occupancy
  Li  Li0  1  0.01455500  0.98954500  0.99068800  1
  Li  Li1  1  0.74393100  0.14603100  0.35257600  1
  Li  Li2  1  0.47997900  0.50926200  0.49870100  1
  Li  Li3  1  0.21881100  0.85186800  0.65616600  1
  Li  Li4  1  0.66032500  0.21012400  0.85254100  1
  Li  Li5  1  0.84793700  0.66869300  0.20247300  1
  V  V0  1  0.14122300  0.14718200  0.13417800  1
  V  V1  1  0.35949600  0.36062200  0.35897300  1
  V  V2  1  0.64336200  0.64581000  0.64439600  1
  Cu  Cu0  1  0.85397500  0.85311000  0.83600300  1
  P  P0  1  0.05892000  0.75156700  0.44624200  1
  P  P1  1  0.44845500  0.05340200  0.75698200  1
  P  P2  1  0.75249900  0.45729300  0.04669300  1
  P  P3  1  0.25439300  0.54221100  0.95935700  1
  P  P4  1  0.54190600  0.96404500  0.25682700  1
  P  P5  1  0.95215400  0.25035500  0.53592700  1
  O  O0  1  0.11718800  0.30832400  0.49069200  1
  O  O1  1  0.33173600  0.48879000  0.11029100  1
  O  O2  1  0.05417200  0.92316200  0.26026100  1
  O  O3  1  0.51777400  0.11160500  0.32794900  1
  O  O4  1  0.24783300  0.59793500  0.41088800  1
  O  O5  1  0.05002000  0.80418900  0.59654300  1
  O  O6  1  0.25391700  0.07176500  0.91292400  1
  O  O7  1  0.44084200  0.23956200  0.59002300  1
  O  O8  1  0.60565200  0.42243700  0.24304100  1
  O  O9  1  0.18246400  0.38304400  0.99984800  1
  O  O10  1  0.09818500  0.73278200  0.94705700  1
  O  O11  1  0.37012200  0.01830600  0.19873800  1
  O  O12  1  0.60010300  0.02863500  0.82465400  1
  O  O13  1  0.91097900  0.26189100  0.06670100  1
  O  O14  1  0.81138500  0.61704600  0.01869200  1
  O  O15  1  0.40665900  0.56089100  0.76398400  1
  O  O16  1  0.55294300  0.76739000  0.41175900  1
  O  O17  1  0.72989700  0.95003000  0.10003900  1
  O  O18  1  0.97208800  0.19626100  0.37721700  1
  O  O19  1  0.75997800  0.40675000  0.56538100  1
  O  O20  1  0.48742200  0.88797200  0.70183800  1
  O  O21  1  0.94275300  0.08399700  0.72465800  1
  O  O22  1  0.69611500  0.48956200  0.88688100  1
  O  O23  1  0.88785200  0.69555400  0.49221900  1
loop_
_geom_bond_atom_site_label_1
_geom_bond_atom_site_label_2
_geom_bond_distance
_geom_bond_site_symmetry_2
Li0 O10 2.129823 1_555
Li0 O6 2.152214 1_565
Li0 O2 2.267458 1_556
Li0 O17 2.267828 1_456
Li0 O21 2.318585 1_465
Li0 O13 2.371066 1_466
Li1 O8 2.049105 1_555
Li1 O3 2.176102 1_555
Li1 O13 2.191211 1_555
Li1 O18 2.273498 1_555
Li1 O2 2.466457 1_645
Li1 O7 2.498157 1_555
Li2 O4 2.116914 1_555
Li2 O7 2.175419 1_555
Li2 O16 2.238769 1_555
Li2 O8 2.280810 1_555
Li2 O15 2.281941 1_555
Li2 O19 2.366871 1_555
Li3 O5 1.967343 1_555
Li3 O10 2.129761 1_555
Li3 O15 2.261868 1_555
Li3 O21 2.308947 1_465
Li4 O12 1.970101 1_555
Li4 O21 2.104622 1_555
Li4 O19 2.253545 1_555
Li4 O17 2.301959 1_546
Li5 O14 2.009194 1_555
Li5 O17 2.034378 1_555
Li5 O10 2.289886 1_654
Li5 O16 2.358118 1_555
Cu0 O14 1.945188 1_556
Cu0 O12 1.996255 1_565
Cu0 O5 2.052868 1_655
Cu0 O21 2.057975 1_565
Cu0 O10 2.281279 1_655
Cu0 O17 2.398281 1_556
O0 P5 1.512245 1_455
O0 V1 1.973300 1_555
O1 P3 1.511444 1_554
O1 V1 1.965240 1_555
O2 P0 1.579345 1_555
O2 V0 1.983157 1_565
O3 P4 1.540506 1_545
O3 V1 1.993086 1_555
O4 P0 1.542528 1_555
O4 V1 1.973615 1_555
O5 P0 1.521635 1_555
O6 P1 1.569816 1_555
O6 V0 1.971226 1_556
O7 P1 1.555232 1_555
O7 V1 2.045095 1_555
O8 P2 1.555123 1_555
O8 V1 2.047215 1_555
O9 P3 1.559385 1_555
O9 V0 1.884795 1_556
O10 P3 1.549089 1_555
O11 P4 1.554894 1_545
O11 V0 1.935009 1_555
O12 P1 1.535948 1_555
O13 P2 1.581473 1_555
O13 V0 1.965019 1_655
O14 P2 1.532202 1_555
O15 P3 1.566686 1_555
O15 V2 2.074090 1_555
O16 P4 1.564820 1_555
O16 V2 2.100423 1_555
O17 P4 1.538771 1_555
O18 P5 1.557842 1_555
O18 V0 2.032996 1_655
O19 P5 1.563805 1_555
O19 V2 2.106204 1_555
O20 P1 1.543066 1_565
O20 V2 2.028674 1_555
O21 P5 1.568626 1_555
O22 P2 1.527154 1_556
O22 V2 2.007231 1_555
O23 P0 1.548632 1_655
O23 V2 1.986534 1_555
