# generated using pymatgen
data_Tl(Mo3Se4)2
_symmetry_space_group_name_H-M   'P 1'
_cell_length_a   6.96426319
_cell_length_b   6.96426319
_cell_length_c   6.96426370
_cell_angle_alpha   88.76341139
_cell_angle_beta   88.76341139
_cell_angle_gamma   88.76341940
_symmetry_Int_Tables_number   1
_chemical_formula_structural   Tl(Mo3Se4)2
_chemical_formula_sum   'Tl1 Mo6 Se8'
_cell_volume   337.54083413
_cell_formula_units_Z   1
loop_
 _symmetry_equiv_pos_site_id
 _symmetry_equiv_pos_as_xyz
  1  'x, y, z'
loop_
 _atom_site_type_symbol
 _atom_site_label
 _atom_site_symmetry_multiplicity
 _atom_site_fract_x
 _atom_site_fract_y
 _atom_site_fract_z
 _atom_site_occupancy
  Tl  Tl0  1  0.00000000  0.00000000  0.00000000  1
  Mo  Mo0  1  0.75676000  0.57920600  0.43776000  1
  Mo  Mo1  1  0.43776000  0.75676000  0.57920600  1
  Mo  Mo2  1  0.57920600  0.43776000  0.75676000  1
  Mo  Mo3  1  0.24324000  0.42079400  0.56224000  1
  Mo  Mo4  1  0.56224000  0.24324000  0.42079400  1
  Mo  Mo5  1  0.42079400  0.56224000  0.24324000  1
  Se  Se0  1  0.75274900  0.75274900  0.75274900  1
  Se  Se1  1  0.24725100  0.24725100  0.24725100  1
  Se  Se2  1  0.25945000  0.60958600  0.87869500  1
  Se  Se3  1  0.87869500  0.25945000  0.60958600  1
  Se  Se4  1  0.60958600  0.87869500  0.25945000  1
  Se  Se5  1  0.74055000  0.39041400  0.12130500  1
  Se  Se6  1  0.12130500  0.74055000  0.39041400  1
  Se  Se7  1  0.39041400  0.12130500  0.74055000  1
loop_
_geom_bond_atom_site_label_1
_geom_bond_atom_site_label_2
_geom_bond_distance
_geom_bond_site_symmetry_2
Mo0 Se0 2.526657 1_555
Mo0 Se5 2.596289 1_555
Mo0 Se4 2.606474 1_555
Mo0 Se3 2.638034 1_555
Mo0 Se6 2.808512 1_655
Mo1 Se0 2.526657 1_555
Mo1 Se6 2.596289 1_555
Mo1 Se2 2.606474 1_555
Mo1 Se4 2.638034 1_555
Mo1 Se7 2.808512 1_565
Mo2 Se0 2.526657 1_555
Mo2 Se7 2.596289 1_555
Mo2 Se3 2.606474 1_555
Mo2 Se2 2.638034 1_555
Mo2 Se5 2.808512 1_556
Mo3 Se1 2.526657 1_555
Mo3 Se2 2.596289 1_555
Mo3 Se7 2.606474 1_555
Mo3 Se6 2.638034 1_555
Mo3 Se3 2.808512 1_455
Mo4 Se1 2.526657 1_555
Mo4 Se3 2.596289 1_555
Mo4 Se5 2.606474 1_555
Mo4 Se7 2.638034 1_555
Mo4 Se4 2.808512 1_545
Mo5 Se1 2.526657 1_555
Mo5 Se4 2.596289 1_555
Mo5 Se6 2.606474 1_555
Mo5 Se5 2.638034 1_555
Mo5 Se2 2.808512 1_554
Se0 Tl0 3.046139 1_666
Se1 Tl0 3.046139 1_555
Se2 Tl0 3.345501 1_566
Se3 Tl0 3.345501 1_656
Se4 Tl0 3.345500 1_665
Se5 Tl0 3.345501 1_655
Se6 Tl0 3.345501 1_565
Se7 Tl0 3.345500 1_556
