# generated using pymatgen
data_Ba4Nd2Cu6NiO15
_symmetry_space_group_name_H-M   'P 1'
_cell_length_a   3.94340500
_cell_length_b   3.90975500
_cell_length_c   25.11209191
_cell_angle_alpha   85.53523307
_cell_angle_beta   85.49672498
_cell_angle_gamma   90.00000000
_symmetry_Int_Tables_number   1
_chemical_formula_structural   Ba4Nd2Cu6NiO15
_chemical_formula_sum   'Ba4 Nd2 Cu6 Ni1 O15'
_cell_volume   384.79806722
_cell_formula_units_Z   1
loop_
 _symmetry_equiv_pos_site_id
 _symmetry_equiv_pos_as_xyz
  1  'x, y, z'
loop_
 _atom_site_type_symbol
 _atom_site_label
 _atom_site_symmetry_multiplicity
 _atom_site_fract_x
 _atom_site_fract_y
 _atom_site_fract_z
 _atom_site_occupancy
  Ba  Ba0  1  0.54184800  0.54184800  0.91630400  1
  Ba  Ba1  1  0.45784400  0.45784400  0.08431300  1
  Ba  Ba2  1  0.69297900  0.69297900  0.61404100  1
  Ba  Ba3  1  0.30710700  0.30710700  0.38578700  1
  Nd  Nd0  1  0.61721800  0.61721800  0.76556300  1
  Nd  Nd1  1  0.38212700  0.38212700  0.23574500  1
  Cu  Cu0  1  0.23797100  0.23797100  0.52405800  1
  Cu  Cu1  1  0.76229700  0.76229700  0.47540700  1
  Cu  Cu2  1  0.99991100  0.99991100  0.00017800  1
  Cu  Cu3  1  0.08108800  0.08108800  0.83782400  1
  Cu  Cu4  1  0.91899100  0.91899100  0.16201800  1
  Cu  Cu5  1  0.15401600  0.15401600  0.69196800  1
  Ni  Ni0  1  0.84404100  0.84404100  0.31191700  1
  O  O0  1  0.58733000  0.08733000  0.82533900  1
  O  O1  1  0.41283400  0.91283400  0.17433100  1
  O  O2  1  0.03754800  0.03754800  0.92490300  1
  O  O3  1  0.96268600  0.96268600  0.07462800  1
  O  O4  1  0.24668800  0.74668800  0.50662500  1
  O  O5  1  0.75376700  0.25376700  0.49246700  1
  O  O6  1  0.19806300  0.19806300  0.60387500  1
  O  O7  1  0.80312500  0.80312500  0.39375000  1
  O  O8  1  0.14802700  0.64802700  0.70394500  1
  O  O9  1  0.85214400  0.35214400  0.29571100  1
  O  O10  1  0.08689200  0.58689200  0.82621600  1
  O  O11  1  0.91321200  0.41321200  0.17357700  1
  O  O12  1  0.64836100  0.14836100  0.70327900  1
  O  O13  1  0.35179000  0.85179000  0.29642000  1
  O  O14  1  0.50009500  0.00009500  0.99981000  1
loop_
_geom_bond_atom_site_label_1
_geom_bond_atom_site_label_2
_geom_bond_distance
_geom_bond_site_symmetry_2
Ba0 O2 2.784816 1_665
Ba0 O2 2.784819 1_655
Ba0 O2 2.784819 1_565
Ba0 O2 2.784822 1_555
Ba0 O14 2.857488 1_565
Ba0 O14 2.857489 1_555
Ba0 O10 2.990491 1_655
Ba0 O10 2.990491 1_555
Ba0 O0 2.995976 1_565
Ba0 O0 2.995979 1_555
Ba1 O3 2.787036 1_555
Ba1 O3 2.787039 1_545
Ba1 O3 2.787039 1_455
Ba1 O3 2.787042 1_445
Ba1 O14 2.875687 1_564
Ba1 O14 2.875689 1_554
Ba1 O11 2.975060 1_455
Ba1 O11 2.975060 1_555
Ba1 O1 2.978104 1_555
Ba1 O1 2.978109 1_545
Ba2 O6 2.788100 1_555
Ba2 O6 2.788106 1_565
Ba2 O6 2.788106 1_655
Ba2 O6 2.788111 1_665
Ba2 O12 2.963446 1_555
Ba2 O12 2.963451 1_565
Ba2 O8 2.987040 1_555
Ba2 O8 2.987040 1_655
Ba3 O7 2.783638 1_555
Ba3 O7 2.783641 1_545
Ba3 O7 2.783641 1_455
Ba3 O7 2.783643 1_445
Ba3 O13 2.965867 1_555
Ba3 O13 2.965870 1_545
Ba3 O9 2.990263 1_555
Ba3 O9 2.990269 1_455
Nd0 O0 2.459126 1_565
Nd0 O0 2.459126 1_555
Nd0 O10 2.485789 1_555
Nd0 O10 2.485792 1_655
Nd0 O12 2.497594 1_555
Nd0 O12 2.497600 1_565
Nd0 O8 2.500531 1_655
Nd0 O8 2.500531 1_555
Nd1 O13 2.472801 1_545
Nd1 O13 2.472804 1_555
Nd1 O9 2.475387 1_455
Nd1 O9 2.475387 1_555
Nd1 O1 2.484141 1_545
Nd1 O1 2.484141 1_555
Nd1 O11 2.508993 1_455
Nd1 O11 2.509000 1_555
Cu0 O6 1.992083 1_555
Cu0 O4 2.002710 1_545
Cu0 O4 2.002714 1_555
Cu0 O5 2.123502 1_455
Cu0 O5 2.123505 1_555
Cu1 O5 2.000710 1_565
Cu1 O5 2.000710 1_555
Cu1 O7 2.038006 1_555
Cu1 O4 2.120065 1_555
Cu1 O4 2.120065 1_655
Cu2 O3 1.858132 1_555
Cu2 O2 1.878723 1_664
Cu2 O14 1.971724 1_664
Cu2 O14 1.971724 1_564
Cu3 O10 1.976229 1_545
Cu3 O10 1.976229 1_555
Cu3 O0 1.996171 1_555
Cu3 O0 1.996175 1_455
Cu3 O2 2.173329 1_555
Cu4 O11 1.976048 1_555
Cu4 O11 1.976052 1_565
Cu4 O1 1.995505 1_655
Cu4 O1 1.995509 1_555
Cu4 O3 2.181091 1_555
Cu5 O8 1.977598 1_555
Cu5 O8 1.977602 1_545
Cu5 O12 1.991807 1_455
Cu5 O12 1.991811 1_555
Cu5 O6 2.198636 1_555
Ni0 O9 1.996282 1_555
Ni0 O9 1.996282 1_565
Ni0 O13 2.009278 1_555
Ni0 O13 2.009282 1_655
Ni0 O7 2.042398 1_555
