# generated using pymatgen
data_SrLa2Mn3O9
_symmetry_space_group_name_H-M   'P 1'
_cell_length_a   5.54748107
_cell_length_b   5.54747784
_cell_length_c   6.77193900
_cell_angle_alpha   90.00010512
_cell_angle_beta   89.99952284
_cell_angle_gamma   120.00007700
_symmetry_Int_Tables_number   1
_chemical_formula_structural   SrLa2Mn3O9
_chemical_formula_sum   'Sr1 La2 Mn3 O9'
_cell_volume   180.48235010
_cell_formula_units_Z   1
loop_
 _symmetry_equiv_pos_site_id
 _symmetry_equiv_pos_as_xyz
  1  'x, y, z'
loop_
 _atom_site_type_symbol
 _atom_site_label
 _atom_site_symmetry_multiplicity
 _atom_site_fract_x
 _atom_site_fract_y
 _atom_site_fract_z
 _atom_site_occupancy
  Sr  Sr0  1  0.99999800  0.00000100  0.00025500  1
  La  La0  1  0.66666800  0.33333700  0.33103700  1
  La  La1  1  0.33333200  0.66666400  0.66601500  1
  Mn  Mn0  1  0.00000100  0.00000000  0.49855500  1
  Mn  Mn1  1  0.33333300  0.66666400  0.16507600  1
  Mn  Mn2  1  0.66666700  0.33333800  0.83393100  1
  O  O0  1  0.49505000  0.50494900  0.00710500  1
  O  O1  1  0.00989700  0.50495000  0.00710700  1
  O  O2  1  0.49505300  0.99010300  0.00710800  1
  O  O3  1  0.83156600  0.66313100  0.65801700  1
  O  O4  1  0.17371100  0.34742200  0.33658700  1
  O  O5  1  0.83156600  0.16843200  0.65801500  1
  O  O6  1  0.17371000  0.82629000  0.33658800  1
  O  O7  1  0.33686700  0.16843000  0.65801500  1
  O  O8  1  0.65257900  0.82629000  0.33658900  1
loop_
_geom_bond_atom_site_label_1
_geom_bond_atom_site_label_2
_geom_bond_distance
_geom_bond_site_symmetry_2
La0 O7 2.722762 1_555
La0 O3 2.722767 1_555
La0 O5 2.722787 1_555
La0 O1 2.744274 1_655
La0 O2 2.744297 1_545
La0 O0 2.744307 1_555
La0 O6 2.774803 1_655
La0 O8 2.774806 1_555
La0 O4 2.774817 1_555
La0 O4 2.774823 1_655
La0 O6 2.774830 1_545
La0 O8 2.774833 1_545
La1 O8 2.707216 1_555
La1 O4 2.707227 1_555
La1 O6 2.707243 1_555
La1 O7 2.774312 1_565
La1 O5 2.774312 1_455
La1 O3 2.774319 1_455
La1 O5 2.774323 1_565
La1 O3 2.774324 1_555
La1 O7 2.774328 1_555
La1 O1 2.783857 1_556
La1 O0 2.783860 1_556
La1 O2 2.783887 1_556
Mn0 O5 1.945577 1_455
Mn0 O7 1.945585 1_555
Mn0 O3 1.945594 1_445
Mn0 O6 1.997218 1_545
Mn0 O4 1.997235 1_555
Mn0 O8 1.997239 1_445
Mn1 O0 1.886489 1_555
Mn1 O2 1.886507 1_555
Mn1 O1 1.886509 1_555
Mn1 O4 1.923871 1_555
Mn1 O6 1.923901 1_555
Mn1 O8 1.923906 1_555
Mn2 O3 1.982293 1_555
Mn2 O7 1.982340 1_555
Mn2 O5 1.982346 1_555
Mn2 O0 2.023442 1_556
Mn2 O1 2.023470 1_656
Mn2 O2 2.023482 1_546
O0 Sr0 2.774531 1_565
O0 Sr0 2.774532 1_455
O1 Sr0 2.774532 1_455
O1 Sr0 2.774538 1_465
O2 Sr0 2.774514 1_565
O2 Sr0 2.774559 1_465
O3 Sr0 2.826766 1_566
O4 Sr0 2.823732 1_455
O5 Sr0 2.826763 1_556
O6 Sr0 2.823749 1_465
O7 Sr0 2.826760 1_456
O8 Sr0 2.823723 1_565
