# generated using pymatgen
data_CaTeO3
_symmetry_space_group_name_H-M   'P 1'
_cell_length_a   12.11414408
_cell_length_b   12.11414408
_cell_length_c   11.07393812
_cell_angle_alpha   90.00000000
_cell_angle_beta   90.00000000
_cell_angle_gamma   90.00000000
_symmetry_Int_Tables_number   1
_chemical_formula_structural   CaTeO3
_chemical_formula_sum   'Ca20 Te20 O60'
_cell_volume   1625.12795768
_cell_formula_units_Z   20
loop_
 _symmetry_equiv_pos_site_id
 _symmetry_equiv_pos_as_xyz
  1  'x, y, z'
loop_
 _atom_site_type_symbol
 _atom_site_label
 _atom_site_symmetry_multiplicity
 _atom_site_fract_x
 _atom_site_fract_y
 _atom_site_fract_z
 _atom_site_occupancy
  Ca  Ca0  1  0.22702786  0.24401647  0.27442774  1
  Ca  Ca1  1  0.03790521  0.34479473  0.01323514  1
  Ca  Ca2  1  0.74075577  0.26692191  0.03913608  1
  Ca  Ca3  1  0.75598353  0.22702786  0.52442774  1
  Ca  Ca4  1  0.43331578  0.16271108  0.51699282  1
  Ca  Ca5  1  0.34479473  0.96209479  0.76323514  1
  Ca  Ca6  1  0.16271108  0.56668422  0.26699282  1
  Ca  Ca7  1  0.86416296  0.46173592  0.26717659  1
  Ca  Ca8  1  0.96209479  0.65520527  0.51323514  1
  Ca  Ca9  1  0.46173592  0.13583704  0.01717659  1
  Ca  Ca10  1  0.65520527  0.03790521  0.26323514  1
  Ca  Ca11  1  0.77297214  0.75598353  0.77442774  1
  Ca  Ca12  1  0.13583704  0.53826408  0.76717659  1
  Ca  Ca13  1  0.26692191  0.25924423  0.78913608  1
  Ca  Ca14  1  0.83728892  0.43331578  0.76699282  1
  Ca  Ca15  1  0.25924423  0.73307809  0.53913608  1
  Ca  Ca16  1  0.24401647  0.77297214  0.02442774  1
  Ca  Ca17  1  0.73307809  0.74075577  0.28913608  1
  Ca  Ca18  1  0.56668422  0.83728892  0.01699282  1
  Ca  Ca19  1  0.53826408  0.86416296  0.51717659  1
  Te  Te0  1  0.00788500  0.38323790  0.50924651  1
  Te  Te1  1  0.55444421  0.31267138  0.26652111  1
  Te  Te2  1  0.61676210  0.00788500  0.75924651  1
  Te  Te3  1  0.15628035  0.05774065  0.99543430  1
  Te  Te4  1  0.55857465  0.34238550  0.79261968  1
  Te  Te5  1  0.93659495  0.16804973  0.79161638  1
  Te  Te6  1  0.05774065  0.84371965  0.74543430  1
  Te  Te7  1  0.44555579  0.68732862  0.76652111  1
  Te  Te8  1  0.68732862  0.55444421  0.51652111  1
  Te  Te9  1  0.99211500  0.61676210  0.00924651  1
  Te  Te10  1  0.16804973  0.06340505  0.54161638  1
  Te  Te11  1  0.06340505  0.83195027  0.29161638  1
  Te  Te12  1  0.44142535  0.65761450  0.29261968  1
  Te  Te13  1  0.34238550  0.44142535  0.54261968  1
  Te  Te14  1  0.84371965  0.94225935  0.49543430  1
  Te  Te15  1  0.83195027  0.93659495  0.04161638  1
  Te  Te16  1  0.31267138  0.44555579  0.01652111  1
  Te  Te17  1  0.94225935  0.15628035  0.24543430  1
  Te  Te18  1  0.38323790  0.99211500  0.25924651  1
  Te  Te19  1  0.65761450  0.55857465  0.04261968  1
  O  O0  1  0.24367924  0.41007242  0.16274768  1
  O  O1  1  0.50525642  0.02853334  0.64055946  1
  O  O2  1  0.02853334  0.49474358  0.39055946  1
  O  O3  1  0.50961616  0.98433123  0.88227826  1
  O  O4  1  0.81645788  0.13480779  0.34372790  1
  O  O5  1  0.44816045  0.27223907  0.70075201  1
  O  O6  1  0.41007242  0.75632076  0.91274768  1
  O  O7  1  0.80172022  0.59719802  0.41229989  1
  O  O8  1  0.09690655  0.71231293  0.66496904  1
  O  O9  1  0.01566877  0.50961616  0.13227826  1
  O  O10  1  0.19827978  0.40280198  0.91229989  1
  O  O11  1  0.58992758  0.24367924  0.41274768  1
  O  O12  1  0.88233464  0.27380435  0.89892930  1
  O  O13  1  0.13480779  0.18354212  0.09372790  1
  O  O14  1  0.90309345  0.28768707  0.16496904  1
  O  O15  1  0.77860431  0.04351571  0.60089588  1
  O  O16  1  0.98433123  0.49038384  0.63227826  1
  O  O17  1  0.14058678  0.62909624  0.96011729  1
  O  O18  1  0.33322202  0.32115524  0.43653065  1
  O  O19  1  0.25441286  0.09087091  0.40705922  1
  O  O20  1  0.60523435  0.68071868  0.48200966  1
  O  O21  1  0.09087091  0.74558714  0.15705922  1
  O  O22  1  0.39476565  0.31928132  0.98200966  1
  O  O23  1  0.90912909  0.25441286  0.65705922  1
  O  O24  1  0.85941322  0.37090376  0.46011729  1
  O  O25  1  0.22629426  0.40074882  0.64421147  1
  O  O26  1  0.67884476  0.33322202  0.68653065  1
  O  O27  1  0.77370574  0.59925118  0.14421147  1
  O  O28  1  0.49038384  0.01566877  0.38227826  1
  O  O29  1  0.40280198  0.80172022  0.66229989  1
  O  O30  1  0.59719802  0.19827978  0.16229989  1
  O  O31  1  0.27223907  0.55183955  0.45075201  1
  O  O32  1  0.49474358  0.97146666  0.14055946  1
  O  O33  1  0.18354212  0.86519221  0.84372790  1
  O  O34  1  0.75632076  0.58992758  0.66274768  1
  O  O35  1  0.91705939  0.79383004  0.32092896  1
  O  O36  1  0.97146666  0.50525642  0.89055946  1
  O  O37  1  0.20616996  0.91705939  0.57092896  1
  O  O38  1  0.86519221  0.81645788  0.59372790  1
  O  O39  1  0.59925118  0.22629426  0.89421147  1
  O  O40  1  0.71231293  0.90309345  0.41496904  1
  O  O41  1  0.27380435  0.11766536  0.64892930  1
  O  O42  1  0.66677798  0.67884476  0.93653065  1
  O  O43  1  0.79383004  0.08294061  0.07092896  1
  O  O44  1  0.28768707  0.09690655  0.91496904  1
  O  O45  1  0.55183955  0.72776093  0.20075201  1
  O  O46  1  0.22139569  0.95648429  0.10089588  1
  O  O47  1  0.74558714  0.90912909  0.90705922  1
  O  O48  1  0.04351571  0.22139569  0.35089588  1
  O  O49  1  0.95648429  0.77860431  0.85089588  1
  O  O50  1  0.31928132  0.60523435  0.73200966  1
  O  O51  1  0.11766536  0.72619565  0.39892930  1
  O  O52  1  0.32115524  0.66677798  0.18653065  1
  O  O53  1  0.40074882  0.77370574  0.39421147  1
  O  O54  1  0.68071868  0.39476565  0.23200966  1
  O  O55  1  0.08294061  0.20616996  0.82092896  1
  O  O56  1  0.62909624  0.85941322  0.71011729  1
  O  O57  1  0.72619565  0.88233464  0.14892930  1
  O  O58  1  0.72776093  0.44816045  0.95075201  1
  O  O59  1  0.37090376  0.14058678  0.21011729  1
loop_
_geom_bond_atom_site_label_1
_geom_bond_atom_site_label_2
_geom_bond_distance
_geom_bond_site_symmetry_2
Ca0 O59 2.261618 1_555
Ca0 O0 2.369989 1_555
Ca0 O19 2.389385 1_555
Ca0 O48 2.394642 1_555
Ca0 O18 2.398049 1_555
Ca0 O13 2.406033 1_555
Ca1 O10 2.348966 1_554
Ca1 O9 2.407719 1_555
Ca1 O12 2.427674 1_454
Ca1 O14 2.443173 1_455
Ca1 O13 2.447138 1_555
Ca1 O36 2.504373 1_454
Ca1 O55 2.766387 1_554
Ca2 O12 2.315003 1_554
Ca2 O43 2.346227 1_555
Ca2 O30 2.361377 1_555
Ca2 O39 2.399249 1_554
Ca2 O58 2.408981 1_554
Ca2 O14 2.423318 1_555
Ca2 O54 2.736682 1_555
Ca3 O24 2.261618 1_555
Ca3 O11 2.369989 1_555
Ca3 O23 2.389385 1_555
Ca3 O15 2.394642 1_555
Ca3 O26 2.398049 1_555
Ca3 O4 2.406033 1_555
Ca4 O1 2.296525 1_555
Ca4 O28 2.424143 1_555
Ca4 O11 2.427791 1_555
Ca4 O5 2.435941 1_555
Ca4 O18 2.438929 1_555
Ca4 O41 2.483228 1_555
Ca4 O19 2.633713 1_555
Ca5 O29 2.348966 1_555
Ca5 O3 2.407719 1_555
Ca5 O41 2.427674 1_565
Ca5 O44 2.443173 1_565
Ca5 O33 2.447138 1_555
Ca5 O1 2.504373 1_565
Ca5 O37 2.766387 1_555
Ca6 O2 2.296525 1_555
Ca6 O9 2.424143 1_555
Ca6 O0 2.427791 1_555
Ca6 O31 2.435941 1_555
Ca6 O52 2.438929 1_555
Ca6 O51 2.483228 1_555
Ca6 O21 2.633713 1_555
Ca7 O54 2.397568 1_555
Ca7 O24 2.403998 1_555
Ca7 O27 2.414582 1_555
Ca7 O7 2.418230 1_555
Ca7 O9 2.436513 1_655
Ca7 O14 2.439068 1_555
Ca7 O2 2.447787 1_655
Ca8 O7 2.348966 1_555
Ca8 O16 2.407719 1_555
Ca8 O51 2.427674 1_655
Ca8 O8 2.443173 1_655
Ca8 O38 2.447138 1_555
Ca8 O2 2.504373 1_655
Ca8 O35 2.766387 1_555
Ca9 O22 2.397568 1_554
Ca9 O59 2.403998 1_555
Ca9 O39 2.414582 1_554
Ca9 O30 2.418230 1_555
Ca9 O3 2.436513 1_544
Ca9 O44 2.439068 1_554
Ca9 O32 2.447787 1_545
Ca10 O30 2.348966 1_555
Ca10 O28 2.407719 1_555
Ca10 O57 2.427674 1_545
Ca10 O40 2.443173 1_545
Ca10 O4 2.447138 1_555
Ca10 O32 2.504373 1_545
Ca10 O43 2.766387 1_555
Ca11 O56 2.261618 1_555
Ca11 O34 2.369989 1_555
Ca11 O47 2.389385 1_555
Ca11 O49 2.394642 1_555
Ca11 O42 2.398049 1_555
Ca11 O38 2.406033 1_555
Ca12 O50 2.397568 1_555
Ca12 O17 2.403998 1_555
Ca12 O25 2.414582 1_555
Ca12 O10 2.418230 1_555
Ca12 O16 2.436513 1_455
Ca12 O8 2.439068 1_555
Ca12 O36 2.447787 1_455
Ca13 O41 2.315003 1_555
Ca13 O55 2.346227 1_555
Ca13 O10 2.361377 1_555
Ca13 O25 2.399249 1_555
Ca13 O5 2.408981 1_555
Ca13 O44 2.423318 1_555
Ca13 O22 2.736682 1_555
Ca14 O36 2.296525 1_555
Ca14 O16 2.424143 1_555
Ca14 O34 2.427791 1_555
Ca14 O58 2.435941 1_555
Ca14 O26 2.438929 1_555
Ca14 O12 2.483228 1_555
Ca14 O23 2.633713 1_555
Ca15 O51 2.315003 1_555
Ca15 O37 2.346227 1_555
Ca15 O29 2.361377 1_555
Ca15 O53 2.399249 1_555
Ca15 O31 2.408981 1_555
Ca15 O8 2.423318 1_555
Ca15 O50 2.736682 1_555
Ca16 O17 2.261618 1_554
Ca16 O6 2.369989 1_554
Ca16 O21 2.389385 1_555
Ca16 O46 2.394642 1_555
Ca16 O52 2.398049 1_555
Ca16 O33 2.406033 1_554
Ca17 O57 2.315003 1_555
Ca17 O35 2.346227 1_555
Ca17 O7 2.361377 1_555
Ca17 O27 2.399249 1_555
Ca17 O45 2.408981 1_555
Ca17 O40 2.423318 1_555
Ca17 O20 2.736682 1_555
Ca18 O32 2.296525 1_555
Ca18 O3 2.424143 1_554
Ca18 O6 2.427791 1_554
Ca18 O45 2.435941 1_555
Ca18 O42 2.438929 1_554
Ca18 O57 2.483228 1_555
Ca18 O47 2.633713 1_554
Ca19 O20 2.397568 1_555
Ca19 O56 2.403998 1_555
Ca19 O53 2.414582 1_555
Ca19 O29 2.418230 1_555
Ca19 O28 2.436513 1_565
Ca19 O40 2.439068 1_555
Ca19 O1 2.447787 1_565
O0 Te16 1.872284 1_555
O1 Te2 1.901234 1_555
O2 Te0 1.901234 1_555
O3 Te2 1.903268 1_565
O4 Te17 1.890766 1_555
O5 Te4 1.883129 1_555
O6 Te7 1.872284 1_555
O7 Te8 1.876328 1_555
O8 Te6 1.884992 1_555
O9 Te9 1.903268 1_455
O10 Te16 1.876328 1_556
O11 Te1 1.872284 1_555
O12 Te5 1.866974 1_555
O13 Te3 1.890766 1_554
O14 Te17 1.884992 1_555
O15 Te14 1.868367 1_545
O15 Te2 2.665553 1_555
O16 Te0 1.903268 1_655
O17 Te9 1.885023 1_456
O18 Te13 1.874911 1_555
O19 Te10 1.850839 1_555
O19 Te18 2.558528 1_545
O20 Te8 1.864161 1_555
O21 Te11 1.850839 1_555
O21 Te9 2.558528 1_455
O22 Te16 1.864161 1_556
O23 Te5 1.850839 1_555
O23 Te0 2.558528 1_655
O24 Te0 1.885023 1_655
O25 Te13 1.867162 1_555
O26 Te4 1.874911 1_555
O27 Te19 1.867162 1_555
O28 Te18 1.903268 1_545
O29 Te7 1.876328 1_555
O30 Te1 1.876328 1_555
O31 Te13 1.883129 1_555
O32 Te18 1.901234 1_555
O33 Te6 1.890766 1_555
O34 Te8 1.872284 1_555
O35 Te11 1.860545 1_655
O36 Te9 1.901234 1_556
O37 Te10 1.860545 1_565
O38 Te14 1.890766 1_555
O39 Te4 1.867162 1_555
O40 Te14 1.884992 1_555
O41 Te10 1.866974 1_555
O42 Te19 1.874911 1_556
O43 Te15 1.860545 1_545
O44 Te3 1.884992 1_555
O45 Te12 1.883129 1_555
O46 Te3 1.868367 1_564
O46 Te18 2.665553 1_555
O47 Te15 1.850839 1_556
O47 Te2 2.558528 1_565
O48 Te17 1.868367 1_455
O48 Te0 2.665553 1_555
O49 Te6 1.868367 1_655
O49 Te9 2.665553 1_556
O50 Te7 1.864161 1_555
O51 Te11 1.866974 1_555
O52 Te12 1.874911 1_555
O53 Te12 1.867162 1_555
O54 Te1 1.864161 1_555
O55 Te5 1.860545 1_455
O56 Te2 1.885023 1_565
O57 Te15 1.866974 1_555
O58 Te19 1.883129 1_556
O59 Te18 1.885023 1_545
