# generated using pymatgen
data_Ca5Zr3F22
_symmetry_space_group_name_H-M   'P 1'
_cell_length_a   7.51808700
_cell_length_b   10.06852000
_cell_length_c   10.14109400
_cell_angle_alpha   90.00000000
_cell_angle_beta   90.00000000
_cell_angle_gamma   90.00000000
_symmetry_Int_Tables_number   1
_chemical_formula_structural   Ca5Zr3F22
_chemical_formula_sum   'Ca10 Zr6 F44'
_cell_volume   767.64034595
_cell_formula_units_Z   2
loop_
 _symmetry_equiv_pos_site_id
 _symmetry_equiv_pos_as_xyz
  1  'x, y, z'
loop_
 _atom_site_type_symbol
 _atom_site_label
 _atom_site_symmetry_multiplicity
 _atom_site_fract_x
 _atom_site_fract_y
 _atom_site_fract_z
 _atom_site_occupancy
  Ca  Ca0  1  0.26026300  0.75230100  0.78839700  1
  Ca  Ca1  1  0.73973700  0.75230100  0.21160300  1
  Ca  Ca2  1  0.23973700  0.24769900  0.28839700  1
  Ca  Ca3  1  0.76026300  0.24769900  0.71160300  1
  Ca  Ca4  1  0.00000000  0.94477700  0.50000000  1
  Ca  Ca5  1  0.50000000  0.05522300  0.00000000  1
  Ca  Ca6  1  0.50000000  0.53761600  0.50000000  1
  Ca  Ca7  1  0.00000000  0.46238400  0.00000000  1
  Ca  Ca8  1  0.50000000  0.97816900  0.50000000  1
  Ca  Ca9  1  0.00000000  0.02183100  0.00000000  1
  Zr  Zr0  1  0.75216000  0.77624200  0.78785300  1
  Zr  Zr1  1  0.24784000  0.77624200  0.21214700  1
  Zr  Zr2  1  0.74784000  0.22375800  0.28785300  1
  Zr  Zr3  1  0.25216000  0.22375800  0.71214700  1
  Zr  Zr4  1  0.50000000  0.46124000  0.00000000  1
  Zr  Zr5  1  0.00000000  0.53876000  0.50000000  1
  F  F0  1  0.25958900  0.89405500  0.61268800  1
  F  F1  1  0.74041100  0.89405500  0.38731200  1
  F  F2  1  0.24041100  0.10594500  0.11268800  1
  F  F3  1  0.75958900  0.10594500  0.88731200  1
  F  F4  1  0.74110700  0.93157700  0.64810900  1
  F  F5  1  0.25889300  0.93157700  0.35189100  1
  F  F6  1  0.75889300  0.06842300  0.14810900  1
  F  F7  1  0.24110700  0.06842300  0.85189100  1
  F  F8  1  0.55947900  0.70817400  0.64823400  1
  F  F9  1  0.44052100  0.70817400  0.35176600  1
  F  F10  1  0.94052100  0.29182600  0.14823400  1
  F  F11  1  0.05947900  0.29182600  0.85176600  1
  F  F12  1  0.91218000  0.71191700  0.61123900  1
  F  F13  1  0.08782000  0.71191700  0.38876100  1
  F  F14  1  0.58782000  0.28808300  0.11123900  1
  F  F15  1  0.41218000  0.28808300  0.88876100  1
  F  F16  1  0.77843100  0.60520500  0.38966900  1
  F  F17  1  0.22156900  0.60520500  0.61033100  1
  F  F18  1  0.72156900  0.39479500  0.88966900  1
  F  F19  1  0.27843100  0.39479500  0.11033100  1
  F  F20  1  0.51540000  0.87761200  0.84279200  1
  F  F21  1  0.48460000  0.87761200  0.15720800  1
  F  F22  1  0.98460000  0.12238800  0.34279200  1
  F  F23  1  0.01540000  0.12238800  0.65720800  1
  F  F24  1  0.99474100  0.87869300  0.80449300  1
  F  F25  1  0.00525900  0.87869300  0.19550700  1
  F  F26  1  0.50525900  0.12130700  0.30449300  1
  F  F27  1  0.49474100  0.12130700  0.69550700  1
  F  F28  1  0.93447900  0.62963700  0.84976400  1
  F  F29  1  0.06552100  0.62963700  0.15023600  1
  F  F30  1  0.56552100  0.37036300  0.34976400  1
  F  F31  1  0.43447900  0.37036300  0.65023600  1
  F  F32  1  0.22449600  0.46698200  0.39362900  1
  F  F33  1  0.77550400  0.46698200  0.60637100  1
  F  F34  1  0.27550400  0.53301800  0.89362900  1
  F  F35  1  0.72449600  0.53301800  0.10637100  1
  F  F36  1  0.77976200  0.83081900  0.99043500  1
  F  F37  1  0.22023800  0.83081900  0.00956500  1
  F  F38  1  0.72023800  0.16918100  0.49043500  1
  F  F39  1  0.27976200  0.16918100  0.50956500  1
  F  F40  1  0.58271700  0.62809200  0.88294900  1
  F  F41  1  0.41728300  0.62809200  0.11705100  1
  F  F42  1  0.91728300  0.37190800  0.38294900  1
  F  F43  1  0.08271700  0.37190800  0.61705100  1
loop_
_geom_bond_atom_site_label_1
_geom_bond_atom_site_label_2
_geom_bond_distance
_geom_bond_site_symmetry_2
Ca0 F0 2.283020 1_555
Ca0 F17 2.353499 1_555
Ca0 F20 2.361236 1_555
Ca0 F24 2.372971 1_455
Ca0 F37 2.397096 1_556
Ca0 F34 2.454914 1_555
Ca0 F8 2.697811 1_555
Ca0 F28 2.812750 1_455
Ca0 F40 2.891426 1_555
Ca1 F1 2.283020 1_555
Ca1 F16 2.353499 1_555
Ca1 F21 2.361236 1_555
Ca1 F25 2.372971 1_655
Ca1 F36 2.397096 1_554
Ca1 F35 2.454914 1_555
Ca1 F9 2.697811 1_555
Ca1 F29 2.812750 1_655
Ca1 F41 2.891426 1_555
Ca2 F2 2.283020 1_555
Ca2 F19 2.353499 1_555
Ca2 F22 2.361236 1_455
Ca2 F26 2.372971 1_555
Ca2 F39 2.397096 1_555
Ca2 F32 2.454914 1_555
Ca2 F10 2.697811 1_455
Ca2 F30 2.812750 1_555
Ca2 F42 2.891426 1_455
Ca3 F3 2.283020 1_555
Ca3 F18 2.353499 1_555
Ca3 F23 2.361236 1_655
Ca3 F27 2.372971 1_555
Ca3 F38 2.397096 1_555
Ca3 F33 2.454914 1_555
Ca3 F11 2.697811 1_655
Ca3 F31 2.812750 1_555
Ca3 F43 2.891426 1_655
Ca4 F0 2.318523 1_555
Ca4 F1 2.318523 1_455
Ca4 F22 2.398545 1_465
Ca4 F23 2.398545 1_565
Ca4 F4 2.462118 1_455
Ca4 F5 2.462118 1_555
Ca4 F12 2.684294 1_455
Ca4 F13 2.684294 1_555
Ca5 F3 2.318523 1_554
Ca5 F2 2.318523 1_555
Ca5 F21 2.398545 1_545
Ca5 F20 2.398545 1_544
Ca5 F6 2.462118 1_555
Ca5 F7 2.462118 1_554
Ca5 F14 2.684294 1_555
Ca5 F15 2.684294 1_554
Ca6 F31 2.323725 1_555
Ca6 F30 2.323725 1_555
Ca6 F8 2.325670 1_555
Ca6 F9 2.325670 1_555
Ca6 F32 2.441217 1_555
Ca6 F33 2.441217 1_555
Ca6 F16 2.469163 1_555
Ca6 F17 2.469163 1_555
Ca7 F29 2.323725 1_555
Ca7 F28 2.323725 1_454
Ca7 F10 2.325670 1_455
Ca7 F11 2.325670 1_554
Ca7 F34 2.441217 1_554
Ca7 F35 2.441217 1_455
Ca7 F19 2.469163 1_555
Ca7 F18 2.469163 1_454
Ca8 F1 2.299999 1_555
Ca8 F0 2.299999 1_555
Ca8 F4 2.400371 1_555
Ca8 F5 2.400371 1_555
Ca8 F27 2.451429 1_565
Ca8 F26 2.451429 1_565
Ca8 F38 2.539627 1_565
Ca8 F39 2.539627 1_565
Ca9 F2 2.299999 1_555
Ca9 F3 2.299999 1_454
Ca9 F7 2.400371 1_554
Ca9 F6 2.400371 1_455
Ca9 F24 2.451429 1_444
Ca9 F25 2.451429 1_545
Ca9 F37 2.539627 1_545
Ca9 F36 2.539627 1_444
F4 Zr0 2.112183 1_555
F5 Zr1 2.112183 1_555
F6 Zr2 2.112183 1_555
F7 Zr3 2.112183 1_555
F8 Zr0 2.138425 1_555
F9 Zr1 2.138425 1_555
F10 Zr2 2.138425 1_555
F11 Zr3 2.138425 1_555
F12 Zr5 2.179003 1_655
F12 Zr0 2.252703 1_555
F13 Zr5 2.179003 1_555
F13 Zr1 2.252703 1_555
F14 Zr4 2.179003 1_555
F14 Zr2 2.252703 1_555
F15 Zr4 2.179003 1_556
F15 Zr3 2.252703 1_555
F16 Zr5 2.115244 1_655
F17 Zr5 2.115244 1_555
F18 Zr4 2.115244 1_556
F19 Zr4 2.115244 1_555
F20 Zr0 2.126138 1_555
F21 Zr1 2.126138 1_555
F22 Zr2 2.126138 1_555
F23 Zr3 2.126138 1_555
F24 Zr0 2.102041 1_555
F25 Zr1 2.102041 1_555
F26 Zr2 2.102041 1_555
F27 Zr3 2.102041 1_555
F28 Zr0 2.109938 1_555
F29 Zr1 2.109938 1_555
F30 Zr2 2.109938 1_555
F31 Zr3 2.109938 1_555
F32 Zr5 2.129443 1_555
F33 Zr5 2.129443 1_655
F34 Zr4 2.129443 1_556
F35 Zr4 2.129443 1_555
F36 Zr0 2.136725 1_555
F37 Zr1 2.136725 1_555
F38 Zr2 2.136725 1_555
F39 Zr3 2.136725 1_555
F40 Zr4 2.148952 1_556
F40 Zr0 2.185826 1_555
F41 Zr4 2.148952 1_555
F41 Zr1 2.185826 1_555
F42 Zr5 2.148952 1_655
F42 Zr2 2.185826 1_555
F43 Zr5 2.148952 1_555
F43 Zr3 2.185826 1_555
