# generated using pymatgen
data_K3GaO3
_symmetry_space_group_name_H-M   'P 1'
_cell_length_a   6.46384156
_cell_length_b   6.57213253
_cell_length_c   6.57213261
_cell_angle_alpha   114.42690114
_cell_angle_beta   96.41031796
_cell_angle_gamma   96.41031877
_symmetry_Int_Tables_number   1
_chemical_formula_structural   K3GaO3
_chemical_formula_sum   'K6 Ga2 O6'
_cell_volume   248.73995064
_cell_formula_units_Z   2
loop_
 _symmetry_equiv_pos_site_id
 _symmetry_equiv_pos_as_xyz
  1  'x, y, z'
loop_
 _atom_site_type_symbol
 _atom_site_label
 _atom_site_symmetry_multiplicity
 _atom_site_fract_x
 _atom_site_fract_y
 _atom_site_fract_z
 _atom_site_occupancy
  K  K0  1  0.35256302  0.62690214  0.62690214  1
  K  K1  1  0.00000000  0.74113363  0.25886637  1
  K  K2  1  0.50000000  0.80779438  0.19220562  1
  K  K3  1  -0.00000000  0.25886637  0.74113363  1
  K  K4  1  0.64743698  0.37309786  0.37309786  1
  K  K5  1  0.50000000  0.19220562  0.80779438  1
  Ga  Ga0  1  0.85268554  0.82903240  0.82903240  1
  Ga  Ga1  1  0.14731446  0.17096760  0.17096760  1
  O  O0  1  0.73340257  0.84436271  0.56994106  1
  O  O1  1  0.15712752  0.90194894  0.90194894  1
  O  O2  1  0.84287248  0.09805106  0.09805106  1
  O  O3  1  0.26659743  0.15563729  0.43005894  1
  O  O4  1  0.26659743  0.43005894  0.15563729  1
  O  O5  1  0.73340257  0.56994106  0.84436271  1
loop_
_geom_bond_atom_site_label_1
_geom_bond_atom_site_label_2
_geom_bond_distance
_geom_bond_site_symmetry_2
K0 O1 2.539351 1_555
K0 O3 2.777844 1_555
K0 O4 2.777844 1_555
K0 O0 2.846976 1_555
K0 O5 2.846976 1_555
K1 O4 2.740457 1_555
K1 O0 2.740457 1_455
K1 O3 2.764135 1_565
K1 O5 2.764135 1_454
K2 O4 2.661969 1_555
K2 O0 2.661969 1_555
K2 O3 2.878713 1_565
K2 O5 2.878713 1_554
K2 O2 3.045030 1_565
K2 O1 3.045030 1_554
K3 O5 2.740457 1_455
K3 O3 2.740457 1_555
K3 O0 2.764135 1_445
K3 O4 2.764135 1_556
K4 O2 2.539351 1_555
K4 O0 2.777844 1_555
K4 O5 2.777844 1_555
K4 O3 2.846976 1_555
K4 O4 2.846976 1_555
K5 O5 2.661969 1_555
K5 O3 2.661969 1_555
K5 O0 2.878713 1_545
K5 O4 2.878713 1_556
K5 O1 3.045030 1_545
K5 O2 3.045030 1_556
Ga0 O5 1.835804 1_555
Ga0 O0 1.835804 1_555
Ga0 O2 1.928888 1_566
Ga0 O1 1.928913 1_655
Ga1 O4 1.835804 1_555
Ga1 O3 1.835804 1_555
Ga1 O1 1.928888 1_544
Ga1 O2 1.928913 1_455
