# generated using pymatgen
data_SrSmCoO4
_symmetry_space_group_name_H-M   'P 1'
_cell_length_a   6.78125536
_cell_length_b   6.78125536
_cell_length_c   5.39887600
_cell_angle_alpha   90.00000000
_cell_angle_beta   90.00000000
_cell_angle_gamma   133.30604039
_symmetry_Int_Tables_number   1
_chemical_formula_structural   SrSmCoO4
_chemical_formula_sum   'Sr2 Sm2 Co2 O8'
_cell_volume   180.66590249
_cell_formula_units_Z   2
loop_
 _symmetry_equiv_pos_site_id
 _symmetry_equiv_pos_as_xyz
  1  'x, y, z'
loop_
 _atom_site_type_symbol
 _atom_site_label
 _atom_site_symmetry_multiplicity
 _atom_site_fract_x
 _atom_site_fract_y
 _atom_site_fract_z
 _atom_site_occupancy
  Sr  Sr0  1  0.89557900  0.10442100  0.25000000  1
  Sr  Sr1  1  0.10442100  0.89557900  0.75000000  1
  Sm  Sm0  1  0.38614300  0.61385700  0.75000000  1
  Sm  Sm1  1  0.61385700  0.38614300  0.25000000  1
  Co  Co0  1  0.24960900  0.75039100  0.25000000  1
  Co  Co1  1  0.75039100  0.24960900  0.75000000  1
  O  O0  1  0.50000000  0.00000000  0.50000000  1
  O  O1  1  0.00000000  0.50000000  0.00000000  1
  O  O2  1  0.50000000  0.00000000  0.00000000  1
  O  O3  1  0.00000000  0.50000000  0.50000000  1
  O  O4  1  0.57133500  0.42866500  0.75000000  1
  O  O5  1  0.08924800  0.91075200  0.25000000  1
  O  O6  1  0.42866500  0.57133500  0.25000000  1
  O  O7  1  0.91075200  0.08924800  0.75000000  1
loop_
_geom_bond_atom_site_label_1
_geom_bond_atom_site_label_2
_geom_bond_distance
_geom_bond_site_symmetry_2
Co0 O1 1.904546 1_555
Co0 O3 1.904546 1_555
Co0 O2 1.904546 1_565
Co0 O0 1.904546 1_565
Co0 O5 1.996821 1_555
Co0 O6 2.229612 1_555
Co1 O0 1.904546 1_555
Co1 O2 1.904546 1_556
Co1 O3 1.904546 1_655
Co1 O1 1.904546 1_656
Co1 O7 1.996821 1_555
Co1 O4 2.229612 1_555
O0 Sm1 2.549739 1_555
O0 Sm0 2.549739 1_545
O0 Sr1 2.629326 1_545
O0 Sr0 2.629326 1_555
O1 Sm0 2.549739 1_554
O1 Sm1 2.549739 1_455
O1 Sr0 2.629326 1_455
O1 Sr1 2.629326 1_554
O2 Sm1 2.549739 1_555
O2 Sm0 2.549739 1_544
O2 Sr1 2.629326 1_544
O2 Sr0 2.629326 1_555
O3 Sm0 2.549739 1_555
O3 Sm1 2.549739 1_455
O3 Sr0 2.629326 1_455
O3 Sr1 2.629326 1_555
O4 Sm0 2.306017 1_555
O4 Sr1 2.718797 1_545
O4 Sr1 2.718797 1_655
O4 Sm1 2.750876 1_555
O4 Sm1 2.750876 1_556
O5 Sr0 2.411573 1_465
O5 Sm1 2.704815 1_565
O5 Sm1 2.704815 1_455
O5 Sr1 2.706042 1_554
O5 Sr1 2.706042 1_555
O6 Sm1 2.306017 1_555
O6 Sr0 2.718797 1_455
O6 Sr0 2.718797 1_565
O6 Sm0 2.750876 1_555
O6 Sm0 2.750876 1_554
O7 Sr1 2.411573 1_645
O7 Sm0 2.704815 1_655
O7 Sm0 2.704815 1_545
O7 Sr0 2.706042 1_555
O7 Sr0 2.706042 1_556
