# generated using pymatgen
data_Ge2RuC4(Cl3O2)2
_symmetry_space_group_name_H-M   'P 1'
_cell_length_a   10.35020400
_cell_length_b   8.66073000
_cell_length_c   12.21208236
_cell_angle_alpha   50.08241964
_cell_angle_beta   90.00000000
_cell_angle_gamma   90.00000000
_symmetry_Int_Tables_number   1
_chemical_formula_structural   Ge2RuC4(Cl3O2)2
_chemical_formula_sum   'Ge4 Ru2 C8 Cl12 O8'
_cell_volume   839.59635785
_cell_formula_units_Z   2
loop_
 _symmetry_equiv_pos_site_id
 _symmetry_equiv_pos_as_xyz
  1  'x, y, z'
loop_
 _atom_site_type_symbol
 _atom_site_label
 _atom_site_symmetry_multiplicity
 _atom_site_fract_x
 _atom_site_fract_y
 _atom_site_fract_z
 _atom_site_occupancy
  Ge  Ge0  1  0.33082900  0.21870200  0.49454900  1
  Ge  Ge1  1  0.16917100  0.21870200  0.99454900  1
  Ge  Ge2  1  0.66917100  0.78129800  0.50545100  1
  Ge  Ge3  1  0.83082900  0.78129800  0.00545100  1
  Ru  Ru0  1  0.50000000  0.00000000  0.50000000  1
  Ru  Ru1  1  0.00000000  0.00000000  0.00000000  1
  C  C0  1  0.51741900  0.20286600  0.29053800  1
  C  C1  1  0.98258100  0.20286600  0.79053800  1
  C  C2  1  0.48258100  0.79713400  0.70946200  1
  C  C3  1  0.01741900  0.79713400  0.20946200  1
  C  C4  1  0.36594200  0.86305200  0.47457100  1
  C  C5  1  0.13405800  0.86305200  0.97457100  1
  C  C6  1  0.63405800  0.13694800  0.52542900  1
  C  C7  1  0.86594200  0.13694800  0.02542900  1
  Cl  Cl0  1  0.12956000  0.12710300  0.51938400  1
  Cl  Cl1  1  0.37044000  0.12710300  0.01938400  1
  Cl  Cl2  1  0.87044000  0.87289700  0.48061600  1
  Cl  Cl3  1  0.62956000  0.87289700  0.98061600  1
  Cl  Cl4  1  0.35427100  0.24317000  0.66105300  1
  Cl  Cl5  1  0.14572900  0.24317000  0.16105300  1
  Cl  Cl6  1  0.64572900  0.75683000  0.33894700  1
  Cl  Cl7  1  0.85427100  0.75683000  0.83894700  1
  Cl  Cl8  1  0.33232400  0.53423300  0.29907100  1
  Cl  Cl9  1  0.16767600  0.53423300  0.79907100  1
  Cl  Cl10  1  0.66767600  0.46576700  0.70092900  1
  Cl  Cl11  1  0.83232400  0.46576700  0.20092900  1
  O  O0  1  0.52699300  0.31972400  0.16864600  1
  O  O1  1  0.97300700  0.31972400  0.66864600  1
  O  O2  1  0.47300700  0.68027600  0.83135400  1
  O  O3  1  0.02699300  0.68027600  0.33135400  1
  O  O4  1  0.28874200  0.78445800  0.45833600  1
  O  O5  1  0.21125800  0.78445800  0.95833600  1
  O  O6  1  0.71125800  0.21554200  0.54166400  1
  O  O7  1  0.78874200  0.21554200  0.04166400  1
loop_
_geom_bond_atom_site_label_1
_geom_bond_atom_site_label_2
_geom_bond_distance
_geom_bond_site_symmetry_2
Ge0 Ru0 2.548753 1_555
Ge1 Ru1 2.548753 1_556
Ge2 Ru0 2.548753 1_565
Ge3 Ru1 2.548753 1_665
C0 O0 1.147378 1_555
C0 Ru0 1.973532 1_555
C1 O1 1.147378 1_555
C1 Ru1 1.973532 1_656
C2 O2 1.147378 1_555
C2 Ru0 1.973532 1_565
C3 O3 1.147378 1_555
C3 Ru1 1.973532 1_565
C4 O4 1.146425 1_555
C4 Ru0 1.975127 1_565
C5 O5 1.146425 1_555
C5 Ru1 1.975127 1_566
C6 O6 1.146425 1_555
C6 Ru0 1.975127 1_555
C7 O7 1.146425 1_555
C7 Ru1 1.975127 1_655
Cl0 Ge0 2.179947 1_555
Cl1 Ge1 2.179947 1_554
Cl2 Ge2 2.179947 1_555
Cl3 Ge3 2.179947 1_556
Cl4 Ge0 2.188909 1_555
Cl5 Ge1 2.188909 1_554
Cl6 Ge2 2.188909 1_555
Cl7 Ge3 2.188909 1_556
Cl8 Ge0 2.189659 1_555
Cl9 Ge1 2.189659 1_555
Cl10 Ge2 2.189659 1_555
Cl11 Ge3 2.189659 1_555
