# generated using pymatgen
data_CaMn4(CoO6)2
_symmetry_space_group_name_H-M   'P 1'
_cell_length_a   5.03934794
_cell_length_b   5.12084059
_cell_length_c   10.77920544
_cell_angle_alpha   88.07207680
_cell_angle_beta   81.19413223
_cell_angle_gamma   59.77526672
_symmetry_Int_Tables_number   1
_chemical_formula_structural   CaMn4(CoO6)2
_chemical_formula_sum   'Ca1 Mn4 Co2 O12'
_cell_volume   237.21012767
_cell_formula_units_Z   1
loop_
 _symmetry_equiv_pos_site_id
 _symmetry_equiv_pos_as_xyz
  1  'x, y, z'
loop_
 _atom_site_type_symbol
 _atom_site_label
 _atom_site_symmetry_multiplicity
 _atom_site_fract_x
 _atom_site_fract_y
 _atom_site_fract_z
 _atom_site_occupancy
  Ca  Ca0  1  0.84917900  0.73842200  0.25026200  1
  Mn  Mn0  1  0.29888000  0.34349600  0.98696600  1
  Mn  Mn1  1  0.35954600  0.82173600  0.51063500  1
  Mn  Mn2  1  0.69392600  0.15028200  0.51043700  1
  Mn  Mn3  1  0.63770800  0.67347100  0.98636000  1
  Co  Co0  1  0.97025900  0.00708200  0.98273100  1
  Co  Co1  1  0.02583700  0.48281800  0.52778300  1
  O  O0  1  0.98844300  0.14729400  0.60307800  1
  O  O1  1  0.92712800  0.38725600  0.09107000  1
  O  O2  1  0.00573300  0.63554800  0.89303100  1
  O  O3  1  0.33516400  0.00215700  0.90002200  1
  O  O4  1  0.05907800  0.81690900  0.41435400  1
  O  O5  1  0.41914400  0.11658400  0.41104400  1
  O  O6  1  0.33198100  0.49902300  0.60103800  1
  O  O7  1  0.25645500  0.68994100  0.08185400  1
  O  O8  1  0.60568000  0.01550600  0.08110400  1
  O  O9  1  0.66956900  0.33481800  0.90005500  1
  O  O10  1  0.73139300  0.47843900  0.41674500  1
  O  O11  1  0.63489600  0.85296800  0.60490200  1
loop_
_geom_bond_atom_site_label_1
_geom_bond_atom_site_label_2
_geom_bond_distance
_geom_bond_site_symmetry_2
Ca0 O4 2.336162 1_655
Ca0 O8 2.366812 1_565
Ca0 O1 2.371215 1_555
Ca0 O10 2.377793 1_555
Ca0 O7 2.438429 1_655
Ca0 O5 2.510144 1_565
Mn0 O2 1.891033 1_555
Mn0 O3 1.924327 1_555
Mn0 O9 1.937157 1_555
Mn0 O1 1.941559 1_456
Mn0 O7 1.978013 1_556
Mn0 O8 1.998077 1_556
Mn1 O11 1.910375 1_555
Mn1 O0 1.916229 1_465
Mn1 O5 1.941933 1_565
Mn1 O6 1.944523 1_555
Mn1 O10 1.961786 1_555
Mn1 O4 1.972547 1_555
Mn2 O0 1.905279 1_555
Mn2 O11 1.924126 1_545
Mn2 O4 1.935424 1_645
Mn2 O6 1.939690 1_555
Mn2 O5 1.949954 1_555
Mn2 O10 2.006574 1_555
Mn3 O2 1.889082 1_655
Mn3 O9 1.918628 1_555
Mn3 O3 1.941401 1_565
Mn3 O1 1.946753 1_556
Mn3 O8 1.980425 1_566
Mn3 O7 1.998783 1_556
Co0 O3 1.905213 1_655
Co0 O9 1.912958 1_555
Co0 O8 1.956663 1_556
Co0 O7 1.963688 1_646
Co0 O2 2.077266 1_645
Co0 O1 2.202347 1_556
Co1 O6 1.875318 1_555
Co1 O0 1.957458 1_455
Co1 O11 2.002527 1_455
Co1 O10 2.052758 1_455
Co1 O4 2.129554 1_555
Co1 O5 2.163764 1_555
