# generated using pymatgen
data_SrCa3Mn4O12
_symmetry_space_group_name_H-M   'P 1'
_cell_length_a   3.83448600
_cell_length_b   3.83448600
_cell_length_c   15.28300700
_cell_angle_alpha   90.00000000
_cell_angle_beta   90.00000000
_cell_angle_gamma   90.00000000
_symmetry_Int_Tables_number   1
_chemical_formula_structural   SrCa3Mn4O12
_chemical_formula_sum   'Sr1 Ca3 Mn4 O12'
_cell_volume   224.71037524
_cell_formula_units_Z   1
loop_
 _symmetry_equiv_pos_site_id
 _symmetry_equiv_pos_as_xyz
  1  'x, y, z'
loop_
 _atom_site_type_symbol
 _atom_site_label
 _atom_site_symmetry_multiplicity
 _atom_site_fract_x
 _atom_site_fract_y
 _atom_site_fract_z
 _atom_site_occupancy
  Sr  Sr0  1  0.50000000  0.50000000  0.00000000  1
  Ca  Ca0  1  0.50000000  0.50000000  0.25025200  1
  Ca  Ca1  1  0.50000000  0.50000000  0.50000000  1
  Ca  Ca2  1  0.50000000  0.50000000  0.74974800  1
  Mn  Mn0  1  0.00000000  0.00000000  0.87329600  1
  Mn  Mn1  1  0.00000000  0.00000000  0.12670400  1
  Mn  Mn2  1  0.00000000  0.00000000  0.37542700  1
  Mn  Mn3  1  0.00000000  0.00000000  0.62457300  1
  O  O0  1  0.00000000  0.00000000  0.00000000  1
  O  O1  1  0.00000000  0.00000000  0.25170100  1
  O  O2  1  0.00000000  0.00000000  0.50000000  1
  O  O3  1  0.00000000  0.00000000  0.74829900  1
  O  O4  1  0.50000000  0.00000000  0.87015000  1
  O  O5  1  0.50000000  0.00000000  0.12985000  1
  O  O6  1  0.50000000  0.00000000  0.37593800  1
  O  O7  1  0.50000000  0.00000000  0.62406200  1
  O  O8  1  0.00000000  0.50000000  0.87015000  1
  O  O9  1  0.00000000  0.50000000  0.12985000  1
  O  O10  1  0.00000000  0.50000000  0.37593800  1
  O  O11  1  0.00000000  0.50000000  0.62406200  1
loop_
_geom_bond_atom_site_label_1
_geom_bond_atom_site_label_2
_geom_bond_distance
_geom_bond_site_symmetry_2
Ca0 O5 2.657406 1_555
Ca0 O5 2.657406 1_565
Ca0 O9 2.657406 1_555
Ca0 O9 2.657406 1_655
Ca0 O1 2.711481 1_555
Ca0 O1 2.711481 1_655
Ca0 O1 2.711481 1_565
Ca0 O1 2.711481 1_665
Ca0 O10 2.713950 1_655
Ca0 O10 2.713950 1_555
Ca0 O6 2.713950 1_555
Ca0 O6 2.713950 1_565
Ca1 O6 2.696440 1_555
Ca1 O6 2.696440 1_565
Ca1 O7 2.696440 1_555
Ca1 O10 2.696440 1_655
Ca1 O11 2.696440 1_555
Ca1 O7 2.696440 1_565
Ca1 O10 2.696440 1_555
Ca1 O11 2.696440 1_655
Ca1 O2 2.711391 1_565
Ca1 O2 2.711391 1_655
Ca1 O2 2.711391 1_665
Ca1 O2 2.711391 1_555
Ca2 O4 2.657406 1_565
Ca2 O8 2.657406 1_555
Ca2 O8 2.657406 1_655
Ca2 O4 2.657406 1_555
Ca2 O3 2.711481 1_555
Ca2 O3 2.711481 1_565
Ca2 O3 2.711481 1_655
Ca2 O3 2.711481 1_665
Ca2 O7 2.713950 1_555
Ca2 O11 2.713950 1_555
Ca2 O7 2.713950 1_565
Ca2 O11 2.713950 1_655
Mn0 O3 1.910330 1_555
Mn0 O8 1.917846 1_545
Mn0 O4 1.917846 1_455
Mn0 O4 1.917846 1_555
Mn0 O8 1.917846 1_555
Mn0 O0 1.936418 1_556
Mn1 O1 1.910330 1_555
Mn1 O5 1.917846 1_455
Mn1 O9 1.917846 1_545
Mn1 O5 1.917846 1_555
Mn1 O9 1.917846 1_555
Mn1 O0 1.936418 1_555
Mn2 O1 1.890905 1_555
Mn2 O2 1.903850 1_555
Mn2 O6 1.917259 1_555
Mn2 O10 1.917259 1_545
Mn2 O10 1.917259 1_555
Mn2 O6 1.917259 1_455
Mn3 O3 1.890905 1_555
Mn3 O2 1.903850 1_555
Mn3 O7 1.917259 1_455
Mn3 O11 1.917259 1_545
Mn3 O7 1.917259 1_555
Mn3 O11 1.917259 1_555
O0 Sr0 2.711391 1_445
O0 Sr0 2.711391 1_545
O0 Sr0 2.711391 1_455
O0 Sr0 2.711391 1_555
O4 Sr0 2.759358 1_556
O4 Sr0 2.759358 1_546
O5 Sr0 2.759358 1_555
O5 Sr0 2.759358 1_545
O8 Sr0 2.759358 1_456
O8 Sr0 2.759358 1_556
O9 Sr0 2.759358 1_555
O9 Sr0 2.759358 1_455
