# generated using pymatgen
data_Li2VCr3O8
_symmetry_space_group_name_H-M   'P 1'
_cell_length_a   5.90889247
_cell_length_b   5.90998115
_cell_length_c   10.47686151
_cell_angle_alpha   74.55597285
_cell_angle_beta   73.61695878
_cell_angle_gamma   60.00595955
_symmetry_Int_Tables_number   1
_chemical_formula_structural   Li2VCr3O8
_chemical_formula_sum   'Li4 V2 Cr6 O16'
_cell_volume   300.52752047
_cell_formula_units_Z   2
loop_
 _symmetry_equiv_pos_site_id
 _symmetry_equiv_pos_as_xyz
  1  'x, y, z'
loop_
 _atom_site_type_symbol
 _atom_site_label
 _atom_site_symmetry_multiplicity
 _atom_site_fract_x
 _atom_site_fract_y
 _atom_site_fract_z
 _atom_site_occupancy
  Li  Li0  1  0.25004600  0.74986000  0.24999000  1
  Li  Li1  1  0.75007300  0.24989700  0.75003500  1
  Li  Li2  1  0.75002100  0.74992000  0.25004200  1
  Li  Li3  1  0.24991500  0.24995900  0.75008600  1
  V  V0  1  0.99989600  0.99989400  0.00018200  1
  V  V1  1  0.49992100  0.50004000  0.50014200  1
  Cr  Cr0  1  0.49993800  0.00011600  0.00003600  1
  Cr  Cr1  1  0.99999700  0.00019600  0.49983200  1
  Cr  Cr2  1  0.50005100  0.99991300  0.50007600  1
  Cr  Cr3  1  0.00021300  0.49987400  0.49986200  1
  Cr  Cr4  1  0.49999100  0.50026400  0.99971600  1
  Cr  Cr5  1  0.99973700  0.50003000  0.00014000  1
  O  O0  1  0.37941200  0.84784500  0.39357200  1
  O  O1  1  0.87937200  0.34783600  0.89353300  1
  O  O2  1  0.12072200  0.65213000  0.10643300  1
  O  O3  1  0.62080100  0.15211400  0.60642600  1
  O  O4  1  0.87290000  0.86032100  0.39385600  1
  O  O5  1  0.37272400  0.36035500  0.89393700  1
  O  O6  1  0.62691000  0.63976000  0.10613900  1
  O  O7  1  0.12707100  0.13974100  0.60607300  1
  O  O8  1  0.84869100  0.37696500  0.39750000  1
  O  O9  1  0.34866600  0.87703500  0.89752600  1
  O  O10  1  0.37701300  0.37680000  0.39755600  1
  O  O11  1  0.87681800  0.87691700  0.89759000  1
  O  O12  1  0.12307400  0.12301500  0.10248900  1
  O  O13  1  0.62330700  0.62293600  0.60243700  1
  O  O14  1  0.65137900  0.12315100  0.10241700  1
  O  O15  1  0.15134100  0.62311700  0.60237600  1
loop_
_geom_bond_atom_site_label_1
_geom_bond_atom_site_label_2
_geom_bond_distance
_geom_bond_site_symmetry_2
Li0 O2 2.175302 1_555
Li0 O0 2.176639 1_555
Li0 O6 2.198628 1_555
Li0 O4 2.199763 1_455
Li0 O10 2.235885 1_555
Li0 O12 2.235886 1_565
Li1 O1 2.175442 1_555
Li1 O3 2.175759 1_555
Li1 O7 2.199707 1_655
Li1 O5 2.200750 1_555
Li1 O11 2.235476 1_545
Li1 O13 2.235937 1_555
Li2 O0 2.174973 1_555
Li2 O2 2.175780 1_655
Li2 O4 2.199430 1_555
Li2 O6 2.200233 1_555
Li2 O8 2.234861 1_555
Li2 O14 2.236842 1_565
Li3 O1 2.174307 1_455
Li3 O3 2.176761 1_555
Li3 O5 2.199465 1_555
Li3 O7 2.200382 1_555
Li3 O9 2.234626 1_545
Li3 O15 2.237015 1_555
Cr0 O5 1.986000 1_554
Cr0 O6 1.986523 1_545
Cr0 O14 2.021740 1_555
Cr0 O11 2.021910 1_544
Cr0 O12 2.021948 1_555
Cr0 O9 2.022181 1_544
Cr1 O4 2.014956 1_545
Cr1 O7 2.015534 1_655
Cr1 O0 2.045472 1_645
Cr1 O3 2.045678 1_555
Cr1 O8 2.045921 1_555
Cr1 O15 2.048063 1_645
Cr2 O7 2.015069 1_565
Cr2 O4 2.015311 1_555
Cr2 O3 2.045384 1_565
Cr2 O0 2.045541 1_555
Cr2 O13 2.046936 1_555
Cr2 O10 2.047136 1_565
Cr3 O7 1.985987 1_555
Cr3 O4 1.986531 1_455
Cr3 O10 2.021118 1_555
Cr3 O8 2.021422 1_455
Cr3 O15 2.022247 1_555
Cr3 O13 2.022496 1_455
Cr4 O5 2.014263 1_555
Cr4 O6 2.016110 1_556
Cr4 O1 2.045059 1_555
Cr4 O9 2.045403 1_555
Cr4 O2 2.046435 1_556
Cr4 O14 2.048809 1_556
Cr5 O6 2.014408 1_555
Cr5 O5 2.015851 1_654
Cr5 O2 2.045480 1_655
Cr5 O1 2.045759 1_554
Cr5 O12 2.047047 1_655
Cr5 O11 2.047270 1_554
O0 V1 1.934319 1_555
O1 V0 1.935235 1_546
O2 V0 1.932815 1_455
O3 V1 1.933647 1_555
O8 V1 1.897433 1_555
O9 V0 1.897497 1_456
O10 V1 1.897153 1_555
O11 V0 1.896811 1_556
O12 V0 1.895545 1_445
O13 V1 1.895386 1_555
O14 V0 1.894782 1_545
O15 V1 1.895061 1_555
