# generated using pymatgen
data_Ba2P4H6O13
_symmetry_space_group_name_H-M   'P 1'
_cell_length_a   11.51532200
_cell_length_b   8.99636300
_cell_length_c   17.82403564
_cell_angle_alpha   90.00000000
_cell_angle_beta   127.88498858
_cell_angle_gamma   90.00000000
_symmetry_Int_Tables_number   1
_chemical_formula_structural   Ba2P4H6O13
_chemical_formula_sum   'Ba8 P16 H24 O52'
_cell_volume   1457.34017744
_cell_formula_units_Z   4
loop_
 _symmetry_equiv_pos_site_id
 _symmetry_equiv_pos_as_xyz
  1  'x, y, z'
loop_
 _atom_site_type_symbol
 _atom_site_label
 _atom_site_symmetry_multiplicity
 _atom_site_fract_x
 _atom_site_fract_y
 _atom_site_fract_z
 _atom_site_occupancy
  Ba  Ba0  1  0.70090800  0.03194900  0.48609500  1
  Ba  Ba1  1  0.70090800  0.46805100  0.98609500  1
  Ba  Ba2  1  0.29909200  0.96805100  0.51390500  1
  Ba  Ba3  1  0.29909200  0.53194900  0.01390500  1
  Ba  Ba4  1  0.73914200  0.50490300  0.47721000  1
  Ba  Ba5  1  0.73914200  0.99509700  0.97721000  1
  Ba  Ba6  1  0.26085800  0.49509700  0.52279000  1
  Ba  Ba7  1  0.26085800  0.00490300  0.02279000  1
  P  P0  1  0.98630300  0.63923500  0.73027300  1
  P  P1  1  0.98630300  0.86076500  0.23027300  1
  P  P2  1  0.01369700  0.36076500  0.26972700  1
  P  P3  1  0.01369700  0.13923500  0.76972700  1
  P  P4  1  0.57485300  0.78156800  0.24836300  1
  P  P5  1  0.57485300  0.71843200  0.74836300  1
  P  P6  1  0.42514700  0.21843200  0.75163700  1
  P  P7  1  0.42514700  0.28156800  0.25163700  1
  P  P8  1  0.95691000  0.22933200  0.43519400  1
  P  P9  1  0.95691000  0.27066800  0.93519400  1
  P  P10  1  0.04309000  0.77066800  0.56480600  1
  P  P11  1  0.04309000  0.72933200  0.06480600  1
  P  P12  1  0.39044200  0.68896900  0.39143000  1
  P  P13  1  0.39044200  0.81103100  0.89143000  1
  P  P14  1  0.60955800  0.31103100  0.60857000  1
  P  P15  1  0.60955800  0.18896900  0.10857000  1
  H  H0  1  0.68424500  0.82117800  0.62015400  1
  H  H1  1  0.68424500  0.67882200  0.12015400  1
  H  H2  1  0.31575500  0.17882200  0.37984600  1
  H  H3  1  0.31575500  0.32117800  0.87984600  1
  H  H4  1  0.72771000  0.96473400  0.68076700  1
  H  H5  1  0.72771000  0.53526600  0.18076700  1
  H  H6  1  0.27229000  0.03526600  0.31923300  1
  H  H7  1  0.27229000  0.46473400  0.81923300  1
  H  H8  1  0.03885200  0.78522600  0.76049500  1
  H  H9  1  0.03885200  0.71477400  0.26049500  1
  H  H10  1  0.96114800  0.21477400  0.23950500  1
  H  H11  1  0.96114800  0.28522600  0.73950500  1
  H  H12  1  0.68928800  0.80354100  0.24186300  1
  H  H13  1  0.68928800  0.69645900  0.74186300  1
  H  H14  1  0.31071200  0.19645900  0.75813700  1
  H  H15  1  0.31071200  0.30354100  0.25813700  1
  H  H16  1  0.86639300  0.12954000  0.35924800  1
  H  H17  1  0.86639300  0.37046000  0.85924800  1
  H  H18  1  0.13360700  0.87046000  0.64075200  1
  H  H19  1  0.13360700  0.62954000  0.14075200  1
  H  H20  1  0.30220200  0.74956100  0.29927200  1
  H  H21  1  0.30220200  0.75043900  0.79927200  1
  H  H22  1  0.69779800  0.25043900  0.70072800  1
  H  H23  1  0.69779800  0.24956100  0.20072800  1
  O  O0  1  0.64982000  0.92235500  0.61805300  1
  O  O1  1  0.64982000  0.57764500  0.11805300  1
  O  O2  1  0.35018000  0.07764500  0.38194700  1
  O  O3  1  0.35018000  0.42235500  0.88194700  1
  O  O4  1  0.04124700  0.54015000  0.81412100  1
  O  O5  1  0.04124700  0.95985000  0.31412100  1
  O  O6  1  0.95875300  0.45985000  0.18587900  1
  O  O7  1  0.95875300  0.04015000  0.68587900  1
  O  O8  1  0.09427500  0.56855100  0.70464200  1
  O  O9  1  0.09427500  0.93144900  0.20464200  1
  O  O10  1  0.90572500  0.43144900  0.29535800  1
  O  O11  1  0.90572500  0.06855100  0.79535800  1
  O  O12  1  0.82730900  0.64333900  0.64329500  1
  O  O13  1  0.82730900  0.85666100  0.14329500  1
  O  O14  1  0.17269100  0.35666100  0.35670500  1
  O  O15  1  0.17269100  0.14333900  0.85670500  1
  O  O16  1  0.58207600  0.90900400  0.30935100  1
  O  O17  1  0.58207600  0.59099600  0.80935100  1
  O  O18  1  0.41792400  0.09099600  0.69064900  1
  O  O19  1  0.41792400  0.40900400  0.19064900  1
  O  O20  1  0.61304100  0.64371500  0.31104100  1
  O  O21  1  0.61304100  0.85628500  0.81104100  1
  O  O22  1  0.38695900  0.35628500  0.68895900  1
  O  O23  1  0.38695900  0.14371500  0.18895900  1
  O  O24  1  0.42932200  0.76935800  0.14914700  1
  O  O25  1  0.42932200  0.73064200  0.64914700  1
  O  O26  1  0.57067800  0.23064200  0.85085300  1
  O  O27  1  0.57067800  0.26935800  0.35085300  1
  O  O28  1  0.92003400  0.39807500  0.38610300  1
  O  O29  1  0.92003400  0.10192500  0.88610300  1
  O  O30  1  0.07996600  0.60192500  0.61389700  1
  O  O31  1  0.07996600  0.89807500  0.11389700  1
  O  O32  1  0.90185400  0.25072000  0.49271000  1
  O  O33  1  0.90185400  0.24928000  0.99271000  1
  O  O34  1  0.09814600  0.74928000  0.50729000  1
  O  O35  1  0.09814600  0.75072000  0.00729000  1
  O  O36  1  0.11674300  0.19302000  0.48556700  1
  O  O37  1  0.11674300  0.30698000  0.98556700  1
  O  O38  1  0.88325700  0.80698000  0.51443300  1
  O  O39  1  0.88325700  0.69302000  0.01443300  1
  O  O40  1  0.30854100  0.70803900  0.43272800  1
  O  O41  1  0.30854100  0.79196100  0.93272800  1
  O  O42  1  0.69145900  0.29196100  0.56727200  1
  O  O43  1  0.69145900  0.20803900  0.06727200  1
  O  O44  1  0.42956900  0.52724800  0.38600300  1
  O  O45  1  0.42956900  0.97275200  0.88600300  1
  O  O46  1  0.57043100  0.47275200  0.61399700  1
  O  O47  1  0.57043100  0.02724800  0.11399700  1
  O  O48  1  0.54198700  0.76566200  0.44986400  1
  O  O49  1  0.54198700  0.73433800  0.94986400  1
  O  O50  1  0.45801300  0.23433800  0.55013600  1
  O  O51  1  0.45801300  0.26566200  0.05013600  1
loop_
_geom_bond_atom_site_label_1
_geom_bond_atom_site_label_2
_geom_bond_distance
_geom_bond_site_symmetry_2
Ba0 O38 2.730916 1_545
Ba0 O16 2.779536 1_545
Ba0 O42 2.787544 1_555
Ba0 O48 2.837881 1_545
Ba0 O27 2.860363 1_555
Ba0 O7 2.918290 1_555
Ba0 O0 2.923967 1_545
Ba0 O32 2.984429 1_555
Ba0 O2 3.273932 1_555
Ba1 O39 2.730916 1_556
Ba1 O17 2.779536 1_555
Ba1 O43 2.787544 1_556
Ba1 O49 2.837881 1_555
Ba1 O26 2.860363 1_555
Ba1 O6 2.918290 1_556
Ba1 O1 2.923967 1_556
Ba1 O33 2.984429 1_555
Ba1 O3 3.273932 1_555
Ba2 O36 2.730916 1_565
Ba2 O18 2.779536 1_565
Ba2 O40 2.787544 1_555
Ba2 O50 2.837881 1_565
Ba2 O25 2.860363 1_555
Ba2 O5 2.918290 1_555
Ba2 O2 2.923967 1_565
Ba2 O34 2.984429 1_555
Ba2 O0 3.273932 1_555
Ba3 O37 2.730916 1_554
Ba3 O19 2.779536 1_555
Ba3 O41 2.787544 1_554
Ba3 O51 2.837881 1_555
Ba3 O24 2.860363 1_555
Ba3 O4 2.918290 1_554
Ba3 O3 2.923967 1_554
Ba3 O35 2.984429 1_555
Ba3 O1 3.273932 1_555
Ba4 O20 2.675497 1_555
Ba4 O42 2.762396 1_555
Ba4 O12 2.766589 1_555
Ba4 O27 2.821367 1_555
Ba4 O32 2.860132 1_555
Ba4 O44 2.876417 1_555
Ba4 O38 3.037647 1_555
Ba4 O48 3.088035 1_555
Ba4 O30 3.218284 1_655
Ba5 O21 2.675497 1_555
Ba5 O43 2.762396 1_566
Ba5 O13 2.766589 1_556
Ba5 O26 2.821367 1_565
Ba5 O33 2.860132 1_565
Ba5 O45 2.876417 1_555
Ba5 O39 3.037647 1_556
Ba5 O49 3.088035 1_555
Ba5 O31 3.218284 1_656
Ba6 O22 2.675497 1_555
Ba6 O40 2.762396 1_555
Ba6 O14 2.766589 1_555
Ba6 O25 2.821367 1_555
Ba6 O34 2.860132 1_555
Ba6 O46 2.876417 1_555
Ba6 O36 3.037647 1_555
Ba6 O50 3.088035 1_555
Ba6 O28 3.218284 1_455
Ba7 O23 2.675497 1_555
Ba7 O41 2.762396 1_544
Ba7 O15 2.766589 1_554
Ba7 O24 2.821367 1_545
Ba7 O35 2.860132 1_545
Ba7 O47 2.876417 1_555
Ba7 O37 3.037647 1_554
Ba7 O51 3.088035 1_555
Ba7 O29 3.218284 1_454
H0 O0 0.984289 1_555
H1 O1 0.984289 1_555
H2 O2 0.984289 1_555
H3 O3 0.984289 1_555
H4 O0 0.983870 1_555
H5 O1 0.983870 1_555
H6 O2 0.983870 1_555
H7 O3 0.983870 1_555
H8 P0 1.407478 1_455
H9 P1 1.407478 1_455
H10 P2 1.407478 1_655
H11 P3 1.407478 1_655
H12 P4 1.405874 1_555
H13 P5 1.405874 1_555
H14 P6 1.405874 1_555
H15 P7 1.405874 1_555
H16 P8 1.411367 1_555
H17 P9 1.411367 1_555
H18 P10 1.411367 1_555
H19 P11 1.411367 1_555
H20 P12 1.406393 1_555
H21 P13 1.406393 1_555
H22 P14 1.406393 1_555
H23 P15 1.406393 1_555
O4 P0 1.505708 1_455
O5 P1 1.505708 1_455
O6 P2 1.505708 1_655
O7 P3 1.505708 1_655
O8 P0 1.690137 1_455
O9 P1 1.690137 1_455
O10 P2 1.690137 1_655
O11 P3 1.690137 1_655
O12 P0 1.506942 1_555
O13 P1 1.506942 1_555
O14 P2 1.506942 1_555
O15 P3 1.506942 1_555
O16 P4 1.546586 1_555
O17 P5 1.546586 1_555
O18 P6 1.546586 1_555
O19 P7 1.546586 1_555
O20 P4 1.541470 1_555
O21 P5 1.541470 1_555
O22 P6 1.541470 1_555
O23 P7 1.541470 1_555
O24 P4 1.519234 1_555
O25 P5 1.519234 1_555
O26 P6 1.519234 1_555
O27 P7 1.519234 1_555
O28 P8 1.671573 1_555
O29 P9 1.671573 1_555
O30 P10 1.671573 1_555
O31 P11 1.671573 1_555
O32 P8 1.512668 1_555
O33 P9 1.512668 1_555
O34 P10 1.512668 1_555
O35 P11 1.512668 1_555
O36 P8 1.506932 1_455
O37 P9 1.506932 1_455
O38 P10 1.506932 1_655
O39 P11 1.506932 1_655
O40 P12 1.520973 1_555
O41 P13 1.520973 1_555
O42 P14 1.520973 1_555
O43 P15 1.520973 1_555
O44 P12 1.543575 1_555
O45 P13 1.543575 1_555
O46 P14 1.543575 1_555
O47 P15 1.543575 1_555
O48 P12 1.540750 1_555
O49 P13 1.540750 1_555
O50 P14 1.540750 1_555
O51 P15 1.540750 1_555
