# generated using pymatgen
data_YbCrO3
_symmetry_space_group_name_H-M   'P 1'
_cell_length_a   5.24246200
_cell_length_b   5.45625700
_cell_length_c   7.45927200
_cell_angle_alpha   90.00000000
_cell_angle_beta   90.00000000
_cell_angle_gamma   90.00000000
_symmetry_Int_Tables_number   1
_chemical_formula_structural   YbCrO3
_chemical_formula_sum   'Yb4 Cr4 O12'
_cell_volume   213.36665721
_cell_formula_units_Z   4
loop_
 _symmetry_equiv_pos_site_id
 _symmetry_equiv_pos_as_xyz
  1  'x, y, z'
loop_
 _atom_site_type_symbol
 _atom_site_label
 _atom_site_symmetry_multiplicity
 _atom_site_fract_x
 _atom_site_fract_y
 _atom_site_fract_z
 _atom_site_occupancy
  Yb  Yb0  1  0.01257800  0.44350100  0.25000000  1
  Yb  Yb1  1  0.98742200  0.55649900  0.75000000  1
  Yb  Yb2  1  0.51257800  0.05649900  0.75000000  1
  Yb  Yb3  1  0.48742200  0.94350100  0.25000000  1
  Cr  Cr0  1  0.00000000  0.00000000  0.00000000  1
  Cr  Cr1  1  0.50000000  0.50000000  0.00000000  1
  Cr  Cr2  1  0.00000000  0.00000000  0.50000000  1
  Cr  Cr3  1  0.50000000  0.50000000  0.50000000  1
  O  O0  1  0.29309100  0.20001700  0.04318700  1
  O  O1  1  0.70690900  0.79998300  0.95681300  1
  O  O2  1  0.79309100  0.29998300  0.95681300  1
  O  O3  1  0.70690900  0.79998300  0.54318700  1
  O  O4  1  0.20690900  0.70001700  0.04318700  1
  O  O5  1  0.29309100  0.20001700  0.45681300  1
  O  O6  1  0.20690900  0.70001700  0.45681300  1
  O  O7  1  0.79309100  0.29998300  0.54318700  1
  O  O8  1  0.58363200  0.52383500  0.25000000  1
  O  O9  1  0.41636800  0.47616500  0.75000000  1
  O  O10  1  0.08363200  0.97616500  0.75000000  1
  O  O11  1  0.91636800  0.02383500  0.25000000  1
loop_
_geom_bond_atom_site_label_1
_geom_bond_atom_site_label_2
_geom_bond_distance
_geom_bond_site_symmetry_2
Cr0 O1 1.911988 1_444
Cr0 O0 1.911988 1_555
Cr0 O11 1.920075 1_455
Cr0 O10 1.920075 1_544
Cr0 O2 1.989834 1_454
Cr0 O4 1.989834 1_545
Cr1 O2 1.911988 1_554
Cr1 O4 1.911988 1_555
Cr1 O8 1.920075 1_555
Cr1 O9 1.920075 1_554
Cr1 O1 1.989834 1_554
Cr1 O0 1.989834 1_555
Cr2 O3 1.911988 1_445
Cr2 O5 1.911988 1_555
Cr2 O11 1.920075 1_455
Cr2 O10 1.920075 1_545
Cr2 O7 1.989834 1_455
Cr2 O6 1.989834 1_545
Cr3 O7 1.911988 1_555
Cr3 O6 1.911988 1_555
Cr3 O9 1.920075 1_555
Cr3 O8 1.920075 1_555
Cr3 O5 1.989834 1_555
Cr3 O3 1.989834 1_555
O0 Yb3 2.318765 1_545
O0 Yb0 2.511451 1_555
O0 Yb2 2.592297 1_554
O1 Yb2 2.318765 1_565
O1 Yb1 2.511451 1_555
O1 Yb3 2.592297 1_556
O2 Yb1 2.318765 1_555
O2 Yb2 2.511451 1_555
O2 Yb0 2.592297 1_656
O3 Yb2 2.318765 1_565
O3 Yb1 2.511451 1_555
O3 Yb3 2.592297 1_555
O4 Yb0 2.318765 1_555
O4 Yb3 2.511451 1_555
O4 Yb1 2.592297 1_454
O5 Yb3 2.318765 1_545
O5 Yb0 2.511451 1_555
O5 Yb2 2.592297 1_555
O6 Yb0 2.318765 1_555
O6 Yb3 2.511451 1_555
O6 Yb1 2.592297 1_455
O7 Yb1 2.318765 1_555
O7 Yb2 2.511451 1_555
O7 Yb0 2.592297 1_655
O8 Yb0 2.291054 1_655
O8 Yb3 2.344697 1_555
O9 Yb1 2.291054 1_455
O9 Yb2 2.344697 1_555
O10 Yb2 2.291054 1_565
O10 Yb1 2.344697 1_455
O11 Yb3 2.291054 1_545
O11 Yb0 2.344697 1_655
