# generated using pymatgen
data_La2(InCu3)3
_symmetry_space_group_name_H-M   'P 1'
_cell_length_a   5.22323700
_cell_length_b   10.87355500
_cell_length_c   17.24198300
_cell_angle_alpha   90.00000000
_cell_angle_beta   90.00000000
_cell_angle_gamma   90.00000000
_symmetry_Int_Tables_number   1
_chemical_formula_structural   La2(InCu3)3
_chemical_formula_sum   'La8 In12 Cu36'
_cell_volume   979.26109350
_cell_formula_units_Z   4
loop_
 _symmetry_equiv_pos_site_id
 _symmetry_equiv_pos_as_xyz
  1  'x, y, z'
loop_
 _atom_site_type_symbol
 _atom_site_label
 _atom_site_symmetry_multiplicity
 _atom_site_fract_x
 _atom_site_fract_y
 _atom_site_fract_z
 _atom_site_occupancy
  La  La0  1  0.50000000  0.88831000  0.74423900  1
  La  La1  1  0.50000000  0.11169000  0.25576100  1
  La  La2  1  0.00000000  0.61169000  0.24423900  1
  La  La3  1  0.00000000  0.38831000  0.75576100  1
  La  La4  1  0.50000000  0.50000000  0.50000000  1
  La  La5  1  0.00000000  0.00000000  0.00000000  1
  La  La6  1  0.50000000  0.50000000  0.00000000  1
  La  La7  1  0.00000000  0.00000000  0.50000000  1
  In  In0  1  0.50000000  0.80693200  0.55377300  1
  In  In1  1  0.50000000  0.19306800  0.44622700  1
  In  In2  1  0.00000000  0.69306800  0.05377300  1
  In  In3  1  0.00000000  0.30693200  0.94622700  1
  In  In4  1  0.50000000  0.57481100  0.80704800  1
  In  In5  1  0.50000000  0.42518900  0.19295200  1
  In  In6  1  0.00000000  0.92518900  0.30704900  1
  In  In7  1  0.00000000  0.07481100  0.69295200  1
  In  In8  1  0.50000000  0.79747000  0.28217500  1
  In  In9  1  0.50000000  0.20253000  0.71782500  1
  In  In10  1  0.00000000  0.70253000  0.78217500  1
  In  In11  1  0.00000000  0.29747000  0.21782500  1
  Cu  Cu0  1  0.25564800  0.63189600  0.65334000  1
  Cu  Cu1  1  0.25564800  0.36810400  0.34666000  1
  Cu  Cu2  1  0.24435200  0.86810400  0.15334000  1
  Cu  Cu3  1  0.24435200  0.13189600  0.84666000  1
  Cu  Cu4  1  0.74435200  0.36810400  0.34666000  1
  Cu  Cu5  1  0.74435200  0.63189600  0.65334000  1
  Cu  Cu6  1  0.75564800  0.13189600  0.84666000  1
  Cu  Cu7  1  0.75564800  0.86810400  0.15334000  1
  Cu  Cu8  1  0.50000000  0.66148000  0.14819100  1
  Cu  Cu9  1  0.50000000  0.33852000  0.85180900  1
  Cu  Cu10  1  0.00000000  0.83852000  0.64819100  1
  Cu  Cu11  1  0.00000000  0.16148000  0.35180900  1
  Cu  Cu12  1  0.50000000  0.95177700  0.40874700  1
  Cu  Cu13  1  0.50000000  0.04822300  0.59125300  1
  Cu  Cu14  1  0.00000000  0.54822300  0.90874700  1
  Cu  Cu15  1  0.00000000  0.45177700  0.09125300  1
  Cu  Cu16  1  0.25594100  0.75745100  0.91211700  1
  Cu  Cu17  1  0.25594100  0.24254900  0.08788300  1
  Cu  Cu18  1  0.24405900  0.74254900  0.41211700  1
  Cu  Cu19  1  0.24405900  0.25745100  0.58788300  1
  Cu  Cu20  1  0.74405900  0.24254900  0.08788300  1
  Cu  Cu21  1  0.74405900  0.75745100  0.91211700  1
  Cu  Cu22  1  0.75594100  0.25745100  0.58788300  1
  Cu  Cu23  1  0.75594100  0.74254900  0.41211700  1
  Cu  Cu24  1  0.50000000  0.56600300  0.33391600  1
  Cu  Cu25  1  0.50000000  0.43399700  0.66608400  1
  Cu  Cu26  1  0.00000000  0.93399700  0.83391600  1
  Cu  Cu27  1  0.00000000  0.06600300  0.16608400  1
  Cu  Cu28  1  0.50000000  0.81030400  0.03430300  1
  Cu  Cu29  1  0.50000000  0.18969600  0.96569700  1
  Cu  Cu30  1  0.00000000  0.68969600  0.53430300  1
  Cu  Cu31  1  0.00000000  0.31030400  0.46569700  1
  Cu  Cu32  1  0.50000000  0.95878700  0.91345500  1
  Cu  Cu33  1  0.50000000  0.04121300  0.08654500  1
  Cu  Cu34  1  0.00000000  0.54121300  0.41345500  1
  Cu  Cu35  1  0.00000000  0.45878700  0.58654500  1
loop_
_geom_bond_atom_site_label_1
_geom_bond_atom_site_label_2
_geom_bond_distance
_geom_bond_site_symmetry_2
In0 La0 3.401136 1_555
In0 La4 3.463832 1_555
In0 La7 3.476690 1_565
In0 La7 3.476690 1_665
In1 La1 3.401136 1_555
In1 La4 3.463832 1_555
In1 La7 3.476690 1_555
In1 La7 3.476690 1_655
In2 La2 3.401136 1_555
In2 La5 3.463832 1_565
In2 La6 3.476690 1_455
In2 La6 3.476690 1_555
In3 La3 3.401136 1_555
In3 La5 3.463832 1_556
In3 La6 3.476690 1_556
In3 La6 3.476690 1_456
In4 La3 3.422720 1_655
In4 La3 3.422720 1_555
In4 La6 3.424882 1_556
In4 La0 3.576735 1_555
In5 La2 3.422720 1_655
In5 La2 3.422720 1_555
In5 La6 3.424882 1_555
In5 La1 3.576735 1_555
In6 In8 2.988836 1_455
In6 In8 2.988836 1_555
In6 La1 3.422725 1_465
In6 La1 3.422725 1_565
In6 La7 3.424865 1_565
In6 La2 3.576740 1_555
In7 In9 2.988833 1_555
In7 In9 2.988833 1_455
In7 La0 3.422720 1_445
In7 La0 3.422720 1_545
In7 La7 3.424882 1_555
In7 La3 3.576735 1_555
In8 La2 3.365880 1_555
In8 La2 3.365880 1_655
In8 La1 3.446908 1_565
In9 La3 3.365880 1_555
In9 La3 3.365880 1_655
In9 La0 3.446908 1_545
In10 In4 2.988833 1_555
In10 In4 2.988833 1_455
In10 La0 3.365880 1_455
In10 La0 3.365880 1_555
In10 La3 3.446908 1_555
In11 In5 2.988833 1_455
In11 In5 2.988833 1_555
In11 La1 3.365880 1_455
In11 La1 3.365880 1_555
In11 La2 3.446908 1_555
Cu0 Cu25 2.511528 1_555
Cu0 Cu30 2.527952 1_555
Cu0 Cu5 2.552617 1_555
Cu0 Cu35 2.579246 1_555
Cu0 Cu10 2.615103 1_555
Cu0 Cu5 2.670620 1_455
Cu0 In10 2.703226 1_555
Cu0 In0 2.863310 1_555
Cu0 In4 3.006323 1_555
Cu0 La4 3.267409 1_555
Cu0 La0 3.443691 1_555
Cu0 La3 3.452090 1_555
Cu1 Cu24 2.511528 1_555
Cu1 Cu31 2.527952 1_555
Cu1 Cu4 2.552617 1_555
Cu1 Cu34 2.579246 1_555
Cu1 Cu11 2.615103 1_555
Cu1 Cu4 2.670620 1_455
Cu1 In11 2.703226 1_555
Cu1 In1 2.863310 1_555
Cu1 In5 3.006323 1_555
Cu1 La4 3.267409 1_555
Cu1 La1 3.443691 1_555
Cu1 La2 3.452090 1_555
Cu2 Cu27 2.511528 1_565
Cu2 Cu28 2.527952 1_555
Cu2 Cu7 2.552617 1_455
Cu2 Cu33 2.579246 1_565
Cu2 Cu8 2.615103 1_555
Cu2 Cu7 2.670620 1_555
Cu2 In8 2.703226 1_555
Cu2 In2 2.863310 1_555
Cu2 In6 3.006338 1_555
Cu2 La5 3.267409 1_565
Cu2 La2 3.443691 1_555
Cu2 La1 3.452090 1_565
Cu3 Cu6 2.552617 1_455
Cu3 Cu32 2.579246 1_545
Cu3 Cu9 2.615103 1_555
Cu3 Cu6 2.670620 1_555
Cu3 In9 2.703226 1_555
Cu3 In3 2.863310 1_555
Cu3 In7 3.006323 1_555
Cu3 La5 3.267409 1_556
Cu3 La3 3.443691 1_555
Cu3 La0 3.452090 1_545
Cu4 In11 2.703226 1_655
Cu4 In1 2.863310 1_555
Cu4 In5 3.006323 1_555
Cu4 La4 3.267409 1_555
Cu4 La1 3.443691 1_555
Cu4 La2 3.452090 1_655
Cu5 In10 2.703226 1_655
Cu5 In0 2.863310 1_555
Cu5 In4 3.006323 1_555
Cu5 La4 3.267409 1_555
Cu5 La0 3.443691 1_555
Cu5 La3 3.452090 1_655
Cu6 Cu9 2.615103 1_555
Cu6 In9 2.703226 1_555
Cu6 In3 2.863310 1_655
Cu6 In7 3.006323 1_655
Cu6 La5 3.267409 1_656
Cu6 La3 3.443691 1_655
Cu6 La0 3.452090 1_545
Cu7 Cu8 2.615103 1_555
Cu7 In8 2.703226 1_555
Cu7 In2 2.863310 1_655
Cu7 In6 3.006338 1_655
Cu7 La5 3.267409 1_665
Cu7 La2 3.443691 1_655
Cu7 La1 3.452090 1_565
Cu8 In5 2.682731 1_555
Cu8 In8 2.742869 1_555
Cu8 In2 3.096572 1_555
Cu8 In2 3.096572 1_655
Cu8 La6 3.100261 1_555
Cu8 La2 3.139456 1_655
Cu8 La2 3.139456 1_555
Cu9 In4 2.682731 1_555
Cu9 In9 2.742869 1_555
Cu9 In3 3.096572 1_555
Cu9 In3 3.096572 1_655
Cu9 La6 3.100261 1_556
Cu9 La3 3.139456 1_555
Cu9 La3 3.139456 1_655
Cu10 Cu30 2.544535 1_555
Cu10 Cu5 2.615103 1_455
Cu10 In7 2.682731 1_565
Cu10 In10 2.742869 1_555
Cu10 In0 3.096572 1_455
Cu10 In0 3.096572 1_555
Cu10 La7 3.100261 1_565
Cu10 La0 3.139456 1_455
Cu10 La0 3.139456 1_555
Cu11 Cu31 2.544535 1_555
Cu11 Cu4 2.615103 1_455
Cu11 In6 2.682727 1_545
Cu11 In11 2.742869 1_555
Cu11 In1 3.096572 1_455
Cu11 In1 3.096572 1_555
Cu11 La7 3.100261 1_555
Cu11 La1 3.139456 1_455
Cu11 La1 3.139456 1_555
Cu12 Cu18 2.639390 1_555
Cu12 Cu23 2.639390 1_555
Cu12 In1 2.702104 1_565
Cu12 In8 2.752798 1_555
Cu12 In0 2.955206 1_555
Cu12 La7 3.093709 1_665
Cu12 La7 3.093709 1_565
Cu12 In6 3.158925 1_555
Cu12 In6 3.158925 1_655
Cu12 La1 3.159335 1_565
Cu13 Cu22 2.639390 1_555
Cu13 Cu19 2.639390 1_555
Cu13 In0 2.702104 1_545
Cu13 In9 2.752798 1_555
Cu13 In1 2.955206 1_555
Cu13 La7 3.093709 1_555
Cu13 La7 3.093709 1_655
Cu13 In7 3.158935 1_555
Cu13 In7 3.158935 1_655
Cu13 La0 3.159335 1_545
Cu14 Cu16 2.639390 1_555
Cu14 Cu21 2.639390 1_455
Cu14 In3 2.702104 1_555
Cu14 In10 2.752798 1_555
Cu14 In2 2.955206 1_556
Cu14 La6 3.093709 1_556
Cu14 La6 3.093709 1_456
Cu14 In4 3.158935 1_455
Cu14 In4 3.158935 1_555
Cu14 La3 3.159335 1_555
Cu15 Cu20 2.639390 1_455
Cu15 Cu17 2.639390 1_555
Cu15 In2 2.702104 1_555
Cu15 In11 2.752798 1_555
Cu15 In3 2.955206 1_554
Cu15 La6 3.093709 1_455
Cu15 La6 3.093709 1_555
Cu15 In5 3.158935 1_555
Cu15 In5 3.158935 1_455
Cu15 La2 3.159335 1_555
Cu16 Cu28 2.528566 1_556
Cu16 Cu32 2.533447 1_555
Cu16 Cu21 2.549556 1_555
Cu16 Cu21 2.673681 1_455
Cu16 In10 2.676458 1_555
Cu16 Cu26 2.700064 1_555
Cu16 In2 2.871012 1_556
Cu16 In4 2.975051 1_555
Cu16 La5 3.322488 1_566
Cu16 La6 3.428966 1_556
Cu16 La0 3.468159 1_555
Cu17 Cu29 2.528566 1_554
Cu17 Cu33 2.533447 1_555
Cu17 Cu20 2.549556 1_555
Cu17 Cu20 2.673681 1_455
Cu17 In11 2.676458 1_555
Cu17 Cu27 2.700064 1_555
Cu17 In3 2.871012 1_554
Cu17 In5 2.975051 1_555
Cu17 La5 3.322488 1_555
Cu17 La6 3.428966 1_555
Cu17 La1 3.468159 1_555
Cu18 Cu30 2.528566 1_555
Cu18 Cu34 2.533447 1_555
Cu18 Cu23 2.549556 1_455
Cu18 Cu23 2.673681 1_555
Cu18 In8 2.676458 1_555
Cu18 Cu24 2.700064 1_555
Cu18 In0 2.871012 1_555
Cu18 In6 2.975040 1_555
Cu18 La4 3.322488 1_555
Cu18 La7 3.428966 1_565
Cu18 La2 3.468159 1_555
Cu19 Cu31 2.528566 1_555
Cu19 Cu35 2.533447 1_555
Cu19 Cu22 2.549556 1_455
Cu19 Cu22 2.673681 1_555
Cu19 In9 2.676458 1_555
Cu19 Cu25 2.700064 1_555
Cu19 In1 2.871012 1_555
Cu19 In7 2.975051 1_555
Cu19 La4 3.322488 1_555
Cu19 La7 3.428966 1_555
Cu19 La3 3.468159 1_555
Cu20 Cu29 2.528566 1_554
Cu20 Cu33 2.533447 1_555
Cu20 In11 2.676458 1_655
Cu20 Cu27 2.700064 1_655
Cu20 In3 2.871012 1_654
Cu20 In5 2.975051 1_555
Cu20 La5 3.322488 1_655
Cu20 La6 3.428966 1_555
Cu20 La1 3.468159 1_555
Cu21 Cu28 2.528566 1_556
Cu21 Cu32 2.533447 1_555
Cu21 In10 2.676458 1_655
Cu21 Cu26 2.700064 1_655
Cu21 In2 2.871012 1_656
Cu21 In4 2.975051 1_555
Cu21 La5 3.322488 1_666
Cu21 La6 3.428966 1_556
Cu21 La0 3.468159 1_555
Cu22 Cu31 2.528566 1_655
Cu22 Cu35 2.533447 1_655
Cu22 In9 2.676458 1_555
Cu22 Cu25 2.700064 1_555
Cu22 In1 2.871012 1_555
Cu22 In7 2.975051 1_655
Cu22 La4 3.322488 1_555
Cu22 La7 3.428966 1_655
Cu22 La3 3.468159 1_655
Cu23 Cu30 2.528566 1_655
Cu23 Cu34 2.533447 1_655
Cu23 In8 2.676458 1_555
Cu23 Cu24 2.700064 1_555
Cu23 In0 2.871012 1_555
Cu23 In6 2.975040 1_655
Cu23 La4 3.322488 1_555
Cu23 La7 3.428966 1_665
Cu23 La2 3.468159 1_655
Cu24 Cu4 2.511528 1_555
Cu24 In8 2.670300 1_555
Cu24 In5 2.872584 1_555
Cu24 La4 2.952182 1_555
Cu24 Cu34 2.962090 1_555
Cu24 Cu34 2.962090 1_655
Cu24 La2 3.075403 1_655
Cu24 La2 3.075403 1_555
Cu25 Cu5 2.511528 1_555
Cu25 In9 2.670300 1_555
Cu25 In4 2.872584 1_555
Cu25 La4 2.952182 1_555
Cu25 Cu35 2.962090 1_655
Cu25 Cu35 2.962090 1_555
Cu25 La3 3.075403 1_555
Cu25 La3 3.075403 1_655
Cu26 Cu3 2.511528 1_565
Cu26 Cu6 2.511528 1_465
Cu26 In10 2.670300 1_555
Cu26 In7 2.872584 1_565
Cu26 La5 2.952182 1_566
Cu26 Cu32 2.962090 1_455
Cu26 Cu32 2.962090 1_555
Cu26 La0 3.075403 1_555
Cu26 La0 3.075403 1_455
Cu27 Cu7 2.511528 1_445
Cu27 In11 2.670300 1_555
Cu27 In6 2.872599 1_545
Cu27 La5 2.952182 1_555
Cu27 Cu33 2.962090 1_555
Cu27 Cu33 2.962090 1_455
Cu27 La1 3.075403 1_455
Cu27 La1 3.075403 1_555
Cu28 Cu7 2.527952 1_555
Cu28 Cu8 2.544535 1_555
Cu28 Cu32 2.635976 1_554
Cu28 Cu33 2.667487 1_565
Cu28 In2 2.925456 1_655
Cu28 In2 2.925456 1_555
Cu28 La5 3.380085 1_565
Cu28 La5 3.380085 1_665
Cu28 La6 3.425554 1_555
Cu29 Cu6 2.527952 1_555
Cu29 Cu3 2.527952 1_555
Cu29 Cu9 2.544535 1_555
Cu29 Cu33 2.635976 1_556
Cu29 Cu32 2.667487 1_545
Cu29 In3 2.925456 1_555
Cu29 In3 2.925456 1_655
Cu29 La5 3.380085 1_656
Cu29 La5 3.380085 1_556
Cu29 La6 3.425554 1_556
Cu30 Cu5 2.527952 1_455
Cu30 Cu34 2.635976 1_555
Cu30 Cu35 2.667487 1_555
Cu30 In0 2.925456 1_455
Cu30 In0 2.925456 1_555
Cu30 La4 3.380085 1_455
Cu30 La4 3.380085 1_555
Cu30 La7 3.425554 1_565
Cu31 Cu4 2.527952 1_455
Cu31 Cu35 2.635976 1_555
Cu31 Cu34 2.667487 1_555
Cu31 In1 2.925456 1_455
Cu31 In1 2.925456 1_555
Cu31 La4 3.380085 1_455
Cu31 La4 3.380085 1_555
Cu31 La7 3.425554 1_555
Cu32 Cu6 2.579246 1_565
Cu32 La0 3.016583 1_555
Cu32 La5 3.041062 1_566
Cu32 La5 3.041062 1_666
Cu32 Cu33 3.116091 1_566
Cu33 Cu7 2.579246 1_545
Cu33 La1 3.016583 1_555
Cu33 La5 3.041062 1_555
Cu33 La5 3.041062 1_655
Cu34 Cu4 2.579246 1_455
Cu34 La2 3.016583 1_555
Cu34 La4 3.041062 1_455
Cu34 La4 3.041062 1_555
Cu34 Cu35 3.116091 1_555
Cu35 Cu5 2.579246 1_455
Cu35 La3 3.016583 1_555
Cu35 La4 3.041062 1_455
Cu35 La4 3.041062 1_555
