# generated using pymatgen
data_PrHfF7
_symmetry_space_group_name_H-M   'P 1'
_cell_length_a   5.77643531
_cell_length_b   6.24656544
_cell_length_c   8.40518046
_cell_angle_alpha   101.94082862
_cell_angle_beta   90.00000000
_cell_angle_gamma   90.00000000
_symmetry_Int_Tables_number   1
_chemical_formula_structural   PrHfF7
_chemical_formula_sum   'Pr2 Hf2 F14'
_cell_volume   296.72062619
_cell_formula_units_Z   2
loop_
 _symmetry_equiv_pos_site_id
 _symmetry_equiv_pos_as_xyz
  1  'x, y, z'
loop_
 _atom_site_type_symbol
 _atom_site_label
 _atom_site_symmetry_multiplicity
 _atom_site_fract_x
 _atom_site_fract_y
 _atom_site_fract_z
 _atom_site_occupancy
  Pr  Pr0  1  0.70086707  0.66106168  0.68754559  1
  Pr  Pr1  1  0.20086707  0.33893832  0.31245441  1
  Hf  Hf0  1  0.71055353  0.80725710  0.22288434  1
  Hf  Hf1  1  0.21055353  0.19274290  0.77711566  1
  F  F0  1  0.87184302  0.43605813  0.46836220  1
  F  F1  1  0.37184302  0.56394187  0.53163780  1
  F  F2  1  0.43028280  0.94724357  0.77468362  1
  F  F3  1  0.93028280  0.05275643  0.22531638  1
  F  F4  1  0.95570180  0.97284764  0.76124941  1
  F  F5  1  0.45570180  0.02715236  0.23875059  1
  F  F6  1  -0.00059521  0.44702128  0.78620469  1
  F  F7  1  0.49940479  0.55297872  0.21379531  1
  F  F8  1  0.70109964  0.75526754  0.98217080  1
  F  F9  1  0.20109964  0.24473246  0.01782920  1
  F  F10  1  0.71701768  0.85795830  0.46491645  1
  F  F11  1  0.21701768  0.14204170  0.53508355  1
  F  F12  1  0.48959067  0.38387963  0.78765718  1
  F  F13  1  0.98959067  0.61612037  0.21234282  1
loop_
_geom_bond_atom_site_label_1
_geom_bond_atom_site_label_2
_geom_bond_distance
_geom_bond_site_symmetry_2
F0 Pr0 2.296379 1_555
F0 Pr1 2.317010 1_655
F1 Pr1 2.296379 1_555
F1 Pr0 2.317010 1_555
F2 Hf1 1.987499 1_565
F2 Pr0 2.373468 1_555
F3 Hf0 1.987499 1_545
F3 Pr1 2.373468 1_655
F4 Hf1 1.998978 1_665
F4 Pr0 2.417543 1_555
F5 Hf0 1.998978 1_545
F5 Pr1 2.417543 1_555
F6 Hf1 1.991524 1_555
F6 Pr0 2.430618 1_455
F7 Hf0 1.991524 1_555
F7 Pr1 2.430618 1_555
F8 Hf0 1.982438 1_556
F8 Pr0 2.423989 1_555
F9 Hf1 1.982438 1_554
F9 Pr1 2.423989 1_555
F10 Hf0 1.993380 1_555
F10 Pr0 2.444447 1_555
F11 Hf1 1.993380 1_555
F11 Pr1 2.444447 1_555
F12 Hf1 1.996901 1_555
F12 Pr0 2.407952 1_555
F13 Hf0 1.996901 1_555
F13 Pr1 2.407952 1_655
