# generated using pymatgen
data_BaMg30ZnO32
_symmetry_space_group_name_H-M   'P 1'
_cell_length_a   8.66933400
_cell_length_b   8.66933400
_cell_length_c   8.61509800
_cell_angle_alpha   90.00000000
_cell_angle_beta   90.00000000
_cell_angle_gamma   90.00000000
_symmetry_Int_Tables_number   1
_chemical_formula_structural   BaMg30ZnO32
_chemical_formula_sum   'Ba1 Mg30 Zn1 O32'
_cell_volume   647.48795293
_cell_formula_units_Z   1
loop_
 _symmetry_equiv_pos_site_id
 _symmetry_equiv_pos_as_xyz
  1  'x, y, z'
loop_
 _atom_site_type_symbol
 _atom_site_label
 _atom_site_symmetry_multiplicity
 _atom_site_fract_x
 _atom_site_fract_y
 _atom_site_fract_z
 _atom_site_occupancy
  Ba  Ba0  1  0.00000000  0.00000000  0.50000000  1
  Mg  Mg0  1  0.50000000  0.00000000  0.00000000  1
  Mg  Mg1  1  0.50000000  0.00000000  0.50000000  1
  Mg  Mg2  1  0.00000000  0.50000000  0.00000000  1
  Mg  Mg3  1  0.00000000  0.50000000  0.50000000  1
  Mg  Mg4  1  0.50000000  0.50000000  0.00000000  1
  Mg  Mg5  1  0.50000000  0.50000000  0.50000000  1
  Mg  Mg6  1  0.25880400  0.00000000  0.24228900  1
  Mg  Mg7  1  0.25880400  0.00000000  0.75771100  1
  Mg  Mg8  1  0.74119600  0.00000000  0.24228900  1
  Mg  Mg9  1  0.74119600  0.00000000  0.75771100  1
  Mg  Mg10  1  0.25054500  0.50000000  0.24918800  1
  Mg  Mg11  1  0.25054500  0.50000000  0.75081200  1
  Mg  Mg12  1  0.74945500  0.50000000  0.24918800  1
  Mg  Mg13  1  0.74945500  0.50000000  0.75081200  1
  Mg  Mg14  1  0.00000000  0.25880400  0.24228900  1
  Mg  Mg15  1  0.00000000  0.25880400  0.75771100  1
  Mg  Mg16  1  0.50000000  0.25054500  0.24918800  1
  Mg  Mg17  1  0.50000000  0.25054500  0.75081200  1
  Mg  Mg18  1  0.00000000  0.74119600  0.24228900  1
  Mg  Mg19  1  0.00000000  0.74119600  0.75771100  1
  Mg  Mg20  1  0.50000000  0.74945500  0.24918800  1
  Mg  Mg21  1  0.50000000  0.74945500  0.75081200  1
  Mg  Mg22  1  0.25017500  0.25017500  0.00000000  1
  Mg  Mg23  1  0.25743900  0.25743900  0.50000000  1
  Mg  Mg24  1  0.74982500  0.25017500  0.00000000  1
  Mg  Mg25  1  0.74256100  0.25743900  0.50000000  1
  Mg  Mg26  1  0.25017500  0.74982500  0.00000000  1
  Mg  Mg27  1  0.25743900  0.74256100  0.50000000  1
  Mg  Mg28  1  0.74982500  0.74982500  0.00000000  1
  Mg  Mg29  1  0.74256100  0.74256100  0.50000000  1
  Zn  Zn0  1  0.00000000  0.00000000  0.00000000  1
  O  O0  1  0.00000000  0.26202100  0.00000000  1
  O  O1  1  0.00000000  0.27856200  0.50000000  1
  O  O2  1  0.50000000  0.25197700  0.00000000  1
  O  O3  1  0.50000000  0.25572900  0.50000000  1
  O  O4  1  0.00000000  0.73797900  0.00000000  1
  O  O5  1  0.00000000  0.72143800  0.50000000  1
  O  O6  1  0.50000000  0.74802300  0.00000000  1
  O  O7  1  0.50000000  0.74427100  0.50000000  1
  O  O8  1  0.24876800  0.24876800  0.25073200  1
  O  O9  1  0.24876800  0.24876800  0.74926800  1
  O  O10  1  0.75123200  0.24876800  0.25073200  1
  O  O11  1  0.75123200  0.24876800  0.74926800  1
  O  O12  1  0.24876800  0.75123200  0.25073200  1
  O  O13  1  0.24876800  0.75123200  0.74926800  1
  O  O14  1  0.75123200  0.75123200  0.25073200  1
  O  O15  1  0.75123200  0.75123200  0.74926800  1
  O  O16  1  0.00000000  0.00000000  0.22054400  1
  O  O17  1  0.00000000  0.00000000  0.77945600  1
  O  O18  1  0.50000000  0.00000000  0.24542200  1
  O  O19  1  0.50000000  0.00000000  0.75457800  1
  O  O20  1  0.00000000  0.50000000  0.24542200  1
  O  O21  1  0.00000000  0.50000000  0.75457800  1
  O  O22  1  0.50000000  0.50000000  0.24900800  1
  O  O23  1  0.50000000  0.50000000  0.75099200  1
  O  O24  1  0.26202100  0.00000000  0.00000000  1
  O  O25  1  0.27856200  0.00000000  0.50000000  1
  O  O26  1  0.73797900  0.00000000  0.00000000  1
  O  O27  1  0.72143800  0.00000000  0.50000000  1
  O  O28  1  0.25197700  0.50000000  0.00000000  1
  O  O29  1  0.25572900  0.50000000  0.50000000  1
  O  O30  1  0.74802300  0.50000000  0.00000000  1
  O  O31  1  0.74427100  0.50000000  0.50000000  1
loop_
_geom_bond_atom_site_label_1
_geom_bond_atom_site_label_2
_geom_bond_distance
_geom_bond_site_symmetry_2
Ba0 O17 2.407541 1_555
Ba0 O16 2.407541 1_555
Ba0 O5 2.414947 1_545
Ba0 O1 2.414947 1_555
Ba0 O27 2.414947 1_455
Ba0 O25 2.414947 1_555
Mg0 O24 2.063119 1_555
Mg0 O26 2.063119 1_555
Mg0 O18 2.114335 1_555
Mg0 O19 2.114335 1_554
Mg0 O2 2.184473 1_555
Mg0 O6 2.184473 1_545
Mg1 O27 1.919720 1_555
Mg1 O25 1.919720 1_555
Mg1 O19 2.193214 1_555
Mg1 O18 2.193214 1_555
Mg1 O7 2.217000 1_545
Mg1 O3 2.217000 1_555
Mg2 O0 2.063119 1_555
Mg2 O4 2.063119 1_555
Mg2 O20 2.114335 1_555
Mg2 O21 2.114335 1_554
Mg2 O28 2.184473 1_555
Mg2 O30 2.184473 1_455
Mg3 O1 1.919720 1_555
Mg3 O5 1.919720 1_555
Mg3 O21 2.193214 1_555
Mg3 O20 2.193214 1_555
Mg3 O29 2.217000 1_555
Mg3 O31 2.217000 1_455
Mg4 O23 2.145228 1_554
Mg4 O22 2.145228 1_555
Mg4 O30 2.150194 1_555
Mg4 O2 2.150194 1_555
Mg4 O28 2.150194 1_555
Mg4 O6 2.150194 1_555
Mg5 O3 2.117667 1_555
Mg5 O7 2.117667 1_555
Mg5 O29 2.117667 1_555
Mg5 O31 2.117667 1_555
Mg5 O22 2.162321 1_555
Mg5 O23 2.162321 1_555
Mg6 O24 2.087530 1_555
Mg6 O18 2.091183 1_555
Mg6 O12 2.159632 1_545
Mg6 O8 2.159632 1_555
Mg6 O25 2.226803 1_555
Mg6 O16 2.251466 1_555
Mg7 O24 2.087530 1_556
Mg7 O19 2.091183 1_555
Mg7 O9 2.159632 1_555
Mg7 O13 2.159632 1_545
Mg7 O25 2.226803 1_555
Mg7 O17 2.251466 1_555
Mg8 O26 2.087530 1_555
Mg8 O18 2.091183 1_555
Mg8 O14 2.159632 1_545
Mg8 O10 2.159632 1_555
Mg8 O27 2.226803 1_555
Mg8 O16 2.251466 1_655
Mg9 O26 2.087530 1_556
Mg9 O19 2.091183 1_555
Mg9 O15 2.159632 1_545
Mg9 O11 2.159632 1_555
Mg9 O27 2.226803 1_555
Mg9 O17 2.251466 1_655
Mg10 O28 2.146815 1_555
Mg10 O29 2.161237 1_555
Mg10 O22 2.162609 1_555
Mg10 O20 2.172301 1_555
Mg10 O12 2.178109 1_555
Mg10 O8 2.178109 1_555
Mg11 O28 2.146815 1_556
Mg11 O29 2.161237 1_555
Mg11 O23 2.162609 1_555
Mg11 O21 2.172301 1_555
Mg11 O9 2.178109 1_555
Mg11 O13 2.178109 1_555
Mg12 O30 2.146815 1_555
Mg12 O31 2.161237 1_555
Mg12 O22 2.162609 1_555
Mg12 O20 2.172301 1_655
Mg12 O14 2.178109 1_555
Mg12 O10 2.178109 1_555
Mg13 O30 2.146815 1_556
Mg13 O31 2.161237 1_555
Mg13 O23 2.162609 1_555
Mg13 O21 2.172301 1_655
Mg13 O11 2.178109 1_555
Mg13 O15 2.178109 1_555
Mg14 O0 2.087530 1_555
Mg14 O20 2.091183 1_555
Mg14 O10 2.159632 1_455
Mg14 O8 2.159632 1_555
Mg14 O1 2.226803 1_555
Mg14 O16 2.251466 1_555
Mg15 O0 2.087530 1_556
Mg15 O21 2.091183 1_555
Mg15 O9 2.159632 1_555
Mg15 O11 2.159632 1_455
Mg15 O1 2.226803 1_555
Mg15 O17 2.251466 1_555
Mg16 O2 2.146815 1_555
Mg16 O3 2.161237 1_555
Mg16 O22 2.162609 1_555
Mg16 O18 2.172301 1_555
Mg16 O8 2.178109 1_555
Mg16 O10 2.178109 1_555
Mg17 O2 2.146815 1_556
Mg17 O3 2.161237 1_555
Mg17 O23 2.162609 1_555
Mg17 O19 2.172301 1_555
Mg17 O11 2.178109 1_555
Mg17 O9 2.178109 1_555
Mg18 O4 2.087530 1_555
Mg18 O20 2.091183 1_555
Mg18 O14 2.159632 1_455
Mg18 O12 2.159632 1_555
Mg18 O5 2.226803 1_555
Mg18 O16 2.251466 1_565
Mg19 O4 2.087530 1_556
Mg19 O21 2.091183 1_555
Mg19 O15 2.159632 1_455
Mg19 O13 2.159632 1_555
Mg19 O5 2.226803 1_555
Mg19 O17 2.251466 1_565
Mg20 O6 2.146815 1_555
Mg20 O7 2.161237 1_555
Mg20 O22 2.162609 1_555
Mg20 O18 2.172301 1_565
Mg20 O12 2.178109 1_555
Mg20 O14 2.178109 1_555
Mg21 O6 2.146815 1_556
Mg21 O7 2.161237 1_555
Mg21 O23 2.162609 1_555
Mg21 O19 2.172301 1_565
Mg21 O15 2.178109 1_555
Mg21 O13 2.178109 1_555
Mg22 O9 2.160150 1_554
Mg22 O8 2.160150 1_555
Mg22 O2 2.165873 1_555
Mg22 O28 2.165873 1_555
Mg22 O0 2.171281 1_555
Mg22 O24 2.171281 1_555
Mg23 O3 2.102895 1_555
Mg23 O29 2.102895 1_555
Mg23 O8 2.150098 1_555
Mg23 O9 2.150098 1_555
Mg23 O25 2.239325 1_555
Mg23 O1 2.239325 1_555
Mg24 O11 2.160150 1_554
Mg24 O10 2.160150 1_555
Mg24 O2 2.165873 1_555
Mg24 O30 2.165873 1_555
Mg24 O26 2.171281 1_555
Mg24 O0 2.171281 1_655
Mg25 O31 2.102895 1_555
Mg25 O3 2.102895 1_555
Mg25 O10 2.150098 1_555
Mg25 O11 2.150098 1_555
Mg25 O27 2.239325 1_555
Mg25 O1 2.239325 1_655
Mg26 O13 2.160150 1_554
Mg26 O12 2.160150 1_555
Mg26 O28 2.165873 1_555
Mg26 O6 2.165873 1_555
Mg26 O4 2.171281 1_555
Mg26 O24 2.171281 1_565
Mg27 O7 2.102895 1_555
Mg27 O29 2.102895 1_555
Mg27 O12 2.150098 1_555
Mg27 O13 2.150098 1_555
Mg27 O25 2.239325 1_565
Mg27 O5 2.239325 1_555
Mg28 O15 2.160150 1_554
Mg28 O14 2.160150 1_555
Mg28 O6 2.165873 1_555
Mg28 O30 2.165873 1_555
Mg28 O26 2.171281 1_565
Mg28 O4 2.171281 1_655
Mg29 O7 2.102895 1_555
Mg29 O31 2.102895 1_555
Mg29 O14 2.150098 1_555
Mg29 O15 2.150098 1_555
Mg29 O27 2.239325 1_565
Mg29 O5 2.239325 1_655
O0 Zn0 2.271548 1_555
O4 Zn0 2.271548 1_565
O16 Zn0 1.900008 1_555
O17 Zn0 1.900008 1_556
O24 Zn0 2.271548 1_555
O26 Zn0 2.271548 1_655
