# generated using pymatgen
data_Mg2NiH4
_symmetry_space_group_name_H-M   'P 1'
_cell_length_a   4.51510957
_cell_length_b   4.51510957
_cell_length_c   4.51510957
_cell_angle_alpha   88.99579679
_cell_angle_beta   61.00569608
_cell_angle_gamma   119.85135674
_symmetry_Int_Tables_number   1
_chemical_formula_structural   Mg2NiH4
_chemical_formula_sum   'Mg2 Ni1 H4'
_cell_volume   65.63874613
_cell_formula_units_Z   1
loop_
 _symmetry_equiv_pos_site_id
 _symmetry_equiv_pos_as_xyz
  1  'x, y, z'
loop_
 _atom_site_type_symbol
 _atom_site_label
 _atom_site_symmetry_multiplicity
 _atom_site_fract_x
 _atom_site_fract_y
 _atom_site_fract_z
 _atom_site_occupancy
  Mg  Mg0  1  0.49070700  0.25034400  0.25894900  1
  Mg  Mg1  1  0.49070700  0.74965600  0.75963700  1
  Ni  Ni0  1  0.96154800  0.00000000  0.03845200  1
  H  H0  1  0.05140100  0.23204700  0.71655200  1
  H  H1  1  0.48167300  0.73855500  0.25688200  1
  H  H2  1  0.00456300  0.26144500  0.25688200  1
  H  H3  1  0.05140100  0.76795300  0.18064600  1
loop_
_geom_bond_atom_site_label_1
_geom_bond_atom_site_label_2
_geom_bond_distance
_geom_bond_site_symmetry_2
H0 Ni0 1.525309 1_456
H0 Mg0 2.016917 1_555
H0 Mg1 2.282386 1_445
H0 Mg1 2.282386 1_555
H1 Ni0 1.549876 1_565
H1 Mg0 2.224851 1_555
H1 Mg1 2.224851 1_554
H1 Mg1 2.291018 1_555
H1 Mg0 2.291018 1_565
H2 Ni0 1.549876 1_455
H2 Mg1 2.224851 1_554
H2 Mg0 2.224851 1_555
H2 Mg1 2.291018 1_445
H2 Mg0 2.291018 1_455
H3 Ni0 1.525309 1_465
H3 Mg1 2.016917 1_554
H3 Mg0 2.282386 1_565
H3 Mg0 2.282386 1_455
