# generated using pymatgen
data_K4Cd2S4O19
_symmetry_space_group_name_H-M   'P 1'
_cell_length_a   9.79871200
_cell_length_b   9.89697200
_cell_length_c   20.19854287
_cell_angle_alpha   77.86848812
_cell_angle_beta   90.00000000
_cell_angle_gamma   90.00000000
_symmetry_Int_Tables_number   1
_chemical_formula_structural   K4Cd2S4O19
_chemical_formula_sum   'K16 Cd8 S16 O76'
_cell_volume   1915.06133327
_cell_formula_units_Z   4
loop_
 _symmetry_equiv_pos_site_id
 _symmetry_equiv_pos_as_xyz
  1  'x, y, z'
loop_
 _atom_site_type_symbol
 _atom_site_label
 _atom_site_symmetry_multiplicity
 _atom_site_fract_x
 _atom_site_fract_y
 _atom_site_fract_z
 _atom_site_occupancy
  K  K0  1  0.79606300  0.59908700  0.55501500  1
  K  K1  1  0.70393700  0.59908700  0.05501500  1
  K  K2  1  0.20393700  0.40091300  0.44498500  1
  K  K3  1  0.29606300  0.40091300  0.94498500  1
  K  K4  1  0.96345600  0.94527700  0.76804800  1
  K  K5  1  0.53654400  0.94527700  0.26804800  1
  K  K6  1  0.03654400  0.05472300  0.23195200  1
  K  K7  1  0.46345600  0.05472300  0.73195200  1
  K  K8  1  0.26945600  0.94968700  0.92853300  1
  K  K9  1  0.23054400  0.94968700  0.42853300  1
  K  K10  1  0.73054400  0.05031300  0.07146700  1
  K  K11  1  0.76945600  0.05031300  0.57146700  1
  K  K12  1  0.09380000  0.26678900  0.62507900  1
  K  K13  1  0.40620000  0.26678900  0.12507900  1
  K  K14  1  0.90620000  0.73321100  0.37492100  1
  K  K15  1  0.59380000  0.73321100  0.87492100  1
  Cd  Cd0  1  0.48032900  0.56754500  0.22103400  1
  Cd  Cd1  1  0.01967100  0.56754500  0.72103400  1
  Cd  Cd2  1  0.51967100  0.43245500  0.77896600  1
  Cd  Cd3  1  0.98032900  0.43245500  0.27896600  1
  Cd  Cd4  1  0.06244200  0.78880500  0.09933400  1
  Cd  Cd5  1  0.43755800  0.78880500  0.59933400  1
  Cd  Cd6  1  0.93755800  0.21119500  0.90066600  1
  Cd  Cd7  1  0.56244200  0.21119500  0.40066600  1
  S  S0  1  0.88484700  0.85884300  0.94426100  1
  S  S1  1  0.61515300  0.85884300  0.44426100  1
  S  S2  1  0.11515300  0.14115700  0.05573900  1
  S  S3  1  0.38484700  0.14115700  0.55573900  1
  S  S4  1  0.20751600  0.25876900  0.78709400  1
  S  S5  1  0.29248400  0.25876900  0.28709400  1
  S  S6  1  0.79248400  0.74123100  0.21290600  1
  S  S7  1  0.70751600  0.74123100  0.71290600  1
  S  S8  1  0.79885300  0.27609300  0.72489900  1
  S  S9  1  0.70114700  0.27609300  0.22489900  1
  S  S10  1  0.20114700  0.72390700  0.27510100  1
  S  S11  1  0.29885300  0.72390700  0.77510100  1
  S  S12  1  0.35814600  0.64635800  0.05154900  1
  S  S13  1  0.14185400  0.64635800  0.55154900  1
  S  S14  1  0.64185400  0.35364200  0.94845100  1
  S  S15  1  0.85814600  0.35364200  0.44845100  1
  O  O0  1  0.15352600  0.25932500  0.85695700  1
  O  O1  1  0.34647400  0.25932500  0.35695700  1
  O  O2  1  0.84647400  0.74067500  0.14304300  1
  O  O3  1  0.65352600  0.74067500  0.64304300  1
  O  O4  1  0.02816000  0.49833200  0.13729500  1
  O  O5  1  0.47184000  0.49833200  0.63729500  1
  O  O6  1  0.97184000  0.50166800  0.86270500  1
  O  O7  1  0.52816000  0.50166800  0.36270500  1
  O  O8  1  0.74267500  0.23708600  0.95054600  1
  O  O9  1  0.75732500  0.23708600  0.45054600  1
  O  O10  1  0.25732500  0.76291400  0.04945400  1
  O  O11  1  0.24267500  0.76291400  0.54945400  1
  O  O12  1  0.16801400  0.13144800  0.76520400  1
  O  O13  1  0.33198600  0.13144800  0.26520400  1
  O  O14  1  0.83198600  0.86855200  0.23479600  1
  O  O15  1  0.66801400  0.86855200  0.73479600  1
  O  O16  1  0.97794200  0.98209700  0.92278600  1
  O  O17  1  0.52205800  0.98209700  0.42278600  1
  O  O18  1  0.02205800  0.01790300  0.07721400  1
  O  O19  1  0.47794200  0.01790300  0.57721400  1
  O  O20  1  0.75233500  0.89921900  0.97187500  1
  O  O21  1  0.74766500  0.89921900  0.47187500  1
  O  O22  1  0.24766500  0.10078100  0.02812500  1
  O  O23  1  0.25233500  0.10078100  0.52812500  1
  O  O24  1  0.64623200  0.28706400  0.73063600  1
  O  O25  1  0.85376800  0.28706400  0.23063600  1
  O  O26  1  0.35376800  0.71293600  0.26936400  1
  O  O27  1  0.14623200  0.71293600  0.76936400  1
  O  O28  1  0.95472700  0.75809000  0.99996000  1
  O  O29  1  0.54527300  0.75809000  0.49996000  1
  O  O30  1  0.04527300  0.24191000  0.00004000  1
  O  O31  1  0.45472700  0.24191000  0.50004000  1
  O  O32  1  0.86047800  0.79539300  0.88582500  1
  O  O33  1  0.63952200  0.79539300  0.38582500  1
  O  O34  1  0.13952200  0.20460700  0.11417500  1
  O  O35  1  0.36047800  0.20460700  0.61417500  1
  O  O36  1  0.85905400  0.22245200  0.79307700  1
  O  O37  1  0.64094600  0.22245200  0.29307700  1
  O  O38  1  0.14094600  0.77754800  0.20692300  1
  O  O39  1  0.35905400  0.77754800  0.70692300  1
  O  O40  1  0.43741800  0.67799700  0.98767800  1
  O  O41  1  0.06258200  0.67799700  0.48767800  1
  O  O42  1  0.56258200  0.32200300  0.01232200  1
  O  O43  1  0.93741800  0.32200300  0.51232200  1
  O  O44  1  0.05625300  0.98402100  0.60617900  1
  O  O45  1  0.44374700  0.98402100  0.10617900  1
  O  O46  1  0.94374700  0.01597900  0.39382100  1
  O  O47  1  0.55625300  0.01597900  0.89382100  1
  O  O48  1  0.35559700  0.58355400  0.80551900  1
  O  O49  1  0.14440300  0.58355400  0.30551900  1
  O  O50  1  0.64440300  0.41644600  0.19448100  1
  O  O51  1  0.85559700  0.41644600  0.69448100  1
  O  O52  1  0.36019700  0.26378700  0.79046100  1
  O  O53  1  0.13980300  0.26378700  0.29046100  1
  O  O54  1  0.63980300  0.73621300  0.20953900  1
  O  O55  1  0.86019700  0.73621300  0.70953900  1
  O  O56  1  0.33030800  0.82101800  0.81967000  1
  O  O57  1  0.16969200  0.82101800  0.31967000  1
  O  O58  1  0.66969200  0.17898200  0.18033000  1
  O  O59  1  0.83030800  0.17898200  0.68033000  1
  O  O60  1  0.21338900  0.51276700  0.56025100  1
  O  O61  1  0.28661100  0.51276700  0.06025100  1
  O  O62  1  0.78661100  0.48723300  0.43974900  1
  O  O63  1  0.71338900  0.48723300  0.93974900  1
  O  O64  1  0.15795400  0.38265400  0.73743400  1
  O  O65  1  0.34204600  0.38265400  0.23743400  1
  O  O66  1  0.84204600  0.61734600  0.26256600  1
  O  O67  1  0.65795400  0.61734600  0.76256600  1
  O  O68  1  0.03524900  0.56217700  0.90070800  1
  O  O69  1  0.46475100  0.56217700  0.40070800  1
  O  O70  1  0.96475100  0.43782300  0.09929200  1
  O  O71  1  0.53524900  0.43782300  0.59929200  1
  O  O72  1  0.04452800  0.64567500  0.60919800  1
  O  O73  1  0.45547200  0.64567500  0.10919800  1
  O  O74  1  0.95547200  0.35432500  0.39080200  1
  O  O75  1  0.54452800  0.35432500  0.89080200  1
loop_
_geom_bond_atom_site_label_1
_geom_bond_atom_site_label_2
_geom_bond_distance
_geom_bond_site_symmetry_2
K0 O72 2.747708 1_655
K0 O62 2.781708 1_555
K0 O3 2.850084 1_555
K0 O41 2.972122 1_655
K0 O29 3.002726 1_555
K0 O71 3.046060 1_555
K0 O51 3.066432 1_555
K0 O21 3.125961 1_555
K0 O43 3.343087 1_555
K1 O73 2.747708 1_555
K1 O63 2.781708 1_554
K1 O2 2.850084 1_555
K1 O40 2.972122 1_554
K1 O28 3.002726 1_554
K1 O70 3.046060 1_555
K1 O50 3.066432 1_555
K1 O20 3.125961 1_554
K1 O42 3.343087 1_555
K2 O74 2.747708 1_455
K2 O60 2.781708 1_555
K2 O1 2.850084 1_555
K2 O43 2.972122 1_455
K2 O31 3.002726 1_555
K2 O69 3.046060 1_555
K2 O49 3.066432 1_555
K2 O23 3.125961 1_555
K2 O41 3.343087 1_555
K3 O75 2.747708 1_555
K3 O61 2.781708 1_556
K3 O0 2.850084 1_555
K3 O42 2.972122 1_556
K3 O30 3.002726 1_556
K3 O68 3.046060 1_555
K3 O48 3.066432 1_555
K3 O22 3.125961 1_556
K3 O40 3.343087 1_555
K4 O12 2.715026 1_665
K4 O32 2.719319 1_555
K4 O55 2.780169 1_555
K4 O59 2.910111 1_565
K4 O27 2.910354 1_655
K4 O36 3.067593 1_565
K4 O15 3.102066 1_555
K4 O16 3.224948 1_555
K4 O44 3.337162 1_655
K5 O13 2.715026 1_565
K5 O33 2.719319 1_555
K5 O54 2.780169 1_555
K5 O58 2.910111 1_565
K5 O26 2.910354 1_555
K5 O37 3.067593 1_565
K5 O14 3.102066 1_555
K5 O17 3.224948 1_555
K5 O45 3.337162 1_555
K6 O14 2.715026 1_445
K6 O34 2.719319 1_555
K6 O53 2.780169 1_555
K6 O57 2.910111 1_545
K6 O25 2.910354 1_455
K6 O38 3.067593 1_545
K6 O13 3.102066 1_555
K6 O18 3.224948 1_555
K6 O46 3.337162 1_455
K7 O15 2.715026 1_545
K7 O35 2.719319 1_555
K7 O52 2.780169 1_555
K7 O56 2.910111 1_545
K7 O24 2.910354 1_555
K7 O39 3.067593 1_545
K7 O12 3.102066 1_555
K7 O19 3.224948 1_555
K7 O47 3.337162 1_555
K8 O10 2.738405 1_556
K8 O22 2.755480 1_566
K8 O56 2.826507 1_555
K8 O16 2.874037 1_455
K8 O47 2.937031 1_565
K8 O40 3.164795 1_555
K8 O0 3.302942 1_565
K9 O11 2.738405 1_555
K9 O23 2.755480 1_565
K9 O57 2.826507 1_555
K9 O17 2.874037 1_555
K9 O46 2.937031 1_465
K9 O41 3.164795 1_555
K9 O1 3.302942 1_565
K10 O8 2.738405 1_554
K10 O20 2.755480 1_544
K10 O58 2.826507 1_555
K10 O18 2.874037 1_655
K10 O45 2.937031 1_545
K10 O42 3.164795 1_555
K10 O2 3.302942 1_545
K11 O9 2.738405 1_555
K11 O21 2.755480 1_545
K11 O59 2.826507 1_555
K11 O19 2.874037 1_555
K11 O44 2.937031 1_645
K11 O43 3.164795 1_555
K11 O3 3.302942 1_545
K12 O43 2.703832 1_455
K12 O35 2.704165 1_555
K12 O60 2.770273 1_555
K12 O64 2.820308 1_555
K12 O59 2.873869 1_455
K12 O44 2.926090 1_545
K12 O12 2.956392 1_555
K12 O23 3.209353 1_555
K12 O51 3.237213 1_455
K13 O42 2.703832 1_555
K13 O34 2.704165 1_555
K13 O61 2.770273 1_555
K13 O65 2.820308 1_555
K13 O58 2.873869 1_555
K13 O45 2.926090 1_545
K13 O13 2.956392 1_555
K13 O22 3.209353 1_555
K13 O50 3.237213 1_555
K14 O41 2.703832 1_655
K14 O33 2.704165 1_555
K14 O62 2.770273 1_555
K14 O66 2.820308 1_555
K14 O57 2.873869 1_655
K14 O46 2.926090 1_565
K14 O14 2.956392 1_555
K14 O21 3.209353 1_555
K14 O49 3.237213 1_655
K15 O40 2.703832 1_555
K15 O32 2.704165 1_555
K15 O63 2.770273 1_555
K15 O67 2.820308 1_555
K15 O56 2.873869 1_555
K15 O47 2.926090 1_565
K15 O15 2.956392 1_555
K15 O20 3.209353 1_555
K15 O48 3.237213 1_555
Cd0 O73 2.241833 1_555
Cd0 O65 2.244852 1_555
Cd0 O54 2.262613 1_555
Cd0 O26 2.269762 1_555
Cd0 O50 2.333622 1_555
Cd1 O72 2.241833 1_555
Cd1 O64 2.244852 1_555
Cd1 O55 2.262613 1_455
Cd1 O27 2.269762 1_555
Cd1 O51 2.333622 1_455
Cd2 O75 2.241833 1_555
Cd2 O67 2.244852 1_555
Cd2 O52 2.262613 1_555
Cd2 O24 2.269762 1_555
Cd2 O48 2.333622 1_555
Cd3 O74 2.241833 1_555
Cd3 O66 2.244852 1_555
Cd3 O53 2.262613 1_655
Cd3 O25 2.269762 1_555
Cd3 O49 2.333622 1_655
Cd4 O10 2.199049 1_555
Cd4 O18 2.251979 1_565
Cd4 O38 2.285808 1_555
Cd4 O2 2.303892 1_455
Cd4 O28 2.343453 1_454
Cd5 O11 2.199049 1_555
Cd5 O19 2.251979 1_565
Cd5 O39 2.285808 1_555
Cd5 O3 2.303892 1_555
Cd5 O29 2.343453 1_555
Cd6 O8 2.199049 1_555
Cd6 O16 2.251979 1_545
Cd6 O36 2.285808 1_555
Cd6 O0 2.303892 1_655
Cd6 O30 2.343453 1_656
Cd7 O9 2.199049 1_555
Cd7 O17 2.251979 1_545
Cd7 O37 2.285808 1_555
Cd7 O1 2.303892 1_555
Cd7 O31 2.343453 1_555
O0 S4 1.508131 1_555
O1 S5 1.508131 1_555
O2 S6 1.508131 1_555
O3 S7 1.508131 1_555
O4 O70 1.235761 1_455
O5 O71 1.235761 1_555
O6 O68 1.235761 1_655
O8 S14 1.512591 1_555
O9 S15 1.512591 1_555
O10 S12 1.512591 1_555
O11 S13 1.512591 1_555
O12 S4 1.472183 1_555
O13 S5 1.472183 1_555
O14 S6 1.472183 1_555
O15 S7 1.472183 1_555
O16 S0 1.511918 1_555
O17 S1 1.511918 1_555
O18 S2 1.511918 1_555
O19 S3 1.511918 1_555
O20 S0 1.500141 1_555
O21 S1 1.500141 1_555
O22 S2 1.500141 1_555
O23 S3 1.500141 1_555
O24 S8 1.505654 1_555
O25 S9 1.505654 1_555
O26 S10 1.505654 1_555
O27 S11 1.505654 1_555
O28 S0 1.502451 1_555
O29 S1 1.502451 1_555
O30 S2 1.502451 1_555
O31 S3 1.502451 1_555
O32 S0 1.468350 1_555
O33 S1 1.468350 1_555
O34 S2 1.468350 1_555
O35 S3 1.468350 1_555
O36 S8 1.489605 1_555
O37 S9 1.489605 1_555
O38 S10 1.489605 1_555
O39 S11 1.489605 1_555
O40 S12 1.481884 1_556
O41 S13 1.481884 1_555
O42 S14 1.481884 1_554
O43 S15 1.481884 1_555
O48 S11 1.502479 1_555
O49 S10 1.502479 1_555
O50 S9 1.502479 1_555
O51 S8 1.502479 1_555
O52 S4 1.498919 1_555
O53 S5 1.498919 1_555
O54 S6 1.498919 1_555
O55 S7 1.498919 1_555
O56 S11 1.480808 1_555
O57 S10 1.480808 1_555
O58 S9 1.480808 1_555
O59 S8 1.480808 1_555
O60 S13 1.473981 1_555
O61 S12 1.473981 1_555
O62 S15 1.473981 1_555
O63 S14 1.473981 1_555
O64 S4 1.492766 1_555
O65 S5 1.492766 1_555
O66 S6 1.492766 1_555
O67 S7 1.492766 1_555
O69 O7 1.235761 1_555
O72 S13 1.504031 1_555
O73 S12 1.504031 1_555
O74 S15 1.504031 1_555
O75 S14 1.504031 1_555
