# generated using pymatgen
data_Li8Mn7Cu(PO4)12
_symmetry_space_group_name_H-M   'P 1'
_cell_length_a   8.53744600
_cell_length_b   8.81307559
_cell_length_c   11.96111072
_cell_angle_alpha   89.75807087
_cell_angle_beta   89.92414281
_cell_angle_gamma   88.75917690
_symmetry_Int_Tables_number   1
_chemical_formula_structural   Li8Mn7Cu(PO4)12
_chemical_formula_sum   'Li8 Mn7 Cu1 P12 O48'
_cell_volume   899.74806937
_cell_formula_units_Z   1
loop_
 _symmetry_equiv_pos_site_id
 _symmetry_equiv_pos_as_xyz
  1  'x, y, z'
loop_
 _atom_site_type_symbol
 _atom_site_label
 _atom_site_symmetry_multiplicity
 _atom_site_fract_x
 _atom_site_fract_y
 _atom_site_fract_z
 _atom_site_occupancy
  Li  Li0  1  0.21714600  0.72057000  0.18165100  1
  Li  Li1  1  0.21510500  0.77563200  0.81858700  1
  Li  Li2  1  0.28579800  0.22405200  0.31739000  1
  Li  Li3  1  0.28210200  0.28042700  0.68093700  1
  Li  Li4  1  0.71631600  0.71896200  0.31969100  1
  Li  Li5  1  0.71378400  0.77373200  0.68353300  1
  Li  Li6  1  0.78523000  0.22460600  0.18153400  1
  Li  Li7  1  0.78414700  0.27997000  0.81564200  1
  Mn  Mn0  1  0.24786500  0.96204400  0.61231200  1
  Mn  Mn1  1  0.24994700  0.53344100  0.38535300  1
  Mn  Mn2  1  0.25227800  0.03718600  0.11203800  1
  Mn  Mn3  1  0.25052200  0.46568600  0.88499600  1
  Mn  Mn4  1  0.74912900  0.53461000  0.11532000  1
  Mn  Mn5  1  0.74831300  0.96352500  0.88777900  1
  Mn  Mn6  1  0.75217000  0.03728900  0.38704600  1
  Cu  Cu0  1  0.75369300  0.46560600  0.61321000  1
  P  P0  1  0.10595500  0.39353900  0.14505100  1
  P  P1  1  0.10494000  0.10304600  0.85068300  1
  P  P2  1  0.39463700  0.60613500  0.64481100  1
  P  P3  1  0.39511600  0.89642100  0.35095600  1
  P  P4  1  0.60531700  0.10543300  0.64716900  1
  P  P5  1  0.60619200  0.39355900  0.35561500  1
  P  P6  1  0.89431600  0.60752300  0.85572100  1
  P  P7  1  0.89518400  0.89663500  0.14921500  1
  P  P8  1  0.03396700  0.24474900  0.49996600  1
  P  P9  1  0.46598600  0.75535500  0.99980300  1
  P  P10  1  0.53437600  0.24505300  0.99949000  1
  P  P11  1  0.96566800  0.75145300  0.50024700  1
  O  O0  1  0.05948500  0.64366600  0.42531700  1
  O  O1  1  0.05950900  0.86037500  0.57422700  1
  O  O2  1  0.07750300  0.89999100  0.15784300  1
  O  O3  1  0.07559600  0.60703600  0.84291500  1
  O  O4  1  0.14193400  0.15347200  0.58505400  1
  O  O5  1  0.14282800  0.32554400  0.41860200  1
  O  O6  1  0.15433000  0.43771600  0.02725000  1
  O  O7  1  0.15377900  0.05738400  0.97054600  1
  O  O8  1  0.16222600  0.22942000  0.17675200  1
  O  O9  1  0.15532600  0.26102400  0.81665600  1
  O  O10  1  0.17684500  0.51137200  0.22600300  1
  O  O11  1  0.17885100  0.97892000  0.77232200  1
  O  O12  1  0.32129300  0.02060200  0.27247600  1
  O  O13  1  0.32150600  0.48827000  0.72583600  1
  O  O14  1  0.33602900  0.76995000  0.67651700  1
  O  O15  1  0.34430200  0.73857800  0.31737400  1
  O  O16  1  0.34514000  0.56218300  0.52732600  1
  O  O17  1  0.34603500  0.94147300  0.47097200  1
  O  O18  1  0.35870700  0.84493400  0.08552900  1
  O  O19  1  0.35795900  0.67393700  0.91924100  1
  O  O20  1  0.42252100  0.10091400  0.65634600  1
  O  O21  1  0.42477300  0.39387500  0.34110500  1
  O  O22  1  0.44037800  0.13758400  0.07532900  1
  O  O23  1  0.43929600  0.35345000  0.92483300  1
  O  O24  1  0.56008200  0.64628900  0.07465600  1
  O  O25  1  0.56066200  0.86320900  0.92455600  1
  O  O26  1  0.57405400  0.60973800  0.65829500  1
  O  O27  1  0.57745100  0.89965200  0.34236800  1
  O  O28  1  0.64302600  0.32671800  0.07980300  1
  O  O29  1  0.64190500  0.15579900  0.91372200  1
  O  O30  1  0.65421000  0.05989900  0.52793700  1
  O  O31  1  0.64808600  0.44026700  0.47291500  1
  O  O32  1  0.66220600  0.22940500  0.32300900  1
  O  O33  1  0.65499000  0.26531900  0.68080900  1
  O  O34  1  0.67745600  0.51080100  0.27300900  1
  O  O35  1  0.67934400  0.98217100  0.72662300  1
  O  O36  1  0.82142300  0.02077500  0.22742800  1
  O  O37  1  0.82000300  0.48905000  0.77819400  1
  O  O38  1  0.84438600  0.73885400  0.18390500  1
  O  O39  1  0.83892300  0.77216300  0.82338900  1
  O  O40  1  0.84830500  0.56658400  0.97482300  1
  O  O41  1  0.84631800  0.94208100  0.02918400  1
  O  O42  1  0.85846200  0.66800200  0.58360800  1
  O  O43  1  0.85621300  0.84253100  0.41694000  1
  O  O44  1  0.92257900  0.09963200  0.84191600  1
  O  O45  1  0.92486800  0.39382000  0.15765900  1
  O  O46  1  0.93926200  0.13866400  0.42400500  1
  O  O47  1  0.94444100  0.35066300  0.57913100  1
loop_
_geom_bond_atom_site_label_1
_geom_bond_atom_site_label_2
_geom_bond_distance
_geom_bond_site_symmetry_2
Li0 O10 1.953891 1_555
Li0 O15 1.963011 1_555
Li0 O2 1.979451 1_555
Li0 O18 2.006698 1_555
Li1 O11 1.892062 1_555
Li1 O19 1.920311 1_555
Li1 O3 1.945020 1_555
Li1 O14 1.987417 1_555
Li2 O12 1.891965 1_555
Li2 O5 1.927027 1_555
Li2 O21 1.951822 1_555
Li2 O8 1.986670 1_555
Li3 O13 1.947387 1_555
Li3 O9 1.958824 1_555
Li3 O20 1.986821 1_555
Li3 O4 2.017834 1_555
Li4 O34 1.955218 1_555
Li4 O38 1.966036 1_555
Li4 O27 1.983932 1_555
Li4 O43 2.009037 1_555
Li5 O26 1.918959 1_555
Li5 O35 1.926350 1_555
Li5 O42 1.943739 1_555
Li5 O39 1.985917 1_555
Li6 O36 1.895224 1_555
Li6 O28 1.926599 1_555
Li6 O45 1.949164 1_555
Li6 O32 1.990590 1_555
Li7 O37 1.925293 1_555
Li7 O33 1.961163 1_555
Li7 O44 1.984172 1_555
Li7 O29 2.022744 1_555
Mn0 O17 1.893579 1_555
Mn0 O1 1.914176 1_555
Mn0 O4 1.923659 1_565
Mn0 O14 1.989403 1_555
Mn0 O11 2.006965 1_555
Mn0 O20 2.021202 1_565
Mn1 O16 1.903834 1_555
Mn1 O0 1.936408 1_555
Mn1 O21 1.986121 1_555
Mn1 O10 2.017850 1_555
Mn1 O5 2.101658 1_555
Mn1 O15 2.151147 1_555
Mn2 O7 1.896790 1_554
Mn2 O22 1.900257 1_555
Mn2 O18 1.932358 1_545
Mn2 O8 2.003382 1_555
Mn2 O12 2.011977 1_555
Mn2 O2 2.014685 1_545
Mn3 O6 1.905747 1_556
Mn3 O23 1.931806 1_555
Mn3 O3 1.987867 1_555
Mn3 O13 2.007495 1_555
Mn3 O19 2.111350 1_555
Mn3 O9 2.158645 1_555
Mn4 O40 1.903410 1_554
Mn4 O24 1.933767 1_555
Mn4 O45 1.990778 1_555
Mn4 O34 1.993772 1_555
Mn4 O28 2.106501 1_555
Mn4 O38 2.156863 1_555
Mn5 O41 1.894916 1_556
Mn5 O25 1.896817 1_555
Mn5 O29 1.931325 1_565
Mn5 O39 1.997179 1_555
Mn5 O44 2.005708 1_565
Mn5 O35 2.021265 1_555
Mn6 O30 1.889704 1_555
Mn6 O46 1.900520 1_555
Mn6 O43 1.947454 1_545
Mn6 O32 1.994389 1_555
Mn6 O36 2.002863 1_555
Mn6 O27 2.016914 1_545
Cu0 O31 1.922143 1_555
Cu0 O47 1.942840 1_555
Cu0 O42 2.042070 1_555
Cu0 O26 2.043444 1_555
Cu0 O37 2.066137 1_555
Cu0 O33 2.128418 1_555
O0 P11 1.522991 1_455
O1 P11 1.545548 1_455
O2 P7 1.561020 1_455
O3 P6 1.554943 1_455
O4 P8 1.579880 1_555
O5 P8 1.529161 1_555
O6 P0 1.519312 1_555
O7 P1 1.542959 1_555
O8 P0 1.559609 1_555
O9 P1 1.519804 1_555
O10 P0 1.555485 1_555
O11 P1 1.565427 1_565
O12 P3 1.561783 1_545
O13 P2 1.557581 1_555
O14 P2 1.565672 1_555
O15 P3 1.521832 1_555
O16 P2 1.522039 1_555
O17 P3 1.545954 1_555
O18 P9 1.576878 1_554
O19 P9 1.526715 1_555
O20 P4 1.565676 1_555
O21 P5 1.558718 1_555
O22 P10 1.545209 1_554
O23 P10 1.526462 1_555
O24 P9 1.527113 1_554
O25 P9 1.546294 1_555
O26 P2 1.541468 1_555
O27 P3 1.560792 1_555
O28 P10 1.529168 1_554
O29 P10 1.577018 1_555
O30 P4 1.537913 1_555
O31 P5 1.509461 1_555
O32 P5 1.564624 1_555
O33 P4 1.535707 1_555
O34 P5 1.559190 1_555
O35 P4 1.563915 1_565
O36 P7 1.563953 1_545
O37 P6 1.546290 1_555
O38 P7 1.521384 1_555
O39 P6 1.563518 1_555
O40 P6 1.521269 1_555
O41 P7 1.544410 1_555
O42 P11 1.547044 1_555
O43 P11 1.572782 1_555
O44 P1 1.561511 1_655
O45 P0 1.553109 1_655
O46 P8 1.547647 1_655
O47 P8 1.525369 1_655
