# generated using pymatgen
data_TmCo3P2
_symmetry_space_group_name_H-M   'P 1'
_cell_length_a   3.65344390
_cell_length_b   10.36905007
_cell_length_c   12.02197448
_cell_angle_alpha   90.00000000
_cell_angle_beta   90.00000000
_cell_angle_gamma   90.00000000
_symmetry_Int_Tables_number   1
_chemical_formula_structural   TmCo3P2
_chemical_formula_sum   'Tm6 Co18 P12'
_cell_volume   455.42536630
_cell_formula_units_Z   6
loop_
 _symmetry_equiv_pos_site_id
 _symmetry_equiv_pos_as_xyz
  1  'x, y, z'
loop_
 _atom_site_type_symbol
 _atom_site_label
 _atom_site_symmetry_multiplicity
 _atom_site_fract_x
 _atom_site_fract_y
 _atom_site_fract_z
 _atom_site_occupancy
  Tm  Tm0  1  -0.00000000  0.50000000  0.52250104  1
  Tm  Tm1  1  0.50000000  0.00000000  0.47749896  1
  Tm  Tm2  1  0.50000000  0.81771415  0.20597187  1
  Tm  Tm3  1  0.50000000  0.18228585  0.20597187  1
  Tm  Tm4  1  0.00000000  0.68228585  0.79402813  1
  Tm  Tm5  1  -0.00000000  0.31771415  0.79402813  1
  Co  Co0  1  0.50000000  0.50000000  0.15640179  1
  Co  Co1  1  0.00000000  0.00000000  0.84359821  1
  Co  Co2  1  0.50000000  0.50000000  0.70306160  1
  Co  Co3  1  -0.00000000  0.00000000  0.29693840  1
  Co  Co4  1  0.00000000  0.50000000  0.98676342  1
  Co  Co5  1  0.50000000  0.00000000  0.01323658  1
  Co  Co6  1  0.50000000  0.33315569  0.99486337  1
  Co  Co7  1  0.50000000  0.66684431  0.99486337  1
  Co  Co8  1  -0.00000000  0.16684431  0.00513663  1
  Co  Co9  1  0.00000000  0.83315569  0.00513663  1
  Co  Co10  1  0.50000000  0.29694069  0.43114732  1
  Co  Co11  1  0.50000000  0.70305931  0.43114732  1
  Co  Co12  1  -0.00000000  0.20305931  0.56885268  1
  Co  Co13  1  -0.00000000  0.79694069  0.56885268  1
  Co  Co14  1  0.50000000  0.87928406  0.70925527  1
  Co  Co15  1  0.50000000  0.12071594  0.70925527  1
  Co  Co16  1  -0.00000000  0.62071594  0.29074473  1
  Co  Co17  1  0.00000000  0.37928406  0.29074473  1
  P  P0  1  0.50000000  0.50000000  0.88121662  1
  P  P1  1  -0.00000000  0.00000000  0.11878338  1
  P  P2  1  0.50000000  0.50000000  0.34528287  1
  P  P3  1  -0.00000000  0.00000000  0.65471713  1
  P  P4  1  0.50000000  0.31165104  0.61604380  1
  P  P5  1  0.50000000  0.68834896  0.61604380  1
  P  P6  1  -0.00000000  0.18834896  0.38395620  1
  P  P7  1  0.00000000  0.81165104  0.38395620  1
  P  P8  1  0.50000000  0.84582285  0.89255906  1
  P  P9  1  0.50000000  0.15417715  0.89255906  1
  P  P10  1  -0.00000000  0.65417715  0.10744094  1
  P  P11  1  -0.00000000  0.34582285  0.10744094  1
loop_
_geom_bond_atom_site_label_1
_geom_bond_atom_site_label_2
_geom_bond_distance
_geom_bond_site_symmetry_2
Co0 P2 2.270724 1_555
Co0 P10 2.497823 1_655
Co0 P10 2.497823 1_555
Co0 P11 2.497823 1_655
Co0 P11 2.497823 1_555
Co1 P3 2.270724 1_555
Co1 P8 2.497823 1_445
Co1 P8 2.497823 1_545
Co1 P9 2.497823 1_455
Co1 P9 2.497823 1_555
Co2 P0 2.141775 1_555
Co2 P4 2.215533 1_555
Co2 P5 2.215533 1_555
Co2 Tm0 2.837046 1_555
Co2 Tm0 2.837046 1_655
Co2 Tm4 2.847010 1_655
Co2 Tm4 2.847010 1_555
Co2 Tm5 2.847010 1_555
Co2 Tm5 2.847010 1_655
Co3 P1 2.141775 1_555
Co3 P7 2.215533 1_545
Co3 P6 2.215533 1_555
Co3 Tm1 2.837046 1_555
Co3 Tm1 2.837046 1_455
Co3 Tm3 2.847010 1_455
Co3 Tm2 2.847010 1_445
Co3 Tm2 2.847010 1_545
Co3 Tm3 2.847010 1_555
Co4 P11 2.158823 1_556
Co4 P10 2.158823 1_556
Co4 P0 2.224179 1_555
Co4 P0 2.224179 1_455
Co4 Tm4 2.990210 1_555
Co4 Tm5 2.990210 1_555
Co5 P8 2.158823 1_544
Co5 P9 2.158823 1_554
Co5 P1 2.224179 1_655
Co5 P1 2.224179 1_555
Co5 Tm2 2.990210 1_545
Co5 Tm3 2.990210 1_555
Co6 P0 2.204455 1_555
Co6 P9 2.226384 1_555
Co6 P11 2.277250 1_656
Co6 P11 2.277250 1_556
Co6 Tm3 2.981345 1_556
Co6 Tm5 3.031840 1_655
Co6 Tm5 3.031840 1_555
Co7 P0 2.204455 1_555
Co7 P8 2.226384 1_555
Co7 P10 2.277250 1_656
Co7 P10 2.277250 1_556
Co7 Tm2 2.981345 1_556
Co7 Tm4 3.031840 1_555
Co7 Tm4 3.031840 1_655
Co8 P1 2.204455 1_555
Co8 P11 2.226384 1_555
Co8 P9 2.277250 1_454
Co8 P9 2.277250 1_554
Co8 Tm5 2.981345 1_554
Co8 Tm3 3.031840 1_455
Co8 Tm3 3.031840 1_555
Co9 P1 2.204455 1_565
Co9 P10 2.226384 1_555
Co9 P8 2.277250 1_554
Co9 P8 2.277250 1_454
Co9 Tm4 2.981345 1_554
Co9 Tm2 3.031840 1_555
Co9 Tm2 3.031840 1_455
Co10 P6 2.219603 1_555
Co10 P6 2.219603 1_655
Co10 P4 2.228048 1_555
Co10 P2 2.344958 1_555
Co10 Tm3 2.956608 1_555
Co10 Tm0 2.996053 1_555
Co10 Tm0 2.996053 1_655
Co10 Tm1 3.129011 1_555
Co11 P7 2.219603 1_555
Co11 P7 2.219603 1_655
Co11 P5 2.228048 1_555
Co11 P2 2.344958 1_555
Co11 Tm2 2.956608 1_555
Co11 Tm0 2.996053 1_555
Co11 Tm0 2.996053 1_655
Co11 Tm1 3.129011 1_565
Co12 P4 2.219603 1_555
Co12 P4 2.219603 1_455
Co12 P6 2.228048 1_555
Co12 P3 2.344958 1_555
Co12 Tm5 2.956608 1_555
Co12 Tm1 2.996053 1_555
Co12 Tm1 2.996053 1_455
Co12 Tm0 3.129011 1_555
Co13 P5 2.219603 1_555
Co13 P5 2.219603 1_455
Co13 P7 2.228048 1_555
Co13 P3 2.344958 1_565
Co13 Tm4 2.956608 1_555
Co13 Tm1 2.996053 1_565
Co13 Tm1 2.996053 1_465
Co13 Tm0 3.129011 1_555
Co14 P8 2.230820 1_555
Co14 P5 2.274947 1_555
Co14 P3 2.309453 1_665
Co14 P3 2.309453 1_565
Co14 Tm4 2.923716 1_555
Co14 Tm4 2.923716 1_655
Co14 Tm1 3.054425 1_565
Co15 P9 2.230820 1_555
Co15 P4 2.274947 1_555
Co15 P3 2.309453 1_555
Co15 P3 2.309453 1_655
Co15 Tm5 2.923716 1_555
Co15 Tm5 2.923716 1_655
Co15 Tm1 3.054425 1_555
Co16 P10 2.230820 1_555
Co16 P7 2.274947 1_555
Co16 P2 2.309453 1_555
Co16 P2 2.309453 1_455
Co16 Tm2 2.923716 1_555
Co16 Tm2 2.923716 1_455
Co16 Tm0 3.054425 1_555
Co17 P11 2.230820 1_555
Co17 P6 2.274947 1_555
Co17 P2 2.309453 1_455
Co17 P2 2.309453 1_555
Co17 Tm3 2.923716 1_555
Co17 Tm3 2.923716 1_455
Co17 Tm0 3.054425 1_555
P0 Tm4 2.829874 1_555
P0 Tm4 2.829874 1_655
P0 Tm5 2.829874 1_555
P0 Tm5 2.829874 1_655
P1 Tm3 2.829874 1_455
P1 Tm2 2.829874 1_445
P1 Tm2 2.829874 1_545
P1 Tm3 2.829874 1_555
P2 Tm0 2.806420 1_555
P2 Tm0 2.806420 1_655
P3 Tm1 2.806420 1_555
P3 Tm1 2.806420 1_455
P4 Tm5 2.814122 1_555
P4 Tm5 2.814122 1_655
P4 Tm0 2.900996 1_555
P4 Tm0 2.900996 1_655
P5 Tm4 2.814122 1_555
P5 Tm4 2.814122 1_655
P5 Tm0 2.900996 1_555
P5 Tm0 2.900996 1_655
P6 Tm3 2.814122 1_555
P6 Tm3 2.814122 1_455
P6 Tm1 2.900996 1_555
P6 Tm1 2.900996 1_455
P7 Tm2 2.814122 1_455
P7 Tm2 2.814122 1_555
P7 Tm1 2.900996 1_565
P7 Tm1 2.900996 1_465
P8 Tm4 2.759623 1_555
P8 Tm4 2.759623 1_655
P9 Tm5 2.759623 1_655
P9 Tm5 2.759623 1_555
P10 Tm2 2.759623 1_555
P10 Tm2 2.759623 1_455
P11 Tm3 2.759623 1_555
P11 Tm3 2.759623 1_455
