# generated using pymatgen
data_Ba4Li2(CdAs2)3
_symmetry_space_group_name_H-M   'P 1'
_cell_length_a   10.57847876
_cell_length_b   10.57847876
_cell_length_c   17.37455100
_cell_angle_alpha   90.00000000
_cell_angle_beta   90.00000000
_cell_angle_gamma   154.52750007
_symmetry_Int_Tables_number   1
_chemical_formula_structural   Ba4Li2(CdAs2)3
_chemical_formula_sum   'Ba8 Li4 Cd6 As12'
_cell_volume   836.19408115
_cell_formula_units_Z   2
loop_
 _symmetry_equiv_pos_site_id
 _symmetry_equiv_pos_as_xyz
  1  'x, y, z'
loop_
 _atom_site_type_symbol
 _atom_site_label
 _atom_site_symmetry_multiplicity
 _atom_site_fract_x
 _atom_site_fract_y
 _atom_site_fract_z
 _atom_site_occupancy
  Ba  Ba0  1  0.98337300  0.01662700  0.37839300  1
  Ba  Ba1  1  0.01662700  0.98337300  0.62160700  1
  Ba  Ba2  1  0.98337300  0.01662700  0.12160700  1
  Ba  Ba3  1  0.01662700  0.98337300  0.87839300  1
  Ba  Ba4  1  0.82676100  0.17323900  0.93025900  1
  Ba  Ba5  1  0.17323900  0.82676100  0.06974100  1
  Ba  Ba6  1  0.82676100  0.17323900  0.56974100  1
  Ba  Ba7  1  0.17323900  0.82676100  0.43025900  1
  Li  Li0  1  0.85092600  0.14907400  0.25000000  1
  Li  Li1  1  0.14907400  0.85092600  0.75000000  1
  Li  Li2  1  0.56394200  0.43605800  0.25000000  1
  Li  Li3  1  0.43605800  0.56394200  0.75000000  1
  Cd  Cd0  1  0.35100200  0.64899800  0.37656000  1
  Cd  Cd1  1  0.64899800  0.35100200  0.62344000  1
  Cd  Cd2  1  0.35100200  0.64899800  0.12344000  1
  Cd  Cd3  1  0.64899800  0.35100200  0.87656000  1
  Cd  Cd4  1  0.70388900  0.29611100  0.25000000  1
  Cd  Cd5  1  0.29611100  0.70388900  0.75000000  1
  As  As0  1  0.78043900  0.21956100  0.38239100  1
  As  As1  1  0.21956100  0.78043900  0.61760900  1
  As  As2  1  0.78043900  0.21956100  0.11760900  1
  As  As3  1  0.21956100  0.78043900  0.88239100  1
  As  As4  1  0.56026600  0.43973400  0.48668300  1
  As  As5  1  0.43973400  0.56026600  0.51331700  1
  As  As6  1  0.56026600  0.43973400  0.01331700  1
  As  As7  1  0.43973400  0.56026600  0.98668300  1
  As  As8  1  0.43190100  0.56809900  0.25000000  1
  As  As9  1  0.56809900  0.43190100  0.75000000  1
  As  As10  1  0.11947700  0.88052300  0.25000000  1
  As  As11  1  0.88052300  0.11947700  0.75000000  1
loop_
_geom_bond_atom_site_label_1
_geom_bond_atom_site_label_2
_geom_bond_distance
_geom_bond_site_symmetry_2
Ba0 Li0 3.528013 1_555
Ba0 Cd0 3.591933 1_545
Ba0 Cd0 3.591933 1_655
Ba0 Li2 3.630394 1_545
Ba0 Li2 3.630394 1_655
Ba1 Li1 3.528013 1_555
Ba1 Cd1 3.591933 1_455
Ba1 Cd1 3.591933 1_565
Ba1 Li3 3.630394 1_455
Ba1 Li3 3.630394 1_565
Ba2 Li0 3.528013 1_555
Ba2 Cd2 3.591933 1_545
Ba2 Cd2 3.591933 1_655
Ba2 Li2 3.630394 1_545
Ba2 Li2 3.630394 1_655
Ba3 Li1 3.528013 1_555
Ba3 Cd3 3.591933 1_455
Ba3 Cd3 3.591933 1_565
Ba3 Li3 3.630394 1_455
Ba3 Li3 3.630394 1_565
Cd4 Li2 2.888002 1_555
Cd4 Li0 3.034314 1_555
Cd5 Li3 2.888002 1_555
Cd5 Li1 3.034314 1_555
As0 Li0 2.721568 1_555
As0 Cd0 2.751306 1_545
As0 Cd0 2.751306 1_655
As0 Cd4 2.790444 1_555
As0 Ba7 3.320335 1_545
As0 Ba7 3.320335 1_655
As0 Ba6 3.392580 1_555
As1 Li1 2.721568 1_555
As1 Cd1 2.751306 1_565
As1 Cd1 2.751306 1_455
As1 Cd5 2.790444 1_555
As1 Ba6 3.320335 1_455
As1 Ba6 3.320335 1_565
As1 Ba7 3.392580 1_555
As2 Li0 2.721568 1_555
As2 Cd2 2.751306 1_545
As2 Cd2 2.751306 1_655
As2 Cd4 2.790444 1_555
As2 Ba5 3.320335 1_545
As2 Ba5 3.320335 1_655
As2 Ba4 3.392580 1_554
As3 Li1 2.721568 1_555
As3 Cd3 2.751306 1_565
As3 Cd3 2.751306 1_455
As3 Cd5 2.790444 1_555
As3 Ba4 3.320335 1_455
As3 Ba4 3.320335 1_565
As3 Ba5 3.392580 1_556
As4 As5 2.530026 1_555
As4 Cd1 2.999795 1_555
As4 Ba0 3.390712 1_565
As4 Ba0 3.390712 1_455
As4 Ba1 3.427167 1_655
As4 Ba1 3.427167 1_545
As4 Ba7 3.440246 1_655
As4 Ba7 3.440246 1_545
As5 Cd0 2.999795 1_555
As5 Ba1 3.390712 1_655
As5 Ba1 3.390712 1_545
As5 Ba0 3.427167 1_565
As5 Ba0 3.427167 1_455
As5 Ba6 3.440246 1_565
As5 Ba6 3.440246 1_455
As6 As7 2.530026 1_554
As6 Cd3 2.999795 1_554
As6 Ba2 3.390712 1_565
As6 Ba2 3.390712 1_455
As6 Ba3 3.427167 1_654
As6 Ba3 3.427167 1_544
As6 Ba5 3.440246 1_655
As6 Ba5 3.440246 1_545
As7 Cd2 2.999795 1_556
As7 Ba3 3.390712 1_655
As7 Ba3 3.390712 1_545
As7 Ba2 3.427167 1_566
As7 Ba2 3.427167 1_456
As7 Ba4 3.440246 1_565
As7 Ba4 3.440246 1_455
As8 Li2 2.724850 1_555
As8 Cd2 2.760864 1_555
As8 Cd0 2.760864 1_555
As8 Li0 2.869033 1_565
As8 Li0 2.869033 1_455
As8 Ba2 3.397588 1_565
As8 Ba2 3.397588 1_455
As8 Ba0 3.397588 1_565
As8 Ba0 3.397588 1_455
As9 Li3 2.724850 1_555
As9 Cd3 2.760864 1_555
As9 Cd1 2.760864 1_555
As9 Li1 2.869033 1_655
As9 Li1 2.869033 1_545
As9 Ba3 3.397588 1_655
As9 Ba3 3.397588 1_545
As9 Ba1 3.397588 1_655
As9 Ba1 3.397588 1_545
As10 Li2 2.598541 1_455
As10 Li2 2.598541 1_565
As10 Cd4 2.910915 1_455
As10 Cd4 2.910915 1_565
As10 Ba5 3.322620 1_555
As10 Ba7 3.322620 1_555
As10 Ba2 3.586797 1_465
As10 Ba0 3.586797 1_465
As11 Li3 2.598541 1_545
As11 Li3 2.598541 1_655
As11 Cd5 2.910915 1_655
As11 Cd5 2.910915 1_545
As11 Ba4 3.322620 1_555
As11 Ba6 3.322620 1_555
As11 Ba3 3.586797 1_645
As11 Ba1 3.586797 1_645
