# generated using pymatgen
data_Eu3(MgSi)5
_symmetry_space_group_name_H-M   'P 1'
_cell_length_a   4.47824700
_cell_length_b   14.22497600
_cell_length_c   18.13632000
_cell_angle_alpha   90.00000000
_cell_angle_beta   90.00000000
_cell_angle_gamma   90.00000000
_symmetry_Int_Tables_number   1
_chemical_formula_structural   Eu3(MgSi)5
_chemical_formula_sum   'Eu12 Mg20 Si20'
_cell_volume   1155.33719672
_cell_formula_units_Z   4
loop_
 _symmetry_equiv_pos_site_id
 _symmetry_equiv_pos_as_xyz
  1  'x, y, z'
loop_
 _atom_site_type_symbol
 _atom_site_label
 _atom_site_symmetry_multiplicity
 _atom_site_fract_x
 _atom_site_fract_y
 _atom_site_fract_z
 _atom_site_occupancy
  Eu  Eu0  1  0.25000000  0.41238900  0.65301700  1
  Eu  Eu1  1  0.25000000  0.91238900  0.84698300  1
  Eu  Eu2  1  0.75000000  0.58761100  0.34698300  1
  Eu  Eu3  1  0.75000000  0.08761100  0.15301700  1
  Eu  Eu4  1  0.25000000  0.20819700  0.48416700  1
  Eu  Eu5  1  0.25000000  0.70819700  0.01583300  1
  Eu  Eu6  1  0.75000000  0.79180300  0.51583300  1
  Eu  Eu7  1  0.75000000  0.29180300  0.98416700  1
  Eu  Eu8  1  0.25000000  0.13672800  0.69199100  1
  Eu  Eu9  1  0.25000000  0.63672800  0.80800900  1
  Eu  Eu10  1  0.75000000  0.86327200  0.30800900  1
  Eu  Eu11  1  0.75000000  0.36327200  0.19199100  1
  Mg  Mg0  1  0.25000000  0.44659400  0.45684100  1
  Mg  Mg1  1  0.25000000  0.94659400  0.04315900  1
  Mg  Mg2  1  0.75000000  0.55340600  0.54315900  1
  Mg  Mg3  1  0.75000000  0.05340600  0.95684100  1
  Mg  Mg4  1  0.25000000  0.16464700  0.87097000  1
  Mg  Mg5  1  0.25000000  0.66464700  0.62903000  1
  Mg  Mg6  1  0.75000000  0.83535300  0.12903000  1
  Mg  Mg7  1  0.75000000  0.33535300  0.37097000  1
  Mg  Mg8  1  0.25000000  0.97838800  0.56097600  1
  Mg  Mg9  1  0.25000000  0.47838800  0.93902400  1
  Mg  Mg10  1  0.75000000  0.02161200  0.43902400  1
  Mg  Mg11  1  0.75000000  0.52161200  0.06097600  1
  Mg  Mg12  1  0.25000000  0.03460900  0.31057900  1
  Mg  Mg13  1  0.25000000  0.53460900  0.18942100  1
  Mg  Mg14  1  0.75000000  0.96539100  0.68942100  1
  Mg  Mg15  1  0.75000000  0.46539100  0.81057900  1
  Mg  Mg16  1  0.25000000  0.23283100  0.27106400  1
  Mg  Mg17  1  0.25000000  0.73283100  0.22893600  1
  Mg  Mg18  1  0.75000000  0.76716900  0.72893600  1
  Mg  Mg19  1  0.75000000  0.26716900  0.77106400  1
  Si  Si0  1  0.25000000  0.13435000  0.01841000  1
  Si  Si1  1  0.25000000  0.63435000  0.48159000  1
  Si  Si2  1  0.75000000  0.86565000  0.98159000  1
  Si  Si3  1  0.75000000  0.36565000  0.51841000  1
  Si  Si4  1  0.25000000  0.35165500  0.82587500  1
  Si  Si5  1  0.25000000  0.85165500  0.67412500  1
  Si  Si6  1  0.75000000  0.64834500  0.17412500  1
  Si  Si7  1  0.75000000  0.14834500  0.32587500  1
  Si  Si8  1  0.25000000  0.74628700  0.38433200  1
  Si  Si9  1  0.25000000  0.24628700  0.11566800  1
  Si  Si10  1  0.75000000  0.25371300  0.61566800  1
  Si  Si11  1  0.75000000  0.75371300  0.88433200  1
  Si  Si12  1  0.25000000  0.41869800  0.30971600  1
  Si  Si13  1  0.25000000  0.91869800  0.19028400  1
  Si  Si14  1  0.75000000  0.58130200  0.69028400  1
  Si  Si15  1  0.75000000  0.08130200  0.80971600  1
  Si  Si16  1  0.25000000  0.90801400  0.42480500  1
  Si  Si17  1  0.25000000  0.40801400  0.07519500  1
  Si  Si18  1  0.75000000  0.09198600  0.57519500  1
  Si  Si19  1  0.75000000  0.59198600  0.92480500  1
loop_
_geom_bond_atom_site_label_1
_geom_bond_atom_site_label_2
_geom_bond_distance
_geom_bond_site_symmetry_2
Eu0 Si10 3.250737 1_455
Eu0 Si10 3.250737 1_555
Eu0 Si4 3.251871 1_555
Eu0 Si14 3.353187 1_455
Eu0 Si14 3.353187 1_555
Eu0 Si3 3.378689 1_455
Eu0 Si3 3.378689 1_555
Eu1 Si11 3.250737 1_455
Eu1 Si11 3.250737 1_555
Eu1 Si5 3.251871 1_555
Eu1 Si15 3.353187 1_565
Eu1 Si15 3.353187 1_465
Eu1 Si2 3.378689 1_455
Eu1 Si2 3.378689 1_555
Eu2 Si8 3.250737 1_555
Eu2 Si8 3.250737 1_655
Eu2 Si6 3.251871 1_555
Eu2 Si12 3.353187 1_555
Eu2 Si12 3.353187 1_655
Eu2 Si1 3.378689 1_655
Eu2 Si1 3.378689 1_555
Eu3 Si9 3.250737 1_555
Eu3 Si9 3.250737 1_655
Eu3 Si7 3.251871 1_555
Eu3 Si13 3.353187 1_645
Eu3 Si13 3.353187 1_545
Eu3 Si0 3.378689 1_555
Eu3 Si0 3.378689 1_655
Eu4 Si3 3.227370 1_455
Eu4 Si3 3.227370 1_555
Eu4 Si18 3.236035 1_555
Eu4 Si18 3.236035 1_455
Eu4 Si10 3.334793 1_455
Eu4 Si10 3.334793 1_555
Eu5 Si2 3.227370 1_554
Eu5 Si2 3.227370 1_454
Eu5 Si19 3.236035 1_454
Eu5 Si19 3.236035 1_554
Eu5 Si11 3.334793 1_554
Eu5 Si11 3.334793 1_454
Eu6 Si1 3.227370 1_655
Eu6 Si1 3.227370 1_555
Eu6 Si16 3.236035 1_655
Eu6 Si16 3.236035 1_555
Eu6 Si8 3.334793 1_555
Eu6 Si8 3.334793 1_655
Eu7 Si0 3.227370 1_656
Eu7 Si0 3.227370 1_556
Eu7 Si17 3.236035 1_556
Eu7 Si17 3.236035 1_656
Eu7 Si9 3.334793 1_556
Eu7 Si9 3.334793 1_656
Eu8 Si10 3.114321 1_455
Eu8 Si10 3.114321 1_555
Eu8 Si18 3.147337 1_555
Eu8 Si18 3.147337 1_455
Eu8 Si15 3.192796 1_555
Eu8 Si15 3.192796 1_455
Eu8 Mg19 3.242415 1_455
Eu8 Mg19 3.242415 1_555
Eu8 Mg4 3.270225 1_555
Eu8 Mg8 3.274022 1_545
Eu8 Mg14 3.310001 1_445
Eu8 Mg14 3.310001 1_545
Eu9 Si11 3.114321 1_455
Eu9 Si11 3.114321 1_555
Eu9 Si19 3.147337 1_555
Eu9 Si19 3.147337 1_455
Eu9 Si14 3.192796 1_455
Eu9 Si14 3.192796 1_555
Eu9 Mg18 3.242415 1_455
Eu9 Mg18 3.242415 1_555
Eu9 Mg5 3.270225 1_555
Eu9 Mg9 3.274022 1_555
Eu9 Mg15 3.310001 1_455
Eu9 Mg15 3.310001 1_555
Eu10 Si8 3.114321 1_555
Eu10 Si8 3.114321 1_655
Eu10 Si16 3.147337 1_655
Eu10 Si16 3.147337 1_555
Eu10 Si13 3.192796 1_655
Eu10 Si13 3.192796 1_555
Eu10 Mg17 3.242415 1_555
Eu10 Mg17 3.242415 1_655
Eu10 Mg6 3.270225 1_555
Eu10 Mg10 3.274022 1_565
Eu10 Mg12 3.310001 1_665
Eu10 Mg12 3.310001 1_565
Eu11 Si9 3.114321 1_655
Eu11 Si9 3.114321 1_555
Eu11 Si17 3.147337 1_555
Eu11 Si17 3.147337 1_655
Eu11 Si12 3.192796 1_555
Eu11 Si12 3.192796 1_655
Eu11 Mg16 3.242415 1_655
Eu11 Mg16 3.242415 1_555
Eu11 Mg7 3.270225 1_555
Eu11 Mg11 3.274022 1_555
Eu11 Mg13 3.310001 1_555
Eu11 Mg13 3.310001 1_655
Mg0 Si12 2.697651 1_555
Mg0 Si1 2.708279 1_555
Mg0 Si3 2.754329 1_555
Mg0 Si3 2.754329 1_455
Mg1 Si13 2.697651 1_555
Mg1 Si0 2.708279 1_565
Mg1 Si2 2.754329 1_554
Mg1 Si2 2.754329 1_454
Mg2 Si14 2.697651 1_555
Mg2 Si3 2.708279 1_555
Mg2 Si1 2.754329 1_555
Mg2 Si1 2.754329 1_655
Mg3 Si15 2.697651 1_555
Mg3 Si2 2.708279 1_545
Mg3 Si0 2.754329 1_556
Mg3 Si0 2.754329 1_656
Mg4 Si0 2.708527 1_556
Mg4 Si15 2.766482 1_555
Mg4 Si15 2.766482 1_455
Mg4 Si4 2.783069 1_555
Mg5 Si1 2.708527 1_555
Mg5 Si14 2.766482 1_455
Mg5 Si14 2.766482 1_555
Mg5 Si5 2.783069 1_555
Mg6 Si2 2.708527 1_554
Mg6 Si13 2.766482 1_655
Mg6 Si13 2.766482 1_555
Mg6 Si6 2.783069 1_555
Mg7 Si3 2.708527 1_555
Mg7 Si12 2.766482 1_555
Mg7 Si12 2.766482 1_655
Mg7 Si7 2.783069 1_555
Mg8 Si16 2.664820 1_555
Mg8 Si5 2.731508 1_555
Mg8 Si18 2.773338 1_565
Mg8 Si18 2.773338 1_465
Mg9 Si17 2.664820 1_556
Mg9 Si4 2.731508 1_555
Mg9 Si19 2.773338 1_455
Mg9 Si19 2.773338 1_555
Mg10 Si18 2.664820 1_555
Mg10 Si7 2.731508 1_555
Mg10 Si16 2.773338 1_545
Mg10 Si16 2.773338 1_645
Mg11 Si19 2.664820 1_554
Mg11 Si6 2.731508 1_555
Mg11 Si17 2.773338 1_555
Mg11 Si17 2.773338 1_655
Mg12 Si13 2.734684 1_545
Mg12 Si16 2.744924 1_545
Mg12 Si7 2.776366 1_555
Mg12 Si7 2.776366 1_455
Mg13 Si12 2.734684 1_555
Mg13 Si17 2.744924 1_555
Mg13 Si6 2.776366 1_555
Mg13 Si6 2.776366 1_455
Mg14 Si15 2.734684 1_565
Mg14 Si18 2.744924 1_565
Mg14 Si5 2.776366 1_555
Mg14 Si5 2.776366 1_655
Mg15 Si14 2.734684 1_555
Mg15 Si19 2.744924 1_555
Mg15 Si4 2.776366 1_555
Mg15 Si4 2.776366 1_655
Mg16 Si7 2.728772 1_555
Mg16 Si7 2.728772 1_455
Mg16 Si12 2.735306 1_555
Mg16 Si9 2.824804 1_555
Mg17 Si6 2.728772 1_455
Mg17 Si6 2.728772 1_555
Mg17 Si13 2.735306 1_555
Mg17 Si8 2.824804 1_555
Mg18 Si5 2.728772 1_555
Mg18 Si5 2.728772 1_655
Mg18 Si14 2.735306 1_555
Mg18 Si11 2.824804 1_555
Mg19 Si4 2.728772 1_555
Mg19 Si4 2.728772 1_655
Mg19 Si15 2.735306 1_555
Mg19 Si10 2.824804 1_555
Si0 Si9 2.376294 1_555
Si1 Si8 2.376294 1_555
Si10 Si3 2.376294 1_555
Si10 Si18 2.414827 1_555
Si11 Si2 2.376294 1_555
Si11 Si19 2.414827 1_555
Si16 Si8 2.414827 1_555
Si17 Si9 2.414827 1_555
