# generated using pymatgen
data_AlCu3(SnO3)4
_symmetry_space_group_name_H-M   'P 1'
_cell_length_a   6.70340902
_cell_length_b   6.70340902
_cell_length_c   6.70340902
_cell_angle_alpha   109.47122063
_cell_angle_beta   109.47122063
_cell_angle_gamma   109.47122063
_symmetry_Int_Tables_number   1
_chemical_formula_structural   AlCu3(SnO3)4
_chemical_formula_sum   'Al1 Cu3 Sn4 O12'
_cell_volume   231.88105455
_cell_formula_units_Z   1
loop_
 _symmetry_equiv_pos_site_id
 _symmetry_equiv_pos_as_xyz
  1  'x, y, z'
loop_
 _atom_site_type_symbol
 _atom_site_label
 _atom_site_symmetry_multiplicity
 _atom_site_fract_x
 _atom_site_fract_y
 _atom_site_fract_z
 _atom_site_occupancy
  Al  Al0  1  0.00000000  0.00000000  0.00000000  1
  Cu  Cu0  1  0.00000000  0.50000000  0.50000000  1
  Cu  Cu1  1  0.50000000  0.50000000  0.00000000  1
  Cu  Cu2  1  0.50000000  0.00000000  0.50000000  1
  Sn  Sn0  1  0.50000000  0.00000000  0.00000000  1
  Sn  Sn1  1  0.50000000  0.50000000  0.50000000  1
  Sn  Sn2  1  0.00000000  0.50000000  0.00000000  1
  Sn  Sn3  1  0.00000000  0.00000000  0.50000000  1
  O  O0  1  0.29958600  0.83368300  0.13326900  1
  O  O1  1  0.70041400  0.16631700  0.86673100  1
  O  O2  1  0.70041400  0.83368300  0.53409700  1
  O  O3  1  0.86673100  0.70041400  0.16631700  1
  O  O4  1  0.83368300  0.13326900  0.29958600  1
  O  O5  1  0.16631700  0.46590300  0.29958600  1
  O  O6  1  0.46590300  0.29958600  0.16631700  1
  O  O7  1  0.16631700  0.86673100  0.70041400  1
  O  O8  1  0.29958600  0.16631700  0.46590300  1
  O  O9  1  0.13326900  0.29958600  0.83368300  1
  O  O10  1  0.83368300  0.53409700  0.70041400  1
  O  O11  1  0.53409700  0.70041400  0.83368300  1
loop_
_geom_bond_atom_site_label_1
_geom_bond_atom_site_label_2
_geom_bond_distance
_geom_bond_site_symmetry_2
Cu0 O7 2.015890 1_555
Cu0 O10 2.015890 1_455
Cu0 O4 2.015890 1_455
Cu0 O5 2.015890 1_555
Cu1 O3 2.015890 1_555
Cu1 O11 2.015890 1_554
Cu1 O9 2.015890 1_554
Cu1 O6 2.015890 1_555
Cu2 O1 2.015890 1_555
Cu2 O2 2.015890 1_545
Cu2 O0 2.015890 1_545
Cu2 O8 2.015890 1_555
O0 Sn2 2.076422 1_555
O0 Sn0 2.076422 1_565
O1 Sn2 2.076422 1_656
O1 Sn0 2.076422 1_556
O2 Sn3 2.076422 1_665
O2 Sn1 2.076422 1_555
O3 Sn3 2.076422 1_665
O3 Sn2 2.076422 1_655
O4 Sn0 2.076422 1_555
O4 Sn3 2.076422 1_655
O5 Sn2 2.076422 1_555
O5 Sn1 2.076422 1_555
O6 Sn0 2.076422 1_555
O6 Sn1 2.076422 1_555
O7 Sn0 2.076422 1_566
O7 Sn3 2.076422 1_565
O8 Sn3 2.076422 1_555
O8 Sn1 2.076422 1_555
O9 Sn3 2.076422 1_555
O9 Sn2 2.076422 1_556
O10 Sn2 2.076422 1_656
O10 Sn1 2.076422 1_555
O11 Sn0 2.076422 1_566
O11 Sn1 2.076422 1_555
