# generated using pymatgen
data_CaMnAs2O7
_symmetry_space_group_name_H-M   'P 1'
_cell_length_a   9.23375100
_cell_length_b   7.60946900
_cell_length_c   9.63397116
_cell_angle_alpha   68.32999521
_cell_angle_beta   90.00000000
_cell_angle_gamma   90.00000000
_symmetry_Int_Tables_number   1
_chemical_formula_structural   CaMnAs2O7
_chemical_formula_sum   'Ca4 Mn4 As8 O28'
_cell_volume   629.08009901
_cell_formula_units_Z   4
loop_
 _symmetry_equiv_pos_site_id
 _symmetry_equiv_pos_as_xyz
  1  'x, y, z'
loop_
 _atom_site_type_symbol
 _atom_site_label
 _atom_site_symmetry_multiplicity
 _atom_site_fract_x
 _atom_site_fract_y
 _atom_site_fract_z
 _atom_site_occupancy
  Ca  Ca0  1  0.06681000  0.74084100  0.92959000  1
  Ca  Ca1  1  0.56681000  0.25915900  0.57041000  1
  Ca  Ca2  1  0.93319000  0.25915900  0.07041000  1
  Ca  Ca3  1  0.43319000  0.74084100  0.42959000  1
  Mn  Mn0  1  0.94505500  0.19990700  0.68957200  1
  Mn  Mn1  1  0.44505500  0.80009300  0.81042800  1
  Mn  Mn2  1  0.05494500  0.80009300  0.31042800  1
  Mn  Mn3  1  0.55494500  0.19990700  0.18957200  1
  As  As0  1  0.76445000  0.58015200  0.73313600  1
  As  As1  1  0.26445000  0.41984800  0.76686400  1
  As  As2  1  0.23555000  0.41984800  0.26686400  1
  As  As3  1  0.73555000  0.58015200  0.23313600  1
  As  As4  1  0.70764000  0.98256000  0.95357300  1
  As  As5  1  0.20764000  0.01744000  0.54642700  1
  As  As6  1  0.29236000  0.01744000  0.04642700  1
  As  As7  1  0.79236000  0.98256000  0.45357300  1
  O  O0  1  0.69647300  0.14316800  0.03766400  1
  O  O1  1  0.19647300  0.85683200  0.46233600  1
  O  O2  1  0.30352700  0.85683200  0.96233600  1
  O  O3  1  0.80352700  0.14316800  0.53766400  1
  O  O4  1  0.59078400  0.65513000  0.72618400  1
  O  O5  1  0.09078400  0.34487000  0.77381600  1
  O  O6  1  0.40921600  0.34487000  0.27381600  1
  O  O7  1  0.90921600  0.65513000  0.22618400  1
  O  O8  1  0.86773100  0.56448700  0.88363900  1
  O  O9  1  0.36773100  0.43551300  0.61636100  1
  O  O10  1  0.13226900  0.43551300  0.11636100  1
  O  O11  1  0.63226900  0.56448700  0.38363900  1
  O  O12  1  0.85516000  0.75543300  0.57518800  1
  O  O13  1  0.35516000  0.24456700  0.92481200  1
  O  O14  1  0.14484000  0.24456700  0.42481200  1
  O  O15  1  0.64484000  0.75543300  0.07518800  1
  O  O16  1  0.90811200  0.01660400  0.30897000  1
  O  O17  1  0.40811200  0.98339600  0.19103000  1
  O  O18  1  0.09188800  0.98339600  0.69103000  1
  O  O19  1  0.59188800  0.01660400  0.80897000  1
  O  O20  1  0.73160900  0.37804800  0.19561800  1
  O  O21  1  0.23160900  0.62195200  0.30438200  1
  O  O22  1  0.26839100  0.62195200  0.80438200  1
  O  O23  1  0.76839100  0.37804800  0.69561800  1
  O  O24  1  0.61536200  0.98202000  0.40364000  1
  O  O25  1  0.11536200  0.01798000  0.09636000  1
  O  O26  1  0.38463800  0.01798000  0.59636000  1
  O  O27  1  0.88463800  0.98202000  0.90364000  1
loop_
_geom_bond_atom_site_label_1
_geom_bond_atom_site_label_2
_geom_bond_distance
_geom_bond_site_symmetry_2
Ca0 O18 2.368458 1_555
Ca0 O8 2.411372 1_455
Ca0 O2 2.421127 1_555
Ca0 O10 2.431802 1_556
Ca0 O27 2.433381 1_455
Ca0 O22 2.558131 1_555
Ca1 O19 2.368458 1_555
Ca1 O9 2.411372 1_555
Ca1 O3 2.421127 1_555
Ca1 O11 2.431802 1_555
Ca1 O26 2.433381 1_555
Ca1 O23 2.558131 1_555
Ca2 O16 2.368458 1_555
Ca2 O10 2.411372 1_655
Ca2 O0 2.421127 1_555
Ca2 O8 2.431802 1_554
Ca2 O25 2.433381 1_655
Ca2 O20 2.558131 1_555
Ca3 O17 2.368458 1_555
Ca3 O11 2.411372 1_555
Ca3 O1 2.421127 1_555
Ca3 O9 2.431802 1_555
Ca3 O24 2.433381 1_555
Ca3 O21 2.558131 1_555
Mn0 O5 2.085041 1_655
Mn0 O3 2.121942 1_555
Mn0 O18 2.129723 1_645
Mn0 O23 2.135483 1_555
Mn0 O27 2.188180 1_545
Mn1 O4 2.085041 1_555
Mn1 O2 2.121942 1_555
Mn1 O19 2.129723 1_565
Mn1 O22 2.135483 1_555
Mn1 O26 2.188180 1_565
Mn2 O7 2.085041 1_455
Mn2 O1 2.121942 1_555
Mn2 O16 2.129723 1_465
Mn2 O21 2.135483 1_555
Mn2 O25 2.188180 1_565
Mn3 O6 2.085041 1_555
Mn3 O0 2.121942 1_555
Mn3 O17 2.129723 1_545
Mn3 O20 2.135483 1_555
Mn3 O24 2.188180 1_545
As0 O4 1.695075 1_555
As0 O8 1.702464 1_555
As0 O23 1.705180 1_555
As0 O12 1.815805 1_555
As1 O5 1.695075 1_555
As1 O9 1.702464 1_555
As1 O22 1.705180 1_555
As1 O13 1.815805 1_555
As2 O6 1.695075 1_555
As2 O10 1.702464 1_555
As2 O21 1.705180 1_555
As2 O14 1.815805 1_555
As3 O7 1.695075 1_555
As3 O11 1.702464 1_555
As3 O20 1.705180 1_555
As3 O15 1.815805 1_555
As4 O19 1.698147 1_565
As4 O0 1.700523 1_566
As4 O27 1.704115 1_555
As4 O15 1.789020 1_556
As5 O18 1.698147 1_545
As5 O1 1.700523 1_545
As5 O26 1.704115 1_555
As5 O14 1.789020 1_555
As6 O17 1.698147 1_545
As6 O2 1.700523 1_544
As6 O25 1.704115 1_555
As6 O13 1.789020 1_554
As7 O16 1.698147 1_565
As7 O3 1.700523 1_565
As7 O24 1.704115 1_555
As7 O12 1.789020 1_555
