# generated using pymatgen
data_Yb4Y
_symmetry_space_group_name_H-M   'P 1'
_cell_length_a   31.50638657
_cell_length_b   31.50638657
_cell_length_c   31.50638692
_cell_angle_alpha   13.67887682
_cell_angle_beta   13.67887682
_cell_angle_gamma   13.67887480
_symmetry_Int_Tables_number   1
_chemical_formula_structural   Yb4Y
_chemical_formula_sum   'Yb32 Y8'
_cell_volume   1521.85346440
_cell_formula_units_Z   8
loop_
 _symmetry_equiv_pos_site_id
 _symmetry_equiv_pos_as_xyz
  1  'x, y, z'
loop_
 _atom_site_type_symbol
 _atom_site_label
 _atom_site_symmetry_multiplicity
 _atom_site_fract_x
 _atom_site_fract_y
 _atom_site_fract_z
 _atom_site_occupancy
  Yb  Yb0_0  1  0.30129150  0.30129150  0.30129150  1
  Yb  Yb0_1  1  0.30129150  0.30129150  0.80129150  1
  Yb  Yb0_2  1  0.30129150  0.80129150  0.30129150  1
  Yb  Yb0_3  1  0.30129150  0.80129150  0.80129150  1
  Yb  Yb0_4  1  0.80129150  0.30129150  0.30129150  1
  Yb  Yb0_5  1  0.80129150  0.30129150  0.80129150  1
  Yb  Yb0_6  1  0.80129150  0.80129150  0.30129150  1
  Yb  Yb0_7  1  0.80129150  0.80129150  0.80129150  1
  Yb  Yb1_0  1  0.10024800  0.10024800  0.10024800  1
  Yb  Yb1_1  1  0.10024800  0.10024800  0.60024800  1
  Yb  Yb1_2  1  0.10024800  0.60024800  0.10024800  1
  Yb  Yb1_3  1  0.10024800  0.60024800  0.60024800  1
  Yb  Yb1_4  1  0.60024800  0.10024800  0.10024800  1
  Yb  Yb1_5  1  0.60024800  0.10024800  0.60024800  1
  Yb  Yb1_6  1  0.60024800  0.60024800  0.10024800  1
  Yb  Yb1_7  1  0.60024800  0.60024800  0.60024800  1
  Yb  Yb2_0  1  0.39975200  0.39975200  0.39975200  1
  Yb  Yb2_1  1  0.39975200  0.39975200  0.89975200  1
  Yb  Yb2_2  1  0.39975200  0.89975200  0.39975200  1
  Yb  Yb2_3  1  0.39975200  0.89975200  0.89975200  1
  Yb  Yb2_4  1  0.89975200  0.39975200  0.39975200  1
  Yb  Yb2_5  1  0.89975200  0.39975200  0.89975200  1
  Yb  Yb2_6  1  0.89975200  0.89975200  0.39975200  1
  Yb  Yb2_7  1  0.89975200  0.89975200  0.89975200  1
  Yb  Yb3_0  1  0.19870850  0.19870850  0.19870850  1
  Yb  Yb3_1  1  0.19870850  0.19870850  0.69870850  1
  Yb  Yb3_2  1  0.19870850  0.69870850  0.19870850  1
  Yb  Yb3_3  1  0.19870850  0.69870850  0.69870850  1
  Yb  Yb3_4  1  0.69870850  0.19870850  0.19870850  1
  Yb  Yb3_5  1  0.69870850  0.19870850  0.69870850  1
  Yb  Yb3_6  1  0.69870850  0.69870850  0.19870850  1
  Yb  Yb3_7  1  0.69870850  0.69870850  0.69870850  1
  Y  Y0_0  1  0.00000000  0.00000000  0.00000000  1
  Y  Y0_1  1  0.00000000  0.00000000  0.50000000  1
  Y  Y0_2  1  0.00000000  0.50000000  0.00000000  1
  Y  Y0_3  1  0.00000000  0.50000000  0.50000000  1
  Y  Y0_4  1  0.50000000  0.00000000  0.00000000  1
  Y  Y0_5  1  0.50000000  0.00000000  0.50000000  1
  Y  Y0_6  1  0.50000000  0.50000000  0.00000000  1
  Y  Y0_7  1  0.50000000  0.50000000  0.50000000  1
loop_
_geom_bond_atom_site_label_1
_geom_bond_atom_site_label_2
_geom_bond_distance
_geom_bond_site_symmetry_2
Yb0_0 Yb0_6 3.752014 1_455
Yb0_0 Yb0_6 3.752014 1_545
Yb0_0 Yb0_5 3.752015 1_455
Yb0_0 Yb0_5 3.752015 1_554
Yb0_0 Yb0_3 3.752015 1_545
Yb0_0 Yb0_3 3.752015 1_554
Yb0_0 Yb1_2 3.879517 1_555
Yb0_0 Yb1_4 3.879517 1_555
Yb0_0 Yb1_1 3.879517 1_555
Yb0_1 Yb0_7 3.752014 1_455
Yb0_1 Yb0_7 3.752014 1_545
Yb0_1 Yb0_4 3.752015 1_555
Yb0_1 Yb0_2 3.752015 1_555
Yb0_1 Yb0_4 3.752015 1_456
Yb0_1 Yb0_2 3.752015 1_546
Yb0_1 Yb1_3 3.879517 1_555
Yb0_1 Yb1_5 3.879517 1_555
Yb0_1 Yb1_0 3.879517 1_556
Yb0_2 Yb0_4 3.752014 1_555
Yb0_2 Yb0_4 3.752014 1_465
Yb0_2 Yb0_7 3.752015 1_554
Yb0_2 Yb0_7 3.752015 1_455
Yb0_2 Yb1_0 3.879517 1_565
Yb0_2 Yb1_6 3.879517 1_555
Yb0_2 Yb1_3 3.879517 1_555
Yb0_3 Yb0_5 3.752014 1_555
Yb0_3 Yb0_5 3.752014 1_465
Yb0_3 Yb0_6 3.752015 1_555
Yb0_3 Yb0_6 3.752015 1_456
Yb0_3 Yb1_1 3.879517 1_565
Yb0_3 Yb1_7 3.879517 1_555
Yb0_3 Yb1_2 3.879517 1_556
Yb0_4 Yb0_7 3.752015 1_554
Yb0_4 Yb0_7 3.752015 1_545
Yb0_4 Yb1_0 3.879517 1_655
Yb0_4 Yb1_6 3.879517 1_555
Yb0_4 Yb1_5 3.879517 1_555
Yb0_5 Yb0_6 3.752015 1_555
Yb0_5 Yb0_6 3.752015 1_546
Yb0_5 Yb1_1 3.879517 1_655
Yb0_5 Yb1_7 3.879517 1_555
Yb0_5 Yb1_4 3.879517 1_556
Yb0_6 Yb1_2 3.879517 1_655
Yb0_6 Yb1_4 3.879517 1_565
Yb0_6 Yb1_7 3.879517 1_555
Yb0_7 Yb1_3 3.879517 1_655
Yb0_7 Yb1_5 3.879517 1_565
Yb0_7 Yb1_6 3.879517 1_556
Yb1_0 Yb1_6 3.752014 1_455
Yb1_0 Yb1_6 3.752014 1_545
Yb1_0 Yb1_5 3.752015 1_554
Yb1_0 Yb1_3 3.752015 1_554
Yb1_0 Yb1_5 3.752015 1_455
Yb1_0 Yb1_3 3.752015 1_545
Yb1_0 Yb2_5 3.837101 1_454
Yb1_0 Yb2_3 3.837101 1_544
Yb1_0 Yb2_6 3.837101 1_445
Yb1_1 Yb1_7 3.752014 1_455
Yb1_1 Yb1_7 3.752014 1_545
Yb1_1 Yb1_4 3.752015 1_555
Yb1_1 Yb1_2 3.752015 1_555
Yb1_1 Yb1_2 3.752015 1_546
Yb1_1 Yb1_4 3.752015 1_456
Yb1_1 Yb2_4 3.837101 1_455
Yb1_1 Yb2_2 3.837101 1_545
Yb1_1 Yb2_7 3.837101 1_445
Yb1_2 Yb1_4 3.752014 1_555
Yb1_2 Yb1_4 3.752014 1_465
Yb1_2 Yb1_7 3.752015 1_455
Yb1_2 Yb1_7 3.752015 1_554
Yb1_2 Yb2_7 3.837101 1_454
Yb1_2 Yb2_1 3.837101 1_554
Yb1_2 Yb2_4 3.837101 1_455
Yb1_3 Yb1_5 3.752014 1_555
Yb1_3 Yb1_5 3.752014 1_465
Yb1_3 Yb1_6 3.752015 1_555
Yb1_3 Yb1_6 3.752015 1_456
Yb1_3 Yb2_0 3.837101 1_555
Yb1_3 Yb2_6 3.837101 1_455
Yb1_3 Yb2_5 3.837101 1_455
Yb1_4 Yb1_7 3.752015 1_554
Yb1_4 Yb1_7 3.752015 1_545
Yb1_4 Yb2_1 3.837101 1_554
Yb1_4 Yb2_7 3.837101 1_544
Yb1_4 Yb2_2 3.837101 1_545
Yb1_5 Yb1_6 3.752015 1_555
Yb1_5 Yb1_6 3.752015 1_546
Yb1_5 Yb2_0 3.837101 1_555
Yb1_5 Yb2_6 3.837101 1_545
Yb1_5 Yb2_3 3.837101 1_545
Yb1_6 Yb2_3 3.837101 1_554
Yb1_6 Yb2_5 3.837101 1_554
Yb1_6 Yb2_0 3.837101 1_555
Yb1_7 Yb2_2 3.837101 1_555
Yb1_7 Yb2_4 3.837101 1_555
Yb1_7 Yb2_1 3.837101 1_555
Yb2_0 Yb2_6 3.752014 1_545
Yb2_0 Yb2_6 3.752014 1_455
Yb2_0 Yb2_5 3.752015 1_455
Yb2_0 Yb2_3 3.752015 1_545
Yb2_0 Yb2_3 3.752015 1_554
Yb2_0 Yb2_5 3.752015 1_554
Yb2_0 Yb3_2 3.879517 1_555
Yb2_0 Yb3_4 3.879517 1_555
Yb2_0 Yb3_1 3.879517 1_555
Yb2_1 Yb2_7 3.752014 1_455
Yb2_1 Yb2_7 3.752014 1_545
Yb2_1 Yb2_4 3.752015 1_456
Yb2_1 Yb2_2 3.752015 1_546
Yb2_1 Yb2_2 3.752015 1_555
Yb2_1 Yb2_4 3.752015 1_555
Yb2_1 Yb3_3 3.879517 1_555
Yb2_1 Yb3_5 3.879517 1_555
Yb2_1 Yb3_0 3.879517 1_556
Yb2_2 Yb2_4 3.752014 1_555
Yb2_2 Yb2_4 3.752014 1_465
Yb2_2 Yb2_7 3.752015 1_455
Yb2_2 Yb2_7 3.752015 1_554
Yb2_2 Yb3_6 3.879517 1_555
Yb2_2 Yb3_0 3.879517 1_565
Yb2_2 Yb3_3 3.879517 1_555
Yb2_3 Yb2_5 3.752014 1_465
Yb2_3 Yb2_5 3.752014 1_555
Yb2_3 Yb2_6 3.752015 1_555
Yb2_3 Yb2_6 3.752015 1_456
Yb2_3 Yb3_1 3.879517 1_565
Yb2_3 Yb3_7 3.879517 1_555
Yb2_3 Yb3_2 3.879517 1_556
Yb2_4 Yb2_7 3.752015 1_554
Yb2_4 Yb2_7 3.752015 1_545
Yb2_4 Yb3_6 3.879517 1_555
Yb2_4 Yb3_0 3.879517 1_655
Yb2_4 Yb3_5 3.879517 1_555
Yb2_5 Yb2_6 3.752015 1_546
Yb2_5 Yb2_6 3.752015 1_555
Yb2_5 Yb3_1 3.879517 1_655
Yb2_5 Yb3_7 3.879517 1_555
Yb2_5 Yb3_4 3.879517 1_556
Yb2_6 Yb3_2 3.879517 1_655
Yb2_6 Yb3_4 3.879517 1_565
Yb2_6 Yb3_7 3.879517 1_555
Yb2_7 Yb3_3 3.879517 1_655
Yb2_7 Yb3_5 3.879517 1_565
Yb2_7 Yb3_6 3.879517 1_556
Yb3_0 Yb3_6 3.752014 1_455
Yb3_0 Yb3_6 3.752014 1_545
Yb3_0 Yb3_3 3.752015 1_545
Yb3_0 Yb3_5 3.752015 1_455
Yb3_0 Yb3_3 3.752015 1_554
Yb3_0 Yb3_5 3.752015 1_554
Yb3_1 Yb3_7 3.752014 1_455
Yb3_1 Yb3_7 3.752014 1_545
Yb3_1 Yb3_4 3.752015 1_555
Yb3_1 Yb3_2 3.752015 1_555
Yb3_1 Yb3_2 3.752015 1_546
Yb3_1 Yb3_4 3.752015 1_456
Yb3_2 Yb3_4 3.752014 1_555
Yb3_2 Yb3_4 3.752014 1_465
Yb3_2 Yb3_7 3.752015 1_455
Yb3_2 Yb3_7 3.752015 1_554
Yb3_3 Yb3_5 3.752014 1_555
Yb3_3 Yb3_5 3.752014 1_465
Yb3_3 Yb3_6 3.752015 1_555
Yb3_3 Yb3_6 3.752015 1_456
Yb3_4 Yb3_7 3.752015 1_545
Yb3_4 Yb3_7 3.752015 1_554
Yb3_5 Yb3_6 3.752015 1_555
Yb3_5 Yb3_6 3.752015 1_546
Y0_0 Yb0_3 3.700178 1_544
Y0_0 Yb3_4 3.700178 1_455
Y0_0 Yb0_5 3.700178 1_454
Y0_0 Yb3_2 3.700178 1_545
Y0_0 Yb0_6 3.700178 1_445
Y0_0 Yb3_1 3.700178 1_554
Y0_0 Y0_6 3.752014 1_455
Y0_0 Y0_6 3.752014 1_545
Y0_0 Y0_5 3.752015 1_554
Y0_0 Y0_3 3.752015 1_545
Y0_0 Y0_5 3.752015 1_455
Y0_0 Y0_3 3.752015 1_554
Y0_1 Yb0_2 3.700178 1_545
Y0_1 Yb3_5 3.700178 1_455
Y0_1 Yb0_4 3.700178 1_455
Y0_1 Yb3_3 3.700178 1_545
Y0_1 Yb3_0 3.700178 1_555
Y0_1 Yb0_7 3.700178 1_445
Y0_1 Y0_7 3.752014 1_455
Y0_1 Y0_7 3.752014 1_545
Y0_1 Y0_2 3.752015 1_555
Y0_1 Y0_2 3.752015 1_546
Y0_1 Y0_4 3.752015 1_555
Y0_1 Y0_4 3.752015 1_456
Y0_2 Yb3_0 3.700178 1_555
Y0_2 Yb3_6 3.700178 1_455
Y0_2 Yb0_1 3.700178 1_554
Y0_2 Yb0_7 3.700178 1_454
Y0_2 Yb0_4 3.700178 1_455
Y0_2 Yb3_3 3.700178 1_554
Y0_2 Y0_4 3.752014 1_555
Y0_2 Y0_4 3.752014 1_465
Y0_2 Y0_7 3.752015 1_455
Y0_2 Y0_7 3.752015 1_554
Y0_3 Yb3_7 3.700178 1_455
Y0_3 Yb3_1 3.700178 1_555
Y0_3 Yb0_6 3.700178 1_455
Y0_3 Yb0_0 3.700178 1_555
Y0_3 Yb3_2 3.700178 1_555
Y0_3 Yb0_5 3.700178 1_455
Y0_3 Y0_5 3.752014 1_555
Y0_3 Y0_5 3.752014 1_465
Y0_3 Y0_6 3.752015 1_555
Y0_3 Y0_6 3.752015 1_456
Y0_4 Yb3_0 3.700178 1_555
Y0_4 Yb3_6 3.700178 1_545
Y0_4 Yb0_1 3.700178 1_554
Y0_4 Yb0_7 3.700178 1_544
Y0_4 Yb0_2 3.700178 1_545
Y0_4 Yb3_5 3.700178 1_554
Y0_4 Y0_7 3.752015 1_554
Y0_4 Y0_7 3.752015 1_545
Y0_5 Yb0_6 3.700178 1_545
Y0_5 Yb0_0 3.700178 1_555
Y0_5 Yb3_7 3.700178 1_545
Y0_5 Yb3_1 3.700178 1_555
Y0_5 Yb0_3 3.700178 1_545
Y0_5 Yb3_4 3.700178 1_555
Y0_5 Y0_6 3.752015 1_555
Y0_5 Y0_6 3.752015 1_546
Y0_6 Yb0_3 3.700178 1_554
Y0_6 Yb3_4 3.700178 1_555
Y0_6 Yb3_2 3.700178 1_555
Y0_6 Yb0_5 3.700178 1_554
Y0_6 Yb3_7 3.700178 1_554
Y0_6 Yb0_0 3.700178 1_555
Y0_7 Yb0_2 3.700178 1_555
Y0_7 Yb0_4 3.700178 1_555
Y0_7 Yb3_5 3.700178 1_555
Y0_7 Yb3_3 3.700178 1_555
Y0_7 Yb3_6 3.700178 1_555
Y0_7 Yb0_1 3.700178 1_555
