# generated using pymatgen
data_ZrTaCr4
_symmetry_space_group_name_H-M   'P 1'
_cell_length_a   4.95197699
_cell_length_b   4.95200182
_cell_length_c   4.95200182
_cell_angle_alpha   60.00000000
_cell_angle_beta   59.99983401
_cell_angle_gamma   59.99983401
_symmetry_Int_Tables_number   1
_chemical_formula_structural   ZrTaCr4
_chemical_formula_sum   'Zr1 Ta1 Cr4'
_cell_volume   85.86657147
_cell_formula_units_Z   1
loop_
 _symmetry_equiv_pos_site_id
 _symmetry_equiv_pos_as_xyz
  1  'x, y, z'
loop_
 _atom_site_type_symbol
 _atom_site_label
 _atom_site_symmetry_multiplicity
 _atom_site_fract_x
 _atom_site_fract_y
 _atom_site_fract_z
 _atom_site_occupancy
  Zr  Zr0  1  0.00000409  0.99999864  0.99999864  1
  Ta  Ta0  1  0.24999653  0.25000149  0.25000149  1
  Cr  Cr0  1  0.62472871  0.62472850  0.12581329  1
  Cr  Cr1  1  0.62472871  0.12581329  0.62472850  1
  Cr  Cr2  1  0.12581323  0.62472859  0.62472859  1
  Cr  Cr3  1  0.62472871  0.62472850  0.62472850  1
loop_
_geom_bond_atom_site_label_1
_geom_bond_atom_site_label_2
_geom_bond_distance
_geom_bond_site_symmetry_2
Ta0 Zr0 3.032455 1_545
Ta0 Zr0 3.032455 1_554
Ta0 Zr0 3.032459 1_544
Ta0 Zr0 3.032477 1_644
Cr0 Cr2 2.470618 1_555
Cr0 Cr3 2.470629 1_555
Cr0 Cr1 2.470629 1_555
Cr0 Cr2 2.481359 1_654
Cr0 Cr1 2.481373 1_564
Cr0 Cr3 2.481373 1_554
Cr0 Ta0 2.902771 1_655
Cr0 Ta0 2.902795 1_555
Cr0 Ta0 2.902803 1_565
Cr0 Zr0 2.903911 1_554
Cr0 Zr0 2.903944 1_644
Cr0 Zr0 2.903948 1_654
Cr1 Cr2 2.470618 1_555
Cr1 Cr3 2.470629 1_555
Cr1 Cr2 2.481359 1_645
Cr1 Cr3 2.481373 1_545
Cr1 Ta0 2.902771 1_655
Cr1 Ta0 2.902795 1_555
Cr1 Ta0 2.902803 1_556
Cr1 Zr0 2.903911 1_545
Cr1 Zr0 2.903944 1_644
Cr1 Zr0 2.903948 1_645
Cr2 Cr3 2.470618 1_555
Cr2 Cr3 2.481359 1_455
Cr2 Ta0 2.902789 1_555
Cr2 Ta0 2.902798 1_556
Cr2 Ta0 2.902798 1_565
Cr2 Zr0 2.903938 1_545
Cr2 Zr0 2.903938 1_554
Cr2 Zr0 2.903942 1_555
Cr3 Ta0 2.902766 1_655
Cr3 Ta0 2.902799 1_556
Cr3 Ta0 2.902799 1_565
Cr3 Zr0 2.903913 1_555
Cr3 Zr0 2.903946 1_654
Cr3 Zr0 2.903946 1_645
