# generated using pymatgen
data_Ge22Rh17
_symmetry_space_group_name_H-M   'P 1'
_cell_length_a   5.62930905
_cell_length_b   5.62930905
_cell_length_c   39.56335106
_cell_angle_alpha   94.07963793
_cell_angle_beta   94.07963793
_cell_angle_gamma   90.00000000
_symmetry_Int_Tables_number   1
_chemical_formula_structural   Ge22Rh17
_chemical_formula_sum   'Ge44 Rh34'
_cell_volume   1247.36613503
_cell_formula_units_Z   2
loop_
 _symmetry_equiv_pos_site_id
 _symmetry_equiv_pos_as_xyz
  1  'x, y, z'
loop_
 _atom_site_type_symbol
 _atom_site_label
 _atom_site_symmetry_multiplicity
 _atom_site_fract_x
 _atom_site_fract_y
 _atom_site_fract_z
 _atom_site_occupancy
  Ge  Ge0  1  0.06107857  0.41955384  0.52570745  1
  Ge  Ge1  1  0.18892143  0.64384639  0.97429255  1
  Ge  Ge2  1  0.46462887  0.10615361  0.52570745  1
  Ge  Ge3  1  0.78537113  0.33044616  0.97429255  1
  Ge  Ge4  1  0.58044616  0.53537113  0.47429255  1
  Ge  Ge5  1  0.66955384  0.81107857  0.02570745  1
  Ge  Ge6  1  0.89384639  0.93892143  0.47429255  1
  Ge  Ge7  1  0.35615361  0.21462887  0.02570745  1
  Ge  Ge8  1  0.07240310  0.93511266  0.56432025  1
  Ge  Ge9  1  0.17759690  0.12079241  0.93567975  1
  Ge  Ge10  1  0.49191716  0.62920759  0.56432025  1
  Ge  Ge11  1  0.75808284  0.81488734  0.93567975  1
  Ge  Ge12  1  0.06488734  0.50808284  0.43567975  1
  Ge  Ge13  1  0.18511266  0.82240310  0.06432025  1
  Ge  Ge14  1  0.37079241  0.92759690  0.43567975  1
  Ge  Ge15  1  0.87920759  0.24191716  0.06432025  1
  Ge  Ge16  1  0.97068570  0.50029238  0.61546486  1
  Ge  Ge17  1  0.27931430  0.63482753  0.88453514  1
  Ge  Ge18  1  0.64477916  0.11517247  0.61546486  1
  Ge  Ge19  1  0.60522084  0.24970762  0.88453514  1
  Ge  Ge20  1  0.49970762  0.35522084  0.38453514  1
  Ge  Ge21  1  0.75029238  0.72068570  0.11546486  1
  Ge  Ge22  1  0.88482753  0.02931430  0.38453514  1
  Ge  Ge23  1  0.36517247  0.39477916  0.11546486  1
  Ge  Ge24  1  0.17855272  0.10299548  0.65604934  1
  Ge  Ge25  1  0.07144728  0.19694613  0.84395066  1
  Ge  Ge26  1  0.47749662  0.55305387  0.65604934  1
  Ge  Ge27  1  0.77250338  0.64700452  0.84395066  1
  Ge  Ge28  1  0.89700452  0.52250338  0.34395066  1
  Ge  Ge29  1  0.35299548  0.92855272  0.15604934  1
  Ge  Ge30  1  0.44694613  0.82144728  0.34395066  1
  Ge  Ge31  1  0.80305387  0.22749662  0.15604934  1
  Ge  Ge32  1  0.03457923  0.68034886  0.70514267  1
  Ge  Ge33  1  0.21542077  0.72520618  0.79485733  1
  Ge  Ge34  1  0.67056345  0.02479382  0.70514267  1
  Ge  Ge35  1  0.57943655  0.06965114  0.79485733  1
  Ge  Ge36  1  0.31965114  0.32943655  0.29485733  1
  Ge  Ge37  1  0.93034886  0.78457923  0.20514267  1
  Ge  Ge38  1  0.97520618  0.96542077  0.29485733  1
  Ge  Ge39  1  0.27479382  0.42056345  0.20514267  1
  Ge  Ge40  1  0.12500000  0.22655353  0.75000000  1
  Ge  Ge41  1  0.62500000  0.52344647  0.75000000  1
  Ge  Ge42  1  0.77344647  0.37500000  0.25000000  1
  Ge  Ge43  1  0.47655353  0.87500000  0.25000000  1
  Rh  Rh0  1  0.30735847  0.80735847  0.61471696  1
  Rh  Rh1  1  0.94264153  0.94264153  0.88528304  1
  Rh  Rh2  1  0.19264153  0.69264153  0.38528304  1
  Rh  Rh3  1  0.05735847  0.05735847  0.11471696  1
  Rh  Rh4  1  0.36998032  0.86998032  0.73996064  1
  Rh  Rh5  1  0.88001968  0.88001968  0.76003936  1
  Rh  Rh6  1  0.13001968  0.63001968  0.26003936  1
  Rh  Rh7  1  0.11998032  0.11998032  0.23996064  1
  Rh  Rh8  1  0.42404312  0.92404312  0.84808623  1
  Rh  Rh9  1  0.82595688  0.82595688  0.65191377  1
  Rh  Rh10  1  0.07595688  0.57595688  0.15191377  1
  Rh  Rh11  1  0.17404312  0.17404312  0.34808623  1
  Rh  Rh12  1  0.48731234  0.98731234  0.97462467  1
  Rh  Rh13  1  0.76268766  0.76268766  0.52537533  1
  Rh  Rh14  1  0.01268766  0.51268766  0.02537533  1
  Rh  Rh15  1  0.23731234  0.23731234  0.47462467  1
  Rh  Rh16  1  0.54321741  0.04321741  0.08643483  1
  Rh  Rh17  1  0.70678259  0.70678259  0.41356517  1
  Rh  Rh18  1  0.95678259  0.45678259  0.91356517  1
  Rh  Rh19  1  0.29321741  0.29321741  0.58643483  1
  Rh  Rh20  1  0.60241901  0.10241901  0.20483800  1
  Rh  Rh21  1  0.64758099  0.64758099  0.29516200  1
  Rh  Rh22  1  0.89758099  0.39758099  0.79516200  1
  Rh  Rh23  1  0.35241901  0.35241901  0.70483800  1
  Rh  Rh24  1  0.66361413  0.16361413  0.32722826  1
  Rh  Rh25  1  0.58638587  0.58638587  0.17277174  1
  Rh  Rh26  1  0.83638587  0.33638587  0.67277174  1
  Rh  Rh27  1  0.41361413  0.41361413  0.82722826  1
  Rh  Rh28  1  0.71829313  0.21829313  0.43658626  1
  Rh  Rh29  1  0.53170687  0.53170687  0.06341374  1
  Rh  Rh30  1  0.78170687  0.28170687  0.56341374  1
  Rh  Rh31  1  0.46829313  0.46829313  0.93658626  1
  Rh  Rh32  1  0.25000000  0.75000000  0.50000000  1
  Rh  Rh33  1  0.00000000  -0.00000000  -0.00000000  1
loop_
_geom_bond_atom_site_label_1
_geom_bond_atom_site_label_2
_geom_bond_distance
_geom_bond_site_symmetry_2
Ge0 Rh30 2.408193 1_455
Ge0 Rh32 2.459440 1_555
Ge0 Rh15 2.472126 1_555
Ge0 Rh13 2.559933 1_455
Ge0 Rh19 2.789667 1_555
Ge1 Rh31 2.408193 1_555
Ge1 Rh33 2.459440 1_566
Ge1 Rh14 2.472127 1_556
Ge1 Rh12 2.559933 1_555
Ge1 Rh18 2.789667 1_455
Ge2 Rh30 2.408193 1_555
Ge2 Rh32 2.459440 1_545
Ge2 Rh15 2.472126 1_555
Ge2 Rh13 2.559933 1_545
Ge2 Rh19 2.789667 1_555
Ge3 Rh31 2.408193 1_555
Ge3 Rh33 2.459440 1_656
Ge3 Rh14 2.472126 1_656
Ge3 Rh12 2.559933 1_545
Ge3 Rh18 2.789667 1_555
Ge4 Rh28 2.408193 1_555
Ge4 Rh32 2.459440 1_555
Ge4 Rh13 2.472126 1_555
Ge4 Rh15 2.559933 1_555
Ge4 Rh17 2.789667 1_555
Ge5 Rh29 2.408193 1_555
Ge5 Rh33 2.459440 1_665
Ge5 Rh12 2.472126 1_554
Ge5 Rh14 2.559933 1_655
Ge5 Rh16 2.789667 1_565
Ge6 Rh28 2.408193 1_565
Ge6 Rh32 2.459440 1_655
Ge6 Rh13 2.472127 1_555
Ge6 Rh15 2.559933 1_665
Ge6 Rh17 2.789667 1_555
Ge7 Rh29 2.408193 1_555
Ge7 Rh33 2.459440 1_555
Ge7 Rh12 2.472126 1_544
Ge7 Rh14 2.559933 1_555
Ge7 Rh16 2.789667 1_555
Ge8 Rh13 2.400183 1_455
Ge8 Rh19 2.443093 1_565
Ge8 Rh0 2.463910 1_555
Ge8 Rh30 2.547056 1_465
Ge9 Rh12 2.400183 1_545
Ge9 Rh18 2.443093 1_455
Ge9 Rh1 2.463910 1_445
Ge9 Rh31 2.547056 1_555
Ge10 Rh13 2.400183 1_555
Ge10 Rh19 2.443094 1_555
Ge10 Rh0 2.463910 1_555
Ge10 Rh30 2.547056 1_555
Ge11 Rh12 2.400183 1_555
Ge11 Rh18 2.443093 1_555
Ge11 Rh1 2.463911 1_555
Ge11 Rh31 2.547056 1_555
Ge12 Rh15 2.400183 1_555
Ge12 Rh17 2.443093 1_455
Ge12 Rh2 2.463911 1_555
Ge12 Rh28 2.547056 1_455
Ge13 Rh14 2.400183 1_555
Ge13 Rh16 2.443093 1_565
Ge13 Rh3 2.463910 1_565
Ge13 Rh29 2.547056 1_555
Ge14 Rh15 2.400183 1_565
Ge14 Rh17 2.443093 1_555
Ge14 Rh2 2.463910 1_555
Ge14 Rh28 2.547056 1_565
Ge15 Rh14 2.400183 1_655
Ge15 Rh16 2.443094 1_555
Ge15 Rh3 2.463910 1_655
Ge15 Rh29 2.547056 1_555
Ge16 Rh9 2.427990 1_555
Ge16 Rh19 2.465901 1_655
Ge16 Rh30 2.492857 1_555
Ge16 Rh0 2.568268 1_655
Ge16 Rh26 2.665497 1_555
Ge17 Rh8 2.427990 1_555
Ge17 Rh18 2.465901 1_455
Ge17 Rh31 2.492857 1_555
Ge17 Rh1 2.568268 1_455
Ge17 Rh27 2.665497 1_555
Ge18 Rh9 2.427990 1_545
Ge18 Rh19 2.465901 1_555
Ge18 Rh30 2.492857 1_555
Ge18 Rh0 2.568268 1_545
Ge18 Rh26 2.665497 1_555
Ge19 Rh8 2.427990 1_545
Ge19 Rh18 2.465901 1_555
Ge19 Rh31 2.492857 1_555
Ge19 Rh1 2.568268 1_545
Ge19 Rh27 2.665497 1_555
Ge20 Rh11 2.427990 1_555
Ge20 Rh17 2.465901 1_555
Ge20 Rh28 2.492857 1_555
Ge20 Rh2 2.568268 1_555
Ge20 Rh24 2.665497 1_555
Ge21 Rh10 2.427990 1_655
Ge21 Rh16 2.465901 1_565
Ge21 Rh29 2.492857 1_555
Ge21 Rh3 2.568268 1_665
Ge21 Rh25 2.665497 1_555
Ge22 Rh11 2.427990 1_655
Ge22 Rh17 2.465901 1_545
Ge22 Rh28 2.492857 1_555
Ge22 Rh2 2.568268 1_645
Ge22 Rh24 2.665497 1_555
Ge23 Rh10 2.427990 1_555
Ge23 Rh16 2.465901 1_555
Ge23 Rh29 2.492857 1_555
Ge23 Rh3 2.568268 1_555
Ge23 Rh25 2.665497 1_555
Ge24 Rh0 2.398112 1_545
Ge24 Rh26 2.435486 1_455
Ge24 Rh23 2.449652 1_555
Ge24 Rh9 2.513189 1_445
Ge25 Rh1 2.398112 1_445
Ge25 Rh27 2.435486 1_555
Ge25 Rh22 2.449652 1_455
Ge25 Rh8 2.513189 1_545
Ge26 Rh0 2.398112 1_555
Ge26 Rh26 2.435486 1_555
Ge26 Rh23 2.449652 1_555
Ge26 Rh9 2.513189 1_555
Ge27 Rh1 2.398112 1_555
Ge27 Rh27 2.435486 1_555
Ge27 Rh22 2.449652 1_555
Ge27 Rh8 2.513189 1_555
Ge28 Rh2 2.398112 1_655
Ge28 Rh24 2.435486 1_555
Ge28 Rh21 2.449652 1_555
Ge28 Rh11 2.513189 1_655
Ge29 Rh3 2.398112 1_565
Ge29 Rh25 2.435486 1_555
Ge29 Rh20 2.449652 1_565
Ge29 Rh10 2.513189 1_555
Ge30 Rh2 2.398112 1_555
Ge30 Rh24 2.435486 1_565
Ge30 Rh21 2.449652 1_555
Ge30 Rh11 2.513189 1_565
Ge31 Rh3 2.398112 1_655
Ge31 Rh25 2.435486 1_555
Ge31 Rh20 2.449652 1_555
Ge31 Rh10 2.513189 1_655
Ge32 Rh4 2.454105 1_555
Ge32 Rh26 2.465355 1_455
Ge32 Rh9 2.525799 1_455
Ge32 Rh23 2.570824 1_555
Ge32 Rh5 2.580517 1_455
Ge33 Rh5 2.454105 1_455
Ge33 Rh27 2.465355 1_555
Ge33 Rh8 2.525799 1_555
Ge33 Rh22 2.570824 1_455
Ge33 Rh4 2.580517 1_555
Ge34 Rh4 2.454105 1_545
Ge34 Rh26 2.465355 1_555
Ge34 Rh9 2.525799 1_545
Ge34 Rh23 2.570824 1_555
Ge34 Rh5 2.580517 1_545
Ge35 Rh5 2.454105 1_545
Ge35 Rh27 2.465355 1_555
Ge35 Rh8 2.525799 1_545
Ge35 Rh22 2.570824 1_555
Ge35 Rh4 2.580517 1_545
Ge36 Rh6 2.454105 1_555
Ge36 Rh24 2.465355 1_555
Ge36 Rh11 2.525799 1_555
Ge36 Rh21 2.570824 1_555
Ge36 Rh7 2.580517 1_555
Ge37 Rh7 2.454105 1_665
Ge37 Rh25 2.465355 1_555
Ge37 Rh10 2.525799 1_655
Ge37 Rh20 2.570824 1_565
Ge37 Rh6 2.580517 1_655
Ge38 Rh6 2.454105 1_655
Ge38 Rh24 2.465355 1_565
Ge38 Rh11 2.525799 1_665
Ge38 Rh21 2.570824 1_555
Ge38 Rh7 2.580517 1_665
Ge39 Rh7 2.454105 1_555
Ge39 Rh25 2.465355 1_555
Ge39 Rh10 2.525799 1_555
Ge39 Rh20 2.570824 1_555
Ge39 Rh6 2.580517 1_555
Ge40 Rh22 2.416418 1_455
Ge40 Rh23 2.416418 1_555
Ge40 Rh5 2.460323 1_445
Ge40 Rh4 2.460323 1_545
Ge41 Rh23 2.416418 1_555
Ge41 Rh22 2.416418 1_555
Ge41 Rh4 2.460323 1_555
Ge41 Rh5 2.460323 1_555
Ge42 Rh20 2.416418 1_555
Ge42 Rh21 2.416418 1_555
Ge42 Rh7 2.460323 1_655
Ge42 Rh6 2.460323 1_655
Ge43 Rh21 2.416418 1_555
Ge43 Rh20 2.416418 1_565
Ge43 Rh6 2.460323 1_555
Ge43 Rh7 2.460323 1_565
