# generated using pymatgen
data_Na3Np6FeF30
_symmetry_space_group_name_H-M   'P 1'
_cell_length_a   9.93053097
_cell_length_b   9.93053097
_cell_length_c   12.96721483
_cell_angle_alpha   90.00000000
_cell_angle_beta   90.00000000
_cell_angle_gamma   119.99999698
_symmetry_Int_Tables_number   1
_chemical_formula_structural   Na3Np6FeF30
_chemical_formula_sum   'Na6 Np12 Fe2 F60'
_cell_volume   1107.44531679
_cell_formula_units_Z   2
loop_
 _symmetry_equiv_pos_site_id
 _symmetry_equiv_pos_as_xyz
  1  'x, y, z'
loop_
 _atom_site_type_symbol
 _atom_site_label
 _atom_site_symmetry_multiplicity
 _atom_site_fract_x
 _atom_site_fract_y
 _atom_site_fract_z
 _atom_site_occupancy
  Na  Na0  1  0.66666700  0.33333300  0.84187175  1
  Na  Na1  1  0.33333300  0.66666700  0.15812825  1
  Na  Na2  1  0.33333300  0.66666700  0.65812825  1
  Na  Na3  1  0.66666700  0.33333300  0.34187175  1
  Na  Na4  1  -0.00000000  -0.00000000  0.00000000  1
  Na  Na5  1  -0.00000000  -0.00000000  0.50000000  1
  Np  Np0  1  0.59801047  0.67644912  0.89838580  1
  Np  Np1  1  0.40198953  0.32355088  0.10161420  1
  Np  Np2  1  0.07843865  0.40198953  0.89838580  1
  Np  Np3  1  0.92156135  0.32355088  0.60161420  1
  Np  Np4  1  0.92156135  0.59801047  0.10161420  1
  Np  Np5  1  0.07843865  0.67644912  0.39838580  1
  Np  Np6  1  0.32355088  0.92156135  0.89838580  1
  Np  Np7  1  0.67644912  0.59801047  0.60161420  1
  Np  Np8  1  0.67644912  0.07843865  0.10161420  1
  Np  Np9  1  0.32355088  0.40198953  0.39838580  1
  Np  Np10  1  0.40198953  0.07843865  0.60161420  1
  Np  Np11  1  0.59801047  0.92156135  0.39838580  1
  Fe  Fe0  1  -0.00000000  -0.00000000  0.75000000  1
  Fe  Fe1  1  -0.00000000  -0.00000000  0.25000000  1
  F  F0  1  0.81820520  0.89807954  0.83861858  1
  F  F1  1  0.18179480  0.10192046  0.16138142  1
  F  F2  1  0.07987433  0.18179480  0.83861858  1
  F  F3  1  0.92012567  0.10192046  0.66138142  1
  F  F4  1  0.92012567  0.81820520  0.16138142  1
  F  F5  1  0.07987433  0.89807954  0.33861858  1
  F  F6  1  0.10192046  0.92012567  0.83861858  1
  F  F7  1  0.89807954  0.81820520  0.66138142  1
  F  F8  1  0.89807954  0.07987433  0.16138142  1
  F  F9  1  0.10192046  0.18179480  0.33861858  1
  F  F10  1  0.18179480  0.07987433  0.66138142  1
  F  F11  1  0.81820520  0.92012567  0.33861858  1
  F  F12  1  0.87022744  0.30774328  0.78446094  1
  F  F13  1  0.12977256  0.69225672  0.21553906  1
  F  F14  1  0.43751584  0.12977256  0.78446094  1
  F  F15  1  0.56248416  0.69225672  0.71553906  1
  F  F16  1  0.56248416  0.87022744  0.21553906  1
  F  F17  1  0.43751584  0.30774328  0.28446094  1
  F  F18  1  0.69225672  0.56248416  0.78446094  1
  F  F19  1  0.30774328  0.87022744  0.71553906  1
  F  F20  1  0.30774328  0.43751584  0.21553906  1
  F  F21  1  0.69225672  0.12977256  0.28446094  1
  F  F22  1  0.12977256  0.43751584  0.71553906  1
  F  F23  1  0.87022744  0.56248416  0.28446094  1
  F  F24  1  0.88139048  0.19271542  0.98026827  1
  F  F25  1  0.11860952  0.80728458  0.01973173  1
  F  F26  1  0.31132495  0.11860952  0.98026827  1
  F  F27  1  0.68867505  0.80728458  0.51973173  1
  F  F28  1  0.68867505  0.88139048  0.01973173  1
  F  F29  1  0.31132495  0.19271542  0.48026827  1
  F  F30  1  0.80728458  0.68867505  0.98026827  1
  F  F31  1  0.19271542  0.88139048  0.51973173  1
  F  F32  1  0.19271542  0.31132495  0.01973173  1
  F  F33  1  0.80728458  0.11860952  0.48026827  1
  F  F34  1  0.11860952  0.31132495  0.51973173  1
  F  F35  1  0.88139048  0.68867505  0.48026827  1
  F  F36  1  0.48776735  0.82701875  0.86320857  1
  F  F37  1  0.51223265  0.17298125  0.13679143  1
  F  F38  1  0.33925140  0.51223265  0.86320857  1
  F  F39  1  0.66074860  0.17298125  0.63679143  1
  F  F40  1  0.66074860  0.48776735  0.13679143  1
  F  F41  1  0.33925140  0.82701875  0.36320857  1
  F  F42  1  0.17298125  0.66074860  0.86320857  1
  F  F43  1  0.82701875  0.48776735  0.63679143  1
  F  F44  1  0.82701875  0.33925140  0.13679143  1
  F  F45  1  0.17298125  0.51223265  0.36320857  1
  F  F46  1  0.51223265  0.33925140  0.63679143  1
  F  F47  1  0.48776735  0.66074860  0.36320857  1
  F  F48  1  0.88223934  0.46845691  0.94961200  1
  F  F49  1  0.11776066  0.53154309  0.05038800  1
  F  F50  1  0.58621757  0.11776066  0.94961200  1
  F  F51  1  0.41378243  0.53154309  0.55038800  1
  F  F52  1  0.41378243  0.88223934  0.05038800  1
  F  F53  1  0.58621757  0.46845691  0.44961200  1
  F  F54  1  0.53154309  0.41378243  0.94961200  1
  F  F55  1  0.46845691  0.88223934  0.55038800  1
  F  F56  1  0.46845691  0.58621757  0.05038800  1
  F  F57  1  0.53154309  0.11776066  0.44961200  1
  F  F58  1  0.11776066  0.58621757  0.55038800  1
  F  F59  1  0.88223934  0.41378243  0.44961200  1
loop_
_geom_bond_atom_site_label_1
_geom_bond_atom_site_label_2
_geom_bond_distance
_geom_bond_site_symmetry_2
F0 Fe0 1.943419 1_665
F0 Np0 2.326686 1_555
F0 Na4 2.614502 1_666
F1 Fe1 1.943419 1_555
F1 Np1 2.326686 1_555
F1 Na4 2.614502 1_555
F2 Fe0 1.943419 1_555
F2 Np2 2.326686 1_555
F2 Na4 2.614502 1_556
F3 Fe0 1.943419 1_655
F3 Np3 2.326686 1_555
F3 Na5 2.614502 1_655
F4 Fe1 1.943419 1_665
F4 Np4 2.326686 1_555
F4 Na4 2.614502 1_665
F5 Fe1 1.943419 1_565
F5 Np5 2.326686 1_555
F5 Na5 2.614502 1_565
F6 Fe0 1.943419 1_565
F6 Np6 2.326686 1_555
F6 Na4 2.614502 1_566
F7 Fe0 1.943419 1_665
F7 Np7 2.326686 1_555
F7 Na5 2.614502 1_665
F8 Fe1 1.943419 1_655
F8 Np8 2.326686 1_555
F8 Na4 2.614502 1_655
F9 Fe1 1.943419 1_555
F9 Np9 2.326686 1_555
F9 Na5 2.614502 1_555
F10 Fe0 1.943419 1_555
F10 Np10 2.326686 1_555
F10 Na5 2.614502 1_555
F11 Fe1 1.943419 1_665
F11 Np11 2.326686 1_555
F11 Na5 2.614502 1_665
F12 Na0 2.284470 1_555
F12 Np2 2.323433 1_655
F12 Np3 2.413750 1_555
F13 Na1 2.284470 1_555
F13 Np4 2.323433 1_455
F13 Np5 2.413750 1_555
F14 Na0 2.284475 1_555
F14 Np6 2.323433 1_545
F14 Np10 2.413750 1_555
F15 Na2 2.284479 1_555
F15 Np7 2.323433 1_555
F15 Np0 2.413750 1_555
F16 Na1 2.284475 1_555
F16 Np8 2.323433 1_565
F16 Np11 2.413750 1_555
F17 Na3 2.284479 1_555
F17 Np9 2.323433 1_555
F17 Np1 2.413750 1_555
F18 Na0 2.284479 1_555
F18 Np0 2.323433 1_555
F18 Np7 2.413750 1_555
F19 Na2 2.284470 1_555
F19 Np10 2.323433 1_565
F19 Np6 2.413750 1_555
F20 Na1 2.284479 1_555
F20 Np1 2.323433 1_555
F20 Np9 2.413750 1_555
F21 Na3 2.284470 1_555
F21 Np11 2.323433 1_545
F21 Np8 2.413750 1_555
F22 Na2 2.284475 1_555
F22 Np3 2.323433 1_455
F22 Np2 2.413750 1_555
F23 Na3 2.284475 1_555
F23 Np5 2.323433 1_655
F23 Np4 2.413750 1_555
F24 Np2 2.282268 1_655
F24 Np8 2.365621 1_556
F24 Na4 2.714674 1_656
F25 Np4 2.282268 1_455
F25 Np6 2.365621 1_554
F25 Na4 2.714674 1_565
F26 Np6 2.282268 1_545
F26 Np1 2.365621 1_556
F26 Na4 2.714674 1_556
F27 Np7 2.282268 1_555
F27 Np11 2.365621 1_555
F27 Na5 2.714674 1_665
F28 Np8 2.282268 1_565
F28 Np0 2.365621 1_554
F28 Na4 2.714674 1_665
F29 Np9 2.282268 1_555
F29 Np10 2.365621 1_555
F29 Na5 2.714674 1_555
F30 Np0 2.282268 1_555
F30 Np4 2.365621 1_556
F30 Na4 2.714674 1_666
F31 Np10 2.282268 1_565
F31 Np5 2.365621 1_555
F31 Na5 2.714674 1_565
F32 Np1 2.282268 1_555
F32 Np2 2.365621 1_554
F32 Na4 2.714674 1_555
F33 Np11 2.282268 1_545
F33 Np3 2.365621 1_555
F33 Na5 2.714674 1_655
F34 Np3 2.282268 1_455
F34 Np9 2.365621 1_555
F34 Na5 2.714674 1_555
F35 Np5 2.282268 1_655
F35 Np7 2.365621 1_555
F35 Na5 2.714674 1_665
F36 Np0 2.297668 1_555
F36 Np6 2.297813 1_555
F37 Np1 2.297668 1_555
F37 Np8 2.297813 1_555
F38 Np2 2.297668 1_555
F38 Np0 2.297813 1_555
F39 Np3 2.297668 1_555
F39 Np10 2.297813 1_555
F40 Np4 2.297668 1_555
F40 Np1 2.297813 1_555
F41 Np5 2.297668 1_555
F41 Np11 2.297813 1_555
F42 Np6 2.297668 1_555
F42 Np2 2.297813 1_555
F43 Np7 2.297668 1_555
F43 Np3 2.297813 1_555
F44 Np8 2.297668 1_555
F44 Np4 2.297813 1_555
F45 Np9 2.297668 1_555
F45 Np5 2.297813 1_555
F46 Np10 2.297668 1_555
F46 Np7 2.297813 1_555
F47 Np11 2.297668 1_555
F47 Np9 2.297813 1_555
F48 Np4 2.278222 1_556
F48 Na0 2.337234 1_555
F48 Np2 2.441120 1_655
F49 Np2 2.278222 1_554
F49 Na1 2.337234 1_555
F49 Np4 2.441120 1_455
F50 Np8 2.278222 1_556
F50 Na0 2.337233 1_555
F50 Np6 2.441120 1_545
F51 Np9 2.278222 1_555
F51 Na2 2.337241 1_555
F51 Np7 2.441120 1_555
F52 Np6 2.278222 1_554
F52 Na1 2.337233 1_555
F52 Np8 2.441120 1_565
F53 Np7 2.278222 1_555
F53 Na3 2.337241 1_555
F53 Np9 2.441120 1_555
F54 Np1 2.278222 1_556
F54 Na0 2.337241 1_555
F54 Np0 2.441120 1_555
F55 Np11 2.278222 1_555
F55 Na2 2.337234 1_555
F55 Np10 2.441120 1_565
F56 Np0 2.278222 1_554
F56 Na1 2.337241 1_555
F56 Np1 2.441120 1_555
F57 Np10 2.278222 1_555
F57 Na3 2.337234 1_555
F57 Np11 2.441120 1_545
F58 Np5 2.278222 1_555
F58 Na2 2.337233 1_555
F58 Np3 2.441120 1_455
F59 Np3 2.278222 1_555
F59 Na3 2.337233 1_555
F59 Np5 2.441120 1_655
