# generated using pymatgen
data_La2Sn5
_symmetry_space_group_name_H-M   'P 1'
_cell_length_a   17.98140624
_cell_length_b   17.98140624
_cell_length_c   4.74317000
_cell_angle_alpha   90.00000000
_cell_angle_beta   90.00000000
_cell_angle_gamma   164.96114639
_symmetry_Int_Tables_number   1
_chemical_formula_structural   La2Sn5
_chemical_formula_sum   'La4 Sn10'
_cell_volume   397.93290030
_cell_formula_units_Z   2
loop_
 _symmetry_equiv_pos_site_id
 _symmetry_equiv_pos_as_xyz
  1  'x, y, z'
loop_
 _atom_site_type_symbol
 _atom_site_label
 _atom_site_symmetry_multiplicity
 _atom_site_fract_x
 _atom_site_fract_y
 _atom_site_fract_z
 _atom_site_occupancy
  La  La0  1  0.29720500  0.70279500  0.00000000  1
  La  La1  1  0.70279500  0.29720500  0.00000000  1
  La  La2  1  0.43215300  0.56784700  0.00000000  1
  La  La3  1  0.56784700  0.43215300  0.00000000  1
  Sn  Sn0  1  0.22120000  0.77880000  0.50000000  1
  Sn  Sn1  1  0.77880000  0.22120000  0.50000000  1
  Sn  Sn2  1  0.13794900  0.86205100  0.00000000  1
  Sn  Sn3  1  0.86205100  0.13794900  0.00000000  1
  Sn  Sn4  1  0.36203900  0.63796100  0.50000000  1
  Sn  Sn5  1  0.63796100  0.36203900  0.50000000  1
  Sn  Sn6  1  0.07170300  0.92829700  0.50000000  1
  Sn  Sn7  1  0.92829700  0.07170300  0.50000000  1
  Sn  Sn8  1  0.00000000  0.00000000  0.00000000  1
  Sn  Sn9  1  0.50000000  0.50000000  0.50000000  1
loop_
_geom_bond_atom_site_label_1
_geom_bond_atom_site_label_2
_geom_bond_distance
_geom_bond_site_symmetry_2
La0 Sn3 3.298837 1_455
La0 Sn3 3.298837 1_565
La0 Sn4 3.311757 1_554
La0 Sn4 3.311757 1_555
La0 Sn1 3.404709 1_455
La0 Sn1 3.404709 1_454
La0 Sn1 3.404709 1_564
La0 Sn1 3.404709 1_565
La0 Sn0 3.601068 1_555
La0 Sn0 3.601068 1_554
La1 Sn2 3.298837 1_545
La1 Sn2 3.298837 1_655
La1 Sn5 3.311757 1_555
La1 Sn5 3.311757 1_554
La1 Sn0 3.404709 1_545
La1 Sn0 3.404709 1_544
La1 Sn0 3.404709 1_655
La1 Sn0 3.404709 1_654
La1 Sn1 3.601068 1_554
La1 Sn1 3.601068 1_555
La2 Sn7 3.343702 1_454
La2 Sn7 3.343702 1_455
La2 Sn7 3.343702 1_565
La2 Sn7 3.343702 1_564
La2 Sn8 3.374689 1_555
La2 Sn8 3.374689 1_665
La2 Sn9 3.387611 1_555
La2 Sn9 3.387611 1_554
La2 Sn3 3.432777 1_455
La2 Sn3 3.432777 1_565
La2 Sn4 3.445792 1_554
La2 Sn4 3.445792 1_555
La3 Sn6 3.343702 1_544
La3 Sn6 3.343702 1_545
La3 Sn6 3.343702 1_655
La3 Sn6 3.343702 1_654
La3 Sn8 3.374689 1_555
La3 Sn8 3.374689 1_665
La3 Sn9 3.387611 1_555
La3 Sn9 3.387611 1_554
La3 Sn2 3.432777 1_545
La3 Sn2 3.432777 1_655
La3 Sn5 3.445792 1_555
La3 Sn5 3.445792 1_554
Sn0 Sn1 3.123217 1_565
Sn0 Sn1 3.123217 1_455
Sn2 Sn5 3.340875 1_454
Sn2 Sn5 3.340875 1_564
Sn2 Sn5 3.340875 1_455
Sn2 Sn5 3.340875 1_565
Sn3 Sn4 3.340875 1_655
Sn3 Sn4 3.340875 1_544
Sn3 Sn4 3.340875 1_545
Sn3 Sn4 3.340875 1_654
Sn4 Sn7 3.334313 1_565
Sn4 Sn7 3.334313 1_455
Sn5 Sn6 3.334313 1_655
Sn5 Sn6 3.334313 1_545
