# generated using pymatgen
data_Cd2Ni2C8N12O
_symmetry_space_group_name_H-M   'P 1'
_cell_length_a   9.73301342
_cell_length_b   9.73301342
_cell_length_c   9.73301342
_cell_angle_alpha   134.75160575
_cell_angle_beta   116.81853382
_cell_angle_gamma   81.07155348
_symmetry_Int_Tables_number   1
_chemical_formula_structural   Cd2Ni2C8N12O
_chemical_formula_sum   'Cd2 Ni2 C8 N12 O1'
_cell_volume   564.84147181
_cell_formula_units_Z   1
loop_
 _symmetry_equiv_pos_site_id
 _symmetry_equiv_pos_as_xyz
  1  'x, y, z'
loop_
 _atom_site_type_symbol
 _atom_site_label
 _atom_site_symmetry_multiplicity
 _atom_site_fract_x
 _atom_site_fract_y
 _atom_site_fract_z
 _atom_site_occupancy
  Cd  Cd0  1  0.25016600  0.25000900  0.00015700  1
  Cd  Cd1  1  0.75014800  0.74999100  0.00015700  1
  Ni  Ni0  1  0.54148200  0.00000000  0.54148200  1
  Ni  Ni1  1  0.95960800  0.50000000  0.45960800  1
  C  C0  1  0.44796300  0.73587400  0.36142300  1
  C  C1  1  0.05226700  0.41342200  0.28799200  1
  C  C2  1  0.87457000  0.23572500  0.28799200  1
  C  C3  1  0.62554900  0.91346000  0.36142300  1
  C  C4  1  0.05226700  0.76427500  0.63884400  1
  C  C5  1  0.44796300  0.08654000  0.71208900  1
  C  C6  1  0.62554900  0.26412600  0.71208900  1
  C  C7  1  0.87457000  0.58657800  0.63884400  1
  N  N0  1  0.47720800  0.22297100  0.25423800  1
  N  N1  1  0.02333300  0.27756000  0.74577300  1
  N  N2  1  0.46821300  0.72244000  0.74577300  1
  N  N3  1  0.03126700  0.77702900  0.25423800  1
  N  N4  1  0.38436800  0.57037500  0.24413900  1
  N  N5  1  0.11547300  0.35961700  0.18570900  1
  N  N6  1  0.82609300  0.07023600  0.18570900  1
  N  N7  1  0.67376400  0.85977100  0.24413900  1
  N  N8  1  0.11547300  0.92976400  0.75585700  1
  N  N9  1  0.38436800  0.14022900  0.81399300  1
  N  N10  1  0.67376400  0.42962500  0.81399300  1
  N  N11  1  0.82609300  0.64038300  0.75585700  1
  O  O0  1  0.29338400  0.50000000  0.79338400  1
loop_
_geom_bond_atom_site_label_1
_geom_bond_atom_site_label_2
_geom_bond_distance
_geom_bond_site_symmetry_2
Cd0 N9 2.259914 1_554
Cd0 N4 2.259914 1_555
Cd0 N5 2.260017 1_555
Cd0 N8 2.260019 1_544
Cd0 N0 2.621618 1_555
Cd0 N1 2.625842 1_554
Cd1 N7 2.259914 1_555
Cd1 N10 2.259914 1_554
Cd1 N11 2.260016 1_554
Cd1 N6 2.260019 1_565
Cd1 N3 2.621621 1_655
Cd1 N2 2.625842 1_554
C0 N4 1.167773 1_555
C0 Ni0 1.857887 1_565
C1 N5 1.167174 1_555
C1 Ni1 1.858744 1_455
C2 N6 1.167172 1_555
C2 Ni1 1.858744 1_555
C3 N7 1.167773 1_555
C3 Ni0 1.857887 1_565
C4 N8 1.167169 1_555
C4 Ni1 1.858746 1_455
C5 N9 1.167773 1_555
C5 Ni0 1.857887 1_555
C6 N10 1.167773 1_555
C6 Ni0 1.857887 1_555
C7 N11 1.167183 1_555
C7 Ni1 1.858736 1_555
