# generated using pymatgen
data_Yb3Co
_symmetry_space_group_name_H-M   'P 1'
_cell_length_a   6.30921900
_cell_length_b   7.37638900
_cell_length_c   9.38993400
_cell_angle_alpha   90.00000000
_cell_angle_beta   90.00000000
_cell_angle_gamma   90.00000000
_symmetry_Int_Tables_number   1
_chemical_formula_structural   Yb3Co
_chemical_formula_sum   'Yb12 Co4'
_cell_volume   437.00052000
_cell_formula_units_Z   4
loop_
 _symmetry_equiv_pos_site_id
 _symmetry_equiv_pos_as_xyz
  1  'x, y, z'
loop_
 _atom_site_type_symbol
 _atom_site_label
 _atom_site_symmetry_multiplicity
 _atom_site_fract_x
 _atom_site_fract_y
 _atom_site_fract_z
 _atom_site_occupancy
  Yb  Yb0  1  0.33741100  0.66916300  0.06924500  1
  Yb  Yb1  1  0.16258900  0.16916300  0.43075500  1
  Yb  Yb2  1  0.66258900  0.33083700  0.56924500  1
  Yb  Yb3  1  0.83741100  0.83083700  0.93075500  1
  Yb  Yb4  1  0.66258900  0.33083700  0.93075500  1
  Yb  Yb5  1  0.83741100  0.83083700  0.56924500  1
  Yb  Yb6  1  0.33741100  0.66916300  0.43075500  1
  Yb  Yb7  1  0.16258900  0.16916300  0.06924500  1
  Yb  Yb8  1  0.85695600  0.54418800  0.25000000  1
  Yb  Yb9  1  0.64304400  0.04418800  0.25000000  1
  Yb  Yb10  1  0.14304400  0.45581200  0.75000000  1
  Yb  Yb11  1  0.35695600  0.95581200  0.75000000  1
  Co  Co0  1  0.04465200  0.88131800  0.25000000  1
  Co  Co1  1  0.45534800  0.38131800  0.25000000  1
  Co  Co2  1  0.95534800  0.11868200  0.75000000  1
  Co  Co3  1  0.54465200  0.61868200  0.75000000  1
loop_
_geom_bond_atom_site_label_1
_geom_bond_atom_site_label_2
_geom_bond_distance
_geom_bond_site_symmetry_2
Co0 Yb8 2.754369 1_455
Co0 Yb9 2.804221 1_465
Co0 Yb1 2.818269 1_565
Co0 Yb7 2.818269 1_565
Co0 Yb6 2.956601 1_555
Co0 Yb0 2.956601 1_555
Co0 Yb5 3.291570 1_455
Co0 Yb3 3.291570 1_454
Co1 Yb9 2.754369 1_555
Co1 Yb8 2.804221 1_555
Co1 Yb6 2.818269 1_555
Co1 Yb0 2.818269 1_555
Co1 Yb7 2.956601 1_555
Co1 Yb1 2.956601 1_555
Co1 Yb4 3.291570 1_554
Co1 Yb2 3.291570 1_555
Co2 Yb10 2.754369 1_655
Co2 Yb11 2.804221 1_645
Co2 Yb5 2.818269 1_545
Co2 Yb3 2.818269 1_545
Co2 Yb4 2.956601 1_555
Co2 Yb2 2.956601 1_555
Co2 Yb1 3.291570 1_655
Co2 Yb7 3.291570 1_656
Co3 Yb11 2.754369 1_555
Co3 Yb10 2.804221 1_555
Co3 Yb4 2.818269 1_555
Co3 Yb2 2.818269 1_555
Co3 Yb3 2.956601 1_555
Co3 Yb5 2.956601 1_555
Co3 Yb0 3.291570 1_556
Co3 Yb6 3.291570 1_555
