# generated using pymatgen
data_Mg6MnZn
_symmetry_space_group_name_H-M   'P 1'
_cell_length_a   4.92077100
_cell_length_b   6.16740000
_cell_length_c   10.66604300
_cell_angle_alpha   90.00000000
_cell_angle_beta   90.00000000
_cell_angle_gamma   90.00000000
_symmetry_Int_Tables_number   1
_chemical_formula_structural   Mg6MnZn
_chemical_formula_sum   'Mg12 Mn2 Zn2'
_cell_volume   323.69694544
_cell_formula_units_Z   2
loop_
 _symmetry_equiv_pos_site_id
 _symmetry_equiv_pos_as_xyz
  1  'x, y, z'
loop_
 _atom_site_type_symbol
 _atom_site_label
 _atom_site_symmetry_multiplicity
 _atom_site_fract_x
 _atom_site_fract_y
 _atom_site_fract_z
 _atom_site_occupancy
  Mg  Mg0  1  0.00000000  0.24922700  0.58338800  1
  Mg  Mg1  1  0.00000000  0.75077300  0.58338800  1
  Mg  Mg2  1  0.50000000  0.25189200  0.41372400  1
  Mg  Mg3  1  0.50000000  0.74810800  0.41372400  1
  Mg  Mg4  1  0.50000000  0.00000000  0.67046400  1
  Mg  Mg5  1  0.50000000  0.00000000  0.16925800  1
  Mg  Mg6  1  0.00000000  0.74922700  0.08338800  1
  Mg  Mg7  1  0.00000000  0.25077300  0.08338800  1
  Mg  Mg8  1  0.50000000  0.75189200  0.91372400  1
  Mg  Mg9  1  0.50000000  0.24810800  0.91372400  1
  Mg  Mg10  1  0.50000000  0.50000000  0.17046400  1
  Mg  Mg11  1  0.50000000  0.50000000  0.66925800  1
  Mn  Mn0  1  0.00000000  0.00000000  0.83264200  1
  Mn  Mn1  1  0.00000000  0.50000000  0.33264200  1
  Zn  Zn0  1  0.00000000  0.00000000  0.33341700  1
  Zn  Zn1  1  0.00000000  0.50000000  0.83341700  1
loop_
_geom_bond_atom_site_label_1
_geom_bond_atom_site_label_2
_geom_bond_distance
_geom_bond_site_symmetry_2
Mg0 Mg4 3.046097 1_555
Mg0 Mg4 3.046097 1_455
Mg0 Mg11 3.047028 1_455
Mg0 Mg11 3.047028 1_555
Mg0 Mg2 3.054272 1_455
Mg0 Mg2 3.054272 1_555
Mg0 Mn0 3.070917 1_555
Mg0 Mg1 3.074165 1_545
Mg0 Zn0 3.077540 1_555
Mg0 Zn1 3.082848 1_555
Mg0 Mn1 3.089466 1_555
Mg0 Mg1 3.093235 1_555
Mg1 Mg4 3.046097 1_465
Mg1 Mg4 3.046097 1_565
Mg1 Mg11 3.047028 1_455
Mg1 Mg11 3.047028 1_555
Mg1 Mg3 3.054272 1_455
Mg1 Mg3 3.054272 1_555
Mg1 Mn0 3.070917 1_565
Mg1 Zn0 3.077540 1_565
Mg1 Zn1 3.082848 1_555
Mg1 Mn1 3.089466 1_555
Mg2 Mn1 3.023718 1_555
Mg2 Mn1 3.023718 1_655
Mg2 Zn0 3.033251 1_655
Mg2 Zn0 3.033251 1_555
Mg2 Mg5 3.035193 1_555
Mg2 Mg3 3.060363 1_555
Mg2 Mg3 3.107037 1_545
Mg2 Mg4 3.148373 1_555
Mg3 Mn1 3.023718 1_555
Mg3 Mn1 3.023718 1_655
Mg3 Zn0 3.033251 1_665
Mg3 Zn0 3.033251 1_565
Mg3 Mg5 3.035193 1_565
Mg3 Mg4 3.148373 1_565
Mg4 Mn0 3.007606 1_555
Mg4 Mn0 3.007606 1_655
Mg4 Mg8 3.012228 1_545
Mg4 Mg9 3.012228 1_555
Mg5 Zn0 3.019808 1_655
Mg5 Zn0 3.019808 1_555
Mg5 Mg6 3.047028 1_545
Mg5 Mg7 3.047028 1_555
Mg5 Mg7 3.047028 1_655
Mg5 Mg6 3.047028 1_645
Mg5 Mg9 3.125701 1_554
Mg5 Mg8 3.125701 1_544
Mg6 Mg8 3.054272 1_454
Mg6 Mg8 3.054272 1_554
Mg6 Mn1 3.070917 1_555
Mg6 Mg7 3.074165 1_555
Mg6 Zn1 3.077540 1_554
Mg6 Zn0 3.082848 1_565
Mg6 Mn0 3.089466 1_564
Mg6 Mg7 3.093235 1_565
Mg7 Mg9 3.054272 1_554
Mg7 Mg9 3.054272 1_454
Mg7 Mn1 3.070917 1_555
Mg7 Zn1 3.077540 1_554
Mg7 Zn0 3.082848 1_555
Mg7 Mn0 3.089466 1_554
Mg8 Mn0 3.023718 1_665
Mg8 Mn0 3.023718 1_565
Mg8 Zn1 3.033251 1_555
Mg8 Zn1 3.033251 1_655
Mg8 Mg9 3.060363 1_565
Mg8 Mg9 3.107037 1_555
Mg9 Mn0 3.023718 1_555
Mg9 Mn0 3.023718 1_655
Mg9 Zn1 3.033251 1_555
Mg9 Zn1 3.033251 1_655
Mg10 Mn1 3.007606 1_555
Mg10 Mn1 3.007606 1_655
Mg10 Mg2 3.012228 1_555
Mg10 Mg3 3.012228 1_555
Mg10 Mg7 3.046097 1_555
Mg10 Mg6 3.046097 1_655
Mg10 Mg7 3.046097 1_655
Mg10 Mg6 3.046097 1_555
Mg10 Mg5 3.083727 1_555
Mg10 Mg5 3.083727 1_565
Mg10 Mg8 3.148373 1_554
Mg10 Mg9 3.148373 1_554
Mg11 Zn1 3.019808 1_655
Mg11 Zn1 3.019808 1_555
Mg11 Mg8 3.035193 1_555
Mg11 Mg9 3.035193 1_555
Mg11 Mg4 3.083727 1_565
Mg11 Mg4 3.083727 1_555
Mg11 Mg2 3.125701 1_555
Mg11 Mg3 3.125701 1_555
Mn0 Zn1 3.083711 1_545
Mn0 Zn1 3.083711 1_555
Mn1 Zn0 3.083711 1_555
Mn1 Zn0 3.083711 1_565
