# generated using pymatgen
data_Mg6CdCuO8
_symmetry_space_group_name_H-M   'P 1'
_cell_length_a   8.60428691
_cell_length_b   4.37287291
_cell_length_c   4.37287291
_cell_angle_alpha   90.00000000
_cell_angle_beta   90.00000000
_cell_angle_gamma   90.00000000
_symmetry_Int_Tables_number   1
_chemical_formula_structural   Mg6CdCuO8
_chemical_formula_sum   'Mg6 Cd1 Cu1 O8'
_cell_volume   164.53132476
_cell_formula_units_Z   1
loop_
 _symmetry_equiv_pos_site_id
 _symmetry_equiv_pos_as_xyz
  1  'x, y, z'
loop_
 _atom_site_type_symbol
 _atom_site_label
 _atom_site_symmetry_multiplicity
 _atom_site_fract_x
 _atom_site_fract_y
 _atom_site_fract_z
 _atom_site_occupancy
  Mg  Mg0  1  0.00000000  0.50000000  0.50000000  1
  Mg  Mg1  1  0.50000000  0.50000000  0.50000000  1
  Mg  Mg2  1  0.24175016  0.00000000  0.50000000  1
  Mg  Mg3  1  0.75824984  -0.00000000  0.50000000  1
  Mg  Mg4  1  0.24175016  0.50000000  -0.00000000  1
  Mg  Mg5  1  0.75824984  0.50000000  0.00000000  1
  Cd  Cd0  1  0.50000000  0.00000000  -0.00000000  1
  Cu  Cu0  1  0.00000000  0.00000000  -0.00000000  1
  O  O0  1  0.23417294  -0.00000000  -0.00000000  1
  O  O1  1  0.76582706  0.00000000  0.00000000  1
  O  O2  1  0.24923583  0.50000000  0.50000000  1
  O  O3  1  0.75076417  0.50000000  0.50000000  1
  O  O4  1  0.00000000  0.00000000  0.50000000  1
  O  O5  1  0.50000000  0.00000000  0.50000000  1
  O  O6  1  0.00000000  0.50000000  -0.00000000  1
  O  O7  1  0.50000000  0.50000000  -0.00000000  1
loop_
_geom_bond_atom_site_label_1
_geom_bond_atom_site_label_2
_geom_bond_distance
_geom_bond_site_symmetry_2
Mg0 O3 2.144497 1_455
Mg0 O2 2.144497 1_555
Mg0 O4 2.186436 1_565
Mg0 O6 2.186436 1_556
Mg0 O6 2.186436 1_555
Mg0 O4 2.186436 1_555
Mg1 O2 2.157647 1_555
Mg1 O3 2.157647 1_555
Mg1 O5 2.186436 1_555
Mg1 O5 2.186436 1_565
Mg1 O7 2.186436 1_555
Mg1 O7 2.186436 1_556
Mg2 O4 2.080088 1_555
Mg2 O2 2.187385 1_555
Mg2 O2 2.187385 1_545
Mg2 O0 2.187408 1_555
Mg2 O0 2.187408 1_556
Mg2 O5 2.222056 1_555
Mg3 O4 2.080088 1_655
Mg3 O3 2.187385 1_545
Mg3 O3 2.187385 1_555
Mg3 O1 2.187408 1_555
Mg3 O1 2.187408 1_556
Mg3 O5 2.222056 1_555
Mg4 O6 2.080088 1_555
Mg4 O2 2.187385 1_554
Mg4 O2 2.187385 1_555
Mg4 O0 2.187408 1_555
Mg4 O0 2.187408 1_565
Mg4 O7 2.222056 1_555
Mg5 O6 2.080088 1_655
Mg5 O3 2.187385 1_554
Mg5 O3 2.187385 1_555
Mg5 O1 2.187408 1_565
Mg5 O1 2.187408 1_555
Mg5 O7 2.222056 1_555
Cd0 O5 2.186436 1_554
Cd0 O5 2.186436 1_555
Cd0 O7 2.186436 1_545
Cd0 O7 2.186436 1_555
Cd0 O0 2.287252 1_555
Cd0 O1 2.287252 1_555
Cu0 O0 2.014891 1_555
Cu0 O1 2.014891 1_455
Cu0 O6 2.186436 1_545
Cu0 O6 2.186436 1_555
Cu0 O4 2.186436 1_555
Cu0 O4 2.186436 1_554
