# generated using pymatgen
data_NaPS3
_symmetry_space_group_name_H-M   'P 1'
_cell_length_a   7.89050100
_cell_length_b   6.73970100
_cell_length_c   9.13262393
_cell_angle_alpha   89.78065042
_cell_angle_beta   90.00000000
_cell_angle_gamma   90.00000000
_symmetry_Int_Tables_number   1
_chemical_formula_structural   NaPS3
_chemical_formula_sum   'Na4 P4 S12'
_cell_volume   485.66588788
_cell_formula_units_Z   4
loop_
 _symmetry_equiv_pos_site_id
 _symmetry_equiv_pos_as_xyz
  1  'x, y, z'
loop_
 _atom_site_type_symbol
 _atom_site_label
 _atom_site_symmetry_multiplicity
 _atom_site_fract_x
 _atom_site_fract_y
 _atom_site_fract_z
 _atom_site_occupancy
  Na  Na0  1  0.51359000  0.71312200  0.70932000  1
  Na  Na1  1  0.01359000  0.28687800  0.29068000  1
  Na  Na2  1  0.48641000  0.28687800  0.29068000  1
  Na  Na3  1  0.98641000  0.71312200  0.70932000  1
  P  P0  1  0.75000000  0.21259300  0.61231300  1
  P  P1  1  0.25000000  0.78740700  0.38768700  1
  P  P2  1  0.75000000  0.32297100  0.92343800  1
  P  P3  1  0.25000000  0.67702900  0.07656200  1
  S  S0  1  0.05154700  0.76543500  0.22826400  1
  S  S1  1  0.55154700  0.23456500  0.77173600  1
  S  S2  1  0.94845300  0.23456500  0.77173600  1
  S  S3  1  0.44845300  0.76543500  0.22826400  1
  S  S4  1  0.75000000  0.61727900  0.95108500  1
  S  S5  1  0.25000000  0.38272100  0.04891500  1
  S  S6  1  0.75000000  0.45018800  0.47971900  1
  S  S7  1  0.25000000  0.54981200  0.52028100  1
  S  S8  1  0.75000000  0.14502000  0.09640100  1
  S  S9  1  0.25000000  0.85498000  0.90359900  1
  S  S10  1  0.75000000  0.94878800  0.51364900  1
  S  S11  1  0.25000000  0.05121200  0.48635100  1
loop_
_geom_bond_atom_site_label_1
_geom_bond_atom_site_label_2
_geom_bond_distance
_geom_bond_site_symmetry_2
Na0 S9 2.898438 1_555
Na0 S7 2.921017 1_555
Na0 S4 2.959910 1_555
Na0 S10 3.028869 1_555
Na0 S1 3.286839 1_555
Na0 S6 3.323445 1_555
Na1 S8 2.898438 1_455
Na1 S6 2.921017 1_455
Na1 S5 2.959910 1_555
Na1 S11 3.028869 1_555
Na1 S0 3.286839 1_555
Na1 S7 3.323445 1_555
Na2 S8 2.898438 1_555
Na2 S6 2.921017 1_555
Na2 S5 2.959910 1_555
Na2 S11 3.028869 1_555
Na2 S3 3.286839 1_555
Na2 S7 3.323445 1_555
Na3 S9 2.898438 1_655
Na3 S7 2.921017 1_655
Na3 S4 2.959910 1_555
Na3 S10 3.028869 1_555
Na3 S2 3.286839 1_555
Na3 S6 3.323445 1_555
P0 S10 1.996333 1_545
P0 S6 2.003929 1_555
P0 S1 2.143687 1_555
P0 S2 2.143687 1_555
P1 S11 1.996333 1_565
P1 S7 2.003929 1_555
P1 S0 2.143687 1_555
P1 S3 2.143687 1_555
P2 S8 1.979661 1_556
P2 S4 2.000512 1_555
P2 S1 2.175498 1_555
P2 S2 2.175498 1_555
P3 S9 1.979661 1_554
P3 S5 2.000512 1_555
P3 S0 2.175498 1_555
P3 S3 2.175498 1_555
