# generated using pymatgen
data_As3Pb5O12F
_symmetry_space_group_name_H-M   'P 1'
_cell_length_a   10.30365973
_cell_length_b   10.30365973
_cell_length_c   7.60669900
_cell_angle_alpha   90.00000000
_cell_angle_beta   90.00000000
_cell_angle_gamma   119.99999827
_symmetry_Int_Tables_number   1
_chemical_formula_structural   As3Pb5O12F
_chemical_formula_sum   'As6 Pb10 O24 F2'
_cell_volume   699.37465032
_cell_formula_units_Z   2
loop_
 _symmetry_equiv_pos_site_id
 _symmetry_equiv_pos_as_xyz
  1  'x, y, z'
loop_
 _atom_site_type_symbol
 _atom_site_label
 _atom_site_symmetry_multiplicity
 _atom_site_fract_x
 _atom_site_fract_y
 _atom_site_fract_z
 _atom_site_occupancy
  As  As0  1  0.39831200  0.02758200  0.25000000  1
  As  As1  1  0.60168800  0.97241800  0.75000000  1
  As  As2  1  0.97241800  0.37073000  0.25000000  1
  As  As3  1  0.02758200  0.62927000  0.75000000  1
  As  As4  1  0.62927000  0.60168800  0.25000000  1
  As  As5  1  0.37073000  0.39831200  0.75000000  1
  Pb  Pb0  1  0.33333300  0.66666700  0.00272900  1
  Pb  Pb1  1  0.66666700  0.33333300  0.99727100  1
  Pb  Pb2  1  0.66666700  0.33333300  0.50272900  1
  Pb  Pb3  1  0.33333300  0.66666700  0.49727100  1
  Pb  Pb4  1  0.24593800  0.24342400  0.25000000  1
  Pb  Pb5  1  0.75406200  0.75657600  0.75000000  1
  Pb  Pb6  1  0.75657600  0.00251400  0.25000000  1
  Pb  Pb7  1  0.24342400  0.99748600  0.75000000  1
  Pb  Pb8  1  0.99748600  0.75406200  0.25000000  1
  Pb  Pb9  1  0.00251400  0.24593800  0.75000000  1
  O  O0  1  0.16390300  0.49000900  0.25000000  1
  O  O1  1  0.83609700  0.50999100  0.75000000  1
  O  O2  1  0.50999100  0.67389400  0.25000000  1
  O  O3  1  0.49000900  0.32610600  0.75000000  1
  O  O4  1  0.32610600  0.83609700  0.25000000  1
  O  O5  1  0.67389400  0.16390300  0.75000000  1
  O  O6  1  0.59350700  0.12190900  0.25000000  1
  O  O7  1  0.40649300  0.87809100  0.75000000  1
  O  O8  1  0.87809100  0.47159800  0.25000000  1
  O  O9  1  0.12190900  0.52840200  0.75000000  1
  O  O10  1  0.52840200  0.40649300  0.25000000  1
  O  O11  1  0.47159800  0.59350700  0.75000000  1
  O  O12  1  0.34219600  0.08992000  0.06997700  1
  O  O13  1  0.65780400  0.91008000  0.93002300  1
  O  O14  1  0.91008000  0.25227500  0.06997700  1
  O  O15  1  0.65780400  0.91008000  0.56997700  1
  O  O16  1  0.08992000  0.74772500  0.93002300  1
  O  O17  1  0.34219600  0.08992000  0.43002300  1
  O  O18  1  0.74772500  0.65780400  0.06997700  1
  O  O19  1  0.08992000  0.74772500  0.56997700  1
  O  O20  1  0.25227500  0.34219600  0.93002300  1
  O  O21  1  0.91008000  0.25227500  0.43002300  1
  O  O22  1  0.25227500  0.34219600  0.56997700  1
  O  O23  1  0.74772500  0.65780400  0.43002300  1
  F  F0  1  0.00000000  0.00000000  0.25000000  1
  F  F1  1  0.00000000  0.00000000  0.75000000  1
loop_
_geom_bond_atom_site_label_1
_geom_bond_atom_site_label_2
_geom_bond_distance
_geom_bond_site_symmetry_2
As0 O4 1.725789 1_545
As0 O17 1.730163 1_555
As0 O12 1.730163 1_555
As0 O6 1.742096 1_555
As1 O5 1.725789 1_565
As1 O15 1.730163 1_555
As1 O13 1.730163 1_555
As1 O7 1.742096 1_555
As2 O0 1.725789 1_655
As2 O14 1.730168 1_555
As2 O21 1.730168 1_555
As2 O8 1.742096 1_555
As3 O1 1.725789 1_455
As3 O19 1.730168 1_555
As3 O16 1.730168 1_555
As3 O9 1.742096 1_555
As4 O2 1.725789 1_555
As4 O18 1.730169 1_555
As4 O23 1.730169 1_555
As4 O10 1.742096 1_555
As5 O3 1.725789 1_555
As5 O22 1.730169 1_555
As5 O20 1.730169 1_555
As5 O11 1.742096 1_555
O0 Pb0 2.592498 1_555
O0 Pb3 2.592498 1_555
O1 Pb1 2.592498 1_555
O1 Pb2 2.592498 1_555
O2 Pb0 2.592501 1_555
O2 Pb3 2.592501 1_555
O3 Pb2 2.592501 1_555
O3 Pb1 2.592501 1_555
O4 Pb0 2.592494 1_555
O4 Pb3 2.592494 1_555
O5 Pb2 2.592494 1_555
O5 Pb1 2.592494 1_555
O6 Pb6 2.530514 1_555
O6 Pb2 2.714305 1_555
O6 Pb1 2.714305 1_554
O7 Pb7 2.530514 1_555
O7 Pb3 2.714305 1_555
O7 Pb0 2.714305 1_556
O8 Pb8 2.530514 1_555
O8 Pb2 2.714306 1_555
O8 Pb1 2.714306 1_554
O9 Pb9 2.530514 1_555
O9 Pb3 2.714306 1_555
O9 Pb0 2.714306 1_556
O10 Pb4 2.530514 1_555
O10 Pb1 2.714312 1_554
O10 Pb2 2.714312 1_555
O11 Pb5 2.530514 1_555
O11 Pb0 2.714312 1_556
O11 Pb3 2.714312 1_555
O12 Pb7 2.626356 1_544
O12 Pb4 2.632340 1_555
O13 Pb6 2.626356 1_566
O13 Pb5 2.632340 1_555
O14 Pb9 2.626354 1_654
O14 Pb6 2.632333 1_555
O15 Pb6 2.626356 1_565
O15 Pb5 2.632340 1_555
O16 Pb8 2.626354 1_456
O16 Pb7 2.632333 1_555
O17 Pb7 2.626356 1_545
O17 Pb4 2.632340 1_555
O18 Pb5 2.626358 1_554
O18 Pb8 2.632332 1_555
O19 Pb8 2.626354 1_455
O19 Pb7 2.632333 1_555
O20 Pb4 2.626358 1_556
O20 Pb9 2.632332 1_555
O21 Pb9 2.626354 1_655
O21 Pb6 2.632333 1_555
O22 Pb4 2.626358 1_555
O22 Pb9 2.632332 1_555
O23 Pb5 2.626358 1_555
O23 Pb8 2.632332 1_555
F0 Pb6 2.521210 1_455
F0 Pb8 2.521210 1_445
F0 Pb4 2.521210 1_555
F1 Pb7 2.521210 1_545
F1 Pb9 2.521210 1_555
F1 Pb5 2.521210 1_445
