# generated using pymatgen
data_Ca11Sb10
_symmetry_space_group_name_H-M   'P 1'
_cell_length_a   12.01757820
_cell_length_b   12.01757806
_cell_length_c   12.10675775
_cell_angle_alpha   119.75662422
_cell_angle_beta   119.75662842
_cell_angle_gamma   90.00000316
_symmetry_Int_Tables_number   1
_chemical_formula_structural   Ca11Sb10
_chemical_formula_sum   'Ca22 Sb20'
_cell_volume   1245.40583493
_cell_formula_units_Z   2
loop_
 _symmetry_equiv_pos_site_id
 _symmetry_equiv_pos_as_xyz
  1  'x, y, z'
loop_
 _atom_site_type_symbol
 _atom_site_label
 _atom_site_symmetry_multiplicity
 _atom_site_fract_x
 _atom_site_fract_y
 _atom_site_fract_z
 _atom_site_occupancy
  Ca  Ca0  1  0.18916995  0.44086790  0.37833989  1
  Ca  Ca1  1  0.93747299  0.18916995  0.37833989  1
  Ca  Ca2  1  0.44086790  0.18916995  0.37833989  1
  Ca  Ca3  1  0.81083005  0.55913210  0.62166011  1
  Ca  Ca4  1  0.81083005  0.06252701  0.62166011  1
  Ca  Ca5  1  0.06252701  0.81083005  0.62166011  1
  Ca  Ca6  1  0.55913210  0.81083005  0.62166011  1
  Ca  Ca7  1  0.18916995  0.93747299  0.37833989  1
  Ca  Ca8  1  0.16459806  0.16459806  0.00000000  1
  Ca  Ca9  1  0.83540194  0.16459806  0.00000000  1
  Ca  Ca10  1  0.16459806  0.83540194  -0.00000000  1
  Ca  Ca11  1  0.83540194  0.83540194  -0.00000000  1
  Ca  Ca12  1  0.33489259  0.33489259  0.66978418  1
  Ca  Ca13  1  0.66510741  0.66510741  0.33021582  1
  Ca  Ca14  1  0.39668070  0.73605458  0.79336041  1
  Ca  Ca15  1  0.05730583  0.39668070  0.79336041  1
  Ca  Ca16  1  0.73605458  0.39668070  0.79336041  1
  Ca  Ca17  1  0.60331930  0.26394542  0.20663959  1
  Ca  Ca18  1  0.60331930  0.94269417  0.20663959  1
  Ca  Ca19  1  0.94269417  0.60331930  0.20663959  1
  Ca  Ca20  1  0.26394542  0.60331930  0.20663959  1
  Ca  Ca21  1  0.39668070  0.05730583  0.79336041  1
  Sb  Sb0  1  0.34818279  -0.00000000  -0.00000000  1
  Sb  Sb1  1  -0.00000000  0.34818279  0.00000000  1
  Sb  Sb2  1  0.00000000  0.65181721  -0.00000000  1
  Sb  Sb3  1  0.65181721  0.00000000  0.00000000  1
  Sb  Sb4  1  0.12851436  0.12851436  0.25702871  1
  Sb  Sb5  1  0.87148564  0.87148564  0.74297129  1
  Sb  Sb6  1  0.37344877  0.37344877  -0.00000000  1
  Sb  Sb7  1  0.62655123  0.37344877  -0.00000000  1
  Sb  Sb8  1  0.37344877  0.62655123  0.00000000  1
  Sb  Sb9  1  0.62655123  0.62655123  0.00000000  1
  Sb  Sb10  1  0.25000000  0.75000000  0.50000000  1
  Sb  Sb11  1  0.75000000  0.25000000  0.50000000  1
  Sb  Sb12  1  0.53102133  0.53102133  0.65012050  1
  Sb  Sb13  1  0.11909917  0.53102133  0.65012050  1
  Sb  Sb14  1  0.53102133  0.11909917  0.65012050  1
  Sb  Sb15  1  0.88090083  0.46897867  0.34987950  1
  Sb  Sb16  1  0.46897867  0.88090083  0.34987950  1
  Sb  Sb17  1  0.88090083  0.88090083  0.34987950  1
  Sb  Sb18  1  0.46897867  0.46897867  0.34987950  1
  Sb  Sb19  1  0.11909917  0.11909917  0.65012050  1
loop_
_geom_bond_atom_site_label_1
_geom_bond_atom_site_label_2
_geom_bond_distance
_geom_bond_site_symmetry_2
Ca0 Sb10 3.163044 1_555
Ca0 Sb4 3.200588 1_555
Ca0 Sb12 3.452718 1_555
Ca0 Sb13 3.452718 1_555
Ca0 Sb1 3.462485 1_555
Ca0 Sb18 3.578509 1_555
Ca0 Sb15 3.578509 1_455
Ca1 Sb11 3.163055 1_555
Ca1 Sb4 3.200577 1_655
Ca1 Sb19 3.452716 1_655
Ca1 Sb13 3.452716 1_655
Ca1 Sb3 3.462489 1_555
Ca1 Sb15 3.578511 1_555
Ca1 Sb17 3.578511 1_545
Ca2 Sb11 3.163044 1_555
Ca2 Sb4 3.200588 1_555
Ca2 Sb14 3.452718 1_555
Ca2 Sb12 3.452718 1_555
Ca2 Sb0 3.462485 1_555
Ca2 Sb18 3.578509 1_555
Ca2 Sb16 3.578509 1_545
Ca3 Sb11 3.163044 1_555
Ca3 Sb5 3.200588 1_555
Ca3 Sb18 3.452718 1_555
Ca3 Sb15 3.452718 1_555
Ca3 Sb2 3.462485 1_656
Ca3 Sb12 3.578509 1_555
Ca3 Sb13 3.578509 1_655
Ca4 Sb11 3.163055 1_555
Ca4 Sb5 3.200576 1_545
Ca4 Sb16 3.452716 1_545
Ca4 Sb17 3.452716 1_545
Ca4 Sb1 3.462489 1_656
Ca4 Sb14 3.578511 1_555
Ca4 Sb19 3.578511 1_655
Ca5 Sb10 3.163055 1_555
Ca5 Sb5 3.200577 1_455
Ca5 Sb17 3.452716 1_455
Ca5 Sb15 3.452716 1_455
Ca5 Sb0 3.462489 1_566
Ca5 Sb13 3.578511 1_555
Ca5 Sb19 3.578511 1_565
Ca6 Sb10 3.163044 1_555
Ca6 Sb5 3.200588 1_555
Ca6 Sb16 3.452718 1_555
Ca6 Sb18 3.452718 1_555
Ca6 Sb3 3.462485 1_566
Ca6 Sb12 3.578509 1_555
Ca6 Sb14 3.578509 1_565
Ca7 Sb10 3.163055 1_555
Ca7 Sb4 3.200576 1_565
Ca7 Sb14 3.452716 1_565
Ca7 Sb19 3.452716 1_565
Ca7 Sb2 3.462489 1_555
Ca7 Sb16 3.578511 1_555
Ca7 Sb17 3.578511 1_455
Ca8 Sb1 2.963153 1_555
Ca8 Sb0 2.963153 1_555
Ca8 Sb6 3.549506 1_555
Ca8 Sb4 3.569060 1_555
Ca8 Sb5 3.569060 1_444
Ca8 Sb19 3.733993 1_554
Ca8 Sb18 3.733993 1_555
Ca9 Sb1 2.963152 1_655
Ca9 Sb3 2.963152 1_555
Ca9 Sb7 3.549506 1_555
Ca9 Sb4 3.569060 1_655
Ca9 Sb5 3.569060 1_544
Ca9 Sb14 3.733993 1_554
Ca9 Sb15 3.733993 1_555
Ca10 Sb2 2.963152 1_555
Ca10 Sb0 2.963152 1_565
Ca10 Sb8 3.549506 1_555
Ca10 Sb5 3.569060 1_454
Ca10 Sb4 3.569060 1_565
Ca10 Sb16 3.733993 1_555
Ca10 Sb13 3.733993 1_554
Ca11 Sb2 2.963153 1_655
Ca11 Sb3 2.963153 1_565
Ca11 Sb9 3.549506 1_555
Ca11 Sb5 3.569060 1_554
Ca11 Sb4 3.569060 1_665
Ca11 Sb17 3.733993 1_555
Ca11 Sb12 3.733993 1_554
Ca12 Sb12 3.504492 1_555
Ca12 Sb13 3.504500 1_555
Ca12 Sb14 3.504500 1_555
Ca12 Sb19 3.504509 1_555
Ca12 Sb4 3.559343 1_555
Ca12 Sb9 3.568549 1_556
Ca12 Sb7 3.568554 1_556
Ca12 Sb8 3.568554 1_556
Ca12 Sb6 3.568559 1_556
Ca13 Sb18 3.504492 1_555
Ca13 Sb15 3.504500 1_555
Ca13 Sb16 3.504500 1_555
Ca13 Sb17 3.504509 1_555
Ca13 Sb5 3.559343 1_555
Ca13 Sb6 3.568549 1_555
Ca13 Sb8 3.568554 1_555
Ca13 Sb7 3.568554 1_555
Ca13 Sb9 3.568559 1_555
Ca14 Sb10 3.182112 1_555
Ca14 Sb12 3.197294 1_555
Ca14 Sb13 3.197303 1_555
Ca14 Sb3 3.198459 1_566
Ca14 Sb0 3.198466 1_566
Ca14 Sb9 3.468374 1_556
Ca14 Sb8 3.468379 1_556
Ca15 Sb11 3.182112 1_455
Ca15 Sb13 3.197293 1_555
Ca15 Sb19 3.197303 1_555
Ca15 Sb2 3.198459 1_556
Ca15 Sb1 3.198465 1_556
Ca15 Sb8 3.468374 1_556
Ca15 Sb6 3.468380 1_556
Ca16 Sb11 3.182112 1_555
Ca16 Sb12 3.197294 1_555
Ca16 Sb14 3.197303 1_555
Ca16 Sb2 3.198459 1_656
Ca16 Sb1 3.198466 1_656
Ca16 Sb9 3.468374 1_556
Ca16 Sb7 3.468379 1_556
Ca17 Sb11 3.182112 1_555
Ca17 Sb18 3.197294 1_555
Ca17 Sb15 3.197303 1_555
Ca17 Sb0 3.198459 1_555
Ca17 Sb3 3.198466 1_555
Ca17 Sb6 3.468374 1_555
Ca17 Sb7 3.468379 1_555
Ca18 Sb11 3.182112 1_565
Ca18 Sb16 3.197293 1_555
Ca18 Sb17 3.197303 1_555
Ca18 Sb0 3.198459 1_565
Ca18 Sb3 3.198465 1_565
Ca18 Sb8 3.468374 1_555
Ca18 Sb9 3.468380 1_555
Ca19 Sb10 3.182112 1_655
Ca19 Sb15 3.197293 1_555
Ca19 Sb17 3.197303 1_555
Ca19 Sb1 3.198459 1_655
Ca19 Sb2 3.198465 1_655
Ca19 Sb7 3.468374 1_555
Ca19 Sb9 3.468380 1_555
Ca20 Sb10 3.182112 1_555
Ca20 Sb18 3.197294 1_555
Ca20 Sb16 3.197303 1_555
Ca20 Sb1 3.198459 1_555
Ca20 Sb2 3.198466 1_555
Ca20 Sb6 3.468374 1_555
Ca20 Sb8 3.468379 1_555
Ca21 Sb10 3.182112 1_545
Ca21 Sb14 3.197293 1_555
Ca21 Sb19 3.197303 1_555
Ca21 Sb3 3.198459 1_556
Ca21 Sb0 3.198465 1_556
Ca21 Sb7 3.468374 1_556
Ca21 Sb6 3.468380 1_556
Sb6 Sb8 3.041679 1_555
Sb6 Sb7 3.041679 1_555
Sb7 Sb9 3.041679 1_555
Sb8 Sb9 3.041679 1_555
Sb12 Sb18 2.990677 1_555
Sb12 Sb9 3.305233 1_556
Sb13 Sb15 2.990677 1_455
Sb13 Sb8 3.305233 1_556
Sb14 Sb16 2.990678 1_545
Sb14 Sb7 3.305233 1_556
Sb15 Sb7 3.305233 1_555
Sb16 Sb8 3.305233 1_555
Sb17 Sb19 2.990677 1_665
Sb17 Sb9 3.305233 1_555
Sb18 Sb6 3.305233 1_555
Sb19 Sb6 3.305233 1_556
