# generated using pymatgen
data_Mg16Al12F
_symmetry_space_group_name_H-M   'P 1'
_cell_length_a   9.09075898
_cell_length_b   9.09075898
_cell_length_c   9.08371629
_cell_angle_alpha   70.48889526
_cell_angle_beta   70.48889526
_cell_angle_gamma   108.56152379
_symmetry_Int_Tables_number   1
_chemical_formula_structural   Mg16Al12F
_chemical_formula_sum   'Mg16 Al12 F1'
_cell_volume   583.68951890
_cell_formula_units_Z   1
loop_
 _symmetry_equiv_pos_site_id
 _symmetry_equiv_pos_as_xyz
  1  'x, y, z'
loop_
 _atom_site_type_symbol
 _atom_site_label
 _atom_site_symmetry_multiplicity
 _atom_site_fract_x
 _atom_site_fract_y
 _atom_site_fract_z
 _atom_site_occupancy
  Mg  Mg0  1  0.49932900  0.49932900  0.31693700  1
  Mg  Mg1  1  0.98828900  0.98828900  0.02349000  1
  Mg  Mg2  1  0.70067500  0.70067500  0.70955900  1
  Mg  Mg3  1  0.01204500  0.01204500  0.66120900  1
  Mg  Mg4  1  0.33994800  0.59157000  0.01730100  1
  Mg  Mg5  1  0.42172400  0.71151500  0.58825500  1
  Mg  Mg6  1  0.99792300  0.31313100  0.41328900  1
  Mg  Mg7  1  0.01347800  0.35686800  0.00601600  1
  Mg  Mg8  1  0.60218000  0.00176300  0.69038800  1
  Mg  Mg9  1  0.28437500  0.69357700  0.32187400  1
  Mg  Mg10  1  0.69357700  0.28437500  0.32187400  1
  Mg  Mg11  1  0.00176300  0.60218000  0.69038800  1
  Mg  Mg12  1  0.35686800  0.01347800  0.00601600  1
  Mg  Mg13  1  0.31313100  0.99792300  0.41328900  1
  Mg  Mg14  1  0.71151500  0.42172400  0.58825500  1
  Mg  Mg15  1  0.59157000  0.33994800  0.01730100  1
  Al  Al0  1  0.16818000  0.16818000  0.19938700  1
  Al  Al1  1  0.36178100  0.36178100  0.83510500  1
  Al  Al2  1  0.17582900  0.36455600  0.64842600  1
  Al  Al3  1  0.65540900  0.84429900  0.99092200  1
  Al  Al4  1  0.80902400  0.99963300  0.37064000  1
  Al  Al5  1  0.63314400  0.01900000  0.18525900  1
  Al  Al6  1  0.81612000  0.20654600  0.81523700  1
  Al  Al7  1  0.20654600  0.81612000  0.81523700  1
  Al  Al8  1  0.01900000  0.63314400  0.18525900  1
  Al  Al9  1  0.99963300  0.80902400  0.37064000  1
  Al  Al10  1  0.84429900  0.65540900  0.99092200  1
  Al  Al11  1  0.36455600  0.17582900  0.64842600  1
  F  F0  1  0.41812100  0.41812100  0.15916100  1
loop_
_geom_bond_atom_site_label_1
_geom_bond_atom_site_label_2
_geom_bond_distance
_geom_bond_site_symmetry_2
Mg0 Mg10 3.021585 1_555
Mg0 Mg9 3.021585 1_555
Mg1 Mg3 3.153391 1_664
Mg1 Mg12 3.230566 1_665
Mg1 Mg7 3.230566 1_665
Mg2 Mg3 3.074991 1_665
Mg2 Mg4 3.083141 1_556
Mg2 Mg5 3.099615 1_555
Mg2 Mg8 3.109651 1_565
Mg3 Mg6 2.979805 1_455
Mg4 Mg7 3.112705 1_555
Mg4 Mg9 3.138136 1_555
Mg4 Mg6 3.232662 1_455
Mg4 Mg8 3.259070 1_564
Mg5 Mg9 3.097226 1_555
Mg5 Mg8 3.226458 1_565
Mg6 Mg8 3.162182 1_555
Mg6 Mg9 3.214903 1_655
Mg10 Mg7 3.011138 1_655
Mg10 Mg8 3.087863 1_555
Mg10 Mg14 3.097226 1_555
Mg10 Mg6 3.103531 1_555
Mg10 Mg15 3.138136 1_555
Mg10 Mg13 3.214903 1_545
Mg11 Mg7 3.047775 1_556
Mg11 Mg9 3.087863 1_555
Mg11 Mg2 3.109651 1_455
Mg11 Mg13 3.162182 1_555
Mg11 Mg14 3.226458 1_455
Mg11 Mg15 3.259070 1_456
Mg11 Mg5 3.320578 1_555
Mg12 Mg9 3.011138 1_545
Mg12 Mg8 3.047775 1_554
Mg12 Mg15 3.112705 1_555
Mg13 Mg3 2.979805 1_565
Mg13 Mg9 3.103531 1_555
Mg13 Mg5 3.193727 1_555
Mg13 Mg15 3.232662 1_565
Mg14 Mg2 3.099615 1_555
Mg14 Mg6 3.193727 1_555
Mg14 Mg8 3.320578 1_555
Mg15 Mg2 3.083141 1_554
Al0 F0 2.462297 1_555
Al0 Al9 2.694075 1_445
Al0 Al4 2.694075 1_445
Al0 Al1 2.718886 1_554
Al0 Mg6 2.984487 1_455
Al0 Mg13 2.984487 1_545
Al0 Mg7 3.029662 1_555
Al0 Mg12 3.029662 1_555
Al0 Mg1 3.112852 1_445
Al1 Al11 2.765347 1_555
Al1 Al2 2.765347 1_555
Al1 Mg14 2.958358 1_555
Al1 Mg5 2.958358 1_555
Al1 Mg12 3.002998 1_556
Al1 Mg7 3.002998 1_556
Al1 Mg4 3.081579 1_556
Al1 Mg15 3.081579 1_556
Al1 Mg2 3.089799 1_555
Al1 Mg1 3.298971 1_446
Al2 Al6 2.701536 1_455
Al2 Mg0 2.922900 1_555
Al2 Mg5 2.964396 1_555
Al2 Mg9 2.993035 1_555
Al2 Mg3 3.016298 1_555
Al2 Mg7 3.051983 1_556
Al2 Mg11 3.104670 1_555
Al2 Mg6 3.144754 1_455
Al2 Mg1 3.291989 1_446
Al3 Al6 2.719354 1_565
Al3 Al5 2.741942 1_566
Al3 Mg8 2.906715 1_565
Al3 Mg4 2.922095 1_556
Al3 Mg0 2.962219 1_556
Al3 Mg3 3.020298 1_665
Al3 Mg1 3.048484 1_556
Al3 Mg9 3.134468 1_556
Al3 Mg2 3.205443 1_555
Al4 Al5 2.683798 1_565
Al4 Al9 2.813646 1_555
Al4 Mg8 2.895659 1_565
Al4 Mg2 2.918153 1_555
Al4 Mg5 3.030782 1_555
Al4 Mg10 3.045041 1_565
Al4 Mg6 3.047502 1_565
Al4 Mg1 3.082517 1_555
Al4 Mg7 3.135508 1_665
Al5 Al6 2.757374 1_554
Al5 Mg13 2.853995 1_545
Al5 Mg15 3.016128 1_555
Al5 Mg10 3.045194 1_555
Al5 Mg9 3.048329 1_545
Al5 Mg5 3.154834 1_545
Al5 Mg7 3.190225 1_655
Al5 Mg1 3.215521 1_545
Al6 Mg14 2.963404 1_555
Al6 Mg8 3.018765 1_555
Al6 Mg11 3.033567 1_655
Al6 Mg15 3.093040 1_556
Al6 Mg6 3.096440 1_555
Al6 Mg7 3.191781 1_656
Al6 Mg3 3.201442 1_655
Al6 Mg1 3.378259 1_546
Al7 Al8 2.757374 1_556
Al7 Mg5 2.963404 1_555
Al7 Mg11 3.018765 1_555
Al7 Mg8 3.033567 1_565
Al7 Mg4 3.093040 1_556
Al7 Mg13 3.096440 1_555
Al7 Mg12 3.191781 1_566
Al7 Mg3 3.201442 1_565
Al7 Mg1 3.378259 1_456
Al8 Al9 2.683798 1_455
Al8 Mg6 2.853995 1_455
Al8 Mg4 3.016128 1_555
Al8 Mg9 3.045194 1_555
Al8 Mg10 3.048329 1_455
Al8 Mg14 3.154834 1_455
Al8 Mg12 3.190225 1_565
Al8 Mg1 3.215521 1_455
Al9 Mg11 2.895659 1_655
Al9 Mg2 2.918153 1_555
Al9 Mg14 3.030782 1_555
Al9 Mg9 3.045041 1_655
Al9 Mg13 3.047502 1_655
Al9 Mg1 3.082517 1_555
Al9 Mg12 3.135508 1_665
Al10 Al7 2.719354 1_655
Al10 Al8 2.741942 1_656
Al10 Al3 2.788271 1_555
Al10 Mg11 2.906715 1_655
Al10 Mg15 2.922095 1_556
Al10 Mg0 2.962219 1_556
Al10 Mg3 3.020298 1_665
Al10 Mg1 3.048484 1_556
Al10 Mg10 3.134468 1_556
Al10 Mg2 3.205443 1_555
Al11 Al7 2.701536 1_545
Al11 Al2 2.785865 1_555
Al11 Mg0 2.922900 1_555
Al11 Mg14 2.964396 1_555
Al11 Mg10 2.993035 1_555
Al11 Mg3 3.016298 1_555
Al11 Mg12 3.051983 1_556
Al11 Mg8 3.104670 1_555
Al11 Mg13 3.144754 1_545
Al11 Mg1 3.291989 1_446
F0 Mg0 2.051968 1_555
F0 Mg4 2.149338 1_555
F0 Mg15 2.149338 1_555
