# generated using pymatgen
data_RbLiMg30O31
_symmetry_space_group_name_H-M   'P 1'
_cell_length_a   8.59537200
_cell_length_b   8.64197200
_cell_length_c   8.67973000
_cell_angle_alpha   90.00000000
_cell_angle_beta   90.00000000
_cell_angle_gamma   90.00000000
_symmetry_Int_Tables_number   1
_chemical_formula_structural   RbLiMg30O31
_chemical_formula_sum   'Rb1 Li1 Mg30 O31'
_cell_volume   644.73871299
_cell_formula_units_Z   1
loop_
 _symmetry_equiv_pos_site_id
 _symmetry_equiv_pos_as_xyz
  1  'x, y, z'
loop_
 _atom_site_type_symbol
 _atom_site_label
 _atom_site_symmetry_multiplicity
 _atom_site_fract_x
 _atom_site_fract_y
 _atom_site_fract_z
 _atom_site_occupancy
  Rb  Rb0  1  0.50000000  0.99138000  0.50000000  1
  Li  Li0  1  0.00000000  0.99466800  0.00000000  1
  Mg  Mg0  1  0.00000000  0.97779500  0.50000000  1
  Mg  Mg1  1  0.50000000  0.99851400  0.00000000  1
  Mg  Mg2  1  0.00000000  0.50133500  0.00000000  1
  Mg  Mg3  1  0.00000000  0.51951300  0.50000000  1
  Mg  Mg4  1  0.50000000  0.50110000  0.00000000  1
  Mg  Mg5  1  0.50000000  0.49733000  0.50000000  1
  Mg  Mg6  1  0.75582900  0.00256600  0.75717100  1
  Mg  Mg7  1  0.75582900  0.00256600  0.24282900  1
  Mg  Mg8  1  0.24417100  0.00256600  0.75717100  1
  Mg  Mg9  1  0.24417100  0.00256600  0.24282900  1
  Mg  Mg10  1  0.75132400  0.49853200  0.75179200  1
  Mg  Mg11  1  0.75132400  0.49853200  0.24820800  1
  Mg  Mg12  1  0.24867600  0.49853200  0.75179200  1
  Mg  Mg13  1  0.24867600  0.49853200  0.24820800  1
  Mg  Mg14  1  0.00000000  0.24262800  0.77473000  1
  Mg  Mg15  1  0.00000000  0.24262800  0.22527000  1
  Mg  Mg16  1  0.50000000  0.25072300  0.75816900  1
  Mg  Mg17  1  0.50000000  0.25072300  0.24183100  1
  Mg  Mg18  1  0.00000000  0.75572100  0.75717400  1
  Mg  Mg19  1  0.00000000  0.75572100  0.24282600  1
  Mg  Mg20  1  0.50000000  0.74731600  0.75542600  1
  Mg  Mg21  1  0.50000000  0.74731600  0.24457400  1
  Mg  Mg22  1  0.74943900  0.24741900  0.00000000  1
  Mg  Mg23  1  0.73020000  0.25191700  0.50000000  1
  Mg  Mg24  1  0.25056100  0.24741900  0.00000000  1
  Mg  Mg25  1  0.26980000  0.25191700  0.50000000  1
  Mg  Mg26  1  0.75201800  0.75428500  0.00000000  1
  Mg  Mg27  1  0.74888300  0.74241300  0.50000000  1
  Mg  Mg28  1  0.24798200  0.75428500  0.00000000  1
  Mg  Mg29  1  0.25111700  0.74241300  0.50000000  1
  O  O0  1  0.00000000  0.26087200  0.00000000  1
  O  O1  1  0.50000000  0.25784700  0.00000000  1
  O  O2  1  0.50000000  0.27617600  0.50000000  1
  O  O3  1  0.00000000  0.74014600  0.00000000  1
  O  O4  1  0.00000000  0.74756700  0.50000000  1
  O  O5  1  0.50000000  0.74383300  0.00000000  1
  O  O6  1  0.50000000  0.71617200  0.50000000  1
  O  O7  1  0.75440700  0.25163300  0.74769700  1
  O  O8  1  0.75440700  0.25163300  0.25230300  1
  O  O9  1  0.24559300  0.25163300  0.74769700  1
  O  O10  1  0.24559300  0.25163300  0.25230300  1
  O  O11  1  0.75084300  0.75067300  0.74568400  1
  O  O12  1  0.75084300  0.75067300  0.25431600  1
  O  O13  1  0.24915700  0.75067300  0.74568400  1
  O  O14  1  0.24915700  0.75067300  0.25431600  1
  O  O15  1  0.00000000  0.00253800  0.74699600  1
  O  O16  1  0.00000000  0.00253800  0.25300400  1
  O  O17  1  0.50000000  0.00331900  0.77790600  1
  O  O18  1  0.50000000  0.00331900  0.22209400  1
  O  O19  1  0.00000000  0.49302900  0.74331300  1
  O  O20  1  0.00000000  0.49302900  0.25668700  1
  O  O21  1  0.50000000  0.49816500  0.75396300  1
  O  O22  1  0.50000000  0.49816500  0.24603700  1
  O  O23  1  0.75101200  0.00099400  0.00000000  1
  O  O24  1  0.78325400  0.02335000  0.50000000  1
  O  O25  1  0.24898800  0.00099400  0.00000000  1
  O  O26  1  0.21674600  0.02335000  0.50000000  1
  O  O27  1  0.75179500  0.50059700  0.00000000  1
  O  O28  1  0.76220500  0.49165300  0.50000000  1
  O  O29  1  0.24820500  0.50059700  0.00000000  1
  O  O30  1  0.23779500  0.49165300  0.50000000  1
loop_
_geom_bond_atom_site_label_1
_geom_bond_atom_site_label_2
_geom_bond_distance
_geom_bond_site_symmetry_2
Li0 O23 2.140843 1_465
Li0 O25 2.140843 1_565
Li0 O15 2.197059 1_564
Li0 O16 2.197059 1_565
Li0 O3 2.199572 1_555
Li0 O0 2.300528 1_565
Mg0 O26 1.904154 1_565
Mg0 O24 1.904154 1_465
Mg0 O4 1.989624 1_555
Mg0 O15 2.154496 1_565
Mg0 O16 2.154496 1_565
Mg1 O18 1.928163 1_565
Mg1 O17 1.928163 1_564
Mg1 O25 2.157648 1_565
Mg1 O23 2.157648 1_565
Mg1 O5 2.200946 1_555
Mg1 O1 2.241149 1_565
Mg2 O3 2.063798 1_555
Mg2 O0 2.078075 1_555
Mg2 O29 2.133424 1_555
Mg2 O27 2.133424 1_455
Mg2 O19 2.229130 1_554
Mg2 O20 2.229130 1_555
Mg3 O4 1.970836 1_555
Mg3 O30 2.058068 1_555
Mg3 O28 2.058068 1_455
Mg3 O19 2.124257 1_555
Mg3 O20 2.124257 1_555
Mg4 O5 2.097692 1_555
Mg4 O1 2.102186 1_555
Mg4 O22 2.135685 1_555
Mg4 O21 2.135685 1_554
Mg4 O27 2.164276 1_555
Mg4 O29 2.164276 1_555
Mg5 O6 1.891226 1_555
Mg5 O2 1.911207 1_555
Mg5 O21 2.204342 1_555
Mg5 O22 2.204342 1_555
Mg5 O28 2.254283 1_555
Mg5 O30 2.254283 1_555
Mg6 O15 2.100598 1_655
Mg6 O23 2.108141 1_556
Mg6 O7 2.154035 1_555
Mg6 O11 2.179556 1_545
Mg6 O17 2.206308 1_555
Mg6 O24 2.251762 1_555
Mg7 O16 2.100598 1_655
Mg7 O23 2.108141 1_555
Mg7 O8 2.154035 1_555
Mg7 O12 2.179556 1_545
Mg7 O18 2.206308 1_555
Mg7 O24 2.251762 1_555
Mg8 O15 2.100598 1_555
Mg8 O25 2.108141 1_556
Mg8 O9 2.154035 1_555
Mg8 O13 2.179556 1_545
Mg8 O17 2.206308 1_555
Mg8 O26 2.251762 1_555
Mg9 O16 2.100598 1_555
Mg9 O25 2.108141 1_555
Mg9 O10 2.154035 1_555
Mg9 O14 2.179556 1_545
Mg9 O18 2.206308 1_555
Mg9 O26 2.251762 1_555
Mg10 O7 2.134155 1_555
Mg10 O19 2.139258 1_655
Mg10 O27 2.154456 1_556
Mg10 O21 2.160308 1_555
Mg10 O11 2.179644 1_555
Mg10 O28 2.188294 1_555
Mg11 O8 2.134155 1_555
Mg11 O20 2.139258 1_655
Mg11 O27 2.154456 1_555
Mg11 O22 2.160308 1_555
Mg11 O12 2.179644 1_555
Mg11 O28 2.188294 1_555
Mg12 O9 2.134155 1_555
Mg12 O19 2.139258 1_555
Mg12 O29 2.154456 1_556
Mg12 O21 2.160308 1_555
Mg12 O13 2.179644 1_555
Mg12 O30 2.188294 1_555
Mg13 O10 2.134155 1_555
Mg13 O20 2.139258 1_555
Mg13 O29 2.154456 1_555
Mg13 O22 2.160308 1_555
Mg13 O14 2.179644 1_555
Mg13 O30 2.188294 1_555
Mg14 O0 1.961629 1_556
Mg14 O15 2.088769 1_555
Mg14 O9 2.125389 1_555
Mg14 O7 2.125389 1_455
Mg14 O19 2.181072 1_555
Mg15 O0 1.961629 1_555
Mg15 O16 2.088769 1_555
Mg15 O10 2.125389 1_555
Mg15 O8 2.125389 1_455
Mg15 O20 2.181072 1_555
Mg16 O1 2.099930 1_556
Mg16 O21 2.138698 1_555
Mg16 O17 2.144911 1_555
Mg16 O7 2.188625 1_555
Mg16 O9 2.188625 1_555
Mg16 O2 2.251607 1_555
Mg17 O1 2.099930 1_555
Mg17 O22 2.138698 1_555
Mg17 O18 2.144911 1_555
Mg17 O8 2.188625 1_555
Mg17 O10 2.188625 1_555
Mg17 O2 2.251607 1_555
Mg18 O3 2.111958 1_556
Mg18 O15 2.134814 1_565
Mg18 O13 2.144362 1_555
Mg18 O11 2.144362 1_455
Mg18 O4 2.233313 1_555
Mg18 O19 2.273363 1_555
Mg19 O3 2.111958 1_555
Mg19 O16 2.134814 1_565
Mg19 O14 2.144362 1_555
Mg19 O12 2.144362 1_455
Mg19 O4 2.233313 1_555
Mg19 O20 2.273363 1_555
Mg20 O5 2.123050 1_556
Mg20 O21 2.153193 1_555
Mg20 O11 2.157941 1_555
Mg20 O13 2.157941 1_555
Mg20 O17 2.220958 1_565
Mg20 O6 2.233306 1_555
Mg21 O5 2.123050 1_555
Mg21 O22 2.153193 1_555
Mg21 O12 2.157941 1_555
Mg21 O14 2.157941 1_555
Mg21 O18 2.220958 1_565
Mg21 O6 2.233306 1_555
Mg22 O23 2.129641 1_555
Mg22 O1 2.145914 1_555
Mg22 O0 2.156801 1_655
Mg22 O27 2.188051 1_555
Mg22 O8 2.190641 1_555
Mg22 O7 2.190641 1_554
Mg23 O2 1.989730 1_555
Mg23 O24 2.027226 1_555
Mg23 O28 2.089976 1_555
Mg23 O7 2.159989 1_555
Mg23 O8 2.159989 1_555
Mg24 O25 2.129641 1_555
Mg24 O1 2.145914 1_555
Mg24 O0 2.156801 1_555
Mg24 O29 2.188051 1_555
Mg24 O10 2.190641 1_555
Mg24 O9 2.190641 1_554
Mg25 O2 1.989730 1_555
Mg25 O26 2.027226 1_555
Mg25 O30 2.089976 1_555
Mg25 O9 2.159989 1_555
Mg25 O10 2.159989 1_555
Mg26 O23 2.132070 1_565
Mg26 O3 2.134997 1_655
Mg26 O5 2.168071 1_555
Mg26 O27 2.192365 1_555
Mg26 O11 2.207638 1_554
Mg26 O12 2.207638 1_555
Mg27 O12 2.133732 1_555
Mg27 O11 2.133732 1_555
Mg27 O6 2.151228 1_555
Mg27 O4 2.158904 1_655
Mg27 O28 2.170084 1_555
Mg27 O24 2.445758 1_565
Mg28 O25 2.132070 1_565
Mg28 O3 2.134997 1_555
Mg28 O5 2.168071 1_555
Mg28 O29 2.192365 1_555
Mg28 O14 2.207638 1_555
Mg28 O13 2.207638 1_554
Mg29 O13 2.133732 1_555
Mg29 O14 2.133732 1_555
Mg29 O6 2.151228 1_555
Mg29 O4 2.158904 1_555
Mg29 O30 2.170084 1_555
Mg29 O26 2.445758 1_565
O2 Rb0 2.461199 1_545
O6 Rb0 2.378340 1_555
O17 Rb0 2.414355 1_545
O18 Rb0 2.414355 1_545
O24 Rb0 2.450300 1_545
O26 Rb0 2.450300 1_545
