# generated using pymatgen
data_YTlPd
_symmetry_space_group_name_H-M   'P 1'
_cell_length_a   7.79553712
_cell_length_b   7.79553695
_cell_length_c   3.79440607
_cell_angle_alpha   90.00000000
_cell_angle_beta   90.00000000
_cell_angle_gamma   119.99999639
_symmetry_Int_Tables_number   1
_chemical_formula_structural   YTlPd
_chemical_formula_sum   'Y3 Tl3 Pd3'
_cell_volume   199.69469701
_cell_formula_units_Z   3
loop_
 _symmetry_equiv_pos_site_id
 _symmetry_equiv_pos_as_xyz
  1  'x, y, z'
loop_
 _atom_site_type_symbol
 _atom_site_label
 _atom_site_symmetry_multiplicity
 _atom_site_fract_x
 _atom_site_fract_y
 _atom_site_fract_z
 _atom_site_occupancy
  Y  Y0  1  1.00000000  0.59723453  0.50000000  1
  Y  Y1  1  0.40276547  0.40276547  0.50000000  1
  Y  Y2  1  0.59723453  1.00000000  0.50000000  1
  Tl  Tl0  1  1.00000000  0.26716824  0.00000000  1
  Tl  Tl1  1  0.26716824  1.00000000  0.00000000  1
  Tl  Tl2  1  0.73283176  0.73283176  -0.00000000  1
  Pd  Pd0  1  0.33333300  0.66666700  -0.00000000  1
  Pd  Pd1  1  -0.00000000  -0.00000000  0.50000000  1
  Pd  Pd2  1  0.66666700  0.33333300  0.00000000  1
loop_
_geom_bond_atom_site_label_1
_geom_bond_atom_site_label_2
_geom_bond_distance
_geom_bond_site_symmetry_2
Tl0 Y0 3.196863 1_554
Tl0 Y0 3.196863 1_555
Tl0 Y1 3.354998 1_655
Tl0 Y1 3.354998 1_654
Tl0 Y2 3.354998 1_544
Tl0 Y2 3.354998 1_545
Tl1 Y2 3.196863 1_555
Tl1 Y2 3.196863 1_554
Tl1 Y1 3.354998 1_564
Tl1 Y1 3.354998 1_565
Tl1 Y0 3.354998 1_455
Tl1 Y0 3.354998 1_454
Tl2 Y1 3.196863 1_554
Tl2 Y1 3.196863 1_555
Tl2 Y2 3.354998 1_554
Tl2 Y2 3.354998 1_555
Tl2 Y0 3.354998 1_554
Tl2 Y0 3.354998 1_555
Pd0 Tl1 2.891120 1_555
Pd0 Tl0 2.891125 1_455
Pd0 Tl2 2.891128 1_555
Pd0 Y0 3.039428 1_455
Pd0 Y0 3.039428 1_454
Pd0 Y2 3.039430 1_554
Pd0 Y2 3.039430 1_555
Pd0 Y1 3.039434 1_554
Pd0 Y1 3.039434 1_555
Pd1 Tl0 2.817286 1_456
Pd1 Tl0 2.817286 1_455
Pd1 Tl1 2.817286 1_545
Pd1 Tl1 2.817286 1_546
Pd1 Tl2 2.817286 1_445
Pd1 Tl2 2.817286 1_446
Pd1 Y0 3.139773 1_445
Pd1 Y2 3.139773 1_445
Pd1 Y1 3.139773 1_555
Pd2 Tl0 2.891120 1_555
Pd2 Tl1 2.891125 1_545
Pd2 Tl2 2.891128 1_555
Pd2 Y2 3.039428 1_544
Pd2 Y2 3.039428 1_545
Pd2 Y0 3.039430 1_555
Pd2 Y0 3.039430 1_554
Pd2 Y1 3.039434 1_555
Pd2 Y1 3.039434 1_554
