# generated using pymatgen
data_CeMnSi2Pd
_symmetry_space_group_name_H-M   'P 1'
_cell_length_a   5.74350051
_cell_length_b   5.74350051
_cell_length_c   5.74350051
_cell_angle_alpha   138.17522271
_cell_angle_beta   138.17522271
_cell_angle_gamma   60.63474266
_symmetry_Int_Tables_number   1
_chemical_formula_structural   CeMnSi2Pd
_chemical_formula_sum   'Ce1 Mn1 Si2 Pd1'
_cell_volume   83.35146318
_cell_formula_units_Z   1
loop_
 _symmetry_equiv_pos_site_id
 _symmetry_equiv_pos_as_xyz
  1  'x, y, z'
loop_
 _atom_site_type_symbol
 _atom_site_label
 _atom_site_symmetry_multiplicity
 _atom_site_fract_x
 _atom_site_fract_y
 _atom_site_fract_z
 _atom_site_occupancy
  Ce  Ce0  1  0.00000000  0.00000000  0.00000000  1
  Mn  Mn0  1  0.75000000  0.25000000  0.50000000  1
  Si  Si0  1  0.62471100  0.62471100  0.00000000  1
  Si  Si1  1  0.37528900  0.37528900  0.00000000  1
  Pd  Pd0  1  0.25000000  0.75000000  0.50000000  1
loop_
_geom_bond_atom_site_label_1
_geom_bond_atom_site_label_2
_geom_bond_distance
_geom_bond_site_symmetry_2
Ce0 Si1 3.151981 1_444
Ce0 Si1 3.151981 1_455
Ce0 Si0 3.151981 1_556
Ce0 Si1 3.151981 1_545
Ce0 Si1 3.151981 1_556
Ce0 Si0 3.151981 1_455
Ce0 Si0 3.151981 1_444
Ce0 Si0 3.151981 1_545
Ce0 Pd0 3.216889 1_555
Ce0 Mn0 3.216889 1_455
Ce0 Mn0 3.216889 1_454
Ce0 Pd0 3.216889 1_545
Ce0 Pd0 3.216889 1_444
Ce0 Mn0 3.216889 1_444
Ce0 Pd0 3.216889 1_544
Ce0 Mn0 3.216889 1_555
Mn0 Si1 2.397153 1_656
Mn0 Si0 2.397153 1_545
Mn0 Si0 2.397153 1_556
Mn0 Si1 2.397153 1_555
Mn0 Pd0 2.899258 1_544
Mn0 Pd0 2.899258 1_645
Mn0 Pd0 2.899258 1_555
Mn0 Pd0 2.899258 1_656
Si0 Si1 2.473286 1_555
Pd0 Si0 2.397153 1_556
Pd0 Si1 2.397153 1_555
Pd0 Si0 2.397153 1_455
Pd0 Si1 2.397153 1_566
