# generated using pymatgen
data_DyNiB4
_symmetry_space_group_name_H-M   'P 1'
_cell_length_a   6.82360800
_cell_length_b   6.82360800
_cell_length_c   6.82360800
_cell_angle_alpha   112.95338521
_cell_angle_beta   112.95338521
_cell_angle_gamma   102.71113647
_symmetry_Int_Tables_number   1
_chemical_formula_structural   DyNiB4
_chemical_formula_sum   'Dy4 Ni4 B16'
_cell_volume   242.06785456
_cell_formula_units_Z   4
loop_
 _symmetry_equiv_pos_site_id
 _symmetry_equiv_pos_as_xyz
  1  'x, y, z'
loop_
 _atom_site_type_symbol
 _atom_site_label
 _atom_site_symmetry_multiplicity
 _atom_site_fract_x
 _atom_site_fract_y
 _atom_site_fract_z
 _atom_site_occupancy
  Dy  Dy0  1  0.79745900  0.79745900  0.00000000  1
  Dy  Dy1  1  0.20254100  0.20254100  0.00000000  1
  Dy  Dy2  1  0.75000000  0.25000000  0.50000000  1
  Dy  Dy3  1  0.25000000  0.75000000  0.50000000  1
  Ni  Ni0  1  0.27151700  0.50000000  0.77151700  1
  Ni  Ni1  1  0.72848300  0.50000000  0.22848300  1
  Ni  Ni2  1  0.50000000  0.72848300  0.22848300  1
  Ni  Ni3  1  0.50000000  0.27151700  0.77151700  1
  B  B0  1  0.27515400  0.11141400  0.38656800  1
  B  B1  1  0.72484600  0.88858600  0.61343200  1
  B  B2  1  0.27515400  0.88858600  0.16374000  1
  B  B3  1  0.72484600  0.11141400  0.83626000  1
  B  B4  1  0.11141400  0.72484600  0.83626000  1
  B  B5  1  0.88858600  0.27515400  0.16374000  1
  B  B6  1  0.11141400  0.27515400  0.38656800  1
  B  B7  1  0.88858600  0.72484600  0.61343200  1
  B  B8  1  0.11424900  0.11424900  0.53402500  1
  B  B9  1  0.58022300  0.58022300  0.46597500  1
  B  B10  1  0.11424900  0.58022300  0.00000000  1
  B  B11  1  0.58022300  0.11424900  0.00000000  1
  B  B12  1  0.88575100  0.88575100  0.46597500  1
  B  B13  1  0.41977700  0.41977700  0.53402500  1
  B  B14  1  0.88575100  0.41977700  0.00000000  1
  B  B15  1  0.41977700  0.88575100  0.00000000  1
loop_
_geom_bond_atom_site_label_1
_geom_bond_atom_site_label_2
_geom_bond_distance
_geom_bond_site_symmetry_2
Dy0 Ni0 3.064679 1_554
Dy0 Ni3 3.064679 1_554
Dy0 Ni1 3.064679 1_555
Dy0 Ni2 3.064679 1_555
Dy1 Ni1 3.064679 1_555
Dy1 Ni2 3.064679 1_555
Dy1 Ni0 3.064679 1_554
Dy1 Ni3 3.064679 1_554
Dy2 Ni1 2.954223 1_555
Dy2 Ni3 2.954223 1_555
Dy2 Ni0 2.954223 1_655
Dy2 Ni2 2.954223 1_545
Dy3 Ni1 2.954223 1_455
Dy3 Ni3 2.954223 1_565
Dy3 Ni2 2.954223 1_555
Dy3 Ni0 2.954223 1_555
B0 B2 1.679462 1_545
B0 B6 1.745300 1_555
B0 B8 1.753317 1_555
B0 B13 1.753323 1_555
B0 Ni3 2.080394 1_555
B0 Dy1 2.825878 1_555
B0 Dy0 2.825878 1_445
B0 Dy2 2.848966 1_555
B0 Dy3 2.848966 1_545
B1 B3 1.679462 1_565
B1 B7 1.745300 1_555
B1 B12 1.753317 1_555
B1 B9 1.753323 1_555
B1 Ni2 2.080394 1_555
B1 Dy0 2.825878 1_556
B1 Dy1 2.825878 1_666
B1 Dy3 2.848966 1_555
B1 Dy2 2.848966 1_565
B2 B4 1.745300 1_554
B2 Ni2 2.080394 1_555
B2 Dy0 2.825878 1_455
B2 Dy1 2.825878 1_565
B2 Dy3 2.848966 1_555
B2 Dy2 2.848966 1_565
B3 B5 1.745300 1_556
B3 Ni3 2.080394 1_555
B3 Dy0 2.825878 1_546
B3 Dy1 2.825878 1_656
B3 Dy2 2.848966 1_555
B3 Dy3 2.848966 1_545
B4 B7 1.679462 1_455
B4 Ni0 2.080394 1_555
B4 Dy0 2.825878 1_456
B4 Dy1 2.825878 1_566
B4 Dy3 2.848966 1_555
B4 Dy2 2.848966 1_455
B5 B6 1.679462 1_655
B5 Ni1 2.080394 1_555
B5 Dy0 2.825878 1_545
B5 Dy1 2.825878 1_655
B5 Dy3 2.848966 1_655
B5 Dy2 2.848966 1_555
B6 B8 1.753317 1_555
B6 Ni0 2.080394 1_555
B6 Dy0 2.825878 1_445
B6 Dy1 2.825878 1_555
B6 Dy3 2.848966 1_555
B6 Dy2 2.848966 1_455
B7 B9 1.753323 1_555
B7 Ni1 2.080394 1_555
B7 Dy0 2.825878 1_556
B7 Dy1 2.825878 1_666
B7 Dy3 2.848966 1_655
B7 Dy2 2.848966 1_555
B8 Ni3 2.186279 1_555
B8 Ni0 2.186279 1_555
B8 Dy1 2.772726 1_556
B8 Dy2 2.796512 1_455
B8 Dy3 2.796512 1_545
B8 Dy0 2.877522 1_445
B9 Ni1 2.186285 1_555
B9 Ni2 2.186285 1_555
B9 Dy1 2.772722 1_555
B9 Dy3 2.796509 1_555
B9 Dy2 2.796509 1_555
B9 Dy0 2.877521 1_556
B10 B14 1.696604 1_455
B10 B4 1.753322 1_554
B10 B2 1.753322 1_555
B10 Ni0 2.186279 1_554
B10 Ni2 2.186279 1_555
B10 Dy1 2.772719 1_555
B10 Dy2 2.796511 1_454
B10 Dy3 2.796511 1_555
B10 Dy0 2.877527 1_455
B11 B15 1.696604 1_545
B11 B5 1.753322 1_555
B11 B3 1.753322 1_554
B11 Ni1 2.186279 1_555
B11 Ni3 2.186279 1_554
B11 Dy1 2.772719 1_555
B11 Dy2 2.796511 1_555
B11 Dy3 2.796511 1_544
B11 Dy0 2.877527 1_545
B12 B8 1.696610 1_665
B12 B7 1.753317 1_555
B12 Ni2 2.186279 1_555
B12 Ni1 2.186279 1_555
B12 Dy0 2.772726 1_555
B12 Dy2 2.796512 1_565
B12 Dy3 2.796512 1_655
B12 Dy1 2.877522 1_666
B13 B9 1.696593 1_555
B13 B6 1.753323 1_555
B13 Ni3 2.186285 1_555
B13 Ni0 2.186285 1_555
B13 Dy0 2.772722 1_556
B13 Dy3 2.796509 1_555
B13 Dy2 2.796509 1_555
B13 Dy1 2.877521 1_555
B14 B3 1.753322 1_554
B14 B5 1.753322 1_555
B14 Ni1 2.186279 1_555
B14 Ni3 2.186279 1_554
B14 Dy0 2.772719 1_555
B14 Dy3 2.796511 1_655
B14 Dy2 2.796511 1_554
B14 Dy1 2.877527 1_655
B15 B4 1.753322 1_554
B15 B2 1.753322 1_555
B15 Ni0 2.186279 1_554
B15 Ni2 2.186279 1_555
B15 Dy0 2.772719 1_555
B15 Dy2 2.796511 1_565
B15 Dy3 2.796511 1_554
B15 Dy1 2.877527 1_565
