# generated using pymatgen
data_Cr2O3
_symmetry_space_group_name_H-M   'P 1'
_cell_length_a   9.98691573
_cell_length_b   9.88102457
_cell_length_c   9.75768418
_cell_angle_alpha   86.21904343
_cell_angle_beta   99.61671061
_cell_angle_gamma   90.90813879
_symmetry_Int_Tables_number   1
_chemical_formula_structural   Cr2O3
_chemical_formula_sum   'Cr32 O48'
_cell_volume   947.28859800
_cell_formula_units_Z   16
loop_
 _symmetry_equiv_pos_site_id
 _symmetry_equiv_pos_as_xyz
  1  'x, y, z'
loop_
 _atom_site_type_symbol
 _atom_site_label
 _atom_site_symmetry_multiplicity
 _atom_site_fract_x
 _atom_site_fract_y
 _atom_site_fract_z
 _atom_site_occupancy
  Cr  Cr0  1  0.89586000  0.69938300  0.60137500  1
  Cr  Cr1  1  0.68025400  0.47229400  0.45525500  1
  Cr  Cr2  1  0.13314900  0.30093800  0.86448700  1
  Cr  Cr3  1  0.31174500  0.95241500  0.34955900  1
  Cr  Cr4  1  0.39974300  0.42793900  0.13335100  1
  Cr  Cr5  1  0.79774200  0.99391300  0.20870400  1
  Cr  Cr6  1  0.28727200  0.78012900  0.71281700  1
  Cr  Cr7  1  0.28895000  0.46206300  0.65364000  1
  Cr  Cr8  1  0.32121000  0.58025000  0.41025900  1
  Cr  Cr9  1  0.59298700  0.79101800  0.99658400  1
  Cr  Cr10  1  0.86164000  0.45898900  0.80089000  1
  Cr  Cr11  1  0.96922800  0.33667400  0.13851000  1
  Cr  Cr12  1  0.68918600  0.89681200  0.44367100  1
  Cr  Cr13  1  0.51193600  0.73696600  0.27142700  1
  Cr  Cr14  1  0.11294300  0.98597500  0.81849000  1
  Cr  Cr15  1  0.58613600  0.26425100  0.72681500  1
  Cr  Cr16  1  0.60603500  0.95159100  0.72847600  1
  Cr  Cr17  1  0.89127600  0.77749500  0.95326700  1
  Cr  Cr18  1  0.06976600  0.92074500  0.50433600  1
  Cr  Cr19  1  0.11885500  0.59881500  0.92127100  1
  Cr  Cr20  1  0.25398100  0.77609800  0.08751400  1
  Cr  Cr21  1  0.98318500  0.43937400  0.47510200  1
  Cr  Cr22  1  0.08553400  0.06174300  0.13374300  1
  Cr  Cr23  1  0.67407900  0.29280600  0.04138400  1
  Cr  Cr24  1  0.85598100  0.05375800  0.91302500  1
  Cr  Cr25  1  0.55758200  0.63747000  0.65220300  1
  Cr  Cr26  1  0.75848600  0.59988800  0.19370400  1
  Cr  Cr27  1  0.29937400  0.11030400  0.62209800  1
  Cr  Cr28  1  0.39757000  0.14384400  0.00527200  1
  Cr  Cr29  1  0.21197600  0.26605800  0.35499400  1
  Cr  Cr30  1  0.87764400  0.18559400  0.59886600  1
  Cr  Cr31  1  0.55409800  0.19172400  0.37534100  1
  O  O0  1  0.19192100  0.48259800  0.78788500  1
  O  O1  1  0.48827800  0.09769800  0.66155600  1
  O  O2  1  0.93567900  0.91405300  0.81598200  1
  O  O3  1  0.04658600  0.12669500  0.92565500  1
  O  O4  1  0.73690800  0.65697100  0.99949600  1
  O  O5  1  0.05694000  0.06983700  0.62442000  1
  O  O6  1  0.20554400  0.79995100  0.87911800  1
  O  O7  1  0.69441800  0.79765500  0.21656700  1
  O  O8  1  0.27990200  0.92134000  0.55913800  1
  O  O9  1  0.27510500  0.10726600  0.82283500  1
  O  O10  1  0.57313500  0.54262600  0.22077100  1
  O  O11  1  0.24649100  0.29222100  0.57636000  1
  O  O12  1  0.52362100  0.24611600  0.16908300  1
  O  O13  1  0.11662000  0.03309400  0.33981800  1
  O  O14  1  0.03477700  0.35660600  0.32690400  1
  O  O15  1  0.93789700  0.64612700  0.80271900  1
  O  O16  1  0.31170100  0.31521100  0.98769600  1
  O  O17  1  0.30797900  0.74590900  0.29471500  1
  O  O18  1  0.44483900  0.81352000  0.08468500  1
  O  O19  1  0.47372600  0.44115200  0.70833800  1
  O  O20  1  0.81724500  0.32793400  0.46291300  1
  O  O21  1  0.83434600  0.17219700  0.08168800  1
  O  O22  1  0.16246000  0.52647800  0.49250100  1
  O  O23  1  0.71789000  0.36247600  0.86187500  1
  O  O24  1  0.88158300  0.85942200  0.46802500  1
  O  O25  1  0.32943100  0.41938000  0.30980400  1
  O  O26  1  0.08963800  0.75846600  0.61906000  1
  O  O27  1  0.35721600  0.65316600  0.60468300  1
  O  O28  1  0.01656000  0.41752600  0.95758300  1
  O  O29  1  0.53310100  0.61253500  0.45116200  1
  O  O30  1  0.67523800  0.81169300  0.62431100  1
  O  O31  1  0.74804600  0.12398200  0.72335900  1
  O  O32  1  0.74064400  0.54594400  0.63967300  1
  O  O33  1  0.26229000  0.98611700  0.13174100  1
  O  O34  1  0.50264400  0.90711500  0.36082700  1
  O  O35  1  0.05635200  0.69759900  0.06273900  1
  O  O36  1  0.49127800  0.79412900  0.79678100  1
  O  O37  1  0.55304500  0.17927200  0.91861100  1
  O  O38  1  0.92730800  0.93158600  0.08599300  1
  O  O39  1  0.14700300  0.24164900  0.16055100  1
  O  O40  1  0.79837000  0.41821900  0.15195800  1
  O  O41  1  0.84977800  0.58521800  0.41091700  1
  O  O42  1  0.29062400  0.58341700  0.05152300  1
  O  O43  1  0.71545300  0.07768300  0.37286800  1
  O  O44  1  0.71418600  0.91012700  0.90814700  1
  O  O45  1  0.57686100  0.31527500  0.51749900  1
  O  O46  1  0.96770100  0.33462400  0.70381700  1
  O  O47  1  0.36466100  0.13782000  0.40273000  1
loop_
_geom_bond_atom_site_label_1
_geom_bond_atom_site_label_2
_geom_bond_distance
_geom_bond_site_symmetry_2
Cr0 O24 1.971769 1_555
Cr0 O15 1.976890 1_555
Cr0 O26 1.995412 1_655
Cr0 O32 2.210326 1_555
Cr0 O41 2.216385 1_555
Cr0 O30 2.532055 1_555
Cr1 O45 1.968947 1_555
Cr1 O20 1.981329 1_555
Cr1 O32 1.981844 1_555
Cr1 O29 2.029584 1_555
Cr1 O41 2.102307 1_555
Cr1 O10 2.420434 1_555
Cr2 O16 1.985729 1_555
Cr2 O28 2.010470 1_555
Cr2 O3 2.014332 1_555
Cr2 O0 2.015297 1_555
Cr2 O46 2.093309 1_455
Cr2 O9 2.493655 1_555
Cr3 O34 1.948764 1_555
Cr3 O47 1.976792 1_565
Cr3 O13 2.102221 1_565
Cr3 O33 2.105539 1_555
Cr3 O8 2.123403 1_555
Cr3 O17 2.141555 1_555
Cr4 O42 1.945725 1_555
Cr4 O16 1.947817 1_554
Cr4 O25 1.961531 1_555
Cr4 O10 2.140610 1_555
Cr4 O12 2.173388 1_555
Cr5 O38 2.031626 1_555
Cr5 O43 2.136058 1_565
Cr5 O21 2.148500 1_565
Cr5 O7 2.185107 1_555
Cr6 O27 1.903599 1_555
Cr6 O6 1.956340 1_555
Cr6 O8 1.972661 1_555
Cr6 O26 2.046364 1_555
Cr6 O36 2.071146 1_555
Cr7 O0 1.778047 1_555
Cr7 O19 1.844266 1_555
Cr7 O11 1.897983 1_555
Cr7 O22 1.924327 1_555
Cr7 O27 2.051269 1_555
Cr8 O17 1.918764 1_555
Cr8 O25 1.931519 1_555
Cr8 O22 1.944740 1_555
Cr8 O27 2.047346 1_555
Cr8 O29 2.110049 1_555
Cr9 O18 1.854210 1_556
Cr9 O44 1.940300 1_555
Cr9 O4 1.965404 1_555
Cr9 O36 2.040867 1_555
Cr9 O7 2.219903 1_556
Cr10 O23 1.868622 1_555
Cr10 O32 1.972968 1_555
Cr10 O15 1.988645 1_555
Cr10 O28 2.011574 1_655
Cr10 O46 2.014751 1_555
Cr11 O14 1.867680 1_655
Cr11 O40 1.926239 1_555
Cr11 O39 1.994651 1_655
Cr11 O28 2.014763 1_654
Cr11 O21 2.136155 1_555
Cr12 O43 1.903424 1_565
Cr12 O34 1.904339 1_555
Cr12 O30 1.927810 1_555
Cr12 O24 1.934764 1_555
Cr12 O7 2.489987 1_555
Cr13 O18 1.941093 1_555
Cr13 O34 1.954888 1_555
Cr13 O7 2.053384 1_555
Cr13 O29 2.057223 1_555
Cr13 O17 2.090793 1_555
Cr13 O10 2.137442 1_555
Cr14 O2 1.894100 1_455
Cr14 O3 1.979519 1_565
Cr14 O9 1.995786 1_565
Cr14 O5 2.009810 1_565
Cr14 O6 2.076427 1_555
Cr15 O1 1.987027 1_555
Cr15 O23 1.989720 1_555
Cr15 O45 2.058346 1_555
Cr15 O19 2.073932 1_555
Cr15 O37 2.075411 1_555
Cr15 O31 2.152252 1_555
Cr16 O1 1.888539 1_565
Cr16 O44 1.922161 1_555
Cr16 O30 1.967709 1_555
Cr16 O36 2.059223 1_555
Cr16 O31 2.202582 1_565
Cr17 O2 1.937254 1_555
Cr17 O35 1.955458 1_656
Cr17 O4 2.025276 1_555
Cr17 O38 2.052315 1_556
Cr17 O15 2.135144 1_555
Cr17 O44 2.185510 1_555
Cr18 O26 1.887543 1_555
Cr18 O24 1.947936 1_455
Cr18 O5 1.960469 1_565
Cr18 O13 2.006949 1_565
Cr18 O8 2.077312 1_555
Cr19 O35 1.932045 1_556
Cr19 O42 1.958455 1_556
Cr19 O15 2.019828 1_455
Cr19 O0 2.021425 1_555
Cr19 O28 2.087412 1_555
Cr19 O6 2.196637 1_555
Cr20 O18 1.940241 1_555
Cr20 O17 2.007176 1_555
Cr20 O42 2.008791 1_555
Cr20 O6 2.009048 1_554
Cr20 O35 2.091021 1_555
Cr20 O33 2.144826 1_555
Cr21 O14 1.855725 1_655
Cr21 O22 1.960613 1_655
Cr21 O20 1.966377 1_555
Cr21 O41 1.976640 1_555
Cr21 O46 2.425163 1_555
Cr22 O39 1.891672 1_555
Cr22 O33 1.931357 1_545
Cr22 O13 1.984699 1_555
Cr22 O38 2.033893 1_445
Cr22 O3 2.063522 1_554
Cr23 O37 1.950692 1_554
Cr23 O23 1.954714 1_554
Cr23 O40 1.980064 1_555
Cr23 O21 1.981183 1_555
Cr23 O12 2.133328 1_555
Cr24 O2 1.973521 1_545
Cr24 O44 1.986067 1_545
Cr24 O3 2.011954 1_655
Cr24 O38 2.042091 1_546
Cr24 O31 2.063088 1_555
Cr24 O21 2.122651 1_556
Cr25 O29 1.967312 1_555
Cr25 O27 1.983320 1_555
Cr25 O32 2.077719 1_555
Cr25 O30 2.097439 1_555
Cr25 O19 2.173918 1_555
Cr25 O36 2.336117 1_555
Cr26 O4 1.918886 1_554
Cr26 O40 1.928781 1_555
Cr26 O10 1.981627 1_555
Cr26 O7 2.103010 1_555
Cr26 O41 2.159294 1_555
Cr27 O1 1.865833 1_555
Cr27 O11 1.885405 1_555
Cr27 O8 2.000342 1_545
Cr27 O9 2.011689 1_555
Cr27 O47 2.337696 1_555
Cr27 O5 2.451305 1_555
Cr28 O16 1.894895 1_554
Cr28 O37 1.905504 1_554
Cr28 O9 2.034419 1_554
Cr28 O12 2.159002 1_555
Cr28 O33 2.452292 1_545
Cr29 O39 1.929525 1_555
Cr29 O14 1.965490 1_555
Cr29 O47 1.973281 1_555
Cr29 O25 1.973306 1_555
Cr29 O11 2.161802 1_555
Cr29 O13 2.481134 1_555
Cr30 O20 1.901392 1_555
Cr30 O46 1.968571 1_555
Cr30 O31 1.980971 1_555
Cr30 O5 2.110658 1_655
Cr31 O45 1.890866 1_555
Cr31 O43 1.985253 1_555
Cr31 O47 2.013103 1_555
Cr31 O12 2.022353 1_555
