# generated using pymatgen
data_Cr2P2O9
_symmetry_space_group_name_H-M   'P 1'
_cell_length_a   6.35474900
_cell_length_b   7.75627341
_cell_length_c   13.77809789
_cell_angle_alpha   90.03920432
_cell_angle_beta   89.99970184
_cell_angle_gamma   89.99953994
_symmetry_Int_Tables_number   1
_chemical_formula_structural   Cr2P2O9
_chemical_formula_sum   'Cr8 P8 O36'
_cell_volume   679.11085969
_cell_formula_units_Z   4
loop_
 _symmetry_equiv_pos_site_id
 _symmetry_equiv_pos_as_xyz
  1  'x, y, z'
loop_
 _atom_site_type_symbol
 _atom_site_label
 _atom_site_symmetry_multiplicity
 _atom_site_fract_x
 _atom_site_fract_y
 _atom_site_fract_z
 _atom_site_occupancy
  Cr  Cr0  1  0.75000500  0.34853600  0.88172000  1
  Cr  Cr1  1  0.24998700  0.65142500  0.11832500  1
  Cr  Cr2  1  0.24997800  0.84886300  0.61834600  1
  Cr  Cr3  1  0.75000400  0.15117300  0.38175100  1
  Cr  Cr4  1  0.49998800  0.00003800  0.00003000  1
  Cr  Cr5  1  0.50005800  0.49998800  0.49998900  1
  Cr  Cr6  1  0.99997100  0.50002600  0.49999300  1
  Cr  Cr7  1  0.99996900  0.00006700  0.00002100  1
  P  P0  1  0.24997400  0.34755700  0.93787500  1
  P  P1  1  0.75001700  0.65243400  0.06212600  1
  P  P2  1  0.75000800  0.84766600  0.56208400  1
  P  P3  1  0.24999600  0.15238400  0.43787900  1
  P  P4  1  0.75000000  0.39340600  0.69218100  1
  P  P5  1  0.74999500  0.10661400  0.19227200  1
  P  P6  1  0.25001000  0.89330200  0.80773700  1
  P  P7  1  0.25002700  0.60653400  0.30779500  1
  O  O0  1  0.05039400  0.59476000  0.37104000  1
  O  O1  1  0.55040700  0.40520700  0.62893800  1
  O  O2  1  0.94957400  0.09486100  0.12905300  1
  O  O3  1  0.44952600  0.90511400  0.87103200  1
  O  O4  1  0.94960400  0.40517700  0.62892500  1
  O  O5  1  0.44962900  0.59471900  0.37103500  1
  O  O6  1  0.05046000  0.90509300  0.87102800  1
  O  O7  1  0.55043100  0.09488900  0.12905700  1
  O  O8  1  0.25002100  0.33830100  0.48599600  1
  O  O9  1  0.74999600  0.66175300  0.51399300  1
  O  O10  1  0.74999300  0.83823900  0.01400900  1
  O  O11  1  0.24996400  0.16181000  0.98605400  1
  O  O12  1  0.74999000  0.14533600  0.95162400  1
  O  O13  1  0.25000500  0.85471500  0.04846500  1
  O  O14  1  0.25001900  0.64535900  0.54830000  1
  O  O15  1  0.75001700  0.35464700  0.45162200  1
  O  O16  1  0.74998200  0.22625900  0.75578300  1
  O  O17  1  0.25001500  0.77372500  0.24421000  1
  O  O18  1  0.25000600  0.72612300  0.74392100  1
  O  O19  1  0.75001300  0.27369300  0.25605500  1
  O  O20  1  0.44595800  0.13901600  0.37519200  1
  O  O21  1  0.94592500  0.86105200  0.62473900  1
  O  O22  1  0.55406800  0.63929400  0.12479600  1
  O  O23  1  0.05408400  0.36072400  0.87518300  1
  O  O24  1  0.55405000  0.86105800  0.62474200  1
  O  O25  1  0.05408000  0.13903400  0.37519800  1
  O  O26  1  0.44590500  0.36071900  0.87518800  1
  O  O27  1  0.94591400  0.63929500  0.12480800  1
  O  O28  1  0.75000000  0.51541700  0.98121100  1
  O  O29  1  0.25000700  0.03019600  0.72506000  1
  O  O30  1  0.24998600  0.46976600  0.22493800  1
  O  O31  1  0.75000500  0.53016200  0.77502000  1
  O  O32  1  0.74999700  0.98450000  0.48112800  1
  O  O33  1  0.25000100  0.01556300  0.51884200  1
  O  O34  1  0.24998000  0.48460600  0.01875300  1
  O  O35  1  0.75002400  0.96980300  0.27493200  1
loop_
_geom_bond_atom_site_label_1
_geom_bond_atom_site_label_2
_geom_bond_distance
_geom_bond_site_symmetry_2
Cr0 O12 1.847630 1_555
Cr0 O28 1.884691 1_555
Cr0 O23 1.936755 1_655
Cr0 O26 1.936883 1_555
Cr0 O16 1.976881 1_555
Cr0 O31 2.036823 1_555
Cr1 O13 1.847909 1_555
Cr1 O34 1.885173 1_555
Cr1 O27 1.936661 1_455
Cr1 O22 1.936704 1_555
Cr1 O17 1.976338 1_555
Cr1 O30 2.036134 1_555
Cr2 O14 1.849536 1_555
Cr2 O33 1.885146 1_565
Cr2 O21 1.936492 1_455
Cr2 O24 1.936619 1_555
Cr2 O18 1.975375 1_555
Cr2 O29 2.033999 1_565
Cr3 O15 1.848082 1_555
Cr3 O32 1.883729 1_545
Cr3 O20 1.936543 1_555
Cr3 O25 1.936721 1_655
Cr3 O19 1.976014 1_555
Cr3 O35 2.035243 1_545
Cr4 O3 1.949894 1_544
Cr4 O7 1.950025 1_555
Cr4 O11 2.033762 1_554
Cr4 O10 2.033800 1_545
Cr4 O12 2.059099 1_554
Cr4 O13 2.059242 1_545
Cr5 O5 1.949658 1_555
Cr5 O1 1.949658 1_555
Cr5 O9 2.033191 1_555
Cr5 O8 2.033295 1_555
Cr5 O15 2.058384 1_555
Cr5 O14 2.058654 1_555
Cr6 O0 1.949647 1_655
Cr6 O4 1.949661 1_555
Cr6 O9 2.033170 1_555
Cr6 O8 2.033529 1_655
Cr6 O14 2.058538 1_655
Cr6 O15 2.058558 1_555
Cr7 O2 1.949866 1_555
Cr7 O6 1.950003 1_644
Cr7 O11 2.033481 1_654
Cr7 O10 2.033821 1_545
Cr7 O12 2.058815 1_554
Cr7 O13 2.059657 1_645
O0 P7 1.541804 1_555
O1 P4 1.541598 1_555
O2 P5 1.541238 1_555
O3 P6 1.541536 1_555
O4 P4 1.541737 1_555
O5 P7 1.541628 1_555
O6 P6 1.541665 1_555
O7 P5 1.541124 1_555
O8 P3 1.586707 1_555
O9 P2 1.586529 1_555
O10 P1 1.586742 1_555
O11 P0 1.586691 1_555
O16 P4 1.565322 1_555
O17 P7 1.565474 1_555
O18 P6 1.566186 1_555
O19 P5 1.565289 1_555
O20 P3 1.518997 1_555
O21 P2 1.518530 1_555
O22 P1 1.518758 1_555
O23 P0 1.518643 1_555
O24 P2 1.518761 1_555
O25 P3 1.518709 1_555
O26 P0 1.518808 1_555
O27 P1 1.518586 1_555
O28 P1 1.539707 1_556
O29 P6 1.557777 1_545
O30 P7 1.557863 1_555
O31 P4 1.557618 1_555
O32 P2 1.540190 1_555
O33 P3 1.540190 1_555
O34 P0 1.539510 1_554
O35 P5 1.557166 1_565
