# generated using pymatgen
data_LaVGe3
_symmetry_space_group_name_H-M   'P 1'
_cell_length_a   6.26061678
_cell_length_b   6.26061678
_cell_length_c   5.67791287
_cell_angle_alpha   90.00000000
_cell_angle_beta   90.00000000
_cell_angle_gamma   120.00000250
_symmetry_Int_Tables_number   1
_chemical_formula_structural   LaVGe3
_chemical_formula_sum   'La2 V2 Ge6'
_cell_volume   192.73189249
_cell_formula_units_Z   2
loop_
 _symmetry_equiv_pos_site_id
 _symmetry_equiv_pos_as_xyz
  1  'x, y, z'
loop_
 _atom_site_type_symbol
 _atom_site_label
 _atom_site_symmetry_multiplicity
 _atom_site_fract_x
 _atom_site_fract_y
 _atom_site_fract_z
 _atom_site_occupancy
  La  La0  1  0.33333300  0.66666700  0.75000000  1
  La  La1  1  0.66666700  0.33333300  0.25000000  1
  V  V0  1  -0.00000000  -0.00000000  0.50000000  1
  V  V1  1  -0.00000000  -0.00000000  0.00000000  1
  Ge  Ge0  1  0.19427826  0.80572174  0.25000000  1
  Ge  Ge1  1  0.19427826  0.38855753  0.25000000  1
  Ge  Ge2  1  0.61144247  0.80572174  0.25000000  1
  Ge  Ge3  1  0.80572174  0.19427826  0.75000000  1
  Ge  Ge4  1  0.80572174  0.61144247  0.75000000  1
  Ge  Ge5  1  0.38855753  0.19427826  0.75000000  1
loop_
_geom_bond_atom_site_label_1
_geom_bond_atom_site_label_2
_geom_bond_distance
_geom_bond_site_symmetry_2
Ge0 V0 2.540293 1_565
Ge0 V1 2.540293 1_565
Ge0 Ge1 2.611705 1_555
Ge0 Ge2 2.611705 1_555
Ge0 La1 3.144595 1_455
Ge0 La1 3.144595 1_565
Ge0 La0 3.214552 1_555
Ge0 La0 3.214552 1_554
Ge1 V1 2.540297 1_555
Ge1 V0 2.540297 1_555
Ge1 Ge2 2.611705 1_555
Ge1 La1 3.144589 1_455
Ge1 La1 3.144602 1_555
Ge1 La0 3.214552 1_554
Ge1 La0 3.214552 1_555
Ge2 V1 2.540297 1_665
Ge2 V0 2.540297 1_665
Ge2 La1 3.144589 1_565
Ge2 La1 3.144602 1_555
Ge2 La0 3.214552 1_554
Ge2 La0 3.214552 1_555
Ge3 V0 2.540293 1_655
Ge3 V1 2.540293 1_656
Ge3 Ge5 2.611705 1_555
Ge3 Ge4 2.611705 1_555
Ge3 La0 3.144595 1_545
Ge3 La0 3.144595 1_655
Ge3 La1 3.214552 1_556
Ge3 La1 3.214552 1_555
Ge4 V1 2.540297 1_666
Ge4 V0 2.540297 1_665
Ge4 Ge5 2.611705 1_555
Ge4 La0 3.144589 1_655
Ge4 La0 3.144602 1_555
Ge4 La1 3.214552 1_556
Ge4 La1 3.214552 1_555
Ge5 V1 2.540297 1_556
Ge5 V0 2.540297 1_555
Ge5 La0 3.144589 1_545
Ge5 La0 3.144602 1_555
Ge5 La1 3.214552 1_556
Ge5 La1 3.214552 1_555
