# generated using pymatgen
data_Li9Mn2Co5O16
_symmetry_space_group_name_H-M   'P 1'
_cell_length_a   6.45487096
_cell_length_b   6.45392814
_cell_length_c   7.85316935
_cell_angle_alpha   87.72890832
_cell_angle_beta   113.94159047
_cell_angle_gamma   108.25910689
_symmetry_Int_Tables_number   1
_chemical_formula_structural   Li9Mn2Co5O16
_chemical_formula_sum   'Li9 Mn2 Co5 O16'
_cell_volume   282.50610349
_cell_formula_units_Z   1
loop_
 _symmetry_equiv_pos_site_id
 _symmetry_equiv_pos_as_xyz
  1  'x, y, z'
loop_
 _atom_site_type_symbol
 _atom_site_label
 _atom_site_symmetry_multiplicity
 _atom_site_fract_x
 _atom_site_fract_y
 _atom_site_fract_z
 _atom_site_occupancy
  Li  Li0  1  0.87761900  0.06263600  0.31628900  1
  Li  Li1  1  0.87630800  0.56095600  0.81065200  1
  Li  Li2  1  0.13035400  0.93871400  0.68438900  1
  Li  Li3  1  0.13252200  0.44317400  0.19482000  1
  Li  Li4  1  0.37690600  0.81499600  0.07024400  1
  Li  Li5  1  0.37293400  0.30824500  0.55887800  1
  Li  Li6  1  0.61202000  0.68811100  0.43277200  1
  Li  Li7  1  0.62236500  0.18549300  0.93660100  1
  Li  Li8  1  0.25382200  0.87236300  0.37584500  1
  Mn  Mn0  1  0.00418900  0.00412600  0.00275200  1
  Mn  Mn1  1  0.75461900  0.62628700  0.13253700  1
  Co  Co0  1  0.00131700  0.49768800  0.49881000  1
  Co  Co1  1  0.24858400  0.37739600  0.87548200  1
  Co  Co2  1  0.49392400  0.75077200  0.74204800  1
  Co  Co3  1  0.49962700  0.24508900  0.25159000  1
  Co  Co4  1  0.74546100  0.12367700  0.61929800  1
  O  O0  1  0.71052900  0.90112000  0.04038200  1
  O  O1  1  0.70538900  0.39881000  0.53437800  1
  O  O2  1  0.92332700  0.75163900  0.38793600  1
  O  O3  1  0.95429900  0.27413900  0.90795800  1
  O  O4  1  0.20691700  0.64926300  0.78630600  1
  O  O5  1  0.18545400  0.14633600  0.25310300  1
  O  O6  1  0.45369700  0.51993800  0.15872700  1
  O  O7  1  0.46035600  0.02728900  0.66513800  1
  O  O8  1  0.04857100  0.22808400  0.59529500  1
  O  O9  1  0.03797000  0.72428200  0.08254500  1
  O  O10  1  0.28899400  0.09876300  0.95785500  1
  O  O11  1  0.30029700  0.58703900  0.47976600  1
  O  O12  1  0.56075800  0.98843300  0.33971600  1
  O  O13  1  0.55888900  0.49083400  0.86361600  1
  O  O14  1  0.80687500  0.86215100  0.73272800  1
  O  O15  1  0.79510600  0.35216200  0.21154400  1
loop_
_geom_bond_atom_site_label_1
_geom_bond_atom_site_label_2
_geom_bond_distance
_geom_bond_site_symmetry_2
Li0 O12 2.032503 1_545
Li0 O0 2.126613 1_545
Li0 O2 2.139891 1_545
Li0 O5 2.143064 1_655
Li0 O15 2.144328 1_555
Li0 O8 2.154864 1_655
Li1 O3 2.103223 1_555
Li1 O9 2.107118 1_656
Li1 O4 2.115625 1_655
Li1 O1 2.129164 1_555
Li1 O14 2.140821 1_555
Li1 O13 2.161365 1_555
Li2 O7 2.092494 1_565
Li2 O10 2.110879 1_565
Li2 O8 2.114355 1_565
Li2 O4 2.124524 1_555
Li2 O14 2.174857 1_455
Li2 O2 2.313069 1_455
Li3 O5 2.051867 1_555
Li3 O6 2.108529 1_555
Li3 O15 2.128437 1_455
Li3 O9 2.138162 1_555
Li3 O11 2.147110 1_555
Li3 O3 2.212138 1_454
Li4 O12 2.111091 1_555
Li4 O9 2.122011 1_555
Li4 O6 2.135860 1_555
Li4 O10 2.138155 1_564
Li4 O0 2.156609 1_555
Li4 O4 2.188145 1_554
Li5 O11 2.011713 1_555
Li5 O7 2.107560 1_555
Li5 O1 2.126965 1_555
Li5 O8 2.128051 1_555
Li5 O5 2.317459 1_555
Li5 O13 2.358475 1_555
Li6 O11 2.090817 1_555
Li6 O2 2.092006 1_555
Li6 O12 2.119846 1_555
Li6 O6 2.135204 1_555
Li6 O1 2.163988 1_555
Li6 O14 2.304843 1_555
Li7 O7 2.091631 1_555
Li7 O10 2.121564 1_555
Li7 O0 2.125092 1_546
Li7 O15 2.130938 1_556
Li7 O3 2.140430 1_555
Li7 O13 2.146088 1_555
Li8 O12 2.018988 1_555
Li8 O11 2.043369 1_555
Li8 O5 2.063750 1_565
Li8 O2 2.069794 1_455
Li8 O7 2.196593 1_565
Li8 O9 2.212558 1_555
Mn0 O5 1.918286 1_555
Mn0 O10 1.918959 1_554
Mn0 O9 1.936070 1_545
Mn0 O3 1.936225 1_454
Mn0 O0 1.942102 1_445
Mn0 O14 2.046744 1_444
Mn1 O15 1.911648 1_555
Mn1 O2 1.914951 1_555
Mn1 O9 1.933286 1_655
Mn1 O6 1.940102 1_555
Mn1 O0 1.948941 1_555
Mn1 O13 2.027114 1_554
Co0 O11 1.899837 1_555
Co0 O8 1.932689 1_555
Co0 O2 1.935457 1_455
Co0 O1 1.946560 1_455
Co0 O15 2.165777 1_455
Co0 O4 2.178387 1_555
Co1 O4 1.920128 1_555
Co1 O3 1.924578 1_455
Co1 O13 1.945195 1_555
Co1 O10 1.945531 1_555
Co1 O8 2.125994 1_555
Co1 O6 2.134432 1_556
Co2 O7 1.909787 1_565
Co2 O4 1.930314 1_555
Co2 O14 1.951569 1_555
Co2 O13 1.972479 1_555
Co2 O11 2.043730 1_555
Co2 O0 2.248749 1_556
Co3 O12 1.864279 1_545
Co3 O5 1.930791 1_555
Co3 O6 1.953928 1_555
Co3 O15 1.964139 1_555
Co3 O1 2.152950 1_555
Co3 O10 2.210004 1_554
Co4 O7 1.925071 1_555
Co4 O1 1.928386 1_555
Co4 O8 1.944413 1_655
Co4 O14 1.952708 1_545
Co4 O12 2.092662 1_545
Co4 O3 2.184722 1_555
