# generated using pymatgen
data_LiMg14Co
_symmetry_space_group_name_H-M   'P 1'
_cell_length_a   6.29198529
_cell_length_b   6.38863300
_cell_length_c   9.83406179
_cell_angle_alpha   90.00000000
_cell_angle_beta   90.00000000
_cell_angle_gamma   120.50943899
_symmetry_Int_Tables_number   1
_chemical_formula_structural   LiMg14Co
_chemical_formula_sum   'Li1 Mg14 Co1'
_cell_volume   340.57032856
_cell_formula_units_Z   1
loop_
 _symmetry_equiv_pos_site_id
 _symmetry_equiv_pos_as_xyz
  1  'x, y, z'
loop_
 _atom_site_type_symbol
 _atom_site_label
 _atom_site_symmetry_multiplicity
 _atom_site_fract_x
 _atom_site_fract_y
 _atom_site_fract_z
 _atom_site_occupancy
  Li  Li0  1  0.16533283  0.83266592  0.12500000  1
  Mg  Mg0  1  0.16982364  0.33491132  0.62500000  1
  Mg  Mg1  1  0.17285923  0.83642911  0.62500000  1
  Mg  Mg2  1  0.67760797  0.34216805  0.12500000  1
  Mg  Mg3  1  0.66529964  0.33000464  0.62500000  1
  Mg  Mg4  1  0.67760797  0.83543892  0.12500000  1
  Mg  Mg5  1  0.66529964  0.83529400  0.62500000  1
  Mg  Mg6  1  0.32048709  0.16917113  0.35540407  1
  Mg  Mg7  1  0.32048709  0.16917113  0.89459593  1
  Mg  Mg8  1  0.32048709  0.65131697  0.35540407  1
  Mg  Mg9  1  0.32048709  0.65131697  0.89459593  1
  Mg  Mg10  1  0.84486595  0.17243347  0.36160491  1
  Mg  Mg11  1  0.84486595  0.17243347  0.88839509  1
  Mg  Mg12  1  0.83353227  0.66676664  0.37771506  1
  Mg  Mg13  1  0.83353227  0.66676664  0.87228494  1
  Co  Co0  1  0.16742427  0.33371163  0.12500000  1
loop_
_geom_bond_atom_site_label_1
_geom_bond_atom_site_label_2
_geom_bond_distance
_geom_bond_site_symmetry_2
Li0 Mg9 2.928754 1_554
Li0 Mg8 2.928754 1_555
Li0 Mg7 2.928761 1_564
Li0 Mg6 2.928761 1_565
Li0 Mg12 3.067798 1_455
Li0 Mg13 3.067798 1_454
Li0 Mg2 3.077789 1_455
Li0 Mg4 3.077789 1_455
Li0 Mg2 3.214270 1_565
Li0 Mg4 3.214270 1_555
Mg0 Mg10 3.132473 1_455
Mg0 Mg11 3.132473 1_455
Mg0 Mg5 3.133558 1_555
Mg0 Mg3 3.133558 1_555
Mg0 Mg5 3.158659 1_445
Mg0 Mg3 3.158659 1_455
Mg0 Mg6 3.173009 1_555
Mg0 Mg7 3.173009 1_555
Mg0 Mg8 3.173015 1_555
Mg0 Mg9 3.173015 1_555
Mg0 Mg1 3.194359 1_555
Mg0 Mg1 3.194359 1_545
Mg1 Mg12 3.049138 1_455
Mg1 Mg13 3.049138 1_455
Mg1 Mg3 3.102115 1_565
Mg1 Mg5 3.102116 1_555
Mg1 Mg3 3.189882 1_455
Mg1 Mg5 3.189882 1_455
Mg1 Mg8 3.225792 1_555
Mg1 Mg9 3.225792 1_555
Mg1 Mg6 3.225798 1_565
Mg1 Mg7 3.225798 1_565
Mg2 Mg7 2.980407 1_554
Mg2 Mg6 2.980407 1_555
Mg2 Mg4 3.151327 1_555
Mg2 Mg4 3.237306 1_545
Mg3 Mg5 3.160525 1_545
Mg3 Mg5 3.228108 1_555
Mg3 Mg6 3.244726 1_555
Mg3 Mg7 3.244726 1_555
Mg4 Mg9 2.980407 1_554
Mg4 Mg8 2.980407 1_555
Mg5 Mg8 3.244726 1_555
Mg5 Mg9 3.244726 1_555
Mg6 Mg8 3.080253 1_555
Mg6 Mg8 3.308380 1_545
Mg7 Mg9 3.080253 1_555
Mg7 Mg9 3.308380 1_545
Mg10 Mg2 2.975907 1_555
Mg10 Mg4 2.975914 1_545
Mg10 Mg8 3.003855 1_655
Mg10 Mg6 3.003855 1_655
Mg10 Mg3 3.186546 1_555
Mg10 Mg5 3.186552 1_545
Mg10 Mg12 3.198833 1_545
Mg10 Mg12 3.198833 1_555
Mg10 Mg8 3.289417 1_545
Mg10 Mg6 3.289417 1_555
Mg11 Mg2 2.975907 1_556
Mg11 Mg4 2.975914 1_546
Mg11 Mg9 3.003855 1_655
Mg11 Mg7 3.003855 1_655
Mg11 Mg3 3.186546 1_555
Mg11 Mg5 3.186552 1_545
Mg11 Mg13 3.198833 1_545
Mg11 Mg13 3.198833 1_555
Mg11 Mg9 3.289417 1_545
Mg11 Mg7 3.289417 1_555
Mg12 Mg5 3.057867 1_555
Mg12 Mg3 3.057873 1_555
Mg12 Mg4 3.061604 1_555
Mg12 Mg2 3.061611 1_555
Mg12 Mg6 3.122899 1_665
Mg12 Mg8 3.122900 1_655
Mg12 Mg6 3.186663 1_555
Mg12 Mg8 3.186663 1_555
Mg13 Mg5 3.057867 1_555
Mg13 Mg3 3.057873 1_555
Mg13 Mg4 3.061604 1_556
Mg13 Mg2 3.061611 1_556
Mg13 Mg7 3.122899 1_665
Mg13 Mg9 3.122900 1_655
Mg13 Mg7 3.186663 1_555
Mg13 Mg9 3.186663 1_555
Co0 Mg7 2.862569 1_554
Co0 Mg6 2.862569 1_555
Co0 Mg9 2.862576 1_554
Co0 Mg8 2.862576 1_555
Co0 Mg11 2.910552 1_454
Co0 Mg10 2.910552 1_455
Co0 Mg4 3.109692 1_445
Co0 Mg2 3.109693 1_455
Co0 Mg4 3.182981 1_555
Co0 Mg2 3.182981 1_555
Co0 Li0 3.194337 1_545
Co0 Li0 3.194337 1_555
