# generated using pymatgen
data_MgTe(BrO)6
_symmetry_space_group_name_H-M   'P 1'
_cell_length_a   10.98346653
_cell_length_b   11.05701610
_cell_length_c   11.14612127
_cell_angle_alpha   90.89243894
_cell_angle_beta   90.20900991
_cell_angle_gamma   91.19743383
_symmetry_Int_Tables_number   1
_chemical_formula_structural   MgTe(BrO)6
_chemical_formula_sum   'Mg4 Te4 Br24 O24'
_cell_volume   1353.16317432
_cell_formula_units_Z   4
loop_
 _symmetry_equiv_pos_site_id
 _symmetry_equiv_pos_as_xyz
  1  'x, y, z'
loop_
 _atom_site_type_symbol
 _atom_site_label
 _atom_site_symmetry_multiplicity
 _atom_site_fract_x
 _atom_site_fract_y
 _atom_site_fract_z
 _atom_site_occupancy
  Mg  Mg0  1  0.00013902  0.00075920  0.50189288  1
  Mg  Mg1  1  0.99522242  0.49760274  0.99943637  1
  Mg  Mg2  1  0.49558926  0.99255097  0.98571087  1
  Mg  Mg3  1  0.50003649  0.49836099  0.49918961  1
  Te  Te0  1  0.49085204  0.50566597  0.98602454  1
  Te  Te1  1  0.50381190  0.99965655  0.50395785  1
  Te  Te2  1  0.99926481  0.49756376  0.49731510  1
  Te  Te3  1  0.99570290  0.00140476  0.99782402  1
  Br  Br0  1  0.52570129  0.73114033  0.14720224  1
  Br  Br1  1  0.47436457  0.21953241  0.35341045  1
  Br  Br2  1  0.97461925  0.27435945  0.65011309  1
  Br  Br3  1  0.02477497  0.77372321  0.85544155  1
  Br  Br4  1  0.14276351  0.53279891  0.72559006  1
  Br  Br5  1  0.35696442  0.46629939  0.22385933  1
  Br  Br6  1  0.66442366  0.94764014  0.30687348  1
  Br  Br7  1  0.84314162  0.02811451  0.77268037  1
  Br  Br8  1  0.72869944  0.15686781  0.53620517  1
  Br  Br9  1  0.22156064  0.35322776  0.46141166  1
  Br  Br10  1  0.26790321  0.65190436  0.97314039  1
  Br  Br11  1  0.77010949  0.85132564  0.03050080  1
  Br  Br12  1  0.41050976  0.34375711  0.84151957  1
  Br  Br13  1  0.52984209  0.77462172  0.64450786  1
  Br  Br14  1  0.02939155  0.72551851  0.35131384  1
  Br  Br15  1  0.96386828  0.22540864  0.14021515  1
  Br  Br16  1  0.84605988  0.46782189  0.26776365  1
  Br  Br17  1  0.65481264  0.53444939  0.77091821  1
  Br  Br18  1  0.35975514  0.04875912  0.72227544  1
  Br  Br19  1  0.14470054  0.97461838  0.22925655  1
  Br  Br20  1  0.27200565  0.85507911  0.47140430  1
  Br  Br21  1  0.77951881  0.64576619  0.53021391  1
  Br  Br22  1  0.71213946  0.33413594  0.01386192  1
  Br  Br23  1  0.22863890  0.14412045  0.97482485  1
  O  O0  1  0.43621461  0.65349792  0.59374409  1
  O  O1  1  0.62533064  0.10941447  0.91847314  1
  O  O2  1  0.05921889  0.34382991  0.09025201  1
  O  O3  1  0.93730987  0.84243849  0.40499691  1
  O  O4  1  0.59410173  0.43966173  0.65721274  1
  O  O5  1  0.89964825  0.56049998  0.15168811  1
  O  O6  1  0.09040451  0.06577443  0.34725805  1
  O  O7  1  0.39666506  0.94371242  0.83369678  1
  O  O8  1  0.65725342  0.59339414  0.44039659  1
  O  O9  1  0.15373034  0.90676368  0.56320768  1
  O  O10  1  0.35519239  0.09608511  0.05732872  1
  O  O11  1  0.83587700  0.39671394  0.93620907  1
  O  O12  1  0.56456394  0.34217570  0.40647504  1
  O  O13  1  0.44250727  0.85573054  0.09573206  1
  O  O14  1  0.93356993  0.65329722  0.90753759  1
  O  O15  1  0.06561997  0.15717813  0.59643709  1
  O  O16  1  0.41058595  0.55982254  0.34272184  1
  O  O17  1  0.08891152  0.44119574  0.84165141  1
  O  O18  1  0.90673388  0.93997003  0.65720993  1
  O  O19  1  0.64849236  0.05384698  0.19515256  1
  O  O20  1  0.34083480  0.40373755  0.55594369  1
  O  O21  1  0.84323891  0.09692494  0.44516274  1
  O  O22  1  0.65508069  0.89717494  0.93182527  1
  O  O23  1  0.15202746  0.59260315  0.06383679  1
loop_
_geom_bond_atom_site_label_1
_geom_bond_atom_site_label_2
_geom_bond_distance
_geom_bond_site_symmetry_2
Mg0 O9 2.116619 1_545
Mg0 O6 2.119365 1_555
Mg0 O15 2.122434 1_555
Mg0 O18 2.126418 1_445
Mg0 O21 2.142386 1_455
Mg0 O3 2.142957 1_445
Mg1 O5 2.114761 1_556
Mg1 O23 2.115824 1_656
Mg1 O2 2.123203 1_656
Mg1 O17 2.132311 1_655
Mg1 O14 2.137750 1_555
Mg1 O11 2.165422 1_555
Mg2 O13 2.039249 1_556
Mg2 O1 2.054992 1_565
Mg2 O7 2.067990 1_555
Mg2 O10 2.092829 1_566
Mg2 O22 2.146326 1_555
Mg3 O8 2.114059 1_555
Mg3 O20 2.122402 1_555
Mg3 O16 2.126260 1_555
Mg3 O0 2.131638 1_555
Mg3 O12 2.133888 1_555
Mg3 O4 2.154384 1_555
Br0 O13 1.770665 1_555
Br0 Te0 3.066748 1_554
Br1 O12 1.756369 1_555
Br1 Te1 2.997822 1_545
Br2 O15 1.752159 1_655
Br2 Te2 3.028384 1_555
Br3 O14 1.756783 1_455
Br3 Te3 2.978440 1_465
Br4 O17 1.752307 1_555
Br4 Te2 3.003995 1_455
Br5 O16 1.760005 1_555
Br5 Te0 3.068725 1_554
Br6 O19 1.735766 1_565
Br6 Te1 2.880916 1_555
Br7 O18 1.757883 1_545
Br7 Te3 3.034073 1_555
Br8 O21 1.753547 1_555
Br8 Te1 3.007750 1_545
Br9 O20 1.754809 1_555
Br9 Te2 2.969600 1_455
Br10 O23 1.751241 1_556
Br10 Te0 2.966770 1_555
Br11 O22 1.759799 1_554
Br11 Te3 2.979832 1_564
Br12 Te0 2.532124 1_555
Br13 O0 1.756670 1_555
Br13 Te1 2.979100 1_555
Br14 O3 1.757036 1_455
Br14 Te2 3.034388 1_455
Br15 O2 1.758146 1_655
Br15 Te3 2.948487 1_554
Br16 O5 1.758430 1_555
Br16 Te2 3.066826 1_555
Br17 O4 1.752877 1_555
Br17 Te0 3.020626 1_555
Br18 O7 1.765427 1_545
Br18 Te1 2.956774 1_545
Br19 O6 1.758121 1_565
Br19 Te3 3.071377 1_464
Br20 O9 1.756056 1_555
Br20 Te1 2.995754 1_555
Br21 O8 1.755155 1_555
Br21 Te2 2.966159 1_555
Br22 O11 1.750114 1_554
Br22 Te0 3.131492 1_554
Br23 O10 1.759713 1_556
Br23 Te3 2.991675 1_455
