# generated using pymatgen
data_Sr2La2MgMnO8
_symmetry_space_group_name_H-M   'P 1'
_cell_length_a   3.89035357
_cell_length_b   15.56757433
_cell_length_c   6.87728519
_cell_angle_alpha   106.72859139
_cell_angle_beta   106.42918003
_cell_angle_gamma   90.01953858
_symmetry_Int_Tables_number   1
_chemical_formula_structural   Sr2La2MgMnO8
_chemical_formula_sum   'Sr4 La4 Mg2 Mn2 O16'
_cell_volume   381.07975654
_cell_formula_units_Z   2
loop_
 _symmetry_equiv_pos_site_id
 _symmetry_equiv_pos_as_xyz
  1  'x, y, z'
loop_
 _atom_site_type_symbol
 _atom_site_label
 _atom_site_symmetry_multiplicity
 _atom_site_fract_x
 _atom_site_fract_y
 _atom_site_fract_z
 _atom_site_occupancy
  Sr  Sr0  1  0.35814000  0.08944200  0.71469900  1
  Sr  Sr1  1  0.35547800  0.33938900  0.71342500  1
  Sr  Sr2  1  0.64186000  0.16055800  0.28530100  1
  Sr  Sr3  1  0.64452200  0.91061100  0.28657500  1
  La  La0  1  0.35541100  0.58768500  0.72585500  1
  La  La1  1  0.36167300  0.83757800  0.72282900  1
  La  La2  1  0.63832700  0.41242200  0.27717100  1
  La  La3  1  0.64458900  0.66231500  0.27414500  1
  Mg  Mg0  1  0.99610900  0.49774700  0.99512300  1
  Mg  Mg1  1  0.00389100  0.75225300  0.00487700  1
  Mn  Mn0  1  0.00167300  0.00119600  0.00238900  1
  Mn  Mn1  1  0.99832700  0.24880400  0.99761100  1
  O  O0  1  0.00000000  0.12500000  0.00000000  1
  O  O1  1  0.00256200  0.36951600  0.00496800  1
  O  O2  1  0.00000000  0.62500000  0.00000000  1
  O  O3  1  0.99743800  0.88048400  0.99503200  1
  O  O4  1  0.15775900  0.03959300  0.31276700  1
  O  O5  1  0.15619200  0.29329600  0.31743200  1
  O  O6  1  0.17009200  0.54038800  0.35790300  1
  O  O7  1  0.17329500  0.78737600  0.35258500  1
  O  O8  1  0.49684500  0.99885900  0.99000900  1
  O  O9  1  0.50315500  0.25114100  0.00999100  1
  O  O10  1  0.50410100  0.49858700  0.01013100  1
  O  O11  1  0.49589900  0.75141300  0.98986900  1
  O  O12  1  0.84224100  0.21040700  0.68723300  1
  O  O13  1  0.82670500  0.46262400  0.64741500  1
  O  O14  1  0.82990800  0.70961200  0.64209700  1
  O  O15  1  0.84380800  0.95670400  0.68256800  1
loop_
_geom_bond_atom_site_label_1
_geom_bond_atom_site_label_2
_geom_bond_distance
_geom_bond_site_symmetry_2
La0 O6 2.315264 1_555
La0 O2 2.578472 1_556
La0 O11 2.620232 1_555
La0 O2 2.621957 1_656
La0 O10 2.646246 1_556
La0 O13 2.660277 1_455
La0 O13 2.720377 1_555
La0 O14 2.842551 1_455
La0 O14 2.927577 1_555
La1 O7 2.330202 1_555
La1 O11 2.514143 1_555
La1 O3 2.593841 1_555
La1 O3 2.596115 1_455
La1 O8 2.598730 1_555
La1 O14 2.695791 1_455
La1 O14 2.744608 1_555
La1 O15 2.749069 1_455
La1 O15 2.760618 1_555
La2 O13 2.330202 1_555
La2 O10 2.514143 1_555
La2 O1 2.593841 1_555
La2 O1 2.596115 1_655
La2 O9 2.598730 1_555
La2 O6 2.695791 1_655
La2 O6 2.744608 1_555
La2 O5 2.749069 1_655
La2 O5 2.760618 1_555
La3 O14 2.315264 1_555
La3 O2 2.578472 1_655
La3 O10 2.620232 1_555
La3 O2 2.621957 1_555
La3 O11 2.646246 1_554
La3 O7 2.660277 1_655
La3 O7 2.720377 1_555
La3 O6 2.842551 1_655
La3 O6 2.927577 1_555
Mg0 O10 1.945646 1_556
Mg0 O10 1.949432 1_656
Mg0 O2 1.971608 1_656
Mg0 O1 2.016703 1_656
Mg0 O13 2.192522 1_555
Mg0 O6 2.283538 1_656
Mg1 O11 1.945646 1_554
Mg1 O11 1.949432 1_454
Mg1 O2 1.971608 1_555
Mg1 O3 2.016703 1_454
Mg1 O7 2.192522 1_555
Mg1 O14 2.283538 1_454
Mn0 O3 1.865200 1_444
Mn0 O0 1.932119 1_555
Mn0 O8 1.941466 1_444
Mn0 O8 1.952078 1_544
Mn0 O4 1.953051 1_555
Mn0 O15 2.013284 1_444
Mn1 O1 1.865200 1_656
Mn1 O0 1.932119 1_656
Mn1 O9 1.941466 1_656
Mn1 O9 1.952078 1_556
Mn1 O12 1.953051 1_555
Mn1 O5 2.013284 1_656
O0 Sr2 2.644603 1_555
O0 Sr0 2.644603 1_454
O0 Sr0 2.649369 1_554
O0 Sr2 2.649369 1_455
O1 Sr1 2.672338 1_554
O1 Sr1 2.679560 1_454
O3 Sr3 2.672338 1_556
O3 Sr3 2.679560 1_656
O4 Sr0 2.529136 1_555
O4 Sr2 2.744514 1_555
O4 Sr2 2.757342 1_455
O4 Sr3 2.763434 1_445
O4 Sr3 2.763623 1_545
O5 Sr1 2.492581 1_555
O5 Sr2 2.794067 1_455
O5 Sr2 2.804416 1_555
O7 Sr3 2.845021 1_455
O7 Sr3 2.866552 1_555
O8 Sr0 2.612329 1_565
O8 Sr2 2.680879 1_566
O8 Sr3 2.707029 1_556
O9 Sr2 2.612329 1_555
O9 Sr0 2.680879 1_554
O9 Sr1 2.707029 1_554
O10 Sr1 2.657173 1_554
O11 Sr3 2.657173 1_556
O12 Sr2 2.529136 1_555
O12 Sr0 2.744514 1_555
O12 Sr0 2.757342 1_655
O12 Sr1 2.763434 1_655
O12 Sr1 2.763623 1_555
O13 Sr1 2.845021 1_655
O13 Sr1 2.866552 1_555
O15 Sr3 2.492581 1_555
O15 Sr0 2.794067 1_665
O15 Sr0 2.804416 1_565
