# generated using pymatgen
data_SrMg6V
_symmetry_space_group_name_H-M   'P 1'
_cell_length_a   5.25086200
_cell_length_b   6.71487700
_cell_length_c   11.37256700
_cell_angle_alpha   90.00000000
_cell_angle_beta   90.00000000
_cell_angle_gamma   90.00000000
_symmetry_Int_Tables_number   1
_chemical_formula_structural   SrMg6V
_chemical_formula_sum   'Sr2 Mg12 V2'
_cell_volume   400.98411701
_cell_formula_units_Z   2
loop_
 _symmetry_equiv_pos_site_id
 _symmetry_equiv_pos_as_xyz
  1  'x, y, z'
loop_
 _atom_site_type_symbol
 _atom_site_label
 _atom_site_symmetry_multiplicity
 _atom_site_fract_x
 _atom_site_fract_y
 _atom_site_fract_z
 _atom_site_occupancy
  Sr  Sr0  1  0.50000000  0.50000000  0.83482400  1
  Sr  Sr1  1  0.50000000  0.00000000  0.33482400  1
  Mg  Mg0  1  0.50000000  0.24641900  0.08190300  1
  Mg  Mg1  1  0.50000000  0.75358100  0.08190300  1
  Mg  Mg2  1  0.00000000  0.22564800  0.91657600  1
  Mg  Mg3  1  0.00000000  0.77435200  0.91657600  1
  Mg  Mg4  1  0.00000000  0.50000000  0.17435300  1
  Mg  Mg5  1  0.00000000  0.50000000  0.65737100  1
  Mg  Mg6  1  0.50000000  0.74641900  0.58190300  1
  Mg  Mg7  1  0.50000000  0.25358100  0.58190300  1
  Mg  Mg8  1  0.00000000  0.72564800  0.41657600  1
  Mg  Mg9  1  0.00000000  0.27435200  0.41657600  1
  Mg  Mg10  1  0.00000000  0.00000000  0.67435300  1
  Mg  Mg11  1  0.00000000  0.00000000  0.15737100  1
  V  V0  1  0.50000000  0.50000000  0.33649800  1
  V  V1  1  0.50000000  0.00000000  0.83649800  1
loop_
_geom_bond_atom_site_label_1
_geom_bond_atom_site_label_2
_geom_bond_distance
_geom_bond_site_symmetry_2
Sr0 V1 3.357492 1_555
Sr0 V1 3.357492 1_565
Sr1 V0 3.357492 1_555
Sr1 V0 3.357492 1_545
Mg0 Mg11 3.219853 1_555
Mg0 Mg11 3.219853 1_655
Mg0 Mg2 3.232254 1_554
Mg0 Mg2 3.232254 1_654
Mg0 V1 3.244531 1_554
Mg0 Sr0 3.285586 1_554
Mg0 Mg4 3.301170 1_555
Mg0 Mg4 3.301170 1_655
Mg0 Mg1 3.309347 1_545
Mg0 Sr1 3.318342 1_555
Mg0 V0 3.358979 1_555
Mg0 Mg1 3.405530 1_555
Mg1 Mg11 3.219853 1_565
Mg1 Mg11 3.219853 1_665
Mg1 Mg3 3.232254 1_554
Mg1 Mg3 3.232254 1_654
Mg1 V1 3.244531 1_564
Mg1 Sr0 3.285586 1_554
Mg1 Mg4 3.301170 1_555
Mg1 Mg4 3.301170 1_655
Mg1 Sr1 3.318342 1_565
Mg1 V0 3.358979 1_555
Mg2 Mg3 3.030397 1_545
Mg2 V1 3.165134 1_455
Mg2 V1 3.165134 1_555
Mg2 Sr0 3.339331 1_455
Mg2 Sr0 3.339331 1_555
Mg2 Mg4 3.462376 1_556
Mg2 Mg5 3.476137 1_555
Mg3 V1 3.165134 1_465
Mg3 V1 3.165134 1_565
Mg3 Sr0 3.339331 1_455
Mg3 Sr0 3.339331 1_555
Mg3 Mg4 3.462376 1_556
Mg3 Mg5 3.476137 1_555
Mg4 Mg8 3.143912 1_555
Mg4 Mg9 3.143912 1_555
Mg4 V0 3.208308 1_555
Mg4 V0 3.208308 1_455
Mg5 Mg9 3.129692 1_555
Mg5 Mg8 3.129692 1_555
Mg5 Mg6 3.219853 1_455
Mg5 Mg6 3.219853 1_555
Mg5 Mg7 3.219853 1_455
Mg5 Mg7 3.219853 1_555
Mg5 Sr0 3.311435 1_555
Mg5 Sr0 3.311435 1_455
Mg6 Mg8 3.232254 1_555
Mg6 Mg8 3.232254 1_655
Mg6 V0 3.244531 1_555
Mg6 Sr1 3.285586 1_565
Mg6 Mg7 3.309347 1_555
Mg6 Sr0 3.318342 1_555
Mg6 V1 3.358979 1_565
Mg6 Mg7 3.405530 1_565
Mg7 Mg9 3.232254 1_555
Mg7 Mg9 3.232254 1_655
Mg7 V0 3.244531 1_555
Mg7 Sr1 3.285586 1_555
Mg7 Sr0 3.318342 1_555
Mg7 V1 3.358979 1_555
Mg8 Mg9 3.030397 1_555
Mg8 V0 3.165134 1_555
Mg8 V0 3.165134 1_455
Mg8 Sr1 3.339331 1_565
Mg8 Sr1 3.339331 1_465
Mg9 V0 3.165134 1_555
Mg9 V0 3.165134 1_455
Mg9 Sr1 3.339331 1_555
Mg9 Sr1 3.339331 1_455
Mg10 Mg3 3.143912 1_545
Mg10 Mg2 3.143912 1_555
Mg10 V1 3.208308 1_455
Mg10 V1 3.208308 1_555
Mg10 Mg7 3.301170 1_455
Mg10 Mg7 3.301170 1_555
Mg10 Mg6 3.301170 1_445
Mg10 Mg6 3.301170 1_545
Mg10 Mg5 3.362989 1_555
Mg10 Mg5 3.362989 1_545
Mg10 Mg9 3.462376 1_555
Mg10 Mg8 3.462376 1_545
Mg11 Mg2 3.129692 1_554
Mg11 Mg3 3.129692 1_544
Mg11 Sr1 3.311435 1_555
Mg11 Sr1 3.311435 1_455
Mg11 Mg4 3.362989 1_555
Mg11 Mg4 3.362989 1_545
Mg11 Mg9 3.476137 1_555
Mg11 Mg8 3.476137 1_545
