# generated using pymatgen
data_BaMg(CoO2)4
_symmetry_space_group_name_H-M   'P 1'
_cell_length_a   5.31058703
_cell_length_b   5.31058703
_cell_length_c   7.33932000
_cell_angle_alpha   90.00000000
_cell_angle_beta   90.00000000
_cell_angle_gamma   119.99998795
_symmetry_Int_Tables_number   1
_chemical_formula_structural   BaMg(CoO2)4
_chemical_formula_sum   'Ba1 Mg1 Co4 O8'
_cell_volume   179.25512015
_cell_formula_units_Z   1
loop_
 _symmetry_equiv_pos_site_id
 _symmetry_equiv_pos_as_xyz
  1  'x, y, z'
loop_
 _atom_site_type_symbol
 _atom_site_label
 _atom_site_symmetry_multiplicity
 _atom_site_fract_x
 _atom_site_fract_y
 _atom_site_fract_z
 _atom_site_occupancy
  Ba  Ba0  1  0.00000000  0.00000000  0.00000000  1
  Mg  Mg0  1  0.00000000  0.00000000  0.50000000  1
  Co  Co0  1  0.33333300  0.66666700  0.74703300  1
  Co  Co1  1  0.66666700  0.33333300  0.74703300  1
  Co  Co2  1  0.33333300  0.66666700  0.25296700  1
  Co  Co3  1  0.66666700  0.33333300  0.25296700  1
  O  O0  1  0.31711900  0.31711900  0.67808400  1
  O  O1  1  0.68288100  0.00000000  0.67808400  1
  O  O2  1  0.00000000  0.68288100  0.67808400  1
  O  O3  1  0.68288100  0.68288100  0.32191600  1
  O  O4  1  0.00000000  0.31711900  0.32191600  1
  O  O5  1  0.31711900  0.00000000  0.32191600  1
  O  O6  1  0.33333300  0.66666700  0.00000000  1
  O  O7  1  0.66666700  0.33333300  0.00000000  1
loop_
_geom_bond_atom_site_label_1
_geom_bond_atom_site_label_2
_geom_bond_distance
_geom_bond_site_symmetry_2
Ba0 O4 2.901421 1_555
Ba0 O5 2.901421 1_555
Ba0 O1 2.901421 1_454
Ba0 O2 2.901421 1_544
Ba0 O3 2.901421 1_445
Ba0 O0 2.901421 1_554
Ba0 O6 3.066066 1_545
Ba0 O7 3.066066 1_455
Ba0 O6 3.066071 1_555
Ba0 O6 3.066071 1_445
Ba0 O7 3.066071 1_555
Ba0 O7 3.066071 1_445
Mg0 O2 2.131770 1_545
Mg0 O1 2.131770 1_455
Mg0 O4 2.131770 1_555
Mg0 O5 2.131770 1_555
Mg0 O3 2.131770 1_445
Mg0 O0 2.131770 1_555
Co0 O6 1.856606 1_556
Co0 O2 1.884012 1_555
Co0 O1 1.884015 1_565
Co0 O0 1.884017 1_555
Co1 O7 1.856606 1_556
Co1 O1 1.884012 1_555
Co1 O2 1.884015 1_655
Co1 O0 1.884017 1_555
Co2 O6 1.856606 1_555
Co2 O5 1.884012 1_565
Co2 O4 1.884015 1_555
Co2 O3 1.884017 1_555
Co3 O7 1.856606 1_555
Co3 O4 1.884012 1_655
Co3 O5 1.884015 1_555
Co3 O3 1.884017 1_555
