# generated using pymatgen
data_YbCdGe
_symmetry_space_group_name_H-M   'P 1'
_cell_length_a   7.29069995
_cell_length_b   7.29069995
_cell_length_c   4.17322177
_cell_angle_alpha   90.00000000
_cell_angle_beta   90.00000000
_cell_angle_gamma   120.00000345
_symmetry_Int_Tables_number   1
_chemical_formula_structural   YbCdGe
_chemical_formula_sum   'Yb3 Cd3 Ge3'
_cell_volume   192.10582344
_cell_formula_units_Z   3
loop_
 _symmetry_equiv_pos_site_id
 _symmetry_equiv_pos_as_xyz
  1  'x, y, z'
loop_
 _atom_site_type_symbol
 _atom_site_label
 _atom_site_symmetry_multiplicity
 _atom_site_fract_x
 _atom_site_fract_y
 _atom_site_fract_z
 _atom_site_occupancy
  Yb  Yb0  1  0.39925349  0.39925349  0.50000000  1
  Yb  Yb1  1  0.60074651  0.00000000  0.50000000  1
  Yb  Yb2  1  0.00000000  0.60074651  0.50000000  1
  Cd  Cd0  1  0.74371070  0.74371070  0.00000000  1
  Cd  Cd1  1  0.25628930  1.00000000  0.00000000  1
  Cd  Cd2  1  1.00000000  0.25628930  0.00000000  1
  Ge  Ge0  1  0.66666700  0.33333300  0.00000000  1
  Ge  Ge1  1  0.33333300  0.66666700  0.00000000  1
  Ge  Ge2  1  0.00000000  0.00000000  0.50000000  1
loop_
_geom_bond_atom_site_label_1
_geom_bond_atom_site_label_2
_geom_bond_distance
_geom_bond_site_symmetry_2
Cd0 Ge0 2.754385 1_555
Cd0 Ge1 2.754385 1_555
Cd0 Ge2 2.800954 1_665
Cd0 Ge2 2.800954 1_664
Cd0 Yb0 3.265079 1_555
Cd0 Yb0 3.265079 1_554
Cd0 Yb2 3.298384 1_655
Cd0 Yb2 3.298384 1_654
Cd0 Yb1 3.298384 1_565
Cd0 Yb1 3.298384 1_564
Cd1 Ge1 2.754378 1_555
Cd1 Ge0 2.754383 1_565
Cd1 Ge2 2.800954 1_565
Cd1 Ge2 2.800954 1_564
Cd1 Yb1 3.265079 1_565
Cd1 Yb1 3.265079 1_564
Cd1 Yb2 3.298384 1_555
Cd1 Yb2 3.298384 1_554
Cd1 Yb0 3.298384 1_564
Cd1 Yb0 3.298384 1_565
Cd2 Ge0 2.754378 1_555
Cd2 Ge1 2.754383 1_655
Cd2 Ge2 2.800954 1_654
Cd2 Ge2 2.800954 1_655
Cd2 Yb2 3.265079 1_655
Cd2 Yb2 3.265079 1_654
Cd2 Yb1 3.298384 1_555
Cd2 Yb1 3.298384 1_554
Cd2 Yb0 3.298384 1_655
Cd2 Yb0 3.298384 1_654
Ge0 Yb1 3.053353 1_554
Ge0 Yb1 3.053353 1_555
Ge0 Yb2 3.053355 1_655
Ge0 Yb2 3.053355 1_654
Ge0 Yb0 3.053358 1_555
Ge0 Yb0 3.053358 1_554
Ge1 Yb2 3.053353 1_554
Ge1 Yb2 3.053353 1_555
Ge1 Yb1 3.053355 1_565
Ge1 Yb1 3.053355 1_564
Ge1 Yb0 3.053358 1_555
Ge1 Yb0 3.053358 1_554
Ge2 Yb0 2.910837 1_555
Ge2 Yb2 2.910837 1_545
Ge2 Yb1 2.910837 1_455
