# generated using pymatgen
data_TmFe2
_symmetry_space_group_name_H-M   'P 1'
_cell_length_a   5.09285300
_cell_length_b   5.09285318
_cell_length_c   8.27425600
_cell_angle_alpha   90.00000000
_cell_angle_beta   90.00000000
_cell_angle_gamma   120.00000530
_symmetry_Int_Tables_number   1
_chemical_formula_structural   TmFe2
_chemical_formula_sum   'Tm4 Fe8'
_cell_volume   185.85825683
_cell_formula_units_Z   4
loop_
 _symmetry_equiv_pos_site_id
 _symmetry_equiv_pos_as_xyz
  1  'x, y, z'
loop_
 _atom_site_type_symbol
 _atom_site_label
 _atom_site_symmetry_multiplicity
 _atom_site_fract_x
 _atom_site_fract_y
 _atom_site_fract_z
 _atom_site_occupancy
  Tm  Tm0  1  0.33333300  0.66666700  0.43779900  1
  Tm  Tm1  1  0.66666700  0.33333300  0.56220100  1
  Tm  Tm2  1  0.66666700  0.33333300  0.93779900  1
  Tm  Tm3  1  0.33333300  0.66666700  0.06220100  1
  Fe  Fe0  1  0.00000000  0.00000000  0.50000000  1
  Fe  Fe1  1  0.00000000  0.00000000  0.00000000  1
  Fe  Fe2  1  0.83391000  0.16609000  0.25000000  1
  Fe  Fe3  1  0.83391000  0.66782100  0.25000000  1
  Fe  Fe4  1  0.33217900  0.16609000  0.25000000  1
  Fe  Fe5  1  0.16609000  0.83391000  0.75000000  1
  Fe  Fe6  1  0.16609000  0.33217900  0.75000000  1
  Fe  Fe7  1  0.66782100  0.83391000  0.75000000  1
loop_
_geom_bond_atom_site_label_1
_geom_bond_atom_site_label_2
_geom_bond_distance
_geom_bond_site_symmetry_2
Tm0 Tm3 3.107794 1_555
Tm0 Tm1 3.115321 1_455
Tm0 Tm1 3.115322 1_565
Tm0 Tm1 3.115330 1_555
Tm1 Tm2 3.107794 1_555
Tm2 Tm3 3.115321 1_656
Tm2 Tm3 3.115322 1_546
Tm2 Tm3 3.115330 1_556
Fe0 Fe7 2.534846 1_445
Fe0 Fe4 2.534846 1_555
Fe0 Fe3 2.534846 1_445
Fe0 Fe6 2.534846 1_555
Fe0 Fe5 2.534848 1_545
Fe0 Fe2 2.534848 1_455
Fe0 Tm0 2.985060 1_545
Fe0 Tm1 2.985060 1_455
Fe0 Tm0 2.985064 1_445
Fe0 Tm1 2.985064 1_555
Fe0 Tm1 2.985064 1_445
Fe0 Tm0 2.985064 1_555
Fe1 Fe4 2.534846 1_555
Fe1 Fe7 2.534846 1_444
Fe1 Fe3 2.534846 1_445
Fe1 Fe6 2.534846 1_554
Fe1 Fe5 2.534848 1_544
Fe1 Fe2 2.534848 1_455
Fe1 Tm3 2.985060 1_545
Fe1 Tm2 2.985060 1_454
Fe1 Tm3 2.985064 1_445
Fe1 Tm2 2.985064 1_554
Fe1 Tm3 2.985064 1_555
Fe1 Tm2 2.985064 1_444
Fe2 Fe4 2.537611 1_655
Fe2 Fe3 2.537611 1_545
Fe2 Fe4 2.555242 1_555
Fe2 Fe3 2.555242 1_555
Fe2 Tm1 2.974809 1_555
Fe2 Tm2 2.974809 1_554
Fe2 Tm3 2.983104 1_545
Fe2 Tm0 2.983104 1_545
Fe2 Tm3 2.983104 1_655
Fe2 Tm0 2.983104 1_655
Fe3 Fe4 2.537611 1_665
Fe3 Fe4 2.555242 1_555
Fe3 Tm1 2.974813 1_555
Fe3 Tm2 2.974813 1_554
Fe3 Tm3 2.983104 1_555
Fe3 Tm0 2.983104 1_555
Fe3 Tm3 2.983104 1_655
Fe3 Tm0 2.983104 1_655
Fe4 Tm1 2.974813 1_555
Fe4 Tm2 2.974813 1_554
Fe4 Tm3 2.983104 1_555
Fe4 Tm0 2.983104 1_555
Fe4 Tm3 2.983104 1_545
Fe4 Tm0 2.983104 1_545
Fe5 Fe7 2.537611 1_455
Fe5 Fe6 2.537611 1_565
Fe5 Fe7 2.555242 1_555
Fe5 Fe6 2.555242 1_555
Fe5 Tm3 2.974809 1_556
Fe5 Tm0 2.974809 1_555
Fe5 Tm2 2.983104 1_565
Fe5 Tm1 2.983104 1_565
Fe5 Tm2 2.983104 1_455
Fe5 Tm1 2.983104 1_455
Fe6 Fe7 2.537611 1_445
Fe6 Fe7 2.555242 1_555
Fe6 Tm3 2.974813 1_556
Fe6 Tm0 2.974813 1_555
Fe6 Tm2 2.983104 1_555
Fe6 Tm1 2.983104 1_555
Fe6 Tm2 2.983104 1_455
Fe6 Tm1 2.983104 1_455
Fe7 Tm3 2.974813 1_556
Fe7 Tm0 2.974813 1_555
Fe7 Tm2 2.983104 1_555
Fe7 Tm1 2.983104 1_555
Fe7 Tm2 2.983104 1_565
Fe7 Tm1 2.983104 1_565
