# generated using pymatgen
data_Mg30CrSiO32
_symmetry_space_group_name_H-M   'P 1'
_cell_length_a   8.57382000
_cell_length_b   8.57382000
_cell_length_c   8.53275400
_cell_angle_alpha   90.00000000
_cell_angle_beta   90.00000000
_cell_angle_gamma   90.00000000
_symmetry_Int_Tables_number   1
_chemical_formula_structural   Mg30CrSiO32
_chemical_formula_sum   'Mg30 Cr1 Si1 O32'
_cell_volume   627.24606913
_cell_formula_units_Z   1
loop_
 _symmetry_equiv_pos_site_id
 _symmetry_equiv_pos_as_xyz
  1  'x, y, z'
loop_
 _atom_site_type_symbol
 _atom_site_label
 _atom_site_symmetry_multiplicity
 _atom_site_fract_x
 _atom_site_fract_y
 _atom_site_fract_z
 _atom_site_occupancy
  Mg  Mg0  1  0.50000000  0.00000000  0.00000000  1
  Mg  Mg1  1  0.50000000  0.00000000  0.50000000  1
  Mg  Mg2  1  0.00000000  0.50000000  0.00000000  1
  Mg  Mg3  1  0.00000000  0.50000000  0.50000000  1
  Mg  Mg4  1  0.50000000  0.50000000  0.00000000  1
  Mg  Mg5  1  0.50000000  0.50000000  0.50000000  1
  Mg  Mg6  1  0.25330800  0.00000000  0.25143200  1
  Mg  Mg7  1  0.25330800  0.00000000  0.74856800  1
  Mg  Mg8  1  0.74669200  0.00000000  0.25143200  1
  Mg  Mg9  1  0.74669200  0.00000000  0.74856800  1
  Mg  Mg10  1  0.25028600  0.50000000  0.25043900  1
  Mg  Mg11  1  0.25028600  0.50000000  0.74956100  1
  Mg  Mg12  1  0.74971400  0.50000000  0.25043900  1
  Mg  Mg13  1  0.74971400  0.50000000  0.74956100  1
  Mg  Mg14  1  0.00000000  0.25330800  0.25143200  1
  Mg  Mg15  1  0.00000000  0.25330800  0.74856800  1
  Mg  Mg16  1  0.50000000  0.25028600  0.25043900  1
  Mg  Mg17  1  0.50000000  0.25028600  0.74956100  1
  Mg  Mg18  1  0.00000000  0.74669200  0.25143200  1
  Mg  Mg19  1  0.00000000  0.74669200  0.74856800  1
  Mg  Mg20  1  0.50000000  0.74971400  0.25043900  1
  Mg  Mg21  1  0.50000000  0.74971400  0.74956100  1
  Mg  Mg22  1  0.25153800  0.25153800  0.00000000  1
  Mg  Mg23  1  0.25047500  0.25047500  0.50000000  1
  Mg  Mg24  1  0.74846200  0.25153800  0.00000000  1
  Mg  Mg25  1  0.74952500  0.25047500  0.50000000  1
  Mg  Mg26  1  0.25153800  0.74846200  0.00000000  1
  Mg  Mg27  1  0.25047500  0.74952500  0.50000000  1
  Mg  Mg28  1  0.74846200  0.74846200  0.00000000  1
  Mg  Mg29  1  0.74952500  0.74952500  0.50000000  1
  Cr  Cr0  1  0.00000000  0.00000000  0.50000000  1
  Si  Si0  1  0.00000000  0.00000000  0.00000000  1
  O  O0  1  0.00000000  0.25926700  0.00000000  1
  O  O1  1  0.00000000  0.25996200  0.50000000  1
  O  O2  1  0.50000000  0.25139700  0.00000000  1
  O  O3  1  0.50000000  0.25147200  0.50000000  1
  O  O4  1  0.00000000  0.74073300  0.00000000  1
  O  O5  1  0.00000000  0.74003800  0.50000000  1
  O  O6  1  0.50000000  0.74860300  0.00000000  1
  O  O7  1  0.50000000  0.74852800  0.50000000  1
  O  O8  1  0.24928000  0.24928000  0.24970300  1
  O  O9  1  0.24928000  0.24928000  0.75029700  1
  O  O10  1  0.75072000  0.24928000  0.24970300  1
  O  O11  1  0.75072000  0.24928000  0.75029700  1
  O  O12  1  0.24928000  0.75072000  0.24970300  1
  O  O13  1  0.24928000  0.75072000  0.75029700  1
  O  O14  1  0.75072000  0.75072000  0.24970300  1
  O  O15  1  0.75072000  0.75072000  0.75029700  1
  O  O16  1  0.00000000  0.00000000  0.25777100  1
  O  O17  1  0.00000000  0.00000000  0.74222900  1
  O  O18  1  0.50000000  0.00000000  0.24987000  1
  O  O19  1  0.50000000  0.00000000  0.75013000  1
  O  O20  1  0.00000000  0.50000000  0.24987000  1
  O  O21  1  0.00000000  0.50000000  0.75013000  1
  O  O22  1  0.50000000  0.50000000  0.25001000  1
  O  O23  1  0.50000000  0.50000000  0.74999000  1
  O  O24  1  0.25926700  0.00000000  0.00000000  1
  O  O25  1  0.25996200  0.00000000  0.50000000  1
  O  O26  1  0.74073300  0.00000000  0.00000000  1
  O  O27  1  0.74003800  0.00000000  0.50000000  1
  O  O28  1  0.25139700  0.50000000  0.00000000  1
  O  O29  1  0.25147200  0.50000000  0.50000000  1
  O  O30  1  0.74860300  0.50000000  0.00000000  1
  O  O31  1  0.74852800  0.50000000  0.50000000  1
loop_
_geom_bond_atom_site_label_1
_geom_bond_atom_site_label_2
_geom_bond_distance
_geom_bond_site_symmetry_2
Mg0 O26 2.064001 1_555
Mg0 O24 2.064001 1_555
Mg0 O18 2.132079 1_555
Mg0 O19 2.132079 1_554
Mg0 O6 2.155433 1_545
Mg0 O2 2.155433 1_555
Mg1 O25 2.058043 1_555
Mg1 O27 2.058043 1_555
Mg1 O18 2.134298 1_555
Mg1 O19 2.134298 1_555
Mg1 O3 2.156076 1_555
Mg1 O7 2.156076 1_545
Mg2 O4 2.064001 1_555
Mg2 O0 2.064001 1_555
Mg2 O20 2.132079 1_555
Mg2 O21 2.132079 1_554
Mg2 O30 2.155433 1_455
Mg2 O28 2.155433 1_555
Mg3 O1 2.058043 1_555
Mg3 O5 2.058043 1_555
Mg3 O21 2.134298 1_555
Mg3 O20 2.134298 1_555
Mg3 O29 2.156076 1_555
Mg3 O31 2.156076 1_455
Mg4 O30 2.131477 1_555
Mg4 O2 2.131477 1_555
Mg4 O28 2.131477 1_555
Mg4 O6 2.131477 1_555
Mg4 O23 2.133274 1_554
Mg4 O22 2.133274 1_555
Mg5 O31 2.130834 1_555
Mg5 O7 2.130834 1_555
Mg5 O29 2.130834 1_555
Mg5 O3 2.130834 1_555
Mg5 O22 2.133103 1_555
Mg5 O23 2.133103 1_555
Mg6 O18 2.115135 1_555
Mg6 O25 2.121737 1_555
Mg6 O12 2.137612 1_545
Mg6 O8 2.137612 1_555
Mg6 O24 2.146016 1_555
Mg6 O16 2.172491 1_555
Mg7 O19 2.115135 1_555
Mg7 O25 2.121737 1_555
Mg7 O13 2.137612 1_545
Mg7 O9 2.137612 1_555
Mg7 O24 2.146016 1_556
Mg7 O17 2.172491 1_555
Mg8 O18 2.115135 1_555
Mg8 O27 2.121737 1_555
Mg8 O14 2.137612 1_545
Mg8 O10 2.137612 1_555
Mg8 O26 2.146016 1_555
Mg8 O16 2.172491 1_655
Mg9 O19 2.115135 1_555
Mg9 O27 2.121737 1_555
Mg9 O15 2.137612 1_545
Mg9 O11 2.137612 1_555
Mg9 O26 2.146016 1_556
Mg9 O17 2.172491 1_655
Mg10 O29 2.129467 1_555
Mg10 O28 2.136956 1_555
Mg10 O22 2.141006 1_555
Mg10 O20 2.145913 1_555
Mg10 O8 2.149655 1_555
Mg10 O12 2.149655 1_555
Mg11 O29 2.129467 1_555
Mg11 O28 2.136956 1_556
Mg11 O23 2.141006 1_555
Mg11 O21 2.145913 1_555
Mg11 O9 2.149655 1_555
Mg11 O13 2.149655 1_555
Mg12 O31 2.129467 1_555
Mg12 O30 2.136956 1_555
Mg12 O22 2.141006 1_555
Mg12 O20 2.145913 1_655
Mg12 O10 2.149655 1_555
Mg12 O14 2.149655 1_555
Mg13 O31 2.129467 1_555
Mg13 O30 2.136956 1_556
Mg13 O23 2.141006 1_555
Mg13 O21 2.145913 1_655
Mg13 O11 2.149655 1_555
Mg13 O15 2.149655 1_555
Mg14 O20 2.115135 1_555
Mg14 O1 2.121737 1_555
Mg14 O10 2.137612 1_455
Mg14 O8 2.137612 1_555
Mg14 O0 2.146016 1_555
Mg14 O16 2.172491 1_555
Mg15 O21 2.115135 1_555
Mg15 O1 2.121737 1_555
Mg15 O11 2.137612 1_455
Mg15 O9 2.137612 1_555
Mg15 O0 2.146016 1_556
Mg15 O17 2.172491 1_555
Mg16 O3 2.129467 1_555
Mg16 O2 2.136956 1_555
Mg16 O22 2.141006 1_555
Mg16 O18 2.145913 1_555
Mg16 O8 2.149655 1_555
Mg16 O10 2.149655 1_555
Mg17 O3 2.129467 1_555
Mg17 O2 2.136956 1_556
Mg17 O23 2.141006 1_555
Mg17 O19 2.145913 1_555
Mg17 O9 2.149655 1_555
Mg17 O11 2.149655 1_555
Mg18 O20 2.115135 1_555
Mg18 O5 2.121737 1_555
Mg18 O14 2.137612 1_455
Mg18 O12 2.137612 1_555
Mg18 O4 2.146016 1_555
Mg18 O16 2.172491 1_565
Mg19 O21 2.115135 1_555
Mg19 O5 2.121737 1_555
Mg19 O15 2.137612 1_455
Mg19 O13 2.137612 1_555
Mg19 O4 2.146016 1_556
Mg19 O17 2.172491 1_565
Mg20 O7 2.129467 1_555
Mg20 O6 2.136956 1_555
Mg20 O22 2.141006 1_555
Mg20 O18 2.145913 1_565
Mg20 O12 2.149655 1_555
Mg20 O14 2.149655 1_555
Mg21 O7 2.129467 1_555
Mg21 O6 2.136956 1_556
Mg21 O23 2.141006 1_555
Mg21 O19 2.145913 1_565
Mg21 O13 2.149655 1_555
Mg21 O15 2.149655 1_555
Mg22 O28 2.130269 1_555
Mg22 O2 2.130269 1_555
Mg22 O8 2.130830 1_555
Mg22 O9 2.130830 1_554
Mg22 O0 2.157659 1_555
Mg22 O24 2.157659 1_555
Mg23 O8 2.135772 1_555
Mg23 O9 2.135772 1_555
Mg23 O29 2.139400 1_555
Mg23 O3 2.139400 1_555
Mg23 O1 2.149067 1_555
Mg23 O25 2.149067 1_555
Mg24 O2 2.130269 1_555
Mg24 O30 2.130269 1_555
Mg24 O10 2.130830 1_555
Mg24 O11 2.130830 1_554
Mg24 O26 2.157659 1_555
Mg24 O0 2.157659 1_655
Mg25 O11 2.135772 1_555
Mg25 O10 2.135772 1_555
Mg25 O31 2.139400 1_555
Mg25 O3 2.139400 1_555
Mg25 O1 2.149067 1_655
Mg25 O27 2.149067 1_555
Mg26 O28 2.130269 1_555
Mg26 O6 2.130269 1_555
Mg26 O13 2.130830 1_554
Mg26 O12 2.130830 1_555
Mg26 O4 2.157659 1_555
Mg26 O24 2.157659 1_565
Mg27 O13 2.135772 1_555
Mg27 O12 2.135772 1_555
Mg27 O7 2.139400 1_555
Mg27 O29 2.139400 1_555
Mg27 O5 2.149067 1_555
Mg27 O25 2.149067 1_565
Mg28 O30 2.130269 1_555
Mg28 O6 2.130269 1_555
Mg28 O14 2.130830 1_555
Mg28 O15 2.130830 1_554
Mg28 O26 2.157659 1_565
Mg28 O4 2.157659 1_655
Mg29 O14 2.135772 1_555
Mg29 O15 2.135772 1_555
Mg29 O7 2.139400 1_555
Mg29 O31 2.139400 1_555
Mg29 O5 2.149067 1_655
Mg29 O27 2.149067 1_565
Cr0 O17 2.066880 1_555
Cr0 O16 2.066880 1_555
Cr0 O5 2.228867 1_545
Cr0 O1 2.228867 1_555
Cr0 O27 2.228867 1_455
Cr0 O25 2.228867 1_555
O0 Si0 2.222909 1_555
O4 Si0 2.222909 1_565
O16 Si0 2.199497 1_555
O17 Si0 2.199497 1_556
O24 Si0 2.222909 1_555
O26 Si0 2.222909 1_655
