# generated using pymatgen
data_OsXeO3F8
_symmetry_space_group_name_H-M   'P 1'
_cell_length_a   17.63694100
_cell_length_b   17.63694100
_cell_length_c   5.69911400
_cell_angle_alpha   90.00000000
_cell_angle_beta   90.00000000
_cell_angle_gamma   90.00000000
_symmetry_Int_Tables_number   1
_chemical_formula_structural   OsXeO3F8
_chemical_formula_sum   'Os8 Xe8 O24 F64'
_cell_volume   1772.77602002
_cell_formula_units_Z   8
loop_
 _symmetry_equiv_pos_site_id
 _symmetry_equiv_pos_as_xyz
  1  'x, y, z'
loop_
 _atom_site_type_symbol
 _atom_site_label
 _atom_site_symmetry_multiplicity
 _atom_site_fract_x
 _atom_site_fract_y
 _atom_site_fract_z
 _atom_site_occupancy
  Os  Os0  1  0.82763000  0.54905800  0.21597300  1
  Os  Os1  1  0.17237000  0.45094200  0.21597300  1
  Os  Os2  1  0.95094200  0.32763000  0.71597300  1
  Os  Os3  1  0.04905800  0.67237000  0.71597300  1
  Os  Os4  1  0.67237000  0.95094200  0.28402700  1
  Os  Os5  1  0.32763000  0.04905800  0.28402700  1
  Os  Os6  1  0.54905800  0.17237000  0.78402700  1
  Os  Os7  1  0.45094200  0.82763000  0.78402700  1
  Xe  Xe0  1  0.68537100  0.40801600  0.27203700  1
  Xe  Xe1  1  0.31462900  0.59198400  0.27203700  1
  Xe  Xe2  1  0.09198400  0.18537100  0.77203700  1
  Xe  Xe3  1  0.90801600  0.81462900  0.77203700  1
  Xe  Xe4  1  0.81462900  0.09198400  0.22796300  1
  Xe  Xe5  1  0.18537100  0.90801600  0.22796300  1
  Xe  Xe6  1  0.40801600  0.31462900  0.72796300  1
  Xe  Xe7  1  0.59198400  0.68537100  0.72796300  1
  O  O0  1  0.91660000  0.52949600  0.32127800  1
  O  O1  1  0.08340000  0.47050400  0.32127800  1
  O  O2  1  0.97050400  0.41660000  0.82127800  1
  O  O3  1  0.02949600  0.58340000  0.82127800  1
  O  O4  1  0.58340000  0.97050400  0.17872200  1
  O  O5  1  0.41660000  0.02949600  0.17872200  1
  O  O6  1  0.52949600  0.08340000  0.67872200  1
  O  O7  1  0.47050400  0.91660000  0.67872200  1
  O  O8  1  0.84379300  0.57531200  0.93073600  1
  O  O9  1  0.15620700  0.42468800  0.93073600  1
  O  O10  1  0.92468800  0.34379300  0.43073600  1
  O  O11  1  0.07531200  0.65620700  0.43073600  1
  O  O12  1  0.65620700  0.92468800  0.56926400  1
  O  O13  1  0.34379300  0.07531200  0.56926400  1
  O  O14  1  0.57531200  0.15620700  0.06926400  1
  O  O15  1  0.42468800  0.84379300  0.06926400  1
  O  O16  1  0.80462300  0.63300800  0.34890200  1
  O  O17  1  0.19537700  0.36699200  0.34890200  1
  O  O18  1  0.86699200  0.30462300  0.84890200  1
  O  O19  1  0.13300800  0.69537700  0.84890200  1
  O  O20  1  0.69537700  0.86699200  0.15109800  1
  O  O21  1  0.30462300  0.13300800  0.15109800  1
  O  O22  1  0.63300800  0.19537700  0.65109800  1
  O  O23  1  0.36699200  0.80462300  0.65109800  1
  F  F0  1  0.78116800  0.49038400  0.48829500  1
  F  F1  1  0.21883200  0.50961600  0.48829500  1
  F  F2  1  0.00961600  0.28116800  0.98829500  1
  F  F3  1  0.99038400  0.71883200  0.98829500  1
  F  F4  1  0.71883200  0.00961600  0.01170500  1
  F  F5  1  0.28116800  0.99038400  0.01170500  1
  F  F6  1  0.49038400  0.21883200  0.51170500  1
  F  F7  1  0.50961600  0.78116800  0.51170500  1
  F  F8  1  0.75168500  0.33731700  0.45713300  1
  F  F9  1  0.24831500  0.66268300  0.45713300  1
  F  F10  1  0.16268300  0.25168500  0.95713300  1
  F  F11  1  0.83731700  0.74831500  0.95713300  1
  F  F12  1  0.74831500  0.16268300  0.04286700  1
  F  F13  1  0.25168500  0.83731700  0.04286700  1
  F  F14  1  0.33731700  0.24831500  0.54286700  1
  F  F15  1  0.66268300  0.75168500  0.54286700  1
  F  F16  1  0.59482300  0.44730100  0.10162600  1
  F  F17  1  0.40517700  0.55269900  0.10162600  1
  F  F18  1  0.05269900  0.09482300  0.60162600  1
  F  F19  1  0.94730100  0.90517700  0.60162600  1
  F  F20  1  0.90517700  0.05269900  0.39837400  1
  F  F21  1  0.09482300  0.94730100  0.39837400  1
  F  F22  1  0.44730100  0.40517700  0.89837400  1
  F  F23  1  0.55269900  0.59482300  0.89837400  1
  F  F24  1  0.63663000  0.44884400  0.56279800  1
  F  F25  1  0.36337000  0.55115600  0.56279800  1
  F  F26  1  0.05115600  0.13663000  0.06279800  1
  F  F27  1  0.94884400  0.86337000  0.06279800  1
  F  F28  1  0.86337000  0.05115600  0.93720200  1
  F  F29  1  0.13663000  0.94884400  0.93720200  1
  F  F30  1  0.44884400  0.36337000  0.43720200  1
  F  F31  1  0.55115600  0.63663000  0.43720200  1
  F  F32  1  0.71267100  0.53550500  0.13741100  1
  F  F33  1  0.28732900  0.46449500  0.13741100  1
  F  F34  1  0.96449500  0.21267100  0.63741100  1
  F  F35  1  0.03550500  0.78732900  0.63741100  1
  F  F36  1  0.78732900  0.96449500  0.36258900  1
  F  F37  1  0.21267100  0.03550500  0.36258900  1
  F  F38  1  0.53550500  0.28732900  0.86258900  1
  F  F39  1  0.46449500  0.71267100  0.86258900  1
  F  F40  1  0.81421300  0.43972100  0.10176500  1
  F  F41  1  0.18578700  0.56027900  0.10176500  1
  F  F42  1  0.06027900  0.31421300  0.60176500  1
  F  F43  1  0.93972100  0.68578700  0.60176500  1
  F  F44  1  0.68578700  0.06027900  0.39823500  1
  F  F45  1  0.31421300  0.93972100  0.39823500  1
  F  F46  1  0.43972100  0.18578700  0.89823500  1
  F  F47  1  0.56027900  0.81421300  0.89823500  1
  F  F48  1  0.70339500  0.34454000  0.98629000  1
  F  F49  1  0.29660500  0.65546000  0.98629000  1
  F  F50  1  0.15546000  0.20339500  0.48629000  1
  F  F51  1  0.84454000  0.79660500  0.48629000  1
  F  F52  1  0.79660500  0.15546000  0.51371000  1
  F  F53  1  0.20339500  0.84454000  0.51371000  1
  F  F54  1  0.34454000  0.29660500  0.01371000  1
  F  F55  1  0.65546000  0.70339500  0.01371000  1
  F  F56  1  0.61316500  0.32491200  0.33661800  1
  F  F57  1  0.38683500  0.67508800  0.33661800  1
  F  F58  1  0.17508800  0.11316500  0.83661800  1
  F  F59  1  0.82491200  0.88683500  0.83661800  1
  F  F60  1  0.88683500  0.17508800  0.16338200  1
  F  F61  1  0.11316500  0.82491200  0.16338200  1
  F  F62  1  0.32491200  0.38683500  0.66338200  1
  F  F63  1  0.67508800  0.61316500  0.66338200  1
loop_
_geom_bond_atom_site_label_1
_geom_bond_atom_site_label_2
_geom_bond_distance
_geom_bond_site_symmetry_2
O0 Os0 1.715071 1_555
O1 Os1 1.715071 1_555
O2 Os2 1.715071 1_555
O3 Os3 1.715071 1_555
O4 Os4 1.715071 1_555
O5 Os5 1.715071 1_555
O6 Os6 1.715071 1_555
O7 Os7 1.715071 1_555
O8 Os0 1.714129 1_556
O9 Os1 1.714129 1_556
O10 Os2 1.714129 1_555
O11 Os3 1.714129 1_555
O12 Os4 1.714129 1_555
O13 Os5 1.714129 1_555
O14 Os6 1.714129 1_554
O15 Os7 1.714129 1_554
O16 Os0 1.711962 1_555
O17 Os1 1.711962 1_555
O18 Os2 1.711962 1_555
O19 Os3 1.711962 1_555
O20 Os4 1.711962 1_555
O21 Os5 1.711962 1_555
O22 Os6 1.711962 1_555
O23 Os7 1.711962 1_555
F0 Os0 2.037413 1_555
F0 Xe0 2.546376 1_555
F1 Os1 2.037413 1_555
F1 Xe1 2.546376 1_555
F2 Os2 2.037413 1_455
F2 Xe2 2.546376 1_555
F3 Os3 2.037413 1_655
F3 Xe3 2.546376 1_555
F4 Os4 2.037413 1_545
F4 Xe4 2.546376 1_555
F5 Os5 2.037413 1_565
F5 Xe5 2.546376 1_555
F6 Os6 2.037413 1_555
F6 Xe6 2.546376 1_555
F7 Os7 2.037413 1_555
F7 Xe7 2.546376 1_555
F8 Xe0 2.008851 1_555
F9 Xe1 2.008851 1_555
F10 Xe2 2.008851 1_555
F11 Xe3 2.008851 1_555
F12 Xe4 2.008851 1_555
F13 Xe5 2.008851 1_555
F14 Xe6 2.008851 1_555
F15 Xe7 2.008851 1_555
F16 Xe0 1.993403 1_555
F17 Xe1 1.993403 1_555
F18 Xe2 1.993403 1_555
F19 Xe3 1.993403 1_555
F20 Xe4 1.993403 1_555
F21 Xe5 1.993403 1_555
F22 Xe6 1.993403 1_555
F23 Xe7 1.993403 1_555
F24 Xe0 2.000854 1_555
F25 Xe1 2.000854 1_555
F26 Xe2 2.000854 1_554
F27 Xe3 2.000854 1_554
F28 Xe4 2.000854 1_556
F29 Xe5 2.000854 1_556
F30 Xe6 2.000854 1_555
F31 Xe7 2.000854 1_555
F32 Os0 2.090086 1_555
F32 Xe0 2.424113 1_555
F33 Os1 2.090086 1_555
F33 Xe1 2.424113 1_555
F34 Os2 2.090086 1_555
F34 Xe2 2.424113 1_655
F35 Os3 2.090086 1_555
F35 Xe3 2.424113 1_455
F36 Os4 2.090086 1_555
F36 Xe4 2.424113 1_565
F37 Os5 2.090086 1_555
F37 Xe5 2.424113 1_545
F38 Os6 2.090086 1_555
F38 Xe6 2.424113 1_555
F39 Os7 2.090086 1_555
F39 Xe7 2.424113 1_555
F40 Os0 2.048965 1_555
F40 Xe0 2.533389 1_555
F41 Os1 2.048965 1_555
F41 Xe1 2.533389 1_555
F42 Os2 2.048965 1_455
F42 Xe2 2.533389 1_555
F43 Os3 2.048965 1_655
F43 Xe3 2.533389 1_555
F44 Os4 2.048965 1_545
F44 Xe4 2.533389 1_555
F45 Os5 2.048965 1_565
F45 Xe5 2.533389 1_555
F46 Os6 2.048965 1_555
F46 Xe6 2.533389 1_555
F47 Os7 2.048965 1_555
F47 Xe7 2.533389 1_555
F48 Xe0 2.001602 1_556
F49 Xe1 2.001602 1_556
F50 Xe2 2.001602 1_555
F51 Xe3 2.001602 1_555
F52 Xe4 2.001602 1_555
F53 Xe5 2.001602 1_555
F54 Xe6 2.001602 1_554
F55 Xe7 2.001602 1_554
F56 Xe0 1.976240 1_555
F57 Xe1 1.976240 1_555
F58 Xe2 1.976240 1_555
F59 Xe3 1.976240 1_555
F60 Xe4 1.976240 1_555
F61 Xe5 1.976240 1_555
F62 Xe6 1.976240 1_555
F63 Xe7 1.976240 1_555
