# generated using pymatgen
data_Li4Mn3O7
_symmetry_space_group_name_H-M   'P 1'
_cell_length_a   9.89266974
_cell_length_b   9.89266974
_cell_length_c   9.88601380
_cell_angle_alpha   69.11819558
_cell_angle_beta   69.11819558
_cell_angle_gamma   16.73067173
_symmetry_Int_Tables_number   1
_chemical_formula_structural   Li4Mn3O7
_chemical_formula_sum   'Li8 Mn6 O14'
_cell_volume   259.81225065
_cell_formula_units_Z   2
loop_
 _symmetry_equiv_pos_site_id
 _symmetry_equiv_pos_as_xyz
  1  'x, y, z'
loop_
 _atom_site_type_symbol
 _atom_site_label
 _atom_site_symmetry_multiplicity
 _atom_site_fract_x
 _atom_site_fract_y
 _atom_site_fract_z
 _atom_site_occupancy
  Li  Li0  1  0.43245200  0.43245200  0.78972700  1
  Li  Li1  1  0.13716900  0.13716900  0.93522400  1
  Li  Li2  1  0.86283100  0.86283100  0.06477600  1
  Li  Li3  1  0.56754800  0.56754800  0.21027300  1
  Li  Li4  1  0.29168400  0.29168400  0.34645100  1
  Li  Li5  1  0.00000000  0.00000000  0.50000000  1
  Li  Li6  1  0.70831600  0.70831600  0.65354900  1
  Li  Li7  1  0.50000000  0.50000000  0.00000000  1
  Mn  Mn0  1  0.06424600  0.06424600  0.73052000  1
  Mn  Mn1  1  0.93575400  0.93575400  0.26948000  1
  Mn  Mn2  1  0.78697900  0.78697900  0.85420900  1
  Mn  Mn3  1  0.21302100  0.21302100  0.14579100  1
  Mn  Mn4  1  0.64069500  0.64069500  0.43770800  1
  Mn  Mn5  1  0.35930500  0.35930500  0.56229200  1
  O  O0  1  0.53692900  0.53692900  0.62487400  1
  O  O1  1  0.25140800  0.25140800  0.76057800  1
  O  O2  1  0.97474500  0.97474500  0.87511900  1
  O  O3  1  0.67810000  0.67810000  0.05153600  1
  O  O4  1  0.39633600  0.39633600  0.18800300  1
  O  O5  1  0.10792500  0.10792500  0.34211900  1
  O  O6  1  0.83153200  0.83153200  0.45532200  1
  O  O7  1  0.32190000  0.32190000  0.94846400  1
  O  O8  1  0.02525500  0.02525500  0.12488100  1
  O  O9  1  0.74859200  0.74859200  0.23942200  1
  O  O10  1  0.46307100  0.46307100  0.37512600  1
  O  O11  1  0.16846800  0.16846800  0.54467800  1
  O  O12  1  0.89207500  0.89207500  0.65788100  1
  O  O13  1  0.60366400  0.60366400  0.81199700  1
loop_
_geom_bond_atom_site_label_1
_geom_bond_atom_site_label_2
_geom_bond_distance
_geom_bond_site_symmetry_2
Li0 O2 1.993238 1_455
Li0 O2 1.993238 1_545
Li0 O0 2.106411 1_555
Li0 O7 2.167653 1_555
Li0 O12 2.266564 1_545
Li0 O12 2.266564 1_455
Li1 O13 2.135720 1_545
Li1 O13 2.135720 1_455
Li1 O3 2.167798 1_456
Li1 O3 2.167798 1_546
Li1 O1 2.280269 1_555
Li1 O8 2.314083 1_556
Li2 O4 2.135720 1_655
Li2 O4 2.135720 1_565
Li2 O7 2.167798 1_654
Li2 O7 2.167798 1_564
Li2 O9 2.280269 1_555
Li2 O2 2.314083 1_554
Li3 O8 1.993238 1_655
Li3 O8 1.993238 1_565
Li3 O10 2.106411 1_555
Li3 O3 2.167653 1_555
Li3 O5 2.266564 1_655
Li3 O5 2.266564 1_565
Li4 O4 2.082799 1_555
Li4 O6 2.107880 1_545
Li4 O6 2.107880 1_455
Li4 O9 2.132033 1_545
Li4 O9 2.132033 1_455
Li4 O11 2.500399 1_555
Li5 O5 2.126815 1_555
Li5 O12 2.126815 1_445
Li5 O10 2.181962 1_455
Li5 O10 2.181962 1_545
Li5 O0 2.181962 1_545
Li5 O0 2.181962 1_455
Li6 O13 2.082799 1_555
Li6 O11 2.107880 1_655
Li6 O11 2.107880 1_565
Li6 O1 2.132033 1_655
Li6 O1 2.132033 1_565
Li6 O6 2.500399 1_555
Li7 O8 2.068749 1_655
Li7 O8 2.068749 1_565
Li7 O2 2.068749 1_544
Li7 O2 2.068749 1_454
Li7 O4 2.203301 1_555
Li7 O13 2.203301 1_554
Mn0 O2 1.818874 1_445
Mn0 O13 1.939944 1_545
Mn0 O13 1.939944 1_455
Mn0 O0 1.962278 1_545
Mn0 O0 1.962278 1_455
Mn0 O11 2.199273 1_555
Mn1 O8 1.818874 1_665
Mn1 O4 1.939944 1_655
Mn1 O4 1.939944 1_565
Mn1 O10 1.962278 1_565
Mn1 O10 1.962278 1_655
Mn1 O6 2.199273 1_555
Mn2 O7 1.966183 1_655
Mn2 O7 1.966183 1_565
Mn2 O1 1.969117 1_655
Mn2 O1 1.969117 1_565
Mn2 O12 2.263238 1_555
Mn2 O3 2.313465 1_556
Mn3 O3 1.966183 1_545
Mn3 O3 1.966183 1_455
Mn3 O9 1.969117 1_545
Mn3 O9 1.969117 1_455
Mn3 O5 2.263238 1_555
Mn3 O7 2.313465 1_554
Mn4 O5 1.952604 1_565
Mn4 O5 1.952604 1_655
Mn4 O11 1.974719 1_655
Mn4 O11 1.974719 1_565
Mn4 O0 2.200315 1_555
Mn4 O9 2.306561 1_555
Mn5 O12 1.952604 1_545
Mn5 O12 1.952604 1_455
Mn5 O6 1.974719 1_545
Mn5 O6 1.974719 1_455
Mn5 O10 2.200315 1_555
Mn5 O1 2.306561 1_555
