# generated using pymatgen
data_MgCd4(TcO3)4
_symmetry_space_group_name_H-M   'P 1'
_cell_length_a   5.66227092
_cell_length_b   5.59708551
_cell_length_c   7.99258471
_cell_angle_alpha   92.42230867
_cell_angle_beta   90.41470807
_cell_angle_gamma   88.32353782
_symmetry_Int_Tables_number   1
_chemical_formula_structural   MgCd4(TcO3)4
_chemical_formula_sum   'Mg1 Cd4 Tc4 O12'
_cell_volume   252.96347678
_cell_formula_units_Z   1
loop_
 _symmetry_equiv_pos_site_id
 _symmetry_equiv_pos_as_xyz
  1  'x, y, z'
loop_
 _atom_site_type_symbol
 _atom_site_label
 _atom_site_symmetry_multiplicity
 _atom_site_fract_x
 _atom_site_fract_y
 _atom_site_fract_z
 _atom_site_occupancy
  Mg  Mg0  1  0.71422100  0.67139200  0.22741900  1
  Cd  Cd0  1  0.40971200  0.35227000  0.27136400  1
  Cd  Cd1  1  0.97608600  0.09041600  0.24815300  1
  Cd  Cd2  1  0.51108800  0.47505800  0.75531400  1
  Cd  Cd3  1  0.01082100  0.98873300  0.75625400  1
  Tc  Tc0  1  0.01900600  0.53006200  0.98445300  1
  Tc  Tc1  1  0.50001700  0.98983500  0.51306900  1
  Tc  Tc2  1  0.01121200  0.51867100  0.51351100  1
  Tc  Tc3  1  0.50089500  0.01861500  0.99254000  1
  O  O0  1  0.82523400  0.85255100  0.03817800  1
  O  O1  1  0.71028600  0.30559600  0.45082800  1
  O  O2  1  0.20440300  0.20749200  0.55372500  1
  O  O3  1  0.30127300  0.73041000  0.92371000  1
  O  O4  1  0.19324600  0.21259500  0.96484000  1
  O  O5  1  0.30589300  0.70891700  0.55604700  1
  O  O6  1  0.80866800  0.81111400  0.45219500  1
  O  O7  1  0.69145400  0.36081100  0.05384700  1
  O  O8  1  0.42983600  0.92768600  0.24928700  1
  O  O9  1  0.05934000  0.50744300  0.24478100  1
  O  O10  1  0.60435600  0.06455200  0.75265500  1
  O  O11  1  0.90343000  0.55673600  0.74783100  1
loop_
_geom_bond_atom_site_label_1
_geom_bond_atom_site_label_2
_geom_bond_distance
_geom_bond_site_symmetry_2
Mg0 O0 1.972730 1_555
Mg0 O6 2.004230 1_555
Mg0 O8 2.128148 1_555
Mg0 O9 2.140551 1_655
Mg0 O7 2.183968 1_555
Cd0 O9 2.154996 1_555
Cd0 O1 2.234410 1_555
Cd0 O7 2.370942 1_555
Cd0 O8 2.374985 1_545
Cd1 O0 2.274975 1_545
Cd1 O9 2.396043 1_655
Cd1 O1 2.470635 1_555
Cd1 O6 2.515283 1_545
Cd1 O8 2.700773 1_645
Cd1 O7 2.705452 1_555
Cd1 O4 2.706941 1_654
Cd2 O3 2.242052 1_555
Cd2 O11 2.282871 1_555
Cd2 O10 2.341693 1_555
Cd2 O5 2.379126 1_555
Cd2 O7 2.683399 1_556
Cd3 O4 2.300108 1_565
Cd3 O10 2.328264 1_465
Cd3 O2 2.364887 1_565
Cd3 O11 2.508450 1_455
Cd3 O3 2.564991 1_555
Cd3 O0 2.643662 1_456
Cd3 O5 2.734710 1_555
Cd3 O6 2.833124 1_455
O0 Tc3 2.070936 1_564
O0 Tc0 2.114629 1_654
O1 Tc2 2.152368 1_655
O1 Tc1 2.234839 1_545
O2 Tc1 2.060721 1_545
O2 Tc2 2.064989 1_555
O3 Tc3 2.050619 1_565
O3 Tc0 2.051769 1_555
O4 Tc0 2.007834 1_555
O4 Tc3 2.041180 1_555
O5 Tc1 1.987621 1_555
O5 Tc2 2.024520 1_555
O6 Tc1 2.039747 1_555
O6 Tc2 2.045604 1_655
O7 Tc0 2.192487 1_654
O7 Tc3 2.259789 1_554
O8 Tc1 2.158197 1_555
O8 Tc3 2.178100 1_564
O9 Tc0 2.100278 1_554
O9 Tc2 2.165069 1_555
O10 Tc1 2.030074 1_545
O10 Tc3 2.037666 1_555
O11 Tc2 1.974973 1_655
O11 Tc0 2.006866 1_655
