# generated using pymatgen
data_Pr(Sn3Ru2)2
_symmetry_space_group_name_H-M   'P 1'
_cell_length_a   6.92957633
_cell_length_b   6.92961484
_cell_length_c   6.92960376
_cell_angle_alpha   89.85822362
_cell_angle_beta   120.08197747
_cell_angle_gamma   120.08198133
_symmetry_Int_Tables_number   1
_chemical_formula_structural   Pr(Sn3Ru2)2
_chemical_formula_sum   'Pr1 Sn6 Ru4'
_cell_volume   235.00043589
_cell_formula_units_Z   1
loop_
 _symmetry_equiv_pos_site_id
 _symmetry_equiv_pos_as_xyz
  1  'x, y, z'
loop_
 _atom_site_type_symbol
 _atom_site_label
 _atom_site_symmetry_multiplicity
 _atom_site_fract_x
 _atom_site_fract_y
 _atom_site_fract_z
 _atom_site_occupancy
  Pr  Pr0  1  -0.00000751  0.99999886  -0.00000766  1
  Sn  Sn0  1  0.64494361  0.11827054  0.11826961  1
  Sn  Sn1  1  0.35504483  0.47333089  0.47333199  1
  Sn  Sn2  1  0.99999806  0.88175000  0.52667678  1
  Sn  Sn3  1  0.00000077  0.52666275  0.88171507  1
  Sn  Sn4  1  0.49996707  0.49999520  -0.00002987  1
  Sn  Sn5  1  0.50002660  0.00001109  0.50001530  1
  Ru  Ru0  1  0.34186623  0.75020803  0.75022710  1
  Ru  Ru1  1  0.65814121  0.40834499  0.40836466  1
  Ru  Ru2  1  0.00000788  0.24978099  0.59164925  1
  Ru  Ru3  1  0.00001026  0.59164566  0.24978878  1
loop_
_geom_bond_atom_site_label_1
_geom_bond_atom_site_label_2
_geom_bond_distance
_geom_bond_site_symmetry_2
Pr0 Ru0 3.313405 1_454
Pr0 Ru2 3.313431 1_564
Pr0 Ru1 3.313514 1_565
Pr0 Ru3 3.313547 1_555
Pr0 Sn2 3.382688 1_454
Pr0 Sn0 3.382753 1_465
Pr0 Sn1 3.382859 1_565
Pr0 Sn3 3.382891 1_554
Pr0 Sn5 3.460346 1_464
Pr0 Sn4 3.460480 1_565
Pr0 Sn4 3.460527 1_455
Pr0 Sn5 3.460656 1_565
Pr0 Sn3 3.738478 1_564
Pr0 Sn1 3.738492 1_454
Pr0 Sn0 3.738556 1_565
Pr0 Sn2 3.738576 1_455
Ru0 Sn0 2.590991 1_566
Ru0 Sn4 2.681490 1_556
Ru0 Sn5 2.681834 1_565
Ru0 Sn3 2.705548 1_555
Ru0 Sn2 2.705858 1_455
Ru0 Sn1 2.782227 1_555
Ru0 Ru2 2.831743 1_555
Ru0 Ru3 2.831804 1_555
Ru1 Sn1 2.591128 1_555
Ru1 Sn5 2.681636 1_555
Ru1 Sn4 2.681988 1_555
Ru1 Sn3 2.705531 1_655
Ru1 Sn2 2.705831 1_555
Ru1 Sn0 2.782332 1_555
Ru1 Ru2 2.831758 1_655
Ru1 Ru3 2.831840 1_655
Ru2 Sn2 2.590808 1_445
Ru2 Sn4 2.681506 1_556
Ru2 Sn5 2.681646 1_455
Ru2 Sn1 2.705556 1_555
Ru2 Sn0 2.705697 1_455
Ru2 Sn3 2.782246 1_555
Ru3 Sn3 2.591109 1_554
Ru3 Sn5 2.681808 1_565
Ru3 Sn4 2.681963 1_455
Ru3 Sn1 2.705525 1_555
Ru3 Sn0 2.705673 1_455
Ru3 Sn2 2.782495 1_455
