# generated using pymatgen
data_CaMo4O9
_symmetry_space_group_name_H-M   'P 1'
_cell_length_a   8.80427200
_cell_length_b   8.80427200
_cell_length_c   5.07886200
_cell_angle_alpha   90.00000000
_cell_angle_beta   90.00000000
_cell_angle_gamma   90.00000000
_symmetry_Int_Tables_number   1
_chemical_formula_structural   CaMo4O9
_chemical_formula_sum   'Ca2 Mo8 O18'
_cell_volume   393.68903138
_cell_formula_units_Z   2
loop_
 _symmetry_equiv_pos_site_id
 _symmetry_equiv_pos_as_xyz
  1  'x, y, z'
loop_
 _atom_site_type_symbol
 _atom_site_label
 _atom_site_symmetry_multiplicity
 _atom_site_fract_x
 _atom_site_fract_y
 _atom_site_fract_z
 _atom_site_occupancy
  Ca  Ca0  1  0.00000000  0.50000000  0.80163900  1
  Ca  Ca1  1  0.50000000  0.00000000  0.19836100  1
  Mo  Mo0  1  0.70351300  0.39746200  0.32849900  1
  Mo  Mo1  1  0.39746200  0.29648700  0.67150100  1
  Mo  Mo2  1  0.89746200  0.79648700  0.32849900  1
  Mo  Mo3  1  0.20351300  0.89746200  0.67150100  1
  Mo  Mo4  1  0.29648700  0.60253800  0.32849900  1
  Mo  Mo5  1  0.10253800  0.20351300  0.32849900  1
  Mo  Mo6  1  0.79648700  0.10253800  0.67150100  1
  Mo  Mo7  1  0.60253800  0.70351300  0.67150100  1
  O  O0  1  0.50000000  0.50000000  0.50000000  1
  O  O1  1  0.00000000  0.00000000  0.50000000  1
  O  O2  1  0.54508200  0.75579600  0.00111200  1
  O  O3  1  0.74420400  0.04508200  0.00111200  1
  O  O4  1  0.25579600  0.95491800  0.00111200  1
  O  O5  1  0.45491800  0.24420400  0.00111200  1
  O  O6  1  0.95491800  0.74420400  0.99888800  1
  O  O7  1  0.75579600  0.45491800  0.99888800  1
  O  O8  1  0.24420400  0.54508200  0.99888800  1
  O  O9  1  0.04508200  0.25579600  0.99888800  1
  O  O10  1  0.20310300  0.39003700  0.49843600  1
  O  O11  1  0.10996300  0.70310300  0.49843600  1
  O  O12  1  0.89003700  0.29689700  0.49843600  1
  O  O13  1  0.79689700  0.60996300  0.49843600  1
  O  O14  1  0.70310300  0.89003700  0.50156400  1
  O  O15  1  0.39003700  0.79689700  0.50156400  1
  O  O16  1  0.60996300  0.20310300  0.50156400  1
  O  O17  1  0.29689700  0.10996300  0.50156400  1
loop_
_geom_bond_atom_site_label_1
_geom_bond_atom_site_label_2
_geom_bond_distance
_geom_bond_site_symmetry_2
Ca0 O9 2.404955 1_555
Ca0 O8 2.404955 1_555
Ca0 O7 2.404955 1_455
Ca0 O6 2.404955 1_455
Ca0 O12 2.550734 1_455
Ca0 O11 2.550734 1_555
Ca0 O10 2.550734 1_555
Ca0 O13 2.550734 1_455
Ca1 O2 2.404955 1_545
Ca1 O5 2.404955 1_555
Ca1 O4 2.404955 1_545
Ca1 O3 2.404955 1_555
Ca1 O17 2.550734 1_555
Ca1 O16 2.550734 1_555
Ca1 O15 2.550734 1_545
Ca1 O14 2.550734 1_545
Mo0 O7 1.808375 1_554
Mo0 O12 2.055651 1_555
Mo0 O16 2.092641 1_555
Mo0 O0 2.187277 1_555
Mo0 O13 2.218383 1_555
Mo1 O5 1.808375 1_556
Mo1 O17 2.055651 1_555
Mo1 O10 2.092641 1_555
Mo1 O0 2.187277 1_555
Mo1 O16 2.218383 1_555
Mo2 O6 1.808375 1_554
Mo2 O13 2.055651 1_555
Mo2 O14 2.092641 1_555
Mo2 O1 2.187277 1_665
Mo2 O11 2.218383 1_655
Mo3 O4 1.808375 1_556
Mo3 O15 2.055651 1_555
Mo3 O11 2.092641 1_555
Mo3 O1 2.187277 1_565
Mo3 O17 2.218383 1_565
Mo4 O8 1.808375 1_554
Mo4 O11 2.055651 1_555
Mo4 O15 2.092641 1_555
Mo4 O0 2.187277 1_555
Mo4 O10 2.218383 1_555
Mo5 O9 1.808375 1_554
Mo5 O10 2.055651 1_555
Mo5 O17 2.092641 1_555
Mo5 O1 2.187277 1_555
Mo5 O12 2.218383 1_455
Mo6 O3 1.808375 1_556
Mo6 O16 2.055651 1_555
Mo6 O12 2.092641 1_555
Mo6 O1 2.187277 1_655
Mo6 O14 2.218383 1_545
Mo7 O2 1.808375 1_556
Mo7 O14 2.055651 1_555
Mo7 O13 2.092641 1_555
Mo7 O0 2.187277 1_555
Mo7 O15 2.218383 1_555
