# generated using pymatgen
data_Tb3ZnAu5
_symmetry_space_group_name_H-M   'P 1'
_cell_length_a   8.37091266
_cell_length_b   8.37091266
_cell_length_c   13.40228131
_cell_angle_alpha   90.00000000
_cell_angle_beta   90.00000000
_cell_angle_gamma   127.49620378
_symmetry_Int_Tables_number   1
_chemical_formula_structural   Tb3ZnAu5
_chemical_formula_sum   'Tb12 Zn4 Au20'
_cell_volume   745.09746112
_cell_formula_units_Z   4
loop_
 _symmetry_equiv_pos_site_id
 _symmetry_equiv_pos_as_xyz
  1  'x, y, z'
loop_
 _atom_site_type_symbol
 _atom_site_label
 _atom_site_symmetry_multiplicity
 _atom_site_fract_x
 _atom_site_fract_y
 _atom_site_fract_z
 _atom_site_occupancy
  Tb  Tb0  1  0.92594243  0.07405757  0.25000000  1
  Tb  Tb1  1  0.07405757  0.92594243  0.75000000  1
  Tb  Tb2  1  0.32176869  0.67823131  0.25000000  1
  Tb  Tb3  1  0.67823131  0.32176869  0.75000000  1
  Tb  Tb4  1  0.63023840  0.36976160  0.46223321  1
  Tb  Tb5  1  0.36976160  0.63023840  0.53776679  1
  Tb  Tb6  1  0.63023840  0.36976160  0.03776679  1
  Tb  Tb7  1  0.36976160  0.63023840  0.96223321  1
  Tb  Tb8  1  0.88144085  0.11855915  0.94957243  1
  Tb  Tb9  1  0.11855915  0.88144085  0.05042757  1
  Tb  Tb10  1  0.88144085  0.11855915  0.55042757  1
  Tb  Tb11  1  0.11855915  0.88144085  0.44957243  1
  Zn  Zn0  1  0.71916110  0.28083890  0.25000000  1
  Zn  Zn1  1  0.28083890  0.71916110  0.75000000  1
  Zn  Zn2  1  0.53391452  0.46608548  0.25000000  1
  Zn  Zn3  1  0.46608548  0.53391452  0.75000000  1
  Au  Au0  1  0.31822770  0.06420077  0.25000000  1
  Au  Au1  1  0.06420077  0.31822770  0.75000000  1
  Au  Au2  1  0.68177230  0.93579923  0.75000000  1
  Au  Au3  1  0.93579923  0.68177230  0.25000000  1
  Au  Au4  1  0.56993439  0.00264116  0.39722299  1
  Au  Au5  1  0.00264116  0.56993439  0.60277701  1
  Au  Au6  1  0.56993439  0.00264116  0.10277701  1
  Au  Au7  1  0.00264116  0.56993439  0.89722299  1
  Au  Au8  1  0.43006561  0.99735884  0.60277701  1
  Au  Au9  1  0.99735884  0.43006561  0.39722299  1
  Au  Au10  1  0.43006561  0.99735884  0.89722299  1
  Au  Au11  1  0.99735884  0.43006561  0.10277701  1
  Au  Au12  1  0.68711774  0.74280168  0.39472213  1
  Au  Au13  1  0.74280168  0.68711774  0.60527787  1
  Au  Au14  1  0.68711774  0.74280168  0.10527787  1
  Au  Au15  1  0.74280168  0.68711774  0.89472213  1
  Au  Au16  1  0.31288226  0.25719832  0.60527787  1
  Au  Au17  1  0.25719832  0.31288226  0.39472213  1
  Au  Au18  1  0.31288226  0.25719832  0.89472213  1
  Au  Au19  1  0.25719832  0.31288226  0.10527787  1
loop_
_geom_bond_atom_site_label_1
_geom_bond_atom_site_label_2
_geom_bond_distance
_geom_bond_site_symmetry_2
Tb0 Zn0 3.104830 1_555
Tb1 Zn1 3.104830 1_555
Tb2 Zn2 3.185378 1_555
Tb3 Zn3 3.185378 1_555
Tb4 Zn0 3.142191 1_555
Tb4 Zn2 3.190998 1_555
Tb5 Zn1 3.142191 1_555
Tb5 Zn3 3.190998 1_555
Tb6 Zn0 3.142191 1_555
Tb6 Zn2 3.190998 1_555
Tb7 Zn1 3.142191 1_555
Tb7 Zn3 3.190998 1_555
Zn0 Zn2 2.781485 1_555
Zn1 Zn3 2.781485 1_555
Au0 Zn0 2.672641 1_555
Au0 Zn2 2.680063 1_555
Au0 Au3 2.831966 1_445
Au0 Tb9 3.029073 1_545
Au0 Tb11 3.029073 1_545
Au0 Au19 3.106638 1_555
Au0 Au17 3.106638 1_555
Au0 Au6 3.149620 1_555
Au0 Au4 3.149620 1_555
Au0 Tb2 3.249045 1_545
Au0 Tb0 3.334653 1_455
Au1 Zn1 2.672641 1_555
Au1 Zn3 2.680063 1_555
Au1 Au2 2.831966 1_445
Au1 Tb8 3.029073 1_455
Au1 Tb10 3.029073 1_455
Au1 Au18 3.106638 1_555
Au1 Au16 3.106638 1_555
Au1 Au5 3.149620 1_555
Au1 Au7 3.149620 1_555
Au1 Tb3 3.249045 1_455
Au1 Tb1 3.334653 1_545
Au2 Zn1 2.672641 1_555
Au2 Zn3 2.680063 1_555
Au2 Tb10 3.029073 1_565
Au2 Tb8 3.029073 1_565
Au2 Au8 3.149620 1_555
Au2 Tb3 3.249045 1_565
Au2 Tb1 3.334653 1_655
Au3 Zn0 2.672641 1_555
Au3 Zn2 2.680063 1_555
Au3 Tb9 3.029073 1_655
Au3 Tb11 3.029073 1_655
Au3 Au9 3.149620 1_555
Au3 Tb2 3.249045 1_655
Au3 Tb0 3.334653 1_565
Au4 Zn0 2.708377 1_555
Au4 Tb4 2.927372 1_555
Au4 Tb2 2.952179 1_545
Au4 Tb10 2.979385 1_555
Au4 Au8 2.983153 1_545
Au4 Tb5 3.116789 1_545
Au4 Au9 3.165171 1_555
Au4 Tb0 3.311006 1_555
Au4 Tb11 3.336341 1_545
Au5 Zn1 2.708377 1_555
Au5 Tb5 2.927372 1_555
Au5 Tb3 2.952179 1_455
Au5 Tb11 2.979385 1_555
Au5 Au9 2.983153 1_455
Au5 Tb4 3.116789 1_455
Au5 Au8 3.165171 1_555
Au5 Tb1 3.311006 1_555
Au5 Tb10 3.336341 1_455
Au6 Zn0 2.708377 1_555
Au6 Tb6 2.927372 1_555
Au6 Tb2 2.952179 1_545
Au6 Tb8 2.979385 1_554
Au6 Tb7 3.116789 1_544
Au6 Tb0 3.311006 1_555
Au6 Tb9 3.336341 1_545
Au7 Zn1 2.708377 1_555
Au7 Tb7 2.927372 1_555
Au7 Tb3 2.952179 1_455
Au7 Tb9 2.979385 1_556
Au7 Tb6 3.116789 1_456
Au7 Tb1 3.311006 1_555
Au7 Tb8 3.336341 1_455
Au8 Zn1 2.708377 1_555
Au8 Tb5 2.927372 1_555
Au8 Tb3 2.952179 1_565
Au8 Tb11 2.979385 1_555
Au8 Tb4 3.116789 1_565
Au8 Tb1 3.311006 1_555
Au8 Tb10 3.336341 1_565
Au9 Zn0 2.708377 1_555
Au9 Tb4 2.927372 1_555
Au9 Tb2 2.952179 1_655
Au9 Tb10 2.979385 1_555
Au9 Tb5 3.116789 1_655
Au9 Tb0 3.311006 1_555
Au9 Tb11 3.336341 1_655
Au10 Zn1 2.708377 1_555
Au10 Au18 2.879564 1_565
Au10 Tb7 2.927372 1_555
Au10 Tb3 2.952179 1_565
Au10 Tb9 2.979385 1_556
Au10 Au6 2.983153 1_566
Au10 Tb6 3.116789 1_566
Au10 Au2 3.149620 1_555
Au10 Au7 3.165171 1_555
Au10 Tb1 3.311006 1_555
Au10 Tb8 3.336341 1_565
Au11 Zn0 2.708377 1_555
Au11 Au19 2.879564 1_655
Au11 Tb6 2.927372 1_555
Au11 Tb2 2.952179 1_655
Au11 Tb8 2.979385 1_554
Au11 Au7 2.983153 1_654
Au11 Tb7 3.116789 1_654
Au11 Au3 3.149620 1_555
Au11 Au6 3.165171 1_555
Au11 Tb0 3.311006 1_555
Au11 Tb9 3.336341 1_655
Au12 Zn2 2.675036 1_555
Au12 Au4 2.879564 1_565
Au12 Tb5 2.927992 1_555
Au12 Au13 2.943184 1_555
Au12 Tb0 2.949411 1_565
Au12 Tb4 2.997744 1_555
Au12 Au3 3.106638 1_555
Au12 Tb11 3.134961 1_655
Au12 Au17 3.183647 1_555
Au12 Tb10 3.265817 1_565
Au12 Tb2 3.375648 1_555
Au13 Zn3 2.675036 1_555
Au13 Au5 2.879564 1_655
Au13 Tb4 2.927992 1_555
Au13 Tb1 2.949411 1_655
Au13 Tb5 2.997744 1_555
Au13 Au2 3.106638 1_555
Au13 Tb10 3.134961 1_565
Au13 Au16 3.183647 1_555
Au13 Tb11 3.265817 1_655
Au13 Tb3 3.375648 1_555
Au14 Zn2 2.675036 1_555
Au14 Au6 2.879564 1_565
Au14 Tb7 2.927992 1_554
Au14 Au15 2.943184 1_554
Au14 Tb0 2.949411 1_565
Au14 Tb6 2.997744 1_555
Au14 Au3 3.106638 1_555
Au14 Tb9 3.134961 1_655
Au14 Au19 3.183647 1_555
Au14 Tb8 3.265817 1_564
Au14 Tb2 3.375648 1_555
Au15 Zn3 2.675036 1_555
Au15 Au7 2.879564 1_655
Au15 Tb6 2.927992 1_556
Au15 Tb1 2.949411 1_655
Au15 Tb7 2.997744 1_555
Au15 Au2 3.106638 1_555
Au15 Tb8 3.134961 1_565
Au15 Au18 3.183647 1_555
Au15 Tb9 3.265817 1_656
Au15 Tb3 3.375648 1_555
Au16 Zn3 2.675036 1_555
Au16 Au8 2.879564 1_545
Au16 Tb4 2.927992 1_555
Au16 Au17 2.943184 1_555
Au16 Tb1 2.949411 1_545
Au16 Tb5 2.997744 1_555
Au16 Tb10 3.134961 1_455
Au16 Tb11 3.265817 1_545
Au16 Tb3 3.375648 1_555
Au17 Zn2 2.675036 1_555
Au17 Au9 2.879564 1_455
Au17 Tb5 2.927992 1_555
Au17 Tb0 2.949411 1_455
Au17 Tb4 2.997744 1_555
Au17 Tb11 3.134961 1_545
Au17 Tb10 3.265817 1_455
Au17 Tb2 3.375648 1_555
Au18 Zn3 2.675036 1_555
Au18 Tb6 2.927992 1_556
Au18 Au19 2.943184 1_556
Au18 Tb1 2.949411 1_545
Au18 Tb7 2.997744 1_555
Au18 Tb8 3.134961 1_455
Au18 Tb9 3.265817 1_546
Au18 Tb3 3.375648 1_555
Au19 Zn2 2.675036 1_555
Au19 Tb7 2.927992 1_554
Au19 Tb0 2.949411 1_455
Au19 Tb6 2.997744 1_555
Au19 Tb9 3.134961 1_545
Au19 Tb8 3.265817 1_454
Au19 Tb2 3.375648 1_555
