# generated using pymatgen
data_Er3Si13Os4
_symmetry_space_group_name_H-M   'P 1'
_cell_length_a   8.79965600
_cell_length_b   8.79965600
_cell_length_c   8.79965600
_cell_angle_alpha   90.00000000
_cell_angle_beta   90.00000000
_cell_angle_gamma   90.00000000
_symmetry_Int_Tables_number   1
_chemical_formula_structural   Er3Si13Os4
_chemical_formula_sum   'Er6 Si26 Os8'
_cell_volume   681.39208504
_cell_formula_units_Z   2
loop_
 _symmetry_equiv_pos_site_id
 _symmetry_equiv_pos_as_xyz
  1  'x, y, z'
loop_
 _atom_site_type_symbol
 _atom_site_label
 _atom_site_symmetry_multiplicity
 _atom_site_fract_x
 _atom_site_fract_y
 _atom_site_fract_z
 _atom_site_occupancy
  Er  Er0  1  0.00000000  0.50000000  0.75000000  1
  Er  Er1  1  0.50000000  0.25000000  0.00000000  1
  Er  Er2  1  0.75000000  0.00000000  0.50000000  1
  Er  Er3  1  0.00000000  0.50000000  0.25000000  1
  Er  Er4  1  0.50000000  0.75000000  0.00000000  1
  Er  Er5  1  0.25000000  0.00000000  0.50000000  1
  Si  Si0  1  0.50000000  0.50000000  0.50000000  1
  Si  Si1  1  0.00000000  0.00000000  0.00000000  1
  Si  Si2  1  0.78186300  0.36284000  0.50000000  1
  Si  Si3  1  0.63716000  0.50000000  0.78186300  1
  Si  Si4  1  0.50000000  0.21813700  0.63716000  1
  Si  Si5  1  0.21813700  0.63716000  0.50000000  1
  Si  Si6  1  0.36284000  0.50000000  0.21813700  1
  Si  Si7  1  0.50000000  0.78186300  0.36284000  1
  Si  Si8  1  0.78186300  0.63716000  0.50000000  1
  Si  Si9  1  0.63716000  0.50000000  0.21813700  1
  Si  Si10  1  0.21813700  0.36284000  0.50000000  1
  Si  Si11  1  0.36284000  0.50000000  0.78186300  1
  Si  Si12  1  0.50000000  0.78186300  0.63716000  1
  Si  Si13  1  0.50000000  0.21813700  0.36284000  1
  Si  Si14  1  0.28186300  0.00000000  0.86284000  1
  Si  Si15  1  0.13716000  0.28186300  0.00000000  1
  Si  Si16  1  0.00000000  0.13716000  0.71813700  1
  Si  Si17  1  0.71813700  0.00000000  0.13716000  1
  Si  Si18  1  0.86284000  0.71813700  0.00000000  1
  Si  Si19  1  0.00000000  0.86284000  0.28186300  1
  Si  Si20  1  0.28186300  0.00000000  0.13716000  1
  Si  Si21  1  0.13716000  0.71813700  0.00000000  1
  Si  Si22  1  0.71813700  0.00000000  0.86284000  1
  Si  Si23  1  0.86284000  0.28186300  0.00000000  1
  Si  Si24  1  0.00000000  0.13716000  0.28186300  1
  Si  Si25  1  0.00000000  0.86284000  0.71813700  1
  Os  Os0  1  0.75000000  0.25000000  0.75000000  1
  Os  Os1  1  0.25000000  0.75000000  0.25000000  1
  Os  Os2  1  0.75000000  0.75000000  0.25000000  1
  Os  Os3  1  0.25000000  0.25000000  0.75000000  1
  Os  Os4  1  0.25000000  0.75000000  0.75000000  1
  Os  Os5  1  0.75000000  0.25000000  0.25000000  1
  Os  Os6  1  0.25000000  0.25000000  0.25000000  1
  Os  Os7  1  0.75000000  0.75000000  0.75000000  1
loop_
_geom_bond_atom_site_label_1
_geom_bond_atom_site_label_2
_geom_bond_distance
_geom_bond_site_symmetry_2
Er0 Os7 3.111148 1_455
Er0 Os3 3.111148 1_555
Er0 Os4 3.111148 1_555
Er0 Os0 3.111148 1_455
Er0 Si18 3.159268 1_456
Er0 Si21 3.159268 1_556
Er0 Si15 3.159268 1_556
Er0 Si8 3.159268 1_455
Er0 Si10 3.159268 1_555
Er0 Si2 3.159268 1_455
Er0 Si5 3.159268 1_555
Er0 Si23 3.159268 1_456
Er0 Si3 3.205155 1_455
Er0 Si11 3.205155 1_555
Er0 Si16 3.205155 1_555
Er0 Si25 3.205155 1_555
Er1 Os0 3.111148 1_554
Er1 Os6 3.111148 1_555
Er1 Os3 3.111148 1_554
Er1 Os5 3.111148 1_555
Er1 Si17 3.159268 1_555
Er1 Si22 3.159268 1_554
Er1 Si9 3.159268 1_555
Er1 Si14 3.159268 1_554
Er1 Si6 3.159268 1_555
Er1 Si11 3.159268 1_554
Er1 Si20 3.159268 1_555
Er1 Si3 3.159268 1_554
Er1 Si4 3.205155 1_554
Er1 Si15 3.205155 1_555
Er1 Si13 3.205155 1_555
Er1 Si23 3.205155 1_555
Er2 Os0 3.111148 1_555
Er2 Os7 3.111148 1_545
Er2 Os5 3.111148 1_555
Er2 Os2 3.111148 1_545
Er2 Si16 3.159268 1_655
Er2 Si25 3.159268 1_645
Er2 Si19 3.159268 1_645
Er2 Si12 3.159268 1_545
Er2 Si24 3.159268 1_655
Er2 Si13 3.159268 1_555
Er2 Si4 3.159268 1_555
Er2 Si7 3.159268 1_545
Er2 Si8 3.205155 1_545
Er2 Si2 3.205155 1_555
Er2 Si17 3.205155 1_555
Er2 Si22 3.205155 1_555
Er3 Os6 3.111148 1_555
Er3 Os5 3.111148 1_455
Er3 Os2 3.111148 1_455
Er3 Os1 3.111148 1_555
Er3 Si21 3.159268 1_555
Er3 Si18 3.159268 1_455
Er3 Si15 3.159268 1_555
Er3 Si8 3.159268 1_455
Er3 Si10 3.159268 1_555
Er3 Si2 3.159268 1_455
Er3 Si23 3.159268 1_455
Er3 Si5 3.159268 1_555
Er3 Si9 3.205155 1_455
Er3 Si24 3.205155 1_555
Er3 Si19 3.205155 1_555
Er3 Si6 3.205155 1_555
Er4 Os4 3.111148 1_554
Er4 Os1 3.111148 1_555
Er4 Os7 3.111148 1_554
Er4 Os2 3.111148 1_555
Er4 Si17 3.159268 1_565
Er4 Si22 3.159268 1_564
Er4 Si9 3.159268 1_555
Er4 Si6 3.159268 1_555
Er4 Si11 3.159268 1_554
Er4 Si20 3.159268 1_565
Er4 Si14 3.159268 1_564
Er4 Si3 3.159268 1_554
Er4 Si12 3.205155 1_554
Er4 Si7 3.205155 1_555
Er4 Si21 3.205155 1_555
Er4 Si18 3.205155 1_555
Er5 Os6 3.111148 1_555
Er5 Os3 3.111148 1_555
Er5 Os1 3.111148 1_545
Er5 Os4 3.111148 1_545
Er5 Si25 3.159268 1_545
Er5 Si16 3.159268 1_555
Er5 Si12 3.159268 1_545
Er5 Si24 3.159268 1_555
Er5 Si19 3.159268 1_545
Er5 Si13 3.159268 1_555
Er5 Si4 3.159268 1_555
Er5 Si7 3.159268 1_545
Er5 Si5 3.205155 1_545
Er5 Si20 3.205155 1_555
Er5 Si10 3.205155 1_555
Er5 Si14 3.205155 1_555
Si0 Si10 2.758374 1_555
Si0 Si7 2.758374 1_555
Si0 Si13 2.758374 1_555
Si0 Si11 2.758374 1_555
Si0 Si2 2.758374 1_555
Si0 Si6 2.758374 1_555
Si0 Si9 2.758374 1_555
Si0 Si8 2.758374 1_555
Si0 Si12 2.758374 1_555
Si0 Si3 2.758374 1_555
Si0 Si4 2.758374 1_555
Si0 Si5 2.758374 1_555
Si1 Si19 2.758374 1_545
Si1 Si23 2.758374 1_455
Si1 Si14 2.758374 1_554
Si1 Si15 2.758374 1_555
Si1 Si24 2.758374 1_555
Si1 Si20 2.758374 1_555
Si1 Si18 2.758374 1_445
Si1 Si22 2.758374 1_454
Si1 Si25 2.758374 1_544
Si1 Si17 2.758374 1_455
Si1 Si16 2.758374 1_554
Si1 Si21 2.758374 1_545
Os0 Si4 2.429854 1_555
Os0 Si3 2.429854 1_555
Os0 Si2 2.429854 1_555
Os0 Si23 2.429854 1_556
Os0 Si16 2.429854 1_655
Os0 Si22 2.429854 1_555
Os1 Si5 2.429854 1_555
Os1 Si20 2.429854 1_565
Os1 Si6 2.429854 1_555
Os1 Si7 2.429854 1_555
Os1 Si19 2.429854 1_555
Os1 Si21 2.429854 1_555
Os2 Si9 2.429854 1_555
Os2 Si8 2.429854 1_555
Os2 Si7 2.429854 1_555
Os2 Si19 2.429854 1_655
Os2 Si17 2.429854 1_565
Os2 Si18 2.429854 1_555
Os3 Si4 2.429854 1_555
Os3 Si15 2.429854 1_556
Os3 Si10 2.429854 1_555
Os3 Si14 2.429854 1_555
Os3 Si11 2.429854 1_555
Os3 Si16 2.429854 1_555
Os4 Si5 2.429854 1_555
Os4 Si12 2.429854 1_555
Os4 Si14 2.429854 1_565
Os4 Si11 2.429854 1_555
Os4 Si21 2.429854 1_556
Os4 Si25 2.429854 1_555
Os5 Si9 2.429854 1_555
Os5 Si24 2.429854 1_655
Os5 Si2 2.429854 1_555
Os5 Si23 2.429854 1_555
Os5 Si13 2.429854 1_555
Os5 Si17 2.429854 1_555
Os6 Si20 2.429854 1_555
Os6 Si15 2.429854 1_555
Os6 Si24 2.429854 1_555
Os6 Si6 2.429854 1_555
Os6 Si10 2.429854 1_555
Os6 Si13 2.429854 1_555
Os7 Si8 2.429854 1_555
Os7 Si12 2.429854 1_555
Os7 Si3 2.429854 1_555
Os7 Si25 2.429854 1_655
Os7 Si22 2.429854 1_565
Os7 Si18 2.429854 1_556
