# generated using pymatgen
data_Te4Mo2WS2
_symmetry_space_group_name_H-M   'P 1'
_cell_length_a   3.42322851
_cell_length_b   3.42322851
_cell_length_c   31.71924400
_cell_angle_alpha   90.00000000
_cell_angle_beta   90.00000000
_cell_angle_gamma   120.00000986
_symmetry_Int_Tables_number   1
_chemical_formula_structural   Te4Mo2WS2
_chemical_formula_sum   'Te4 Mo2 W1 S2'
_cell_volume   321.90312832
_cell_formula_units_Z   1
loop_
 _symmetry_equiv_pos_site_id
 _symmetry_equiv_pos_as_xyz
  1  'x, y, z'
loop_
 _atom_site_type_symbol
 _atom_site_label
 _atom_site_symmetry_multiplicity
 _atom_site_fract_x
 _atom_site_fract_y
 _atom_site_fract_z
 _atom_site_occupancy
  Te  Te0  1  0.33333300  0.66666700  0.40595000  1
  Te  Te1  1  0.66666700  0.33333300  0.51964600  1
  Te  Te2  1  0.66666700  0.33333300  0.63711400  1
  Te  Te3  1  0.33333300  0.66666700  0.28782100  1
  Mo  Mo0  1  0.33333300  0.66666700  0.11567900  1
  Mo  Mo1  1  0.33333300  0.66666700  0.57841000  1
  W  W0  1  0.66666700  0.33333300  0.34689100  1
  S  S0  1  0.66666700  0.33333300  0.06842000  1
  S  S1  1  0.66666700  0.33333300  0.16291000  1
loop_
_geom_bond_atom_site_label_1
_geom_bond_atom_site_label_2
_geom_bond_distance
_geom_bond_site_symmetry_2
Te0 W0 2.723130 1_455
Te0 W0 2.723130 1_565
Te0 W0 2.723134 1_555
Te3 W0 2.723370 1_565
Te3 W0 2.723370 1_455
Te3 W0 2.723374 1_555
Mo0 S1 2.480031 1_455
Mo0 S1 2.480031 1_565
Mo0 S1 2.480036 1_555
Mo0 S0 2.480568 1_455
Mo0 S0 2.480568 1_565
Mo0 S0 2.480573 1_555
Mo1 Te2 2.715396 1_455
Mo1 Te2 2.715396 1_565
Mo1 Te2 2.715400 1_555
Mo1 Te1 2.716701 1_455
Mo1 Te1 2.716701 1_565
Mo1 Te1 2.716706 1_555
