# generated using pymatgen
data_Ni3Pb2SeS
_symmetry_space_group_name_H-M   'P 1'
_cell_length_a   5.74698193
_cell_length_b   5.74698193
_cell_length_c   5.74698204
_cell_angle_alpha   59.34764315
_cell_angle_beta   59.34764315
_cell_angle_gamma   59.34764609
_symmetry_Int_Tables_number   1
_chemical_formula_structural   Ni3Pb2SeS
_chemical_formula_sum   'Ni3 Pb2 Se1 S1'
_cell_volume   132.22296259
_cell_formula_units_Z   1
loop_
 _symmetry_equiv_pos_site_id
 _symmetry_equiv_pos_as_xyz
  1  'x, y, z'
loop_
 _atom_site_type_symbol
 _atom_site_label
 _atom_site_symmetry_multiplicity
 _atom_site_fract_x
 _atom_site_fract_y
 _atom_site_fract_z
 _atom_site_occupancy
  Ni  Ni0  1  0.99430900  0.99430900  0.50472600  1
  Ni  Ni1  1  0.50472600  0.99430900  0.99430900  1
  Ni  Ni2  1  0.99430900  0.50472600  0.99430900  1
  Pb  Pb0  1  0.00004200  0.00004200  0.00004200  1
  Pb  Pb1  1  0.50098900  0.50098900  0.50098900  1
  Se  Se0  1  0.27691300  0.27691300  0.27691300  1
  S  S0  1  0.72871100  0.72871100  0.72871100  1
loop_
_geom_bond_atom_site_label_1
_geom_bond_atom_site_label_2
_geom_bond_distance
_geom_bond_site_symmetry_2
Ni0 S0 2.164593 1_555
Ni0 Se0 2.311480 1_665
Ni0 Pb1 2.845679 1_655
Ni0 Pb1 2.845679 1_565
Ni0 Pb0 2.867190 1_665
Ni0 Pb0 2.880540 1_666
Ni1 S0 2.164593 1_555
Ni1 Se0 2.311480 1_566
Ni1 Pb1 2.845679 1_565
Ni1 Pb1 2.845679 1_556
Ni1 Pb0 2.867190 1_566
Ni1 Pb0 2.880540 1_666
Ni2 S0 2.164593 1_555
Ni2 Se0 2.311480 1_656
Ni2 Pb1 2.845679 1_655
Ni2 Pb1 2.845679 1_556
Ni2 Pb0 2.867190 1_656
Ni2 Pb0 2.880540 1_666
Pb1 Se0 3.169819 1_555
Pb1 S0 3.221396 1_555
