# generated using pymatgen
data_Ba3NaSr(SbO4)3
_symmetry_space_group_name_H-M   'P 1'
_cell_length_a   8.37118201
_cell_length_b   8.37118201
_cell_length_c   8.39060300
_cell_angle_alpha   90.00000000
_cell_angle_beta   90.00000000
_cell_angle_gamma   90.34004939
_symmetry_Int_Tables_number   1
_chemical_formula_structural   Ba3NaSr(SbO4)3
_chemical_formula_sum   'Ba6 Na2 Sr2 Sb6 O24'
_cell_volume   587.97531443
_cell_formula_units_Z   2
loop_
 _symmetry_equiv_pos_site_id
 _symmetry_equiv_pos_as_xyz
  1  'x, y, z'
loop_
 _atom_site_type_symbol
 _atom_site_label
 _atom_site_symmetry_multiplicity
 _atom_site_fract_x
 _atom_site_fract_y
 _atom_site_fract_z
 _atom_site_occupancy
  Ba  Ba0  1  0.50000000  0.50000000  0.50000000  1
  Ba  Ba1  1  0.00000000  0.00000000  0.50000000  1
  Ba  Ba2  1  0.50000000  0.00000000  0.00000000  1
  Ba  Ba3  1  0.00000000  0.50000000  0.00000000  1
  Ba  Ba4  1  0.00000000  0.50000000  0.50000000  1
  Ba  Ba5  1  0.50000000  0.00000000  0.50000000  1
  Na  Na0  1  0.75000000  0.25000000  0.75033100  1
  Na  Na1  1  0.25000000  0.75000000  0.24966900  1
  Sr  Sr0  1  0.50000000  0.50000000  0.00000000  1
  Sr  Sr1  1  0.00000000  0.00000000  0.00000000  1
  Sb  Sb0  1  0.75000000  0.25000000  0.24758500  1
  Sb  Sb1  1  0.25000000  0.75000000  0.75241500  1
  Sb  Sb2  1  0.25000000  0.25000000  0.75208700  1
  Sb  Sb3  1  0.75000000  0.75000000  0.24791300  1
  Sb  Sb4  1  0.75000000  0.75000000  0.75208700  1
  Sb  Sb5  1  0.25000000  0.25000000  0.24791300  1
  O  O0  1  0.25752400  0.50046600  0.75468300  1
  O  O1  1  0.24247600  0.99953400  0.75468300  1
  O  O2  1  0.75752400  0.00046600  0.24531700  1
  O  O3  1  0.74247600  0.49953400  0.24531700  1
  O  O4  1  0.00046600  0.75752400  0.75468300  1
  O  O5  1  0.49953400  0.74247600  0.75468300  1
  O  O6  1  0.50046600  0.25752400  0.24531700  1
  O  O7  1  0.99953400  0.24247600  0.24531700  1
  O  O8  1  0.75000000  0.25000000  0.47652400  1
  O  O9  1  0.25000000  0.75000000  0.98061200  1
  O  O10  1  0.75000000  0.25000000  0.01938800  1
  O  O11  1  0.25000000  0.75000000  0.52347600  1
  O  O12  1  0.25000000  0.25000000  0.50000000  1
  O  O13  1  0.75000000  0.75000000  0.00000000  1
  O  O14  1  0.75000000  0.75000000  0.50000000  1
  O  O15  1  0.25000000  0.25000000  0.00000000  1
  O  O16  1  0.74273600  0.52146500  0.75357700  1
  O  O17  1  0.75726400  0.97853500  0.75357700  1
  O  O18  1  0.24273600  0.02146500  0.24642300  1
  O  O19  1  0.25726400  0.47853500  0.24642300  1
  O  O20  1  0.02146500  0.24273600  0.75357700  1
  O  O21  1  0.47853500  0.25726400  0.75357700  1
  O  O22  1  0.52146500  0.74273600  0.24642300  1
  O  O23  1  0.97853500  0.75726400  0.24642300  1
loop_
_geom_bond_atom_site_label_1
_geom_bond_atom_site_label_2
_geom_bond_distance
_geom_bond_site_symmetry_2
Ba0 O16 2.946842 1_555
Ba0 O22 2.946842 1_555
Ba0 O19 2.946842 1_555
Ba0 O21 2.946842 1_555
Ba0 O5 2.947333 1_555
Ba0 O3 2.947333 1_555
Ba0 O6 2.947333 1_555
Ba0 O0 2.947333 1_555
Ba0 O12 2.950864 1_555
Ba0 O14 2.950864 1_555
Ba0 O8 2.974958 1_555
Ba0 O11 2.974958 1_555
Ba1 O23 2.946842 1_445
Ba1 O17 2.946842 1_445
Ba1 O18 2.946842 1_555
Ba1 O20 2.946842 1_555
Ba1 O1 2.947333 1_545
Ba1 O7 2.947333 1_455
Ba1 O4 2.947333 1_545
Ba1 O2 2.947333 1_455
Ba1 O12 2.950864 1_555
Ba1 O14 2.950864 1_445
Ba1 O11 2.974958 1_545
Ba1 O8 2.974958 1_455
Ba2 O9 2.955345 1_544
Ba2 O10 2.955345 1_555
Ba2 O15 2.968430 1_555
Ba2 O13 2.968430 1_545
Ba2 O2 2.980627 1_555
Ba2 O5 2.980627 1_544
Ba2 O6 2.980627 1_555
Ba2 O1 2.980627 1_544
Ba2 O21 2.991658 1_554
Ba2 O17 2.991658 1_544
Ba2 O18 2.991658 1_555
Ba2 O22 2.991658 1_545
Ba3 O9 2.955345 1_554
Ba3 O10 2.955345 1_455
Ba3 O15 2.968430 1_555
Ba3 O13 2.968430 1_455
Ba3 O0 2.980627 1_554
Ba3 O7 2.980627 1_455
Ba3 O4 2.980627 1_554
Ba3 O3 2.980627 1_455
Ba3 O20 2.991658 1_554
Ba3 O19 2.991658 1_555
Ba3 O16 2.991658 1_454
Ba3 O23 2.991658 1_455
Ba4 O8 2.957431 1_455
Ba4 O11 2.957431 1_555
Ba4 O12 2.968430 1_555
Ba4 O14 2.968430 1_455
Ba4 O19 3.033454 1_555
Ba4 O23 3.033454 1_455
Ba4 O20 3.033454 1_555
Ba4 O16 3.033454 1_455
Ba4 O3 3.035430 1_455
Ba4 O0 3.035430 1_555
Ba4 O7 3.035430 1_455
Ba4 O4 3.035430 1_555
Ba5 O8 2.957431 1_555
Ba5 O11 2.957431 1_545
Ba5 O14 2.968430 1_545
Ba5 O12 2.968430 1_555
Ba5 O18 3.033454 1_555
Ba5 O22 3.033454 1_545
Ba5 O21 3.033454 1_555
Ba5 O17 3.033454 1_545
Ba5 O1 3.035430 1_545
Ba5 O5 3.035430 1_545
Ba5 O2 3.035430 1_555
Ba5 O6 3.035430 1_555
Na0 O10 2.257550 1_556
Na0 O17 2.273820 1_545
Na0 O16 2.273820 1_555
Na0 O21 2.273820 1_555
Na0 O20 2.273820 1_655
Na0 O8 2.297406 1_555
Na1 O9 2.257550 1_554
Na1 O22 2.273820 1_555
Na1 O23 2.273820 1_455
Na1 O19 2.273820 1_555
Na1 O18 2.273820 1_565
Na1 O11 2.297406 1_555
O0 Sb1 2.090304 1_555
O0 Sb2 2.097382 1_555
O0 Sr0 2.890861 1_556
O1 Sb1 2.090304 1_555
O1 Sb2 2.097382 1_565
O1 Sr1 2.890861 1_566
O2 Sb0 2.090304 1_555
O2 Sb3 2.097382 1_545
O2 Sr1 2.890861 1_655
O3 Sb0 2.090304 1_555
O3 Sb3 2.097382 1_555
O3 Sr0 2.890861 1_555
O4 Sb1 2.090304 1_555
O4 Sb4 2.097382 1_455
O4 Sr1 2.890861 1_566
O5 Sb1 2.090304 1_555
O5 Sb4 2.097382 1_555
O5 Sr0 2.890861 1_556
O6 Sb0 2.090304 1_555
O6 Sb5 2.097382 1_555
O6 Sr0 2.890861 1_555
O7 Sb0 2.090304 1_555
O7 Sb5 2.097382 1_655
O7 Sr1 2.890861 1_655
O8 Sb0 1.920936 1_555
O9 Sb1 1.914710 1_555
O9 Sr0 2.972884 1_556
O9 Sr1 2.972884 1_566
O10 Sb0 1.914710 1_555
O10 Sr1 2.972884 1_655
O10 Sr0 2.972884 1_555
O11 Sb1 1.920936 1_555
O12 Sb2 2.115162 1_555
O12 Sb5 2.115162 1_555
O13 Sb3 2.080140 1_555
O13 Sb4 2.080140 1_554
O13 Sr0 2.950864 1_555
O13 Sr1 2.950864 1_665
O14 Sb4 2.115162 1_555
O14 Sb3 2.115162 1_555
O15 Sb5 2.080140 1_555
O15 Sb2 2.080140 1_554
O15 Sr0 2.950864 1_555
O15 Sr1 2.950864 1_555
O16 Sb4 1.913754 1_555
O16 Sr0 2.903799 1_556
O17 Sb4 1.913754 1_555
O17 Sr1 2.903799 1_666
O18 Sb5 1.913754 1_555
O18 Sr1 2.903799 1_555
O19 Sb5 1.913754 1_555
O19 Sr0 2.903799 1_555
O20 Sb2 1.913754 1_555
O20 Sr1 2.903799 1_556
O21 Sb2 1.913754 1_555
O21 Sr0 2.903799 1_556
O22 Sb3 1.913754 1_555
O22 Sr0 2.903799 1_555
O23 Sb3 1.913754 1_555
O23 Sr1 2.903799 1_665
