# generated using pymatgen
data_K2MoBr4
_symmetry_space_group_name_H-M   'P 1'
_cell_length_a   8.41068100
_cell_length_b   8.76118835
_cell_length_c   8.76118835
_cell_angle_alpha   76.67957364
_cell_angle_beta   61.31482468
_cell_angle_gamma   61.31482468
_symmetry_Int_Tables_number   1
_chemical_formula_structural   K2MoBr4
_chemical_formula_sum   'K4 Mo2 Br8'
_cell_volume   496.84867409
_cell_formula_units_Z   2
loop_
 _symmetry_equiv_pos_site_id
 _symmetry_equiv_pos_as_xyz
  1  'x, y, z'
loop_
 _atom_site_type_symbol
 _atom_site_label
 _atom_site_symmetry_multiplicity
 _atom_site_fract_x
 _atom_site_fract_y
 _atom_site_fract_z
 _atom_site_occupancy
  K  K0  1  0.26762000  0.00000000  0.46476100  1
  K  K1  1  0.73238000  0.00000000  0.53523900  1
  K  K2  1  0.73238000  0.53523900  0.00000000  1
  K  K3  1  0.26762000  0.46476100  0.00000000  1
  Mo  Mo0  1  0.13388500  0.00000000  0.00000000  1
  Mo  Mo1  1  0.86611500  0.00000000  0.00000000  1
  Br  Br0  1  0.21786700  0.23171700  0.76828300  1
  Br  Br1  1  0.78213300  0.76828300  0.23171700  1
  Br  Br2  1  0.21786700  0.76828300  0.23171700  1
  Br  Br3  1  0.98615000  0.23171700  0.23171700  1
  Br  Br4  1  0.78213300  0.23171700  0.76828300  1
  Br  Br5  1  0.01385000  0.76828300  0.76828300  1
  Br  Br6  1  0.44958400  0.76828300  0.76828300  1
  Br  Br7  1  0.55041600  0.23171700  0.23171700  1
loop_
_geom_bond_atom_site_label_1
_geom_bond_atom_site_label_2
_geom_bond_distance
_geom_bond_site_symmetry_2
Mo0 Mo1 2.252128 1_455
Br0 Mo0 2.615830 1_556
Br0 K0 3.460017 1_555
Br0 K2 3.460022 1_456
Br0 K1 3.465668 1_555
Br0 K3 3.465674 1_556
Br1 Mo1 2.615830 1_565
Br1 K1 3.460017 1_565
Br1 K3 3.460022 1_655
Br1 K0 3.465668 1_565
Br1 K2 3.465674 1_555
Br2 Mo0 2.615830 1_565
Br2 K3 3.460017 1_555
Br2 K1 3.460022 1_465
Br2 K2 3.465668 1_555
Br2 K0 3.465674 1_565
Br3 Mo0 2.615830 1_655
Br3 K1 3.460021 1_555
Br3 K2 3.460021 1_555
Br3 K3 3.465674 1_655
Br3 K0 3.465674 1_655
Br4 Mo1 2.615830 1_556
Br4 K2 3.460017 1_556
Br4 K0 3.460022 1_655
Br4 K3 3.465668 1_556
Br4 K1 3.465674 1_555
Br5 Mo1 2.615830 1_466
Br5 K0 3.460021 1_565
Br5 K3 3.460021 1_556
Br5 K2 3.465674 1_456
Br5 K1 3.465674 1_465
Br6 Mo0 2.615830 1_566
Br6 K3 3.460017 1_556
Br6 K0 3.460017 1_565
Br6 K2 3.465668 1_556
Br6 K1 3.465668 1_565
Br7 Mo1 2.615830 1_555
Br7 K1 3.460017 1_555
Br7 K2 3.460017 1_555
Br7 K0 3.465668 1_555
Br7 K3 3.465668 1_555
