# generated using pymatgen
data_LaMnO3
_symmetry_space_group_name_H-M   'P 1'
_cell_length_a   5.56396961
_cell_length_b   5.56396943
_cell_length_c   5.56396970
_cell_angle_alpha   61.04400996
_cell_angle_beta   61.04401257
_cell_angle_gamma   61.04400385
_symmetry_Int_Tables_number   1
_chemical_formula_structural   LaMnO3
_chemical_formula_sum   'La2 Mn2 O6'
_cell_volume   124.66110535
_cell_formula_units_Z   2
loop_
 _symmetry_equiv_pos_site_id
 _symmetry_equiv_pos_as_xyz
  1  'x, y, z'
loop_
 _atom_site_type_symbol
 _atom_site_label
 _atom_site_symmetry_multiplicity
 _atom_site_fract_x
 _atom_site_fract_y
 _atom_site_fract_z
 _atom_site_occupancy
  La  La0  1  0.75000000  0.75000000  0.75000000  1
  La  La1  1  0.25000000  0.25000000  0.25000000  1
  Mn  Mn0  1  0.50000000  0.50000000  0.50000000  1
  Mn  Mn1  1  0.00000000  0.00000000  0.00000000  1
  O  O0  1  0.32358100  0.75000000  0.17641900  1
  O  O1  1  0.75000000  0.17641900  0.32358100  1
  O  O2  1  0.17641900  0.32358100  0.75000000  1
  O  O3  1  0.67641900  0.25000000  0.82358100  1
  O  O4  1  0.82358100  0.67641900  0.25000000  1
  O  O5  1  0.25000000  0.82358100  0.67641900  1
loop_
_geom_bond_atom_site_label_1
_geom_bond_atom_site_label_2
_geom_bond_distance
_geom_bond_site_symmetry_2
La0 O2 2.409923 1_655
La0 O1 2.409923 1_565
La0 O0 2.409923 1_556
La0 O3 2.812893 1_565
La0 O3 2.812893 1_555
La0 O5 2.812893 1_555
La0 O4 2.812893 1_556
La0 O5 2.812893 1_655
La0 O4 2.812893 1_555
La1 O4 2.409923 1_455
La1 O5 2.409923 1_545
La1 O3 2.409923 1_554
La1 O0 2.812893 1_545
La1 O0 2.812893 1_555
La1 O1 2.812893 1_555
La1 O2 2.812893 1_554
La1 O1 2.812893 1_455
La1 O2 2.812893 1_555
Mn0 O1 2.025841 1_555
Mn0 O5 2.025841 1_555
Mn0 O0 2.025841 1_555
Mn0 O3 2.025841 1_555
Mn0 O4 2.025841 1_555
Mn0 O2 2.025841 1_555
Mn1 O0 2.025840 1_545
Mn1 O3 2.025840 1_454
Mn1 O5 2.025841 1_544
Mn1 O1 2.025841 1_455
Mn1 O2 2.025841 1_554
Mn1 O4 2.025841 1_445
