# generated using pymatgen
data_Ni(Bi3O5)4
_symmetry_space_group_name_H-M   'P 1'
_cell_length_a   8.86182145
_cell_length_b   8.86182145
_cell_length_c   8.86182145
_cell_angle_alpha   109.47122063
_cell_angle_beta   109.47122063
_cell_angle_gamma   109.47122063
_symmetry_Int_Tables_number   1
_chemical_formula_structural   Ni(Bi3O5)4
_chemical_formula_sum   'Ni1 Bi12 O20'
_cell_volume   535.73139277
_cell_formula_units_Z   1
loop_
 _symmetry_equiv_pos_site_id
 _symmetry_equiv_pos_as_xyz
  1  'x, y, z'
loop_
 _atom_site_type_symbol
 _atom_site_label
 _atom_site_symmetry_multiplicity
 _atom_site_fract_x
 _atom_site_fract_y
 _atom_site_fract_z
 _atom_site_occupancy
  Ni  Ni0  1  0.00000000  0.00000000  0.00000000  1
  Bi  Bi0  1  0.49388400  0.33091000  0.19048800  1
  Bi  Bi1  1  0.50611600  0.69660400  0.83702600  1
  Bi  Bi2  1  0.85957800  0.66909000  0.16297400  1
  Bi  Bi3  1  0.33091000  0.19048800  0.49388400  1
  Bi  Bi4  1  0.14042200  0.30339600  0.80951200  1
  Bi  Bi5  1  0.69660400  0.83702600  0.50611600  1
  Bi  Bi6  1  0.66909000  0.16297400  0.85957800  1
  Bi  Bi7  1  0.30339600  0.80951200  0.14042200  1
  Bi  Bi8  1  0.19048800  0.49388400  0.33091000  1
  Bi  Bi9  1  0.16297400  0.85957800  0.66909000  1
  Bi  Bi10  1  0.80951200  0.14042200  0.30339600  1
  Bi  Bi11  1  0.83702600  0.50611600  0.69660400  1
  O  O0  1  0.78783000  0.78783000  0.78783000  1
  O  O1  1  0.21217000  0.00000000  0.00000000  1
  O  O2  1  0.00000000  0.21217000  0.00000000  1
  O  O3  1  0.00000000  0.00000000  0.21217000  1
  O  O4  1  0.39441900  0.39441900  0.39441900  1
  O  O5  1  0.60558100  0.00000000  0.00000000  1
  O  O6  1  0.00000000  0.60558100  0.00000000  1
  O  O7  1  0.00000000  0.00000000  0.60558100  1
  O  O8  1  0.74472100  0.62075700  0.38444800  1
  O  O9  1  0.25527900  0.63972700  0.87603500  1
  O  O10  1  0.76369200  0.37924300  0.12396500  1
  O  O11  1  0.62075700  0.38444800  0.74472100  1
  O  O12  1  0.23630800  0.36027300  0.61555200  1
  O  O13  1  0.63972700  0.87603500  0.25527900  1
  O  O14  1  0.37924300  0.12396500  0.76369200  1
  O  O15  1  0.36027300  0.61555200  0.23630800  1
  O  O16  1  0.38444800  0.74472100  0.62075700  1
  O  O17  1  0.12396500  0.76369200  0.37924300  1
  O  O18  1  0.61555200  0.23630800  0.36027300  1
  O  O19  1  0.87603500  0.25527900  0.63972700  1
loop_
_geom_bond_atom_site_label_1
_geom_bond_atom_site_label_2
_geom_bond_distance
_geom_bond_site_symmetry_2
Ni0 O0 1.880213 1_444
Ni0 O3 1.880213 1_555
Ni0 O2 1.880213 1_555
Ni0 O1 1.880213 1_555
Bi0 O18 2.119242 1_555
Bi0 O4 2.252615 1_555
Bi0 O8 2.279528 1_555
Bi0 O10 2.583234 1_555
Bi0 O1 2.586734 1_555
Bi1 O16 2.119235 1_555
Bi1 O5 2.252615 1_566
Bi1 O9 2.279523 1_555
Bi1 O12 2.583234 1_555
Bi1 O0 2.586734 1_555
Bi2 O17 2.119238 1_655
Bi2 O6 2.252615 1_655
Bi2 O10 2.279531 1_555
Bi2 O8 2.583231 1_555
Bi2 O3 2.586734 1_665
Bi3 O12 2.119242 1_555
Bi3 O4 2.252615 1_555
Bi3 O11 2.279528 1_555
Bi3 O14 2.583234 1_555
Bi3 O3 2.586734 1_555
Bi4 O19 2.119242 1_455
Bi4 O7 2.252615 1_555
Bi4 O12 2.279523 1_555
Bi4 O9 2.583234 1_555
Bi4 O2 2.586734 1_556
Bi5 O8 2.119235 1_555
Bi5 O7 2.252615 1_665
Bi5 O13 2.279523 1_555
Bi5 O15 2.583234 1_555
Bi5 O0 2.586734 1_555
Bi6 O10 2.119238 1_556
Bi6 O5 2.252615 1_556
Bi6 O14 2.279531 1_555
Bi6 O11 2.583231 1_555
Bi6 O2 2.586734 1_656
Bi7 O9 2.119242 1_554
Bi7 O6 2.252615 1_555
Bi7 O15 2.279523 1_555
Bi7 O13 2.583234 1_555
Bi7 O1 2.586734 1_565
Bi8 O15 2.119242 1_555
Bi8 O4 2.252615 1_555
Bi8 O16 2.279528 1_555
Bi8 O17 2.583234 1_555
Bi8 O2 2.586734 1_555
Bi9 O14 2.119238 1_565
Bi9 O7 2.252615 1_565
Bi9 O17 2.279531 1_555
Bi9 O16 2.583231 1_555
Bi9 O1 2.586734 1_566
Bi10 O13 2.119242 1_545
Bi10 O5 2.252615 1_555
Bi10 O18 2.279523 1_555
Bi10 O19 2.583234 1_555
Bi10 O3 2.586734 1_655
Bi11 O11 2.119235 1_555
Bi11 O6 2.252615 1_656
Bi11 O19 2.279523 1_555
Bi11 O18 2.583234 1_555
Bi11 O0 2.586734 1_555
