# generated using pymatgen
data_ScB2Os
_symmetry_space_group_name_H-M   'P 1'
_cell_length_a   5.18383528
_cell_length_b   5.65367163
_cell_length_c   6.17310072
_cell_angle_alpha   90.00000000
_cell_angle_beta   90.00000000
_cell_angle_gamma   90.00000000
_symmetry_Int_Tables_number   1
_chemical_formula_structural   ScB2Os
_chemical_formula_sum   'Sc4 B8 Os4'
_cell_volume   180.91939914
_cell_formula_units_Z   4
loop_
 _symmetry_equiv_pos_site_id
 _symmetry_equiv_pos_as_xyz
  1  'x, y, z'
loop_
 _atom_site_type_symbol
 _atom_site_label
 _atom_site_symmetry_multiplicity
 _atom_site_fract_x
 _atom_site_fract_y
 _atom_site_fract_z
 _atom_site_occupancy
  Sc  Sc0  1  0.25000000  0.01057218  0.32914952  1
  Sc  Sc1  1  0.25000000  0.51057218  0.17085048  1
  Sc  Sc2  1  0.75000000  0.98942782  0.67085048  1
  Sc  Sc3  1  0.75000000  0.48942782  0.82914952  1
  B  B0  1  0.08076539  0.35480232  0.53341310  1
  B  B1  1  0.41923461  0.85480232  0.96658690  1
  B  B2  1  0.58076539  0.64519768  0.46658690  1
  B  B3  1  0.91923461  0.14519768  0.03341310  1
  B  B4  1  0.91923461  0.64519768  0.46658690  1
  B  B5  1  0.58076539  0.14519768  0.03341310  1
  B  B6  1  0.41923461  0.35480232  0.53341310  1
  B  B7  1  0.08076539  0.85480232  0.96658690  1
  Os  Os0  1  0.25000000  0.17720311  0.82072957  1
  Os  Os1  1  0.25000000  0.67720311  0.67927043  1
  Os  Os2  1  0.75000000  0.82279689  0.17927043  1
  Os  Os3  1  0.75000000  0.32279689  0.32072957  1
loop_
_geom_bond_atom_site_label_1
_geom_bond_atom_site_label_2
_geom_bond_distance
_geom_bond_site_symmetry_2
B0 B6 1.754569 1_555
B0 B4 1.888607 1_455
B0 Os3 2.167132 1_455
B0 Os1 2.214214 1_555
B0 Os0 2.218918 1_555
B0 Sc0 2.479345 1_555
B0 Sc1 2.560168 1_555
B0 Sc3 2.617659 1_455
B0 Sc2 2.815479 1_445
B1 B7 1.754569 1_555
B1 B5 1.888607 1_566
B1 Os2 2.167132 1_556
B1 Os0 2.214214 1_565
B1 Os1 2.218918 1_555
B1 Sc1 2.479345 1_556
B1 Sc0 2.560168 1_566
B1 Sc2 2.617659 1_555
B1 Sc3 2.815479 1_555
B2 B4 1.754569 1_555
B2 B6 1.888607 1_555
B2 Os1 2.167132 1_555
B2 Os3 2.214214 1_555
B2 Os2 2.218918 1_555
B2 Sc2 2.479345 1_555
B2 Sc3 2.560168 1_555
B2 Sc1 2.617659 1_555
B2 Sc0 2.815479 1_565
B3 B5 1.754569 1_555
B3 B7 1.888607 1_644
B3 Os0 2.167132 1_654
B3 Os2 2.214214 1_545
B3 Os3 2.218918 1_555
B3 Sc3 2.479345 1_554
B3 Sc2 2.560168 1_544
B3 Sc0 2.617659 1_655
B3 Sc1 2.815479 1_655
B4 Os1 2.167132 1_655
B4 Os3 2.214214 1_555
B4 Os2 2.218918 1_555
B4 Sc2 2.479345 1_555
B4 Sc3 2.560168 1_555
B4 Sc1 2.617659 1_655
B4 Sc0 2.815479 1_665
B5 Os0 2.167132 1_554
B5 Os2 2.214214 1_545
B5 Os3 2.218918 1_555
B5 Sc3 2.479345 1_554
B5 Sc2 2.560168 1_544
B5 Sc0 2.617659 1_555
B5 Sc1 2.815479 1_555
B6 Os3 2.167132 1_555
B6 Os1 2.214214 1_555
B6 Os0 2.218918 1_555
B6 Sc0 2.479345 1_555
B6 Sc1 2.560168 1_555
B6 Sc3 2.617659 1_555
B6 Sc2 2.815479 1_545
B7 Os2 2.167132 1_456
B7 Os0 2.214214 1_565
B7 Os1 2.218918 1_555
B7 Sc1 2.479345 1_556
B7 Sc0 2.560168 1_566
B7 Sc2 2.617659 1_455
B7 Sc3 2.815479 1_455
Os0 Sc1 2.867695 1_556
Os1 Sc0 2.867695 1_565
Os2 Sc3 2.867695 1_554
Os3 Sc2 2.867695 1_545
