# generated using pymatgen
data_La6Al4Fe9P
_symmetry_space_group_name_H-M   'P 1'
_cell_length_a   13.05516306
_cell_length_b   13.05516306
_cell_length_c   13.05516306
_cell_angle_alpha   143.72499391
_cell_angle_beta   143.72499391
_cell_angle_gamma   52.23872141
_symmetry_Int_Tables_number   1
_chemical_formula_structural   La6Al4Fe9P
_chemical_formula_sum   'La12 Al8 Fe18 P2'
_cell_volume   774.42393501
_cell_formula_units_Z   2
loop_
 _symmetry_equiv_pos_site_id
 _symmetry_equiv_pos_as_xyz
  1  'x, y, z'
loop_
 _atom_site_type_symbol
 _atom_site_label
 _atom_site_symmetry_multiplicity
 _atom_site_fract_x
 _atom_site_fract_y
 _atom_site_fract_z
 _atom_site_occupancy
  La  La0  1  0.86228000  0.36228000  0.84194800  1
  La  La1  1  0.13772000  0.63772000  0.15805200  1
  La  La2  1  0.52033300  0.02033300  0.15805200  1
  La  La3  1  0.36228000  0.52033300  0.50000000  1
  La  La4  1  0.97966700  0.13772000  0.50000000  1
  La  La5  1  0.47966700  0.97966700  0.84194800  1
  La  La6  1  0.63772000  0.47966700  0.50000000  1
  La  La7  1  0.02033300  0.86228000  0.50000000  1
  La  La8  1  0.10754900  0.10754900  0.00000000  1
  La  La9  1  0.89245100  0.89245100  0.00000000  1
  La  La10  1  0.39245100  0.39245100  0.00000000  1
  La  La11  1  0.60754900  0.60754900  0.00000000  1
  Al  Al0  1  0.21149300  0.71149300  0.73712600  1
  Al  Al1  1  0.78850700  0.28850700  0.26287400  1
  Al  Al2  1  0.97436700  0.47436700  0.26287400  1
  Al  Al3  1  0.71149300  0.97436700  0.50000000  1
  Al  Al4  1  0.52563300  0.78850700  0.50000000  1
  Al  Al5  1  0.02563300  0.52563300  0.73712600  1
  Al  Al6  1  0.28850700  0.02563300  0.50000000  1
  Al  Al7  1  0.47436700  0.21149300  0.50000000  1
  Fe  Fe0  1  0.21003400  0.06804100  0.27807400  1
  Fe  Fe1  1  0.78996600  0.93195900  0.72192600  1
  Fe  Fe2  1  0.06804100  0.78996600  0.85800700  1
  Fe  Fe3  1  0.71003400  0.43195900  0.14199300  1
  Fe  Fe4  1  0.93195900  0.21003400  0.14199300  1
  Fe  Fe5  1  0.28996600  0.56804100  0.85800700  1
  Fe  Fe6  1  0.56804100  0.71003400  0.27807400  1
  Fe  Fe7  1  0.43195900  0.28996600  0.72192600  1
  Fe  Fe8  1  0.73207900  0.23207900  0.85120800  1
  Fe  Fe9  1  0.26792100  0.76792100  0.14879200  1
  Fe  Fe10  1  0.38087100  0.88087100  0.14879200  1
  Fe  Fe11  1  0.23207900  0.38087100  0.50000000  1
  Fe  Fe12  1  0.11912900  0.26792100  0.50000000  1
  Fe  Fe13  1  0.61912900  0.11912900  0.85120800  1
  Fe  Fe14  1  0.76792100  0.61912900  0.50000000  1
  Fe  Fe15  1  0.88087100  0.73207900  0.50000000  1
  Fe  Fe16  1  0.50000000  0.00000000  0.50000000  1
  Fe  Fe17  1  0.00000000  0.50000000  0.50000000  1
  P  P0  1  0.25000000  0.25000000  0.00000000  1
  P  P1  1  0.75000000  0.75000000  0.00000000  1
loop_
_geom_bond_atom_site_label_1
_geom_bond_atom_site_label_2
_geom_bond_distance
_geom_bond_site_symmetry_2
La0 P0 3.313135 1_656
La0 P1 3.313135 1_556
La1 P1 3.313135 1_455
La1 P0 3.313135 1_555
La2 P1 3.313126 1_545
La2 P0 3.313126 1_555
La3 P0 3.313132 1_555
La3 P1 3.313132 1_556
La4 P0 3.313132 1_656
La4 P1 3.313132 1_545
La5 P1 3.313126 1_556
La5 P0 3.313126 1_566
La6 P0 3.313132 1_555
La6 P1 3.313132 1_556
La7 P0 3.313132 1_566
La7 P1 3.313132 1_455
La8 P0 3.339608 1_555
La9 P1 3.339608 1_555
La10 P0 3.339608 1_555
La11 P1 3.339608 1_555
Al0 Fe10 2.515651 1_556
Al0 Fe17 2.569804 1_555
Al0 Fe15 2.581155 1_455
Al0 Fe11 2.581155 1_555
Al0 Fe5 2.618410 1_555
Al0 Fe2 2.618410 1_555
Al0 Al2 2.725734 1_455
Al0 La8 3.264720 1_566
Al0 La11 3.264720 1_556
Al0 La7 3.322506 1_555
Al0 La3 3.322506 1_555
Al0 La2 3.342449 1_566
Al1 Fe13 2.515651 1_554
Al1 Fe17 2.569804 1_655
Al1 Fe14 2.581155 1_555
Al1 Fe12 2.581155 1_655
Al1 Fe3 2.618410 1_555
Al1 Fe4 2.618410 1_555
Al1 Al5 2.725734 1_655
Al1 La10 3.264720 1_555
Al1 La9 3.264720 1_545
Al1 La6 3.322506 1_555
Al1 La4 3.322506 1_555
Al1 La5 3.342449 1_544
Al2 Fe8 2.515651 1_554
Al2 Fe17 2.569804 1_655
Al2 Fe11 2.581155 1_655
Al2 Fe15 2.581155 1_555
Al2 Fe3 2.618410 1_555
Al2 Fe4 2.618410 1_555
Al2 La11 3.264720 1_555
Al2 La8 3.264720 1_655
Al2 La3 3.322506 1_655
Al2 La7 3.322506 1_655
Al2 La0 3.342433 1_554
Al3 Fe15 2.515651 1_555
Al3 Fe16 2.569804 1_565
Al3 Fe8 2.581155 1_565
Al3 Fe10 2.581155 1_555
Al3 Fe6 2.618403 1_555
Al3 Fe1 2.618423 1_555
Al3 Al7 2.725734 1_565
Al3 La8 3.264720 1_666
Al3 La11 3.264720 1_555
Al3 La0 3.322501 1_565
Al3 La2 3.322517 1_565
Al3 La7 3.342445 1_655
Al4 Fe14 2.515651 1_555
Al4 Fe16 2.569804 1_565
Al4 Fe9 2.581155 1_555
Al4 Fe13 2.581155 1_565
Al4 Fe1 2.618403 1_555
Al4 Fe6 2.618423 1_555
Al4 Al6 2.725734 1_565
Al4 La9 3.264720 1_556
Al4 La10 3.264720 1_555
Al4 La1 3.322501 1_555
Al4 La5 3.322517 1_555
Al4 La6 3.342445 1_555
Al5 Fe9 2.515651 1_556
Al5 Fe17 2.569804 1_555
Al5 Fe14 2.581155 1_455
Al5 Fe12 2.581155 1_555
Al5 Fe2 2.618410 1_555
Al5 Fe5 2.618410 1_555
Al5 La10 3.264720 1_556
Al5 La9 3.264720 1_456
Al5 La6 3.322506 1_455
Al5 La4 3.322506 1_455
Al5 La1 3.342433 1_556
Al6 Fe12 2.515651 1_555
Al6 Fe16 2.569804 1_555
Al6 Fe9 2.581155 1_545
Al6 Fe13 2.581155 1_555
Al6 Fe7 2.618403 1_555
Al6 Fe0 2.618423 1_555
Al6 La10 3.264720 1_556
Al6 La9 3.264720 1_445
Al6 La1 3.322501 1_545
Al6 La5 3.322517 1_545
Al6 La4 3.342445 1_455
Al7 Fe11 2.515651 1_555
Al7 Fe16 2.569804 1_555
Al7 Fe8 2.581155 1_555
Al7 Fe10 2.581155 1_545
Al7 Fe0 2.618403 1_555
Al7 Fe7 2.618423 1_555
Al7 La8 3.264720 1_555
Al7 La11 3.264720 1_556
Al7 La0 3.322501 1_555
Al7 La2 3.322517 1_555
Al7 La3 3.342445 1_555
Fe0 Fe16 2.420894 1_555
Fe0 Fe11 2.484550 1_555
Fe0 Fe12 2.484562 1_555
Fe0 Fe2 2.537835 1_544
Fe0 Fe4 2.537839 1_455
Fe0 Fe7 2.551012 1_555
Fe0 Fe10 2.557118 1_545
Fe0 Fe9 2.557130 1_545
Fe0 La8 3.094760 1_555
Fe0 La9 3.094779 1_445
Fe1 Fe16 2.420894 1_565
Fe1 Fe14 2.484550 1_555
Fe1 Fe15 2.484562 1_555
Fe1 Fe4 2.537835 1_566
Fe1 Fe2 2.537839 1_655
Fe1 Fe6 2.551012 1_555
Fe1 Fe13 2.557118 1_565
Fe1 Fe8 2.557130 1_565
Fe1 La9 3.094760 1_556
Fe1 La8 3.094779 1_666
Fe2 Fe9 2.484553 1_556
Fe2 Fe5 2.551001 1_555
Fe2 La9 3.094773 1_456
Fe2 La8 3.094773 1_566
Fe3 Fe8 2.484553 1_554
Fe3 Fe7 2.537835 1_554
Fe3 Fe6 2.537839 1_555
Fe3 Fe4 2.551001 1_555
Fe3 La11 3.094773 1_555
Fe3 La10 3.094773 1_555
Fe4 Fe8 2.484553 1_554
Fe4 La9 3.094773 1_545
Fe4 La8 3.094773 1_655
Fe5 Fe9 2.484553 1_556
Fe5 Fe6 2.537835 1_556
Fe5 Fe7 2.537839 1_555
Fe5 La11 3.094773 1_556
Fe5 La10 3.094773 1_556
Fe6 Fe9 2.557130 1_555
Fe6 La11 3.094760 1_555
Fe6 La10 3.094779 1_555
Fe7 Fe8 2.557130 1_555
Fe7 La10 3.094760 1_556
Fe7 La11 3.094779 1_556
Fe8 La0 3.161414 1_555
Fe8 La11 3.228512 1_556
Fe8 La8 3.228512 1_656
Fe9 La1 3.161414 1_555
Fe9 La10 3.228512 1_555
Fe9 La9 3.228512 1_455
Fe10 Fe16 2.414020 1_565
Fe10 Fe5 2.484553 1_554
Fe10 Fe2 2.484553 1_554
Fe10 Fe6 2.557118 1_555
Fe10 Fe9 2.647990 1_555
Fe10 La2 3.161437 1_565
Fe10 La11 3.228512 1_555
Fe10 La8 3.228512 1_565
Fe11 Fe17 2.414020 1_555
Fe11 Fe7 2.484562 1_555
Fe11 Fe5 2.557126 1_555
Fe11 Fe4 2.557126 1_455
Fe11 Fe12 2.647990 1_555
Fe11 La3 3.161426 1_555
Fe11 La11 3.228512 1_556
Fe11 La8 3.228512 1_555
Fe12 Fe17 2.414020 1_555
Fe12 Fe7 2.484550 1_555
Fe12 Fe4 2.557126 1_455
Fe12 Fe5 2.557126 1_555
Fe12 La4 3.161426 1_455
Fe12 La9 3.228512 1_445
Fe12 La10 3.228512 1_556
Fe13 Fe16 2.414020 1_555
Fe13 Fe4 2.484553 1_556
Fe13 Fe3 2.484553 1_556
Fe13 Fe7 2.557118 1_555
Fe13 Fe8 2.647990 1_555
Fe13 La5 3.161437 1_545
Fe13 La9 3.228512 1_546
Fe13 La10 3.228512 1_556
Fe14 Fe17 2.414020 1_655
Fe14 Fe6 2.484562 1_555
Fe14 Fe3 2.557126 1_555
Fe14 Fe2 2.557126 1_655
Fe14 Fe15 2.647990 1_555
Fe14 La6 3.161426 1_555
Fe14 La9 3.228512 1_556
Fe14 La10 3.228512 1_555
Fe15 Fe17 2.414020 1_655
Fe15 Fe6 2.484550 1_555
Fe15 Fe3 2.557126 1_555
Fe15 Fe2 2.557126 1_655
Fe15 La7 3.161426 1_655
Fe15 La11 3.228512 1_555
Fe15 La8 3.228512 1_666
Fe16 Fe9 2.414020 1_545
Fe16 Fe8 2.414020 1_555
Fe16 Fe7 2.420894 1_555
Fe16 Fe6 2.420894 1_545
Fe17 Fe2 2.420891 1_555
Fe17 Fe3 2.420891 1_455
Fe17 Fe5 2.420891 1_555
Fe17 Fe4 2.420891 1_455
