# generated using pymatgen
data_Sm2ScTaO7
_symmetry_space_group_name_H-M   'P 1'
_cell_length_a   7.46889738
_cell_length_b   7.46889738
_cell_length_c   7.46889738
_cell_angle_alpha   120.50279469
_cell_angle_beta   119.41743244
_cell_angle_gamma   90.07166613
_symmetry_Int_Tables_number   1
_chemical_formula_structural   Sm2ScTaO7
_chemical_formula_sum   'Sm4 Sc2 Ta2 O14'
_cell_volume   294.75910719
_cell_formula_units_Z   2
loop_
 _symmetry_equiv_pos_site_id
 _symmetry_equiv_pos_as_xyz
  1  'x, y, z'
loop_
 _atom_site_type_symbol
 _atom_site_label
 _atom_site_symmetry_multiplicity
 _atom_site_fract_x
 _atom_site_fract_y
 _atom_site_fract_z
 _atom_site_occupancy
  Sm  Sm0  1  0.50000000  0.50000000  0.50000000  1
  Sm  Sm1  1  0.50000000  0.00000000  0.00000000  1
  Sm  Sm2  1  0.50000000  0.50000000  0.00000000  1
  Sm  Sm3  1  0.00000000  0.50000000  0.50000000  1
  Sc  Sc0  1  0.00000000  0.00000000  0.50000000  1
  Sc  Sc1  1  0.00000000  0.50000000  0.00000000  1
  Ta  Ta0  1  0.00000000  0.00000000  0.00000000  1
  Ta  Ta1  1  0.50000000  0.00000000  0.50000000  1
  O  O0  1  0.62173300  0.37173300  0.25000000  1
  O  O1  1  0.37826700  0.62826700  0.75000000  1
  O  O2  1  0.34202000  0.07318800  0.66574800  1
  O  O3  1  0.90744000  0.07318800  0.23116800  1
  O  O4  1  0.90273500  0.65273500  0.25000000  1
  O  O5  1  0.90744000  0.67627200  0.83425200  1
  O  O6  1  0.34202000  0.67627200  0.26883200  1
  O  O7  1  0.31651100  0.06651100  0.25000000  1
  O  O8  1  0.65798000  0.92681200  0.33425200  1
  O  O9  1  0.09256000  0.92681200  0.76883200  1
  O  O10  1  0.09726500  0.34726500  0.75000000  1
  O  O11  1  0.09256000  0.32372800  0.16574800  1
  O  O12  1  0.65798000  0.32372800  0.73116800  1
  O  O13  1  0.68348900  0.93348900  0.75000000  1
loop_
_geom_bond_atom_site_label_1
_geom_bond_atom_site_label_2
_geom_bond_distance
_geom_bond_site_symmetry_2
O0 Sm0 2.254979 1_555
O0 Sm1 2.254979 1_555
O0 Sm2 2.319782 1_555
O0 Sm3 2.319782 1_655
O1 Sm0 2.254979 1_555
O1 Sm1 2.254979 1_566
O1 Sm3 2.319782 1_555
O1 Sm2 2.319782 1_556
O2 Ta1 1.993275 1_555
O2 Sc0 2.135392 1_555
O2 Sm1 2.533147 1_556
O2 Sm2 2.608600 1_556
O3 Ta0 1.993275 1_655
O3 Sc0 2.135392 1_655
O3 Sm1 2.533147 1_555
O3 Sm3 2.608600 1_655
O4 Sc1 2.118453 1_655
O4 Sc0 2.118453 1_665
O4 Sm3 2.479421 1_655
O4 Sm2 2.479421 1_555
O5 Ta0 1.993275 1_666
O5 Sc1 2.135392 1_656
O5 Sm0 2.533147 1_555
O5 Sm3 2.608600 1_655
O6 Ta1 1.993275 1_565
O6 Sc1 2.135392 1_555
O6 Sm0 2.533147 1_555
O6 Sm2 2.608600 1_555
O7 Ta1 2.010233 1_555
O7 Ta0 2.010233 1_555
O7 Sm0 2.680540 1_555
O7 Sm1 2.680540 1_555
O8 Ta1 1.993275 1_565
O8 Sc0 2.135392 1_665
O8 Sm1 2.533147 1_565
O8 Sm2 2.608600 1_555
O9 Ta0 1.993275 1_566
O9 Sc0 2.135392 1_565
O9 Sm1 2.533147 1_566
O9 Sm3 2.608600 1_555
O10 Sc0 2.118453 1_555
O10 Sc1 2.118453 1_556
O10 Sm3 2.479421 1_555
O10 Sm2 2.479421 1_556
O11 Ta0 1.993275 1_555
O11 Sc1 2.135392 1_555
O11 Sm0 2.533147 1_555
O11 Sm3 2.608600 1_555
O12 Ta1 1.993275 1_555
O12 Sc1 2.135392 1_656
O12 Sm0 2.533147 1_555
O12 Sm2 2.608600 1_556
O13 Ta1 2.010233 1_565
O13 Ta0 2.010233 1_666
O13 Sm0 2.680540 1_555
O13 Sm1 2.680540 1_566
