# generated using pymatgen
data_CaU3(CO10)2
_symmetry_space_group_name_H-M   'P 1'
_cell_length_a   17.25191400
_cell_length_b   7.11528000
_cell_length_c   17.03664738
_cell_angle_alpha   66.29719955
_cell_angle_beta   90.00000000
_cell_angle_gamma   90.00000000
_symmetry_Int_Tables_number   1
_chemical_formula_structural   CaU3(CO10)2
_chemical_formula_sum   'Ca4 U12 C8 O80'
_cell_volume   1914.87120425
_cell_formula_units_Z   4
loop_
 _symmetry_equiv_pos_site_id
 _symmetry_equiv_pos_as_xyz
  1  'x, y, z'
loop_
 _atom_site_type_symbol
 _atom_site_label
 _atom_site_symmetry_multiplicity
 _atom_site_fract_x
 _atom_site_fract_y
 _atom_site_fract_z
 _atom_site_occupancy
  Ca  Ca0  1  0.48131400  0.73620800  0.23472700  1
  Ca  Ca1  1  0.01868600  0.73620800  0.73472700  1
  Ca  Ca2  1  0.51868600  0.26379200  0.76527300  1
  Ca  Ca3  1  0.98131400  0.26379200  0.26527300  1
  U  U0  1  0.75900700  0.36836500  0.16146500  1
  U  U1  1  0.74099300  0.36836500  0.66146500  1
  U  U2  1  0.24099300  0.63163500  0.83853500  1
  U  U3  1  0.25900700  0.63163500  0.33853500  1
  U  U4  1  0.71444800  0.76183000  0.27005500  1
  U  U5  1  0.78555200  0.76183000  0.77005500  1
  U  U6  1  0.28555200  0.23817000  0.72994500  1
  U  U7  1  0.21444800  0.23817000  0.22994500  1
  U  U8  1  0.80160500  0.97499600  0.05266500  1
  U  U9  1  0.69839500  0.97499600  0.55266500  1
  U  U10  1  0.19839500  0.02500400  0.94733500  1
  U  U11  1  0.30160500  0.02500400  0.44733500  1
  C  C0  1  0.68615100  0.19509300  0.33631400  1
  C  C1  1  0.81384900  0.19509300  0.83631400  1
  C  C2  1  0.31384900  0.80490700  0.66368600  1
  C  C3  1  0.18615100  0.80490700  0.16368600  1
  C  C4  1  0.82405700  0.54335400  0.98376100  1
  C  C5  1  0.67594300  0.54335400  0.48376100  1
  C  C6  1  0.17594300  0.45664600  0.01623900  1
  C  C7  1  0.32405700  0.45664600  0.51623900  1
  O  O0  1  0.70682400  0.01034700  0.00398800  1
  O  O1  1  0.79317600  0.01034700  0.50398800  1
  O  O2  1  0.29317600  0.98965300  0.99601200  1
  O  O3  1  0.20682400  0.98965300  0.49601200  1
  O  O4  1  0.65632600  0.62165200  0.40493000  1
  O  O5  1  0.84367400  0.62165200  0.90493000  1
  O  O6  1  0.34367400  0.37834800  0.59507000  1
  O  O7  1  0.15632600  0.37834800  0.09507000  1
  O  O8  1  0.85775400  0.31781300  0.20947700  1
  O  O9  1  0.64224600  0.31781300  0.70947700  1
  O  O10  1  0.14224600  0.68218700  0.79052300  1
  O  O11  1  0.35775400  0.68218700  0.29052300  1
  O  O12  1  0.50315900  0.90609500  0.02162500  1
  O  O13  1  0.99684100  0.90609500  0.52162500  1
  O  O14  1  0.49684100  0.09390500  0.97837500  1
  O  O15  1  0.00315900  0.09390500  0.47837500  1
  O  O16  1  0.61465700  0.79275900  0.22501800  1
  O  O17  1  0.88534300  0.79275900  0.72501800  1
  O  O18  1  0.38534300  0.20724100  0.77498200  1
  O  O19  1  0.11465700  0.20724100  0.27498200  1
  O  O20  1  0.81673100  0.65217300  0.02916300  1
  O  O21  1  0.68326900  0.65217300  0.52916300  1
  O  O22  1  0.18326900  0.34782700  0.97083700  1
  O  O23  1  0.31673100  0.34782700  0.47083700  1
  O  O24  1  0.76255500  0.68805900  0.16406300  1
  O  O25  1  0.73744500  0.68805900  0.66406300  1
  O  O26  1  0.23744500  0.31194100  0.83593700  1
  O  O27  1  0.26255500  0.31194100  0.33593700  1
  O  O28  1  0.84461800  0.12209900  0.91012000  1
  O  O29  1  0.65538200  0.12209900  0.41012000  1
  O  O30  1  0.15538200  0.87790100  0.08988000  1
  O  O31  1  0.34461800  0.87790100  0.58988000  1
  O  O32  1  0.70434100  0.38861000  0.29558800  1
  O  O33  1  0.79565900  0.38861000  0.79558800  1
  O  O34  1  0.29565900  0.61139000  0.70441200  1
  O  O35  1  0.20434100  0.61139000  0.20441200  1
  O  O36  1  0.70098400  0.08397200  0.29299500  1
  O  O37  1  0.79901600  0.08397200  0.79299500  1
  O  O38  1  0.29901600  0.91602800  0.70700500  1
  O  O39  1  0.20098400  0.91602800  0.20700500  1
  O  O40  1  0.75765200  0.04664800  0.16091200  1
  O  O41  1  0.74234800  0.04664800  0.66091200  1
  O  O42  1  0.24234800  0.95335200  0.83908800  1
  O  O43  1  0.25765200  0.95335200  0.33908800  1
  O  O44  1  0.66391300  0.42160300  0.11368000  1
  O  O45  1  0.83608700  0.42160300  0.61368000  1
  O  O46  1  0.33608700  0.57839700  0.88632000  1
  O  O47  1  0.16391300  0.57839700  0.38632000  1
  O  O48  1  0.81030500  0.34850000  0.02594700  1
  O  O49  1  0.68969500  0.34850000  0.52594700  1
  O  O50  1  0.18969500  0.65150000  0.97405300  1
  O  O51  1  0.31030500  0.65150000  0.47405300  1
  O  O52  1  0.90133700  0.95209100  0.08968700  1
  O  O53  1  0.59866300  0.95209100  0.58968700  1
  O  O54  1  0.09866300  0.04790900  0.91031300  1
  O  O55  1  0.40133700  0.04790900  0.41031300  1
  O  O56  1  0.43335400  0.80432600  0.10334900  1
  O  O57  1  0.06664600  0.80432600  0.60334900  1
  O  O58  1  0.56664600  0.19567400  0.89665100  1
  O  O59  1  0.93335400  0.19567400  0.39665100  1
  O  O60  1  0.48761900  0.02653100  0.25875100  1
  O  O61  1  0.01238100  0.02653100  0.75875100  1
  O  O62  1  0.51238100  0.97346900  0.74124900  1
  O  O63  1  0.98761900  0.97346900  0.24124900  1
  O  O64  1  0.43570400  0.08619500  0.13253800  1
  O  O65  1  0.06429600  0.08619500  0.63253800  1
  O  O66  1  0.56429600  0.91380500  0.86746200  1
  O  O67  1  0.93570400  0.91380500  0.36746200  1
  O  O68  1  0.51254900  0.35717900  0.32696300  1
  O  O69  1  0.98745100  0.35717900  0.82696300  1
  O  O70  1  0.48745100  0.64282100  0.67303700  1
  O  O71  1  0.01254900  0.64282100  0.17303700  1
  O  O72  1  0.50992700  0.36877200  0.25195100  1
  O  O73  1  0.99007300  0.36877200  0.75195100  1
  O  O74  1  0.49007300  0.63122800  0.74804900  1
  O  O75  1  0.00992700  0.63122800  0.24804900  1
  O  O76  1  0.80692300  0.71911800  0.32458900  1
  O  O77  1  0.69307700  0.71911800  0.82458900  1
  O  O78  1  0.19307700  0.28088200  0.67541100  1
  O  O79  1  0.30692300  0.28088200  0.17541100  1
loop_
_geom_bond_atom_site_label_1
_geom_bond_atom_site_label_2
_geom_bond_distance
_geom_bond_site_symmetry_2
Ca0 O56 2.248787 1_555
Ca0 O60 2.264142 1_565
Ca0 O11 2.302498 1_555
Ca0 O16 2.329742 1_555
Ca0 O64 2.523061 1_565
Ca0 O72 2.558930 1_555
Ca0 O68 2.574045 1_555
Ca1 O57 2.248787 1_555
Ca1 O61 2.264142 1_565
Ca1 O10 2.302498 1_555
Ca1 O17 2.329742 1_455
Ca1 O65 2.523061 1_565
Ca1 O73 2.558930 1_455
Ca1 O69 2.574045 1_455
Ca2 O58 2.248787 1_555
Ca2 O62 2.264142 1_545
Ca2 O9 2.302498 1_555
Ca2 O18 2.329742 1_555
Ca2 O66 2.523061 1_545
Ca2 O74 2.558930 1_555
Ca2 O70 2.574045 1_555
Ca3 O59 2.248787 1_555
Ca3 O63 2.264142 1_545
Ca3 O8 2.302498 1_555
Ca3 O19 2.329742 1_655
Ca3 O67 2.523061 1_545
Ca3 O75 2.558930 1_655
Ca3 O71 2.574045 1_655
C0 O29 1.267889 1_555
C0 O36 1.305533 1_555
C0 O32 1.306797 1_555
C1 O28 1.267889 1_555
C1 O37 1.305533 1_555
C1 O33 1.306797 1_555
C2 O31 1.267889 1_555
C2 O38 1.305533 1_555
C2 O34 1.306797 1_555
C3 O30 1.267889 1_555
C3 O39 1.305533 1_555
C3 O35 1.306797 1_555
C4 O5 1.275559 1_555
C4 O48 1.301506 1_556
C4 O20 1.302032 1_556
C5 O4 1.275559 1_555
C5 O49 1.301506 1_555
C5 O21 1.302032 1_555
C6 O7 1.275559 1_555
C6 O50 1.301506 1_554
C6 O22 1.302032 1_554
C7 O6 1.275559 1_555
C7 O51 1.301506 1_555
C7 O23 1.302032 1_555
O0 U8 1.804721 1_545
O1 U9 1.804721 1_545
O2 U10 1.804721 1_565
O3 U11 1.804721 1_565
O4 U4 2.331867 1_555
O5 U5 2.331867 1_555
O6 U6 2.331867 1_555
O7 U7 2.331867 1_555
O8 U0 1.861200 1_555
O9 U1 1.861200 1_555
O10 U2 1.861200 1_555
O11 U3 1.861200 1_555
O12 O14 1.244555 1_564
O12 O56 1.761405 1_555
O13 O15 1.244555 1_665
O13 O57 1.761405 1_655
O14 O58 1.761405 1_555
O15 O59 1.761405 1_455
O16 U4 1.861518 1_555
O17 U5 1.861518 1_555
O18 U6 1.861518 1_555
O19 U7 1.861518 1_555
O20 U8 2.498787 1_555
O20 U0 2.547661 1_555
O21 U9 2.498787 1_555
O21 U1 2.547661 1_555
O22 U10 2.498787 1_555
O22 U2 2.547661 1_555
O23 U11 2.498787 1_555
O23 U3 2.547661 1_555
O24 U4 2.233180 1_555
O24 U8 2.260254 1_555
O24 U0 2.293680 1_555
O25 U5 2.233180 1_555
O25 U9 2.260254 1_555
O25 U1 2.293680 1_555
O26 U6 2.233180 1_555
O26 U10 2.260254 1_555
O26 U2 2.293680 1_555
O27 U7 2.233180 1_555
O27 U11 2.260254 1_555
O27 U3 2.293680 1_555
O28 U8 2.345237 1_546
O29 U9 2.345237 1_545
O30 U10 2.345237 1_564
O31 U11 2.345237 1_565
O32 U4 2.518515 1_555
O32 U0 2.529044 1_555
O33 U5 2.518515 1_555
O33 U1 2.529044 1_555
O34 U6 2.518515 1_555
O34 U2 2.529044 1_555
O35 U7 2.518515 1_555
O35 U3 2.529044 1_555
O36 U4 2.486117 1_545
O36 U0 2.544100 1_555
O37 U5 2.486117 1_545
O37 U1 2.544100 1_555
O38 U6 2.486117 1_565
O38 U2 2.544100 1_555
O39 U7 2.486117 1_565
O39 U3 2.544100 1_555
O40 U8 2.234223 1_545
O40 U4 2.256183 1_545
O40 U0 2.293029 1_555
O41 U9 2.234223 1_545
O41 U5 2.256183 1_545
O41 U1 2.293029 1_555
O42 U10 2.234223 1_565
O42 U6 2.256183 1_565
O42 U2 2.293029 1_555
O43 U11 2.234223 1_565
O43 U7 2.256183 1_565
O43 U3 2.293029 1_555
O44 U0 1.802700 1_555
O45 U1 1.802700 1_555
O46 U2 1.802700 1_555
O47 U3 1.802700 1_555
O48 U8 2.513942 1_545
O48 U0 2.529028 1_555
O49 U9 2.513942 1_545
O49 U1 2.529028 1_555
O50 U10 2.513942 1_565
O50 U2 2.529028 1_555
O51 U11 2.513942 1_565
O51 U3 2.529028 1_555
O52 U8 1.817166 1_555
O53 U9 1.817166 1_555
O54 U10 1.817166 1_555
O55 U11 1.817166 1_555
O68 O72 1.247903 1_555
O69 O73 1.247903 1_555
O70 O74 1.247903 1_555
O71 O75 1.247903 1_555
O76 U4 1.809349 1_555
O77 U5 1.809349 1_555
O78 U6 1.809349 1_555
O79 U7 1.809349 1_555
