# generated using pymatgen
data_CaH4C4(SO)4
_symmetry_space_group_name_H-M   'P 1'
_cell_length_a   8.17310052
_cell_length_b   13.56317849
_cell_length_c   10.35321000
_cell_angle_alpha   90.00000000
_cell_angle_beta   90.00000000
_cell_angle_gamma   91.05456077
_symmetry_Int_Tables_number   1
_chemical_formula_structural   CaH4C4(SO)4
_chemical_formula_sum   'Ca4 H16 C16 S16 O16'
_cell_volume   1147.49228529
_cell_formula_units_Z   4
loop_
 _symmetry_equiv_pos_site_id
 _symmetry_equiv_pos_as_xyz
  1  'x, y, z'
loop_
 _atom_site_type_symbol
 _atom_site_label
 _atom_site_symmetry_multiplicity
 _atom_site_fract_x
 _atom_site_fract_y
 _atom_site_fract_z
 _atom_site_occupancy
  Ca  Ca0  1  0.31016600  0.13045300  0.75000000  1
  Ca  Ca1  1  0.68983400  0.86954700  0.25000000  1
  Ca  Ca2  1  0.81453700  0.36829600  0.75000000  1
  Ca  Ca3  1  0.18546300  0.63170400  0.25000000  1
  H  H0  1  0.99020800  0.05431800  0.67478900  1
  H  H1  1  0.00979200  0.94568200  0.17478900  1
  H  H2  1  0.00979200  0.94568200  0.32521100  1
  H  H3  1  0.99020800  0.05431800  0.82521100  1
  H  H4  1  0.65926800  0.10764000  0.67289100  1
  H  H5  1  0.34073200  0.89236000  0.17289100  1
  H  H6  1  0.34073200  0.89236000  0.32710900  1
  H  H7  1  0.65926800  0.10764000  0.82710900  1
  H  H8  1  0.16524500  0.39246400  0.67284000  1
  H  H9  1  0.83475500  0.60753600  0.17284000  1
  H  H10  1  0.83475500  0.60753600  0.32716000  1
  H  H11  1  0.16524500  0.39246400  0.82716000  1
  H  H12  1  0.50191400  0.44187500  0.67481300  1
  H  H13  1  0.49808600  0.55812500  0.17481300  1
  H  H14  1  0.49808600  0.55812500  0.32518700  1
  H  H15  1  0.50191400  0.44187500  0.82518700  1
  C  C0  1  0.32366600  0.85991300  0.67947300  1
  C  C1  1  0.67633400  0.14008700  0.17947300  1
  C  C2  1  0.67633400  0.14008700  0.32052700  1
  C  C3  1  0.32366600  0.85991300  0.82052700  1
  C  C4  1  0.32002700  0.75228200  0.67928900  1
  C  C5  1  0.67997300  0.24771800  0.17928900  1
  C  C6  1  0.67997300  0.24771800  0.32071100  1
  C  C7  1  0.32002700  0.75228200  0.82071100  1
  C  C8  1  0.82461500  0.64065400  0.67945400  1
  C  C9  1  0.17538500  0.35934600  0.17945400  1
  C  C10  1  0.17538500  0.35934600  0.32054600  1
  C  C11  1  0.82461500  0.64065400  0.82054600  1
  C  C12  1  0.81862000  0.74816800  0.67922600  1
  C  C13  1  0.18138000  0.25183200  0.17922600  1
  C  C14  1  0.18138000  0.25183200  0.32077400  1
  C  C15  1  0.81862000  0.74816800  0.82077400  1
  S  S0  1  0.31603500  0.95061000  0.57102100  1
  S  S1  1  0.68396500  0.04939000  0.07102100  1
  S  S2  1  0.68396500  0.04939000  0.42897900  1
  S  S3  1  0.31603500  0.95061000  0.92897900  1
  S  S4  1  0.29184200  0.65782500  0.58002700  1
  S  S5  1  0.70815800  0.34217500  0.08002700  1
  S  S6  1  0.70815800  0.34217500  0.41997300  1
  S  S7  1  0.29184200  0.65782500  0.91997300  1
  S  S8  1  0.78947200  0.84215300  0.58045900  1
  S  S9  1  0.21052800  0.15784700  0.08045900  1
  S  S10  1  0.21052800  0.15784700  0.41954100  1
  S  S11  1  0.78947200  0.84215300  0.91954100  1
  S  S12  1  0.81867800  0.54963200  0.57128700  1
  S  S13  1  0.18132200  0.45036800  0.07128700  1
  S  S14  1  0.18132200  0.45036800  0.42871300  1
  S  S15  1  0.81867800  0.54963200  0.92871300  1
  O  O0  1  0.01393500  0.09559700  0.75000000  1
  O  O1  1  0.98606500  0.90440300  0.25000000  1
  O  O2  1  0.60335700  0.13236900  0.75000000  1
  O  O3  1  0.39664300  0.86763100  0.25000000  1
  O  O4  1  0.10697600  0.36862900  0.75000000  1
  O  O5  1  0.89302400  0.63137100  0.25000000  1
  O  O6  1  0.51915800  0.39983900  0.75000000  1
  O  O7  1  0.48084200  0.60016100  0.25000000  1
  O  O8  1  0.73846200  0.30373400  0.55751600  1
  O  O9  1  0.26153800  0.69626600  0.05751600  1
  O  O10  1  0.26153800  0.69626600  0.44248400  1
  O  O11  1  0.73846200  0.30373400  0.94248400  1
  O  O12  1  0.23747500  0.19607400  0.55792900  1
  O  O13  1  0.76252500  0.80392600  0.05792900  1
  O  O14  1  0.76252500  0.80392600  0.44207100  1
  O  O15  1  0.23747500  0.19607400  0.94207100  1
loop_
_geom_bond_atom_site_label_1
_geom_bond_atom_site_label_2
_geom_bond_distance
_geom_bond_site_symmetry_2
Ca0 O15 2.262503 1_555
Ca0 O12 2.262503 1_555
Ca0 O2 2.395942 1_555
Ca0 O0 2.458296 1_555
Ca0 S3 3.064335 1_545
Ca0 S0 3.064335 1_545
Ca1 O13 2.262503 1_555
Ca1 O14 2.262503 1_555
Ca1 O3 2.395942 1_555
Ca1 O1 2.458296 1_555
Ca1 S2 3.064335 1_565
Ca1 S1 3.064335 1_565
Ca2 O11 2.259360 1_555
Ca2 O8 2.259360 1_555
Ca2 O4 2.390054 1_655
Ca2 O6 2.459518 1_555
Ca2 S15 3.077438 1_555
Ca2 S12 3.077438 1_555
Ca3 O9 2.259360 1_555
Ca3 O10 2.259360 1_555
Ca3 O5 2.390054 1_455
Ca3 O7 2.459518 1_555
Ca3 S13 3.077438 1_555
Ca3 S14 3.077438 1_555
H0 O0 0.976424 1_655
H1 O1 0.976424 1_455
H2 O1 0.976424 1_455
H3 O0 0.976424 1_655
H4 O2 0.981977 1_555
H5 O3 0.981977 1_555
H6 O3 0.981977 1_555
H7 O2 0.981977 1_555
H8 O4 0.981739 1_555
H9 O5 0.981739 1_555
H10 O5 0.981739 1_555
H11 O4 0.981739 1_555
H12 O6 0.976643 1_555
H13 O7 0.976643 1_555
H14 O7 0.976643 1_555
H15 O6 0.976643 1_555
C0 C4 1.459575 1_555
C0 C3 1.460362 1_555
C0 S0 1.667542 1_555
C1 C5 1.459575 1_555
C1 C2 1.460362 1_555
C1 S1 1.667542 1_555
C2 C6 1.459575 1_555
C2 S2 1.667542 1_555
C3 C7 1.459575 1_555
C3 S3 1.667542 1_555
C4 C7 1.464172 1_555
C4 S4 1.655186 1_555
C5 C6 1.464172 1_555
C5 S5 1.655186 1_555
C6 S6 1.655186 1_555
C7 S7 1.655186 1_555
C8 S12 1.666847 1_555
C9 S13 1.666847 1_555
C10 C14 1.459957 1_555
C10 C9 1.460755 1_555
C10 S14 1.666847 1_555
C11 C15 1.459957 1_555
C11 C8 1.460755 1_555
C11 S15 1.666847 1_555
C12 C8 1.459957 1_555
C12 C15 1.465476 1_555
C12 S8 1.654842 1_555
C13 C9 1.459957 1_555
C13 C14 1.465476 1_555
C13 S9 1.654842 1_555
C14 S10 1.654842 1_555
C15 S11 1.654842 1_555
O8 S6 1.538098 1_555
O9 S7 1.538098 1_554
O10 S4 1.538098 1_555
O11 S5 1.538098 1_556
O12 S10 1.538156 1_555
O13 S11 1.538156 1_554
O14 S8 1.538156 1_555
O15 S9 1.538156 1_556
