# generated using pymatgen
data_P2Se
_symmetry_space_group_name_H-M   'P 1'
_cell_length_a   5.26420917
_cell_length_b   5.26420917
_cell_length_c   5.26420917
_cell_angle_alpha   103.69047112
_cell_angle_beta   103.69047112
_cell_angle_gamma   121.77917617
_symmetry_Int_Tables_number   1
_chemical_formula_structural   P2Se
_chemical_formula_sum   'P4 Se2'
_cell_volume   108.34668622
_cell_formula_units_Z   2
loop_
 _symmetry_equiv_pos_site_id
 _symmetry_equiv_pos_as_xyz
  1  'x, y, z'
loop_
 _atom_site_type_symbol
 _atom_site_label
 _atom_site_symmetry_multiplicity
 _atom_site_fract_x
 _atom_site_fract_y
 _atom_site_fract_z
 _atom_site_occupancy
  P  P0  1  0.12500000  0.87500000  0.25000000  1
  P  P1  1  0.62500000  0.87500000  0.75000000  1
  P  P2  1  0.12500000  0.37500000  0.25000000  1
  P  P3  1  0.12500000  0.87500000  0.75000000  1
  Se  Se0  1  0.75000000  0.25000000  0.50000000  1
  Se  Se1  1  0.50000000  0.50000000  0.00000000  1
loop_
_geom_bond_atom_site_label_1
_geom_bond_atom_site_label_2
_geom_bond_distance
_geom_bond_site_symmetry_2
P0 Se0 2.516633 1_565
P0 Se1 2.516633 1_455
P0 P2 2.632105 1_555
P0 P3 2.632105 1_555
P0 P3 2.632105 1_554
P0 P2 2.632105 1_565
P1 Se0 2.516633 1_565
P1 Se1 2.516633 1_556
P1 P2 2.632105 1_555
P1 P2 2.632105 1_666
P1 P3 2.632105 1_555
P1 P3 2.632105 1_655
P2 Se1 2.516633 1_555
P2 Se0 2.516633 1_455
P3 Se0 2.516633 1_455
P3 Se1 2.516633 1_566
