# generated using pymatgen
data_SiO2
_symmetry_space_group_name_H-M   'P 1'
_cell_length_a   10.81340641
_cell_length_b   10.81340641
_cell_length_c   10.81340641
_cell_angle_alpha   60.00000000
_cell_angle_beta   60.00000000
_cell_angle_gamma   60.00000000
_symmetry_Int_Tables_number   1
_chemical_formula_structural   SiO2
_chemical_formula_sum   'Si8 O16'
_cell_volume   894.07217568
_cell_formula_units_Z   8
loop_
 _symmetry_equiv_pos_site_id
 _symmetry_equiv_pos_as_xyz
  1  'x, y, z'
loop_
 _atom_site_type_symbol
 _atom_site_label
 _atom_site_symmetry_multiplicity
 _atom_site_fract_x
 _atom_site_fract_y
 _atom_site_fract_z
 _atom_site_occupancy
  Si  Si0  1  0.30625300  0.56458200  0.56458200  1
  Si  Si1  1  0.68541800  0.68541800  0.68541800  1
  Si  Si2  1  0.68541800  0.68541800  0.94374700  1
  Si  Si3  1  0.68541800  0.94374700  0.68541800  1
  Si  Si4  1  0.56458200  0.30625300  0.56458200  1
  Si  Si5  1  0.56458200  0.56458200  0.56458200  1
  Si  Si6  1  0.56458200  0.56458200  0.30625300  1
  Si  Si7  1  0.94374700  0.68541800  0.68541800  1
  O  O0  1  0.62500000  0.12500000  0.62500000  1
  O  O1  1  0.62500000  0.62500000  0.62500000  1
  O  O2  1  0.62500000  0.62500000  0.12500000  1
  O  O3  1  0.12500000  0.62500000  0.62500000  1
  O  O4  1  0.87293600  0.62706400  0.62706400  1
  O  O5  1  0.62293600  0.37706400  0.37706400  1
  O  O6  1  0.62706400  0.87293600  0.62706400  1
  O  O7  1  0.62706400  0.62706400  0.87293600  1
  O  O8  1  0.62706400  0.87293600  0.87293600  1
  O  O9  1  0.62293600  0.37706400  0.62293600  1
  O  O10  1  0.37706400  0.62293600  0.37706400  1
  O  O11  1  0.37706400  0.37706400  0.62293600  1
  O  O12  1  0.62293600  0.62293600  0.37706400  1
  O  O13  1  0.37706400  0.62293600  0.62293600  1
  O  O14  1  0.87293600  0.62706400  0.87293600  1
  O  O15  1  0.87293600  0.87293600  0.62706400  1
loop_
_geom_bond_atom_site_label_1
_geom_bond_atom_site_label_2
_geom_bond_distance
_geom_bond_site_symmetry_2
O0 Si3 1.600303 1_545
O0 Si4 1.600303 1_555
O1 Si1 1.600311 1_555
O1 Si5 1.600311 1_555
O2 Si2 1.600303 1_554
O2 Si6 1.600303 1_555
O3 Si0 1.600303 1_555
O3 Si7 1.600303 1_455
O4 Si1 1.657442 1_555
O4 Si7 1.657451 1_555
O5 Si6 1.657443 1_555
O5 Si4 1.657443 1_555
O6 Si1 1.657442 1_555
O6 Si3 1.657451 1_555
O7 Si1 1.657442 1_555
O7 Si2 1.657451 1_555
O8 Si2 1.657443 1_555
O8 Si3 1.657443 1_555
O9 Si5 1.657442 1_555
O9 Si4 1.657451 1_555
O10 Si0 1.657443 1_555
O10 Si6 1.657443 1_555
O11 Si0 1.657443 1_555
O11 Si4 1.657443 1_555
O12 Si5 1.657442 1_555
O12 Si6 1.657451 1_555
O13 Si5 1.657442 1_555
O13 Si0 1.657451 1_555
O14 Si7 1.657443 1_555
O14 Si2 1.657443 1_555
O15 Si7 1.657443 1_555
O15 Si3 1.657443 1_555
