# generated using pymatgen
data_Yb5Mg
_symmetry_space_group_name_H-M   'P 1'
_cell_length_a   13.07461513
_cell_length_b   13.07461513
_cell_length_c   16.24767441
_cell_angle_alpha   75.15037450
_cell_angle_beta   75.15037450
_cell_angle_gamma   31.04395852
_symmetry_Int_Tables_number   1
_chemical_formula_structural   Yb5Mg
_chemical_formula_sum   'Yb40 Mg8'
_cell_volume   1380.73168582
_cell_formula_units_Z   8
loop_
 _symmetry_equiv_pos_site_id
 _symmetry_equiv_pos_as_xyz
  1  'x, y, z'
loop_
 _atom_site_type_symbol
 _atom_site_label
 _atom_site_symmetry_multiplicity
 _atom_site_fract_x
 _atom_site_fract_y
 _atom_site_fract_z
 _atom_site_occupancy
  Yb  Yb0_0  1  0.49933743  0.49933743  0.00268954  1
  Yb  Yb0_1  1  0.49933743  0.49933743  0.50268954  1
  Yb  Yb0_2  1  0.49933743  0.99933743  0.00268954  1
  Yb  Yb0_3  1  0.49933743  0.99933743  0.50268954  1
  Yb  Yb0_4  1  0.99933743  0.49933743  0.00268954  1
  Yb  Yb0_5  1  0.99933743  0.49933743  0.50268954  1
  Yb  Yb0_6  1  0.99933743  0.99933743  0.00268954  1
  Yb  Yb0_7  1  0.99933743  0.99933743  0.50268954  1
  Yb  Yb1_0  1  0.14018433  0.14018433  0.47120465  1
  Yb  Yb1_1  1  0.14018433  0.14018433  0.97120465  1
  Yb  Yb1_2  1  0.14018433  0.64018433  0.47120465  1
  Yb  Yb1_3  1  0.14018433  0.64018433  0.97120465  1
  Yb  Yb1_4  1  0.64018433  0.14018433  0.47120465  1
  Yb  Yb1_5  1  0.64018433  0.14018433  0.97120465  1
  Yb  Yb1_6  1  0.64018433  0.64018433  0.47120465  1
  Yb  Yb1_7  1  0.64018433  0.64018433  0.97120465  1
  Yb  Yb2_0  1  0.33527666  0.33527666  0.33579788  1
  Yb  Yb2_1  1  0.33527666  0.33527666  0.83579788  1
  Yb  Yb2_2  1  0.33527666  0.83527666  0.33579788  1
  Yb  Yb2_3  1  0.33527666  0.83527666  0.83579788  1
  Yb  Yb2_4  1  0.83527666  0.33527666  0.33579788  1
  Yb  Yb2_5  1  0.83527666  0.33527666  0.83579788  1
  Yb  Yb2_6  1  0.83527666  0.83527666  0.33579788  1
  Yb  Yb2_7  1  0.83527666  0.83527666  0.83579788  1
  Yb  Yb3_0  1  0.47472855  0.47472855  0.30107729  1
  Yb  Yb3_1  1  0.47472855  0.47472855  0.80107729  1
  Yb  Yb3_2  1  0.47472855  0.97472855  0.30107729  1
  Yb  Yb3_3  1  0.47472855  0.97472855  0.80107729  1
  Yb  Yb3_4  1  0.97472855  0.47472855  0.30107729  1
  Yb  Yb3_5  1  0.97472855  0.47472855  0.80107729  1
  Yb  Yb3_6  1  0.97472855  0.97472855  0.30107729  1
  Yb  Yb3_7  1  0.97472855  0.97472855  0.80107729  1
  Yb  Yb4_0  1  0.16277090  0.16277090  0.16748479  1
  Yb  Yb4_1  1  0.16277090  0.16277090  0.66748479  1
  Yb  Yb4_2  1  0.16277090  0.66277090  0.16748479  1
  Yb  Yb4_3  1  0.16277090  0.66277090  0.66748479  1
  Yb  Yb4_4  1  0.66277090  0.16277090  0.16748479  1
  Yb  Yb4_5  1  0.66277090  0.16277090  0.66748479  1
  Yb  Yb4_6  1  0.66277090  0.66277090  0.16748479  1
  Yb  Yb4_7  1  0.66277090  0.66277090  0.66748479  1
  Mg  Mg0_0  1  0.30436714  0.30436714  0.13841135  1
  Mg  Mg0_1  1  0.30436714  0.30436714  0.63841135  1
  Mg  Mg0_2  1  0.30436714  0.80436714  0.13841135  1
  Mg  Mg0_3  1  0.30436714  0.80436714  0.63841135  1
  Mg  Mg0_4  1  0.80436714  0.30436714  0.13841135  1
  Mg  Mg0_5  1  0.80436714  0.30436714  0.63841135  1
  Mg  Mg0_6  1  0.80436714  0.80436714  0.13841135  1
  Mg  Mg0_7  1  0.80436714  0.80436714  0.63841135  1
loop_
_geom_bond_atom_site_label_1
_geom_bond_atom_site_label_2
_geom_bond_distance
_geom_bond_site_symmetry_2
Yb0_0 Yb1_5 3.410872 1_554
Yb0_0 Yb1_3 3.410872 1_554
Yb0_0 Yb4_4 3.446770 1_555
Yb0_0 Yb4_2 3.446770 1_555
Yb0_0 Yb1_7 3.448088 1_554
Yb0_0 Yb2_5 3.460978 1_554
Yb0_0 Yb2_3 3.460978 1_554
Yb0_0 Yb3_1 3.492178 1_554
Yb0_0 Yb0_6 3.498872 1_455
Yb0_0 Yb0_6 3.498872 1_545
Yb0_1 Yb1_4 3.410872 1_555
Yb0_1 Yb1_2 3.410872 1_555
Yb0_1 Yb4_5 3.446770 1_555
Yb0_1 Yb4_3 3.446770 1_555
Yb0_1 Yb1_6 3.448088 1_555
Yb0_1 Yb2_2 3.460978 1_555
Yb0_1 Yb2_4 3.460978 1_555
Yb0_1 Yb3_0 3.492178 1_555
Yb0_1 Yb0_7 3.498872 1_455
Yb0_1 Yb0_7 3.498872 1_545
Yb0_2 Yb1_1 3.410872 1_564
Yb0_2 Yb1_7 3.410872 1_554
Yb0_2 Yb4_0 3.446770 1_565
Yb0_2 Yb4_6 3.446770 1_555
Yb0_2 Yb1_5 3.448088 1_564
Yb0_2 Yb2_7 3.460978 1_554
Yb0_2 Yb2_1 3.460978 1_564
Yb0_2 Yb3_3 3.492178 1_554
Yb0_2 Yb0_4 3.498872 1_555
Yb0_2 Yb0_4 3.498872 1_465
Yb0_3 Yb1_0 3.410872 1_565
Yb0_3 Yb1_6 3.410872 1_555
Yb0_3 Yb4_1 3.446770 1_565
Yb0_3 Yb4_7 3.446770 1_555
Yb0_3 Yb1_4 3.448088 1_565
Yb0_3 Yb2_6 3.460978 1_555
Yb0_3 Yb2_0 3.460978 1_565
Yb0_3 Yb3_2 3.492178 1_555
Yb0_3 Yb0_5 3.498872 1_555
Yb0_3 Yb0_5 3.498872 1_465
Yb0_4 Yb1_1 3.410872 1_654
Yb0_4 Yb1_7 3.410872 1_554
Yb0_4 Yb4_0 3.446770 1_655
Yb0_4 Yb4_6 3.446770 1_555
Yb0_4 Yb1_3 3.448088 1_654
Yb0_4 Yb2_7 3.460978 1_554
Yb0_4 Yb2_1 3.460978 1_654
Yb0_4 Yb3_5 3.492178 1_554
Yb0_5 Yb1_0 3.410872 1_655
Yb0_5 Yb1_6 3.410872 1_555
Yb0_5 Yb4_1 3.446770 1_655
Yb0_5 Yb4_7 3.446770 1_555
Yb0_5 Yb1_2 3.448088 1_655
Yb0_5 Yb2_0 3.460978 1_655
Yb0_5 Yb2_6 3.460978 1_555
Yb0_5 Yb3_4 3.492178 1_555
Yb0_6 Yb1_3 3.410872 1_654
Yb0_6 Yb1_5 3.410872 1_564
Yb0_6 Yb4_2 3.446770 1_655
Yb0_6 Yb4_4 3.446770 1_565
Yb0_6 Yb1_1 3.448088 1_664
Yb0_6 Yb2_5 3.460978 1_564
Yb0_6 Yb2_3 3.460978 1_654
Yb0_6 Yb3_7 3.492178 1_554
Yb0_7 Yb1_4 3.410872 1_565
Yb0_7 Yb1_2 3.410872 1_655
Yb0_7 Yb4_5 3.446770 1_565
Yb0_7 Yb4_3 3.446770 1_655
Yb0_7 Yb1_0 3.448088 1_665
Yb0_7 Yb2_2 3.460978 1_655
Yb0_7 Yb2_4 3.460978 1_565
Yb0_7 Yb3_6 3.492178 1_555
Yb1_0 Yb2_4 3.381374 1_455
Yb1_0 Yb2_2 3.381374 1_545
Yb1_0 Yb4_1 3.385207 1_555
Yb1_0 Yb3_4 3.479425 1_455
Yb1_0 Yb3_2 3.479425 1_545
Yb1_0 Yb1_6 3.498872 1_545
Yb1_0 Yb1_6 3.498872 1_455
Yb1_1 Yb2_5 3.381374 1_455
Yb1_1 Yb2_3 3.381374 1_545
Yb1_1 Yb4_0 3.385207 1_556
Yb1_1 Yb3_3 3.479425 1_545
Yb1_1 Yb3_5 3.479425 1_455
Yb1_1 Yb1_7 3.498872 1_455
Yb1_1 Yb1_7 3.498872 1_545
Yb1_2 Yb2_0 3.381374 1_555
Yb1_2 Yb2_6 3.381374 1_455
Yb1_2 Yb4_3 3.385207 1_555
Yb1_2 Yb3_6 3.479425 1_455
Yb1_2 Yb3_0 3.479425 1_555
Yb1_2 Yb1_4 3.498872 1_555
Yb1_2 Yb1_4 3.498872 1_465
Yb1_3 Yb2_1 3.381374 1_555
Yb1_3 Yb2_7 3.381374 1_455
Yb1_3 Yb4_2 3.385207 1_556
Yb1_3 Yb3_7 3.479425 1_455
Yb1_3 Yb3_1 3.479425 1_555
Yb1_3 Yb1_5 3.498872 1_555
Yb1_3 Yb1_5 3.498872 1_465
Yb1_4 Yb2_0 3.381374 1_555
Yb1_4 Yb2_6 3.381374 1_545
Yb1_4 Yb4_5 3.385207 1_555
Yb1_4 Yb3_6 3.479425 1_545
Yb1_4 Yb3_0 3.479425 1_555
Yb1_5 Yb2_1 3.381374 1_555
Yb1_5 Yb2_7 3.381374 1_545
Yb1_5 Yb4_4 3.385207 1_556
Yb1_5 Yb3_7 3.479425 1_545
Yb1_5 Yb3_1 3.479425 1_555
Yb1_6 Yb2_4 3.381374 1_555
Yb1_6 Yb2_2 3.381374 1_555
Yb1_6 Yb4_7 3.385207 1_555
Yb1_6 Yb3_2 3.479425 1_555
Yb1_6 Yb3_4 3.479425 1_555
Yb1_7 Yb2_3 3.381374 1_555
Yb1_7 Yb2_5 3.381374 1_555
Yb1_7 Yb4_6 3.385207 1_556
Yb1_7 Yb3_3 3.479425 1_555
Yb1_7 Yb3_5 3.479425 1_555
Yb2_0 Yb4_4 3.392775 1_555
Yb2_0 Yb4_2 3.392775 1_555
Yb2_0 Yb3_0 3.407190 1_555
Yb2_0 Yb3_4 3.460148 1_455
Yb2_0 Yb3_2 3.460148 1_545
Yb2_0 Yb2_6 3.498872 1_545
Yb2_0 Yb2_6 3.498872 1_455
Yb2_1 Yb4_3 3.392775 1_555
Yb2_1 Yb4_5 3.392775 1_555
Yb2_1 Yb3_1 3.407190 1_555
Yb2_1 Yb3_5 3.460148 1_455
Yb2_1 Yb3_3 3.460148 1_545
Yb2_1 Yb2_7 3.498872 1_545
Yb2_1 Yb2_7 3.498872 1_455
Yb2_2 Yb4_6 3.392775 1_555
Yb2_2 Yb4_0 3.392775 1_565
Yb2_2 Yb3_2 3.407190 1_555
Yb2_2 Yb3_0 3.460148 1_555
Yb2_2 Yb3_6 3.460148 1_455
Yb2_2 Yb2_4 3.498872 1_555
Yb2_2 Yb2_4 3.498872 1_465
Yb2_3 Yb4_7 3.392775 1_555
Yb2_3 Yb4_1 3.392775 1_565
Yb2_3 Yb3_3 3.407190 1_555
Yb2_3 Yb3_1 3.460148 1_555
Yb2_3 Yb3_7 3.460148 1_455
Yb2_3 Yb2_5 3.498872 1_555
Yb2_3 Yb2_5 3.498872 1_465
Yb2_4 Yb4_6 3.392775 1_555
Yb2_4 Yb4_0 3.392775 1_655
Yb2_4 Yb3_4 3.407190 1_555
Yb2_4 Yb3_0 3.460148 1_555
Yb2_4 Yb3_6 3.460148 1_545
Yb2_5 Yb4_1 3.392775 1_655
Yb2_5 Yb4_7 3.392775 1_555
Yb2_5 Yb3_5 3.407190 1_555
Yb2_5 Yb3_1 3.460148 1_555
Yb2_5 Yb3_7 3.460148 1_545
Yb2_6 Yb4_4 3.392775 1_565
Yb2_6 Yb4_2 3.392775 1_655
Yb2_6 Yb3_6 3.407190 1_555
Yb2_6 Yb3_2 3.460148 1_555
Yb2_6 Yb3_4 3.460148 1_555
Yb2_7 Yb4_5 3.392775 1_565
Yb2_7 Yb4_3 3.392775 1_655
Yb2_7 Yb3_7 3.407190 1_555
Yb2_7 Yb3_5 3.460148 1_555
Yb2_7 Yb3_3 3.460148 1_555
Yb3_0 Yb4_4 3.465731 1_555
Yb3_0 Yb4_2 3.465731 1_555
Yb3_0 Yb3_6 3.498872 1_455
Yb3_0 Yb3_6 3.498872 1_545
Yb3_1 Yb4_5 3.465731 1_555
Yb3_1 Yb4_3 3.465731 1_555
Yb3_1 Yb3_7 3.498872 1_455
Yb3_1 Yb3_7 3.498872 1_545
Yb3_2 Yb4_0 3.465731 1_565
Yb3_2 Yb4_6 3.465731 1_555
Yb3_2 Yb3_4 3.498872 1_555
Yb3_2 Yb3_4 3.498872 1_465
Yb3_3 Yb4_7 3.465731 1_555
Yb3_3 Yb4_1 3.465731 1_565
Yb3_3 Yb3_5 3.498872 1_555
Yb3_3 Yb3_5 3.498872 1_465
Yb3_4 Yb4_0 3.465731 1_655
Yb3_4 Yb4_6 3.465731 1_555
Yb3_5 Yb4_7 3.465731 1_555
Yb3_5 Yb4_1 3.465731 1_655
Yb3_6 Yb4_2 3.465731 1_655
Yb3_6 Yb4_4 3.465731 1_565
Yb3_7 Yb4_5 3.465731 1_565
Yb3_7 Yb4_3 3.465731 1_655
Yb4_0 Yb4_6 3.498872 1_545
Yb4_0 Yb4_6 3.498872 1_455
Yb4_1 Yb4_7 3.498872 1_455
Yb4_1 Yb4_7 3.498872 1_545
Yb4_2 Yb4_4 3.498872 1_555
Yb4_2 Yb4_4 3.498872 1_465
Yb4_3 Yb4_5 3.498872 1_555
Yb4_3 Yb4_5 3.498872 1_465
Mg0_0 Yb3_2 3.354213 1_545
Mg0_0 Yb3_4 3.354213 1_455
Mg0_0 Yb4_4 3.380820 1_555
Mg0_0 Yb4_2 3.380820 1_555
Mg0_0 Yb0_4 3.387054 1_455
Mg0_0 Yb0_2 3.387054 1_545
Mg0_0 Yb1_3 3.462860 1_554
Mg0_0 Yb1_5 3.462860 1_554
Mg0_0 Yb4_0 3.471936 1_555
Mg0_0 Yb2_0 3.495777 1_555
Mg0_1 Yb3_5 3.354213 1_455
Mg0_1 Yb3_3 3.354213 1_545
Mg0_1 Yb4_3 3.380820 1_555
Mg0_1 Yb4_5 3.380820 1_555
Mg0_1 Yb0_3 3.387054 1_545
Mg0_1 Yb0_5 3.387054 1_455
Mg0_1 Yb1_2 3.462860 1_555
Mg0_1 Yb1_4 3.462860 1_555
Mg0_1 Yb4_1 3.471936 1_555
Mg0_1 Yb2_1 3.495777 1_555
Mg0_2 Yb3_0 3.354213 1_555
Mg0_2 Yb3_6 3.354213 1_455
Mg0_2 Yb4_6 3.380820 1_555
Mg0_2 Yb4_0 3.380820 1_565
Mg0_2 Yb0_0 3.387054 1_555
Mg0_2 Yb0_6 3.387054 1_455
Mg0_2 Yb1_7 3.462860 1_554
Mg0_2 Yb1_1 3.462860 1_564
Mg0_2 Yb4_2 3.471936 1_555
Mg0_2 Yb2_2 3.495777 1_555
Mg0_3 Yb3_1 3.354213 1_555
Mg0_3 Yb3_7 3.354213 1_455
Mg0_3 Yb4_1 3.380820 1_565
Mg0_3 Yb4_7 3.380820 1_555
Mg0_3 Yb0_1 3.387054 1_555
Mg0_3 Yb0_7 3.387054 1_455
Mg0_3 Yb1_6 3.462860 1_555
Mg0_3 Yb1_0 3.462860 1_565
Mg0_3 Yb4_3 3.471936 1_555
Mg0_3 Yb2_3 3.495777 1_555
Mg0_4 Yb3_0 3.354213 1_555
Mg0_4 Yb3_6 3.354213 1_545
Mg0_4 Yb4_6 3.380820 1_555
Mg0_4 Yb4_0 3.380820 1_655
Mg0_4 Yb0_0 3.387054 1_555
Mg0_4 Yb0_6 3.387054 1_545
Mg0_4 Yb1_7 3.462860 1_554
Mg0_4 Yb1_1 3.462860 1_654
Mg0_4 Yb4_4 3.471936 1_555
Mg0_4 Yb2_4 3.495777 1_555
Mg0_5 Yb3_1 3.354213 1_555
Mg0_5 Yb3_7 3.354213 1_545
Mg0_5 Yb4_1 3.380820 1_655
Mg0_5 Yb4_7 3.380820 1_555
Mg0_5 Yb0_1 3.387054 1_555
Mg0_5 Yb0_7 3.387054 1_545
Mg0_5 Yb1_6 3.462860 1_555
Mg0_5 Yb1_0 3.462860 1_655
Mg0_5 Yb4_5 3.471936 1_555
Mg0_5 Yb2_5 3.495777 1_555
Mg0_6 Yb3_4 3.354213 1_555
Mg0_6 Yb3_2 3.354213 1_555
Mg0_6 Yb4_4 3.380820 1_565
Mg0_6 Yb4_2 3.380820 1_655
Mg0_6 Yb0_4 3.387054 1_555
Mg0_6 Yb0_2 3.387054 1_555
Mg0_6 Yb1_5 3.462860 1_564
Mg0_6 Yb1_3 3.462860 1_654
Mg0_6 Yb4_6 3.471936 1_555
Mg0_6 Yb2_6 3.495777 1_555
Mg0_7 Yb3_5 3.354213 1_555
Mg0_7 Yb3_3 3.354213 1_555
Mg0_7 Yb4_5 3.380820 1_565
Mg0_7 Yb4_3 3.380820 1_655
Mg0_7 Yb0_3 3.387054 1_555
Mg0_7 Yb0_5 3.387054 1_555
Mg0_7 Yb1_2 3.462860 1_655
Mg0_7 Yb1_4 3.462860 1_565
Mg0_7 Yb4_7 3.471936 1_555
Mg0_7 Yb2_7 3.495777 1_555
