# generated using pymatgen
data_KPr3
_symmetry_space_group_name_H-M   'P 1'
_cell_length_a   7.96654221
_cell_length_b   7.96654221
_cell_length_c   5.98559500
_cell_angle_alpha   90.00000000
_cell_angle_beta   90.00000000
_cell_angle_gamma   120.00000178
_symmetry_Int_Tables_number   1
_chemical_formula_structural   KPr3
_chemical_formula_sum   'K2 Pr6'
_cell_volume   328.98619591
_cell_formula_units_Z   2
loop_
 _symmetry_equiv_pos_site_id
 _symmetry_equiv_pos_as_xyz
  1  'x, y, z'
loop_
 _atom_site_type_symbol
 _atom_site_label
 _atom_site_symmetry_multiplicity
 _atom_site_fract_x
 _atom_site_fract_y
 _atom_site_fract_z
 _atom_site_occupancy
  K  K0  1  0.33333300  0.66666700  0.75000000  1
  K  K1  1  0.66666700  0.33333300  0.25000000  1
  Pr  Pr0  1  0.15462000  0.30923900  0.25000000  1
  Pr  Pr1  1  0.69076100  0.84538000  0.25000000  1
  Pr  Pr2  1  0.15462000  0.84538000  0.25000000  1
  Pr  Pr3  1  0.84538000  0.69076100  0.75000000  1
  Pr  Pr4  1  0.30923900  0.15462000  0.75000000  1
  Pr  Pr5  1  0.84538000  0.15462000  0.75000000  1
loop_
_geom_bond_atom_site_label_1
_geom_bond_atom_site_label_2
_geom_bond_distance
_geom_bond_site_symmetry_2
K0 Pr2 3.877862 1_555
K0 Pr2 3.877862 1_556
K0 Pr1 3.877871 1_556
K0 Pr1 3.877871 1_555
K0 Pr0 3.877871 1_555
K0 Pr0 3.877871 1_556
K0 Pr5 3.986738 1_565
K0 Pr5 3.986738 1_455
K0 Pr4 3.986738 1_555
K0 Pr3 3.986738 1_555
K0 Pr3 3.986738 1_455
K0 Pr4 3.986738 1_565
K1 Pr5 3.877862 1_554
K1 Pr5 3.877862 1_555
K1 Pr3 3.877871 1_555
K1 Pr3 3.877871 1_554
K1 Pr4 3.877871 1_555
K1 Pr4 3.877871 1_554
K1 Pr2 3.986738 1_655
K1 Pr2 3.986738 1_545
K1 Pr0 3.986738 1_555
K1 Pr1 3.986738 1_555
K1 Pr1 3.986738 1_545
K1 Pr0 3.986738 1_655
Pr0 Pr4 3.675415 1_555
Pr0 Pr4 3.675415 1_554
Pr0 Pr5 3.675423 1_455
Pr0 Pr5 3.675423 1_454
Pr0 Pr1 3.695352 1_445
Pr0 Pr2 3.695352 1_545
Pr0 Pr1 4.271190 1_555
Pr0 Pr2 4.271190 1_555
Pr1 Pr3 3.675415 1_555
Pr1 Pr3 3.675415 1_554
Pr1 Pr5 3.675423 1_565
Pr1 Pr5 3.675423 1_564
Pr1 Pr2 3.695352 1_655
Pr1 Pr2 4.271190 1_555
Pr2 Pr4 3.675423 1_564
Pr2 Pr3 3.675423 1_454
Pr2 Pr4 3.675423 1_565
Pr2 Pr3 3.675423 1_455
Pr3 Pr4 3.695352 1_665
Pr3 Pr5 3.695352 1_565
Pr3 Pr4 4.271190 1_555
Pr3 Pr5 4.271190 1_555
Pr4 Pr5 3.695352 1_455
Pr4 Pr5 4.271190 1_555
