# generated using pymatgen
data_Ba3Al3P5
_symmetry_space_group_name_H-M   'P 1'
_cell_length_a   12.93175962
_cell_length_b   12.93175962
_cell_length_c   12.93175905
_cell_angle_alpha   69.37520028
_cell_angle_beta   69.37520028
_cell_angle_gamma   69.37520167
_symmetry_Int_Tables_number   1
_chemical_formula_structural   Ba3Al3P5
_chemical_formula_sum   'Ba18 Al18 P30'
_cell_volume   1828.85855500
_cell_formula_units_Z   6
loop_
 _symmetry_equiv_pos_site_id
 _symmetry_equiv_pos_as_xyz
  1  'x, y, z'
loop_
 _atom_site_type_symbol
 _atom_site_label
 _atom_site_symmetry_multiplicity
 _atom_site_fract_x
 _atom_site_fract_y
 _atom_site_fract_z
 _atom_site_occupancy
  Ba  Ba0  1  0.14640300  0.22337700  0.65125100  1
  Ba  Ba1  1  0.65125100  0.14640300  0.22337700  1
  Ba  Ba2  1  0.22337700  0.65125100  0.14640300  1
  Ba  Ba3  1  0.15125100  0.72337700  0.64640300  1
  Ba  Ba4  1  0.64640300  0.15125100  0.72337700  1
  Ba  Ba5  1  0.72337700  0.64640300  0.15125100  1
  Ba  Ba6  1  0.85359700  0.77662300  0.34874900  1
  Ba  Ba7  1  0.34874900  0.85359700  0.77662300  1
  Ba  Ba8  1  0.77662300  0.34874900  0.85359700  1
  Ba  Ba9  1  0.84874900  0.27662300  0.35359700  1
  Ba  Ba10  1  0.35359700  0.84874900  0.27662300  1
  Ba  Ba11  1  0.27662300  0.35359700  0.84874900  1
  Ba  Ba12  1  0.39895000  0.39895000  0.39895000  1
  Ba  Ba13  1  0.89895000  0.89895000  0.89895000  1
  Ba  Ba14  1  0.60105000  0.60105000  0.60105000  1
  Ba  Ba15  1  0.10105000  0.10105000  0.10105000  1
  Ba  Ba16  1  0.25000000  0.25000000  0.25000000  1
  Ba  Ba17  1  0.75000000  0.75000000  0.75000000  1
  Al  Al0  1  0.07931200  0.57237400  0.49344500  1
  Al  Al1  1  0.49344500  0.07931200  0.57237400  1
  Al  Al2  1  0.57237400  0.49344500  0.07931200  1
  Al  Al3  1  0.99344500  0.07237400  0.57931200  1
  Al  Al4  1  0.57931200  0.99344500  0.07237400  1
  Al  Al5  1  0.07237400  0.57931200  0.99344500  1
  Al  Al6  1  0.92068800  0.42762600  0.50655500  1
  Al  Al7  1  0.50655500  0.92068800  0.42762600  1
  Al  Al8  1  0.42762600  0.50655500  0.92068800  1
  Al  Al9  1  0.00655500  0.92762600  0.42068800  1
  Al  Al10  1  0.42068800  0.00655500  0.92762600  1
  Al  Al11  1  0.92762600  0.42068800  0.00655500  1
  Al  Al12  1  0.97955900  0.52044100  0.25000000  1
  Al  Al13  1  0.25000000  0.97955900  0.52044100  1
  Al  Al14  1  0.52044100  0.25000000  0.97955900  1
  Al  Al15  1  0.75000000  0.02044100  0.47955900  1
  Al  Al16  1  0.47955900  0.75000000  0.02044100  1
  Al  Al17  1  0.02044100  0.47955900  0.75000000  1
  P  P0  1  0.10946400  0.44999600  0.37516200  1
  P  P1  1  0.37516200  0.10946400  0.44999600  1
  P  P2  1  0.44999600  0.37516200  0.10946400  1
  P  P3  1  0.87516200  0.94999600  0.60946400  1
  P  P4  1  0.60946400  0.87516200  0.94999600  1
  P  P5  1  0.94999600  0.60946400  0.87516200  1
  P  P6  1  0.89053600  0.55000400  0.62483800  1
  P  P7  1  0.62483800  0.89053600  0.55000400  1
  P  P8  1  0.55000400  0.62483800  0.89053600  1
  P  P9  1  0.12483800  0.05000400  0.39053600  1
  P  P10  1  0.39053600  0.12483800  0.05000400  1
  P  P11  1  0.05000400  0.39053600  0.12483800  1
  P  P12  1  0.20325200  0.47162600  0.61519000  1
  P  P13  1  0.61519000  0.20325200  0.47162600  1
  P  P14  1  0.47162600  0.61519000  0.20325200  1
  P  P15  1  0.11519000  0.97162600  0.70325200  1
  P  P16  1  0.70325200  0.11519000  0.97162600  1
  P  P17  1  0.97162600  0.70325200  0.11519000  1
  P  P18  1  0.79674800  0.52837400  0.38481000  1
  P  P19  1  0.38481000  0.79674800  0.52837400  1
  P  P20  1  0.52837400  0.38481000  0.79674800  1
  P  P21  1  0.88481000  0.02837400  0.29674800  1
  P  P22  1  0.29674800  0.88481000  0.02837400  1
  P  P23  1  0.02837400  0.29674800  0.88481000  1
  P  P24  1  0.61549400  0.88450600  0.25000000  1
  P  P25  1  0.25000000  0.61549400  0.88450600  1
  P  P26  1  0.88450600  0.25000000  0.61549400  1
  P  P27  1  0.75000000  0.38450600  0.11549400  1
  P  P28  1  0.11549400  0.75000000  0.38450600  1
  P  P29  1  0.38450600  0.11549400  0.75000000  1
loop_
_geom_bond_atom_site_label_1
_geom_bond_atom_site_label_2
_geom_bond_distance
_geom_bond_site_symmetry_2
Ba0 P23 3.178558 1_555
Ba0 P15 3.225860 1_545
Ba0 P12 3.380886 1_555
Ba0 P29 3.398022 1_555
Ba0 P1 3.449875 1_555
Ba0 P26 3.460110 1_455
Ba0 P0 3.795755 1_555
Ba1 P21 3.178558 1_555
Ba1 P16 3.225860 1_554
Ba1 P13 3.380886 1_555
Ba1 P27 3.398022 1_555
Ba1 P2 3.449875 1_555
Ba1 P24 3.460110 1_545
Ba1 P1 3.795755 1_555
Ba2 P22 3.178558 1_555
Ba2 P17 3.225860 1_455
Ba2 P14 3.380886 1_555
Ba2 P28 3.398022 1_555
Ba2 P0 3.449875 1_555
Ba2 P25 3.460110 1_554
Ba2 P2 3.795755 1_555
Ba3 P19 3.178558 1_555
Ba3 P12 3.225860 1_555
Ba3 P15 3.380886 1_555
Ba3 P25 3.398022 1_555
Ba3 P5 3.449875 1_455
Ba3 P28 3.460110 1_555
Ba3 P3 3.795755 1_455
Ba4 P20 3.178558 1_555
Ba4 P13 3.225860 1_555
Ba4 P16 3.380886 1_555
Ba4 P26 3.398022 1_555
Ba4 P3 3.449875 1_545
Ba4 P29 3.460110 1_555
Ba4 P4 3.795755 1_545
Ba5 P18 3.178558 1_555
Ba5 P14 3.225860 1_555
Ba5 P17 3.380886 1_555
Ba5 P24 3.398022 1_555
Ba5 P4 3.449875 1_554
Ba5 P27 3.460110 1_555
Ba5 P5 3.795755 1_554
Ba6 P17 3.178558 1_555
Ba6 P21 3.225860 1_565
Ba6 P18 3.380886 1_555
Ba6 P24 3.398022 1_555
Ba6 P7 3.449875 1_555
Ba6 P28 3.460110 1_655
Ba6 P6 3.795755 1_555
Ba7 P15 3.178558 1_555
Ba7 P22 3.225860 1_556
Ba7 P19 3.380886 1_555
Ba7 P25 3.398022 1_555
Ba7 P8 3.449875 1_555
Ba7 P29 3.460110 1_565
Ba7 P7 3.795755 1_555
Ba8 P16 3.178558 1_555
Ba8 P23 3.225860 1_655
Ba8 P20 3.380886 1_555
Ba8 P26 3.398022 1_555
Ba8 P6 3.449875 1_555
Ba8 P27 3.460110 1_556
Ba8 P8 3.795755 1_555
Ba9 P13 3.178558 1_555
Ba9 P18 3.225860 1_555
Ba9 P21 3.380886 1_555
Ba9 P27 3.398022 1_555
Ba9 P11 3.449875 1_655
Ba9 P26 3.460110 1_555
Ba9 P9 3.795755 1_655
Ba10 P14 3.178558 1_555
Ba10 P19 3.225860 1_555
Ba10 P22 3.380886 1_555
Ba10 P28 3.398022 1_555
Ba10 P9 3.449875 1_565
Ba10 P24 3.460110 1_555
Ba10 P10 3.795755 1_565
Ba11 P12 3.178558 1_555
Ba11 P20 3.225860 1_555
Ba11 P23 3.380886 1_555
Ba11 P29 3.398022 1_555
Ba11 P10 3.449875 1_556
Ba11 P25 3.460110 1_555
Ba11 P11 3.795755 1_556
Ba12 P12 3.209016 1_555
Ba12 P14 3.209016 1_555
Ba12 P13 3.209016 1_555
Ba12 P2 3.670416 1_555
Ba12 P1 3.670416 1_555
Ba12 P0 3.670416 1_555
Ba13 P17 3.209016 1_556
Ba13 P15 3.209016 1_655
Ba13 P16 3.209016 1_565
Ba13 P3 3.670416 1_555
Ba13 P4 3.670416 1_555
Ba13 P5 3.670416 1_555
Ba14 P18 3.209016 1_555
Ba14 P20 3.209016 1_555
Ba14 P19 3.209016 1_555
Ba14 P8 3.670416 1_555
Ba14 P7 3.670416 1_555
Ba14 P6 3.670416 1_555
Ba15 P23 3.209016 1_554
Ba15 P21 3.209016 1_455
Ba15 P22 3.209016 1_545
Ba15 P9 3.670416 1_555
Ba15 P10 3.670416 1_555
Ba15 P11 3.670416 1_555
Ba16 P1 3.190144 1_555
Ba16 P10 3.190144 1_555
Ba16 P2 3.190144 1_555
Ba16 P9 3.190144 1_555
Ba16 P0 3.190144 1_555
Ba16 P11 3.190144 1_555
Ba17 P4 3.190144 1_555
Ba17 P7 3.190144 1_555
Ba17 P3 3.190144 1_555
Ba17 P8 3.190144 1_555
Ba17 P5 3.190144 1_555
Ba17 P6 3.190144 1_555
Al0 P28 2.343699 1_555
Al0 P12 2.367800 1_555
Al0 P0 2.417997 1_555
Al0 P6 2.481789 1_455
Al1 P29 2.343699 1_555
Al1 P13 2.367800 1_555
Al1 P1 2.417997 1_555
Al1 P7 2.481790 1_545
Al2 P27 2.343699 1_555
Al2 P14 2.367800 1_555
Al2 P2 2.417997 1_555
Al2 P8 2.481789 1_554
Al3 P26 2.343699 1_555
Al3 P15 2.367800 1_645
Al3 P3 2.417997 1_545
Al3 P9 2.481789 1_655
Al4 P24 2.343699 1_555
Al4 P16 2.367800 1_564
Al4 P4 2.417997 1_554
Al4 P10 2.481790 1_565
Al5 P25 2.343699 1_555
Al5 P17 2.367800 1_456
Al5 P5 2.417997 1_455
Al5 P11 2.481789 1_556
Al6 P26 2.343699 1_555
Al6 P18 2.367800 1_555
Al6 P6 2.417997 1_555
Al6 P0 2.481789 1_655
Al7 P24 2.343699 1_555
Al7 P19 2.367800 1_555
Al7 P7 2.417997 1_555
Al7 P1 2.481790 1_565
Al8 P25 2.343699 1_555
Al8 P20 2.367800 1_555
Al8 P8 2.417997 1_555
Al8 P2 2.481789 1_556
Al9 P28 2.343699 1_555
Al9 P21 2.367800 1_465
Al9 P9 2.417997 1_565
Al9 P3 2.481789 1_455
Al10 P29 2.343699 1_555
Al10 P22 2.367800 1_546
Al10 P10 2.417997 1_556
Al10 P4 2.481790 1_545
Al11 P27 2.343699 1_555
Al11 P23 2.367800 1_654
Al11 P11 2.417997 1_655
Al11 P5 2.481789 1_554
Al12 P17 2.385417 1_555
Al12 P18 2.385417 1_555
Al12 P0 2.463809 1_655
Al12 P11 2.463809 1_655
Al13 P15 2.385417 1_555
Al13 P19 2.385417 1_555
Al13 P9 2.463809 1_565
Al13 P1 2.463809 1_565
Al14 P20 2.385417 1_555
Al14 P16 2.385417 1_555
Al14 P2 2.463809 1_556
Al14 P10 2.463809 1_556
Al15 P21 2.385417 1_555
Al15 P13 2.385417 1_555
Al15 P3 2.463809 1_545
Al15 P7 2.463809 1_545
Al16 P14 2.385417 1_555
Al16 P22 2.385417 1_555
Al16 P8 2.463809 1_554
Al16 P4 2.463809 1_554
Al17 P23 2.385417 1_555
Al17 P12 2.385417 1_555
Al17 P6 2.463809 1_455
Al17 P5 2.463809 1_455
