# generated using pymatgen
data_Cr2FeO4
_symmetry_space_group_name_H-M   'P 1'
_cell_length_a   3.03231500
_cell_length_b   9.26104700
_cell_length_c   10.80390900
_cell_angle_alpha   90.00020505
_cell_angle_beta   90.00006430
_cell_angle_gamma   90.00237858
_symmetry_Int_Tables_number   1
_chemical_formula_structural   Cr2FeO4
_chemical_formula_sum   'Cr8 Fe4 O16'
_cell_volume   303.39982074
_cell_formula_units_Z   4
loop_
 _symmetry_equiv_pos_site_id
 _symmetry_equiv_pos_as_xyz
  1  'x, y, z'
loop_
 _atom_site_type_symbol
 _atom_site_label
 _atom_site_symmetry_multiplicity
 _atom_site_fract_x
 _atom_site_fract_y
 _atom_site_fract_z
 _atom_site_occupancy
  Cr  Cr0  1  0.75004400  0.95005400  0.38302200  1
  Cr  Cr1  1  0.25003800  0.54994400  0.88302100  1
  Cr  Cr2  1  0.74999200  0.90722700  0.90419600  1
  Cr  Cr3  1  0.24998400  0.59277300  0.40419900  1
  Cr  Cr4  1  0.74995800  0.45005000  0.11697700  1
  Cr  Cr5  1  0.24998200  0.04995300  0.61698600  1
  Cr  Cr6  1  0.74998700  0.40720500  0.59580400  1
  Cr  Cr7  1  0.24999500  0.09279000  0.09580900  1
  Fe  Fe0  1  0.75000400  0.24600300  0.82903400  1
  Fe  Fe1  1  0.24997200  0.25399500  0.32902800  1
  Fe  Fe2  1  0.75005400  0.74598300  0.67096500  1
  Fe  Fe3  1  0.25002200  0.75402000  0.17096900  1
  O  O0  1  0.74999700  0.19145000  0.65387500  1
  O  O1  1  0.75006400  0.69146100  0.84611200  1
  O  O2  1  0.25003200  0.80854300  0.34611900  1
  O  O3  1  0.24994500  0.30854800  0.15387600  1
  O  O4  1  0.75000100  0.11265200  0.97124300  1
  O  O5  1  0.74997600  0.61261500  0.52875500  1
  O  O6  1  0.24999400  0.88737900  0.02874800  1
  O  O7  1  0.24997500  0.38734800  0.47124300  1
  O  O8  1  0.75000600  0.05184400  0.21574400  1
  O  O9  1  0.74998700  0.55182800  0.28426400  1
  O  O10  1  0.24997000  0.94817700  0.78426400  1
  O  O11  1  0.24999800  0.44814900  0.71573900  1
  O  O12  1  0.75000800  0.41785100  0.93267400  1
  O  O13  1  0.74996800  0.91786000  0.56732900  1
  O  O14  1  0.24996800  0.58214400  0.06732200  1
  O  O15  1  0.25008000  0.08215500  0.43268300  1
loop_
_geom_bond_atom_site_label_1
_geom_bond_atom_site_label_2
_geom_bond_distance
_geom_bond_site_symmetry_2
Cr0 O13 2.013435 1_555
Cr0 O15 2.020671 1_565
Cr0 O15 2.020758 1_665
Cr0 O8 2.038342 1_565
Cr0 O2 2.043318 1_555
Cr0 O2 2.043345 1_655
Cr1 O14 2.013377 1_556
Cr1 O12 2.020619 1_555
Cr1 O12 2.020680 1_455
Cr1 O11 2.038395 1_555
Cr1 O1 2.043363 1_455
Cr1 O1 2.043400 1_555
Cr2 O10 2.030084 1_655
Cr2 O10 2.030205 1_555
Cr2 O6 2.035499 1_556
Cr2 O6 2.035517 1_656
Cr2 O4 2.035687 1_565
Cr2 O1 2.094438 1_555
Cr3 O9 2.030135 1_455
Cr3 O9 2.030175 1_555
Cr3 O5 2.035506 1_555
Cr3 O5 2.035555 1_455
Cr3 O7 2.035680 1_555
Cr3 O2 2.094464 1_555
Cr4 O12 2.013397 1_554
Cr4 O14 2.020646 1_655
Cr4 O14 2.020676 1_555
Cr4 O9 2.038371 1_555
Cr4 O3 2.043261 1_555
Cr4 O3 2.043282 1_655
Cr5 O15 2.013403 1_555
Cr5 O13 2.020652 1_445
Cr5 O13 2.020665 1_545
Cr5 O10 2.038282 1_545
Cr5 O0 2.043212 1_555
Cr5 O0 2.043226 1_455
Cr6 O11 2.030141 1_555
Cr6 O11 2.030165 1_655
Cr6 O7 2.035559 1_655
Cr6 O5 2.035569 1_555
Cr6 O7 2.035599 1_555
Cr6 O0 2.094303 1_555
Cr7 O8 2.030123 1_455
Cr7 O8 2.030194 1_555
Cr7 O4 2.035611 1_454
Cr7 O6 2.035619 1_545
Cr7 O4 2.035629 1_554
Cr7 O3 2.094312 1_555
Fe0 O12 1.945919 1_555
Fe0 O0 1.958679 1_555
Fe0 O4 1.971225 1_555
Fe1 O15 1.945959 1_555
Fe1 O3 1.958609 1_555
Fe1 O7 1.971281 1_555
Fe2 O13 1.946121 1_555
Fe2 O1 1.958483 1_555
Fe2 O5 1.971326 1_555
Fe3 O14 1.946175 1_555
Fe3 O2 1.958513 1_555
Fe3 O6 1.971373 1_555
