# generated using pymatgen
data_KBiPb
_symmetry_space_group_name_H-M   'P 1'
_cell_length_a   6.82715518
_cell_length_b   6.82715518
_cell_length_c   6.82715518
_cell_angle_alpha   121.96087566
_cell_angle_beta   119.91029934
_cell_angle_gamma   88.39644763
_symmetry_Int_Tables_number   1
_chemical_formula_structural   KBiPb
_chemical_formula_sum   'K2 Bi2 Pb2'
_cell_volume   221.64316188
_cell_formula_units_Z   2
loop_
 _symmetry_equiv_pos_site_id
 _symmetry_equiv_pos_as_xyz
  1  'x, y, z'
loop_
 _atom_site_type_symbol
 _atom_site_label
 _atom_site_symmetry_multiplicity
 _atom_site_fract_x
 _atom_site_fract_y
 _atom_site_fract_z
 _atom_site_occupancy
  K  K0  1  0.00054361  0.00054361  -0.00000000  1
  K  K1  1  0.25145461  0.75145461  0.50000000  1
  Bi  Bi0  1  0.62111151  0.36173418  0.25937733  1
  Bi  Bi1  1  0.10235885  0.36173418  0.74062267  1
  Pb  Pb0  1  0.63726621  0.37926433  0.74199812  1
  Pb  Pb1  1  0.63726621  0.89526709  0.25800188  1
loop_
_geom_bond_atom_site_label_1
_geom_bond_atom_site_label_2
_geom_bond_distance
_geom_bond_site_symmetry_2
K0 Pb0 3.945516 1_444
K0 Pb1 3.945519 1_445
K0 Pb1 4.005607 1_444
K0 Pb0 4.005610 1_454
K0 Pb0 4.005610 1_555
K0 Pb1 4.005612 1_545
K1 Pb1 3.981726 1_455
K1 Pb0 3.981729 1_555
K1 Pb0 3.981729 1_454
K1 Pb1 3.981732 1_556
K1 Pb1 4.102876 1_555
K1 Pb0 4.102879 1_565
Bi0 Pb0 3.178660 1_555
Bi0 Pb1 3.178666 1_545
Bi0 Bi1 3.289997 1_655
Bi0 Bi1 3.546412 1_554
Bi0 Pb1 3.652379 1_555
Bi0 Pb0 3.652386 1_554
Bi0 K1 3.908765 1_544
Bi0 K1 3.908765 1_555
Bi0 K0 3.939693 1_655
Bi0 K0 3.939693 1_666
Bi0 K0 3.955497 1_555
Bi0 K1 4.154596 1_655
Bi1 Pb1 3.178670 1_445
Bi1 Pb0 3.178673 1_455
Bi1 Pb0 3.652372 1_555
Bi1 Pb1 3.652375 1_556
Bi1 K1 3.908759 1_545
Bi1 K1 3.908770 1_556
Bi1 K0 3.939687 1_555
Bi1 K0 3.939698 1_566
Bi1 K0 3.955503 1_556
Bi1 K1 4.154590 1_555
Pb0 Pb1 3.205906 1_545
Pb0 Pb1 3.417912 1_556
