# generated using pymatgen
data_SrCrO3
_symmetry_space_group_name_H-M   'P 1'
_cell_length_a   5.55380746
_cell_length_b   5.55380746
_cell_length_c   32.27837400
_cell_angle_alpha   90.00000000
_cell_angle_beta   90.00000000
_cell_angle_gamma   119.99977918
_symmetry_Int_Tables_number   1
_chemical_formula_structural   SrCrO3
_chemical_formula_sum   'Sr14 Cr14 O42'
_cell_volume   862.23348929
_cell_formula_units_Z   14
loop_
 _symmetry_equiv_pos_site_id
 _symmetry_equiv_pos_as_xyz
  1  'x, y, z'
loop_
 _atom_site_type_symbol
 _atom_site_label
 _atom_site_symmetry_multiplicity
 _atom_site_fract_x
 _atom_site_fract_y
 _atom_site_fract_z
 _atom_site_occupancy
  Sr  Sr0  1  0.33394500  0.66477200  0.54024500  1
  Sr  Sr1  1  0.33224000  0.66450500  0.67732400  1
  Sr  Sr2  1  0.33393500  0.66260800  0.25000000  1
  Sr  Sr3  1  0.00328000  0.99934100  0.60551600  1
  Sr  Sr4  1  0.00328000  0.99934100  0.89448400  1
  Sr  Sr5  1  0.99934100  0.00328000  0.10551600  1
  Sr  Sr6  1  0.33224000  0.66450500  0.82267600  1
  Sr  Sr7  1  0.33394500  0.66477200  0.95975500  1
  Sr  Sr8  1  0.99934100  0.00328000  0.39448400  1
  Sr  Sr9  1  0.66260800  0.33393500  0.75000000  1
  Sr  Sr10  1  0.66477200  0.33394500  0.04024500  1
  Sr  Sr11  1  0.66450500  0.33224000  0.17732500  1
  Sr  Sr12  1  0.66450500  0.33224000  0.32267600  1
  Sr  Sr13  1  0.66477200  0.33394500  0.45975500  1
  Cr  Cr0  1  0.33763800  0.67617900  0.06584400  1
  Cr  Cr1  1  0.33899800  0.67511400  0.14543500  1
  Cr  Cr2  1  0.00461800  0.00461800  0.50000000  1
  Cr  Cr3  1  0.99491900  0.99194800  0.71054900  1
  Cr  Cr4  1  0.99491900  0.99194800  0.78945100  1
  Cr  Cr5  1  0.00461800  0.00461800  0.00000000  1
  Cr  Cr6  1  0.99194800  0.99491900  0.21054900  1
  Cr  Cr7  1  0.99194800  0.99491900  0.28945100  1
  Cr  Cr8  1  0.33899800  0.67511400  0.35456500  1
  Cr  Cr9  1  0.33763800  0.67617900  0.43415600  1
  Cr  Cr10  1  0.67617900  0.33763800  0.56584400  1
  Cr  Cr11  1  0.67511400  0.33899800  0.64543500  1
  Cr  Cr12  1  0.67511400  0.33899800  0.85456500  1
  Cr  Cr13  1  0.67617900  0.33763800  0.93415600  1
  O  O0  1  0.69087800  0.84629300  0.75000000  1
  O  O1  1  0.66017400  0.82542900  0.17734100  1
  O  O2  1  0.66017400  0.82542900  0.32265900  1
  O  O3  1  0.66731200  0.82442100  0.03458700  1
  O  O4  1  0.66731200  0.82442100  0.46541300  1
  O  O5  1  0.48440100  0.51458300  0.10632500  1
  O  O6  1  0.48440100  0.51458300  0.39367500  1
  O  O7  1  0.16275000  0.32711400  0.32163100  1
  O  O8  1  0.14869600  0.30240300  0.75000000  1
  O  O9  1  0.15723800  0.31450000  0.03480600  1
  O  O10  1  0.49279800  0.98496300  0.10562000  1
  O  O11  1  0.49279800  0.98496300  0.39438000  1
  O  O12  1  0.15723800  0.31450000  0.46519400  1
  O  O13  1  0.16275000  0.32711400  0.17836900  1
  O  O14  1  0.03061900  0.51592900  0.10604400  1
  O  O15  1  0.03061900  0.51592900  0.39395600  1
  O  O16  1  0.84544800  0.15026900  0.25000000  1
  O  O17  1  0.16250100  0.82127900  0.03403600  1
  O  O18  1  0.16250100  0.82127900  0.46596400  1
  O  O19  1  0.83747600  0.17147400  0.67812800  1
  O  O20  1  0.83747600  0.17147400  0.82187200  1
  O  O21  1  0.17147400  0.83747600  0.17812800  1
  O  O22  1  0.17147400  0.83747600  0.32187200  1
  O  O23  1  0.82127900  0.16250100  0.53403600  1
  O  O24  1  0.82127900  0.16250100  0.96596400  1
  O  O25  1  0.15026900  0.84544800  0.75000000  1
  O  O26  1  0.98496300  0.49279800  0.60562000  1
  O  O27  1  0.98496300  0.49279800  0.89438000  1
  O  O28  1  0.84629300  0.69087800  0.25000000  1
  O  O29  1  0.82442100  0.66731200  0.53458700  1
  O  O30  1  0.82442100  0.66731200  0.96541300  1
  O  O31  1  0.51592900  0.03061900  0.60604400  1
  O  O32  1  0.51592900  0.03061900  0.89395600  1
  O  O33  1  0.82542900  0.66017400  0.67734100  1
  O  O34  1  0.82542900  0.66017400  0.82265900  1
  O  O35  1  0.51458300  0.48440100  0.60632500  1
  O  O36  1  0.51458300  0.48440100  0.89367500  1
  O  O37  1  0.31450000  0.15723800  0.53480600  1
  O  O38  1  0.31450000  0.15723800  0.96519400  1
  O  O39  1  0.32711400  0.16275000  0.67836900  1
  O  O40  1  0.32711400  0.16275000  0.82163100  1
  O  O41  1  0.30240300  0.14869600  0.25000000  1
loop_
_geom_bond_atom_site_label_1
_geom_bond_atom_site_label_2
_geom_bond_distance
_geom_bond_site_symmetry_2
Cr0 O17 1.852964 1_555
Cr0 O3 1.881677 1_555
Cr0 O10 1.963204 1_555
Cr0 O14 1.966149 1_555
Cr0 O5 1.977048 1_555
Cr0 O9 2.007456 1_555
Cr1 O1 1.857479 1_555
Cr1 O21 1.905601 1_555
Cr1 O5 1.939235 1_555
Cr1 O14 1.953812 1_555
Cr1 O10 1.967909 1_555
Cr1 O13 1.982883 1_555
Cr2 O37 1.866502 1_555
Cr2 O12 1.866502 1_555
Cr2 O4 1.970414 1_445
Cr2 O29 1.970414 1_445
Cr2 O23 1.976227 1_455
Cr2 O18 1.976227 1_545
Cr3 O39 1.905912 1_665
Cr3 O33 1.922443 1_555
Cr3 O19 1.930203 1_565
Cr3 O25 1.931311 1_655
Cr3 O0 1.939415 1_555
Cr3 O8 1.962480 1_665
Cr4 O40 1.905912 1_665
Cr4 O34 1.922443 1_555
Cr4 O20 1.930203 1_565
Cr4 O25 1.931311 1_655
Cr4 O0 1.939415 1_555
Cr4 O8 1.962480 1_665
Cr5 O9 1.866502 1_555
Cr5 O38 1.866502 1_554
Cr5 O3 1.970414 1_445
Cr5 O30 1.970414 1_444
Cr5 O24 1.976227 1_454
Cr5 O17 1.976227 1_545
Cr6 O13 1.905912 1_665
Cr6 O1 1.922443 1_555
Cr6 O21 1.930203 1_655
Cr6 O16 1.931311 1_565
Cr6 O28 1.939415 1_555
Cr6 O41 1.962480 1_665
Cr7 O7 1.905912 1_665
Cr7 O2 1.922443 1_555
Cr7 O22 1.930203 1_655
Cr7 O16 1.931311 1_565
Cr7 O28 1.939415 1_555
Cr7 O41 1.962480 1_665
Cr8 O2 1.857479 1_555
Cr8 O22 1.905601 1_555
Cr8 O6 1.939235 1_555
Cr8 O15 1.953812 1_555
Cr8 O11 1.967909 1_555
Cr8 O7 1.982883 1_555
Cr9 O18 1.852964 1_555
Cr9 O4 1.881677 1_555
Cr9 O11 1.963204 1_555
Cr9 O15 1.966149 1_555
Cr9 O6 1.977048 1_555
Cr9 O12 2.007456 1_555
Cr10 O23 1.852964 1_555
Cr10 O29 1.881677 1_555
Cr10 O26 1.963204 1_555
Cr10 O31 1.966149 1_555
Cr10 O35 1.977048 1_555
Cr10 O37 2.007456 1_555
Cr11 O33 1.857479 1_555
Cr11 O19 1.905601 1_555
Cr11 O35 1.939235 1_555
Cr11 O31 1.953812 1_555
Cr11 O26 1.967909 1_555
Cr11 O39 1.982883 1_555
Cr12 O34 1.857479 1_555
Cr12 O20 1.905601 1_555
Cr12 O36 1.939235 1_555
Cr12 O32 1.953812 1_555
Cr12 O27 1.967909 1_555
Cr12 O40 1.982883 1_555
Cr13 O24 1.852964 1_555
Cr13 O30 1.881677 1_555
Cr13 O27 1.963204 1_555
Cr13 O32 1.966149 1_555
Cr13 O36 1.977048 1_555
Cr13 O38 2.007456 1_555
O0 Sr9 2.770374 1_555
O0 Sr9 2.790088 1_565
O0 Sr6 2.911828 1_555
O0 Sr1 2.911828 1_555
O1 Sr11 2.751182 1_555
O1 Sr11 2.802781 1_565
O1 Sr2 2.821819 1_555
O1 Sr5 2.835177 1_565
O2 Sr12 2.751182 1_555
O2 Sr12 2.802781 1_565
O2 Sr2 2.821819 1_555
O2 Sr8 2.835177 1_565
O3 Sr10 2.723115 1_555
O3 Sr5 2.792330 1_565
O3 Sr10 2.842750 1_565
O3 Sr7 2.899462 1_554
O4 Sr13 2.723115 1_555
O4 Sr8 2.792330 1_565
O4 Sr13 2.842750 1_565
O4 Sr0 2.899462 1_555
O5 Sr10 2.750351 1_555
O5 Sr5 2.769814 1_455
O5 Sr5 2.789992 1_565
O5 Sr11 2.879449 1_555
O6 Sr13 2.750351 1_555
O6 Sr8 2.769814 1_455
O6 Sr8 2.789992 1_565
O6 Sr12 2.879423 1_555
O7 Sr12 2.772731 1_555
O7 Sr12 2.781705 1_455
O7 Sr2 2.819603 1_555
O7 Sr8 2.820634 1_455
O8 Sr9 2.770761 1_555
O8 Sr9 2.791323 1_455
O8 Sr1 2.921730 1_555
O8 Sr6 2.921730 1_555
O9 Sr5 2.729507 1_455
O9 Sr10 2.771896 1_555
O9 Sr10 2.796143 1_455
O9 Sr7 2.950760 1_554
O10 Sr10 2.696396 1_565
O10 Sr5 2.763785 1_565
O10 Sr5 2.792821 1_465
O10 Sr11 2.854308 1_565
O11 Sr13 2.696396 1_565
O11 Sr8 2.763785 1_565
O11 Sr8 2.792821 1_465
O11 Sr12 2.854282 1_565
O12 Sr8 2.729507 1_455
O12 Sr13 2.771896 1_555
O12 Sr13 2.796143 1_455
O12 Sr0 2.950760 1_555
O13 Sr11 2.772731 1_555
O13 Sr11 2.781705 1_455
O13 Sr2 2.819603 1_555
O13 Sr5 2.820634 1_455
O14 Sr10 2.758119 1_455
O14 Sr5 2.764447 1_455
O14 Sr5 2.797609 1_465
O14 Sr11 2.897357 1_455
O15 Sr13 2.758119 1_455
O15 Sr8 2.764447 1_455
O15 Sr8 2.797609 1_465
O15 Sr12 2.897332 1_455
O16 Sr2 2.776990 1_545
O16 Sr2 2.781573 1_655
O16 Sr11 2.923999 1_555
O16 Sr12 2.924025 1_555
O17 Sr10 2.743222 1_455
O17 Sr10 2.825951 1_565
O17 Sr5 2.842924 1_465
O17 Sr7 2.870295 1_554
O18 Sr13 2.743222 1_455
O18 Sr13 2.825951 1_565
O18 Sr8 2.842924 1_465
O18 Sr0 2.870295 1_555
O19 Sr1 2.743156 1_655
O19 Sr1 2.810937 1_545
O19 Sr9 2.831176 1_555
O19 Sr3 2.852293 1_645
O20 Sr6 2.743156 1_655
O20 Sr6 2.810937 1_545
O20 Sr9 2.831176 1_555
O20 Sr4 2.852293 1_645
O21 Sr11 2.743156 1_565
O21 Sr11 2.810937 1_455
O21 Sr2 2.831176 1_555
O21 Sr5 2.852293 1_465
O22 Sr12 2.743156 1_565
O22 Sr12 2.810937 1_455
O22 Sr2 2.831176 1_555
O22 Sr8 2.852293 1_465
O23 Sr0 2.743222 1_545
O23 Sr0 2.825951 1_655
O23 Sr3 2.842924 1_645
O23 Sr13 2.870295 1_555
O24 Sr7 2.743222 1_545
O24 Sr7 2.825951 1_655
O24 Sr4 2.842924 1_645
O24 Sr10 2.870295 1_556
O25 Sr9 2.776990 1_455
O25 Sr9 2.781573 1_565
O25 Sr1 2.924025 1_555
O25 Sr6 2.924025 1_555
O26 Sr0 2.696396 1_655
O26 Sr3 2.763785 1_655
O26 Sr3 2.792821 1_645
O26 Sr1 2.854282 1_655
O27 Sr7 2.696396 1_655
O27 Sr4 2.763785 1_655
O27 Sr4 2.792821 1_645
O27 Sr6 2.854282 1_655
O28 Sr2 2.770374 1_555
O28 Sr2 2.790088 1_655
O28 Sr11 2.911802 1_555
O28 Sr12 2.911828 1_555
O29 Sr0 2.723115 1_555
O29 Sr3 2.792330 1_655
O29 Sr0 2.842750 1_655
O29 Sr13 2.899462 1_555
O30 Sr7 2.723115 1_555
O30 Sr4 2.792330 1_655
O30 Sr7 2.842750 1_655
O30 Sr10 2.899462 1_556
O31 Sr0 2.758119 1_545
O31 Sr3 2.764447 1_545
O31 Sr3 2.797609 1_645
O31 Sr1 2.897332 1_545
O32 Sr7 2.758119 1_545
O32 Sr4 2.764447 1_545
O32 Sr4 2.797609 1_645
O32 Sr6 2.897332 1_545
O33 Sr1 2.751182 1_555
O33 Sr1 2.802781 1_655
O33 Sr9 2.821819 1_555
O33 Sr3 2.835177 1_655
O34 Sr6 2.751182 1_555
O34 Sr6 2.802781 1_655
O34 Sr9 2.821819 1_555
O34 Sr4 2.835177 1_655
O35 Sr0 2.750351 1_555
O35 Sr3 2.769814 1_545
O35 Sr3 2.789992 1_655
O35 Sr1 2.879423 1_555
O36 Sr7 2.750351 1_555
O36 Sr4 2.769814 1_545
O36 Sr4 2.789992 1_655
O36 Sr6 2.879423 1_555
O37 Sr3 2.729507 1_545
O37 Sr0 2.771896 1_555
O37 Sr0 2.796143 1_545
O37 Sr13 2.950760 1_555
O38 Sr4 2.729507 1_545
O38 Sr7 2.771896 1_555
O38 Sr7 2.796143 1_545
O38 Sr10 2.950760 1_556
O39 Sr1 2.772731 1_555
O39 Sr1 2.781705 1_545
O39 Sr9 2.819603 1_555
O39 Sr3 2.820634 1_545
O40 Sr6 2.772731 1_555
O40 Sr6 2.781705 1_545
O40 Sr9 2.819603 1_555
O40 Sr4 2.820634 1_545
O41 Sr2 2.770761 1_555
O41 Sr2 2.791323 1_545
O41 Sr11 2.921704 1_555
O41 Sr12 2.921730 1_555
