# generated using pymatgen
data_Sr3Sn2O7
_symmetry_space_group_name_H-M   'P 1'
_cell_length_a   10.69116610
_cell_length_b   10.69116610
_cell_length_c   5.72920398
_cell_angle_alpha   90.00000000
_cell_angle_beta   90.00000000
_cell_angle_gamma   148.49270807
_symmetry_Int_Tables_number   1
_chemical_formula_structural   Sr3Sn2O7
_chemical_formula_sum   'Sr6 Sn4 O14'
_cell_volume   342.23129699
_cell_formula_units_Z   2
loop_
 _symmetry_equiv_pos_site_id
 _symmetry_equiv_pos_as_xyz
  1  'x, y, z'
loop_
 _atom_site_type_symbol
 _atom_site_label
 _atom_site_symmetry_multiplicity
 _atom_site_fract_x
 _atom_site_fract_y
 _atom_site_fract_z
 _atom_site_occupancy
  Sr  Sr0  1  0.24671438  0.24671438  0.25000000  1
  Sr  Sr1  1  0.75328562  0.75328562  0.75000000  1
  Sr  Sr2  1  0.05256935  0.42610089  0.25000000  1
  Sr  Sr3  1  0.94743065  0.57389911  0.75000000  1
  Sr  Sr4  1  0.57389911  0.94743065  0.75000000  1
  Sr  Sr5  1  0.42610089  0.05256935  0.25000000  1
  Sn  Sn0  1  0.65054998  0.84739922  0.25000000  1
  Sn  Sn1  1  0.34945002  0.15260078  0.75000000  1
  Sn  Sn2  1  0.84739922  0.65054998  0.25000000  1
  Sn  Sn3  1  0.15260078  0.34945002  0.75000000  1
  O  O0  1  0.91600268  0.08399732  0.00000000  1
  O  O1  1  0.08399732  0.91600268  0.50000000  1
  O  O2  1  0.08399732  0.91600268  0.00000000  1
  O  O3  1  0.91600268  0.08399732  0.50000000  1
  O  O4  1  0.61030098  0.38969902  0.50000000  1
  O  O5  1  0.38969902  0.61030098  0.00000000  1
  O  O6  1  0.38969902  0.61030098  0.50000000  1
  O  O7  1  0.61030098  0.38969902  0.00000000  1
  O  O8  1  0.99921502  0.39309525  0.75000000  1
  O  O9  1  0.00078498  0.60690475  0.25000000  1
  O  O10  1  0.68328728  0.68328728  0.25000000  1
  O  O11  1  0.31671272  0.31671272  0.75000000  1
  O  O12  1  0.60690475  0.00078498  0.25000000  1
  O  O13  1  0.39309525  0.99921502  0.75000000  1
loop_
_geom_bond_atom_site_label_1
_geom_bond_atom_site_label_2
_geom_bond_distance
_geom_bond_site_symmetry_2
O0 Sn3 2.064782 1_654
O0 Sn0 2.064782 1_545
O0 Sr0 2.662874 1_655
O0 Sr1 2.662874 1_544
O0 Sr4 2.907703 1_544
O0 Sr2 2.907703 1_655
O1 Sn2 2.064782 1_455
O1 Sn1 2.064782 1_565
O1 Sr0 2.662874 1_565
O1 Sr1 2.662874 1_455
O1 Sr3 2.907703 1_455
O1 Sr5 2.907703 1_565
O2 Sn2 2.064782 1_455
O2 Sn1 2.064782 1_564
O2 Sr0 2.662874 1_565
O2 Sr1 2.662874 1_454
O2 Sr3 2.907703 1_454
O2 Sr5 2.907703 1_565
O3 Sn3 2.064782 1_655
O3 Sn0 2.064782 1_545
O3 Sr0 2.662874 1_655
O3 Sr1 2.662874 1_545
O3 Sr4 2.907703 1_545
O3 Sr2 2.907703 1_655
O4 Sn1 2.049475 1_555
O4 Sn2 2.049475 1_555
O4 Sr5 2.611047 1_555
O4 Sr3 2.611047 1_555
O4 Sr0 3.060400 1_555
O4 Sr1 3.060400 1_555
O5 Sn0 2.049475 1_555
O5 Sn3 2.049475 1_554
O5 Sr2 2.611047 1_555
O5 Sr4 2.611047 1_554
O5 Sr0 3.060400 1_555
O5 Sr1 3.060400 1_554
O6 Sn0 2.049475 1_555
O6 Sn3 2.049475 1_555
O6 Sr2 2.611047 1_555
O6 Sr4 2.611047 1_555
O6 Sr0 3.060400 1_555
O6 Sr1 3.060400 1_555
O7 Sn2 2.049475 1_555
O7 Sn1 2.049475 1_554
O7 Sr5 2.611047 1_555
O7 Sr3 2.611047 1_554
O7 Sr0 3.060400 1_555
O7 Sr1 3.060400 1_554
O8 Sn3 2.052239 1_655
O8 Sr3 2.422360 1_555
O8 Sr4 2.536824 1_545
O8 Sr2 2.883162 1_656
O8 Sr2 2.883162 1_655
O9 Sn2 2.052239 1_455
O9 Sr2 2.422360 1_555
O9 Sr5 2.536824 1_565
O9 Sr3 2.883162 1_455
O9 Sr3 2.883162 1_454
O10 Sn0 2.061081 1_555
O10 Sn2 2.061081 1_555
O10 Sr0 2.534454 1_555
O10 Sr1 2.893281 1_554
O10 Sr1 2.893281 1_555
O11 Sn3 2.061081 1_555
O11 Sn1 2.061081 1_555
O11 Sr1 2.534454 1_555
O11 Sr0 2.893281 1_555
O11 Sr0 2.893281 1_556
O12 Sn0 2.052239 1_545
O12 Sr5 2.422360 1_555
O12 Sr2 2.536824 1_655
O12 Sr4 2.883162 1_545
O12 Sr4 2.883162 1_544
O13 Sn1 2.052239 1_565
O13 Sr4 2.422360 1_555
O13 Sr3 2.536824 1_455
O13 Sr5 2.883162 1_566
O13 Sr5 2.883162 1_565
