# generated using pymatgen
data_Mg30SiBiO32
_symmetry_space_group_name_H-M   'P 1'
_cell_length_a   8.66409800
_cell_length_b   8.66409800
_cell_length_c   8.66753200
_cell_angle_alpha   90.00000000
_cell_angle_beta   90.00000000
_cell_angle_gamma   90.00000000
_symmetry_Int_Tables_number   1
_chemical_formula_structural   Mg30SiBiO32
_chemical_formula_sum   'Mg30 Si1 Bi1 O32'
_cell_volume   650.64210696
_cell_formula_units_Z   1
loop_
 _symmetry_equiv_pos_site_id
 _symmetry_equiv_pos_as_xyz
  1  'x, y, z'
loop_
 _atom_site_type_symbol
 _atom_site_label
 _atom_site_symmetry_multiplicity
 _atom_site_fract_x
 _atom_site_fract_y
 _atom_site_fract_z
 _atom_site_occupancy
  Mg  Mg0  1  0.00000000  0.50000000  0.00000000  1
  Mg  Mg1  1  0.50000000  0.00000000  0.00000000  1
  Mg  Mg2  1  0.00000000  0.00000000  0.50000000  1
  Mg  Mg3  1  0.00000000  0.50000000  0.50000000  1
  Mg  Mg4  1  0.50000000  0.00000000  0.50000000  1
  Mg  Mg5  1  0.50000000  0.50000000  0.50000000  1
  Mg  Mg6  1  0.24426500  0.24426500  0.00000000  1
  Mg  Mg7  1  0.24426500  0.75573500  0.00000000  1
  Mg  Mg8  1  0.75573500  0.24426500  0.00000000  1
  Mg  Mg9  1  0.75573500  0.75573500  0.00000000  1
  Mg  Mg10  1  0.24909100  0.24909100  0.50000000  1
  Mg  Mg11  1  0.24909100  0.75090900  0.50000000  1
  Mg  Mg12  1  0.75090900  0.24909100  0.50000000  1
  Mg  Mg13  1  0.75090900  0.75090900  0.50000000  1
  Mg  Mg14  1  0.00000000  0.25056000  0.25247000  1
  Mg  Mg15  1  0.00000000  0.74944000  0.25247000  1
  Mg  Mg16  1  0.50000000  0.24302700  0.25702100  1
  Mg  Mg17  1  0.50000000  0.75697300  0.25702100  1
  Mg  Mg18  1  0.00000000  0.25056000  0.74753000  1
  Mg  Mg19  1  0.00000000  0.74944000  0.74753000  1
  Mg  Mg20  1  0.50000000  0.24302700  0.74297900  1
  Mg  Mg21  1  0.50000000  0.75697300  0.74297900  1
  Mg  Mg22  1  0.25056000  0.00000000  0.25247000  1
  Mg  Mg23  1  0.24302700  0.50000000  0.25702100  1
  Mg  Mg24  1  0.74944000  0.00000000  0.25247000  1
  Mg  Mg25  1  0.75697300  0.50000000  0.25702100  1
  Mg  Mg26  1  0.25056000  0.00000000  0.74753000  1
  Mg  Mg27  1  0.24302700  0.50000000  0.74297900  1
  Mg  Mg28  1  0.74944000  0.00000000  0.74753000  1
  Mg  Mg29  1  0.75697300  0.50000000  0.74297900  1
  Si  Si0  1  0.00000000  0.00000000  0.00000000  1
  Bi  Bi0  1  0.50000000  0.50000000  0.00000000  1
  O  O0  1  0.00000000  0.00000000  0.26146600  1
  O  O1  1  0.00000000  0.50000000  0.25472100  1
  O  O2  1  0.50000000  0.00000000  0.25472100  1
  O  O3  1  0.50000000  0.50000000  0.27000400  1
  O  O4  1  0.00000000  0.00000000  0.73853400  1
  O  O5  1  0.00000000  0.50000000  0.74527900  1
  O  O6  1  0.50000000  0.00000000  0.74527900  1
  O  O7  1  0.50000000  0.50000000  0.72999600  1
  O  O8  1  0.25003100  0.25003100  0.24859800  1
  O  O9  1  0.25003100  0.74996900  0.24859800  1
  O  O10  1  0.74996900  0.25003100  0.24859800  1
  O  O11  1  0.74996900  0.74996900  0.24859800  1
  O  O12  1  0.25003100  0.25003100  0.75140200  1
  O  O13  1  0.25003100  0.74996900  0.75140200  1
  O  O14  1  0.74996900  0.25003100  0.75140200  1
  O  O15  1  0.74996900  0.74996900  0.75140200  1
  O  O16  1  0.00000000  0.25878300  0.00000000  1
  O  O17  1  0.00000000  0.74121700  0.00000000  1
  O  O18  1  0.50000000  0.23124500  0.00000000  1
  O  O19  1  0.50000000  0.76875500  0.00000000  1
  O  O20  1  0.00000000  0.25116100  0.50000000  1
  O  O21  1  0.00000000  0.74883900  0.50000000  1
  O  O22  1  0.50000000  0.24669900  0.50000000  1
  O  O23  1  0.50000000  0.75330100  0.50000000  1
  O  O24  1  0.25878300  0.00000000  0.00000000  1
  O  O25  1  0.23124500  0.50000000  0.00000000  1
  O  O26  1  0.74121700  0.00000000  0.00000000  1
  O  O27  1  0.76875500  0.50000000  0.00000000  1
  O  O28  1  0.25116100  0.00000000  0.50000000  1
  O  O29  1  0.24669900  0.50000000  0.50000000  1
  O  O30  1  0.74883900  0.00000000  0.50000000  1
  O  O31  1  0.75330100  0.50000000  0.50000000  1
loop_
_geom_bond_atom_site_label_1
_geom_bond_atom_site_label_2
_geom_bond_distance
_geom_bond_site_symmetry_2
Mg0 O25 2.003529 1_555
Mg0 O27 2.003529 1_455
Mg0 O17 2.089928 1_555
Mg0 O16 2.089928 1_555
Mg0 O1 2.207802 1_555
Mg0 O5 2.207802 1_554
Mg1 O18 2.003529 1_555
Mg1 O19 2.003529 1_545
Mg1 O26 2.089928 1_555
Mg1 O24 2.089928 1_555
Mg1 O2 2.207802 1_555
Mg1 O6 2.207802 1_554
Mg2 O0 2.067501 1_555
Mg2 O4 2.067501 1_555
Mg2 O30 2.176084 1_455
Mg2 O21 2.176084 1_545
Mg2 O20 2.176084 1_555
Mg2 O28 2.176084 1_555
Mg3 O1 2.125964 1_555
Mg3 O5 2.125964 1_555
Mg3 O29 2.137424 1_555
Mg3 O31 2.137424 1_455
Mg3 O20 2.155965 1_555
Mg3 O21 2.155965 1_555
Mg4 O2 2.125964 1_555
Mg4 O6 2.125964 1_555
Mg4 O23 2.137424 1_545
Mg4 O22 2.137424 1_555
Mg4 O28 2.155965 1_555
Mg4 O30 2.155965 1_555
Mg5 O3 1.993498 1_555
Mg5 O7 1.993498 1_555
Mg5 O29 2.194625 1_555
Mg5 O31 2.194625 1_555
Mg5 O22 2.194625 1_555
Mg5 O23 2.194625 1_555
Mg6 O24 2.120071 1_555
Mg6 O16 2.120071 1_555
Mg6 O12 2.155889 1_554
Mg6 O8 2.155889 1_555
Mg6 O25 2.218583 1_555
Mg6 O18 2.218583 1_555
Mg7 O24 2.120071 1_565
Mg7 O17 2.120071 1_555
Mg7 O13 2.155889 1_554
Mg7 O9 2.155889 1_555
Mg7 O19 2.218583 1_555
Mg7 O25 2.218583 1_555
Mg8 O16 2.120071 1_655
Mg8 O26 2.120071 1_555
Mg8 O14 2.155889 1_554
Mg8 O10 2.155889 1_555
Mg8 O27 2.218583 1_555
Mg8 O18 2.218583 1_555
Mg9 O17 2.120071 1_655
Mg9 O26 2.120071 1_565
Mg9 O15 2.155889 1_554
Mg9 O11 2.155889 1_555
Mg9 O19 2.218583 1_555
Mg9 O27 2.218583 1_555
Mg10 O20 2.158223 1_555
Mg10 O28 2.158223 1_555
Mg10 O22 2.173999 1_555
Mg10 O29 2.173999 1_555
Mg10 O12 2.179065 1_555
Mg10 O8 2.179065 1_555
Mg11 O28 2.158223 1_565
Mg11 O21 2.158223 1_555
Mg11 O23 2.173999 1_555
Mg11 O29 2.173999 1_555
Mg11 O13 2.179065 1_555
Mg11 O9 2.179065 1_555
Mg12 O30 2.158223 1_555
Mg12 O20 2.158223 1_655
Mg12 O31 2.173999 1_555
Mg12 O22 2.173999 1_555
Mg12 O10 2.179065 1_555
Mg12 O14 2.179065 1_555
Mg13 O21 2.158223 1_655
Mg13 O30 2.158223 1_565
Mg13 O23 2.173999 1_555
Mg13 O31 2.173999 1_555
Mg13 O11 2.179065 1_555
Mg13 O15 2.179065 1_555
Mg14 O20 2.145481 1_555
Mg14 O1 2.161261 1_555
Mg14 O10 2.166558 1_455
Mg14 O8 2.166558 1_555
Mg14 O0 2.172276 1_555
Mg14 O16 2.189451 1_555
Mg15 O21 2.145481 1_555
Mg15 O1 2.161261 1_555
Mg15 O11 2.166558 1_455
Mg15 O9 2.166558 1_555
Mg15 O0 2.172276 1_565
Mg15 O17 2.189451 1_555
Mg16 O2 2.105704 1_555
Mg16 O22 2.106269 1_555
Mg16 O10 2.167836 1_555
Mg16 O8 2.167836 1_555
Mg16 O3 2.229281 1_555
Mg16 O18 2.230075 1_555
Mg17 O2 2.105704 1_565
Mg17 O23 2.106269 1_555
Mg17 O9 2.167836 1_555
Mg17 O11 2.167836 1_555
Mg17 O3 2.229281 1_555
Mg17 O19 2.230075 1_555
Mg18 O20 2.145481 1_555
Mg18 O5 2.161261 1_555
Mg18 O14 2.166558 1_455
Mg18 O12 2.166558 1_555
Mg18 O4 2.172276 1_555
Mg18 O16 2.189451 1_556
Mg19 O21 2.145481 1_555
Mg19 O5 2.161261 1_555
Mg19 O13 2.166558 1_555
Mg19 O15 2.166558 1_455
Mg19 O4 2.172276 1_565
Mg19 O17 2.189451 1_556
Mg20 O6 2.105704 1_555
Mg20 O22 2.106269 1_555
Mg20 O12 2.167836 1_555
Mg20 O14 2.167836 1_555
Mg20 O7 2.229281 1_555
Mg20 O18 2.230075 1_556
Mg21 O6 2.105704 1_565
Mg21 O23 2.106269 1_555
Mg21 O15 2.167836 1_555
Mg21 O13 2.167836 1_555
Mg21 O7 2.229281 1_555
Mg21 O19 2.230075 1_556
Mg22 O28 2.145481 1_555
Mg22 O2 2.161261 1_555
Mg22 O9 2.166558 1_545
Mg22 O8 2.166558 1_555
Mg22 O0 2.172276 1_555
Mg22 O24 2.189451 1_555
Mg23 O1 2.105704 1_555
Mg23 O29 2.106269 1_555
Mg23 O9 2.167836 1_555
Mg23 O8 2.167836 1_555
Mg23 O3 2.229281 1_555
Mg23 O25 2.230075 1_555
Mg24 O30 2.145481 1_555
Mg24 O2 2.161261 1_555
Mg24 O10 2.166558 1_555
Mg24 O11 2.166558 1_545
Mg24 O0 2.172276 1_655
Mg24 O26 2.189451 1_555
Mg25 O1 2.105704 1_655
Mg25 O31 2.106269 1_555
Mg25 O10 2.167836 1_555
Mg25 O11 2.167836 1_555
Mg25 O3 2.229281 1_555
Mg25 O27 2.230075 1_555
Mg26 O28 2.145481 1_555
Mg26 O6 2.161261 1_555
Mg26 O12 2.166558 1_555
Mg26 O13 2.166558 1_545
Mg26 O4 2.172276 1_555
Mg26 O24 2.189451 1_556
Mg27 O5 2.105704 1_555
Mg27 O29 2.106269 1_555
Mg27 O13 2.167836 1_555
Mg27 O12 2.167836 1_555
Mg27 O7 2.229281 1_555
Mg27 O25 2.230075 1_556
Mg28 O30 2.145481 1_555
Mg28 O6 2.161261 1_555
Mg28 O14 2.166558 1_555
Mg28 O15 2.166558 1_545
Mg28 O4 2.172276 1_655
Mg28 O26 2.189451 1_556
Mg29 O5 2.105704 1_655
Mg29 O31 2.106269 1_555
Mg29 O15 2.167836 1_555
Mg29 O14 2.167836 1_555
Mg29 O7 2.229281 1_555
Mg29 O27 2.230075 1_556
Bi0 O18 2.328520 1_555
Bi0 O19 2.328520 1_555
Bi0 O27 2.328520 1_555
Bi0 O25 2.328520 1_555
Bi0 O3 2.340268 1_555
Bi0 O7 2.340268 1_554
O0 Si0 2.266265 1_555
O4 Si0 2.266265 1_556
O16 Si0 2.242121 1_555
O17 Si0 2.242121 1_565
O24 Si0 2.242121 1_555
O26 Si0 2.242121 1_655
