# generated using pymatgen
data_La7Ta3(W2O15)2
_symmetry_space_group_name_H-M   'P 1'
_cell_length_a   6.95117600
_cell_length_b   10.23757520
_cell_length_c   10.24452198
_cell_angle_alpha   115.08493082
_cell_angle_beta   103.26254081
_cell_angle_gamma   102.71692435
_symmetry_Int_Tables_number   1
_chemical_formula_structural   La7Ta3(W2O15)2
_chemical_formula_sum   'La7 Ta3 W4 O30'
_cell_volume   599.55831234
_cell_formula_units_Z   1
loop_
 _symmetry_equiv_pos_site_id
 _symmetry_equiv_pos_as_xyz
  1  'x, y, z'
loop_
 _atom_site_type_symbol
 _atom_site_label
 _atom_site_symmetry_multiplicity
 _atom_site_fract_x
 _atom_site_fract_y
 _atom_site_fract_z
 _atom_site_occupancy
  La  La0  1  0.63646300  0.75988200  0.19175600  1
  La  La1  1  0.87709300  0.43490400  0.23425700  1
  La  La2  1  0.44935500  0.81362500  0.56712300  1
  La  La3  1  0.36353700  0.24011800  0.80824400  1
  La  La4  1  0.12290700  0.56509600  0.76574300  1
  La  La5  1  0.55064500  0.18637500  0.43287700  1
  La  La6  1  0.00000000  0.00000000  0.00000000  1
  Ta  Ta0  1  0.50000000  0.00000000  0.00000000  1
  Ta  Ta1  1  0.85229700  0.21390600  0.82960100  1
  Ta  Ta2  1  0.14770300  0.78609400  0.17039900  1
  W  W0  1  0.64076900  0.62109200  0.78796600  1
  W  W1  1  0.01765800  0.16593100  0.37717000  1
  W  W2  1  0.35923100  0.37890800  0.21203400  1
  W  W3  1  0.98234300  0.83406900  0.62283000  1
  O  O0  1  0.06849100  0.28058800  0.05744500  1
  O  O1  1  0.78415900  0.77279000  0.71851600  1
  O  O2  1  0.00912200  0.94909600  0.22495100  1
  O  O3  1  0.93150900  0.71941200  0.94255500  1
  O  O4  1  0.21584100  0.22721000  0.28148400  1
  O  O5  1  0.99087800  0.05090400  0.77504900  1
  O  O6  1  0.73604800  0.34424800  0.95732700  1
  O  O7  1  0.39680500  0.61169800  0.65594400  1
  O  O8  1  0.78837500  0.04559500  0.39179800  1
  O  O9  1  0.26395200  0.65575200  0.04267300  1
  O  O10  1  0.60319500  0.38830200  0.34405600  1
  O  O11  1  0.21162500  0.95440500  0.60820200  1
  O  O12  1  0.05628500  0.33549200  0.79229500  1
  O  O13  1  0.71284800  0.46103500  0.66391500  1
  O  O14  1  0.25090600  0.20290400  0.53702200  1
  O  O15  1  0.94371500  0.66450800  0.20770500  1
  O  O16  1  0.28715200  0.53896500  0.33608500  1
  O  O17  1  0.74909400  0.79709600  0.46297800  1
  O  O18  1  0.61453200  0.13479600  0.64938200  1
  O  O19  1  0.49223200  0.51818800  0.86556100  1
  O  O20  1  0.97067800  0.34664000  0.48031700  1
  O  O21  1  0.38546800  0.86520400  0.35061800  1
  O  O22  1  0.50776800  0.48181200  0.13443900  1
  O  O23  1  0.02932200  0.65336000  0.51968300  1
  O  O24  1  0.78450900  0.13800400  0.17488200  1
  O  O25  1  0.63832100  0.03211300  0.85912100  1
  O  O26  1  0.60736100  0.82317400  0.96292800  1
  O  O27  1  0.21549100  0.86199600  0.82511800  1
  O  O28  1  0.36167900  0.96788700  0.14087900  1
  O  O29  1  0.39263900  0.17682600  0.03707200  1
loop_
_geom_bond_atom_site_label_1
_geom_bond_atom_site_label_2
_geom_bond_distance
_geom_bond_site_symmetry_2
La0 O9 2.400746 1_555
La0 O15 2.536692 1_555
La0 O8 2.536733 1_565
La0 O17 2.539954 1_555
La0 O22 2.543525 1_555
La0 O26 2.661632 1_554
La0 O2 2.721447 1_655
La0 O21 2.738319 1_555
La0 O19 2.941788 1_554
La1 O15 2.436065 1_555
La1 O6 2.441684 1_554
La1 O10 2.481030 1_555
La1 O23 2.581657 1_655
La1 O16 2.589273 1_655
La1 O0 2.674247 1_655
La1 O24 2.722943 1_555
La1 O22 2.760740 1_555
La1 O20 3.005287 1_555
La2 O11 2.416283 1_555
La2 O21 2.457624 1_555
La2 O16 2.552729 1_555
La2 O17 2.555420 1_555
La2 O7 2.578744 1_555
La2 O25 2.628120 1_565
La2 O1 2.705261 1_555
La2 O23 2.831373 1_555
La2 O18 2.895511 1_565
La3 O6 2.400746 1_555
La3 O12 2.536692 1_555
La3 O11 2.536733 1_545
La3 O14 2.539954 1_555
La3 O19 2.543525 1_555
La3 O29 2.661632 1_556
La3 O5 2.721447 1_455
La3 O18 2.738319 1_555
La3 O22 2.941788 1_556
La4 O12 2.436065 1_555
La4 O9 2.441684 1_556
La4 O7 2.481030 1_555
La4 O20 2.581657 1_455
La4 O13 2.589273 1_455
La4 O3 2.674247 1_455
La4 O27 2.722943 1_555
La4 O19 2.760740 1_555
La4 O23 3.005287 1_555
La5 O8 2.416283 1_555
La5 O18 2.457624 1_555
La5 O13 2.552729 1_555
La5 O14 2.555420 1_555
La5 O10 2.578744 1_555
La5 O28 2.628120 1_545
La5 O4 2.705261 1_555
La5 O20 2.831373 1_555
La5 O21 2.895511 1_545
La6 O2 2.559730 1_545
La6 O5 2.559730 1_454
La6 O3 2.580780 1_444
La6 O0 2.580780 1_555
La6 O4 2.601548 1_555
La6 O1 2.601548 1_444
La6 O24 2.732472 1_455
La6 O27 2.732472 1_544
La6 O28 2.759181 1_545
La6 O25 2.759181 1_454
La6 O26 2.763437 1_444
La6 O29 2.763437 1_555
O0 W2 1.972263 1_555
O0 Ta1 2.181849 1_454
O1 W3 2.003206 1_555
O1 W0 2.119510 1_555
O2 Ta2 2.046695 1_555
O2 W1 2.080240 1_565
O3 W0 1.972263 1_555
O3 Ta2 2.181849 1_656
O4 W1 2.003201 1_555
O4 W2 2.119510 1_555
O5 Ta1 2.046695 1_555
O5 W3 2.080243 1_545
O6 Ta1 1.903964 1_555
O7 W0 1.865450 1_555
O8 W1 1.866008 1_655
O9 Ta2 1.903964 1_555
O10 W2 1.865450 1_555
O11 W3 1.866003 1_455
O12 Ta1 1.892354 1_455
O13 W0 1.854446 1_555
O14 W1 1.854661 1_555
O15 Ta2 1.892354 1_655
O16 W2 1.854446 1_555
O17 W3 1.854666 1_555
O18 Ta1 1.881198 1_555
O19 W0 1.848131 1_555
O20 W1 1.847306 1_655
O21 Ta2 1.881198 1_555
O22 W2 1.848131 1_555
O23 W3 1.847303 1_455
O24 Ta0 2.028527 1_555
O24 W1 2.180711 1_655
O25 Ta0 2.003831 1_556
O25 Ta1 2.287447 1_555
O26 Ta0 2.029811 1_566
O26 W0 2.192019 1_555
O27 Ta0 2.028527 1_566
O27 W3 2.180708 1_455
O28 Ta0 2.003831 1_565
O28 Ta2 2.287447 1_555
O29 Ta0 2.029811 1_555
O29 W2 2.192019 1_555
