# generated using pymatgen
data_NaCa2Si4O10F
_symmetry_space_group_name_H-M   'P 1'
_cell_length_a   7.04432200
_cell_length_b   7.86575682
_cell_length_c   19.16557794
_cell_angle_alpha   94.29589387
_cell_angle_beta   89.87496045
_cell_angle_gamma   116.46854162
_symmetry_Int_Tables_number   1
_chemical_formula_structural   NaCa2Si4O10F
_chemical_formula_sum   'Na4 Ca8 Si16 O40 F4'
_cell_volume   947.38009040
_cell_formula_units_Z   4
loop_
 _symmetry_equiv_pos_site_id
 _symmetry_equiv_pos_as_xyz
  1  'x, y, z'
loop_
 _atom_site_type_symbol
 _atom_site_label
 _atom_site_symmetry_multiplicity
 _atom_site_fract_x
 _atom_site_fract_y
 _atom_site_fract_z
 _atom_site_occupancy
  Na  Na0  1  0.86777000  0.73516200  0.49034500  1
  Na  Na1  1  0.13223000  0.26483800  0.50965500  1
  Na  Na2  1  0.86436400  0.23931800  0.99730900  1
  Na  Na3  1  0.13563600  0.76068200  0.00269100  1
  Ca  Ca0  1  0.50099300  0.49952600  0.71761000  1
  Ca  Ca1  1  0.49900700  0.50047400  0.28239000  1
  Ca  Ca2  1  0.52036800  0.04534600  0.77999000  1
  Ca  Ca3  1  0.47963200  0.95465400  0.22001000  1
  Ca  Ca4  1  0.99642400  0.49925600  0.71531300  1
  Ca  Ca5  1  0.00357600  0.50074400  0.28468700  1
  Ca  Ca6  1  0.01989500  0.04261200  0.78441100  1
  Ca  Ca7  1  0.98010500  0.95738800  0.21558900  1
  Si  Si0  1  0.76525900  0.47799100  0.87990100  1
  Si  Si1  1  0.23474100  0.52200900  0.12009900  1
  Si  Si2  1  0.78641300  0.01437500  0.62248000  1
  Si  Si3  1  0.21358700  0.98562500  0.37752000  1
  Si  Si4  1  0.22635800  0.01405400  0.62262400  1
  Si  Si5  1  0.77364200  0.98594600  0.37737600  1
  Si  Si6  1  0.34530700  0.19358900  0.93160500  1
  Si  Si7  1  0.65469300  0.80641100  0.06839500  1
  Si  Si8  1  0.65809800  0.82414600  0.90985400  1
  Si  Si9  1  0.34190200  0.17585400  0.09014600  1
  Si  Si10  1  0.20576100  0.47486800  0.88029900  1
  Si  Si11  1  0.79423900  0.52513200  0.11970100  1
  Si  Si12  1  0.66524100  0.33098600  0.41003000  1
  Si  Si13  1  0.33475900  0.66901400  0.58997000  1
  Si  Si14  1  0.64412500  0.29066600  0.56938100  1
  Si  Si15  1  0.35587500  0.70933400  0.43061900  1
  O  O0  1  0.79162800  0.20137200  0.39259200  1
  O  O1  1  0.20837200  0.79862800  0.60740800  1
  O  O2  1  0.70315400  0.39159300  0.80034900  1
  O  O3  1  0.29684600  0.60840700  0.19965100  1
  O  O4  1  0.18372800  0.38947300  0.80072000  1
  O  O5  1  0.81627200  0.61052700  0.19928000  1
  O  O6  1  0.41034300  0.20068200  0.39262000  1
  O  O7  1  0.58965700  0.79931800  0.60738000  1
  O  O8  1  0.99888900  0.50391100  0.90908600  1
  O  O9  1  0.00111100  0.49608900  0.09091400  1
  O  O10  1  0.71601200  0.43725000  0.63691200  1
  O  O11  1  0.28398800  0.56275000  0.36308800  1
  O  O12  1  0.76563700  0.15207400  0.56469000  1
  O  O13  1  0.23436300  0.84792600  0.43531000  1
  O  O14  1  0.78242600  0.69148200  0.89708200  1
  O  O15  1  0.21757400  0.30851800  0.10291800  1
  O  O16  1  0.38521500  0.15105200  0.56480500  1
  O  O17  1  0.61478500  0.84894800  0.43519500  1
  O  O18  1  0.27458600  0.04635500  0.86406900  1
  O  O19  1  0.72541400  0.95364500  0.13593100  1
  O  O20  1  0.74257300  0.99897300  0.86169400  1
  O  O21  1  0.25742700  0.00102700  0.13830600  1
  O  O22  1  0.70339400  0.90974600  0.99369900  1
  O  O23  1  0.29660600  0.09025400  0.00630100  1
  O  O24  1  0.99304100  0.98697500  0.59333200  1
  O  O25  1  0.00695900  0.01302500  0.40666800  1
  O  O26  1  0.40247900  0.68600300  0.90019900  1
  O  O27  1  0.59752100  0.31399700  0.09980100  1
  O  O28  1  0.29322600  0.10524400  0.70170100  1
  O  O29  1  0.70677400  0.89475600  0.29829900  1
  O  O30  1  0.60394300  0.33592700  0.93611600  1
  O  O31  1  0.39605700  0.66407300  0.06388400  1
  O  O32  1  0.76072900  0.52306300  0.37040100  1
  O  O33  1  0.23927100  0.47693700  0.62959900  1
  O  O34  1  0.21813700  0.32791200  0.93601400  1
  O  O35  1  0.78186300  0.67208800  0.06398600  1
  O  O36  1  0.69731400  0.39646100  0.49547200  1
  O  O37  1  0.30268600  0.60353900  0.50452800  1
  O  O38  1  0.80910200  0.10482400  0.70156400  1
  O  O39  1  0.19089800  0.89517600  0.29843600  1
  F  F0  1  0.63947000  0.26503900  0.25498300  1
  F  F1  1  0.36053000  0.73496100  0.74501700  1
  F  F2  1  0.87104800  0.73720800  0.73913700  1
  F  F3  1  0.12895200  0.26279200  0.26086300  1
loop_
_geom_bond_atom_site_label_1
_geom_bond_atom_site_label_2
_geom_bond_distance
_geom_bond_site_symmetry_2
Na0 O36 2.395037 1_555
Na0 O24 2.541973 1_555
Na0 O13 2.579639 1_655
Na0 O17 2.581846 1_555
Na0 O25 2.630232 1_665
Na0 O32 2.635898 1_555
Na1 O37 2.395037 1_555
Na1 O25 2.541973 1_555
Na1 O12 2.579639 1_455
Na1 O16 2.581846 1_555
Na1 O24 2.630232 1_445
Na1 O33 2.635898 1_555
Na2 O22 2.316013 1_545
Na2 O9 2.440481 1_656
Na2 O34 2.576428 1_655
Na2 O30 2.589175 1_555
Na2 O8 2.617363 1_555
Na2 O27 2.921003 1_556
Na2 O20 2.982171 1_545
Na2 O15 3.038672 1_656
Na3 O23 2.316013 1_565
Na3 O8 2.440481 1_454
Na3 O35 2.576428 1_455
Na3 O31 2.589175 1_555
Na3 O9 2.617363 1_555
Na3 O26 2.921003 1_554
Na3 O21 2.982171 1_565
Na3 O14 3.038672 1_454
Ca0 O10 2.337491 1_555
Ca0 O33 2.439780 1_555
Ca0 F2 2.450631 1_555
Ca0 F1 2.483906 1_555
Ca0 O2 2.559811 1_555
Ca0 O4 2.597660 1_555
Ca0 O28 2.769004 1_555
Ca1 O11 2.337491 1_555
Ca1 O32 2.439780 1_555
Ca1 F3 2.450631 1_555
Ca1 F0 2.483906 1_555
Ca1 O3 2.559811 1_555
Ca1 O5 2.597660 1_555
Ca1 O29 2.769004 1_555
Ca2 F1 2.232768 1_545
Ca2 O18 2.364854 1_555
Ca2 O20 2.374961 1_545
Ca2 O28 2.412865 1_555
Ca2 O38 2.420494 1_555
Ca2 O2 2.438154 1_555
Ca3 F0 2.232768 1_565
Ca3 O19 2.364854 1_555
Ca3 O21 2.374961 1_565
Ca3 O29 2.412865 1_555
Ca3 O39 2.420494 1_555
Ca3 O3 2.438154 1_555
Ca4 O10 2.332790 1_555
Ca4 F2 2.415660 1_555
Ca4 O33 2.422433 1_655
Ca4 F1 2.439128 1_655
Ca4 O2 2.504741 1_555
Ca4 O4 2.530368 1_655
Ca4 O38 2.768730 1_555
Ca5 O11 2.332790 1_555
Ca5 F3 2.415660 1_555
Ca5 O32 2.422433 1_455
Ca5 F0 2.439128 1_455
Ca5 O3 2.504741 1_555
Ca5 O5 2.530368 1_455
Ca5 O39 2.768730 1_555
Ca6 F2 2.251542 1_445
Ca6 O18 2.347057 1_555
Ca6 O20 2.365128 1_445
Ca6 O28 2.391844 1_555
Ca6 O38 2.395815 1_455
Ca6 O4 2.437288 1_555
Ca7 F3 2.251542 1_665
Ca7 O19 2.347057 1_555
Ca7 O21 2.365128 1_665
Ca7 O29 2.391844 1_555
Ca7 O39 2.395815 1_655
Ca7 O5 2.437288 1_555
O0 Si12 1.643329 1_555
O0 Si5 1.645339 1_545
O1 Si13 1.643329 1_555
O1 Si4 1.645339 1_565
O2 Si0 1.600149 1_555
O3 Si1 1.600149 1_555
O4 Si10 1.598767 1_555
O5 Si11 1.598767 1_555
O6 Si12 1.642198 1_555
O6 Si3 1.644593 1_545
O7 Si13 1.642198 1_555
O7 Si2 1.644593 1_565
O8 Si0 1.658556 1_555
O8 Si10 1.659696 1_655
O9 Si1 1.658556 1_555
O9 Si11 1.659696 1_455
O10 Si14 1.587385 1_555
O11 Si15 1.587385 1_555
O12 Si2 1.656201 1_555
O12 Si14 1.657084 1_555
O13 Si3 1.656201 1_555
O13 Si15 1.657084 1_555
O14 Si0 1.636858 1_555
O14 Si8 1.640524 1_555
O15 Si1 1.636858 1_555
O15 Si9 1.640524 1_555
O16 Si4 1.655287 1_555
O16 Si14 1.655580 1_555
O17 Si5 1.655287 1_555
O17 Si15 1.655580 1_555
O18 Si6 1.590196 1_555
O19 Si7 1.590196 1_555
O20 Si8 1.598562 1_555
O21 Si9 1.598562 1_555
O22 Si7 1.658741 1_556
O22 Si8 1.669143 1_555
O23 Si6 1.658741 1_554
O23 Si9 1.669143 1_555
O24 Si2 1.653849 1_565
O24 Si4 1.654049 1_665
O25 Si3 1.653849 1_545
O25 Si5 1.654049 1_445
O26 Si10 1.636995 1_555
O26 Si8 1.638450 1_555
O27 Si11 1.636995 1_555
O27 Si9 1.638450 1_555
O28 Si4 1.603856 1_555
O29 Si5 1.603856 1_555
O30 Si0 1.656460 1_555
O30 Si6 1.657775 1_555
O31 Si1 1.656460 1_555
O31 Si7 1.657775 1_555
O32 Si12 1.604899 1_555
O33 Si13 1.604899 1_555
O34 Si6 1.660106 1_555
O34 Si10 1.661061 1_555
O35 Si7 1.660106 1_555
O35 Si11 1.661061 1_555
O36 Si14 1.653998 1_555
O36 Si12 1.664146 1_555
O37 Si15 1.653998 1_555
O37 Si13 1.664146 1_555
O38 Si2 1.602238 1_555
O39 Si3 1.602238 1_555
