# generated using pymatgen
data_Eu2Sn
_symmetry_space_group_name_H-M   'P 1'
_cell_length_a   5.52652288
_cell_length_b   7.30441397
_cell_length_c   9.79523314
_cell_angle_alpha   90.00000000
_cell_angle_beta   90.00000000
_cell_angle_gamma   90.00000000
_symmetry_Int_Tables_number   1
_chemical_formula_structural   Eu2Sn
_chemical_formula_sum   'Eu8 Sn4'
_cell_volume   395.41407846
_cell_formula_units_Z   4
loop_
 _symmetry_equiv_pos_site_id
 _symmetry_equiv_pos_as_xyz
  1  'x, y, z'
loop_
 _atom_site_type_symbol
 _atom_site_label
 _atom_site_symmetry_multiplicity
 _atom_site_fract_x
 _atom_site_fract_y
 _atom_site_fract_z
 _atom_site_occupancy
  Eu  Eu0  1  0.75000000  0.78511411  0.91882602  1
  Eu  Eu1  1  0.25000000  0.21491387  0.08121085  1
  Eu  Eu2  1  0.25000000  0.71491387  0.41878915  1
  Eu  Eu3  1  0.75000000  0.28511411  0.58117398  1
  Eu  Eu4  1  0.75000000  0.99177461  0.27747784  1
  Eu  Eu5  1  0.25000000  0.00824049  0.72253889  1
  Eu  Eu6  1  0.25000000  0.50824049  0.77746111  1
  Eu  Eu7  1  0.75000000  0.49177461  0.22252216  1
  Sn  Sn0  1  0.75000000  0.75749601  0.58852364  1
  Sn  Sn1  1  0.25000000  0.24246091  0.41142322  1
  Sn  Sn2  1  0.25000000  0.74246091  0.08857678  1
  Sn  Sn3  1  0.75000000  0.25749601  0.91147636  1
loop_
_geom_bond_atom_site_label_1
_geom_bond_atom_site_label_2
_geom_bond_distance
_geom_bond_site_symmetry_2
Eu0 Sn2 3.239971 1_556
Eu0 Sn2 3.239971 1_656
Eu0 Sn0 3.241672 1_555
Eu0 Sn3 3.451224 1_565
Eu0 Sn3 3.854613 1_555
Eu1 Sn3 3.239840 1_554
Eu1 Sn3 3.239840 1_454
Eu1 Sn1 3.240760 1_555
Eu1 Sn2 3.451746 1_545
Eu1 Sn2 3.854097 1_555
Eu2 Sn0 3.239840 1_455
Eu2 Sn0 3.239840 1_555
Eu2 Sn2 3.240760 1_555
Eu2 Sn1 3.451746 1_555
Eu2 Sn1 3.854097 1_565
Eu3 Sn1 3.239971 1_655
Eu3 Sn1 3.239971 1_555
Eu3 Sn3 3.241672 1_555
Eu3 Sn0 3.451224 1_555
Eu3 Sn0 3.854613 1_545
Eu4 Sn0 3.494456 1_555
Eu4 Sn1 3.565111 1_565
Eu4 Sn1 3.565111 1_665
Eu4 Sn2 3.791531 1_655
Eu4 Sn2 3.791531 1_555
Eu5 Sn1 3.494845 1_555
Eu5 Sn0 3.565581 1_445
Eu5 Sn0 3.565581 1_545
Eu5 Sn3 3.791501 1_555
Eu5 Sn3 3.791501 1_455
Eu6 Sn2 3.494845 1_556
Eu6 Sn3 3.565581 1_455
Eu6 Sn3 3.565581 1_555
Eu6 Sn0 3.791501 1_555
Eu6 Sn0 3.791501 1_455
Eu7 Sn3 3.494456 1_554
Eu7 Sn2 3.565111 1_555
Eu7 Sn2 3.565111 1_655
Eu7 Sn1 3.791531 1_655
Eu7 Sn1 3.791531 1_555
