# generated using pymatgen
data_NaTiS2
_symmetry_space_group_name_H-M   'P 1'
_cell_length_a   3.51836272
_cell_length_b   3.51836272
_cell_length_c   16.32142600
_cell_angle_alpha   90.00000000
_cell_angle_beta   90.00000000
_cell_angle_gamma   120.13618344
_symmetry_Int_Tables_number   1
_chemical_formula_structural   NaTiS2
_chemical_formula_sum   'Na2 Ti2 S4'
_cell_volume   174.73195854
_cell_formula_units_Z   2
loop_
 _symmetry_equiv_pos_site_id
 _symmetry_equiv_pos_as_xyz
  1  'x, y, z'
loop_
 _atom_site_type_symbol
 _atom_site_label
 _atom_site_symmetry_multiplicity
 _atom_site_fract_x
 _atom_site_fract_y
 _atom_site_fract_z
 _atom_site_occupancy
  Na  Na0  1  0.66672000  0.33328000  0.25000000  1
  Na  Na1  1  0.33328000  0.66672000  0.75000000  1
  Ti  Ti0  1  0.00000000  0.00000000  0.50000000  1
  Ti  Ti1  1  0.00000000  0.00000000  0.00000000  1
  S  S0  1  0.66708900  0.33291100  0.08677600  1
  S  S1  1  0.33291100  0.66708900  0.91322400  1
  S  S2  1  0.33291100  0.66708900  0.58677600  1
  S  S3  1  0.66708900  0.33291100  0.41322400  1
loop_
_geom_bond_atom_site_label_1
_geom_bond_atom_site_label_2
_geom_bond_distance
_geom_bond_site_symmetry_2
Na0 S3 2.664049 1_555
Na0 S0 2.664049 1_555
Na1 S1 2.664049 1_555
Na1 S2 2.664049 1_555
S0 Ti1 2.475105 1_555
S0 Ti1 2.475105 1_665
S0 Ti1 2.475362 1_655
S1 Ti1 2.475105 1_556
S1 Ti1 2.475105 1_666
S1 Ti1 2.475362 1_566
S2 Ti0 2.475105 1_555
S2 Ti0 2.475105 1_665
S2 Ti0 2.475362 1_565
S3 Ti0 2.475105 1_555
S3 Ti0 2.475105 1_665
S3 Ti0 2.475362 1_655
