# generated using pymatgen
data_KNa2LiTi2MnFe(SiO3)8
_symmetry_space_group_name_H-M   'P 1'
_cell_length_a   10.48244861
_cell_length_b   10.48244861
_cell_length_c   10.14416545
_cell_angle_alpha   69.93350207
_cell_angle_beta   69.93350207
_cell_angle_gamma   74.98875115
_symmetry_Int_Tables_number   1
_chemical_formula_structural   KNa2LiTi2MnFe(SiO3)8
_chemical_formula_sum   'K2 Na4 Li2 Ti4 Mn2 Fe2 Si16 O48'
_cell_volume   970.74421578
_cell_formula_units_Z   2
loop_
 _symmetry_equiv_pos_site_id
 _symmetry_equiv_pos_as_xyz
  1  'x, y, z'
loop_
 _atom_site_type_symbol
 _atom_site_label
 _atom_site_symmetry_multiplicity
 _atom_site_fract_x
 _atom_site_fract_y
 _atom_site_fract_z
 _atom_site_occupancy
  K  K0  1  0.41831100  0.58056500  0.75027100  1
  K  K1  1  0.58056500  0.41831100  0.25027100  1
  Na  Na0  1  0.93681800  0.53759200  0.80239400  1
  Na  Na1  1  0.46380800  0.06505600  0.69116500  1
  Na  Na2  1  0.06505600  0.46380800  0.19116500  1
  Na  Na3  1  0.53759200  0.93681800  0.30239400  1
  Li  Li0  1  0.93591900  0.06815400  0.74549900  1
  Li  Li1  1  0.06815400  0.93591900  0.24549900  1
  Ti  Ti0  1  0.14196700  0.03589800  0.88153900  1
  Ti  Ti1  1  0.03589800  0.14196700  0.38153900  1
  Ti  Ti2  1  0.66428100  0.01946400  0.89625200  1
  Ti  Ti3  1  0.01946400  0.66428100  0.39625200  1
  Mn  Mn0  1  0.96651500  0.85327400  0.61576700  1
  Mn  Mn1  1  0.85327400  0.96651500  0.11576700  1
  Fe  Fe0  1  0.97764900  0.34355400  0.59893200  1
  Fe  Fe1  1  0.34355400  0.97764900  0.09893200  1
  Si  Si0  1  0.26058400  0.44963100  0.55852900  1
  Si  Si1  1  0.55284800  0.73872400  0.94037400  1
  Si  Si2  1  0.73872400  0.55284800  0.44037400  1
  Si  Si3  1  0.44963100  0.26058400  0.05852900  1
  Si  Si4  1  0.25256800  0.95967900  0.57954200  1
  Si  Si5  1  0.04513900  0.74415200  0.91882400  1
  Si  Si6  1  0.74415200  0.04513900  0.41882400  1
  Si  Si7  1  0.95967900  0.25256800  0.07954200  1
  Si  Si8  1  0.70532500  0.75250200  0.60954200  1
  Si  Si9  1  0.24421900  0.29577400  0.88874100  1
  Si  Si10  1  0.29577400  0.24421900  0.38874100  1
  Si  Si11  1  0.75250200  0.70532500  0.10954200  1
  Si  Si12  1  0.70855400  0.24759000  0.58367400  1
  Si  Si13  1  0.74948000  0.29553800  0.91611600  1
  Si  Si14  1  0.29553800  0.74948000  0.41611600  1
  Si  Si15  1  0.24759000  0.70855400  0.08367400  1
  O  O0  1  0.81242400  0.39295000  0.75781200  1
  O  O1  1  0.61059400  0.18167500  0.74728800  1
  O  O2  1  0.18167500  0.61059400  0.24728800  1
  O  O3  1  0.39295000  0.81242400  0.25781200  1
  O  O4  1  0.09488500  0.00725200  0.56672400  1
  O  O5  1  0.01156900  0.90640200  0.92168600  1
  O  O6  1  0.90640200  0.01156900  0.42168600  1
  O  O7  1  0.00725200  0.09488500  0.06672400  1
  O  O8  1  0.87314900  0.21218400  0.56432500  1
  O  O9  1  0.77637400  0.12991600  0.92815000  1
  O  O10  1  0.12991600  0.77637400  0.42815000  1
  O  O11  1  0.21218400  0.87314900  0.06432500  1
  O  O12  1  0.29055000  0.38886200  0.71989500  1
  O  O13  1  0.61063400  0.70953000  0.77921300  1
  O  O14  1  0.70953000  0.61063400  0.27921300  1
  O  O15  1  0.38886200  0.29055000  0.21989500  1
  O  O16  1  0.06139300  0.71548700  0.76930400  1
  O  O17  1  0.27425300  0.94430900  0.73673400  1
  O  O18  1  0.94430900  0.27425300  0.23673400  1
  O  O19  1  0.71548700  0.06139300  0.26930400  1
  O  O20  1  0.10001600  0.48912300  0.56602600  1
  O  O21  1  0.52330600  0.90316800  0.92419100  1
  O  O22  1  0.90316800  0.52330600  0.42419100  1
  O  O23  1  0.48912300  0.10001600  0.06602600  1
  O  O24  1  0.32295200  0.81640000  0.53132600  1
  O  O25  1  0.18415300  0.66725800  0.97636000  1
  O  O26  1  0.66725800  0.18415300  0.47636000  1
  O  O27  1  0.81640000  0.32295200  0.03132600  1
  O  O28  1  0.66128600  0.41701000  0.52521500  1
  O  O29  1  0.58063300  0.34497200  0.97752800  1
  O  O30  1  0.34497200  0.58063300  0.47752800  1
  O  O31  1  0.41701000  0.66128600  0.02521500  1
  O  O32  1  0.65977000  0.91976300  0.54716700  1
  O  O33  1  0.07903300  0.34775400  0.95813400  1
  O  O34  1  0.34775400  0.07903300  0.45813400  1
  O  O35  1  0.91976300  0.65977000  0.04716700  1
  O  O36  1  0.65505000  0.67209100  0.52595400  1
  O  O37  1  0.32816300  0.33866200  0.97399600  1
  O  O38  1  0.33866200  0.32816300  0.47399600  1
  O  O39  1  0.67209100  0.65505000  0.02595400  1
  O  O40  1  0.86910900  0.70892800  0.58999900  1
  O  O41  1  0.27870800  0.13170600  0.90150200  1
  O  O42  1  0.13170600  0.27870800  0.40150200  1
  O  O43  1  0.70892800  0.86910900  0.08999900  1
  O  O44  1  0.07375600  0.17238100  0.75698100  1
  O  O45  1  0.79814000  0.94118600  0.77733000  1
  O  O46  1  0.94118600  0.79814000  0.27733000  1
  O  O47  1  0.17238100  0.07375600  0.25698100  1
loop_
_geom_bond_atom_site_label_1
_geom_bond_atom_site_label_2
_geom_bond_distance
_geom_bond_site_symmetry_2
K0 O12 2.833532 1_555
K0 O13 2.840491 1_555
K0 O36 2.849028 1_555
K0 O37 2.879941 1_555
K0 O24 2.918755 1_555
K0 O25 2.919316 1_555
K0 O30 3.115104 1_555
K0 O31 3.175297 1_556
K0 O29 3.304066 1_555
K0 O28 3.327503 1_555
K1 O15 2.833532 1_555
K1 O14 2.840491 1_555
K1 O39 2.849028 1_555
K1 O38 2.879941 1_555
K1 O27 2.918755 1_555
K1 O26 2.919316 1_555
K1 O29 3.115104 1_554
K1 O28 3.175297 1_555
K1 O30 3.304066 1_555
K1 O31 3.327503 1_555
Na0 O16 2.413795 1_655
Na0 O0 2.470436 1_555
Na0 O40 2.470876 1_555
Na0 O20 2.550463 1_655
Na0 O33 2.569112 1_655
Na0 O27 2.814753 1_556
Na1 O17 2.456607 1_545
Na1 O1 2.497825 1_555
Na1 O41 2.507052 1_555
Na1 O32 2.553411 1_545
Na1 O21 2.562665 1_545
Na1 O26 2.679257 1_555
Na1 O34 2.955143 1_555
Na2 O18 2.456607 1_455
Na2 O2 2.497825 1_555
Na2 O42 2.507052 1_555
Na2 O35 2.553411 1_455
Na2 O22 2.562665 1_455
Na2 O25 2.679257 1_554
Na2 O33 2.955143 1_554
Na3 O19 2.413795 1_565
Na3 O3 2.470436 1_555
Na3 O43 2.470876 1_555
Na3 O23 2.550463 1_565
Na3 O34 2.569112 1_565
Na3 O24 2.814753 1_555
Li0 O44 2.077364 1_655
Li0 O45 2.083833 1_545
Li0 O8 2.121613 1_555
Li0 O4 2.154722 1_655
Li0 O9 2.187471 1_555
Li0 O5 2.212380 1_645
Li1 O47 2.077364 1_565
Li1 O46 2.083833 1_455
Li1 O11 2.121613 1_555
Li1 O7 2.154722 1_565
Li1 O10 2.187471 1_555
Li1 O6 2.212380 1_465
Mn0 O16 2.067906 1_655
Mn0 O40 2.157597 1_555
Mn0 O4 2.185891 1_665
Mn0 O45 2.204383 1_555
Mn0 O6 2.257088 1_565
Mn0 O10 2.303562 1_655
Mn1 O19 2.067906 1_565
Mn1 O43 2.157597 1_555
Mn1 O7 2.185891 1_665
Mn1 O46 2.204383 1_555
Mn1 O5 2.257088 1_654
Mn1 O9 2.303562 1_564
Fe0 O0 2.014444 1_555
Fe0 O20 2.110866 1_655
Fe0 O8 2.143963 1_555
Fe0 O44 2.236707 1_655
Fe0 O22 2.279844 1_555
Fe0 O42 2.286296 1_655
Fe1 O3 2.014444 1_555
Fe1 O23 2.110866 1_565
Fe1 O11 2.143963 1_555
Fe1 O47 2.236707 1_565
Fe1 O21 2.279844 1_554
Fe1 O41 2.286296 1_564
O0 Si13 1.597964 1_555
O1 Si12 1.642439 1_555
O1 Ti2 1.953482 1_555
O2 Si15 1.642439 1_555
O2 Ti3 1.953482 1_555
O3 Si14 1.597964 1_555
O4 Si4 1.635140 1_545
O4 Ti1 2.104708 1_555
O5 Si5 1.653529 1_555
O5 Ti0 2.019078 1_565
O6 Si6 1.653529 1_555
O6 Ti1 2.019078 1_655
O7 Si7 1.635140 1_455
O7 Ti0 2.104708 1_554
O8 Si12 1.624506 1_555
O8 Ti1 2.237336 1_655
O9 Si13 1.653223 1_555
O9 Ti2 2.012111 1_555
O10 Si14 1.653223 1_555
O10 Ti3 2.012111 1_555
O11 Si15 1.624506 1_555
O11 Ti0 2.237336 1_564
O12 Si9 1.627723 1_555
O12 Si0 1.648519 1_555
O13 Si8 1.636400 1_555
O13 Si1 1.643478 1_555
O14 Si11 1.636400 1_555
O14 Si2 1.643478 1_555
O15 Si10 1.627723 1_555
O15 Si3 1.648519 1_555
O16 Si5 1.590206 1_555
O17 Si4 1.635171 1_555
O17 Ti0 1.970459 1_565
O18 Si7 1.635171 1_555
O18 Ti1 1.970459 1_655
O19 Si6 1.590206 1_555
O20 Si0 1.607159 1_555
O20 Ti3 2.252796 1_555
O21 Si1 1.630468 1_555
O21 Ti2 2.039348 1_565
O22 Si2 1.630468 1_555
O22 Ti3 2.039348 1_655
O23 Si3 1.607159 1_555
O23 Ti2 2.252796 1_554
O24 Si4 1.649779 1_555
O24 Si14 1.684642 1_555
O25 Si5 1.663178 1_555
O25 Si15 1.668502 1_556
O26 Si6 1.663178 1_555
O26 Si12 1.668502 1_555
O27 Si7 1.649779 1_555
O27 Si13 1.684642 1_554
O28 Si2 1.644856 1_555
O28 Si12 1.665601 1_555
O29 Si3 1.643040 1_556
O29 Si13 1.667048 1_555
O30 Si0 1.643040 1_555
O30 Si14 1.667048 1_555
O31 Si1 1.644856 1_554
O31 Si15 1.665601 1_555
O32 Si8 1.647671 1_555
O32 Si6 1.685954 1_565
O33 Si9 1.651885 1_555
O33 Si7 1.680388 1_456
O34 Si10 1.651885 1_555
O34 Si4 1.680388 1_545
O35 Si11 1.647671 1_555
O35 Si5 1.685954 1_654
O36 Si8 1.653610 1_555
O36 Si2 1.655165 1_555
O37 Si9 1.648729 1_555
O37 Si3 1.659594 1_556
O38 Si10 1.648729 1_555
O38 Si0 1.659594 1_555
O39 Si11 1.653610 1_555
O39 Si1 1.655165 1_554
O40 Si8 1.617987 1_555
O40 Ti3 2.165485 1_655
O41 Si9 1.631730 1_555
O41 Ti0 2.046626 1_555
O42 Si10 1.631730 1_555
O42 Ti1 2.046626 1_555
O43 Si11 1.617987 1_555
O43 Ti2 2.165485 1_564
O44 Ti0 1.733256 1_555
O45 Ti2 1.737456 1_565
O46 Ti3 1.737456 1_655
O47 Ti1 1.733256 1_555
