# generated using pymatgen
data_VTeRu
_symmetry_space_group_name_H-M   'P 1'
_cell_length_a   4.29693235
_cell_length_b   4.29693235
_cell_length_c   4.29693235
_cell_angle_alpha   60.00000000
_cell_angle_beta   60.00000000
_cell_angle_gamma   60.00000000
_symmetry_Int_Tables_number   1
_chemical_formula_structural   VTeRu
_chemical_formula_sum   'V1 Te1 Ru1'
_cell_volume   56.09970142
_cell_formula_units_Z   1
loop_
 _symmetry_equiv_pos_site_id
 _symmetry_equiv_pos_as_xyz
  1  'x, y, z'
loop_
 _atom_site_type_symbol
 _atom_site_label
 _atom_site_symmetry_multiplicity
 _atom_site_fract_x
 _atom_site_fract_y
 _atom_site_fract_z
 _atom_site_occupancy
  V  V0  1  0.50000000  0.50000000  0.50000000  1
  Te  Te0  1  0.00000000  0.00000000  0.00000000  1
  Ru  Ru0  1  0.25000000  0.25000000  0.25000000  1
loop_
_geom_bond_atom_site_label_1
_geom_bond_atom_site_label_2
_geom_bond_distance
_geom_bond_site_symmetry_2
Te0 V0 3.038390 1_544
Te0 V0 3.038390 1_545
Te0 V0 3.038390 1_554
Te0 V0 3.038390 1_454
Te0 V0 3.038390 1_445
Te0 V0 3.038390 1_455
Ru0 Te0 2.631323 1_556
Ru0 V0 2.631323 1_555
Ru0 V0 2.631323 1_554
Ru0 Te0 2.631323 1_555
Ru0 Te0 2.631323 1_655
Ru0 V0 2.631323 1_455
Ru0 V0 2.631323 1_545
Ru0 Te0 2.631323 1_565
