# generated using pymatgen
data_RbDy(MoO4)2
_symmetry_space_group_name_H-M   'P 1'
_cell_length_a   5.14203400
_cell_length_b   8.17782500
_cell_length_c   18.85072300
_cell_angle_alpha   90.00000000
_cell_angle_beta   90.00000000
_cell_angle_gamma   90.00000000
_symmetry_Int_Tables_number   1
_chemical_formula_structural   RbDy(MoO4)2
_chemical_formula_sum   'Rb4 Dy4 Mo8 O32'
_cell_volume   792.68523422
_cell_formula_units_Z   4
loop_
 _symmetry_equiv_pos_site_id
 _symmetry_equiv_pos_as_xyz
  1  'x, y, z'
loop_
 _atom_site_type_symbol
 _atom_site_label
 _atom_site_symmetry_multiplicity
 _atom_site_fract_x
 _atom_site_fract_y
 _atom_site_fract_z
 _atom_site_occupancy
  Rb  Rb0  1  0.00000000  0.75000000  0.76971600  1
  Rb  Rb1  1  0.00000000  0.25000000  0.23028400  1
  Rb  Rb2  1  0.50000000  0.25000000  0.73028400  1
  Rb  Rb3  1  0.50000000  0.75000000  0.26971600  1
  Dy  Dy0  1  0.00000000  0.75000000  0.00630200  1
  Dy  Dy1  1  0.00000000  0.25000000  0.99369800  1
  Dy  Dy2  1  0.50000000  0.25000000  0.49369800  1
  Dy  Dy3  1  0.50000000  0.75000000  0.50630200  1
  Mo  Mo0  1  0.02257200  0.51566600  0.40057400  1
  Mo  Mo1  1  0.97742800  0.48433400  0.59942600  1
  Mo  Mo2  1  0.47742800  0.01566600  0.09942600  1
  Mo  Mo3  1  0.97742800  0.98433400  0.40057400  1
  Mo  Mo4  1  0.52257200  0.98433400  0.90057400  1
  Mo  Mo5  1  0.02257200  0.01566600  0.59942600  1
  Mo  Mo6  1  0.52257200  0.48433400  0.09942600  1
  Mo  Mo7  1  0.47742800  0.51566600  0.90057400  1
  O  O0  1  0.09834000  0.97442700  0.31389200  1
  O  O1  1  0.90166000  0.02557300  0.68610800  1
  O  O2  1  0.40166000  0.47442700  0.18610800  1
  O  O3  1  0.90166000  0.52557300  0.31389200  1
  O  O4  1  0.59834000  0.52557300  0.81389200  1
  O  O5  1  0.09834000  0.47442700  0.68610800  1
  O  O6  1  0.59834000  0.02557300  0.18610800  1
  O  O7  1  0.40166000  0.97442700  0.81389200  1
  O  O8  1  0.26781500  0.83898800  0.09743700  1
  O  O9  1  0.73218500  0.16101200  0.90256300  1
  O  O10  1  0.23218500  0.33898800  0.40256300  1
  O  O11  1  0.73218500  0.66101200  0.09743700  1
  O  O12  1  0.76781500  0.66101200  0.59743700  1
  O  O13  1  0.26781500  0.33898800  0.90256300  1
  O  O14  1  0.76781500  0.16101200  0.40256300  1
  O  O15  1  0.23218500  0.83898800  0.59743700  1
  O  O16  1  0.24667700  0.50457300  0.03543600  1
  O  O17  1  0.75332300  0.49542700  0.96456400  1
  O  O18  1  0.25332300  0.00457300  0.46456400  1
  O  O19  1  0.75332300  0.99542700  0.03543600  1
  O  O20  1  0.74667700  0.99542700  0.53543600  1
  O  O21  1  0.24667700  0.00457300  0.96456400  1
  O  O22  1  0.74667700  0.49542700  0.46456400  1
  O  O23  1  0.25332300  0.50457300  0.53543600  1
  O  O24  1  0.24221000  0.68919200  0.41033800  1
  O  O25  1  0.75779000  0.31080800  0.58966200  1
  O  O26  1  0.25779000  0.18919200  0.08966200  1
  O  O27  1  0.75779000  0.81080800  0.41033800  1
  O  O28  1  0.74221000  0.81080800  0.91033800  1
  O  O29  1  0.24221000  0.18919200  0.58966200  1
  O  O30  1  0.74221000  0.31080800  0.08966200  1
  O  O31  1  0.25779000  0.68919200  0.91033800  1
loop_
_geom_bond_atom_site_label_1
_geom_bond_atom_site_label_2
_geom_bond_distance
_geom_bond_site_symmetry_2
Dy0 O28 2.297141 1_454
Dy0 O31 2.297141 1_554
Dy0 O8 2.318926 1_555
Dy0 O11 2.318926 1_455
Dy0 O19 2.436965 1_455
Dy0 O16 2.436965 1_555
Dy0 O21 2.561649 1_564
Dy0 O17 2.561649 1_454
Dy1 O30 2.297141 1_456
Dy1 O26 2.297141 1_556
Dy1 O13 2.318926 1_555
Dy1 O9 2.318926 1_455
Dy1 O17 2.436965 1_455
Dy1 O21 2.436965 1_555
Dy1 O16 2.561649 1_556
Dy1 O19 2.561649 1_446
Dy2 O29 2.297141 1_555
Dy2 O25 2.297141 1_555
Dy2 O14 2.318926 1_555
Dy2 O10 2.318926 1_555
Dy2 O22 2.436965 1_555
Dy2 O18 2.436965 1_555
Dy2 O23 2.561649 1_555
Dy2 O20 2.561649 1_545
Dy3 O27 2.297141 1_555
Dy3 O24 2.297141 1_555
Dy3 O12 2.318926 1_555
Dy3 O15 2.318926 1_555
Dy3 O20 2.436965 1_555
Dy3 O23 2.436965 1_555
Dy3 O18 2.561649 1_565
Dy3 O22 2.561649 1_555
Mo0 O3 1.750181 1_455
Mo0 O10 1.802972 1_555
Mo0 O24 1.822947 1_555
Mo0 O22 1.869506 1_455
Mo1 O5 1.750181 1_655
Mo1 O12 1.802972 1_555
Mo1 O25 1.822947 1_555
Mo1 O23 1.869506 1_655
Mo2 O6 1.750181 1_555
Mo2 O8 1.802972 1_545
Mo2 O26 1.822947 1_555
Mo2 O19 1.869506 1_545
Mo3 O0 1.750181 1_655
Mo3 O14 1.802972 1_565
Mo3 O27 1.822947 1_555
Mo3 O18 1.869506 1_665
Mo4 O7 1.750181 1_555
Mo4 O9 1.802972 1_565
Mo4 O28 1.822947 1_555
Mo4 O21 1.869506 1_565
Mo5 O1 1.750181 1_455
Mo5 O15 1.802972 1_545
Mo5 O29 1.822947 1_555
Mo5 O20 1.869506 1_445
Mo6 O2 1.750181 1_555
Mo6 O11 1.802972 1_555
Mo6 O30 1.822947 1_555
Mo6 O16 1.869506 1_555
Mo7 O4 1.750181 1_555
Mo7 O13 1.802972 1_555
Mo7 O31 1.822947 1_555
Mo7 O17 1.869506 1_555
O0 Rb1 2.796133 1_565
O0 Rb3 2.885751 1_555
O1 Rb0 2.796133 1_645
O1 Rb2 2.885751 1_555
O2 Rb3 2.796133 1_555
O2 Rb1 2.885751 1_555
O3 Rb1 2.796133 1_655
O3 Rb3 2.885751 1_555
O4 Rb2 2.796133 1_555
O4 Rb0 2.885751 1_655
O5 Rb0 2.796133 1_555
O5 Rb2 2.885751 1_555
O6 Rb3 2.796133 1_545
O6 Rb1 2.885751 1_655
O7 Rb2 2.796133 1_565
O7 Rb0 2.885751 1_555
O24 Rb3 3.005210 1_555
O25 Rb2 3.005210 1_555
O26 Rb1 3.005210 1_555
O27 Rb3 3.005210 1_555
O28 Rb0 3.005210 1_655
O29 Rb2 3.005210 1_555
O30 Rb1 3.005210 1_655
O31 Rb0 3.005210 1_555
