# generated using pymatgen
data_H17RuN6Cl3O2
_symmetry_space_group_name_H-M   'P 1'
_cell_length_a   7.44581400
_cell_length_b   12.62998800
_cell_length_c   18.89367300
_cell_angle_alpha   90.00000000
_cell_angle_beta   90.00000000
_cell_angle_gamma   90.00000000
_symmetry_Int_Tables_number   1
_chemical_formula_structural   H17RuN6Cl3O2
_chemical_formula_sum   'H68 Ru4 N24 Cl12 O8'
_cell_volume   1776.77123928
_cell_formula_units_Z   4
loop_
 _symmetry_equiv_pos_site_id
 _symmetry_equiv_pos_as_xyz
  1  'x, y, z'
loop_
 _atom_site_type_symbol
 _atom_site_label
 _atom_site_symmetry_multiplicity
 _atom_site_fract_x
 _atom_site_fract_y
 _atom_site_fract_z
 _atom_site_occupancy
  H  H0  1  0.35764100  0.99268900  0.78874900  1
  H  H1  1  0.85764100  0.00731100  0.21125100  1
  H  H2  1  0.85764100  0.50731100  0.28874900  1
  H  H3  1  0.35764100  0.49268900  0.71125100  1
  H  H4  1  0.22769600  0.35163900  0.82264900  1
  H  H5  1  0.72769600  0.64836100  0.17735100  1
  H  H6  1  0.72769600  0.14836100  0.32264900  1
  H  H7  1  0.22769600  0.85163900  0.67735100  1
  H  H8  1  0.00166600  0.11160500  0.56973900  1
  H  H9  1  0.50166600  0.88839500  0.43026100  1
  H  H10  1  0.50166600  0.38839500  0.06973900  1
  H  H11  1  0.00166600  0.61160500  0.93026100  1
  H  H12  1  0.96066400  0.08960500  0.48462100  1
  H  H13  1  0.46066400  0.91039500  0.51537900  1
  H  H14  1  0.46066400  0.41039500  0.98462100  1
  H  H15  1  0.96066400  0.58960500  0.01537900  1
  H  H16  1  0.12365100  0.29607100  0.45697000  1
  H  H17  1  0.62365100  0.70392900  0.54303000  1
  H  H18  1  0.62365100  0.20392900  0.95697000  1
  H  H19  1  0.12365100  0.79607100  0.04303000  1
  H  H20  1  0.41077500  0.15998000  0.48656400  1
  H  H21  1  0.91077500  0.84002000  0.51343600  1
  H  H22  1  0.91077500  0.34002000  0.98656400  1
  H  H23  1  0.41077500  0.65998000  0.01343600  1
  H  H24  1  0.79608500  0.11359900  0.54022900  1
  H  H25  1  0.29608500  0.88640100  0.45977100  1
  H  H26  1  0.29608500  0.38640100  0.04022900  1
  H  H27  1  0.79608500  0.61359900  0.95977100  1
  H  H28  1  0.41930500  0.10818700  0.57523700  1
  H  H29  1  0.91930500  0.89181300  0.42476300  1
  H  H30  1  0.91930500  0.39181300  0.07523700  1
  H  H31  1  0.41930500  0.60818700  0.92476300  1
  H  H32  1  0.87966400  0.39080700  0.61950300  1
  H  H33  1  0.37966400  0.60919300  0.38049700  1
  H  H34  1  0.37966400  0.10919300  0.11950300  1
  H  H35  1  0.87966400  0.89080700  0.88049700  1
  H  H36  1  0.90104400  0.46229300  0.69556800  1
  H  H37  1  0.40104400  0.53770700  0.30443200  1
  H  H38  1  0.40104400  0.03770700  0.19556800  1
  H  H39  1  0.90104400  0.96229300  0.80443200  1
  H  H40  1  0.16203800  0.33867900  0.79379400  1
  H  H41  1  0.66203800  0.66132100  0.20620600  1
  H  H42  1  0.66203800  0.16132100  0.29379400  1
  H  H43  1  0.16203800  0.83867900  0.70620600  1
  H  H44  1  0.62091000  0.24437800  0.80820000  1
  H  H45  1  0.12091000  0.75562200  0.19180000  1
  H  H46  1  0.12091000  0.25562200  0.30820000  1
  H  H47  1  0.62091000  0.74437800  0.69180000  1
  H  H48  1  0.58336700  0.17434900  0.73094500  1
  H  H49  1  0.08336700  0.82565100  0.26905500  1
  H  H50  1  0.08336700  0.32565100  0.23094500  1
  H  H51  1  0.58336700  0.67434900  0.76905500  1
  H  H52  1  0.92561300  0.12127700  0.71980400  1
  H  H53  1  0.42561300  0.87872300  0.28019600  1
  H  H54  1  0.42561300  0.37872300  0.21980400  1
  H  H55  1  0.92561300  0.62127700  0.78019600  1
  H  H56  1  0.80880500  0.33029100  0.47225900  1
  H  H57  1  0.30880500  0.66970900  0.52774100  1
  H  H58  1  0.30880500  0.16970900  0.97225900  1
  H  H59  1  0.80880500  0.83029100  0.02774100  1
  H  H60  1  0.87878100  0.42968000  0.42106700  1
  H  H61  1  0.37878100  0.57032000  0.57893300  1
  H  H62  1  0.37878100  0.07032000  0.92106700  1
  H  H63  1  0.87878100  0.92968000  0.07893300  1
  H  H64  1  0.75212700  0.45305500  0.49039800  1
  H  H65  1  0.25212700  0.54694500  0.50960200  1
  H  H66  1  0.25212700  0.04694500  0.99039800  1
  H  H67  1  0.75212700  0.95305500  0.00960200  1
  Ru  Ru0  1  0.09982900  0.63198300  0.30026700  1
  Ru  Ru1  1  0.59982900  0.36801700  0.69973300  1
  Ru  Ru2  1  0.59982900  0.86801700  0.80026700  1
  Ru  Ru3  1  0.09982900  0.13198300  0.19973300  1
  N  N0  1  0.27341100  0.09905400  0.94992600  1
  N  N1  1  0.77341100  0.90094600  0.05007400  1
  N  N2  1  0.77341100  0.40094600  0.44992600  1
  N  N3  1  0.27341100  0.59905400  0.55007400  1
  N  N4  1  0.92478600  0.13422700  0.52745100  1
  N  N5  1  0.42478600  0.86577300  0.47254900  1
  N  N6  1  0.42478600  0.36577300  0.02745100  1
  N  N7  1  0.92478600  0.63422700  0.97254900  1
  N  N8  1  0.45388200  0.16317500  0.53769900  1
  N  N9  1  0.95388200  0.83682500  0.46230100  1
  N  N10  1  0.95388200  0.33682500  0.03769900  1
  N  N11  1  0.45388200  0.66317500  0.96230100  1
  N  N12  1  0.81919200  0.41692000  0.66473400  1
  N  N13  1  0.31919200  0.58308000  0.33526600  1
  N  N14  1  0.31919200  0.08308000  0.16473400  1
  N  N15  1  0.81919200  0.91692000  0.83526600  1
  N  N16  1  0.59899500  0.24658800  0.75498700  1
  N  N17  1  0.09899500  0.75341200  0.24501300  1
  N  N18  1  0.09899500  0.25341200  0.25498700  1
  N  N19  1  0.59899500  0.74658800  0.74501300  1
  N  N20  1  0.51144300  0.25700500  0.55933000  1
  N  N21  1  0.01144300  0.74299500  0.44067000  1
  N  N22  1  0.01144300  0.24299500  0.05933000  1
  N  N23  1  0.51144300  0.75700500  0.94067000  1
  Cl  Cl0  1  0.09851200  0.12809600  0.71382900  1
  Cl  Cl1  1  0.59851200  0.87190400  0.28617100  1
  Cl  Cl2  1  0.59851200  0.37190400  0.21382900  1
  Cl  Cl3  1  0.09851200  0.62809600  0.78617100  1
  Cl  Cl4  1  0.75992600  0.17232900  0.92018900  1
  Cl  Cl5  1  0.25992600  0.82767100  0.07981100  1
  Cl  Cl6  1  0.25992600  0.32767100  0.42018900  1
  Cl  Cl7  1  0.75992600  0.67232900  0.57981100  1
  Cl  Cl8  1  0.63034500  0.47823400  0.80146100  1
  Cl  Cl9  1  0.13034500  0.52176600  0.19853900  1
  Cl  Cl10  1  0.13034500  0.02176600  0.30146100  1
  Cl  Cl11  1  0.63034500  0.97823400  0.69853900  1
  O  O0  1  0.38396100  0.43943100  0.67487200  1
  O  O1  1  0.88396100  0.56056900  0.32512800  1
  O  O2  1  0.88396100  0.06056900  0.17487200  1
  O  O3  1  0.38396100  0.93943100  0.82512800  1
  O  O4  1  0.54428500  0.75418100  0.87504800  1
  O  O5  1  0.04428500  0.24581900  0.12495200  1
  O  O6  1  0.04428500  0.74581900  0.37504800  1
  O  O7  1  0.54428500  0.25418100  0.62495200  1
loop_
_geom_bond_atom_site_label_1
_geom_bond_atom_site_label_2
_geom_bond_distance
_geom_bond_site_symmetry_2
H0 O3 0.981472 1_555
H1 O2 0.981472 1_555
H2 O1 0.981472 1_555
H3 O0 0.981472 1_555
H4 H40 0.750341 1_555
H8 N4 1.023561 1_455
H9 N5 1.023561 1_555
H10 N6 1.023561 1_555
H11 N7 1.023561 1_455
H12 N4 1.021671 1_555
H13 N5 1.021671 1_555
H14 N6 1.021671 1_556
H15 N7 1.021671 1_554
H20 N8 1.018848 1_555
H21 N9 1.018848 1_555
H22 N10 1.018848 1_556
H23 N11 1.018848 1_554
H24 N4 1.021993 1_555
H25 N5 1.021993 1_555
H26 N6 1.021993 1_555
H27 N7 1.021993 1_555
H28 N8 1.025484 1_555
H29 N9 1.025484 1_555
H30 N10 1.025484 1_555
H31 N11 1.025484 1_555
H32 N12 1.020694 1_555
H33 N13 1.020694 1_555
H34 N14 1.020694 1_555
H35 N15 1.020694 1_555
H36 N12 1.019421 1_555
H37 N13 1.019421 1_555
H38 N14 1.019421 1_555
H39 N15 1.019421 1_555
H41 H5 0.750341 1_555
H42 H6 0.750341 1_555
H43 H7 0.750341 1_555
H44 N16 1.018927 1_555
H45 N17 1.018927 1_555
H46 N18 1.018927 1_555
H47 N19 1.018927 1_555
H48 N16 1.025821 1_555
H49 N17 1.025821 1_555
H50 N18 1.025821 1_555
H51 N19 1.025821 1_555
H56 N2 1.021677 1_555
H57 N3 1.021677 1_555
H58 N0 1.021677 1_555
H59 N1 1.021677 1_555
H60 N2 1.022031 1_555
H61 N3 1.022031 1_555
H62 N0 1.022031 1_555
H63 N1 1.022031 1_555
H64 N2 1.021259 1_555
H65 N3 1.021259 1_555
H66 N0 1.021259 1_555
H67 N1 1.021259 1_555
N10 N22 1.324806 1_655
N11 N23 1.324806 1_555
N12 Ru1 1.867227 1_555
N13 Ru0 1.867227 1_555
N14 Ru3 1.867227 1_555
N15 Ru2 1.867227 1_555
N16 Ru1 1.855248 1_555
N17 Ru0 1.855248 1_555
N18 Ru3 1.855248 1_555
N19 Ru2 1.855248 1_555
N20 O7 1.264229 1_555
N20 N8 1.324806 1_555
N21 O6 1.264229 1_555
N21 N9 1.324806 1_455
N22 O5 1.264229 1_555
N23 O4 1.264229 1_555
Cl0 H52 1.295181 1_455
Cl1 H53 1.295181 1_555
Cl2 H54 1.295181 1_555
Cl3 H55 1.295181 1_455
Cl4 H18 1.292975 1_555
Cl5 H19 1.292975 1_555
Cl6 H16 1.292975 1_555
Cl7 H17 1.292975 1_555
Cl8 Ru1 2.384019 1_555
Cl9 Ru0 2.384019 1_555
Cl10 Ru3 2.384019 1_555
Cl11 Ru2 2.384019 1_555
O0 Ru1 1.902003 1_555
O1 Ru0 1.902003 1_655
O2 Ru3 1.902003 1_655
O3 Ru2 1.902003 1_555
O4 Ru2 2.057768 1_555
O5 Ru3 2.057768 1_555
O6 Ru0 2.057768 1_555
O7 Ru1 2.057768 1_555
