# generated using pymatgen
data_CdPbO6
_symmetry_space_group_name_H-M   'P 1'
_cell_length_a   7.88880200
_cell_length_b   7.88880200
_cell_length_c   7.88880200
_cell_angle_alpha   90.00000000
_cell_angle_beta   90.00000000
_cell_angle_gamma   90.00000000
_symmetry_Int_Tables_number   1
_chemical_formula_structural   CdPbO6
_chemical_formula_sum   'Cd4 Pb4 O24'
_cell_volume   490.94536892
_cell_formula_units_Z   4
loop_
 _symmetry_equiv_pos_site_id
 _symmetry_equiv_pos_as_xyz
  1  'x, y, z'
loop_
 _atom_site_type_symbol
 _atom_site_label
 _atom_site_symmetry_multiplicity
 _atom_site_fract_x
 _atom_site_fract_y
 _atom_site_fract_z
 _atom_site_occupancy
  Cd  Cd0  1  0.75000000  0.25000000  0.25000000  1
  Cd  Cd1  1  0.25000000  0.25000000  0.75000000  1
  Cd  Cd2  1  0.25000000  0.75000000  0.25000000  1
  Cd  Cd3  1  0.75000000  0.75000000  0.75000000  1
  Pb  Pb0  1  0.25000000  0.75000000  0.75000000  1
  Pb  Pb1  1  0.75000000  0.75000000  0.25000000  1
  Pb  Pb2  1  0.75000000  0.25000000  0.75000000  1
  Pb  Pb3  1  0.25000000  0.25000000  0.25000000  1
  O  O0  1  0.50682300  0.41265000  0.16323400  1
  O  O1  1  0.49317700  0.41265000  0.83676600  1
  O  O2  1  0.49317700  0.58735000  0.16323400  1
  O  O3  1  0.50682300  0.58735000  0.83676600  1
  O  O4  1  0.16323400  0.50682300  0.41265000  1
  O  O5  1  0.83676600  0.49317700  0.41265000  1
  O  O6  1  0.16323400  0.49317700  0.58735000  1
  O  O7  1  0.83676600  0.50682300  0.58735000  1
  O  O8  1  0.41265000  0.16323400  0.50682300  1
  O  O9  1  0.41265000  0.83676600  0.49317700  1
  O  O10  1  0.58735000  0.16323400  0.49317700  1
  O  O11  1  0.58735000  0.83676600  0.50682300  1
  O  O12  1  0.99317700  0.08735000  0.33676600  1
  O  O13  1  0.00682300  0.08735000  0.66323400  1
  O  O14  1  0.00682300  0.91265000  0.33676600  1
  O  O15  1  0.99317700  0.91265000  0.66323400  1
  O  O16  1  0.33676600  0.99317700  0.08735000  1
  O  O17  1  0.66323400  0.00682300  0.08735000  1
  O  O18  1  0.33676600  0.00682300  0.91265000  1
  O  O19  1  0.66323400  0.99317700  0.91265000  1
  O  O20  1  0.08735000  0.33676600  0.99317700  1
  O  O21  1  0.08735000  0.66323400  0.00682300  1
  O  O22  1  0.91265000  0.33676600  0.00682300  1
  O  O23  1  0.91265000  0.66323400  0.99317700  1
loop_
_geom_bond_atom_site_label_1
_geom_bond_atom_site_label_2
_geom_bond_distance
_geom_bond_site_symmetry_2
Cd0 O5 2.407292 1_555
Cd0 O12 2.407292 1_555
Cd0 O0 2.407292 1_555
Cd0 O22 2.407292 1_555
Cd0 O10 2.407292 1_555
Cd0 O17 2.407292 1_555
Cd1 O6 2.407292 1_555
Cd1 O1 2.407292 1_555
Cd1 O20 2.407292 1_555
Cd1 O18 2.407292 1_555
Cd1 O8 2.407292 1_555
Cd1 O13 2.407292 1_555
Cd2 O9 2.407292 1_555
Cd2 O14 2.407292 1_555
Cd2 O16 2.407292 1_555
Cd2 O4 2.407292 1_555
Cd2 O2 2.407292 1_555
Cd2 O21 2.407292 1_555
Cd3 O7 2.407292 1_555
Cd3 O19 2.407292 1_555
Cd3 O3 2.407292 1_555
Cd3 O23 2.407292 1_555
Cd3 O15 2.407292 1_555
Cd3 O11 2.407292 1_555
O0 O2 1.382372 1_555
O0 Pb3 2.493927 1_555
O1 O3 1.382372 1_555
O1 Pb2 2.493927 1_555
O2 Pb1 2.493927 1_555
O3 Pb0 2.493927 1_555
O4 O6 1.382372 1_555
O4 Pb3 2.493927 1_555
O5 O7 1.382372 1_555
O5 Pb1 2.493927 1_555
O6 Pb0 2.493927 1_555
O7 Pb2 2.493927 1_555
O8 Pb3 2.493927 1_555
O9 Pb0 2.493927 1_555
O10 O8 1.382372 1_555
O10 Pb2 2.493927 1_555
O11 O9 1.382372 1_555
O11 Pb1 2.493927 1_555
O12 O14 1.382372 1_645
O12 Pb3 2.493927 1_655
O13 O15 1.382372 1_445
O13 Pb2 2.493927 1_455
O14 Pb1 2.493927 1_455
O15 Pb0 2.493927 1_655
O16 O18 1.382372 1_564
O16 Pb3 2.493927 1_565
O17 O19 1.382372 1_544
O17 Pb1 2.493927 1_545
O18 Pb0 2.493927 1_545
O19 Pb2 2.493927 1_565
O20 O22 1.382372 1_456
O20 Pb3 2.493927 1_556
O21 O23 1.382372 1_454
O21 Pb0 2.493927 1_554
O22 Pb2 2.493927 1_554
O23 Pb1 2.493927 1_556
