# generated using pymatgen
data_Nb4NiS8
_symmetry_space_group_name_H-M   'P 1'
_cell_length_a   6.71279689
_cell_length_b   6.71279447
_cell_length_c   11.99779314
_cell_angle_alpha   90.00001788
_cell_angle_beta   89.99998748
_cell_angle_gamma   119.99959000
_symmetry_Int_Tables_number   1
_chemical_formula_structural   Nb4NiS8
_chemical_formula_sum   'Nb8 Ni2 S16'
_cell_volume   468.20996526
_cell_formula_units_Z   2
loop_
 _symmetry_equiv_pos_site_id
 _symmetry_equiv_pos_as_xyz
  1  'x, y, z'
loop_
 _atom_site_type_symbol
 _atom_site_label
 _atom_site_symmetry_multiplicity
 _atom_site_fract_x
 _atom_site_fract_y
 _atom_site_fract_z
 _atom_site_occupancy
  Nb  Nb0  1  -0.00000011  0.00000027  0.24995512  1
  Nb  Nb1  1  0.00000024  0.00000007  0.75004300  1
  Nb  Nb2  1  0.50709966  0.01420002  0.24995136  1
  Nb  Nb3  1  0.98580015  0.49289952  0.24995134  1
  Nb  Nb4  1  0.50710004  0.49290090  0.24995133  1
  Nb  Nb5  1  0.49290045  0.98580230  0.75004901  1
  Nb  Nb6  1  0.01419806  0.50709871  0.75004906  1
  Nb  Nb7  1  0.49290179  0.50709904  0.75004902  1
  Ni  Ni0  1  0.00000025  0.00000029  0.49994303  1
  Ni  Ni1  1  -0.00000122  -0.00000130  0.00005819  1
  S  S0  1  0.33333334  0.66666698  0.88403268  1
  S  S1  1  0.66666681  0.33333330  0.11598595  1
  S  S2  1  0.66666688  0.33333336  0.38391438  1
  S  S3  1  0.33333320  0.66666687  0.61606958  1
  S  S4  1  0.83331996  0.66664072  0.87973121  1
  S  S5  1  0.33335925  0.16667960  0.87973131  1
  S  S6  1  0.83332015  0.16668016  0.87973115  1
  S  S7  1  0.16668252  0.33336542  0.12029138  1
  S  S8  1  0.66663444  0.83331692  0.12029145  1
  S  S9  1  0.16668310  0.83331721  0.12029155  1
  S  S10  1  0.16665871  0.33331750  0.37960454  1
  S  S11  1  0.66668341  0.83333901  0.37960425  1
  S  S12  1  0.16665925  0.83334134  0.37960444  1
  S  S13  1  0.83334140  0.66668347  0.62037322  1
  S  S14  1  0.33331667  0.16665838  0.62037315  1
  S  S15  1  0.83334162  0.16665894  0.62037330  1
loop_
_geom_bond_atom_site_label_1
_geom_bond_atom_site_label_2
_geom_bond_distance
_geom_bond_site_symmetry_2
Nb0 S11 2.484830 1_445
Nb0 S12 2.484830 1_545
Nb0 S10 2.484835 1_555
Nb0 S9 2.485154 1_545
Nb0 S7 2.485160 1_555
Nb0 S8 2.485161 1_445
Nb1 S15 2.484980 1_455
Nb1 S13 2.484985 1_445
Nb1 S14 2.484985 1_555
Nb1 S6 2.485311 1_455
Nb1 S5 2.485317 1_555
Nb1 S4 2.485317 1_445
Nb2 S2 2.454654 1_555
Nb2 S1 2.454673 1_555
Nb2 S8 2.518246 1_545
Nb2 S9 2.518250 1_545
Nb2 S12 2.518302 1_545
Nb2 S11 2.518311 1_545
Nb3 S2 2.454654 1_555
Nb3 S1 2.454673 1_555
Nb3 S7 2.518240 1_655
Nb3 S9 2.518254 1_655
Nb3 S10 2.518294 1_655
Nb3 S12 2.518308 1_655
Nb4 S2 2.454651 1_555
Nb4 S1 2.454668 1_555
Nb4 S8 2.518247 1_555
Nb4 S7 2.518254 1_555
Nb4 S11 2.518288 1_555
Nb4 S10 2.518306 1_555
Nb5 S3 2.454792 1_555
Nb5 S0 2.454825 1_555
Nb5 S5 2.518413 1_565
Nb5 S6 2.518428 1_565
Nb5 S14 2.518458 1_565
Nb5 S15 2.518473 1_565
Nb6 S3 2.454792 1_555
Nb6 S0 2.454825 1_555
Nb6 S4 2.518420 1_455
Nb6 S6 2.518423 1_455
Nb6 S13 2.518465 1_455
Nb6 S15 2.518466 1_455
Nb7 S3 2.454789 1_555
Nb7 S0 2.454821 1_555
Nb7 S4 2.518421 1_555
Nb7 S5 2.518427 1_555
Nb7 S13 2.518465 1_555
Nb7 S14 2.518470 1_555
Ni0 S12 2.416469 1_545
Ni0 S10 2.416475 1_555
Ni0 S11 2.416476 1_445
Ni0 S15 2.417123 1_455
Ni0 S14 2.417129 1_555
Ni0 S13 2.417131 1_445
Ni1 S9 2.415939 1_545
Ni1 S8 2.415941 1_445
Ni1 S7 2.415951 1_555
Ni1 S4 2.416582 1_444
Ni1 S6 2.416583 1_454
Ni1 S5 2.416594 1_554
