# generated using pymatgen
data_Sr3(MnN2)2
_symmetry_space_group_name_H-M   'P 1'
_cell_length_a   5.91347900
_cell_length_b   9.87271500
_cell_length_c   9.60093000
_cell_angle_alpha   90.00000000
_cell_angle_beta   90.00000000
_cell_angle_gamma   90.00000000
_symmetry_Int_Tables_number   1
_chemical_formula_structural   Sr3(MnN2)2
_chemical_formula_sum   'Sr12 Mn8 N16'
_cell_volume   560.52238647
_cell_formula_units_Z   4
loop_
 _symmetry_equiv_pos_site_id
 _symmetry_equiv_pos_as_xyz
  1  'x, y, z'
loop_
 _atom_site_type_symbol
 _atom_site_label
 _atom_site_symmetry_multiplicity
 _atom_site_fract_x
 _atom_site_fract_y
 _atom_site_fract_z
 _atom_site_occupancy
  Sr  Sr0  1  0.61488100  0.15755800  0.41623200  1
  Sr  Sr1  1  0.88511900  0.84244200  0.41623200  1
  Sr  Sr2  1  0.61488100  0.34244200  0.08376800  1
  Sr  Sr3  1  0.88511900  0.65755800  0.08376800  1
  Sr  Sr4  1  0.38511900  0.84244200  0.58376800  1
  Sr  Sr5  1  0.11488100  0.15755800  0.58376800  1
  Sr  Sr6  1  0.38511900  0.65755800  0.91623200  1
  Sr  Sr7  1  0.11488100  0.34244200  0.91623200  1
  Sr  Sr8  1  0.75000000  0.50000000  0.40312400  1
  Sr  Sr9  1  0.75000000  0.00000000  0.09687600  1
  Sr  Sr10  1  0.25000000  0.50000000  0.59687600  1
  Sr  Sr11  1  0.25000000  0.00000000  0.90312400  1
  Mn  Mn0  1  0.75000000  0.50000000  0.73597700  1
  Mn  Mn1  1  0.75000000  0.00000000  0.76402300  1
  Mn  Mn2  1  0.25000000  0.50000000  0.26402300  1
  Mn  Mn3  1  0.25000000  0.00000000  0.23597700  1
  Mn  Mn4  1  0.65229800  0.25000000  0.75000000  1
  Mn  Mn5  1  0.84770200  0.75000000  0.75000000  1
  Mn  Mn6  1  0.34770200  0.75000000  0.25000000  1
  Mn  Mn7  1  0.15229800  0.25000000  0.25000000  1
  N  N0  1  0.86701000  0.35967700  0.63140000  1
  N  N1  1  0.63299000  0.64032300  0.63140000  1
  N  N2  1  0.86701000  0.14032300  0.86860000  1
  N  N3  1  0.63299000  0.85967700  0.86860000  1
  N  N4  1  0.13299000  0.64032300  0.36860000  1
  N  N5  1  0.36701000  0.35967700  0.36860000  1
  N  N6  1  0.13299000  0.85967700  0.13140000  1
  N  N7  1  0.36701000  0.14032300  0.13140000  1
  N  N8  1  0.51697400  0.41466600  0.83314000  1
  N  N9  1  0.98302600  0.58533400  0.83314000  1
  N  N10  1  0.51697400  0.08533400  0.66686000  1
  N  N11  1  0.98302600  0.91466600  0.66686000  1
  N  N12  1  0.48302600  0.58533400  0.16686000  1
  N  N13  1  0.01697400  0.41466600  0.16686000  1
  N  N14  1  0.48302600  0.91466600  0.33314000  1
  N  N15  1  0.01697400  0.08533400  0.33314000  1
loop_
_geom_bond_atom_site_label_1
_geom_bond_atom_site_label_2
_geom_bond_distance
_geom_bond_site_symmetry_2
Mn0 N1 1.845566 1_555
Mn0 N0 1.845566 1_555
Mn0 N9 1.865169 1_555
Mn0 N8 1.865169 1_555
Mn1 N2 1.845566 1_555
Mn1 N3 1.845566 1_545
Mn1 N11 1.865169 1_545
Mn1 N10 1.865169 1_555
Mn2 N4 1.845566 1_555
Mn2 N5 1.845566 1_555
Mn2 N12 1.865169 1_555
Mn2 N13 1.865169 1_555
Mn3 N7 1.845566 1_555
Mn3 N6 1.845566 1_545
Mn3 N14 1.865169 1_545
Mn3 N15 1.865169 1_555
Mn4 N10 1.980009 1_555
Mn4 N8 1.980009 1_555
Mn4 N0 2.020191 1_555
Mn4 N2 2.020191 1_555
Mn5 N11 1.980009 1_555
Mn5 N9 1.980009 1_555
Mn5 N3 2.020191 1_555
Mn5 N1 2.020191 1_555
Mn6 N12 1.980009 1_555
Mn6 N14 1.980009 1_555
Mn6 N6 2.020191 1_555
Mn6 N4 2.020191 1_555
Mn7 N13 1.980009 1_555
Mn7 N15 1.980009 1_555
Mn7 N5 2.020191 1_555
Mn7 N7 2.020191 1_555
N0 Sr5 2.517840 1_655
N0 Sr10 2.675528 1_655
N0 Sr8 2.683543 1_555
N1 Sr4 2.517840 1_555
N1 Sr10 2.675528 1_555
N1 Sr8 2.683543 1_555
N2 Sr7 2.517840 1_655
N2 Sr11 2.675528 1_655
N2 Sr9 2.683543 1_556
N3 Sr6 2.517840 1_555
N3 Sr11 2.675528 1_565
N3 Sr9 2.683543 1_566
N4 Sr1 2.517840 1_455
N4 Sr8 2.675528 1_455
N4 Sr10 2.683543 1_555
N5 Sr0 2.517840 1_555
N5 Sr8 2.675528 1_555
N5 Sr10 2.683543 1_555
N6 Sr3 2.517840 1_455
N6 Sr9 2.675528 1_465
N6 Sr11 2.683543 1_564
N7 Sr2 2.517840 1_555
N7 Sr9 2.675528 1_555
N7 Sr11 2.683543 1_554
N8 Sr2 2.575605 1_556
N8 Sr7 2.607420 1_555
N8 Sr6 2.644770 1_555
N8 Sr10 2.889228 1_555
N9 Sr3 2.575605 1_556
N9 Sr6 2.607420 1_655
N9 Sr7 2.644770 1_655
N9 Sr10 2.889228 1_655
N10 Sr0 2.575605 1_555
N10 Sr5 2.607420 1_555
N10 Sr4 2.644770 1_545
N10 Sr11 2.889228 1_555
N11 Sr1 2.575605 1_555
N11 Sr4 2.607420 1_655
N11 Sr5 2.644770 1_665
N11 Sr11 2.889228 1_665
N12 Sr6 2.575605 1_554
N12 Sr3 2.607420 1_555
N12 Sr2 2.644770 1_555
N12 Sr8 2.889228 1_555
N13 Sr7 2.575605 1_554
N13 Sr2 2.607420 1_455
N13 Sr3 2.644770 1_455
N13 Sr8 2.889228 1_455
N14 Sr4 2.575605 1_555
N14 Sr1 2.607420 1_555
N14 Sr0 2.644770 1_565
N14 Sr9 2.889228 1_565
N15 Sr5 2.575605 1_555
N15 Sr0 2.607420 1_455
N15 Sr1 2.644770 1_445
N15 Sr9 2.889228 1_455
