# generated using pymatgen
data_Li4Mn3CoO8
_symmetry_space_group_name_H-M   'P 1'
_cell_length_a   3.07454800
_cell_length_b   5.04651300
_cell_length_c   10.01416528
_cell_angle_alpha   77.60318128
_cell_angle_beta   90.00000000
_cell_angle_gamma   90.00000000
_symmetry_Int_Tables_number   1
_chemical_formula_structural   Li4Mn3CoO8
_chemical_formula_sum   'Li4 Mn3 Co1 O8'
_cell_volume   151.75450445
_cell_formula_units_Z   1
loop_
 _symmetry_equiv_pos_site_id
 _symmetry_equiv_pos_as_xyz
  1  'x, y, z'
loop_
 _atom_site_type_symbol
 _atom_site_label
 _atom_site_symmetry_multiplicity
 _atom_site_fract_x
 _atom_site_fract_y
 _atom_site_fract_z
 _atom_site_occupancy
  Li  Li0  1  0.00000000  0.25169500  0.25033600  1
  Li  Li1  1  0.50000000  0.25089800  0.75259300  1
  Li  Li2  1  0.00000000  0.74830500  0.74966400  1
  Li  Li3  1  0.50000000  0.74910200  0.24740700  1
  Mn  Mn0  1  0.50000000  0.00000000  0.50000000  1
  Mn  Mn1  1  0.00000000  0.50000000  0.50000000  1
  Mn  Mn2  1  0.50000000  0.50000000  0.00000000  1
  Co  Co0  1  0.00000000  0.00000000  0.00000000  1
  O  O0  1  0.00000000  0.36165300  0.88264700  1
  O  O1  1  0.50000000  0.35830800  0.38320200  1
  O  O2  1  0.00000000  0.85881400  0.38538900  1
  O  O3  1  0.50000000  0.86341900  0.88934300  1
  O  O4  1  0.00000000  0.14118600  0.61461100  1
  O  O5  1  0.50000000  0.13658100  0.11065700  1
  O  O6  1  0.00000000  0.63834700  0.11735300  1
  O  O7  1  0.50000000  0.64169200  0.61679800  1
loop_
_geom_bond_atom_site_label_1
_geom_bond_atom_site_label_2
_geom_bond_distance
_geom_bond_site_symmetry_2
Li0 O6 2.113083 1_555
Li0 O2 2.146812 1_545
Li0 O1 2.174946 1_455
Li0 O1 2.174946 1_555
Li0 O5 2.237438 1_455
Li0 O5 2.237438 1_555
Li1 O3 2.132900 1_545
Li1 O7 2.141758 1_555
Li1 O0 2.164338 1_555
Li1 O0 2.164338 1_655
Li1 O4 2.215295 1_655
Li1 O4 2.215295 1_555
Li2 O0 2.113083 1_555
Li2 O4 2.146812 1_565
Li2 O7 2.174946 1_455
Li2 O7 2.174946 1_555
Li2 O3 2.237438 1_455
Li2 O3 2.237438 1_555
Li3 O5 2.132900 1_565
Li3 O1 2.141758 1_555
Li3 O6 2.164338 1_555
Li3 O6 2.164338 1_655
Li3 O2 2.215295 1_555
Li3 O2 2.215295 1_655
Mn0 O1 1.931212 1_555
Mn0 O7 1.931212 1_545
Mn0 O2 2.130556 1_545
Mn0 O2 2.130556 1_645
Mn0 O4 2.130556 1_555
Mn0 O4 2.130556 1_655
Mn1 O2 1.924529 1_555
Mn1 O4 1.924529 1_555
Mn1 O7 2.145146 1_455
Mn1 O7 2.145146 1_555
Mn1 O1 2.145146 1_455
Mn1 O1 2.145146 1_555
Mn2 O3 1.928449 1_554
Mn2 O5 1.928449 1_555
Mn2 O0 2.141031 1_654
Mn2 O6 2.141031 1_555
Mn2 O0 2.141031 1_554
Mn2 O6 2.141031 1_655
Co0 O6 1.947077 1_545
Co0 O0 1.947077 1_554
Co0 O5 2.096235 1_455
Co0 O5 2.096235 1_555
Co0 O3 2.096235 1_544
Co0 O3 2.096235 1_444
