# generated using pymatgen
data_K5Na3Nb4(WO5)4
_symmetry_space_group_name_H-M   'P 1'
_cell_length_a   11.60795552
_cell_length_b   11.82283578
_cell_length_c   17.69029640
_cell_angle_alpha   109.61129466
_cell_angle_beta   109.09629653
_cell_angle_gamma   90.17128573
_symmetry_Int_Tables_number   1
_chemical_formula_structural   K5Na3Nb4(WO5)4
_chemical_formula_sum   'K20 Na12 Nb16 W16 O80'
_cell_volume   2143.69257273
_cell_formula_units_Z   4
loop_
 _symmetry_equiv_pos_site_id
 _symmetry_equiv_pos_as_xyz
  1  'x, y, z'
loop_
 _atom_site_type_symbol
 _atom_site_label
 _atom_site_symmetry_multiplicity
 _atom_site_fract_x
 _atom_site_fract_y
 _atom_site_fract_z
 _atom_site_occupancy
  K  K0  1  0.30289000  0.06684300  0.11054200  1
  K  K1  1  0.30631500  0.56565800  0.10783000  1
  K  K2  1  0.79951800  0.06221600  0.10429800  1
  K  K3  1  0.80932200  0.56247700  0.11281700  1
  K  K4  1  0.81456900  0.57235000  0.61893400  1
  K  K5  1  0.20462400  0.93618100  0.39727200  1
  K  K6  1  0.19409600  0.92884500  0.87949100  1
  K  K7  1  0.69653500  0.43726700  0.39128800  1
  K  K8  1  0.68747200  0.42380300  0.88242900  1
  K  K9  1  0.69739600  0.93358500  0.38902600  1
  K  K10  1  0.69276200  0.92094200  0.87774300  1
  K  K11  1  0.04847700  0.28874400  0.10536900  1
  K  K12  1  0.05854500  0.79152300  0.10790500  1
  K  K13  1  0.55370300  0.29970600  0.11188000  1
  K  K14  1  0.55862600  0.79513200  0.11294700  1
  K  K15  1  0.44535000  0.20679300  0.39167200  1
  K  K16  1  0.45381000  0.71404800  0.39568400  1
  K  K17  1  0.44696400  0.70639000  0.88607800  1
  K  K18  1  0.95122900  0.70395500  0.39058400  1
  K  K19  1  0.94142700  0.69943800  0.87929400  1
  Na  Na0  1  0.29898700  0.07794800  0.60531900  1
  Na  Na1  1  0.30483100  0.56902900  0.60350300  1
  Na  Na2  1  0.80082400  0.07062000  0.60164400  1
  Na  Na3  1  0.20449900  0.43606300  0.40705300  1
  Na  Na4  1  0.19661200  0.42755600  0.89534800  1
  Na  Na5  1  0.04752200  0.27854300  0.60387600  1
  Na  Na6  1  0.05982700  0.79121900  0.60821100  1
  Na  Na7  1  0.55275600  0.28215400  0.60076500  1
  Na  Na8  1  0.55931700  0.78959800  0.60819000  1
  Na  Na9  1  0.44409100  0.21554700  0.89578800  1
  Na  Na10  1  0.95573300  0.22049900  0.40768800  1
  Na  Na11  1  0.94659400  0.21725100  0.89665000  1
  Nb  Nb0  1  0.09100400  0.08408000  0.25461100  1
  Nb  Nb1  1  0.08527600  0.08365300  0.74603600  1
  Nb  Nb2  1  0.13992100  0.58000900  0.25460800  1
  Nb  Nb3  1  0.13431600  0.57039700  0.74721200  1
  Nb  Nb4  1  0.61923000  0.09413500  0.25057500  1
  Nb  Nb5  1  0.58301300  0.07769200  0.74583900  1
  Nb  Nb6  1  0.60921000  0.59649800  0.25201600  1
  Nb  Nb7  1  0.59872200  0.57052200  0.74264100  1
  Nb  Nb8  1  0.33659700  0.42194200  0.25395600  1
  Nb  Nb9  1  0.33350700  0.42018000  0.74573000  1
  Nb  Nb10  1  0.36115400  0.90782500  0.25187200  1
  Nb  Nb11  1  0.37142300  0.92516000  0.74497700  1
  Nb  Nb12  1  0.87377200  0.40297100  0.25278500  1
  Nb  Nb13  1  0.85797500  0.39948600  0.74572400  1
  Nb  Nb14  1  0.89104400  0.92704100  0.25422500  1
  Nb  Nb15  1  0.87557100  0.93287600  0.74783200  1
  W  W0  1  0.99951700  0.99602000  0.99538200  1
  W  W1  1  0.00770600  0.00213200  0.50472800  1
  W  W2  1  0.00098500  0.49642000  0.99621200  1
  W  W3  1  0.01022700  0.50222800  0.50509100  1
  W  W4  1  0.50026400  0.99854000  0.99546200  1
  W  W5  1  0.50938000  0.00527900  0.50902500  1
  W  W6  1  0.49899200  0.49759600  0.99492300  1
  W  W7  1  0.50817300  0.50369700  0.50515400  1
  W  W8  1  0.24759200  0.24674500  0.99493600  1
  W  W9  1  0.25612500  0.25338100  0.50489500  1
  W  W10  1  0.25143400  0.74711000  0.99481000  1
  W  W11  1  0.26158100  0.75298400  0.50719000  1
  W  W12  1  0.74788600  0.24433800  0.99457300  1
  W  W13  1  0.75848400  0.25134700  0.50349800  1
  W  W14  1  0.75240900  0.74598300  0.99776100  1
  W  W15  1  0.76171100  0.75501000  0.50753500  1
  O  O0  1  0.12458000  0.12482700  0.49448200  1
  O  O1  1  0.11847700  0.11954800  0.98792100  1
  O  O2  1  0.13088900  0.61979300  0.49342500  1
  O  O3  1  0.12050100  0.61343300  0.98254100  1
  O  O4  1  0.62932700  0.12514700  0.49875800  1
  O  O5  1  0.61767900  0.11829300  0.98580100  1
  O  O6  1  0.62927500  0.62705900  0.49834200  1
  O  O7  1  0.62410300  0.61991100  0.99261900  1
  O  O8  1  0.12576900  0.37308200  0.99834100  1
  O  O9  1  0.13911800  0.38373000  0.51492000  1
  O  O10  1  0.12837700  0.87563600  0.00193500  1
  O  O11  1  0.14185000  0.88481200  0.52102700  1
  O  O12  1  0.62478400  0.37215400  0.00146700  1
  O  O13  1  0.63732100  0.38191600  0.51657700  1
  O  O14  1  0.63022200  0.87564100  0.00449000  1
  O  O15  1  0.64323000  0.88775000  0.52253100  1
  O  O16  1  0.37870400  0.12590500  0.50027900  1
  O  O17  1  0.37125500  0.12076900  0.98715400  1
  O  O18  1  0.37691700  0.62088700  0.49533800  1
  O  O19  1  0.36947300  0.61693500  0.98664100  1
  O  O20  1  0.87698900  0.11977700  0.48857400  1
  O  O21  1  0.86973600  0.11564200  0.98373600  1
  O  O22  1  0.88216900  0.62411900  0.49670900  1
  O  O23  1  0.87318200  0.61764800  0.99066500  1
  O  O24  1  0.37447600  0.37370900  0.99787800  1
  O  O25  1  0.38771700  0.38649100  0.51808100  1
  O  O26  1  0.37971700  0.87863700  0.00468300  1
  O  O27  1  0.39278300  0.88574000  0.52334300  1
  O  O28  1  0.87864300  0.37396700  0.00330400  1
  O  O29  1  0.89266700  0.38018200  0.51613500  1
  O  O30  1  0.87817500  0.87394200  0.00140200  1
  O  O31  1  0.88984800  0.88542800  0.51780100  1
  O  O32  1  0.06207200  0.07573800  0.13981500  1
  O  O33  1  0.06719800  0.09908300  0.63910800  1
  O  O34  1  0.08462800  0.57903900  0.13982700  1
  O  O35  1  0.09173600  0.60001400  0.64282400  1
  O  O36  1  0.57062900  0.08381500  0.13316900  1
  O  O37  1  0.57041100  0.10369900  0.64344100  1
  O  O38  1  0.57096600  0.57400000  0.13338000  1
  O  O39  1  0.58335600  0.60168400  0.64122100  1
  O  O40  1  0.43271800  0.41937000  0.36384800  1
  O  O41  1  0.42777100  0.42045900  0.85665600  1
  O  O42  1  0.44105700  0.92531700  0.37030800  1
  O  O43  1  0.43527100  0.91330100  0.85416400  1
  O  O44  1  0.94350400  0.40116500  0.36674700  1
  O  O45  1  0.92664300  0.40229000  0.86015300  1
  O  O46  1  0.94956000  0.90876800  0.36221700  1
  O  O47  1  0.93745100  0.91325800  0.85488500  1
  O  O48  1  0.30883800  0.31377300  0.13958800  1
  O  O49  1  0.31806700  0.29729300  0.64021700  1
  O  O50  1  0.31784900  0.80735000  0.13291500  1
  O  O51  1  0.33831500  0.78855600  0.64334000  1
  O  O52  1  0.82338800  0.29797200  0.13511600  1
  O  O53  1  0.83669800  0.28152300  0.63695300  1
  O  O54  1  0.83772300  0.80839800  0.14158400  1
  O  O55  1  0.84728100  0.80181600  0.64483300  1
  O  O56  1  0.18733600  0.19985300  0.36408600  1
  O  O57  1  0.17900800  0.19204200  0.85762000  1
  O  O58  1  0.19839700  0.70245700  0.36552600  1
  O  O59  1  0.19456300  0.69409600  0.85560500  1
  O  O60  1  0.68915500  0.20318700  0.36660300  1
  O  O61  1  0.67445300  0.18553700  0.85762800  1
  O  O62  1  0.69097600  0.69922200  0.36988200  1
  O  O63  1  0.67978700  0.67879900  0.85795600  1
  O  O64  1  0.45891600  0.04477500  0.25110500  1
  O  O65  1  0.41064800  0.09214000  0.74683800  1
  O  O66  1  0.45224600  0.54876500  0.25290300  1
  O  O67  1  0.42617000  0.55667300  0.73454500  1
  O  O68  1  0.92621600  0.10100500  0.26481800  1
  O  O69  1  0.91282100  0.09882800  0.74804400  1
  O  O70  1  0.97158600  0.53514600  0.25356200  1
  O  O71  1  0.96785100  0.52546600  0.74706200  1
  O  O72  1  0.17187500  0.41636600  0.26443900  1
  O  O73  1  0.16353500  0.40086300  0.74731000  1
  O  O74  1  0.20158000  0.95166500  0.25413200  1
  O  O75  1  0.19780200  0.95429900  0.73537200  1
  O  O76  1  0.72008400  0.46936800  0.25402500  1
  O  O77  1  0.68342200  0.42327000  0.73159700  1
  O  O78  1  0.72335000  0.96786800  0.25128800  1
  O  O79  1  0.69971800  0.95292200  0.73591400  1
loop_
_geom_bond_atom_site_label_1
_geom_bond_atom_site_label_2
_geom_bond_distance
_geom_bond_site_symmetry_2
K0 O64 2.650106 1_555
K0 O10 2.723197 1_545
K0 O1 2.748298 1_554
K0 O26 2.749705 1_545
K0 O48 2.785744 1_555
K0 O17 2.804511 1_554
K0 O36 2.997985 1_555
K0 O32 3.000982 1_555
K0 O50 3.220618 1_545
K1 O66 2.645238 1_555
K1 O19 2.720184 1_554
K1 O50 2.736367 1_555
K1 O3 2.757429 1_554
K1 O24 2.759359 1_554
K1 O8 2.771781 1_554
K1 O34 2.804080 1_555
K1 O38 2.951488 1_555
K1 O48 3.209016 1_555
K2 O68 2.612676 1_555
K2 O14 2.633340 1_545
K2 O52 2.649443 1_555
K2 O5 2.708383 1_554
K2 O30 2.735239 1_545
K2 O21 2.766005 1_554
K2 O36 2.861776 1_555
K2 O32 2.895792 1_655
K2 O54 3.283610 1_545
K3 O70 2.706761 1_555
K3 O28 2.738659 1_555
K3 O7 2.755288 1_554
K3 O23 2.763307 1_554
K3 O54 2.777120 1_555
K3 O12 2.786920 1_555
K3 O38 2.904092 1_555
K3 O34 3.068181 1_655
K3 O52 3.278817 1_555
K4 O55 2.599957 1_555
K4 O71 2.611733 1_555
K4 O13 2.716446 1_555
K4 O6 2.743709 1_555
K4 O29 2.758322 1_555
K4 O22 2.767868 1_555
K4 O39 2.843457 1_555
K4 O35 3.106141 1_655
K5 O74 2.588322 1_555
K5 O58 2.624283 1_555
K5 O16 2.693511 1_565
K5 O0 2.697815 1_565
K5 O11 2.761589 1_555
K5 O27 2.795244 1_555
K5 O46 2.813139 1_455
K5 O42 2.931534 1_555
K6 O59 2.663789 1_555
K6 O75 2.679389 1_555
K6 O17 2.741082 1_565
K6 O10 2.768139 1_556
K6 O26 2.769047 1_556
K6 O1 2.782748 1_565
K6 O47 2.862339 1_455
K6 O43 2.973299 1_555
K7 O60 2.649507 1_555
K7 O76 2.677191 1_555
K7 O6 2.712282 1_555
K7 O22 2.752822 1_555
K7 O13 2.789424 1_555
K7 O29 2.869908 1_555
K7 O40 2.934802 1_555
K7 O44 3.047377 1_555
K7 O62 3.242184 1_555
K8 O77 2.651134 1_555
K8 O12 2.683288 1_556
K8 O61 2.697246 1_555
K8 O28 2.755489 1_556
K8 O7 2.762438 1_555
K8 O23 2.808855 1_555
K8 O41 2.895704 1_555
K8 O45 2.929256 1_555
K8 O63 3.183826 1_555
K9 O62 2.673970 1_555
K9 O20 2.694662 1_565
K9 O78 2.708275 1_555
K9 O4 2.754085 1_565
K9 O31 2.837739 1_555
K9 O15 2.845264 1_555
K9 O42 2.881852 1_555
K9 O46 3.114326 1_555
K10 O79 2.685835 1_555
K10 O30 2.732936 1_556
K10 O21 2.754772 1_565
K10 O63 2.762459 1_555
K10 O14 2.776716 1_556
K10 O5 2.822422 1_565
K10 O43 2.876328 1_555
K10 O47 2.994607 1_555
K11 O72 2.597403 1_555
K11 O28 2.658161 1_455
K11 O21 2.687119 1_454
K11 O1 2.702403 1_554
K11 O32 2.776294 1_555
K11 O8 2.785221 1_554
K11 O52 2.824621 1_455
K11 O48 2.874959 1_555
K11 O34 3.278214 1_555
K12 O74 2.629875 1_555
K12 O23 2.710858 1_454
K12 O10 2.720513 1_555
K12 O30 2.747073 1_455
K12 O34 2.750728 1_555
K12 O3 2.790507 1_554
K12 O54 2.808516 1_455
K12 O50 2.891452 1_555
K12 O32 3.212821 1_565
K13 O36 2.700975 1_555
K13 O12 2.720836 1_555
K13 O76 2.736798 1_555
K13 O24 2.758808 1_554
K13 O17 2.758887 1_554
K13 O5 2.829911 1_554
K13 O52 3.022157 1_555
K13 O48 3.034266 1_555
K13 O38 3.133642 1_555
K14 O78 2.715864 1_555
K14 O7 2.740116 1_554
K14 O14 2.746341 1_555
K14 O38 2.754819 1_555
K14 O26 2.763105 1_555
K14 O19 2.802572 1_554
K14 O50 2.927699 1_555
K14 O54 3.105950 1_555
K15 O64 2.634027 1_555
K15 O40 2.713974 1_555
K15 O16 2.721381 1_555
K15 O4 2.770191 1_555
K15 O25 2.785691 1_555
K15 O13 2.795445 1_555
K15 O56 2.868853 1_555
K15 O60 3.002844 1_555
K15 O42 3.219050 1_545
K16 O66 2.618257 1_555
K16 O42 2.678404 1_555
K16 O6 2.711145 1_555
K16 O18 2.728515 1_555
K16 O27 2.774968 1_555
K16 O15 2.781845 1_555
K16 O58 2.829685 1_555
K16 O62 2.930790 1_555
K17 O67 2.601208 1_555
K17 O14 2.676268 1_556
K17 O43 2.683348 1_555
K17 O26 2.715080 1_556
K17 O19 2.719709 1_555
K17 O7 2.756088 1_555
K17 O59 2.794142 1_555
K17 O63 2.904136 1_555
K17 O41 3.238354 1_555
K18 O46 2.631603 1_555
K18 O70 2.654203 1_555
K18 O22 2.688469 1_555
K18 O2 2.719228 1_655
K18 O31 2.827154 1_555
K18 O11 2.848108 1_655
K18 O62 2.919768 1_555
K18 O58 3.042342 1_655
K19 O71 2.653322 1_555
K19 O47 2.701771 1_555
K19 O3 2.732393 1_655
K19 O30 2.741704 1_556
K19 O10 2.759420 1_656
K19 O23 2.782046 1_555
K19 O63 2.934221 1_555
K19 O59 3.098838 1_655
Na0 O65 2.359928 1_555
Na0 O49 2.446975 1_555
Na0 O0 2.527687 1_555
Na0 O16 2.541612 1_555
Na0 O11 2.583490 1_545
Na0 O27 2.699670 1_545
Na0 O33 2.935150 1_555
Na0 O37 2.990055 1_555
Na1 O67 2.339071 1_555
Na1 O51 2.443545 1_555
Na1 O2 2.539325 1_555
Na1 O18 2.563114 1_555
Na1 O25 2.577069 1_555
Na1 O9 2.579386 1_555
Na1 O35 2.774336 1_555
Na2 O53 2.357767 1_555
Na2 O69 2.392344 1_555
Na2 O4 2.473022 1_555
Na2 O15 2.499921 1_545
Na2 O31 2.626432 1_545
Na2 O20 2.656088 1_555
Na2 O33 2.935389 1_655
Na2 O37 2.993226 1_555
Na3 O72 2.354259 1_555
Na3 O9 2.517409 1_555
Na3 O2 2.533890 1_555
Na3 O25 2.602194 1_555
Na3 O18 2.618672 1_555
Na3 O56 2.624715 1_555
Na3 O44 2.870335 1_455
Na3 O40 2.977894 1_555
Na4 O73 2.427320 1_555
Na4 O8 2.485056 1_555
Na4 O24 2.508094 1_555
Na4 O3 2.572360 1_555
Na4 O57 2.626823 1_555
Na4 O19 2.659526 1_555
Na4 O41 2.973228 1_555
Na4 O45 2.981679 1_455
Na5 O73 2.373307 1_555
Na5 O33 2.395786 1_555
Na5 O20 2.523524 1_455
Na5 O29 2.554164 1_455
Na5 O0 2.574770 1_555
Na5 O53 2.693740 1_455
Na5 O9 2.748458 1_555
Na6 O75 2.460812 1_555
Na6 O35 2.531432 1_555
Na6 O11 2.570957 1_555
Na6 O22 2.597070 1_455
Na6 O31 2.614550 1_455
Na6 O2 2.693472 1_555
Na6 O55 2.741501 1_455
Na7 O77 2.353010 1_555
Na7 O37 2.456414 1_555
Na7 O16 2.465327 1_555
Na7 O4 2.510551 1_555
Na7 O13 2.588744 1_555
Na7 O25 2.592903 1_555
Na8 O39 2.474593 1_555
Na8 O79 2.476479 1_555
Na8 O27 2.557686 1_555
Na8 O6 2.581399 1_555
Na8 O15 2.594428 1_555
Na8 O18 2.642541 1_555
Na8 O51 2.831377 1_555
Na9 O65 2.443179 1_555
Na9 O24 2.471489 1_555
Na9 O12 2.531819 1_556
Na9 O17 2.585942 1_555
Na9 O5 2.657327 1_555
Na9 O41 2.725256 1_555
Na9 O57 2.917361 1_555
Na9 O61 2.959402 1_555
Na10 O68 2.352598 1_555
Na10 O44 2.465794 1_555
Na10 O29 2.505302 1_555
Na10 O20 2.508807 1_555
Na10 O0 2.586193 1_655
Na10 O9 2.594239 1_655
Na11 O69 2.424172 1_555
Na11 O45 2.471801 1_555
Na11 O28 2.500154 1_556
Na11 O8 2.502087 1_655
Na11 O21 2.597637 1_555
Na11 O1 2.660836 1_655
Nb0 O32 1.914593 1_555
Nb0 O56 1.915456 1_555
Nb0 O68 1.983854 1_455
Nb0 O74 2.026989 1_545
Nb1 O57 1.900215 1_555
Nb1 O33 1.904616 1_555
Nb1 O75 2.014969 1_545
Nb1 O69 2.021200 1_455
Nb2 O58 1.903281 1_555
Nb2 O34 1.914848 1_555
Nb2 O70 2.015799 1_455
Nb2 O72 2.024583 1_555
Nb3 O59 1.881152 1_555
Nb3 O35 1.901294 1_555
Nb3 O71 2.001402 1_455
Nb3 O73 2.034346 1_555
Nb4 O60 1.913468 1_555
Nb4 O78 1.924299 1_545
Nb4 O36 1.926051 1_555
Nb4 O64 1.952501 1_555
Nb5 O61 1.894473 1_555
Nb5 O37 1.896857 1_555
Nb5 O79 2.008930 1_545
Nb5 O65 2.013918 1_555
Nb6 O66 1.912335 1_555
Nb6 O38 1.920246 1_555
Nb6 O62 1.929183 1_555
Nb6 O76 1.983507 1_555
Nb7 O39 1.902956 1_555
Nb7 O63 1.915582 1_555
Nb7 O67 1.963117 1_555
Nb7 O77 1.985774 1_555
Nb8 O40 1.909375 1_555
Nb8 O48 1.914886 1_555
Nb8 O72 1.983501 1_555
Nb8 O66 2.018369 1_555
Nb9 O49 1.893710 1_555
Nb9 O41 1.907534 1_555
Nb9 O73 1.995859 1_555
Nb9 O67 2.035555 1_555
Nb10 O50 1.928329 1_555
Nb10 O42 1.931126 1_555
Nb10 O74 1.934335 1_555
Nb10 O64 1.980766 1_565
Nb11 O43 1.882967 1_555
Nb11 O51 1.893074 1_555
Nb11 O75 2.007165 1_555
Nb11 O65 2.011707 1_565
Nb12 O52 1.918491 1_555
Nb12 O44 1.918659 1_555
Nb12 O70 1.922527 1_555
Nb12 O76 1.954941 1_555
Nb13 O53 1.895822 1_555
Nb13 O45 1.906098 1_555
Nb13 O71 1.947037 1_555
Nb13 O77 1.991552 1_555
Nb14 O46 1.893827 1_555
Nb14 O54 1.906007 1_555
Nb14 O78 1.995284 1_555
Nb14 O68 2.029338 1_565
Nb15 O55 1.881224 1_555
Nb15 O47 1.887328 1_555
Nb15 O79 2.005576 1_555
Nb15 O69 2.006351 1_565
O0 W9 2.071163 1_555
O0 W1 2.074435 1_555
O1 W8 2.064640 1_555
O1 W0 2.072141 1_445
O2 W3 2.075186 1_555
O2 W11 2.080158 1_555
O3 W2 2.080795 1_555
O3 W10 2.096288 1_555
O4 W13 2.073970 1_555
O4 W5 2.075198 1_555
O5 W4 2.048094 1_545
O5 W12 2.051117 1_555
O6 W7 2.081922 1_555
O6 W15 2.082195 1_555
O7 W14 2.062824 1_555
O7 W6 2.065856 1_555
O8 W2 2.059052 1_555
O8 W8 2.059695 1_555
O9 W3 2.058475 1_555
O9 W9 2.058597 1_555
O10 W0 2.070414 1_454
O10 W10 2.089869 1_554
O11 W11 2.097660 1_555
O11 W1 2.102224 1_565
O12 W12 2.084131 1_554
O12 W6 2.088701 1_554
O13 W7 2.090760 1_555
O13 W13 2.097806 1_555
O14 W14 2.092057 1_554
O14 W4 2.103262 1_554
O15 W5 2.096377 1_565
O15 W15 2.096890 1_555
O16 W9 2.075803 1_555
O16 W5 2.089554 1_555
O17 W8 2.074194 1_555
O17 W4 2.089017 1_545
O18 W11 2.062000 1_555
O18 W7 2.066936 1_555
O19 W10 2.063932 1_555
O19 W6 2.068782 1_555
O20 W1 2.077101 1_655
O20 W13 2.087199 1_555
O21 W0 2.077829 1_545
O21 W12 2.084938 1_555
O22 W3 2.078565 1_655
O22 W15 2.091845 1_555
O23 W2 2.067993 1_655
O23 W14 2.069619 1_555
O24 W8 2.075920 1_555
O24 W6 2.079749 1_555
O25 W7 2.082770 1_555
O25 W9 2.090556 1_555
O26 W4 2.070495 1_554
O26 W10 2.073570 1_554
O27 W11 2.065072 1_555
O27 W5 2.084838 1_565
O28 W12 2.085724 1_554
O28 W2 2.086794 1_654
O29 W13 2.079805 1_555
O29 W3 2.081909 1_655
O30 W0 2.065821 1_554
O30 W14 2.069771 1_554
O31 W1 2.058849 1_665
O31 W15 2.060199 1_555
O32 W0 2.260385 1_444
O33 W1 2.129300 1_555
O34 W2 2.250753 1_554
O35 W3 2.182347 1_555
O36 W4 2.159293 1_544
O37 W5 2.132034 1_555
O38 W6 2.164393 1_554
O39 W7 2.155285 1_555
O40 W7 2.213388 1_555
O41 W6 2.161708 1_555
O42 W5 2.170110 1_565
O43 W4 2.214360 1_555
O44 W3 2.192785 1_655
O45 W2 2.147928 1_655
O46 W1 2.245859 1_665
O47 W0 2.201249 1_555
O48 W8 2.264202 1_554
O49 W9 2.134120 1_555
O50 W10 2.160257 1_554
O51 W11 2.164572 1_555
O52 W12 2.205508 1_554
O53 W13 2.134342 1_555
O54 W14 2.255055 1_554
O55 W15 2.169802 1_555
O56 W9 2.209136 1_555
O57 W8 2.151708 1_555
O58 W11 2.228226 1_555
O59 W10 2.188757 1_555
O60 W13 2.152438 1_555
O61 W12 2.143269 1_555
O62 W15 2.156241 1_555
O63 W14 2.184346 1_555
