# generated using pymatgen
data_DyCd6
_symmetry_space_group_name_H-M   'P 1'
_cell_length_a   13.66906646
_cell_length_b   13.66906646
_cell_length_c   13.66906703
_cell_angle_alpha   110.23068888
_cell_angle_beta   109.67167366
_cell_angle_gamma   108.51599474
_symmetry_Int_Tables_number   1
_chemical_formula_structural   DyCd6
_chemical_formula_sum   'Dy12 Cd72'
_cell_volume   1965.59400868
_cell_formula_units_Z   12
loop_
 _symmetry_equiv_pos_site_id
 _symmetry_equiv_pos_as_xyz
  1  'x, y, z'
loop_
 _atom_site_type_symbol
 _atom_site_label
 _atom_site_symmetry_multiplicity
 _atom_site_fract_x
 _atom_site_fract_y
 _atom_site_fract_z
 _atom_site_occupancy
  Dy  Dy0  1  0.80745000  0.50951700  0.70206700  1
  Dy  Dy1  1  0.19255000  0.49048300  0.29793300  1
  Dy  Dy2  1  0.19255000  0.89461700  0.70206700  1
  Dy  Dy3  1  0.80745000  0.10538300  0.29793300  1
  Dy  Dy4  1  0.10845700  0.30190700  0.80654900  1
  Dy  Dy5  1  0.89154300  0.69809300  0.19345100  1
  Dy  Dy6  1  0.49535800  0.30190700  0.19345100  1
  Dy  Dy7  1  0.50464200  0.69809300  0.80654900  1
  Dy  Dy8  1  0.30108900  0.18959800  0.49068700  1
  Dy  Dy9  1  0.69891100  0.81040200  0.50931300  1
  Dy  Dy10  1  0.30108900  0.81040200  0.11149200  1
  Dy  Dy11  1  0.69891100  0.18959800  0.88850800  1
  Cd  Cd0  1  0.99999200  0.67856200  0.00199600  1
  Cd  Cd1  1  0.32343300  0.32143800  0.32143000  1
  Cd  Cd2  1  0.00000800  0.00200300  0.67857000  1
  Cd  Cd3  1  0.67656700  0.99799700  0.99800400  1
  Cd  Cd4  1  0.00000800  0.32143800  0.99800500  1
  Cd  Cd5  1  0.67656700  0.67856200  0.67857000  1
  Cd  Cd6  1  0.99999200  0.99799700  0.32143000  1
  Cd  Cd7  1  0.32343300  0.00200300  0.00199600  1
  Cd  Cd8  1  0.74161700  0.64717500  0.90555900  1
  Cd  Cd9  1  0.25838300  0.35282500  0.09444100  1
  Cd  Cd10  1  0.25838300  0.16394200  0.90555900  1
  Cd  Cd11  1  0.74161700  0.83605800  0.09444100  1
  Cd  Cd12  1  0.85611400  0.09067800  0.76543600  1
  Cd  Cd13  1  0.14388600  0.90932200  0.23456400  1
  Cd  Cd14  1  0.32524100  0.09067800  0.23456400  1
  Cd  Cd15  1  0.67475900  0.90932200  0.76543600  1
  Cd  Cd16  1  0.09534000  0.24122000  0.33656000  1
  Cd  Cd17  1  0.90466000  0.75878000  0.66344000  1
  Cd  Cd18  1  0.09534000  0.75878000  0.85412100  1
  Cd  Cd19  1  0.90466000  0.24122000  0.14587900  1
  Cd  Cd20  1  0.59601400  0.24877500  0.65276100  1
  Cd  Cd21  1  0.40398600  0.75122500  0.34723900  1
  Cd  Cd22  1  0.40398600  0.05674700  0.65276100  1
  Cd  Cd23  1  0.59601400  0.94325300  0.34723900  1
  Cd  Cd24  1  0.94185000  0.34726900  0.59458100  1
  Cd  Cd25  1  0.05815000  0.65273100  0.40541900  1
  Cd  Cd26  1  0.75268800  0.34726900  0.40541900  1
  Cd  Cd27  1  0.24731200  0.65273100  0.59458100  1
  Cd  Cd28  1  0.34559800  0.40421400  0.74981100  1
  Cd  Cd29  1  0.65440200  0.59578600  0.25018900  1
  Cd  Cd30  1  0.34559800  0.59578600  0.94138400  1
  Cd  Cd31  1  0.65440200  0.40421400  0.05861600  1
  Cd  Cd32  1  0.58943500  0.58943500  0.00000000  1
  Cd  Cd33  1  0.41056500  0.41056500  0.00000000  1
  Cd  Cd34  1  0.59485600  0.00000000  0.59485600  1
  Cd  Cd35  1  0.40514400  0.00000000  0.40514400  1
  Cd  Cd36  1  0.00000000  0.40428700  0.40428700  1
  Cd  Cd37  1  0.00000000  0.59571300  0.59571300  1
  Cd  Cd38  1  0.77853700  0.45532200  0.91897700  1
  Cd  Cd39  1  0.46365500  0.54467800  0.32321500  1
  Cd  Cd40  1  0.22146300  0.14044000  0.67678500  1
  Cd  Cd41  1  0.53634500  0.85956000  0.08102300  1
  Cd  Cd42  1  0.86028400  0.08372800  0.54237700  1
  Cd  Cd43  1  0.13971600  0.68209300  0.22344400  1
  Cd  Cd44  1  0.54135100  0.31790700  0.45762300  1
  Cd  Cd45  1  0.45864900  0.91627200  0.77655600  1
  Cd  Cd46  1  0.31873900  0.45948600  0.54035600  1
  Cd  Cd47  1  0.91913100  0.77838400  0.45964400  1
  Cd  Cd48  1  0.08086900  0.54051400  0.85925300  1
  Cd  Cd49  1  0.68126100  0.22161600  0.14074700  1
  Cd  Cd50  1  0.22146300  0.54467800  0.08102300  1
  Cd  Cd51  1  0.53634500  0.45532200  0.67678500  1
  Cd  Cd52  1  0.77853700  0.85956000  0.32321500  1
  Cd  Cd53  1  0.46365500  0.14044000  0.91897700  1
  Cd  Cd54  1  0.13971600  0.91627200  0.45762300  1
  Cd  Cd55  1  0.86028400  0.31790700  0.77655600  1
  Cd  Cd56  1  0.45864900  0.68209300  0.54237700  1
  Cd  Cd57  1  0.54135100  0.08372800  0.22344400  1
  Cd  Cd58  1  0.68126100  0.54051400  0.45964400  1
  Cd  Cd59  1  0.08086900  0.22161600  0.54035600  1
  Cd  Cd60  1  0.91913100  0.45948600  0.14074700  1
  Cd  Cd61  1  0.31873900  0.77838400  0.85925300  1
  Cd  Cd62  1  0.50000000  0.30871900  0.80871900  1
  Cd  Cd63  1  0.50000000  0.69128100  0.19128100  1
  Cd  Cd64  1  0.69228000  0.19228000  0.50000000  1
  Cd  Cd65  1  0.30772000  0.80772000  0.50000000  1
  Cd  Cd66  1  0.18906400  0.50000000  0.68906400  1
  Cd  Cd67  1  0.81093600  0.50000000  0.31093600  1
  Cd  Cd68  1  0.91466800  0.82378400  0.90911600  1
  Cd  Cd69  1  0.08533200  0.17621600  0.09088400  1
  Cd  Cd70  1  0.08533200  0.99444800  0.90911600  1
  Cd  Cd71  1  0.91466800  0.00555200  0.09088400  1
loop_
_geom_bond_atom_site_label_1
_geom_bond_atom_site_label_2
_geom_bond_distance
_geom_bond_site_symmetry_2
Cd0 Cd43 2.959869 1_655
Cd0 Cd48 2.969978 1_654
Cd0 Cd13 2.973033 1_655
Cd0 Cd68 3.021427 1_554
Cd0 Cd38 3.031188 1_554
Cd0 Cd18 3.063575 1_654
Cd0 Cd8 3.147544 1_554
Cd0 Dy0 3.375682 1_554
Cd0 Dy5 3.390805 1_555
Cd0 Dy10 3.421013 1_655
Cd1 Cd44 2.959880 1_555
Cd1 Cd46 2.969981 1_555
Cd1 Cd14 2.973032 1_555
Cd1 Cd69 3.021420 1_555
Cd1 Cd39 3.031192 1_555
Cd1 Cd16 3.063575 1_555
Cd1 Cd9 3.147557 1_555
Cd1 Dy1 3.375672 1_555
Cd1 Dy6 3.390807 1_555
Cd1 Dy8 3.421013 1_555
Cd2 Cd42 2.959880 1_455
Cd2 Cd47 2.969977 1_445
Cd2 Cd70 3.021420 1_545
Cd2 Cd40 3.031192 1_555
Cd2 Dy2 3.375672 1_545
Cd2 Dy4 3.390806 1_555
Cd2 Dy9 3.421013 1_445
Cd3 Cd45 2.959873 1_555
Cd3 Cd49 2.969974 1_566
Cd3 Cd71 3.021421 1_566
Cd3 Cd41 3.031203 1_556
Cd3 Dy3 3.375684 1_566
Cd3 Dy7 3.390806 1_555
Cd3 Dy11 3.421013 1_565
Cd4 Cd55 2.959880 1_455
Cd4 Cd60 2.969970 1_456
Cd4 Cd69 3.021420 1_556
Cd4 Cd50 3.031192 1_556
Cd4 Cd9 3.147545 1_556
Cd4 Dy1 3.375672 1_556
Cd4 Dy4 3.390817 1_555
Cd4 Dy11 3.421011 1_455
Cd5 Cd56 2.959880 1_555
Cd5 Cd58 2.969981 1_555
Cd5 Cd68 3.021420 1_555
Cd5 Cd51 3.031192 1_555
Cd5 Cd8 3.147557 1_555
Cd5 Dy0 3.375672 1_555
Cd5 Dy7 3.390807 1_555
Cd5 Dy9 3.421013 1_555
Cd6 Cd71 3.021420 1_565
Cd6 Dy3 3.375672 1_565
Cd6 Dy5 3.390806 1_555
Cd6 Dy8 3.421013 1_665
Cd7 Cd70 3.021421 1_544
Cd7 Dy2 3.375684 1_544
Cd7 Dy6 3.390806 1_555
Cd7 Dy10 3.421013 1_545
Cd8 Dy0 3.350862 1_555
Cd8 Dy5 3.455490 1_556
Cd8 Dy7 3.455505 1_555
Cd9 Dy1 3.350862 1_555
Cd9 Dy4 3.455490 1_554
Cd9 Dy6 3.455505 1_555
Cd10 Cd70 2.764045 1_545
Cd10 Cd33 2.843660 1_556
Cd10 Cd53 2.876902 1_555
Cd10 Cd40 2.876902 1_555
Cd10 Cd9 2.953252 1_556
Cd10 Cd2 3.147550 1_555
Cd10 Cd7 3.147557 1_556
Cd10 Dy2 3.350866 1_545
Cd10 Dy4 3.455488 1_555
Cd10 Dy6 3.455497 1_556
Cd11 Cd71 2.764045 1_565
Cd11 Cd32 2.843660 1_555
Cd11 Cd41 2.876902 1_555
Cd11 Cd52 2.876902 1_555
Cd11 Cd8 2.953252 1_554
Cd11 Cd6 3.147550 1_555
Cd11 Cd3 3.147557 1_554
Cd11 Dy3 3.350866 1_565
Cd11 Dy5 3.455488 1_555
Cd11 Dy7 3.455497 1_554
Cd12 Cd15 2.896102 1_545
Cd12 Cd2 2.973039 1_655
Cd12 Cd4 2.973039 1_655
Cd12 Cd55 3.037902 1_555
Cd12 Cd42 3.037902 1_555
Cd12 Cd34 3.051218 1_555
Cd12 Dy4 3.434715 1_655
Cd12 Dy11 3.461471 1_555
Cd12 Dy9 3.461479 1_545
Cd13 Cd14 2.896102 1_565
Cd13 Cd6 2.973039 1_455
Cd13 Cd43 3.037902 1_555
Cd13 Cd54 3.037902 1_555
Cd13 Cd35 3.051218 1_565
Cd13 Dy5 3.434715 1_455
Cd13 Dy10 3.461471 1_555
Cd13 Dy8 3.461479 1_565
Cd14 Cd7 2.973033 1_555
Cd14 Cd44 3.037906 1_555
Cd14 Cd57 3.037915 1_555
Cd14 Cd35 3.051221 1_555
Cd14 Dy6 3.434712 1_555
Cd14 Dy8 3.461471 1_555
Cd14 Dy10 3.461483 1_545
Cd15 Cd5 2.973032 1_555
Cd15 Cd3 2.973033 1_555
Cd15 Cd56 3.037906 1_555
Cd15 Cd45 3.037915 1_555
Cd15 Cd34 3.051221 1_565
Cd15 Dy7 3.434712 1_555
Cd15 Dy9 3.461471 1_555
Cd15 Dy11 3.461483 1_565
Cd16 Cd46 2.953741 1_555
Cd16 Cd59 2.953752 1_555
Cd16 Cd36 2.958686 1_555
Cd16 Cd19 3.002190 1_455
Cd16 Cd6 3.063575 1_445
Cd16 Cd71 3.104082 1_455
Cd16 Cd69 3.104082 1_555
Cd16 Dy8 3.338475 1_555
Cd16 Dy3 3.534740 1_455
Cd16 Dy1 3.534740 1_555
Cd17 Cd58 2.953741 1_555
Cd17 Cd47 2.953752 1_555
Cd17 Cd37 2.958686 1_655
Cd17 Cd18 3.002190 1_655
Cd17 Cd2 3.063575 1_665
Cd17 Cd5 3.063575 1_555
Cd17 Cd70 3.104082 1_655
Cd17 Cd68 3.104082 1_555
Cd17 Dy9 3.338475 1_555
Cd17 Dy2 3.534740 1_655
Cd17 Dy0 3.534740 1_555
Cd18 Cd48 2.953733 1_555
Cd18 Cd61 2.953743 1_555
Cd18 Cd37 2.958696 1_555
Cd18 Cd7 3.063575 1_566
Cd18 Cd68 3.104076 1_455
Cd18 Cd70 3.104083 1_555
Cd18 Dy10 3.338475 1_556
Cd18 Dy0 3.534738 1_455
Cd18 Dy2 3.534752 1_555
Cd19 Cd60 2.953733 1_555
Cd19 Cd49 2.953743 1_555
Cd19 Cd36 2.958696 1_655
Cd19 Cd4 3.063562 1_654
Cd19 Cd3 3.063575 1_544
Cd19 Cd69 3.104076 1_655
Cd19 Cd71 3.104083 1_555
Cd19 Dy11 3.338475 1_554
Cd19 Dy1 3.534738 1_655
Cd19 Dy3 3.534752 1_555
Cd20 Cd64 2.840439 1_555
Cd20 Cd62 2.880454 1_555
Cd20 Cd22 3.066533 1_555
Cd20 Cd55 3.068535 1_555
Cd20 Cd44 3.068535 1_555
Cd20 Cd51 3.121826 1_555
Cd20 Cd38 3.121827 1_555
Cd20 Cd34 3.207209 1_555
Cd20 Cd35 3.207209 1_555
Cd20 Dy0 3.463354 1_555
Cd20 Dy11 3.534201 1_555
Cd20 Dy8 3.534212 1_555
Cd21 Cd65 2.840439 1_555
Cd21 Cd63 2.880454 1_555
Cd21 Cd23 3.066533 1_555
Cd21 Cd43 3.068535 1_555
Cd21 Cd56 3.068535 1_555
Cd21 Cd39 3.121826 1_555
Cd21 Cd50 3.121827 1_555
Cd21 Cd35 3.207209 1_565
Cd21 Cd34 3.207209 1_565
Cd21 Dy1 3.463354 1_555
Cd21 Dy10 3.534201 1_555
Cd21 Dy9 3.534212 1_555
Cd22 Cd65 2.840439 1_545
Cd22 Cd62 2.880454 1_555
Cd22 Cd45 3.068535 1_545
Cd22 Cd54 3.068535 1_545
Cd22 Cd40 3.121826 1_555
Cd22 Cd53 3.121827 1_555
Cd22 Cd34 3.207209 1_555
Cd22 Cd35 3.207209 1_555
Cd22 Dy2 3.463354 1_545
Cd22 Dy11 3.534208 1_555
Cd22 Dy8 3.534212 1_555
Cd23 Cd64 2.840439 1_565
Cd23 Cd63 2.880454 1_555
Cd23 Cd57 3.068535 1_565
Cd23 Cd42 3.068535 1_565
Cd23 Cd52 3.121826 1_555
Cd23 Cd41 3.121827 1_555
Cd23 Cd35 3.207209 1_565
Cd23 Cd34 3.207209 1_565
Cd23 Dy3 3.463354 1_565
Cd23 Dy10 3.534208 1_555
Cd23 Dy9 3.534212 1_555
Cd24 Cd66 2.856856 1_655
Cd24 Cd64 2.888497 1_555
Cd24 Cd26 2.978282 1_555
Cd24 Cd59 3.041574 1_655
Cd24 Cd48 3.041578 1_655
Cd24 Cd42 3.140836 1_555
Cd24 Cd55 3.140836 1_555
Cd24 Cd37 3.225797 1_655
Cd24 Cd36 3.225797 1_655
Cd24 Dy4 3.415072 1_655
Cd24 Dy0 3.550165 1_555
Cd24 Dy3 3.550165 1_555
Cd25 Cd67 2.856856 1_455
Cd25 Cd65 2.888497 1_555
Cd25 Cd27 2.978282 1_555
Cd25 Cd47 3.041574 1_455
Cd25 Cd60 3.041578 1_455
Cd25 Cd54 3.140836 1_555
Cd25 Cd43 3.140836 1_555
Cd25 Cd36 3.225797 1_555
Cd25 Cd37 3.225797 1_555
Cd25 Dy5 3.415072 1_455
Cd25 Dy1 3.550165 1_555
Cd25 Dy2 3.550165 1_555
Cd26 Cd67 2.856856 1_555
Cd26 Cd64 2.888497 1_555
Cd26 Cd58 3.041577 1_555
Cd26 Cd49 3.041578 1_555
Cd26 Cd44 3.140836 1_555
Cd26 Cd57 3.140836 1_555
Cd26 Cd36 3.225797 1_655
Cd26 Cd37 3.225797 1_655
Cd26 Dy6 3.415066 1_555
Cd26 Dy3 3.550165 1_555
Cd26 Dy0 3.550165 1_555
Cd27 Cd66 2.856856 1_555
Cd27 Cd65 2.888497 1_555
Cd27 Cd46 3.041577 1_555
Cd27 Cd61 3.041578 1_555
Cd27 Cd56 3.140836 1_555
Cd27 Cd45 3.140836 1_555
Cd27 Cd37 3.225797 1_555
Cd27 Cd36 3.225797 1_555
Cd27 Dy7 3.415066 1_555
Cd27 Dy2 3.550165 1_555
Cd27 Dy1 3.550165 1_555
Cd28 Cd62 2.852915 1_555
Cd28 Cd66 2.883927 1_555
Cd28 Cd30 2.995312 1_555
Cd28 Cd51 3.059454 1_555
Cd28 Cd40 3.059468 1_555
Cd28 Cd46 3.141203 1_555
Cd28 Cd59 3.141222 1_555
Cd28 Cd32 3.192574 1_556
Cd28 Cd33 3.192581 1_556
Cd28 Dy8 3.427990 1_555
Cd28 Dy7 3.553580 1_555
Cd28 Dy4 3.553582 1_555
Cd29 Cd63 2.852915 1_555
Cd29 Cd67 2.883927 1_555
Cd29 Cd31 2.995312 1_555
Cd29 Cd39 3.059454 1_555
Cd29 Cd52 3.059468 1_555
Cd29 Cd58 3.141203 1_555
Cd29 Cd47 3.141222 1_555
Cd29 Cd33 3.192574 1_555
Cd29 Cd32 3.192581 1_555
Cd29 Dy9 3.427990 1_555
Cd29 Dy6 3.553580 1_555
Cd29 Dy5 3.553582 1_555
Cd30 Cd63 2.852913 1_556
Cd30 Cd66 2.883930 1_555
Cd30 Cd41 3.059464 1_556
Cd30 Cd50 3.059464 1_556
Cd30 Cd61 3.141229 1_555
Cd30 Cd48 3.141229 1_555
Cd30 Cd33 3.192567 1_556
Cd30 Cd32 3.192567 1_556
Cd30 Dy10 3.428005 1_556
Cd30 Dy4 3.553580 1_555
Cd30 Dy7 3.553585 1_555
Cd31 Cd62 2.852913 1_554
Cd31 Cd67 2.883930 1_555
Cd31 Cd38 3.059464 1_554
Cd31 Cd53 3.059464 1_554
Cd31 Cd60 3.141229 1_555
Cd31 Cd49 3.141229 1_555
Cd31 Cd33 3.192567 1_555
Cd31 Cd32 3.192567 1_555
Cd31 Dy11 3.428005 1_554
Cd31 Dy5 3.553580 1_555
Cd31 Dy6 3.553585 1_555
Cd32 Cd8 2.843658 1_554
Cd32 Cd33 2.856410 1_555
Cd32 Cd62 3.314269 1_554
Cd32 Cd63 3.314269 1_555
Cd32 Dy5 3.505387 1_555
Cd32 Dy7 3.505398 1_554
Cd33 Cd9 2.843658 1_555
Cd33 Cd62 3.314269 1_554
Cd33 Cd63 3.314269 1_555
Cd33 Dy4 3.505387 1_554
Cd33 Dy6 3.505398 1_555
Cd34 Cd35 2.986941 1_555
Cd34 Dy11 3.387016 1_555
Cd34 Dy9 3.387026 1_545
Cd34 Cd64 3.414495 1_555
Cd34 Cd65 3.414495 1_545
Cd35 Dy10 3.387016 1_545
Cd35 Dy8 3.387026 1_555
Cd35 Cd65 3.414495 1_545
Cd35 Cd64 3.414495 1_555
Cd36 Cd37 2.993021 1_555
Cd36 Cd67 3.331744 1_455
Cd36 Cd66 3.331744 1_555
Cd36 Dy1 3.495713 1_555
Cd36 Dy3 3.495713 1_455
Cd37 Cd66 3.331744 1_555
Cd37 Cd67 3.331744 1_455
Cd37 Dy2 3.495713 1_555
Cd37 Dy0 3.495713 1_455
Cd38 Cd8 2.876888 1_555
Cd38 Cd60 2.962233 1_556
Cd38 Cd55 2.972420 1_555
Cd38 Cd62 3.159922 1_555
Cd38 Dy11 3.269349 1_555
Cd38 Dy0 3.408513 1_555
Cd38 Dy5 3.421427 1_556
Cd39 Cd9 2.876899 1_555
Cd39 Cd58 2.962229 1_555
Cd39 Cd56 2.972421 1_555
Cd39 Cd63 3.159922 1_555
Cd39 Dy9 3.269354 1_555
Cd39 Dy1 3.408513 1_555
Cd39 Dy6 3.421424 1_555
Cd40 Cd59 2.962226 1_555
Cd40 Cd54 2.972421 1_545
Cd40 Cd62 3.159922 1_555
Cd40 Dy8 3.269354 1_555
Cd40 Dy2 3.408513 1_545
Cd40 Dy4 3.421413 1_555
Cd41 Cd61 2.962233 1_554
Cd41 Cd57 2.972420 1_565
Cd41 Cd63 3.159922 1_555
Cd41 Dy10 3.269361 1_555
Cd41 Dy3 3.408513 1_565
Cd41 Dy7 3.421424 1_554
Cd42 Cd52 2.972421 1_545
Cd42 Cd59 3.021124 1_655
Cd42 Cd64 3.110306 1_555
Cd42 Dy3 3.311915 1_555
Cd42 Dy4 3.364580 1_655
Cd42 Dy9 3.457620 1_545
Cd43 Cd50 2.972420 1_555
Cd43 Cd60 3.021131 1_455
Cd43 Cd65 3.110306 1_555
Cd43 Dy1 3.311915 1_555
Cd43 Dy5 3.364588 1_455
Cd43 Dy10 3.457608 1_555
Cd44 Cd51 2.972421 1_555
Cd44 Cd58 3.021139 1_555
Cd44 Cd64 3.110306 1_555
Cd44 Dy0 3.311915 1_555
Cd44 Dy6 3.364575 1_555
Cd44 Dy8 3.457620 1_555
Cd45 Cd53 2.972420 1_565
Cd45 Cd61 3.021131 1_555
Cd45 Cd65 3.110306 1_555
Cd45 Dy2 3.311915 1_555
Cd45 Dy7 3.364574 1_555
Cd45 Dy11 3.457623 1_565
Cd46 Cd51 2.962229 1_555
Cd46 Cd56 3.021139 1_555
Cd46 Cd66 3.138653 1_555
Cd46 Dy7 3.261561 1_555
Cd46 Dy8 3.423586 1_555
Cd46 Dy1 3.423792 1_555
Cd47 Cd52 2.962226 1_555
Cd47 Cd54 3.021124 1_655
Cd47 Cd67 3.138663 1_555
Cd47 Dy5 3.261550 1_555
Cd47 Dy9 3.423595 1_555
Cd47 Dy2 3.423787 1_655
Cd48 Cd50 2.962233 1_556
Cd48 Cd55 3.021131 1_455
Cd48 Cd66 3.138664 1_555
Cd48 Dy4 3.261575 1_555
Cd48 Dy10 3.423594 1_556
Cd48 Dy0 3.423781 1_455
Cd49 Cd53 2.962233 1_554
Cd49 Cd57 3.021131 1_555
Cd49 Cd67 3.138664 1_555
Cd49 Dy6 3.261568 1_555
Cd49 Dy11 3.423603 1_554
Cd49 Dy3 3.423781 1_555
Cd50 Cd9 2.876888 1_555
Cd50 Cd63 3.159922 1_555
Cd50 Dy10 3.269349 1_555
Cd50 Dy1 3.408513 1_555
Cd50 Dy4 3.421427 1_554
Cd51 Cd8 2.876899 1_555
Cd51 Cd62 3.159922 1_555
Cd51 Dy8 3.269354 1_555
Cd51 Dy0 3.408513 1_555
Cd51 Dy7 3.421424 1_555
Cd52 Cd6 3.031192 1_555
Cd52 Cd63 3.159922 1_555
Cd52 Dy9 3.269354 1_555
Cd52 Dy3 3.408513 1_565
Cd52 Dy5 3.421413 1_555
Cd53 Cd7 3.031203 1_556
Cd53 Cd62 3.159922 1_555
Cd53 Dy11 3.269361 1_555
Cd53 Dy2 3.408513 1_545
Cd53 Dy6 3.421424 1_556
Cd54 Cd6 2.959880 1_455
Cd54 Cd65 3.110306 1_555
Cd54 Dy2 3.311915 1_555
Cd54 Dy5 3.364580 1_455
Cd54 Dy8 3.457620 1_565
Cd55 Cd64 3.110306 1_555
Cd55 Dy0 3.311915 1_555
Cd55 Dy4 3.364588 1_655
Cd55 Dy11 3.457608 1_555
Cd56 Cd65 3.110306 1_555
Cd56 Dy1 3.311915 1_555
Cd56 Dy7 3.364575 1_555
Cd56 Dy9 3.457620 1_555
Cd57 Cd7 2.959873 1_555
Cd57 Cd64 3.110306 1_555
Cd57 Dy3 3.311915 1_555
Cd57 Dy6 3.364574 1_555
Cd57 Dy10 3.457623 1_545
Cd58 Cd67 3.138653 1_555
Cd58 Dy6 3.261561 1_555
Cd58 Dy9 3.423586 1_555
Cd58 Dy0 3.423792 1_555
Cd59 Cd6 2.969977 1_445
Cd59 Cd66 3.138663 1_555
Cd59 Dy4 3.261550 1_555
Cd59 Dy8 3.423595 1_555
Cd59 Dy3 3.423787 1_455
Cd60 Cd67 3.138664 1_555
Cd60 Dy5 3.261575 1_555
Cd60 Dy11 3.423594 1_554
Cd60 Dy1 3.423781 1_655
Cd61 Cd7 2.969974 1_566
Cd61 Cd66 3.138664 1_555
Cd61 Dy7 3.261568 1_555
Cd61 Dy10 3.423603 1_556
Cd61 Dy2 3.423781 1_555
Cd62 Dy11 3.643751 1_555
Cd62 Dy8 3.643754 1_555
Cd63 Dy10 3.643751 1_555
Cd63 Dy9 3.643754 1_555
Cd64 Dy3 3.655728 1_555
Cd64 Dy0 3.655728 1_555
Cd65 Dy1 3.655728 1_555
Cd65 Dy2 3.655728 1_555
Cd66 Dy4 3.664504 1_555
Cd66 Dy7 3.664506 1_555
Cd67 Dy5 3.664504 1_555
Cd67 Dy6 3.664506 1_555
Cd68 Cd70 2.725367 1_655
Cd68 Cd8 2.764053 1_555
Cd68 Cd71 2.842014 1_566
Cd68 Dy0 3.662191 1_555
Cd69 Cd71 2.725367 1_455
Cd69 Cd9 2.764053 1_555
Cd69 Cd70 2.842014 1_544
Cd69 Dy1 3.662191 1_555
Cd70 Dy2 3.662191 1_555
Cd71 Dy3 3.662191 1_555
