# generated using pymatgen
data_TmSnPt2
_symmetry_space_group_name_H-M   'P 1'
_cell_length_a   4.73678686
_cell_length_b   4.73678686
_cell_length_c   8.45608600
_cell_angle_alpha   90.00000000
_cell_angle_beta   90.00000000
_cell_angle_gamma   120.00001200
_symmetry_Int_Tables_number   1
_chemical_formula_structural   TmSnPt2
_chemical_formula_sum   'Tm2 Sn2 Pt4'
_cell_volume   164.31138517
_cell_formula_units_Z   2
loop_
 _symmetry_equiv_pos_site_id
 _symmetry_equiv_pos_as_xyz
  1  'x, y, z'
loop_
 _atom_site_type_symbol
 _atom_site_label
 _atom_site_symmetry_multiplicity
 _atom_site_fract_x
 _atom_site_fract_y
 _atom_site_fract_z
 _atom_site_occupancy
  Tm  Tm0  1  0.00000000  0.00000000  0.00000000  1
  Tm  Tm1  1  0.00000000  0.00000000  0.50000000  1
  Sn  Sn0  1  0.66666700  0.33333300  0.75000000  1
  Sn  Sn1  1  0.33333300  0.66666700  0.25000000  1
  Pt  Pt0  1  0.66666700  0.33333300  0.41021100  1
  Pt  Pt1  1  0.33333300  0.66666700  0.58978900  1
  Pt  Pt2  1  0.33333300  0.66666700  0.91021100  1
  Pt  Pt3  1  0.66666700  0.33333300  0.08978900  1
loop_
_geom_bond_atom_site_label_1
_geom_bond_atom_site_label_2
_geom_bond_distance
_geom_bond_site_symmetry_2
Sn0 Tm0 3.456606 1_656
Sn0 Tm1 3.456606 1_655
Sn0 Tm0 3.456609 1_666
Sn0 Tm1 3.456609 1_665
Sn0 Tm1 3.456609 1_555
Sn0 Tm0 3.456609 1_556
Sn1 Tm0 3.456606 1_565
Sn1 Tm1 3.456606 1_565
Sn1 Tm0 3.456609 1_665
Sn1 Tm1 3.456609 1_665
Sn1 Tm1 3.456609 1_555
Sn1 Tm0 3.456609 1_555
Pt0 Pt3 2.709516 1_555
Pt0 Tm1 2.838224 1_655
Pt0 Tm1 2.838228 1_665
Pt0 Tm1 2.838228 1_555
Pt0 Sn0 2.873285 1_555
Pt0 Sn1 3.051951 1_545
Pt0 Sn1 3.051951 1_655
Pt0 Sn1 3.051958 1_555
Pt1 Pt2 2.709516 1_555
Pt1 Tm1 2.838224 1_565
Pt1 Tm1 2.838228 1_665
Pt1 Tm1 2.838228 1_555
Pt1 Sn1 2.873285 1_555
Pt1 Sn0 3.051951 1_455
Pt1 Sn0 3.051951 1_565
Pt1 Sn0 3.051958 1_555
Pt2 Tm0 2.838224 1_566
Pt2 Tm0 2.838228 1_666
Pt2 Tm0 2.838228 1_556
Pt2 Sn1 2.873285 1_556
Pt2 Sn0 3.051951 1_455
Pt2 Sn0 3.051951 1_565
Pt2 Sn0 3.051958 1_555
Pt3 Tm0 2.838224 1_655
Pt3 Tm0 2.838228 1_665
Pt3 Tm0 2.838228 1_555
Pt3 Sn0 2.873285 1_554
Pt3 Sn1 3.051951 1_545
Pt3 Sn1 3.051951 1_655
Pt3 Sn1 3.051958 1_555
