# generated using pymatgen
data_La3DyC8
_symmetry_space_group_name_H-M   'P 1'
_cell_length_a   3.90105900
_cell_length_b   3.90105900
_cell_length_c   12.94043600
_cell_angle_alpha   90.00000000
_cell_angle_beta   90.00000000
_cell_angle_gamma   90.00000000
_symmetry_Int_Tables_number   1
_chemical_formula_structural   La3DyC8
_chemical_formula_sum   'La3 Dy1 C8'
_cell_volume   196.93093666
_cell_formula_units_Z   1
loop_
 _symmetry_equiv_pos_site_id
 _symmetry_equiv_pos_as_xyz
  1  'x, y, z'
loop_
 _atom_site_type_symbol
 _atom_site_label
 _atom_site_symmetry_multiplicity
 _atom_site_fract_x
 _atom_site_fract_y
 _atom_site_fract_z
 _atom_site_occupancy
  La  La0  1  0.50000000  0.50000000  0.75012000  1
  La  La1  1  0.00000000  0.00000000  0.50000000  1
  La  La2  1  0.50000000  0.50000000  0.24988000  1
  Dy  Dy0  1  0.00000000  0.00000000  0.00000000  1
  C  C0  1  0.00000000  0.00000000  0.80619100  1
  C  C1  1  0.50000000  0.50000000  0.55018500  1
  C  C2  1  0.00000000  0.00000000  0.29441400  1
  C  C3  1  0.50000000  0.50000000  0.05004100  1
  C  C4  1  0.50000000  0.50000000  0.94995900  1
  C  C5  1  0.00000000  0.00000000  0.70558600  1
  C  C6  1  0.50000000  0.50000000  0.44981500  1
  C  C7  1  0.00000000  0.00000000  0.19380900  1
loop_
_geom_bond_atom_site_label_1
_geom_bond_atom_site_label_2
_geom_bond_distance
_geom_bond_site_symmetry_2
C0 C5 1.301873 1_555
C0 Dy0 2.507973 1_556
C0 La0 2.852298 1_445
C0 La0 2.852298 1_455
C0 La0 2.852298 1_545
C0 La0 2.852298 1_555
C1 C6 1.298832 1_555
C1 La0 2.587246 1_555
C1 La1 2.833879 1_565
C1 La1 2.833879 1_555
C1 La1 2.833879 1_655
C1 La1 2.833879 1_665
C2 C7 1.301873 1_555
C2 La1 2.660372 1_555
C2 La2 2.818021 1_455
C2 La2 2.818021 1_555
C2 La2 2.818021 1_545
C2 La2 2.818021 1_445
C3 C4 1.295105 1_554
C3 La2 2.586004 1_555
C3 Dy0 2.833453 1_665
C3 Dy0 2.833453 1_655
C3 Dy0 2.833453 1_565
C3 Dy0 2.833453 1_555
C4 La0 2.586004 1_555
C4 Dy0 2.833453 1_556
C4 Dy0 2.833453 1_566
C4 Dy0 2.833453 1_666
C4 Dy0 2.833453 1_656
C5 La1 2.660372 1_555
C5 La0 2.818021 1_455
C5 La0 2.818021 1_545
C5 La0 2.818021 1_555
C5 La0 2.818021 1_445
C6 La2 2.587246 1_555
C6 La1 2.833879 1_565
C6 La1 2.833879 1_555
C6 La1 2.833879 1_655
C6 La1 2.833879 1_665
C7 Dy0 2.507973 1_555
C7 La2 2.852298 1_455
C7 La2 2.852298 1_555
C7 La2 2.852298 1_545
C7 La2 2.852298 1_445
