# generated using pymatgen
data_La(CoP3)20
_symmetry_space_group_name_H-M   'P 1'
_cell_length_a   6.71103187
_cell_length_b   6.71103187
_cell_length_c   27.94526575
_cell_angle_alpha   80.81437753
_cell_angle_beta   80.81437753
_cell_angle_gamma   70.56525400
_symmetry_Int_Tables_number   1
_chemical_formula_structural   La(CoP3)20
_chemical_formula_sum   'La1 Co20 P60'
_cell_volume   1163.96856990
_cell_formula_units_Z   1
loop_
 _symmetry_equiv_pos_site_id
 _symmetry_equiv_pos_as_xyz
  1  'x, y, z'
loop_
 _atom_site_type_symbol
 _atom_site_label
 _atom_site_symmetry_multiplicity
 _atom_site_fract_x
 _atom_site_fract_y
 _atom_site_fract_z
 _atom_site_occupancy
  La  La0  1  0.00000000  0.00000000  0.00000000  1
  Co  Co0  1  0.70124600  0.19789000  0.10014900  1
  Co  Co1  1  0.09999700  0.59987000  0.30003100  1
  Co  Co2  1  0.50000000  0.00000000  0.50000000  1
  Co  Co3  1  0.90000300  0.40013000  0.69996900  1
  Co  Co4  1  0.29875400  0.80211000  0.89985100  1
  Co  Co5  1  0.50000000  0.00000000  0.00000000  1
  Co  Co6  1  0.89978300  0.40062300  0.20040500  1
  Co  Co7  1  0.29993700  0.79994600  0.40005900  1
  Co  Co8  1  0.70006300  0.20005400  0.59994100  1
  Co  Co9  1  0.10021700  0.59937700  0.79959500  1
  Co  Co10  1  0.00000000  0.50000000  0.00000000  1
  Co  Co11  1  0.40062300  0.89978300  0.20040500  1
  Co  Co12  1  0.79994600  0.29993700  0.40005900  1
  Co  Co13  1  0.20005400  0.70006300  0.59994100  1
  Co  Co14  1  0.59937700  0.10021700  0.79959500  1
  Co  Co15  1  0.19789000  0.70124600  0.10014900  1
  Co  Co16  1  0.59987000  0.09999700  0.30003100  1
  Co  Co17  1  0.00000000  0.50000000  0.50000000  1
  Co  Co18  1  0.40013000  0.90000300  0.69996900  1
  Co  Co19  1  0.80211000  0.29875400  0.89985100  1
  P  P0  1  0.75203300  0.45950600  0.13176100  1
  P  P1  1  0.15483000  0.86324100  0.33026900  1
  P  P2  1  0.55515000  0.26338600  0.53024400  1
  P  P3  1  0.95537300  0.66347200  0.72985500  1
  P  P4  1  0.36458400  0.06783000  0.92782300  1
  P  P5  1  0.63541600  0.93217000  0.07217700  1
  P  P6  1  0.04462700  0.33652800  0.27014500  1
  P  P7  1  0.44485000  0.73661400  0.46975600  1
  P  P8  1  0.84517000  0.13675900  0.66973100  1
  P  P9  1  0.24796700  0.54049400  0.86823900  1
  P  P10  1  0.45950600  0.75203300  0.13176100  1
  P  P11  1  0.86324100  0.15483000  0.33026900  1
  P  P12  1  0.26338600  0.55515000  0.53024400  1
  P  P13  1  0.66347200  0.95537300  0.72985500  1
  P  P14  1  0.06783000  0.36458400  0.92782300  1
  P  P15  1  0.93217000  0.63541600  0.07217700  1
  P  P16  1  0.33652800  0.04462700  0.27014500  1
  P  P17  1  0.73661400  0.44485000  0.46975600  1
  P  P18  1  0.13675900  0.84517000  0.66973100  1
  P  P19  1  0.54049400  0.24796700  0.86823900  1
  P  P20  1  0.70630100  0.41395000  0.03031800  1
  P  P21  1  0.10917000  0.80737500  0.22927900  1
  P  P22  1  0.50946200  0.20726000  0.42913100  1
  P  P23  1  0.90941100  0.60734600  0.62920500  1
  P  P24  1  0.30815800  0.00935100  0.82880000  1
  P  P25  1  0.69184200  0.99064900  0.17120000  1
  P  P26  1  0.09058900  0.39265400  0.37079500  1
  P  P27  1  0.49053800  0.79274000  0.57086900  1
  P  P28  1  0.89083000  0.19262500  0.77072100  1
  P  P29  1  0.29369900  0.58605000  0.96968200  1
  P  P30  1  0.99064900  0.69184200  0.17120000  1
  P  P31  1  0.39265400  0.09058900  0.37079500  1
  P  P32  1  0.79274000  0.49053800  0.57086900  1
  P  P33  1  0.19262500  0.89083000  0.77072100  1
  P  P34  1  0.58605000  0.29369900  0.96968200  1
  P  P35  1  0.41395000  0.70630100  0.03031800  1
  P  P36  1  0.80737500  0.10917000  0.22927900  1
  P  P37  1  0.20726000  0.50946200  0.42913100  1
  P  P38  1  0.60734600  0.90941100  0.62920500  1
  P  P39  1  0.00935100  0.30815800  0.82880000  1
  P  P40  1  0.17579200  0.17579200  0.16111000  1
  P  P41  1  0.57290700  0.57290700  0.35944800  1
  P  P42  1  0.97281800  0.97281800  0.55942100  1
  P  P43  1  0.37260200  0.37260200  0.75889800  1
  P  P44  1  0.76670500  0.76670500  0.95757600  1
  P  P45  1  0.23329500  0.23329500  0.04242400  1
  P  P46  1  0.62739800  0.62739800  0.24110200  1
  P  P47  1  0.02718200  0.02718200  0.44057900  1
  P  P48  1  0.42709300  0.42709300  0.64055200  1
  P  P49  1  0.82420800  0.82420800  0.83889000  1
  P  P50  1  0.35019900  0.35019900  0.10230200  1
  P  P51  1  0.74803500  0.74803500  0.30107700  1
  P  P52  1  0.14793700  0.14793700  0.50105200  1
  P  P53  1  0.54786100  0.54786100  0.70098800  1
  P  P54  1  0.94541000  0.94541000  0.89815200  1
  P  P55  1  0.05459000  0.05459000  0.10184800  1
  P  P56  1  0.45213900  0.45213900  0.29901200  1
  P  P57  1  0.85206300  0.85206300  0.49894800  1
  P  P58  1  0.25196500  0.25196500  0.69892300  1
  P  P59  1  0.64980100  0.64980100  0.89769800  1
loop_
_geom_bond_atom_site_label_1
_geom_bond_atom_site_label_2
_geom_bond_distance
_geom_bond_site_symmetry_2
La0 P20 2.982399 1_455
La0 P35 2.982399 1_545
La0 P29 2.982399 1_544
La0 P34 2.982399 1_454
La0 P55 3.020635 1_555
La0 P54 3.020635 1_444
La0 P45 3.020679 1_555
La0 P44 3.020679 1_444
La0 P15 3.022329 1_445
La0 P5 3.022329 1_445
La0 P14 3.022329 1_554
La0 P4 3.022329 1_554
Co0 P0 2.229044 1_555
Co0 P50 2.229464 1_555
Co0 P25 2.239961 1_545
Co0 P20 2.240527 1_555
Co0 P55 2.248106 1_655
Co0 P5 2.250726 1_545
Co1 P6 2.228512 1_555
Co1 P1 2.232134 1_555
Co1 P26 2.233609 1_555
Co1 P21 2.234151 1_555
Co1 P51 2.234508 1_455
Co1 P56 2.235393 1_555
Co2 P2 2.233355 1_555
Co2 P7 2.233355 1_545
Co2 P57 2.234964 1_545
Co2 P52 2.234964 1_555
Co2 P27 2.236081 1_545
Co2 P22 2.236081 1_555
Co3 P3 2.228512 1_555
Co3 P8 2.232134 1_555
Co3 P23 2.233609 1_555
Co3 P28 2.234151 1_555
Co3 P58 2.234508 1_655
Co3 P53 2.235393 1_555
Co4 P9 2.229044 1_555
Co4 P59 2.229464 1_555
Co4 P24 2.239961 1_565
Co4 P29 2.240527 1_555
Co4 P54 2.248106 1_455
Co4 P4 2.250726 1_565
Co5 P35 2.237038 1_545
Co5 P34 2.237038 1_554
Co5 P45 2.260686 1_555
Co5 P44 2.260686 1_544
Co5 P5 2.262344 1_545
Co5 P4 2.262344 1_554
Co6 P0 2.218923 1_555
Co6 P40 2.221084 1_655
Co6 P30 2.232152 1_555
Co6 P6 2.233176 1_655
Co6 P46 2.233528 1_555
Co6 P36 2.237179 1_555
Co7 P7 2.232791 1_555
Co7 P37 2.233182 1_555
Co7 P47 2.233910 1_565
Co7 P41 2.235234 1_555
Co7 P31 2.235258 1_565
Co7 P1 2.235850 1_555
Co8 P2 2.232791 1_555
Co8 P32 2.233182 1_555
Co8 P42 2.233910 1_545
Co8 P48 2.235234 1_555
Co8 P38 2.235258 1_545
Co8 P8 2.235850 1_555
Co9 P9 2.218923 1_555
Co9 P49 2.221084 1_455
Co9 P39 2.232152 1_555
Co9 P3 2.233176 1_455
Co9 P43 2.233528 1_555
Co9 P33 2.237179 1_555
Co10 P20 2.237038 1_455
Co10 P29 2.237038 1_554
Co10 P45 2.260686 1_555
Co10 P44 2.260686 1_454
Co10 P15 2.262344 1_455
Co10 P14 2.262344 1_554
Co11 P10 2.218923 1_555
Co11 P40 2.221084 1_565
Co11 P25 2.232152 1_555
Co11 P16 2.233176 1_565
Co11 P46 2.233528 1_555
Co11 P21 2.237179 1_555
Co12 P17 2.232791 1_555
Co12 P22 2.233182 1_555
Co12 P47 2.233910 1_655
Co12 P41 2.235234 1_555
Co12 P26 2.235258 1_655
Co12 P11 2.235850 1_555
Co13 P12 2.232791 1_555
Co13 P27 2.233182 1_555
Co13 P42 2.233910 1_455
Co13 P48 2.235234 1_555
Co13 P23 2.235258 1_455
Co13 P18 2.235850 1_555
Co14 P19 2.218923 1_555
Co14 P49 2.221084 1_545
Co14 P24 2.232152 1_555
Co14 P13 2.233176 1_545
Co14 P43 2.233528 1_555
Co14 P28 2.237179 1_555
Co15 P10 2.229044 1_555
Co15 P50 2.229464 1_555
Co15 P30 2.239961 1_455
Co15 P35 2.240527 1_555
Co15 P55 2.248106 1_565
Co15 P15 2.250726 1_455
Co16 P16 2.228512 1_555
Co16 P11 2.232134 1_555
Co16 P31 2.233609 1_555
Co16 P36 2.234151 1_555
Co16 P51 2.234508 1_545
Co16 P56 2.235393 1_555
Co17 P12 2.233355 1_555
Co17 P17 2.233355 1_455
Co17 P57 2.234964 1_455
Co17 P52 2.234964 1_555
Co17 P32 2.236081 1_455
Co17 P37 2.236081 1_555
Co18 P13 2.228512 1_555
Co18 P18 2.232134 1_555
Co18 P38 2.233609 1_555
Co18 P33 2.234151 1_555
Co18 P58 2.234508 1_565
Co18 P53 2.235393 1_555
Co19 P19 2.229044 1_555
Co19 P59 2.229464 1_555
Co19 P39 2.239961 1_655
Co19 P34 2.240527 1_555
Co19 P54 2.248106 1_545
Co19 P14 2.250726 1_655
P0 P10 2.267880 1_555
P0 P15 2.303720 1_555
P1 P11 2.260608 1_465
P1 P16 2.339310 1_565
P10 P5 2.303720 1_555
P11 P6 2.339310 1_655
P12 P2 2.261965 1_555
P12 P7 2.344335 1_555
P13 P3 2.263027 1_555
P13 P8 2.339310 1_565
P14 P4 2.300651 1_555
P14 P9 2.303720 1_555
P15 P5 2.300651 1_555
P16 P6 2.263027 1_555
P17 P7 2.261965 1_555
P17 P2 2.344335 1_555
P18 P8 2.260608 1_465
P18 P3 2.339310 1_455
P19 P9 2.267880 1_555
P19 P4 2.303720 1_555
P20 P35 2.266515 1_555
P20 P34 2.341022 1_554
P21 P30 2.256631 1_455
P21 P36 2.339732 1_465
P22 P31 2.260341 1_555
P22 P37 2.342887 1_555
P23 P32 2.260341 1_555
P23 P38 2.341825 1_555
P24 P33 2.256631 1_545
P24 P39 2.316567 1_555
P25 P36 2.256631 1_565
P25 P30 2.316567 1_555
P26 P37 2.260341 1_555
P26 P31 2.341825 1_555
P27 P38 2.260341 1_555
P27 P32 2.342887 1_555
P28 P39 2.256631 1_655
P28 P33 2.339732 1_645
P29 P34 2.266515 1_555
P29 P35 2.341022 1_556
P40 P50 2.263651 1_555
P40 P55 2.316519 1_555
P41 P51 2.262403 1_555
P41 P56 2.340362 1_555
P42 P52 2.262302 1_665
P42 P57 2.341122 1_555
P43 P53 2.256296 1_555
P43 P58 2.328635 1_555
P44 P59 2.297573 1_555
P44 P54 2.306455 1_555
P45 P50 2.297573 1_555
P45 P55 2.306455 1_555
P46 P56 2.256296 1_555
P46 P51 2.328635 1_555
P47 P57 2.262302 1_445
P47 P52 2.341122 1_555
P48 P58 2.262403 1_555
P48 P53 2.340362 1_555
P49 P59 2.263651 1_555
P49 P54 2.316519 1_555
