# generated using pymatgen
data_Li7Mn5O12
_symmetry_space_group_name_H-M   'P 1'
_cell_length_a   6.46379487
_cell_length_b   8.37426803
_cell_length_c   8.63443664
_cell_angle_alpha   89.84766565
_cell_angle_beta   89.82689674
_cell_angle_gamma   70.83755859
_symmetry_Int_Tables_number   1
_chemical_formula_structural   Li7Mn5O12
_chemical_formula_sum   'Li14 Mn10 O24'
_cell_volume   441.47886499
_cell_formula_units_Z   2
loop_
 _symmetry_equiv_pos_site_id
 _symmetry_equiv_pos_as_xyz
  1  'x, y, z'
loop_
 _atom_site_type_symbol
 _atom_site_label
 _atom_site_symmetry_multiplicity
 _atom_site_fract_x
 _atom_site_fract_y
 _atom_site_fract_z
 _atom_site_occupancy
  Li  Li0  1  0.33507500  0.16011400  0.00115900  1
  Li  Li1  1  0.33152300  0.67272500  0.49848000  1
  Li  Li2  1  0.33336900  0.41662600  0.24996400  1
  Li  Li3  1  0.33295500  0.91695200  0.75005000  1
  Li  Li4  1  0.33314100  0.41683500  0.75039900  1
  Li  Li5  1  0.33351700  0.91672700  0.24989900  1
  Li  Li6  1  0.65928600  0.83719100  0.01895700  1
  Li  Li7  1  0.65851000  0.33440900  0.51973000  1
  Li  Li8  1  0.00703400  0.49983900  0.98146000  1
  Li  Li9  1  0.00715900  0.99587900  0.48033500  1
  Li  Li10  1  0.00854000  0.24734500  0.75001400  1
  Li  Li11  1  0.00995000  0.75421800  0.25521900  1
  Li  Li12  1  0.65837200  0.58660700  0.75130900  1
  Li  Li13  1  0.65658300  0.07893400  0.24455000  1
  Mn  Mn0  1  0.32945900  0.16341800  0.49938500  1
  Mn  Mn1  1  0.33647200  0.66979000  0.00073500  1
  Mn  Mn2  1  0.00313000  0.49741600  0.50835200  1
  Mn  Mn3  1  0.99773200  0.99685500  0.00756100  1
  Mn  Mn4  1  0.66436500  0.33417000  0.99164200  1
  Mn  Mn5  1  0.66921700  0.83628400  0.49240200  1
  Mn  Mn6  1  0.00337100  0.74776500  0.74900400  1
  Mn  Mn7  1  0.00175700  0.24678800  0.25272900  1
  Mn  Mn8  1  0.66554100  0.58627000  0.24729800  1
  Mn  Mn9  1  0.66274800  0.08567400  0.74996800  1
  O  O0  1  0.98665500  0.48826200  0.27218700  1
  O  O1  1  0.98573300  0.98872700  0.77704300  1
  O  O2  1  0.68094200  0.34480200  0.22742300  1
  O  O3  1  0.68005200  0.84455500  0.72265700  1
  O  O4  1  0.31359200  0.90996200  0.00025700  1
  O  O5  1  0.32230000  0.40077500  0.49959000  1
  O  O6  1  0.34562900  0.43337100  0.00053900  1
  O  O7  1  0.35255100  0.92386400  0.49965000  1
  O  O8  1  0.66755400  0.31614900  0.76431500  1
  O  O9  1  0.66991800  0.81827300  0.27105700  1
  O  O10  1  0.99930900  0.51734600  0.73585800  1
  O  O11  1  0.99673600  0.01448500  0.22886900  1
  O  O12  1  0.31725500  0.67389600  0.77382000  1
  O  O13  1  0.31689800  0.16995700  0.27147100  1
  O  O14  1  0.35075600  0.66321400  0.22840000  1
  O  O15  1  0.34778700  0.16011200  0.72654900  1
  O  O16  1  0.65046900  0.60015300  0.99213900  1
  O  O17  1  0.64966100  0.07484900  0.48787800  1
  O  O18  1  0.01662500  0.75868000  0.01222200  1
  O  O19  1  0.01637000  0.23303400  0.50767400  1
  O  O20  1  0.99135200  0.23318900  0.99274000  1
  O  O21  1  0.98772800  0.76409200  0.49486900  1
  O  O22  1  0.67877200  0.06937800  0.00508500  1
  O  O23  1  0.67655300  0.60004400  0.50710300  1
loop_
_geom_bond_atom_site_label_1
_geom_bond_atom_site_label_2
_geom_bond_distance
_geom_bond_site_symmetry_2
Li0 O22 2.099066 1_555
Li0 O20 2.103361 1_454
Li0 O4 2.144472 1_545
Li0 O6 2.311610 1_555
Li0 O13 2.336905 1_555
Li0 O15 2.372278 1_554
Li1 O21 2.099695 1_455
Li1 O23 2.111737 1_555
Li1 O7 2.151607 1_555
Li1 O5 2.297635 1_555
Li1 O14 2.335103 1_555
Li1 O12 2.378837 1_555
Li2 O13 2.110697 1_555
Li2 O14 2.112270 1_555
Li2 O0 2.129455 1_455
Li2 O2 2.134925 1_555
Li2 O6 2.160737 1_555
Li2 O5 2.161523 1_555
Li3 O15 2.079105 1_565
Li3 O12 2.080528 1_555
Li3 O3 2.135807 1_555
Li3 O1 2.136532 1_455
Li3 O4 2.165389 1_556
Li3 O7 2.167119 1_555
Li4 O10 2.046739 1_455
Li4 O8 2.049953 1_555
Li4 O15 2.131179 1_555
Li4 O12 2.131342 1_555
Li4 O6 2.168061 1_556
Li4 O5 2.172890 1_555
Li5 O9 2.065412 1_555
Li5 O11 2.067277 1_465
Li5 O13 2.096586 1_565
Li5 O14 2.097764 1_555
Li5 O4 2.161752 1_555
Li5 O7 2.162439 1_555
Li6 O22 1.992570 1_565
Li6 O16 2.018406 1_554
Li6 O4 2.120876 1_555
Li6 O9 2.181730 1_555
Li6 O18 2.184744 1_655
Li6 O3 2.563136 1_554
Li7 O5 2.066578 1_555
Li7 O8 2.116574 1_555
Li7 O19 2.189057 1_655
Li7 O17 2.210984 1_555
Li7 O23 2.267782 1_555
Li7 O2 2.530535 1_555
Li8 O6 2.080602 1_556
Li8 O10 2.124914 1_455
Li8 O16 2.180412 1_455
Li8 O18 2.205511 1_556
Li8 O20 2.270115 1_455
Li8 O0 2.516598 1_456
Li9 O21 1.989433 1_455
Li9 O19 2.020808 1_565
Li9 O7 2.119806 1_555
Li9 O11 2.176100 1_465
Li9 O17 2.185735 1_465
Li9 O1 2.566830 1_455
Li10 O15 2.080780 1_555
Li10 O8 2.090491 1_455
Li10 O19 2.095725 1_555
Li10 O20 2.103498 1_455
Li10 O1 2.230094 1_445
Li10 O10 2.245195 1_455
Li11 O21 2.073777 1_455
Li11 O9 2.088485 1_455
Li11 O14 2.093538 1_555
Li11 O18 2.098941 1_555
Li11 O11 2.164427 1_465
Li11 O0 2.285342 1_455
Li12 O16 2.082383 1_555
Li12 O10 2.090506 1_555
Li12 O12 2.091364 1_555
Li12 O23 2.116249 1_555
Li12 O3 2.223210 1_555
Li12 O8 2.248620 1_555
Li13 O22 2.072121 1_555
Li13 O13 2.086882 1_555
Li13 O11 2.088868 1_555
Li13 O17 2.101768 1_555
Li13 O9 2.167618 1_545
Li13 O2 2.287354 1_555
Mn0 O19 1.914507 1_555
Mn0 O17 1.958338 1_555
Mn0 O7 1.962162 1_545
Mn0 O15 1.964939 1_555
Mn0 O13 1.969703 1_555
Mn0 O5 1.972991 1_555
Mn1 O16 1.920211 1_554
Mn1 O18 1.956279 1_555
Mn1 O6 1.961210 1_555
Mn1 O12 1.963087 1_554
Mn1 O4 1.967679 1_555
Mn1 O14 1.967981 1_555
Mn2 O5 1.954519 1_555
Mn2 O10 1.971300 1_455
Mn2 O23 2.000957 1_455
Mn2 O0 2.045204 1_455
Mn2 O19 2.187431 1_555
Mn2 O21 2.205323 1_455
Mn3 O11 1.916785 1_565
Mn3 O4 1.930279 1_655
Mn3 O22 1.948862 1_565
Mn3 O18 1.958169 1_655
Mn3 O20 1.969800 1_564
Mn3 O1 1.994350 1_554
Mn4 O6 1.953563 1_556
Mn4 O8 1.968561 1_555
Mn4 O20 2.002277 1_555
Mn4 O2 2.042690 1_556
Mn4 O22 2.191418 1_556
Mn4 O16 2.199582 1_555
Mn5 O9 1.917406 1_555
Mn5 O7 1.935305 1_555
Mn5 O21 1.946187 1_555
Mn5 O17 1.960246 1_565
Mn5 O23 1.967052 1_555
Mn5 O3 1.991756 1_555
Mn6 O12 1.929486 1_555
Mn6 O10 1.941993 1_455
Mn6 O3 1.991511 1_455
Mn6 O1 1.998713 1_455
Mn6 O21 2.198771 1_455
Mn6 O18 2.277819 1_556
Mn7 O13 1.931470 1_555
Mn7 O11 1.967631 1_455
Mn7 O2 1.976358 1_455
Mn7 O0 1.999759 1_455
Mn7 O19 2.204700 1_555
Mn7 O20 2.250374 1_454
Mn8 O14 1.929399 1_555
Mn8 O9 1.963622 1_555
Mn8 O0 1.977718 1_555
Mn8 O2 1.999477 1_555
Mn8 O16 2.206671 1_554
Mn8 O23 2.249080 1_555
Mn9 O15 1.934634 1_555
Mn9 O8 1.944761 1_555
Mn9 O1 1.990358 1_545
Mn9 O3 1.999843 1_545
Mn9 O22 2.207293 1_556
Mn9 O17 2.268000 1_555
