# generated using pymatgen
data_NdCoAsO
_symmetry_space_group_name_H-M   'P 1'
_cell_length_a   4.06566600
_cell_length_b   4.06566600
_cell_length_c   8.06628400
_cell_angle_alpha   90.00000000
_cell_angle_beta   90.00000000
_cell_angle_gamma   90.00000000
_symmetry_Int_Tables_number   1
_chemical_formula_structural   NdCoAsO
_chemical_formula_sum   'Nd2 Co2 As2 O2'
_cell_volume   133.33277085
_cell_formula_units_Z   2
loop_
 _symmetry_equiv_pos_site_id
 _symmetry_equiv_pos_as_xyz
  1  'x, y, z'
loop_
 _atom_site_type_symbol
 _atom_site_label
 _atom_site_symmetry_multiplicity
 _atom_site_fract_x
 _atom_site_fract_y
 _atom_site_fract_z
 _atom_site_occupancy
  Nd  Nd0  1  0.00000000  0.50000000  0.85476700  1
  Nd  Nd1  1  0.50000000  0.00000000  0.14523300  1
  Co  Co0  1  0.50000000  0.50000000  0.50000000  1
  Co  Co1  1  0.00000000  0.00000000  0.50000000  1
  As  As0  1  0.00000000  0.50000000  0.36400000  1
  As  As1  1  0.50000000  0.00000000  0.63600000  1
  O  O0  1  0.50000000  0.50000000  0.00000000  1
  O  O1  1  0.00000000  0.00000000  0.00000000  1
loop_
_geom_bond_atom_site_label_1
_geom_bond_atom_site_label_2
_geom_bond_distance
_geom_bond_site_symmetry_2
Nd0 O0 2.346231 1_456
Nd0 O1 2.346231 1_566
Nd0 O1 2.346231 1_556
Nd0 O0 2.346231 1_556
Nd1 O1 2.346231 1_655
Nd1 O0 2.346231 1_555
Nd1 O1 2.346231 1_555
Nd1 O0 2.346231 1_545
As0 Co1 2.309946 1_565
As0 Co0 2.309946 1_455
As0 Co1 2.309946 1_555
As0 Co0 2.309946 1_555
As1 Co0 2.309946 1_545
As1 Co1 2.309946 1_555
As1 Co1 2.309946 1_655
As1 Co0 2.309946 1_555
