# generated using pymatgen
data_BaSnHg
_symmetry_space_group_name_H-M   'P 1'
_cell_length_a   4.95645750
_cell_length_b   4.95645671
_cell_length_c   9.73284672
_cell_angle_alpha   90.00000000
_cell_angle_beta   90.00000000
_cell_angle_gamma   120.00000525
_symmetry_Int_Tables_number   1
_chemical_formula_structural   BaSnHg
_chemical_formula_sum   'Ba2 Sn2 Hg2'
_cell_volume   207.06809921
_cell_formula_units_Z   2
loop_
 _symmetry_equiv_pos_site_id
 _symmetry_equiv_pos_as_xyz
  1  'x, y, z'
loop_
 _atom_site_type_symbol
 _atom_site_label
 _atom_site_symmetry_multiplicity
 _atom_site_fract_x
 _atom_site_fract_y
 _atom_site_fract_z
 _atom_site_occupancy
  Ba  Ba0  1  -0.00000000  -0.00000000  0.50000000  1
  Ba  Ba1  1  -0.00000000  -0.00000000  -0.00000000  1
  Sn  Sn0  1  0.66666700  0.33333300  0.25000000  1
  Sn  Sn1  1  0.33333300  0.66666700  0.75000000  1
  Hg  Hg0  1  0.33333300  0.66666700  0.25000000  1
  Hg  Hg1  1  0.66666700  0.33333300  0.75000000  1
loop_
_geom_bond_atom_site_label_1
_geom_bond_atom_site_label_2
_geom_bond_distance
_geom_bond_site_symmetry_2
Ba0 Sn0 3.756238 1_455
Ba0 Hg0 3.756238 1_545
Ba0 Sn1 3.756238 1_545
Ba0 Hg1 3.756238 1_455
Ba0 Sn1 3.756241 1_555
Ba0 Hg1 3.756241 1_445
Ba0 Sn0 3.756241 1_445
Ba0 Hg0 3.756241 1_555
Ba0 Sn1 3.756241 1_445
Ba0 Sn0 3.756241 1_555
Ba0 Hg0 3.756241 1_445
Ba0 Hg1 3.756241 1_555
Ba1 Sn0 3.756238 1_455
Ba1 Hg1 3.756238 1_454
Ba1 Sn1 3.756238 1_544
Ba1 Hg0 3.756238 1_545
Ba1 Hg1 3.756241 1_444
Ba1 Sn1 3.756241 1_554
Ba1 Sn0 3.756241 1_445
Ba1 Hg0 3.756241 1_555
Ba1 Sn0 3.756241 1_555
Ba1 Hg0 3.756241 1_445
Ba1 Sn1 3.756241 1_444
Ba1 Hg1 3.756241 1_554
Hg0 Sn0 2.861609 1_565
Hg0 Sn0 2.861609 1_455
Hg0 Sn0 2.861618 1_555
Hg1 Sn1 2.861609 1_545
Hg1 Sn1 2.861609 1_655
Hg1 Sn1 2.861618 1_555
