# generated using pymatgen
data_Fe5(SiO4)3
_symmetry_space_group_name_H-M   'P 1'
_cell_length_a   4.89321100
_cell_length_b   10.40152100
_cell_length_c   17.85261600
_cell_angle_alpha   90.00000000
_cell_angle_beta   90.00000000
_cell_angle_gamma   90.00000000
_symmetry_Int_Tables_number   1
_chemical_formula_structural   Fe5(SiO4)3
_chemical_formula_sum   'Fe20 Si12 O48'
_cell_volume   908.64168611
_cell_formula_units_Z   4
loop_
 _symmetry_equiv_pos_site_id
 _symmetry_equiv_pos_as_xyz
  1  'x, y, z'
loop_
 _atom_site_type_symbol
 _atom_site_label
 _atom_site_symmetry_multiplicity
 _atom_site_fract_x
 _atom_site_fract_y
 _atom_site_fract_z
 _atom_site_occupancy
  Fe  Fe0  1  0.99467200  0.72969900  0.08047600  1
  Fe  Fe1  1  0.50532800  0.22969900  0.41952400  1
  Fe  Fe2  1  0.00532800  0.27030100  0.58047600  1
  Fe  Fe3  1  0.49467200  0.77030100  0.91952400  1
  Fe  Fe4  1  0.00532800  0.27030100  0.91952400  1
  Fe  Fe5  1  0.49467200  0.77030100  0.58047600  1
  Fe  Fe6  1  0.99467200  0.72969900  0.41952400  1
  Fe  Fe7  1  0.50532800  0.22969900  0.08047600  1
  Fe  Fe8  1  0.48256600  0.78311300  0.25000000  1
  Fe  Fe9  1  0.01743400  0.28311300  0.25000000  1
  Fe  Fe10  1  0.51743400  0.21688700  0.75000000  1
  Fe  Fe11  1  0.98256600  0.71688700  0.75000000  1
  Fe  Fe12  1  0.50292900  0.50770200  0.15913200  1
  Fe  Fe13  1  0.99707100  0.00770200  0.34086800  1
  Fe  Fe14  1  0.49707100  0.49229800  0.65913200  1
  Fe  Fe15  1  0.00292900  0.99229800  0.84086800  1
  Fe  Fe16  1  0.49707100  0.49229800  0.84086800  1
  Fe  Fe17  1  0.00292900  0.99229800  0.65913200  1
  Fe  Fe18  1  0.50292900  0.50770200  0.34086800  1
  Fe  Fe19  1  0.99707100  0.00770200  0.15913200  1
  Si  Si0  1  0.93178200  0.60005100  0.25000000  1
  Si  Si1  1  0.56821800  0.10005100  0.25000000  1
  Si  Si2  1  0.06821800  0.39994900  0.75000000  1
  Si  Si3  1  0.43178200  0.89994900  0.75000000  1
  Si  Si4  1  0.06449300  0.40618800  0.08012200  1
  Si  Si5  1  0.43550700  0.90618800  0.41987800  1
  Si  Si6  1  0.93550700  0.59381200  0.58012200  1
  Si  Si7  1  0.56449300  0.09381200  0.91987800  1
  Si  Si8  1  0.93550700  0.59381200  0.91987800  1
  Si  Si9  1  0.56449300  0.09381200  0.58012200  1
  Si  Si10  1  0.06449300  0.40618800  0.41987800  1
  Si  Si11  1  0.43550700  0.90618800  0.08012200  1
  O  O0  1  0.26657300  0.59607200  0.25000000  1
  O  O1  1  0.23342700  0.09607200  0.25000000  1
  O  O2  1  0.73342700  0.40392800  0.75000000  1
  O  O3  1  0.76657300  0.90392800  0.75000000  1
  O  O4  1  0.76628300  0.89419300  0.08656200  1
  O  O5  1  0.73371700  0.39419300  0.41343800  1
  O  O6  1  0.23371700  0.10580700  0.58656200  1
  O  O7  1  0.26628300  0.60580700  0.91343800  1
  O  O8  1  0.23371700  0.10580700  0.91343800  1
  O  O9  1  0.26628300  0.60580700  0.58656200  1
  O  O10  1  0.76628300  0.89419300  0.41343800  1
  O  O11  1  0.73371700  0.39419300  0.08656200  1
  O  O12  1  0.32714900  0.05557100  0.08496800  1
  O  O13  1  0.17285100  0.55557100  0.41503200  1
  O  O14  1  0.67285100  0.94442900  0.58496800  1
  O  O15  1  0.82714900  0.44442900  0.91503200  1
  O  O16  1  0.67285100  0.94442900  0.91503200  1
  O  O17  1  0.82714900  0.44442900  0.58496800  1
  O  O18  1  0.32714900  0.05557100  0.41503200  1
  O  O19  1  0.17285100  0.55557100  0.08496800  1
  O  O20  1  0.29640900  0.82255400  0.01136600  1
  O  O21  1  0.20359100  0.32255400  0.48863400  1
  O  O22  1  0.70359100  0.17744600  0.51136600  1
  O  O23  1  0.79640900  0.67744600  0.98863400  1
  O  O24  1  0.70359100  0.17744600  0.98863400  1
  O  O25  1  0.79640900  0.67744600  0.51136600  1
  O  O26  1  0.29640900  0.82255400  0.48863400  1
  O  O27  1  0.20359100  0.32255400  0.01136600  1
  O  O28  1  0.27049300  0.83382800  0.15104500  1
  O  O29  1  0.22950700  0.33382800  0.34895500  1
  O  O30  1  0.72950700  0.16617200  0.65104500  1
  O  O31  1  0.77049300  0.66617200  0.84895500  1
  O  O32  1  0.72950700  0.16617200  0.84895500  1
  O  O33  1  0.77049300  0.66617200  0.65104500  1
  O  O34  1  0.27049300  0.83382800  0.34895500  1
  O  O35  1  0.22950700  0.33382800  0.15104500  1
  O  O36  1  0.79052900  0.67267400  0.17648400  1
  O  O37  1  0.70947100  0.17267400  0.32351600  1
  O  O38  1  0.20947100  0.32732600  0.67648400  1
  O  O39  1  0.29052900  0.82732600  0.82351600  1
  O  O40  1  0.20947100  0.32732600  0.82351600  1
  O  O41  1  0.29052900  0.82732600  0.67648400  1
  O  O42  1  0.79052900  0.67267400  0.32351600  1
  O  O43  1  0.70947100  0.17267400  0.17648400  1
  O  O44  1  0.21088000  0.54341600  0.75000000  1
  O  O45  1  0.28912000  0.04341600  0.75000000  1
  O  O46  1  0.78912000  0.45658400  0.25000000  1
  O  O47  1  0.71088000  0.95658400  0.25000000  1
loop_
_geom_bond_atom_site_label_1
_geom_bond_atom_site_label_2
_geom_bond_distance
_geom_bond_site_symmetry_2
Fe0 O23 1.981145 1_554
Fe0 O19 2.011719 1_655
Fe0 O4 2.046513 1_555
Fe0 O36 2.070611 1_555
Fe0 O28 2.140528 1_655
Fe0 O20 2.152911 1_655
Fe1 O22 1.981145 1_555
Fe1 O18 2.011719 1_555
Fe1 O5 2.046513 1_555
Fe1 O37 2.070611 1_555
Fe1 O29 2.140528 1_555
Fe1 O21 2.152911 1_555
Fe2 O21 1.981145 1_555
Fe2 O17 2.011719 1_455
Fe2 O6 2.046513 1_555
Fe2 O38 2.070611 1_555
Fe2 O30 2.140528 1_455
Fe2 O22 2.152911 1_455
Fe3 O20 1.981145 1_556
Fe3 O16 2.011719 1_555
Fe3 O7 2.046513 1_555
Fe3 O39 2.070611 1_555
Fe3 O31 2.140528 1_555
Fe3 O23 2.152911 1_555
Fe4 O27 1.981145 1_556
Fe4 O15 2.011719 1_455
Fe4 O8 2.046513 1_555
Fe4 O40 2.070611 1_555
Fe4 O32 2.140528 1_455
Fe4 O24 2.152911 1_455
Fe5 O26 1.981145 1_555
Fe5 O14 2.011719 1_555
Fe5 O9 2.046513 1_555
Fe5 O41 2.070611 1_555
Fe5 O33 2.140528 1_555
Fe5 O25 2.152911 1_555
Fe6 O25 1.981145 1_555
Fe6 O13 2.011719 1_655
Fe6 O10 2.046513 1_555
Fe6 O42 2.070611 1_555
Fe6 O34 2.140528 1_655
Fe6 O26 2.152911 1_655
Fe7 O24 1.981145 1_554
Fe7 O12 2.011719 1_555
Fe7 O11 2.046513 1_555
Fe7 O43 2.070611 1_555
Fe7 O35 2.140528 1_555
Fe7 O27 2.152911 1_555
Fe8 O28 2.115662 1_555
Fe8 O34 2.115662 1_555
Fe8 O47 2.122224 1_555
Fe8 O0 2.214057 1_555
Fe8 O36 2.304984 1_555
Fe8 O42 2.304984 1_555
Fe9 O35 2.115662 1_555
Fe9 O29 2.115662 1_555
Fe9 O46 2.122224 1_455
Fe9 O1 2.214057 1_555
Fe9 O37 2.304984 1_455
Fe9 O43 2.304984 1_455
Fe10 O30 2.115662 1_555
Fe10 O32 2.115662 1_555
Fe10 O45 2.122224 1_555
Fe10 O2 2.214057 1_555
Fe10 O40 2.304984 1_555
Fe10 O38 2.304984 1_555
Fe11 O33 2.115662 1_555
Fe11 O31 2.115662 1_555
Fe11 O44 2.122224 1_655
Fe11 O3 2.214057 1_555
Fe11 O39 2.304984 1_655
Fe11 O41 2.304984 1_655
Fe12 O11 2.085130 1_555
Fe12 O19 2.147005 1_555
Fe12 O0 2.194109 1_555
Fe12 O46 2.208041 1_555
Fe12 O36 2.240745 1_555
Fe12 O35 2.254267 1_555
Fe13 O10 2.085130 1_545
Fe13 O18 2.147005 1_655
Fe13 O1 2.194109 1_655
Fe13 O47 2.208041 1_545
Fe13 O37 2.240745 1_555
Fe13 O34 2.254267 1_645
Fe14 O9 2.085130 1_555
Fe14 O17 2.147005 1_555
Fe14 O2 2.194109 1_555
Fe14 O44 2.208041 1_555
Fe14 O38 2.240745 1_555
Fe14 O33 2.254267 1_555
Fe15 O8 2.085130 1_565
Fe15 O16 2.147005 1_455
Fe15 O3 2.194109 1_455
Fe15 O45 2.208041 1_565
Fe15 O39 2.240745 1_555
Fe15 O32 2.254267 1_465
Fe16 O7 2.085130 1_555
Fe16 O15 2.147005 1_555
Fe16 O2 2.194109 1_555
Fe16 O44 2.208041 1_555
Fe16 O40 2.240745 1_555
Fe16 O31 2.254267 1_555
Fe17 O6 2.085130 1_565
Fe17 O14 2.147005 1_455
Fe17 O3 2.194109 1_455
Fe17 O45 2.208041 1_565
Fe17 O41 2.240745 1_555
Fe17 O30 2.254267 1_465
Fe18 O5 2.085130 1_555
Fe18 O13 2.147005 1_555
Fe18 O0 2.194109 1_555
Fe18 O46 2.208041 1_555
Fe18 O42 2.240745 1_555
Fe18 O29 2.254267 1_555
Fe19 O4 2.085130 1_545
Fe19 O12 2.147005 1_655
Fe19 O1 2.194109 1_655
Fe19 O47 2.208041 1_545
Fe19 O43 2.240745 1_555
Fe19 O28 2.254267 1_645
O0 Si0 1.638726 1_455
O1 Si1 1.638726 1_555
O2 Si2 1.638726 1_655
O3 Si3 1.638726 1_555
O4 Si11 1.627425 1_555
O5 Si10 1.627425 1_655
O6 Si9 1.627425 1_555
O7 Si8 1.627425 1_455
O8 Si7 1.627425 1_555
O9 Si6 1.627425 1_455
O10 Si5 1.627425 1_555
O11 Si4 1.627425 1_655
O12 Si11 1.644063 1_545
O13 Si10 1.644063 1_555
O14 Si9 1.644063 1_565
O15 Si8 1.644063 1_555
O16 Si7 1.644063 1_565
O17 Si6 1.644063 1_555
O18 Si5 1.644063 1_545
O19 Si4 1.644063 1_555
O20 Si11 1.651279 1_555
O21 Si10 1.651279 1_555
O22 Si9 1.651279 1_555
O23 Si8 1.651279 1_555
O24 Si7 1.651279 1_555
O25 Si6 1.651279 1_555
O26 Si5 1.651279 1_555
O27 Si4 1.651279 1_555
O28 Si11 1.679769 1_555
O29 Si10 1.679769 1_555
O30 Si9 1.679769 1_555
O31 Si8 1.679769 1_555
O32 Si7 1.679769 1_555
O33 Si6 1.679769 1_555
O34 Si5 1.679769 1_555
O35 Si4 1.679769 1_555
O36 Si0 1.664595 1_555
O37 Si1 1.664595 1_555
O38 Si2 1.664595 1_555
O39 Si3 1.664595 1_555
O40 Si2 1.664595 1_555
O41 Si3 1.664595 1_555
O42 Si0 1.664595 1_555
O43 Si1 1.664595 1_555
O44 Si2 1.647481 1_555
O45 Si3 1.647481 1_545
O46 Si0 1.647481 1_555
O47 Si1 1.647481 1_565
