# generated using pymatgen
data_Ba3Sr2As3ClO12
_symmetry_space_group_name_H-M   'P 1'
_cell_length_a   10.58221027
_cell_length_b   10.58221027
_cell_length_c   7.68522600
_cell_angle_alpha   90.00000000
_cell_angle_beta   90.00000000
_cell_angle_gamma   120.00000169
_symmetry_Int_Tables_number   1
_chemical_formula_structural   Ba3Sr2As3ClO12
_chemical_formula_sum   'Ba6 Sr4 As6 Cl2 O24'
_cell_volume   745.31530789
_cell_formula_units_Z   2
loop_
 _symmetry_equiv_pos_site_id
 _symmetry_equiv_pos_as_xyz
  1  'x, y, z'
loop_
 _atom_site_type_symbol
 _atom_site_label
 _atom_site_symmetry_multiplicity
 _atom_site_fract_x
 _atom_site_fract_y
 _atom_site_fract_z
 _atom_site_occupancy
  Ba  Ba0  1  0.74234000  0.98919700  0.75000000  1
  Ba  Ba1  1  0.25766000  0.01080300  0.25000000  1
  Ba  Ba2  1  0.24685700  0.25766000  0.75000000  1
  Ba  Ba3  1  0.75314300  0.74234000  0.25000000  1
  Ba  Ba4  1  0.01080300  0.75314300  0.75000000  1
  Ba  Ba5  1  0.98919700  0.24685700  0.25000000  1
  Sr  Sr0  1  0.66666700  0.33333300  0.00011000  1
  Sr  Sr1  1  0.33333300  0.66666700  0.99989000  1
  Sr  Sr2  1  0.33333300  0.66666700  0.50011000  1
  Sr  Sr3  1  0.66666700  0.33333300  0.49989000  1
  As  As0  1  0.96643400  0.37983200  0.75000000  1
  As  As1  1  0.03356600  0.62016800  0.25000000  1
  As  As2  1  0.41339800  0.03356600  0.75000000  1
  As  As3  1  0.58660200  0.96643400  0.25000000  1
  As  As4  1  0.62016800  0.58660200  0.75000000  1
  As  As5  1  0.37983200  0.41339800  0.25000000  1
  Cl  Cl0  1  0.00000000  0.00000000  0.00000000  1
  Cl  Cl1  1  0.00000000  0.00000000  0.50000000  1
  O  O0  1  0.49778300  0.64957300  0.75000000  1
  O  O1  1  0.50221700  0.35042700  0.25000000  1
  O  O2  1  0.15179000  0.50221700  0.75000000  1
  O  O3  1  0.84821000  0.49778300  0.25000000  1
  O  O4  1  0.35042700  0.84821000  0.75000000  1
  O  O5  1  0.64957300  0.15179000  0.25000000  1
  O  O6  1  0.91183800  0.26837000  0.92951900  1
  O  O7  1  0.08816200  0.73163000  0.07048100  1
  O  O8  1  0.35653200  0.08816200  0.92951900  1
  O  O9  1  0.08816200  0.73163000  0.42951900  1
  O  O10  1  0.64346800  0.91183800  0.07048100  1
  O  O11  1  0.91183800  0.26837000  0.57048100  1
  O  O12  1  0.73163000  0.64346800  0.92951900  1
  O  O13  1  0.64346800  0.91183800  0.42951900  1
  O  O14  1  0.26837000  0.35653200  0.07048100  1
  O  O15  1  0.35653200  0.08816200  0.57048100  1
  O  O16  1  0.26837000  0.35653200  0.42951900  1
  O  O17  1  0.73163000  0.64346800  0.57048100  1
  O  O18  1  0.86385000  0.46626700  0.75000000  1
  O  O19  1  0.13615000  0.53373300  0.25000000  1
  O  O20  1  0.60241800  0.13615000  0.75000000  1
  O  O21  1  0.39758200  0.86385000  0.25000000  1
  O  O22  1  0.53373300  0.39758200  0.75000000  1
  O  O23  1  0.46626700  0.60241800  0.25000000  1
loop_
_geom_bond_atom_site_label_1
_geom_bond_atom_site_label_2
_geom_bond_distance
_geom_bond_site_symmetry_2
Ba0 O20 2.629319 1_565
Ba0 O13 2.640940 1_555
Ba0 O10 2.640940 1_556
Ba0 O6 2.923932 1_565
Ba0 O11 2.923932 1_565
Ba0 O0 3.211403 1_555
Ba0 Cl0 3.290471 1_666
Ba0 Cl1 3.290471 1_665
Ba1 O21 2.629319 1_545
Ba1 O8 2.640940 1_554
Ba1 O15 2.640940 1_555
Ba1 O9 2.923932 1_545
Ba1 O7 2.923932 1_545
Ba1 O1 3.211403 1_555
Ba1 Cl1 3.290471 1_555
Ba1 Cl0 3.290471 1_555
Ba2 O22 2.629328 1_555
Ba2 O16 2.640940 1_555
Ba2 O14 2.640940 1_556
Ba2 O8 2.923932 1_555
Ba2 O15 2.923932 1_555
Ba2 O2 3.211403 1_555
Ba2 Cl0 3.290471 1_556
Ba2 Cl1 3.290471 1_555
Ba3 O23 2.629328 1_555
Ba3 O12 2.640940 1_554
Ba3 O17 2.640940 1_555
Ba3 O13 2.923932 1_555
Ba3 O10 2.923932 1_555
Ba3 O3 3.211403 1_555
Ba3 Cl1 3.290471 1_665
Ba3 Cl0 3.290471 1_665
Ba4 O18 2.629328 1_455
Ba4 O7 2.640940 1_556
Ba4 O9 2.640940 1_555
Ba4 O17 2.923932 1_455
Ba4 O12 2.923932 1_455
Ba4 O4 3.211403 1_555
Ba4 Cl0 3.290471 1_566
Ba4 Cl1 3.290471 1_565
Ba5 O19 2.629328 1_655
Ba5 O11 2.640940 1_555
Ba5 O6 2.640940 1_554
Ba5 O16 2.923932 1_655
Ba5 O14 2.923932 1_655
Ba5 O5 3.211403 1_555
Ba5 Cl0 3.290471 1_655
Ba5 Cl1 3.290471 1_655
As0 O11 1.716684 1_555
As0 O6 1.716684 1_555
As0 O2 1.727532 1_655
As0 O18 1.734364 1_555
As1 O9 1.716684 1_555
As1 O7 1.716684 1_555
As1 O3 1.727532 1_455
As1 O19 1.734364 1_555
As2 O8 1.716684 1_555
As2 O15 1.716684 1_555
As2 O4 1.727532 1_545
As2 O20 1.734373 1_555
As3 O13 1.716684 1_555
As3 O10 1.716684 1_555
As3 O5 1.727532 1_565
As3 O21 1.734373 1_555
As4 O12 1.716684 1_555
As4 O17 1.716684 1_555
As4 O0 1.727532 1_555
As4 O22 1.734373 1_555
As5 O14 1.716684 1_555
As5 O16 1.716684 1_555
As5 O1 1.727532 1_555
As5 O23 1.734373 1_555
O0 Sr2 2.657845 1_555
O0 Sr1 2.657845 1_555
O1 Sr3 2.657845 1_555
O1 Sr0 2.657845 1_555
O2 Sr1 2.657841 1_555
O2 Sr2 2.657841 1_555
O3 Sr0 2.657841 1_555
O3 Sr3 2.657841 1_555
O4 Sr2 2.657838 1_555
O4 Sr1 2.657838 1_555
O5 Sr3 2.657838 1_555
O5 Sr0 2.657838 1_555
O6 Sr0 3.046579 1_556
O7 Sr1 3.046579 1_554
O8 Sr0 3.046586 1_556
O9 Sr2 3.046579 1_555
O10 Sr1 3.046586 1_554
O11 Sr3 3.046579 1_555
O12 Sr0 3.046589 1_556
O13 Sr2 3.046586 1_555
O14 Sr1 3.046589 1_554
O15 Sr3 3.046586 1_555
O16 Sr2 3.046589 1_555
O17 Sr3 3.046589 1_555
O18 Sr0 2.663131 1_556
O18 Sr3 2.663131 1_555
O19 Sr1 2.663131 1_554
O19 Sr2 2.663131 1_555
O20 Sr3 2.663131 1_555
O20 Sr0 2.663131 1_556
O21 Sr1 2.663131 1_554
O21 Sr2 2.663131 1_555
O22 Sr3 2.663131 1_555
O22 Sr0 2.663131 1_556
O23 Sr2 2.663131 1_555
O23 Sr1 2.663131 1_554
