# generated using pymatgen
data_CrCoGe
_symmetry_space_group_name_H-M   'P 1'
_cell_length_a   4.10051151
_cell_length_b   4.10051151
_cell_length_c   5.10417800
_cell_angle_alpha   90.00000000
_cell_angle_beta   90.00000000
_cell_angle_gamma   119.99999217
_symmetry_Int_Tables_number   1
_chemical_formula_structural   CrCoGe
_chemical_formula_sum   'Cr2 Co2 Ge2'
_cell_volume   74.32459456
_cell_formula_units_Z   2
loop_
 _symmetry_equiv_pos_site_id
 _symmetry_equiv_pos_as_xyz
  1  'x, y, z'
loop_
 _atom_site_type_symbol
 _atom_site_label
 _atom_site_symmetry_multiplicity
 _atom_site_fract_x
 _atom_site_fract_y
 _atom_site_fract_z
 _atom_site_occupancy
  Cr  Cr0  1  0.00000000  0.00000000  0.50000000  1
  Cr  Cr1  1  0.00000000  0.00000000  0.00000000  1
  Co  Co0  1  0.33333300  0.66666700  0.25000000  1
  Co  Co1  1  0.66666700  0.33333300  0.75000000  1
  Ge  Ge0  1  0.66666700  0.33333300  0.25000000  1
  Ge  Ge1  1  0.33333300  0.66666700  0.75000000  1
loop_
_geom_bond_atom_site_label_1
_geom_bond_atom_site_label_2
_geom_bond_distance
_geom_bond_site_symmetry_2
Cr0 Cr1 2.552089 1_555
Cr0 Cr1 2.552089 1_556
Cr0 Ge0 2.689425 1_455
Cr0 Ge1 2.689425 1_545
Cr0 Ge0 2.689429 1_445
Cr0 Ge1 2.689429 1_555
Cr0 Ge0 2.689429 1_555
Cr0 Ge1 2.689429 1_445
Cr1 Ge0 2.689425 1_455
Cr1 Ge1 2.689425 1_544
Cr1 Ge0 2.689429 1_445
Cr1 Ge1 2.689429 1_554
Cr1 Ge0 2.689429 1_555
Cr1 Ge1 2.689429 1_444
Co0 Ge0 2.367429 1_565
Co0 Ge0 2.367429 1_455
Co0 Ge0 2.367436 1_555
Co0 Ge1 2.552089 1_555
Co0 Ge1 2.552089 1_554
Co0 Cr0 2.689425 1_565
Co0 Cr1 2.689425 1_565
Co0 Cr0 2.689429 1_665
Co0 Cr1 2.689429 1_665
Co0 Cr0 2.689429 1_555
Co0 Cr1 2.689429 1_555
Co1 Ge1 2.367429 1_545
Co1 Ge1 2.367429 1_655
Co1 Ge1 2.367436 1_555
Co1 Ge0 2.552089 1_556
Co1 Ge0 2.552089 1_555
Co1 Cr0 2.689425 1_655
Co1 Cr1 2.689425 1_656
Co1 Cr1 2.689429 1_556
Co1 Cr0 2.689429 1_665
Co1 Cr0 2.689429 1_555
Co1 Cr1 2.689429 1_666
