# generated using pymatgen
data_Mg2Cr3FeS8
_symmetry_space_group_name_H-M   'P 1'
_cell_length_a   7.14066467
_cell_length_b   7.12757996
_cell_length_c   7.14772814
_cell_angle_alpha   60.44425587
_cell_angle_beta   60.27274359
_cell_angle_gamma   60.31309722
_symmetry_Int_Tables_number   1
_chemical_formula_structural   Mg2Cr3FeS8
_chemical_formula_sum   'Mg2 Cr3 Fe1 S8'
_cell_volume   259.23413600
_cell_formula_units_Z   1
loop_
 _symmetry_equiv_pos_site_id
 _symmetry_equiv_pos_as_xyz
  1  'x, y, z'
loop_
 _atom_site_type_symbol
 _atom_site_label
 _atom_site_symmetry_multiplicity
 _atom_site_fract_x
 _atom_site_fract_y
 _atom_site_fract_z
 _atom_site_occupancy
  Mg  Mg0  1  0.87542500  0.87527500  0.87531000  1
  Mg  Mg1  1  0.12457800  0.12471400  0.12470900  1
  Cr  Cr0  1  0.50000800  0.49999400  0.99997200  1
  Cr  Cr1  1  0.00000100  0.50000800  0.50000700  1
  Cr  Cr2  1  0.49999300  0.00000200  0.50001000  1
  Fe  Fe0  1  0.50000300  0.50000900  0.49998600  1
  S  S0  1  0.73707500  0.73710100  0.73673000  1
  S  S1  1  0.26899500  0.26919900  0.70665000  1
  S  S2  1  0.26928900  0.70652000  0.26900800  1
  S  S3  1  0.70664500  0.26942100  0.26892600  1
  S  S4  1  0.73071200  0.29348300  0.73097200  1
  S  S5  1  0.29336700  0.73057100  0.73107500  1
  S  S6  1  0.26290400  0.26288400  0.26329500  1
  S  S7  1  0.73101000  0.73081300  0.29335100  1
loop_
_geom_bond_atom_site_label_1
_geom_bond_atom_site_label_2
_geom_bond_distance
_geom_bond_site_symmetry_2
Mg0 S0 2.413220 1_555
Mg0 S5 2.445800 1_655
Mg0 S4 2.447412 1_565
Mg0 S7 2.452063 1_556
Mg1 S6 2.413092 1_555
Mg1 S3 2.445746 1_455
Mg1 S2 2.447323 1_545
Mg1 S1 2.452171 1_554
Cr0 S0 2.408291 1_555
Cr0 S6 2.408530 1_556
Cr0 S4 2.413756 1_555
Cr0 S2 2.414020 1_556
Cr0 S5 2.422122 1_555
Cr0 S3 2.422413 1_556
Cr1 S0 2.402359 1_455
Cr1 S6 2.402440 1_555
Cr1 S2 2.418161 1_555
Cr1 S4 2.418231 1_455
Cr1 S1 2.421563 1_555
Cr1 S7 2.421609 1_455
Cr2 S6 2.410576 1_555
Cr2 S0 2.410578 1_545
Cr2 S1 2.414246 1_555
Cr2 S7 2.414291 1_545
Cr2 S5 2.419390 1_545
Cr2 S3 2.419447 1_555
Fe0 S3 2.337728 1_555
Fe0 S5 2.337748 1_555
Fe0 S7 2.341659 1_555
Fe0 S1 2.341682 1_555
Fe0 S2 2.346158 1_555
Fe0 S4 2.346167 1_555
