# generated using pymatgen
data_LiCuP4(RuO7)2
_symmetry_space_group_name_H-M   'P 1'
_cell_length_a   4.93218685
_cell_length_b   6.89855005
_cell_length_c   8.49559625
_cell_angle_alpha   93.48837755
_cell_angle_beta   94.22242994
_cell_angle_gamma   105.81196059
_symmetry_Int_Tables_number   1
_chemical_formula_structural   LiCuP4(RuO7)2
_chemical_formula_sum   'Li1 Cu1 P4 Ru2 O14'
_cell_volume   276.38167645
_cell_formula_units_Z   1
loop_
 _symmetry_equiv_pos_site_id
 _symmetry_equiv_pos_as_xyz
  1  'x, y, z'
loop_
 _atom_site_type_symbol
 _atom_site_label
 _atom_site_symmetry_multiplicity
 _atom_site_fract_x
 _atom_site_fract_y
 _atom_site_fract_z
 _atom_site_occupancy
  Li  Li0  1  0.89371400  0.87831700  0.65496600  1
  Cu  Cu0  1  0.03761600  0.13862500  0.38266400  1
  P  P0  1  0.37639900  0.72710700  0.83174400  1
  P  P1  1  0.60784100  0.26182100  0.18748200  1
  P  P2  1  0.00085500  0.66085800  0.29183800  1
  P  P3  1  0.99249800  0.33021600  0.72915900  1
  Ru  Ru0  1  0.50033000  0.49786400  0.50954400  1
  Ru  Ru1  1  0.99219400  0.99152300  0.00782300  1
  O  O0  1  0.10427200  0.84836200  0.20326700  1
  O  O1  1  0.88218000  0.13636500  0.80924100  1
  O  O2  1  0.48694200  0.74002100  0.66630100  1
  O  O3  1  0.51062800  0.25094200  0.35609400  1
  O  O4  1  0.21922900  0.49128700  0.85137600  1
  O  O5  1  0.77613000  0.49349300  0.16858000  1
  O  O6  1  0.14878500  0.84272100  0.83476800  1
  O  O7  1  0.82656400  0.13441700  0.17950500  1
  O  O8  1  0.23603400  0.56606700  0.34000100  1
  O  O9  1  0.76585800  0.42909100  0.67730000  1
  O  O10  1  0.60483200  0.78481900  0.96953500  1
  O  O11  1  0.37827600  0.20322900  0.05080600  1
  O  O12  1  0.16713100  0.28138800  0.59020100  1
  O  O13  1  0.83891500  0.70961600  0.43436700  1
loop_
_geom_bond_atom_site_label_1
_geom_bond_atom_site_label_2
_geom_bond_distance
_geom_bond_site_symmetry_2
Li0 O6 1.976704 1_655
Li0 O2 1.985232 1_555
Li0 O13 2.104367 1_555
Li0 O1 2.161541 1_565
Cu0 O12 1.940796 1_555
Cu0 O7 1.943247 1_455
Cu0 O3 2.282071 1_555
Cu0 O0 2.549834 1_545
O0 P2 1.521493 1_555
O0 Ru1 2.097574 1_455
O1 P3 1.521830 1_555
O1 Ru1 2.122461 1_546
O2 P0 1.543486 1_555
O2 Ru0 2.090673 1_555
O3 P1 1.543399 1_555
O3 Ru0 2.095312 1_555
O4 P3 1.604604 1_455
O4 P0 1.624832 1_555
O5 P1 1.611497 1_555
O5 P2 1.625623 1_655
O6 P0 1.544923 1_555
O6 Ru1 2.056053 1_456
O7 P1 1.568775 1_555
O7 Ru1 2.050796 1_545
O8 P2 1.522019 1_555
O8 Ru0 2.033597 1_555
O9 P3 1.512768 1_555
O9 Ru0 2.029143 1_555
O10 P0 1.517518 1_555
O10 Ru1 2.038800 1_556
O11 P1 1.514437 1_555
O11 Ru1 2.051712 1_445
O12 P3 1.583807 1_455
O12 Ru0 2.086472 1_555
O13 P2 1.567340 1_655
O13 Ru0 2.066822 1_555
