# generated using pymatgen
data_BaNaPrWO6
_symmetry_space_group_name_H-M   'P 1'
_cell_length_a   8.56878281
_cell_length_b   8.52471104
_cell_length_c   8.53716456
_cell_angle_alpha   90.00000000
_cell_angle_beta   90.00000000
_cell_angle_gamma   90.00000000
_symmetry_Int_Tables_number   1
_chemical_formula_structural   BaNaPrWO6
_chemical_formula_sum   'Ba4 Na4 Pr4 W4 O24'
_cell_volume   623.60911529
_cell_formula_units_Z   4
loop_
 _symmetry_equiv_pos_site_id
 _symmetry_equiv_pos_as_xyz
  1  'x, y, z'
loop_
 _atom_site_type_symbol
 _atom_site_label
 _atom_site_symmetry_multiplicity
 _atom_site_fract_x
 _atom_site_fract_y
 _atom_site_fract_z
 _atom_site_occupancy
  Ba  Ba0  1  -0.00000000  -0.00000000  0.00000000  1
  Ba  Ba1  1  0.50000000  0.50000000  0.50000000  1
  Ba  Ba2  1  -0.00000000  0.50000000  0.50000000  1
  Ba  Ba3  1  0.50000000  -0.00000000  0.00000000  1
  Na  Na0  1  0.50000000  0.00000000  0.50000000  1
  Na  Na1  1  0.50000000  0.50000000  0.00000000  1
  Na  Na2  1  -0.00000000  0.50000000  -0.00000000  1
  Na  Na3  1  -0.00000000  -0.00000000  0.50000000  1
  Pr  Pr0  1  0.75000000  0.75000000  0.75000000  1
  Pr  Pr1  1  0.25000000  0.25000000  0.75000000  1
  Pr  Pr2  1  0.25000000  0.75000000  0.25000000  1
  Pr  Pr3  1  0.75000000  0.25000000  0.25000000  1
  W  W0  1  0.25000000  0.25000000  0.25000000  1
  W  W1  1  0.75000000  0.75000000  0.25000000  1
  W  W2  1  0.75000000  0.25000000  0.75000000  1
  W  W3  1  0.25000000  0.75000000  0.75000000  1
  O  O0  1  0.02497612  0.21974623  0.28783210  1
  O  O1  1  0.97502388  0.78025377  0.28783210  1
  O  O2  1  0.97502388  0.21974623  0.71216790  1
  O  O3  1  0.02497612  0.78025377  0.71216790  1
  O  O4  1  0.27167149  0.02347722  0.21489775  1
  O  O5  1  0.27167149  0.97652278  0.78510225  1
  O  O6  1  0.72832851  0.97652278  0.21489775  1
  O  O7  1  0.72832851  0.02347722  0.78510225  1
  O  O8  1  0.20782188  0.27318716  0.02514916  1
  O  O9  1  0.79217812  0.27318716  0.97485084  1
  O  O10  1  0.20782188  0.72681284  0.97485084  1
  O  O11  1  0.79217812  0.72681284  0.02514916  1
  O  O12  1  0.47502388  0.28025377  0.21216790  1
  O  O13  1  0.52497612  0.71974623  0.21216790  1
  O  O14  1  0.52497612  0.28025377  0.78783210  1
  O  O15  1  0.47502388  0.71974623  0.78783210  1
  O  O16  1  0.22832851  0.47652278  0.28510225  1
  O  O17  1  0.22832851  0.52347722  0.71489775  1
  O  O18  1  0.77167149  0.52347722  0.28510225  1
  O  O19  1  0.77167149  0.47652278  0.71489775  1
  O  O20  1  0.29217812  0.22681284  0.47485084  1
  O  O21  1  0.70782188  0.22681284  0.52514916  1
  O  O22  1  0.29217812  0.77318716  0.52514916  1
  O  O23  1  0.70782188  0.77318716  0.47485084  1
loop_
_geom_bond_atom_site_label_1
_geom_bond_atom_site_label_2
_geom_bond_distance
_geom_bond_site_symmetry_2
Ba0 O10 2.939520 1_544
Ba0 O9 2.939520 1_454
Ba0 O8 2.939520 1_555
Ba0 O11 2.939520 1_445
Ba0 O7 2.970684 1_454
Ba0 O5 2.970684 1_544
Ba0 O6 2.970684 1_445
Ba0 O4 2.970684 1_555
Ba0 O1 3.097278 1_445
Ba0 O0 3.097278 1_555
Ba0 O3 3.097278 1_544
Ba0 O2 3.097278 1_454
Ba1 O20 2.939520 1_555
Ba1 O23 2.939520 1_555
Ba1 O21 2.939520 1_555
Ba1 O22 2.939520 1_555
Ba1 O18 2.970684 1_555
Ba1 O16 2.970684 1_555
Ba1 O19 2.970684 1_555
Ba1 O17 2.970684 1_555
Ba1 O14 3.097278 1_555
Ba1 O15 3.097278 1_555
Ba1 O12 3.097278 1_555
Ba1 O13 3.097278 1_555
Ba2 O19 2.689565 1_455
Ba2 O18 2.689565 1_455
Ba2 O17 2.689565 1_555
Ba2 O16 2.689565 1_555
Ba2 O2 3.005723 1_455
Ba2 O0 3.005723 1_555
Ba2 O3 3.005723 1_555
Ba2 O1 3.005723 1_455
Ba3 O6 2.689565 1_545
Ba3 O7 2.689565 1_554
Ba3 O5 2.689565 1_544
Ba3 O4 2.689565 1_555
Ba3 O13 3.005723 1_545
Ba3 O12 3.005723 1_555
Ba3 O15 3.005723 1_544
Ba3 O14 3.005723 1_554
Na0 O23 2.637376 1_545
Na0 O22 2.637376 1_545
Na0 O21 2.637376 1_555
Na0 O20 2.637376 1_555
Na1 O12 2.614538 1_555
Na1 O13 2.614538 1_555
Na1 O14 2.614538 1_554
Na1 O15 2.614538 1_554
Na2 O11 2.637376 1_455
Na2 O8 2.637376 1_555
Na2 O10 2.637376 1_554
Na2 O9 2.637376 1_454
Na3 O1 2.614538 1_445
Na3 O3 2.614538 1_545
Na3 O2 2.614538 1_455
Na3 O0 2.614538 1_555
O0 W0 1.971982 1_555
O0 Pr3 2.392187 1_455
O1 W1 1.971982 1_555
O1 Pr2 2.392187 1_655
O2 W2 1.971982 1_555
O2 Pr1 2.392187 1_655
O3 W3 1.971982 1_555
O3 Pr0 2.392187 1_455
O4 W0 1.962959 1_555
O4 Pr2 2.357820 1_545
O5 W3 1.962959 1_555
O5 Pr1 2.357820 1_565
O6 W1 1.962959 1_555
O6 Pr3 2.357820 1_565
O7 W2 1.962959 1_555
O7 Pr0 2.357820 1_545
O8 W0 1.963291 1_555
O8 Pr1 2.384840 1_554
O9 W2 1.963291 1_555
O9 Pr3 2.384840 1_556
O10 W3 1.963291 1_555
O10 Pr2 2.384840 1_556
O11 W1 1.963291 1_555
O11 Pr0 2.384840 1_554
O12 W0 1.971982 1_555
O12 Pr3 2.392187 1_555
O13 W1 1.971982 1_555
O13 Pr2 2.392187 1_555
O14 W2 1.971982 1_555
O14 Pr1 2.392187 1_555
O15 W3 1.971982 1_555
O15 Pr0 2.392187 1_555
O16 W0 1.962959 1_555
O16 Pr2 2.357820 1_555
O17 W3 1.962959 1_555
O17 Pr1 2.357820 1_555
O18 W1 1.962959 1_555
O18 Pr3 2.357820 1_555
O19 W2 1.962959 1_555
O19 Pr0 2.357820 1_555
O20 W0 1.963291 1_555
O20 Pr1 2.384840 1_555
O21 W2 1.963291 1_555
O21 Pr3 2.384840 1_555
O22 W3 1.963291 1_555
O22 Pr2 2.384840 1_555
O23 W1 1.963291 1_555
O23 Pr0 2.384840 1_555
