# generated using pymatgen
data_Na2Ca2P2O7F2
_symmetry_space_group_name_H-M   'P 1'
_cell_length_a   7.53458845
_cell_length_b   10.56105528
_cell_length_c   11.10150367
_cell_angle_alpha   90.34029024
_cell_angle_beta   109.63020346
_cell_angle_gamma   90.07546109
_symmetry_Int_Tables_number   1
_chemical_formula_structural   Na2Ca2P2O7F2
_chemical_formula_sum   'Na8 Ca8 P8 O28 F8'
_cell_volume   832.02066659
_cell_formula_units_Z   4
loop_
 _symmetry_equiv_pos_site_id
 _symmetry_equiv_pos_as_xyz
  1  'x, y, z'
loop_
 _atom_site_type_symbol
 _atom_site_label
 _atom_site_symmetry_multiplicity
 _atom_site_fract_x
 _atom_site_fract_y
 _atom_site_fract_z
 _atom_site_occupancy
  Na  Na0  1  0.02369100  0.40303400  0.30253900  1
  Na  Na1  1  0.17432800  0.88022400  0.58939200  1
  Na  Na2  1  0.35527900  0.39900000  0.93298900  1
  Na  Na3  1  0.15250200  0.62469400  0.07015900  1
  Na  Na4  1  0.46331400  0.58909200  0.69212500  1
  Na  Na5  1  0.53801400  0.09323400  0.81230700  1
  Na  Na6  1  0.67593600  0.61960200  0.07730900  1
  Na  Na7  1  0.97090300  0.90510200  0.17937500  1
  Ca  Ca0  1  0.02161300  0.08302100  0.81158300  1
  Ca  Ca1  1  0.32961000  0.11799300  0.41728200  1
  Ca  Ca2  1  0.47223900  0.88123400  0.20263100  1
  Ca  Ca3  1  0.51884600  0.43491200  0.31471700  1
  Ca  Ca4  1  0.65574200  0.86443800  0.57775800  1
  Ca  Ca5  1  0.83376700  0.37894200  0.93079000  1
  Ca  Ca6  1  0.85144500  0.10933000  0.41526700  1
  Ca  Ca7  1  0.98164800  0.59311100  0.69343500  1
  P  P0  1  0.19709100  0.31461200  0.63330400  1
  P  P1  1  0.34799700  0.82093200  0.87706000  1
  P  P2  1  0.22642300  0.68534300  0.37851600  1
  P  P3  1  0.23477900  0.18265400  0.12239600  1
  P  P4  1  0.77103500  0.81470500  0.86793800  1
  P  P5  1  0.67950200  0.32249500  0.62136000  1
  P  P6  1  0.64610600  0.18584300  0.13678600  1
  P  P7  1  0.89901800  0.68362200  0.37783900  1
  O  O0  1  0.07801900  0.21071400  0.99638500  1
  O  O1  1  0.18649500  0.45833600  0.62608700  1
  O  O2  1  0.15362400  0.24653700  0.50360300  1
  O  O3  1  0.34487400  0.26176400  0.75107700  1
  O  O4  1  0.23819000  0.73097400  0.76941400  1
  O  O5  1  0.28865300  0.95964400  0.84521900  1
  O  O6  1  0.24415600  0.04388900  0.16529600  1
  O  O7  1  0.23738200  0.77074400  0.26756400  1
  O  O8  1  0.24840700  0.27006500  0.23651300  1
  O  O9  1  0.27747800  0.54789800  0.35760600  1
  O  O10  1  0.35577100  0.73889100  0.50926700  1
  O  O11  1  0.56582500  0.81107100  0.88373200  1
  O  O12  1  0.70401100  0.22154300  0.02405700  1
  O  O13  1  0.35650800  0.78062000  0.01090600  1
  O  O14  1  0.41953600  0.21364400  0.08174200  1
  O  O15  1  0.51969200  0.29395700  0.49613000  1
  O  O16  1  0.70729900  0.46316200  0.65173500  1
  O  O17  1  0.75756300  0.72696800  0.75253300  1
  O  O18  1  0.71243300  0.23944500  0.73843000  1
  O  O19  1  0.79384700  0.95168200  0.82749200  1
  O  O20  1  0.67813100  0.04601600  0.17739500  1
  O  O21  1  0.72572700  0.26911800  0.25924500  1
  O  O22  1  0.77821300  0.76883400  0.26653800  1
  O  O23  1  0.89994600  0.73766300  0.51001700  1
  O  O24  1  0.82302000  0.54649300  0.36100700  1
  O  O25  1  0.84477200  0.27566700  0.56358300  1
  O  O26  1  0.01929300  0.26510200  0.67857500  1
  O  O27  1  0.90695200  0.77417000  0.99529100  1
  F  F0  1  0.06301000  0.49193500  0.88134400  1
  F  F1  1  0.07368600  0.99705300  0.38397500  1
  F  F2  1  0.44064200  0.00242200  0.60081800  1
  F  F3  1  0.58326400  0.50419000  0.89119000  1
  F  F4  1  0.43584700  0.51112100  0.12334400  1
  F  F5  1  0.57889300  0.99241100  0.39837000  1
  F  F6  1  0.91549700  0.00120600  0.60610800  1
  F  F7  1  0.93171300  0.49248300  0.10755600  1
loop_
_geom_bond_atom_site_label_1
_geom_bond_atom_site_label_2
_geom_bond_distance
_geom_bond_site_symmetry_2
Na0 O9 2.359356 1_555
Na0 O24 2.378357 1_455
Na0 O8 2.490770 1_555
Na0 O21 2.555384 1_455
Na0 O2 2.693001 1_555
Na1 O10 2.386373 1_555
Na1 O23 2.463594 1_455
Na1 O4 2.470509 1_555
Na1 O5 2.799562 1_555
Na2 O3 2.458395 1_555
Na2 O14 2.509420 1_556
Na3 O27 2.365563 1_454
Na3 O13 2.488513 1_555
Na3 O7 2.570279 1_555
Na4 O1 2.397421 1_555
Na4 O16 2.429499 1_555
Na4 O10 2.493317 1_555
Na4 O17 2.542876 1_555
Na4 O4 2.613030 1_555
Na5 O3 2.259247 1_555
Na5 O18 2.349032 1_555
Na5 O19 2.402320 1_545
Na5 O5 2.472729 1_545
Na5 O12 2.628454 1_556
Na6 O22 2.522023 1_555
Na6 O27 2.756546 1_554
Na6 O13 2.839238 1_555
Na6 O11 2.872899 1_554
Na7 O27 2.371425 1_554
Na7 O7 2.388830 1_655
Na7 O22 2.463784 1_555
Na7 O6 2.573453 1_665
Na7 O20 2.656642 1_565
Ca0 O19 2.258438 1_445
Ca0 F6 2.310528 1_455
Ca0 O5 2.322368 1_545
Ca0 O0 2.363904 1_555
Ca0 O26 2.427941 1_555
Ca0 O18 2.751429 1_455
Ca1 F1 2.234997 1_545
Ca1 F2 2.286497 1_555
Ca1 O2 2.315724 1_555
Ca1 O15 2.324273 1_555
Ca1 F5 2.366243 1_545
Ca1 O8 2.489354 1_555
Ca1 O6 2.759548 1_555
Ca2 O13 2.267901 1_555
Ca2 F5 2.353771 1_555
Ca2 O6 2.369302 1_565
Ca2 O20 2.409211 1_565
Ca2 O7 2.423673 1_555
Ca2 O22 2.479019 1_555
Ca3 F4 2.163662 1_555
Ca3 O9 2.353434 1_555
Ca3 O24 2.469732 1_555
Ca3 O15 2.509802 1_555
Ca3 O21 2.552291 1_555
Ca3 O8 2.592444 1_555
Ca4 F2 2.257505 1_565
Ca4 F5 2.321021 1_555
Ca4 O17 2.344622 1_555
Ca4 F6 2.364127 1_565
Ca4 O10 2.503987 1_555
Ca4 O23 2.582226 1_555
Ca4 O19 2.765294 1_555
Ca5 F7 2.197740 1_556
Ca5 F3 2.227404 1_555
Ca5 F0 2.312605 1_655
Ca5 O12 2.342524 1_556
Ca5 O0 2.489419 1_655
Ca5 O18 2.492759 1_555
Ca6 F1 2.172976 1_645
Ca6 F6 2.317027 1_555
Ca6 F5 2.347078 1_545
Ca6 O21 2.383625 1_555
Ca6 O25 2.412688 1_555
Ca6 O2 2.592196 1_655
Ca6 O20 2.604918 1_555
Ca7 F0 2.244597 1_655
Ca7 O4 2.334551 1_655
Ca7 O16 2.390133 1_555
Ca7 O1 2.394926 1_655
Ca7 O17 2.453385 1_555
Ca7 O23 2.460263 1_555
O0 P3 1.528236 1_556
O1 P0 1.521253 1_555
O2 P0 1.538708 1_555
O3 P0 1.514245 1_555
O4 P1 1.528182 1_555
O5 P1 1.540332 1_555
O6 P3 1.538008 1_555
O7 P2 1.555246 1_555
O8 P3 1.538236 1_555
O9 P2 1.538300 1_555
O10 P2 1.553990 1_555
O11 P4 1.613983 1_555
O11 P1 1.621381 1_555
O12 P6 1.506879 1_555
O13 P1 1.528661 1_554
O14 P3 1.634425 1_555
O14 P6 1.635969 1_555
O15 P5 1.530617 1_555
O16 P5 1.519979 1_555
O17 P4 1.551950 1_555
O18 P5 1.522303 1_555
O19 P4 1.543626 1_555
O20 P6 1.542052 1_555
O21 P6 1.554985 1_555
O22 P7 1.557176 1_555
O23 P7 1.569114 1_555
O24 P7 1.543656 1_555
O25 O26 1.498467 1_655
O25 P5 1.655634 1_555
O26 P0 1.665607 1_555
O27 P4 1.505455 1_555
F0 Na2 2.303361 1_555
F0 Na3 2.413957 1_556
F1 Na7 2.343465 1_455
F1 Na1 2.484306 1_555
F2 Na1 2.351194 1_545
F2 Na5 2.405098 1_555
F3 Na2 2.221908 1_555
F3 Na4 2.277776 1_555
F3 Na6 2.289295 1_556
F4 Na2 2.311454 1_554
F4 Na6 2.338543 1_555
F4 Na3 2.348035 1_555
F6 Na1 2.391041 1_645
F7 Na0 2.253063 1_655
F7 Na6 2.281767 1_555
F7 Na3 2.313915 1_655
