# generated using pymatgen
data_BaEuTi4O12
_symmetry_space_group_name_H-M   'P 1'
_cell_length_a   5.84742375
_cell_length_b   5.84742375
_cell_length_c   8.26714824
_cell_angle_alpha   90.00000000
_cell_angle_beta   90.00000000
_cell_angle_gamma   90.00000000
_symmetry_Int_Tables_number   1
_chemical_formula_structural   BaEuTi4O12
_chemical_formula_sum   'Ba1 Eu1 Ti4 O12'
_cell_volume   282.67334610
_cell_formula_units_Z   1
loop_
 _symmetry_equiv_pos_site_id
 _symmetry_equiv_pos_as_xyz
  1  'x, y, z'
loop_
 _atom_site_type_symbol
 _atom_site_label
 _atom_site_symmetry_multiplicity
 _atom_site_fract_x
 _atom_site_fract_y
 _atom_site_fract_z
 _atom_site_occupancy
  Ba  Ba0  1  0.50000000  0.50000000  -0.00000000  1
  Eu  Eu0  1  0.00000000  0.00000000  0.50000000  1
  Ti  Ti0  1  0.00000000  0.50000000  0.75134856  1
  Ti  Ti1  1  0.00000000  0.50000000  0.24865144  1
  Ti  Ti2  1  0.50000000  -0.00000000  0.75134856  1
  Ti  Ti3  1  0.50000000  -0.00000000  0.24865144  1
  O  O0  1  0.24653703  0.24653703  0.74624529  1
  O  O1  1  0.24653703  0.24653703  0.25375471  1
  O  O2  1  0.75346297  0.75346297  0.74624529  1
  O  O3  1  0.75346297  0.75346297  0.25375471  1
  O  O4  1  0.75346297  0.24653703  0.74624529  1
  O  O5  1  0.75346297  0.24653703  0.25375471  1
  O  O6  1  0.24653703  0.75346297  0.74624529  1
  O  O7  1  0.24653703  0.75346297  0.25375471  1
  O  O8  1  0.00000000  0.50000000  0.50000000  1
  O  O9  1  0.00000000  0.50000000  -0.00000000  1
  O  O10  1  0.50000000  0.00000000  0.50000000  1
  O  O11  1  0.50000000  -0.00000000  -0.00000000  1
loop_
_geom_bond_atom_site_label_1
_geom_bond_atom_site_label_2
_geom_bond_distance
_geom_bond_site_symmetry_2
Ba0 O11 2.923712 1_555
Ba0 O11 2.923712 1_565
Ba0 O9 2.923712 1_555
Ba0 O9 2.923712 1_655
Ba0 O4 2.965494 1_554
Ba0 O6 2.965494 1_554
Ba0 O0 2.965494 1_554
Ba0 O1 2.965494 1_555
Ba0 O2 2.965494 1_554
Ba0 O3 2.965494 1_555
Ba0 O7 2.965494 1_555
Ba0 O5 2.965494 1_555
Eu0 O3 2.881097 1_445
Eu0 O5 2.881097 1_455
Eu0 O7 2.881097 1_545
Eu0 O2 2.881097 1_445
Eu0 O4 2.881097 1_455
Eu0 O1 2.881097 1_555
Eu0 O6 2.881097 1_545
Eu0 O0 2.881097 1_555
Eu0 O10 2.923712 1_455
Eu0 O10 2.923712 1_555
Eu0 O8 2.923712 1_555
Eu0 O8 2.923712 1_545
O0 Ti0 2.068005 1_555
O0 Ti2 2.068005 1_555
O1 Ti1 2.068005 1_555
O1 Ti3 2.068005 1_555
O2 Ti0 2.068005 1_655
O2 Ti2 2.068005 1_565
O3 Ti1 2.068005 1_655
O3 Ti3 2.068005 1_565
O4 Ti0 2.068005 1_655
O4 Ti2 2.068005 1_555
O5 Ti1 2.068005 1_655
O5 Ti3 2.068005 1_555
O6 Ti2 2.068005 1_565
O6 Ti0 2.068005 1_555
O7 Ti3 2.068005 1_565
O7 Ti1 2.068005 1_555
O8 Ti1 2.077936 1_555
O8 Ti0 2.077936 1_555
O9 Ti0 2.055638 1_554
O9 Ti1 2.055638 1_555
O10 Ti3 2.077936 1_555
O10 Ti2 2.077936 1_555
O11 Ti2 2.055638 1_554
O11 Ti3 2.055638 1_555
