# generated using pymatgen
data_NbGaCu
_symmetry_space_group_name_H-M   'P 1'
_cell_length_a   5.05783485
_cell_length_b   5.05783485
_cell_length_c   7.92829200
_cell_angle_alpha   90.00000000
_cell_angle_beta   90.00000000
_cell_angle_gamma   120.13710067
_symmetry_Int_Tables_number   1
_chemical_formula_structural   NbGaCu
_chemical_formula_sum   'Nb4 Ga4 Cu4'
_cell_volume   175.40336164
_cell_formula_units_Z   4
loop_
 _symmetry_equiv_pos_site_id
 _symmetry_equiv_pos_as_xyz
  1  'x, y, z'
loop_
 _atom_site_type_symbol
 _atom_site_label
 _atom_site_symmetry_multiplicity
 _atom_site_fract_x
 _atom_site_fract_y
 _atom_site_fract_z
 _atom_site_occupancy
  Nb  Nb0  1  0.33379100  0.66620900  0.18178700  1
  Nb  Nb1  1  0.66555000  0.33445000  0.31486300  1
  Nb  Nb2  1  0.66555000  0.33445000  0.68513700  1
  Nb  Nb3  1  0.33379100  0.66620900  0.81821300  1
  Ga  Ga0  1  0.82885200  0.17114800  0.00000000  1
  Ga  Ga1  1  0.17011300  0.34148100  0.50000000  1
  Ga  Ga2  1  0.65851900  0.82988700  0.50000000  1
  Ga  Ga3  1  0.17093800  0.82906200  0.50000000  1
  Cu  Cu0  1  0.00093400  0.99906600  0.24878400  1
  Cu  Cu1  1  0.00093400  0.99906600  0.75121600  1
  Cu  Cu2  1  0.82996100  0.65877700  0.00000000  1
  Cu  Cu3  1  0.34122300  0.17003900  0.00000000  1
loop_
_geom_bond_atom_site_label_1
_geom_bond_atom_site_label_2
_geom_bond_distance
_geom_bond_site_symmetry_2
Nb0 Nb3 2.882521 1_554
Nb0 Nb1 3.093816 1_555
Nb0 Nb1 3.107631 1_565
Nb0 Nb1 3.107631 1_455
Nb1 Nb2 2.935640 1_555
Nb2 Nb3 3.093816 1_555
Nb2 Nb3 3.107631 1_655
Nb2 Nb3 3.107631 1_545
Ga0 Nb1 2.877685 1_555
Ga0 Nb2 2.877685 1_554
Ga0 Nb0 2.906552 1_545
Ga0 Nb0 2.906552 1_655
Ga0 Nb3 2.906552 1_654
Ga0 Nb3 2.906552 1_544
Ga1 Ga3 2.464012 1_555
Ga1 Ga2 2.465156 1_555
Ga1 Ga2 2.582194 1_445
Ga1 Ga3 2.593828 1_545
Ga1 Nb0 2.895259 1_555
Ga1 Nb3 2.895259 1_555
Ga1 Nb1 2.919669 1_555
Ga1 Nb2 2.919669 1_555
Ga1 Nb2 2.928706 1_455
Ga1 Nb1 2.928706 1_455
Ga2 Ga3 2.464012 1_555
Ga2 Ga3 2.593828 1_655
Ga2 Nb0 2.895259 1_555
Ga2 Nb3 2.895259 1_555
Ga2 Nb1 2.919669 1_555
Ga2 Nb2 2.919669 1_555
Ga2 Nb2 2.928706 1_565
Ga2 Nb1 2.928706 1_565
Ga3 Nb0 2.898815 1_555
Ga3 Nb3 2.898815 1_555
Ga3 Nb1 2.919874 1_565
Ga3 Nb1 2.919874 1_455
Ga3 Nb2 2.919874 1_565
Ga3 Nb2 2.919874 1_455
Cu0 Cu3 2.471042 1_565
Cu0 Cu2 2.471042 1_455
Cu0 Ga0 2.483187 1_465
Cu0 Ga3 2.487574 1_555
Cu0 Ga1 2.492076 1_565
Cu0 Ga2 2.492076 1_455
Cu0 Nb1 2.953971 1_455
Cu0 Nb1 2.953971 1_565
Cu0 Nb0 2.965933 1_555
Cu0 Nb0 2.966151 1_565
Cu0 Nb0 2.966151 1_455
Cu0 Nb1 2.986445 1_465
Cu1 Cu3 2.471042 1_566
Cu1 Cu2 2.471042 1_456
Cu1 Ga0 2.483187 1_466
Cu1 Ga3 2.487574 1_555
Cu1 Ga1 2.492076 1_565
Cu1 Ga2 2.492076 1_455
Cu1 Nb2 2.953971 1_565
Cu1 Nb2 2.953971 1_455
Cu1 Nb3 2.965933 1_555
Cu1 Nb3 2.966151 1_565
Cu1 Nb3 2.966151 1_455
Cu1 Nb2 2.986445 1_465
Cu2 Ga0 2.463536 1_555
Cu2 Cu3 2.466832 1_555
Cu2 Cu3 2.580518 1_665
Cu2 Ga0 2.594309 1_565
Cu2 Nb1 2.871287 1_555
Cu2 Nb2 2.871287 1_554
Cu2 Nb3 2.910531 1_554
Cu2 Nb0 2.910531 1_555
Cu2 Nb3 2.911397 1_654
Cu2 Nb0 2.911397 1_655
Cu3 Ga0 2.463536 1_555
Cu3 Ga0 2.594309 1_455
Cu3 Nb1 2.871287 1_555
Cu3 Nb2 2.871287 1_554
Cu3 Nb3 2.910531 1_554
Cu3 Nb0 2.910531 1_555
Cu3 Nb0 2.911397 1_545
Cu3 Nb3 2.911397 1_544
