# generated using pymatgen
data_NaMg4(AsO4)3
_symmetry_space_group_name_H-M   'P 1'
_cell_length_a   10.90760956
_cell_length_b   10.90760956
_cell_length_c   10.90760956
_cell_angle_alpha   143.08880523
_cell_angle_beta   143.08880523
_cell_angle_gamma   53.19205269
_symmetry_Int_Tables_number   1
_chemical_formula_structural   NaMg4(AsO4)3
_chemical_formula_sum   'Na2 Mg8 As6 O24'
_cell_volume   465.17330100
_cell_formula_units_Z   2
loop_
 _symmetry_equiv_pos_site_id
 _symmetry_equiv_pos_as_xyz
  1  'x, y, z'
loop_
 _atom_site_type_symbol
 _atom_site_label
 _atom_site_symmetry_multiplicity
 _atom_site_fract_x
 _atom_site_fract_y
 _atom_site_fract_z
 _atom_site_occupancy
  Na  Na0  1  0.25000000  0.75000000  0.50000000  1
  Na  Na1  1  0.50000000  0.50000000  0.00000000  1
  Mg  Mg0  1  0.37500000  0.88191000  0.00691000  1
  Mg  Mg1  1  0.11809000  0.12500000  0.49309000  1
  Mg  Mg2  1  0.63191000  0.62500000  0.50691000  1
  Mg  Mg3  1  0.87500000  0.36809000  0.99309000  1
  Mg  Mg4  1  0.77003300  0.77003300  0.00000000  1
  Mg  Mg5  1  0.22996700  0.22996700  0.00000000  1
  Mg  Mg6  1  0.97996700  0.47996700  0.50000000  1
  Mg  Mg7  1  0.52003300  0.02003300  0.50000000  1
  As  As0  1  0.37500000  0.46883800  0.59383800  1
  As  As1  1  0.53116200  0.12500000  0.90616200  1
  As  As2  1  0.21883800  0.62500000  0.09383800  1
  As  As3  1  0.87500000  0.78116200  0.40616200  1
  As  As4  1  0.75000000  0.25000000  0.50000000  1
  As  As5  1  0.00000000  0.00000000  0.00000000  1
  O  O0  1  0.73463100  0.50174900  0.64836600  1
  O  O1  1  0.85338300  0.08626400  0.35163400  1
  O  O2  1  0.25174900  0.98463100  0.14836600  1
  O  O3  1  0.91373600  0.26536900  0.76711800  1
  O  O4  1  0.49825100  0.14661700  0.23288200  1
  O  O5  1  0.01536900  0.16373600  0.26711800  1
  O  O6  1  0.89661700  0.74825100  0.73288200  1
  O  O7  1  0.83626400  0.10338300  0.85163400  1
  O  O8  1  0.07119500  0.80317300  0.17740200  1
  O  O9  1  0.62577200  0.89379300  0.82259800  1
  O  O10  1  0.55317300  0.32119500  0.67740200  1
  O  O11  1  0.10620700  0.92880500  0.73197900  1
  O  O12  1  0.19682700  0.37422800  0.26802100  1
  O  O13  1  0.67880500  0.35620700  0.23197900  1
  O  O14  1  0.12422800  0.44682700  0.76802100  1
  O  O15  1  0.64379300  0.87577200  0.32259800  1
  O  O16  1  0.85633600  0.55146600  0.28853100  1
  O  O17  1  0.44853400  0.73706500  0.30487000  1
  O  O18  1  0.43219500  0.14366400  0.69513000  1
  O  O19  1  0.48706500  0.69853400  0.80487000  1
  O  O20  1  0.89366400  0.68219500  0.19513000  1
  O  O21  1  0.26293500  0.56780500  0.71146900  1
  O  O22  1  0.30146600  0.10633600  0.78853100  1
  O  O23  1  0.31780500  0.51293500  0.21146900  1
loop_
_geom_bond_atom_site_label_1
_geom_bond_atom_site_label_2
_geom_bond_distance
_geom_bond_site_symmetry_2
Na0 O19 2.356895 1_555
Na0 O20 2.356895 1_455
Na0 O22 2.356895 1_565
Na0 O23 2.356895 1_555
Na0 O8 2.730492 1_555
Na0 O12 2.730497 1_555
Na0 O9 2.730501 1_555
Na0 O11 2.730501 1_555
Na1 O21 2.356895 1_554
Na1 O16 2.356895 1_555
Na1 O17 2.356895 1_555
Na1 O18 2.356895 1_554
Na1 O10 2.730492 1_554
Na1 O14 2.730497 1_554
Na1 O15 2.730501 1_555
Na1 O13 2.730501 1_555
Mg0 O4 2.047193 1_565
Mg0 O2 2.047193 1_555
Mg0 O15 2.108692 1_555
Mg0 O11 2.108692 1_554
Mg0 O21 2.163482 1_554
Mg0 O19 2.163482 1_554
Mg1 O1 2.047198 1_455
Mg1 O5 2.047202 1_555
Mg1 O8 2.108698 1_545
Mg1 O14 2.108698 1_555
Mg1 O18 2.163482 1_555
Mg1 O22 2.163482 1_555
Mg2 O6 2.047193 1_555
Mg2 O0 2.047193 1_555
Mg2 O13 2.108692 1_555
Mg2 O9 2.108692 1_555
Mg2 O17 2.163482 1_555
Mg2 O23 2.163482 1_555
Mg3 O7 2.047198 1_555
Mg3 O3 2.047202 1_555
Mg3 O10 2.108698 1_555
Mg3 O12 2.108698 1_656
Mg3 O16 2.163482 1_556
Mg3 O20 2.163482 1_556
Mg4 O19 2.095125 1_554
Mg4 O20 2.095125 1_555
Mg4 O1 2.111999 1_565
Mg4 O0 2.112004 1_554
Mg4 O8 2.192120 1_655
Mg4 O9 2.192124 1_554
Mg5 O23 2.095125 1_555
Mg5 O22 2.095125 1_554
Mg5 O3 2.111998 1_454
Mg5 O4 2.112004 1_555
Mg5 O12 2.192115 1_555
Mg5 O11 2.192124 1_544
Mg6 O21 2.095125 1_655
Mg6 O16 2.095125 1_555
Mg6 O5 2.111998 1_655
Mg6 O6 2.112004 1_555
Mg6 O14 2.192115 1_655
Mg6 O13 2.192124 1_555
Mg7 O18 2.095125 1_555
Mg7 O17 2.095125 1_545
Mg7 O7 2.111999 1_555
Mg7 O2 2.112004 1_545
Mg7 O10 2.192120 1_555
Mg7 O15 2.192124 1_545
As0 O10 1.722077 1_555
As0 O12 1.722080 1_555
As0 O19 1.737162 1_555
As0 O21 1.737162 1_555
As1 O13 1.722079 1_556
As1 O9 1.722079 1_545
As1 O18 1.737162 1_555
As1 O22 1.737162 1_555
As2 O8 1.722077 1_555
As2 O14 1.722080 1_554
As2 O23 1.737162 1_555
As2 O17 1.737162 1_555
As3 O11 1.722079 1_655
As3 O15 1.722079 1_555
As3 O16 1.737162 1_555
As3 O20 1.737162 1_555
As4 O3 1.721435 1_555
As4 O1 1.721436 1_555
As4 O4 1.721438 1_555
As4 O0 1.721438 1_555
As5 O5 1.721435 1_555
As5 O7 1.721436 1_454
As5 O6 1.721438 1_444
As5 O2 1.721438 1_545
