# generated using pymatgen
data_SrH8(ClO6)2
_symmetry_space_group_name_H-M   'P 1'
_cell_length_a   7.30602300
_cell_length_b   7.51083529
_cell_length_c   10.34683531
_cell_angle_alpha   86.71089168
_cell_angle_beta   86.10032753
_cell_angle_gamma   71.98653020
_symmetry_Int_Tables_number   1
_chemical_formula_structural   SrH8(ClO6)2
_chemical_formula_sum   'Sr2 H16 Cl4 O24'
_cell_volume   538.30002571
_cell_formula_units_Z   2
loop_
 _symmetry_equiv_pos_site_id
 _symmetry_equiv_pos_as_xyz
  1  'x, y, z'
loop_
 _atom_site_type_symbol
 _atom_site_label
 _atom_site_symmetry_multiplicity
 _atom_site_fract_x
 _atom_site_fract_y
 _atom_site_fract_z
 _atom_site_occupancy
  Sr  Sr0  1  0.46236400  0.07153300  0.27776400  1
  Sr  Sr1  1  0.53763600  0.92846700  0.72223600  1
  H  H0  1  0.71461800  0.17324000  0.03846300  1
  H  H1  1  0.28538200  0.82676000  0.96153700  1
  H  H2  1  0.72806000  0.96205600  0.01645000  1
  H  H3  1  0.27194000  0.03794400  0.98355000  1
  H  H4  1  0.34836400  0.78223600  0.47545700  1
  H  H5  1  0.65163600  0.21776400  0.52454300  1
  H  H6  1  0.57500700  0.72355600  0.46803300  1
  H  H7  1  0.42499300  0.27644400  0.53196700  1
  H  H8  1  0.07028600  0.30009200  0.43383000  1
  H  H9  1  0.92971400  0.69990800  0.56617000  1
  H  H10  1  0.16146000  0.45339900  0.37683200  1
  H  H11  1  0.83854000  0.54660100  0.62316800  1
  H  H12  1  0.25048700  0.34060200  0.03402700  1
  H  H13  1  0.74951300  0.65939800  0.96597300  1
  H  H14  1  0.08685100  0.29217100  0.11845600  1
  H  H15  1  0.91314900  0.70782900  0.88154400  1
  Cl  Cl0  1  0.02916000  0.84567600  0.29729400  1
  Cl  Cl1  1  0.97084000  0.15432400  0.70270600  1
  Cl  Cl2  1  0.64234100  0.51493500  0.22023400  1
  Cl  Cl3  1  0.35765900  0.48506500  0.77976600  1
  O  O0  1  0.66592100  0.07107800  0.07032800  1
  O  O1  1  0.33407900  0.92892200  0.92967200  1
  O  O2  1  0.22286700  0.24104000  0.08975800  1
  O  O3  1  0.77713300  0.75896000  0.91024200  1
  O  O4  1  0.45807500  0.83034700  0.48114900  1
  O  O5  1  0.54192500  0.16965300  0.51885100  1
  O  O6  1  0.18804500  0.31801300  0.39270100  1
  O  O7  1  0.81195500  0.68198700  0.60729900  1
  O  O8  1  0.12464600  0.71775200  0.40480200  1
  O  O9  1  0.87535400  0.28224800  0.59519800  1
  O  O10  1  0.78463100  0.43737800  0.11463200  1
  O  O11  1  0.21536900  0.56262200  0.88536800  1
  O  O12  1  0.54682500  0.71298900  0.18898400  1
  O  O13  1  0.45317500  0.28701100  0.81101600  1
  O  O14  1  0.49762300  0.41603800  0.23054400  1
  O  O15  1  0.50237700  0.58396200  0.76945600  1
  O  O16  1  0.82952100  0.93733600  0.34196300  1
  O  O17  1  0.17047900  0.06266400  0.65803700  1
  O  O18  1  0.12608400  0.98869300  0.27192900  1
  O  O19  1  0.87391600  0.01130700  0.72807100  1
  O  O20  1  0.03910700  0.74105400  0.18345800  1
  O  O21  1  0.96089300  0.25894600  0.81654200  1
  O  O22  1  0.73578900  0.49402000  0.34264700  1
  O  O23  1  0.26421100  0.50598000  0.65735300  1
loop_
_geom_bond_atom_site_label_1
_geom_bond_atom_site_label_2
_geom_bond_distance
_geom_bond_site_symmetry_2
H0 O0 0.973615 1_555
H1 O1 0.973615 1_555
H2 O0 0.987635 1_565
H3 O1 0.987635 1_545
H4 O4 0.982106 1_555
H5 O5 0.982106 1_555
H6 O4 0.982102 1_555
H7 O5 0.982102 1_555
H8 O6 0.977070 1_555
H9 O7 0.977070 1_555
H10 O6 0.980673 1_555
H11 O7 0.980673 1_555
H12 O2 0.980025 1_555
H13 O3 0.980025 1_555
H14 O2 0.979838 1_555
H15 O3 0.979838 1_555
Cl0 O20 1.438512 1_555
Cl0 O18 1.461850 1_555
Cl0 O16 1.462450 1_455
Cl0 O8 1.488475 1_555
Cl1 O21 1.438512 1_555
Cl1 O19 1.461850 1_555
Cl1 O17 1.462450 1_655
Cl1 O9 1.488475 1_555
Cl2 O22 1.457224 1_555
Cl2 O12 1.462125 1_555
Cl2 O14 1.463675 1_555
Cl2 O10 1.468985 1_555
Cl3 O23 1.457224 1_555
Cl3 O13 1.462125 1_555
Cl3 O15 1.463675 1_555
Cl3 O11 1.468985 1_555
O0 Sr0 2.526245 1_555
O1 Sr1 2.526245 1_555
O2 Sr0 2.695857 1_555
O3 Sr1 2.695857 1_555
O4 Sr0 2.701797 1_565
O4 Sr1 2.788652 1_555
O5 Sr1 2.701797 1_545
O5 Sr0 2.788652 1_555
O6 Sr0 2.547925 1_555
O7 Sr1 2.547925 1_555
O12 Sr0 2.766883 1_565
O13 Sr1 2.766883 1_545
O14 Sr0 2.692656 1_555
O15 Sr1 2.692656 1_555
O16 Sr0 2.673213 1_565
O17 Sr1 2.673213 1_545
O18 Sr0 2.719727 1_565
O19 Sr1 2.719727 1_545
