# generated using pymatgen
data_Li6TeN4
_symmetry_space_group_name_H-M   'P 1'
_cell_length_a   6.82605400
_cell_length_b   6.82605400
_cell_length_c   4.94251300
_cell_angle_alpha   90.00000000
_cell_angle_beta   90.00000000
_cell_angle_gamma   90.00000000
_symmetry_Int_Tables_number   1
_chemical_formula_structural   Li6TeN4
_chemical_formula_sum   'Li12 Te2 N8'
_cell_volume   230.29645853
_cell_formula_units_Z   2
loop_
 _symmetry_equiv_pos_site_id
 _symmetry_equiv_pos_as_xyz
  1  'x, y, z'
loop_
 _atom_site_type_symbol
 _atom_site_label
 _atom_site_symmetry_multiplicity
 _atom_site_fract_x
 _atom_site_fract_y
 _atom_site_fract_z
 _atom_site_occupancy
  Li  Li0  1  0.00000000  0.50000000  0.57520000  1
  Li  Li1  1  0.50000000  0.00000000  0.92480000  1
  Li  Li2  1  0.50000000  0.00000000  0.42480000  1
  Li  Li3  1  0.00000000  0.50000000  0.07520000  1
  Li  Li4  1  0.21255500  0.21255500  0.50000000  1
  Li  Li5  1  0.78744500  0.78744500  0.50000000  1
  Li  Li6  1  0.71255500  0.71255500  0.00000000  1
  Li  Li7  1  0.28744500  0.28744500  0.00000000  1
  Li  Li8  1  0.78744500  0.21255500  0.50000000  1
  Li  Li9  1  0.21255500  0.78744500  0.50000000  1
  Li  Li10  1  0.28744500  0.71255500  0.00000000  1
  Li  Li11  1  0.71255500  0.28744500  0.00000000  1
  Te  Te0  1  0.50000000  0.50000000  0.50000000  1
  Te  Te1  1  0.00000000  0.00000000  0.00000000  1
  N  N0  1  0.25106400  0.50000000  0.29877500  1
  N  N1  1  0.74893600  0.50000000  0.29877500  1
  N  N2  1  0.75106400  0.00000000  0.20122500  1
  N  N3  1  0.24893600  0.00000000  0.20122500  1
  N  N4  1  0.50000000  0.25106400  0.70122500  1
  N  N5  1  0.50000000  0.74893600  0.70122500  1
  N  N6  1  0.00000000  0.75106400  0.79877500  1
  N  N7  1  0.00000000  0.24893600  0.79877500  1
loop_
_geom_bond_atom_site_label_1
_geom_bond_atom_site_label_2
_geom_bond_distance
_geom_bond_site_symmetry_2
Li0 N6 2.039143 1_555
Li0 N7 2.039143 1_555
Li0 N1 2.191717 1_455
Li0 N0 2.191717 1_555
Li1 N4 2.039143 1_555
Li1 N5 2.039143 1_545
Li1 N2 2.191717 1_556
Li1 N3 2.191717 1_556
Li2 N2 2.039143 1_555
Li2 N3 2.039143 1_555
Li2 N5 2.191717 1_545
Li2 N4 2.191717 1_555
Li3 N1 2.039143 1_455
Li3 N0 2.039143 1_555
Li3 N6 2.191717 1_554
Li3 N7 2.191717 1_554
Li4 N3 2.085056 1_555
Li4 N7 2.085056 1_555
Li4 N0 2.215432 1_555
Li4 N4 2.215432 1_555
Li5 N6 2.085056 1_655
Li5 N2 2.085056 1_565
Li5 N5 2.215432 1_555
Li5 N1 2.215432 1_555
Li6 N1 2.085056 1_555
Li6 N5 2.085056 1_554
Li6 N6 2.215432 1_654
Li6 N2 2.215432 1_565
Li7 N4 2.085056 1_554
Li7 N0 2.085056 1_555
Li7 N3 2.215432 1_555
Li7 N7 2.215432 1_554
Li8 N2 2.085056 1_555
Li8 N7 2.085056 1_655
Li8 N4 2.215432 1_555
Li8 N1 2.215432 1_555
Li9 N3 2.085056 1_565
Li9 N6 2.085056 1_555
Li9 N5 2.215432 1_555
Li9 N0 2.215432 1_555
Li10 N5 2.085056 1_554
Li10 N0 2.085056 1_555
Li10 N6 2.215432 1_554
Li10 N3 2.215432 1_565
Li11 N4 2.085056 1_554
Li11 N1 2.085056 1_555
Li11 N7 2.215432 1_654
Li11 N2 2.215432 1_555
N0 Te0 1.968907 1_555
N1 Te0 1.968907 1_555
N2 Te1 1.968907 1_655
N3 Te1 1.968907 1_555
N4 Te0 1.968907 1_555
N5 Te0 1.968907 1_555
N6 Te1 1.968907 1_566
N7 Te1 1.968907 1_556
