# generated using pymatgen
data_NaTl3
_symmetry_space_group_name_H-M   'P 1'
_cell_length_a   5.98171000
_cell_length_b   5.98171000
_cell_length_c   5.98171000
_cell_angle_alpha   133.02200946
_cell_angle_beta   133.02200946
_cell_angle_gamma   68.61958542
_symmetry_Int_Tables_number   1
_chemical_formula_structural   NaTl3
_chemical_formula_sum   'Na1 Tl3'
_cell_volume   112.33956015
_cell_formula_units_Z   1
loop_
 _symmetry_equiv_pos_site_id
 _symmetry_equiv_pos_as_xyz
  1  'x, y, z'
loop_
 _atom_site_type_symbol
 _atom_site_label
 _atom_site_symmetry_multiplicity
 _atom_site_fract_x
 _atom_site_fract_y
 _atom_site_fract_z
 _atom_site_occupancy
  Na  Na0  1  0.00000000  -0.00000000  0.00000000  1
  Tl  Tl0  1  0.75000000  0.25000100  0.50000000  1
  Tl  Tl1  1  0.25000100  0.75000000  0.50000000  1
  Tl  Tl2  1  0.49999900  0.49999900  0.00000000  1
loop_
_geom_bond_atom_site_label_1
_geom_bond_atom_site_label_2
_geom_bond_distance
_geom_bond_site_symmetry_2
Na0 Tl2 3.371694 1_556
Na0 Tl2 3.371694 1_455
Na0 Tl2 3.371694 1_545
Na0 Tl2 3.371694 1_444
Na0 Tl1 3.433258 1_444
Na0 Tl0 3.433258 1_444
Na0 Tl1 3.433261 1_545
Na0 Tl0 3.433261 1_455
Na0 Tl0 3.433265 1_555
Na0 Tl1 3.433265 1_555
Na0 Tl0 3.433268 1_454
Na0 Tl1 3.433268 1_544
Tl0 Tl1 3.371687 1_555
Tl0 Tl1 3.371694 1_544
Tl0 Tl1 3.371694 1_656
Tl0 Tl1 3.371701 1_645
Tl0 Tl2 3.433251 1_555
Tl0 Tl2 3.433254 1_656
Tl0 Tl2 3.433272 1_556
Tl0 Tl2 3.433275 1_545
Tl1 Tl2 3.433251 1_555
Tl1 Tl2 3.433254 1_566
Tl1 Tl2 3.433272 1_556
Tl1 Tl2 3.433275 1_455
