# generated using pymatgen
data_La3MoO7
_symmetry_space_group_name_H-M   'P 1'
_cell_length_a   7.59278300
_cell_length_b   7.76931600
_cell_length_c   11.20837400
_cell_angle_alpha   90.00000000
_cell_angle_beta   90.00000000
_cell_angle_gamma   90.00000000
_symmetry_Int_Tables_number   1
_chemical_formula_structural   La3MoO7
_chemical_formula_sum   'La12 Mo4 O28'
_cell_volume   661.19016938
_cell_formula_units_Z   4
loop_
 _symmetry_equiv_pos_site_id
 _symmetry_equiv_pos_as_xyz
  1  'x, y, z'
loop_
 _atom_site_type_symbol
 _atom_site_label
 _atom_site_symmetry_multiplicity
 _atom_site_fract_x
 _atom_site_fract_y
 _atom_site_fract_z
 _atom_site_occupancy
  La  La0  1  0.75601500  0.49812500  0.25000000  1
  La  La1  1  0.74398500  0.99812500  0.25000000  1
  La  La2  1  0.24398500  0.50187500  0.75000000  1
  La  La3  1  0.25601500  0.00187500  0.75000000  1
  La  La4  1  0.05170200  0.75035900  0.47575300  1
  La  La5  1  0.44829800  0.25035900  0.02424700  1
  La  La6  1  0.94829800  0.24964100  0.97575300  1
  La  La7  1  0.55170200  0.74964100  0.52424700  1
  La  La8  1  0.94829800  0.24964100  0.52424700  1
  La  La9  1  0.55170200  0.74964100  0.97575300  1
  La  La10  1  0.05170200  0.75035900  0.02424700  1
  La  La11  1  0.44829800  0.25035900  0.47575300  1
  Mo  Mo0  1  0.24851500  0.50273100  0.25000000  1
  Mo  Mo1  1  0.25148500  0.00273100  0.25000000  1
  Mo  Mo2  1  0.75148500  0.49726900  0.75000000  1
  Mo  Mo3  1  0.74851500  0.99726900  0.75000000  1
  O  O0  1  0.05812000  0.46821600  0.37358900  1
  O  O1  1  0.44188000  0.96821600  0.12641100  1
  O  O2  1  0.94188000  0.53178400  0.87358900  1
  O  O3  1  0.55812000  0.03178400  0.62641100  1
  O  O4  1  0.94188000  0.53178400  0.62641100  1
  O  O5  1  0.55812000  0.03178400  0.87358900  1
  O  O6  1  0.05812000  0.46821600  0.12641100  1
  O  O7  1  0.44188000  0.96821600  0.37358900  1
  O  O8  1  0.57030900  0.46262600  0.87682300  1
  O  O9  1  0.92969100  0.96262600  0.62317700  1
  O  O10  1  0.42969100  0.53737400  0.37682300  1
  O  O11  1  0.07030900  0.03737400  0.12317700  1
  O  O12  1  0.42969100  0.53737400  0.12317700  1
  O  O13  1  0.07030900  0.03737400  0.37682300  1
  O  O14  1  0.57030900  0.46262600  0.62317700  1
  O  O15  1  0.92969100  0.96262600  0.87682300  1
  O  O16  1  0.77626400  0.74866400  0.38015600  1
  O  O17  1  0.72373600  0.24866400  0.11984400  1
  O  O18  1  0.22373600  0.25133600  0.88015600  1
  O  O19  1  0.27626400  0.75133600  0.61984400  1
  O  O20  1  0.22373600  0.25133600  0.61984400  1
  O  O21  1  0.27626400  0.75133600  0.88015600  1
  O  O22  1  0.77626400  0.74866400  0.11984400  1
  O  O23  1  0.72373600  0.24866400  0.38015600  1
  O  O24  1  0.18869200  0.75342300  0.25000000  1
  O  O25  1  0.31130800  0.25342300  0.25000000  1
  O  O26  1  0.81130800  0.24657700  0.75000000  1
  O  O27  1  0.68869200  0.74657700  0.75000000  1
loop_
_geom_bond_atom_site_label_1
_geom_bond_atom_site_label_2
_geom_bond_distance
_geom_bond_site_symmetry_2
La0 O22 2.437370 1_555
La0 O16 2.437370 1_555
La0 O17 2.438168 1_555
La0 O23 2.438168 1_555
La0 O0 2.689696 1_655
La0 O6 2.689696 1_655
La0 O10 2.872738 1_555
La0 O12 2.872738 1_555
La1 O17 2.437370 1_565
La1 O23 2.437370 1_565
La1 O22 2.438168 1_555
La1 O16 2.438168 1_555
La1 O7 2.689696 1_555
La1 O1 2.689696 1_555
La1 O13 2.872738 1_665
La1 O11 2.872738 1_665
La2 O18 2.437370 1_555
La2 O20 2.437370 1_555
La2 O21 2.438168 1_555
La2 O19 2.438168 1_555
La2 O4 2.689696 1_455
La2 O2 2.689696 1_455
La2 O14 2.872738 1_555
La2 O8 2.872738 1_555
La3 O19 2.437370 1_545
La3 O21 2.437370 1_545
La3 O18 2.438168 1_555
La3 O20 2.438168 1_555
La3 O5 2.689696 1_555
La3 O3 2.689696 1_555
La3 O15 2.872738 1_445
La3 O9 2.872738 1_445
La4 O19 2.348524 1_555
La4 O16 2.349886 1_455
La4 O0 2.473607 1_555
La4 O13 2.494393 1_565
La4 O9 2.511643 1_455
La4 O4 2.535862 1_455
La4 O24 2.735871 1_555
La5 O18 2.348524 1_554
La5 O17 2.349886 1_555
La5 O1 2.473607 1_545
La5 O12 2.494393 1_555
La5 O8 2.511643 1_554
La5 O5 2.535862 1_554
La5 O25 2.735871 1_555
La6 O17 2.348524 1_556
La6 O18 2.349886 1_655
La6 O2 2.473607 1_555
La6 O15 2.494393 1_545
La6 O11 2.511643 1_656
La6 O6 2.535862 1_656
La6 O26 2.735871 1_555
La7 O16 2.348524 1_555
La7 O19 2.349886 1_555
La7 O3 2.473607 1_565
La7 O14 2.494393 1_555
La7 O10 2.511643 1_555
La7 O7 2.535862 1_555
La7 O27 2.735871 1_555
La8 O23 2.348524 1_555
La8 O20 2.349886 1_655
La8 O4 2.473607 1_555
La8 O9 2.494393 1_545
La8 O13 2.511643 1_655
La8 O0 2.535862 1_655
La8 O26 2.735871 1_555
La9 O22 2.348524 1_556
La9 O21 2.349886 1_555
La9 O5 2.473607 1_565
La9 O8 2.494393 1_555
La9 O12 2.511643 1_556
La9 O1 2.535862 1_556
La9 O27 2.735871 1_555
La10 O21 2.348524 1_554
La10 O22 2.349886 1_455
La10 O6 2.473607 1_555
La10 O11 2.494393 1_565
La10 O15 2.511643 1_454
La10 O2 2.535862 1_454
La10 O24 2.735871 1_555
La11 O20 2.348524 1_555
La11 O23 2.349886 1_555
La11 O7 2.473607 1_545
La11 O10 2.494393 1_555
La11 O14 2.511643 1_555
La11 O3 2.535862 1_555
La11 O25 2.735871 1_555
Mo0 O25 1.994768 1_555
Mo0 O10 1.996348 1_555
Mo0 O12 1.996348 1_555
Mo0 O24 1.999969 1_555
Mo0 O0 2.020053 1_555
Mo0 O6 2.020053 1_555
Mo1 O24 1.994768 1_545
Mo1 O13 1.996348 1_555
Mo1 O11 1.996348 1_555
Mo1 O25 1.999969 1_555
Mo1 O7 2.020053 1_545
Mo1 O1 2.020053 1_545
Mo2 O27 1.994768 1_555
Mo2 O8 1.996348 1_555
Mo2 O14 1.996348 1_555
Mo2 O26 1.999969 1_555
Mo2 O4 2.020053 1_555
Mo2 O2 2.020053 1_555
Mo3 O26 1.994768 1_565
Mo3 O15 1.996348 1_555
Mo3 O9 1.996348 1_555
Mo3 O27 1.999969 1_555
Mo3 O5 2.020053 1_565
Mo3 O3 2.020053 1_565
