# generated using pymatgen
data_Li3MnCoO5
_symmetry_space_group_name_H-M   'P 1'
_cell_length_a   2.90638200
_cell_length_b   7.77028989
_cell_length_c   8.28969021
_cell_angle_alpha   105.28852112
_cell_angle_beta   90.25318990
_cell_angle_gamma   98.57732251
_symmetry_Int_Tables_number   1
_chemical_formula_structural   Li3MnCoO5
_chemical_formula_sum   'Li6 Mn2 Co2 O10'
_cell_volume   178.37669915
_cell_formula_units_Z   2
loop_
 _symmetry_equiv_pos_site_id
 _symmetry_equiv_pos_as_xyz
  1  'x, y, z'
loop_
 _atom_site_type_symbol
 _atom_site_label
 _atom_site_symmetry_multiplicity
 _atom_site_fract_x
 _atom_site_fract_y
 _atom_site_fract_z
 _atom_site_occupancy
  Li  Li0  1  0.66269500  0.38439000  0.59535900  1
  Li  Li1  1  0.90278200  0.80200800  0.21902000  1
  Li  Li2  1  0.09721800  0.19799200  0.78098000  1
  Li  Li3  1  0.33730500  0.61561000  0.40464100  1
  Li  Li4  1  0.50000000  0.00000000  0.00000000  1
  Li  Li5  1  0.50000000  0.00000000  0.50000000  1
  Mn  Mn0  1  0.91673800  0.80524000  0.69078800  1
  Mn  Mn1  1  0.08326200  0.19476000  0.30921200  1
  Co  Co0  1  0.31190500  0.60251000  0.90128100  1
  Co  Co1  1  0.68809500  0.39749000  0.09871900  1
  O  O0  1  0.34288200  0.62527000  0.65973000  1
  O  O1  1  0.51088900  0.02055700  0.25348200  1
  O  O2  1  0.69493300  0.41257200  0.85569400  1
  O  O3  1  0.91091000  0.79704500  0.46855200  1
  O  O4  1  0.07951900  0.21245700  0.06440100  1
  O  O5  1  0.08909000  0.20295500  0.53144800  1
  O  O6  1  0.30506700  0.58742800  0.14430600  1
  O  O7  1  0.48911100  0.97944300  0.74651800  1
  O  O8  1  0.65711800  0.37473000  0.34027000  1
  O  O9  1  0.92048100  0.78754300  0.93559900  1
loop_
_geom_bond_atom_site_label_1
_geom_bond_atom_site_label_2
_geom_bond_distance
_geom_bond_site_symmetry_2
Li0 O5 1.984205 1_655
Li0 O5 1.986137 1_555
Li0 O8 2.095971 1_555
Li0 O2 2.111157 1_555
Li0 O0 2.156066 1_555
Li0 O0 2.460967 1_655
Li1 O3 2.079140 1_555
Li1 O6 2.138685 1_655
Li1 O1 2.141669 1_565
Li1 O6 2.182517 1_555
Li1 O1 2.221161 1_665
Li1 O9 2.323538 1_554
Li2 O5 2.079140 1_555
Li2 O2 2.138685 1_455
Li2 O7 2.141669 1_545
Li2 O2 2.182517 1_555
Li2 O7 2.221161 1_445
Li2 O4 2.323538 1_556
Li3 O3 1.984205 1_455
Li3 O3 1.986137 1_555
Li3 O0 2.095971 1_555
Li3 O6 2.111157 1_555
Li3 O8 2.156066 1_555
Li3 O8 2.460967 1_455
Li4 O1 2.064660 1_555
Li4 O7 2.064660 1_544
Li4 O4 2.131919 1_655
Li4 O9 2.131919 1_444
Li4 O9 2.155592 1_544
Li4 O4 2.155592 1_555
Li5 O5 2.080611 1_555
Li5 O3 2.080611 1_545
Li5 O7 2.091376 1_545
Li5 O1 2.091376 1_555
Li5 O3 2.111910 1_445
Li5 O5 2.111910 1_655
Mn0 O3 1.826425 1_555
Mn0 O7 1.940996 1_555
Mn0 O7 1.950584 1_655
Mn0 O0 1.971146 1_655
Mn0 O0 1.978432 1_555
Mn0 O9 2.070010 1_555
Mn1 O5 1.826425 1_555
Mn1 O1 1.940996 1_555
Mn1 O1 1.950584 1_455
Mn1 O8 1.971146 1_455
Mn1 O8 1.978432 1_555
Mn1 O4 2.070010 1_555
Co0 O9 1.928038 1_455
Co0 O2 1.939060 1_555
Co0 O6 2.048637 1_556
Co0 O0 2.057308 1_555
Co0 O9 2.073130 1_555
Co0 O2 2.108766 1_455
Co1 O4 1.928038 1_655
Co1 O6 1.939060 1_555
Co1 O2 2.048637 1_554
Co1 O8 2.057308 1_555
Co1 O4 2.073130 1_555
Co1 O6 2.108766 1_655
