# generated using pymatgen
data_La6ZnSb15
_symmetry_space_group_name_H-M   'P 1'
_cell_length_a   12.76252893
_cell_length_b   12.76252893
_cell_length_c   4.36375894
_cell_angle_alpha   80.20180746
_cell_angle_beta   80.20180746
_cell_angle_gamma   101.07241262
_symmetry_Int_Tables_number   1
_chemical_formula_structural   La6ZnSb15
_chemical_formula_sum   'La6 Zn1 Sb15'
_cell_volume   672.07917787
_cell_formula_units_Z   1
loop_
 _symmetry_equiv_pos_site_id
 _symmetry_equiv_pos_as_xyz
  1  'x, y, z'
loop_
 _atom_site_type_symbol
 _atom_site_label
 _atom_site_symmetry_multiplicity
 _atom_site_fract_x
 _atom_site_fract_y
 _atom_site_fract_z
 _atom_site_occupancy
  La  La0  1  0.26951600  0.00005100  0.76420900  1
  La  La1  1  0.72692100  0.99521400  0.04064700  1
  La  La2  1  0.99521400  0.72692100  0.04064700  1
  La  La3  1  0.00005100  0.26951600  0.76420900  1
  La  La4  1  0.32681500  0.67607800  0.89417800  1
  La  La5  1  0.67607800  0.32681500  0.89417800  1
  Zn  Zn0  1  0.25621300  0.25621300  0.65329100  1
  Sb  Sb0  1  0.51310800  0.91511300  0.67843900  1
  Sb  Sb1  1  0.48619000  0.08098200  0.11389600  1
  Sb  Sb2  1  0.08098200  0.48619000  0.11389600  1
  Sb  Sb3  1  0.91511300  0.51310800  0.67843900  1
  Sb  Sb4  1  0.41411200  0.41411200  0.98329100  1
  Sb  Sb5  1  0.59899400  0.59899400  0.79125700  1
  Sb  Sb6  1  0.19904600  0.79797800  0.39953800  1
  Sb  Sb7  1  0.79797800  0.19904600  0.39953800  1
  Sb  Sb8  1  0.46886800  0.24564300  0.53381000  1
  Sb  Sb9  1  0.54158400  0.75362200  0.25099700  1
  Sb  Sb10  1  0.75362200  0.54158400  0.25099700  1
  Sb  Sb11  1  0.24564300  0.46886800  0.53381000  1
  Sb  Sb12  1  0.14905100  0.14905100  0.25192300  1
  Sb  Sb13  1  0.85312800  0.85312800  0.55864700  1
  Sb  Sb14  1  0.99077100  0.99077100  0.94826100  1
loop_
_geom_bond_atom_site_label_1
_geom_bond_atom_site_label_2
_geom_bond_distance
_geom_bond_site_symmetry_2
La0 Zn0 3.264023 1_555
La0 Sb6 3.312574 1_546
La0 Sb6 3.314411 1_545
La0 Sb12 3.438482 1_555
La0 Sb12 3.449078 1_556
La0 Sb1 3.452228 1_556
La0 Sb1 3.464291 1_555
La0 Sb0 3.466503 1_545
La0 Sb14 3.485419 1_445
La0 Sb8 3.507428 1_555
La1 Sb7 3.317584 1_565
La1 Sb14 3.335288 1_554
La1 Sb7 3.342133 1_564
La1 Sb9 3.382432 1_555
La1 Sb13 3.402019 1_554
La1 Sb0 3.407734 1_555
La1 Sb1 3.437467 1_565
La1 Sb0 3.454869 1_554
La1 Sb13 3.458072 1_555
La2 Sb6 3.317584 1_655
La2 Sb14 3.335288 1_554
La2 Sb6 3.342133 1_654
La2 Sb10 3.382432 1_555
La2 Sb13 3.402019 1_554
La2 Sb3 3.407734 1_555
La2 Sb2 3.437467 1_655
La2 Sb3 3.454869 1_554
La2 Sb13 3.458072 1_555
La3 Zn0 3.264023 1_555
La3 Sb7 3.312574 1_456
La3 Sb7 3.314411 1_455
La3 Sb12 3.438482 1_555
La3 Sb12 3.449078 1_556
La3 Sb2 3.452228 1_556
La3 Sb2 3.464291 1_555
La3 Sb3 3.466503 1_455
La3 Sb14 3.485419 1_445
La3 Sb11 3.507428 1_555
La4 Sb6 3.281452 1_555
La4 Sb6 3.295575 1_556
La4 Sb11 3.362849 1_556
La4 Sb0 3.364603 1_555
La4 Sb11 3.384861 1_555
La4 Sb9 3.429905 1_555
La4 Sb9 3.442692 1_556
La4 Sb2 3.449756 1_556
La4 Sb4 3.702186 1_555
La4 Sb5 3.764051 1_555
La5 Sb7 3.281452 1_555
La5 Sb7 3.295575 1_556
La5 Sb8 3.362849 1_556
La5 Sb3 3.364603 1_555
La5 Sb8 3.384861 1_555
La5 Sb10 3.429905 1_555
La5 Sb10 3.442692 1_556
La5 Sb1 3.449756 1_556
La5 Sb4 3.702186 1_555
La5 Sb5 3.764051 1_555
Sb0 Sb9 3.037193 1_555
Sb0 Sb1 3.075825 1_565
Sb0 Sb9 3.076776 1_556
Sb0 Sb1 3.104265 1_566
Sb1 Sb8 3.028869 1_555
Sb1 Sb8 3.071033 1_554
Sb2 Sb3 3.075825 1_455
Sb2 Sb3 3.104265 1_454
Sb4 Sb5 2.890128 1_555
Sb4 Sb8 3.205143 1_556
Sb4 Sb8 3.241050 1_555
Sb4 Zn0 3.257496 1_555
Sb4 Zn0 3.331611 1_556
Sb5 Sb9 3.090182 1_555
Sb5 Sb9 3.139862 1_556
Sb8 Zn0 2.709034 1_555
Sb10 Sb3 3.037193 1_555
Sb10 Sb3 3.076776 1_554
Sb10 Sb5 3.090182 1_555
Sb10 Sb5 3.139862 1_554
Sb11 Zn0 2.709034 1_555
Sb11 Sb2 3.028869 1_555
Sb11 Sb2 3.071033 1_556
Sb11 Sb4 3.205143 1_554
Sb11 Sb4 3.241050 1_555
Sb12 Zn0 2.722970 1_554
Sb12 Zn0 2.778628 1_555
Sb12 Sb14 3.189343 1_444
Sb12 Sb14 3.413047 1_445
Sb13 Sb14 2.982628 1_554
Sb13 Sb14 3.148045 1_555
