# generated using pymatgen
data_RbMg14Mo
_symmetry_space_group_name_H-M   'P 1'
_cell_length_a   6.50231775
_cell_length_b   6.50231721
_cell_length_c   10.35554137
_cell_angle_alpha   90.00000000
_cell_angle_beta   90.00000000
_cell_angle_gamma   120.00000279
_symmetry_Int_Tables_number   1
_chemical_formula_structural   RbMg14Mo
_chemical_formula_sum   'Rb1 Mg14 Mo1'
_cell_volume   379.17506366
_cell_formula_units_Z   1
loop_
 _symmetry_equiv_pos_site_id
 _symmetry_equiv_pos_as_xyz
  1  'x, y, z'
loop_
 _atom_site_type_symbol
 _atom_site_label
 _atom_site_symmetry_multiplicity
 _atom_site_fract_x
 _atom_site_fract_y
 _atom_site_fract_z
 _atom_site_occupancy
  Rb  Rb0  1  0.16666700  0.33333300  0.12500000  1
  Mg  Mg0  1  0.17889419  0.83944660  0.12500000  1
  Mg  Mg1  1  0.15548018  0.82773959  0.62500000  1
  Mg  Mg2  1  0.66055340  0.32110581  0.12500000  1
  Mg  Mg3  1  0.67226041  0.34451982  0.62500000  1
  Mg  Mg4  1  0.66055340  0.83944660  0.12500000  1
  Mg  Mg5  1  0.67226041  0.82773959  0.62500000  1
  Mg  Mg6  1  0.33168585  0.16831415  0.40167876  1
  Mg  Mg7  1  0.33168585  0.16831415  0.84832124  1
  Mg  Mg8  1  0.33168585  0.66337269  0.40167876  1
  Mg  Mg9  1  0.33168585  0.66337269  0.84832124  1
  Mg  Mg10  1  0.83662731  0.16831415  0.40167876  1
  Mg  Mg11  1  0.83662731  0.16831415  0.84832124  1
  Mg  Mg12  1  0.83333300  0.66666700  0.36572170  1
  Mg  Mg13  1  0.83333300  0.66666700  0.88427830  1
  Mo  Mo0  1  0.16666700  0.33333300  0.62500000  1
loop_
_geom_bond_atom_site_label_1
_geom_bond_atom_site_label_2
_geom_bond_distance
_geom_bond_site_symmetry_2
Mg0 Mg2 3.131901 1_565
Mg0 Mg4 3.131901 1_555
Mg0 Mg12 3.162381 1_455
Mg0 Mg13 3.162381 1_454
Mg0 Rb0 3.251888 1_565
Mg0 Rb0 3.251888 1_555
Mg0 Mg2 3.370416 1_455
Mg0 Mg4 3.370417 1_455
Mg0 Mg8 3.412388 1_555
Mg0 Mg9 3.412388 1_554
Mg0 Mg6 3.412394 1_565
Mg0 Mg7 3.412394 1_564
Mg1 Mg8 3.004613 1_555
Mg1 Mg9 3.004613 1_555
Mg1 Mg6 3.004620 1_565
Mg1 Mg7 3.004620 1_565
Mg1 Mg3 3.142048 1_455
Mg1 Mg5 3.142048 1_455
Mg1 Mg13 3.240353 1_455
Mg1 Mg12 3.240353 1_455
Mg1 Mo0 3.251769 1_565
Mg1 Mo0 3.251769 1_555
Mg1 Mg3 3.360269 1_565
Mg1 Mg5 3.360269 1_555
Mg2 Mg4 3.131901 1_545
Mg2 Rb0 3.251888 1_555
Mg2 Rb0 3.251888 1_655
Mg2 Mg4 3.370416 1_555
Mg2 Mg7 3.412394 1_554
Mg2 Mg6 3.412394 1_555
Mg3 Mg7 3.004620 1_555
Mg3 Mg6 3.004620 1_555
Mg3 Mg5 3.142048 1_555
Mg3 Mo0 3.251769 1_555
Mg3 Mo0 3.251769 1_655
Mg3 Mg5 3.360269 1_545
Mg4 Rb0 3.251888 1_555
Mg4 Rb0 3.251888 1_665
Mg4 Mg9 3.412394 1_554
Mg4 Mg8 3.412394 1_555
Mg5 Mg9 3.004621 1_555
Mg5 Mg8 3.004621 1_555
Mg5 Mo0 3.251769 1_665
Mg5 Mo0 3.251769 1_555
Mg6 Mo0 2.966849 1_555
Mg6 Mg8 3.219028 1_555
Mg6 Mg8 3.283290 1_545
Mg6 Rb0 3.415136 1_555
Mg7 Mo0 2.966849 1_555
Mg7 Mg9 3.219028 1_555
Mg7 Mg9 3.283290 1_545
Mg7 Rb0 3.415136 1_556
Mg8 Mo0 2.966856 1_555
Mg8 Rb0 3.415142 1_555
Mg9 Mo0 2.966856 1_555
Mg9 Rb0 3.415142 1_556
Mg10 Mo0 2.966856 1_655
Mg10 Mg3 3.004613 1_555
Mg10 Mg5 3.004621 1_545
Mg10 Mg8 3.219028 1_655
Mg10 Mg6 3.219028 1_655
Mg10 Mg12 3.272465 1_545
Mg10 Mg12 3.272465 1_555
Mg10 Mg8 3.283290 1_545
Mg10 Mg6 3.283290 1_555
Mg10 Mg2 3.412388 1_555
Mg10 Mg4 3.412394 1_545
Mg10 Rb0 3.415142 1_655
Mg11 Mo0 2.966856 1_655
Mg11 Mg3 3.004613 1_555
Mg11 Mg5 3.004621 1_545
Mg11 Mg9 3.219028 1_655
Mg11 Mg7 3.219028 1_655
Mg11 Mg13 3.272465 1_545
Mg11 Mg13 3.272465 1_555
Mg11 Mg9 3.283290 1_545
Mg11 Mg7 3.283290 1_555
Mg11 Mg2 3.412388 1_556
Mg11 Mg4 3.412394 1_546
Mg11 Rb0 3.415142 1_656
Mg12 Mg4 3.162374 1_555
Mg12 Mg2 3.162381 1_555
Mg12 Mg5 3.240346 1_555
Mg12 Mg3 3.240353 1_555
Mg12 Mg6 3.272465 1_665
Mg12 Mg6 3.272465 1_555
Mg12 Mg8 3.272465 1_555
Mg12 Mg8 3.272465 1_655
Mg13 Mg4 3.162374 1_556
Mg13 Mg2 3.162381 1_556
Mg13 Mg5 3.240346 1_555
Mg13 Mg3 3.240353 1_555
Mg13 Mg7 3.272465 1_665
Mg13 Mg7 3.272465 1_555
Mg13 Mg9 3.272465 1_555
Mg13 Mg9 3.272465 1_655
