# generated using pymatgen
data_Nd6Fe13Pb
_symmetry_space_group_name_H-M   'P 1'
_cell_length_a   8.08827400
_cell_length_b   8.08827400
_cell_length_c   13.08421615
_cell_angle_alpha   108.00410644
_cell_angle_beta   108.00410644
_cell_angle_gamma   90.00000000
_symmetry_Int_Tables_number   1
_chemical_formula_structural   Nd6Fe13Pb
_chemical_formula_sum   'Nd12 Fe26 Pb2'
_cell_volume   769.86685897
_cell_formula_units_Z   2
loop_
 _symmetry_equiv_pos_site_id
 _symmetry_equiv_pos_as_xyz
  1  'x, y, z'
loop_
 _atom_site_type_symbol
 _atom_site_label
 _atom_site_symmetry_multiplicity
 _atom_site_fract_x
 _atom_site_fract_y
 _atom_site_fract_z
 _atom_site_occupancy
  Nd  Nd0  1  0.60415000  0.60415000  0.20829900  1
  Nd  Nd1  1  0.10415000  0.10415000  0.20829900  1
  Nd  Nd2  1  0.39585000  0.39585000  0.79170100  1
  Nd  Nd3  1  0.89585000  0.89585000  0.79170100  1
  Nd  Nd4  1  0.97835100  0.47835100  0.63129900  1
  Nd  Nd5  1  0.65294800  0.15294800  0.63129900  1
  Nd  Nd6  1  0.15294800  0.97835100  0.63129900  1
  Nd  Nd7  1  0.47835100  0.65294800  0.63129900  1
  Nd  Nd8  1  0.02164900  0.52164900  0.36870100  1
  Nd  Nd9  1  0.34705200  0.84705200  0.36870100  1
  Nd  Nd10  1  0.84705200  0.02164900  0.36870100  1
  Nd  Nd11  1  0.52164900  0.34705200  0.36870100  1
  Fe  Fe0  1  0.00000000  0.50000000  0.00000000  1
  Fe  Fe1  1  0.50000000  0.00000000  0.00000000  1
  Fe  Fe2  1  0.71025600  0.56650400  0.00000000  1
  Fe  Fe3  1  0.28974400  0.43349600  0.00000000  1
  Fe  Fe4  1  0.78974400  0.06650400  0.00000000  1
  Fe  Fe5  1  0.21025600  0.93349600  0.00000000  1
  Fe  Fe6  1  0.56650400  0.28974400  0.00000000  1
  Fe  Fe7  1  0.43349600  0.71025600  0.00000000  1
  Fe  Fe8  1  0.06650400  0.21025600  0.00000000  1
  Fe  Fe9  1  0.93349600  0.78974400  0.00000000  1
  Fe  Fe10  1  0.12021300  0.62021300  0.88295800  1
  Fe  Fe11  1  0.76274600  0.26274600  0.88295800  1
  Fe  Fe12  1  0.26274600  0.12021300  0.88295800  1
  Fe  Fe13  1  0.62021300  0.76274600  0.88295800  1
  Fe  Fe14  1  0.87978700  0.37978700  0.11704200  1
  Fe  Fe15  1  0.23725400  0.73725400  0.11704200  1
  Fe  Fe16  1  0.73725400  0.87978700  0.11704200  1
  Fe  Fe17  1  0.37978700  0.23725400  0.11704200  1
  Fe  Fe18  1  0.29294700  0.79294700  0.81306200  1
  Fe  Fe19  1  0.52011500  0.02011500  0.81306200  1
  Fe  Fe20  1  0.02011500  0.29294700  0.81306200  1
  Fe  Fe21  1  0.79294700  0.52011500  0.81306200  1
  Fe  Fe22  1  0.70705300  0.20705300  0.18693800  1
  Fe  Fe23  1  0.47988500  0.97988500  0.18693800  1
  Fe  Fe24  1  0.97988500  0.70705300  0.18693800  1
  Fe  Fe25  1  0.20705300  0.47988500  0.18693800  1
  Pb  Pb0  1  0.25000000  0.25000000  0.50000000  1
  Pb  Pb1  1  0.75000000  0.75000000  0.50000000  1
loop_
_geom_bond_atom_site_label_1
_geom_bond_atom_site_label_2
_geom_bond_distance
_geom_bond_site_symmetry_2
Nd0 Pb1 3.432747 1_555
Nd1 Pb0 3.432747 1_555
Nd2 Pb0 3.432747 1_555
Nd3 Pb1 3.432747 1_555
Nd4 Pb0 3.400307 1_655
Nd4 Pb1 3.400307 1_555
Nd5 Pb0 3.400307 1_555
Nd5 Pb1 3.400307 1_545
Nd6 Pb0 3.400307 1_565
Nd6 Pb1 3.400307 1_455
Nd7 Pb0 3.400307 1_555
Nd7 Pb1 3.400307 1_555
Nd8 Pb1 3.400307 1_455
Nd8 Pb0 3.400307 1_555
Nd9 Pb1 3.400307 1_555
Nd9 Pb0 3.400307 1_565
Nd10 Pb1 3.400307 1_545
Nd10 Pb0 3.400307 1_655
Nd11 Pb0 3.400307 1_555
Nd11 Pb1 3.400307 1_555
Fe0 Fe2 2.404468 1_455
Fe0 Fe8 2.404468 1_555
Fe0 Fe9 2.404468 1_455
Fe0 Fe3 2.404468 1_555
Fe0 Fe15 2.465129 1_555
Fe0 Fe11 2.465129 1_454
Fe0 Fe14 2.465139 1_455
Fe0 Fe10 2.465139 1_554
Fe0 Fe24 2.554905 1_455
Fe0 Fe20 2.554905 1_554
Fe0 Fe25 2.554905 1_555
Fe0 Fe21 2.554905 1_454
Fe1 Fe6 2.404468 1_555
Fe1 Fe4 2.404468 1_555
Fe1 Fe5 2.404468 1_545
Fe1 Fe7 2.404468 1_545
Fe1 Fe17 2.465134 1_555
Fe1 Fe16 2.465134 1_545
Fe1 Fe12 2.465134 1_554
Fe1 Fe13 2.465134 1_544
Fe1 Fe22 2.554905 1_555
Fe1 Fe19 2.554905 1_554
Fe1 Fe23 2.554905 1_545
Fe1 Fe18 2.554905 1_544
Fe2 Fe6 2.522462 1_555
Fe2 Fe7 2.522462 1_555
Fe2 Fe9 2.553541 1_555
Fe2 Fe24 2.648523 1_555
Fe2 Fe21 2.648523 1_554
Fe2 Nd0 3.031520 1_555
Fe2 Nd2 3.031526 1_554
Fe3 Fe6 2.522462 1_555
Fe3 Fe7 2.522462 1_555
Fe3 Fe8 2.553541 1_555
Fe3 Nd2 3.031520 1_554
Fe3 Nd0 3.031526 1_555
Fe4 Fe8 2.522462 1_655
Fe4 Fe9 2.522462 1_545
Fe4 Fe6 2.553541 1_555
Fe4 Nd3 3.031521 1_544
Fe4 Nd1 3.031524 1_655
Fe5 Fe9 2.522462 1_455
Fe5 Fe8 2.522462 1_565
Fe5 Fe7 2.553541 1_555
Fe5 Nd1 3.031521 1_565
Fe5 Nd3 3.031524 1_454
Fe6 Nd2 3.031521 1_554
Fe6 Nd0 3.031524 1_555
Fe7 Nd0 3.031521 1_555
Fe7 Nd2 3.031524 1_554
Fe8 Nd1 3.031520 1_555
Fe8 Nd3 3.031526 1_444
Fe9 Nd3 3.031520 1_554
Fe9 Nd1 3.031526 1_665
Fe10 Fe7 2.491610 1_556
Fe10 Fe5 2.491610 1_556
Fe10 Fe18 2.513951 1_555
Fe10 Fe21 2.558200 1_455
Fe10 Fe20 2.558200 1_555
Fe10 Fe9 2.576387 1_456
Fe10 Fe3 2.576387 1_556
Fe10 Fe15 2.754708 1_556
Fe10 Nd4 2.967204 1_455
Fe10 Nd3 3.161538 1_455
Fe10 Nd2 3.161538 1_555
Fe11 Fe6 2.491617 1_556
Fe11 Fe4 2.491617 1_556
Fe11 Fe19 2.513962 1_555
Fe11 Fe20 2.558191 1_655
Fe11 Fe21 2.558191 1_555
Fe11 Fe2 2.576384 1_556
Fe11 Fe8 2.576384 1_656
Fe11 Fe14 2.754708 1_556
Fe11 Nd5 2.967204 1_555
Fe11 Nd2 3.161544 1_555
Fe11 Nd3 3.161544 1_545
Fe12 Fe3 2.491610 1_556
Fe12 Fe8 2.491616 1_556
Fe12 Fe20 2.513957 1_555
Fe12 Fe19 2.558193 1_555
Fe12 Fe18 2.558199 1_545
Fe12 Fe6 2.576381 1_556
Fe12 Fe5 2.576390 1_546
Fe12 Fe17 2.754708 1_556
Fe12 Nd6 2.967204 1_545
Fe12 Nd2 3.161531 1_555
Fe12 Nd3 3.161552 1_445
Fe13 Fe9 2.491610 1_556
Fe13 Fe2 2.491616 1_556
Fe13 Fe21 2.513957 1_555
Fe13 Fe19 2.558193 1_565
Fe13 Fe18 2.558199 1_555
Fe13 Fe4 2.576381 1_566
Fe13 Fe7 2.576390 1_556
Fe13 Fe16 2.754708 1_556
Fe13 Nd7 2.967204 1_555
Fe13 Nd3 3.161531 1_555
Fe13 Nd2 3.161552 1_555
Fe14 Fe6 2.491610 1_555
Fe14 Fe4 2.491610 1_555
Fe14 Fe22 2.513951 1_555
Fe14 Fe24 2.558200 1_555
Fe14 Fe25 2.558200 1_655
Fe14 Fe8 2.576387 1_655
Fe14 Fe2 2.576387 1_555
Fe14 Nd8 2.967204 1_655
Fe14 Nd1 3.161538 1_655
Fe14 Nd0 3.161538 1_555
Fe15 Fe7 2.491617 1_555
Fe15 Fe5 2.491617 1_555
Fe15 Fe23 2.513962 1_555
Fe15 Fe25 2.558191 1_555
Fe15 Fe24 2.558191 1_455
Fe15 Fe9 2.576384 1_455
Fe15 Fe3 2.576384 1_555
Fe15 Nd9 2.967204 1_555
Fe15 Nd1 3.161544 1_565
Fe15 Nd0 3.161544 1_555
Fe16 Fe2 2.491610 1_555
Fe16 Fe9 2.491616 1_555
Fe16 Fe24 2.513957 1_555
Fe16 Fe23 2.558193 1_555
Fe16 Fe22 2.558199 1_565
Fe16 Fe7 2.576381 1_555
Fe16 Fe4 2.576390 1_565
Fe16 Nd10 2.967204 1_565
Fe16 Nd0 3.161531 1_555
Fe16 Nd1 3.161552 1_665
Fe17 Fe8 2.491610 1_555
Fe17 Fe3 2.491616 1_555
Fe17 Fe25 2.513957 1_555
Fe17 Fe23 2.558193 1_545
Fe17 Fe22 2.558199 1_555
Fe17 Fe5 2.576381 1_545
Fe17 Fe6 2.576390 1_555
Fe17 Nd11 2.967204 1_555
Fe17 Nd1 3.161531 1_555
Fe17 Nd0 3.161552 1_555
Fe18 Fe19 2.598472 1_565
Fe18 Fe7 2.648523 1_556
Fe18 Fe5 2.648523 1_556
Fe18 Nd7 3.118795 1_555
Fe18 Nd6 3.118795 1_555
Fe18 Nd2 3.267351 1_555
Fe18 Nd3 3.267351 1_455
Fe18 Nd4 3.335208 1_455
Fe19 Fe4 2.648523 1_556
Fe19 Fe6 2.648523 1_556
Fe19 Nd7 3.118795 1_545
Fe19 Nd6 3.118795 1_545
Fe19 Nd3 3.267345 1_545
Fe19 Nd2 3.267345 1_555
Fe19 Nd5 3.335208 1_555
Fe20 Fe21 2.598472 1_455
Fe20 Fe8 2.648523 1_556
Fe20 Fe3 2.648523 1_556
Fe20 Nd5 3.118795 1_455
Fe20 Nd4 3.118795 1_455
Fe20 Nd2 3.267343 1_555
Fe20 Nd3 3.267353 1_445
Fe20 Nd6 3.335208 1_545
Fe21 Fe9 2.648523 1_556
Fe21 Nd5 3.118795 1_555
Fe21 Nd4 3.118795 1_555
Fe21 Nd3 3.267343 1_555
Fe21 Nd2 3.267353 1_555
Fe21 Nd7 3.335208 1_555
Fe22 Fe23 2.598472 1_545
Fe22 Fe6 2.648523 1_555
Fe22 Fe4 2.648523 1_555
Fe22 Nd11 3.118795 1_555
Fe22 Nd10 3.118795 1_555
Fe22 Nd0 3.267351 1_555
Fe22 Nd1 3.267351 1_655
Fe22 Nd8 3.335208 1_655
Fe23 Fe5 2.648523 1_555
Fe23 Fe7 2.648523 1_555
Fe23 Nd11 3.118795 1_565
Fe23 Nd10 3.118795 1_565
Fe23 Nd0 3.267345 1_555
Fe23 Nd1 3.267345 1_565
Fe23 Nd9 3.335208 1_555
Fe24 Fe25 2.598472 1_655
Fe24 Fe9 2.648523 1_555
Fe24 Nd9 3.118795 1_655
Fe24 Nd8 3.118795 1_655
Fe24 Nd0 3.267343 1_555
Fe24 Nd1 3.267353 1_665
Fe24 Nd10 3.335208 1_565
Fe25 Fe3 2.648523 1_555
Fe25 Fe8 2.648523 1_555
Fe25 Nd9 3.118795 1_555
Fe25 Nd8 3.118795 1_555
Fe25 Nd1 3.267343 1_555
Fe25 Nd0 3.267353 1_555
Fe25 Nd11 3.335208 1_555
