# generated using pymatgen
data_Li9Mn2Co5O16
_symmetry_space_group_name_H-M   'P 1'
_cell_length_a   6.56499065
_cell_length_b   6.56499065
_cell_length_c   15.46952827
_cell_angle_alpha   88.48859030
_cell_angle_beta   88.48859030
_cell_angle_gamma   25.88563948
_symmetry_Int_Tables_number   1
_chemical_formula_structural   Li9Mn2Co5O16
_chemical_formula_sum   'Li9 Mn2 Co5 O16'
_cell_volume   290.96875481
_cell_formula_units_Z   1
loop_
 _symmetry_equiv_pos_site_id
 _symmetry_equiv_pos_as_xyz
  1  'x, y, z'
loop_
 _atom_site_type_symbol
 _atom_site_label
 _atom_site_symmetry_multiplicity
 _atom_site_fract_x
 _atom_site_fract_y
 _atom_site_fract_z
 _atom_site_occupancy
  Li  Li0  1  0.81473400  0.81473400  0.56939600  1
  Li  Li1  1  0.18526600  0.18526600  0.43060400  1
  Li  Li2  1  0.56129300  0.56129300  0.30878800  1
  Li  Li3  1  0.43870700  0.43870700  0.69121200  1
  Li  Li4  1  0.06089000  0.06089000  0.82150900  1
  Li  Li5  1  0.68463200  0.68463200  0.93937300  1
  Li  Li6  1  0.93911000  0.93911000  0.17849100  1
  Li  Li7  1  0.31536800  0.31536800  0.06062700  1
  Li  Li8  1  0.00000000  0.00000000  0.00000000  1
  Mn  Mn0  1  0.12741500  0.12741500  0.62488300  1
  Mn  Mn1  1  0.87258500  0.87258500  0.37511700  1
  Co  Co0  1  0.50000000  0.50000000  0.50000000  1
  Co  Co1  1  0.24349800  0.24349800  0.24331400  1
  Co  Co2  1  0.61600500  0.61600500  0.11707800  1
  Co  Co3  1  0.38399500  0.38399500  0.88292200  1
  Co  Co4  1  0.75650200  0.75650200  0.75668600  1
  O  O0  1  0.65668500  0.65668500  0.54270500  1
  O  O1  1  0.01913000  0.01913000  0.40746300  1
  O  O2  1  0.39824800  0.39824800  0.29350300  1
  O  O3  1  0.27181700  0.27181700  0.65880100  1
  O  O4  1  0.89891500  0.89891500  0.78171500  1
  O  O5  1  0.52176000  0.52176000  0.90230100  1
  O  O6  1  0.78067700  0.78067700  0.16204300  1
  O  O7  1  0.15642600  0.15642600  0.04037200  1
  O  O8  1  0.98087000  0.98087000  0.59253700  1
  O  O9  1  0.34331500  0.34331500  0.45729500  1
  O  O10  1  0.72818300  0.72818300  0.34119900  1
  O  O11  1  0.60175200  0.60175200  0.70649700  1
  O  O12  1  0.21932300  0.21932300  0.83795700  1
  O  O13  1  0.84357400  0.84357400  0.95962800  1
  O  O14  1  0.10108500  0.10108500  0.21828400  1
  O  O15  1  0.47824000  0.47824000  0.09769900  1
loop_
_geom_bond_atom_site_label_1
_geom_bond_atom_site_label_2
_geom_bond_distance
_geom_bond_site_symmetry_2
Li0 O0 2.075096 1_555
Li0 O3 2.082175 1_655
Li0 O3 2.082175 1_565
Li0 O8 2.165405 1_555
Li0 O9 2.295394 1_655
Li0 O9 2.295394 1_565
Li1 O9 2.075096 1_555
Li1 O10 2.082175 1_545
Li1 O10 2.082175 1_455
Li1 O1 2.165405 1_555
Li1 O0 2.295394 1_545
Li1 O0 2.295394 1_455
Li2 O14 2.083979 1_655
Li2 O14 2.083979 1_565
Li2 O2 2.106094 1_555
Li2 O1 2.176859 1_655
Li2 O1 2.176859 1_565
Li2 O10 2.206829 1_555
Li3 O4 2.083969 1_545
Li3 O4 2.083969 1_455
Li3 O11 2.106094 1_555
Li3 O8 2.176859 1_455
Li3 O8 2.176859 1_545
Li3 O3 2.206829 1_555
Li4 O5 1.985198 1_455
Li4 O5 1.985198 1_545
Li4 O12 2.050098 1_555
Li4 O4 2.178094 1_445
Li4 O11 2.355986 1_455
Li4 O11 2.355986 1_545
Li5 O13 2.066244 1_555
Li5 O7 2.168638 1_566
Li5 O7 2.168638 1_656
Li5 O5 2.176550 1_555
Li5 O12 2.186963 1_655
Li5 O12 2.186963 1_565
Li6 O15 1.985198 1_655
Li6 O15 1.985198 1_565
Li6 O6 2.050098 1_555
Li6 O14 2.178089 1_665
Li6 O2 2.355986 1_565
Li6 O2 2.355986 1_655
Li7 O7 2.066244 1_555
Li7 O13 2.168638 1_454
Li7 O13 2.168638 1_544
Li7 O15 2.176550 1_555
Li7 O6 2.186963 1_545
Li7 O6 2.186963 1_455
Li8 O13 2.112930 1_444
Li8 O7 2.112930 1_555
Li8 O5 2.121576 1_544
Li8 O15 2.121576 1_455
Li8 O15 2.121576 1_545
Li8 O5 2.121576 1_454
Mn0 O3 1.934488 1_555
Mn0 O8 1.953900 1_445
Mn0 O11 1.959977 1_455
Mn0 O11 1.959977 1_545
Mn0 O0 1.973000 1_455
Mn0 O0 1.973000 1_545
Mn1 O10 1.934488 1_555
Mn1 O1 1.953900 1_665
Mn1 O2 1.959977 1_565
Mn1 O2 1.959977 1_655
Mn1 O9 1.973000 1_565
Mn1 O9 1.973000 1_655
Co0 O8 2.062107 1_545
Co0 O8 2.062107 1_455
Co0 O1 2.062107 1_655
Co0 O1 2.062107 1_565
Co0 O0 2.127948 1_555
Co0 O9 2.127948 1_555
Co1 O14 1.873277 1_555
Co1 O6 1.984114 1_455
Co1 O6 1.984114 1_545
Co1 O10 2.115981 1_455
Co1 O10 2.115981 1_545
Co1 O2 2.146481 1_555
Co2 O15 1.796185 1_555
Co2 O7 1.950507 1_655
Co2 O7 1.950507 1_565
Co2 O14 2.152564 1_565
Co2 O14 2.152564 1_655
Co2 O6 2.236852 1_555
Co3 O5 1.796185 1_555
Co3 O13 1.950507 1_545
Co3 O13 1.950507 1_455
Co3 O4 2.152575 1_545
Co3 O4 2.152575 1_455
Co3 O12 2.236852 1_555
Co4 O4 1.873273 1_555
Co4 O12 1.984114 1_565
Co4 O12 1.984114 1_655
Co4 O3 2.115981 1_565
Co4 O3 2.115981 1_655
Co4 O11 2.146481 1_555
