# generated using pymatgen
data_Na2FeP2(HO3)2
_symmetry_space_group_name_H-M   'P 1'
_cell_length_a   5.50472000
_cell_length_b   9.40076800
_cell_length_c   12.34220500
_cell_angle_alpha   90.00000000
_cell_angle_beta   90.00000000
_cell_angle_gamma   90.00000000
_symmetry_Int_Tables_number   1
_chemical_formula_structural   Na2FeP2(HO3)2
_chemical_formula_sum   'Na8 Fe4 P8 H8 O24'
_cell_volume   638.69177567
_cell_formula_units_Z   4
loop_
 _symmetry_equiv_pos_site_id
 _symmetry_equiv_pos_as_xyz
  1  'x, y, z'
loop_
 _atom_site_type_symbol
 _atom_site_label
 _atom_site_symmetry_multiplicity
 _atom_site_fract_x
 _atom_site_fract_y
 _atom_site_fract_z
 _atom_site_occupancy
  Na  Na0  1  0.75000000  0.27342500  0.59736700  1
  Na  Na1  1  0.75000000  0.22657500  0.09736700  1
  Na  Na2  1  0.25000000  0.72657500  0.40263300  1
  Na  Na3  1  0.25000000  0.77342500  0.90263300  1
  Na  Na4  1  0.25000000  0.17355700  0.77801300  1
  Na  Na5  1  0.25000000  0.32644300  0.27801300  1
  Na  Na6  1  0.75000000  0.82644300  0.22198700  1
  Na  Na7  1  0.75000000  0.67355700  0.72198700  1
  Fe  Fe0  1  0.25000000  0.86370600  0.65818400  1
  Fe  Fe1  1  0.25000000  0.63629400  0.15818400  1
  Fe  Fe2  1  0.75000000  0.13629400  0.34181600  1
  Fe  Fe3  1  0.75000000  0.36370600  0.84181600  1
  P  P0  1  0.75000000  0.87182600  0.51522300  1
  P  P1  1  0.75000000  0.62817400  0.01522300  1
  P  P2  1  0.25000000  0.12817400  0.48477700  1
  P  P3  1  0.25000000  0.37182600  0.98477700  1
  P  P4  1  0.25000000  0.49663300  0.68672800  1
  P  P5  1  0.25000000  0.00336700  0.18672800  1
  P  P6  1  0.75000000  0.50336700  0.31327200  1
  P  P7  1  0.75000000  0.99663300  0.81327200  1
  H  H0  1  0.25000000  0.50416600  0.57227700  1
  H  H1  1  0.25000000  0.99583400  0.07227700  1
  H  H2  1  0.75000000  0.49583400  0.42772300  1
  H  H3  1  0.75000000  0.00416600  0.92772300  1
  H  H4  1  0.75000000  0.99718200  0.57760400  1
  H  H5  1  0.75000000  0.50281800  0.07760400  1
  H  H6  1  0.25000000  0.00281800  0.42239600  1
  H  H7  1  0.25000000  0.49718200  0.92239600  1
  O  O0  1  0.97984600  0.78870700  0.54860000  1
  O  O1  1  0.52015400  0.71129300  0.04860000  1
  O  O2  1  0.47984600  0.21129300  0.45140000  1
  O  O3  1  0.02015400  0.28870700  0.95140000  1
  O  O4  1  0.02015400  0.21129300  0.45140000  1
  O  O5  1  0.47984600  0.28870700  0.95140000  1
  O  O6  1  0.52015400  0.78870700  0.54860000  1
  O  O7  1  0.97984600  0.71129300  0.04860000  1
  O  O8  1  0.25000000  0.65028300  0.72980400  1
  O  O9  1  0.25000000  0.84971700  0.22980400  1
  O  O10  1  0.75000000  0.34971700  0.27019600  1
  O  O11  1  0.75000000  0.15028300  0.77019600  1
  O  O12  1  0.98351800  0.91425500  0.78386700  1
  O  O13  1  0.51648200  0.58574500  0.28386700  1
  O  O14  1  0.48351800  0.08574500  0.21613300  1
  O  O15  1  0.01648200  0.41425500  0.71613300  1
  O  O16  1  0.01648200  0.08574500  0.21613300  1
  O  O17  1  0.48351800  0.41425500  0.71613300  1
  O  O18  1  0.51648200  0.91425500  0.78386700  1
  O  O19  1  0.98351800  0.58574500  0.28386700  1
  O  O20  1  0.25000000  0.08288400  0.60447800  1
  O  O21  1  0.25000000  0.41711600  0.10447800  1
  O  O22  1  0.75000000  0.91711600  0.39552200  1
  O  O23  1  0.75000000  0.58288400  0.89552200  1
loop_
_geom_bond_atom_site_label_1
_geom_bond_atom_site_label_2
_geom_bond_distance
_geom_bond_site_symmetry_2
Na0 O4 2.407964 1_655
Na0 O2 2.407964 1_555
Na0 O11 2.426970 1_555
Na0 O17 2.460331 1_555
Na0 O15 2.460331 1_655
Na1 O5 2.407964 1_554
Na1 O3 2.407964 1_654
Na1 O10 2.426970 1_555
Na1 O16 2.460331 1_655
Na1 O14 2.460331 1_555
Na2 O0 2.407964 1_455
Na2 O6 2.407964 1_555
Na2 O9 2.426970 1_555
Na2 O19 2.460331 1_455
Na2 O13 2.460331 1_555
Na3 O7 2.407964 1_456
Na3 O1 2.407964 1_556
Na3 O8 2.426970 1_555
Na3 O12 2.460331 1_455
Na3 O18 2.460331 1_555
Na4 O20 2.305191 1_555
Na4 O5 2.711482 1_555
Na4 O3 2.711482 1_555
Na4 O17 2.712139 1_555
Na4 O15 2.712139 1_555
Na4 O11 2.762728 1_555
Na4 O11 2.762728 1_455
Na4 O12 2.845895 1_445
Na4 O18 2.845895 1_545
Na5 O21 2.305191 1_555
Na5 O2 2.711482 1_555
Na5 O4 2.711482 1_555
Na5 O16 2.712139 1_555
Na5 O14 2.712139 1_555
Na5 O10 2.762728 1_555
Na5 O10 2.762728 1_455
Na5 O19 2.845895 1_455
Na5 O13 2.845895 1_555
Na6 O22 2.305191 1_555
Na6 O1 2.711482 1_555
Na6 O7 2.711482 1_555
Na6 O13 2.712139 1_555
Na6 O19 2.712139 1_555
Na6 O9 2.762728 1_655
Na6 O9 2.762728 1_555
Na6 O14 2.845895 1_565
Na6 O16 2.845895 1_665
Na7 O23 2.305191 1_555
Na7 O0 2.711482 1_555
Na7 O6 2.711482 1_555
Na7 O18 2.712139 1_555
Na7 O12 2.712139 1_555
Na7 O8 2.762728 1_555
Na7 O8 2.762728 1_655
Na7 O17 2.845895 1_555
Na7 O15 2.845895 1_655
Fe0 O6 2.130236 1_555
Fe0 O0 2.130236 1_455
Fe0 O20 2.164438 1_565
Fe0 O12 2.187207 1_455
Fe0 O18 2.187207 1_555
Fe0 O8 2.192434 1_555
Fe1 O1 2.130236 1_555
Fe1 O7 2.130236 1_455
Fe1 O21 2.164438 1_555
Fe1 O19 2.187207 1_455
Fe1 O13 2.187207 1_555
Fe1 O9 2.192434 1_555
Fe2 O2 2.130236 1_555
Fe2 O4 2.130236 1_655
Fe2 O22 2.164438 1_545
Fe2 O14 2.187207 1_555
Fe2 O16 2.187207 1_655
Fe2 O10 2.192434 1_555
Fe3 O3 2.130236 1_655
Fe3 O5 2.130236 1_555
Fe3 O23 2.164438 1_555
Fe3 O17 2.187207 1_555
Fe3 O15 2.187207 1_655
Fe3 O11 2.192434 1_555
H0 P4 1.414352 1_555
H1 P5 1.414352 1_565
H2 P6 1.414352 1_555
H3 P7 1.414352 1_545
H4 P0 1.407659 1_555
H4 Na0 2.608327 1_565
H5 P1 1.407659 1_555
H5 Na1 2.608327 1_555
H6 P2 1.407659 1_555
H6 Na2 2.608327 1_545
H7 P3 1.407659 1_555
H7 Na3 2.608327 1_555
O0 P0 1.543076 1_555
O1 P1 1.543076 1_555
O2 P2 1.543076 1_555
O3 P3 1.543076 1_555
O4 P2 1.543076 1_555
O5 P3 1.543076 1_555
O6 P0 1.543076 1_555
O7 P1 1.543076 1_555
O8 P4 1.539164 1_555
O9 P5 1.539164 1_565
O10 P6 1.539164 1_555
O11 P7 1.539164 1_545
O12 P7 1.543962 1_555
O13 P6 1.543962 1_555
O14 P5 1.543962 1_555
O15 P4 1.543962 1_555
O16 P5 1.543962 1_555
O17 P4 1.543962 1_555
O18 P7 1.543962 1_555
O19 P6 1.543962 1_555
O20 P2 1.537500 1_555
O21 P3 1.537500 1_554
O22 P0 1.537500 1_555
O23 P1 1.537500 1_556
