# generated using pymatgen
data_Yb2(Al3Ir)3
_symmetry_space_group_name_H-M   'P 1'
_cell_length_a   7.53815225
_cell_length_b   7.53815225
_cell_length_c   9.64154800
_cell_angle_alpha   90.00000000
_cell_angle_beta   90.00000000
_cell_angle_gamma   119.39767665
_symmetry_Int_Tables_number   1
_chemical_formula_structural   Yb2(Al3Ir)3
_chemical_formula_sum   'Yb4 Al18 Ir6'
_cell_volume   477.32177983
_cell_formula_units_Z   2
loop_
 _symmetry_equiv_pos_site_id
 _symmetry_equiv_pos_as_xyz
  1  'x, y, z'
loop_
 _atom_site_type_symbol
 _atom_site_label
 _atom_site_symmetry_multiplicity
 _atom_site_fract_x
 _atom_site_fract_y
 _atom_site_fract_z
 _atom_site_occupancy
  Yb  Yb0  1  0.99597100  0.67084100  0.25000000  1
  Yb  Yb1  1  0.00402900  0.32915900  0.75000000  1
  Yb  Yb2  1  0.67084100  0.99597100  0.25000000  1
  Yb  Yb3  1  0.32915900  0.00402900  0.75000000  1
  Al  Al0  1  0.12918200  0.12918200  0.25000000  1
  Al  Al1  1  0.87081800  0.87081800  0.75000000  1
  Al  Al2  1  0.00231400  0.33476500  0.06957900  1
  Al  Al3  1  0.99768600  0.66523500  0.93042100  1
  Al  Al4  1  0.99768600  0.66523500  0.56957900  1
  Al  Al5  1  0.33476500  0.00231400  0.43042100  1
  Al  Al6  1  0.00231400  0.33476500  0.43042100  1
  Al  Al7  1  0.66523500  0.99768600  0.56957900  1
  Al  Al8  1  0.66523500  0.99768600  0.93042100  1
  Al  Al9  1  0.33476500  0.00231400  0.06957900  1
  Al  Al10  1  0.33494100  0.33494100  0.55012900  1
  Al  Al11  1  0.66505900  0.66505900  0.44987100  1
  Al  Al12  1  0.66505900  0.66505900  0.05012900  1
  Al  Al13  1  0.33494100  0.33494100  0.94987100  1
  Al  Al14  1  0.33629600  0.54659000  0.25000000  1
  Al  Al15  1  0.66370400  0.45341000  0.75000000  1
  Al  Al16  1  0.54659000  0.33629600  0.25000000  1
  Al  Al17  1  0.45341000  0.66370400  0.75000000  1
  Ir  Ir0  1  0.67181000  0.32819000  0.00000000  1
  Ir  Ir1  1  0.32819000  0.67181000  0.00000000  1
  Ir  Ir2  1  0.32819000  0.67181000  0.50000000  1
  Ir  Ir3  1  0.67181000  0.32819000  0.50000000  1
  Ir  Ir4  1  0.00000000  0.00000000  0.00000000  1
  Ir  Ir5  1  0.00000000  0.00000000  0.50000000  1
loop_
_geom_bond_atom_site_label_1
_geom_bond_atom_site_label_2
_geom_bond_distance
_geom_bond_site_symmetry_2
Al0 Ir5 2.602990 1_555
Al0 Ir4 2.602990 1_555
Al0 Al14 2.741375 1_555
Al0 Al16 2.741375 1_555
Al0 Al2 2.792350 1_555
Al0 Al6 2.792350 1_555
Al0 Al9 2.792350 1_555
Al0 Al5 2.792350 1_555
Al0 Yb2 3.088625 1_445
Al0 Yb0 3.088625 1_445
Al1 Ir4 2.602990 1_666
Al1 Ir5 2.602990 1_665
Al1 Al17 2.741375 1_555
Al1 Al15 2.741375 1_555
Al1 Al3 2.792350 1_555
Al1 Al7 2.792350 1_555
Al1 Al4 2.792350 1_555
Al1 Al8 2.792350 1_555
Al1 Yb3 3.088625 1_665
Al1 Yb1 3.088625 1_665
Al2 Ir0 2.557008 1_455
Al2 Ir4 2.602927 1_555
Al2 Ir1 2.610046 1_555
Al2 Yb1 3.081640 1_554
Al2 Yb2 3.086575 1_445
Al2 Yb0 3.092778 1_455
Al3 Ir1 2.557008 1_656
Al3 Ir4 2.602927 1_666
Al3 Ir0 2.610046 1_556
Al3 Yb0 3.081640 1_556
Al3 Yb3 3.086575 1_665
Al3 Yb1 3.092778 1_655
Al4 Ir2 2.557008 1_655
Al4 Ir5 2.602927 1_665
Al4 Ir3 2.610046 1_555
Al4 Yb0 3.081640 1_555
Al4 Yb3 3.086575 1_665
Al4 Yb1 3.092778 1_655
Al5 Ir2 2.557008 1_545
Al5 Ir5 2.602927 1_555
Al5 Ir3 2.610046 1_555
Al5 Yb3 3.081640 1_555
Al5 Yb0 3.086575 1_445
Al5 Yb2 3.092778 1_545
Al6 Ir3 2.557008 1_455
Al6 Ir5 2.602927 1_555
Al6 Ir2 2.610046 1_555
Al6 Yb1 3.081640 1_555
Al6 Yb2 3.086575 1_445
Al6 Yb0 3.092778 1_455
Al7 Ir3 2.557008 1_565
Al7 Ir5 2.602927 1_665
Al7 Ir2 2.610046 1_555
Al7 Yb2 3.081640 1_555
Al7 Yb1 3.086575 1_665
Al7 Yb3 3.092778 1_565
Al8 Ir0 2.557008 1_566
Al8 Ir4 2.602927 1_666
Al8 Ir1 2.610046 1_556
Al8 Yb2 3.081640 1_556
Al8 Yb1 3.086575 1_665
Al8 Yb3 3.092778 1_565
Al9 Ir1 2.557008 1_545
Al9 Ir4 2.602927 1_555
Al9 Ir0 2.610046 1_555
Al9 Yb3 3.081640 1_554
Al9 Yb0 3.086575 1_445
Al9 Yb2 3.092778 1_545
Al10 Ir5 2.593226 1_555
Al10 Ir2 2.609877 1_555
Al10 Ir3 2.609877 1_555
Al10 Al17 2.912067 1_555
Al10 Al15 2.912067 1_555
Al10 Yb1 3.135459 1_555
Al10 Yb3 3.135459 1_555
Al11 Ir5 2.593226 1_665
Al11 Ir3 2.609877 1_555
Al11 Ir2 2.609877 1_555
Al11 Al16 2.912067 1_555
Al11 Al14 2.912067 1_555
Al11 Yb0 3.135459 1_555
Al11 Yb2 3.135459 1_555
Al12 Ir4 2.593226 1_665
Al12 Ir0 2.609877 1_555
Al12 Ir1 2.609877 1_555
Al12 Al14 2.912067 1_555
Al12 Al16 2.912067 1_555
Al12 Yb2 3.135459 1_555
Al12 Yb0 3.135459 1_555
Al13 Ir4 2.593226 1_556
Al13 Ir1 2.609877 1_556
Al13 Ir0 2.609877 1_556
Al13 Al17 2.912067 1_555
Al13 Al15 2.912067 1_555
Al13 Yb1 3.135459 1_555
Al13 Yb3 3.135459 1_555
Al14 Ir1 2.600254 1_555
Al14 Ir2 2.600254 1_555
Al14 Al16 2.737325 1_555
Al14 Al6 2.822657 1_555
Al14 Al2 2.822657 1_555
Al14 Yb2 3.073784 1_555
Al14 Yb0 3.133305 1_455
Al15 Ir3 2.600254 1_555
Al15 Ir0 2.600254 1_556
Al15 Al17 2.737325 1_555
Al15 Al3 2.822657 1_555
Al15 Al4 2.822657 1_555
Al15 Yb3 3.073784 1_555
Al15 Yb1 3.133305 1_655
Al16 Ir0 2.600254 1_555
Al16 Ir3 2.600254 1_555
Al16 Al5 2.822657 1_555
Al16 Al9 2.822657 1_555
Al16 Yb0 3.073784 1_555
Al16 Yb2 3.133305 1_545
Al17 Ir2 2.600254 1_555
Al17 Ir1 2.600254 1_556
Al17 Al7 2.822657 1_555
Al17 Al8 2.822657 1_555
Al17 Yb1 3.073784 1_555
Al17 Yb3 3.133305 1_565
