# generated using pymatgen
data_NaMn8O16
_symmetry_space_group_name_H-M   'P 1'
_cell_length_a   5.89134109
_cell_length_b   9.92409988
_cell_length_c   10.01858877
_cell_angle_alpha   89.33548213
_cell_angle_beta   90.10846843
_cell_angle_gamma   90.10252254
_symmetry_Int_Tables_number   1
_chemical_formula_structural   NaMn8O16
_chemical_formula_sum   'Na2 Mn16 O32'
_cell_volume   585.70803039
_cell_formula_units_Z   2
loop_
 _symmetry_equiv_pos_site_id
 _symmetry_equiv_pos_as_xyz
  1  'x, y, z'
loop_
 _atom_site_type_symbol
 _atom_site_label
 _atom_site_symmetry_multiplicity
 _atom_site_fract_x
 _atom_site_fract_y
 _atom_site_fract_z
 _atom_site_occupancy
  Na  Na0  1  0.25041400  0.49292400  0.50087200  1
  Na  Na1  1  0.50027000  0.99381500  0.00119900  1
  Mn  Mn0  1  0.49937400  0.34137300  0.83550800  1
  Mn  Mn1  1  0.99690700  0.34101500  0.83513800  1
  Mn  Mn2  1  0.50070400  0.82362800  0.64869100  1
  Mn  Mn3  1  0.99944800  0.82385900  0.65103200  1
  Mn  Mn4  1  0.00264400  0.15907100  0.35055700  1
  Mn  Mn5  1  0.50241100  0.15999800  0.35164800  1
  Mn  Mn6  1  0.99872300  0.64538000  0.16500800  1
  Mn  Mn7  1  0.50005800  0.64401400  0.16660800  1
  Mn  Mn8  1  0.75106700  0.84192500  0.33510300  1
  Mn  Mn9  1  0.24870000  0.84257800  0.33492300  1
  Mn  Mn10  1  0.75120100  0.32260800  0.15062300  1
  Mn  Mn11  1  0.24930100  0.32292400  0.14869400  1
  Mn  Mn12  1  0.74948100  0.65946500  0.85079100  1
  Mn  Mn13  1  0.25018200  0.65902100  0.85148400  1
  Mn  Mn14  1  0.75123300  0.14535900  0.66535100  1
  Mn  Mn15  1  0.25012400  0.14444000  0.66682000  1
  O  O0  1  0.74667100  0.66407600  0.04289000  1
  O  O1  1  0.25185200  0.66456500  0.04340000  1
  O  O2  1  0.75035400  0.03625500  0.34494600  1
  O  O3  1  0.25303900  0.03627300  0.34178700  1
  O  O4  1  0.75053800  0.94778200  0.65973400  1
  O  O5  1  0.25045000  0.94952300  0.66213700  1
  O  O6  1  0.74833000  0.31947500  0.95776000  1
  O  O7  1  0.24881800  0.32359100  0.95714600  1
  O  O8  1  0.00567000  0.16474000  0.54201900  1
  O  O9  1  0.49971900  0.16480400  0.54454000  1
  O  O10  1  0.99940600  0.53555800  0.84286400  1
  O  O11  1  0.49961700  0.53569000  0.84154600  1
  O  O12  1  0.50057500  0.44923000  0.16119900  1
  O  O13  1  0.00012800  0.44618900  0.15943400  1
  O  O14  1  0.49937100  0.82191700  0.45719200  1
  O  O15  1  0.00076300  0.82184200  0.45811800  1
  O  O16  1  0.49958100  0.84109100  0.20390900  1
  O  O17  1  0.99949100  0.85017500  0.21071300  1
  O  O18  1  0.99953900  0.19257800  0.15685300  1
  O  O19  1  0.50129500  0.18844100  0.15807200  1
  O  O20  1  0.99900400  0.14803500  0.79444500  1
  O  O21  1  0.49304200  0.14769000  0.80063100  1
  O  O22  1  0.50052800  0.79140300  0.84356000  1
  O  O23  1  0.00058000  0.78864100  0.84375100  1
  O  O24  1  0.74793000  0.34548400  0.70972000  1
  O  O25  1  0.24916200  0.34098100  0.70417900  1
  O  O26  1  0.75045500  0.69357900  0.65812000  1
  O  O27  1  0.24841700  0.68928000  0.65762600  1
  O  O28  1  0.74856100  0.64941600  0.29578300  1
  O  O29  1  0.25090000  0.64811000  0.29792300  1
  O  O30  1  0.75229600  0.28905300  0.34328200  1
  O  O31  1  0.25167300  0.29134400  0.34335100  1
loop_
_geom_bond_atom_site_label_1
_geom_bond_atom_site_label_2
_geom_bond_distance
_geom_bond_site_symmetry_2
Na0 O27 2.516915 1_555
Na0 O25 2.520186 1_555
Na0 O29 2.536412 1_555
Na0 O31 2.562402 1_555
Na1 O19 2.504214 1_565
Na1 O21 2.510023 1_564
Na1 O16 2.519969 1_555
Na1 O22 2.569624 1_554
Mn0 O6 1.920071 1_555
Mn0 O7 1.922504 1_555
Mn0 O11 1.930069 1_555
Mn0 O24 1.933818 1_555
Mn0 O21 1.957891 1_555
Mn0 O25 1.974042 1_555
Mn1 O6 1.923311 1_555
Mn1 O7 1.927619 1_655
Mn1 O24 1.929839 1_555
Mn1 O10 1.933141 1_555
Mn1 O20 1.962749 1_555
Mn1 O25 1.984277 1_655
Mn2 O14 1.918823 1_555
Mn2 O4 1.921658 1_555
Mn2 O5 1.940112 1_555
Mn2 O26 1.960354 1_555
Mn2 O22 1.974670 1_555
Mn2 O27 1.996350 1_555
Mn3 O4 1.918297 1_555
Mn3 O15 1.933092 1_655
Mn3 O5 1.936570 1_655
Mn3 O26 1.954468 1_555
Mn3 O23 1.958159 1_655
Mn3 O27 1.985979 1_655
Mn4 O3 1.917906 1_555
Mn4 O8 1.919704 1_555
Mn4 O2 1.921635 1_455
Mn4 O30 1.961836 1_455
Mn4 O18 1.965175 1_455
Mn4 O31 1.967766 1_555
Mn5 O2 1.911801 1_555
Mn5 O3 1.916133 1_555
Mn5 O9 1.933743 1_555
Mn5 O30 1.950855 1_555
Mn5 O19 1.956551 1_555
Mn5 O31 1.972810 1_555
Mn6 O0 1.930051 1_555
Mn6 O1 1.935193 1_655
Mn6 O28 1.974582 1_555
Mn6 O13 1.978260 1_655
Mn6 O29 1.993574 1_655
Mn6 O17 2.088519 1_555
Mn7 O0 1.920123 1_555
Mn7 O1 1.921427 1_555
Mn7 O12 1.934451 1_555
Mn7 O28 1.953253 1_555
Mn7 O29 1.973792 1_555
Mn7 O16 1.995455 1_555
Mn8 O17 1.925055 1_555
Mn8 O15 1.926417 1_655
Mn8 O2 1.932224 1_565
Mn8 O14 1.932486 1_555
Mn8 O28 1.955163 1_555
Mn8 O16 1.978788 1_555
Mn9 O15 1.923316 1_555
Mn9 O17 1.923819 1_455
Mn9 O3 1.924397 1_565
Mn9 O14 1.926626 1_555
Mn9 O29 1.969485 1_555
Mn9 O16 1.978763 1_555
Mn10 O13 1.912634 1_655
Mn10 O6 1.932867 1_554
Mn10 O12 1.944411 1_555
Mn10 O18 1.952984 1_555
Mn10 O30 1.954877 1_555
Mn10 O19 1.984221 1_555
Mn11 O13 1.916512 1_555
Mn11 O7 1.918972 1_554
Mn11 O12 1.942833 1_555
Mn11 O18 1.958648 1_455
Mn11 O31 1.971646 1_555
Mn11 O19 1.999421 1_555
Mn12 O11 1.918325 1_555
Mn12 O10 1.922372 1_555
Mn12 O0 1.925738 1_556
Mn12 O26 1.955902 1_555
Mn12 O23 1.956592 1_655
Mn12 O22 1.968520 1_555
Mn13 O11 1.917611 1_555
Mn13 O10 1.920141 1_455
Mn13 O1 1.924158 1_556
Mn13 O23 1.956297 1_555
Mn13 O27 1.961828 1_555
Mn13 O22 1.974498 1_555
Mn14 O9 1.920055 1_555
Mn14 O20 1.948763 1_555
Mn14 O8 1.952211 1_655
Mn14 O4 1.962230 1_545
Mn14 O21 2.039556 1_555
Mn14 O24 2.040357 1_555
Mn15 O8 1.914773 1_555
Mn15 O9 1.924547 1_555
Mn15 O5 1.935493 1_545
Mn15 O20 1.957877 1_455
Mn15 O21 1.959566 1_555
Mn15 O25 1.990358 1_555
