# generated using pymatgen
data_Sr2V4Te2H2O17
_symmetry_space_group_name_H-M   'P 1'
_cell_length_a   10.97970169
_cell_length_b   10.97970169
_cell_length_c   16.56086403
_cell_angle_alpha   62.22752914
_cell_angle_beta   62.22752914
_cell_angle_gamma   27.46802310
_symmetry_Int_Tables_number   1
_chemical_formula_structural   Sr2V4Te2H2O17
_chemical_formula_sum   'Sr4 V8 Te4 H4 O34'
_cell_volume   808.02334655
_cell_formula_units_Z   2
loop_
 _symmetry_equiv_pos_site_id
 _symmetry_equiv_pos_as_xyz
  1  'x, y, z'
loop_
 _atom_site_type_symbol
 _atom_site_label
 _atom_site_symmetry_multiplicity
 _atom_site_fract_x
 _atom_site_fract_y
 _atom_site_fract_z
 _atom_site_occupancy
  Sr  Sr0  1  0.37205900  0.66445700  0.11798200  1
  Sr  Sr1  1  0.33554300  0.62794100  0.38201800  1
  Sr  Sr2  1  0.62794100  0.33554300  0.88201800  1
  Sr  Sr3  1  0.66445700  0.37205900  0.61798200  1
  V  V0  1  0.04511300  0.30645600  0.01045200  1
  V  V1  1  0.69354400  0.95488700  0.48954800  1
  V  V2  1  0.95488700  0.69354400  0.98954800  1
  V  V3  1  0.30645600  0.04511300  0.51045200  1
  V  V4  1  0.25519800  0.00091300  0.85855800  1
  V  V5  1  0.99908700  0.74480200  0.64144200  1
  V  V6  1  0.74480200  0.99908700  0.14144200  1
  V  V7  1  0.00091300  0.25519800  0.35855800  1
  Te  Te0  1  0.58932200  0.74767500  0.18473700  1
  Te  Te1  1  0.25232500  0.41067800  0.31526300  1
  Te  Te2  1  0.41067800  0.25232500  0.81526300  1
  Te  Te3  1  0.74767500  0.58932200  0.68473700  1
  H  H0  1  0.84318000  0.07503000  0.26845200  1
  H  H1  1  0.92497000  0.15682000  0.23154800  1
  H  H2  1  0.15682000  0.92497000  0.73154800  1
  H  H3  1  0.07503000  0.84318000  0.76845200  1
  O  O0  1  0.86785400  0.56525300  0.07233000  1
  O  O1  1  0.43474700  0.13214600  0.42767000  1
  O  O2  1  0.13214600  0.43474700  0.92767000  1
  O  O3  1  0.56525300  0.86785400  0.57233000  1
  O  O4  1  0.00111400  0.99888600  0.25000000  1
  O  O5  1  0.99888600  0.00111400  0.75000000  1
  O  O6  1  0.86872200  0.49957400  0.25780100  1
  O  O7  1  0.50042600  0.13127800  0.24219900  1
  O  O8  1  0.13127800  0.50042600  0.74219900  1
  O  O9  1  0.49957400  0.86872200  0.75780100  1
  O  O10  1  0.60651000  0.54537000  0.21862300  1
  O  O11  1  0.45463000  0.39349000  0.28137700  1
  O  O12  1  0.39349000  0.45463000  0.78137700  1
  O  O13  1  0.54537000  0.60651000  0.71862300  1
  O  O14  1  0.77641300  0.44996000  0.02049000  1
  O  O15  1  0.55004000  0.22358700  0.47951000  1
  O  O16  1  0.22358700  0.55004000  0.97951000  1
  O  O17  1  0.44996000  0.77641300  0.52049000  1
  O  O18  1  0.23829800  0.03556400  0.09147500  1
  O  O19  1  0.96443600  0.76170200  0.40852500  1
  O  O20  1  0.76170200  0.96443600  0.90852500  1
  O  O21  1  0.03556400  0.23829800  0.59147500  1
  O  O22  1  0.24266000  0.12559200  0.90776600  1
  O  O23  1  0.87440800  0.75734000  0.59223400  1
  O  O24  1  0.75734000  0.87440800  0.09223400  1
  O  O25  1  0.12559200  0.24266000  0.40776600  1
  O  O26  1  0.33271100  0.77245700  0.93298400  1
  O  O27  1  0.22754300  0.66728900  0.56701600  1
  O  O28  1  0.66728900  0.22754300  0.06701600  1
  O  O29  1  0.77245700  0.33271100  0.43298400  1
  O  O30  1  0.95163800  0.25734900  0.82475000  1
  O  O31  1  0.74265100  0.04836200  0.67525000  1
  O  O32  1  0.04836200  0.74265100  0.17525000  1
  O  O33  1  0.25734900  0.95163800  0.32475000  1
loop_
_geom_bond_atom_site_label_1
_geom_bond_atom_site_label_2
_geom_bond_distance
_geom_bond_site_symmetry_2
H0 O4 0.985374 1_645
H1 O4 0.985374 1_645
H2 O5 0.985374 1_465
H3 O5 0.985374 1_465
O0 V0 1.988331 1_655
O0 Te0 2.032073 1_555
O0 V2 2.035899 1_554
O1 V1 1.988331 1_545
O1 Te1 2.032073 1_555
O1 V3 2.035899 1_555
O2 V2 1.988331 1_455
O2 Te2 2.032073 1_555
O2 V0 2.035899 1_556
O3 V3 1.988331 1_565
O3 Te3 2.032073 1_555
O3 V1 2.035899 1_555
O4 Sr1 2.737839 1_555
O4 Sr0 2.737839 1_555
O5 Sr2 2.737839 1_555
O5 Sr3 2.737839 1_555
O6 V7 1.806698 1_655
O6 Te0 1.963123 1_555
O7 V6 1.806698 1_545
O7 Te1 1.963123 1_555
O8 V5 1.806698 1_455
O8 Te2 1.963123 1_555
O9 V4 1.806698 1_565
O9 Te3 1.963123 1_555
O10 Te0 1.864844 1_555
O10 Sr1 2.644404 1_555
O10 Sr0 2.666203 1_555
O11 Te1 1.864844 1_555
O11 Sr0 2.644404 1_555
O11 Sr1 2.666203 1_555
O12 Te2 1.864844 1_555
O12 Sr3 2.644404 1_555
O12 Sr2 2.666203 1_555
O13 Te3 1.864844 1_555
O13 Sr2 2.644404 1_555
O13 Sr3 2.666203 1_555
O14 V0 1.659009 1_655
O14 Sr0 2.484578 1_555
O15 V1 1.659009 1_545
O15 Sr1 2.484578 1_555
O16 V2 1.659009 1_455
O16 Sr2 2.484578 1_555
O17 V3 1.659009 1_565
O17 Sr3 2.484578 1_555
O18 V0 1.698212 1_555
O18 Te0 2.571093 1_545
O18 Sr0 2.695739 1_545
O19 V1 1.698212 1_555
O19 Te1 2.571093 1_655
O19 Sr1 2.695739 1_655
O20 V2 1.698212 1_555
O20 Te2 2.571093 1_565
O20 Sr2 2.695739 1_565
O21 V3 1.698212 1_555
O21 Te3 2.571093 1_455
O21 Sr3 2.695739 1_455
O22 V4 1.776998 1_555
O22 V0 1.899033 1_556
O23 V5 1.776998 1_555
O23 V1 1.899033 1_555
O24 V6 1.776998 1_555
O24 V2 1.899033 1_554
O25 V7 1.776998 1_555
O25 V3 1.899033 1_555
O26 V4 1.686276 1_565
O26 Sr2 2.803944 1_555
O26 Sr0 2.813886 1_556
O27 V5 1.686276 1_455
O27 Sr3 2.803944 1_555
O27 Sr1 2.813886 1_555
O28 V6 1.686276 1_545
O28 Sr0 2.803944 1_555
O28 Sr2 2.813886 1_554
O29 V7 1.686276 1_655
O29 Sr1 2.803944 1_555
O29 Sr3 2.813886 1_555
O30 V4 1.722494 1_655
O30 Te3 2.480977 1_555
O30 Sr2 2.543814 1_555
O31 V5 1.722494 1_545
O31 Te2 2.480977 1_555
O31 Sr3 2.543814 1_555
O32 V6 1.722494 1_455
O32 Te1 2.480977 1_555
O32 Sr0 2.543814 1_555
O33 V7 1.722494 1_565
O33 Te0 2.480977 1_555
O33 Sr1 2.543814 1_555
