# generated using pymatgen
data_SrCa(CoO3)2
_symmetry_space_group_name_H-M   'P 1'
_cell_length_a   7.65934900
_cell_length_b   7.65934900
_cell_length_c   7.65747900
_cell_angle_alpha   90.00000000
_cell_angle_beta   90.00000000
_cell_angle_gamma   90.00000000
_symmetry_Int_Tables_number   1
_chemical_formula_structural   SrCa(CoO3)2
_chemical_formula_sum   'Sr4 Ca4 Co8 O24'
_cell_volume   449.23080757
_cell_formula_units_Z   4
loop_
 _symmetry_equiv_pos_site_id
 _symmetry_equiv_pos_as_xyz
  1  'x, y, z'
loop_
 _atom_site_type_symbol
 _atom_site_label
 _atom_site_symmetry_multiplicity
 _atom_site_fract_x
 _atom_site_fract_y
 _atom_site_fract_z
 _atom_site_occupancy
  Sr  Sr0  1  0.50000000  0.00000000  0.50000000  1
  Sr  Sr1  1  0.00000000  0.00000000  0.50000000  1
  Sr  Sr2  1  0.00000000  0.50000000  0.50000000  1
  Sr  Sr3  1  0.50000000  0.50000000  0.00000000  1
  Ca  Ca0  1  0.50000000  0.00000000  0.00000000  1
  Ca  Ca1  1  0.00000000  0.00000000  0.00000000  1
  Ca  Ca2  1  0.50000000  0.50000000  0.50000000  1
  Ca  Ca3  1  0.00000000  0.50000000  0.00000000  1
  Co  Co0  1  0.74998800  0.25001200  0.75071400  1
  Co  Co1  1  0.25001200  0.25001200  0.75071400  1
  Co  Co2  1  0.74998800  0.25001200  0.24928600  1
  Co  Co3  1  0.25001200  0.25001200  0.24928600  1
  Co  Co4  1  0.74998800  0.74998800  0.75071400  1
  Co  Co5  1  0.25001200  0.74998800  0.75071400  1
  Co  Co6  1  0.74998800  0.74998800  0.24928600  1
  Co  Co7  1  0.25001200  0.74998800  0.24928600  1
  O  O0  1  0.74998900  0.00000000  0.75279500  1
  O  O1  1  0.25001100  0.00000000  0.75279500  1
  O  O2  1  0.74998900  0.00000000  0.24720500  1
  O  O3  1  0.25001100  0.00000000  0.24720500  1
  O  O4  1  0.74997200  0.50000000  0.75009500  1
  O  O5  1  0.25002800  0.50000000  0.75009500  1
  O  O6  1  0.74997200  0.50000000  0.24990500  1
  O  O7  1  0.25002800  0.50000000  0.24990500  1
  O  O8  1  0.74863000  0.25137000  0.50000000  1
  O  O9  1  0.25137000  0.25137000  0.50000000  1
  O  O10  1  0.75132800  0.24867200  0.00000000  1
  O  O11  1  0.24867200  0.24867200  0.00000000  1
  O  O12  1  0.74863000  0.74863000  0.50000000  1
  O  O13  1  0.25137000  0.74863000  0.50000000  1
  O  O14  1  0.75132800  0.75132800  0.00000000  1
  O  O15  1  0.24867200  0.75132800  0.00000000  1
  O  O16  1  0.50000000  0.25002800  0.75009500  1
  O  O17  1  0.00000000  0.25001100  0.75279500  1
  O  O18  1  0.50000000  0.25002800  0.24990500  1
  O  O19  1  0.00000000  0.25001100  0.24720500  1
  O  O20  1  0.50000000  0.74997200  0.75009500  1
  O  O21  1  0.00000000  0.74998900  0.75279500  1
  O  O22  1  0.50000000  0.74997200  0.24990500  1
  O  O23  1  0.00000000  0.74998900  0.24720500  1
loop_
_geom_bond_atom_site_label_1
_geom_bond_atom_site_label_2
_geom_bond_distance
_geom_bond_site_symmetry_2
Ca0 O1 2.692509 1_554
Ca0 O2 2.692509 1_555
Ca0 O0 2.692509 1_554
Ca0 O3 2.692509 1_555
Ca0 O18 2.707296 1_555
Ca0 O22 2.707296 1_545
Ca0 O16 2.707296 1_554
Ca0 O20 2.707296 1_544
Ca0 O11 2.708027 1_555
Ca0 O10 2.708027 1_555
Ca0 O14 2.708027 1_545
Ca0 O15 2.708027 1_545
Ca1 O1 2.692629 1_554
Ca1 O3 2.692629 1_555
Ca1 O2 2.692629 1_455
Ca1 O17 2.692629 1_554
Ca1 O0 2.692629 1_454
Ca1 O23 2.692629 1_545
Ca1 O19 2.692629 1_555
Ca1 O21 2.692629 1_544
Ca1 O11 2.693604 1_555
Ca1 O15 2.693604 1_545
Ca1 O14 2.693604 1_445
Ca1 O10 2.693604 1_455
Ca2 O8 2.693149 1_555
Ca2 O12 2.693149 1_555
Ca2 O9 2.693149 1_555
Ca2 O13 2.693149 1_555
Ca2 O20 2.708021 1_555
Ca2 O4 2.708021 1_555
Ca2 O5 2.708021 1_555
Ca2 O6 2.708021 1_555
Ca2 O18 2.708021 1_555
Ca2 O22 2.708021 1_555
Ca2 O7 2.708021 1_555
Ca2 O16 2.708021 1_555
Ca3 O23 2.692509 1_555
Ca3 O17 2.692509 1_554
Ca3 O21 2.692509 1_554
Ca3 O19 2.692509 1_555
Ca3 O7 2.707296 1_555
Ca3 O5 2.707296 1_554
Ca3 O6 2.707296 1_455
Ca3 O4 2.707296 1_454
Ca3 O11 2.708027 1_555
Ca3 O15 2.708027 1_555
Ca3 O10 2.708027 1_455
Ca3 O14 2.708027 1_455
Co0 O10 1.908957 1_556
Co0 O4 1.914751 1_555
Co0 O16 1.914751 1_555
Co0 O0 1.914995 1_555
Co0 O17 1.914995 1_655
Co0 O8 1.919894 1_555
Co1 O11 1.908957 1_556
Co1 O5 1.914751 1_555
Co1 O16 1.914751 1_555
Co1 O17 1.914995 1_555
Co1 O1 1.914995 1_555
Co1 O9 1.919894 1_555
Co2 O10 1.908957 1_555
Co2 O18 1.914751 1_555
Co2 O6 1.914751 1_555
Co2 O19 1.914995 1_655
Co2 O2 1.914995 1_555
Co2 O8 1.919894 1_555
Co3 O11 1.908957 1_555
Co3 O18 1.914751 1_555
Co3 O7 1.914751 1_555
Co3 O19 1.914995 1_555
Co3 O3 1.914995 1_555
Co3 O9 1.919894 1_555
Co4 O14 1.908957 1_556
Co4 O20 1.914751 1_555
Co4 O4 1.914751 1_555
Co4 O0 1.914995 1_565
Co4 O21 1.914995 1_655
Co4 O12 1.919894 1_555
Co5 O15 1.908957 1_556
Co5 O5 1.914751 1_555
Co5 O20 1.914751 1_555
Co5 O1 1.914995 1_565
Co5 O21 1.914995 1_555
Co5 O13 1.919894 1_555
Co6 O14 1.908957 1_555
Co6 O6 1.914751 1_555
Co6 O22 1.914751 1_555
Co6 O2 1.914995 1_565
Co6 O23 1.914995 1_655
Co6 O12 1.919894 1_555
Co7 O15 1.908957 1_555
Co7 O7 1.914751 1_555
Co7 O22 1.914751 1_555
Co7 O3 1.914995 1_565
Co7 O23 1.914995 1_555
Co7 O13 1.919894 1_555
O0 Sr0 2.722773 1_555
O0 Sr1 2.722892 1_655
O1 Sr0 2.722773 1_555
O1 Sr1 2.722892 1_555
O2 Sr0 2.722773 1_555
O2 Sr1 2.722892 1_655
O3 Sr0 2.722773 1_555
O3 Sr1 2.722892 1_555
O4 Sr3 2.706992 1_556
O4 Sr2 2.708324 1_655
O5 Sr3 2.706992 1_556
O5 Sr2 2.708324 1_555
O6 Sr3 2.706992 1_555
O6 Sr2 2.708324 1_655
O7 Sr3 2.706992 1_555
O7 Sr2 2.708324 1_555
O8 Sr2 2.708029 1_655
O8 Sr0 2.708029 1_555
O8 Sr1 2.722829 1_655
O9 Sr2 2.708029 1_555
O9 Sr0 2.708029 1_555
O9 Sr1 2.722829 1_555
O10 Sr3 2.722374 1_555
O11 Sr3 2.722374 1_555
O12 Sr0 2.708029 1_565
O12 Sr2 2.708029 1_655
O12 Sr1 2.722829 1_665
O13 Sr0 2.708029 1_565
O13 Sr2 2.708029 1_555
O13 Sr1 2.722829 1_565
O14 Sr3 2.722374 1_555
O15 Sr3 2.722374 1_555
O16 Sr3 2.706992 1_556
O16 Sr0 2.708324 1_555
O17 Sr2 2.722773 1_555
O17 Sr1 2.722892 1_555
O18 Sr3 2.706992 1_555
O18 Sr0 2.708324 1_555
O19 Sr2 2.722773 1_555
O19 Sr1 2.722892 1_555
O20 Sr3 2.706992 1_556
O20 Sr0 2.708324 1_565
O21 Sr2 2.722773 1_555
O21 Sr1 2.722892 1_565
O22 Sr3 2.706992 1_555
O22 Sr0 2.708324 1_565
O23 Sr2 2.722773 1_555
O23 Sr1 2.722892 1_565
