# generated using pymatgen
data_Zr2CuH2
_symmetry_space_group_name_H-M   'P 1'
_cell_length_a   6.32962784
_cell_length_b   6.32962784
_cell_length_c   6.32962784
_cell_angle_alpha   150.17191483
_cell_angle_beta   150.17191483
_cell_angle_gamma   42.68910924
_symmetry_Int_Tables_number   1
_chemical_formula_structural   Zr2CuH2
_chemical_formula_sum   'Zr2 Cu1 H2'
_cell_volume   62.58198189
_cell_formula_units_Z   1
loop_
 _symmetry_equiv_pos_site_id
 _symmetry_equiv_pos_as_xyz
  1  'x, y, z'
loop_
 _atom_site_type_symbol
 _atom_site_label
 _atom_site_symmetry_multiplicity
 _atom_site_fract_x
 _atom_site_fract_y
 _atom_site_fract_z
 _atom_site_occupancy
  Zr  Zr0  1  0.63859900  0.63859900  0.00000000  1
  Zr  Zr1  1  0.36140100  0.36140100  0.00000000  1
  Cu  Cu0  1  0.00000000  0.00000000  0.00000000  1
  H  H0  1  0.75000000  0.25000000  0.50000000  1
  H  H1  1  0.25000000  0.75000000  0.50000000  1
loop_
_geom_bond_atom_site_label_1
_geom_bond_atom_site_label_2
_geom_bond_distance
_geom_bond_site_symmetry_2
Cu0 Zr0 2.824586 1_455
Cu0 Zr0 2.824586 1_556
Cu0 Zr1 2.824586 1_455
Cu0 Zr0 2.824586 1_444
Cu0 Zr1 2.824586 1_545
Cu0 Zr1 2.824586 1_556
Cu0 Zr1 2.824586 1_444
Cu0 Zr0 2.824586 1_545
H0 Zr1 2.092644 1_656
H0 Zr0 2.092644 1_556
H0 Zr0 2.092644 1_545
H0 Zr1 2.092644 1_555
H1 Zr1 2.092644 1_566
H1 Zr1 2.092644 1_555
H1 Zr0 2.092644 1_455
H1 Zr0 2.092644 1_556
