# generated using pymatgen
data_MgTaTi(PO4)3
_symmetry_space_group_name_H-M   'P 1'
_cell_length_a   8.59506338
_cell_length_b   8.59506400
_cell_length_c   8.59506357
_cell_angle_alpha   61.56946107
_cell_angle_beta   61.56946463
_cell_angle_gamma   61.56946982
_symmetry_Int_Tables_number   1
_chemical_formula_structural   MgTaTi(PO4)3
_chemical_formula_sum   'Mg2 Ta2 Ti2 P6 O24'
_cell_volume   464.79572909
_cell_formula_units_Z   2
loop_
 _symmetry_equiv_pos_site_id
 _symmetry_equiv_pos_as_xyz
  1  'x, y, z'
loop_
 _atom_site_type_symbol
 _atom_site_label
 _atom_site_symmetry_multiplicity
 _atom_site_fract_x
 _atom_site_fract_y
 _atom_site_fract_z
 _atom_site_occupancy
  Mg  Mg0  1  0.00406400  0.00406400  0.00406400  1
  Mg  Mg1  1  0.50406400  0.50406400  0.50406400  1
  Ta  Ta0  1  0.35613900  0.35613900  0.35613900  1
  Ta  Ta1  1  0.85613900  0.85613900  0.85613900  1
  Ti  Ti0  1  0.14489600  0.14489600  0.14489600  1
  Ti  Ti1  1  0.64489600  0.64489600  0.64489600  1
  P  P0  1  0.04530100  0.44955000  0.75150400  1
  P  P1  1  0.44955000  0.75150400  0.04530100  1
  P  P2  1  0.75150400  0.04530100  0.44955000  1
  P  P3  1  0.25150400  0.94955000  0.54530100  1
  P  P4  1  0.54530100  0.25150400  0.94955000  1
  P  P5  1  0.94955000  0.54530100  0.25150400  1
  O  O0  1  0.10860400  0.50782100  0.31636600  1
  O  O1  1  0.31636600  0.10860400  0.50782100  1
  O  O2  1  0.05966000  0.25793900  0.90806000  1
  O  O3  1  0.50782100  0.31636600  0.10860400  1
  O  O4  1  0.00782100  0.60860400  0.81636600  1
  O  O5  1  0.24097200  0.43972900  0.59253300  1
  O  O6  1  0.25793900  0.90806000  0.05966000  1
  O  O7  1  0.43972900  0.59253300  0.24097200  1
  O  O8  1  0.18144100  0.99420700  0.39121300  1
  O  O9  1  0.59253300  0.24097200  0.43972900  1
  O  O10  1  0.09253300  0.93972900  0.74097200  1
  O  O11  1  0.39121300  0.18144100  0.99420700  1
  O  O12  1  0.60860400  0.81636600  0.00782100  1
  O  O13  1  0.90806000  0.05966000  0.25793900  1
  O  O14  1  0.40806000  0.75793900  0.55966000  1
  O  O15  1  0.81636600  0.00782100  0.60860400  1
  O  O16  1  0.55966000  0.40806000  0.75793900  1
  O  O17  1  0.74097200  0.09253300  0.93972900  1
  O  O18  1  0.75793900  0.55966000  0.40806000  1
  O  O19  1  0.99420700  0.39121300  0.18144100  1
  O  O20  1  0.49420700  0.68144100  0.89121300  1
  O  O21  1  0.93972900  0.74097200  0.09253300  1
  O  O22  1  0.68144100  0.89121300  0.49420700  1
  O  O23  1  0.89121300  0.49420700  0.68144100  1
loop_
_geom_bond_atom_site_label_1
_geom_bond_atom_site_label_2
_geom_bond_distance
_geom_bond_site_symmetry_2
Mg0 O6 2.138598 1_545
Mg0 O2 2.138598 1_554
Mg0 O13 2.138598 1_455
Mg0 O17 2.269451 1_454
Mg0 O21 2.269451 1_445
Mg0 O10 2.269451 1_544
Mg1 O18 2.138598 1_555
Mg1 O16 2.138598 1_555
Mg1 O14 2.138598 1_555
Mg1 O5 2.269451 1_555
Mg1 O7 2.269451 1_555
Mg1 O9 2.269451 1_555
O0 P5 1.555260 1_455
O0 Ta0 1.992528 1_555
O1 P3 1.555260 1_545
O1 Ta0 1.992528 1_555
O2 P0 1.546823 1_555
O2 Ti0 2.117419 1_556
O3 P4 1.555260 1_554
O3 Ta0 1.992528 1_555
O4 P0 1.555260 1_555
O4 Ta1 1.992529 1_455
O5 P0 1.577691 1_555
O5 Ta0 2.102870 1_555
O6 P1 1.546823 1_555
O6 Ti0 2.117419 1_565
O7 P1 1.577691 1_555
O7 Ta0 2.102870 1_555
O8 P3 1.522917 1_555
O8 Ti0 1.973122 1_565
O9 P2 1.577691 1_555
O9 Ta0 2.102870 1_555
O10 P3 1.577691 1_555
O10 Ta1 2.102870 1_455
O11 P4 1.522917 1_555
O11 Ti0 1.973122 1_556
O12 P1 1.555260 1_555
O12 Ta1 1.992528 1_554
O13 P2 1.546823 1_555
O13 Ti0 2.117419 1_655
O14 P3 1.546823 1_555
O14 Ti1 2.117419 1_555
O15 P2 1.555260 1_555
O15 Ta1 1.992528 1_545
O16 P4 1.546823 1_555
O16 Ti1 2.117419 1_555
O17 P4 1.577691 1_555
O17 Ta1 2.102871 1_545
O18 P5 1.546823 1_555
O18 Ti1 2.117419 1_555
O19 P5 1.522917 1_555
O19 Ti0 1.973122 1_655
O20 P1 1.522917 1_556
O20 Ti1 1.973122 1_555
O21 P5 1.577691 1_555
O21 Ta1 2.102870 1_554
O22 P2 1.522917 1_565
O22 Ti1 1.973122 1_555
O23 P0 1.522917 1_655
O23 Ti1 1.973122 1_555
