# generated using pymatgen
data_Mg2VIrO6
_symmetry_space_group_name_H-M   'P 1'
_cell_length_a   5.27546900
_cell_length_b   5.11526100
_cell_length_c   9.03851202
_cell_angle_alpha   55.72667628
_cell_angle_beta   90.00000000
_cell_angle_gamma   90.00000000
_symmetry_Int_Tables_number   1
_chemical_formula_structural   Mg2VIrO6
_chemical_formula_sum   'Mg4 V2 Ir2 O12'
_cell_volume   201.55584780
_cell_formula_units_Z   2
loop_
 _symmetry_equiv_pos_site_id
 _symmetry_equiv_pos_as_xyz
  1  'x, y, z'
loop_
 _atom_site_type_symbol
 _atom_site_label
 _atom_site_symmetry_multiplicity
 _atom_site_fract_x
 _atom_site_fract_y
 _atom_site_fract_z
 _atom_site_occupancy
  Mg  Mg0  1  0.93776700  0.23854400  0.74998700  1
  Mg  Mg1  1  0.43776700  0.76145600  0.75001300  1
  Mg  Mg2  1  0.56223300  0.23854400  0.24998700  1
  Mg  Mg3  1  0.06223300  0.76145600  0.25001300  1
  V  V0  1  0.50000000  0.00000000  0.00000000  1
  V  V1  1  0.00000000  0.00000000  0.50000000  1
  Ir  Ir0  1  0.50000000  0.50000000  0.50000000  1
  Ir  Ir1  1  0.00000000  0.50000000  0.00000000  1
  O  O0  1  0.44138400  0.62372100  0.24251800  1
  O  O1  1  0.19371300  0.89861700  0.93086700  1
  O  O2  1  0.17727700  0.24243900  0.56600100  1
  O  O3  1  0.67727700  0.75756100  0.93399900  1
  O  O4  1  0.69371300  0.10138300  0.56913300  1
  O  O5  1  0.94138400  0.37627900  0.25748200  1
  O  O6  1  0.05861600  0.62372100  0.74251800  1
  O  O7  1  0.30628700  0.89861700  0.43086700  1
  O  O8  1  0.32272300  0.24243900  0.06600100  1
  O  O9  1  0.80628700  0.10138300  0.06913300  1
  O  O10  1  0.82272300  0.75756100  0.43399900  1
  O  O11  1  0.55861600  0.37627900  0.75748200  1
loop_
_geom_bond_atom_site_label_1
_geom_bond_atom_site_label_2
_geom_bond_distance
_geom_bond_site_symmetry_2
Mg0 O6 2.035487 1_655
Mg0 O1 2.077910 1_645
Mg0 O2 2.079668 1_655
Mg0 O11 2.134370 1_555
Mg0 O3 2.469656 1_545
Mg0 O4 2.472596 1_555
Mg0 O9 2.648557 1_556
Mg0 O10 2.652138 1_555
Mg1 O11 2.035487 1_555
Mg1 O4 2.077910 1_565
Mg1 O3 2.079668 1_555
Mg1 O6 2.134370 1_555
Mg1 O2 2.469656 1_565
Mg1 O1 2.472596 1_555
Mg1 O7 2.648557 1_555
Mg1 O8 2.652138 1_556
Mg2 O0 2.035487 1_555
Mg2 O7 2.077910 1_545
Mg2 O8 2.079668 1_555
Mg2 O5 2.134370 1_555
Mg2 O10 2.469656 1_545
Mg2 O9 2.472596 1_555
Mg2 O4 2.648557 1_555
Mg2 O3 2.652138 1_554
Mg3 O5 2.035487 1_455
Mg3 O9 2.077910 1_465
Mg3 O10 2.079668 1_455
Mg3 O0 2.134370 1_555
Mg3 O8 2.469656 1_565
Mg3 O7 2.472596 1_555
Mg3 O1 2.648557 1_554
Mg3 O2 2.652138 1_555
Ir0 O10 2.026083 1_555
Ir0 O2 2.026083 1_555
Ir0 O4 2.038976 1_555
Ir0 O7 2.038976 1_555
Ir0 O11 2.062382 1_555
Ir0 O0 2.062382 1_555
Ir1 O3 2.026083 1_454
Ir1 O8 2.026083 1_555
Ir1 O1 2.038976 1_554
Ir1 O9 2.038976 1_455
Ir1 O6 2.062382 1_554
Ir1 O5 2.062382 1_455
O0 V0 1.962989 1_565
O1 V0 1.906621 1_566
O2 V1 1.897810 1_555
O3 V0 1.897810 1_566
O4 V1 1.906621 1_655
O5 V1 1.962989 1_655
O6 V1 1.962989 1_565
O7 V1 1.906621 1_565
O8 V0 1.897810 1_555
O9 V0 1.906621 1_555
O10 V1 1.897810 1_665
O11 V0 1.962989 1_556
