# generated using pymatgen
data_EuZrS3
_symmetry_space_group_name_H-M   'P 1'
_cell_length_a   6.56521830
_cell_length_b   7.15394128
_cell_length_c   9.66588170
_cell_angle_alpha   90.00000000
_cell_angle_beta   90.00000000
_cell_angle_gamma   90.00000000
_symmetry_Int_Tables_number   1
_chemical_formula_structural   EuZrS3
_chemical_formula_sum   'Eu4 Zr4 S12'
_cell_volume   453.97926567
_cell_formula_units_Z   4
loop_
 _symmetry_equiv_pos_site_id
 _symmetry_equiv_pos_as_xyz
  1  'x, y, z'
loop_
 _atom_site_type_symbol
 _atom_site_label
 _atom_site_symmetry_multiplicity
 _atom_site_fract_x
 _atom_site_fract_y
 _atom_site_fract_z
 _atom_site_occupancy
  Eu  Eu0  1  0.46464389  0.59697190  0.25000000  1
  Eu  Eu1  1  0.03535611  0.09697190  0.25000000  1
  Eu  Eu2  1  0.53535611  0.40302810  0.75000000  1
  Eu  Eu3  1  0.96464389  0.90302810  0.75000000  1
  Zr  Zr0  1  -0.00000000  0.50000000  0.00000000  1
  Zr  Zr1  1  0.50000000  -0.00000000  0.50000000  1
  Zr  Zr2  1  -0.00000000  0.50000000  0.50000000  1
  Zr  Zr3  1  0.50000000  -0.00000000  0.00000000  1
  S  S0  1  0.88145073  0.47193614  0.25000000  1
  S  S1  1  0.61854927  0.97193614  0.25000000  1
  S  S2  1  0.11854927  0.52806386  0.75000000  1
  S  S3  1  0.38145073  0.02806386  0.75000000  1
  S  S4  1  0.68014653  0.68998052  0.94080596  1
  S  S5  1  0.81985347  0.18998052  0.55919404  1
  S  S6  1  0.31985347  0.31001948  0.44080596  1
  S  S7  1  0.18014653  0.81001948  0.05919404  1
  S  S8  1  0.31985347  0.31001948  0.05919404  1
  S  S9  1  0.18014653  0.81001948  0.44080596  1
  S  S10  1  0.68014653  0.68998052  0.55919404  1
  S  S11  1  0.81985347  0.18998052  0.94080596  1
loop_
_geom_bond_atom_site_label_1
_geom_bond_atom_site_label_2
_geom_bond_distance
_geom_bond_site_symmetry_2
Eu0 S1 2.866463 1_555
Eu0 S0 2.878917 1_555
Eu0 S6 2.918772 1_555
Eu0 S8 2.918772 1_555
Eu0 S7 3.035304 1_555
Eu0 S9 3.035304 1_555
Eu0 S4 3.372888 1_554
Eu0 S10 3.372888 1_555
Eu1 S0 2.866463 1_455
Eu1 S1 2.878917 1_445
Eu1 S7 2.918772 1_545
Eu1 S9 2.918772 1_545
Eu1 S8 3.035304 1_555
Eu1 S6 3.035304 1_555
Eu1 S11 3.372888 1_454
Eu1 S5 3.372888 1_455
Eu2 S3 2.866463 1_555
Eu2 S2 2.878917 1_555
Eu2 S10 2.918772 1_555
Eu2 S4 2.918772 1_555
Eu2 S5 3.035304 1_555
Eu2 S11 3.035304 1_555
Eu2 S8 3.372888 1_556
Eu2 S6 3.372888 1_555
Eu3 S2 2.866463 1_655
Eu3 S3 2.878917 1_665
Eu3 S5 2.918772 1_565
Eu3 S11 2.918772 1_565
Eu3 S10 3.035304 1_555
Eu3 S4 3.035304 1_555
Eu3 S7 3.372888 1_656
Eu3 S9 3.372888 1_655
S0 Zr2 2.546643 1_655
S0 Zr0 2.546643 1_655
S1 Zr3 2.546643 1_565
S1 Zr1 2.546643 1_565
S2 Zr2 2.546643 1_555
S2 Zr0 2.546643 1_556
S3 Zr3 2.546643 1_556
S3 Zr1 2.546643 1_555
S4 Zr0 2.565962 1_656
S4 Zr3 2.577801 1_566
S5 Zr1 2.565962 1_555
S5 Zr2 2.577801 1_655
S6 Zr2 2.565962 1_555
S6 Zr1 2.577801 1_555
S7 Zr3 2.565962 1_565
S7 Zr0 2.577801 1_555
S8 Zr0 2.565962 1_555
S8 Zr3 2.577801 1_555
S9 Zr1 2.565962 1_565
S9 Zr2 2.577801 1_555
S10 Zr2 2.565962 1_655
S10 Zr1 2.577801 1_565
S11 Zr3 2.565962 1_556
S11 Zr0 2.577801 1_656
