# generated using pymatgen
data_La4FeS7
_symmetry_space_group_name_H-M   'P 1'
_cell_length_a   6.95503800
_cell_length_b   9.94806328
_cell_length_c   9.96163689
_cell_angle_alpha   119.83900186
_cell_angle_beta   89.75241975
_cell_angle_gamma   91.16921748
_symmetry_Int_Tables_number   1
_chemical_formula_structural   La4FeS7
_chemical_formula_sum   'La8 Fe2 S14'
_cell_volume   597.72499222
_cell_formula_units_Z   2
loop_
 _symmetry_equiv_pos_site_id
 _symmetry_equiv_pos_as_xyz
  1  'x, y, z'
loop_
 _atom_site_type_symbol
 _atom_site_label
 _atom_site_symmetry_multiplicity
 _atom_site_fract_x
 _atom_site_fract_y
 _atom_site_fract_z
 _atom_site_occupancy
  La  La0  1  0.72906400  0.77330900  0.14721100  1
  La  La1  1  0.72350000  0.37385800  0.22237800  1
  La  La2  1  0.72452200  0.84789300  0.62724700  1
  La  La3  1  0.22367000  0.22045400  0.84804500  1
  La  La4  1  0.22308700  0.62636500  0.77611300  1
  La  La5  1  0.23204700  0.14915400  0.37502700  1
  La  La6  1  0.19046400  0.67109300  0.33019200  1
  La  La7  1  0.69128000  0.34347600  0.66925600  1
  Fe  Fe0  1  0.50543800  0.00492800  0.01045600  1
  Fe  Fe1  1  0.00550200  0.99865400  0.00678400  1
  S  S0  1  0.30377600  0.86693800  0.09800700  1
  S  S1  1  0.31812500  0.22965400  0.13281000  1
  S  S2  1  0.33415400  0.90322800  0.77212900  1
  S  S3  1  0.83060100  0.12899400  0.90407300  1
  S  S4  1  0.82688400  0.76174900  0.86301500  1
  S  S5  1  0.79754600  0.09316800  0.22442100  1
  S  S6  1  0.97107800  0.92879800  0.43778100  1
  S  S7  1  0.96924500  0.50988600  0.06917300  1
  S  S8  1  0.97092700  0.56267300  0.48690100  1
  S  S9  1  0.47344700  0.07643800  0.56395600  1
  S  S10  1  0.46874700  0.49175500  0.92812200  1
  S  S11  1  0.46995300  0.44238700  0.51093900  1
  S  S12  1  0.57634400  0.66586900  0.33244100  1
  S  S13  1  0.07660000  0.32928000  0.66352300  1
loop_
_geom_bond_atom_site_label_1
_geom_bond_atom_site_label_2
_geom_bond_distance
_geom_bond_site_symmetry_2
La0 S12 2.752205 1_555
La0 S4 2.855440 1_554
La0 S7 2.898662 1_555
La0 S5 2.906762 1_565
La0 S6 3.014069 1_555
La0 S10 3.103281 1_554
La0 S0 3.230515 1_555
La1 S12 2.762329 1_555
La1 S5 2.859724 1_555
La1 S8 2.900862 1_555
La1 S3 2.984986 1_554
La1 S7 3.003313 1_555
La1 S1 3.063656 1_555
La1 S11 3.145243 1_555
La2 S12 2.761091 1_555
La2 S3 2.868496 1_565
La2 S6 2.928815 1_555
La2 S4 2.966407 1_555
La2 S2 2.998984 1_555
La2 S8 3.028617 1_555
La2 S9 3.195939 1_565
La3 S13 2.763841 1_555
La3 S1 2.870932 1_556
La3 S10 2.916753 1_555
La3 S2 2.973276 1_545
La3 S3 3.000616 1_455
La3 S9 3.017230 1_555
La3 S7 3.183790 1_456
La4 S13 2.760226 1_555
La4 S2 2.864589 1_555
La4 S11 2.924636 1_555
La4 S0 2.940873 1_556
La4 S4 3.021140 1_455
La4 S10 3.023083 1_555
La4 S8 3.155832 1_455
La5 S13 2.750745 1_555
La5 S0 2.842830 1_545
La5 S9 2.883731 1_555
La5 S1 2.951698 1_555
La5 S11 2.995417 1_555
La5 S6 3.111602 1_445
La5 S5 3.291250 1_455
La6 S12 2.685779 1_555
La6 S6 2.731389 1_455
La6 S7 2.735745 1_455
La6 S8 2.742150 1_455
La7 S13 2.685377 1_655
La7 S11 2.729845 1_555
La7 S10 2.737615 1_555
La7 S9 2.743936 1_555
La7 S4 3.713795 1_555
Fe0 S1 2.360978 1_555
Fe0 S2 2.379963 1_544
Fe0 S0 2.390500 1_545
Fe0 S5 2.746604 1_555
Fe0 S3 2.987943 1_554
Fe0 S4 3.108744 1_544
Fe1 S3 2.367107 1_464
Fe1 S5 2.382465 1_465
Fe1 S4 2.384478 1_454
Fe1 S0 2.856302 1_555
Fe1 S1 2.921176 1_565
Fe1 S2 3.069898 1_554
