# generated using pymatgen
data_CaV4O8
_symmetry_space_group_name_H-M   'P 1'
_cell_length_a   7.25362772
_cell_length_b   7.25362772
_cell_length_c   9.66399745
_cell_angle_alpha   48.97988056
_cell_angle_beta   48.97988056
_cell_angle_gamma   24.72116627
_symmetry_Int_Tables_number   1
_chemical_formula_structural   CaV4O8
_chemical_formula_sum   'Ca1 V4 O8'
_cell_volume   157.49365025
_cell_formula_units_Z   1
loop_
 _symmetry_equiv_pos_site_id
 _symmetry_equiv_pos_as_xyz
  1  'x, y, z'
loop_
 _atom_site_type_symbol
 _atom_site_label
 _atom_site_symmetry_multiplicity
 _atom_site_fract_x
 _atom_site_fract_y
 _atom_site_fract_z
 _atom_site_occupancy
  Ca  Ca0  1  0.61604700  0.61604700  0.89678300  1
  V  V0  1  0.36074200  0.36074200  0.82372800  1
  V  V1  1  0.85420600  0.85420600  0.48997700  1
  V  V2  1  0.15831600  0.15831600  0.50773800  1
  V  V3  1  0.65381900  0.65381900  0.19028100  1
  O  O0  1  0.15024400  0.15024400  0.31923200  1
  O  O1  1  0.53351800  0.53351800  0.66712900  1
  O  O2  1  0.46357100  0.46357100  0.35849400  1
  O  O3  1  0.84767700  0.84767700  0.69814200  1
  O  O4  1  0.84084600  0.84084600  0.96917200  1
  O  O5  1  0.21299300  0.21299300  0.65835800  1
  O  O6  1  0.16419900  0.16419900  0.01859200  1
  O  O7  1  0.78895700  0.78895700  0.37973000  1
loop_
_geom_bond_atom_site_label_1
_geom_bond_atom_site_label_2
_geom_bond_distance
_geom_bond_site_symmetry_2
Ca0 O6 2.311216 1_566
Ca0 O6 2.311216 1_656
Ca0 O5 2.313800 1_565
Ca0 O5 2.313800 1_655
Ca0 O3 2.447844 1_555
O0 V2 1.900468 1_555
O0 V3 1.970200 1_455
O0 V3 1.970200 1_545
O1 V0 1.818170 1_555
O1 V2 2.061704 1_565
O1 V2 2.061704 1_655
O2 V1 1.944519 1_545
O2 V1 1.944519 1_455
O2 V3 2.005401 1_555
O3 V1 1.950744 1_555
O3 V0 2.054312 1_565
O3 V0 2.054312 1_655
O4 V0 1.983323 1_565
O4 V0 1.983323 1_655
O4 V3 1.994992 1_556
O5 V2 2.057833 1_555
O5 V1 2.165081 1_455
O5 V1 2.165081 1_545
O6 V0 2.062877 1_554
O6 V3 2.203999 1_455
O6 V3 2.203999 1_545
O7 V1 1.820418 1_555
O7 V2 2.071501 1_655
O7 V2 2.071501 1_565
