# generated using pymatgen
data_V4Fe2HO12
_symmetry_space_group_name_H-M   'P 1'
_cell_length_a   5.00194766
_cell_length_b   8.99326100
_cell_length_c   9.78327306
_cell_angle_alpha   90.00000000
_cell_angle_beta   91.08030490
_cell_angle_gamma   90.00000000
_symmetry_Int_Tables_number   1
_chemical_formula_structural   V4Fe2HO12
_chemical_formula_sum   'V8 Fe4 H2 O24'
_cell_volume   440.01077700
_cell_formula_units_Z   2
loop_
 _symmetry_equiv_pos_site_id
 _symmetry_equiv_pos_as_xyz
  1  'x, y, z'
loop_
 _atom_site_type_symbol
 _atom_site_label
 _atom_site_symmetry_multiplicity
 _atom_site_fract_x
 _atom_site_fract_y
 _atom_site_fract_z
 _atom_site_occupancy
  V  V0  1  0.85794800  0.91412800  0.44524300  1
  V  V1  1  0.64205200  0.41412800  0.55475700  1
  V  V2  1  0.35814300  0.08534200  0.05422100  1
  V  V3  1  0.14185700  0.58534200  0.94577900  1
  V  V4  1  0.12389700  0.25358600  0.34313700  1
  V  V5  1  0.37610300  0.75358600  0.65686300  1
  V  V6  1  0.65771100  0.74120200  0.14701500  1
  V  V7  1  0.84228900  0.24120200  0.85298500  1
  Fe  Fe0  1  0.15785200  0.58580600  0.36747000  1
  Fe  Fe1  1  0.34214800  0.08580600  0.63252900  1
  Fe  Fe2  1  0.63977400  0.40599500  0.13923900  1
  Fe  Fe3  1  0.86022600  0.90599500  0.86076100  1
  H  H0  1  0.20858000  0.82935500  0.24245100  1
  H  H1  1  0.29142000  0.32935500  0.75754900  1
  O  O0  1  0.18267200  0.91916500  0.72299100  1
  O  O1  1  0.31732800  0.41916500  0.27700900  1
  O  O2  1  0.68029000  0.10122200  0.75900300  1
  O  O3  1  0.81971000  0.60122200  0.24099700  1
  O  O4  1  0.03617600  0.75477000  0.49473400  1
  O  O5  1  0.46382400  0.25477000  0.50526600  1
  O  O6  1  0.53953000  0.23899800  0.99354400  1
  O  O7  1  0.96047000  0.73899800  0.00645600  1
  O  O8  1  0.16945200  0.24505000  0.74411300  1
  O  O9  1  0.33054800  0.74505000  0.25588700  1
  O  O10  1  0.66100000  0.75187500  0.75067900  1
  O  O11  1  0.83900000  0.25187500  0.24932100  1
  O  O12  1  0.18509900  0.60977900  0.77490100  1
  O  O13  1  0.31490100  0.10977900  0.22509900  1
  O  O14  1  0.67675500  0.39472000  0.72878900  1
  O  O15  1  0.82324500  0.89472000  0.27121100  1
  O  O16  1  0.95510400  0.41867300  0.47221200  1
  O  O17  1  0.54489600  0.91867300  0.52778800  1
  O  O18  1  0.46170400  0.58654500  0.02824900  1
  O  O19  1  0.03829600  0.08654500  0.97175100  1
  O  O20  1  0.04497900  0.07849200  0.47814400  1
  O  O21  1  0.45502100  0.57849200  0.52185600  1
  O  O22  1  0.52742800  0.91529700  0.02893600  1
  O  O23  1  0.97257200  0.41529700  0.97106400  1
loop_
_geom_bond_atom_site_label_1
_geom_bond_atom_site_label_2
_geom_bond_distance
_geom_bond_site_symmetry_2
Fe0 O1 1.921485 1_555
Fe0 O9 2.006092 1_555
Fe0 O4 2.063529 1_555
Fe0 O3 2.081345 1_455
Fe0 O16 2.092111 1_455
Fe0 O21 2.100103 1_555
Fe1 O0 1.921489 1_545
Fe1 O8 2.006097 1_555
Fe1 O5 2.063523 1_555
Fe1 O2 2.081351 1_555
Fe1 O17 2.092106 1_545
Fe1 O20 2.100097 1_555
Fe2 O11 2.008367 1_555
Fe2 O6 2.124077 1_554
Fe2 O1 2.124615 1_555
Fe2 O18 2.138327 1_555
Fe2 O3 2.202253 1_555
Fe2 O23 2.363961 1_554
Fe3 O10 2.008367 1_555
Fe3 O7 2.124077 1_556
Fe3 O0 2.124615 1_655
Fe3 O19 2.138327 1_665
Fe3 O2 2.202253 1_565
Fe3 O22 2.363961 1_556
H0 O9 0.980450 1_555
H1 O8 0.980450 1_555
O0 V5 1.896224 1_555
O1 V4 1.896224 1_555
O2 V7 1.748906 1_555
O3 V6 1.748906 1_555
O4 V0 1.751234 1_455
O4 V5 2.303325 1_555
O5 V1 1.751234 1_555
O5 V4 2.303325 1_555
O6 V2 1.762222 1_556
O6 V7 2.064765 1_555
O7 V3 1.762222 1_654
O7 V6 2.064765 1_555
O8 V7 1.969616 1_455
O9 V6 1.969616 1_555
O10 V5 1.680495 1_555
O11 V4 1.680495 1_655
O12 V3 1.703952 1_555
O12 V5 1.990111 1_555
O13 V2 1.703952 1_555
O13 V4 1.990111 1_555
O14 V1 1.717063 1_555
O14 V7 2.007511 1_555
O15 V0 1.717063 1_555
O15 V6 2.007511 1_555
O16 V1 1.775797 1_555
O16 V4 2.133514 1_655
O17 V0 1.775797 1_555
O17 V5 2.133514 1_555
O18 V3 1.778190 1_554
O18 V6 2.050083 1_555
O19 V2 1.778190 1_556
O19 V7 2.050083 1_455
O20 V0 1.775508 1_445
O20 V4 2.097521 1_555
O21 V1 1.775508 1_555
O21 V5 2.097521 1_555
O22 V2 1.767687 1_565
O22 V6 2.045026 1_555
O23 V3 1.767687 1_655
O23 V7 2.045026 1_555
