# generated using pymatgen
data_LiVOF3
_symmetry_space_group_name_H-M   'P 1'
_cell_length_a   5.85539997
_cell_length_b   7.35395446
_cell_length_c   8.03601909
_cell_angle_alpha   81.03106454
_cell_angle_beta   70.57981046
_cell_angle_gamma   65.81998672
_symmetry_Int_Tables_number   1
_chemical_formula_structural   LiVOF3
_chemical_formula_sum   'Li4 V4 O4 F12'
_cell_volume   297.63560424
_cell_formula_units_Z   4
loop_
 _symmetry_equiv_pos_site_id
 _symmetry_equiv_pos_as_xyz
  1  'x, y, z'
loop_
 _atom_site_type_symbol
 _atom_site_label
 _atom_site_symmetry_multiplicity
 _atom_site_fract_x
 _atom_site_fract_y
 _atom_site_fract_z
 _atom_site_occupancy
  Li  Li0  1  0.44717600  0.61643900  0.21067600  1
  Li  Li1  1  0.94735600  0.11633700  0.71021400  1
  Li  Li2  1  0.52813100  0.12796600  0.54498000  1
  Li  Li3  1  0.02868700  0.62795500  0.04508800  1
  V  V0  1  0.50042200  0.86703500  0.88377400  1
  V  V1  1  0.00006900  0.36722100  0.38376500  1
  V  V2  1  0.00891800  0.64369500  0.62324600  1
  V  V3  1  0.50845600  0.14367100  0.12317700  1
  O  O0  1  0.63153800  0.85667100  0.05467800  1
  O  O1  1  0.13161300  0.35658000  0.55461500  1
  O  O2  1  0.80224400  0.89333500  0.68657000  1
  O  O3  1  0.30185000  0.39347100  0.18657700  1
  F  F0  1  0.29346700  0.67526400  0.45074800  1
  F  F1  1  0.79281800  0.17511500  0.95042200  1
  F  F2  1  0.17144400  0.56722700  0.80040100  1
  F  F3  1  0.67091400  0.06762500  0.30032600  1
  F  F4  1  0.69272500  0.59511000  0.80631400  1
  F  F5  1  0.19211300  0.09519800  0.30636800  1
  F  F6  1  0.84623400  0.65843300  0.43472800  1
  F  F7  1  0.34564900  0.15823100  0.93462700  1
  F  F8  1  0.23206800  0.78129400  0.04379200  1
  F  F9  1  0.73146000  0.28168400  0.54383900  1
  F  F10  1  0.31304700  0.96684900  0.71042200  1
  F  F11  1  0.81273000  0.46759700  0.21065400  1
loop_
_geom_bond_atom_site_label_1
_geom_bond_atom_site_label_2
_geom_bond_distance
_geom_bond_site_symmetry_2
Li0 O3 2.191310 1_555
Li0 O0 2.414504 1_555
Li1 O2 2.189414 1_545
Li1 O1 2.413398 1_655
Li2 O1 2.224061 1_555
Li2 O2 2.276303 1_545
Li3 O0 2.227053 1_455
Li3 O3 2.272264 1_555
O0 V0 1.761253 1_554
O0 V3 2.032073 1_565
O1 V1 1.762031 1_555
O1 V2 2.033565 1_555
O2 V2 1.776378 1_655
O2 V0 1.998532 1_555
O3 V3 1.777389 1_555
O3 V1 1.998188 1_555
F0 V2 1.852610 1_555
F0 Li0 1.872351 1_555
F1 V3 1.852385 1_556
F1 Li1 1.873491 1_555
F2 V2 1.860504 1_555
F2 Li3 1.907756 1_556
F3 V3 1.860290 1_555
F3 Li2 1.906901 1_555
F4 V0 1.931751 1_555
F4 V2 2.070388 1_655
F5 V1 1.932137 1_555
F5 V3 2.071057 1_555
F6 V1 2.003307 1_655
F6 V2 2.009490 1_655
F7 V0 2.002703 1_545
F7 V3 2.010566 1_556
F8 V0 1.932710 1_554
F8 Li3 1.943730 1_555
F8 Li0 2.054292 1_555
F9 V1 1.933115 1_655
F9 Li2 1.946146 1_555
F9 Li1 2.054745 1_555
F10 V0 1.928979 1_555
F10 Li1 1.966462 1_465
F10 Li2 2.091733 1_565
F11 V1 1.927341 1_655
F11 Li0 1.964731 1_555
F11 Li3 2.091285 1_655
