# generated using pymatgen
data_SmNi3
_symmetry_space_group_name_H-M   'P 1'
_cell_length_a   4.96578458
_cell_length_b   4.96580020
_cell_length_c   8.59821903
_cell_angle_alpha   73.24079563
_cell_angle_beta   73.24069917
_cell_angle_gamma   60.02766322
_symmetry_Int_Tables_number   1
_chemical_formula_structural   SmNi3
_chemical_formula_sum   'Sm3 Ni9'
_cell_volume   173.18663177
_cell_formula_units_Z   3
loop_
 _symmetry_equiv_pos_site_id
 _symmetry_equiv_pos_as_xyz
  1  'x, y, z'
loop_
 _atom_site_type_symbol
 _atom_site_label
 _atom_site_symmetry_multiplicity
 _atom_site_fract_x
 _atom_site_fract_y
 _atom_site_fract_z
 _atom_site_occupancy
  Sm  Sm0  1  0.13891974  0.13891974  0.58386359  1
  Sm  Sm1  1  0.86108026  0.86108026  0.41613641  1
  Sm  Sm2  1  0.00000000  0.00000000  -0.00000000  1
  Ni  Ni0  1  0.08085543  0.58144370  0.75780250  1
  Ni  Ni1  1  0.58134620  0.58134620  0.75767392  1
  Ni  Ni2  1  0.58144370  0.08085543  0.75780150  1
  Ni  Ni3  1  0.91914457  0.41855630  0.24219650  1
  Ni  Ni4  1  0.41865380  0.41865380  0.24232508  1
  Ni  Ni5  1  0.41855630  0.91914457  0.24219750  1
  Ni  Ni6  1  0.33321506  0.33321606  0.00076213  1
  Ni  Ni7  1  0.66678494  0.66678394  0.99923787  1
  Ni  Ni8  1  0.50000000  0.50000000  0.50000000  1
loop_
_geom_bond_atom_site_label_1
_geom_bond_atom_site_label_2
_geom_bond_distance
_geom_bond_site_symmetry_2
Ni0 Ni7 2.427338 1_455
Ni0 Ni6 2.436217 1_556
Ni0 Ni2 2.481012 1_465
Ni0 Ni1 2.481016 1_455
Ni0 Ni1 2.484769 1_555
Ni0 Ni2 2.486857 1_555
Ni0 Ni8 2.534644 1_555
Ni0 Sm0 2.853877 1_565
Ni0 Sm0 2.856981 1_555
Ni0 Sm1 3.119567 1_455
Ni0 Sm2 3.161966 1_566
Ni0 Sm2 3.169090 1_556
Ni1 Ni7 2.422864 1_555
Ni1 Ni6 2.439589 1_556
Ni1 Ni2 2.481022 1_565
Ni1 Ni2 2.484779 1_555
Ni1 Ni8 2.535792 1_555
Ni1 Sm0 2.855812 1_655
Ni1 Sm0 2.855817 1_565
Ni1 Sm1 3.115424 1_555
Ni1 Sm2 3.166986 1_566
Ni1 Sm2 3.166993 1_656
Ni2 Ni7 2.427353 1_545
Ni2 Ni6 2.436225 1_556
Ni2 Ni8 2.534645 1_555
Ni2 Sm0 2.853866 1_655
Ni2 Sm0 2.856970 1_555
Ni2 Sm1 3.119557 1_545
Ni2 Sm2 3.161970 1_656
Ni2 Sm2 3.169083 1_556
Ni3 Ni6 2.427332 1_655
Ni3 Ni7 2.436209 1_554
Ni3 Ni5 2.481012 1_645
Ni3 Ni4 2.481016 1_655
Ni3 Ni4 2.484769 1_555
Ni3 Ni5 2.486857 1_555
Ni3 Ni8 2.534650 1_555
Ni3 Sm1 2.853879 1_545
Ni3 Sm1 2.856987 1_555
Ni3 Sm0 3.119575 1_655
Ni3 Sm2 3.161959 1_655
Ni3 Sm2 3.169087 1_665
Ni4 Ni6 2.422855 1_555
Ni4 Ni7 2.439585 1_554
Ni4 Ni5 2.481022 1_545
Ni4 Ni5 2.484779 1_555
Ni4 Ni8 2.535801 1_555
Ni4 Sm1 2.855816 1_455
Ni4 Sm1 2.855821 1_545
Ni4 Sm0 3.115430 1_555
Ni4 Sm2 3.166981 1_655
Ni4 Sm2 3.166988 1_565
Ni5 Ni6 2.427347 1_565
Ni5 Ni7 2.436218 1_554
Ni5 Ni8 2.534651 1_555
Ni5 Sm1 2.853867 1_455
Ni5 Sm1 2.856976 1_555
Ni5 Sm0 3.119565 1_565
Ni5 Sm2 3.161963 1_565
Ni5 Sm2 3.169080 1_665
Ni6 Sm2 2.867221 1_655
Ni6 Sm2 2.867226 1_565
Ni6 Sm2 2.867778 1_555
Ni7 Sm2 2.867221 1_566
Ni7 Sm2 2.867226 1_656
Ni7 Sm2 2.867778 1_666
Ni8 Sm0 2.944669 1_555
Ni8 Sm1 2.944669 1_555
Ni8 Sm0 2.948028 1_655
Ni8 Sm1 2.948028 1_455
Ni8 Sm1 2.948035 1_545
Ni8 Sm0 2.948035 1_565
