# generated using pymatgen
data_YbH3CN3
_symmetry_space_group_name_H-M   'P 1'
_cell_length_a   5.21032851
_cell_length_b   5.21032851
_cell_length_c   6.55975600
_cell_angle_alpha   90.00000000
_cell_angle_beta   90.00000000
_cell_angle_gamma   120.00000649
_symmetry_Int_Tables_number   1
_chemical_formula_structural   YbH3CN3
_chemical_formula_sum   'Yb2 H6 C2 N6'
_cell_volume   154.22277082
_cell_formula_units_Z   2
loop_
 _symmetry_equiv_pos_site_id
 _symmetry_equiv_pos_as_xyz
  1  'x, y, z'
loop_
 _atom_site_type_symbol
 _atom_site_label
 _atom_site_symmetry_multiplicity
 _atom_site_fract_x
 _atom_site_fract_y
 _atom_site_fract_z
 _atom_site_occupancy
  Yb  Yb0  1  0.00000000  0.00000000  0.50000000  1
  Yb  Yb1  1  0.00000000  0.00000000  0.00000000  1
  H  H0  1  0.09139200  0.56307500  0.75000000  1
  H  H1  1  0.43692500  0.52831800  0.75000000  1
  H  H2  1  0.47168200  0.90860800  0.75000000  1
  H  H3  1  0.90860800  0.43692500  0.25000000  1
  H  H4  1  0.56307500  0.47168200  0.25000000  1
  H  H5  1  0.52831800  0.09139200  0.25000000  1
  C  C0  1  0.66666700  0.33333300  0.75000000  1
  C  C1  1  0.33333300  0.66666700  0.25000000  1
  N  N0  1  0.91885000  0.60367800  0.75000000  1
  N  N1  1  0.39632200  0.31517300  0.75000000  1
  N  N2  1  0.68482700  0.08115000  0.75000000  1
  N  N3  1  0.08115000  0.39632200  0.25000000  1
  N  N4  1  0.60367800  0.68482700  0.25000000  1
  N  N5  1  0.31517300  0.91885000  0.25000000  1
loop_
_geom_bond_atom_site_label_1
_geom_bond_atom_site_label_2
_geom_bond_distance
_geom_bond_site_symmetry_2
H0 N0 1.021345 1_455
H1 N1 1.021345 1_555
H2 N2 1.021345 1_565
H3 N3 1.021345 1_655
H4 N4 1.021345 1_555
H5 N5 1.021345 1_545
C0 N2 1.363730 1_555
C0 N0 1.363736 1_555
C0 N1 1.363741 1_555
C1 N5 1.363730 1_555
C1 N3 1.363736 1_555
C1 N4 1.363741 1_555
N0 Yb1 2.501832 1_666
N0 Yb0 2.501832 1_665
N1 Yb1 2.501833 1_556
N1 Yb0 2.501833 1_555
N2 Yb1 2.501835 1_656
N2 Yb0 2.501835 1_655
N3 Yb0 2.501832 1_555
N3 Yb1 2.501832 1_555
N4 Yb0 2.501833 1_665
N4 Yb1 2.501833 1_665
N5 Yb1 2.501835 1_565
N5 Yb0 2.501835 1_565
