# generated using pymatgen
data_Na4Al3Si3ClO12
_symmetry_space_group_name_H-M   'P 1'
_cell_length_a   7.78827724
_cell_length_b   7.78827724
_cell_length_c   8.96349610
_cell_angle_alpha   54.83512881
_cell_angle_beta   54.83512881
_cell_angle_gamma   70.49099631
_symmetry_Int_Tables_number   1
_chemical_formula_structural   Na4Al3Si3ClO12
_chemical_formula_sum   'Na4 Al3 Si3 Cl1 O12'
_cell_volume   363.35515954
_cell_formula_units_Z   1
loop_
 _symmetry_equiv_pos_site_id
 _symmetry_equiv_pos_as_xyz
  1  'x, y, z'
loop_
 _atom_site_type_symbol
 _atom_site_label
 _atom_site_symmetry_multiplicity
 _atom_site_fract_x
 _atom_site_fract_y
 _atom_site_fract_z
 _atom_site_occupancy
  Na  Na0  1  0.64517700  0.00303600  0.35834000  1
  Na  Na1  1  0.36136700  0.00224400  0.99133100  1
  Na  Na2  1  0.99775600  0.63863300  0.00866900  1
  Na  Na3  1  0.99696400  0.35482300  0.64166000  1
  Al  Al0  1  0.74809600  0.25190400  0.50000000  1
  Al  Al1  1  0.25072700  0.25217800  0.25296300  1
  Al  Al2  1  0.74782200  0.74927300  0.74703700  1
  Si  Si0  1  0.49624400  0.49441300  0.75332900  1
  Si  Si1  1  0.25359200  0.74640800  0.50000000  1
  Si  Si2  1  0.50558700  0.50375600  0.24667100  1
  Cl  Cl0  1  0.99920200  0.00079800  0.00000000  1
  O  O0  1  0.69947500  0.00099400  0.58384100  1
  O  O1  1  0.42386000  0.30391700  0.29071400  1
  O  O2  1  0.41499300  0.69551200  0.58631500  1
  O  O3  1  0.29884100  0.98671500  0.30459100  1
  O  O4  1  0.57841100  0.70214700  0.00882600  1
  O  O5  1  0.56725600  0.29608500  0.71538200  1
  O  O6  1  0.01328500  0.70115900  0.69540900  1
  O  O7  1  0.29785300  0.42158900  0.99117400  1
  O  O8  1  0.70391500  0.43274400  0.28461800  1
  O  O9  1  0.99900600  0.30052500  0.41615900  1
  O  O10  1  0.69608300  0.57614000  0.70928600  1
  O  O11  1  0.30448800  0.58500700  0.41368500  1
loop_
_geom_bond_atom_site_label_1
_geom_bond_atom_site_label_2
_geom_bond_distance
_geom_bond_site_symmetry_2
Na0 O0 2.282041 1_555
Na0 O1 2.387321 1_555
Na0 O2 2.477231 1_545
Na1 O5 2.299753 1_555
Na1 O4 2.364120 1_546
Na1 O3 2.491836 1_546
Na2 O8 2.299753 1_555
Na2 O7 2.364120 1_654
Na2 O6 2.491836 1_654
Na3 O9 2.282041 1_555
Na3 O10 2.387321 1_555
Na3 O11 2.477231 1_655
Al0 O9 1.732557 1_555
Al0 O0 1.732557 1_555
Al0 O5 1.771633 1_555
Al0 O8 1.771633 1_555
Al1 O9 1.721377 1_455
Al1 O1 1.772178 1_555
Al1 O7 1.773978 1_554
Al1 O3 1.791464 1_545
Al2 O0 1.721377 1_565
Al2 O10 1.772178 1_555
Al2 O4 1.773978 1_556
Al2 O6 1.791464 1_655
Cl0 Na1 2.780275 1_654
Cl0 Na2 2.780275 1_545
Cl0 Na0 2.784019 1_555
Cl0 Na3 2.784019 1_554
O1 Si2 1.627229 1_555
O2 Si1 1.664342 1_555
O2 Si0 1.680194 1_555
O3 Si1 1.627407 1_555
O4 Si2 1.628614 1_555
O5 Si0 1.620300 1_555
O6 Si1 1.627407 1_555
O7 Si0 1.628614 1_555
O8 Si2 1.620300 1_555
O10 Si0 1.627229 1_555
O11 Si1 1.664342 1_555
O11 Si2 1.680194 1_555
