# generated using pymatgen
data_NaCeTiNbO6F
_symmetry_space_group_name_H-M   'P 1'
_cell_length_a   7.38236541
_cell_length_b   7.38236541
_cell_length_c   7.38236541
_cell_angle_alpha   121.18234068
_cell_angle_beta   117.93161345
_cell_angle_gamma   90.79181171
_symmetry_Int_Tables_number   1
_chemical_formula_structural   NaCeTiNbO6F
_chemical_formula_sum   'Na2 Ce2 Ti2 Nb2 O12 F2'
_cell_volume   286.08518122
_cell_formula_units_Z   2
loop_
 _symmetry_equiv_pos_site_id
 _symmetry_equiv_pos_as_xyz
  1  'x, y, z'
loop_
 _atom_site_type_symbol
 _atom_site_label
 _atom_site_symmetry_multiplicity
 _atom_site_fract_x
 _atom_site_fract_y
 _atom_site_fract_z
 _atom_site_occupancy
  Na  Na0  1  0.50000000  0.00000000  0.00000000  1
  Na  Na1  1  0.50000000  0.50000000  0.50000000  1
  Ce  Ce0  1  0.50000000  0.00000000  0.50000000  1
  Ce  Ce1  1  0.00000000  0.00000000  0.00000000  1
  Ti  Ti0  1  0.00000000  0.50000000  0.00000000  1
  Ti  Ti1  1  0.00000000  0.00000000  0.50000000  1
  Nb  Nb0  1  0.00000000  0.50000000  0.50000000  1
  Nb  Nb1  1  0.50000000  0.50000000  0.00000000  1
  O  O0  1  0.92161900  0.17161900  0.75000000  1
  O  O1  1  0.31596500  0.56596500  0.75000000  1
  O  O2  1  0.93685300  0.58367500  0.76574300  1
  O  O3  1  0.31793200  0.17111000  0.73425700  1
  O  O4  1  0.93685300  0.17111000  0.35317800  1
  O  O5  1  0.31793200  0.58367500  0.14682200  1
  O  O6  1  0.07838100  0.82838100  0.25000000  1
  O  O7  1  0.68403500  0.43403500  0.25000000  1
  O  O8  1  0.06314700  0.41632500  0.23425700  1
  O  O9  1  0.68206800  0.82889000  0.26574300  1
  O  O10  1  0.06314700  0.82889000  0.64682200  1
  O  O11  1  0.68206800  0.41632500  0.85317800  1
  F  F0  1  0.62034500  0.87034500  0.75000000  1
  F  F1  1  0.37965500  0.12965500  0.25000000  1
loop_
_geom_bond_atom_site_label_1
_geom_bond_atom_site_label_2
_geom_bond_distance
_geom_bond_site_symmetry_2
Na0 O7 2.631699 1_555
Na0 O1 2.631699 1_544
Na0 O4 2.719150 1_555
Na0 O10 2.719150 1_544
Na0 O9 2.719150 1_545
Na0 O3 2.719150 1_554
Na1 O7 2.631699 1_555
Na1 O1 2.631699 1_555
Na1 O2 2.719150 1_555
Na1 O8 2.719150 1_555
Na1 O11 2.719150 1_555
Na1 O5 2.719150 1_555
Ce0 F1 2.329883 1_555
Ce0 F0 2.329883 1_545
Ce0 O3 2.520985 1_555
Ce0 O9 2.520985 1_545
Ce0 O11 2.520985 1_555
Ce0 O5 2.520985 1_545
Ce0 O0 2.605253 1_555
Ce0 O6 2.605253 1_545
Ce1 F1 2.329883 1_555
Ce1 F0 2.329883 1_444
Ce1 O8 2.520985 1_555
Ce1 O10 2.520985 1_544
Ce1 O4 2.520985 1_455
Ce1 O2 2.520985 1_444
Ce1 O0 2.605253 1_454
Ce1 O6 2.605253 1_545
Nb0 O8 2.014308 1_555
Nb0 O10 2.014308 1_555
Nb0 O4 2.014308 1_455
Nb0 O2 2.014308 1_455
Nb0 O7 2.022153 1_455
Nb0 O1 2.022153 1_555
Nb1 O5 2.014308 1_555
Nb1 O11 2.014308 1_554
Nb1 O9 2.014308 1_555
Nb1 O3 2.014308 1_554
Nb1 O1 2.022153 1_554
Nb1 O7 2.022153 1_555
O0 Ti0 1.986349 1_656
O0 Ti1 1.986349 1_655
O2 Ti0 1.987091 1_656
O3 Ti1 1.987091 1_555
O4 Ti1 1.987091 1_655
O5 Ti0 1.987091 1_555
O6 Ti1 1.986349 1_565
O6 Ti0 1.986349 1_555
O8 Ti0 1.987091 1_555
O9 Ti1 1.987091 1_665
O10 Ti1 1.987091 1_565
O11 Ti0 1.987091 1_656
F0 Na1 2.200454 1_555
F0 Na0 2.200454 1_566
F1 Na1 2.200454 1_555
F1 Na0 2.200454 1_555
