# generated using pymatgen
data_Sr2PrCu3(PbO4)2
_symmetry_space_group_name_H-M   'P 1'
_cell_length_a   3.86580500
_cell_length_b   3.90250611
_cell_length_c   16.03698769
_cell_angle_alpha   88.98069051
_cell_angle_beta   89.44168111
_cell_angle_gamma   89.50931386
_symmetry_Int_Tables_number   1
_chemical_formula_structural   Sr2PrCu3(PbO4)2
_chemical_formula_sum   'Sr2 Pr1 Cu3 Pb2 O8'
_cell_volume   241.88096198
_cell_formula_units_Z   1
loop_
 _symmetry_equiv_pos_site_id
 _symmetry_equiv_pos_as_xyz
  1  'x, y, z'
loop_
 _atom_site_type_symbol
 _atom_site_label
 _atom_site_symmetry_multiplicity
 _atom_site_fract_x
 _atom_site_fract_y
 _atom_site_fract_z
 _atom_site_occupancy
  Sr  Sr0  1  0.00213000  0.00783700  0.77593900  1
  Sr  Sr1  1  0.99787000  0.99216300  0.22406100  1
  Pr  Pr0  1  0.00000000  0.00000000  0.00000000  1
  Cu  Cu0  1  0.50041500  0.50125400  0.88948100  1
  Cu  Cu1  1  0.49958500  0.49874600  0.11051900  1
  Cu  Cu2  1  0.00000000  0.00000000  0.50000000  1
  Pb  Pb0  1  0.50502300  0.49606600  0.61056300  1
  Pb  Pb1  1  0.49497700  0.50393400  0.38943700  1
  O  O0  1  0.99970300  0.50325200  0.90171200  1
  O  O1  1  0.49915500  0.00014200  0.90122100  1
  O  O2  1  0.00029700  0.49674800  0.09828800  1
  O  O3  1  0.50084500  0.99985800  0.09877900  1
  O  O4  1  0.50161400  0.51026800  0.74652400  1
  O  O5  1  0.49838600  0.48973200  0.25347600  1
  O  O6  1  0.02901900  0.09721800  0.61249300  1
  O  O7  1  0.97098100  0.90278200  0.38750700  1
loop_
_geom_bond_atom_site_label_1
_geom_bond_atom_site_label_2
_geom_bond_distance
_geom_bond_site_symmetry_2
Cu0 O0 1.942088 1_555
Cu0 O0 1.943628 1_455
Cu0 O1 1.959287 1_565
Cu0 O1 1.961341 1_555
Cu0 O4 2.292204 1_555
Cu1 O2 1.942088 1_555
Cu1 O2 1.943628 1_655
Cu1 O3 1.959287 1_545
Cu1 O3 1.961341 1_555
Cu1 O5 2.292204 1_555
Cu2 O6 1.854762 1_555
Cu2 O7 1.854762 1_445
O0 Pr0 2.496293 1_656
O0 Pr0 2.520190 1_666
O0 Sr0 2.793677 1_665
O0 Sr0 2.818582 1_655
O1 Pr0 2.484620 1_556
O1 Pr0 2.513544 1_656
O1 Sr0 2.782264 1_655
O1 Sr0 2.793108 1_555
O2 Pr0 2.496293 1_565
O2 Pr0 2.520190 1_555
O2 Sr1 2.793677 1_445
O2 Sr1 2.818582 1_455
O3 Pr0 2.484620 1_665
O3 Pr0 2.513544 1_565
O3 Sr1 2.782264 1_455
O3 Sr1 2.793108 1_555
O4 Pb0 2.182003 1_555
O4 Sr0 2.769839 1_565
O4 Sr0 2.780424 1_655
O4 Sr0 2.794570 1_555
O4 Sr0 2.802060 1_665
O5 Pb1 2.182003 1_555
O5 Sr1 2.769839 1_545
O5 Sr1 2.780424 1_455
O5 Sr1 2.794570 1_555
O5 Sr1 2.802060 1_445
O6 Pb0 2.419920 1_555
O6 Pb0 2.544111 1_455
O6 Sr0 2.639289 1_555
O7 Pb1 2.419920 1_555
O7 Pb1 2.544111 1_655
O7 Sr1 2.639289 1_555
