# generated using pymatgen
data_Ba4La4Co8O17
_symmetry_space_group_name_H-M   'P 1'
_cell_length_a   15.59545300
_cell_length_b   7.98282300
_cell_length_c   16.32669407
_cell_angle_alpha   89.99454299
_cell_angle_beta   90.00000000
_cell_angle_gamma   90.00000000
_symmetry_Int_Tables_number   1
_chemical_formula_structural   Ba4La4Co8O17
_chemical_formula_sum   'Ba16 La16 Co32 O68'
_cell_volume   2032.60386604
_cell_formula_units_Z   4
loop_
 _symmetry_equiv_pos_site_id
 _symmetry_equiv_pos_as_xyz
  1  'x, y, z'
loop_
 _atom_site_type_symbol
 _atom_site_label
 _atom_site_symmetry_multiplicity
 _atom_site_fract_x
 _atom_site_fract_y
 _atom_site_fract_z
 _atom_site_occupancy
  Ba  Ba0  1  0.50736500  0.50628600  0.74993200  1
  Ba  Ba1  1  0.49263500  0.49371400  0.25006800  1
  Ba  Ba2  1  0.99263500  0.50628600  0.24993200  1
  Ba  Ba3  1  0.00736500  0.49371400  0.75006800  1
  Ba  Ba4  1  0.50000000  0.50000000  0.00000000  1
  Ba  Ba5  1  0.00000000  0.50000000  0.50000000  1
  Ba  Ba6  1  0.50000000  0.00000000  0.50000000  1
  Ba  Ba7  1  0.00000000  0.00000000  0.00000000  1
  Ba  Ba8  1  0.50000000  0.00000000  0.00000000  1
  Ba  Ba9  1  0.00000000  0.00000000  0.50000000  1
  Ba  Ba10  1  0.50000000  0.50000000  0.50000000  1
  Ba  Ba11  1  0.00000000  0.50000000  0.00000000  1
  Ba  Ba12  1  0.49648500  0.99308700  0.74951900  1
  Ba  Ba13  1  0.50351500  0.00691300  0.25048100  1
  Ba  Ba14  1  0.00351500  0.99308700  0.24951900  1
  Ba  Ba15  1  0.99648500  0.00691300  0.75048100  1
  La  La0  1  0.76075700  0.49941200  0.49372600  1
  La  La1  1  0.23924300  0.50058800  0.50627400  1
  La  La2  1  0.73924300  0.49941200  0.99372600  1
  La  La3  1  0.26075700  0.50058800  0.00627400  1
  La  La4  1  0.76121000  0.00024400  0.50633300  1
  La  La5  1  0.23879000  0.99975600  0.49366700  1
  La  La6  1  0.73879000  0.00024400  0.00633300  1
  La  La7  1  0.26121000  0.99975600  0.99366700  1
  La  La8  1  0.74771800  0.99579300  0.74423800  1
  La  La9  1  0.25228200  0.00420700  0.25576200  1
  La  La10  1  0.75228200  0.99579300  0.24423800  1
  La  La11  1  0.24771800  0.00420700  0.75576200  1
  La  La12  1  0.75375600  0.49511300  0.75552100  1
  La  La13  1  0.24624400  0.50488700  0.24447900  1
  La  La14  1  0.74624400  0.49511300  0.25552100  1
  La  La15  1  0.25375600  0.50488700  0.74447900  1
  Co  Co0  1  0.62624700  0.76318500  0.61860500  1
  Co  Co1  1  0.37584400  0.76406600  0.37888000  1
  Co  Co2  1  0.87584400  0.23593400  0.12112000  1
  Co  Co3  1  0.12624700  0.23681500  0.88139500  1
  Co  Co4  1  0.37375300  0.23681500  0.38139500  1
  Co  Co5  1  0.62415600  0.23593400  0.62112000  1
  Co  Co6  1  0.12415600  0.76406600  0.87888000  1
  Co  Co7  1  0.87375300  0.76318500  0.11860500  1
  Co  Co8  1  0.62342800  0.73565400  0.37806500  1
  Co  Co9  1  0.37332400  0.73674500  0.61940700  1
  Co  Co10  1  0.87332400  0.26325500  0.88059300  1
  Co  Co11  1  0.12342800  0.26434600  0.12193500  1
  Co  Co12  1  0.37657200  0.26434600  0.62193500  1
  Co  Co13  1  0.62667600  0.26325500  0.38059300  1
  Co  Co14  1  0.12667600  0.73674500  0.11940700  1
  Co  Co15  1  0.87657200  0.73565400  0.87806500  1
  Co  Co16  1  0.63535300  0.74658900  0.12927600  1
  Co  Co17  1  0.37542300  0.75009500  0.87331000  1
  Co  Co18  1  0.87542300  0.24990500  0.62669000  1
  Co  Co19  1  0.13535300  0.25341100  0.37072400  1
  Co  Co20  1  0.36464700  0.25341100  0.87072400  1
  Co  Co21  1  0.62457700  0.24990500  0.12669000  1
  Co  Co22  1  0.12457700  0.75009500  0.37331000  1
  Co  Co23  1  0.86464700  0.74658900  0.62927600  1
  Co  Co24  1  0.62552600  0.74984800  0.87498000  1
  Co  Co25  1  0.36232600  0.75354000  0.12788900  1
  Co  Co26  1  0.86232600  0.24646000  0.37211100  1
  Co  Co27  1  0.12552600  0.25015200  0.62502000  1
  Co  Co28  1  0.37447400  0.25015200  0.12502000  1
  Co  Co29  1  0.63767400  0.24646000  0.87211100  1
  Co  Co30  1  0.13767400  0.75354000  0.62788900  1
  Co  Co31  1  0.87447400  0.74984800  0.37498000  1
  O  O0  1  0.65851300  0.99719300  0.86786100  1
  O  O1  1  0.34148700  0.00280700  0.13213900  1
  O  O2  1  0.84148700  0.99719300  0.36786100  1
  O  O3  1  0.15851300  0.00280700  0.63213900  1
  O  O4  1  0.64620300  0.77451600  0.25923100  1
  O  O5  1  0.34892900  0.78295400  0.73513200  1
  O  O6  1  0.84892900  0.21704600  0.76486800  1
  O  O7  1  0.14620300  0.22548400  0.24076900  1
  O  O8  1  0.35379700  0.22548400  0.74076900  1
  O  O9  1  0.65107100  0.21704600  0.26486800  1
  O  O10  1  0.15107100  0.78295400  0.23513200  1
  O  O11  1  0.85379700  0.77451600  0.75923100  1
  O  O12  1  0.65749300  0.75188000  0.49797300  1
  O  O13  1  0.34315200  0.74578500  0.49828900  1
  O  O14  1  0.84315200  0.25421500  0.00171100  1
  O  O15  1  0.15749300  0.24812000  0.00202700  1
  O  O16  1  0.34250700  0.24812000  0.50202700  1
  O  O17  1  0.65684800  0.25421500  0.50171100  1
  O  O18  1  0.15684800  0.74578500  0.99828900  1
  O  O19  1  0.84250700  0.75188000  0.99797300  1
  O  O20  1  0.64643400  0.49875800  0.87632400  1
  O  O21  1  0.35356600  0.50124200  0.12367600  1
  O  O22  1  0.85356600  0.49875800  0.37632400  1
  O  O23  1  0.14643400  0.50124200  0.62367600  1
  O  O24  1  0.66276500  0.00051900  0.62383900  1
  O  O25  1  0.33723500  0.99948100  0.37616100  1
  O  O26  1  0.83723500  0.00051900  0.12383900  1
  O  O27  1  0.16276500  0.99948100  0.87616100  1
  O  O28  1  0.65827300  0.49766900  0.13186600  1
  O  O29  1  0.34172700  0.50233100  0.86813400  1
  O  O30  1  0.84172700  0.49766900  0.63186600  1
  O  O31  1  0.15827300  0.50233100  0.36813400  1
  O  O32  1  0.66232100  0.50163000  0.37602000  1
  O  O33  1  0.33767900  0.49837000  0.62398000  1
  O  O34  1  0.83767900  0.50163000  0.87602000  1
  O  O35  1  0.16232100  0.49837000  0.12398000  1
  O  O36  1  0.65286800  0.71689400  0.73380800  1
  O  O37  1  0.35240000  0.72508900  0.25995600  1
  O  O38  1  0.85240000  0.27491100  0.24004400  1
  O  O39  1  0.15286800  0.28310600  0.76619200  1
  O  O40  1  0.34713200  0.28310600  0.26619200  1
  O  O41  1  0.64760000  0.27491100  0.74004400  1
  O  O42  1  0.14760000  0.72508900  0.75995600  1
  O  O43  1  0.84713200  0.71689400  0.23380800  1
  O  O44  1  0.64662200  0.99902100  0.12373400  1
  O  O45  1  0.35337800  0.00097900  0.87626600  1
  O  O46  1  0.85337800  0.99902100  0.62373400  1
  O  O47  1  0.14662200  0.00097900  0.37626600  1
  O  O48  1  0.50008700  0.74905100  0.62031100  1
  O  O49  1  0.49969500  0.75220100  0.38193000  1
  O  O50  1  0.99969500  0.24779900  0.11807000  1
  O  O51  1  0.00008700  0.25094900  0.87968900  1
  O  O52  1  0.49991300  0.25094900  0.37968900  1
  O  O53  1  0.50030500  0.24779900  0.61807000  1
  O  O54  1  0.00030500  0.75220100  0.88193000  1
  O  O55  1  0.99991300  0.74905100  0.12031100  1
  O  O56  1  0.63972700  0.74916600  0.00330600  1
  O  O57  1  0.36013400  0.75191500  0.00244300  1
  O  O58  1  0.86013400  0.24808500  0.49755700  1
  O  O59  1  0.13972700  0.25083400  0.49669400  1
  O  O60  1  0.36027300  0.25083400  0.99669400  1
  O  O61  1  0.63986600  0.24808500  0.99755700  1
  O  O62  1  0.13986600  0.75191500  0.50244300  1
  O  O63  1  0.86027300  0.74916600  0.50330600  1
  O  O64  1  0.50062500  0.74933200  0.86644500  1
  O  O65  1  0.00062500  0.25066800  0.63355500  1
  O  O66  1  0.49937500  0.25066800  0.13355500  1
  O  O67  1  0.99937500  0.74933200  0.36644500  1
loop_
_geom_bond_atom_site_label_1
_geom_bond_atom_site_label_2
_geom_bond_distance
_geom_bond_site_symmetry_2
Ba0 O64 2.719327 1_555
Ba0 O36 2.836372 1_555
Ba0 O41 2.867179 1_555
Ba0 O48 2.871655 1_555
Ba0 O53 2.984237 1_555
Ba0 O20 2.994289 1_555
Ba0 O29 3.224627 1_555
Ba0 O8 3.283752 1_555
Ba0 O5 3.322863 1_555
Ba0 O33 3.351981 1_555
Ba1 O66 2.719327 1_555
Ba1 O40 2.836372 1_555
Ba1 O37 2.867179 1_555
Ba1 O52 2.871655 1_555
Ba1 O49 2.984237 1_555
Ba1 O21 2.994289 1_555
Ba1 O28 3.224627 1_555
Ba1 O4 3.283752 1_555
Ba1 O9 3.322863 1_555
Ba1 O32 3.351981 1_555
Ba2 O67 2.719327 1_555
Ba2 O43 2.836372 1_555
Ba2 O38 2.867179 1_555
Ba2 O55 2.871655 1_555
Ba2 O50 2.984237 1_555
Ba2 O22 2.994289 1_555
Ba2 O31 3.224627 1_655
Ba2 O7 3.283752 1_655
Ba2 O10 3.322863 1_655
Ba2 O35 3.351981 1_655
Ba3 O65 2.719327 1_555
Ba3 O39 2.836372 1_555
Ba3 O42 2.867179 1_555
Ba3 O51 2.871655 1_555
Ba3 O54 2.984237 1_555
Ba3 O23 2.994289 1_555
Ba3 O30 3.224627 1_455
Ba3 O11 3.283752 1_455
Ba3 O6 3.322863 1_455
Ba3 O34 3.351981 1_455
Ba4 O60 2.950889 1_554
Ba4 O56 2.950889 1_555
Ba4 O66 2.952200 1_555
Ba4 O64 2.952200 1_554
Ba4 O57 2.967095 1_555
Ba4 O61 2.967095 1_554
Ba4 O20 3.048386 1_554
Ba4 O21 3.048386 1_555
Ba4 O28 3.275388 1_555
Ba4 O29 3.275388 1_554
Ba5 O59 2.950889 1_555
Ba5 O63 2.950889 1_455
Ba5 O67 2.952200 1_455
Ba5 O65 2.952200 1_555
Ba5 O62 2.967095 1_555
Ba5 O58 2.967095 1_455
Ba5 O22 3.048386 1_455
Ba5 O23 3.048386 1_555
Ba5 O31 3.275388 1_555
Ba5 O30 3.275388 1_455
Ba6 O49 2.762204 1_545
Ba6 O53 2.762204 1_555
Ba6 O48 2.805493 1_545
Ba6 O52 2.805493 1_555
Ba6 O12 3.155482 1_545
Ba6 O16 3.155482 1_555
Ba6 O13 3.178451 1_545
Ba6 O17 3.178451 1_555
Ba6 O25 3.245222 1_545
Ba6 O24 3.245222 1_555
Ba7 O54 2.762204 1_544
Ba7 O50 2.762204 1_455
Ba7 O51 2.805493 1_554
Ba7 O55 2.805493 1_445
Ba7 O15 3.155482 1_555
Ba7 O19 3.155482 1_444
Ba7 O18 3.178451 1_544
Ba7 O14 3.178451 1_455
Ba7 O27 3.245222 1_544
Ba7 O26 3.245222 1_455
Ba8 O57 2.946454 1_545
Ba8 O61 2.946454 1_554
Ba8 O66 2.959681 1_555
Ba8 O64 2.959681 1_544
Ba8 O60 2.959874 1_554
Ba8 O56 2.959874 1_545
Ba8 O45 3.051203 1_554
Ba8 O44 3.051203 1_545
Ba8 O1 3.281165 1_555
Ba8 O0 3.281165 1_544
Ba9 O62 2.946454 1_545
Ba9 O58 2.946454 1_455
Ba9 O65 2.959681 1_555
Ba9 O67 2.959681 1_445
Ba9 O59 2.959874 1_555
Ba9 O63 2.959874 1_445
Ba9 O46 3.051203 1_445
Ba9 O47 3.051203 1_555
Ba9 O3 3.281165 1_555
Ba9 O2 3.281165 1_445
Ba10 O49 2.787214 1_555
Ba10 O53 2.787214 1_555
Ba10 O48 2.794961 1_555
Ba10 O52 2.794961 1_555
Ba10 O17 3.135909 1_555
Ba10 O13 3.135909 1_555
Ba10 O12 3.174405 1_555
Ba10 O16 3.174405 1_555
Ba10 O33 3.241268 1_555
Ba10 O32 3.241268 1_555
Ba11 O50 2.787214 1_455
Ba11 O54 2.787214 1_554
Ba11 O51 2.794961 1_554
Ba11 O55 2.794961 1_455
Ba11 O14 3.135909 1_455
Ba11 O18 3.135909 1_554
Ba11 O15 3.174405 1_555
Ba11 O19 3.174405 1_454
Ba11 O35 3.241268 1_555
Ba11 O34 3.241268 1_454
Ba12 O64 2.726563 1_555
Ba12 O5 2.857383 1_555
Ba12 O48 2.872138 1_555
Ba12 O8 2.900682 1_565
Ba12 O53 2.956852 1_565
Ba12 O45 3.044217 1_565
Ba12 O0 3.181108 1_555
Ba12 O41 3.261796 1_565
Ba12 O36 3.297742 1_555
Ba12 O24 3.307370 1_565
Ba13 O66 2.726563 1_555
Ba13 O9 2.857383 1_555
Ba13 O52 2.872138 1_555
Ba13 O4 2.900682 1_545
Ba13 O49 2.956852 1_545
Ba13 O44 3.044217 1_545
Ba13 O1 3.181108 1_555
Ba13 O37 3.261796 1_545
Ba13 O40 3.297742 1_555
Ba13 O25 3.307370 1_545
Ba14 O67 2.726563 1_455
Ba14 O10 2.857383 1_555
Ba14 O55 2.872138 1_455
Ba14 O7 2.900682 1_565
Ba14 O50 2.956852 1_465
Ba14 O47 3.044217 1_565
Ba14 O2 3.181108 1_455
Ba14 O38 3.261796 1_465
Ba14 O43 3.297742 1_455
Ba14 O26 3.307370 1_465
Ba15 O65 2.726563 1_655
Ba15 O6 2.857383 1_555
Ba15 O51 2.872138 1_655
Ba15 O11 2.900682 1_545
Ba15 O54 2.956852 1_645
Ba15 O46 3.044217 1_545
Ba15 O3 3.181108 1_655
Ba15 O42 3.261796 1_645
Ba15 O39 3.297742 1_655
Ba15 O27 3.307370 1_645
La0 O22 2.401887 1_555
La0 O32 2.459701 1_555
La0 O63 2.531447 1_555
La0 O58 2.535960 1_555
La0 O17 2.544458 1_555
La0 O12 2.580745 1_555
La0 O30 2.584850 1_555
La1 O23 2.401887 1_555
La1 O33 2.459701 1_555
La1 O59 2.531447 1_555
La1 O62 2.535960 1_555
La1 O13 2.544458 1_555
La1 O16 2.580745 1_555
La1 O31 2.584850 1_555
La2 O20 2.401887 1_555
La2 O34 2.459701 1_555
La2 O56 2.531447 1_556
La2 O61 2.535960 1_555
La2 O14 2.544458 1_556
La2 O19 2.580745 1_555
La2 O28 2.584850 1_556
La3 O21 2.401887 1_555
La3 O35 2.459701 1_555
La3 O60 2.531447 1_554
La3 O57 2.535960 1_555
La3 O18 2.544458 1_554
La3 O15 2.580745 1_555
La3 O29 2.584850 1_554
La4 O46 2.395876 1_545
La4 O24 2.457177 1_555
La4 O58 2.512956 1_555
La4 O63 2.531115 1_545
La4 O12 2.562404 1_545
La4 O2 2.584409 1_545
La4 O17 2.600967 1_555
La5 O47 2.395876 1_565
La5 O25 2.457177 1_555
La5 O62 2.512956 1_555
La5 O59 2.531115 1_565
La5 O16 2.562404 1_565
La5 O3 2.584409 1_565
La5 O13 2.600967 1_555
La6 O44 2.395876 1_545
La6 O26 2.457177 1_555
La6 O61 2.512956 1_554
La6 O56 2.531115 1_545
La6 O19 2.562404 1_544
La6 O0 2.584409 1_544
La6 O14 2.600967 1_555
La7 O45 2.395876 1_565
La7 O27 2.457177 1_555
La7 O57 2.512956 1_556
La7 O60 2.531115 1_565
La7 O15 2.562404 1_566
La7 O1 2.584409 1_566
La7 O18 2.600967 1_555
La8 O24 2.370815 1_565
La8 O6 2.392604 1_565
La8 O11 2.432475 1_555
La8 O0 2.451388 1_555
La8 O46 2.566464 1_555
La8 O36 2.678442 1_555
La8 O41 2.721624 1_565
La9 O25 2.370815 1_545
La9 O10 2.392604 1_545
La9 O7 2.432475 1_555
La9 O1 2.451388 1_555
La9 O47 2.566464 1_555
La9 O40 2.678442 1_555
La9 O37 2.721624 1_545
La10 O26 2.370815 1_565
La10 O9 2.392604 1_565
La10 O4 2.432475 1_555
La10 O2 2.451388 1_555
La10 O44 2.566464 1_555
La10 O43 2.678442 1_555
La10 O38 2.721624 1_565
La11 O27 2.370815 1_545
La11 O5 2.392604 1_545
La11 O8 2.432475 1_555
La11 O3 2.451388 1_555
La11 O45 2.566464 1_555
La11 O39 2.678442 1_555
La11 O42 2.721624 1_545
La12 O34 2.363513 1_555
La12 O36 2.394906 1_555
La12 O41 2.427913 1_555
La12 O30 2.441007 1_555
La12 O20 2.586942 1_555
La12 O6 2.674622 1_555
La12 O11 2.722621 1_555
La13 O35 2.363513 1_555
La13 O40 2.394906 1_555
La13 O37 2.427913 1_555
La13 O31 2.441007 1_555
La13 O21 2.586942 1_555
La13 O10 2.674622 1_555
La13 O7 2.722621 1_555
La14 O32 2.363513 1_555
La14 O43 2.394906 1_555
La14 O38 2.427913 1_555
La14 O28 2.441007 1_555
La14 O22 2.586942 1_555
La14 O9 2.674622 1_555
La14 O4 2.722621 1_555
La15 O33 2.363513 1_555
La15 O39 2.394906 1_555
La15 O42 2.427913 1_555
La15 O29 2.441007 1_555
La15 O23 2.586942 1_555
La15 O5 2.674622 1_555
La15 O8 2.722621 1_555
Co0 O36 1.961252 1_555
Co0 O48 1.970952 1_555
Co0 O24 1.980195 1_565
Co0 O12 2.030924 1_555
Co1 O49 1.934474 1_555
Co1 O25 1.973876 1_555
Co1 O37 2.000139 1_555
Co1 O13 2.020383 1_555
Co2 O50 1.934474 1_555
Co2 O26 1.973876 1_555
Co2 O38 2.000139 1_555
Co2 O14 2.020383 1_555
Co3 O39 1.961252 1_555
Co3 O51 1.970952 1_555
Co3 O27 1.980195 1_545
Co3 O15 2.030924 1_556
Co4 O40 1.961252 1_555
Co4 O52 1.970952 1_555
Co4 O25 1.980195 1_545
Co4 O16 2.030924 1_555
Co5 O53 1.934474 1_555
Co5 O24 1.973876 1_555
Co5 O41 2.000139 1_555
Co5 O17 2.020383 1_555
Co6 O54 1.934474 1_555
Co6 O27 1.973876 1_555
Co6 O42 2.000139 1_555
Co6 O18 2.020383 1_555
Co7 O43 1.961252 1_555
Co7 O55 1.970952 1_555
Co7 O26 1.980195 1_565
Co7 O19 2.030924 1_554
Co8 O49 1.935217 1_555
Co8 O32 1.964460 1_555
Co8 O4 1.996630 1_555
Co8 O12 2.032648 1_555
Co9 O5 1.962347 1_555
Co9 O48 1.979421 1_555
Co9 O33 1.983840 1_555
Co9 O13 2.033944 1_555
Co10 O6 1.962347 1_555
Co10 O51 1.979421 1_655
Co10 O34 1.983840 1_555
Co10 O14 2.033944 1_556
Co11 O50 1.935217 1_455
Co11 O35 1.964460 1_555
Co11 O7 1.996630 1_555
Co11 O15 2.032648 1_555
Co12 O53 1.935217 1_555
Co12 O33 1.964460 1_555
Co12 O8 1.996630 1_555
Co12 O16 2.032648 1_555
Co13 O9 1.962347 1_555
Co13 O52 1.979421 1_555
Co13 O32 1.983840 1_555
Co13 O17 2.033944 1_555
Co14 O10 1.962347 1_555
Co14 O55 1.979421 1_455
Co14 O35 1.983840 1_555
Co14 O18 2.033944 1_554
Co15 O54 1.935217 1_655
Co15 O34 1.964460 1_555
Co15 O11 1.996630 1_555
Co15 O19 2.032648 1_555
Co16 O28 2.019417 1_555
Co16 O44 2.024783 1_555
Co16 O56 2.057905 1_555
Co16 O4 2.140137 1_555
Co17 O64 1.955806 1_555
Co17 O45 2.032635 1_565
Co17 O29 2.048229 1_555
Co17 O57 2.121806 1_556
Co17 O5 2.308442 1_555
Co18 O65 1.955806 1_655
Co18 O46 2.032635 1_545
Co18 O30 2.048229 1_555
Co18 O58 2.121806 1_555
Co18 O6 2.308442 1_555
Co19 O31 2.019417 1_555
Co19 O47 2.024783 1_555
Co19 O59 2.057905 1_555
Co19 O7 2.140137 1_555
Co20 O29 2.019417 1_555
Co20 O45 2.024783 1_555
Co20 O60 2.057905 1_555
Co20 O8 2.140137 1_555
Co21 O66 1.955806 1_555
Co21 O44 2.032635 1_545
Co21 O28 2.048229 1_555
Co21 O61 2.121806 1_554
Co21 O9 2.308442 1_555
Co22 O67 1.955806 1_455
Co22 O47 2.032635 1_565
Co22 O31 2.048229 1_555
Co22 O62 2.121806 1_555
Co22 O10 2.308442 1_555
Co23 O30 2.019417 1_555
Co23 O46 2.024783 1_555
Co23 O63 2.057905 1_555
Co23 O11 2.140137 1_555
Co24 O64 1.952870 1_555
Co24 O20 2.030872 1_555
Co24 O0 2.043726 1_555
Co24 O56 2.106819 1_556
Co24 O36 2.358724 1_555
Co25 O1 2.017420 1_565
Co25 O21 2.019856 1_555
Co25 O57 2.048446 1_555
Co25 O37 2.173644 1_555
Co26 O2 2.017420 1_545
Co26 O22 2.019856 1_555
Co26 O58 2.048446 1_555
Co26 O38 2.173644 1_555
Co27 O65 1.952870 1_555
Co27 O23 2.030872 1_555
Co27 O3 2.043726 1_555
Co27 O59 2.106819 1_555
Co27 O39 2.358724 1_555
Co28 O66 1.952870 1_555
Co28 O21 2.030872 1_555
Co28 O1 2.043726 1_555
Co28 O60 2.106819 1_554
Co28 O40 2.358724 1_555
Co29 O0 2.017420 1_545
Co29 O20 2.019856 1_555
Co29 O61 2.048446 1_555
Co29 O41 2.173644 1_555
Co30 O3 2.017420 1_565
Co30 O23 2.019856 1_555
Co30 O62 2.048446 1_555
Co30 O42 2.173644 1_555
Co31 O67 1.952870 1_555
Co31 O22 2.030872 1_555
Co31 O2 2.043726 1_555
Co31 O63 2.106819 1_555
Co31 O43 2.358724 1_555
