# generated using pymatgen
data_Eu5(ZrS4)3
_symmetry_space_group_name_H-M   'P 1'
_cell_length_a   11.73187340
_cell_length_b   11.73199126
_cell_length_c   3.91647386
_cell_angle_alpha   90.00000000
_cell_angle_beta   90.00000000
_cell_angle_gamma   120.01191655
_symmetry_Int_Tables_number   1
_chemical_formula_structural   Eu5(ZrS4)3
_chemical_formula_sum   'Eu5 Zr3 S12'
_cell_volume   466.78060274
_cell_formula_units_Z   1
loop_
 _symmetry_equiv_pos_site_id
 _symmetry_equiv_pos_as_xyz
  1  'x, y, z'
loop_
 _atom_site_type_symbol
 _atom_site_label
 _atom_site_symmetry_multiplicity
 _atom_site_fract_x
 _atom_site_fract_y
 _atom_site_fract_z
 _atom_site_occupancy
  Eu  Eu0  1  0.28701305  0.28701664  0.00000000  1
  Eu  Eu1  1  0.71287766  0.99986298  0.00000000  1
  Eu  Eu2  1  -0.00011767  0.71289228  0.00000000  1
  Eu  Eu3  1  0.66681969  0.33335520  0.00000000  1
  Eu  Eu4  1  0.33342615  0.66684145  0.00000000  1
  Zr  Zr0  1  0.67506600  0.67517003  0.50000000  1
  Zr  Zr1  1  0.32480384  -0.00001831  0.50000000  1
  Zr  Zr2  1  -0.00001000  0.32472474  0.50000000  1
  S  S0  1  0.74870623  0.19640564  0.50000000  1
  S  S1  1  0.80362639  0.55238478  0.50000000  1
  S  S2  1  0.44766619  0.25123070  0.50000000  1
  S  S3  1  0.19652979  0.74873829  0.50000000  1
  S  S4  1  0.55239616  0.80369452  0.50000000  1
  S  S5  1  0.25123067  0.44766323  0.50000000  1
  S  S6  1  0.82225932  0.82234257  0.00000000  1
  S  S7  1  0.17772185  -0.00005244  -0.00000000  1
  S  S8  1  -0.00007757  0.17769030  -0.00000000  1
  S  S9  1  0.53305163  0.53313748  0.00000000  1
  S  S10  1  0.46701441  -0.00004912  0.00000000  1
  S  S11  1  -0.00000481  0.46696904  -0.00000000  1
loop_
_geom_bond_atom_site_label_1
_geom_bond_atom_site_label_2
_geom_bond_distance
_geom_bond_site_symmetry_2
Eu0 S9 2.886471 1_555
Eu0 S5 2.890416 1_554
Eu0 S5 2.890416 1_555
Eu0 S2 2.890479 1_555
Eu0 S2 2.890479 1_554
Eu0 S7 2.943956 1_555
Eu0 S8 2.944100 1_555
Eu1 S10 2.884952 1_565
Eu1 S4 2.888163 1_555
Eu1 S4 2.888163 1_554
Eu1 S0 2.891138 1_565
Eu1 S0 2.891138 1_564
Eu1 S6 2.942412 1_555
Eu1 S8 2.943615 1_665
Eu2 S11 2.885832 1_555
Eu2 S1 2.888717 1_455
Eu2 S1 2.888717 1_454
Eu2 S3 2.891960 1_555
Eu2 S3 2.891960 1_554
Eu2 S7 2.943756 1_565
Eu2 S6 2.944154 1_455
Eu3 S0 2.980459 1_554
Eu3 S0 2.980459 1_555
Eu3 S1 2.981284 1_554
Eu3 S1 2.981284 1_555
Eu3 S2 2.982510 1_555
Eu3 S2 2.982510 1_554
Eu3 S11 3.406803 1_655
Eu3 S10 3.409158 1_555
Eu3 S9 3.411173 1_555
Eu4 S3 2.980088 1_555
Eu4 S3 2.980088 1_554
Eu4 S4 2.980915 1_555
Eu4 S4 2.980915 1_554
Eu4 S5 2.982642 1_554
Eu4 S5 2.982642 1_555
Eu4 S10 3.406164 1_565
Eu4 S9 3.408872 1_555
Eu4 S11 3.409470 1_555
S0 Zr2 2.552949 1_655
S1 Zr0 2.554087 1_555
S2 Zr1 2.552647 1_555
S3 Zr1 2.552560 1_565
S4 Zr0 2.552557 1_555
S5 Zr2 2.552524 1_555
S6 Zr0 2.610603 1_554
S6 Zr0 2.610603 1_555
S7 Zr1 2.609888 1_554
S7 Zr1 2.609888 1_555
S8 Zr2 2.609401 1_554
S8 Zr2 2.609401 1_555
S9 Zr0 2.570982 1_555
S9 Zr0 2.570982 1_554
S10 Zr1 2.572711 1_555
S10 Zr1 2.572711 1_554
S11 Zr2 2.572841 1_555
S11 Zr2 2.572841 1_554
