# generated using pymatgen
data_Er7Co6Sn23
_symmetry_space_group_name_H-M   'P 1'
_cell_length_a   9.63047285
_cell_length_b   9.63048050
_cell_length_c   9.80905646
_cell_angle_alpha   89.99982996
_cell_angle_beta   90.00002614
_cell_angle_gamma   120.00007191
_symmetry_Int_Tables_number   1
_chemical_formula_structural   Er7Co6Sn23
_chemical_formula_sum   'Er7 Co6 Sn23'
_cell_volume   787.86737849
_cell_formula_units_Z   1
loop_
 _symmetry_equiv_pos_site_id
 _symmetry_equiv_pos_as_xyz
  1  'x, y, z'
loop_
 _atom_site_type_symbol
 _atom_site_label
 _atom_site_symmetry_multiplicity
 _atom_site_fract_x
 _atom_site_fract_y
 _atom_site_fract_z
 _atom_site_occupancy
  Er  Er0  1  0.47900733  0.52100240  0.30639820  1
  Er  Er1  1  0.52100383  0.47900652  0.69359744  1
  Er  Er2  1  0.47899750  0.95799908  0.30639870  1
  Er  Er3  1  0.52099448  0.04199205  0.69359771  1
  Er  Er4  1  0.04199537  0.52100413  0.30639920  1
  Er  Er5  1  0.95800405  0.47900866  0.69359796  1
  Er  Er6  1  -0.00000080  -0.00001363  0.00001231  1
  Co  Co0  1  0.83240615  0.16759432  0.19706712  1
  Co  Co1  1  0.16759724  0.83240111  0.80292594  1
  Co  Co2  1  0.83240525  0.66481108  0.19706824  1
  Co  Co3  1  0.16759912  0.33519662  0.80292656  1
  Co  Co4  1  0.33518544  0.16759214  0.19706530  1
  Co  Co5  1  0.66480502  0.83240336  0.80292555  1
  Sn  Sn0  1  0.11726650  0.88272736  0.27549523  1
  Sn  Sn1  1  0.88273034  0.11725808  0.72451955  1
  Sn  Sn2  1  0.11727246  0.23454136  0.27549682  1
  Sn  Sn3  1  0.88273930  0.76547582  0.72452097  1
  Sn  Sn4  1  0.76545794  0.88272239  0.27549488  1
  Sn  Sn5  1  0.23452699  0.11725902  0.72451727  1
  Sn  Sn6  1  0.78045141  0.21954503  0.45209823  1
  Sn  Sn7  1  0.21954769  0.78045094  0.54790674  1
  Sn  Sn8  1  0.78045467  0.56091007  0.45209580  1
  Sn  Sn9  1  0.21955049  0.43909973  0.54790410  1
  Sn  Sn10  1  0.43909161  0.21954442  0.45209608  1
  Sn  Sn11  1  0.56090148  0.78044924  0.54790499  1
  Sn  Sn12  1  0.34695384  -0.00000521  -0.00000550  1
  Sn  Sn13  1  0.65304447  0.00000153  -0.00000666  1
  Sn  Sn14  1  0.00000303  0.34696316  0.99999789  1
  Sn  Sn15  1  0.00000099  0.65304700  0.99999733  1
  Sn  Sn16  1  0.65304482  0.65304603  0.99999763  1
  Sn  Sn17  1  0.34696108  0.34696033  -0.00000252  1
  Sn  Sn18  1  0.33333438  0.66666966  0.11718021  1
  Sn  Sn19  1  0.66666605  0.33333569  0.88281048  1
  Sn  Sn20  1  0.33333483  0.66667102  0.82068799  1
  Sn  Sn21  1  0.66666603  0.33333694  0.17931133  1
  Sn  Sn22  1  -0.00000235  -0.00000745  0.50000091  1
loop_
_geom_bond_atom_site_label_1
_geom_bond_atom_site_label_2
_geom_bond_distance
_geom_bond_site_symmetry_2
Er0 Sn18 3.057624 1_555
Er0 Sn8 3.082585 1_555
Er0 Sn10 3.082648 1_555
Er0 Sn4 3.197999 1_555
Er0 Sn2 3.198123 1_555
Er0 Sn11 3.241355 1_555
Er0 Sn9 3.241392 1_555
Er0 Sn16 3.365698 1_554
Er0 Sn17 3.365723 1_555
Er0 Sn21 3.369387 1_555
Er1 Sn19 3.057547 1_555
Er1 Sn11 3.082554 1_555
Er1 Sn9 3.082619 1_555
Er1 Sn3 3.198173 1_555
Er1 Sn5 3.198269 1_555
Er1 Sn8 3.241323 1_555
Er1 Sn10 3.241387 1_555
Er1 Sn16 3.365704 1_555
Er1 Sn17 3.365712 1_556
Er1 Sn20 3.369473 1_555
Er2 Sn18 3.057561 1_555
Er2 Sn10 3.082629 1_565
Er2 Sn6 3.082650 1_565
Er2 Sn0 3.198096 1_555
Er2 Sn4 3.198141 1_555
Er2 Sn7 3.241363 1_555
Er2 Sn11 3.241373 1_555
Er2 Sn12 3.365737 1_565
Er2 Sn13 3.365772 1_565
Er2 Sn21 3.369487 1_565
Er3 Sn19 3.057621 1_555
Er3 Sn7 3.082558 1_545
Er3 Sn11 3.082592 1_545
Er3 Sn5 3.198161 1_555
Er3 Sn1 3.198176 1_555
Er3 Sn6 3.241343 1_555
Er3 Sn10 3.241350 1_555
Er3 Sn13 3.365673 1_556
Er3 Sn12 3.365676 1_556
Er3 Sn20 3.369368 1_545
Er4 Sn18 3.057620 1_555
Er4 Sn8 3.082582 1_455
Er4 Sn6 3.082662 1_455
Er4 Sn0 3.198027 1_555
Er4 Sn2 3.198167 1_555
Er4 Sn7 3.241359 1_555
Er4 Sn9 3.241400 1_555
Er4 Sn15 3.365708 1_554
Er4 Sn14 3.365729 1_554
Er4 Sn21 3.369426 1_455
Er5 Sn19 3.057575 1_555
Er5 Sn7 3.082539 1_655
Er5 Sn9 3.082634 1_655
Er5 Sn3 3.198149 1_555
Er5 Sn1 3.198293 1_555
Er5 Sn8 3.241330 1_555
Er5 Sn6 3.241385 1_555
Er5 Sn15 3.365695 1_655
Er5 Sn14 3.365716 1_655
Er5 Sn20 3.369445 1_655
Er6 Sn3 3.335859 1_444
Er6 Sn0 3.335861 1_545
Er6 Sn4 3.335931 1_445
Er6 Sn5 3.335965 1_554
Er6 Sn1 3.336009 1_454
Er6 Sn2 3.336022 1_555
Er6 Sn15 3.341201 1_544
Er6 Sn16 3.341265 1_444
Er6 Sn12 3.341297 1_555
Er6 Sn13 3.341411 1_455
Er6 Sn17 3.341463 1_555
Er6 Sn14 3.341535 1_554
Co0 Sn14 2.556886 1_654
Co0 Sn13 2.556889 1_555
Co0 Sn2 2.600962 1_655
Co0 Sn4 2.601003 1_545
Co0 Sn6 2.647465 1_555
Co0 Sn21 2.770126 1_555
Co0 Er2 3.152500 1_545
Co0 Er4 3.152511 1_655
Co0 Er6 3.398809 1_655
Co1 Sn12 2.556835 1_566
Co1 Sn15 2.556849 1_555
Co1 Sn5 2.600872 1_565
Co1 Sn3 2.600874 1_455
Co1 Sn7 2.647342 1_555
Co1 Sn20 2.770005 1_555
Co1 Er5 3.152374 1_455
Co1 Er3 3.152401 1_565
Co1 Er6 3.398864 1_566
Co2 Sn16 2.556866 1_554
Co2 Sn15 2.556869 1_654
Co2 Sn4 2.600888 1_555
Co2 Sn0 2.600915 1_655
Co2 Sn8 2.647416 1_555
Co2 Sn21 2.770054 1_555
Co2 Er0 3.152412 1_555
Co2 Er4 3.152412 1_655
Co2 Er6 3.398630 1_665
Co3 Sn17 2.556882 1_556
Co3 Sn14 2.556882 1_555
Co3 Sn5 2.600952 1_555
Co3 Sn1 2.600964 1_455
Co3 Sn9 2.647374 1_555
Co3 Sn20 2.770059 1_555
Co3 Er1 3.152464 1_555
Co3 Er5 3.152483 1_455
Co3 Er6 3.399036 1_556
Co4 Sn17 2.556862 1_555
Co4 Sn12 2.556896 1_555
Co4 Sn2 2.600927 1_555
Co4 Sn0 2.600950 1_545
Co4 Sn10 2.647463 1_555
Co4 Sn21 2.770103 1_555
Co4 Er2 3.152482 1_545
Co4 Er0 3.152517 1_555
Co4 Er6 3.398693 1_555
Co5 Sn13 2.556852 1_566
Co5 Sn16 2.556869 1_555
Co5 Sn1 2.600835 1_565
Co5 Sn3 2.600904 1_555
Co5 Sn11 2.647361 1_555
Co5 Sn20 2.770022 1_555
Co5 Er1 3.152410 1_555
Co5 Er3 3.152416 1_565
Co5 Er6 3.398936 1_666
Sn0 Sn22 2.945482 1_565
Sn0 Sn7 3.170290 1_555
Sn1 Sn22 2.945570 1_655
Sn1 Sn6 3.170408 1_555
Sn2 Sn22 2.945544 1_555
Sn2 Sn9 3.170265 1_555
Sn3 Sn8 3.170446 1_555
Sn10 Sn5 3.170401 1_555
Sn11 Sn4 3.170273 1_555
Sn18 Sn20 2.908309 1_554
Sn19 Sn21 2.908394 1_556
Sn22 Sn3 2.945483 1_445
Sn22 Sn4 2.945513 1_445
Sn22 Sn5 2.945531 1_555
