# generated using pymatgen
data_Li9Mn2Co5O16
_symmetry_space_group_name_H-M   'P 1'
_cell_length_a   5.93241500
_cell_length_b   6.56791251
_cell_length_c   7.73494754
_cell_angle_alpha   89.68373533
_cell_angle_beta   100.02724802
_cell_angle_gamma   103.88851733
_symmetry_Int_Tables_number   1
_chemical_formula_structural   Li9Mn2Co5O16
_chemical_formula_sum   'Li9 Mn2 Co5 O16'
_cell_volume   287.89378176
_cell_formula_units_Z   1
loop_
 _symmetry_equiv_pos_site_id
 _symmetry_equiv_pos_as_xyz
  1  'x, y, z'
loop_
 _atom_site_type_symbol
 _atom_site_label
 _atom_site_symmetry_multiplicity
 _atom_site_fract_x
 _atom_site_fract_y
 _atom_site_fract_z
 _atom_site_occupancy
  Li  Li0  1  0.49541000  0.99907500  0.00115000  1
  Li  Li1  1  0.25403500  0.75743400  0.25801300  1
  Li  Li2  1  0.87729800  0.36911100  0.13231600  1
  Li  Li3  1  0.63351900  0.12956700  0.38369200  1
  Li  Li4  1  0.99606700  0.48941600  0.49211200  1
  Li  Li5  1  0.37220800  0.87835600  0.61663600  1
  Li  Li6  1  0.12586100  0.62616500  0.87261800  1
  Li  Li7  1  0.75155300  0.25328000  0.74826000  1
  Li  Li8  1  0.12530000  0.12564400  0.37411200  1
  Mn  Mn0  1  0.00359400  0.99872800  0.00075300  1
  Mn  Mn1  1  0.62438500  0.62533900  0.87586600  1
  Co  Co0  1  0.74885500  0.75431700  0.25355900  1
  Co  Co1  1  0.49788700  0.49592800  0.49967900  1
  Co  Co2  1  0.24370800  0.24990600  0.73946100  1
  Co  Co3  1  0.88547200  0.87736500  0.61245800  1
  Co  Co4  1  0.36645600  0.37147300  0.13311300  1
  O  O0  1  0.17251400  0.94775000  0.81558900  1
  O  O1  1  0.92185200  0.69856900  0.04970900  1
  O  O2  1  0.55206700  0.33499000  0.93934800  1
  O  O3  1  0.28880100  0.05919600  0.16883800  1
  O  O4  1  0.68014800  0.44966200  0.30797300  1
  O  O5  1  0.04502300  0.80552800  0.44517000  1
  O  O6  1  0.79381800  0.56951800  0.69681100  1
  O  O7  1  0.43804400  0.20740500  0.57077200  1
  O  O8  1  0.81920800  0.03947600  0.17656700  1
  O  O9  1  0.57026800  0.80423700  0.44079500  1
  O  O10  1  0.20894900  0.44236500  0.30557300  1
  O  O11  1  0.94595400  0.18452600  0.57439600  1
  O  O12  1  0.33534000  0.56463700  0.69982100  1
  O  O13  1  0.70693400  0.92204600  0.81942200  1
  O  O14  1  0.45464600  0.67957900  0.05481100  1
  O  O15  1  0.06482500  0.28941000  0.94060800  1
loop_
_geom_bond_atom_site_label_1
_geom_bond_atom_site_label_2
_geom_bond_distance
_geom_bond_site_symmetry_2
Li0 O3 2.032785 1_565
Li0 O14 2.101394 1_555
Li0 O8 2.110204 1_565
Li0 O0 2.140326 1_554
Li0 O13 2.175623 1_554
Li0 O2 2.213004 1_564
Li1 O10 2.061362 1_555
Li1 O3 2.069936 1_565
Li1 O9 2.101699 1_555
Li1 O5 2.133329 1_555
Li1 O14 2.258464 1_555
Li1 O1 2.272528 1_455
Li2 O4 2.086199 1_555
Li2 O10 2.129074 1_655
Li2 O15 2.138481 1_654
Li2 O8 2.144276 1_555
Li2 O2 2.189507 1_554
Li2 O1 2.220218 1_555
Li3 O11 2.115234 1_555
Li3 O9 2.136336 1_545
Li3 O7 2.139443 1_555
Li3 O4 2.145479 1_555
Li3 O8 2.251288 1_555
Li3 O3 2.351336 1_555
Li4 O5 2.065358 1_655
Li4 O11 2.066268 1_555
Li4 O4 2.109248 1_555
Li4 O10 2.144558 1_655
Li4 O6 2.279714 1_555
Li4 O12 2.298180 1_655
Li5 O9 2.075064 1_555
Li5 O5 2.102409 1_555
Li5 O12 2.127308 1_555
Li5 O7 2.140934 1_565
Li5 O0 2.209334 1_555
Li5 O13 2.265519 1_555
Li6 O12 2.078351 1_555
Li6 O1 2.104281 1_456
Li6 O0 2.117528 1_555
Li6 O6 2.142141 1_455
Li6 O14 2.152496 1_556
Li6 O15 2.229045 1_555
Li7 O11 2.034530 1_555
Li7 O7 2.069062 1_555
Li7 O6 2.076265 1_555
Li7 O15 2.133787 1_655
Li7 O2 2.189965 1_555
Li7 O13 2.206124 1_545
Li8 O3 2.097501 1_555
Li8 O10 2.106751 1_555
Li8 O11 2.111792 1_455
Li8 O8 2.121889 1_455
Li8 O5 2.132390 1_545
Li8 O7 2.142999 1_555
Mn0 O3 1.904702 1_565
Mn0 O15 1.925990 1_564
Mn0 O8 1.944241 1_465
Mn0 O0 1.958003 1_554
Mn0 O1 1.965146 1_455
Mn0 O13 2.010195 1_454
Mn1 O14 1.928655 1_556
Mn1 O6 1.931374 1_555
Mn1 O2 1.931846 1_555
Mn1 O12 1.954017 1_555
Mn1 O13 1.958306 1_555
Mn1 O1 1.981656 1_556
Co0 O8 1.932765 1_565
Co0 O4 2.001495 1_555
Co0 O9 2.008410 1_555
Co0 O5 2.052258 1_655
Co0 O14 2.076835 1_555
Co0 O1 2.103289 1_555
Co1 O7 1.937251 1_555
Co1 O9 2.032914 1_555
Co1 O10 2.033777 1_555
Co1 O4 2.044815 1_555
Co1 O12 2.065565 1_555
Co1 O6 2.075888 1_555
Co2 O11 1.947114 1_455
Co2 O7 1.947285 1_555
Co2 O0 2.033426 1_545
Co2 O12 2.043066 1_555
Co2 O15 2.079853 1_555
Co2 O2 2.140797 1_555
Co3 O5 1.854858 1_655
Co3 O11 1.992003 1_565
Co3 O9 2.049784 1_555
Co3 O0 2.068938 1_655
Co3 O6 2.095397 1_555
Co3 O13 2.124979 1_555
Co4 O10 1.875937 1_555
Co4 O3 2.019826 1_555
Co4 O2 2.054628 1_554
Co4 O4 2.056353 1_555
Co4 O14 2.079451 1_555
Co4 O15 2.080296 1_554
