# generated using pymatgen
data_SrCa7Mn7CrO22
_symmetry_space_group_name_H-M   'P 1'
_cell_length_a   10.87141232
_cell_length_b   15.62180544
_cell_length_c   10.84710319
_cell_angle_alpha   90.01508630
_cell_angle_beta   90.73712179
_cell_angle_gamma   90.33999019
_symmetry_Int_Tables_number   1
_chemical_formula_structural   SrCa7Mn7CrO22
_chemical_formula_sum   'Sr4 Ca28 Mn28 Cr4 O88'
_cell_volume   1841.99035151
_cell_formula_units_Z   4
loop_
 _symmetry_equiv_pos_site_id
 _symmetry_equiv_pos_as_xyz
  1  'x, y, z'
loop_
 _atom_site_type_symbol
 _atom_site_label
 _atom_site_symmetry_multiplicity
 _atom_site_fract_x
 _atom_site_fract_y
 _atom_site_fract_z
 _atom_site_occupancy
  Sr  Sr0  1  0.00286046  0.11347732  0.50057649  1
  Sr  Sr1  1  0.49957209  0.38641463  0.99983008  1
  Sr  Sr2  1  0.24088346  0.38717018  0.25860399  1
  Sr  Sr3  1  0.23245473  0.11869701  0.24330331  1
  Ca  Ca0  1  0.99395783  0.10988424  0.00700835  1
  Ca  Ca1  1  0.01810491  0.62855076  0.49686052  1
  Ca  Ca2  1  0.01643248  0.62879584  0.99626942  1
  Ca  Ca3  1  0.53665296  0.12714637  0.48313631  1
  Ca  Ca4  1  0.54651079  0.12688850  0.98227830  1
  Ca  Ca5  1  0.52180982  0.62497329  0.49922114  1
  Ca  Ca6  1  0.52288773  0.62444793  0.99789697  1
  Ca  Ca7  1  0.49388391  0.39216683  0.50137219  1
  Ca  Ca8  1  0.49483490  0.85718898  0.00076486  1
  Ca  Ca9  1  0.49517412  0.85735427  0.50122766  1
  Ca  Ca10  1  0.96580454  0.38761477  0.00074592  1
  Ca  Ca11  1  0.96431657  0.38838711  0.50107901  1
  Ca  Ca12  1  0.96884429  0.87167096  0.00710317  1
  Ca  Ca13  1  0.97028300  0.87329662  0.50891945  1
  Ca  Ca14  1  0.23399785  0.39830011  0.74319006  1
  Ca  Ca15  1  0.22426571  0.87132632  0.25460110  1
  Ca  Ca16  1  0.22383612  0.87078678  0.74973708  1
  Ca  Ca17  1  0.74065133  0.39287713  0.25165369  1
  Ca  Ca18  1  0.73355379  0.38654378  0.75053964  1
  Ca  Ca19  1  0.74256931  0.86143453  0.25343901  1
  Ca  Ca20  1  0.74161195  0.86244255  0.74966470  1
  Ca  Ca21  1  0.22468853  0.10694419  0.73382146  1
  Ca  Ca22  1  0.26878572  0.63023551  0.25849993  1
  Ca  Ca23  1  0.26915629  0.63010886  0.75631903  1
  Ca  Ca24  1  0.77653179  0.11348574  0.24889179  1
  Ca  Ca25  1  0.78142048  0.12161168  0.75444256  1
  Ca  Ca26  1  0.77210559  0.62610480  0.25421206  1
  Ca  Ca27  1  0.77078596  0.62481208  0.75692555  1
  Mn  Mn0  1  0.99290934  0.99234397  0.75573573  1
  Mn  Mn1  1  0.00212604  0.50391801  0.24988649  1
  Mn  Mn2  1  0.00043230  0.50309140  0.74912345  1
  Mn  Mn3  1  0.50791166  0.98321956  0.23250788  1
  Mn  Mn4  1  0.50894412  0.98429810  0.73536855  1
  Mn  Mn5  1  0.50007412  0.50685660  0.25136603  1
  Mn  Mn6  1  0.49694842  0.50543351  0.75071952  1
  Mn  Mn7  1  0.24536377  0.99345576  0.50955934  1
  Mn  Mn8  1  0.24898222  0.51215956  0.00449928  1
  Mn  Mn9  1  0.24878571  0.50773332  0.50338043  1
  Mn  Mn10  1  0.74517956  0.99632977  0.99539727  1
  Mn  Mn11  1  0.74227502  0.99816755  0.49748355  1
  Mn  Mn12  1  0.75114569  0.50475323  0.00180060  1
  Mn  Mn13  1  0.74837952  0.50477862  0.50304402  1
  Mn  Mn14  1  0.26429933  0.24196769  0.47083928  1
  Mn  Mn15  1  0.25081249  0.75341234  0.00475851  1
  Mn  Mn16  1  0.25125778  0.75204237  0.50460516  1
  Mn  Mn17  1  0.75748440  0.24972807  0.00456248  1
  Mn  Mn18  1  0.74792717  0.25181057  0.50578980  1
  Mn  Mn19  1  0.75064083  0.74726810  0.00120394  1
  Mn  Mn20  1  0.75047709  0.74672299  0.50206362  1
  Mn  Mn21  1  0.99242847  0.25575930  0.76007347  1
  Mn  Mn22  1  0.00228142  0.74960675  0.25176671  1
  Mn  Mn23  1  0.00176442  0.74868451  0.75077679  1
  Mn  Mn24  1  0.52804624  0.25769076  0.25839898  1
  Mn  Mn25  1  0.51479385  0.25416105  0.74917001  1
  Mn  Mn26  1  0.50027086  0.74665767  0.25348532  1
  Mn  Mn27  1  0.50036095  0.74646546  0.75414061  1
  Cr  Cr0  1  0.99238973  0.99231802  0.25376607  1
  Cr  Cr1  1  0.23514139  0.99088716  0.00961327  1
  Cr  Cr2  1  0.26128017  0.23400357  0.93574550  1
  Cr  Cr3  1  0.97987819  0.25500272  0.26962749  1
  O  O0  1  0.10813956  0.77835407  0.10631454  1
  O  O1  1  0.10760325  0.77583473  0.60503713  1
  O  O2  1  0.58923762  0.25146270  0.09746224  1
  O  O3  1  0.58236255  0.25814888  0.58441553  1
  O  O4  1  0.61107038  0.76481566  0.11216444  1
  O  O5  1  0.61030566  0.76470957  0.61247563  1
  O  O6  1  0.40471115  0.20912952  0.35445403  1
  O  O7  1  0.39568429  0.18745446  0.85325900  1
  O  O8  1  0.39827697  0.72882077  0.39941529  1
  O  O9  1  0.39824108  0.72874852  0.90033039  1
  O  O10  1  0.90582441  0.24417180  0.42300427  1
  O  O11  1  0.91668020  0.23966879  0.92558876  1
  O  O12  1  0.89344050  0.72881505  0.39287499  1
  O  O13  1  0.89361653  0.73025254  0.89358931  1
  O  O14  1  0.14622342  0.24523867  0.33740027  1
  O  O15  1  0.17713066  0.25004418  0.79068105  1
  O  O16  1  0.14881619  0.73475387  0.35429800  1
  O  O17  1  0.14807568  0.73534555  0.85473064  1
  O  O18  1  0.66091576  0.21813248  0.35022592  1
  O  O19  1  0.65846258  0.22644371  0.85559827  1
  O  O20  1  0.64473376  0.72594044  0.35827062  1
  O  O21  1  0.64455816  0.72554074  0.85844980  1
  O  O22  1  0.35830872  0.77563658  0.14877511  1
  O  O23  1  0.35750387  0.77270942  0.64971226  1
  O  O24  1  0.84987839  0.27827319  0.15475917  1
  O  O25  1  0.84598547  0.27373438  0.65580580  1
  O  O26  1  0.86028381  0.76875226  0.14232371  1
  O  O27  1  0.86001229  0.76849801  0.64153700  1
  O  O28  1  0.36145602  0.48797856  0.13924556  1
  O  O29  1  0.35537290  0.49281436  0.64363328  1
  O  O30  1  0.35093115  0.99505136  0.15847288  1
  O  O31  1  0.34945459  0.99139128  0.66621184  1
  O  O32  1  0.86066549  0.48418726  0.14239945  1
  O  O33  1  0.85650441  0.48108455  0.64413348  1
  O  O34  1  0.84090293  0.97643139  0.14490655  1
  O  O35  1  0.84462805  0.98016108  0.64720227  1
  O  O36  1  0.14439557  0.00832199  0.36506911  1
  O  O37  1  0.14145232  0.01109752  0.86115569  1
  O  O38  1  0.14667263  0.52179497  0.35535795  1
  O  O39  1  0.14861577  0.51750457  0.85399204  1
  O  O40  1  0.62455141  0.02901600  0.34420571  1
  O  O41  1  0.63160706  0.02900250  0.84285268  1
  O  O42  1  0.64334214  0.52296299  0.35862581  1
  O  O43  1  0.64157104  0.51773597  0.85812288  1
  O  O44  1  0.39443073  0.51687847  0.39505208  1
  O  O45  1  0.39144299  0.51779536  0.89446838  1
  O  O46  1  0.87888447  0.01307556  0.39177486  1
  O  O47  1  0.88592648  0.01394688  0.89397374  1
  O  O48  1  0.89422748  0.51960905  0.39506985  1
  O  O49  1  0.89524484  0.51852849  0.89487235  1
  O  O50  1  0.10807849  0.47902822  0.10429512  1
  O  O51  1  0.10586333  0.47915152  0.60498514  1
  O  O52  1  0.09569551  0.98072859  0.10738011  1
  O  O53  1  0.09866532  0.98168521  0.61885540  1
  O  O54  1  0.61509421  0.48962742  0.11535644  1
  O  O55  1  0.60803268  0.48626863  0.61166232  1
  O  O56  1  0.58721765  0.99281640  0.07735750  1
  O  O57  1  0.58409727  0.99251882  0.57892820  1
  O  O58  1  0.00729106  0.38155665  0.28729017  1
  O  O59  1  0.01325862  0.37760868  0.78500839  1
  O  O60  1  0.00266393  0.86968301  0.29462450  1
  O  O61  1  0.00044105  0.87181340  0.79134027  1
  O  O62  1  0.50278792  0.37931938  0.27756278  1
  O  O63  1  0.48597826  0.37759895  0.76850019  1
  O  O64  1  0.51747202  0.86918589  0.29016869  1
  O  O65  1  0.51789955  0.86929529  0.79051149  1
  O  O66  1  0.48549607  0.62762487  0.21167530  1
  O  O67  1  0.48830041  0.62742397  0.71351644  1
  O  O68  1  0.99205449  0.12865081  0.22371225  1
  O  O69  1  0.00047520  0.13119632  0.72911803  1
  O  O70  1  0.99441253  0.62641932  0.21106989  1
  O  O71  1  0.99403037  0.62497811  0.71366357  1
  O  O72  1  0.21750924  0.13842030  0.01977792  1
  O  O73  1  0.25504631  0.12447592  0.52608588  1
  O  O74  1  0.23474400  0.63555156  0.04229028  1
  O  O75  1  0.23648084  0.63242644  0.53945458  1
  O  O76  1  0.75594695  0.12325477  0.03532053  1
  O  O77  1  0.74687182  0.12527900  0.54008660  1
  O  O78  1  0.74599417  0.62580222  0.03702187  1
  O  O79  1  0.74443289  0.62517182  0.54129747  1
  O  O80  1  0.27740355  0.35863664  0.50108007  1
  O  O81  1  0.27527137  0.32903181  0.01642925  1
  O  O82  1  0.28228366  0.87974747  0.46442556  1
  O  O83  1  0.28078405  0.88062197  0.96103124  1
  O  O84  1  0.74359519  0.37724982  0.46739652  1
  O  O85  1  0.74763965  0.37648116  0.96801754  1
  O  O86  1  0.74615522  0.87287768  0.46788700  1
  O  O87  1  0.74641048  0.87283945  0.96342199  1
loop_
_geom_bond_atom_site_label_1
_geom_bond_atom_site_label_2
_geom_bond_distance
_geom_bond_site_symmetry_2
Ca0 O47 2.251643 1_554
Ca0 O11 2.366110 1_554
Ca0 O68 2.369114 1_555
Ca0 O72 2.470387 1_655
Ca0 O52 2.544841 1_645
Ca0 O76 2.619160 1_555
Ca0 O37 2.747545 1_654
Ca1 O12 2.355663 1_455
Ca1 O71 2.370183 1_455
Ca1 O75 2.413156 1_555
Ca1 O48 2.421296 1_455
Ca1 O38 2.678114 1_555
Ca1 O16 2.681992 1_555
Ca1 O1 2.749556 1_555
Ca1 O51 2.780625 1_555
Ca2 O70 2.345571 1_456
Ca2 O13 2.350113 1_455
Ca2 O49 2.418162 1_455
Ca2 O74 2.420673 1_556
Ca2 O17 2.684297 1_555
Ca2 O39 2.748585 1_555
Ca2 O0 2.796019 1_556
Ca2 O50 2.799764 1_556
Ca3 O77 2.360059 1_555
Ca3 O40 2.363767 1_555
Ca3 O3 2.369530 1_555
Ca3 O6 2.370087 1_555
Ca3 O57 2.401887 1_545
Ca3 O18 2.439699 1_555
Ca4 O76 2.342269 1_556
Ca4 O7 2.345726 1_555
Ca4 O41 2.352227 1_555
Ca4 O2 2.353095 1_556
Ca4 O56 2.376258 1_546
Ca4 O19 2.410371 1_555
Ca5 O67 2.357818 1_555
Ca5 O8 2.365756 1_555
Ca5 O44 2.444764 1_555
Ca5 O79 2.457093 1_555
Ca5 O20 2.576832 1_555
Ca5 O42 2.585825 1_555
Ca5 O55 2.656577 1_555
Ca5 O5 2.672678 1_555
Ca6 O66 2.359941 1_556
Ca6 O9 2.366712 1_555
Ca6 O45 2.450733 1_555
Ca6 O78 2.456913 1_556
Ca6 O21 2.561162 1_555
Ca6 O43 2.610935 1_555
Ca6 O54 2.656612 1_556
Ca6 O4 2.684538 1_556
Ca7 O55 2.251982 1_555
Ca7 O80 2.407960 1_555
Ca7 O62 2.439123 1_555
Ca7 O3 2.474349 1_555
Ca7 O44 2.507722 1_555
Ca7 O29 2.684662 1_555
Ca7 O84 2.755540 1_555
Ca7 O63 2.908880 1_555
Ca8 O4 2.263309 1_555
Ca8 O65 2.305285 1_554
Ca8 O83 2.391493 1_554
Ca8 O56 2.477974 1_555
Ca8 O9 2.501982 1_554
Ca8 O22 2.538411 1_555
Ca8 O87 2.779316 1_554
Ca9 O5 2.258527 1_555
Ca9 O64 2.312607 1_555
Ca9 O82 2.371536 1_555
Ca9 O57 2.461152 1_555
Ca9 O8 2.510949 1_555
Ca9 O23 2.573382 1_555
Ca9 O86 2.766224 1_555
Ca10 O50 2.370967 1_655
Ca10 O85 2.398945 1_554
Ca10 O59 2.408029 1_654
Ca10 O32 2.451084 1_555
Ca10 O49 2.467174 1_554
Ca10 O11 2.502908 1_554
Ca10 O24 2.706840 1_555
Ca11 O51 2.361641 1_655
Ca11 O58 2.373964 1_655
Ca11 O84 2.427770 1_555
Ca11 O33 2.438105 1_555
Ca11 O48 2.470277 1_555
Ca11 O10 2.482999 1_555
Ca11 O25 2.776594 1_555
Ca12 O0 2.358291 1_655
Ca12 O61 2.369844 1_654
Ca12 O52 2.433099 1_655
Ca12 O87 2.458338 1_554
Ca12 O26 2.480413 1_555
Ca12 O34 2.631815 1_555
Ca12 O13 2.648919 1_554
Ca12 O47 2.693540 1_564
Ca13 O60 2.356170 1_655
Ca13 O1 2.370975 1_655
Ca13 O86 2.471234 1_555
Ca13 O53 2.482957 1_655
Ca13 O27 2.491787 1_555
Ca13 O35 2.642235 1_555
Ca13 O12 2.706606 1_555
Ca13 O46 2.713809 1_565
Ca14 O29 2.258695 1_555
Ca14 O51 2.398178 1_555
Ca14 O39 2.412862 1_555
Ca14 O15 2.450179 1_555
Ca14 O59 2.467369 1_555
Ca14 O80 2.745538 1_555
Ca14 O63 2.770448 1_555
Ca15 O82 2.357366 1_555
Ca15 O22 2.396619 1_555
Ca15 O60 2.453405 1_555
Ca15 O0 2.493032 1_555
Ca15 O16 2.529308 1_555
Ca15 O30 2.593383 1_555
Ca15 O36 2.611007 1_565
Ca15 O52 2.719757 1_555
Ca16 O83 2.371079 1_555
Ca16 O23 2.387976 1_555
Ca16 O61 2.476037 1_555
Ca16 O1 2.487174 1_555
Ca16 O31 2.497545 1_555
Ca16 O17 2.541039 1_555
Ca16 O53 2.616894 1_555
Ca16 O37 2.667771 1_565
Ca17 O32 2.271571 1_555
Ca17 O84 2.352776 1_555
Ca17 O24 2.403392 1_555
Ca17 O54 2.511383 1_555
Ca17 O42 2.578974 1_555
Ca17 O62 2.612089 1_555
Ca18 O33 2.305903 1_555
Ca18 O85 2.367330 1_555
Ca18 O25 2.390086 1_555
Ca18 O55 2.555772 1_555
Ca18 O43 2.571992 1_555
Ca18 O63 2.703825 1_555
Ca18 O19 2.867322 1_555
Ca19 O26 2.290733 1_555
Ca19 O86 2.332759 1_555
Ca19 O34 2.401402 1_555
Ca19 O64 2.488050 1_555
Ca19 O4 2.566512 1_555
Ca19 O20 2.628733 1_555
Ca19 O60 2.859130 1_655
Ca20 O27 2.290549 1_555
Ca20 O87 2.324181 1_555
Ca20 O35 2.424870 1_555
Ca20 O65 2.480630 1_555
Ca20 O5 2.549796 1_555
Ca20 O21 2.661971 1_555
Ca20 O61 2.847072 1_655
Ca21 O37 2.232854 1_555
Ca21 O73 2.297784 1_555
Ca21 O15 2.380393 1_555
Ca21 O31 2.385395 1_545
Ca21 O69 2.468885 1_555
Ca21 O7 2.574001 1_555
Ca21 O53 2.680310 1_545
Ca22 O16 2.346488 1_555
Ca22 O74 2.371114 1_555
Ca22 O38 2.397099 1_555
Ca22 O66 2.417032 1_555
Ca22 O8 2.570537 1_555
Ca22 O44 2.678365 1_555
Ca22 O22 2.743746 1_555
Ca22 O28 2.772279 1_555
Ca23 O17 2.373987 1_555
Ca23 O75 2.374816 1_555
Ca23 O67 2.433683 1_555
Ca23 O39 2.437921 1_555
Ca23 O9 2.588562 1_555
Ca23 O29 2.650405 1_555
Ca23 O45 2.658790 1_555
Ca23 O23 2.688268 1_555
Ca24 O76 2.329677 1_555
Ca24 O18 2.349358 1_555
Ca24 O40 2.357725 1_555
Ca24 O68 2.372857 1_555
Ca24 O46 2.465425 1_555
Ca24 O34 2.526426 1_545
Ca24 O24 2.881539 1_555
Ca25 O77 2.351274 1_555
Ca25 O41 2.382906 1_555
Ca25 O19 2.394892 1_555
Ca25 O69 2.404522 1_655
Ca25 O47 2.527869 1_555
Ca25 O35 2.597189 1_545
Ca25 O25 2.699205 1_555
Ca26 O78 2.369297 1_555
Ca26 O20 2.385116 1_555
Ca26 O42 2.419391 1_555
Ca26 O70 2.467560 1_555
Ca26 O12 2.549375 1_555
Ca26 O48 2.615379 1_555
Ca26 O26 2.713625 1_555
Ca26 O32 2.714222 1_555
Ca27 O79 2.352772 1_555
Ca27 O21 2.373937 1_555
Ca27 O43 2.447246 1_555
Ca27 O71 2.477840 1_555
Ca27 O13 2.572064 1_555
Ca27 O49 2.608126 1_555
Ca27 O33 2.731170 1_555
Ca27 O27 2.748231 1_555
Mn0 O53 1.897402 1_655
Mn0 O61 1.924212 1_655
Mn0 O47 1.940180 1_565
Mn0 O37 1.986940 1_665
Mn0 O35 1.992043 1_555
Mn0 O69 2.189532 1_665
Mn1 O32 1.941004 1_455
Mn1 O38 1.950541 1_555
Mn1 O58 1.955176 1_555
Mn1 O70 1.961619 1_455
Mn1 O48 1.991690 1_455
Mn1 O50 2.005931 1_555
Mn2 O71 1.944124 1_455
Mn2 O33 1.952174 1_455
Mn2 O39 1.971868 1_555
Mn2 O49 1.978594 1_455
Mn2 O51 1.987201 1_555
Mn2 O59 2.003959 1_555
Mn3 O40 1.880683 1_565
Mn3 O30 1.886828 1_555
Mn3 O64 1.891172 1_555
Mn3 O56 1.906306 1_555
Mn4 O31 1.884195 1_555
Mn4 O41 1.890451 1_565
Mn4 O65 1.896310 1_555
Mn4 O57 1.896869 1_555
Mn5 O66 1.942170 1_555
Mn5 O28 1.945359 1_555
Mn5 O42 1.947151 1_555
Mn5 O44 1.954680 1_555
Mn5 O54 1.965658 1_555
Mn5 O62 2.012934 1_555
Mn6 O29 1.925437 1_555
Mn6 O67 1.950635 1_555
Mn6 O43 1.953290 1_555
Mn6 O45 1.957718 1_555
Mn6 O55 1.968281 1_555
Mn6 O63 2.009335 1_555
Mn7 O82 1.889228 1_555
Mn7 O36 1.916818 1_565
Mn7 O53 2.007003 1_555
Mn7 O31 2.029765 1_555
Mn7 O73 2.056515 1_565
Mn8 O28 1.932329 1_555
Mn8 O39 1.954002 1_554
Mn8 O50 1.954407 1_555
Mn8 O45 1.968973 1_554
Mn8 O74 1.977983 1_555
Mn9 O29 1.915601 1_555
Mn9 O38 1.953414 1_555
Mn9 O51 1.965783 1_555
Mn9 O44 1.988335 1_555
Mn9 O75 1.992357 1_555
Mn9 O80 2.351844 1_555
Mn10 O47 1.914630 1_565
Mn10 O34 1.941728 1_556
Mn10 O56 1.944374 1_556
Mn10 O87 1.960137 1_555
Mn10 O76 2.031800 1_566
Mn10 O41 2.116191 1_565
Mn11 O46 1.901181 1_565
Mn11 O57 1.944905 1_555
Mn11 O35 1.977918 1_555
Mn11 O86 1.984108 1_555
Mn11 O77 2.038834 1_565
Mn11 O40 2.141840 1_565
Mn12 O78 1.930394 1_555
Mn12 O54 1.950277 1_555
Mn12 O32 1.950592 1_555
Mn12 O43 1.960692 1_554
Mn12 O49 1.971949 1_554
Mn12 O85 2.037023 1_554
Mn13 O79 1.926727 1_555
Mn13 O42 1.948508 1_555
Mn13 O33 1.954501 1_555
Mn13 O55 1.959826 1_555
Mn13 O48 1.995747 1_555
Mn13 O84 2.029544 1_555
Mn14 O80 1.856096 1_555
Mn14 O14 1.923130 1_555
Mn14 O73 1.933389 1_555
Mn14 O6 2.060481 1_555
Mn15 O74 1.893323 1_555
Mn15 O0 1.954993 1_555
Mn15 O22 1.968381 1_555
Mn15 O17 1.981082 1_554
Mn15 O9 2.013504 1_554
Mn15 O83 2.068107 1_554
Mn16 O75 1.912800 1_555
Mn16 O1 1.953042 1_555
Mn16 O23 1.965794 1_555
Mn16 O16 1.980129 1_555
Mn16 O8 2.010388 1_555
Mn16 O82 2.068800 1_555
Mn17 O11 1.948098 1_554
Mn17 O24 1.953014 1_555
Mn17 O19 1.962746 1_554
Mn17 O76 2.003808 1_555
Mn17 O85 2.022690 1_554
Mn17 O2 2.099931 1_555
Mn18 O10 1.951730 1_555
Mn18 O25 1.962746 1_555
Mn18 O18 1.992869 1_555
Mn18 O84 2.004160 1_555
Mn18 O3 2.004610 1_555
Mn18 O77 2.011445 1_555
Mn19 O78 1.937479 1_555
Mn19 O21 1.947337 1_554
Mn19 O26 1.955670 1_555
Mn19 O4 1.969221 1_555
Mn19 O13 1.975015 1_554
Mn19 O87 2.004783 1_554
Mn20 O27 1.941933 1_555
Mn20 O79 1.946977 1_555
Mn20 O20 1.951637 1_555
Mn20 O5 1.971632 1_555
Mn20 O12 1.987196 1_555
Mn20 O86 2.006137 1_555
Mn21 O59 1.934118 1_655
Mn21 O25 1.962590 1_555
Mn21 O69 1.977208 1_655
Mn21 O11 2.000116 1_555
Mn21 O15 2.033506 1_655
Mn22 O60 1.932405 1_555
Mn22 O16 1.946141 1_555
Mn22 O26 1.959674 1_455
Mn22 O12 1.972479 1_455
Mn22 O70 1.975391 1_455
Mn22 O0 2.014022 1_555
Mn23 O17 1.950089 1_555
Mn23 O27 1.957950 1_455
Mn23 O61 1.973242 1_555
Mn23 O71 1.974980 1_455
Mn23 O13 1.976872 1_455
Mn23 O1 2.011037 1_555
Mn24 O18 1.853223 1_555
Mn24 O6 1.866332 1_555
Mn24 O2 1.878836 1_555
Mn24 O62 1.932948 1_555
Mn25 O3 1.941783 1_555
Mn25 O63 1.967022 1_555
Mn25 O19 1.980299 1_555
Mn25 O7 2.014863 1_555
Mn26 O66 1.919214 1_555
Mn26 O20 1.955366 1_555
Mn26 O22 1.959671 1_555
Mn26 O64 1.962285 1_555
Mn26 O8 1.963281 1_555
Mn26 O4 1.981144 1_555
Mn27 O67 1.914374 1_555
Mn27 O21 1.950675 1_555
Mn27 O23 1.955945 1_555
Mn27 O9 1.966102 1_555
Mn27 O65 1.966522 1_555
Mn27 O5 1.978538 1_555
Cr0 O52 1.965590 1_655
Cr0 O60 1.969981 1_655
Cr0 O46 1.980109 1_565
Cr0 O34 2.028069 1_555
Cr0 O36 2.048057 1_665
Cr0 O68 2.154672 1_565
Cr1 O52 1.867242 1_555
Cr1 O83 1.872821 1_554
Cr1 O37 1.921497 1_564
Cr1 O30 2.035368 1_555
Cr1 O72 2.316539 1_565
Cr2 O81 1.728026 1_556
Cr2 O72 1.813925 1_556
Cr2 O15 1.827999 1_555
Cr2 O7 1.873567 1_555
Cr3 O10 1.864842 1_555
Cr3 O24 1.908673 1_555
Cr3 O14 1.950169 1_655
Cr3 O58 2.006338 1_655
Cr3 O68 2.041058 1_555
O2 Sr1 2.552496 1_554
O6 Sr3 2.620288 1_555
O10 Sr0 2.448053 1_655
O14 Sr3 2.423620 1_555
O14 Sr2 2.588860 1_555
O14 Sr0 3.135856 1_555
O28 Sr2 2.427895 1_555
O28 Sr1 2.672870 1_554
O30 Sr3 2.509124 1_565
O35 Sr0 3.139381 1_665
O36 Sr3 2.376596 1_555
O36 Sr0 2.704346 1_555
O38 Sr2 2.573997 1_555
O43 Sr1 2.996581 1_555
O44 Sr2 2.996263 1_555
O45 Sr1 2.625957 1_555
O46 Sr0 2.366949 1_655
O50 Sr2 2.628494 1_555
O52 Sr3 2.988901 1_565
O53 Sr0 2.638576 1_565
O54 Sr1 2.383638 1_554
O58 Sr2 2.563429 1_555
O62 Sr2 2.855412 1_555
O62 Sr1 3.014424 1_554
O63 Sr1 2.515397 1_555
O68 Sr3 2.624923 1_655
O68 Sr0 3.013416 1_655
O69 Sr0 2.494830 1_555
O72 Sr3 2.447628 1_555
O73 Sr0 2.756340 1_555
O77 Sr0 2.828295 1_655
O80 Sr2 2.692569 1_555
O81 Sr1 2.601451 1_554
O81 Sr2 2.809493 1_555
O85 Sr1 2.728555 1_555
