# generated using pymatgen
data_Mg(FeO2)4
_symmetry_space_group_name_H-M   'P 1'
_cell_length_a   5.98975982
_cell_length_b   5.98975982
_cell_length_c   5.98975981
_cell_angle_alpha   58.65820068
_cell_angle_beta   58.65820068
_cell_angle_gamma   58.65820160
_symmetry_Int_Tables_number   1
_chemical_formula_structural   Mg(FeO2)4
_chemical_formula_sum   'Mg1 Fe4 O8'
_cell_volume   147.29433653
_cell_formula_units_Z   1
loop_
 _symmetry_equiv_pos_site_id
 _symmetry_equiv_pos_as_xyz
  1  'x, y, z'
loop_
 _atom_site_type_symbol
 _atom_site_label
 _atom_site_symmetry_multiplicity
 _atom_site_fract_x
 _atom_site_fract_y
 _atom_site_fract_z
 _atom_site_occupancy
  Mg  Mg0  1  0.50000000  0.50000000  0.50000000  1
  Fe  Fe0  1  0.00000000  0.50000000  0.50000000  1
  Fe  Fe1  1  0.50000000  0.00000000  0.50000000  1
  Fe  Fe2  1  0.50000000  0.50000000  0.00000000  1
  Fe  Fe3  1  0.00000000  0.00000000  0.00000000  1
  O  O0  1  0.27966200  0.75491700  0.75491700  1
  O  O1  1  0.24508300  0.24508300  0.72033800  1
  O  O2  1  0.72033800  0.24508300  0.24508300  1
  O  O3  1  0.24508300  0.72033800  0.24508300  1
  O  O4  1  0.26643200  0.26643200  0.26643200  1
  O  O5  1  0.73356800  0.73356800  0.73356800  1
  O  O6  1  0.75491700  0.27966200  0.75491700  1
  O  O7  1  0.75491700  0.75491700  0.27966200  1
loop_
_geom_bond_atom_site_label_1
_geom_bond_atom_site_label_2
_geom_bond_distance
_geom_bond_site_symmetry_2
Mg0 O7 2.153429 1_555
Mg0 O1 2.153429 1_555
Mg0 O6 2.153429 1_555
Mg0 O0 2.153429 1_555
Mg0 O2 2.153429 1_555
Mg0 O3 2.153429 1_555
Fe0 O3 1.953346 1_555
Fe0 O6 1.953346 1_455
Fe0 O1 1.953346 1_555
Fe0 O7 1.953346 1_455
Fe0 O4 1.962704 1_555
Fe0 O5 1.962704 1_455
Fe1 O2 1.953346 1_555
Fe1 O0 1.953346 1_545
Fe1 O1 1.953346 1_555
Fe1 O7 1.953346 1_545
Fe1 O5 1.962704 1_545
Fe1 O4 1.962704 1_555
Fe2 O2 1.953346 1_555
Fe2 O3 1.953346 1_555
Fe2 O6 1.953346 1_554
Fe2 O0 1.953346 1_554
Fe2 O4 1.962704 1_555
Fe2 O5 1.962704 1_554
Fe3 O7 2.059507 1_445
Fe3 O1 2.059507 1_554
Fe3 O6 2.059507 1_454
Fe3 O0 2.059507 1_544
Fe3 O3 2.059507 1_545
Fe3 O2 2.059507 1_455
