# generated using pymatgen
data_LiBi2As2(PbO5)2
_symmetry_space_group_name_H-M   'P 1'
_cell_length_a   5.91313949
_cell_length_b   9.12034362
_cell_length_c   7.52271115
_cell_angle_alpha   118.17420857
_cell_angle_beta   117.73321972
_cell_angle_gamma   86.82180671
_symmetry_Int_Tables_number   1
_chemical_formula_structural   LiBi2As2(PbO5)2
_chemical_formula_sum   'Li1 Bi2 As2 Pb2 O10'
_cell_volume   309.45123273
_cell_formula_units_Z   1
loop_
 _symmetry_equiv_pos_site_id
 _symmetry_equiv_pos_as_xyz
  1  'x, y, z'
loop_
 _atom_site_type_symbol
 _atom_site_label
 _atom_site_symmetry_multiplicity
 _atom_site_fract_x
 _atom_site_fract_y
 _atom_site_fract_z
 _atom_site_occupancy
  Li  Li0  1  0.00000000  0.00000000  0.00000000  1
  Bi  Bi0  1  0.09833600  0.31035000  0.97354100  1
  Bi  Bi1  1  0.90166300  0.68965000  0.02645900  1
  As  As0  1  0.64684000  0.66045800  0.38466200  1
  As  As1  1  0.35316000  0.33954200  0.61533800  1
  Pb  Pb0  1  0.31042000  0.81455100  0.70672600  1
  Pb  Pb1  1  0.68958000  0.18544900  0.29327400  1
  O  O0  1  0.14631800  0.29103300  0.33040300  1
  O  O1  1  0.38855800  0.76098500  0.35775400  1
  O  O2  1  0.85368200  0.70896700  0.66959700  1
  O  O3  1  0.53306800  0.44020800  0.19884700  1
  O  O4  1  0.14499300  0.26673500  0.67513400  1
  O  O5  1  0.85500700  0.73326500  0.32486600  1
  O  O6  1  0.24461300  0.07334400  0.94424500  1
  O  O7  1  0.75538700  0.92665600  0.05575500  1
  O  O8  1  0.46693200  0.55979200  0.80115300  1
  O  O9  1  0.61144200  0.23901500  0.64224600  1
loop_
_geom_bond_atom_site_label_1
_geom_bond_atom_site_label_2
_geom_bond_distance
_geom_bond_site_symmetry_2
Li0 O6 1.911126 1_554
Li0 O7 1.911126 1_445
Li0 O2 2.448477 1_444
Li0 O0 2.448477 1_555
Bi0 O6 2.233693 1_555
Bi0 O4 2.234866 1_555
Bi0 O3 2.295750 1_556
Bi0 O9 2.630965 1_455
Bi0 O0 2.655302 1_556
Bi1 O7 2.233690 1_555
Bi1 O5 2.234862 1_555
Bi1 O8 2.295745 1_554
Bi1 O1 2.630969 1_655
Bi1 O2 2.655304 1_554
As0 O1 1.716492 1_555
As0 O2 1.735132 1_555
As0 O5 1.745414 1_555
As0 O3 1.750633 1_555
As1 O9 1.716492 1_555
As1 O0 1.735132 1_555
As1 O4 1.745414 1_555
As1 O8 1.750633 1_555
O0 Pb1 2.762553 1_455
O1 Pb0 2.690111 1_555
O2 Pb0 2.762553 1_655
O3 Pb1 2.732760 1_555
O4 Pb1 2.657816 1_455
O5 Pb0 2.657816 1_655
O6 Pb0 2.340464 1_545
O6 Pb1 2.489138 1_556
O7 Pb1 2.340464 1_565
O7 Pb0 2.489138 1_554
O8 Pb0 2.732760 1_555
O9 Pb1 2.690111 1_555
