# generated using pymatgen
data_U2PbS5
_symmetry_space_group_name_H-M   'P 1'
_cell_length_a   7.40258700
_cell_length_b   7.71518500
_cell_length_c   12.30939900
_cell_angle_alpha   90.00000000
_cell_angle_beta   90.00000000
_cell_angle_gamma   90.00000000
_symmetry_Int_Tables_number   1
_chemical_formula_structural   U2PbS5
_chemical_formula_sum   'U8 Pb4 S20'
_cell_volume   703.01843543
_cell_formula_units_Z   4
loop_
 _symmetry_equiv_pos_site_id
 _symmetry_equiv_pos_as_xyz
  1  'x, y, z'
loop_
 _atom_site_type_symbol
 _atom_site_label
 _atom_site_symmetry_multiplicity
 _atom_site_fract_x
 _atom_site_fract_y
 _atom_site_fract_z
 _atom_site_occupancy
  U  U0  1  0.51484000  0.50250400  0.32143400  1
  U  U1  1  0.98516000  0.99749600  0.82143400  1
  U  U2  1  0.48516000  0.00250400  0.67856600  1
  U  U3  1  0.01484000  0.49749600  0.17856600  1
  U  U4  1  0.48516000  0.49749600  0.67856600  1
  U  U5  1  0.01484000  0.00250400  0.17856600  1
  U  U6  1  0.51484000  0.99749600  0.32143400  1
  U  U7  1  0.98516000  0.50250400  0.82143400  1
  Pb  Pb0  1  0.05932100  0.75000000  0.49148600  1
  Pb  Pb1  1  0.44067900  0.75000000  0.99148600  1
  Pb  Pb2  1  0.94067900  0.25000000  0.50851400  1
  Pb  Pb3  1  0.55932100  0.25000000  0.00851400  1
  S  S0  1  0.83249700  0.96487600  0.62324300  1
  S  S1  1  0.66750300  0.53512400  0.12324300  1
  S  S2  1  0.16750300  0.46487600  0.37675700  1
  S  S3  1  0.33249700  0.03512400  0.87675700  1
  S  S4  1  0.16750300  0.03512400  0.37675700  1
  S  S5  1  0.33249700  0.46487600  0.87675700  1
  S  S6  1  0.83249700  0.53512400  0.62324300  1
  S  S7  1  0.66750300  0.96487600  0.12324300  1
  S  S8  1  0.82105600  0.75000000  0.30912900  1
  S  S9  1  0.67894400  0.75000000  0.80912900  1
  S  S10  1  0.17894400  0.25000000  0.69087100  1
  S  S11  1  0.32105600  0.25000000  0.19087100  1
  S  S12  1  0.48440100  0.75000000  0.49629800  1
  S  S13  1  0.01559900  0.75000000  0.99629800  1
  S  S14  1  0.51559900  0.25000000  0.50370200  1
  S  S15  1  0.98440100  0.25000000  0.00370200  1
  S  S16  1  0.20044800  0.75000000  0.71312200  1
  S  S17  1  0.29955200  0.75000000  0.21312200  1
  S  S18  1  0.79955200  0.25000000  0.28687800  1
  S  S19  1  0.70044800  0.25000000  0.78687800  1
loop_
_geom_bond_atom_site_label_1
_geom_bond_atom_site_label_2
_geom_bond_distance
_geom_bond_site_symmetry_2
Pb0 S4 2.734010 1_565
Pb0 S2 2.734010 1_555
Pb0 S8 2.854752 1_455
Pb0 S6 2.863223 1_455
Pb0 S0 2.863223 1_455
Pb0 S16 2.921389 1_555
Pb0 S12 3.147249 1_555
Pb1 S3 2.734010 1_565
Pb1 S5 2.734010 1_555
Pb1 S9 2.854752 1_555
Pb1 S7 2.863223 1_556
Pb1 S1 2.863223 1_556
Pb1 S17 2.921389 1_556
Pb1 S13 3.147249 1_555
Pb2 S6 2.734010 1_555
Pb2 S0 2.734010 1_545
Pb2 S10 2.854752 1_655
Pb2 S4 2.863223 1_655
Pb2 S2 2.863223 1_655
Pb2 S18 2.921389 1_555
Pb2 S14 3.147249 1_555
Pb3 S1 2.734010 1_555
Pb3 S7 2.734010 1_545
Pb3 S11 2.854752 1_555
Pb3 S3 2.863223 1_554
Pb3 S5 2.863223 1_554
Pb3 S19 2.921389 1_554
Pb3 S15 3.147249 1_555
S0 U2 2.675642 1_565
S0 U1 2.700402 1_555
S1 U3 2.675642 1_655
S1 U0 2.700402 1_555
S2 U0 2.675642 1_555
S2 U3 2.700402 1_555
S3 U1 2.675642 1_445
S3 U2 2.700402 1_555
S4 U6 2.675642 1_545
S4 U5 2.700402 1_555
S5 U7 2.675642 1_455
S5 U4 2.700402 1_555
S6 U4 2.675642 1_555
S6 U7 2.700402 1_555
S7 U5 2.675642 1_665
S7 U6 2.700402 1_555
S8 U5 2.904460 1_665
S8 U3 2.904460 1_655
S8 U6 2.967724 1_555
S8 U0 2.967724 1_555
S9 U4 2.904460 1_555
S9 U2 2.904460 1_565
S9 U1 2.967724 1_555
S9 U7 2.967724 1_555
S10 U1 2.904460 1_445
S10 U7 2.904460 1_455
S10 U2 2.967724 1_555
S10 U4 2.967724 1_555
S11 U6 2.904460 1_545
S11 U0 2.904460 1_555
S11 U3 2.967724 1_555
S11 U5 2.967724 1_555
S12 U6 2.886175 1_555
S12 U0 2.886175 1_555
S12 U4 2.971358 1_555
S12 U2 2.971358 1_565
S13 U7 2.886175 1_455
S13 U1 2.886175 1_455
S13 U3 2.971358 1_556
S13 U5 2.971358 1_566
S14 U4 2.886175 1_555
S14 U2 2.886175 1_555
S14 U6 2.971358 1_545
S14 U0 2.971358 1_555
S15 U3 2.886175 1_655
S15 U5 2.886175 1_655
S15 U1 2.971358 1_544
S15 U7 2.971358 1_554
S16 U1 2.821970 1_455
S16 U7 2.821970 1_455
S16 U4 2.901394 1_555
S16 U2 2.901394 1_565
S17 U6 2.821970 1_555
S17 U0 2.821970 1_555
S17 U3 2.901394 1_555
S17 U5 2.901394 1_565
S18 U3 2.821970 1_655
S18 U5 2.821970 1_655
S18 U6 2.901394 1_545
S18 U0 2.901394 1_555
S19 U4 2.821970 1_555
S19 U2 2.821970 1_555
S19 U1 2.901394 1_545
S19 U7 2.901394 1_555
