# generated using pymatgen
data_Sm2Ru2O7
_symmetry_space_group_name_H-M   'P 1'
_cell_length_a   7.27898173
_cell_length_b   7.27899714
_cell_length_c   7.27707079
_cell_angle_alpha   60.00908164
_cell_angle_beta   60.00901669
_cell_angle_gamma   59.98468486
_symmetry_Int_Tables_number   1
_chemical_formula_structural   Sm2Ru2O7
_chemical_formula_sum   'Sm4 Ru4 O14'
_cell_volume   272.64206523
_cell_formula_units_Z   2
loop_
 _symmetry_equiv_pos_site_id
 _symmetry_equiv_pos_as_xyz
  1  'x, y, z'
loop_
 _atom_site_type_symbol
 _atom_site_label
 _atom_site_symmetry_multiplicity
 _atom_site_fract_x
 _atom_site_fract_y
 _atom_site_fract_z
 _atom_site_occupancy
  Sm  Sm0  1  0.62500188  0.62499751  0.62500066  1
  Sm  Sm1  1  0.12499829  0.62499950  0.62500143  1
  Sm  Sm2  1  0.62500178  0.62499736  0.12499987  1
  Sm  Sm3  1  0.62500190  0.12500131  0.62499828  1
  Ru  Ru0  1  0.12499410  0.12500605  0.12500022  1
  Ru  Ru1  1  0.62500100  0.12500499  0.12499659  1
  Ru  Ru2  1  0.12499349  0.12500488  0.62499829  1
  Ru  Ru3  1  0.12500061  0.62499622  0.12500133  1
  O  O0  1  0.49999689  0.49999514  0.50000393  1
  O  O1  1  0.75000275  0.75000506  0.74999598  1
  O  O2  1  0.04028506  0.04028442  0.45972093  1
  O  O3  1  0.79026610  0.79026586  0.20973290  1
  O  O4  1  0.45709496  0.04289792  0.45711648  1
  O  O5  1  0.45709959  0.04289774  0.04289205  1
  O  O6  1  0.04289824  0.45709517  0.45711433  1
  O  O7  1  0.04289851  0.45709944  0.04289311  1
  O  O8  1  0.45973160  0.45973466  0.04026687  1
  O  O9  1  0.20710279  0.79290414  0.79288545  1
  O  O10  1  0.79290376  0.20709951  0.20710618  1
  O  O11  1  0.20971743  0.20971451  0.79028148  1
  O  O12  1  0.20710380  0.79290035  0.20710741  1
  O  O13  1  0.79290644  0.20709926  0.79288721  1
loop_
_geom_bond_atom_site_label_1
_geom_bond_atom_site_label_2
_geom_bond_distance
_geom_bond_site_symmetry_2
O0 Sm3 2.228536 1_555
O0 Sm0 2.228539 1_555
O0 Sm2 2.228554 1_555
O0 Sm1 2.228558 1_555
O1 Sm0 2.228537 1_555
O1 Sm1 2.228540 1_655
O1 Sm3 2.228551 1_565
O1 Sm2 2.228553 1_556
O2 Ru2 2.017513 1_555
O2 Ru0 2.017617 1_555
O2 Sm3 2.491237 1_455
O2 Sm1 2.491259 1_545
O3 Ru3 2.017716 1_655
O3 Ru1 2.017742 1_565
O3 Sm2 2.491069 1_555
O3 Sm0 2.491096 1_555
O4 Ru2 2.006345 1_555
O4 Ru1 2.006446 1_555
O4 Sm3 2.509350 1_555
O4 Sm0 2.509465 1_545
O5 Ru0 2.006372 1_555
O5 Ru1 2.006391 1_555
O5 Sm3 2.509376 1_554
O5 Sm2 2.509464 1_545
O6 Ru2 2.006292 1_555
O6 Ru3 2.006404 1_555
O6 Sm1 2.509350 1_555
O6 Sm0 2.509435 1_455
O7 Ru0 2.006314 1_555
O7 Ru3 2.006353 1_555
O7 Sm1 2.509367 1_554
O7 Sm2 2.509436 1_455
O8 Ru3 2.017688 1_555
O8 Ru1 2.017694 1_555
O8 Sm2 2.491069 1_555
O8 Sm0 2.491088 1_554
O9 Ru2 2.006353 1_565
O9 Ru3 2.006427 1_556
O9 Sm1 2.509357 1_555
O9 Sm0 2.509452 1_555
O10 Ru0 2.006292 1_655
O10 Ru1 2.006358 1_555
O10 Sm3 2.509370 1_555
O10 Sm2 2.509450 1_555
O11 Ru2 2.017577 1_555
O11 Ru0 2.017603 1_556
O11 Sm3 2.491249 1_555
O11 Sm1 2.491254 1_555
O12 Ru0 2.006379 1_565
O12 Ru3 2.006396 1_555
O12 Sm1 2.509376 1_555
O12 Sm2 2.509443 1_555
O13 Ru2 2.006274 1_655
O13 Ru1 2.006388 1_556
O13 Sm3 2.509351 1_555
O13 Sm0 2.509454 1_555
