# generated using pymatgen
data_Nb2MoRu
_symmetry_space_group_name_H-M   'P 1'
_cell_length_a   4.52494815
_cell_length_b   4.52494815
_cell_length_c   4.52494815
_cell_angle_alpha   60.00000000
_cell_angle_beta   60.00000000
_cell_angle_gamma   60.00000000
_symmetry_Int_Tables_number   1
_chemical_formula_structural   Nb2MoRu
_chemical_formula_sum   'Nb2 Mo1 Ru1'
_cell_volume   65.51274894
_cell_formula_units_Z   1
loop_
 _symmetry_equiv_pos_site_id
 _symmetry_equiv_pos_as_xyz
  1  'x, y, z'
loop_
 _atom_site_type_symbol
 _atom_site_label
 _atom_site_symmetry_multiplicity
 _atom_site_fract_x
 _atom_site_fract_y
 _atom_site_fract_z
 _atom_site_occupancy
  Nb  Nb0  1  0.25000000  0.25000000  0.25000000  1
  Nb  Nb1  1  0.75000000  0.75000000  0.75000000  1
  Mo  Mo0  1  0.50000000  0.50000000  0.50000000  1
  Ru  Ru0  1  -0.00000000  -0.00000000  0.00000000  1
loop_
_geom_bond_atom_site_label_1
_geom_bond_atom_site_label_2
_geom_bond_distance
_geom_bond_site_symmetry_2
Nb0 Ru0 2.770954 1_655
Nb0 Ru0 2.770954 1_556
Nb0 Ru0 2.770954 1_555
Nb0 Ru0 2.770954 1_565
Nb1 Ru0 2.770954 1_566
Nb1 Ru0 2.770954 1_666
Nb1 Ru0 2.770954 1_665
Nb1 Ru0 2.770954 1_656
Mo0 Nb1 2.770954 1_455
Mo0 Nb0 2.770954 1_655
Mo0 Nb0 2.770954 1_556
Mo0 Nb0 2.770954 1_555
Mo0 Nb0 2.770954 1_565
Mo0 Nb1 2.770954 1_555
Mo0 Nb1 2.770954 1_554
Mo0 Nb1 2.770954 1_545
