# generated using pymatgen
data_Ca3MnCuO6
_symmetry_space_group_name_H-M   'P 1'
_cell_length_a   9.23199600
_cell_length_b   6.42370300
_cell_length_c   10.76903512
_cell_angle_alpha   56.43554019
_cell_angle_beta   90.00000000
_cell_angle_gamma   90.00000000
_symmetry_Int_Tables_number   1
_chemical_formula_structural   Ca3MnCuO6
_chemical_formula_sum   'Ca12 Mn4 Cu4 O24'
_cell_volume   532.15807093
_cell_formula_units_Z   4
loop_
 _symmetry_equiv_pos_site_id
 _symmetry_equiv_pos_as_xyz
  1  'x, y, z'
loop_
 _atom_site_type_symbol
 _atom_site_label
 _atom_site_symmetry_multiplicity
 _atom_site_fract_x
 _atom_site_fract_y
 _atom_site_fract_z
 _atom_site_occupancy
  Ca  Ca0  1  0.93011500  0.72666800  0.17141900  1
  Ca  Ca1  1  0.06988500  0.27333200  0.82858100  1
  Ca  Ca2  1  0.43343600  0.20795900  0.68169600  1
  Ca  Ca3  1  0.56656400  0.79204100  0.31830400  1
  Ca  Ca4  1  0.88534800  0.75316800  0.50261500  1
  Ca  Ca5  1  0.11465200  0.24683200  0.49738500  1
  Ca  Ca6  1  0.93343600  0.79204100  0.81830400  1
  Ca  Ca7  1  0.06656400  0.20795900  0.18169600  1
  Ca  Ca8  1  0.61465200  0.75316800  0.00261500  1
  Ca  Ca9  1  0.38534800  0.24683200  0.99738500  1
  Ca  Ca10  1  0.43011500  0.27333200  0.32858100  1
  Ca  Ca11  1  0.56988500  0.72666800  0.67141900  1
  Mn  Mn0  1  0.75238800  0.23498300  0.75331200  1
  Mn  Mn1  1  0.24761200  0.76501700  0.24668800  1
  Mn  Mn2  1  0.74761200  0.23498300  0.25331200  1
  Mn  Mn3  1  0.25238800  0.76501700  0.74668800  1
  Cu  Cu0  1  0.77607000  0.33566600  0.46975400  1
  Cu  Cu1  1  0.22393000  0.66433400  0.53024600  1
  Cu  Cu2  1  0.72393000  0.33566600  0.96975400  1
  Cu  Cu3  1  0.27607000  0.66433400  0.03024600  1
  O  O0  1  0.68038100  0.51209800  0.26872900  1
  O  O1  1  0.31961900  0.48790200  0.73127100  1
  O  O2  1  0.18038100  0.48790200  0.23127100  1
  O  O3  1  0.81961900  0.51209800  0.76872900  1
  O  O4  1  0.85988400  0.00631100  0.92867400  1
  O  O5  1  0.14011600  0.99368900  0.07132600  1
  O  O6  1  0.82074900  0.96341500  0.24885200  1
  O  O7  1  0.17925100  0.03658500  0.75114800  1
  O  O8  1  0.58576300  0.27961300  0.12660700  1
  O  O9  1  0.41423700  0.72038700  0.87339300  1
  O  O10  1  0.41140200  0.77789000  0.12843100  1
  O  O11  1  0.58859800  0.22211000  0.87156900  1
  O  O12  1  0.34675800  0.52682100  0.43637200  1
  O  O13  1  0.65324200  0.47317900  0.56362800  1
  O  O14  1  0.84675800  0.47317900  0.06362800  1
  O  O15  1  0.15324200  0.52682100  0.93637200  1
  O  O16  1  0.64011600  0.00631100  0.42867400  1
  O  O17  1  0.35988400  0.99368900  0.57132600  1
  O  O18  1  0.67925100  0.96341500  0.74885200  1
  O  O19  1  0.32074900  0.03658500  0.25114800  1
  O  O20  1  0.91140200  0.22211000  0.37156900  1
  O  O21  1  0.08859800  0.77789000  0.62843100  1
  O  O22  1  0.91423700  0.27961300  0.62660700  1
  O  O23  1  0.08576300  0.72038700  0.37339300  1
loop_
_geom_bond_atom_site_label_1
_geom_bond_atom_site_label_2
_geom_bond_distance
_geom_bond_site_symmetry_2
Ca0 O4 2.299663 1_564
Ca0 O6 2.330205 1_555
Ca0 O5 2.412108 1_655
Ca0 O14 2.584808 1_555
Ca0 O23 2.588494 1_655
Ca0 O0 2.591593 1_555
Ca0 O2 2.648196 1_655
Ca0 O20 2.730540 1_555
Ca1 O5 2.299663 1_546
Ca1 O7 2.330205 1_555
Ca1 O4 2.412108 1_455
Ca1 O15 2.584808 1_555
Ca1 O22 2.588494 1_455
Ca1 O1 2.591593 1_555
Ca1 O3 2.648196 1_455
Ca1 O21 2.730540 1_555
Ca2 O17 2.361624 1_545
Ca2 O1 2.384212 1_555
Ca2 O12 2.414918 1_555
Ca2 O13 2.498358 1_555
Ca2 O7 2.523399 1_555
Ca2 O11 2.539038 1_555
Ca2 O18 2.623831 1_545
Ca2 O9 2.636893 1_545
Ca3 O16 2.361624 1_565
Ca3 O0 2.384212 1_555
Ca3 O13 2.414918 1_555
Ca3 O12 2.498358 1_555
Ca3 O6 2.523399 1_555
Ca3 O10 2.539038 1_555
Ca3 O19 2.623831 1_565
Ca3 O8 2.636893 1_565
Ca4 O6 2.359384 1_555
Ca4 O21 2.370619 1_655
Ca4 O23 2.393378 1_655
Ca4 O3 2.464115 1_555
Ca4 O20 2.534359 1_565
Ca4 O22 2.572216 1_555
Ca4 O13 2.636558 1_555
Ca4 O16 2.640483 1_565
Ca5 O7 2.359384 1_555
Ca5 O20 2.370619 1_455
Ca5 O22 2.393378 1_455
Ca5 O2 2.464115 1_555
Ca5 O21 2.534359 1_545
Ca5 O23 2.572216 1_555
Ca5 O12 2.636558 1_555
Ca5 O17 2.640483 1_545
Ca6 O4 2.361624 1_565
Ca6 O3 2.384212 1_555
Ca6 O14 2.414918 1_556
Ca6 O15 2.498358 1_655
Ca6 O18 2.523399 1_555
Ca6 O21 2.539038 1_655
Ca6 O7 2.623831 1_665
Ca6 O22 2.636893 1_565
Ca7 O5 2.361624 1_545
Ca7 O2 2.384212 1_555
Ca7 O15 2.414918 1_554
Ca7 O14 2.498358 1_455
Ca7 O19 2.523399 1_555
Ca7 O20 2.539038 1_455
Ca7 O6 2.623831 1_445
Ca7 O23 2.636893 1_545
Ca8 O18 2.359384 1_554
Ca8 O10 2.370619 1_555
Ca8 O9 2.393378 1_554
Ca8 O0 2.464115 1_555
Ca8 O11 2.534359 1_564
Ca8 O8 2.572216 1_555
Ca8 O14 2.636558 1_555
Ca8 O4 2.640483 1_564
Ca9 O19 2.359384 1_556
Ca9 O11 2.370619 1_555
Ca9 O8 2.393378 1_556
Ca9 O1 2.464115 1_555
Ca9 O10 2.534359 1_546
Ca9 O9 2.572216 1_555
Ca9 O15 2.636558 1_555
Ca9 O5 2.640483 1_546
Ca10 O17 2.299663 1_545
Ca10 O19 2.330205 1_555
Ca10 O16 2.412108 1_555
Ca10 O12 2.584808 1_555
Ca10 O8 2.588494 1_555
Ca10 O2 2.591593 1_555
Ca10 O0 2.648196 1_555
Ca10 O10 2.730540 1_555
Ca11 O16 2.299663 1_565
Ca11 O18 2.330205 1_555
Ca11 O17 2.412108 1_555
Ca11 O13 2.584808 1_555
Ca11 O9 2.588494 1_555
Ca11 O3 2.591593 1_555
Ca11 O1 2.648196 1_555
Ca11 O11 2.730540 1_555
Mn0 O18 1.895793 1_545
Mn0 O4 1.908289 1_555
Mn0 O22 1.934961 1_555
Mn0 O11 1.949026 1_555
Mn0 O13 1.973729 1_555
Mn0 O3 1.976961 1_555
Mn1 O19 1.895793 1_565
Mn1 O5 1.908289 1_555
Mn1 O23 1.934961 1_555
Mn1 O10 1.949026 1_555
Mn1 O12 1.973729 1_555
Mn1 O2 1.976961 1_555
Mn2 O6 1.895793 1_545
Mn2 O16 1.908289 1_555
Mn2 O8 1.934961 1_555
Mn2 O20 1.949026 1_555
Mn2 O14 1.973729 1_555
Mn2 O0 1.976961 1_555
Mn3 O7 1.895793 1_565
Mn3 O17 1.908289 1_555
Mn3 O9 1.934961 1_555
Mn3 O21 1.949026 1_555
Mn3 O15 1.973729 1_555
Mn3 O1 1.976961 1_555
Cu0 O22 1.984291 1_555
Cu0 O0 2.009589 1_555
Cu0 O20 2.015916 1_555
Cu0 O13 2.018799 1_555
Cu1 O23 1.984291 1_555
Cu1 O1 2.009589 1_555
Cu1 O21 2.015916 1_555
Cu1 O12 2.018799 1_555
Cu2 O8 1.984291 1_556
Cu2 O3 2.009589 1_555
Cu2 O11 2.015916 1_555
Cu2 O14 2.018799 1_556
Cu3 O9 1.984291 1_554
Cu3 O2 2.009589 1_555
Cu3 O10 2.015916 1_555
Cu3 O15 2.018799 1_554
