# generated using pymatgen
data_CeRh
_symmetry_space_group_name_H-M   'P 1'
_cell_length_a   3.81769870
_cell_length_b   3.95619354
_cell_length_c   6.06495196
_cell_angle_alpha   90.00000000
_cell_angle_beta   71.65521618
_cell_angle_gamma   90.00000000
_symmetry_Int_Tables_number   1
_chemical_formula_structural   CeRh
_chemical_formula_sum   'Ce2 Rh2'
_cell_volume   86.94708281
_cell_formula_units_Z   2
loop_
 _symmetry_equiv_pos_site_id
 _symmetry_equiv_pos_as_xyz
  1  'x, y, z'
loop_
 _atom_site_type_symbol
 _atom_site_label
 _atom_site_symmetry_multiplicity
 _atom_site_fract_x
 _atom_site_fract_y
 _atom_site_fract_z
 _atom_site_occupancy
  Ce  Ce0  1  0.13764146  0.75000000  0.72471909  1
  Ce  Ce1  1  0.86235854  0.25000000  0.27528091  1
  Rh  Rh0  1  0.40413314  0.75000000  0.19173372  1
  Rh  Rh1  1  0.59586686  0.25000000  0.80826628  1
loop_
_geom_bond_atom_site_label_1
_geom_bond_atom_site_label_2
_geom_bond_distance
_geom_bond_site_symmetry_2
Ce0 Rh1 2.790677 1_555
Ce0 Rh1 2.790677 1_565
Ce0 Rh1 2.790682 1_455
Ce0 Rh1 2.790682 1_465
Ce0 Rh0 3.068253 1_555
Ce0 Rh0 3.297211 1_556
Ce0 Rh0 3.297215 1_456
Ce1 Rh0 2.790677 1_555
Ce1 Rh0 2.790677 1_545
Ce1 Rh0 2.790682 1_655
Ce1 Rh0 2.790682 1_645
Ce1 Rh1 3.068253 1_555
Ce1 Rh1 3.297211 1_554
Ce1 Rh1 3.297215 1_654
