# generated using pymatgen
data_TaFe4W
_symmetry_space_group_name_H-M   'P 1'
_cell_length_a   4.77043128
_cell_length_b   4.77042955
_cell_length_c   7.89815878
_cell_angle_alpha   90.00011753
_cell_angle_beta   89.99987333
_cell_angle_gamma   119.99837343
_symmetry_Int_Tables_number   1
_chemical_formula_structural   TaFe4W
_chemical_formula_sum   'Ta2 Fe8 W2'
_cell_volume   155.66061460
_cell_formula_units_Z   2
loop_
 _symmetry_equiv_pos_site_id
 _symmetry_equiv_pos_as_xyz
  1  'x, y, z'
loop_
 _atom_site_type_symbol
 _atom_site_label
 _atom_site_symmetry_multiplicity
 _atom_site_fract_x
 _atom_site_fract_y
 _atom_site_fract_z
 _atom_site_occupancy
  Ta  Ta0  1  0.66666623  0.33333522  0.57692218  1
  Ta  Ta1  1  0.33333200  0.66666877  0.42307695  1
  Fe  Fe0  1  -0.00000016  -0.00000229  0.49998856  1
  Fe  Fe1  1  0.00000244  -0.00001064  0.00000502  1
  Fe  Fe2  1  0.16946522  0.33894420  0.74798109  1
  Fe  Fe3  1  0.16946579  0.83053483  0.74797965  1
  Fe  Fe4  1  0.66105871  0.83053682  0.74798042  1
  Fe  Fe5  1  0.83053363  0.66105836  0.25201752  1
  Fe  Fe6  1  0.83053148  0.16946935  0.25201588  1
  Fe  Fe7  1  0.33894332  0.16946666  0.25201716  1
  W  W0  1  0.33333156  0.66666780  0.04697901  1
  W  W1  1  0.66666979  0.33333093  0.95303657  1
loop_
_geom_bond_atom_site_label_1
_geom_bond_atom_site_label_2
_geom_bond_distance
_geom_bond_site_symmetry_2
Ta0 W1 2.970611 1_555
Ta0 Ta1 3.010322 1_555
Ta0 Ta1 3.010373 1_655
Ta0 Ta1 3.010375 1_545
Ta1 W0 2.970481 1_555
Fe0 Fe6 2.407605 1_455
Fe0 Fe5 2.407609 1_445
Fe0 Fe7 2.407621 1_555
Fe0 Fe3 2.407696 1_545
Fe0 Fe4 2.407747 1_445
Fe0 Fe2 2.407764 1_555
Fe0 Ta1 2.820358 1_545
Fe0 Ta0 2.820436 1_455
Fe0 Ta1 2.820454 1_445
Fe0 Ta1 2.820466 1_555
Fe0 Ta0 2.820468 1_445
Fe0 Ta0 2.820485 1_555
Fe1 Fe5 2.433628 1_445
Fe1 Fe6 2.433641 1_455
Fe1 Fe7 2.433650 1_555
Fe1 Fe3 2.433656 1_544
Fe1 Fe4 2.433737 1_444
Fe1 Fe2 2.433758 1_554
Fe1 W0 2.778998 1_545
Fe1 W1 2.779089 1_454
Fe1 W1 2.779090 1_444
Fe1 W1 2.779127 1_554
Fe1 W0 2.779147 1_445
Fe1 W0 2.779177 1_555
Fe2 Fe3 2.345097 1_555
Fe2 Fe4 2.345168 1_555
Fe2 Fe3 2.425332 1_545
Fe2 Fe4 2.425380 1_445
Fe2 W0 2.722134 1_556
Fe2 Ta0 2.741354 1_455
Fe2 Ta0 2.741393 1_555
Fe2 W1 2.883141 1_455
Fe2 W1 2.883234 1_555
Fe2 Ta1 2.901431 1_555
Fe3 Fe4 2.345105 1_555
Fe3 Fe4 2.425326 1_455
Fe3 W0 2.722151 1_556
Fe3 Ta0 2.741417 1_455
Fe3 Ta0 2.741420 1_565
Fe3 W1 2.883241 1_455
Fe3 W1 2.883241 1_565
Fe3 Ta1 2.901416 1_555
Fe4 W0 2.722146 1_556
Fe4 Ta0 2.741351 1_565
Fe4 Ta0 2.741389 1_555
Fe4 W1 2.883142 1_565
Fe4 W1 2.883237 1_555
Fe4 Ta1 2.901431 1_555
Fe5 Fe6 2.345086 1_555
Fe5 Fe7 2.345158 1_555
Fe5 Fe6 2.425344 1_565
Fe5 Fe7 2.425389 1_665
Fe5 W1 2.722026 1_554
Fe5 Ta1 2.741350 1_655
Fe5 Ta1 2.741401 1_555
Fe5 W0 2.883083 1_655
Fe5 W0 2.883141 1_555
Fe5 Ta0 2.901431 1_555
Fe6 Fe7 2.345081 1_555
Fe6 Fe7 2.425350 1_655
Fe6 W1 2.721994 1_554
Fe6 Ta1 2.741432 1_545
Fe6 Ta1 2.741432 1_655
Fe6 W0 2.883149 1_655
Fe6 W0 2.883155 1_545
Fe6 Ta0 2.901439 1_555
Fe7 W1 2.722021 1_554
Fe7 Ta1 2.741347 1_545
Fe7 Ta1 2.741405 1_555
Fe7 W0 2.883080 1_545
Fe7 W0 2.883139 1_555
Fe7 Ta0 2.901434 1_555
W0 W1 2.852411 1_554
W0 W1 2.852427 1_454
W0 W1 2.852431 1_564
