# generated using pymatgen
data_NdVSb3
_symmetry_space_group_name_H-M   'P 1'
_cell_length_a   10.00784400
_cell_length_b   6.54642200
_cell_length_c   8.85258700
_cell_angle_alpha   90.00000000
_cell_angle_beta   90.00000000
_cell_angle_gamma   90.00000000
_symmetry_Int_Tables_number   1
_chemical_formula_structural   NdVSb3
_chemical_formula_sum   'Nd4 V4 Sb12'
_cell_volume   579.98228447
_cell_formula_units_Z   4
loop_
 _symmetry_equiv_pos_site_id
 _symmetry_equiv_pos_as_xyz
  1  'x, y, z'
loop_
 _atom_site_type_symbol
 _atom_site_label
 _atom_site_symmetry_multiplicity
 _atom_site_fract_x
 _atom_site_fract_y
 _atom_site_fract_z
 _atom_site_occupancy
  Nd  Nd0  1  0.25000000  0.48448800  0.26734000  1
  Nd  Nd1  1  0.25000000  0.98448800  0.73266000  1
  Nd  Nd2  1  0.75000000  0.51551200  0.73266000  1
  Nd  Nd3  1  0.75000000  0.01551200  0.26734000  1
  V  V0  1  0.00000000  0.75000000  0.96979800  1
  V  V1  1  0.00000000  0.25000000  0.03020200  1
  V  V2  1  0.50000000  0.75000000  0.96979800  1
  V  V3  1  0.50000000  0.25000000  0.03020200  1
  Sb  Sb0  1  0.50000000  0.75000000  0.28359300  1
  Sb  Sb1  1  0.75000000  0.50170700  0.38376300  1
  Sb  Sb2  1  0.75000000  0.45511800  0.06928800  1
  Sb  Sb3  1  0.00000000  0.75000000  0.28359300  1
  Sb  Sb4  1  0.00000000  0.25000000  0.71640700  1
  Sb  Sb5  1  0.25000000  0.54488200  0.93071200  1
  Sb  Sb6  1  0.25000000  0.49829300  0.61623700  1
  Sb  Sb7  1  0.25000000  0.04488200  0.06928800  1
  Sb  Sb8  1  0.25000000  0.99829300  0.38376300  1
  Sb  Sb9  1  0.50000000  0.25000000  0.71640700  1
  Sb  Sb10  1  0.75000000  0.00170700  0.61623700  1
  Sb  Sb11  1  0.75000000  0.95511800  0.93071200  1
loop_
_geom_bond_atom_site_label_1
_geom_bond_atom_site_label_2
_geom_bond_distance
_geom_bond_site_symmetry_2
Nd0 Sb5 3.006141 1_554
Nd0 Sb0 3.049867 1_555
Nd0 Sb3 3.049867 1_555
Nd0 Sb6 3.089963 1_555
Nd0 Sb8 3.345547 1_545
Nd0 Sb7 3.369861 1_555
Nd0 Sb8 3.517944 1_555
Nd0 V1 3.608768 1_555
Nd0 V3 3.608768 1_555
Nd1 Sb7 3.006141 1_566
Nd1 Sb4 3.049867 1_565
Nd1 Sb9 3.049867 1_565
Nd1 Sb8 3.089963 1_555
Nd1 Sb6 3.345547 1_555
Nd1 Sb5 3.369861 1_555
Nd1 Sb6 3.517944 1_565
Nd1 V2 3.608768 1_555
Nd1 V0 3.608768 1_555
Nd2 Sb2 3.006141 1_556
Nd2 Sb4 3.049867 1_655
Nd2 Sb9 3.049867 1_555
Nd2 Sb1 3.089963 1_555
Nd2 Sb10 3.345547 1_565
Nd2 Sb11 3.369861 1_555
Nd2 Sb10 3.517944 1_555
Nd2 V2 3.608768 1_555
Nd2 V0 3.608768 1_655
Nd3 Sb11 3.006141 1_544
Nd3 Sb3 3.049867 1_645
Nd3 Sb0 3.049867 1_545
Nd3 Sb10 3.089963 1_555
Nd3 Sb1 3.345547 1_555
Nd3 Sb2 3.369861 1_555
Nd3 Sb1 3.517944 1_545
Nd3 V3 3.608768 1_555
Nd3 V1 3.608768 1_655
Sb0 V2 2.777898 1_554
Sb0 Sb1 3.112585 1_555
Sb0 Sb8 3.112585 1_555
Sb1 Sb2 2.800574 1_555
Sb1 Sb3 3.112585 1_655
Sb2 V3 2.860527 1_555
Sb2 V1 2.860527 1_655
Sb2 V2 3.280556 1_554
Sb2 V0 3.280556 1_654
Sb3 V0 2.777898 1_554
Sb3 Sb8 3.112585 1_555
Sb4 V1 2.777898 1_556
Sb4 Sb6 3.112585 1_555
Sb5 Sb6 2.800574 1_555
Sb5 V0 2.860527 1_555
Sb5 V2 2.860527 1_555
Sb5 V3 3.280556 1_556
Sb5 V1 3.280556 1_556
Sb6 Sb9 3.112585 1_555
Sb7 Sb8 2.800574 1_545
Sb7 V3 2.860527 1_555
Sb7 V1 2.860527 1_555
Sb7 V0 3.280556 1_544
Sb7 V2 3.280556 1_544
Sb9 V3 2.777898 1_556
Sb10 Sb11 2.800574 1_545
Sb10 Sb9 3.112585 1_555
Sb10 Sb4 3.112585 1_655
Sb11 V0 2.860527 1_655
Sb11 V2 2.860527 1_555
Sb11 V1 3.280556 1_666
Sb11 V3 3.280556 1_566
