# generated using pymatgen
data_NaMn2FeAg(PO4)3
_symmetry_space_group_name_H-M   'P 1'
_cell_length_a   8.86869965
_cell_length_b   8.86869965
_cell_length_c   6.59264439
_cell_angle_alpha   73.47438623
_cell_angle_beta   73.47438623
_cell_angle_gamma   92.93022488
_symmetry_Int_Tables_number   1
_chemical_formula_structural   NaMn2FeAg(PO4)3
_chemical_formula_sum   'Na2 Mn4 Fe2 Ag2 P6 O24'
_cell_volume   471.63989536
_cell_formula_units_Z   2
loop_
 _symmetry_equiv_pos_site_id
 _symmetry_equiv_pos_as_xyz
  1  'x, y, z'
loop_
 _atom_site_type_symbol
 _atom_site_label
 _atom_site_symmetry_multiplicity
 _atom_site_fract_x
 _atom_site_fract_y
 _atom_site_fract_z
 _atom_site_occupancy
  Na  Na0  1  0.50066800  0.49954800  0.25118800  1
  Na  Na1  1  0.50045200  0.49933200  0.74881200  1
  Mn  Mn0  1  0.26581500  0.73418500  0.50000000  1
  Mn  Mn1  1  0.73014400  0.26985600  0.00000000  1
  Mn  Mn2  1  0.37409800  0.06615400  0.61235600  1
  Mn  Mn3  1  0.93384600  0.62590200  0.38764400  1
  Fe  Fe0  1  0.61865600  0.93606300  0.88321400  1
  Fe  Fe1  1  0.06393700  0.38134400  0.11678600  1
  Ag  Ag0  1  0.98984400  0.01015600  0.50000000  1
  Ag  Ag1  1  0.01466500  0.98533500  0.00000000  1
  P  P0  1  0.71456800  0.28543200  0.50000000  1
  P  P1  1  0.28840800  0.71159200  0.00000000  1
  P  P2  1  0.65193300  0.87295800  0.37924500  1
  P  P3  1  0.12704200  0.34806700  0.62075500  1
  P  P4  1  0.34902700  0.13005500  0.11904900  1
  P  P5  1  0.86994500  0.65097300  0.88095100  1
  O  O0  1  0.60318400  0.94899600  0.57041200  1
  O  O1  1  0.05100400  0.39681600  0.42958800  1
  O  O2  1  0.40839300  0.04949600  0.93399900  1
  O  O3  1  0.95050400  0.59160700  0.06600100  1
  O  O4  1  0.54982900  0.26289200  0.47357800  1
  O  O5  1  0.73710800  0.45017100  0.52642200  1
  O  O6  1  0.46467500  0.73825300  0.99705500  1
  O  O7  1  0.26174700  0.53532500  0.00294500  1
  O  O8  1  0.25883600  0.81923200  0.78843000  1
  O  O9  1  0.18076800  0.74116400  0.21157000  1
  O  O10  1  0.73648600  0.16289500  0.71448800  1
  O  O11  1  0.83710500  0.26351400  0.28551200  1
  O  O12  1  0.31934600  0.00066400  0.34826300  1
  O  O13  1  0.99933600  0.68065400  0.65173700  1
  O  O14  1  0.65811600  0.99718200  0.14952700  1
  O  O15  1  0.00281800  0.34188400  0.85047300  1
  O  O16  1  0.27344300  0.46948100  0.56897400  1
  O  O17  1  0.53051900  0.72655700  0.43102600  1
  O  O18  1  0.72730800  0.52717200  0.92451200  1
  O  O19  1  0.47282800  0.27269200  0.07548800  1
  O  O20  1  0.16329000  0.17456200  0.64510700  1
  O  O21  1  0.82543800  0.83671000  0.35489300  1
  O  O22  1  0.81159100  0.81672100  0.88140700  1
  O  O23  1  0.18327900  0.18840900  0.11859300  1
loop_
_geom_bond_atom_site_label_1
_geom_bond_atom_site_label_2
_geom_bond_distance
_geom_bond_site_symmetry_2
Na0 O4 2.334819 1_555
Na0 O6 2.397117 1_554
Na0 O16 2.397244 1_555
Na0 O18 2.434181 1_554
Na0 O19 2.624534 1_555
Na0 O17 2.647830 1_555
Na1 O5 2.334819 1_555
Na1 O7 2.397117 1_556
Na1 O17 2.397244 1_555
Na1 O19 2.434181 1_556
Na1 O18 2.624534 1_555
Na1 O16 2.647830 1_555
Mn0 O9 2.223113 1_555
Mn0 O8 2.223113 1_555
Mn0 O13 2.254231 1_455
Mn0 O12 2.254231 1_565
Mn0 O17 2.269126 1_555
Mn0 O16 2.269126 1_555
Mn1 O18 2.196132 1_554
Mn1 O19 2.196132 1_555
Mn1 O14 2.314193 1_545
Mn1 O15 2.314193 1_654
Mn1 O10 2.325293 1_554
Mn1 O11 2.325293 1_555
Mn2 O4 2.076783 1_555
Mn2 O20 2.130396 1_555
Mn2 O12 2.152175 1_555
Mn2 O2 2.191813 1_555
Mn2 O8 2.199529 1_545
Mn2 O0 2.311607 1_545
Mn3 O5 2.076783 1_555
Mn3 O21 2.130396 1_555
Mn3 O13 2.152175 1_555
Mn3 O3 2.191813 1_555
Mn3 O9 2.199529 1_655
Mn3 O1 2.311607 1_655
Fe0 O6 1.982115 1_555
Fe0 O10 2.055987 1_565
Fe0 O22 2.056431 1_555
Fe0 O0 2.076691 1_555
Fe0 O14 2.090534 1_556
Fe0 O2 2.151673 1_565
Fe1 O7 1.982115 1_555
Fe1 O11 2.055987 1_455
Fe1 O23 2.056431 1_555
Fe1 O1 2.076691 1_555
Fe1 O15 2.090534 1_554
Fe1 O3 2.151673 1_455
Ag0 O22 2.602335 1_545
Ag0 O23 2.602335 1_655
Ag0 O21 2.609338 1_545
Ag0 O20 2.609338 1_655
Ag1 O20 2.411137 1_564
Ag1 O21 2.411137 1_455
Ag1 O22 2.698497 1_454
Ag1 O23 2.698497 1_565
O0 P2 1.559920 1_555
O1 P3 1.559920 1_555
O2 P4 1.563609 1_556
O3 P5 1.563609 1_554
O4 P0 1.529579 1_555
O5 P0 1.529579 1_555
O6 P1 1.562816 1_556
O7 P1 1.562816 1_555
O8 P1 1.549773 1_556
O9 P1 1.549773 1_555
O10 P0 1.588103 1_555
O11 P0 1.588103 1_555
O12 P4 1.557549 1_555
O13 P5 1.557549 1_555
O14 P2 1.583579 1_555
O15 P3 1.583579 1_555
O16 P3 1.535449 1_555
O17 P2 1.535449 1_555
O18 P5 1.536282 1_555
O19 P4 1.536282 1_555
O20 P3 1.560869 1_555
O21 P2 1.560869 1_555
O22 P5 1.583685 1_555
O23 P4 1.583685 1_555
