# generated using pymatgen
data_KLiErF5
_symmetry_space_group_name_H-M   'P 1'
_cell_length_a   6.45586802
_cell_length_b   6.30894430
_cell_length_c   11.81239200
_cell_angle_alpha   90.00000000
_cell_angle_beta   90.00000000
_cell_angle_gamma   113.96729899
_symmetry_Int_Tables_number   1
_chemical_formula_structural   KLiErF5
_chemical_formula_sum   'K4 Li4 Er4 F20'
_cell_volume   439.63233115
_cell_formula_units_Z   4
loop_
 _symmetry_equiv_pos_site_id
 _symmetry_equiv_pos_as_xyz
  1  'x, y, z'
loop_
 _atom_site_type_symbol
 _atom_site_label
 _atom_site_symmetry_multiplicity
 _atom_site_fract_x
 _atom_site_fract_y
 _atom_site_fract_z
 _atom_site_occupancy
  K  K0  1  0.94685500  0.96260400  0.35000500  1
  K  K1  1  0.05314500  0.03739600  0.64999500  1
  K  K2  1  0.05314500  0.53739600  0.85000500  1
  K  K3  1  0.94685500  0.46260400  0.14999500  1
  Li  Li0  1  0.55799400  0.96185200  0.74572900  1
  Li  Li1  1  0.44200600  0.03814800  0.25427100  1
  Li  Li2  1  0.44200600  0.53814800  0.24572900  1
  Li  Li3  1  0.55799400  0.46185200  0.75427100  1
  Er  Er0  1  0.68142600  0.81971000  0.99789200  1
  Er  Er1  1  0.31857400  0.18029000  0.00210800  1
  Er  Er2  1  0.31857400  0.68029000  0.49789200  1
  Er  Er3  1  0.68142600  0.31971000  0.50210800  1
  F  F0  1  0.72118200  0.77776200  0.80712400  1
  F  F1  1  0.27881800  0.22223800  0.19287600  1
  F  F2  1  0.27881800  0.72223800  0.30712400  1
  F  F3  1  0.72118200  0.27776200  0.69287600  1
  F  F4  1  0.66441900  0.95303000  0.53110700  1
  F  F5  1  0.33558100  0.04697000  0.46889300  1
  F  F6  1  0.33558100  0.54697000  0.03110700  1
  F  F7  1  0.66441900  0.45303000  0.96889300  1
  F  F8  1  0.95509200  0.67141400  0.50674800  1
  F  F9  1  0.04490800  0.32858600  0.49325200  1
  F  F10  1  0.04490800  0.82858600  0.00674800  1
  F  F11  1  0.95509200  0.17141400  0.99325200  1
  F  F12  1  0.46452700  0.96622800  0.89616000  1
  F  F13  1  0.53547300  0.03377200  0.10384000  1
  F  F14  1  0.53547300  0.53377200  0.39616000  1
  F  F15  1  0.46452700  0.46622800  0.60384000  1
  F  F16  1  0.28624600  0.77617800  0.67309000  1
  F  F17  1  0.71375400  0.22382200  0.32691000  1
  F  F18  1  0.71375400  0.72382200  0.17309000  1
  F  F19  1  0.28624600  0.27617800  0.82691000  1
loop_
_geom_bond_atom_site_label_1
_geom_bond_atom_site_label_2
_geom_bond_distance
_geom_bond_site_symmetry_2
Er0 F18 2.189740 1_556
Er0 F11 2.205210 1_565
Er0 F6 2.231275 1_556
Er0 F0 2.295436 1_555
Er0 F7 2.296670 1_555
Er0 F12 2.304538 1_555
Er0 F13 2.304732 1_566
Er0 F10 2.326761 1_656
Er1 F19 2.189740 1_554
Er1 F10 2.205210 1_545
Er1 F7 2.231275 1_554
Er1 F1 2.295436 1_555
Er1 F6 2.296670 1_555
Er1 F13 2.304538 1_555
Er1 F12 2.304732 1_544
Er1 F11 2.326761 1_454
Er2 F16 2.189740 1_555
Er2 F9 2.205210 1_555
Er2 F4 2.231275 1_555
Er2 F2 2.295436 1_555
Er2 F5 2.296670 1_565
Er2 F14 2.304538 1_555
Er2 F15 2.304732 1_555
Er2 F8 2.326761 1_455
Er3 F17 2.189740 1_555
Er3 F8 2.205210 1_555
Er3 F5 2.231275 1_555
Er3 F3 2.295436 1_555
Er3 F4 2.296670 1_545
Er3 F15 2.304538 1_555
Er3 F14 2.304732 1_555
Er3 F9 2.326761 1_655
F0 Li3 1.940639 1_555
F0 Li0 1.994693 1_555
F0 K1 2.805176 1_665
F0 K2 3.128812 1_655
F1 Li2 1.940639 1_555
F1 Li1 1.994693 1_555
F1 K0 2.805176 1_445
F1 K3 3.128812 1_455
F2 Li1 1.940639 1_565
F2 Li2 1.994693 1_555
F2 K3 2.805176 1_455
F2 K0 3.128812 1_455
F3 Li0 1.940639 1_545
F3 Li3 1.994693 1_555
F3 K2 2.805176 1_655
F3 K1 3.128812 1_655
F4 K1 2.732804 1_665
F4 K0 2.795573 1_555
F5 K0 2.732804 1_445
F5 K1 2.795573 1_555
F6 K3 2.732804 1_455
F6 K2 2.795573 1_554
F7 K2 2.732804 1_655
F7 K3 2.795573 1_556
F8 K0 2.623971 1_555
F8 K1 2.721712 1_665
F9 K1 2.623971 1_555
F9 K0 2.721712 1_445
F10 K2 2.623971 1_554
F10 K3 2.721712 1_455
F11 K3 2.623971 1_556
F11 K2 2.721712 1_655
F12 Li0 1.880413 1_555
F12 K2 2.971991 1_555
F13 Li1 1.880413 1_555
F13 K3 2.971991 1_555
F14 Li2 1.880413 1_555
F14 K0 2.971991 1_555
F15 Li3 1.880413 1_555
F15 K1 2.971991 1_555
F16 Li0 1.875268 1_555
F16 K2 2.656968 1_555
F16 K1 2.658919 1_565
F17 Li1 1.875268 1_555
F17 K3 2.656968 1_555
F17 K0 2.658919 1_545
F18 Li2 1.875268 1_555
F18 K0 2.656968 1_555
F18 K3 2.658919 1_555
F19 Li3 1.875268 1_555
F19 K1 2.656968 1_555
F19 K2 2.658919 1_555
