# generated using pymatgen
data_Li5Bi(P2O7)2
_symmetry_space_group_name_H-M   'P 1'
_cell_length_a   7.24412800
_cell_length_b   8.72835211
_cell_length_c   9.90152968
_cell_angle_alpha   76.99104268
_cell_angle_beta   76.74650724
_cell_angle_gamma   69.02949814
_symmetry_Int_Tables_number   1
_chemical_formula_structural   Li5Bi(P2O7)2
_chemical_formula_sum   'Li10 Bi2 P8 O28'
_cell_volume   561.93609223
_cell_formula_units_Z   2
loop_
 _symmetry_equiv_pos_site_id
 _symmetry_equiv_pos_as_xyz
  1  'x, y, z'
loop_
 _atom_site_type_symbol
 _atom_site_label
 _atom_site_symmetry_multiplicity
 _atom_site_fract_x
 _atom_site_fract_y
 _atom_site_fract_z
 _atom_site_occupancy
  Li  Li0  1  0.33613700  0.18855300  0.27782300  1
  Li  Li1  1  0.28303800  0.26165400  0.58418400  1
  Li  Li2  1  0.75827700  0.26840700  0.09018700  1
  Li  Li3  1  0.03542600  0.48576700  0.13922000  1
  Li  Li4  1  0.44142700  0.48772000  0.35699400  1
  Li  Li5  1  0.55857300  0.51228000  0.64300600  1
  Li  Li6  1  0.96457400  0.51423300  0.86078000  1
  Li  Li7  1  0.24172300  0.73159300  0.90981300  1
  Li  Li8  1  0.71696200  0.73834600  0.41581600  1
  Li  Li9  1  0.66386300  0.81144700  0.72217700  1
  Bi  Bi0  1  0.87187900  0.12750600  0.76272900  1
  Bi  Bi1  1  0.12812100  0.87249400  0.23727100  1
  P  P0  1  0.16628000  0.14117800  0.96575700  1
  P  P1  1  0.69328000  0.10238100  0.45545800  1
  P  P2  1  0.41198400  0.34303100  0.94818100  1
  P  P3  1  0.87956300  0.36531900  0.42629600  1
  P  P4  1  0.12043700  0.63468100  0.57370400  1
  P  P5  1  0.58801600  0.65696900  0.05181900  1
  P  P6  1  0.30672000  0.89761900  0.54454200  1
  P  P7  1  0.83372000  0.85882200  0.03424300  1
  O  O0  1  0.21656500  0.04891900  0.62196600  1
  O  O1  1  0.08111600  0.18300700  0.11475900  1
  O  O2  1  0.78897100  0.04163700  0.03886000  1
  O  O3  1  0.68114100  0.05591700  0.61640200  1
  O  O4  1  0.02693400  0.25866700  0.85922000  1
  O  O5  1  0.49514800  0.22461100  0.41225400  1
  O  O6  1  0.37429900  0.18075000  0.91485500  1
  O  O7  1  0.07662500  0.37061400  0.33633900  1
  O  O8  1  0.46021200  0.30516300  0.09592100  1
  O  O9  1  0.85838300  0.19679000  0.39623300  1
  O  O10  1  0.59186500  0.35352100  0.82997200  1
  O  O11  1  0.87588000  0.34147600  0.58710100  1
  O  O12  1  0.22112200  0.49228300  0.93111700  1
  O  O13  1  0.30546000  0.48596200  0.60654200  1
  O  O14  1  0.69454000  0.51403800  0.39345800  1
  O  O15  1  0.77887800  0.50771700  0.06888300  1
  O  O16  1  0.12412000  0.65852400  0.41289900  1
  O  O17  1  0.40813500  0.64647900  0.17002800  1
  O  O18  1  0.14161700  0.80321000  0.60376700  1
  O  O19  1  0.53978800  0.69483700  0.90407900  1
  O  O20  1  0.92337500  0.62938600  0.66366100  1
  O  O21  1  0.62570100  0.81925000  0.08514500  1
  O  O22  1  0.50485200  0.77538900  0.58774600  1
  O  O23  1  0.97306600  0.74133300  0.14078000  1
  O  O24  1  0.31885900  0.94408300  0.38359800  1
  O  O25  1  0.21102900  0.95836300  0.96114000  1
  O  O26  1  0.91888400  0.81699300  0.88524100  1
  O  O27  1  0.78343500  0.95108100  0.37803400  1
loop_
_geom_bond_atom_site_label_1
_geom_bond_atom_site_label_2
_geom_bond_distance
_geom_bond_site_symmetry_2
Li0 O7 2.042514 1_555
Li0 O8 2.043286 1_555
Li0 O5 2.085376 1_555
Li0 O24 2.188765 1_545
Li1 O5 2.014053 1_555
Li1 O0 2.016011 1_555
Li1 O13 2.085129 1_555
Li2 O8 2.055369 1_555
Li2 O2 2.076417 1_555
Li2 O15 2.107154 1_555
Li2 O1 2.239586 1_655
Li3 O7 2.019389 1_555
Li3 O15 2.062566 1_455
Li3 O23 2.114529 1_455
Li3 O12 2.188535 1_554
Li4 O14 2.046343 1_555
Li4 O17 2.053306 1_555
Li4 O5 2.148722 1_555
Li4 O16 2.268896 1_555
Li4 O13 2.439999 1_555
Li5 O13 2.046343 1_555
Li5 O10 2.053306 1_555
Li5 O22 2.148722 1_555
Li5 O11 2.268896 1_555
Li5 O14 2.439999 1_555
Li6 O20 2.019389 1_555
Li6 O12 2.062566 1_655
Li6 O4 2.114529 1_655
Li6 O15 2.188535 1_556
Li7 O19 2.055369 1_555
Li7 O25 2.076417 1_555
Li7 O12 2.107154 1_555
Li7 O26 2.239586 1_455
Li8 O22 2.014053 1_555
Li8 O27 2.016011 1_555
Li8 O14 2.085129 1_555
Li9 O20 2.042514 1_555
Li9 O19 2.043286 1_555
Li9 O22 2.085376 1_555
Li9 O3 2.188765 1_565
Bi0 O11 2.250854 1_555
Bi0 O4 2.321634 1_655
Bi0 O10 2.357425 1_555
Bi0 O0 2.501320 1_655
Bi0 O3 2.518396 1_555
Bi0 O26 2.642286 1_545
Bi0 O2 2.654160 1_556
Bi1 O16 2.250854 1_555
Bi1 O23 2.321634 1_455
Bi1 O17 2.357425 1_555
Bi1 O27 2.501320 1_455
Bi1 O24 2.518396 1_555
Bi1 O1 2.642286 1_565
Bi1 O25 2.654160 1_554
O0 P6 1.538537 1_545
O1 P0 1.534437 1_554
O2 P7 1.519589 1_545
O3 P1 1.543389 1_555
O4 P0 1.563217 1_555
O5 P1 1.536649 1_555
O6 P0 1.609364 1_555
O6 P2 1.648708 1_555
O7 P3 1.509653 1_455
O8 P2 1.518304 1_554
O9 P1 1.618549 1_555
O9 P3 1.629586 1_555
O10 P2 1.553763 1_555
O11 P3 1.553863 1_555
O12 P2 1.534952 1_555
O13 P4 1.533515 1_555
O14 P3 1.533515 1_555
O15 P5 1.534952 1_555
O16 P4 1.553863 1_555
O17 P5 1.553763 1_555
O18 P6 1.618549 1_555
O18 P4 1.629586 1_555
O19 P5 1.518304 1_556
O20 P4 1.509653 1_655
O21 P7 1.609364 1_555
O21 P5 1.648708 1_555
O22 P6 1.536649 1_555
O23 P7 1.563217 1_555
O24 P6 1.543389 1_555
O25 P0 1.519589 1_565
O26 P7 1.534437 1_556
O27 P1 1.538537 1_565
