# generated using pymatgen
data_PrH20S4N5O16
_symmetry_space_group_name_H-M   'P 1'
_cell_length_a   12.30463305
_cell_length_b   12.30463305
_cell_length_c   9.44708958
_cell_angle_alpha   83.77214399
_cell_angle_beta   83.77214399
_cell_angle_gamma   140.71266271
_symmetry_Int_Tables_number   1
_chemical_formula_structural   PrH20S4N5O16
_chemical_formula_sum   'Pr2 H40 S8 N10 O32'
_cell_volume   857.24283733
_cell_formula_units_Z   2
loop_
 _symmetry_equiv_pos_site_id
 _symmetry_equiv_pos_as_xyz
  1  'x, y, z'
loop_
 _atom_site_type_symbol
 _atom_site_label
 _atom_site_symmetry_multiplicity
 _atom_site_fract_x
 _atom_site_fract_y
 _atom_site_fract_z
 _atom_site_occupancy
  Pr  Pr0  1  0.07483700  0.92332400  0.50183300  1
  Pr  Pr1  1  0.92332400  0.07483700  0.00183300  1
  H  H0  1  0.27469400  0.65735700  0.62520600  1
  H  H1  1  0.65735700  0.27469400  0.12520600  1
  H  H2  1  0.21528400  0.69403700  0.49234700  1
  H  H3  1  0.69403700  0.21528400  0.99234700  1
  H  H4  1  0.43275400  0.83593400  0.47185800  1
  H  H5  1  0.83593400  0.43275400  0.97185800  1
  H  H6  1  0.29156600  0.62891500  0.45600800  1
  H  H7  1  0.62891500  0.29156600  0.95600800  1
  H  H8  1  0.54225200  0.72338600  0.85359600  1
  H  H9  1  0.72338600  0.54225200  0.35359600  1
  H  H10  1  0.63366900  0.68006700  0.77909300  1
  H  H11  1  0.68006700  0.63366900  0.27909300  1
  H  H12  1  0.58560900  0.74767300  0.66756800  1
  H  H13  1  0.74767300  0.58560900  0.16756800  1
  H  H14  1  0.41439900  0.54083500  0.79240700  1
  H  H15  1  0.54083500  0.41439900  0.29240700  1
  H  H16  1  0.26957200  0.45352400  0.15049900  1
  H  H17  1  0.45352400  0.26957200  0.65049900  1
  H  H18  1  0.31279700  0.36217800  0.22558400  1
  H  H19  1  0.36217800  0.31279700  0.72558400  1
  H  H20  1  0.25307800  0.41751600  0.33550100  1
  H  H21  1  0.41751600  0.25307800  0.83550100  1
  H  H22  1  0.45602000  0.58384300  0.20557100  1
  H  H23  1  0.58384300  0.45602000  0.70557100  1
  H  H24  1  0.97029100  0.37580800  0.20853300  1
  H  H25  1  0.37580800  0.97029100  0.70853300  1
  H  H26  1  0.88745100  0.33641400  0.39000400  1
  H  H27  1  0.33641400  0.88745100  0.89000400  1
  H  H28  1  0.91496800  0.22433200  0.34260900  1
  H  H29  1  0.22433200  0.91496800  0.84260900  1
  H  H30  1  0.75696100  0.17820900  0.30117900  1
  H  H31  1  0.17820900  0.75696100  0.80117900  1
  H  H32  1  0.63052600  0.04276500  0.79909800  1
  H  H33  1  0.04276500  0.63052600  0.29909800  1
  H  H34  1  0.66382700  0.10939100  0.61453800  1
  H  H35  1  0.10939100  0.66382700  0.11453800  1
  H  H36  1  0.77322000  0.08154600  0.67124000  1
  H  H37  1  0.08154600  0.77322000  0.17124000  1
  H  H38  1  0.82904700  0.25112500  0.69321300  1
  H  H39  1  0.25112500  0.82904700  0.19321300  1
  S  S0  1  0.10179100  0.22532000  0.63018800  1
  S  S1  1  0.22532000  0.10179100  0.13018800  1
  S  S2  1  0.77609200  0.89936800  0.37256600  1
  S  S3  1  0.89936800  0.77609200  0.87256600  1
  S  S4  1  0.46907000  0.11467500  0.42162200  1
  S  S5  1  0.11467500  0.46907000  0.92162200  1
  S  S6  1  0.88209600  0.52974200  0.58471400  1
  S  S7  1  0.52974200  0.88209600  0.08471400  1
  N  N0  1  0.30358700  0.70405000  0.51041500  1
  N  N1  1  0.70405000  0.30358700  0.01041500  1
  N  N2  1  0.54300400  0.67147600  0.77444300  1
  N  N3  1  0.67147600  0.54300400  0.27444300  1
  N  N4  1  0.32433500  0.45515600  0.22799000  1
  N  N5  1  0.45515600  0.32433500  0.72799000  1
  N  N6  1  0.88321000  0.27916000  0.31386900  1
  N  N7  1  0.27916000  0.88321000  0.81386900  1
  N  N8  1  0.72350200  0.12008200  0.69151900  1
  N  N9  1  0.12008200  0.72350200  0.19151900  1
  O  O0  1  0.90642100  0.06564700  0.71990100  1
  O  O1  1  0.06564700  0.90642100  0.21990100  1
  O  O2  1  0.15610400  0.17226700  0.54324000  1
  O  O3  1  0.17226700  0.15610400  0.04324000  1
  O  O4  1  0.20201000  0.30134800  0.74472900  1
  O  O5  1  0.30134800  0.20201000  0.24472900  1
  O  O6  1  0.14197400  0.35822800  0.52515000  1
  O  O7  1  0.35822800  0.14197400  0.02515000  1
  O  O8  1  0.82974500  0.84515500  0.45899600  1
  O  O9  1  0.84515500  0.82974500  0.95899600  1
  O  O10  1  0.69222700  0.79261600  0.26321300  1
  O  O11  1  0.79261600  0.69222700  0.76321300  1
  O  O12  1  0.93680500  0.09287800  0.27770900  1
  O  O13  1  0.09287800  0.93680500  0.77770900  1
  O  O14  1  0.65072900  0.86786300  0.47833400  1
  O  O15  1  0.86786300  0.65072900  0.97833400  1
  O  O16  1  0.39675000  0.15130100  0.51321400  1
  O  O17  1  0.15130100  0.39675000  0.01321400  1
  O  O18  1  0.50543700  0.04885700  0.52218500  1
  O  O19  1  0.04885700  0.50543700  0.02218500  1
  O  O20  1  0.63858500  0.28026800  0.30267800  1
  O  O21  1  0.28026800  0.63858500  0.80267800  1
  O  O22  1  0.32333600  0.97140300  0.36010000  1
  O  O23  1  0.97140300  0.32333600  0.86010000  1
  O  O24  1  0.84535000  0.60169300  0.49151600  1
  O  O25  1  0.60169300  0.84535000  0.99151600  1
  O  O26  1  0.71869100  0.36046300  0.70228800  1
  O  O27  1  0.36046300  0.71869100  0.20228800  1
  O  O28  1  0.02628700  0.67858300  0.64486600  1
  O  O29  1  0.67858300  0.02628700  0.14486600  1
  O  O30  1  0.95573100  0.50033000  0.48297000  1
  O  O31  1  0.50033000  0.95573100  0.98297000  1
loop_
_geom_bond_atom_site_label_1
_geom_bond_atom_site_label_2
_geom_bond_distance
_geom_bond_site_symmetry_2
H0 N0 1.047610 1_555
H0 O21 1.683589 1_555
H1 N1 1.047610 1_555
H1 O20 1.683589 1_555
H2 N0 1.030754 1_555
H3 N1 1.030754 1_556
H4 N0 1.022659 1_555
H5 N1 1.022659 1_556
H6 N0 1.024057 1_555
H7 N1 1.024057 1_556
H8 N2 1.038506 1_555
H9 N3 1.038506 1_555
H10 N2 1.042477 1_555
H11 N3 1.042477 1_555
H12 N2 1.045090 1_555
H13 N3 1.045090 1_555
H14 N2 1.030461 1_555
H15 N3 1.030461 1_555
H16 N4 1.039063 1_555
H17 N5 1.039063 1_555
H18 N4 1.041376 1_555
H19 N5 1.041376 1_555
H20 N4 1.044495 1_555
H21 N5 1.044495 1_555
H22 N4 1.028981 1_555
H23 N5 1.028981 1_555
H24 N6 1.045000 1_555
H25 N7 1.045000 1_555
H26 N6 1.038041 1_555
H27 N7 1.038041 1_555
H28 N6 1.035819 1_555
H29 N7 1.035819 1_555
H30 N6 1.027744 1_555
H31 N7 1.027744 1_555
H32 N8 1.048790 1_555
H33 N9 1.048790 1_555
H34 N8 1.035592 1_555
H35 N9 1.035592 1_555
H36 N8 1.038800 1_555
H37 N9 1.038800 1_555
H38 N8 1.027325 1_555
H39 N9 1.027325 1_555
O0 S0 1.497641 1_655
O0 Pr1 2.701679 1_556
O1 S1 1.497641 1_565
O1 Pr0 2.701679 1_555
O2 S0 1.489979 1_555
O2 Pr0 2.477747 1_545
O3 S1 1.489979 1_555
O3 Pr1 2.477747 1_455
O4 S0 1.513314 1_555
O4 Pr1 2.712215 1_456
O5 S1 1.513314 1_555
O5 Pr0 2.712215 1_545
O6 S0 1.481014 1_555
O7 S1 1.481014 1_555
O8 S2 1.492647 1_555
O8 Pr0 2.458222 1_655
O9 S3 1.492647 1_555
O9 Pr1 2.458222 1_566
O10 S2 1.511616 1_555
O10 Pr1 2.751891 1_565
O11 S3 1.511616 1_555
O11 Pr0 2.751891 1_655
O12 S2 1.498979 1_545
O12 Pr1 2.651703 1_555
O13 S3 1.498979 1_455
O13 Pr0 2.651703 1_555
O14 S2 1.477845 1_555
O15 S3 1.477845 1_555
O16 S4 1.510634 1_555
O16 Pr0 2.555025 1_545
O17 S5 1.510634 1_554
O17 Pr1 2.555025 1_455
O18 S4 1.498320 1_555
O19 S5 1.498320 1_554
O20 S4 1.476774 1_555
O21 S5 1.476774 1_555
O22 S4 1.488677 1_565
O22 Pr0 2.762607 1_555
O23 S5 1.488677 1_655
O23 Pr1 2.762607 1_556
O24 S6 1.516686 1_555
O24 Pr0 2.547550 1_655
O25 S7 1.516686 1_556
O25 Pr1 2.547550 1_566
O26 S6 1.464780 1_555
O27 S7 1.464780 1_555
O28 S6 1.496525 1_455
O28 Pr0 2.721902 1_555
O29 S7 1.496525 1_545
O29 Pr1 2.721902 1_555
O30 S6 1.506613 1_555
O31 S7 1.506613 1_556
