# generated using pymatgen
data_Pr7Ru3
_symmetry_space_group_name_H-M   'P 1'
_cell_length_a   6.71186077
_cell_length_b   7.33254909
_cell_length_c   23.40115774
_cell_angle_alpha   90.00000000
_cell_angle_beta   90.00000000
_cell_angle_gamma   90.00000000
_symmetry_Int_Tables_number   1
_chemical_formula_structural   Pr7Ru3
_chemical_formula_sum   'Pr28 Ru12'
_cell_volume   1151.68911503
_cell_formula_units_Z   4
loop_
 _symmetry_equiv_pos_site_id
 _symmetry_equiv_pos_as_xyz
  1  'x, y, z'
loop_
 _atom_site_type_symbol
 _atom_site_label
 _atom_site_symmetry_multiplicity
 _atom_site_fract_x
 _atom_site_fract_y
 _atom_site_fract_z
 _atom_site_occupancy
  Pr  Pr0  1  0.31850833  0.81574776  0.17444368  1
  Pr  Pr1  1  0.18149167  0.31574776  0.32555632  1
  Pr  Pr2  1  0.68149167  0.18425224  0.67444368  1
  Pr  Pr3  1  0.81850833  0.68425224  0.82555632  1
  Pr  Pr4  1  0.68149167  0.18425224  0.82555632  1
  Pr  Pr5  1  0.81850833  0.68425224  0.67444368  1
  Pr  Pr6  1  0.31850833  0.81574776  0.32555632  1
  Pr  Pr7  1  0.18149167  0.31574776  0.17444368  1
  Pr  Pr8  1  0.32529665  0.82218023  0.02319264  1
  Pr  Pr9  1  0.17470335  0.32218023  0.47680736  1
  Pr  Pr10  1  0.67470335  0.17781977  0.52319264  1
  Pr  Pr11  1  0.82529665  0.67781977  0.97680736  1
  Pr  Pr12  1  0.67470335  0.17781977  0.97680736  1
  Pr  Pr13  1  0.82529665  0.67781977  0.52319264  1
  Pr  Pr14  1  0.32529665  0.82218023  0.47680736  1
  Pr  Pr15  1  0.17470335  0.32218023  0.02319264  1
  Pr  Pr16  1  0.86288520  0.67384013  0.25000000  1
  Pr  Pr17  1  0.63711480  0.17384013  0.25000000  1
  Pr  Pr18  1  0.13711480  0.32615987  0.75000000  1
  Pr  Pr19  1  0.36288520  0.82615987  0.75000000  1
  Pr  Pr20  1  0.85669575  0.94567496  0.11460171  1
  Pr  Pr21  1  0.64330425  0.44567496  0.38539829  1
  Pr  Pr22  1  0.14330425  0.05432504  0.61460171  1
  Pr  Pr23  1  0.35669575  0.55432504  0.88539829  1
  Pr  Pr24  1  0.14330425  0.05432504  0.88539829  1
  Pr  Pr25  1  0.35669575  0.55432504  0.61460171  1
  Pr  Pr26  1  0.85669575  0.94567496  0.38539829  1
  Pr  Pr27  1  0.64330425  0.44567496  0.11460171  1
  Ru  Ru0  1  0.47010661  0.52358944  0.25000000  1
  Ru  Ru1  1  0.02989339  0.02358944  0.25000000  1
  Ru  Ru2  1  0.52989339  0.47641056  0.75000000  1
  Ru  Ru3  1  0.97010661  0.97641056  0.75000000  1
  Ru  Ru4  1  0.03022880  0.60726882  0.09553862  1
  Ru  Ru5  1  0.46977120  0.10726882  0.40446138  1
  Ru  Ru6  1  0.96977120  0.39273118  0.59553862  1
  Ru  Ru7  1  0.53022880  0.89273118  0.90446138  1
  Ru  Ru8  1  0.96977120  0.39273118  0.90446138  1
  Ru  Ru9  1  0.53022880  0.89273118  0.59553862  1
  Ru  Ru10  1  0.03022880  0.60726882  0.40446138  1
  Ru  Ru11  1  0.46977120  0.10726882  0.09553862  1
loop_
_geom_bond_atom_site_label_1
_geom_bond_atom_site_label_2
_geom_bond_distance
_geom_bond_site_symmetry_2
Pr0 Ru0 2.958178 1_555
Pr0 Ru11 3.001582 1_565
Pr0 Ru1 3.033369 1_565
Pr0 Ru4 3.080605 1_555
Pr1 Ru1 2.958178 1_555
Pr1 Ru10 3.001582 1_555
Pr1 Ru0 3.033369 1_555
Pr1 Ru5 3.080605 1_555
Pr2 Ru2 2.958178 1_555
Pr2 Ru9 3.001582 1_545
Pr2 Ru3 3.033369 1_545
Pr2 Ru6 3.080605 1_555
Pr3 Ru3 2.958178 1_555
Pr3 Ru8 3.001582 1_555
Pr3 Ru2 3.033369 1_555
Pr3 Ru7 3.080605 1_555
Pr4 Ru2 2.958178 1_555
Pr4 Ru7 3.001582 1_545
Pr4 Ru3 3.033369 1_545
Pr4 Ru8 3.080605 1_555
Pr5 Ru3 2.958178 1_555
Pr5 Ru6 3.001582 1_555
Pr5 Ru2 3.033369 1_555
Pr5 Ru9 3.080605 1_555
Pr6 Ru0 2.958178 1_555
Pr6 Ru5 3.001582 1_565
Pr6 Ru1 3.033369 1_565
Pr6 Ru10 3.080605 1_555
Pr7 Ru1 2.958178 1_555
Pr7 Ru4 3.001582 1_555
Pr7 Ru0 3.033369 1_555
Pr7 Ru11 3.080605 1_555
Pr8 Ru11 2.859435 1_565
Pr8 Ru4 3.044943 1_555
Pr8 Ru7 3.143140 1_554
Pr9 Ru10 2.859435 1_555
Pr9 Ru5 3.044943 1_555
Pr9 Ru6 3.143140 1_455
Pr10 Ru9 2.859435 1_545
Pr10 Ru6 3.044943 1_555
Pr10 Ru5 3.143140 1_555
Pr11 Ru8 2.859435 1_555
Pr11 Ru7 3.044943 1_555
Pr11 Ru4 3.143140 1_656
Pr12 Ru7 2.859435 1_545
Pr12 Ru8 3.044943 1_555
Pr12 Ru11 3.143140 1_556
Pr13 Ru6 2.859435 1_555
Pr13 Ru9 3.044943 1_555
Pr13 Ru10 3.143140 1_655
Pr14 Ru5 2.859435 1_565
Pr14 Ru10 3.044943 1_555
Pr14 Ru9 3.143140 1_555
Pr15 Ru4 2.859435 1_555
Pr15 Ru11 3.044943 1_555
Pr15 Ru8 3.143140 1_454
Pr16 Ru1 2.798827 1_665
Pr16 Ru0 2.857225 1_555
Pr17 Ru0 2.798827 1_555
Pr17 Ru1 2.857225 1_655
Pr18 Ru3 2.798827 1_445
Pr18 Ru2 2.857225 1_555
Pr19 Ru2 2.798827 1_555
Pr19 Ru3 2.857225 1_455
Pr20 Ru4 2.777201 1_655
Pr20 Ru11 2.889170 1_565
Pr20 Ru1 3.423010 1_665
Pr21 Ru5 2.777201 1_555
Pr21 Ru10 2.889170 1_655
Pr21 Ru0 3.423010 1_555
Pr22 Ru6 2.777201 1_455
Pr22 Ru9 2.889170 1_545
Pr22 Ru3 3.423010 1_445
Pr23 Ru7 2.777201 1_555
Pr23 Ru8 2.889170 1_455
Pr23 Ru2 3.423010 1_555
Pr24 Ru8 2.777201 1_455
Pr24 Ru7 2.889170 1_545
Pr24 Ru3 3.423010 1_445
Pr25 Ru9 2.777201 1_555
Pr25 Ru6 2.889170 1_455
Pr25 Ru2 3.423010 1_555
Pr26 Ru10 2.777201 1_655
Pr26 Ru5 2.889170 1_565
Pr26 Ru1 3.423010 1_665
Pr27 Ru11 2.777201 1_555
Pr27 Ru4 2.889170 1_655
Pr27 Ru0 3.423010 1_555
