# generated using pymatgen
data_Sr2YCu2BiPbO8
_symmetry_space_group_name_H-M   'P 1'
_cell_length_a   31.79461600
_cell_length_b   5.40566500
_cell_length_c   7.67031497
_cell_angle_alpha   45.26549826
_cell_angle_beta   90.00000000
_cell_angle_gamma   90.00000000
_symmetry_Int_Tables_number   1
_chemical_formula_structural   Sr2YCu2BiPbO8
_chemical_formula_sum   'Sr8 Y4 Cu8 Bi4 Pb4 O32'
_cell_volume   936.49196978
_cell_formula_units_Z   4
loop_
 _symmetry_equiv_pos_site_id
 _symmetry_equiv_pos_as_xyz
  1  'x, y, z'
loop_
 _atom_site_type_symbol
 _atom_site_label
 _atom_site_symmetry_multiplicity
 _atom_site_fract_x
 _atom_site_fract_y
 _atom_site_fract_z
 _atom_site_occupancy
  Sr  Sr0  1  0.63874400  0.28672000  0.24567500  1
  Sr  Sr1  1  0.36150700  0.72333800  0.24535800  1
  Sr  Sr2  1  0.86150700  0.27666200  0.25464200  1
  Sr  Sr3  1  0.13874400  0.71328000  0.25432500  1
  Sr  Sr4  1  0.36125600  0.71328000  0.75432500  1
  Sr  Sr5  1  0.63849300  0.27666200  0.75464200  1
  Sr  Sr6  1  0.13849300  0.72333800  0.74535800  1
  Sr  Sr7  1  0.86125600  0.28672000  0.74567500  1
  Y  Y0  1  0.75004500  0.27110900  0.25080200  1
  Y  Y1  1  0.25004500  0.72889100  0.24919800  1
  Y  Y2  1  0.24995500  0.72889100  0.74919800  1
  Y  Y3  1  0.74995500  0.27110900  0.75080200  1
  Cu  Cu0  1  0.69889500  0.77487600  0.25145800  1
  Cu  Cu1  1  0.30360100  0.22434400  0.24909200  1
  Cu  Cu2  1  0.80360100  0.77565600  0.25090800  1
  Cu  Cu3  1  0.19889500  0.22512400  0.24854200  1
  Cu  Cu4  1  0.30110500  0.22512400  0.74854200  1
  Cu  Cu5  1  0.69639900  0.77565600  0.75090800  1
  Cu  Cu6  1  0.19639900  0.22434400  0.74909200  1
  Cu  Cu7  1  0.80110500  0.77487600  0.75145800  1
  Bi  Bi0  1  0.44516300  0.22170700  0.71994000  1
  Bi  Bi1  1  0.94516300  0.77829300  0.78006000  1
  Bi  Bi2  1  0.55483700  0.77829300  0.28006000  1
  Bi  Bi3  1  0.05483700  0.22170700  0.21994000  1
  Pb  Pb0  1  0.55434000  0.81599200  0.73369500  1
  Pb  Pb1  1  0.05434000  0.18400800  0.76630500  1
  Pb  Pb2  1  0.44566000  0.18400800  0.26630500  1
  Pb  Pb3  1  0.94566000  0.81599200  0.23369500  1
  O  O0  1  0.70434300  0.27857100  0.47979000  1
  O  O1  1  0.29599400  0.26526300  0.48039100  1
  O  O2  1  0.79599400  0.73473700  0.01960900  1
  O  O3  1  0.20434300  0.72142900  0.02021000  1
  O  O4  1  0.29565700  0.72142900  0.52021000  1
  O  O5  1  0.70400600  0.73473700  0.51960900  1
  O  O6  1  0.20400600  0.26526300  0.98039100  1
  O  O7  1  0.79565700  0.27857100  0.97979000  1
  O  O8  1  0.70247400  0.27146800  0.02415700  1
  O  O9  1  0.29710100  0.18342600  0.01755600  1
  O  O10  1  0.79710100  0.81657400  0.48244400  1
  O  O11  1  0.20247400  0.72853200  0.47584300  1
  O  O12  1  0.29752600  0.72853200  0.97584300  1
  O  O13  1  0.70289900  0.81657400  0.98244400  1
  O  O14  1  0.20289900  0.18342600  0.51755600  1
  O  O15  1  0.79752600  0.27146800  0.52415700  1
  O  O16  1  0.62057500  0.78152100  0.22987000  1
  O  O17  1  0.37625000  0.23809100  0.23782600  1
  O  O18  1  0.87625000  0.76190900  0.26217400  1
  O  O19  1  0.12057500  0.21847900  0.27013000  1
  O  O20  1  0.37942500  0.21847900  0.77013000  1
  O  O21  1  0.62375000  0.76190900  0.76217400  1
  O  O22  1  0.12375000  0.23809100  0.73782600  1
  O  O23  1  0.87942500  0.78152100  0.72987000  1
  O  O24  1  0.56152000  0.12879000  0.32050500  1
  O  O25  1  0.43999100  0.67995300  0.33822800  1
  O  O26  1  0.93999100  0.32004700  0.16177200  1
  O  O27  1  0.06152000  0.87121000  0.17949500  1
  O  O28  1  0.43848000  0.87121000  0.67949500  1
  O  O29  1  0.56000900  0.32004700  0.66177200  1
  O  O30  1  0.06000900  0.67995300  0.83822800  1
  O  O31  1  0.93848000  0.12879000  0.82050500  1
loop_
_geom_bond_atom_site_label_1
_geom_bond_atom_site_label_2
_geom_bond_distance
_geom_bond_site_symmetry_2
Cu0 O13 1.915730 1_554
Cu0 O8 1.915894 1_565
Cu0 O5 1.917216 1_555
Cu0 O0 1.918582 1_555
Cu0 O16 2.494234 1_555
Cu1 O9 1.949000 1_555
Cu1 O1 1.951252 1_555
Cu1 O12 1.953814 1_554
Cu1 O4 1.954742 1_545
Cu1 O17 2.310702 1_555
Cu2 O10 1.949000 1_555
Cu2 O2 1.951252 1_555
Cu2 O15 1.953814 1_555
Cu2 O7 1.954742 1_564
Cu2 O18 2.310702 1_555
Cu3 O14 1.915730 1_555
Cu3 O11 1.915894 1_545
Cu3 O6 1.917216 1_554
Cu3 O3 1.918582 1_555
Cu3 O19 2.494234 1_555
Cu4 O9 1.915730 1_556
Cu4 O12 1.915894 1_545
Cu4 O1 1.917216 1_555
Cu4 O4 1.918582 1_555
Cu4 O20 2.494234 1_555
Cu5 O13 1.949000 1_555
Cu5 O5 1.951252 1_555
Cu5 O8 1.953814 1_556
Cu5 O0 1.954742 1_565
Cu5 O21 2.310702 1_555
Cu6 O14 1.949000 1_555
Cu6 O6 1.951252 1_555
Cu6 O11 1.953814 1_555
Cu6 O3 1.954742 1_546
Cu6 O22 2.310702 1_555
Cu7 O10 1.915730 1_555
Cu7 O15 1.915894 1_565
Cu7 O2 1.917216 1_556
Cu7 O7 1.918582 1_555
Cu7 O23 2.494234 1_555
Bi0 O20 2.123118 1_555
Bi0 O25 2.127519 1_555
Bi0 O28 2.135074 1_545
Bi1 O23 2.123118 1_555
Bi1 O26 2.127519 1_556
Bi1 O31 2.135074 1_565
Bi2 O16 2.123118 1_555
Bi2 O29 2.127519 1_555
Bi2 O24 2.135074 1_565
Bi3 O19 2.123118 1_555
Bi3 O30 2.127519 1_554
Bi3 O27 2.135074 1_545
O0 Y0 2.301688 1_555
O0 Y3 2.511556 1_555
O0 Sr0 2.732285 1_555
O0 Sr5 2.966053 1_555
O1 Y1 2.303058 1_555
O1 Y2 2.526952 1_545
O1 Sr1 2.726998 1_555
O1 Sr4 2.966216 1_545
O2 Y0 2.303058 1_555
O2 Y3 2.526952 1_564
O2 Sr2 2.726998 1_555
O2 Sr7 2.966216 1_564
O3 Y1 2.301688 1_555
O3 Y2 2.511556 1_554
O3 Sr3 2.732285 1_555
O3 Sr6 2.966053 1_554
O4 Y2 2.301688 1_555
O4 Y1 2.511556 1_555
O4 Sr4 2.732285 1_555
O4 Sr1 2.966053 1_555
O5 Y3 2.303058 1_555
O5 Y0 2.526952 1_565
O5 Sr5 2.726998 1_555
O5 Sr0 2.966216 1_565
O6 Y2 2.303058 1_555
O6 Y1 2.526952 1_546
O6 Sr6 2.726998 1_555
O6 Sr3 2.966216 1_546
O7 Y3 2.301688 1_555
O7 Y0 2.511556 1_556
O7 Sr7 2.732285 1_555
O7 Sr2 2.966053 1_556
O8 Y0 2.303277 1_555
O8 Y3 2.584758 1_554
O8 Sr0 2.682676 1_555
O8 Sr5 2.886321 1_554
O9 Y1 2.299392 1_545
O9 Y2 2.575784 1_554
O9 Sr1 2.704588 1_545
O9 Sr4 2.881076 1_554
O10 Y0 2.299392 1_565
O10 Y3 2.575784 1_555
O10 Sr2 2.704588 1_565
O10 Sr7 2.881076 1_555
O11 Y1 2.303277 1_555
O11 Y2 2.584758 1_555
O11 Sr3 2.682676 1_555
O11 Sr6 2.886321 1_555
O12 Y2 2.303277 1_555
O12 Y1 2.584758 1_556
O12 Sr4 2.682676 1_555
O12 Sr1 2.886321 1_556
O13 Y3 2.299392 1_565
O13 Y0 2.575784 1_556
O13 Sr5 2.704588 1_565
O13 Sr0 2.881076 1_556
O14 Y2 2.299392 1_545
O14 Y1 2.575784 1_555
O14 Sr6 2.704588 1_545
O14 Sr3 2.881076 1_555
O15 Y3 2.303277 1_555
O15 Y0 2.584758 1_555
O15 Sr7 2.682676 1_555
O15 Sr2 2.886321 1_555
O16 Sr5 2.653677 1_564
O16 Sr0 2.654457 1_555
O16 Sr0 2.876187 1_565
O16 Sr5 2.917432 1_555
O17 Pb2 2.216651 1_555
O17 Sr4 2.677611 1_554
O17 Sr1 2.704985 1_555
O17 Sr1 2.782002 1_545
O17 Sr4 2.854809 1_545
O18 Pb3 2.216651 1_555
O18 Sr7 2.677611 1_555
O18 Sr2 2.704985 1_555
O18 Sr2 2.782002 1_565
O18 Sr7 2.854809 1_564
O19 Sr6 2.653677 1_545
O19 Sr3 2.654457 1_555
O19 Sr3 2.876187 1_545
O19 Sr6 2.917432 1_554
O20 Sr1 2.653677 1_546
O20 Sr4 2.654457 1_555
O20 Sr4 2.876187 1_545
O20 Sr1 2.917432 1_555
O21 Pb0 2.216651 1_555
O21 Sr0 2.677611 1_556
O21 Sr5 2.704985 1_555
O21 Sr5 2.782002 1_565
O21 Sr0 2.854809 1_565
O22 Pb1 2.216651 1_555
O22 Sr3 2.677611 1_555
O22 Sr6 2.704985 1_555
O22 Sr6 2.782002 1_545
O22 Sr3 2.854809 1_546
O23 Sr2 2.653677 1_565
O23 Sr7 2.654457 1_555
O23 Sr7 2.876187 1_565
O23 Sr2 2.917432 1_556
O24 Pb0 2.326414 1_545
O24 Sr0 2.529239 1_555
O25 Pb2 2.375958 1_565
O25 Sr1 2.560104 1_555
O26 Pb3 2.375958 1_545
O26 Sr2 2.560104 1_555
O27 Pb1 2.326414 1_564
O27 Sr3 2.529239 1_555
O28 Pb2 2.326414 1_565
O28 Sr4 2.529239 1_555
O29 Pb0 2.375958 1_545
O29 Sr5 2.560104 1_555
O30 Pb1 2.375958 1_565
O30 Sr6 2.560104 1_555
O31 Pb3 2.326414 1_546
O31 Sr7 2.529239 1_555
