# generated using pymatgen
data_SmAl4
_symmetry_space_group_name_H-M   'P 1'
_cell_length_a   7.88212109
_cell_length_b   7.88212109
_cell_length_c   7.88212109
_cell_angle_alpha   147.32369709
_cell_angle_beta   132.21452012
_cell_angle_gamma   59.09324215
_symmetry_Int_Tables_number   1
_chemical_formula_structural   SmAl4
_chemical_formula_sum   'Sm2 Al8'
_cell_volume   194.15437527
_cell_formula_units_Z   2
loop_
 _symmetry_equiv_pos_site_id
 _symmetry_equiv_pos_as_xyz
  1  'x, y, z'
loop_
 _atom_site_type_symbol
 _atom_site_label
 _atom_site_symmetry_multiplicity
 _atom_site_fract_x
 _atom_site_fract_y
 _atom_site_fract_z
 _atom_site_occupancy
  Sm  Sm0  1  0.13606789  0.88606789  0.25000000  1
  Sm  Sm1  1  0.86393211  0.11393211  0.75000000  1
  Al  Al0  1  0.50000000  0.50000000  0.00000000  1
  Al  Al1  1  0.00000000  0.50000000  0.50000000  1
  Al  Al2  1  0.36432132  0.11432132  0.25000000  1
  Al  Al3  1  0.63567868  0.88567868  0.75000000  1
  Al  Al4  1  0.65597168  0.69798646  0.95798522  1
  Al  Al5  1  0.34402832  0.30201354  0.04201478  1
  Al  Al6  1  0.75999875  0.30201354  0.45798522  1
  Al  Al7  1  0.24000125  0.69798646  0.54201478  1
loop_
_geom_bond_atom_site_label_1
_geom_bond_atom_site_label_2
_geom_bond_distance
_geom_bond_site_symmetry_2
Al0 Al5 2.728441 1_555
Al0 Al4 2.728441 1_554
Al0 Sm1 3.147327 1_565
Al0 Sm0 3.147327 1_555
Al0 Sm1 3.147327 1_554
Al0 Sm0 3.147327 1_544
Al1 Al6 2.728441 1_455
Al1 Al7 2.728441 1_555
Al1 Sm1 3.147327 1_465
Al1 Sm1 3.147327 1_454
Al1 Sm0 3.147327 1_556
Al1 Sm0 3.147327 1_545
Al2 Al7 2.827788 1_555
Al2 Al4 2.827788 1_555
Al2 Al4 2.827788 1_544
Al2 Al7 2.827788 1_544
Al2 Al6 2.896413 1_555
Al2 Al5 2.896413 1_555
Al2 Sm0 3.130308 1_545
Al2 Sm1 3.192466 1_555
Al2 Sm1 3.192466 1_454
Al3 Al6 2.827788 1_555
Al3 Al5 2.827788 1_566
Al3 Al5 2.827788 1_555
Al3 Al6 2.827788 1_566
Al3 Al7 2.896413 1_555
Al3 Al4 2.896413 1_555
Al3 Sm1 3.130308 1_565
Al3 Sm0 3.192466 1_555
Al3 Sm0 3.192466 1_656
Al4 Al6 2.636603 1_555
Al4 Al6 2.636603 1_566
Al4 Al7 2.655940 1_555
Al4 Sm1 3.117930 1_566
Al4 Sm1 3.117930 1_555
Al4 Sm0 3.182694 1_656
Al5 Al7 2.636603 1_555
Al5 Al7 2.636603 1_544
Al5 Al6 2.655940 1_555
Al5 Sm0 3.117930 1_544
Al5 Sm0 3.117930 1_555
Al5 Sm1 3.182694 1_454
Al6 Sm0 3.117930 1_656
Al6 Sm0 3.117930 1_645
Al6 Sm1 3.182694 1_555
Al7 Sm1 3.117930 1_454
Al7 Sm1 3.117930 1_465
Al7 Sm0 3.182694 1_555
