# generated using pymatgen
data_Li5Mn4(P2O7)4
_symmetry_space_group_name_H-M   'P 1'
_cell_length_a   9.79493500
_cell_length_b   9.85000534
_cell_length_c   11.23165675
_cell_angle_alpha   102.66333604
_cell_angle_beta   90.15184986
_cell_angle_gamma   90.66344724
_symmetry_Int_Tables_number   1
_chemical_formula_structural   Li5Mn4(P2O7)4
_chemical_formula_sum   'Li10 Mn8 P16 O56'
_cell_volume   1057.18690991
_cell_formula_units_Z   2
loop_
 _symmetry_equiv_pos_site_id
 _symmetry_equiv_pos_as_xyz
  1  'x, y, z'
loop_
 _atom_site_type_symbol
 _atom_site_label
 _atom_site_symmetry_multiplicity
 _atom_site_fract_x
 _atom_site_fract_y
 _atom_site_fract_z
 _atom_site_occupancy
  Li  Li0  1  0.56451600  0.15800800  0.53111700  1
  Li  Li1  1  0.89175900  0.08490000  0.01888200  1
  Li  Li2  1  0.38983500  0.40951900  0.97456100  1
  Li  Li3  1  0.03885700  0.40482000  0.50490100  1
  Li  Li4  1  0.60536600  0.58612300  0.03279000  1
  Li  Li5  1  0.40568900  0.85661200  0.95471200  1
  Li  Li6  1  0.91236400  0.64007000  0.04672900  1
  Li  Li7  1  0.10377600  0.90975400  0.96778900  1
  Li  Li8  1  0.40689900  0.82272700  0.44815000  1
  Li  Li9  1  0.71889200  0.88261700  0.54810200  1
  Mn  Mn0  1  0.07734000  0.19915600  0.67025300  1
  Mn  Mn1  1  0.79002500  0.25215800  0.82089700  1
  Mn  Mn2  1  0.29148200  0.24371900  0.17986600  1
  Mn  Mn3  1  0.57989900  0.30825800  0.33078200  1
  Mn  Mn4  1  0.42351400  0.70355900  0.67183300  1
  Mn  Mn5  1  0.71855000  0.74774400  0.82742500  1
  Mn  Mn6  1  0.21712300  0.73733900  0.17191300  1
  Mn  Mn7  1  0.93128300  0.80543300  0.33392100  1
  P  P0  1  0.54979200  0.02462000  0.75537800  1
  P  P1  1  0.29017500  0.12133800  0.88506600  1
  P  P2  1  0.06737500  0.06068700  0.24014800  1
  P  P3  1  0.85477100  0.12879400  0.43471600  1
  P  P4  1  0.35390600  0.38164200  0.57187100  1
  P  P5  1  0.56987100  0.43527100  0.75954400  1
  P  P6  1  0.95113100  0.51528500  0.75352100  1
  P  P7  1  0.79168400  0.37624700  0.11441300  1
  P  P8  1  0.20830700  0.61489900  0.88850200  1
  P  P9  1  0.05977800  0.46680500  0.24080200  1
  P  P10  1  0.42755500  0.56709400  0.24105400  1
  P  P11  1  0.65413800  0.62832100  0.41633500  1
  P  P12  1  0.14389300  0.87840600  0.57143800  1
  P  P13  1  0.92263300  0.93203400  0.75319600  1
  P  P14  1  0.71119900  0.88276400  0.12235800  1
  P  P15  1  0.44830700  0.98182100  0.24831100  1
  O  O0  1  0.57870300  0.01731200  0.62221800  1
  O  O1  1  0.15213000  0.03405800  0.56845500  1
  O  O2  1  0.91408800  0.08200000  0.73251600  1
  O  O3  1  0.65765500  0.10624100  0.84428500  1
  O  O4  1  0.41042500  0.10768300  0.78383700  1
  O  O5  1  0.17260800  0.18116300  0.82343900  1
  O  O6  1  0.34543000  0.22519000  0.00025500  1
  O  O7  1  0.74746700  0.01740800  0.09168200  1
  O  O8  1  0.92951600  0.12337400  0.30472300  1
  O  O9  1  0.05466200  0.05464300  0.10554800  1
  O  O10  1  0.45871500  0.13464200  0.22240400  1
  O  O11  1  0.71466800  0.18898600  0.42050300  1
  O  O12  1  0.18653200  0.15846400  0.29491000  1
  O  O13  1  0.94736000  0.22095100  0.53143700  1
  O  O14  1  0.44603600  0.29434100  0.47248300  1
  O  O15  1  0.68005000  0.32894600  0.70088300  1
  O  O16  1  0.21060200  0.32446100  0.58074300  1
  O  O17  1  0.96315000  0.36042000  0.77859400  1
  O  O18  1  0.42689400  0.37144000  0.69953600  1
  O  O19  1  0.56071600  0.43876300  0.89424800  1
  O  O20  1  0.23431300  0.47927000  0.92085800  1
  O  O21  1  0.83991500  0.26914900  0.99942100  1
  O  O22  1  0.67201100  0.31675500  0.17643900  1
  O  O23  1  0.91304700  0.39009400  0.21309800  1
  O  O24  1  0.41263100  0.42039900  0.26738700  1
  O  O25  1  0.15936000  0.37468900  0.14958000  1
  O  O26  1  0.91929400  0.51566000  0.62433400  1
  O  O27  1  0.66418500  0.47743900  0.42897900  1
  O  O28  1  0.35007400  0.53684400  0.56657700  1
  O  O29  1  0.09066300  0.47473600  0.37124700  1
  O  O30  1  0.85920400  0.59512500  0.85571100  1
  O  O31  1  0.58624200  0.58065900  0.72856300  1
  O  O32  1  0.09996700  0.58878500  0.77761000  1
  O  O33  1  0.32947400  0.68887300  0.84023700  1
  O  O34  1  0.14033000  0.72219400  0.99650700  1
  O  O35  1  0.76963100  0.51675800  0.08579300  1
  O  O36  1  0.42587000  0.57000100  0.10680700  1
  O  O37  1  0.57723200  0.62491500  0.28798000  1
  O  O38  1  0.04739700  0.60947000  0.20115400  1
  O  O39  1  0.79260800  0.69706200  0.40530100  1
  O  O40  1  0.32534800  0.67376300  0.30875500  1
  O  O41  1  0.56762700  0.72311700  0.51473700  1
  O  O42  1  0.06725300  0.79109900  0.46061800  1
  O  O43  1  0.80460400  0.84011200  0.69093300  1
  O  O44  1  0.28622500  0.82173900  0.58657000  1
  O  O45  1  0.52733400  0.87591800  0.78470400  1
  O  O46  1  0.93218200  0.92402200  0.88620700  1
  O  O47  1  0.06343000  0.86689800  0.69337200  1
  O  O48  1  0.26695600  0.97956200  0.91217100  1
  O  O49  1  0.64722500  0.77534600  0.01256400  1
  O  O50  1  0.82697200  0.80684900  0.17881600  1
  O  O51  1  0.59756400  0.91305100  0.22891000  1
  O  O52  1  0.35592500  0.89452000  0.14729000  1
  O  O53  1  0.08134500  0.91198100  0.26871900  1
  O  O54  1  0.84225600  0.97855400  0.45009400  1
  O  O55  1  0.41596500  0.98102700  0.37807500  1
loop_
_geom_bond_atom_site_label_1
_geom_bond_atom_site_label_2
_geom_bond_distance
_geom_bond_site_symmetry_2
Li0 O0 1.900608 1_555
Li0 O11 1.991270 1_555
Li0 O14 2.000894 1_555
Li0 O15 2.507616 1_555
Li0 O55 2.593260 1_545
Li1 O7 1.825029 1_555
Li1 O9 1.926740 1_655
Li1 O21 1.947825 1_554
Li1 O46 1.967431 1_544
Li2 O20 1.832333 1_555
Li2 O6 1.944511 1_556
Li2 O36 1.945364 1_556
Li2 O19 1.951647 1_555
Li3 O29 1.853225 1_555
Li3 O26 1.938744 1_455
Li3 O13 2.091084 1_455
Li3 O16 2.121535 1_555
Li4 O35 1.899659 1_555
Li4 O19 1.926354 1_554
Li4 O49 1.965217 1_555
Li4 O36 1.966366 1_555
Li5 O48 1.957011 1_555
Li5 O33 1.993800 1_555
Li5 O52 2.170519 1_556
Li5 O45 2.295200 1_555
Li5 O49 2.631323 1_556
Li6 O35 1.954474 1_555
Li6 O50 2.137538 1_555
Li6 O30 2.154616 1_554
Li6 O38 2.252736 1_655
Li6 O34 2.474538 1_654
Li7 O48 1.893644 1_555
Li7 O9 1.927149 1_566
Li7 O46 1.933405 1_455
Li7 O34 1.980239 1_555
Li8 O55 1.895747 1_555
Li8 O44 1.957131 1_555
Li8 O40 2.049695 1_555
Li8 O41 2.086083 1_555
Li9 O43 1.936273 1_555
Li9 O0 1.975539 1_565
Li9 O54 2.000377 1_555
Li9 O41 2.118716 1_555
Li9 O39 2.277232 1_555
Mn0 O1 1.924918 1_555
Mn0 O5 1.997853 1_555
Mn0 O13 2.059235 1_455
Mn0 O17 2.110875 1_455
Mn0 O2 2.166723 1_455
Mn0 O16 2.179813 1_555
Mn1 O3 1.984951 1_555
Mn1 O15 2.001901 1_555
Mn1 O21 2.033001 1_555
Mn1 O17 2.103098 1_555
Mn1 O2 2.143672 1_555
Mn2 O25 1.919231 1_555
Mn2 O12 1.973411 1_555
Mn2 O6 2.056358 1_555
Mn2 O10 2.080254 1_555
Mn2 O24 2.144530 1_555
Mn3 O27 1.957672 1_555
Mn3 O22 1.973904 1_555
Mn3 O14 2.091298 1_555
Mn3 O11 2.164761 1_555
Mn3 O24 2.189054 1_555
Mn3 O10 2.201777 1_555
Mn4 O28 1.930971 1_555
Mn4 O45 2.129105 1_555
Mn4 O33 2.138480 1_555
Mn4 O44 2.144448 1_555
Mn4 O31 2.188492 1_555
Mn4 O41 2.301929 1_555
Mn5 O43 2.118741 1_555
Mn5 O30 2.124600 1_555
Mn5 O49 2.156431 1_556
Mn5 O31 2.182383 1_555
Mn5 O45 2.376492 1_555
Mn5 O46 2.689849 1_555
Mn6 O40 2.075298 1_555
Mn6 O34 2.080869 1_554
Mn6 O52 2.112554 1_555
Mn6 O38 2.143305 1_555
Mn6 O53 2.269514 1_555
Mn6 O36 2.643807 1_555
Mn7 O42 1.975107 1_655
Mn7 O39 1.993648 1_555
Mn7 O50 2.020029 1_555
Mn7 O53 2.026119 1_655
Mn7 O54 2.106115 1_555
Mn7 O38 2.457808 1_655
O0 P0 1.509215 1_555
O1 P12 1.542052 1_545
O2 P13 1.547955 1_545
O3 P0 1.543526 1_555
O4 P0 1.596422 1_555
O4 P1 1.625367 1_555
O5 P1 1.530610 1_555
O6 P1 1.554466 1_554
O7 P14 1.481187 1_545
O8 P2 1.599630 1_655
O8 P3 1.625717 1_555
O9 P2 1.504627 1_555
O10 P15 1.596746 1_545
O11 P3 1.522954 1_555
O12 P2 1.542246 1_555
O13 P3 1.539468 1_555
O14 P4 1.549949 1_555
O15 P5 1.556601 1_555
O16 P4 1.518040 1_555
O17 P6 1.616293 1_555
O18 P5 1.612340 1_555
O18 P4 1.623774 1_555
O19 P5 1.508712 1_555
O20 P8 1.483900 1_555
O21 P7 1.556129 1_556
O22 P7 1.539532 1_555
O23 P7 1.607244 1_555
O23 P9 1.613306 1_655
O24 P10 1.542539 1_555
O25 P9 1.562890 1_555
O26 P6 1.484113 1_555
O27 P11 1.527893 1_555
O28 P4 1.543750 1_555
O29 P9 1.480236 1_555
O30 P6 1.540358 1_555
O31 P5 1.552768 1_555
O32 P8 1.609271 1_555
O32 P6 1.615618 1_455
O33 P8 1.545932 1_555
O34 P8 1.578068 1_555
O35 P7 1.505708 1_555
O36 P10 1.514401 1_555
O37 P10 1.611365 1_555
O37 P11 1.618440 1_555
O38 P9 1.570277 1_555
O39 P11 1.526368 1_555
O40 P10 1.537035 1_555
O41 P11 1.543448 1_555
O42 P12 1.537246 1_555
O43 P13 1.529459 1_555
O44 P12 1.530491 1_555
O45 P0 1.583262 1_565
O46 P13 1.515895 1_555
O47 P12 1.606643 1_555
O47 P13 1.612891 1_455
O48 P1 1.507983 1_565
O49 P14 1.562481 1_555
O50 P14 1.571912 1_555
O51 P15 1.613559 1_555
O51 P14 1.618120 1_555
O52 P15 1.547385 1_555
O53 P2 1.574072 1_565
O54 P3 1.530633 1_565
O55 P15 1.493990 1_555
