# generated using pymatgen
data_Rb
_symmetry_space_group_name_H-M   'P 1'
_cell_length_a   10.03698976
_cell_length_b   10.93290198
_cell_length_c   10.04275719
_cell_angle_alpha   56.86061037
_cell_angle_beta   66.33189116
_cell_angle_gamma   57.00539481
_symmetry_Int_Tables_number   1
_chemical_formula_structural   Rb
_chemical_formula_sum   Rb8
_cell_volume   765.46055093
_cell_formula_units_Z   8
loop_
 _symmetry_equiv_pos_site_id
 _symmetry_equiv_pos_as_xyz
  1  'x, y, z'
loop_
 _atom_site_type_symbol
 _atom_site_label
 _atom_site_symmetry_multiplicity
 _atom_site_fract_x
 _atom_site_fract_y
 _atom_site_fract_z
 _atom_site_occupancy
  Rb  Rb0  1  0.47923305  0.64634751  0.10993970  1
  Rb  Rb1  1  0.98511044  0.13746940  0.13476489  1
  Rb  Rb2  1  0.51212064  0.13143466  0.61326387  1
  Rb  Rb3  1  0.49483482  0.13457114  0.11632809  1
  Rb  Rb4  1  0.51258313  0.62459396  0.61325621  1
  Rb  Rb5  1  0.01068166  0.62360125  0.62822608  1
  Rb  Rb6  1  0.01674779  0.10654232  0.64683274  1
  Rb  Rb7  1  0.98722848  0.61640276  0.14116143  1
loop_
_geom_bond_atom_site_label_1
_geom_bond_atom_site_label_2
_geom_bond_distance
_geom_bond_site_symmetry_2
Rb0 Rb2 4.977646 1_564
Rb0 Rb4 4.991921 1_554
Rb0 Rb1 4.995731 1_465
Rb0 Rb7 4.999713 1_455
Rb0 Rb1 5.052655 1_555
Rb0 Rb2 5.055125 1_555
Rb0 Rb7 5.055297 1_555
Rb0 Rb4 5.067131 1_555
Rb1 Rb6 4.967119 1_654
Rb1 Rb5 5.006788 1_654
Rb1 Rb3 5.015797 1_555
Rb1 Rb5 5.019734 1_645
Rb1 Rb3 5.027828 1_655
Rb1 Rb6 5.094529 1_655
Rb2 Rb6 4.993660 1_555
Rb2 Rb3 5.003469 1_556
Rb2 Rb5 5.008814 1_555
Rb2 Rb5 5.032039 1_645
Rb2 Rb3 5.043710 1_555
Rb2 Rb6 5.060699 1_655
Rb3 Rb7 4.995518 1_455
Rb3 Rb4 4.998151 1_554
Rb3 Rb4 5.023269 1_545
Rb3 Rb7 5.052941 1_545
Rb4 Rb6 4.967914 1_565
Rb4 Rb5 4.984941 1_555
Rb4 Rb5 5.055629 1_655
Rb4 Rb6 5.085871 1_655
Rb5 Rb7 5.020029 1_456
Rb5 Rb7 5.035241 1_455
Rb6 Rb7 4.991046 1_446
Rb6 Rb7 5.040657 1_455
