# generated using pymatgen
data_BaTeS3O2
_symmetry_space_group_name_H-M   'P 1'
_cell_length_a   6.57341700
_cell_length_b   6.73404400
_cell_length_c   14.94582200
_cell_angle_alpha   90.00000000
_cell_angle_beta   90.00000000
_cell_angle_gamma   90.00000000
_symmetry_Int_Tables_number   1
_chemical_formula_structural   BaTeS3O2
_chemical_formula_sum   'Ba4 Te4 S12 O8'
_cell_volume   661.58696365
_cell_formula_units_Z   4
loop_
 _symmetry_equiv_pos_site_id
 _symmetry_equiv_pos_as_xyz
  1  'x, y, z'
loop_
 _atom_site_type_symbol
 _atom_site_label
 _atom_site_symmetry_multiplicity
 _atom_site_fract_x
 _atom_site_fract_y
 _atom_site_fract_z
 _atom_site_occupancy
  Ba  Ba0  1  0.25000000  0.81376900  0.50000000  1
  Ba  Ba1  1  0.75000000  0.18623100  0.00000000  1
  Ba  Ba2  1  0.75000000  0.18623100  0.50000000  1
  Ba  Ba3  1  0.25000000  0.81376900  0.00000000  1
  Te  Te0  1  0.52890600  0.61553700  0.75000000  1
  Te  Te1  1  0.47109400  0.38446300  0.25000000  1
  Te  Te2  1  0.97109400  0.61553700  0.25000000  1
  Te  Te3  1  0.02890600  0.38446300  0.75000000  1
  S  S0  1  0.24157900  0.34440500  0.60311600  1
  S  S1  1  0.75842100  0.65559500  0.10311600  1
  S  S2  1  0.25842100  0.34440500  0.39688400  1
  S  S3  1  0.74157900  0.65559500  0.89688400  1
  S  S4  1  0.75842100  0.65559500  0.39688400  1
  S  S5  1  0.24157900  0.34440500  0.89688400  1
  S  S6  1  0.74157900  0.65559500  0.60311600  1
  S  S7  1  0.25842100  0.34440500  0.10311600  1
  S  S8  1  0.27757800  0.85223700  0.75000000  1
  S  S9  1  0.72242200  0.14776300  0.25000000  1
  S  S10  1  0.22242200  0.85223700  0.25000000  1
  S  S11  1  0.77757800  0.14776300  0.75000000  1
  O  O0  1  0.37608100  0.15575800  0.91798000  1
  O  O1  1  0.62391900  0.84424200  0.41798000  1
  O  O2  1  0.12391900  0.15575800  0.08202000  1
  O  O3  1  0.87608100  0.84424200  0.58202000  1
  O  O4  1  0.62391900  0.84424200  0.08202000  1
  O  O5  1  0.37608100  0.15575800  0.58202000  1
  O  O6  1  0.87608100  0.84424200  0.91798000  1
  O  O7  1  0.12391900  0.15575800  0.41798000  1
loop_
_geom_bond_atom_site_label_1
_geom_bond_atom_site_label_2
_geom_bond_distance
_geom_bond_site_symmetry_2
Ba0 O7 2.737384 1_565
Ba0 O5 2.737384 1_565
Ba0 O1 2.754311 1_555
Ba0 O3 2.754311 1_455
Ba1 O4 2.737384 1_545
Ba1 O6 2.737384 1_544
Ba1 O2 2.754311 1_655
Ba1 O0 2.754311 1_554
Ba2 O1 2.737384 1_545
Ba2 O3 2.737384 1_545
Ba2 O7 2.754311 1_655
Ba2 O5 2.754311 1_555
Ba3 O0 2.737384 1_564
Ba3 O2 2.737384 1_565
Ba3 O4 2.754311 1_555
Ba3 O6 2.754311 1_454
S0 Te3 2.616580 1_555
S1 Te2 2.616580 1_555
S2 Te1 2.616580 1_555
S3 Te0 2.616580 1_555
S4 Te2 2.616580 1_555
S5 Te3 2.616580 1_555
S6 Te0 2.616580 1_555
S7 Te1 2.616580 1_555
S8 Te0 2.295659 1_555
S9 Te1 2.295659 1_555
S10 Te2 2.295659 1_455
S11 Te3 2.295659 1_655
O0 S5 1.579531 1_555
O1 S4 1.579531 1_555
O2 S7 1.579531 1_555
O3 S6 1.579531 1_555
O4 S1 1.579531 1_555
O5 S0 1.579531 1_555
O6 S3 1.579531 1_555
O7 S2 1.579531 1_555
