# generated using pymatgen
data_K4CrO4
_symmetry_space_group_name_H-M   'P 1'
_cell_length_a   6.30801762
_cell_length_b   9.33894240
_cell_length_c   6.40619361
_cell_angle_alpha   72.37469511
_cell_angle_beta   66.92907353
_cell_angle_gamma   79.92618212
_symmetry_Int_Tables_number   1
_chemical_formula_structural   K4CrO4
_chemical_formula_sum   'K8 Cr2 O8'
_cell_volume   330.22591592
_cell_formula_units_Z   2
loop_
 _symmetry_equiv_pos_site_id
 _symmetry_equiv_pos_as_xyz
  1  'x, y, z'
loop_
 _atom_site_type_symbol
 _atom_site_label
 _atom_site_symmetry_multiplicity
 _atom_site_fract_x
 _atom_site_fract_y
 _atom_site_fract_z
 _atom_site_occupancy
  K  K0  1  0.21794103  0.62301797  0.96546437  1
  K  K1  1  0.78204599  0.37695022  0.03455560  1
  K  K2  1  0.24778093  0.84454505  0.42222078  1
  K  K3  1  0.75228288  0.15545641  0.57781383  1
  K  K4  1  0.75143671  0.96468119  0.22825320  1
  K  K5  1  0.24852294  0.03534895  0.77174828  1
  K  K6  1  0.72063786  0.55939834  0.49390283  1
  K  K7  1  0.27935089  0.44058202  0.50608963  1
  Cr  Cr0  1  0.26739609  0.24789879  0.15766920  1
  Cr  Cr1  1  0.73259094  0.75209412  0.84232076  1
  O  O0  1  0.95559071  0.62426481  0.70737440  1
  O  O1  1  0.04438232  0.37575991  0.29261104  1
  O  O2  1  0.43794573  0.34074341  0.86401116  1
  O  O3  1  0.56209437  0.65926523  0.13594096  1
  O  O4  1  0.55478574  0.81156642  0.66734854  1
  O  O5  1  0.44523429  0.18844663  0.33267625  1
  O  O6  1  0.88708286  0.89939525  0.82889505  1
  O  O7  1  0.11289973  0.10058329  0.17110313  1
loop_
_geom_bond_atom_site_label_1
_geom_bond_atom_site_label_2
_geom_bond_distance
_geom_bond_site_symmetry_2
K0 O1 2.660527 1_556
K0 O4 2.711967 1_555
K0 O0 2.756551 1_455
K0 O2 2.889367 1_555
K0 O3 2.891249 1_556
K0 O6 3.156303 1_455
K1 O0 2.660955 1_554
K1 O5 2.711603 1_555
K1 O1 2.756442 1_655
K1 O3 2.889492 1_555
K1 O2 2.891112 1_554
K1 O7 3.156186 1_655
K2 O7 2.657239 1_565
K2 O0 2.716261 1_455
K2 O6 2.825112 1_455
K2 O3 2.856609 1_555
K2 O4 2.862358 1_555
K3 O6 2.657069 1_545
K3 O1 2.716150 1_655
K3 O7 2.825123 1_655
K3 O2 2.856413 1_555
K3 O5 2.862629 1_555
K4 O6 2.587576 1_554
K4 O4 2.635526 1_555
K4 O5 2.639530 1_565
K4 O7 2.649626 1_665
K5 O7 2.587341 1_556
K5 O5 2.635427 1_555
K5 O4 2.639805 1_545
K5 O6 2.649788 1_445
K6 O1 2.612402 1_655
K6 O0 2.614955 1_555
K6 O3 2.702705 1_555
K6 O4 2.772493 1_555
K6 O2 2.828340 1_555
K7 O0 2.612709 1_455
K7 O1 2.614870 1_555
K7 O2 2.702677 1_555
K7 O5 2.772125 1_555
K7 O3 2.828727 1_555
Cr0 O7 1.783689 1_555
Cr0 O2 1.789017 1_554
Cr0 O5 1.792903 1_555
Cr0 O1 1.799028 1_555
Cr1 O6 1.783577 1_555
Cr1 O3 1.788723 1_556
Cr1 O4 1.792561 1_555
Cr1 O0 1.798797 1_555
