# generated using pymatgen
data_Gd3Al5O12
_symmetry_space_group_name_H-M   'P 1'
_cell_length_a   10.57487512
_cell_length_b   10.57487512
_cell_length_c   10.57487512
_cell_angle_alpha   109.47122063
_cell_angle_beta   109.47122063
_cell_angle_gamma   109.47122063
_symmetry_Int_Tables_number   1
_chemical_formula_structural   Gd3Al5O12
_chemical_formula_sum   'Gd12 Al20 O48'
_cell_volume   910.34047432
_cell_formula_units_Z   4
loop_
 _symmetry_equiv_pos_site_id
 _symmetry_equiv_pos_as_xyz
  1  'x, y, z'
loop_
 _atom_site_type_symbol
 _atom_site_label
 _atom_site_symmetry_multiplicity
 _atom_site_fract_x
 _atom_site_fract_y
 _atom_site_fract_z
 _atom_site_occupancy
  Gd  Gd0  1  0.37500000  0.75000000  0.12500000  1
  Gd  Gd1  1  0.25000000  0.37500000  0.12500000  1
  Gd  Gd2  1  0.75000000  0.12500000  0.37500000  1
  Gd  Gd3  1  0.37500000  0.12500000  0.25000000  1
  Gd  Gd4  1  0.12500000  0.37500000  0.75000000  1
  Gd  Gd5  1  0.12500000  0.25000000  0.37500000  1
  Gd  Gd6  1  0.62500000  0.25000000  0.87500000  1
  Gd  Gd7  1  0.75000000  0.62500000  0.87500000  1
  Gd  Gd8  1  0.25000000  0.87500000  0.62500000  1
  Gd  Gd9  1  0.62500000  0.87500000  0.75000000  1
  Gd  Gd10  1  0.87500000  0.62500000  0.25000000  1
  Gd  Gd11  1  0.87500000  0.75000000  0.62500000  1
  Al  Al0  1  0.50000000  0.00000000  0.00000000  1
  Al  Al1  1  0.50000000  0.50000000  0.00000000  1
  Al  Al2  1  0.00000000  0.50000000  0.50000000  1
  Al  Al3  1  0.00000000  0.00000000  0.00000000  1
  Al  Al4  1  0.00000000  0.00000000  0.50000000  1
  Al  Al5  1  0.50000000  0.50000000  0.50000000  1
  Al  Al6  1  0.00000000  0.50000000  0.00000000  1
  Al  Al7  1  0.50000000  0.00000000  0.50000000  1
  Al  Al8  1  0.62500000  0.75000000  0.37500000  1
  Al  Al9  1  0.25000000  0.62500000  0.37500000  1
  Al  Al10  1  0.75000000  0.87500000  0.12500000  1
  Al  Al11  1  0.62500000  0.37500000  0.25000000  1
  Al  Al12  1  0.12500000  0.75000000  0.87500000  1
  Al  Al13  1  0.87500000  0.25000000  0.12500000  1
  Al  Al14  1  0.75000000  0.37500000  0.62500000  1
  Al  Al15  1  0.12500000  0.87500000  0.25000000  1
  Al  Al16  1  0.25000000  0.12500000  0.87500000  1
  Al  Al17  1  0.37500000  0.62500000  0.75000000  1
  Al  Al18  1  0.37500000  0.25000000  0.62500000  1
  Al  Al19  1  0.87500000  0.12500000  0.75000000  1
  O  O0  1  0.51758400  0.40042300  0.82015100  1
  O  O1  1  0.82015100  0.51758400  0.40042300  1
  O  O2  1  0.80256800  0.88284000  0.98241600  1
  O  O3  1  0.41972800  0.09957700  0.61716000  1
  O  O4  1  0.88284000  0.40042300  0.08027200  1
  O  O5  1  0.67984900  0.08027200  0.69743200  1
  O  O6  1  0.82015100  0.80256800  0.41972800  1
  O  O7  1  0.40042300  0.82015100  0.51758400  1
  O  O8  1  0.61716000  0.69743200  0.51758400  1
  O  O9  1  0.41972800  0.82015100  0.80256800  1
  O  O10  1  0.40042300  0.08027200  0.88284000  1
  O  O11  1  0.09957700  0.98241600  0.67984900  1
  O  O12  1  0.98241600  0.67984900  0.09957700  1
  O  O13  1  0.80256800  0.41972800  0.82015100  1
  O  O14  1  0.51758400  0.61716000  0.69743200  1
  O  O15  1  0.69743200  0.51758400  0.61716000  1
  O  O16  1  0.08027200  0.88284000  0.40042300  1
  O  O17  1  0.98241600  0.80256800  0.88284000  1
  O  O18  1  0.08027200  0.69743200  0.67984900  1
  O  O19  1  0.38284000  0.30256800  0.48241600  1
  O  O20  1  0.61716000  0.41972800  0.09957700  1
  O  O21  1  0.09957700  0.61716000  0.41972800  1
  O  O22  1  0.69743200  0.67984900  0.08027200  1
  O  O23  1  0.67984900  0.09957700  0.98241600  1
  O  O24  1  0.48241600  0.59957700  0.17984900  1
  O  O25  1  0.17984900  0.48241600  0.59957700  1
  O  O26  1  0.19743200  0.11716000  0.01758400  1
  O  O27  1  0.58027200  0.90042300  0.38284000  1
  O  O28  1  0.11716000  0.59957700  0.91972800  1
  O  O29  1  0.32015100  0.91972800  0.30256800  1
  O  O30  1  0.17984900  0.19743200  0.58027200  1
  O  O31  1  0.59957700  0.17984900  0.48241600  1
  O  O32  1  0.32015100  0.90042300  0.01758400  1
  O  O33  1  0.30256800  0.32015100  0.91972800  1
  O  O34  1  0.90042300  0.38284000  0.58027200  1
  O  O35  1  0.11716000  0.01758400  0.19743200  1
  O  O36  1  0.38284000  0.58027200  0.90042300  1
  O  O37  1  0.91972800  0.30256800  0.32015100  1
  O  O38  1  0.01758400  0.19743200  0.11716000  1
  O  O39  1  0.91972800  0.11716000  0.59957700  1
  O  O40  1  0.30256800  0.48241600  0.38284000  1
  O  O41  1  0.48241600  0.38284000  0.30256800  1
  O  O42  1  0.19743200  0.58027200  0.17984900  1
  O  O43  1  0.01758400  0.32015100  0.90042300  1
  O  O44  1  0.90042300  0.01758400  0.32015100  1
  O  O45  1  0.59957700  0.91972800  0.11716000  1
  O  O46  1  0.58027200  0.17984900  0.19743200  1
  O  O47  1  0.88284000  0.98241600  0.80256800  1
loop_
_geom_bond_atom_site_label_1
_geom_bond_atom_site_label_2
_geom_bond_distance
_geom_bond_site_symmetry_2
Gd0 O24 2.353193 1_555
Gd0 O32 2.353193 1_555
Gd0 O27 2.353200 1_555
Gd0 O28 2.353200 1_554
Gd0 O29 2.501432 1_555
Gd0 O36 2.501432 1_554
Gd0 O42 2.501432 1_555
Gd0 O45 2.501432 1_555
Gd1 O40 2.353199 1_555
Gd1 O26 2.353199 1_555
Gd1 O33 2.353200 1_554
Gd1 O42 2.353200 1_555
Gd1 O38 2.501424 1_555
Gd1 O41 2.501424 1_555
Gd1 O24 2.501426 1_555
Gd1 O43 2.501426 1_554
Gd2 O44 2.353193 1_555
Gd2 O31 2.353193 1_555
Gd2 O45 2.353200 1_545
Gd2 O34 2.353200 1_555
Gd2 O37 2.501432 1_555
Gd2 O46 2.501432 1_555
Gd2 O27 2.501432 1_545
Gd2 O39 2.501432 1_555
Gd3 O35 2.353199 1_555
Gd3 O41 2.353199 1_555
Gd3 O46 2.353200 1_555
Gd3 O29 2.353200 1_545
Gd3 O26 2.501424 1_555
Gd3 O19 2.501424 1_555
Gd3 O32 2.501426 1_545
Gd3 O31 2.501426 1_555
Gd4 O43 2.353193 1_555
Gd4 O25 2.353193 1_555
Gd4 O36 2.353200 1_555
Gd4 O39 2.353200 1_455
Gd4 O33 2.501432 1_555
Gd4 O30 2.501432 1_555
Gd4 O34 2.501432 1_455
Gd4 O28 2.501432 1_555
Gd5 O38 2.353199 1_555
Gd5 O19 2.353199 1_555
Gd5 O30 2.353200 1_555
Gd5 O37 2.353200 1_455
Gd5 O40 2.501424 1_555
Gd5 O35 2.501424 1_555
Gd5 O25 2.501426 1_555
Gd5 O44 2.501426 1_455
Gd6 O0 2.353193 1_555
Gd6 O23 2.353193 1_555
Gd6 O4 2.353200 1_556
Gd6 O3 2.353200 1_555
Gd6 O13 2.501432 1_555
Gd6 O10 2.501432 1_555
Gd6 O5 2.501432 1_555
Gd6 O20 2.501432 1_556
Gd7 O15 2.353199 1_555
Gd7 O2 2.353199 1_555
Gd7 O22 2.353200 1_556
Gd7 O13 2.353200 1_555
Gd7 O17 2.501424 1_555
Gd7 O14 2.501424 1_555
Gd7 O0 2.501426 1_555
Gd7 O12 2.501426 1_556
Gd8 O7 2.353193 1_555
Gd8 O11 2.353193 1_555
Gd8 O10 2.353200 1_565
Gd8 O21 2.353200 1_555
Gd8 O18 2.501432 1_555
Gd8 O9 2.501432 1_555
Gd8 O16 2.501432 1_555
Gd8 O3 2.501432 1_565
Gd9 O47 2.353199 1_555
Gd9 O14 2.353199 1_555
Gd9 O5 2.353200 1_565
Gd9 O9 2.353200 1_555
Gd9 O8 2.501424 1_555
Gd9 O2 2.501424 1_555
Gd9 O23 2.501426 1_565
Gd9 O7 2.501426 1_555
Gd10 O1 2.353193 1_555
Gd10 O12 2.353193 1_555
Gd10 O20 2.353200 1_555
Gd10 O16 2.353200 1_655
Gd10 O22 2.501432 1_555
Gd10 O4 2.501432 1_555
Gd10 O6 2.501432 1_555
Gd10 O21 2.501432 1_655
Gd11 O8 2.353199 1_555
Gd11 O17 2.353199 1_555
Gd11 O18 2.353200 1_655
Gd11 O6 2.353200 1_555
Gd11 O47 2.501424 1_555
Gd11 O15 2.501424 1_555
Gd11 O1 2.501426 1_555
Gd11 O11 2.501426 1_655
Al0 O46 1.947231 1_555
Al0 O45 1.947231 1_545
Al0 O9 1.947231 1_544
Al0 O10 1.947231 1_554
Al0 O32 1.947237 1_545
Al0 O23 1.947237 1_554
Al1 O33 1.947231 1_554
Al1 O36 1.947231 1_554
Al1 O20 1.947231 1_555
Al1 O22 1.947231 1_555
Al1 O24 1.947237 1_555
Al1 O0 1.947237 1_554
Al2 O37 1.947231 1_455
Al2 O34 1.947231 1_455
Al2 O21 1.947231 1_555
Al2 O18 1.947231 1_555
Al2 O25 1.947237 1_555
Al2 O1 1.947237 1_455
Al3 O35 1.947226 1_555
Al3 O38 1.947226 1_555
Al3 O26 1.947226 1_555
Al3 O47 1.947226 1_444
Al3 O17 1.947226 1_444
Al3 O2 1.947226 1_444
Al4 O30 1.947231 1_555
Al4 O39 1.947231 1_455
Al4 O16 1.947231 1_545
Al4 O6 1.947231 1_445
Al4 O44 1.947237 1_455
Al4 O11 1.947237 1_545
Al5 O40 1.947226 1_555
Al5 O41 1.947226 1_555
Al5 O19 1.947226 1_555
Al5 O8 1.947226 1_555
Al5 O14 1.947226 1_555
Al5 O15 1.947226 1_555
Al6 O42 1.947231 1_555
Al6 O28 1.947231 1_554
Al6 O4 1.947231 1_455
Al6 O13 1.947231 1_454
Al6 O43 1.947237 1_554
Al6 O12 1.947237 1_455
Al7 O29 1.947231 1_545
Al7 O27 1.947231 1_545
Al7 O3 1.947231 1_555
Al7 O5 1.947231 1_555
Al7 O31 1.947237 1_555
Al7 O7 1.947237 1_545
Al8 O6 1.789065 1_555
Al8 O27 1.789065 1_555
Al8 O24 1.789067 1_555
Al8 O8 1.789075 1_555
Al9 O42 1.789065 1_555
Al9 O21 1.789065 1_555
Al9 O7 1.789067 1_555
Al9 O40 1.789075 1_555
Al10 O22 1.789065 1_555
Al10 O45 1.789065 1_555
Al10 O44 1.789067 1_565
Al10 O2 1.789075 1_554
Al11 O20 1.789065 1_555
Al11 O46 1.789065 1_555
Al11 O1 1.789067 1_555
Al11 O41 1.789075 1_555
Al12 O28 1.789065 1_555
Al12 O18 1.789065 1_555
Al12 O32 1.789067 1_556
Al12 O17 1.789075 1_455
Al13 O4 1.789065 1_555
Al13 O37 1.789065 1_555
Al13 O23 1.789067 1_554
Al13 O38 1.789075 1_655
Al14 O13 1.789065 1_555
Al14 O34 1.789065 1_555
Al14 O31 1.789067 1_555
Al14 O15 1.789075 1_555
Al15 O16 1.789065 1_555
Al15 O29 1.789065 1_555
Al15 O12 1.789067 1_455
Al15 O35 1.789075 1_565
Al16 O10 1.789065 1_555
Al16 O33 1.789065 1_555
Al16 O11 1.789067 1_545
Al16 O26 1.789075 1_556
Al17 O9 1.789065 1_555
Al17 O36 1.789065 1_555
Al17 O25 1.789067 1_555
Al17 O14 1.789075 1_555
Al18 O30 1.789065 1_555
Al18 O3 1.789065 1_555
Al18 O0 1.789067 1_555
Al18 O19 1.789075 1_555
Al19 O5 1.789065 1_555
Al19 O39 1.789065 1_555
Al19 O43 1.789067 1_655
Al19 O47 1.789075 1_545
