# generated using pymatgen
data_K4Eu(PSe4)2
_symmetry_space_group_name_H-M   'P 1'
_cell_length_a   11.86453350
_cell_length_b   11.86453350
_cell_length_c   11.86453350
_cell_angle_alpha   134.10085078
_cell_angle_beta   128.29224773
_cell_angle_gamma   71.60318415
_symmetry_Int_Tables_number   1
_chemical_formula_structural   K4Eu(PSe4)2
_chemical_formula_sum   'K8 Eu2 P4 Se16'
_cell_volume   921.29443243
_cell_formula_units_Z   2
loop_
 _symmetry_equiv_pos_site_id
 _symmetry_equiv_pos_as_xyz
  1  'x, y, z'
loop_
 _atom_site_type_symbol
 _atom_site_label
 _atom_site_symmetry_multiplicity
 _atom_site_fract_x
 _atom_site_fract_y
 _atom_site_fract_z
 _atom_site_occupancy
  K  K0  1  0.41570300  0.29913700  0.88343400  1
  K  K1  1  0.58429700  0.70086300  0.11656600  1
  K  K2  1  0.08429700  0.46773200  0.38343400  1
  K  K3  1  0.91570300  0.53226800  0.61656600  1
  K  K4  1  0.00960900  0.75960900  0.25000000  1
  K  K5  1  0.49039100  0.24039100  0.25000000  1
  K  K6  1  0.99039100  0.24039100  0.75000000  1
  K  K7  1  0.50960900  0.75960900  0.75000000  1
  Eu  Eu0  1  0.25000000  0.00000000  0.25000000  1
  Eu  Eu1  1  0.75000000  0.00000000  0.75000000  1
  P  P0  1  0.87096700  0.07625900  0.20529200  1
  P  P1  1  0.12903300  0.92374100  0.79470800  1
  P  P2  1  0.62903300  0.33432600  0.70529200  1
  P  P3  1  0.37096700  0.66567500  0.29470800  1
  Se  Se0  1  0.09742300  0.22251400  0.47377400  1
  Se  Se1  1  0.25126000  0.77748600  0.87490900  1
  Se  Se2  1  0.40257700  0.37635100  0.62509100  1
  Se  Se3  1  0.24874000  0.62364900  0.02622600  1
  Se  Se4  1  0.90257700  0.77748600  0.52622600  1
  Se  Se5  1  0.74874000  0.22251400  0.12509100  1
  Se  Se6  1  0.59742300  0.62364900  0.37490900  1
  Se  Se7  1  0.75126000  0.37635100  0.97377400  1
  Se  Se8  1  0.39568400  0.92763300  0.53194900  1
  Se  Se9  1  0.60431600  0.07236700  0.46805100  1
  Se  Se10  1  0.10431600  0.13626400  0.03194900  1
  Se  Se11  1  0.89568400  0.86373600  0.96805100  1
  Se  Se12  1  0.24200600  0.98839100  0.74638600  1
  Se  Se13  1  0.75799400  0.01160900  0.25361400  1
  Se  Se14  1  0.25799400  0.50438000  0.24638600  1
  Se  Se15  1  0.74200600  0.49562000  0.75361400  1
loop_
_geom_bond_atom_site_label_1
_geom_bond_atom_site_label_2
_geom_bond_distance
_geom_bond_site_symmetry_2
K0 Se8 3.274842 1_545
K0 Se6 3.447407 1_556
K0 Se3 3.447407 1_556
K0 Se5 3.461203 1_556
K0 Se0 3.461203 1_555
K0 Se12 3.575297 1_545
K0 Se7 3.672206 1_555
K0 Se2 3.672206 1_555
K1 Se9 3.274842 1_565
K1 Se7 3.447407 1_554
K1 Se2 3.447407 1_554
K1 Se4 3.461203 1_555
K1 Se1 3.461203 1_554
K1 Se13 3.575297 1_565
K1 Se3 3.672206 1_555
K1 Se6 3.672206 1_555
K2 Se10 3.274849 1_555
K2 Se4 3.447401 1_455
K2 Se1 3.447406 1_555
K2 Se7 3.461199 1_454
K2 Se2 3.461209 1_555
K2 Se14 3.575279 1_555
K2 Se5 3.672213 1_455
K2 Se0 3.672218 1_555
K3 Se11 3.274849 1_555
K3 Se0 3.447401 1_655
K3 Se5 3.447406 1_555
K3 Se3 3.461199 1_656
K3 Se6 3.461209 1_555
K3 Se15 3.575279 1_555
K3 Se1 3.672213 1_655
K3 Se4 3.672218 1_555
K4 Se15 3.464663 1_454
K4 Se12 3.464665 1_555
K4 Se14 3.492774 1_555
K4 Se13 3.492781 1_465
K4 Se8 3.692938 1_555
K4 Se11 3.692948 1_454
K5 Se13 3.464657 1_555
K5 Se14 3.464663 1_555
K5 Se12 3.492774 1_544
K5 Se15 3.492774 1_555
K5 Se9 3.692938 1_555
K5 Se10 3.692940 1_555
K6 Se14 3.464663 1_656
K6 Se13 3.464665 1_555
K6 Se15 3.492774 1_555
K6 Se12 3.492781 1_645
K6 Se9 3.692938 1_555
K6 Se10 3.692948 1_656
K7 Se12 3.464657 1_555
K7 Se15 3.464663 1_555
K7 Se13 3.492774 1_566
K7 Se14 3.492774 1_555
K7 Se8 3.692938 1_555
K7 Se11 3.692940 1_555
Eu0 Se3 3.237265 1_545
Eu0 Se1 3.237265 1_544
Eu0 Se2 3.237265 1_555
Eu0 Se0 3.237265 1_555
Eu0 Se10 3.287854 1_555
Eu0 Se11 3.287862 1_444
Eu0 Se9 3.287864 1_555
Eu0 Se8 3.287864 1_545
Eu1 Se4 3.237265 1_545
Eu1 Se6 3.237265 1_545
Eu1 Se7 3.237265 1_555
Eu1 Se5 3.237265 1_556
Eu1 Se11 3.287854 1_545
Eu1 Se10 3.287862 1_656
Eu1 Se8 3.287864 1_545
Eu1 Se9 3.287864 1_555
P0 Se13 2.219696 1_555
P0 Se5 2.240352 1_555
P0 Se0 2.240352 1_655
P0 Se11 2.246011 1_544
P1 Se12 2.219696 1_555
P1 Se4 2.240352 1_455
P1 Se1 2.240352 1_555
P1 Se10 2.246011 1_566
P2 Se15 2.219694 1_555
P2 Se2 2.240350 1_555
P2 Se7 2.240359 1_555
P2 Se9 2.246020 1_555
P3 Se14 2.219705 1_555
P3 Se3 2.240352 1_555
P3 Se6 2.240352 1_555
P3 Se8 2.246014 1_555
