# generated using pymatgen
data_BaMg3
_symmetry_space_group_name_H-M   'P 1'
_cell_length_a   7.35134800
_cell_length_b   10.52061800
_cell_length_c   13.59086200
_cell_angle_alpha   90.00000000
_cell_angle_beta   90.00000000
_cell_angle_gamma   90.00000000
_symmetry_Int_Tables_number   1
_chemical_formula_structural   BaMg3
_chemical_formula_sum   'Ba8 Mg24'
_cell_volume   1051.12710813
_cell_formula_units_Z   8
loop_
 _symmetry_equiv_pos_site_id
 _symmetry_equiv_pos_as_xyz
  1  'x, y, z'
loop_
 _atom_site_type_symbol
 _atom_site_label
 _atom_site_symmetry_multiplicity
 _atom_site_fract_x
 _atom_site_fract_y
 _atom_site_fract_z
 _atom_site_occupancy
  Ba  Ba0_0  1  0.00000000  0.00000000  0.07967150  1
  Ba  Ba0_1  1  0.00000000  0.00000000  0.57967150  1
  Ba  Ba0_2  1  0.00000000  0.50000000  0.07967150  1
  Ba  Ba0_3  1  0.00000000  0.50000000  0.57967150  1
  Ba  Ba0_4  1  0.50000000  0.00000000  0.07967150  1
  Ba  Ba0_5  1  0.50000000  0.00000000  0.57967150  1
  Ba  Ba0_6  1  0.50000000  0.50000000  0.07967150  1
  Ba  Ba0_7  1  0.50000000  0.50000000  0.57967150  1
  Mg  Mg0_0  1  0.25000000  0.00000000  0.32950250  1
  Mg  Mg0_1  1  0.25000000  0.00000000  0.82950250  1
  Mg  Mg0_2  1  0.25000000  0.50000000  0.32950250  1
  Mg  Mg0_3  1  0.25000000  0.50000000  0.82950250  1
  Mg  Mg0_4  1  0.75000000  0.00000000  0.32950250  1
  Mg  Mg0_5  1  0.75000000  0.00000000  0.82950250  1
  Mg  Mg0_6  1  0.75000000  0.50000000  0.32950250  1
  Mg  Mg0_7  1  0.75000000  0.50000000  0.82950250  1
  Mg  Mg1_0  1  0.25000000  0.25000000  0.20272600  1
  Mg  Mg1_1  1  0.25000000  0.25000000  0.70272600  1
  Mg  Mg1_2  1  0.25000000  0.75000000  0.20272600  1
  Mg  Mg1_3  1  0.25000000  0.75000000  0.70272600  1
  Mg  Mg1_4  1  0.75000000  0.25000000  0.20272600  1
  Mg  Mg1_5  1  0.75000000  0.25000000  0.70272600  1
  Mg  Mg1_6  1  0.75000000  0.75000000  0.20272600  1
  Mg  Mg1_7  1  0.75000000  0.75000000  0.70272600  1
  Mg  Mg2_0  1  0.00000000  0.25000000  0.38810000  1
  Mg  Mg2_1  1  0.00000000  0.25000000  0.88810000  1
  Mg  Mg2_2  1  0.00000000  0.75000000  0.38810000  1
  Mg  Mg2_3  1  0.00000000  0.75000000  0.88810000  1
  Mg  Mg2_4  1  0.50000000  0.25000000  0.38810000  1
  Mg  Mg2_5  1  0.50000000  0.25000000  0.88810000  1
  Mg  Mg2_6  1  0.50000000  0.75000000  0.38810000  1
  Mg  Mg2_7  1  0.50000000  0.75000000  0.88810000  1
loop_
_geom_bond_atom_site_label_1
_geom_bond_atom_site_label_2
_geom_bond_distance
_geom_bond_site_symmetry_2
Ba0_0 Mg1_2 3.618333 1_545
Ba0_0 Mg1_6 3.618333 1_445
Ba0_0 Mg1_0 3.618333 1_555
Ba0_0 Mg1_4 3.618333 1_455
Ba0_0 Ba0_4 3.675674 1_555
Ba0_0 Ba0_4 3.675674 1_455
Ba0_0 Mg2_3 3.700886 1_544
Ba0_0 Mg2_1 3.700886 1_554
Ba0_0 Mg0_0 3.860895 1_555
Ba0_0 Mg0_4 3.860895 1_455
Ba0_0 Mg0_1 3.864936 1_554
Ba0_0 Mg0_5 3.864936 1_454
Ba0_1 Mg1_3 3.618333 1_545
Ba0_1 Mg1_1 3.618333 1_555
Ba0_1 Mg1_7 3.618333 1_445
Ba0_1 Mg1_5 3.618333 1_455
Ba0_1 Ba0_5 3.675674 1_555
Ba0_1 Ba0_5 3.675674 1_455
Ba0_1 Mg2_2 3.700886 1_545
Ba0_1 Mg2_0 3.700886 1_555
Ba0_1 Mg0_1 3.860895 1_555
Ba0_1 Mg0_5 3.860895 1_455
Ba0_1 Mg0_0 3.864936 1_555
Ba0_1 Mg0_4 3.864936 1_455
Ba0_2 Mg1_0 3.618333 1_555
Ba0_2 Mg1_4 3.618333 1_455
Ba0_2 Mg1_2 3.618333 1_555
Ba0_2 Mg1_6 3.618333 1_455
Ba0_2 Ba0_6 3.675674 1_555
Ba0_2 Ba0_6 3.675674 1_455
Ba0_2 Mg2_1 3.700886 1_554
Ba0_2 Mg2_3 3.700886 1_554
Ba0_2 Mg0_2 3.860895 1_555
Ba0_2 Mg0_6 3.860895 1_455
Ba0_2 Mg0_3 3.864936 1_554
Ba0_2 Mg0_7 3.864936 1_454
Ba0_3 Mg1_1 3.618333 1_555
Ba0_3 Mg1_5 3.618333 1_455
Ba0_3 Mg1_3 3.618333 1_555
Ba0_3 Mg1_7 3.618333 1_455
Ba0_3 Ba0_7 3.675674 1_555
Ba0_3 Ba0_7 3.675674 1_455
Ba0_3 Mg2_0 3.700886 1_555
Ba0_3 Mg2_2 3.700886 1_555
Ba0_3 Mg0_3 3.860895 1_555
Ba0_3 Mg0_7 3.860895 1_455
Ba0_3 Mg0_2 3.864936 1_555
Ba0_3 Mg0_6 3.864936 1_455
Ba0_4 Mg1_6 3.618333 1_545
Ba0_4 Mg1_2 3.618333 1_545
Ba0_4 Mg1_4 3.618333 1_555
Ba0_4 Mg1_0 3.618333 1_555
Ba0_4 Mg2_7 3.700886 1_544
Ba0_4 Mg2_5 3.700886 1_554
Ba0_4 Mg0_4 3.860895 1_555
Ba0_4 Mg0_0 3.860895 1_555
Ba0_4 Mg0_1 3.864936 1_554
Ba0_4 Mg0_5 3.864936 1_554
Ba0_5 Mg1_7 3.618333 1_545
Ba0_5 Mg1_3 3.618333 1_545
Ba0_5 Mg1_1 3.618333 1_555
Ba0_5 Mg1_5 3.618333 1_555
Ba0_5 Mg2_6 3.700886 1_545
Ba0_5 Mg2_4 3.700886 1_555
Ba0_5 Mg0_5 3.860895 1_555
Ba0_5 Mg0_1 3.860895 1_555
Ba0_5 Mg0_0 3.864936 1_555
Ba0_5 Mg0_4 3.864936 1_555
Ba0_6 Mg1_4 3.618333 1_555
Ba0_6 Mg1_0 3.618333 1_555
Ba0_6 Mg1_2 3.618333 1_555
Ba0_6 Mg1_6 3.618333 1_555
Ba0_6 Mg2_5 3.700886 1_554
Ba0_6 Mg2_7 3.700886 1_554
Ba0_6 Mg0_2 3.860895 1_555
Ba0_6 Mg0_6 3.860895 1_555
Ba0_6 Mg0_3 3.864936 1_554
Ba0_6 Mg0_7 3.864936 1_554
Ba0_7 Mg1_1 3.618333 1_555
Ba0_7 Mg1_5 3.618333 1_555
Ba0_7 Mg1_7 3.618333 1_555
Ba0_7 Mg1_3 3.618333 1_555
Ba0_7 Mg2_4 3.700886 1_555
Ba0_7 Mg2_6 3.700886 1_555
Ba0_7 Mg0_3 3.860895 1_555
Ba0_7 Mg0_7 3.860895 1_555
Ba0_7 Mg0_2 3.864936 1_555
Ba0_7 Mg0_6 3.864936 1_555
Mg0_0 Mg1_2 3.144272 1_545
Mg0_0 Mg1_0 3.144272 1_555
Mg0_0 Mg2_6 3.305994 1_545
Mg0_0 Mg2_2 3.305994 1_545
Mg0_0 Mg2_4 3.305994 1_555
Mg0_0 Mg2_0 3.305994 1_555
Mg0_1 Mg1_3 3.144272 1_545
Mg0_1 Mg1_1 3.144272 1_555
Mg0_1 Mg2_7 3.305994 1_545
Mg0_1 Mg2_3 3.305994 1_545
Mg0_1 Mg2_1 3.305994 1_555
Mg0_1 Mg2_5 3.305994 1_555
Mg0_2 Mg1_0 3.144272 1_555
Mg0_2 Mg1_2 3.144272 1_555
Mg0_2 Mg2_0 3.305994 1_555
Mg0_2 Mg2_4 3.305994 1_555
Mg0_2 Mg2_2 3.305994 1_555
Mg0_2 Mg2_6 3.305994 1_555
Mg0_3 Mg1_1 3.144272 1_555
Mg0_3 Mg1_3 3.144272 1_555
Mg0_3 Mg2_1 3.305994 1_555
Mg0_3 Mg2_5 3.305994 1_555
Mg0_3 Mg2_3 3.305994 1_555
Mg0_3 Mg2_7 3.305994 1_555
Mg0_4 Mg1_6 3.144272 1_545
Mg0_4 Mg1_4 3.144272 1_555
Mg0_4 Mg2_6 3.305994 1_545
Mg0_4 Mg2_2 3.305994 1_645
Mg0_4 Mg2_4 3.305994 1_555
Mg0_4 Mg2_0 3.305994 1_655
Mg0_5 Mg1_7 3.144272 1_545
Mg0_5 Mg1_5 3.144272 1_555
Mg0_5 Mg2_7 3.305994 1_545
Mg0_5 Mg2_3 3.305994 1_645
Mg0_5 Mg2_5 3.305994 1_555
Mg0_5 Mg2_1 3.305994 1_655
Mg0_6 Mg1_4 3.144272 1_555
Mg0_6 Mg1_6 3.144272 1_555
Mg0_6 Mg2_4 3.305994 1_555
Mg0_6 Mg2_0 3.305994 1_655
Mg0_6 Mg2_6 3.305994 1_555
Mg0_6 Mg2_2 3.305994 1_655
Mg0_7 Mg1_5 3.144272 1_555
Mg0_7 Mg1_7 3.144272 1_555
Mg0_7 Mg2_5 3.305994 1_555
Mg0_7 Mg2_7 3.305994 1_555
Mg0_7 Mg2_1 3.305994 1_655
Mg0_7 Mg2_3 3.305994 1_655
Mg1_0 Mg2_4 3.118491 1_555
Mg1_0 Mg2_0 3.118491 1_555
Mg1_1 Mg2_1 3.118491 1_555
Mg1_1 Mg2_5 3.118491 1_555
Mg1_2 Mg2_2 3.118491 1_555
Mg1_2 Mg2_6 3.118491 1_555
Mg1_3 Mg2_7 3.118491 1_555
Mg1_3 Mg2_3 3.118491 1_555
Mg1_4 Mg2_4 3.118491 1_555
Mg1_4 Mg2_0 3.118491 1_655
Mg1_5 Mg2_5 3.118491 1_555
Mg1_5 Mg2_1 3.118491 1_655
Mg1_6 Mg2_6 3.118491 1_555
Mg1_6 Mg2_2 3.118491 1_655
Mg1_7 Mg2_7 3.118491 1_555
Mg1_7 Mg2_3 3.118491 1_655
