# generated using pymatgen
data_Mg2Cd
_symmetry_space_group_name_H-M   'P 1'
_cell_length_a   5.42612482
_cell_length_b   5.42612328
_cell_length_c   5.03474561
_cell_angle_alpha   90.00000000
_cell_angle_beta   90.00000000
_cell_angle_gamma   119.99999698
_symmetry_Int_Tables_number   1
_chemical_formula_structural   Mg2Cd
_chemical_formula_sum   'Mg4 Cd2'
_cell_volume   128.37711541
_cell_formula_units_Z   2
loop_
 _symmetry_equiv_pos_site_id
 _symmetry_equiv_pos_as_xyz
  1  'x, y, z'
loop_
 _atom_site_type_symbol
 _atom_site_label
 _atom_site_symmetry_multiplicity
 _atom_site_fract_x
 _atom_site_fract_y
 _atom_site_fract_z
 _atom_site_occupancy
  Mg  Mg0  1  0.33962503  0.33962503  -0.00000000  1
  Mg  Mg1  1  0.00000000  0.66037497  -0.00000000  1
  Mg  Mg2  1  0.66037497  -0.00000000  0.00000000  1
  Mg  Mg3  1  -0.00000000  -0.00000000  0.50000000  1
  Cd  Cd0  1  0.66666700  0.33333300  0.50000000  1
  Cd  Cd1  1  0.33333300  0.66666700  0.50000000  1
loop_
_geom_bond_atom_site_label_1
_geom_bond_atom_site_label_2
_geom_bond_distance
_geom_bond_site_symmetry_2
Mg0 Mg2 3.103631 1_565
Mg0 Mg2 3.103631 1_555
Mg0 Mg1 3.103631 1_555
Mg0 Mg1 3.103632 1_655
Mg0 Mg3 3.119816 1_554
Mg0 Mg3 3.119816 1_555
Mg0 Mg1 3.191905 1_545
Mg0 Mg2 3.191906 1_455
Mg1 Mg2 3.103631 1_455
Mg1 Mg2 3.103632 1_565
Mg1 Mg3 3.119816 1_564
Mg1 Mg3 3.119816 1_565
Mg1 Mg2 3.191906 1_465
Mg2 Mg3 3.119816 1_655
Mg2 Mg3 3.119816 1_654
Cd0 Mg2 3.089983 1_555
Cd0 Mg2 3.089983 1_556
Cd0 Mg1 3.089985 1_655
Cd0 Mg1 3.089985 1_656
Cd0 Mg0 3.089987 1_555
Cd0 Mg0 3.089987 1_556
Cd0 Cd1 3.132771 1_545
Cd0 Mg3 3.132771 1_655
Cd0 Cd1 3.132772 1_655
Cd0 Mg3 3.132775 1_665
Cd0 Mg3 3.132776 1_555
Cd0 Cd1 3.132780 1_555
Cd1 Mg1 3.089984 1_555
Cd1 Mg1 3.089984 1_556
Cd1 Mg2 3.089985 1_565
Cd1 Mg2 3.089985 1_566
Cd1 Mg0 3.089986 1_555
Cd1 Mg0 3.089986 1_556
Cd1 Mg3 3.132771 1_565
Cd1 Mg3 3.132775 1_555
Cd1 Mg3 3.132776 1_665
