# generated using pymatgen
data_Rb2PS3
_symmetry_space_group_name_H-M   'P 1'
_cell_length_a   12.46536400
_cell_length_b   8.89335300
_cell_length_c   13.80076299
_cell_angle_alpha   87.52951613
_cell_angle_beta   90.00000000
_cell_angle_gamma   90.00000000
_symmetry_Int_Tables_number   1
_chemical_formula_structural   Rb2PS3
_chemical_formula_sum   'Rb16 P8 S24'
_cell_volume   1528.51517454
_cell_formula_units_Z   8
loop_
 _symmetry_equiv_pos_site_id
 _symmetry_equiv_pos_as_xyz
  1  'x, y, z'
loop_
 _atom_site_type_symbol
 _atom_site_label
 _atom_site_symmetry_multiplicity
 _atom_site_fract_x
 _atom_site_fract_y
 _atom_site_fract_z
 _atom_site_occupancy
  Rb  Rb0  1  0.72707000  0.20758800  0.09939000  1
  Rb  Rb1  1  0.22707000  0.29241200  0.90061000  1
  Rb  Rb2  1  0.27293000  0.79241200  0.90061000  1
  Rb  Rb3  1  0.77293000  0.70758800  0.09939000  1
  Rb  Rb4  1  0.43395500  0.84121100  0.17459000  1
  Rb  Rb5  1  0.93395500  0.65878900  0.82541000  1
  Rb  Rb6  1  0.56604500  0.15878900  0.82541000  1
  Rb  Rb7  1  0.06604500  0.34121100  0.17459000  1
  Rb  Rb8  1  0.31383800  0.62230700  0.56776100  1
  Rb  Rb9  1  0.81383800  0.87769300  0.43223900  1
  Rb  Rb10  1  0.68616200  0.37769300  0.43223900  1
  Rb  Rb11  1  0.18616200  0.12230700  0.56776100  1
  Rb  Rb12  1  0.12708100  0.77202100  0.29118600  1
  Rb  Rb13  1  0.62708100  0.72797900  0.70881400  1
  Rb  Rb14  1  0.87291900  0.22797900  0.70881400  1
  Rb  Rb15  1  0.37291900  0.27202100  0.29118600  1
  P  P0  1  0.49777600  0.93035000  0.43120700  1
  P  P1  1  0.99777600  0.56965000  0.56879300  1
  P  P2  1  0.50222400  0.06965000  0.56879300  1
  P  P3  1  0.00222400  0.43035000  0.43120700  1
  P  P4  1  0.03512000  0.94070000  0.06914000  1
  P  P5  1  0.53512000  0.55930000  0.93086000  1
  P  P6  1  0.96488000  0.05930000  0.93086000  1
  P  P7  1  0.46488000  0.44070000  0.06914000  1
  S  S0  1  0.31412700  0.52633500  0.08639400  1
  S  S1  1  0.81412700  0.97366500  0.91360600  1
  S  S2  1  0.68587300  0.47366500  0.91360600  1
  S  S3  1  0.18587300  0.02633500  0.08639400  1
  S  S4  1  0.03985200  0.71558000  0.04549400  1
  S  S5  1  0.53985200  0.78442000  0.95450600  1
  S  S6  1  0.96014800  0.28442000  0.95450600  1
  S  S7  1  0.46014800  0.21558000  0.04549400  1
  S  S8  1  0.56406700  0.49257000  0.18032700  1
  S  S9  1  0.06406700  0.00743000  0.81967300  1
  S  S10  1  0.43593300  0.50743000  0.81967300  1
  S  S11  1  0.93593300  0.99257000  0.18032700  1
  S  S12  1  0.41195800  0.95606800  0.67159800  1
  S  S13  1  0.91195800  0.54393200  0.32840200  1
  S  S14  1  0.58804200  0.04393200  0.32840200  1
  S  S15  1  0.08804200  0.45606800  0.67159800  1
  S  S16  1  0.05708500  0.77729100  0.53346900  1
  S  S17  1  0.55708500  0.72270900  0.46653100  1
  S  S18  1  0.94291500  0.22270900  0.46653100  1
  S  S19  1  0.44291500  0.27729100  0.53346900  1
  S  S20  1  0.33861400  0.92544700  0.39564000  1
  S  S21  1  0.83861400  0.57455300  0.60436000  1
  S  S22  1  0.66138600  0.07455300  0.60436000  1
  S  S23  1  0.16138600  0.42544700  0.39564000  1
loop_
_geom_bond_atom_site_label_1
_geom_bond_atom_site_label_2
_geom_bond_distance
_geom_bond_site_symmetry_2
Rb0 S11 3.390966 1_545
Rb0 S7 3.409477 1_555
Rb0 S2 3.451670 1_554
Rb0 S8 3.470407 1_555
Rb0 S1 3.541085 1_544
Rb0 S6 3.576102 1_554
Rb0 S14 3.835909 1_555
Rb1 S10 3.390966 1_555
Rb1 S6 3.409477 1_455
Rb1 S3 3.451670 1_556
Rb1 S9 3.470407 1_555
Rb1 S0 3.541085 1_556
Rb1 S7 3.576102 1_556
Rb1 S15 3.835909 1_555
Rb2 S9 3.390966 1_565
Rb2 S5 3.409477 1_555
Rb2 S0 3.451670 1_556
Rb2 S10 3.470407 1_555
Rb2 S3 3.541085 1_566
Rb2 S4 3.576102 1_556
Rb2 S12 3.835909 1_555
Rb3 S8 3.390966 1_555
Rb3 S4 3.409477 1_655
Rb3 S1 3.451670 1_554
Rb3 S11 3.470407 1_555
Rb3 S2 3.541085 1_554
Rb3 S5 3.576102 1_554
Rb3 S13 3.835909 1_555
Rb4 S5 3.369749 1_554
Rb4 S20 3.387800 1_555
Rb4 S14 3.431544 1_565
Rb4 S0 3.442119 1_555
Rb4 S8 3.497040 1_555
Rb4 S3 3.685435 1_565
Rb4 S7 3.722135 1_565
Rb5 S4 3.369749 1_656
Rb5 S21 3.387800 1_555
Rb5 S15 3.431544 1_655
Rb5 S1 3.442119 1_555
Rb5 S9 3.497040 1_665
Rb5 S2 3.685435 1_555
Rb5 S6 3.722135 1_555
Rb6 S7 3.369749 1_556
Rb6 S22 3.387800 1_555
Rb6 S12 3.431544 1_545
Rb6 S2 3.442119 1_555
Rb6 S10 3.497040 1_555
Rb6 S1 3.685435 1_545
Rb6 S5 3.722135 1_545
Rb7 S6 3.369749 1_454
Rb7 S23 3.387800 1_555
Rb7 S13 3.431544 1_455
Rb7 S3 3.442119 1_555
Rb7 S11 3.497040 1_445
Rb7 S0 3.685435 1_555
Rb7 S4 3.722135 1_555
Rb8 S17 3.440277 1_555
Rb8 S15 3.461040 1_555
Rb8 S16 3.508682 1_555
Rb8 S19 3.514652 1_555
Rb8 S20 3.529005 1_555
Rb8 S23 3.560557 1_555
Rb8 S12 3.567462 1_555
Rb8 S10 3.891080 1_555
Rb9 S16 3.440277 1_655
Rb9 S14 3.461040 1_565
Rb9 S17 3.508682 1_555
Rb9 S18 3.514652 1_565
Rb9 S21 3.529005 1_555
Rb9 S22 3.560557 1_565
Rb9 S13 3.567462 1_555
Rb9 S11 3.891080 1_555
Rb10 S19 3.440277 1_555
Rb10 S13 3.461040 1_555
Rb10 S18 3.508682 1_555
Rb10 S17 3.514652 1_555
Rb10 S22 3.529005 1_555
Rb10 S21 3.560557 1_555
Rb10 S14 3.567462 1_555
Rb10 S8 3.891080 1_555
Rb11 S18 3.440277 1_455
Rb11 S12 3.461040 1_545
Rb11 S19 3.508682 1_555
Rb11 S16 3.514652 1_545
Rb11 S23 3.529005 1_555
Rb11 S20 3.560557 1_545
Rb11 S15 3.567462 1_555
Rb11 S9 3.891080 1_555
Rb12 S20 3.326005 1_555
Rb12 S23 3.373109 1_555
Rb12 S13 3.388156 1_455
Rb12 S11 3.406843 1_455
Rb12 S16 3.457929 1_555
Rb12 S4 3.616364 1_555
Rb12 S3 3.617902 1_565
Rb13 S21 3.326005 1_555
Rb13 S22 3.373109 1_565
Rb13 S12 3.388156 1_555
Rb13 S10 3.406843 1_555
Rb13 S17 3.457929 1_555
Rb13 S5 3.616364 1_555
Rb13 S2 3.617902 1_555
Rb14 S22 3.326005 1_555
Rb14 S21 3.373109 1_555
Rb14 S15 3.388156 1_655
Rb14 S9 3.406843 1_655
Rb14 S18 3.457929 1_555
Rb14 S6 3.616364 1_555
Rb14 S1 3.617902 1_545
Rb15 S23 3.326005 1_555
Rb15 S20 3.373109 1_545
Rb15 S14 3.388156 1_555
Rb15 S8 3.406843 1_555
Rb15 S19 3.457929 1_555
Rb15 S7 3.616364 1_555
Rb15 S0 3.617902 1_555
P0 S17 2.028952 1_555
P0 S14 2.043485 1_565
P0 S20 2.044746 1_555
P1 S16 2.028952 1_655
P1 S15 2.043485 1_655
P1 S21 2.044746 1_555
P2 S19 2.028952 1_555
P2 S12 2.043485 1_545
P2 S22 2.044746 1_555
P3 S18 2.028952 1_455
P3 S13 2.043485 1_455
P3 S23 2.044746 1_555
P4 S11 2.038895 1_455
P4 S4 2.043181 1_555
P4 S3 2.045410 1_565
P5 S10 2.038895 1_555
P5 S5 2.043181 1_555
P5 S2 2.045410 1_555
P6 S9 2.038895 1_655
P6 S6 2.043181 1_555
P6 S1 2.045410 1_545
P7 S8 2.038895 1_555
P7 S7 2.043181 1_555
P7 S0 2.045410 1_555
