# generated using pymatgen
data_B2CN
_symmetry_space_group_name_H-M   'P 1'
_cell_length_a   2.52546100
_cell_length_b   2.52546100
_cell_length_c   3.96827100
_cell_angle_alpha   90.00000000
_cell_angle_beta   90.00000000
_cell_angle_gamma   90.00000000
_symmetry_Int_Tables_number   1
_chemical_formula_structural   B2CN
_chemical_formula_sum   'B2 C1 N1'
_cell_volume   25.30944697
_cell_formula_units_Z   1
loop_
 _symmetry_equiv_pos_site_id
 _symmetry_equiv_pos_as_xyz
  1  'x, y, z'
loop_
 _atom_site_type_symbol
 _atom_site_label
 _atom_site_symmetry_multiplicity
 _atom_site_fract_x
 _atom_site_fract_y
 _atom_site_fract_z
 _atom_site_occupancy
  B  B0  1  0.00000000  0.50000000  0.73047400  1
  B  B1  1  0.50000000  0.00000000  0.26952600  1
  C  C0  1  0.50000000  0.50000000  0.00000000  1
  N  N0  1  0.00000000  0.00000000  0.50000000  1
loop_
_geom_bond_atom_site_label_1
_geom_bond_atom_site_label_2
_geom_bond_distance
_geom_bond_site_symmetry_2
B0 N0 1.559151 1_555
B0 N0 1.559151 1_565
B0 C0 1.654820 1_456
B0 C0 1.654820 1_556
B1 N0 1.559151 1_655
B1 N0 1.559151 1_555
B1 C0 1.654820 1_545
B1 C0 1.654820 1_555
