# generated using pymatgen
data_HoGaAu
_symmetry_space_group_name_H-M   'P 1'
_cell_length_a   5.64144468
_cell_length_b   5.64144468
_cell_length_c   7.05912228
_cell_angle_alpha   52.38436296
_cell_angle_beta   52.38436296
_cell_angle_gamma   46.31937496
_symmetry_Int_Tables_number   1
_chemical_formula_structural   HoGaAu
_chemical_formula_sum   'Ho2 Ga2 Au2'
_cell_volume   121.50902366
_cell_formula_units_Z   2
loop_
 _symmetry_equiv_pos_site_id
 _symmetry_equiv_pos_as_xyz
  1  'x, y, z'
loop_
 _atom_site_type_symbol
 _atom_site_label
 _atom_site_symmetry_multiplicity
 _atom_site_fract_x
 _atom_site_fract_y
 _atom_site_fract_z
 _atom_site_occupancy
  Ho  Ho0  1  0.53705558  0.53705558  0.70248010  1
  Ho  Ho1  1  0.46294442  0.46294442  0.29751990  1
  Ga  Ga0  1  0.84247120  0.84247120  0.10553906  1
  Ga  Ga1  1  0.15752880  0.15752880  0.89446094  1
  Au  Au0  1  0.17693856  0.17693856  0.28492128  1
  Au  Au1  1  0.82306144  0.82306144  0.71507872  1
loop_
_geom_bond_atom_site_label_1
_geom_bond_atom_site_label_2
_geom_bond_distance
_geom_bond_site_symmetry_2
Ga0 Ga1 2.536950 1_664
Ga0 Ho0 3.076908 1_564
Ga0 Ho0 3.076908 1_654
Ga0 Ho0 3.173122 1_555
Ga0 Ho1 3.202025 1_555
Ga0 Ho1 3.251163 1_655
Ga0 Ho1 3.251163 1_565
Ga1 Ho1 3.076908 1_546
Ga1 Ho1 3.076908 1_456
Ga1 Ho1 3.173122 1_555
Ga1 Ho0 3.202025 1_555
Ga1 Ho0 3.251163 1_545
Ga1 Ho0 3.251163 1_455
Au0 Ga0 2.566708 1_455
Au0 Ga0 2.566708 1_545
Au0 Au1 2.810069 1_445
Au0 Ga1 2.893896 1_554
Au0 Ho1 3.026690 1_555
Au0 Ho1 3.097835 1_545
Au0 Ho1 3.097835 1_455
Au0 Ho0 3.168263 1_545
Au0 Ho0 3.168263 1_455
Au0 Ho0 3.235290 1_554
Au1 Ga1 2.566708 1_655
Au1 Ga1 2.566708 1_565
Au1 Ga0 2.893896 1_556
Au1 Ho0 3.026690 1_555
Au1 Ho0 3.097835 1_655
Au1 Ho0 3.097835 1_565
Au1 Ho1 3.168263 1_655
Au1 Ho1 3.168263 1_565
Au1 Ho1 3.235290 1_556
