# generated using pymatgen
data_Zn4P3C3N3O13
_symmetry_space_group_name_H-M   'P 1'
_cell_length_a   15.40884400
_cell_length_b   7.73949300
_cell_length_c   7.74850842
_cell_angle_alpha   87.17276938
_cell_angle_beta   90.00000000
_cell_angle_gamma   90.00000000
_symmetry_Int_Tables_number   1
_chemical_formula_structural   Zn4P3C3N3O13
_chemical_formula_sum   'Zn8 P6 C6 N6 O26'
_cell_volume   922.93632186
_cell_formula_units_Z   2
loop_
 _symmetry_equiv_pos_site_id
 _symmetry_equiv_pos_as_xyz
  1  'x, y, z'
loop_
 _atom_site_type_symbol
 _atom_site_label
 _atom_site_symmetry_multiplicity
 _atom_site_fract_x
 _atom_site_fract_y
 _atom_site_fract_z
 _atom_site_occupancy
  Zn  Zn0  1  0.70129200  0.19711600  0.09391900  1
  Zn  Zn1  1  0.20129200  0.80288400  0.90608100  1
  Zn  Zn2  1  0.70643200  0.91740200  0.78452500  1
  Zn  Zn3  1  0.20643200  0.08259800  0.21547500  1
  Zn  Zn4  1  0.54125700  0.19738100  0.80635800  1
  Zn  Zn5  1  0.04125700  0.80261900  0.19364200  1
  Zn  Zn6  1  0.56344600  0.87342500  0.10388500  1
  Zn  Zn7  1  0.06344600  0.12657500  0.89611500  1
  P  P0  1  0.61697600  0.07961400  0.44409800  1
  P  P1  1  0.11697600  0.92038600  0.55590200  1
  P  P2  1  0.87542900  0.99683900  0.01428500  1
  P  P3  1  0.37542900  0.00316100  0.98571500  1
  P  P4  1  0.63919600  0.54443900  0.91316000  1
  P  P5  1  0.13919600  0.45556100  0.08684000  1
  C  C0  1  0.92827500  0.57549800  0.78263500  1
  C  C1  1  0.42827500  0.42450200  0.21736500  1
  C  C2  1  0.41592100  0.77601400  0.55119800  1
  C  C3  1  0.91592100  0.22398600  0.44880200  1
  C  C4  1  0.75220400  0.63487200  0.36687000  1
  C  C5  1  0.25220400  0.36512800  0.63313000  1
  N  N0  1  0.90155400  0.51740000  0.91539600  1
  N  N1  1  0.40155400  0.48260000  0.08460400  1
  N  N2  1  0.39433700  0.92068200  0.52518200  1
  N  N3  1  0.89433700  0.07931800  0.47481800  1
  N  N4  1  0.68421600  0.58927200  0.42120200  1
  N  N5  1  0.18421600  0.41072800  0.57879800  1
  O  O0  1  0.62783600  0.04592100  0.94521700  1
  O  O1  1  0.12783600  0.95407900  0.05478300  1
  O  O2  1  0.71322200  0.41954800  0.96938400  1
  O  O3  1  0.21322200  0.58045200  0.03061600  1
  O  O4  1  0.64201600  0.22782500  0.31298900  1
  O  O5  1  0.14201600  0.77217500  0.68701100  1
  O  O6  1  0.80900600  0.07397400  0.13779800  1
  O  O7  1  0.30900600  0.92602600  0.86220200  1
  O  O8  1  0.69737900  0.02095500  0.55100100  1
  O  O9  1  0.19737900  0.97904500  0.44899900  1
  O  O10  1  0.67095600  0.67690400  0.77188900  1
  O  O11  1  0.17095600  0.32309600  0.22811100  1
  O  O12  1  0.82793100  0.93149300  0.85363700  1
  O  O13  1  0.32793100  0.06850700  0.14636300  1
  O  O14  1  0.54460300  0.14042500  0.56433000  1
  O  O15  1  0.04460300  0.85957500  0.43567000  1
  O  O16  1  0.92392800  0.84583700  0.10771100  1
  O  O17  1  0.42392800  0.15416300  0.89228900  1
  O  O18  1  0.56169600  0.44231000  0.84289200  1
  O  O19  1  0.06169600  0.55769000  0.15710800  1
  O  O20  1  0.60855100  0.64146600  0.07211200  1
  O  O21  1  0.10855100  0.35853400  0.92788800  1
  O  O22  1  0.58405800  0.92334400  0.34486400  1
  O  O23  1  0.08405800  0.07665600  0.65513600  1
  O  O24  1  0.94018300  0.13914000  0.94927400  1
  O  O25  1  0.44018300  0.86086000  0.05072600  1
loop_
_geom_bond_atom_site_label_1
_geom_bond_atom_site_label_2
_geom_bond_distance
_geom_bond_site_symmetry_2
C0 N0 1.176566 1_555
C1 N1 1.176566 1_555
C2 N2 1.175847 1_555
C3 N3 1.175847 1_555
C4 N4 1.176703 1_555
C5 N5 1.176703 1_555
O0 Zn0 2.027573 1_556
O0 Zn6 2.028874 1_546
O0 Zn2 2.031890 1_545
O0 Zn4 2.046248 1_555
O1 Zn1 2.027573 1_554
O1 Zn7 2.028874 1_564
O1 Zn3 2.031890 1_565
O1 Zn5 2.046248 1_555
O2 P4 1.543907 1_555
O2 Zn0 1.940275 1_556
O3 P5 1.543907 1_555
O3 Zn1 1.940275 1_554
O4 P0 1.543293 1_555
O4 Zn0 1.952416 1_555
O5 P1 1.543293 1_555
O5 Zn1 1.952416 1_555
O6 P2 1.541505 1_545
O6 Zn0 1.935643 1_555
O7 P3 1.541505 1_565
O7 Zn1 1.935643 1_555
O8 P0 1.545986 1_555
O8 Zn2 1.947530 1_545
O9 P1 1.545986 1_555
O9 Zn3 1.947530 1_565
O10 P4 1.542104 1_555
O10 Zn2 1.947034 1_555
O11 P5 1.542104 1_555
O11 Zn3 1.947034 1_555
O12 P2 1.550170 1_556
O12 Zn2 1.951771 1_555
O13 P3 1.550170 1_554
O13 Zn3 1.951771 1_555
O14 P0 1.541529 1_555
O14 Zn4 1.948200 1_555
O15 P1 1.541529 1_555
O15 Zn5 1.948200 1_555
O16 P2 1.537816 1_555
O16 Zn5 1.949812 1_655
O17 P3 1.537816 1_555
O17 Zn4 1.949812 1_555
O18 P4 1.545884 1_555
O18 Zn4 1.955930 1_555
O19 P5 1.545884 1_555
O19 Zn5 1.955930 1_555
O20 P4 1.547600 1_554
O20 Zn6 1.951964 1_555
O21 P5 1.547600 1_556
O21 Zn7 1.951964 1_555
O22 P0 1.550168 1_565
O22 Zn6 1.951370 1_555
O23 P1 1.550168 1_545
O23 Zn7 1.951370 1_555
O24 P2 1.551625 1_546
O24 Zn7 1.946938 1_655
O25 P3 1.551625 1_564
O25 Zn6 1.946938 1_555
