# generated using pymatgen
data_LiB3
_symmetry_space_group_name_H-M   'P 1'
_cell_length_a   4.12242405
_cell_length_b   4.12242405
_cell_length_c   4.35870400
_cell_angle_alpha   90.00000000
_cell_angle_beta   90.00000000
_cell_angle_gamma   90.00000000
_symmetry_Int_Tables_number   1
_chemical_formula_structural   LiB3
_chemical_formula_sum   'Li2 B6'
_cell_volume   74.07347226
_cell_formula_units_Z   2
loop_
 _symmetry_equiv_pos_site_id
 _symmetry_equiv_pos_as_xyz
  1  'x, y, z'
loop_
 _atom_site_type_symbol
 _atom_site_label
 _atom_site_symmetry_multiplicity
 _atom_site_fract_x
 _atom_site_fract_y
 _atom_site_fract_z
 _atom_site_occupancy
  Li  Li0  1  0.50000000  0.50000000  0.23975400  1
  Li  Li1  1  0.50000000  0.50000000  0.76024600  1
  B  B0  1  0.70392300  0.00000000  0.00000000  1
  B  B1  1  0.29607700  0.00000000  0.00000000  1
  B  B2  1  0.00000000  0.29607700  0.00000000  1
  B  B3  1  0.00000000  0.70392300  0.00000000  1
  B  B4  1  0.00000000  0.00000000  0.29829000  1
  B  B5  1  0.00000000  0.00000000  0.70171000  1
loop_
_geom_bond_atom_site_label_1
_geom_bond_atom_site_label_2
_geom_bond_distance
_geom_bond_site_symmetry_2
Li0 Li1 2.090033 1_554
Li0 Li1 2.268671 1_555
B0 B1 1.681314 1_555
B0 B2 1.726125 1_655
B0 B3 1.726125 1_645
B0 B5 1.783302 1_654
B0 B4 1.783302 1_655
B0 Li1 2.459138 1_544
B0 Li0 2.459138 1_545
B0 Li1 2.459138 1_554
B0 Li0 2.459138 1_555
B1 B2 1.726125 1_555
B1 B3 1.726125 1_545
B1 B5 1.783302 1_554
B1 B4 1.783302 1_555
B1 Li1 2.459138 1_544
B1 Li0 2.459138 1_545
B1 Li0 2.459138 1_555
B1 Li1 2.459138 1_554
B2 B3 1.681314 1_555
B2 B5 1.783302 1_554
B2 B4 1.783302 1_555
B2 Li1 2.459138 1_554
B2 Li0 2.459138 1_555
B2 Li1 2.459138 1_454
B2 Li0 2.459138 1_455
B3 B5 1.783302 1_564
B3 B4 1.783302 1_565
B3 Li0 2.459138 1_455
B3 Li1 2.459138 1_554
B3 Li1 2.459138 1_454
B3 Li0 2.459138 1_555
B4 B5 1.758388 1_555
