# generated using pymatgen
data_Ce2Sb4Rh3
_symmetry_space_group_name_H-M   'P 1'
_cell_length_a   4.57854300
_cell_length_b   10.93666300
_cell_length_c   16.25281600
_cell_angle_alpha   90.00000000
_cell_angle_beta   90.00000000
_cell_angle_gamma   90.00000000
_symmetry_Int_Tables_number   1
_chemical_formula_structural   Ce2Sb4Rh3
_chemical_formula_sum   'Ce8 Sb16 Rh12'
_cell_volume   813.84321294
_cell_formula_units_Z   4
loop_
 _symmetry_equiv_pos_site_id
 _symmetry_equiv_pos_as_xyz
  1  'x, y, z'
loop_
 _atom_site_type_symbol
 _atom_site_label
 _atom_site_symmetry_multiplicity
 _atom_site_fract_x
 _atom_site_fract_y
 _atom_site_fract_z
 _atom_site_occupancy
  Ce  Ce0  1  0.25000000  0.58422800  0.75026300  1
  Ce  Ce1  1  0.25000000  0.91577200  0.25026300  1
  Ce  Ce2  1  0.75000000  0.41577200  0.24973700  1
  Ce  Ce3  1  0.75000000  0.08422800  0.74973700  1
  Ce  Ce4  1  0.25000000  0.74593900  0.50345600  1
  Ce  Ce5  1  0.25000000  0.75406100  0.00345600  1
  Ce  Ce6  1  0.75000000  0.25406100  0.49654400  1
  Ce  Ce7  1  0.75000000  0.24593900  0.99654400  1
  Sb  Sb0  1  0.25000000  0.44531800  0.93206600  1
  Sb  Sb1  1  0.25000000  0.05468200  0.43206600  1
  Sb  Sb2  1  0.75000000  0.55468200  0.06793400  1
  Sb  Sb3  1  0.75000000  0.94531800  0.56793400  1
  Sb  Sb4  1  0.25000000  0.27144200  0.65126700  1
  Sb  Sb5  1  0.25000000  0.22855800  0.15126700  1
  Sb  Sb6  1  0.75000000  0.72855800  0.34873300  1
  Sb  Sb7  1  0.75000000  0.77144200  0.84873300  1
  Sb  Sb8  1  0.25000000  0.88300700  0.71012000  1
  Sb  Sb9  1  0.25000000  0.61699300  0.21012000  1
  Sb  Sb10  1  0.75000000  0.11699300  0.28988000  1
  Sb  Sb11  1  0.75000000  0.38300700  0.78988000  1
  Sb  Sb12  1  0.25000000  0.06311200  0.89551400  1
  Sb  Sb13  1  0.25000000  0.43688800  0.39551400  1
  Sb  Sb14  1  0.75000000  0.93688800  0.10448600  1
  Sb  Sb15  1  0.75000000  0.56311200  0.60448600  1
  Rh  Rh0  1  0.25000000  0.27368900  0.81741100  1
  Rh  Rh1  1  0.25000000  0.22631100  0.31741100  1
  Rh  Rh2  1  0.75000000  0.72631100  0.18258900  1
  Rh  Rh3  1  0.75000000  0.77368900  0.68258900  1
  Rh  Rh4  1  0.25000000  0.05302700  0.59269400  1
  Rh  Rh5  1  0.25000000  0.44697300  0.09269400  1
  Rh  Rh6  1  0.75000000  0.94697300  0.40730600  1
  Rh  Rh7  1  0.75000000  0.55302700  0.90730600  1
  Rh  Rh8  1  0.25000000  0.46480300  0.55667300  1
  Rh  Rh9  1  0.25000000  0.03519700  0.05667300  1
  Rh  Rh10  1  0.75000000  0.53519700  0.44332700  1
  Rh  Rh11  1  0.75000000  0.96480300  0.94332700  1
loop_
_geom_bond_atom_site_label_1
_geom_bond_atom_site_label_2
_geom_bond_distance
_geom_bond_site_symmetry_2
Ce0 Sb11 3.240120 1_455
Ce0 Sb11 3.240120 1_555
Ce0 Rh3 3.277805 1_455
Ce0 Rh3 3.277805 1_555
Ce0 Sb15 3.302668 1_455
Ce0 Sb15 3.302668 1_555
Ce0 Sb0 3.322486 1_555
Ce0 Sb8 3.332143 1_555
Ce0 Rh8 3.406707 1_555
Ce0 Rh7 3.445563 1_455
Ce0 Rh7 3.445563 1_555
Ce0 Sb7 3.463284 1_555
Ce0 Sb7 3.463284 1_455
Ce0 Rh0 3.567298 1_555
Ce0 Sb4 3.780328 1_555
Ce1 Sb10 3.240120 1_465
Ce1 Sb10 3.240120 1_565
Ce1 Rh2 3.277805 1_555
Ce1 Rh2 3.277805 1_455
Ce1 Sb14 3.302668 1_455
Ce1 Sb14 3.302668 1_555
Ce1 Sb1 3.322486 1_565
Ce1 Sb9 3.332143 1_555
Ce1 Rh9 3.406707 1_565
Ce1 Rh6 3.445563 1_455
Ce1 Rh6 3.445563 1_555
Ce1 Sb6 3.463284 1_455
Ce1 Sb6 3.463284 1_555
Ce1 Rh1 3.567298 1_565
Ce1 Sb5 3.780328 1_565
Ce2 Sb9 3.240120 1_555
Ce2 Sb9 3.240120 1_655
Ce2 Rh1 3.277805 1_655
Ce2 Rh1 3.277805 1_555
Ce2 Sb13 3.302668 1_555
Ce2 Sb13 3.302668 1_655
Ce2 Sb2 3.322486 1_555
Ce2 Sb10 3.332143 1_555
Ce2 Rh10 3.406707 1_555
Ce2 Rh5 3.445563 1_555
Ce2 Rh5 3.445563 1_655
Ce2 Sb5 3.463284 1_655
Ce2 Sb5 3.463284 1_555
Ce2 Rh2 3.567298 1_555
Ce2 Sb6 3.780328 1_555
Ce3 Sb8 3.240120 1_645
Ce3 Sb8 3.240120 1_545
Ce3 Rh0 3.277805 1_655
Ce3 Rh0 3.277805 1_555
Ce3 Sb12 3.302668 1_555
Ce3 Sb12 3.302668 1_655
Ce3 Sb3 3.322486 1_545
Ce3 Sb11 3.332143 1_555
Ce3 Rh11 3.406707 1_545
Ce3 Rh4 3.445563 1_655
Ce3 Rh4 3.445563 1_555
Ce3 Sb4 3.463284 1_555
Ce3 Sb4 3.463284 1_655
Ce3 Rh3 3.567298 1_545
Ce3 Sb7 3.780328 1_545
Ce4 Rh8 3.194028 1_555
Ce4 Sb3 3.330724 1_455
Ce4 Sb3 3.330724 1_555
Ce4 Rh10 3.392341 1_455
Ce4 Rh10 3.392341 1_555
Ce4 Sb6 3.405956 1_455
Ce4 Sb6 3.405956 1_555
Ce4 Sb15 3.454717 1_555
Ce4 Sb15 3.454717 1_455
Ce4 Rh6 3.537915 1_555
Ce4 Rh6 3.537915 1_455
Ce4 Sb1 3.570409 1_565
Ce4 Rh4 3.658307 1_565
Ce4 Sb8 3.678209 1_555
Ce4 Rh3 3.716075 1_555
Ce4 Rh3 3.716075 1_455
Ce4 Sb13 3.808161 1_555
Ce5 Rh9 3.194028 1_565
Ce5 Sb2 3.330724 1_455
Ce5 Sb2 3.330724 1_555
Ce5 Rh11 3.392341 1_454
Ce5 Rh11 3.392341 1_554
Ce5 Sb7 3.405956 1_454
Ce5 Sb7 3.405956 1_554
Ce5 Sb14 3.454717 1_555
Ce5 Sb14 3.454717 1_455
Ce5 Rh7 3.537915 1_454
Ce5 Rh7 3.537915 1_554
Ce5 Sb0 3.570409 1_554
Ce5 Rh5 3.658307 1_555
Ce5 Sb9 3.678209 1_555
Ce5 Rh2 3.716075 1_455
Ce5 Rh2 3.716075 1_555
Ce5 Sb12 3.808161 1_564
Ce6 Rh10 3.194028 1_555
Ce6 Sb1 3.330724 1_655
Ce6 Sb1 3.330724 1_555
Ce6 Rh8 3.392341 1_555
Ce6 Rh8 3.392341 1_655
Ce6 Sb4 3.405956 1_555
Ce6 Sb4 3.405956 1_655
Ce6 Sb13 3.454717 1_555
Ce6 Sb13 3.454717 1_655
Ce6 Rh4 3.537915 1_555
Ce6 Rh4 3.537915 1_655
Ce6 Sb3 3.570409 1_545
Ce6 Rh6 3.658307 1_545
Ce6 Sb10 3.678209 1_555
Ce6 Rh1 3.716075 1_655
Ce6 Rh1 3.716075 1_555
Ce6 Sb15 3.808161 1_555
Ce7 Rh11 3.194028 1_545
Ce7 Sb0 3.330724 1_555
Ce7 Sb0 3.330724 1_655
Ce7 Rh9 3.392341 1_656
Ce7 Rh9 3.392341 1_556
Ce7 Sb5 3.405956 1_556
Ce7 Sb5 3.405956 1_656
Ce7 Sb12 3.454717 1_555
Ce7 Sb12 3.454717 1_655
Ce7 Rh5 3.537915 1_656
Ce7 Rh5 3.537915 1_556
Ce7 Sb2 3.570409 1_556
Ce7 Rh7 3.658307 1_555
Ce7 Sb11 3.678209 1_555
Ce7 Rh0 3.716075 1_655
Ce7 Rh0 3.716075 1_555
Ce7 Sb14 3.808161 1_546
Rh0 Sb11 2.621141 1_455
Rh0 Sb11 2.621141 1_555
Rh0 Sb12 2.629679 1_555
Rh0 Sb0 2.644961 1_555
Rh0 Sb4 2.700420 1_555
Rh1 Sb10 2.621141 1_455
Rh1 Sb10 2.621141 1_555
Rh1 Sb13 2.629679 1_555
Rh1 Sb1 2.644961 1_555
Rh1 Sb5 2.700420 1_555
Rh2 Sb9 2.621141 1_655
Rh2 Sb9 2.621141 1_555
Rh2 Sb14 2.629679 1_555
Rh2 Sb2 2.644961 1_555
Rh2 Sb6 2.700420 1_555
Rh3 Sb8 2.621141 1_555
Rh3 Sb8 2.621141 1_655
Rh3 Sb15 2.629679 1_555
Rh3 Sb3 2.644961 1_555
Rh3 Sb7 2.700420 1_555
Rh4 Sb4 2.571438 1_555
Rh4 Sb3 2.605827 1_545
Rh4 Sb3 2.605827 1_445
Rh4 Sb1 2.610720 1_555
Rh4 Sb8 2.664572 1_545
Rh5 Sb5 2.571438 1_555
Rh5 Sb2 2.605827 1_455
Rh5 Sb2 2.605827 1_555
Rh5 Sb0 2.610720 1_554
Rh5 Sb9 2.664572 1_555
Rh6 Sb6 2.571438 1_555
Rh6 Sb1 2.605827 1_565
Rh6 Sb1 2.605827 1_665
Rh6 Sb3 2.610720 1_555
Rh6 Sb10 2.664572 1_565
Rh7 Sb7 2.571438 1_555
Rh7 Sb0 2.605827 1_655
Rh7 Sb0 2.605827 1_555
Rh7 Sb2 2.610720 1_556
Rh7 Sb11 2.664572 1_555
Rh8 Sb4 2.614520 1_555
Rh8 Sb13 2.637020 1_555
Rh8 Sb15 2.645872 1_455
Rh8 Sb15 2.645872 1_555
Rh9 Sb5 2.614520 1_555
Rh9 Sb12 2.637020 1_554
Rh9 Sb14 2.645872 1_445
Rh9 Sb14 2.645872 1_545
Rh10 Sb6 2.614520 1_555
Rh10 Sb15 2.637020 1_555
Rh10 Sb13 2.645872 1_555
Rh10 Sb13 2.645872 1_655
Rh11 Sb7 2.614520 1_555
Rh11 Sb14 2.637020 1_556
Rh11 Sb12 2.645872 1_665
Rh11 Sb12 2.645872 1_565
