# generated using pymatgen
data_K2HfO6
_symmetry_space_group_name_H-M   'P 1'
_cell_length_a   10.53715440
_cell_length_b   10.53715440
_cell_length_c   5.78340900
_cell_angle_alpha   90.00000000
_cell_angle_beta   90.00000000
_cell_angle_gamma   98.72686715
_symmetry_Int_Tables_number   1
_chemical_formula_structural   K2HfO6
_chemical_formula_sum   'K8 Hf4 O24'
_cell_volume   634.70711967
_cell_formula_units_Z   4
loop_
 _symmetry_equiv_pos_site_id
 _symmetry_equiv_pos_as_xyz
  1  'x, y, z'
loop_
 _atom_site_type_symbol
 _atom_site_label
 _atom_site_symmetry_multiplicity
 _atom_site_fract_x
 _atom_site_fract_y
 _atom_site_fract_z
 _atom_site_occupancy
  K  K0  1  0.39426100  0.60573900  0.33292000  1
  K  K1  1  0.60573900  0.39426100  0.66708000  1
  K  K2  1  0.89426100  0.10573900  0.66708000  1
  K  K3  1  0.10573900  0.89426100  0.33292000  1
  K  K4  1  0.61152200  0.88847800  0.00000000  1
  K  K5  1  0.88847800  0.61152200  0.00000000  1
  K  K6  1  0.38847800  0.11152200  0.00000000  1
  K  K7  1  0.11152100  0.38847900  0.00000000  1
  Hf  Hf0  1  0.25000000  0.75000000  0.84174100  1
  Hf  Hf1  1  0.75000000  0.25000000  0.15825900  1
  Hf  Hf2  1  0.75000000  0.75000000  0.50000000  1
  Hf  Hf3  1  0.25000000  0.25000000  0.50000000  1
  O  O0  1  0.36550400  0.86550400  0.60612800  1
  O  O1  1  0.86550400  0.36550400  0.39387200  1
  O  O2  1  0.63449600  0.13449600  0.39387200  1
  O  O3  1  0.13449600  0.63449600  0.60612800  1
  O  O4  1  0.35499900  0.85499900  0.08389400  1
  O  O5  1  0.85499900  0.35499900  0.91610600  1
  O  O6  1  0.64500100  0.14500100  0.91610600  1
  O  O7  1  0.14500100  0.64500100  0.08389400  1
  O  O8  1  0.37986500  0.62013500  0.82151300  1
  O  O9  1  0.62013500  0.37986500  0.17848700  1
  O  O10  1  0.87986500  0.12013500  0.17848700  1
  O  O11  1  0.12013500  0.87986500  0.82151300  1
  O  O12  1  0.62595100  0.65784300  0.74110300  1
  O  O13  1  0.65784300  0.62595100  0.25889700  1
  O  O14  1  0.84215700  0.87404900  0.25889700  1
  O  O15  1  0.87404900  0.84215700  0.74110300  1
  O  O16  1  0.37404900  0.34215700  0.25889700  1
  O  O17  1  0.34215700  0.37404900  0.74110300  1
  O  O18  1  0.15784300  0.12595100  0.74110300  1
  O  O19  1  0.12595100  0.15784300  0.25889700  1
  O  O20  1  0.87836300  0.62163700  0.50000000  1
  O  O21  1  0.62163700  0.87836300  0.50000000  1
  O  O22  1  0.12163700  0.37836300  0.50000000  1
  O  O23  1  0.37836300  0.12163700  0.50000000  1
loop_
_geom_bond_atom_site_label_1
_geom_bond_atom_site_label_2
_geom_bond_distance
_geom_bond_site_symmetry_2
K0 O13 2.786236 1_555
K0 O16 2.786236 1_555
K0 O8 2.835096 1_555
K0 O8 2.966623 1_554
K0 O4 3.077917 1_555
K0 O7 3.077917 1_555
K0 O3 3.214391 1_555
K0 O0 3.214391 1_555
K1 O12 2.786236 1_555
K1 O17 2.786236 1_555
K1 O9 2.835096 1_555
K1 O9 2.966623 1_556
K1 O5 3.077917 1_555
K1 O6 3.077917 1_555
K1 O2 3.214391 1_555
K1 O1 3.214391 1_555
K2 O15 2.786236 1_545
K2 O18 2.786236 1_655
K2 O10 2.835096 1_555
K2 O10 2.966623 1_556
K2 O6 3.077917 1_555
K2 O5 3.077917 1_555
K2 O2 3.214391 1_555
K2 O1 3.214391 1_555
K3 O19 2.786236 1_565
K3 O14 2.786236 1_455
K3 O11 2.835096 1_555
K3 O11 2.966623 1_554
K3 O7 3.077917 1_555
K3 O4 3.077917 1_555
K3 O0 3.214391 1_555
K3 O3 3.214391 1_555
K4 O6 2.716033 1_564
K4 O4 2.716033 1_555
K4 O14 2.878058 1_555
K4 O12 2.878058 1_554
K4 O21 2.896225 1_555
K4 O21 2.896225 1_554
K4 O13 3.246879 1_555
K4 O15 3.246879 1_554
K5 O7 2.716033 1_655
K5 O5 2.716033 1_554
K5 O13 2.878058 1_555
K5 O15 2.878058 1_554
K5 O20 2.896225 1_555
K5 O20 2.896225 1_554
K5 O14 3.246879 1_555
K5 O12 3.246879 1_554
K6 O4 2.716033 1_545
K6 O6 2.716033 1_554
K6 O16 2.878058 1_555
K6 O18 2.878058 1_554
K6 O23 2.896225 1_555
K6 O23 2.896225 1_554
K6 O19 3.246879 1_555
K6 O17 3.246879 1_554
K7 O7 2.716023 1_555
K7 O5 2.716023 1_454
K7 O17 2.878069 1_554
K7 O19 2.878069 1_555
K7 O22 2.896226 1_554
K7 O22 2.896226 1_555
K7 O18 3.246892 1_554
K7 O16 3.246892 1_555
Hf0 O7 2.009494 1_556
Hf0 O4 2.009494 1_556
Hf0 O11 2.080140 1_555
Hf0 O8 2.080140 1_555
Hf0 O3 2.090429 1_555
Hf0 O0 2.090429 1_555
Hf1 O6 2.009494 1_554
Hf1 O5 2.009494 1_554
Hf1 O10 2.080140 1_555
Hf1 O9 2.080140 1_555
Hf1 O1 2.090429 1_555
Hf1 O2 2.090429 1_555
Hf2 O15 2.052005 1_555
Hf2 O12 2.052005 1_555
Hf2 O13 2.052005 1_555
Hf2 O14 2.052005 1_555
Hf2 O20 2.052828 1_555
Hf2 O21 2.052828 1_555
Hf3 O18 2.052005 1_555
Hf3 O17 2.052005 1_555
Hf3 O16 2.052005 1_555
Hf3 O19 2.052005 1_555
Hf3 O23 2.052828 1_555
Hf3 O22 2.052828 1_555
