# generated using pymatgen
data_LuVO2
_symmetry_space_group_name_H-M   'P 1'
_cell_length_a   7.12631314
_cell_length_b   7.12631314
_cell_length_c   7.12631314
_cell_angle_alpha   129.17016548
_cell_angle_beta   129.17016548
_cell_angle_gamma   74.73692401
_symmetry_Int_Tables_number   1
_chemical_formula_structural   LuVO2
_chemical_formula_sum   'Lu4 V4 O8'
_cell_volume   211.90632814
_cell_formula_units_Z   4
loop_
 _symmetry_equiv_pos_site_id
 _symmetry_equiv_pos_as_xyz
  1  'x, y, z'
loop_
 _atom_site_type_symbol
 _atom_site_label
 _atom_site_symmetry_multiplicity
 _atom_site_fract_x
 _atom_site_fract_y
 _atom_site_fract_z
 _atom_site_occupancy
  Lu  Lu0  1  0.87500000  0.62500000  0.25000000  1
  Lu  Lu1  1  0.37500000  0.62500000  0.75000000  1
  Lu  Lu2  1  0.37500000  0.62500000  0.25000000  1
  Lu  Lu3  1  0.37500000  0.12500000  0.75000000  1
  V  V0  1  0.37500000  0.12500000  0.25000000  1
  V  V1  1  0.87500000  0.12500000  0.75000000  1
  V  V2  1  0.87500000  0.12500000  0.25000000  1
  V  V3  1  0.87500000  0.62500000  0.75000000  1
  O  O0  1  0.17394700  0.41561600  0.24166900  1
  O  O1  1  0.17394700  0.93227800  0.75833100  1
  O  O2  1  0.16561600  0.42394700  0.74166900  1
  O  O3  1  0.57605300  0.83438400  0.25833100  1
  O  O4  1  0.68227800  0.42394700  0.25833100  1
  O  O5  1  0.57605300  0.31772200  0.74166900  1
  O  O6  1  0.58438400  0.82605300  0.75833100  1
  O  O7  1  0.06772200  0.82605300  0.24166900  1
loop_
_geom_bond_atom_site_label_1
_geom_bond_atom_site_label_2
_geom_bond_distance
_geom_bond_site_symmetry_2
Lu0 O3 2.267765 1_555
Lu0 O5 2.267765 1_554
Lu0 O0 2.267765 1_655
Lu0 O1 2.267765 1_655
Lu0 O4 2.277949 1_555
Lu0 O7 2.277949 1_655
Lu1 O0 2.267765 1_555
Lu1 O5 2.267765 1_555
Lu1 O1 2.267765 1_555
Lu1 O3 2.267765 1_556
Lu1 O2 2.277949 1_555
Lu1 O6 2.277949 1_555
Lu2 O6 2.267765 1_555
Lu2 O2 2.267765 1_554
Lu2 O7 2.267765 1_555
Lu2 O4 2.267765 1_555
Lu2 O0 2.277949 1_555
Lu2 O3 2.277949 1_555
Lu3 O6 2.267765 1_545
Lu3 O7 2.267765 1_545
Lu3 O2 2.267765 1_555
Lu3 O4 2.267765 1_556
Lu3 O1 2.277949 1_545
Lu3 O5 2.277949 1_555
O0 V0 2.197966 1_555
O0 V1 2.197966 1_454
O1 V1 2.197966 1_465
O1 V0 2.197966 1_566
O2 V3 2.197966 1_455
O2 V2 2.197966 1_455
O3 V1 2.197966 1_565
O3 V0 2.197966 1_565
O4 V2 2.197966 1_555
O4 V3 2.197966 1_555
O5 V1 2.197966 1_555
O5 V0 2.197966 1_555
O6 V3 2.197966 1_555
O6 V2 2.197966 1_566
O7 V2 2.197966 1_465
O7 V3 2.197966 1_454
