# generated using pymatgen
data_K2LiPdF6
_symmetry_space_group_name_H-M   'P 1'
_cell_length_a   5.89117525
_cell_length_b   5.89117525
_cell_length_c   5.89117525
_cell_angle_alpha   121.01998979
_cell_angle_beta   121.01998979
_cell_angle_gamma   88.24222223
_symmetry_Int_Tables_number   1
_chemical_formula_structural   K2LiPdF6
_chemical_formula_sum   'K2 Li1 Pd1 F6'
_cell_volume   142.27261193
_cell_formula_units_Z   1
loop_
 _symmetry_equiv_pos_site_id
 _symmetry_equiv_pos_as_xyz
  1  'x, y, z'
loop_
 _atom_site_type_symbol
 _atom_site_label
 _atom_site_symmetry_multiplicity
 _atom_site_fract_x
 _atom_site_fract_y
 _atom_site_fract_z
 _atom_site_occupancy
  K  K0  1  0.75000000  0.25000000  0.50000000  1
  K  K1  1  0.25000000  0.75000000  0.50000000  1
  Li  Li0  1  0.50000000  0.50000000  0.00000000  1
  Pd  Pd0  1  0.00000000  0.00000000  0.00000000  1
  F  F0  1  0.24356800  0.24356800  0.48713600  1
  F  F1  1  0.75643200  0.75643200  0.51286400  1
  F  F2  1  0.24356800  0.75643200  0.00000000  1
  F  F3  1  0.75643200  0.24356800  0.00000000  1
  F  F4  1  0.26092100  0.26092100  0.00000000  1
  F  F5  1  0.73907900  0.73907900  0.00000000  1
loop_
_geom_bond_atom_site_label_1
_geom_bond_atom_site_label_2
_geom_bond_distance
_geom_bond_site_symmetry_2
F0 Pd0 1.997892 1_555
F0 Li0 2.103411 1_556
F0 K0 2.946060 1_455
F0 K1 2.946060 1_555
F0 K1 2.946060 1_545
F0 K0 2.946060 1_555
F1 Pd0 1.997892 1_666
F1 Li0 2.103411 1_555
F1 K1 2.946060 1_655
F1 K0 2.946060 1_555
F1 K0 2.946060 1_565
F1 K1 2.946060 1_555
F2 Pd0 1.997892 1_565
F2 Li0 2.103411 1_555
F2 K0 2.946060 1_454
F2 K1 2.946060 1_555
F2 K1 2.946060 1_554
F2 K0 2.946060 1_565
F3 Pd0 1.997892 1_655
F3 Li0 2.103411 1_555
F3 K0 2.946060 1_554
F3 K0 2.946060 1_555
F3 K1 2.946060 1_544
F3 K1 2.946060 1_655
F4 Li0 2.022177 1_555
F4 Pd0 2.206920 1_555
F4 K0 2.901530 1_454
F4 K1 2.901530 1_544
F4 K0 2.901530 1_555
F4 K1 2.901530 1_555
F5 Li0 2.022177 1_555
F5 Pd0 2.206920 1_665
F5 K0 2.901530 1_565
F5 K1 2.901530 1_655
F5 K0 2.901530 1_554
F5 K1 2.901530 1_554
