# generated using pymatgen
data_Sb2O3
_symmetry_space_group_name_H-M   'P 1'
_cell_length_a   7.61340600
_cell_length_b   7.77717600
_cell_length_c   12.06785900
_cell_angle_alpha   90.00000000
_cell_angle_beta   90.00000000
_cell_angle_gamma   90.00000000
_symmetry_Int_Tables_number   1
_chemical_formula_structural   Sb2O3
_chemical_formula_sum   'Sb16 O24'
_cell_volume   714.54756663
_cell_formula_units_Z   8
loop_
 _symmetry_equiv_pos_site_id
 _symmetry_equiv_pos_as_xyz
  1  'x, y, z'
loop_
 _atom_site_type_symbol
 _atom_site_label
 _atom_site_symmetry_multiplicity
 _atom_site_fract_x
 _atom_site_fract_y
 _atom_site_fract_z
 _atom_site_occupancy
  Sb  Sb0  1  0.73553100  0.77903600  0.98451700  1
  Sb  Sb1  1  0.23553100  0.72096400  0.01548300  1
  Sb  Sb2  1  0.76446900  0.22096400  0.48451700  1
  Sb  Sb3  1  0.26446900  0.27903600  0.51548300  1
  Sb  Sb4  1  0.52505300  0.06883100  0.25783300  1
  Sb  Sb5  1  0.02505300  0.43116900  0.74216700  1
  Sb  Sb6  1  0.97494700  0.93116900  0.75783300  1
  Sb  Sb7  1  0.47494700  0.56883100  0.24216700  1
  Sb  Sb8  1  0.49843100  0.00366200  0.75957300  1
  Sb  Sb9  1  0.99843100  0.49633800  0.24042700  1
  Sb  Sb10  1  0.00156900  0.99633800  0.25957300  1
  Sb  Sb11  1  0.50156900  0.50366200  0.74042700  1
  Sb  Sb12  1  0.27362000  0.24862200  0.98363900  1
  Sb  Sb13  1  0.77362000  0.25137800  0.01636100  1
  Sb  Sb14  1  0.22638000  0.75137800  0.48363900  1
  Sb  Sb15  1  0.72638000  0.74862200  0.51636100  1
  O  O0  1  0.38339700  0.77024700  0.14926100  1
  O  O1  1  0.88339700  0.72975300  0.85073900  1
  O  O2  1  0.11660300  0.22975300  0.64926100  1
  O  O3  1  0.61660300  0.27024700  0.35073900  1
  O  O4  1  0.52209500  0.85084400  0.89411300  1
  O  O5  1  0.02209500  0.64915600  0.10588700  1
  O  O6  1  0.97790500  0.14915600  0.39411300  1
  O  O7  1  0.47790500  0.35084400  0.60588700  1
  O  O8  1  0.43990300  0.21695100  0.85525400  1
  O  O9  1  0.93990300  0.28304900  0.14474600  1
  O  O10  1  0.06009700  0.78304900  0.35525400  1
  O  O11  1  0.56009700  0.71695100  0.64474600  1
  O  O12  1  0.75319200  0.07058800  0.75074500  1
  O  O13  1  0.25319200  0.42941200  0.24925500  1
  O  O14  1  0.74680800  0.92941200  0.25074500  1
  O  O15  1  0.24680800  0.57058800  0.74925500  1
  O  O16  1  0.85418900  0.00835500  0.99788600  1
  O  O17  1  0.35418900  0.49164500  0.00211400  1
  O  O18  1  0.64581100  0.99164500  0.49788600  1
  O  O19  1  0.14581100  0.50835500  0.50211400  1
  O  O20  1  0.55941400  0.18831800  0.11162700  1
  O  O21  1  0.05941400  0.31168200  0.88837300  1
  O  O22  1  0.94058600  0.81168200  0.61162700  1
  O  O23  1  0.44058600  0.68831800  0.38837300  1
loop_
_geom_bond_atom_site_label_1
_geom_bond_atom_site_label_2
_geom_bond_distance
_geom_bond_site_symmetry_2
O0 Sb1 2.005139 1_555
O0 Sb7 2.048564 1_555
O1 Sb0 2.005139 1_555
O1 Sb6 2.048564 1_555
O2 Sb3 2.005139 1_555
O2 Sb5 2.048564 1_555
O3 Sb2 2.005139 1_555
O3 Sb4 2.048564 1_555
O4 Sb8 2.020169 1_565
O4 Sb0 2.035355 1_555
O5 Sb9 2.020169 1_455
O5 Sb1 2.035355 1_555
O6 Sb10 2.020169 1_645
O6 Sb2 2.035355 1_555
O7 Sb11 2.020169 1_555
O7 Sb3 2.035355 1_555
O8 Sb12 2.015888 1_555
O8 Sb8 2.069633 1_555
O8 Sb11 2.666954 1_555
O9 Sb13 2.015888 1_555
O9 Sb9 2.069633 1_555
O9 Sb10 2.666954 1_645
O10 Sb14 2.015888 1_555
O10 Sb10 2.069633 1_555
O10 Sb9 2.666954 1_455
O11 Sb15 2.015888 1_555
O11 Sb11 2.069633 1_555
O11 Sb8 2.666954 1_565
O12 Sb6 2.008329 1_545
O12 Sb8 2.011047 1_555
O13 Sb7 2.008329 1_555
O13 Sb9 2.011047 1_455
O14 Sb4 2.008329 1_565
O14 Sb10 2.011047 1_655
O15 Sb5 2.008329 1_555
O15 Sb11 2.011047 1_555
O16 Sb13 1.999549 1_556
O16 Sb0 2.005705 1_545
O17 Sb12 1.999549 1_554
O17 Sb1 2.005705 1_555
O18 Sb15 1.999549 1_555
O18 Sb2 2.005705 1_565
O19 Sb14 1.999549 1_555
O19 Sb3 2.005705 1_555
O20 Sb4 2.011235 1_555
O20 Sb13 2.054717 1_555
O21 Sb5 2.011235 1_555
O21 Sb12 2.054717 1_555
O22 Sb6 2.011235 1_555
O22 Sb15 2.054717 1_555
O23 Sb7 2.011235 1_555
O23 Sb14 2.054717 1_555
