# generated using pymatgen
data_TbGa2Co3
_symmetry_space_group_name_H-M   'P 1'
_cell_length_a   4.03611400
_cell_length_b   8.78967818
_cell_length_c   8.79352052
_cell_angle_alpha   120.11555284
_cell_angle_beta   90.00000000
_cell_angle_gamma   90.00000000
_symmetry_Int_Tables_number   1
_chemical_formula_structural   TbGa2Co3
_chemical_formula_sum   'Tb3 Ga6 Co9'
_cell_volume   269.85032575
_cell_formula_units_Z   3
loop_
 _symmetry_equiv_pos_site_id
 _symmetry_equiv_pos_as_xyz
  1  'x, y, z'
loop_
 _atom_site_type_symbol
 _atom_site_label
 _atom_site_symmetry_multiplicity
 _atom_site_fract_x
 _atom_site_fract_y
 _atom_site_fract_z
 _atom_site_occupancy
  Tb  Tb0  1  0.00000000  0.33334900  0.66671400  1
  Tb  Tb1  1  0.00000000  0.66691900  0.33351600  1
  Tb  Tb2  1  0.00000000  0.99977000  0.99977400  1
  Ga  Ga0  1  0.50000000  0.49211000  0.98450800  1
  Ga  Ga1  1  0.50000000  0.49230300  0.50769100  1
  Ga  Ga2  1  0.50000000  0.01542900  0.50782300  1
  Ga  Ga3  1  0.50000000  0.84126100  0.68221800  1
  Ga  Ga4  1  0.50000000  0.31792100  0.15890000  1
  Ga  Ga5  1  0.50000000  0.84118100  0.15909500  1
  Co  Co0  1  0.00000000  0.32261100  0.98943300  1
  Co  Co1  1  0.00000000  0.66656300  0.67642100  1
  Co  Co2  1  0.00000000  0.01000900  0.33336700  1
  Co  Co3  1  0.00000000  0.66673200  0.98999900  1
  Co  Co4  1  0.00000000  0.32296800  0.33331500  1
  Co  Co5  1  0.00000000  0.01044800  0.67705300  1
  Co  Co6  1  0.50000000  0.16674800  0.33339900  1
  Co  Co7  1  0.50000000  0.16676000  0.83332400  1
  Co  Co8  1  0.50000000  0.66682000  0.83345000  1
loop_
_geom_bond_atom_site_label_1
_geom_bond_atom_site_label_2
_geom_bond_distance
_geom_bond_site_symmetry_2
Ga0 Ga5 2.654062 1_556
Ga0 Ga4 2.655552 1_556
Ga0 Tb0 3.148965 1_655
Ga0 Tb0 3.148965 1_555
Ga0 Tb1 3.334698 1_556
Ga0 Tb1 3.334698 1_656
Ga1 Ga4 2.653096 1_555
Ga1 Ga3 2.653203 1_555
Ga1 Tb0 3.152872 1_555
Ga1 Tb0 3.152872 1_655
Ga1 Tb1 3.336616 1_555
Ga1 Tb1 3.336616 1_655
Ga2 Ga5 2.652619 1_545
Ga2 Ga3 2.655415 1_545
Ga2 Tb0 3.148887 1_655
Ga2 Tb0 3.148887 1_555
Ga2 Tb1 3.330762 1_545
Ga2 Tb1 3.330762 1_645
Ga3 Tb2 3.147579 1_555
Ga3 Tb2 3.147579 1_655
Ga3 Tb1 3.332849 1_655
Ga3 Tb1 3.332849 1_555
Ga4 Tb2 3.150234 1_544
Ga4 Tb2 3.150234 1_644
Ga4 Tb1 3.333714 1_655
Ga4 Tb1 3.333714 1_555
Ga5 Tb2 3.152483 1_554
Ga5 Tb2 3.152483 1_654
Ga5 Tb1 3.335962 1_555
Ga5 Tb1 3.335962 1_655
Co0 Co7 2.438544 1_455
Co0 Co7 2.438544 1_555
Co0 Ga4 2.521236 1_556
Co0 Ga4 2.521236 1_456
Co0 Ga0 2.521667 1_555
Co0 Ga0 2.521667 1_455
Co0 Co5 2.740571 1_555
Co0 Tb2 2.884367 1_545
Co0 Tb0 2.886348 1_555
Co0 Tb1 3.020742 1_556
Co0 Co3 3.022219 1_555
Co0 Co4 3.022360 1_556
Co1 Co8 2.444615 1_455
Co1 Co8 2.444615 1_555
Co1 Ga1 2.517843 1_555
Co1 Ga1 2.517843 1_455
Co1 Ga3 2.520810 1_555
Co1 Ga3 2.520810 1_455
Co1 Co3 2.756710 1_555
Co1 Tb2 2.882004 1_555
Co1 Tb0 2.886960 1_555
Co1 Co4 3.013327 1_555
Co1 Tb1 3.016913 1_555
Co1 Co5 3.019854 1_565
Co2 Co6 2.443396 1_455
Co2 Co6 2.443396 1_555
Co2 Ga5 2.518146 1_445
Co2 Ga5 2.518146 1_545
Co2 Ga2 2.520891 1_555
Co2 Ga2 2.520891 1_455
Co2 Co4 2.751038 1_555
Co2 Tb0 2.882668 1_555
Co2 Tb2 2.889350 1_544
Co2 Co3 3.013081 1_544
Co2 Tb1 3.016308 1_545
Co2 Co5 3.020276 1_555
Co3 Co8 2.443092 1_455
Co3 Co8 2.443092 1_555
Co3 Ga5 2.519278 1_456
Co3 Ga5 2.519278 1_556
Co3 Ga0 2.521179 1_555
Co3 Ga0 2.521179 1_455
Co3 Tb0 2.882526 1_555
Co3 Tb2 2.885127 1_555
Co3 Tb1 3.019899 1_556
Co4 Co6 2.441115 1_455
Co4 Co6 2.441115 1_555
Co4 Ga1 2.519701 1_455
Co4 Ga1 2.519701 1_555
Co4 Ga4 2.521616 1_455
Co4 Ga4 2.521616 1_555
Co4 Tb2 2.882966 1_544
Co4 Tb0 2.887048 1_555
Co4 Tb1 3.022332 1_555
Co5 Co7 2.440078 1_455
Co5 Co7 2.440078 1_555
Co5 Ga3 2.520686 1_545
Co5 Ga3 2.520686 1_445
Co5 Ga2 2.520788 1_455
Co5 Ga2 2.520788 1_555
Co5 Tb0 2.884885 1_555
Co5 Tb2 2.886088 1_545
Co5 Tb1 3.014928 1_545
Co6 Ga1 2.477157 1_555
Co6 Ga5 2.477250 1_545
Co6 Ga4 2.483189 1_555
Co6 Ga2 2.483689 1_555
Co6 Tb0 3.240478 1_655
Co6 Tb0 3.240478 1_555
Co6 Tb2 3.242320 1_644
Co6 Tb2 3.242320 1_544
Co7 Ga0 2.475948 1_555
Co7 Ga3 2.477137 1_545
Co7 Ga2 2.478201 1_555
Co7 Ga4 2.478849 1_556
Co7 Tb0 3.242818 1_655
Co7 Tb0 3.242818 1_555
Co7 Tb2 3.244256 1_545
Co7 Tb2 3.244256 1_645
Co8 Ga5 2.478880 1_556
Co8 Ga1 2.479780 1_555
Co8 Ga3 2.483073 1_555
Co8 Ga0 2.483875 1_555
Co8 Tb2 3.237440 1_555
Co8 Tb2 3.237440 1_655
Co8 Tb0 3.240536 1_555
Co8 Tb0 3.240536 1_655
