# generated using pymatgen
data_CeMnB4
_symmetry_space_group_name_H-M   'P 1'
_cell_length_a   3.51008683
_cell_length_b   6.00554640
_cell_length_c   11.63870077
_cell_angle_alpha   90.00000000
_cell_angle_beta   90.00000000
_cell_angle_gamma   90.00000000
_symmetry_Int_Tables_number   1
_chemical_formula_structural   CeMnB4
_chemical_formula_sum   'Ce4 Mn4 B16'
_cell_volume   245.34368800
_cell_formula_units_Z   4
loop_
 _symmetry_equiv_pos_site_id
 _symmetry_equiv_pos_as_xyz
  1  'x, y, z'
loop_
 _atom_site_type_symbol
 _atom_site_label
 _atom_site_symmetry_multiplicity
 _atom_site_fract_x
 _atom_site_fract_y
 _atom_site_fract_z
 _atom_site_occupancy
  Ce  Ce0  1  0.50000000  0.37468155  0.15054612  1
  Ce  Ce1  1  0.50000000  0.62531845  0.84945388  1
  Ce  Ce2  1  0.50000000  0.12531845  0.65054612  1
  Ce  Ce3  1  0.50000000  0.87468155  0.34945388  1
  Mn  Mn0  1  0.50000000  0.36971705  0.41388991  1
  Mn  Mn1  1  0.50000000  0.63028295  0.58611009  1
  Mn  Mn2  1  0.50000000  0.13028295  0.91388991  1
  Mn  Mn3  1  0.50000000  0.86971705  0.08611009  1
  B  B0  1  -0.00000000  0.11266700  0.04563467  1
  B  B1  1  -0.00000000  0.88733300  0.95436533  1
  B  B2  1  -0.00000000  0.38733300  0.54563467  1
  B  B3  1  0.00000000  0.61266700  0.45436533  1
  B  B4  1  -0.00000000  0.13961988  0.46655430  1
  B  B5  1  0.00000000  0.86038012  0.53344570  1
  B  B6  1  0.00000000  0.36038012  0.96655430  1
  B  B7  1  -0.00000000  0.63961988  0.03344570  1
  B  B8  1  0.00000000  0.02360802  0.18901672  1
  B  B9  1  0.00000000  0.97639198  0.81098328  1
  B  B10  1  0.00000000  0.47639198  0.68901672  1
  B  B11  1  -0.00000000  0.52360802  0.31098328  1
  B  B12  1  0.00000000  0.21950787  0.31608010  1
  B  B13  1  -0.00000000  0.78049213  0.68391990  1
  B  B14  1  -0.00000000  0.28049213  0.81608010  1
  B  B15  1  0.00000000  0.71950787  0.18391990  1
loop_
_geom_bond_atom_site_label_1
_geom_bond_atom_site_label_2
_geom_bond_distance
_geom_bond_site_symmetry_2
B0 B1 1.720373 1_544
B0 B6 1.749352 1_554
B0 B8 1.752396 1_555
B0 Mn3 2.330432 1_445
B0 Mn3 2.330432 1_545
B0 Mn2 2.332915 1_454
B0 Mn2 2.332915 1_554
B0 Ce0 2.654643 1_455
B0 Ce0 2.654643 1_555
B1 B7 1.749352 1_556
B1 B9 1.752396 1_555
B1 Mn2 2.330432 1_565
B1 Mn2 2.330432 1_465
B1 Mn3 2.332915 1_456
B1 Mn3 2.332915 1_556
B1 Ce1 2.654643 1_455
B1 Ce1 2.654643 1_555
B2 B3 1.720373 1_555
B2 B4 1.749352 1_555
B2 Mn1 2.330432 1_555
B2 Mn1 2.330432 1_455
B2 Mn0 2.332915 1_455
B2 Mn0 2.332915 1_555
B2 Ce2 2.654643 1_455
B2 Ce2 2.654643 1_555
B3 B5 1.749352 1_555
B3 Mn0 2.330432 1_555
B3 Mn0 2.330432 1_455
B3 Mn1 2.332915 1_555
B3 Mn1 2.332915 1_455
B3 Ce3 2.654643 1_455
B3 Ce3 2.654643 1_555
B4 B5 1.848890 1_545
B4 Mn0 2.316336 1_455
B4 Mn0 2.316336 1_555
B4 Ce3 2.732995 1_545
B4 Ce3 2.732995 1_445
B4 Ce2 2.770065 1_455
B4 Ce2 2.770065 1_555
B5 Mn1 2.316336 1_455
B5 Mn1 2.316336 1_555
B5 Ce2 2.732995 1_465
B5 Ce2 2.732995 1_565
B5 Ce3 2.770065 1_455
B5 Ce3 2.770065 1_555
B6 B7 1.848890 1_556
B6 Mn2 2.316336 1_455
B6 Mn2 2.316336 1_555
B6 Ce1 2.732995 1_555
B6 Ce1 2.732995 1_455
B6 Ce0 2.770065 1_556
B6 Ce0 2.770065 1_456
B7 Mn3 2.316336 1_555
B7 Mn3 2.316336 1_455
B7 Ce0 2.732995 1_455
B7 Ce0 2.732995 1_555
B7 Ce1 2.770065 1_454
B7 Ce1 2.770065 1_554
B8 Mn3 2.317068 1_445
B8 Mn3 2.317068 1_545
B8 Ce3 2.714192 1_545
B8 Ce3 2.714192 1_445
B8 Ce0 2.779561 1_455
B8 Ce0 2.779561 1_555
B9 Mn2 2.317068 1_565
B9 Mn2 2.317068 1_465
B9 Ce2 2.714192 1_565
B9 Ce2 2.714192 1_465
B9 Ce1 2.779561 1_455
B9 Ce1 2.779561 1_555
B10 B2 1.752396 1_555
B10 B13 1.827251 1_555
B10 B14 1.889742 1_555
B10 Mn1 2.317068 1_455
B10 Mn1 2.317068 1_555
B10 Ce1 2.714192 1_455
B10 Ce1 2.714192 1_555
B10 Ce2 2.779561 1_555
B10 Ce2 2.779561 1_455
B11 B3 1.752396 1_555
B11 B12 1.827251 1_555
B11 B15 1.889742 1_555
B11 Mn0 2.317068 1_455
B11 Mn0 2.317068 1_555
B11 Ce0 2.714192 1_455
B11 Ce0 2.714192 1_555
B11 Ce3 2.779561 1_455
B11 Ce3 2.779561 1_555
B12 B4 1.815851 1_555
B12 B8 1.889742 1_555
B12 Mn0 2.278124 1_455
B12 Mn0 2.278124 1_555
B12 Ce3 2.742181 1_445
B12 Ce3 2.742181 1_545
B12 Ce0 2.767744 1_455
B12 Ce0 2.767744 1_555
B13 B5 1.815851 1_555
B13 B9 1.889742 1_555
B13 Mn1 2.278124 1_455
B13 Mn1 2.278124 1_555
B13 Ce2 2.742181 1_565
B13 Ce2 2.742181 1_465
B13 Ce1 2.767744 1_455
B13 Ce1 2.767744 1_555
B14 B6 1.815851 1_555
B14 B9 1.827251 1_545
B14 Mn2 2.278124 1_455
B14 Mn2 2.278124 1_555
B14 Ce1 2.742181 1_455
B14 Ce1 2.742181 1_555
B14 Ce2 2.767744 1_455
B14 Ce2 2.767744 1_555
B15 B7 1.815851 1_555
B15 B8 1.827251 1_565
B15 Mn3 2.278124 1_455
B15 Mn3 2.278124 1_555
B15 Ce0 2.742181 1_555
B15 Ce0 2.742181 1_455
B15 Ce3 2.767744 1_455
B15 Ce3 2.767744 1_555
