# generated using pymatgen
data_Y4CdS7
_symmetry_space_group_name_H-M   'P 1'
_cell_length_a   6.66016947
_cell_length_b   6.66016947
_cell_length_c   11.62039281
_cell_angle_alpha   75.67398052
_cell_angle_beta   75.67398052
_cell_angle_gamma   33.59923166
_symmetry_Int_Tables_number   1
_chemical_formula_structural   Y4CdS7
_chemical_formula_sum   'Y4 Cd1 S7'
_cell_volume   275.55030845
_cell_formula_units_Z   1
loop_
 _symmetry_equiv_pos_site_id
 _symmetry_equiv_pos_as_xyz
  1  'x, y, z'
loop_
 _atom_site_type_symbol
 _atom_site_label
 _atom_site_symmetry_multiplicity
 _atom_site_fract_x
 _atom_site_fract_y
 _atom_site_fract_z
 _atom_site_occupancy
  Y  Y0  1  0.69318800  0.69318800  0.19977800  1
  Y  Y1  1  0.30713300  0.30713300  0.80388400  1
  Y  Y2  1  0.00008000  0.00008000  0.00250900  1
  Y  Y3  1  0.11494900  0.11494900  0.57133400  1
  Cd  Cd0  1  0.88473900  0.88473900  0.42090000  1
  S  S0  1  0.74158200  0.74158200  0.64709800  1
  S  S1  1  0.25826700  0.25826700  0.35128000  1
  S  S2  1  0.34061800  0.34061800  0.04978000  1
  S  S3  1  0.65973900  0.65973900  0.94833000  1
  S  S4  1  0.03880500  0.03880500  0.21780400  1
  S  S5  1  0.96072800  0.96072800  0.78537300  1
  S  S6  1  0.50017400  0.50017400  0.50193000  1
loop_
_geom_bond_atom_site_label_1
_geom_bond_atom_site_label_2
_geom_bond_distance
_geom_bond_site_symmetry_2
Cd0 S4 2.651935 1_665
Cd0 S6 2.734116 1_565
Cd0 S6 2.734116 1_655
Cd0 S1 2.763223 1_565
Cd0 S1 2.763223 1_655
Cd0 S0 2.785874 1_555
S0 Y3 2.796981 1_655
S0 Y3 2.796981 1_565
S0 Y1 2.917332 1_565
S0 Y1 2.917332 1_655
S1 Y3 2.731853 1_555
S1 Y0 2.872076 1_545
S1 Y0 2.872076 1_455
S2 Y2 2.750390 1_655
S2 Y2 2.750390 1_565
S2 Y0 2.929861 1_545
S2 Y0 2.929861 1_455
S2 Y1 2.996302 1_554
S3 Y2 2.753962 1_656
S3 Y2 2.753962 1_566
S3 Y1 2.902535 1_655
S3 Y1 2.902535 1_565
S3 Y0 3.060040 1_556
S4 Y2 2.672371 1_555
S4 Y0 2.722466 1_455
S4 Y0 2.722466 1_545
S5 Y2 2.696834 1_666
S5 Y1 2.714799 1_565
S5 Y1 2.714799 1_655
S5 Y3 2.743215 1_665
S6 Y3 2.666122 1_565
S6 Y3 2.666122 1_655
