# generated using pymatgen
data_NaCaEuWO6
_symmetry_space_group_name_H-M   'P 1'
_cell_length_a   5.76290509
_cell_length_b   5.76290509
_cell_length_c   8.45009368
_cell_angle_alpha   90.00000000
_cell_angle_beta   90.00000000
_cell_angle_gamma   90.00000000
_symmetry_Int_Tables_number   1
_chemical_formula_structural   NaCaEuWO6
_chemical_formula_sum   'Na2 Ca2 Eu2 W2 O12'
_cell_volume   280.63669561
_cell_formula_units_Z   2
loop_
 _symmetry_equiv_pos_site_id
 _symmetry_equiv_pos_as_xyz
  1  'x, y, z'
loop_
 _atom_site_type_symbol
 _atom_site_label
 _atom_site_symmetry_multiplicity
 _atom_site_fract_x
 _atom_site_fract_y
 _atom_site_fract_z
 _atom_site_occupancy
  Na  Na0  1  0.00000000  0.50000000  0.25000000  1
  Na  Na1  1  0.50000000  0.00000000  0.75000000  1
  Ca  Ca0  1  0.50000000  0.00000000  0.25000000  1
  Ca  Ca1  1  0.00000000  0.50000000  0.75000000  1
  Eu  Eu0  1  0.00000000  0.00000000  0.00000000  1
  Eu  Eu1  1  0.50000000  0.50000000  0.50000000  1
  W  W0  1  0.00000000  0.00000000  0.50000000  1
  W  W1  1  0.50000000  0.50000000  0.00000000  1
  O  O0  1  0.00000000  0.00000000  0.26829557  1
  O  O1  1  0.50000000  0.50000000  0.23170443  1
  O  O2  1  0.00000000  0.00000000  0.73170443  1
  O  O3  1  0.50000000  0.50000000  0.76829557  1
  O  O4  1  0.34939694  0.19649652  0.01138845  1
  O  O5  1  0.65060306  0.80350348  0.01138845  1
  O  O6  1  0.80350348  0.34939694  0.98861155  1
  O  O7  1  0.19649652  0.65060306  0.98861155  1
  O  O8  1  0.84939694  0.30350348  0.51138845  1
  O  O9  1  0.15060306  0.69649652  0.51138845  1
  O  O10  1  0.30350348  0.15060306  0.48861155  1
  O  O11  1  0.69649652  0.84939694  0.48861155  1
loop_
_geom_bond_atom_site_label_1
_geom_bond_atom_site_label_2
_geom_bond_distance
_geom_bond_site_symmetry_2
Na0 O7 2.629484 1_554
Na0 O6 2.629484 1_454
Na0 O8 2.629484 1_455
Na0 O9 2.629484 1_555
Na0 O1 2.885597 1_555
Na0 O0 2.885597 1_565
Na0 O0 2.885597 1_555
Na0 O1 2.885597 1_455
Na1 O10 2.629484 1_555
Na1 O11 2.629484 1_545
Na1 O5 2.629484 1_546
Na1 O4 2.629484 1_556
Na1 O3 2.885597 1_555
Na1 O2 2.885597 1_655
Na1 O3 2.885597 1_545
Na1 O2 2.885597 1_555
Ca0 O10 2.470021 1_555
Ca0 O11 2.470021 1_545
Ca0 O5 2.470021 1_545
Ca0 O4 2.470021 1_555
Ca0 O1 2.885597 1_545
Ca0 O0 2.885597 1_555
Ca0 O0 2.885597 1_655
Ca0 O1 2.885597 1_555
Ca1 O8 2.470021 1_455
Ca1 O6 2.470021 1_455
Ca1 O9 2.470021 1_555
Ca1 O7 2.470021 1_555
Ca1 O3 2.885597 1_555
Ca1 O2 2.885597 1_565
Ca1 O2 2.885597 1_555
Ca1 O3 2.885597 1_455
Eu0 O0 2.267123 1_555
Eu0 O2 2.267123 1_554
Eu0 O6 2.312124 1_454
Eu0 O7 2.312124 1_544
Eu0 O5 2.312124 1_445
Eu0 O4 2.312124 1_555
Eu1 O1 2.267123 1_555
Eu1 O3 2.267123 1_555
Eu1 O10 2.312124 1_555
Eu1 O8 2.312124 1_555
Eu1 O11 2.312124 1_555
Eu1 O9 2.312124 1_555
O0 W0 1.957924 1_555
O1 W1 1.957924 1_555
O2 W0 1.957924 1_555
O3 W1 1.957924 1_556
O4 W1 1.954929 1_555
O5 W1 1.954929 1_555
O6 W1 1.954929 1_556
O7 W1 1.954929 1_556
O8 W0 1.954929 1_655
O9 W0 1.954929 1_565
O10 W0 1.954929 1_555
O11 W0 1.954929 1_665
