# generated using pymatgen
data_YbCdSn
_symmetry_space_group_name_H-M   'P 1'
_cell_length_a   7.67017937
_cell_length_b   7.67017937
_cell_length_c   4.68724900
_cell_angle_alpha   90.00000000
_cell_angle_beta   90.00000000
_cell_angle_gamma   119.99999453
_symmetry_Int_Tables_number   1
_chemical_formula_structural   YbCdSn
_chemical_formula_sum   'Yb3 Cd3 Sn3'
_cell_volume   238.81396582
_cell_formula_units_Z   3
loop_
 _symmetry_equiv_pos_site_id
 _symmetry_equiv_pos_as_xyz
  1  'x, y, z'
loop_
 _atom_site_type_symbol
 _atom_site_label
 _atom_site_symmetry_multiplicity
 _atom_site_fract_x
 _atom_site_fract_y
 _atom_site_fract_z
 _atom_site_occupancy
  Yb  Yb0  1  0.00000000  0.42543200  0.50000000  1
  Yb  Yb1  1  0.57456800  0.57456800  0.50000000  1
  Yb  Yb2  1  0.42543200  0.00000000  0.50000000  1
  Cd  Cd0  1  0.00000000  0.74699200  0.00000000  1
  Cd  Cd1  1  0.25300800  0.25300800  0.00000000  1
  Cd  Cd2  1  0.74699200  0.00000000  0.00000000  1
  Sn  Sn0  1  0.33333300  0.66666700  0.00000000  1
  Sn  Sn1  1  0.66666700  0.33333300  0.00000000  1
  Sn  Sn2  1  0.00000000  0.00000000  0.50000000  1
loop_
_geom_bond_atom_site_label_1
_geom_bond_atom_site_label_2
_geom_bond_distance
_geom_bond_site_symmetry_2
Cd0 Sn0 2.914042 1_555
Cd0 Sn1 2.914047 1_455
Cd0 Sn2 3.042790 1_565
Cd0 Sn2 3.042790 1_564
Cd0 Cd2 3.361247 1_465
Cd0 Cd1 3.361247 1_565
Cd0 Yb0 3.402325 1_555
Cd0 Yb0 3.402325 1_554
Cd0 Yb1 3.684311 1_455
Cd0 Yb1 3.684311 1_454
Cd0 Yb2 3.684311 1_565
Cd0 Yb2 3.684311 1_564
Cd1 Sn0 2.914050 1_555
Cd1 Sn1 2.914050 1_555
Cd1 Sn2 3.042790 1_554
Cd1 Sn2 3.042790 1_555
Cd1 Cd2 3.361247 1_455
Cd1 Yb1 3.402325 1_554
Cd1 Yb1 3.402325 1_555
Cd1 Yb2 3.684311 1_555
Cd1 Yb0 3.684311 1_555
Cd1 Yb0 3.684311 1_554
Cd1 Yb2 3.684311 1_554
Cd2 Sn1 2.914042 1_555
Cd2 Sn0 2.914047 1_545
Cd2 Sn2 3.042790 1_655
Cd2 Sn2 3.042790 1_654
Cd2 Yb2 3.402325 1_555
Cd2 Yb2 3.402325 1_554
Cd2 Yb1 3.684311 1_544
Cd2 Yb1 3.684311 1_545
Cd2 Yb0 3.684311 1_655
Cd2 Yb0 3.684311 1_654
Sn0 Yb2 3.274496 1_565
Sn0 Yb2 3.274496 1_564
Sn0 Yb0 3.274498 1_555
Sn0 Yb0 3.274498 1_554
Sn0 Yb1 3.274501 1_554
Sn0 Yb1 3.274501 1_555
Sn1 Yb0 3.274496 1_655
Sn1 Yb0 3.274496 1_654
Sn1 Yb2 3.274498 1_554
Sn1 Yb2 3.274498 1_555
Sn1 Yb1 3.274501 1_554
Sn1 Yb1 3.274501 1_555
Sn2 Yb0 3.263140 1_555
Sn2 Yb2 3.263140 1_555
Sn2 Yb1 3.263140 1_445
