# generated using pymatgen
data_MoWC2
_symmetry_space_group_name_H-M   'P 1'
_cell_length_a   2.83110452
_cell_length_b   2.91373474
_cell_length_c   5.04904690
_cell_angle_alpha   90.00000000
_cell_angle_beta   90.00000000
_cell_angle_gamma   90.00000000
_symmetry_Int_Tables_number   1
_chemical_formula_structural   MoWC2
_chemical_formula_sum   'Mo1 W1 C2'
_cell_volume   41.65003014
_cell_formula_units_Z   1
loop_
 _symmetry_equiv_pos_site_id
 _symmetry_equiv_pos_as_xyz
  1  'x, y, z'
loop_
 _atom_site_type_symbol
 _atom_site_label
 _atom_site_symmetry_multiplicity
 _atom_site_fract_x
 _atom_site_fract_y
 _atom_site_fract_z
 _atom_site_occupancy
  Mo  Mo0  1  0.50000000  0.50000000  0.16603008  1
  W  W0  1  0.50000000  0.00000000  0.66718481  1
  C  C0  1  0.00000000  0.00000000  0.99870382  1
  C  C1  1  0.00000000  0.50000000  0.50138328  1
loop_
_geom_bond_atom_site_label_1
_geom_bond_atom_site_label_2
_geom_bond_distance
_geom_bond_site_symmetry_2
C0 W0 2.192163 1_455
C0 W0 2.192163 1_555
C0 Mo0 2.200001 1_456
C0 Mo0 2.200001 1_556
C0 Mo0 2.200001 1_446
C0 Mo0 2.200001 1_546
C1 W0 2.197056 1_465
C1 W0 2.197056 1_455
C1 W0 2.197056 1_565
C1 W0 2.197056 1_555
C1 Mo0 2.206980 1_455
C1 Mo0 2.206980 1_555
