# generated using pymatgen
data_CaLa3Mn4O10
_symmetry_space_group_name_H-M   'P 1'
_cell_length_a   5.62135700
_cell_length_b   5.77306600
_cell_length_c   17.02001640
_cell_angle_alpha   70.88791560
_cell_angle_beta   90.00000000
_cell_angle_gamma   90.00000000
_symmetry_Int_Tables_number   1
_chemical_formula_structural   CaLa3Mn4O10
_chemical_formula_sum   'Ca2 La6 Mn8 O20'
_cell_volume   521.89635529
_cell_formula_units_Z   2
loop_
 _symmetry_equiv_pos_site_id
 _symmetry_equiv_pos_as_xyz
  1  'x, y, z'
loop_
 _atom_site_type_symbol
 _atom_site_label
 _atom_site_symmetry_multiplicity
 _atom_site_fract_x
 _atom_site_fract_y
 _atom_site_fract_z
 _atom_site_occupancy
  Ca  Ca0  1  0.21254900  0.36178500  0.11442600  1
  Ca  Ca1  1  0.78745100  0.36178500  0.61442600  1
  La  La0  1  0.72230800  0.62831700  0.39206900  1
  La  La1  1  0.28199500  0.90517000  0.61502200  1
  La  La2  1  0.78030400  0.09878000  0.88381500  1
  La  La3  1  0.27769200  0.62831700  0.89206900  1
  La  La4  1  0.21969600  0.09878000  0.38381500  1
  La  La5  1  0.71800500  0.90517000  0.11502200  1
  Mn  Mn0  1  0.20213200  0.69882900  0.24641300  1
  Mn  Mn1  1  0.69684100  0.30150500  0.24865000  1
  Mn  Mn2  1  0.30315900  0.30150500  0.74865000  1
  Mn  Mn3  1  0.79786800  0.69882900  0.74641300  1
  Mn  Mn4  1  0.75090300  0.49655100  0.00354800  1
  Mn  Mn5  1  0.24909700  0.49655100  0.50354800  1
  Mn  Mn6  1  0.75060000  0.99885400  0.50417500  1
  Mn  Mn7  1  0.24940000  0.99885400  0.00417500  1
  O  O0  1  0.02291500  0.30854500  0.98028800  1
  O  O1  1  0.52472100  0.68863600  0.51990700  1
  O  O2  1  0.46092200  0.25052800  0.47841800  1
  O  O3  1  0.96203000  0.75616500  0.01635200  1
  O  O4  1  0.47527900  0.68863600  0.01990700  1
  O  O5  1  0.97708500  0.30854500  0.48028800  1
  O  O6  1  0.03797000  0.75616500  0.51635200  1
  O  O7  1  0.53907800  0.25052800  0.97841800  1
  O  O8  1  0.32217400  0.35291600  0.24812700  1
  O  O9  1  0.82269000  0.64635000  0.25128100  1
  O  O10  1  0.17731000  0.64635000  0.75128100  1
  O  O11  1  0.67782600  0.35291600  0.74812700  1
  O  O12  1  0.79996900  0.27029000  0.13861800  1
  O  O13  1  0.29123000  0.72893200  0.35933000  1
  O  O14  1  0.70313900  0.95087800  0.63566800  1
  O  O15  1  0.21516800  0.05697000  0.86389300  1
  O  O16  1  0.70877000  0.72893200  0.85933000  1
  O  O17  1  0.20003100  0.27029000  0.63861800  1
  O  O18  1  0.78483200  0.05697000  0.36389300  1
  O  O19  1  0.29686100  0.95087800  0.13566800  1
loop_
_geom_bond_atom_site_label_1
_geom_bond_atom_site_label_2
_geom_bond_distance
_geom_bond_site_symmetry_2
Ca0 O19 2.328310 1_545
Ca0 O8 2.341880 1_555
Ca0 O12 2.384342 1_455
Ca0 O4 2.518320 1_555
Ca0 O0 2.627272 1_554
Ca0 O3 2.732134 1_455
Ca1 O14 2.328310 1_545
Ca1 O11 2.341880 1_555
Ca1 O17 2.384342 1_655
Ca1 O1 2.518320 1_555
Ca1 O5 2.627272 1_555
Ca1 O6 2.732134 1_655
La0 O18 2.387519 1_565
La0 O5 2.428683 1_555
La0 O9 2.430584 1_555
La0 O13 2.511583 1_555
La0 O1 2.566166 1_555
La0 O2 2.641340 1_555
La0 O6 3.031546 1_655
La1 O17 2.317540 1_565
La1 O10 2.384977 1_555
La1 O14 2.420416 1_555
La1 O6 2.527434 1_555
La1 O2 2.712366 1_565
La1 O1 2.714823 1_555
La2 O16 2.340284 1_545
La2 O11 2.366223 1_555
La2 O7 2.474369 1_555
La2 O15 2.490488 1_655
La2 O3 2.668822 1_546
La2 O0 2.706399 1_655
La3 O15 2.387519 1_565
La3 O0 2.428683 1_555
La3 O10 2.430584 1_555
La3 O16 2.511583 1_555
La3 O4 2.566166 1_556
La3 O7 2.641340 1_555
La3 O3 3.031546 1_456
La4 O13 2.340284 1_545
La4 O8 2.366223 1_555
La4 O2 2.474369 1_555
La4 O18 2.490488 1_455
La4 O6 2.668822 1_545
La4 O5 2.706399 1_455
La5 O12 2.317540 1_565
La5 O9 2.384977 1_555
La5 O19 2.420416 1_555
La5 O3 2.527434 1_555
La5 O7 2.712366 1_564
La5 O4 2.714823 1_555
Mn0 O19 2.039029 1_555
Mn0 O13 2.047747 1_555
Mn0 O8 2.099043 1_555
Mn0 O9 2.152165 1_455
Mn1 O12 2.024036 1_555
Mn1 O18 2.066787 1_555
Mn1 O8 2.126559 1_555
Mn1 O9 2.127015 1_555
Mn2 O17 2.024036 1_555
Mn2 O15 2.066787 1_555
Mn2 O11 2.126559 1_555
Mn2 O10 2.127015 1_555
Mn3 O14 2.039029 1_555
Mn3 O16 2.047747 1_555
Mn3 O11 2.099043 1_555
Mn3 O10 2.152165 1_655
Mn4 O4 1.977370 1_555
Mn4 O3 1.978945 1_555
Mn4 O0 1.988518 1_654
Mn4 O7 2.003967 1_554
Mn4 O12 2.258500 1_555
Mn4 O16 2.392600 1_554
Mn5 O1 1.977370 1_555
Mn5 O6 1.978945 1_555
Mn5 O5 1.988518 1_455
Mn5 O2 2.003967 1_555
Mn5 O17 2.258500 1_555
Mn5 O13 2.392600 1_555
Mn6 O6 2.103645 1_655
Mn6 O5 2.122898 1_565
Mn6 O2 2.130195 1_565
Mn6 O1 2.139461 1_555
Mn6 O14 2.179607 1_555
Mn6 O18 2.307743 1_565
Mn7 O3 2.103645 1_455
Mn7 O0 2.122898 1_564
Mn7 O7 2.130195 1_564
Mn7 O4 2.139461 1_555
Mn7 O19 2.179607 1_555
Mn7 O15 2.307743 1_564
