# generated using pymatgen
data_Dy(NO3)3
_symmetry_space_group_name_H-M   'P 1'
_cell_length_a   6.19782900
_cell_length_b   9.80737200
_cell_length_c   11.10228849
_cell_angle_alpha   88.50929262
_cell_angle_beta   90.00000000
_cell_angle_gamma   90.00000000
_symmetry_Int_Tables_number   1
_chemical_formula_structural   Dy(NO3)3
_chemical_formula_sum   'Dy4 N12 O36'
_cell_volume   674.61770970
_cell_formula_units_Z   4
loop_
 _symmetry_equiv_pos_site_id
 _symmetry_equiv_pos_as_xyz
  1  'x, y, z'
loop_
 _atom_site_type_symbol
 _atom_site_label
 _atom_site_symmetry_multiplicity
 _atom_site_fract_x
 _atom_site_fract_y
 _atom_site_fract_z
 _atom_site_occupancy
  Dy  Dy0  1  0.67808700  0.27862800  0.73657900  1
  Dy  Dy1  1  0.17808700  0.22137200  0.26342100  1
  Dy  Dy2  1  0.32191300  0.72137200  0.26342100  1
  Dy  Dy3  1  0.82191300  0.77862800  0.73657900  1
  N  N0  1  0.37610300  0.16461100  0.49117600  1
  N  N1  1  0.87610300  0.33538900  0.50882400  1
  N  N2  1  0.62389700  0.83538900  0.50882400  1
  N  N3  1  0.12389700  0.66461100  0.49117600  1
  N  N4  1  0.72876400  0.21373200  0.20972900  1
  N  N5  1  0.22876400  0.28626800  0.79027100  1
  N  N6  1  0.27123600  0.78626800  0.79027100  1
  N  N7  1  0.77123600  0.71373200  0.20972900  1
  N  N8  1  0.72448800  0.52212200  0.88320700  1
  N  N9  1  0.22448800  0.97787800  0.11679300  1
  N  N10  1  0.27551200  0.47787800  0.11679300  1
  N  N11  1  0.77551200  0.02212200  0.88320700  1
  O  O0  1  0.42591400  0.26906000  0.42546700  1
  O  O1  1  0.92591400  0.23094000  0.57453300  1
  O  O2  1  0.57408600  0.73094000  0.57453300  1
  O  O3  1  0.07408600  0.76906000  0.42546700  1
  O  O4  1  0.23591400  0.08436100  0.44971700  1
  O  O5  1  0.73591400  0.41563900  0.55028300  1
  O  O6  1  0.76408600  0.91563900  0.55028300  1
  O  O7  1  0.26408600  0.58436100  0.44971700  1
  O  O8  1  0.46161900  0.14247500  0.59205900  1
  O  O9  1  0.96161900  0.35752500  0.40794100  1
  O  O10  1  0.53838100  0.85752500  0.40794100  1
  O  O11  1  0.03838100  0.64247500  0.59205900  1
  O  O12  1  0.81590300  0.11982300  0.27447700  1
  O  O13  1  0.31590300  0.38017700  0.72552300  1
  O  O14  1  0.18409700  0.88017700  0.72552300  1
  O  O15  1  0.68409700  0.61982300  0.27447700  1
  O  O16  1  0.53186300  0.20992200  0.18263900  1
  O  O17  1  0.03186300  0.29007800  0.81736100  1
  O  O18  1  0.46813700  0.79007800  0.81736100  1
  O  O19  1  0.96813700  0.70992200  0.18263900  1
  O  O20  1  0.84713200  0.31056500  0.17147800  1
  O  O21  1  0.34713200  0.18943500  0.82852200  1
  O  O22  1  0.15286800  0.68943500  0.82852200  1
  O  O23  1  0.65286800  0.81056500  0.17147800  1
  O  O24  1  0.73540500  0.53219500  0.76520300  1
  O  O25  1  0.23540500  0.96780500  0.23479700  1
  O  O26  1  0.26459500  0.46780500  0.23479700  1
  O  O27  1  0.76459500  0.03219500  0.76520300  1
  O  O28  1  0.66774700  0.40798700  0.92672100  1
  O  O29  1  0.16774700  0.09201300  0.07327900  1
  O  O30  1  0.33225300  0.59201300  0.07327900  1
  O  O31  1  0.83225300  0.90798700  0.92672100  1
  O  O32  1  0.77066200  0.62302500  0.94229100  1
  O  O33  1  0.27066200  0.87697500  0.05770900  1
  O  O34  1  0.22933800  0.37697500  0.05770900  1
  O  O35  1  0.72933800  0.12302500  0.94229100  1
loop_
_geom_bond_atom_site_label_1
_geom_bond_atom_site_label_2
_geom_bond_distance
_geom_bond_site_symmetry_2
Dy0 O17 2.372741 1_655
Dy0 O1 2.420428 1_555
Dy0 O21 2.442979 1_555
Dy0 O13 2.457540 1_555
Dy0 O5 2.463197 1_555
Dy0 O27 2.487913 1_555
Dy0 O28 2.491856 1_555
Dy0 O8 2.503780 1_555
Dy0 O24 2.540200 1_555
Dy0 O35 2.732121 1_555
Dy1 O16 2.372741 1_555
Dy1 O0 2.420428 1_555
Dy1 O20 2.442979 1_455
Dy1 O12 2.457540 1_455
Dy1 O4 2.463197 1_555
Dy1 O26 2.487913 1_555
Dy1 O29 2.491856 1_555
Dy1 O9 2.503780 1_455
Dy1 O25 2.540200 1_545
Dy1 O34 2.732121 1_555
Dy2 O19 2.372741 1_455
Dy2 O3 2.420428 1_555
Dy2 O23 2.442979 1_555
Dy2 O15 2.457540 1_555
Dy2 O7 2.463197 1_555
Dy2 O25 2.487913 1_555
Dy2 O30 2.491856 1_555
Dy2 O10 2.503780 1_555
Dy2 O26 2.540200 1_555
Dy2 O33 2.732121 1_555
Dy3 O18 2.372741 1_555
Dy3 O2 2.420428 1_555
Dy3 O22 2.442979 1_655
Dy3 O14 2.457540 1_655
Dy3 O6 2.463197 1_555
Dy3 O24 2.487913 1_555
Dy3 O31 2.491856 1_555
Dy3 O11 2.503780 1_655
Dy3 O27 2.540200 1_565
Dy3 O32 2.732121 1_555
N0 O8 1.252943 1_555
N0 O4 1.266918 1_555
N0 O0 1.279828 1_555
N1 O9 1.252943 1_555
N1 O5 1.266918 1_555
N1 O1 1.279828 1_555
N2 O10 1.252943 1_555
N2 O6 1.266918 1_555
N2 O2 1.279828 1_555
N3 O11 1.252943 1_555
N3 O7 1.266918 1_555
N3 O3 1.279828 1_555
N4 O16 1.257662 1_555
N4 O20 1.264696 1_555
N4 O12 1.273664 1_555
N5 O17 1.257662 1_555
N5 O21 1.264696 1_555
N5 O13 1.273664 1_555
N6 O18 1.257662 1_555
N6 O22 1.264696 1_555
N6 O14 1.273664 1_555
N7 O19 1.257662 1_555
N7 O23 1.264696 1_555
N7 O15 1.273664 1_555
N8 O32 1.235015 1_555
N8 O28 1.257737 1_555
N8 O24 1.313013 1_555
N9 O33 1.235015 1_555
N9 O29 1.257737 1_565
N9 O25 1.313013 1_555
N10 O34 1.235015 1_555
N10 O30 1.257737 1_555
N10 O26 1.313013 1_555
N11 O35 1.235015 1_555
N11 O31 1.257737 1_545
N11 O27 1.313013 1_555
