# generated using pymatgen
data_MgSi2
_symmetry_space_group_name_H-M   'P 1'
_cell_length_a   5.22006623
_cell_length_b   5.22006623
_cell_length_c   5.22006668
_cell_angle_alpha   42.16268264
_cell_angle_beta   42.16268264
_cell_angle_gamma   42.16267997
_symmetry_Int_Tables_number   1
_chemical_formula_structural   MgSi2
_chemical_formula_sum   'Mg1 Si2'
_cell_volume   57.99161042
_cell_formula_units_Z   1
loop_
 _symmetry_equiv_pos_site_id
 _symmetry_equiv_pos_as_xyz
  1  'x, y, z'
loop_
 _atom_site_type_symbol
 _atom_site_label
 _atom_site_symmetry_multiplicity
 _atom_site_fract_x
 _atom_site_fract_y
 _atom_site_fract_z
 _atom_site_occupancy
  Mg  Mg0  1  0.50000000  0.50000000  0.50000000  1
  Si  Si0  1  0.29706900  0.29706900  0.29706900  1
  Si  Si1  1  0.70293100  0.70293100  0.70293100  1
loop_
_geom_bond_atom_site_label_1
_geom_bond_atom_site_label_2
_geom_bond_distance
_geom_bond_site_symmetry_2
Mg0 Si1 2.855083 1_455
Mg0 Si0 2.855083 1_655
Mg0 Si1 2.855083 1_545
Mg0 Si0 2.855083 1_565
Mg0 Si0 2.855083 1_556
Mg0 Si1 2.855083 1_554
Mg0 Si0 2.890868 1_555
Mg0 Si1 2.890868 1_555
Si0 Si1 2.401696 1_455
Si0 Si1 2.401696 1_545
Si0 Si1 2.401696 1_554
