# generated using pymatgen
data_Na3YN4
_symmetry_space_group_name_H-M   'P 1'
_cell_length_a   6.98311105
_cell_length_b   6.98311105
_cell_length_c   12.79671098
_cell_angle_alpha   105.08108410
_cell_angle_beta   105.08108410
_cell_angle_gamma   92.65989830
_symmetry_Int_Tables_number   1
_chemical_formula_structural   Na3YN4
_chemical_formula_sum   'Na12 Y4 N16'
_cell_volume   577.39926952
_cell_formula_units_Z   4
loop_
 _symmetry_equiv_pos_site_id
 _symmetry_equiv_pos_as_xyz
  1  'x, y, z'
loop_
 _atom_site_type_symbol
 _atom_site_label
 _atom_site_symmetry_multiplicity
 _atom_site_fract_x
 _atom_site_fract_y
 _atom_site_fract_z
 _atom_site_occupancy
  Na  Na0  1  0.52884700  0.77224000  0.46117500  1
  Na  Na1  1  0.93232800  0.68893500  0.46117500  1
  Na  Na2  1  0.22776000  0.47115300  0.53882500  1
  Na  Na3  1  0.72115300  0.97776000  0.03882500  1
  Na  Na4  1  0.31106500  0.06767200  0.53882500  1
  Na  Na5  1  0.31767200  0.06106500  0.03882500  1
  Na  Na6  1  0.02224000  0.27884700  0.96117500  1
  Na  Na7  1  0.93893500  0.68232800  0.96117500  1
  Na  Na8  1  0.12500000  0.37500000  0.75000000  1
  Na  Na9  1  0.62500000  0.37500000  0.75000000  1
  Na  Na10  1  0.62500000  0.87500000  0.25000000  1
  Na  Na11  1  0.62500000  0.37500000  0.25000000  1
  Y  Y0  1  0.62500000  0.87500000  0.75000000  1
  Y  Y1  1  0.12500000  0.87500000  0.75000000  1
  Y  Y2  1  0.12500000  0.37500000  0.25000000  1
  Y  Y3  1  0.12500000  0.87500000  0.25000000  1
  N  N0  1  0.50724000  0.73250800  0.87522000  1
  N  N1  1  0.36798000  0.14271300  0.87522000  1
  N  N2  1  0.26749200  0.49276000  0.12478000  1
  N  N3  1  0.74276000  0.01749200  0.62478000  1
  N  N4  1  0.85728700  0.63202000  0.12478000  1
  N  N5  1  0.88202000  0.60728700  0.62478000  1
  N  N6  1  0.98250800  0.25724000  0.37522000  1
  N  N7  1  0.39271300  0.11798000  0.37522000  1
  N  N8  1  0.40015200  0.12203800  0.77893900  1
  N  N9  1  0.37878700  0.65690100  0.77893900  1
  N  N10  1  0.87796200  0.59984800  0.22106100  1
  N  N11  1  0.84984800  0.62796200  0.72106100  1
  N  N12  1  0.34309900  0.62121300  0.22106100  1
  N  N13  1  0.87121300  0.09309900  0.72106100  1
  N  N14  1  0.37203800  0.15015200  0.27893900  1
  N  N15  1  0.90690100  0.12878700  0.27893900  1
loop_
_geom_bond_atom_site_label_1
_geom_bond_atom_site_label_2
_geom_bond_distance
_geom_bond_site_symmetry_2
N0 N9 1.282117 1_555
N0 Y0 2.381908 1_555
N0 Na3 2.411839 1_556
N0 Na9 2.875945 1_555
N0 Na7 2.998909 1_555
N1 N8 1.282116 1_555
N1 Y1 2.381912 1_545
N1 Na5 2.411842 1_556
N1 Na8 2.875940 1_555
N1 Na6 2.998907 1_555
N2 Y2 2.381908 1_555
N2 Na6 2.411839 1_554
N2 Na11 2.875945 1_555
N2 Na5 2.998909 1_555
N3 Y0 2.381908 1_545
N3 Na0 2.411839 1_545
N3 Na9 2.875945 1_555
N3 Na4 2.998909 1_555
N4 Y3 2.381912 1_655
N4 Na7 2.411842 1_554
N4 Na10 2.875940 1_555
N4 Na3 2.998907 1_555
N5 Y1 2.381912 1_655
N5 Na1 2.411842 1_555
N5 Na8 2.875940 1_655
N5 Na2 2.998907 1_655
N6 Y2 2.381908 1_655
N6 Na2 2.411839 1_655
N6 Na11 2.875945 1_555
N6 Na1 2.998909 1_555
N7 Y3 2.381912 1_545
N7 Na4 2.411842 1_555
N7 Na10 2.875940 1_545
N7 Na0 2.998907 1_545
N8 Y1 2.407194 1_545
N8 Y0 2.408311 1_545
N8 Na9 2.471521 1_555
N8 Na8 2.689709 1_555
N8 Na4 2.889428 1_555
N9 Y0 2.407194 1_555
N9 Y1 2.408311 1_555
N9 Na8 2.471521 1_555
N9 Na9 2.689709 1_555
N9 Na2 2.889428 1_555
N10 N4 1.282116 1_555
N10 Y3 2.407194 1_655
N10 Y2 2.408311 1_655
N10 Na11 2.471521 1_555
N10 Na10 2.689709 1_555
N10 Na1 2.889428 1_555
N11 N5 1.282116 1_555
N11 Y1 2.407194 1_655
N11 Y0 2.408311 1_555
N11 Na9 2.471521 1_555
N11 Na8 2.689709 1_655
N11 Na7 2.889428 1_555
N12 N2 1.282117 1_555
N12 Y2 2.407194 1_555
N12 Y3 2.408311 1_555
N12 Na10 2.471521 1_555
N12 Na11 2.689709 1_555
N12 Na0 2.889428 1_555
N13 N3 1.282117 1_555
N13 Y0 2.407194 1_545
N13 Y1 2.408311 1_645
N13 Na8 2.471521 1_655
N13 Na9 2.689709 1_555
N13 Na6 2.889428 1_655
N14 N7 1.282116 1_555
N14 Y3 2.407194 1_545
N14 Y2 2.408311 1_555
N14 Na11 2.471521 1_555
N14 Na10 2.689709 1_545
N14 Na5 2.889428 1_555
N15 N6 1.282117 1_555
N15 Y2 2.407194 1_655
N15 Y3 2.408311 1_645
N15 Na10 2.471521 1_545
N15 Na11 2.689709 1_555
N15 Na3 2.889428 1_545
