# generated using pymatgen
data_Zr4Co7Ge6
_symmetry_space_group_name_H-M   'P 1'
_cell_length_a   6.77564028
_cell_length_b   6.77564040
_cell_length_c   6.77564057
_cell_angle_alpha   109.47124809
_cell_angle_beta   109.47120995
_cell_angle_gamma   109.47123238
_symmetry_Int_Tables_number   1
_chemical_formula_structural   Zr4Co7Ge6
_chemical_formula_sum   'Zr4 Co7 Ge6'
_cell_volume   239.45780968
_cell_formula_units_Z   1
loop_
 _symmetry_equiv_pos_site_id
 _symmetry_equiv_pos_as_xyz
  1  'x, y, z'
loop_
 _atom_site_type_symbol
 _atom_site_label
 _atom_site_symmetry_multiplicity
 _atom_site_fract_x
 _atom_site_fract_y
 _atom_site_fract_z
 _atom_site_occupancy
  Zr  Zr0  1  0.00000000  0.00000000  0.50000000  1
  Zr  Zr1  1  0.00000000  0.50000000  0.00000000  1
  Zr  Zr2  1  0.50000000  0.50000000  0.50000000  1
  Zr  Zr3  1  0.50000000  0.00000000  0.00000000  1
  Co  Co0  1  0.00000000  0.00000000  0.00000000  1
  Co  Co1  1  0.50000000  0.75000000  0.25000000  1
  Co  Co2  1  0.75000000  0.50000000  0.25000000  1
  Co  Co3  1  0.25000000  0.50000000  0.75000000  1
  Co  Co4  1  0.75000000  0.25000000  0.50000000  1
  Co  Co5  1  0.25000000  0.75000000  0.50000000  1
  Co  Co6  1  0.50000000  0.25000000  0.75000000  1
  Ge  Ge0  1  0.31997113  0.31997113  -0.00000000  1
  Ge  Ge1  1  0.00000000  0.68002887  0.68002887  1
  Ge  Ge2  1  0.68002887  0.68002887  0.00000000  1
  Ge  Ge3  1  0.68002887  0.00000000  0.68002887  1
  Ge  Ge4  1  -0.00000000  0.31997113  0.31997113  1
  Ge  Ge5  1  0.31997113  -0.00000000  0.31997113  1
loop_
_geom_bond_atom_site_label_1
_geom_bond_atom_site_label_2
_geom_bond_distance
_geom_bond_site_symmetry_2
Co0 Ge4 2.503401 1_555
Co0 Ge1 2.503401 1_544
Co0 Ge2 2.503401 1_445
Co0 Ge0 2.503401 1_555
Co0 Ge5 2.503402 1_555
Co0 Ge3 2.503402 1_454
Co1 Ge0 2.410329 1_555
Co1 Ge3 2.410330 1_565
Co1 Ge2 2.410330 1_555
Co1 Ge5 2.410331 1_565
Co1 Zr0 2.766143 1_665
Co1 Zr1 2.766143 1_555
Co1 Zr2 2.766144 1_555
Co1 Zr3 2.766144 1_565
Co2 Ge1 2.410330 1_655
Co2 Ge0 2.410330 1_555
Co2 Ge4 2.410331 1_655
Co2 Ge2 2.410331 1_555
Co2 Zr0 2.766142 1_665
Co2 Zr3 2.766142 1_555
Co2 Zr1 2.766143 1_655
Co2 Zr2 2.766143 1_555
Co3 Ge4 2.410330 1_555
Co3 Ge2 2.410330 1_556
Co3 Ge1 2.410331 1_555
Co3 Ge0 2.410331 1_556
Co3 Zr3 2.766142 1_566
Co3 Zr0 2.766142 1_555
Co3 Zr1 2.766143 1_556
Co3 Zr2 2.766143 1_555
Co4 Ge1 2.410330 1_655
Co4 Ge5 2.410330 1_555
Co4 Ge4 2.410330 1_655
Co4 Ge3 2.410331 1_555
Co4 Zr1 2.766143 1_656
Co4 Zr3 2.766143 1_555
Co4 Zr0 2.766144 1_655
Co4 Zr2 2.766144 1_555
Co5 Ge4 2.410330 1_555
Co5 Ge3 2.410330 1_565
Co5 Ge1 2.410330 1_555
Co5 Ge5 2.410331 1_565
Co5 Zr3 2.766143 1_566
Co5 Zr1 2.766143 1_555
Co5 Zr0 2.766144 1_565
Co5 Zr2 2.766144 1_555
Co6 Ge2 2.410329 1_556
Co6 Ge5 2.410330 1_555
Co6 Ge0 2.410330 1_556
Co6 Ge3 2.410331 1_555
Co6 Zr1 2.766143 1_656
Co6 Zr0 2.766143 1_555
Co6 Zr2 2.766144 1_555
Co6 Zr3 2.766144 1_556
Ge0 Zr0 2.819794 1_554
Ge0 Zr2 2.819795 1_555
Ge0 Zr1 2.819795 1_555
Ge0 Zr3 2.819795 1_555
Ge1 Zr3 2.819794 1_566
Ge1 Zr2 2.819795 1_455
Ge1 Zr0 2.819795 1_565
Ge1 Zr1 2.819795 1_556
Ge2 Zr0 2.819794 1_665
Ge2 Zr2 2.819795 1_554
Ge2 Zr1 2.819795 1_655
Ge2 Zr3 2.819795 1_565
Ge3 Zr1 2.819794 1_656
Ge3 Zr2 2.819794 1_545
Ge3 Zr0 2.819795 1_655
Ge3 Zr3 2.819795 1_556
Ge4 Zr3 2.819794 1_455
Ge4 Zr2 2.819795 1_555
Ge4 Zr0 2.819795 1_555
Ge4 Zr1 2.819795 1_555
Ge5 Zr1 2.819794 1_545
Ge5 Zr2 2.819794 1_555
Ge5 Zr0 2.819795 1_555
Ge5 Zr3 2.819795 1_555
