# generated using pymatgen
data_VCrMo
_symmetry_space_group_name_H-M   'P 1'
_cell_length_a   5.29892628
_cell_length_b   5.29892628
_cell_length_c   12.84451458
_cell_angle_alpha   97.69023408
_cell_angle_beta   97.69023408
_cell_angle_gamma   110.56428169
_symmetry_Int_Tables_number   1
_chemical_formula_structural   VCrMo
_chemical_formula_sum   'V8 Cr8 Mo8'
_cell_volume   328.22168379
_cell_formula_units_Z   8
loop_
 _symmetry_equiv_pos_site_id
 _symmetry_equiv_pos_as_xyz
  1  'x, y, z'
loop_
 _atom_site_type_symbol
 _atom_site_label
 _atom_site_symmetry_multiplicity
 _atom_site_fract_x
 _atom_site_fract_y
 _atom_site_fract_z
 _atom_site_occupancy
  V  V0_0  1  0.17030700  0.17030700  0.34061450  1
  V  V0_1  1  0.17030700  0.17030700  0.84061450  1
  V  V0_2  1  0.17030700  0.67030700  0.34061450  1
  V  V0_3  1  0.17030700  0.67030700  0.84061450  1
  V  V0_4  1  0.67030700  0.17030700  0.34061450  1
  V  V0_5  1  0.67030700  0.17030700  0.84061450  1
  V  V0_6  1  0.67030700  0.67030700  0.34061450  1
  V  V0_7  1  0.67030700  0.67030700  0.84061450  1
  Cr  Cr0_0  1  0.49786500  0.49786500  0.49573000  1
  Cr  Cr0_1  1  0.49786500  0.49786500  0.99573000  1
  Cr  Cr0_2  1  0.49786500  0.99786500  0.49573000  1
  Cr  Cr0_3  1  0.49786500  0.99786500  0.99573000  1
  Cr  Cr0_4  1  0.99786500  0.49786500  0.49573000  1
  Cr  Cr0_5  1  0.99786500  0.49786500  0.99573000  1
  Cr  Cr0_6  1  0.99786500  0.99786500  0.49573000  1
  Cr  Cr0_7  1  0.99786500  0.99786500  0.99573000  1
  Mo  Mo0_0  1  0.33182800  0.33182800  0.16365500  1
  Mo  Mo0_1  1  0.33182800  0.33182800  0.66365500  1
  Mo  Mo0_2  1  0.33182800  0.83182800  0.16365500  1
  Mo  Mo0_3  1  0.33182800  0.83182800  0.66365500  1
  Mo  Mo0_4  1  0.83182800  0.33182800  0.16365500  1
  Mo  Mo0_5  1  0.83182800  0.33182800  0.66365500  1
  Mo  Mo0_6  1  0.83182800  0.83182800  0.16365500  1
  Mo  Mo0_7  1  0.83182800  0.83182800  0.66365500  1
loop_
_geom_bond_atom_site_label_1
_geom_bond_atom_site_label_2
_geom_bond_distance
_geom_bond_site_symmetry_2
V0_0 V0_4 2.649463 1_555
V0_0 V0_2 2.649463 1_545
V0_0 V0_2 2.649463 1_555
V0_0 V0_4 2.649463 1_455
V0_1 V0_5 2.649463 1_555
V0_1 V0_3 2.649463 1_545
V0_1 V0_3 2.649463 1_555
V0_1 V0_5 2.649463 1_455
V0_2 V0_6 2.649463 1_455
V0_2 V0_6 2.649463 1_555
V0_3 V0_7 2.649463 1_455
V0_3 V0_7 2.649463 1_555
V0_4 V0_6 2.649463 1_555
V0_4 V0_6 2.649463 1_545
V0_5 V0_7 2.649463 1_545
V0_5 V0_7 2.649463 1_555
Cr0_0 V0_6 2.455080 1_555
Cr0_0 V0_0 2.455081 1_555
Cr0_0 Mo0_1 2.583102 1_555
Cr0_0 Mo0_7 2.583105 1_555
Cr0_0 Cr0_4 2.649463 1_455
Cr0_0 Cr0_2 2.649463 1_545
Cr0_0 Cr0_2 2.649463 1_555
Cr0_0 Cr0_4 2.649463 1_555
Cr0_1 V0_7 2.455080 1_555
Cr0_1 V0_1 2.455081 1_555
Cr0_1 Mo0_0 2.583102 1_556
Cr0_1 Mo0_6 2.583105 1_556
Cr0_1 Cr0_5 2.649463 1_455
Cr0_1 Cr0_3 2.649463 1_545
Cr0_1 Cr0_5 2.649463 1_555
Cr0_1 Cr0_3 2.649463 1_555
Cr0_2 V0_4 2.455080 1_565
Cr0_2 V0_2 2.455081 1_555
Cr0_2 Mo0_3 2.583102 1_555
Cr0_2 Mo0_5 2.583105 1_565
Cr0_2 Cr0_6 2.649463 1_455
Cr0_2 Cr0_6 2.649463 1_555
Cr0_3 V0_5 2.455080 1_565
Cr0_3 V0_3 2.455081 1_555
Cr0_3 Mo0_2 2.583102 1_556
Cr0_3 Mo0_4 2.583105 1_566
Cr0_3 Cr0_7 2.649463 1_455
Cr0_3 Cr0_7 2.649463 1_555
Cr0_4 V0_2 2.455080 1_655
Cr0_4 V0_4 2.455081 1_555
Cr0_4 Mo0_5 2.583102 1_555
Cr0_4 Mo0_3 2.583105 1_655
Cr0_4 Cr0_6 2.649463 1_545
Cr0_4 Cr0_6 2.649463 1_555
Cr0_5 V0_3 2.455080 1_655
Cr0_5 V0_5 2.455081 1_555
Cr0_5 Mo0_4 2.583102 1_556
Cr0_5 Mo0_2 2.583105 1_656
Cr0_5 Cr0_7 2.649463 1_545
Cr0_5 Cr0_7 2.649463 1_555
Cr0_6 V0_0 2.455080 1_665
Cr0_6 V0_6 2.455081 1_555
Cr0_6 Mo0_7 2.583102 1_555
Cr0_6 Mo0_1 2.583105 1_665
Cr0_7 V0_1 2.455080 1_665
Cr0_7 V0_7 2.455081 1_555
Cr0_7 Mo0_6 2.583102 1_556
Cr0_7 Mo0_0 2.583105 1_666
Mo0_0 Mo0_4 2.649463 1_555
Mo0_0 Mo0_2 2.649463 1_545
Mo0_0 Mo0_2 2.649463 1_555
Mo0_0 Mo0_4 2.649463 1_455
Mo0_0 V0_6 2.675461 1_555
Mo0_0 V0_0 2.675466 1_555
Mo0_1 Mo0_5 2.649463 1_455
Mo0_1 Mo0_3 2.649463 1_545
Mo0_1 Mo0_3 2.649463 1_555
Mo0_1 Mo0_5 2.649463 1_555
Mo0_1 V0_7 2.675461 1_555
Mo0_1 V0_1 2.675466 1_555
Mo0_2 Mo0_6 2.649463 1_555
Mo0_2 Mo0_6 2.649463 1_455
Mo0_2 V0_4 2.675461 1_565
Mo0_2 V0_2 2.675466 1_555
Mo0_3 Mo0_7 2.649463 1_555
Mo0_3 Mo0_7 2.649463 1_455
Mo0_3 V0_5 2.675461 1_565
Mo0_3 V0_3 2.675466 1_555
Mo0_4 Mo0_6 2.649463 1_555
Mo0_4 Mo0_6 2.649463 1_545
Mo0_4 V0_2 2.675461 1_655
Mo0_4 V0_4 2.675466 1_555
Mo0_5 Mo0_7 2.649463 1_545
Mo0_5 Mo0_7 2.649463 1_555
Mo0_5 V0_3 2.675461 1_655
Mo0_5 V0_5 2.675466 1_555
Mo0_6 V0_0 2.675461 1_665
Mo0_6 V0_6 2.675466 1_555
Mo0_7 V0_1 2.675461 1_665
Mo0_7 V0_7 2.675466 1_555
