# generated using pymatgen
data_Ho6Al43Mo4
_symmetry_space_group_name_H-M   'P 1'
_cell_length_a   11.04934708
_cell_length_b   11.04934708
_cell_length_c   17.60188200
_cell_angle_alpha   90.00000000
_cell_angle_beta   90.00000000
_cell_angle_gamma   119.99999449
_symmetry_Int_Tables_number   1
_chemical_formula_structural   Ho6Al43Mo4
_chemical_formula_sum   'Ho12 Al86 Mo8'
_cell_volume   1861.07121729
_cell_formula_units_Z   2
loop_
 _symmetry_equiv_pos_site_id
 _symmetry_equiv_pos_as_xyz
  1  'x, y, z'
loop_
 _atom_site_type_symbol
 _atom_site_label
 _atom_site_symmetry_multiplicity
 _atom_site_fract_x
 _atom_site_fract_y
 _atom_site_fract_z
 _atom_site_occupancy
  Ho  Ho0  1  0.53088400  0.00000000  0.59532000  1
  Ho  Ho1  1  0.46911600  0.00000000  0.40468000  1
  Ho  Ho2  1  0.00000000  0.53088400  0.59532000  1
  Ho  Ho3  1  0.46911600  0.00000000  0.09532000  1
  Ho  Ho4  1  0.00000000  0.53088400  0.90468000  1
  Ho  Ho5  1  0.00000000  0.46911600  0.40468000  1
  Ho  Ho6  1  0.53088400  0.00000000  0.90468000  1
  Ho  Ho7  1  0.00000000  0.46911600  0.09532000  1
  Ho  Ho8  1  0.46911600  0.46911600  0.59532000  1
  Ho  Ho9  1  0.53088400  0.53088400  0.40468000  1
  Ho  Ho10  1  0.53088400  0.53088400  0.09532000  1
  Ho  Ho11  1  0.46911600  0.46911600  0.90468000  1
  Al  Al0  1  0.14718900  0.59586200  0.75000000  1
  Al  Al1  1  0.85281100  0.40413800  0.25000000  1
  Al  Al2  1  0.40413800  0.55132700  0.75000000  1
  Al  Al3  1  0.59586200  0.14718900  0.75000000  1
  Al  Al4  1  0.59586200  0.44867300  0.25000000  1
  Al  Al5  1  0.40413800  0.85281100  0.25000000  1
  Al  Al6  1  0.44867300  0.85281100  0.75000000  1
  Al  Al7  1  0.55132700  0.40413800  0.75000000  1
  Al  Al8  1  0.55132700  0.14718900  0.25000000  1
  Al  Al9  1  0.44867300  0.59586200  0.25000000  1
  Al  Al10  1  0.85281100  0.44867300  0.75000000  1
  Al  Al11  1  0.14718900  0.55132700  0.25000000  1
  Al  Al12  1  0.15898800  0.00000000  0.11473700  1
  Al  Al13  1  0.84101200  0.00000000  0.88526300  1
  Al  Al14  1  0.00000000  0.15898800  0.11473700  1
  Al  Al15  1  0.84101200  0.00000000  0.61473700  1
  Al  Al16  1  0.00000000  0.15898800  0.38526300  1
  Al  Al17  1  0.00000000  0.84101200  0.88526300  1
  Al  Al18  1  0.15898800  0.00000000  0.38526300  1
  Al  Al19  1  0.00000000  0.84101200  0.61473700  1
  Al  Al20  1  0.84101200  0.84101200  0.11473700  1
  Al  Al21  1  0.15898800  0.15898800  0.88526300  1
  Al  Al22  1  0.15898800  0.15898800  0.61473700  1
  Al  Al23  1  0.84101200  0.84101200  0.38526300  1
  Al  Al24  1  0.24712000  0.49423900  0.50000000  1
  Al  Al25  1  0.75288000  0.50576100  0.50000000  1
  Al  Al26  1  0.50576100  0.75288000  0.50000000  1
  Al  Al27  1  0.75288000  0.50576100  0.00000000  1
  Al  Al28  1  0.49423900  0.24712000  0.00000000  1
  Al  Al29  1  0.49423900  0.24712000  0.50000000  1
  Al  Al30  1  0.24712000  0.49423900  0.00000000  1
  Al  Al31  1  0.50576100  0.75288000  0.00000000  1
  Al  Al32  1  0.24712000  0.75288000  0.50000000  1
  Al  Al33  1  0.75288000  0.24712000  0.50000000  1
  Al  Al34  1  0.75288000  0.24712000  0.00000000  1
  Al  Al35  1  0.24712000  0.75288000  0.00000000  1
  Al  Al36  1  0.14711000  0.00000000  0.75000000  1
  Al  Al37  1  0.85289000  0.00000000  0.25000000  1
  Al  Al38  1  0.00000000  0.14711000  0.75000000  1
  Al  Al39  1  0.00000000  0.85289000  0.25000000  1
  Al  Al40  1  0.85289000  0.85289000  0.75000000  1
  Al  Al41  1  0.14711000  0.14711000  0.25000000  1
  Al  Al42  1  0.33333300  0.66666700  0.62626200  1
  Al  Al43  1  0.66666700  0.33333300  0.37373800  1
  Al  Al44  1  0.66666700  0.33333300  0.12626200  1
  Al  Al45  1  0.66666700  0.33333300  0.87373800  1
  Al  Al46  1  0.33333300  0.66666700  0.87373800  1
  Al  Al47  1  0.33333300  0.66666700  0.12626200  1
  Al  Al48  1  0.33333300  0.66666700  0.37373800  1
  Al  Al49  1  0.66666700  0.33333300  0.62626200  1
  Al  Al50  1  0.25423100  0.00000000  0.53050400  1
  Al  Al51  1  0.74576900  0.00000000  0.46949600  1
  Al  Al52  1  0.00000000  0.25423100  0.53050400  1
  Al  Al53  1  0.74576900  0.00000000  0.03050400  1
  Al  Al54  1  0.00000000  0.25423100  0.96949600  1
  Al  Al55  1  0.00000000  0.74576900  0.46949600  1
  Al  Al56  1  0.25423100  0.00000000  0.96949600  1
  Al  Al57  1  0.00000000  0.74576900  0.03050400  1
  Al  Al58  1  0.74576900  0.74576900  0.53050400  1
  Al  Al59  1  0.25423100  0.25423100  0.46949600  1
  Al  Al60  1  0.25423100  0.25423100  0.03050400  1
  Al  Al61  1  0.74576900  0.74576900  0.96949600  1
  Al  Al62  1  0.15825800  0.39458700  0.66361500  1
  Al  Al63  1  0.84174200  0.60541300  0.33638500  1
  Al  Al64  1  0.60541300  0.76367000  0.66361500  1
  Al  Al65  1  0.84174200  0.60541300  0.16361500  1
  Al  Al66  1  0.39458700  0.15825800  0.83638500  1
  Al  Al67  1  0.39458700  0.23633000  0.33638500  1
  Al  Al68  1  0.15825800  0.39458700  0.83638500  1
  Al  Al69  1  0.60541300  0.84174200  0.16361500  1
  Al  Al70  1  0.23633000  0.84174200  0.66361500  1
  Al  Al71  1  0.39458700  0.23633000  0.16361500  1
  Al  Al72  1  0.76367000  0.60541300  0.83638500  1
  Al  Al73  1  0.76367000  0.15825800  0.33638500  1
  Al  Al74  1  0.60541300  0.76367000  0.83638500  1
  Al  Al75  1  0.23633000  0.39458700  0.16361500  1
  Al  Al76  1  0.60541300  0.84174200  0.33638500  1
  Al  Al77  1  0.39458700  0.15825800  0.66361500  1
  Al  Al78  1  0.76367000  0.15825800  0.16361500  1
  Al  Al79  1  0.23633000  0.39458700  0.33638500  1
  Al  Al80  1  0.23633000  0.84174200  0.83638500  1
  Al  Al81  1  0.76367000  0.60541300  0.66361500  1
  Al  Al82  1  0.84174200  0.23633000  0.83638500  1
  Al  Al83  1  0.15825800  0.76367000  0.16361500  1
  Al  Al84  1  0.15825800  0.76367000  0.33638500  1
  Al  Al85  1  0.84174200  0.23633000  0.66361500  1
  Mo  Mo0  1  0.00000000  0.00000000  0.50000000  1
  Mo  Mo1  1  0.00000000  0.00000000  0.00000000  1
  Mo  Mo2  1  0.72916900  0.00000000  0.75000000  1
  Mo  Mo3  1  0.27083100  0.00000000  0.25000000  1
  Mo  Mo4  1  0.00000000  0.72916900  0.75000000  1
  Mo  Mo5  1  0.00000000  0.27083100  0.25000000  1
  Mo  Mo6  1  0.27083100  0.27083100  0.75000000  1
  Mo  Mo7  1  0.72916900  0.72916900  0.25000000  1
loop_
_geom_bond_atom_site_label_1
_geom_bond_atom_site_label_2
_geom_bond_distance
_geom_bond_site_symmetry_2
Ho0 Ho1 3.424326 1_555
Ho0 Mo2 3.494711 1_555
Ho1 Mo3 3.494711 1_555
Ho2 Ho5 3.424326 1_555
Ho2 Mo4 3.494711 1_555
Ho3 Ho6 3.424326 1_554
Ho3 Mo3 3.494711 1_555
Ho4 Ho7 3.424326 1_556
Ho4 Mo4 3.494711 1_555
Ho5 Mo5 3.494711 1_555
Ho6 Mo2 3.494711 1_555
Ho7 Mo5 3.494711 1_555
Ho8 Ho9 3.424326 1_555
Ho8 Mo6 3.494711 1_555
Ho9 Mo7 3.494711 1_555
Ho10 Ho11 3.424326 1_554
Ho10 Mo7 3.494711 1_555
Ho11 Mo6 3.494711 1_555
Al0 Mo4 2.685166 1_555
Al0 Al68 2.746813 1_555
Al0 Al62 2.746813 1_555
Al0 Al10 2.816908 1_455
Al0 Al46 2.824365 1_555
Al0 Al42 2.824365 1_555
Al0 Al80 2.826184 1_555
Al0 Al70 2.826184 1_555
Al0 Ho2 3.066868 1_555
Al0 Ho4 3.066868 1_555
Al1 Mo5 2.685166 1_655
Al1 Al63 2.746813 1_555
Al1 Al65 2.746813 1_555
Al1 Al11 2.816908 1_655
Al1 Al43 2.824365 1_555
Al1 Al44 2.824365 1_555
Al1 Al73 2.826184 1_555
Al1 Al78 2.826184 1_555
Al1 Ho7 3.066868 1_655
Al1 Ho5 3.066868 1_655
Al2 Mo6 2.685166 1_555
Al2 Al74 2.746809 1_555
Al2 Al64 2.746809 1_555
Al2 Al7 2.816907 1_555
Al2 Al46 2.824372 1_555
Al2 Al42 2.824372 1_555
Al2 Al68 2.826185 1_555
Al2 Al62 2.826185 1_555
Al2 Ho8 3.066868 1_555
Al2 Ho11 3.066868 1_555
Al3 Mo2 2.685166 1_555
Al3 Al66 2.746813 1_555
Al3 Al77 2.746813 1_555
Al3 Al6 2.816908 1_545
Al3 Al45 2.824365 1_555
Al3 Al49 2.824365 1_555
Al3 Al82 2.826184 1_555
Al3 Al85 2.826184 1_555
Al3 Ho0 3.066868 1_555
Al3 Ho6 3.066868 1_555
Al4 Mo7 2.685166 1_555
Al4 Al67 2.746809 1_555
Al4 Al71 2.746809 1_555
Al4 Al9 2.816907 1_555
Al4 Al43 2.824372 1_555
Al4 Al44 2.824372 1_555
Al4 Al63 2.826185 1_555
Al4 Al65 2.826185 1_555
Al4 Ho10 3.066868 1_555
Al4 Ho9 3.066868 1_555
Al5 Mo3 2.685166 1_565
Al5 Al76 2.746813 1_555
Al5 Al69 2.746813 1_555
Al5 Al8 2.816908 1_565
Al5 Al84 2.826184 1_555
Al5 Al83 2.826184 1_555
Al5 Ho3 3.066868 1_565
Al5 Ho1 3.066868 1_565
Al6 Mo2 2.685166 1_565
Al6 Al80 2.746804 1_555
Al6 Al70 2.746804 1_555
Al6 Al74 2.826192 1_555
Al6 Al64 2.826192 1_555
Al6 Ho0 3.066868 1_565
Al6 Ho6 3.066868 1_565
Al7 Mo6 2.685166 1_555
Al7 Al72 2.746809 1_555
Al7 Al81 2.746809 1_555
Al7 Al77 2.826185 1_555
Al7 Ho8 3.066868 1_555
Al7 Ho11 3.066868 1_555
Al8 Mo3 2.685166 1_555
Al8 Ho3 3.066868 1_555
Al8 Ho1 3.066868 1_555
Al9 Mo7 2.685166 1_555
Al9 Ho10 3.066868 1_555
Al9 Ho9 3.066868 1_555
Al10 Mo4 2.685166 1_655
Al10 Al82 2.746804 1_555
Al10 Al85 2.746804 1_555
Al10 Al45 2.824366 1_555
Al10 Al49 2.824366 1_555
Al10 Al72 2.826192 1_555
Al10 Al81 2.826192 1_555
Al10 Ho2 3.066868 1_655
Al10 Ho4 3.066868 1_655
Al11 Mo5 2.685166 1_555
Al11 Al84 2.746804 1_555
Al11 Al83 2.746804 1_555
Al11 Al48 2.824366 1_555
Al11 Al47 2.824366 1_555
Al11 Al79 2.826192 1_555
Al11 Al75 2.826192 1_555
Al11 Ho7 3.066868 1_555
Al11 Ho5 3.066868 1_555
Al12 Mo1 2.676710 1_555
Al12 Mo3 2.682497 1_555
Al12 Al71 2.745545 1_555
Al12 Al83 2.745550 1_545
Al12 Al56 2.764644 1_554
Al12 Al60 2.870632 1_555
Al12 Al57 2.870632 1_545
Al12 Al41 2.922553 1_555
Al12 Al39 2.922553 1_545
Al12 Al14 3.042717 1_555
Al12 Al20 3.042717 1_445
Al12 Ho3 3.443714 1_555
Al13 Mo1 2.676710 1_656
Al13 Mo2 2.682497 1_555
Al13 Al74 2.745545 1_545
Al13 Al82 2.745550 1_555
Al13 Al53 2.764644 1_556
Al13 Al61 2.870632 1_545
Al13 Al54 2.870632 1_655
Al13 Al40 2.922553 1_545
Al13 Al38 2.922553 1_655
Al13 Al17 3.042717 1_645
Al13 Al21 3.042717 1_655
Al13 Ho6 3.443714 1_555
Al14 Mo1 2.676710 1_555
Al14 Mo5 2.682497 1_555
Al14 Al75 2.745545 1_555
Al14 Al78 2.745550 1_455
Al14 Al54 2.764644 1_554
Al14 Al60 2.870632 1_555
Al14 Al53 2.870632 1_455
Al14 Al41 2.922553 1_555
Al14 Al37 2.922553 1_455
Al14 Al20 3.042717 1_445
Al14 Ho7 3.443714 1_555
Al15 Mo0 2.676710 1_655
Al15 Mo2 2.682497 1_555
Al15 Al64 2.745545 1_545
Al15 Al85 2.745550 1_555
Al15 Al51 2.764644 1_555
Al15 Al58 2.870632 1_545
Al15 Al52 2.870632 1_655
Al15 Al40 2.922553 1_545
Al15 Al38 2.922553 1_655
Al15 Al19 3.042717 1_645
Al15 Al22 3.042717 1_655
Al15 Ho0 3.443714 1_555
Al16 Mo0 2.676710 1_555
Al16 Mo5 2.682497 1_555
Al16 Al79 2.745545 1_555
Al16 Al73 2.745550 1_455
Al16 Al52 2.764644 1_555
Al16 Al59 2.870632 1_555
Al16 Al51 2.870632 1_455
Al16 Al41 2.922553 1_555
Al16 Al37 2.922553 1_455
Al16 Al18 3.042717 1_555
Al16 Al23 3.042717 1_445
Al16 Ho5 3.443714 1_555
Al17 Mo1 2.676710 1_566
Al17 Mo4 2.682497 1_555
Al17 Al72 2.745545 1_455
Al17 Al80 2.745550 1_555
Al17 Al57 2.764644 1_556
Al17 Al61 2.870632 1_455
Al17 Al56 2.870632 1_565
Al17 Al40 2.922553 1_455
Al17 Al36 2.922553 1_565
Al17 Al21 3.042717 1_565
Al17 Ho4 3.443714 1_555
Al18 Mo0 2.676710 1_555
Al18 Mo3 2.682497 1_555
Al18 Al67 2.745545 1_555
Al18 Al84 2.745550 1_545
Al18 Al50 2.764644 1_555
Al18 Al59 2.870632 1_555
Al18 Al55 2.870632 1_545
Al18 Al41 2.922553 1_555
Al18 Al39 2.922553 1_545
Al18 Al23 3.042717 1_445
Al18 Ho1 3.443714 1_555
Al19 Mo0 2.676710 1_565
Al19 Mo4 2.682497 1_555
Al19 Al81 2.745545 1_455
Al19 Al70 2.745550 1_555
Al19 Al55 2.764644 1_555
Al19 Al58 2.870632 1_455
Al19 Al50 2.870632 1_565
Al19 Al40 2.922553 1_455
Al19 Al36 2.922553 1_565
Al19 Al22 3.042717 1_565
Al19 Ho2 3.443714 1_555
Al20 Mo1 2.676710 1_665
Al20 Mo7 2.682497 1_555
Al20 Al65 2.745539 1_555
Al20 Al69 2.745539 1_555
Al20 Al61 2.764644 1_554
Al20 Al53 2.870632 1_565
Al20 Al57 2.870632 1_655
Al20 Al39 2.922553 1_655
Al20 Al37 2.922553 1_565
Al20 Ho10 3.443714 1_555
Al21 Mo1 2.676710 1_556
Al21 Mo6 2.682497 1_555
Al21 Al66 2.745539 1_555
Al21 Al68 2.745539 1_555
Al21 Al60 2.764644 1_556
Al21 Al54 2.870632 1_555
Al21 Al56 2.870632 1_555
Al21 Al36 2.922553 1_555
Al21 Al38 2.922553 1_555
Al21 Ho11 3.443714 1_555
Al22 Mo0 2.676710 1_555
Al22 Mo6 2.682497 1_555
Al22 Al77 2.745539 1_555
Al22 Al62 2.745539 1_555
Al22 Al59 2.764644 1_555
Al22 Al52 2.870632 1_555
Al22 Al50 2.870632 1_555
Al22 Al36 2.922553 1_555
Al22 Al38 2.922553 1_555
Al22 Ho8 3.443714 1_555
Al23 Mo0 2.676710 1_665
Al23 Mo7 2.682497 1_555
Al23 Al63 2.745539 1_555
Al23 Al76 2.745539 1_555
Al23 Al58 2.764644 1_555
Al23 Al51 2.870632 1_565
Al23 Al55 2.870632 1_655
Al23 Al39 2.922553 1_655
Al23 Al37 2.922553 1_565
Al23 Ho9 3.443714 1_555
Al24 Al59 2.745100 1_555
Al24 Al52 2.745106 1_555
Al24 Al42 2.767972 1_555
Al24 Al48 2.767972 1_555
Al24 Al32 2.857814 1_555
Al24 Al26 2.857814 1_555
Al24 Al79 3.064204 1_555
Al24 Al62 3.064204 1_555
Al24 Ho8 3.096739 1_555
Al24 Ho5 3.096748 1_555
Al24 Ho9 3.397093 1_555
Al24 Ho2 3.397102 1_555
Al25 Al58 2.745100 1_555
Al25 Al55 2.745106 1_655
Al25 Al49 2.767972 1_555
Al25 Al43 2.767972 1_555
Al25 Al33 2.857814 1_555
Al25 Al29 2.857814 1_555
Al25 Al81 3.064204 1_555
Al25 Al63 3.064204 1_555
Al25 Ho9 3.096739 1_555
Al25 Ho2 3.096748 1_655
Al25 Ho8 3.397093 1_555
Al25 Ho5 3.397102 1_655
Al26 Al58 2.745100 1_555
Al26 Al51 2.745106 1_565
Al26 Al42 2.767972 1_555
Al26 Al48 2.767972 1_555
Al26 Al32 2.857814 1_555
Al26 Al64 3.064204 1_555
Al26 Al76 3.064204 1_555
Al26 Ho9 3.096739 1_555
Al26 Ho0 3.096748 1_565
Al26 Ho8 3.397093 1_555
Al26 Ho1 3.397102 1_565
Al27 Al61 2.745100 1_554
Al27 Al57 2.745106 1_655
Al27 Al44 2.767972 1_555
Al27 Al45 2.767972 1_554
Al27 Al34 2.857814 1_555
Al27 Al28 2.857814 1_555
Al27 Al72 3.064204 1_554
Al27 Al65 3.064204 1_555
Al27 Ho10 3.096739 1_555
Al27 Ho4 3.096748 1_654
Al27 Ho11 3.397093 1_554
Al27 Ho7 3.397102 1_655
Al28 Al60 2.745100 1_555
Al28 Al56 2.745106 1_554
Al28 Al44 2.767972 1_555
Al28 Al45 2.767972 1_554
Al28 Al34 2.857814 1_555
Al28 Al71 3.064204 1_555
Al28 Al66 3.064204 1_554
Al28 Ho11 3.096739 1_554
Al28 Ho3 3.096748 1_555
Al28 Ho10 3.397093 1_555
Al28 Ho6 3.397102 1_554
Al29 Al59 2.745100 1_555
Al29 Al50 2.745106 1_555
Al29 Al49 2.767972 1_555
Al29 Al43 2.767972 1_555
Al29 Al33 2.857814 1_555
Al29 Al67 3.064204 1_555
Al29 Al77 3.064204 1_555
Al29 Ho8 3.096739 1_555
Al29 Ho1 3.096748 1_555
Al29 Ho9 3.397093 1_555
Al29 Ho0 3.397102 1_555
Al30 Al60 2.745100 1_555
Al30 Al54 2.745106 1_554
Al30 Al47 2.767972 1_555
Al30 Al46 2.767972 1_554
Al30 Al35 2.857814 1_555
Al30 Al31 2.857814 1_555
Al30 Al75 3.064204 1_555
Al30 Al68 3.064204 1_554
Al30 Ho11 3.096739 1_554
Al30 Ho7 3.096748 1_555
Al30 Ho10 3.397093 1_555
Al30 Ho4 3.397102 1_554
Al31 Al61 2.745100 1_554
Al31 Al53 2.745106 1_565
Al31 Al47 2.767972 1_555
Al31 Al46 2.767972 1_554
Al31 Al35 2.857814 1_555
Al31 Al74 3.064204 1_554
Al31 Al69 3.064204 1_555
Al31 Ho10 3.096739 1_555
Al31 Ho6 3.096748 1_564
Al31 Ho11 3.397093 1_554
Al31 Ho3 3.397102 1_565
Al32 Al50 2.745111 1_565
Al32 Al55 2.745111 1_555
Al32 Al42 2.767960 1_555
Al32 Al48 2.767960 1_555
Al32 Al70 3.064204 1_555
Al32 Al84 3.064204 1_555
Al32 Ho1 3.096744 1_565
Al32 Ho2 3.096744 1_555
Al32 Ho5 3.397097 1_555
Al32 Ho0 3.397097 1_565
Al33 Al52 2.745111 1_655
Al33 Al51 2.745111 1_555
Al33 Al49 2.767960 1_555
Al33 Al43 2.767960 1_555
Al33 Al85 3.064204 1_555
Al33 Al73 3.064204 1_555
Al33 Ho5 3.096744 1_655
Al33 Ho0 3.096744 1_555
Al33 Ho2 3.397097 1_655
Al33 Ho1 3.397097 1_555
Al34 Al53 2.745111 1_555
Al34 Al54 2.745111 1_654
Al34 Al44 2.767960 1_555
Al34 Al45 2.767960 1_554
Al34 Al78 3.064204 1_555
Al34 Al82 3.064204 1_554
Al34 Ho7 3.096744 1_655
Al34 Ho6 3.096744 1_554
Al34 Ho4 3.397097 1_654
Al34 Ho3 3.397097 1_555
Al35 Al57 2.745111 1_555
Al35 Al56 2.745111 1_564
Al35 Al47 2.767960 1_555
Al35 Al46 2.767960 1_554
Al35 Al83 3.064204 1_555
Al35 Al80 3.064204 1_554
Al35 Ho3 3.096744 1_565
Al35 Ho4 3.096744 1_554
Al35 Ho6 3.397097 1_564
Al35 Ho7 3.397097 1_555
Al36 Mo6 2.594805 1_555
Al36 Mo4 2.594806 1_545
Al36 Al38 2.815396 1_555
Al36 Al40 2.815396 1_445
Al36 Al66 2.839977 1_555
Al36 Al77 2.839977 1_555
Al36 Al80 2.839984 1_545
Al36 Al70 2.839984 1_545
Al37 Mo7 2.594805 1_545
Al37 Mo5 2.594806 1_655
Al37 Al39 2.815396 1_645
Al37 Al41 2.815396 1_655
Al37 Al76 2.839977 1_545
Al37 Al69 2.839977 1_545
Al37 Al73 2.839984 1_555
Al37 Al78 2.839984 1_555
Al38 Mo6 2.594805 1_555
Al38 Mo2 2.594806 1_455
Al38 Al40 2.815396 1_445
Al38 Al68 2.839977 1_555
Al38 Al62 2.839977 1_555
Al38 Al82 2.839984 1_455
Al38 Al85 2.839984 1_455
Al39 Mo7 2.594805 1_455
Al39 Mo3 2.594806 1_565
Al39 Al41 2.815396 1_565
Al39 Al63 2.839977 1_455
Al39 Al65 2.839977 1_455
Al39 Al84 2.839984 1_555
Al39 Al83 2.839984 1_555
Al40 Mo2 2.594805 1_565
Al40 Mo4 2.594805 1_655
Al40 Al72 2.839975 1_555
Al40 Al74 2.839975 1_555
Al40 Al64 2.839975 1_555
Al40 Al81 2.839975 1_555
Al41 Mo5 2.594805 1_555
Al41 Mo3 2.594805 1_555
Al41 Al79 2.839975 1_555
Al41 Al67 2.839975 1_555
Al41 Al75 2.839975 1_555
Al41 Al71 2.839975 1_555
Al42 Al70 2.719675 1_555
Al42 Al62 2.719692 1_555
Al42 Al64 2.719695 1_555
Al42 Al6 2.824366 1_555
Al42 Ho2 3.253777 1_555
Al42 Ho0 3.253778 1_565
Al42 Ho8 3.253786 1_555
Al43 Al73 2.719675 1_555
Al43 Al63 2.719692 1_555
Al43 Al67 2.719695 1_555
Al43 Al8 2.824366 1_555
Al43 Ho5 3.253777 1_655
Al43 Ho1 3.253778 1_555
Al43 Ho9 3.253786 1_555
Al44 Al78 2.719675 1_555
Al44 Al65 2.719692 1_555
Al44 Al71 2.719695 1_555
Al44 Al8 2.824366 1_555
Al44 Ho7 3.253777 1_655
Al44 Ho3 3.253778 1_555
Al44 Ho10 3.253786 1_555
Al45 Al82 2.719675 1_555
Al45 Al66 2.719692 1_555
Al45 Al72 2.719695 1_555
Al45 Al7 2.824372 1_555
Al45 Ho6 3.253777 1_555
Al45 Ho4 3.253778 1_655
Al45 Ho11 3.253786 1_555
Al46 Al80 2.719675 1_555
Al46 Al68 2.719692 1_555
Al46 Al74 2.719695 1_555
Al46 Al6 2.824366 1_555
Al46 Ho4 3.253777 1_555
Al46 Ho6 3.253778 1_565
Al46 Ho11 3.253786 1_555
Al47 Al83 2.719675 1_555
Al47 Al69 2.719692 1_555
Al47 Al75 2.719695 1_555
Al47 Al5 2.824365 1_555
Al47 Al9 2.824372 1_555
Al47 Ho3 3.253777 1_565
Al47 Ho7 3.253778 1_555
Al47 Ho10 3.253786 1_555
Al48 Al84 2.719675 1_555
Al48 Al76 2.719692 1_555
Al48 Al79 2.719695 1_555
Al48 Al5 2.824365 1_555
Al48 Al9 2.824372 1_555
Al48 Ho1 3.253777 1_565
Al48 Ho5 3.253778 1_555
Al48 Ho9 3.253786 1_555
Al49 Al85 2.719675 1_555
Al49 Al77 2.719692 1_555
Al49 Al81 2.719695 1_555
Al49 Al7 2.824372 1_555
Al49 Ho0 3.253777 1_555
Al49 Ho2 3.253778 1_655
Al49 Ho8 3.253786 1_555
Al50 Mo0 2.859940 1_555
Al50 Al77 2.870657 1_555
Al50 Al70 2.870660 1_545
Al50 Al59 3.007347 1_555
Al50 Al55 3.007347 1_545
Al50 Ho1 3.246930 1_555
Al50 Ho0 3.262799 1_555
Al51 Mo0 2.859940 1_655
Al51 Al76 2.870657 1_545
Al51 Al73 2.870660 1_555
Al51 Al58 3.007347 1_545
Al51 Al52 3.007347 1_655
Al51 Ho0 3.246930 1_555
Al51 Ho1 3.262799 1_555
Al52 Mo0 2.859940 1_555
Al52 Al62 2.870657 1_555
Al52 Al85 2.870660 1_455
Al52 Al59 3.007347 1_555
Al52 Ho5 3.246930 1_555
Al52 Ho2 3.262799 1_555
Al53 Mo1 2.859940 1_655
Al53 Al69 2.870657 1_545
Al53 Al78 2.870660 1_555
Al53 Al61 3.007347 1_544
Al53 Al54 3.007347 1_654
Al53 Ho6 3.246930 1_554
Al53 Ho3 3.262799 1_555
Al54 Mo1 2.859940 1_556
Al54 Al68 2.870657 1_555
Al54 Al82 2.870660 1_455
Al54 Al60 3.007347 1_556
Al54 Ho7 3.246930 1_556
Al54 Ho4 3.262799 1_555
Al55 Mo0 2.859940 1_565
Al55 Al63 2.870657 1_455
Al55 Al84 2.870660 1_555
Al55 Al58 3.007347 1_455
Al55 Ho2 3.246930 1_555
Al55 Ho5 3.262799 1_555
Al56 Mo1 2.859940 1_556
Al56 Al66 2.870657 1_555
Al56 Al80 2.870660 1_545
Al56 Al60 3.007347 1_556
Al56 Al57 3.007347 1_546
Al56 Ho3 3.246930 1_556
Al56 Ho6 3.262799 1_555
Al57 Mo1 2.859940 1_565
Al57 Al65 2.870657 1_455
Al57 Al83 2.870660 1_555
Al57 Al61 3.007347 1_454
Al57 Ho4 3.246930 1_554
Al57 Ho7 3.262799 1_555
Al58 Mo0 2.859941 1_665
Al58 Al81 2.870653 1_555
Al58 Al64 2.870653 1_555
Al58 Ho9 3.246930 1_555
Al58 Ho8 3.262799 1_555
Al59 Mo0 2.859941 1_555
Al59 Al79 2.870653 1_555
Al59 Al67 2.870653 1_555
Al59 Ho8 3.246930 1_555
Al59 Ho9 3.262799 1_555
Al60 Mo1 2.859941 1_555
Al60 Al71 2.870653 1_555
Al60 Al75 2.870653 1_555
Al60 Ho11 3.246930 1_554
Al60 Ho10 3.262799 1_555
Al61 Mo1 2.859941 1_666
Al61 Al72 2.870653 1_555
Al61 Al74 2.870653 1_555
Al61 Ho10 3.246930 1_556
Al61 Ho11 3.262799 1_555
Al62 Mo6 2.725793 1_555
Al62 Al85 3.028747 1_455
Al62 Al68 3.041077 1_555
Al62 Ho2 3.066648 1_555
Al62 Ho8 3.330527 1_555
Al63 Mo7 2.725793 1_555
Al63 Al84 3.028747 1_655
Al63 Al65 3.041077 1_555
Al63 Ho5 3.066648 1_655
Al63 Ho9 3.330527 1_555
Al64 Mo2 2.725801 1_565
Al64 Al81 3.028727 1_555
Al64 Al74 3.041077 1_555
Al64 Ho8 3.066639 1_555
Al64 Ho0 3.330537 1_565
Al65 Mo7 2.725793 1_555
Al65 Al83 3.028747 1_655
Al65 Ho7 3.066648 1_655
Al65 Ho10 3.330527 1_555
Al66 Mo6 2.725793 1_555
Al66 Al7 2.826185 1_555
Al66 Al80 3.028747 1_545
Al66 Al77 3.041077 1_555
Al66 Ho6 3.066648 1_555
Al66 Ho11 3.330527 1_555
Al67 Mo3 2.725801 1_555
Al67 Al8 2.826192 1_555
Al67 Al79 3.028727 1_555
Al67 Al71 3.041077 1_555
Al67 Ho9 3.066639 1_555
Al67 Ho1 3.330537 1_555
Al68 Mo6 2.725793 1_555
Al68 Al82 3.028747 1_455
Al68 Ho4 3.066648 1_555
Al68 Ho11 3.330527 1_555
Al69 Mo7 2.725793 1_555
Al69 Al9 2.826185 1_555
Al69 Al78 3.028747 1_565
Al69 Al76 3.041077 1_555
Al69 Ho3 3.066648 1_565
Al69 Ho10 3.330527 1_555
Al70 Mo4 2.725801 1_555
Al70 Al77 3.028747 1_565
Al70 Al80 3.041077 1_555
Al70 Ho0 3.066639 1_565
Al70 Ho2 3.330530 1_555
Al71 Mo3 2.725801 1_555
Al71 Al8 2.826192 1_555
Al71 Al75 3.028727 1_555
Al71 Ho10 3.066639 1_555
Al71 Ho3 3.330537 1_555
Al72 Mo4 2.725801 1_655
Al72 Al74 3.028727 1_555
Al72 Al81 3.041077 1_555
Al72 Ho11 3.066639 1_555
Al72 Ho4 3.330537 1_655
Al73 Mo5 2.725801 1_655
Al73 Al8 2.746804 1_555
Al73 Al76 3.028747 1_545
Al73 Al78 3.041077 1_555
Al73 Ho1 3.066639 1_555
Al73 Ho5 3.330530 1_655
Al74 Mo2 2.725801 1_565
Al74 Ho11 3.066639 1_555
Al74 Ho6 3.330537 1_565
Al75 Mo5 2.725801 1_555
Al75 Al9 2.746809 1_555
Al75 Al79 3.041077 1_555
Al75 Ho10 3.066639 1_555
Al75 Ho7 3.330537 1_555
Al76 Mo7 2.725793 1_555
Al76 Al9 2.826185 1_555
Al76 Ho1 3.066648 1_565
Al76 Ho9 3.330527 1_555
Al77 Mo6 2.725793 1_555
Al77 Ho0 3.066648 1_555
Al77 Ho8 3.330527 1_555
Al78 Mo5 2.725801 1_655
Al78 Al8 2.746804 1_555
Al78 Ho3 3.066639 1_555
Al78 Ho7 3.330530 1_655
Al79 Mo5 2.725801 1_555
Al79 Al9 2.746809 1_555
Al79 Ho9 3.066639 1_555
Al79 Ho5 3.330537 1_555
Al80 Mo4 2.725801 1_555
Al80 Ho6 3.066639 1_565
Al80 Ho4 3.330530 1_555
Al81 Mo4 2.725801 1_655
Al81 Ho8 3.066639 1_555
Al81 Ho2 3.330537 1_655
Al82 Mo2 2.725801 1_555
Al82 Al85 3.041077 1_555
Al82 Ho4 3.066639 1_655
Al82 Ho6 3.330530 1_555
Al83 Mo3 2.725801 1_565
Al83 Al84 3.041077 1_555
Al83 Ho7 3.066639 1_555
Al83 Ho3 3.330530 1_565
Al84 Mo3 2.725801 1_565
Al84 Ho5 3.066639 1_555
Al84 Ho1 3.330530 1_565
Al85 Mo2 2.725801 1_555
Al85 Ho2 3.066639 1_655
Al85 Ho0 3.330530 1_555
