# generated using pymatgen
data_K3Fe6F19
_symmetry_space_group_name_H-M   'P 1'
_cell_length_a   7.88222548
_cell_length_b   10.09808865
_cell_length_c   22.66325618
_cell_angle_alpha   90.00000000
_cell_angle_beta   90.00000000
_cell_angle_gamma   112.97211215
_symmetry_Int_Tables_number   1
_chemical_formula_structural   K3Fe6F19
_chemical_formula_sum   'K12 Fe24 F76'
_cell_volume   1660.83348098
_cell_formula_units_Z   4
loop_
 _symmetry_equiv_pos_site_id
 _symmetry_equiv_pos_as_xyz
  1  'x, y, z'
loop_
 _atom_site_type_symbol
 _atom_site_label
 _atom_site_symmetry_multiplicity
 _atom_site_fract_x
 _atom_site_fract_y
 _atom_site_fract_z
 _atom_site_occupancy
  K  K0  1  0.36765807  0.73531615  0.75000000  1
  K  K1  1  0.63234193  0.26468385  0.25000000  1
  K  K2  1  0.85992521  0.71985043  0.75000000  1
  K  K3  1  0.14007479  0.28014957  0.25000000  1
  K  K4  1  0.09833897  0.19667794  0.95013314  1
  K  K5  1  0.90166103  0.80332206  0.04986686  1
  K  K6  1  0.09833897  0.19667794  0.54986686  1
  K  K7  1  0.90166103  0.80332206  0.45013314  1
  K  K8  1  0.58405165  0.16810329  0.93572583  1
  K  K9  1  0.41594835  0.83189671  0.06427417  1
  K  K10  1  0.58405165  0.16810329  0.56427417  1
  K  K11  1  0.41594835  0.83189671  0.43572583  1
  Fe  Fe0  1  -0.00000000  0.50000000  -0.00000000  1
  Fe  Fe1  1  0.50000000  0.50000000  -0.00000000  1
  Fe  Fe2  1  -0.00000000  0.50000000  0.50000000  1
  Fe  Fe3  1  0.50000000  0.50000000  0.50000000  1
  Fe  Fe4  1  0.28673401  0.07248675  0.75000000  1
  Fe  Fe5  1  0.21424727  0.92751325  0.25000000  1
  Fe  Fe6  1  0.71326599  0.92751325  0.25000000  1
  Fe  Fe7  1  0.78575273  0.07248675  0.75000000  1
  Fe  Fe8  1  0.96194077  0.42364901  0.83449304  1
  Fe  Fe9  1  0.53829176  0.57635099  0.16550696  1
  Fe  Fe10  1  0.96194077  0.42364901  0.66550696  1
  Fe  Fe11  1  0.53829176  0.57635099  0.33449304  1
  Fe  Fe12  1  0.03805923  0.57635099  0.16550696  1
  Fe  Fe13  1  0.46170824  0.42364901  0.83449304  1
  Fe  Fe14  1  0.03805923  0.57635099  0.33449304  1
  Fe  Fe15  1  0.46170824  0.42364901  0.66550696  1
  Fe  Fe16  1  0.15918851  0.82062710  0.89148887  1
  Fe  Fe17  1  0.33856141  0.17937290  0.10851113  1
  Fe  Fe18  1  0.15918851  0.82062710  0.60851113  1
  Fe  Fe19  1  0.33856141  0.17937290  0.39148887  1
  Fe  Fe20  1  0.84081149  0.17937290  0.10851113  1
  Fe  Fe21  1  0.66143859  0.82062710  0.89148887  1
  Fe  Fe22  1  0.84081149  0.17937290  0.39148887  1
  Fe  Fe23  1  0.66143859  0.82062710  0.60851113  1
  F  F0  1  0.22701695  0.99759160  0.93145257  1
  F  F1  1  0.22942535  0.00240840  0.06854743  1
  F  F2  1  0.22701695  0.99759160  0.56854743  1
  F  F3  1  0.22942535  0.00240840  0.43145257  1
  F  F4  1  0.77298305  0.00240840  0.06854743  1
  F  F5  1  0.77057465  0.99759160  0.93145257  1
  F  F6  1  0.77298305  0.00240840  0.43145257  1
  F  F7  1  0.77057465  0.99759160  0.56854743  1
  F  F8  1  0.12663482  0.71604767  0.96538577  1
  F  F9  1  0.41058715  0.28395233  0.03461423  1
  F  F10  1  0.12663482  0.71604767  0.53461423  1
  F  F11  1  0.41058715  0.28395233  0.46538577  1
  F  F12  1  0.87336518  0.28395233  0.03461423  1
  F  F13  1  0.58941285  0.71604767  0.96538577  1
  F  F14  1  0.87336518  0.28395233  0.46538577  1
  F  F15  1  0.58941285  0.71604767  0.53461423  1
  F  F16  1  0.19857867  0.39715734  0.84460687  1
  F  F17  1  0.80142133  0.60284266  0.15539313  1
  F  F18  1  0.19857867  0.39715734  0.65539313  1
  F  F19  1  0.80142133  0.60284266  0.34460687  1
  F  F20  1  0.73021111  0.46042221  0.82388707  1
  F  F21  1  0.26978889  0.53957779  0.17611293  1
  F  F22  1  0.73021111  0.46042221  0.67611293  1
  F  F23  1  0.26978889  0.53957779  0.32388707  1
  F  F24  1  0.09618253  0.63395570  0.84592240  1
  F  F25  1  0.46222683  0.36604430  0.15407760  1
  F  F26  1  0.09618253  0.63395570  0.65407760  1
  F  F27  1  0.46222683  0.36604430  0.34592240  1
  F  F28  1  0.90381747  0.36604430  0.15407760  1
  F  F29  1  0.53777317  0.63395570  0.84592240  1
  F  F30  1  0.90381747  0.36604430  0.34592240  1
  F  F31  1  0.53777317  0.63395570  0.65407760  1
  F  F32  1  0.02246228  0.47513724  0.75000000  1
  F  F33  1  0.54732505  0.52486276  0.25000000  1
  F  F34  1  0.97753772  0.52486276  0.25000000  1
  F  F35  1  0.45267495  0.47513724  0.75000000  1
  F  F36  1  0.23626644  0.47253288  0.99315641  1
  F  F37  1  0.76373356  0.52746712  0.00684359  1
  F  F38  1  0.23626644  0.47253288  0.50684359  1
  F  F39  1  0.76373356  0.52746712  0.49315641  1
  F  F40  1  0.17945207  0.90104708  0.81235981  1
  F  F41  1  0.27840499  0.09895292  0.18764019  1
  F  F42  1  0.17945207  0.90104708  0.68764019  1
  F  F43  1  0.27840499  0.09895292  0.31235981  1
  F  F44  1  0.82054793  0.09895292  0.18764019  1
  F  F45  1  0.72159501  0.90104708  0.81235981  1
  F  F46  1  0.82054793  0.09895292  0.31235981  1
  F  F47  1  0.72159501  0.90104708  0.68764019  1
  F  F48  1  0.91414366  0.38662717  0.91778435  1
  F  F49  1  0.52751649  0.61337283  0.08221565  1
  F  F50  1  0.91414366  0.38662717  0.58221565  1
  F  F51  1  0.52751649  0.61337283  0.41778435  1
  F  F52  1  0.08585634  0.61337283  0.08221565  1
  F  F53  1  0.47248351  0.38662717  0.91778435  1
  F  F54  1  0.08585634  0.61337283  0.41778435  1
  F  F55  1  0.47248351  0.38662717  0.58221565  1
  F  F56  1  0.42379670  0.84759339  0.88684107  1
  F  F57  1  0.57620330  0.15240661  0.11315893  1
  F  F58  1  0.42379670  0.84759339  0.61315893  1
  F  F59  1  0.57620330  0.15240661  0.38684107  1
  F  F60  1  0.04812363  0.09624727  0.75000000  1
  F  F61  1  0.95187637  0.90375273  0.25000000  1
  F  F62  1  0.83239662  0.22389333  0.81783899  1
  F  F63  1  0.60850329  0.77610667  0.18216101  1
  F  F64  1  0.83239662  0.22389333  0.68216101  1
  F  F65  1  0.60850329  0.77610667  0.31783899  1
  F  F66  1  0.16760338  0.77610667  0.18216101  1
  F  F67  1  0.39149671  0.22389333  0.81783899  1
  F  F68  1  0.16760338  0.77610667  0.31783899  1
  F  F69  1  0.39149671  0.22389333  0.68216101  1
  F  F70  1  0.51528488  0.03056976  0.75000000  1
  F  F71  1  0.48471512  0.96943024  0.25000000  1
  F  F72  1  0.89234021  0.78468043  0.89047593  1
  F  F73  1  0.10765979  0.21531957  0.10952407  1
  F  F74  1  0.89234021  0.78468043  0.60952407  1
  F  F75  1  0.10765979  0.21531957  0.39047593  1
loop_
_geom_bond_atom_site_label_1
_geom_bond_atom_site_label_2
_geom_bond_distance
_geom_bond_site_symmetry_2
F0 Fe16 1.885145 1_555
F0 K4 2.615585 1_565
F0 K8 2.666767 1_565
F1 Fe17 1.885145 1_555
F1 K5 2.615585 1_445
F1 K9 2.666766 1_545
F2 Fe18 1.885145 1_555
F2 K6 2.615585 1_565
F2 K10 2.666767 1_565
F3 Fe19 1.885145 1_555
F3 K7 2.615585 1_445
F3 K11 2.666766 1_545
F4 Fe20 1.885145 1_555
F4 K5 2.615585 1_545
F4 K9 2.666767 1_545
F5 Fe21 1.885145 1_555
F5 K4 2.615585 1_665
F5 K8 2.666766 1_565
F6 Fe22 1.885145 1_555
F6 K7 2.615585 1_545
F6 K11 2.666767 1_545
F7 Fe23 1.885145 1_555
F7 K6 2.615585 1_665
F7 K10 2.666766 1_565
F8 Fe16 1.942766 1_555
F8 Fe0 2.161387 1_556
F8 K5 2.967643 1_456
F8 K9 3.083706 1_556
F9 Fe17 1.942766 1_555
F9 Fe1 2.161387 1_555
F9 K4 2.967643 1_554
F9 K8 3.083706 1_554
F10 Fe18 1.942766 1_555
F10 Fe2 2.161387 1_555
F10 K7 2.967643 1_455
F10 K11 3.083706 1_555
F11 Fe19 1.942766 1_555
F11 Fe3 2.161387 1_555
F11 K6 2.967643 1_555
F11 K10 3.083706 1_555
F12 Fe20 1.942766 1_555
F12 Fe0 2.161387 1_655
F12 K4 2.967643 1_654
F12 K8 3.083706 1_554
F13 Fe21 1.942766 1_555
F13 Fe1 2.161387 1_556
F13 K5 2.967643 1_556
F13 K9 3.083706 1_556
F14 Fe22 1.942766 1_555
F14 Fe2 2.161387 1_655
F14 K6 2.967643 1_655
F14 K10 3.083706 1_555
F15 Fe23 1.942766 1_555
F15 Fe3 2.161387 1_555
F15 K7 2.967643 1_555
F15 K11 3.083706 1_555
F16 Fe13 1.998170 1_555
F16 Fe8 1.998170 1_455
F16 K4 3.032121 1_555
F17 Fe12 1.998170 1_655
F17 Fe9 1.998170 1_555
F17 K5 3.032121 1_555
F18 Fe15 1.998170 1_555
F18 Fe10 1.998170 1_455
F18 K6 3.032121 1_555
F19 Fe14 1.998170 1_655
F19 Fe11 1.998170 1_555
F19 K7 3.032121 1_555
F20 Fe8 2.015284 1_555
F20 Fe13 2.015284 1_555
F20 K2 2.936261 1_555
F21 Fe12 2.015284 1_555
F21 Fe9 2.015284 1_555
F21 K3 2.936261 1_555
F22 Fe10 2.015284 1_555
F22 Fe15 2.015284 1_555
F22 K2 2.936261 1_555
F23 Fe14 2.015284 1_555
F23 Fe11 2.015284 1_555
F23 K3 2.936261 1_555
F24 Fe8 1.985640 1_455
F24 Fe16 2.033633 1_555
F24 K0 2.939867 1_555
F24 K2 3.194833 1_455
F25 Fe9 1.985640 1_555
F25 Fe17 2.033633 1_555
F25 K1 2.939867 1_555
F25 K3 3.194833 1_555
F26 Fe10 1.985640 1_455
F26 Fe18 2.033633 1_555
F26 K0 2.939867 1_555
F26 K2 3.194833 1_455
F27 Fe11 1.985640 1_555
F27 Fe19 2.033633 1_555
F27 K1 2.939867 1_555
F27 K3 3.194833 1_555
F28 Fe12 1.985640 1_655
F28 Fe20 2.033633 1_555
F28 K1 2.939867 1_555
F28 K3 3.194833 1_655
F29 Fe13 1.985640 1_555
F29 Fe21 2.033633 1_555
F29 K0 2.939867 1_555
F29 K2 3.194833 1_555
F30 Fe14 1.985640 1_655
F30 Fe22 2.033633 1_555
F30 K1 2.939867 1_555
F30 K3 3.194833 1_655
F31 Fe15 1.985640 1_555
F31 Fe23 2.033633 1_555
F31 K0 2.939867 1_555
F31 K2 3.194833 1_555
F32 Fe8 1.992760 1_455
F32 Fe10 1.992760 1_455
F32 K0 2.953997 1_555
F32 K2 3.196727 1_455
F33 Fe9 1.992760 1_555
F33 Fe11 1.992760 1_555
F33 K1 2.953997 1_555
F33 K3 3.196727 1_555
F34 Fe12 1.992760 1_655
F34 Fe14 1.992760 1_655
F34 K1 2.953997 1_555
F34 K3 3.196727 1_655
F35 Fe15 1.992760 1_555
F35 Fe13 1.992760 1_555
F35 K0 2.953997 1_555
F35 K2 3.196727 1_555
F36 Fe0 1.993078 1_556
F36 Fe1 1.993078 1_556
F36 K4 2.743789 1_555
F37 Fe0 1.993078 1_655
F37 Fe1 1.993078 1_555
F37 K5 2.743789 1_555
F38 Fe2 1.993078 1_555
F38 Fe3 1.993078 1_555
F38 K6 2.743789 1_555
F39 Fe2 1.993078 1_655
F39 Fe3 1.993078 1_555
F39 K7 2.743789 1_555
F40 Fe16 1.949296 1_555
F40 Fe4 2.137010 1_565
F40 K2 2.844545 1_455
F40 K0 2.989449 1_555
F41 Fe17 1.949296 1_555
F41 Fe5 2.137010 1_545
F41 K3 2.844545 1_555
F41 K1 2.989449 1_555
F42 Fe18 1.949296 1_555
F42 Fe4 2.137010 1_565
F42 K2 2.844545 1_455
F42 K0 2.989449 1_555
F43 Fe19 1.949296 1_555
F43 Fe5 2.137010 1_545
F43 K3 2.844545 1_555
F43 K1 2.989449 1_555
F44 Fe20 1.949296 1_555
F44 Fe6 2.137010 1_545
F44 K3 2.844545 1_655
F44 K1 2.989449 1_555
F45 Fe21 1.949296 1_555
F45 Fe7 2.137010 1_565
F45 K2 2.844545 1_555
F45 K0 2.989449 1_555
F46 Fe22 1.949296 1_555
F46 Fe6 2.137010 1_545
F46 K3 2.844545 1_655
F46 K1 2.989449 1_555
F47 Fe23 1.949296 1_555
F47 Fe7 2.137010 1_565
F47 K2 2.844545 1_555
F47 K0 2.989449 1_555
F48 Fe8 1.932613 1_555
F48 Fe0 2.153066 1_656
F48 K8 2.706073 1_555
F48 K4 2.915197 1_655
F49 Fe9 1.932613 1_555
F49 Fe1 2.153066 1_555
F49 K9 2.706073 1_555
F49 K5 2.915197 1_555
F50 Fe10 1.932613 1_555
F50 Fe2 2.153066 1_655
F50 K10 2.706073 1_555
F50 K6 2.915197 1_655
F51 Fe11 1.932613 1_555
F51 Fe3 2.153066 1_555
F51 K11 2.706073 1_555
F51 K7 2.915197 1_555
F52 Fe12 1.932613 1_555
F52 Fe0 2.153066 1_555
F52 K9 2.706073 1_555
F52 K5 2.915197 1_455
F53 Fe13 1.932613 1_555
F53 Fe1 2.153066 1_556
F53 K8 2.706073 1_555
F53 K4 2.915197 1_555
F54 Fe14 1.932613 1_555
F54 Fe2 2.153066 1_555
F54 K11 2.706073 1_555
F54 K7 2.915197 1_455
F55 Fe15 1.932613 1_555
F55 Fe3 2.153066 1_555
F55 K10 2.706073 1_555
F55 K6 2.915197 1_555
F56 Fe21 1.998017 1_555
F56 Fe16 1.998017 1_555
F56 K8 3.179151 1_565
F57 Fe17 1.998017 1_555
F57 Fe20 1.998017 1_555
F57 K9 3.179151 1_545
F58 Fe23 1.998017 1_555
F58 Fe18 1.998017 1_555
F58 K10 3.179151 1_565
F59 Fe19 1.998017 1_555
F59 Fe22 1.998017 1_555
F59 K11 3.179151 1_545
F60 Fe7 1.986743 1_455
F60 Fe4 1.986743 1_555
F61 Fe5 1.986743 1_655
F61 Fe6 1.986743 1_555
F62 Fe8 1.909517 1_555
F62 Fe7 2.097081 1_555
F62 K8 3.228994 1_555
F63 Fe9 1.909517 1_555
F63 Fe6 2.097081 1_555
F63 K9 3.228994 1_555
F64 Fe10 1.909517 1_555
F64 Fe7 2.097081 1_555
F64 K10 3.228994 1_555
F65 Fe11 1.909517 1_555
F65 Fe6 2.097081 1_555
F65 K11 3.228994 1_555
F66 Fe12 1.909517 1_555
F66 Fe5 2.097081 1_555
F66 K9 3.228994 1_555
F67 Fe13 1.909517 1_555
F67 Fe4 2.097081 1_555
F67 K8 3.228994 1_555
F68 Fe14 1.909517 1_555
F68 Fe5 2.097081 1_555
F68 K11 3.228994 1_555
F69 Fe15 1.909517 1_555
F69 Fe4 2.097081 1_555
F69 K10 3.228994 1_555
F70 Fe7 2.004929 1_555
F70 Fe4 2.004929 1_555
F70 K0 2.745049 1_545
F71 Fe5 2.004929 1_555
F71 Fe6 2.004929 1_555
F71 K1 2.745049 1_565
F72 Fe21 1.990086 1_555
F72 Fe16 1.990086 1_655
F72 K2 3.240197 1_555
F73 Fe17 1.990086 1_555
F73 Fe20 1.990086 1_455
F73 K3 3.240197 1_555
F74 Fe23 1.990086 1_555
F74 Fe18 1.990086 1_655
F74 K2 3.240197 1_555
F75 Fe19 1.990086 1_555
F75 Fe22 1.990086 1_455
F75 K3 3.240197 1_555
