# generated using pymatgen
data_NdGaPd2
_symmetry_space_group_name_H-M   'P 1'
_cell_length_a   5.72585034
_cell_length_b   7.08027025
_cell_length_c   7.56772479
_cell_angle_alpha   90.00000000
_cell_angle_beta   90.00061582
_cell_angle_gamma   90.00000000
_symmetry_Int_Tables_number   1
_chemical_formula_structural   NdGaPd2
_chemical_formula_sum   'Nd4 Ga4 Pd8'
_cell_volume   306.79986007
_cell_formula_units_Z   4
loop_
 _symmetry_equiv_pos_site_id
 _symmetry_equiv_pos_as_xyz
  1  'x, y, z'
loop_
 _atom_site_type_symbol
 _atom_site_label
 _atom_site_symmetry_multiplicity
 _atom_site_fract_x
 _atom_site_fract_y
 _atom_site_fract_z
 _atom_site_occupancy
  Nd  Nd0  1  0.35176704  0.75000000  0.03441696  1
  Nd  Nd1  1  0.14823656  0.75000000  0.53442396  1
  Nd  Nd2  1  0.64823296  0.25000000  0.96558304  1
  Nd  Nd3  1  0.85176344  0.25000000  0.46557604  1
  Ga  Ga0  1  0.65028781  0.75000000  0.38043201  1
  Ga  Ga1  1  0.84969434  0.75000000  0.88042954  1
  Ga  Ga2  1  0.34971219  0.25000000  0.61956799  1
  Ga  Ga3  1  0.15030566  0.25000000  0.11957046  1
  Pd  Pd0  1  0.91173755  0.55294201  0.17745034  1
  Pd  Pd1  1  0.58825583  0.94704382  0.67746681  1
  Pd  Pd2  1  0.08826245  0.05294201  0.82254966  1
  Pd  Pd3  1  0.41174417  0.44704382  0.32253319  1
  Pd  Pd4  1  0.08826245  0.44705799  0.82254966  1
  Pd  Pd5  1  0.41174417  0.05295618  0.32253319  1
  Pd  Pd6  1  0.91173755  0.94705799  0.17745034  1
  Pd  Pd7  1  0.58825583  0.55295618  0.67746681  1
loop_
_geom_bond_atom_site_label_1
_geom_bond_atom_site_label_2
_geom_bond_distance
_geom_bond_site_symmetry_2
Nd0 Pd2 3.073723 1_564
Nd0 Pd4 3.073723 1_554
Nd0 Pd6 3.076764 1_455
Nd0 Pd0 3.076764 1_455
Nd0 Pd5 3.077836 1_565
Nd0 Pd3 3.077836 1_555
Nd0 Pd7 3.328221 1_554
Nd0 Pd1 3.328221 1_554
Nd0 Pd6 3.660417 1_555
Nd0 Pd0 3.660417 1_555
Nd1 Pd5 3.073911 1_565
Nd1 Pd3 3.073911 1_555
Nd1 Pd1 3.076677 1_555
Nd1 Pd7 3.076677 1_555
Nd1 Pd2 3.077820 1_565
Nd1 Pd4 3.077820 1_555
Nd1 Pd6 3.328408 1_455
Nd1 Pd0 3.328408 1_455
Nd1 Pd1 3.660472 1_455
Nd1 Pd7 3.660472 1_455
Nd2 Pd0 3.073723 1_556
Nd2 Pd6 3.073723 1_546
Nd2 Pd2 3.076764 1_655
Nd2 Pd4 3.076764 1_655
Nd2 Pd1 3.077836 1_545
Nd2 Pd7 3.077836 1_555
Nd2 Pd5 3.328221 1_556
Nd2 Pd3 3.328221 1_556
Nd2 Pd4 3.660417 1_555
Nd2 Pd2 3.660417 1_555
Nd3 Pd7 3.073911 1_555
Nd3 Pd1 3.073911 1_545
Nd3 Pd3 3.076677 1_555
Nd3 Pd5 3.076677 1_555
Nd3 Pd6 3.077820 1_545
Nd3 Pd0 3.077820 1_555
Nd3 Pd4 3.328408 1_655
Nd3 Pd2 3.328408 1_655
Nd3 Pd5 3.660472 1_655
Nd3 Pd3 3.660472 1_655
Ga0 Pd6 2.558790 1_555
Ga0 Pd0 2.558790 1_555
Ga0 Pd5 2.580433 1_565
Ga0 Pd3 2.580433 1_555
Ga0 Pd1 2.669363 1_555
Ga0 Pd7 2.669363 1_555
Ga0 Nd1 3.080136 1_655
Ga0 Nd1 3.101916 1_555
Ga0 Nd0 3.127035 1_555
Ga1 Pd1 2.558592 1_555
Ga1 Pd7 2.558592 1_555
Ga1 Pd4 2.580405 1_655
Ga1 Pd2 2.580405 1_665
Ga1 Pd6 2.669328 1_556
Ga1 Pd0 2.669328 1_556
Ga1 Nd0 3.080033 1_556
Ga1 Nd0 3.101994 1_656
Ga1 Nd1 3.127073 1_655
Ga2 Pd4 2.558790 1_555
Ga2 Pd2 2.558790 1_555
Ga2 Pd1 2.580433 1_545
Ga2 Pd7 2.580433 1_555
Ga2 Pd3 2.669363 1_555
Ga2 Pd5 2.669363 1_555
Ga2 Nd3 3.080136 1_455
Ga2 Nd3 3.101916 1_555
Ga2 Nd2 3.127035 1_555
Ga3 Pd5 2.558592 1_555
Ga3 Pd3 2.558592 1_555
Ga3 Pd0 2.580405 1_455
Ga3 Pd6 2.580405 1_445
Ga3 Pd4 2.669328 1_554
Ga3 Pd2 2.669328 1_554
Ga3 Nd2 3.080033 1_554
Ga3 Nd2 3.101994 1_454
Ga3 Nd3 3.127073 1_455
Pd0 Pd6 2.790448 1_555
Pd0 Pd4 2.966005 1_654
Pd0 Pd3 3.156558 1_555
Pd0 Pd3 3.156606 1_655
Pd1 Pd7 2.790247 1_555
Pd1 Pd5 2.966236 1_565
Pd1 Pd2 3.156558 1_565
Pd1 Pd2 3.156606 1_665
Pd2 Pd4 2.790448 1_555
Pd2 Pd6 2.966005 1_446
Pd3 Pd5 2.790247 1_555
Pd3 Pd7 2.966236 1_555
Pd4 Pd7 3.156558 1_555
Pd4 Pd7 3.156606 1_455
Pd5 Pd6 3.156558 1_545
Pd5 Pd6 3.156606 1_445
