# generated using pymatgen
data_CdB4O7
_symmetry_space_group_name_H-M   'P 1'
_cell_length_a   8.25598499
_cell_length_b   8.70959098
_cell_length_c   14.22816341
_cell_angle_alpha   90.00000000
_cell_angle_beta   90.00000000
_cell_angle_gamma   90.00000000
_symmetry_Int_Tables_number   1
_chemical_formula_structural   CdB4O7
_chemical_formula_sum   'Cd8 B32 O56'
_cell_volume   1023.09390935
_cell_formula_units_Z   8
loop_
 _symmetry_equiv_pos_site_id
 _symmetry_equiv_pos_as_xyz
  1  'x, y, z'
loop_
 _atom_site_type_symbol
 _atom_site_label
 _atom_site_symmetry_multiplicity
 _atom_site_fract_x
 _atom_site_fract_y
 _atom_site_fract_z
 _atom_site_occupancy
  Cd  Cd0  1  0.62237625  0.11077835  0.38760636  1
  Cd  Cd1  1  0.12237625  0.38922165  0.61239364  1
  Cd  Cd2  1  0.37762375  0.61077835  0.11239364  1
  Cd  Cd3  1  0.87762375  0.88922165  0.88760636  1
  Cd  Cd4  1  0.37762375  0.88922165  0.61239364  1
  Cd  Cd5  1  0.87762375  0.61077835  0.38760636  1
  Cd  Cd6  1  0.62237625  0.38922165  0.88760636  1
  Cd  Cd7  1  0.12237625  0.11077835  0.11239364  1
  B  B0  1  0.21002807  0.13969919  0.45497475  1
  B  B1  1  0.71002807  0.36030081  0.54502525  1
  B  B2  1  0.78997193  0.63969919  0.04502525  1
  B  B3  1  0.28997193  0.86030081  0.95497475  1
  B  B4  1  0.78997193  0.86030081  0.54502525  1
  B  B5  1  0.28997193  0.63969919  0.45497475  1
  B  B6  1  0.21002807  0.36030081  0.95497475  1
  B  B7  1  0.71002807  0.13969919  0.04502525  1
  B  B8  1  0.00854326  0.05868233  0.34018119  1
  B  B9  1  0.50854326  0.44131767  0.65981881  1
  B  B10  1  0.99145674  0.55868233  0.15981881  1
  B  B11  1  0.49145674  0.94131767  0.84018119  1
  B  B12  1  0.99145674  0.94131767  0.65981881  1
  B  B13  1  0.49145674  0.55868233  0.34018119  1
  B  B14  1  0.00854326  0.44131767  0.84018119  1
  B  B15  1  0.50854326  0.05868233  0.15981881  1
  B  B16  1  0.01925311  0.32377513  0.26552969  1
  B  B17  1  0.51925311  0.17622487  0.73447031  1
  B  B18  1  0.98074689  0.82377513  0.23447031  1
  B  B19  1  0.48074689  0.67622487  0.76552969  1
  B  B20  1  0.98074689  0.67622487  0.73447031  1
  B  B21  1  0.48074689  0.82377513  0.26552969  1
  B  B22  1  0.01925311  0.17622487  0.76552969  1
  B  B23  1  0.51925311  0.32377513  0.23447031  1
  B  B24  1  0.95007468  0.28111971  0.43512877  1
  B  B25  1  0.45007468  0.21888029  0.56487123  1
  B  B26  1  0.04992532  0.78111971  0.06487123  1
  B  B27  1  0.54992532  0.71888029  0.93512877  1
  B  B28  1  0.04992532  0.71888029  0.56487123  1
  B  B29  1  0.54992532  0.78111971  0.43512877  1
  B  B30  1  0.95007468  0.21888029  0.93512877  1
  B  B31  1  0.45007468  0.28111971  0.06487123  1
  O  O0  1  0.16486153  0.04154908  0.38663856  1
  O  O1  1  0.66486153  0.45845092  0.61336144  1
  O  O2  1  0.83513847  0.54154908  0.11336144  1
  O  O3  1  0.33513847  0.95845092  0.88663856  1
  O  O4  1  0.83513847  0.95845092  0.61336144  1
  O  O5  1  0.33513847  0.54154908  0.38663856  1
  O  O6  1  0.16486153  0.45845092  0.88663856  1
  O  O7  1  0.66486153  0.04154908  0.11336144  1
  O  O8  1  0.10847071  0.25774702  0.48151035  1
  O  O9  1  0.60847071  0.24225298  0.51848965  1
  O  O10  1  0.89152929  0.75774702  0.01848965  1
  O  O11  1  0.39152929  0.74225298  0.98151035  1
  O  O12  1  0.89152929  0.74225298  0.51848965  1
  O  O13  1  0.39152929  0.75774702  0.48151035  1
  O  O14  1  0.10847071  0.24225298  0.98151035  1
  O  O15  1  0.60847071  0.25774702  0.01848965  1
  O  O16  1  0.03433965  0.16664110  0.25648735  1
  O  O17  1  0.53433965  0.33335890  0.74351265  1
  O  O18  1  0.96566035  0.66664110  0.24351265  1
  O  O19  1  0.46566035  0.83335890  0.75648735  1
  O  O20  1  0.96566035  0.83335890  0.74351265  1
  O  O21  1  0.46566035  0.66664110  0.25648735  1
  O  O22  1  0.03433965  0.33335890  0.75648735  1
  O  O23  1  0.53433965  0.16664110  0.24351265  1
  O  O24  1  0.97263411  0.38229132  0.35077452  1
  O  O25  1  0.47263411  0.11770868  0.64922548  1
  O  O26  1  0.02736589  0.88229132  0.14922548  1
  O  O27  1  0.52736589  0.61770868  0.85077452  1
  O  O28  1  0.02736589  0.61770868  0.64922548  1
  O  O29  1  0.52736589  0.88229132  0.35077452  1
  O  O30  1  0.97263411  0.11770868  0.85077452  1
  O  O31  1  0.47263411  0.38229132  0.14922548  1
  O  O32  1  0.85743594  0.37384225  0.50118085  1
  O  O33  1  0.35743594  0.12615775  0.49881915  1
  O  O34  1  0.14256406  0.87384225  -0.00118085  1
  O  O35  1  0.64256406  0.62615775  0.00118085  1
  O  O36  1  0.14256406  0.62615775  0.49881915  1
  O  O37  1  0.64256406  0.87384225  0.50118085  1
  O  O38  1  0.85743594  0.12615775  0.00118085  1
  O  O39  1  0.35743594  0.37384225  -0.00118085  1
  O  O40  1  0.88912027  0.13432499  0.40285737  1
  O  O41  1  0.38912027  0.36567501  0.59714263  1
  O  O42  1  0.11087973  0.63432499  0.09714263  1
  O  O43  1  0.61087973  0.86567501  0.90285737  1
  O  O44  1  0.11087973  0.86567501  0.59714263  1
  O  O45  1  0.61087973  0.63432499  0.40285737  1
  O  O46  1  0.88912027  0.36567501  0.90285737  1
  O  O47  1  0.38912027  0.13432499  0.09714263  1
  O  O48  1  0.55324273  0.41122561  0.31070782  1
  O  O49  1  0.05324273  0.08877439  0.68929218  1
  O  O50  1  0.44675727  0.91122561  0.18929218  1
  O  O51  1  0.94675727  0.58877439  0.81070782  1
  O  O52  1  0.44675727  0.58877439  0.68929218  1
  O  O53  1  0.94675727  0.91122561  0.31070782  1
  O  O54  1  0.55324273  0.08877439  0.81070782  1
  O  O55  1  0.05324273  0.41122561  0.18929218  1
loop_
_geom_bond_atom_site_label_1
_geom_bond_atom_site_label_2
_geom_bond_distance
_geom_bond_site_symmetry_2
Cd0 O9 2.189134 1_555
Cd0 O29 2.202301 1_545
Cd0 O40 2.222382 1_555
Cd0 O23 2.228963 1_555
Cd1 O8 2.189134 1_555
Cd1 O28 2.202301 1_555
Cd1 O41 2.222382 1_555
Cd1 O22 2.228963 1_555
Cd2 O11 2.189134 1_554
Cd2 O31 2.202301 1_555
Cd2 O42 2.222382 1_555
Cd2 O21 2.228963 1_555
Cd3 O10 2.189134 1_556
Cd3 O30 2.202301 1_565
Cd3 O43 2.222382 1_555
Cd3 O20 2.228963 1_555
Cd4 O13 2.189134 1_555
Cd4 O25 2.202301 1_565
Cd4 O44 2.222382 1_555
Cd4 O19 2.228963 1_555
Cd5 O12 2.189134 1_555
Cd5 O24 2.202301 1_555
Cd5 O45 2.222382 1_555
Cd5 O18 2.228963 1_555
Cd6 O15 2.189134 1_556
Cd6 O27 2.202301 1_555
Cd6 O46 2.222382 1_555
Cd6 O17 2.228963 1_555
Cd7 O14 2.189134 1_554
Cd7 O26 2.202301 1_545
Cd7 O47 2.222382 1_555
Cd7 O16 2.228963 1_555
B0 O0 1.347286 1_555
B0 O33 1.372643 1_555
B0 O8 1.379363 1_555
B1 O1 1.347286 1_555
B1 O32 1.372643 1_555
B1 O9 1.379363 1_555
B2 O2 1.347286 1_555
B2 O35 1.372643 1_555
B2 O10 1.379363 1_555
B3 O3 1.347286 1_555
B3 O34 1.372643 1_556
B3 O11 1.379363 1_555
B4 O4 1.347286 1_555
B4 O37 1.372643 1_555
B4 O12 1.379363 1_555
B5 O5 1.347286 1_555
B5 O36 1.372643 1_555
B5 O13 1.379363 1_555
B6 O6 1.347286 1_555
B6 O39 1.372643 1_556
B6 O14 1.379363 1_555
B7 O7 1.347286 1_555
B7 O38 1.372643 1_555
B7 O15 1.379363 1_555
B8 O53 1.444111 1_445
B8 O0 1.457649 1_555
B8 O40 1.483709 1_455
B8 O16 1.532157 1_555
B9 O52 1.444111 1_555
B9 O1 1.457649 1_555
B9 O41 1.483709 1_555
B9 O17 1.532157 1_555
B10 O55 1.444111 1_655
B10 O2 1.457649 1_555
B10 O42 1.483709 1_655
B10 O18 1.532157 1_555
B11 O54 1.444111 1_565
B11 O3 1.457649 1_555
B11 O43 1.483709 1_555
B11 O19 1.532157 1_555
B12 O49 1.444111 1_665
B12 O4 1.457649 1_555
B12 O44 1.483709 1_655
B12 O20 1.532157 1_555
B13 O48 1.444111 1_555
B13 O5 1.457649 1_555
B13 O45 1.483709 1_555
B13 O21 1.532157 1_555
B14 O51 1.444111 1_455
B14 O6 1.457649 1_555
B14 O46 1.483709 1_455
B14 O22 1.532157 1_555
B15 O50 1.444111 1_545
B15 O7 1.457649 1_555
B15 O47 1.483709 1_555
B15 O23 1.532157 1_555
B16 O55 1.354801 1_555
B16 O24 1.370749 1_455
B16 O16 1.380239 1_555
B17 O54 1.354801 1_555
B17 O25 1.370749 1_555
B17 O17 1.380239 1_555
B18 O53 1.354801 1_555
B18 O26 1.370749 1_655
B18 O18 1.380239 1_555
B19 O52 1.354801 1_555
B19 O27 1.370749 1_555
B19 O19 1.380239 1_555
B20 O51 1.354801 1_555
B20 O28 1.370749 1_655
B20 O20 1.380239 1_555
B21 O50 1.354801 1_555
B21 O29 1.370749 1_555
B21 O21 1.380239 1_555
B22 O49 1.354801 1_555
B22 O30 1.370749 1_455
B22 O22 1.380239 1_555
B23 O48 1.354801 1_555
B23 O31 1.370749 1_555
B23 O23 1.380239 1_555
B24 O40 1.448688 1_555
B24 O32 1.456145 1_555
B24 O8 1.478871 1_655
B24 O24 1.500544 1_555
B25 O41 1.448688 1_555
B25 O33 1.456145 1_555
B25 O9 1.478871 1_555
B25 O25 1.500544 1_555
B26 O42 1.448688 1_555
B26 O34 1.456145 1_555
B26 O10 1.478871 1_455
B26 O26 1.500544 1_555
B27 O43 1.448688 1_555
B27 O35 1.456145 1_556
B27 O11 1.478871 1_555
B27 O27 1.500544 1_555
B28 O44 1.448688 1_555
B28 O36 1.456145 1_555
B28 O12 1.478871 1_455
B28 O28 1.500544 1_555
B29 O45 1.448688 1_555
B29 O37 1.456145 1_555
B29 O13 1.478871 1_555
B29 O29 1.500544 1_555
B30 O46 1.448688 1_555
B30 O38 1.456145 1_556
B30 O14 1.478871 1_655
B30 O30 1.500544 1_555
B31 O47 1.448688 1_555
B31 O39 1.456145 1_555
B31 O15 1.478871 1_555
B31 O31 1.500544 1_555
