# generated using pymatgen
data_Al4(FeO4)3
_symmetry_space_group_name_H-M   'P 1'
_cell_length_a   5.78446232
_cell_length_b   5.78399539
_cell_length_c   17.38180623
_cell_angle_alpha   59.95730452
_cell_angle_beta   59.99251088
_cell_angle_gamma   59.78214941
_symmetry_Int_Tables_number   1
_chemical_formula_structural   Al4(FeO4)3
_chemical_formula_sum   'Al8 Fe6 O24'
_cell_volume   410.38015444
_cell_formula_units_Z   2
loop_
 _symmetry_equiv_pos_site_id
 _symmetry_equiv_pos_as_xyz
  1  'x, y, z'
loop_
 _atom_site_type_symbol
 _atom_site_label
 _atom_site_symmetry_multiplicity
 _atom_site_fract_x
 _atom_site_fract_y
 _atom_site_fract_z
 _atom_site_occupancy
  Al  Al0  1  0.50501700  0.99385100  0.50205500  1
  Al  Al1  1  0.49673300  0.00155000  0.16873000  1
  Al  Al2  1  0.49966100  0.49899400  0.33467100  1
  Al  Al3  1  0.99991600  0.49852200  0.16861600  1
  Al  Al4  1  0.00814700  0.50369800  0.82861000  1
  Al  Al5  1  0.99660600  0.50259300  0.50197500  1
  Al  Al6  1  0.50292900  0.50363500  0.82961800  1
  Al  Al7  1  0.50297900  0.00926500  0.82844000  1
  Fe  Fe0  1  0.12497300  0.12716500  0.03809200  1
  Fe  Fe1  1  0.50629500  0.50809000  0.99554000  1
  Fe  Fe2  1  0.12281500  0.12177300  0.37543300  1
  Fe  Fe3  1  0.12173400  0.12223900  0.71202200  1
  Fe  Fe4  1  0.87657200  0.87681300  0.29554900  1
  Fe  Fe5  1  0.88203300  0.87938700  0.61874200  1
  O  O0  1  0.25305000  0.25500800  0.09027300  1
  O  O1  1  0.24278700  0.24414600  0.24193300  1
  O  O2  1  0.22956100  0.72824400  0.08092800  1
  O  O3  1  0.72612400  0.23163300  0.08105400  1
  O  O4  1  0.26611500  0.26421700  0.41734300  1
  O  O5  1  0.27823300  0.75510700  0.25343900  1
  O  O6  1  0.75459400  0.27886000  0.25326100  1
  O  O7  1  0.23957100  0.23684100  0.57659400  1
  O  O8  1  0.24509200  0.72027400  0.41424000  1
  O  O9  1  0.73671600  0.73892300  0.10541000  1
  O  O10  1  0.72167300  0.24338300  0.41420000  1
  O  O11  1  0.73970400  0.74063300  0.25074900  1
  O  O12  1  0.23906000  0.24024700  0.76572100  1
  O  O13  1  0.25726100  0.78619300  0.57627400  1
  O  O14  1  0.78924800  0.25461200  0.57634000  1
  O  O15  1  0.26320400  0.26413700  0.90384800  1
  O  O16  1  0.23779800  0.72501600  0.76737500  1
  O  O17  1  0.75141300  0.74922800  0.42805100  1
  O  O18  1  0.72443300  0.23856900  0.76741000  1
  O  O19  1  0.75856500  0.75566900  0.57050600  1
  O  O20  1  0.30830000  0.73533400  0.90797200  1
  O  O21  1  0.73402600  0.30930800  0.90817300  1
  O  O22  1  0.74410900  0.74478700  0.75551700  1
  O  O23  1  0.73521600  0.73630400  0.90819300  1
loop_
_geom_bond_atom_site_label_1
_geom_bond_atom_site_label_2
_geom_bond_distance
_geom_bond_site_symmetry_2
Al0 O13 1.868871 1_555
Al0 O19 1.880141 1_555
Al0 O17 1.909626 1_555
Al0 O7 1.916460 1_565
Al0 O10 1.919704 1_565
Al0 O4 2.019329 1_565
Al1 O9 1.862559 1_545
Al1 O3 1.891641 1_555
Al1 O1 1.894505 1_555
Al1 O5 1.909923 1_545
Al1 O0 1.958744 1_555
Al1 O11 2.000034 1_545
Al2 O8 1.886160 1_555
Al2 O10 1.887875 1_555
Al2 O6 1.903957 1_555
Al2 O5 1.906129 1_555
Al2 O4 1.919628 1_555
Al2 O11 1.973663 1_555
Al3 O9 1.863028 1_555
Al3 O2 1.891259 1_655
Al3 O1 1.896102 1_655
Al3 O6 1.909820 1_555
Al3 O0 1.957637 1_655
Al3 O11 1.998872 1_555
Al4 O12 1.860023 1_555
Al4 O16 1.862631 1_555
Al4 O21 1.932676 1_455
Al4 O23 1.938334 1_455
Al4 O15 1.965869 1_555
Al4 O22 1.978513 1_455
Al5 O14 1.868513 1_555
Al5 O19 1.879923 1_555
Al5 O17 1.910119 1_555
Al5 O7 1.916429 1_655
Al5 O8 1.919240 1_655
Al5 O4 2.017127 1_655
Al6 O16 1.859556 1_555
Al6 O18 1.859633 1_555
Al6 O21 1.921269 1_555
Al6 O20 1.921859 1_555
Al6 O15 1.964917 1_555
Al6 O22 1.978216 1_555
Al7 O12 1.859378 1_555
Al7 O18 1.862123 1_555
Al7 O20 1.932690 1_545
Al7 O23 1.937861 1_545
Al7 O15 1.968042 1_555
Al7 O22 1.979302 1_545
Fe0 O2 1.889323 1_545
Fe0 O3 1.889684 1_455
Fe0 O15 1.905834 1_554
Fe0 O0 1.952785 1_555
Fe1 O23 1.882224 1_555
Fe1 O20 1.892418 1_555
Fe1 O21 1.893721 1_555
Fe1 O3 1.961419 1_556
Fe1 O2 1.962388 1_556
Fe1 O0 2.081430 1_556
Fe2 O10 1.897581 1_455
Fe2 O8 1.898312 1_545
Fe2 O1 1.899035 1_555
Fe2 O4 1.946519 1_555
Fe3 O16 1.880205 1_545
Fe3 O12 1.880286 1_555
Fe3 O18 1.881560 1_455
Fe3 O7 1.932034 1_555
Fe4 O17 1.881833 1_555
Fe4 O5 1.896858 1_655
Fe4 O6 1.897752 1_565
Fe4 O11 1.926680 1_555
Fe5 O14 1.778485 1_565
Fe5 O13 1.778955 1_655
Fe5 O19 1.854510 1_555
Fe5 O22 1.941501 1_555
