# generated using pymatgen
data_Y2Fe3N4
_symmetry_space_group_name_H-M   'P 1'
_cell_length_a   6.07773985
_cell_length_b   7.38484794
_cell_length_c   6.44474719
_cell_angle_alpha   90.00000482
_cell_angle_beta   76.74117272
_cell_angle_gamma   127.41128611
_symmetry_Int_Tables_number   1
_chemical_formula_structural   Y2Fe3N4
_chemical_formula_sum   'Y4 Fe6 N8'
_cell_volume   219.97192026
_cell_formula_units_Z   2
loop_
 _symmetry_equiv_pos_site_id
 _symmetry_equiv_pos_as_xyz
  1  'x, y, z'
loop_
 _atom_site_type_symbol
 _atom_site_label
 _atom_site_symmetry_multiplicity
 _atom_site_fract_x
 _atom_site_fract_y
 _atom_site_fract_z
 _atom_site_occupancy
  Y  Y0  1  0.60370075  0.19684820  0.72686893  1
  Y  Y1  1  0.39629925  0.59314845  0.77313107  1
  Y  Y2  1  0.39629925  0.80315180  0.27313107  1
  Y  Y3  1  0.60370075  0.40685155  0.22686893  1
  Fe  Fe0  1  0.06642445  0.90859271  0.07446344  1
  Fe  Fe1  1  0.93357555  0.84216826  0.42553656  1
  Fe  Fe2  1  0.93357555  0.09140729  0.92553656  1
  Fe  Fe3  1  0.06642445  0.15783174  0.57446344  1
  Fe  Fe4  1  0.00000000  0.74792639  0.75000000  1
  Fe  Fe5  1  1.00000000  0.25207361  0.25000000  1
  N  N0  1  0.26920652  0.04189794  0.51138484  1
  N  N1  1  0.73079348  0.77269143  0.98861516  1
  N  N2  1  0.73079348  0.95810206  0.48861516  1
  N  N3  1  0.26920652  0.22730857  0.01138484  1
  N  N4  1  0.78103848  0.22288608  0.05798841  1
  N  N5  1  0.21896152  0.44184760  0.44201159  1
  N  N6  1  0.21896152  0.77711392  0.94201159  1
  N  N7  1  0.78103848  0.55815240  0.55798841  1
loop_
_geom_bond_atom_site_label_1
_geom_bond_atom_site_label_2
_geom_bond_distance
_geom_bond_site_symmetry_2
Fe0 N6 1.805997 1_554
Fe0 N3 1.862658 1_565
Fe0 N1 1.872058 1_454
Fe1 N7 1.805997 1_555
Fe1 N2 1.862657 1_555
Fe1 N0 1.872058 1_665
Fe2 N4 1.805997 1_556
Fe2 N1 1.862658 1_545
Fe2 N3 1.872058 1_656
Fe3 N5 1.805997 1_555
Fe3 N0 1.862657 1_555
Fe3 N2 1.872058 1_445
Fe4 N6 1.937948 1_555
Fe4 N7 1.937948 1_455
Fe4 N1 2.069977 1_455
Fe4 N0 2.069977 1_565
Fe5 N4 1.937948 1_555
Fe5 N5 1.937948 1_655
Fe5 N3 2.069977 1_655
Fe5 N2 2.069977 1_545
N0 Y0 2.416482 1_555
N0 Y3 2.528142 1_555
N0 Y2 2.678365 1_545
N1 Y1 2.416482 1_555
N1 Y2 2.528146 1_556
N1 Y3 2.678372 1_556
N2 Y2 2.416482 1_555
N2 Y1 2.528142 1_555
N2 Y0 2.678365 1_565
N3 Y3 2.416482 1_555
N3 Y0 2.528146 1_554
N3 Y1 2.678372 1_554
N4 Y3 2.330889 1_555
N4 Y0 2.560417 1_554
N4 Y2 2.589248 1_545
N5 Y2 2.330896 1_555
N5 Y1 2.560419 1_555
N5 Y3 2.589253 1_555
N6 Y1 2.330889 1_555
N6 Y2 2.560417 1_556
N6 Y0 2.589248 1_565
N7 Y0 2.330896 1_555
N7 Y3 2.560419 1_555
N7 Y1 2.589253 1_555
