# generated using pymatgen
data_ErTiClO3
_symmetry_space_group_name_H-M   'P 1'
_cell_length_a   5.28345090
_cell_length_b   5.28345090
_cell_length_c   9.87048609
_cell_angle_alpha   74.41675801
_cell_angle_beta   74.41675801
_cell_angle_gamma   43.33997177
_symmetry_Int_Tables_number   1
_chemical_formula_structural   ErTiClO3
_chemical_formula_sum   'Er2 Ti2 Cl2 O6'
_cell_volume   181.03238892
_cell_formula_units_Z   2
loop_
 _symmetry_equiv_pos_site_id
 _symmetry_equiv_pos_as_xyz
  1  'x, y, z'
loop_
 _atom_site_type_symbol
 _atom_site_label
 _atom_site_symmetry_multiplicity
 _atom_site_fract_x
 _atom_site_fract_y
 _atom_site_fract_z
 _atom_site_occupancy
  Er  Er0  1  0.27878600  0.27878600  0.20620000  1
  Er  Er1  1  0.72121400  0.72121400  0.79380000  1
  Ti  Ti0  1  0.88179500  0.88179500  0.43009300  1
  Ti  Ti1  1  0.11820500  0.11820500  0.56990700  1
  Cl  Cl0  1  0.61513300  0.61513300  0.09432000  1
  Cl  Cl1  1  0.38486700  0.38486700  0.90568000  1
  O  O0  1  0.84796200  0.84796200  0.25285700  1
  O  O1  1  0.15203800  0.15203800  0.74714300  1
  O  O2  1  0.66692900  0.66692900  0.56456400  1
  O  O3  1  0.33307100  0.33307100  0.43543600  1
  O  O4  1  0.92083400  0.92083400  0.62516300  1
  O  O5  1  0.07916600  0.07916600  0.37483700  1
loop_
_geom_bond_atom_site_label_1
_geom_bond_atom_site_label_2
_geom_bond_distance
_geom_bond_site_symmetry_2
Er0 O0 2.158864 1_545
Er0 O0 2.158864 1_455
Er0 O5 2.174156 1_555
Er0 O3 2.470061 1_555
Er1 O1 2.158864 1_565
Er1 O1 2.158864 1_655
Er1 O4 2.174156 1_555
Er1 O2 2.470061 1_555
Cl0 Er1 2.845617 1_554
Cl0 Er0 2.938458 1_655
Cl0 Er0 2.938458 1_565
Cl0 Er0 3.165486 1_555
Cl1 Er0 2.845617 1_556
Cl1 Er1 2.938458 1_545
Cl1 Er1 2.938458 1_455
Cl1 Er1 3.165486 1_555
O0 Ti0 1.872654 1_555
O1 Ti1 1.872654 1_555
O2 Ti1 2.005842 1_655
O2 Ti1 2.005842 1_565
O2 Ti0 2.143527 1_555
O3 Ti0 2.005842 1_545
O3 Ti0 2.005842 1_455
O3 Ti1 2.143527 1_555
O4 Ti1 1.855518 1_665
O4 Ti0 2.069063 1_555
O5 Ti0 1.855518 1_445
O5 Ti1 2.069063 1_555
