# generated using pymatgen
data_Er11Ge10
_symmetry_space_group_name_H-M   'P 1'
_cell_length_a   11.12077627
_cell_length_b   11.12077627
_cell_length_c   11.12077627
_cell_angle_alpha   122.05722218
_cell_angle_beta   122.05722218
_cell_angle_gamma   86.47225234
_symmetry_Int_Tables_number   1
_chemical_formula_structural   Er11Ge10
_chemical_formula_sum   'Er22 Ge20'
_cell_volume   940.32146105
_cell_formula_units_Z   2
loop_
 _symmetry_equiv_pos_site_id
 _symmetry_equiv_pos_as_xyz
  1  'x, y, z'
loop_
 _atom_site_type_symbol
 _atom_site_label
 _atom_site_symmetry_multiplicity
 _atom_site_fract_x
 _atom_site_fract_y
 _atom_site_fract_z
 _atom_site_occupancy
  Er  Er0  1  0.80985631  0.06246711  0.25261180  1
  Er  Er1  1  0.80985631  0.55724351  0.74738820  1
  Er  Er2  1  0.06246711  0.80985631  0.25261180  1
  Er  Er3  1  0.55724351  0.80985631  0.74738820  1
  Er  Er4  1  0.19014369  0.93753289  0.74738820  1
  Er  Er5  1  0.19014369  0.44275649  0.25261180  1
  Er  Er6  1  0.93753289  0.19014369  0.74738820  1
  Er  Er7  1  0.44275649  0.19014369  0.25261180  1
  Er  Er8  1  0.17666342  0.17666342  0.35332584  1
  Er  Er9  1  0.82333658  0.82333658  0.64667416  1
  Er  Er10  1  0.17666342  0.82333658  0.00000000  1
  Er  Er11  1  0.82333658  0.17666342  -0.00000000  1
  Er  Er12  1  0.66021063  0.66021063  -0.00000000  1
  Er  Er13  1  0.33978937  0.33978937  -0.00000000  1
  Er  Er14  1  0.60138898  0.92561765  0.32422868  1
  Er  Er15  1  0.60138898  0.27715830  0.67577132  1
  Er  Er16  1  0.92561765  0.60138898  0.32422868  1
  Er  Er17  1  0.27715830  0.60138898  0.67577132  1
  Er  Er18  1  0.39861102  0.07438235  0.67577132  1
  Er  Er19  1  0.39861102  0.72284170  0.32422868  1
  Er  Er20  1  0.07438235  0.39861102  0.67577132  1
  Er  Er21  1  0.72284170  0.39861102  0.32422868  1
  Ge  Ge0  1  0.35714095  -0.00000000  0.35714095  1
  Ge  Ge1  1  0.64285905  -0.00000000  0.64285905  1
  Ge  Ge2  1  0.00000000  0.64285905  0.64285905  1
  Ge  Ge3  1  -0.00000000  0.35714095  0.35714095  1
  Ge  Ge4  1  0.88350707  0.88350707  -0.00000000  1
  Ge  Ge5  1  0.11649293  0.11649293  0.00000000  1
  Ge  Ge6  1  0.37971232  0.37971232  0.75942464  1
  Ge  Ge7  1  0.62028768  0.62028768  0.24057536  1
  Ge  Ge8  1  0.37971232  0.62028768  -0.00000000  1
  Ge  Ge9  1  0.62028768  0.37971232  -0.00000000  1
  Ge  Ge10  1  0.75000000  0.25000000  0.50000000  1
  Ge  Ge11  1  0.25000000  0.75000000  0.50000000  1
  Ge  Ge12  1  0.89019114  0.89019114  0.41697655  1
  Ge  Ge13  1  0.47321459  0.47321459  0.58302345  1
  Ge  Ge14  1  0.89019114  0.47321459  -0.00000000  1
  Ge  Ge15  1  0.47321459  0.89019114  0.00000000  1
  Ge  Ge16  1  0.10980886  0.10980886  0.58302345  1
  Ge  Ge17  1  0.52678541  0.52678541  0.41697655  1
  Ge  Ge18  1  0.10980886  0.52678541  0.00000000  1
  Ge  Ge19  1  0.52678541  0.10980886  0.00000000  1
loop_
_geom_bond_atom_site_label_1
_geom_bond_atom_site_label_2
_geom_bond_distance
_geom_bond_site_symmetry_2
Er0 Ge10 2.836162 1_555
Er0 Ge4 2.971611 1_545
Er0 Ge12 3.095634 1_545
Er0 Ge15 3.095642 1_545
Er0 Ge16 3.171299 1_655
Er0 Ge19 3.171310 1_555
Er0 Ge3 3.280405 1_655
Er1 Ge10 2.836152 1_555
Er1 Ge4 2.971621 1_556
Er1 Ge14 3.095636 1_556
Er1 Ge13 3.095644 1_555
Er1 Ge18 3.171298 1_656
Er1 Ge17 3.171309 1_555
Er1 Ge2 3.280401 1_655
Er2 Ge11 2.836162 1_555
Er2 Ge4 2.971611 1_455
Er2 Ge12 3.095634 1_455
Er2 Ge14 3.095642 1_455
Er2 Ge16 3.171299 1_565
Er2 Ge18 3.171310 1_555
Er2 Ge0 3.280405 1_565
Er3 Ge11 2.836152 1_555
Er3 Ge4 2.971621 1_556
Er3 Ge15 3.095636 1_556
Er3 Ge13 3.095644 1_555
Er3 Ge19 3.171298 1_566
Er3 Ge17 3.171309 1_555
Er3 Ge1 3.280401 1_565
Er4 Ge11 2.836162 1_555
Er4 Ge5 2.971611 1_566
Er4 Ge16 3.095634 1_565
Er4 Ge19 3.095642 1_566
Er4 Ge12 3.171299 1_455
Er4 Ge15 3.171310 1_556
Er4 Ge2 3.280405 1_555
Er5 Ge11 2.836152 1_555
Er5 Ge5 2.971621 1_555
Er5 Ge18 3.095636 1_555
Er5 Ge17 3.095644 1_555
Er5 Ge14 3.171298 1_455
Er5 Ge13 3.171309 1_555
Er5 Ge3 3.280401 1_555
Er6 Ge10 2.836162 1_555
Er6 Ge5 2.971611 1_656
Er6 Ge16 3.095634 1_655
Er6 Ge18 3.095642 1_656
Er6 Ge12 3.171299 1_545
Er6 Ge14 3.171310 1_556
Er6 Ge1 3.280405 1_555
Er7 Ge10 2.836152 1_555
Er7 Ge5 2.971621 1_555
Er7 Ge19 3.095636 1_555
Er7 Ge17 3.095644 1_555
Er7 Ge15 3.171298 1_545
Er7 Ge13 3.171309 1_555
Er7 Ge0 3.280401 1_555
Er8 Ge3 2.720785 1_555
Er8 Ge0 2.720785 1_555
Er8 Ge6 3.093582 1_555
Er8 Ge5 3.287498 1_555
Er8 Ge4 3.287507 1_445
Er8 Ge13 3.424979 1_555
Er8 Ge16 3.424993 1_555
Er9 Ge1 2.720785 1_565
Er9 Ge2 2.720785 1_655
Er9 Ge7 3.093582 1_555
Er9 Ge4 3.287498 1_556
Er9 Ge5 3.287507 1_666
Er9 Ge17 3.424979 1_555
Er9 Ge12 3.424993 1_555
Er10 Ge2 2.720785 1_554
Er10 Ge0 2.720785 1_565
Er10 Ge8 3.093574 1_555
Er10 Ge5 3.287508 1_565
Er10 Ge4 3.287508 1_455
Er10 Ge18 3.424982 1_555
Er10 Ge15 3.424982 1_555
Er11 Ge1 2.720785 1_554
Er11 Ge3 2.720785 1_655
Er11 Ge9 3.093574 1_555
Er11 Ge5 3.287508 1_655
Er11 Ge4 3.287508 1_545
Er11 Ge19 3.424982 1_555
Er11 Ge14 3.424982 1_555
Er12 Ge7 3.177727 1_555
Er12 Ge8 3.177727 1_555
Er12 Ge9 3.177727 1_555
Er12 Ge6 3.177727 1_554
Er12 Ge15 3.195480 1_555
Er12 Ge13 3.195480 1_554
Er12 Ge12 3.195480 1_555
Er12 Ge14 3.195480 1_555
Er12 Ge4 3.618249 1_555
Er13 Ge7 3.177727 1_555
Er13 Ge8 3.177727 1_555
Er13 Ge9 3.177727 1_555
Er13 Ge6 3.177727 1_554
Er13 Ge16 3.195480 1_554
Er13 Ge19 3.195480 1_555
Er13 Ge17 3.195480 1_555
Er13 Ge18 3.195480 1_555
Er13 Ge5 3.618249 1_555
Er14 Ge12 2.879803 1_555
Er14 Ge15 2.879803 1_555
Er14 Ge1 2.941691 1_565
Er14 Ge0 2.941691 1_565
Er14 Ge7 3.034078 1_555
Er14 Ge8 3.034078 1_555
Er14 Ge10 3.063423 1_565
Er15 Ge14 2.879807 1_556
Er15 Ge13 2.879824 1_555
Er15 Ge1 2.941669 1_555
Er15 Ge0 2.941680 1_555
Er15 Ge9 3.034072 1_556
Er15 Ge6 3.034081 1_555
Er15 Ge10 3.063429 1_555
Er16 Ge12 2.879803 1_555
Er16 Ge14 2.879803 1_555
Er16 Ge2 2.941691 1_655
Er16 Ge3 2.941691 1_655
Er16 Ge7 3.034078 1_555
Er16 Ge9 3.034078 1_555
Er16 Ge11 3.063423 1_655
Er17 Ge15 2.879807 1_556
Er17 Ge13 2.879824 1_555
Er17 Ge2 2.941669 1_555
Er17 Ge3 2.941680 1_555
Er17 Ge8 3.034072 1_556
Er17 Ge6 3.034081 1_555
Er17 Ge11 3.063429 1_555
Er18 Ge16 2.879803 1_555
Er18 Ge19 2.879803 1_556
Er18 Ge0 2.941691 1_555
Er18 Ge1 2.941691 1_555
Er18 Ge6 3.034078 1_555
Er18 Ge9 3.034078 1_556
Er18 Ge11 3.063423 1_545
Er19 Ge18 2.879807 1_555
Er19 Ge17 2.879824 1_555
Er19 Ge0 2.941669 1_565
Er19 Ge1 2.941680 1_565
Er19 Ge8 3.034072 1_555
Er19 Ge7 3.034081 1_555
Er19 Ge11 3.063429 1_555
Er20 Ge16 2.879803 1_555
Er20 Ge18 2.879803 1_556
Er20 Ge3 2.941691 1_555
Er20 Ge2 2.941691 1_555
Er20 Ge6 3.034078 1_555
Er20 Ge8 3.034078 1_556
Er20 Ge10 3.063423 1_455
Er21 Ge19 2.879807 1_555
Er21 Ge17 2.879824 1_555
Er21 Ge3 2.941669 1_655
Er21 Ge2 2.941680 1_655
Er21 Ge9 3.034072 1_555
Er21 Ge7 3.034081 1_555
Er21 Ge10 3.063429 1_555
Ge6 Ge9 2.591767 1_556
Ge6 Ge8 2.591767 1_556
Ge7 Ge8 2.591767 1_555
Ge7 Ge9 2.591767 1_555
Ge12 Ge16 2.549294 1_665
Ge13 Ge17 2.549294 1_555
Ge14 Ge18 2.549294 1_655
Ge15 Ge19 2.549294 1_565
