# generated using pymatgen
data_Na3Dy
_symmetry_space_group_name_H-M   'P 1'
_cell_length_a   7.28741294
_cell_length_b   7.28741294
_cell_length_c   5.84823700
_cell_angle_alpha   90.00000000
_cell_angle_beta   90.00000000
_cell_angle_gamma   120.00000849
_symmetry_Int_Tables_number   1
_chemical_formula_structural   Na3Dy
_chemical_formula_sum   'Na6 Dy2'
_cell_volume   268.96905491
_cell_formula_units_Z   2
loop_
 _symmetry_equiv_pos_site_id
 _symmetry_equiv_pos_as_xyz
  1  'x, y, z'
loop_
 _atom_site_type_symbol
 _atom_site_label
 _atom_site_symmetry_multiplicity
 _atom_site_fract_x
 _atom_site_fract_y
 _atom_site_fract_z
 _atom_site_occupancy
  Na  Na0  1  0.16296400  0.32592900  0.25000000  1
  Na  Na1  1  0.67407100  0.83703600  0.25000000  1
  Na  Na2  1  0.16296400  0.83703600  0.25000000  1
  Na  Na3  1  0.83703600  0.67407100  0.75000000  1
  Na  Na4  1  0.32592900  0.16296400  0.75000000  1
  Na  Na5  1  0.83703600  0.16296400  0.75000000  1
  Dy  Dy0  1  0.33333300  0.66666700  0.75000000  1
  Dy  Dy1  1  0.66666700  0.33333300  0.25000000  1
loop_
_geom_bond_atom_site_label_1
_geom_bond_atom_site_label_2
_geom_bond_distance
_geom_bond_site_symmetry_2
Na0 Na1 3.562765 1_445
Na0 Na2 3.562765 1_545
Na0 Na5 3.575129 1_454
Na0 Na5 3.575129 1_455
Na0 Na4 3.575137 1_554
Na0 Na4 3.575137 1_555
Na0 Na1 3.724647 1_555
Na0 Na2 3.724648 1_555
Na1 Na2 3.562765 1_655
Na1 Na5 3.575129 1_565
Na1 Na5 3.575129 1_564
Na1 Na3 3.575137 1_555
Na1 Na3 3.575137 1_554
Na1 Na2 3.724648 1_555
Na2 Na3 3.575129 1_455
Na2 Na3 3.575129 1_454
Na2 Na4 3.575129 1_564
Na2 Na4 3.575129 1_565
Na3 Na4 3.562765 1_665
Na3 Na5 3.562765 1_565
Na3 Na4 3.724647 1_555
Na3 Na5 3.724648 1_555
Na4 Na5 3.562765 1_455
Na4 Na5 3.724648 1_555
Dy0 Na1 3.629711 1_555
Dy0 Na0 3.629711 1_555
Dy0 Na0 3.629711 1_556
Dy0 Na1 3.629711 1_556
Dy0 Na2 3.629711 1_556
Dy0 Na2 3.629711 1_555
Dy0 Na3 3.643999 1_455
Dy0 Na4 3.643999 1_565
Dy0 Na5 3.644006 1_455
Dy0 Na5 3.644006 1_565
Dy0 Na3 3.644013 1_555
Dy0 Na4 3.644013 1_555
Dy1 Na4 3.629711 1_555
Dy1 Na4 3.629711 1_554
Dy1 Na3 3.629711 1_554
Dy1 Na3 3.629711 1_555
Dy1 Na5 3.629711 1_555
Dy1 Na5 3.629711 1_554
Dy1 Na1 3.643999 1_545
Dy1 Na0 3.643999 1_655
Dy1 Na2 3.644006 1_545
Dy1 Na2 3.644006 1_655
Dy1 Na1 3.644013 1_555
Dy1 Na0 3.644013 1_555
