# generated using pymatgen
data_CdPd2Au
_symmetry_space_group_name_H-M   'P 1'
_cell_length_a   10.92235789
_cell_length_b   10.92235789
_cell_length_c   10.92235789
_cell_angle_alpha   123.14499602
_cell_angle_beta   118.89292422
_cell_angle_gamma   88.28465530
_symmetry_Int_Tables_number   1
_chemical_formula_structural   CdPd2Au
_chemical_formula_sum   'Cd1 Pd2 Au1'
_cell_volume   905.11805506
_cell_formula_units_Z   1
loop_
 _symmetry_equiv_pos_site_id
 _symmetry_equiv_pos_as_xyz
  1  'x, y, z'
loop_
 _atom_site_type_symbol
 _atom_site_label
 _atom_site_symmetry_multiplicity
 _atom_site_fract_x
 _atom_site_fract_y
 _atom_site_fract_z
 _atom_site_occupancy
  Cd  Cd0  1  0.00000000  0.00000000  0.00000000  1
  Pd  Pd0  1  0.00000000  0.25389100  0.25389100  1
  Pd  Pd1  1  0.00000000  0.74610900  0.74610900  1
  Au  Au0  1  0.00000000  0.50000000  0.50000000  1
loop_
_geom_bond_atom_site_label_1
_geom_bond_atom_site_label_2
_geom_bond_distance
_geom_bond_site_symmetry_2
Cd0 Pd1 2.640237 1_544
Cd0 Pd0 2.640237 1_555
Au0 Pd0 2.559312 1_555
Au0 Pd1 2.559312 1_555
