# generated using pymatgen
data_Pr2Nb2S7O30
_symmetry_space_group_name_H-M   'P 1'
_cell_length_a   13.05479900
_cell_length_b   13.05479900
_cell_length_c   7.31041100
_cell_angle_alpha   90.00000000
_cell_angle_beta   90.00000000
_cell_angle_gamma   90.00000000
_symmetry_Int_Tables_number   1
_chemical_formula_structural   Pr2Nb2S7O30
_chemical_formula_sum   'Pr4 Nb4 S14 O60'
_cell_volume   1245.89709518
_cell_formula_units_Z   2
loop_
 _symmetry_equiv_pos_site_id
 _symmetry_equiv_pos_as_xyz
  1  'x, y, z'
loop_
 _atom_site_type_symbol
 _atom_site_label
 _atom_site_symmetry_multiplicity
 _atom_site_fract_x
 _atom_site_fract_y
 _atom_site_fract_z
 _atom_site_occupancy
  Pr  Pr0  1  0.19945000  0.30055000  0.40767300  1
  Pr  Pr1  1  0.30055000  0.80055000  0.59232700  1
  Pr  Pr2  1  0.80055000  0.69945000  0.40767300  1
  Pr  Pr3  1  0.69945000  0.19945000  0.59232700  1
  Nb  Nb0  1  0.36322700  0.13677300  0.01558600  1
  Nb  Nb1  1  0.13677300  0.63677300  0.98441400  1
  Nb  Nb2  1  0.63677300  0.86322700  0.01558600  1
  Nb  Nb3  1  0.86322700  0.36322700  0.98441400  1
  S  S0  1  0.50000000  0.00000000  0.65601300  1
  S  S1  1  0.00000000  0.50000000  0.34398700  1
  S  S2  1  0.62273100  0.12273100  0.10158300  1
  S  S3  1  0.87726900  0.62273100  0.89841700  1
  S  S4  1  0.37726900  0.87726900  0.10158300  1
  S  S5  1  0.12273100  0.37726900  0.89841700  1
  S  S6  1  0.43529300  0.32476300  0.71186800  1
  S  S7  1  0.06470700  0.82476300  0.28813200  1
  S  S8  1  0.56470700  0.67523700  0.71186800  1
  S  S9  1  0.93529300  0.17523700  0.28813200  1
  S  S10  1  0.32476300  0.56470700  0.28813200  1
  S  S11  1  0.17523700  0.06470700  0.71186800  1
  S  S12  1  0.67523700  0.43529300  0.28813200  1
  S  S13  1  0.82476300  0.93529300  0.71186800  1
  O  O0  1  0.30330500  0.19669500  0.20575500  1
  O  O1  1  0.19669500  0.69669500  0.79424500  1
  O  O2  1  0.69669500  0.80330500  0.20575500  1
  O  O3  1  0.80330500  0.30330500  0.79424500  1
  O  O4  1  0.43381800  0.93381800  0.54341600  1
  O  O5  1  0.06618200  0.43381800  0.45658400  1
  O  O6  1  0.56618200  0.06618200  0.54341600  1
  O  O7  1  0.93381800  0.56618200  0.45658400  1
  O  O8  1  0.43449400  0.06550600  0.77527600  1
  O  O9  1  0.06550600  0.56550600  0.22472400  1
  O  O10  1  0.56550600  0.93449400  0.77527600  1
  O  O11  1  0.93449400  0.43449400  0.22472400  1
  O  O12  1  0.65672500  0.15672500  0.92223800  1
  O  O13  1  0.84327500  0.65672500  0.07776200  1
  O  O14  1  0.34327500  0.84327500  0.92223800  1
  O  O15  1  0.15672500  0.34327500  0.07776200  1
  O  O16  1  0.67373900  0.17373900  0.25356500  1
  O  O17  1  0.82626100  0.67373900  0.74643500  1
  O  O18  1  0.32626100  0.82626100  0.25356500  1
  O  O19  1  0.17373900  0.32626100  0.74643500  1
  O  O20  1  0.50909300  0.14047600  0.12231100  1
  O  O21  1  0.99090700  0.64047600  0.87768900  1
  O  O22  1  0.49090700  0.85952400  0.12231100  1
  O  O23  1  0.00909300  0.35952400  0.87768900  1
  O  O24  1  0.14047600  0.49090700  0.87768900  1
  O  O25  1  0.35952400  0.99090700  0.12231100  1
  O  O26  1  0.85952400  0.50909300  0.87768900  1
  O  O27  1  0.64047600  0.00909300  0.12231100  1
  O  O28  1  0.37108400  0.29314100  0.55594700  1
  O  O29  1  0.12891600  0.79314100  0.44405300  1
  O  O30  1  0.62891600  0.70685900  0.55594700  1
  O  O31  1  0.87108400  0.20685900  0.44405300  1
  O  O32  1  0.29314100  0.62891600  0.44405300  1
  O  O33  1  0.20685900  0.12891600  0.55594700  1
  O  O34  1  0.70685900  0.37108400  0.44405300  1
  O  O35  1  0.79314100  0.87108400  0.55594700  1
  O  O36  1  0.54240600  0.29429500  0.68568500  1
  O  O37  1  0.95759400  0.79429500  0.31431500  1
  O  O38  1  0.45759400  0.70570500  0.68568500  1
  O  O39  1  0.04240600  0.20570500  0.31431500  1
  O  O40  1  0.29429500  0.45759400  0.31431500  1
  O  O41  1  0.20570500  0.95759400  0.68568500  1
  O  O42  1  0.70570500  0.54240600  0.31431500  1
  O  O43  1  0.79429500  0.04240600  0.68568500  1
  O  O44  1  0.42412700  0.43449400  0.74744200  1
  O  O45  1  0.07587300  0.93449400  0.25255800  1
  O  O46  1  0.57587300  0.56550600  0.74744200  1
  O  O47  1  0.92412700  0.06550600  0.25255800  1
  O  O48  1  0.43449400  0.57587300  0.25255800  1
  O  O49  1  0.06550600  0.07587300  0.74744200  1
  O  O50  1  0.56550600  0.42412700  0.25255800  1
  O  O51  1  0.93449400  0.92412700  0.74744200  1
  O  O52  1  0.39416600  0.26752700  0.88143500  1
  O  O53  1  0.10583400  0.76752700  0.11856500  1
  O  O54  1  0.60583400  0.73247300  0.88143500  1
  O  O55  1  0.89416600  0.23247300  0.11856500  1
  O  O56  1  0.26752700  0.60583400  0.11856500  1
  O  O57  1  0.23247300  0.10583400  0.88143500  1
  O  O58  1  0.73247300  0.39416600  0.11856500  1
  O  O59  1  0.76752700  0.89416600  0.88143500  1
loop_
_geom_bond_atom_site_label_1
_geom_bond_atom_site_label_2
_geom_bond_distance
_geom_bond_site_symmetry_2
Nb0 O0 1.776678 1_555
Nb0 O52 2.009638 1_554
Nb0 O57 2.009638 1_554
Nb0 O25 2.058453 1_545
Nb0 O20 2.058453 1_555
Nb0 O8 2.194863 1_554
Nb1 O1 1.776678 1_555
Nb1 O56 2.009638 1_556
Nb1 O53 2.009638 1_556
Nb1 O24 2.058453 1_555
Nb1 O21 2.058453 1_455
Nb1 O9 2.194863 1_556
Nb2 O2 1.776678 1_555
Nb2 O54 2.009638 1_554
Nb2 O59 2.009638 1_554
Nb2 O22 2.058453 1_555
Nb2 O27 2.058453 1_565
Nb2 O10 2.194863 1_554
Nb3 O3 1.776678 1_555
Nb3 O55 2.009638 1_556
Nb3 O58 2.009638 1_556
Nb3 O23 2.058453 1_655
Nb3 O26 2.058453 1_555
Nb3 O11 2.194863 1_556
O0 Pr0 2.419773 1_555
O1 Pr1 2.419773 1_555
O2 Pr2 2.419773 1_555
O3 Pr3 2.419773 1_555
O4 S0 1.473265 1_565
O4 Pr1 2.486276 1_555
O5 S1 1.473265 1_555
O5 Pr0 2.486276 1_555
O6 S0 1.473265 1_555
O6 Pr3 2.486276 1_555
O7 S1 1.473265 1_655
O7 Pr2 2.486276 1_555
O8 S0 1.490894 1_555
O9 S1 1.490894 1_555
O10 S0 1.490894 1_565
O11 S1 1.490894 1_655
O12 S2 1.453560 1_556
O12 Pr3 2.537501 1_555
O13 S3 1.453560 1_554
O13 Pr2 2.537501 1_555
O14 S4 1.453560 1_556
O14 Pr1 2.537501 1_555
O15 S5 1.453560 1_554
O15 Pr0 2.537501 1_555
O16 S2 1.456461 1_555
O16 Pr3 2.521572 1_555
O17 S3 1.456461 1_555
O17 Pr2 2.521572 1_555
O18 S4 1.456461 1_555
O18 Pr1 2.521572 1_555
O19 S5 1.456461 1_555
O19 Pr0 2.521572 1_555
O20 S2 1.509126 1_555
O21 S3 1.509126 1_555
O22 S4 1.509126 1_555
O23 S5 1.509126 1_555
O24 S5 1.509126 1_555
O25 S4 1.509126 1_555
O26 S3 1.509126 1_555
O27 S2 1.509126 1_555
O28 S6 1.473875 1_555
O28 Pr0 2.490942 1_555
O29 S7 1.473875 1_555
O29 Pr1 2.490942 1_555
O30 S8 1.473875 1_555
O30 Pr2 2.490942 1_555
O31 S9 1.473875 1_555
O31 Pr3 2.490942 1_555
O32 S10 1.473875 1_555
O32 Pr1 2.490942 1_555
O33 S11 1.473875 1_555
O33 Pr0 2.490942 1_555
O34 S12 1.473875 1_555
O34 Pr3 2.490942 1_555
O35 S13 1.473875 1_555
O35 Pr2 2.490942 1_555
O36 S6 1.466355 1_555
O36 Pr3 2.490404 1_555
O37 S7 1.466355 1_655
O37 Pr2 2.490404 1_555
O38 S8 1.466355 1_555
O38 Pr1 2.490404 1_555
O39 S9 1.466355 1_455
O39 Pr0 2.490404 1_555
O40 S10 1.466355 1_555
O40 Pr0 2.490404 1_555
O41 S11 1.466355 1_565
O41 Pr1 2.490404 1_555
O42 S12 1.466355 1_555
O42 Pr2 2.490404 1_555
O43 S13 1.466355 1_545
O43 Pr3 2.490404 1_555
O44 S6 1.463210 1_555
O45 S7 1.463210 1_555
O46 S8 1.463210 1_555
O47 S9 1.463210 1_555
O48 S10 1.463210 1_555
O49 S11 1.463210 1_555
O50 S12 1.463210 1_555
O51 S13 1.463210 1_555
O52 S6 1.543762 1_555
O53 S7 1.543762 1_555
O54 S8 1.543762 1_555
O55 S9 1.543762 1_555
O56 S10 1.543762 1_555
O57 S11 1.543762 1_555
O58 S12 1.543762 1_555
O59 S13 1.543762 1_555
