# generated using pymatgen
data_CrNiP
_symmetry_space_group_name_H-M   'P 1'
_cell_length_a   3.52655000
_cell_length_b   5.83280400
_cell_length_c   6.82620200
_cell_angle_alpha   90.00000000
_cell_angle_beta   90.00000000
_cell_angle_gamma   90.00000000
_symmetry_Int_Tables_number   1
_chemical_formula_structural   CrNiP
_chemical_formula_sum   'Cr4 Ni4 P4'
_cell_volume   140.41275626
_cell_formula_units_Z   4
loop_
 _symmetry_equiv_pos_site_id
 _symmetry_equiv_pos_as_xyz
  1  'x, y, z'
loop_
 _atom_site_type_symbol
 _atom_site_label
 _atom_site_symmetry_multiplicity
 _atom_site_fract_x
 _atom_site_fract_y
 _atom_site_fract_z
 _atom_site_occupancy
  Cr  Cr0  1  0.75000000  0.46722100  0.17147000  1
  Cr  Cr1  1  0.75000000  0.96722100  0.32853000  1
  Cr  Cr2  1  0.25000000  0.53277900  0.82853000  1
  Cr  Cr3  1  0.25000000  0.03277900  0.67147000  1
  Ni  Ni0  1  0.75000000  0.35931900  0.56110400  1
  Ni  Ni1  1  0.75000000  0.85931900  0.93889600  1
  Ni  Ni2  1  0.25000000  0.64068100  0.43889600  1
  Ni  Ni3  1  0.25000000  0.14068100  0.06110400  1
  P  P0  1  0.75000000  0.24523800  0.87310700  1
  P  P1  1  0.75000000  0.74523800  0.62689300  1
  P  P2  1  0.25000000  0.75476200  0.12689300  1
  P  P3  1  0.25000000  0.25476200  0.37310700  1
loop_
_geom_bond_atom_site_label_1
_geom_bond_atom_site_label_2
_geom_bond_distance
_geom_bond_site_symmetry_2
Cr0 P0 2.413411 1_554
Cr0 P2 2.452475 1_555
Cr0 P2 2.452475 1_655
Cr0 P3 2.557216 1_655
Cr0 P3 2.557216 1_555
Cr1 P1 2.413411 1_555
Cr1 P3 2.452475 1_565
Cr1 P3 2.452475 1_665
Cr1 P2 2.557216 1_555
Cr1 P2 2.557216 1_655
Cr2 P2 2.413411 1_556
Cr2 P0 2.452475 1_555
Cr2 P0 2.452475 1_455
Cr2 P1 2.557216 1_455
Cr2 P1 2.557216 1_555
Cr3 P3 2.413411 1_555
Cr3 P1 2.452475 1_545
Cr3 P1 2.452475 1_445
Cr3 P0 2.557216 1_555
Cr3 P0 2.557216 1_455
Ni0 P0 2.231323 1_555
Ni0 P3 2.264496 1_555
Ni0 P3 2.264496 1_655
Ni0 P1 2.295351 1_555
Ni1 P1 2.231323 1_555
Ni1 P2 2.264496 1_556
Ni1 P2 2.264496 1_656
Ni1 P0 2.295351 1_565
Ni2 P2 2.231323 1_555
Ni2 P1 2.264496 1_555
Ni2 P1 2.264496 1_455
Ni2 P3 2.295351 1_555
Ni3 P3 2.231323 1_555
Ni3 P0 2.264496 1_554
Ni3 P0 2.264496 1_454
Ni3 P2 2.295351 1_545
