# generated using pymatgen
data_Mg4Si3
_symmetry_space_group_name_H-M   'P 1'
_cell_length_a   8.08814672
_cell_length_b   8.08814672
_cell_length_c   5.12169052
_cell_angle_alpha   78.97665055
_cell_angle_beta   78.97665055
_cell_angle_gamma   118.77309683
_symmetry_Int_Tables_number   1
_chemical_formula_structural   Mg4Si3
_chemical_formula_sum   'Mg8 Si6'
_cell_volume   272.19522396
_cell_formula_units_Z   2
loop_
 _symmetry_equiv_pos_site_id
 _symmetry_equiv_pos_as_xyz
  1  'x, y, z'
loop_
 _atom_site_type_symbol
 _atom_site_label
 _atom_site_symmetry_multiplicity
 _atom_site_fract_x
 _atom_site_fract_y
 _atom_site_fract_z
 _atom_site_occupancy
  Mg  Mg0  1  0.45258400  0.45258400  0.43049500  1
  Mg  Mg1  1  0.97620100  0.72344000  0.40443600  1
  Mg  Mg2  1  0.94667600  0.31449200  0.67530700  1
  Mg  Mg3  1  0.21673900  0.50051400  0.01620800  1
  Mg  Mg4  1  0.50051400  0.21673900  0.01620800  1
  Mg  Mg5  1  0.72344000  0.97620100  0.40443600  1
  Mg  Mg6  1  0.31449200  0.94667600  0.67530700  1
  Mg  Mg7  1  0.95869700  0.95869700  0.89915400  1
  Si  Si0  1  0.13083900  0.13083900  0.32342800  1
  Si  Si1  1  0.62795900  0.62795900  0.80690800  1
  Si  Si2  1  0.86525000  0.56670600  0.99106500  1
  Si  Si3  1  0.56670600  0.86525000  0.99106500  1
  Si  Si4  1  0.68195900  0.28766100  0.43271500  1
  Si  Si5  1  0.28766100  0.68195900  0.43271500  1
loop_
_geom_bond_atom_site_label_1
_geom_bond_atom_site_label_2
_geom_bond_distance
_geom_bond_site_symmetry_2
Mg0 Si4 2.757888 1_555
Mg0 Si5 2.757888 1_555
Mg0 Si1 2.809861 1_555
Mg0 Si0 2.901192 1_555
Mg0 Si1 2.970295 1_554
Mg0 Si2 3.228712 1_554
Mg0 Si3 3.228712 1_554
Mg1 Si5 2.722897 1_655
Mg1 Si2 2.748176 1_554
Mg1 Si1 2.802821 1_555
Mg1 Si2 2.802989 1_555
Mg1 Si0 2.811656 1_665
Mg1 Mg7 2.975603 1_554
Mg1 Si4 3.115390 1_555
Mg2 Si4 2.616901 1_555
Mg2 Si5 2.714742 1_655
Mg2 Mg7 2.942012 1_545
Mg2 Si2 3.059107 1_555
Mg2 Si0 3.130547 1_655
Mg2 Si3 3.219463 1_545
Mg3 Si0 2.771554 1_555
Mg3 Si5 2.808582 1_555
Mg3 Si1 2.861374 1_554
Mg3 Si5 2.875856 1_554
Mg3 Si3 2.899674 1_554
Mg3 Si2 3.156596 1_454
Mg4 Si0 2.771554 1_555
Mg4 Si4 2.808582 1_555
Mg4 Si1 2.861374 1_554
Mg4 Si4 2.875856 1_554
Mg4 Si2 2.899674 1_554
Mg4 Si3 3.156596 1_544
Mg5 Si4 2.722897 1_565
Mg5 Si3 2.748176 1_554
Mg5 Si1 2.802821 1_555
Mg5 Si3 2.802989 1_555
Mg5 Si0 2.811656 1_665
Mg5 Mg7 2.975603 1_554
Mg5 Si5 3.115390 1_555
Mg6 Si5 2.616901 1_555
Mg6 Si4 2.714742 1_565
Mg6 Mg7 2.942012 1_455
Mg6 Si3 3.059107 1_555
Mg6 Si0 3.130547 1_565
Mg6 Si2 3.219463 1_455
Mg7 Si0 2.750566 1_665
Mg7 Si2 2.798413 1_555
Mg7 Si3 2.798413 1_555
Mg7 Si1 2.934759 1_555
Mg7 Si0 3.007789 1_666
Si1 Si3 2.499496 1_555
Si1 Si2 2.499496 1_555
Si2 Si4 2.439768 1_556
Si3 Si5 2.439768 1_556
