# generated using pymatgen
data_U2Al6Pd3Pt
_symmetry_space_group_name_H-M   'P 1'
_cell_length_a   4.23194000
_cell_length_b   5.37382900
_cell_length_c   9.28824500
_cell_angle_alpha   90.00000000
_cell_angle_beta   90.00000000
_cell_angle_gamma   90.00000000
_symmetry_Int_Tables_number   1
_chemical_formula_structural   U2Al6Pd3Pt
_chemical_formula_sum   'U2 Al6 Pd3 Pt1'
_cell_volume   211.23068471
_cell_formula_units_Z   1
loop_
 _symmetry_equiv_pos_site_id
 _symmetry_equiv_pos_as_xyz
  1  'x, y, z'
loop_
 _atom_site_type_symbol
 _atom_site_label
 _atom_site_symmetry_multiplicity
 _atom_site_fract_x
 _atom_site_fract_y
 _atom_site_fract_z
 _atom_site_occupancy
  U  U0  1  0.00000000  0.50000000  0.00102200  1
  U  U1  1  0.00000000  0.00000000  0.49897900  1
  Al  Al0  1  0.50000000  0.50000000  0.50031200  1
  Al  Al1  1  0.50000000  0.00000000  0.99963500  1
  Al  Al2  1  0.50000000  0.75014100  0.25010600  1
  Al  Al3  1  0.50000000  0.24987000  0.74989500  1
  Al  Al4  1  0.50000000  0.24985900  0.25010600  1
  Al  Al5  1  0.50000000  0.75013000  0.74989500  1
  Pd  Pd0  1  0.00000000  0.00000000  0.83387800  1
  Pd  Pd1  1  0.00000000  0.00000000  0.16494300  1
  Pd  Pd2  1  0.00000000  0.50000000  0.66773000  1
  Pt  Pt0  1  0.00000000  0.50000000  0.33352000  1
loop_
_geom_bond_atom_site_label_1
_geom_bond_atom_site_label_2
_geom_bond_distance
_geom_bond_site_symmetry_2
Al0 Pt0 2.622473 1_555
Al0 Pt0 2.622473 1_655
Al0 Pd2 2.625912 1_655
Al0 Pd2 2.625912 1_555
Al0 Al3 2.679692 1_555
Al0 Al5 2.679692 1_555
Al0 Al2 2.684729 1_555
Al0 Al4 2.684729 1_555
Al0 U1 3.420087 1_555
Al0 U1 3.420087 1_565
Al0 U1 3.420087 1_655
Al0 U1 3.420087 1_665
Al1 Pd1 2.614354 1_556
Al1 Pd1 2.614354 1_656
Al1 Pd0 2.616806 1_555
Al1 Pd0 2.616806 1_655
Al1 Al5 2.680254 1_545
Al1 Al3 2.680254 1_555
Al1 Al2 2.686102 1_546
Al1 Al4 2.686102 1_556
Al1 U0 3.420088 1_556
Al1 U0 3.420088 1_656
Al1 U0 3.420088 1_546
Al1 U0 3.420088 1_646
Al2 Pt0 2.623835 1_555
Al2 Pt0 2.623835 1_655
Al2 Pd1 2.627903 1_565
Al2 Pd1 2.627903 1_665
Al2 Al4 2.685399 1_565
Al2 Al4 2.688430 1_555
Al2 U1 3.409345 1_565
Al2 U1 3.409345 1_665
Al2 U0 3.411271 1_555
Al2 U0 3.411271 1_655
Al3 Pd2 2.620403 1_655
Al3 Pd2 2.620403 1_555
Al3 Pd0 2.624655 1_655
Al3 Pd0 2.624655 1_555
Al3 Al5 2.685517 1_545
Al3 Al5 2.688312 1_555
Al3 U1 3.422263 1_555
Al3 U1 3.422263 1_655
Al3 U0 3.424146 1_556
Al3 U0 3.424146 1_656
Al4 Pt0 2.623835 1_555
Al4 Pt0 2.623835 1_655
Al4 Pd1 2.627903 1_555
Al4 Pd1 2.627903 1_655
Al4 U1 3.409345 1_655
Al4 U1 3.409345 1_555
Al4 U0 3.411271 1_555
Al4 U0 3.411271 1_655
Al5 Pd2 2.620403 1_655
Al5 Pd2 2.620403 1_555
Al5 Pd0 2.624655 1_565
Al5 Pd0 2.624655 1_665
Al5 U1 3.422263 1_565
Al5 U1 3.422263 1_665
Al5 U0 3.424146 1_656
Al5 U0 3.424146 1_556
Pd0 Pd1 3.075013 1_556
Pd0 Pd2 3.098556 1_545
Pd0 Pd2 3.098556 1_555
Pd0 U0 3.103174 1_546
Pd0 U0 3.103174 1_556
Pd0 U1 3.110624 1_555
Pd1 U0 3.088306 1_545
Pd1 U0 3.088306 1_555
Pd1 U1 3.102608 1_555
Pd1 Pt0 3.109854 1_545
Pd1 Pt0 3.109854 1_555
Pd2 U0 3.095698 1_556
Pd2 Pt0 3.104224 1_555
Pd2 U1 3.110668 1_565
Pd2 U1 3.110668 1_555
Pt0 U0 3.088323 1_555
Pt0 U1 3.095373 1_565
Pt0 U1 3.095373 1_555
