# generated using pymatgen
data_Li9Mn7O16
_symmetry_space_group_name_H-M   'P 1'
_cell_length_a   5.09692200
_cell_length_b   6.06212496
_cell_length_c   10.12263971
_cell_angle_alpha   93.26122481
_cell_angle_beta   100.17766355
_cell_angle_gamma   103.77066239
_symmetry_Int_Tables_number   1
_chemical_formula_structural   Li9Mn7O16
_chemical_formula_sum   'Li9 Mn7 O16'
_cell_volume   297.39479205
_cell_formula_units_Z   1
loop_
 _symmetry_equiv_pos_site_id
 _symmetry_equiv_pos_as_xyz
  1  'x, y, z'
loop_
 _atom_site_type_symbol
 _atom_site_label
 _atom_site_symmetry_multiplicity
 _atom_site_fract_x
 _atom_site_fract_y
 _atom_site_fract_z
 _atom_site_occupancy
  Li  Li0  1  0.50643600  0.87714600  0.62625500  1
  Li  Li1  1  0.49725300  0.37490900  0.62422800  1
  Li  Li2  1  0.49356400  0.12285400  0.37374500  1
  Li  Li3  1  0.50274700  0.62509100  0.37577200  1
  Li  Li4  1  0.50192900  0.37360000  0.12204000  1
  Li  Li5  1  0.48798200  0.87555500  0.12045100  1
  Li  Li6  1  0.49807100  0.62640000  0.87796000  1
  Li  Li7  1  0.51201800  0.12444500  0.87954900  1
  Li  Li8  1  0.00000000  0.00000000  0.00000000  1
  Mn  Mn0  1  0.99674700  0.74900900  0.75400100  1
  Mn  Mn1  1  0.00000000  0.50000000  0.00000000  1
  Mn  Mn2  1  0.99575200  0.24142800  0.75427800  1
  Mn  Mn3  1  0.00000000  0.00000000  0.50000000  1
  Mn  Mn4  1  0.00000000  0.50000000  0.50000000  1
  Mn  Mn5  1  0.00325300  0.25099100  0.24599900  1
  Mn  Mn6  1  0.00424800  0.75857200  0.24572200  1
  O  O0  1  0.22005800  0.55702200  0.68438000  1
  O  O1  1  0.23368300  0.07277900  0.68288600  1
  O  O2  1  0.22999100  0.82180700  0.43078300  1
  O  O3  1  0.23238700  0.32455400  0.43115200  1
  O  O4  1  0.22839100  0.06066900  0.19397000  1
  O  O5  1  0.23458600  0.57639400  0.17759500  1
  O  O6  1  0.22631600  0.32096300  0.93108200  1
  O  O7  1  0.21415000  0.77630100  0.93552500  1
  O  O8  1  0.77000900  0.17819300  0.56921700  1
  O  O9  1  0.76761300  0.67544600  0.56884800  1
  O  O10  1  0.77994200  0.44297800  0.31562000  1
  O  O11  1  0.76631700  0.92722100  0.31711400  1
  O  O12  1  0.77368400  0.67903700  0.06891800  1
  O  O13  1  0.78585000  0.22369900  0.06447500  1
  O  O14  1  0.77160900  0.93933100  0.80603000  1
  O  O15  1  0.76541400  0.42360600  0.82240500  1
loop_
_geom_bond_atom_site_label_1
_geom_bond_atom_site_label_2
_geom_bond_distance
_geom_bond_site_symmetry_2
Li0 O14 2.022540 1_555
Li0 O9 2.138292 1_555
Li0 O1 2.157998 1_565
Li0 O8 2.166910 1_565
Li0 O2 2.174224 1_555
Li0 O0 2.308179 1_555
Li1 O3 2.130493 1_555
Li1 O0 2.134426 1_555
Li1 O8 2.156891 1_555
Li1 O9 2.174038 1_555
Li1 O1 2.178558 1_555
Li1 O15 2.179714 1_555
Li2 O4 2.022540 1_555
Li2 O3 2.138292 1_555
Li2 O11 2.157998 1_545
Li2 O2 2.166910 1_545
Li2 O8 2.174224 1_555
Li2 O10 2.308179 1_555
Li3 O9 2.130493 1_555
Li3 O10 2.134426 1_555
Li3 O2 2.156891 1_555
Li3 O3 2.174038 1_555
Li3 O11 2.178558 1_555
Li3 O5 2.179714 1_555
Li4 O13 2.030590 1_555
Li4 O6 2.137402 1_554
Li4 O10 2.160052 1_555
Li4 O5 2.161940 1_555
Li4 O12 2.188983 1_555
Li4 O4 2.308560 1_555
Li5 O7 2.088756 1_554
Li5 O4 2.126876 1_565
Li5 O5 2.135400 1_555
Li5 O11 2.189339 1_555
Li5 O12 2.198979 1_555
Li5 O13 2.448441 1_565
Li6 O7 2.030590 1_555
Li6 O12 2.137402 1_556
Li6 O0 2.160052 1_555
Li6 O15 2.161940 1_555
Li6 O6 2.188983 1_555
Li6 O14 2.308560 1_555
Li7 O13 2.088756 1_556
Li7 O14 2.126876 1_545
Li7 O15 2.135400 1_555
Li7 O1 2.189339 1_555
Li7 O6 2.198979 1_555
Li7 O7 2.448441 1_545
Li8 O14 2.062016 1_444
Li8 O4 2.062016 1_555
Li8 O7 2.076550 1_544
Li8 O13 2.076550 1_455
Li8 O6 2.230120 1_554
Li8 O12 2.230120 1_445
Mn0 O14 1.923553 1_555
Mn0 O7 1.946846 1_655
Mn0 O9 1.989718 1_555
Mn0 O0 1.991863 1_655
Mn0 O15 2.257792 1_555
Mn0 O1 2.273435 1_665
Mn1 O15 1.938544 1_454
Mn1 O5 1.938544 1_555
Mn1 O12 1.946671 1_455
Mn1 O6 1.946671 1_554
Mn1 O13 1.982078 1_455
Mn1 O7 1.982078 1_554
Mn2 O6 1.924938 1_655
Mn2 O1 1.963185 1_655
Mn2 O15 1.972382 1_555
Mn2 O8 1.981585 1_555
Mn2 O14 2.063508 1_545
Mn2 O0 2.206017 1_655
Mn3 O8 1.959330 1_455
Mn3 O2 1.959330 1_545
Mn3 O11 1.979445 1_445
Mn3 O1 1.979445 1_555
Mn3 O9 2.257862 1_445
Mn3 O3 2.257862 1_555
Mn4 O9 1.956263 1_455
Mn4 O3 1.956263 1_555
Mn4 O10 1.965506 1_455
Mn4 O0 1.965506 1_555
Mn4 O2 2.242300 1_555
Mn4 O8 2.242300 1_455
Mn5 O4 1.923553 1_555
Mn5 O13 1.946846 1_455
Mn5 O3 1.989718 1_555
Mn5 O10 1.991863 1_455
Mn5 O5 2.257792 1_555
Mn5 O11 2.273435 1_445
Mn6 O12 1.924938 1_455
Mn6 O11 1.963185 1_455
Mn6 O5 1.972382 1_555
Mn6 O2 1.981585 1_555
Mn6 O4 2.063508 1_565
Mn6 O10 2.206017 1_455
