# generated using pymatgen
data_LiVZnO4
_symmetry_space_group_name_H-M   'P 1'
_cell_length_a   8.90811041
_cell_length_b   8.90811041
_cell_length_c   8.90811057
_cell_angle_alpha   107.82562209
_cell_angle_beta   107.82562209
_cell_angle_gamma   107.82563342
_symmetry_Int_Tables_number   1
_chemical_formula_structural   LiVZnO4
_chemical_formula_sum   'Li6 V6 Zn6 O24'
_cell_volume   574.93729658
_cell_formula_units_Z   6
loop_
 _symmetry_equiv_pos_site_id
 _symmetry_equiv_pos_as_xyz
  1  'x, y, z'
loop_
 _atom_site_type_symbol
 _atom_site_label
 _atom_site_symmetry_multiplicity
 _atom_site_fract_x
 _atom_site_fract_y
 _atom_site_fract_z
 _atom_site_occupancy
  Li  Li0  1  0.20355800  0.43878300  0.61069000  1
  Li  Li1  1  0.43878300  0.61069000  0.20355800  1
  Li  Li2  1  0.61069000  0.20355800  0.43878300  1
  Li  Li3  1  0.89553200  0.72431600  0.12647700  1
  Li  Li4  1  0.72431600  0.12647700  0.89553200  1
  Li  Li5  1  0.12647700  0.89553200  0.72431600  1
  V  V0  1  0.53785600  0.76651100  0.94499100  1
  V  V1  1  0.76651100  0.94499100  0.53785600  1
  V  V2  1  0.94499100  0.53785600  0.76651100  1
  V  V3  1  0.46169700  0.23285300  0.05436700  1
  V  V4  1  0.23285300  0.05436700  0.46169700  1
  V  V5  1  0.05436700  0.46169700  0.23285300  1
  Zn  Zn0  1  0.79600900  0.56187300  0.38911000  1
  Zn  Zn1  1  0.56187300  0.38911000  0.79600900  1
  Zn  Zn2  1  0.38911000  0.79600900  0.56187300  1
  Zn  Zn3  1  0.10454500  0.27532400  0.87291500  1
  Zn  Zn4  1  0.27532400  0.87291500  0.10454500  1
  Zn  Zn5  1  0.87291500  0.10454500  0.27532400  1
  O  O0  1  0.39024000  0.68667600  0.72520600  1
  O  O1  1  0.68667600  0.72520600  0.39024000  1
  O  O2  1  0.72520600  0.39024000  0.68667600  1
  O  O3  1  0.61156400  0.31626700  0.27517200  1
  O  O4  1  0.31626700  0.27517200  0.61156400  1
  O  O5  1  0.27517200  0.61156400  0.31626700  1
  O  O6  1  0.69504700  0.98351400  0.02810400  1
  O  O7  1  0.98351400  0.02810400  0.69504700  1
  O  O8  1  0.02810400  0.69504700  0.98351400  1
  O  O9  1  0.30619400  0.01701800  0.97380700  1
  O  O10  1  0.01701800  0.97380700  0.30619400  1
  O  O11  1  0.97380700  0.30619400  0.01701800  1
  O  O12  1  0.42493200  0.75433100  0.07351800  1
  O  O13  1  0.75433100  0.07351800  0.42493200  1
  O  O14  1  0.07351800  0.42493200  0.75433100  1
  O  O15  1  0.57498800  0.24551900  0.92626300  1
  O  O16  1  0.24551900  0.92626300  0.57498800  1
  O  O17  1  0.92626300  0.57498800  0.24551900  1
  O  O18  1  0.64673300  0.63474100  0.96198200  1
  O  O19  1  0.63474100  0.96198200  0.64673300  1
  O  O20  1  0.96198200  0.64673300  0.63474100  1
  O  O21  1  0.35108800  0.36329100  0.03639600  1
  O  O22  1  0.36329100  0.03639600  0.35108800  1
  O  O23  1  0.03639600  0.35108800  0.36329100  1
loop_
_geom_bond_atom_site_label_1
_geom_bond_atom_site_label_2
_geom_bond_distance
_geom_bond_site_symmetry_2
Li0 O23 1.977161 1_555
Li0 O14 1.977650 1_555
Li0 O0 2.004096 1_555
Li0 O4 2.007586 1_555
Li1 O21 1.977161 1_555
Li1 O12 1.977650 1_555
Li1 O1 2.004097 1_555
Li1 O5 2.007586 1_555
Li2 O22 1.977160 1_555
Li2 O13 1.977650 1_555
Li2 O2 2.004097 1_555
Li2 O3 2.007586 1_555
Li3 O17 1.969226 1_555
Li3 O18 1.977135 1_554
Li3 O10 1.990464 1_655
Li3 O8 1.997642 1_654
Li4 O15 1.969226 1_555
Li4 O19 1.977135 1_545
Li4 O11 1.990464 1_556
Li4 O6 1.997642 1_546
Li5 O16 1.969226 1_555
Li5 O20 1.977134 1_455
Li5 O9 1.990464 1_565
Li5 O7 1.997642 1_465
O0 V0 1.751257 1_555
O0 Zn2 1.982500 1_555
O1 V1 1.751257 1_555
O1 Zn0 1.982500 1_555
O2 V2 1.751257 1_555
O2 Zn1 1.982500 1_555
O3 V3 1.758824 1_555
O3 Zn0 1.983725 1_555
O4 V4 1.758824 1_555
O4 Zn1 1.983725 1_555
O5 V5 1.758824 1_555
O5 Zn2 1.983725 1_555
O6 V0 1.754286 1_554
O6 Zn5 1.971538 1_565
O7 V1 1.754287 1_545
O7 Zn3 1.971538 1_655
O8 V2 1.754287 1_455
O8 Zn4 1.971538 1_556
O9 V3 1.745443 1_556
O9 Zn4 1.993764 1_546
O10 V4 1.745443 1_565
O10 Zn5 1.993765 1_465
O11 V5 1.745443 1_655
O11 Zn3 1.993765 1_654
O12 V0 1.746119 1_554
O12 Zn4 1.969047 1_555
O13 V1 1.746119 1_545
O13 Zn5 1.969047 1_555
O14 V2 1.746119 1_455
O14 Zn3 1.969047 1_555
O15 V3 1.745769 1_556
O15 Zn1 1.978213 1_555
O16 V4 1.745769 1_565
O16 Zn2 1.978213 1_555
O17 V5 1.745769 1_655
O17 Zn0 1.978213 1_555
O18 V0 1.748534 1_555
O18 Zn1 1.966616 1_555
O19 V1 1.748534 1_555
O19 Zn2 1.966616 1_555
O20 V2 1.748534 1_555
O20 Zn0 1.966617 1_555
O21 V3 1.750682 1_555
O21 Zn3 1.961575 1_554
O22 V4 1.750682 1_555
O22 Zn4 1.961575 1_545
O23 V5 1.750682 1_555
O23 Zn5 1.961575 1_455
