# generated using pymatgen
data_AlZn2Sb(HO)12
_symmetry_space_group_name_H-M   'P 1'
_cell_length_a   5.73115400
_cell_length_b   5.73115404
_cell_length_c   32.85830000
_cell_angle_alpha   90.00000000
_cell_angle_beta   90.00000000
_cell_angle_gamma   119.99999979
_symmetry_Int_Tables_number   1
_chemical_formula_structural   AlZn2Sb(HO)12
_chemical_formula_sum   'Al3 Zn6 Sb3 H36 O36'
_cell_volume   934.67339892
_cell_formula_units_Z   3
loop_
 _symmetry_equiv_pos_site_id
 _symmetry_equiv_pos_as_xyz
  1  'x, y, z'
loop_
 _atom_site_type_symbol
 _atom_site_label
 _atom_site_symmetry_multiplicity
 _atom_site_fract_x
 _atom_site_fract_y
 _atom_site_fract_z
 _atom_site_occupancy
  Al  Al0  1  0.00000000  0.00000000  0.49042300  1
  Al  Al1  1  0.00000000  0.00000000  0.83561500  1
  Al  Al2  1  0.66666700  0.33333300  0.07139500  1
  Zn  Zn0  1  0.00000000  0.00000000  0.21840100  1
  Zn  Zn1  1  0.33333300  0.66666700  0.22181900  1
  Zn  Zn2  1  0.33333300  0.66666700  0.88150100  1
  Zn  Zn3  1  0.33333300  0.66666700  0.52684200  1
  Zn  Zn4  1  0.66666700  0.33333300  0.44079300  1
  Zn  Zn5  1  0.66666700  0.33333300  0.80141500  1
  Sb  Sb0  1  0.00000000  0.00000000  0.06525500  1
  Sb  Sb1  1  0.00000000  0.00000000  0.32662400  1
  Sb  Sb2  1  0.00000000  0.00000000  0.66642600  1
  H  H0  1  0.17891800  0.32565900  0.52458200  1
  H  H1  1  0.18606100  0.32591500  0.85699500  1
  H  H2  1  0.17091000  0.33585400  0.20443000  1
  H  H3  1  0.43376000  0.91836900  0.02958100  1
  H  H4  1  0.39580200  0.90166900  0.37346100  1
  H  H5  1  0.45462600  0.98852700  0.71993100  1
  H  H6  1  0.08163100  0.51539000  0.02958100  1
  H  H7  1  0.09833100  0.49413300  0.37346100  1
  H  H8  1  0.01147300  0.46610000  0.71993100  1
  H  H9  1  0.14674100  0.82108200  0.52458200  1
  H  H10  1  0.13985400  0.81393900  0.85699500  1
  H  H11  1  0.16494400  0.82909000  0.20443000  1
  H  H12  1  0.67434100  0.85325900  0.52458200  1
  H  H13  1  0.67408500  0.86014600  0.85699500  1
  H  H14  1  0.66414600  0.83505600  0.20443000  1
  H  H15  1  0.48461000  0.56624000  0.02958100  1
  H  H16  1  0.53390000  0.54537400  0.71993100  1
  H  H17  1  0.50586700  0.60419800  0.37346100  1
  H  H18  1  0.46742700  0.41566900  0.28196900  1
  H  H19  1  0.46608100  0.45799300  0.61288000  1
  H  H20  1  0.45895400  0.38008200  0.96203900  1
  H  H21  1  0.32684800  0.14160400  0.80365600  1
  H  H22  1  0.32835100  0.98642800  0.12257700  1
  H  H23  1  0.32667100  0.13747000  0.46949100  1
  H  H24  1  0.85839600  0.18524600  0.80365600  1
  H  H25  1  0.01357200  0.34192300  0.12257700  1
  H  H26  1  0.86253000  0.18920100  0.46949100  1
  H  H27  1  0.94824200  0.53257300  0.28196900  1
  H  H28  1  0.99191200  0.53391900  0.61288000  1
  H  H29  1  0.92112800  0.54104600  0.96203900  1
  H  H30  1  0.54200700  0.00808800  0.61288000  1
  H  H31  1  0.58433100  0.05175800  0.28196900  1
  H  H32  1  0.61991800  0.07887200  0.96203900  1
  H  H33  1  0.81475400  0.67315200  0.80365600  1
  H  H34  1  0.65807700  0.67164900  0.12257700  1
  H  H35  1  0.81079900  0.67332900  0.46949100  1
  O  O0  1  0.66010100  0.83994200  0.70055000  1
  O  O1  1  0.86803200  0.20898700  0.10576300  1
  O  O2  1  0.72464000  0.05918600  0.40682800  1
  O  O3  1  0.97101700  0.57861800  0.04249400  1
  O  O4  1  0.02572700  0.61558000  0.36718400  1
  O  O5  1  0.96879200  0.61187400  0.72747400  1
  O  O6  1  0.42138200  0.39240000  0.04249400  1
  O  O7  1  0.38442000  0.41014600  0.36718400  1
  O  O8  1  0.38812600  0.35691800  0.72747400  1
  O  O9  1  0.16005800  0.82015800  0.70055000  1
  O  O10  1  0.79101300  0.65904400  0.10576300  1
  O  O11  1  0.94081400  0.66545300  0.40682800  1
  O  O12  1  0.17984200  0.33989900  0.70055000  1
  O  O13  1  0.34095600  0.13196800  0.10576300  1
  O  O14  1  0.33454700  0.27536000  0.40682800  1
  O  O15  1  0.64308200  0.03120800  0.72747400  1
  O  O16  1  0.60760000  0.02898300  0.04249400  1
  O  O17  1  0.58985400  0.97427300  0.36718400  1
  O  O18  1  0.37851600  0.93023600  0.28142900  1
  O  O19  1  0.35483600  0.96893900  0.60537900  1
  O  O20  1  0.42530600  0.02003100  0.95829100  1
  O  O21  1  0.81949200  0.65941700  0.63269500  1
  O  O22  1  0.61597400  0.61522500  0.91637900  1
  O  O23  1  0.83735900  0.71130400  0.27844000  1
  O  O24  1  0.83992600  0.18050800  0.63269500  1
  O  O25  1  0.99925000  0.38402600  0.91637900  1
  O  O26  1  0.87394400  0.16264100  0.27844000  1
  O  O27  1  0.55172000  0.62148400  0.28142900  1
  O  O28  1  0.61410400  0.64516400  0.60537900  1
  O  O29  1  0.59472600  0.57469400  0.95829100  1
  O  O30  1  0.06976400  0.44828000  0.28142900  1
  O  O31  1  0.03106100  0.38589600  0.60537900  1
  O  O32  1  0.97996900  0.40527400  0.95829100  1
  O  O33  1  0.34058300  0.16007400  0.63269500  1
  O  O34  1  0.38477500  0.00075000  0.91637900  1
  O  O35  1  0.28869600  0.12605600  0.27844000  1
loop_
_geom_bond_atom_site_label_1
_geom_bond_atom_site_label_2
_geom_bond_distance
_geom_bond_site_symmetry_2
Al0 H23 1.767451 1_555
Al0 H26 1.767451 1_455
Al0 H35 1.767451 1_445
Al0 H12 1.969998 1_445
Al0 H9 1.969998 1_545
Al0 H0 1.969998 1_555
Al1 H13 1.768546 1_445
Al1 H10 1.768546 1_545
Al1 H1 1.768546 1_555
Al1 H21 1.936515 1_555
Al1 H33 1.936516 1_445
Al1 H24 1.936524 1_455
Al2 O16 1.862373 1_555
Al2 O3 1.862377 1_555
Al2 O6 1.862383 1_555
Al2 O1 1.984287 1_555
Al2 O13 1.984287 1_555
Al2 O10 1.984287 1_555
H0 Zn3 1.696669 1_555
H1 Zn2 1.877842 1_555
H2 Zn0 1.729093 1_555
H2 Zn1 1.738592 1_555
H3 O16 0.971049 1_565
H4 O17 0.994874 1_555
H5 O15 1.011741 1_565
H5 O9 1.599282 1_555
H6 O3 0.971057 1_455
H7 O4 0.994869 1_555
H8 O5 1.011735 1_455
H8 O12 1.599290 1_555
H9 Zn3 1.696664 1_555
H10 Zn2 1.877838 1_555
H11 Zn0 1.729093 1_565
H11 Zn1 1.738587 1_555
H12 Zn3 1.696669 1_555
H13 Zn2 1.877842 1_555
H14 Zn0 1.729093 1_665
H14 Zn1 1.738592 1_555
H15 O6 0.971047 1_555
H16 O8 1.011739 1_555
H16 O0 1.599281 1_555
H17 O7 0.994874 1_555
H18 O27 1.027236 1_555
H18 O35 1.455160 1_555
H19 O28 1.010499 1_555
H19 O33 1.621251 1_555
H20 O29 0.998385 1_555
H21 Zn5 1.692864 1_555
H22 O13 0.972594 1_565
H23 Zn4 1.938776 1_555
H24 Zn5 1.692850 1_555
H25 O1 0.972596 1_455
H26 Zn4 1.938772 1_555
H27 O30 1.027236 1_655
H27 O23 1.455165 1_555
H28 O31 1.010503 1_655
H28 O21 1.621247 1_555
H29 O32 0.998390 1_555
H30 O19 1.010497 1_545
H30 O24 1.621251 1_555
H31 O18 1.027236 1_545
H31 O26 1.455159 1_555
H32 O20 0.998384 1_555
H33 Zn5 1.692865 1_555
H34 O10 0.972598 1_555
H35 Zn4 1.938777 1_555
O0 O15 1.449374 1_565
O0 Sb2 2.026450 1_665
O1 Sb0 2.164282 1_655
O2 Zn4 2.084838 1_555
O3 Sb0 2.453167 1_665
O4 Sb1 2.641349 1_565
O5 O9 1.449372 1_655
O6 Sb0 2.453170 1_555
O7 Sb1 2.641346 1_555
O9 Sb2 2.026454 1_565
O10 Sb0 2.164285 1_665
O11 O4 1.467815 1_655
O11 Zn4 2.084838 1_555
O12 O8 1.449370 1_555
O12 Sb2 2.026450 1_555
O13 Sb0 2.164286 1_555
O14 O7 1.467815 1_555
O14 Zn4 2.084838 1_555
O16 Sb0 2.453173 1_655
O17 O2 1.467815 1_565
O17 Sb1 2.641344 1_665
O18 O35 1.453221 1_565
O18 Zn1 2.407096 1_555
O19 O33 1.449730 1_565
O20 O34 1.391784 1_555
O21 O28 1.449730 1_555
O21 Sb2 2.022223 1_665
O22 O29 1.391784 1_555
O22 Zn2 2.121750 1_555
O23 O27 1.453216 1_555
O23 Sb1 2.137951 1_665
O23 Zn0 2.440498 1_665
O24 O31 1.449730 1_655
O24 Sb2 2.022219 1_655
O25 O32 1.391782 1_555
O25 Zn2 2.121750 1_655
O26 O30 1.453217 1_655
O26 Sb1 2.137954 1_655
O26 Zn0 2.440501 1_655
O27 Zn1 2.407099 1_555
O30 Zn1 2.407097 1_555
O33 Sb2 2.022223 1_555
O34 Zn2 2.121750 1_545
O35 Sb1 2.137951 1_555
O35 Zn0 2.440498 1_555
