# generated using pymatgen
data_Cs4Sr(SnSe3)3
_symmetry_space_group_name_H-M   'P 1'
_cell_length_a   9.27851890
_cell_length_b   9.27851890
_cell_length_c   9.27851868
_cell_angle_alpha   107.93999237
_cell_angle_beta   107.93999237
_cell_angle_gamma   107.94000315
_symmetry_Int_Tables_number   1
_chemical_formula_structural   Cs4Sr(SnSe3)3
_chemical_formula_sum   'Cs4 Sr1 Sn3 Se9'
_cell_volume   647.42979943
_cell_formula_units_Z   1
loop_
 _symmetry_equiv_pos_site_id
 _symmetry_equiv_pos_as_xyz
  1  'x, y, z'
loop_
 _atom_site_type_symbol
 _atom_site_label
 _atom_site_symmetry_multiplicity
 _atom_site_fract_x
 _atom_site_fract_y
 _atom_site_fract_z
 _atom_site_occupancy
  Cs  Cs0  1  0.61294700  0.72530500  0.18630700  1
  Cs  Cs1  1  0.18630700  0.61294700  0.72530500  1
  Cs  Cs2  1  0.72530500  0.18630700  0.61294700  1
  Cs  Cs3  1  0.85689100  0.85689100  0.85689100  1
  Sr  Sr0  1  0.31587400  0.31587400  0.31587400  1
  Sn  Sn0  1  0.20439800  0.78929900  0.33483300  1
  Sn  Sn1  1  0.33483300  0.20439800  0.78929900  1
  Sn  Sn2  1  0.78929900  0.33483300  0.20439800  1
  Se  Se0  1  0.91968000  0.54259700  0.08959000  1
  Se  Se1  1  0.08959000  0.91968000  0.54259700  1
  Se  Se2  1  0.54259700  0.08959000  0.91968000  1
  Se  Se3  1  0.42246500  0.70871800  0.48232400  1
  Se  Se4  1  0.48232400  0.42246500  0.70871700  1
  Se  Se5  1  0.70871800  0.48232400  0.42246500  1
  Se  Se6  1  0.30351500  0.95230300  0.18321600  1
  Se  Se7  1  0.18321600  0.30351500  0.95230300  1
  Se  Se8  1  0.95230300  0.18321600  0.30351500  1
loop_
_geom_bond_atom_site_label_1
_geom_bond_atom_site_label_2
_geom_bond_distance
_geom_bond_site_symmetry_2
Cs0 Se5 3.708329 1_555
Cs0 Se3 3.711396 1_555
Cs0 Se0 3.922693 1_555
Cs0 Se7 3.968343 1_554
Cs0 Se4 3.990474 1_554
Cs0 Se8 3.993929 1_565
Cs0 Se1 4.018324 1_655
Cs0 Se6 4.048667 1_555
Cs1 Se3 3.708328 1_555
Cs1 Se4 3.711398 1_555
Cs1 Se1 3.922693 1_555
Cs1 Se8 3.968343 1_455
Cs1 Se5 3.990467 1_455
Cs1 Se6 3.993929 1_556
Cs1 Se2 4.018323 1_565
Cs1 Se7 4.048666 1_555
Cs2 Se4 3.708327 1_555
Cs2 Se5 3.711396 1_555
Cs2 Se2 3.922693 1_555
Cs2 Se6 3.968343 1_545
Cs2 Se3 3.990466 1_545
Cs2 Se7 3.993929 1_655
Cs2 Se0 4.018324 1_556
Cs2 Se8 4.048666 1_555
Cs3 Se4 3.902416 1_555
Cs3 Se3 3.902418 1_555
Cs3 Se5 3.902418 1_555
Cs3 Se7 3.934874 1_665
Cs3 Se8 3.934874 1_566
Cs3 Se6 3.934874 1_656
Cs3 Se1 4.201877 1_655
Cs3 Se0 4.201877 1_556
Cs3 Se2 4.201878 1_565
Se0 Sn0 2.599847 1_655
Se0 Sn2 2.633762 1_555
Se1 Sn1 2.599847 1_565
Se1 Sn0 2.633762 1_555
Se2 Sn2 2.599847 1_556
Se2 Sn1 2.633762 1_555
Se3 Sn0 2.526300 1_555
Se3 Sr0 3.165398 1_555
Se4 Sn1 2.526306 1_555
Se4 Sr0 3.165390 1_555
Se5 Sn2 2.526300 1_555
Se5 Sr0 3.165398 1_555
Se6 Sn0 2.522526 1_555
Se6 Sr0 3.166200 1_565
Se7 Sn1 2.522527 1_555
Se7 Sr0 3.166200 1_556
Se8 Sn2 2.522527 1_555
Se8 Sr0 3.166200 1_655
