# generated using pymatgen
data_InCN2
_symmetry_space_group_name_H-M   'P 1'
_cell_length_a   3.77819600
_cell_length_b   3.77826639
_cell_length_c   9.84206200
_cell_angle_alpha   90.00000000
_cell_angle_beta   90.00000000
_cell_angle_gamma   119.99938369
_symmetry_Int_Tables_number   1
_chemical_formula_structural   InCN2
_chemical_formula_sum   'In2 C2 N4'
_cell_volume   121.67363552
_cell_formula_units_Z   2
loop_
 _symmetry_equiv_pos_site_id
 _symmetry_equiv_pos_as_xyz
  1  'x, y, z'
loop_
 _atom_site_type_symbol
 _atom_site_label
 _atom_site_symmetry_multiplicity
 _atom_site_fract_x
 _atom_site_fract_y
 _atom_site_fract_z
 _atom_site_occupancy
  In  In0  1  0.00000000  0.00000000  0.00000000  1
  In  In1  1  0.00000000  0.00000000  0.50000000  1
  C  C0  1  0.66668400  0.33336800  0.25000000  1
  C  C1  1  0.33331600  0.66663200  0.75000000  1
  N  N0  1  0.66668800  0.33337600  0.12369600  1
  N  N1  1  0.33331200  0.66662400  0.87630400  1
  N  N2  1  0.33331200  0.66662400  0.62369600  1
  N  N3  1  0.66668800  0.33337600  0.37630400  1
loop_
_geom_bond_atom_site_label_1
_geom_bond_atom_site_label_2
_geom_bond_distance
_geom_bond_site_symmetry_2
In0 N1 2.498000 1_554
In0 N0 2.498000 1_445
In0 N0 2.498147 1_555
In0 N0 2.498147 1_455
In0 N1 2.498147 1_544
In0 N1 2.498147 1_444
In1 N2 2.498000 1_555
In1 N3 2.498000 1_445
In1 N3 2.498147 1_555
In1 N3 2.498147 1_455
In1 N2 2.498147 1_445
In1 N2 2.498147 1_545
C0 N0 1.243092 1_555
C0 N3 1.243092 1_555
C1 N1 1.243092 1_555
C1 N2 1.243092 1_555
