# generated using pymatgen
data_LiDyF2
_symmetry_space_group_name_H-M   'P 1'
_cell_length_a   7.88399293
_cell_length_b   7.88399293
_cell_length_c   7.88399293
_cell_angle_alpha   131.73723273
_cell_angle_beta   131.73723273
_cell_angle_gamma   70.64435716
_symmetry_Int_Tables_number   1
_chemical_formula_structural   LiDyF2
_chemical_formula_sum   'Li4 Dy4 F8'
_cell_volume   267.31870066
_cell_formula_units_Z   4
loop_
 _symmetry_equiv_pos_site_id
 _symmetry_equiv_pos_as_xyz
  1  'x, y, z'
loop_
 _atom_site_type_symbol
 _atom_site_label
 _atom_site_symmetry_multiplicity
 _atom_site_fract_x
 _atom_site_fract_y
 _atom_site_fract_z
 _atom_site_occupancy
  Li  Li0  1  0.37500000  0.12500000  0.25000000  1
  Li  Li1  1  0.87500000  0.12500000  0.75000000  1
  Li  Li2  1  0.87500000  0.12500000  0.25000000  1
  Li  Li3  1  0.87500000  0.62500000  0.75000000  1
  Dy  Dy0  1  0.87500000  0.62500000  0.25000000  1
  Dy  Dy1  1  0.37500000  0.62500000  0.75000000  1
  Dy  Dy2  1  0.37500000  0.62500000  0.25000000  1
  Dy  Dy3  1  0.37500000  0.12500000  0.75000000  1
  F  F0  1  0.19225300  0.45559000  0.26333700  1
  F  F1  1  0.19225300  0.92891600  0.73666300  1
  F  F2  1  0.20559000  0.44225300  0.76333700  1
  F  F3  1  0.55774700  0.79441000  0.23666300  1
  F  F4  1  0.67891600  0.44225300  0.23666300  1
  F  F5  1  0.55774700  0.32108400  0.76333700  1
  F  F6  1  0.54441000  0.80774700  0.73666300  1
  F  F7  1  0.07108400  0.80774700  0.26333700  1
loop_
_geom_bond_atom_site_label_1
_geom_bond_atom_site_label_2
_geom_bond_distance
_geom_bond_site_symmetry_2
Dy0 F7 2.352670 1_655
Dy0 F4 2.352670 1_555
Dy0 F1 2.381902 1_655
Dy0 F5 2.381902 1_554
Dy0 F3 2.381902 1_555
Dy0 F0 2.381902 1_655
Dy1 F6 2.352670 1_555
Dy1 F2 2.352670 1_555
Dy1 F5 2.381902 1_555
Dy1 F0 2.381902 1_555
Dy1 F1 2.381902 1_555
Dy1 F3 2.381902 1_556
Dy2 F3 2.352670 1_555
Dy2 F0 2.352670 1_555
Dy2 F6 2.381902 1_555
Dy2 F4 2.381902 1_555
Dy2 F2 2.381902 1_554
Dy2 F7 2.381902 1_555
Dy3 F1 2.352670 1_545
Dy3 F5 2.352670 1_555
Dy3 F7 2.381902 1_545
Dy3 F2 2.381902 1_555
Dy3 F6 2.381902 1_545
Dy3 F4 2.381902 1_556
F0 Li0 2.495535 1_555
F0 Li1 2.495535 1_454
F1 Li0 2.495535 1_566
F1 Li1 2.495535 1_465
F2 Li3 2.495535 1_455
F2 Li2 2.495535 1_455
F3 Li1 2.495535 1_565
F3 Li0 2.495535 1_565
F4 Li3 2.495535 1_555
F4 Li2 2.495535 1_555
F5 Li1 2.495535 1_555
F5 Li0 2.495535 1_555
F6 Li3 2.495535 1_555
F6 Li2 2.495535 1_566
F7 Li3 2.495535 1_454
F7 Li2 2.495535 1_465
