# generated using pymatgen
data_Co2PO5
_symmetry_space_group_name_H-M   'P 1'
_cell_length_a   5.35898000
_cell_length_b   5.35919400
_cell_length_c   7.31193742
_cell_angle_alpha   111.49763603
_cell_angle_beta   111.49683454
_cell_angle_gamma   90.00188167
_symmetry_Int_Tables_number   1
_chemical_formula_structural   Co2PO5
_chemical_formula_sum   'Co4 P2 O10'
_cell_volume   179.59520342
_cell_formula_units_Z   2
loop_
 _symmetry_equiv_pos_site_id
 _symmetry_equiv_pos_as_xyz
  1  'x, y, z'
loop_
 _atom_site_type_symbol
 _atom_site_label
 _atom_site_symmetry_multiplicity
 _atom_site_fract_x
 _atom_site_fract_y
 _atom_site_fract_z
 _atom_site_occupancy
  Co  Co0  1  0.00000000  0.00000000  0.00000000  1
  Co  Co1  1  0.00000000  0.50000000  0.00000000  1
  Co  Co2  1  0.00000000  0.00000000  0.50000000  1
  Co  Co3  1  0.50000000  0.00000000  0.50000000  1
  P  P0  1  0.62498300  0.37501600  0.24999700  1
  P  P1  1  0.37501700  0.62498400  0.75000300  1
  O  O0  1  0.79765100  0.30677500  0.11359600  1
  O  O1  1  0.30677100  0.79765400  0.61359400  1
  O  O2  1  0.30676200  0.31598400  0.61361000  1
  O  O3  1  0.31598800  0.30676500  0.11361200  1
  O  O4  1  0.20234900  0.69322500  0.88640400  1
  O  O5  1  0.69322900  0.20234600  0.38640600  1
  O  O6  1  0.69323800  0.68401600  0.38639000  1
  O  O7  1  0.68401200  0.69323500  0.88638800  1
  O  O8  1  0.12501000  0.87498700  0.25000100  1
  O  O9  1  0.87499000  0.12501300  0.74999900  1
loop_
_geom_bond_atom_site_label_1
_geom_bond_atom_site_label_2
_geom_bond_distance
_geom_bond_site_symmetry_2
Co0 O4 2.056241 1_544
Co0 O0 2.056241 1_455
Co0 O7 2.056271 1_444
Co0 O3 2.056271 1_555
Co0 O8 2.058964 1_545
Co0 O9 2.058964 1_454
Co1 O0 2.056349 1_455
Co1 O4 2.056349 1_554
Co1 O7 2.056624 1_454
Co1 O3 2.056624 1_555
Co1 O9 2.058855 1_454
Co1 O8 2.058855 1_555
Co2 O5 2.056212 1_455
Co2 O1 2.056212 1_545
Co2 O2 2.056252 1_555
Co2 O6 2.056252 1_445
Co2 O9 2.058907 1_455
Co2 O8 2.058907 1_545
Co3 O1 2.056343 1_545
Co3 O5 2.056343 1_555
Co3 O2 2.056620 1_555
Co3 O6 2.056620 1_545
Co3 O9 2.058823 1_555
Co3 O8 2.058823 1_545
O0 P0 1.547177 1_555
O1 P1 1.547273 1_555
O2 P1 1.546890 1_555
O3 P0 1.546814 1_555
O4 P1 1.547177 1_555
O5 P0 1.547273 1_555
O6 P0 1.546890 1_555
O7 P1 1.546814 1_555
