# generated using pymatgen
data_Mn2CrGa3S8
_symmetry_space_group_name_H-M   'P 1'
_cell_length_a   12.59162700
_cell_length_b   12.59162700
_cell_length_c   6.47659543
_cell_angle_alpha   85.14436659
_cell_angle_beta   85.14436659
_cell_angle_gamma   16.86604455
_symmetry_Int_Tables_number   1
_chemical_formula_structural   Mn2CrGa3S8
_chemical_formula_sum   'Mn2 Cr1 Ga3 S8'
_cell_volume   296.83483897
_cell_formula_units_Z   1
loop_
 _symmetry_equiv_pos_site_id
 _symmetry_equiv_pos_as_xyz
  1  'x, y, z'
loop_
 _atom_site_type_symbol
 _atom_site_label
 _atom_site_symmetry_multiplicity
 _atom_site_fract_x
 _atom_site_fract_y
 _atom_site_fract_z
 _atom_site_occupancy
  Mn  Mn0  1  0.35226200  0.35226200  0.88182700  1
  Mn  Mn1  1  0.85197200  0.85197200  0.38230300  1
  Cr  Cr0  1  0.64838400  0.64838400  0.11246700  1
  Ga  Ga0  1  0.00047000  0.00047000  0.00221700  1
  Ga  Ga1  1  0.50031400  0.50031400  0.49722800  1
  Ga  Ga2  1  0.14931800  0.14931800  0.61897200  1
  S  S0  1  0.68462200  0.68462200  0.44206400  1
  S  S1  1  0.18404800  0.18404800  0.93641200  1
  S  S2  1  0.81679900  0.81679900  0.06229900  1
  S  S3  1  0.31657400  0.31657400  0.56199400  1
  S  S4  1  0.55417800  0.55417800  0.14952200  1
  S  S5  1  0.05478500  0.05478500  0.64862600  1
  S  S6  1  0.94877000  0.94877000  0.35141800  1
  S  S7  1  0.44950500  0.44950500  0.84865200  1
loop_
_geom_bond_atom_site_label_1
_geom_bond_atom_site_label_2
_geom_bond_distance
_geom_bond_site_symmetry_2
Mn0 S2 2.319450 1_456
Mn0 S2 2.319450 1_546
Mn0 S3 2.323003 1_555
Mn0 S7 2.413544 1_555
Mn1 S3 2.316522 1_565
Mn1 S3 2.316522 1_655
Mn1 S2 2.318168 1_555
Mn1 S6 2.402496 1_555
Cr0 S1 2.307815 1_654
Cr0 S1 2.307815 1_564
Cr0 S4 2.338484 1_555
Cr0 S0 2.387782 1_555
Ga0 S7 2.495412 1_454
Ga0 S7 2.495412 1_544
Ga0 S6 2.505030 1_445
Ga0 S4 2.515670 1_455
Ga0 S4 2.515670 1_545
Ga0 S5 2.558286 1_554
Ga1 S6 2.481520 1_545
Ga1 S6 2.481520 1_455
Ga1 S7 2.507847 1_555
Ga1 S4 2.520831 1_555
Ga1 S5 2.537786 1_565
Ga1 S5 2.537786 1_655
Ga2 S1 2.297772 1_555
Ga2 S0 2.307315 1_455
Ga2 S0 2.307315 1_545
Ga2 S5 2.346290 1_555
