# generated using pymatgen
data_Ge3(SbO3)4
_symmetry_space_group_name_H-M   'P 1'
_cell_length_a   9.09561455
_cell_length_b   9.09561495
_cell_length_c   9.09561936
_cell_angle_alpha   109.47111746
_cell_angle_beta   109.47113510
_cell_angle_gamma   109.47105998
_symmetry_Int_Tables_number   1
_chemical_formula_structural   Ge3(SbO3)4
_chemical_formula_sum   'Ge6 Sb8 O24'
_cell_volume   579.26377952
_cell_formula_units_Z   2
loop_
 _symmetry_equiv_pos_site_id
 _symmetry_equiv_pos_as_xyz
  1  'x, y, z'
loop_
 _atom_site_type_symbol
 _atom_site_label
 _atom_site_symmetry_multiplicity
 _atom_site_fract_x
 _atom_site_fract_y
 _atom_site_fract_z
 _atom_site_occupancy
  Ge  Ge0  1  0.37499751  0.62499882  0.74999793  1
  Ge  Ge1  1  0.12499843  0.87499756  0.24999854  1
  Ge  Ge2  1  0.24999798  0.12499768  0.87499684  1
  Ge  Ge3  1  0.74999819  0.37499776  0.62499864  1
  Ge  Ge4  1  0.62499904  0.74999856  0.37499776  1
  Ge  Ge5  1  0.87499704  0.24999769  0.12499846  1
  Sb  Sb0  1  0.50000109  0.00000083  0.69212119  1
  Sb  Sb1  1  0.69212079  0.50000074  0.00000049  1
  Sb  Sb2  1  0.80787951  0.80787918  0.80787927  1
  Sb  Sb3  1  0.00000087  0.69212128  0.50000035  1
  Sb  Sb4  1  0.19212153  0.50000109  0.00000110  1
  Sb  Sb5  1  0.50000133  0.00000117  0.19212151  1
  Sb  Sb6  1  0.30787853  0.30787850  0.30787854  1
  Sb  Sb7  1  0.00000115  0.19212129  0.50000135  1
  O  O0  1  0.21223901  0.41314054  0.55823463  1
  O  O1  1  0.14509430  0.08685952  0.29909864  1
  O  O2  1  0.35490639  0.65400507  0.94176586  1
  O  O3  1  0.28776248  0.84599644  0.20090253  1
  O  O4  1  0.05823462  0.91314031  0.71223871  1
  O  O5  1  0.79909795  0.58685953  0.64509444  1
  O  O6  1  0.44176583  0.15400433  0.85490623  1
  O  O7  1  0.70090251  0.34599673  0.78776224  1
  O  O8  1  0.41314033  0.55823480  0.21223871  1
  O  O9  1  0.08685944  0.29909787  0.14509410  1
  O  O10  1  0.65400454  0.94176613  0.35490660  1
  O  O11  1  0.84599648  0.20090244  0.28776232  1
  O  O12  1  0.91314030  0.71223909  0.05823479  1
  O  O13  1  0.58685994  0.64509481  0.79909890  1
  O  O14  1  0.15400501  0.85490647  0.44176573  1
  O  O15  1  0.34599609  0.78776186  0.70090201  1
  O  O16  1  0.55823403  0.21223857  0.41314007  1
  O  O17  1  0.29909796  0.14509391  0.08685952  1
  O  O18  1  0.94176589  0.35490639  0.65400479  1
  O  O19  1  0.20090267  0.28776265  0.84599702  1
  O  O20  1  0.71223851  0.05823394  0.91314032  1
  O  O21  1  0.64509438  0.79909828  0.58685952  1
  O  O22  1  0.85490594  0.44176525  0.15400396  1
  O  O23  1  0.78776238  0.70090290  0.34599639  1
loop_
_geom_bond_atom_site_label_1
_geom_bond_atom_site_label_2
_geom_bond_distance
_geom_bond_site_symmetry_2
Ge0 O0 1.755906 1_555
Ge0 O15 1.755907 1_555
Ge0 O2 1.755919 1_555
Ge0 O13 1.755929 1_555
Ge1 O12 1.755906 1_455
Ge1 O14 1.755912 1_555
Ge1 O3 1.755916 1_555
Ge1 O1 1.755927 1_565
Ge2 O4 1.755901 1_545
Ge2 O6 1.755915 1_555
Ge2 O19 1.755917 1_555
Ge2 O17 1.755933 1_556
Ge3 O16 1.755911 1_555
Ge3 O7 1.755911 1_555
Ge3 O18 1.755917 1_555
Ge3 O5 1.755926 1_555
Ge4 O23 1.755909 1_555
Ge4 O8 1.755910 1_555
Ge4 O10 1.755916 1_555
Ge4 O21 1.755928 1_555
Ge5 O20 1.755907 1_554
Ge5 O11 1.755910 1_555
Ge5 O22 1.755916 1_555
Ge5 O9 1.755931 1_655
O0 Sb7 2.017370 1_555
O1 Sb6 2.017367 1_555
O2 Sb4 2.017370 1_556
O3 Sb5 2.017372 1_565
O4 Sb3 2.017369 1_555
O5 Sb2 2.017365 1_555
O6 Sb0 2.017367 1_555
O7 Sb1 2.017369 1_556
O8 Sb4 2.017364 1_555
O9 Sb6 2.017364 1_555
O10 Sb5 2.017364 1_565
O11 Sb7 2.017373 1_655
O12 Sb1 2.017370 1_555
O13 Sb2 2.017369 1_555
O14 Sb3 2.017368 1_555
O15 Sb0 2.017373 1_565
O16 Sb5 2.017366 1_555
O17 Sb6 2.017365 1_555
O18 Sb7 2.017367 1_655
O19 Sb4 2.017367 1_556
O20 Sb0 2.017367 1_555
O21 Sb2 2.017370 1_555
O22 Sb1 2.017369 1_555
O23 Sb3 2.017369 1_655
