# generated using pymatgen
data_LaMg6V
_symmetry_space_group_name_H-M   'P 1'
_cell_length_a   5.20895200
_cell_length_b   6.42766800
_cell_length_c   11.58141800
_cell_angle_alpha   90.00000000
_cell_angle_beta   90.00000000
_cell_angle_gamma   90.00000000
_symmetry_Int_Tables_number   1
_chemical_formula_structural   LaMg6V
_chemical_formula_sum   'La2 Mg12 V2'
_cell_volume   387.76225174
_cell_formula_units_Z   2
loop_
 _symmetry_equiv_pos_site_id
 _symmetry_equiv_pos_as_xyz
  1  'x, y, z'
loop_
 _atom_site_type_symbol
 _atom_site_label
 _atom_site_symmetry_multiplicity
 _atom_site_fract_x
 _atom_site_fract_y
 _atom_site_fract_z
 _atom_site_occupancy
  La  La0  1  0.50000000  0.50000000  0.16741800  1
  La  La1  1  0.50000000  0.00000000  0.66741800  1
  Mg  Mg0  1  0.50000000  0.25478700  0.41920400  1
  Mg  Mg1  1  0.50000000  0.74521300  0.41920400  1
  Mg  Mg2  1  0.00000000  0.76745400  0.08319100  1
  Mg  Mg3  1  0.00000000  0.23254600  0.08319100  1
  Mg  Mg4  1  0.00000000  0.00000000  0.32393600  1
  Mg  Mg5  1  0.00000000  0.50000000  0.33897700  1
  Mg  Mg6  1  0.50000000  0.75478700  0.91920400  1
  Mg  Mg7  1  0.50000000  0.24521300  0.91920400  1
  Mg  Mg8  1  0.00000000  0.26745400  0.58319100  1
  Mg  Mg9  1  0.00000000  0.73254600  0.58319100  1
  Mg  Mg10  1  0.00000000  0.50000000  0.82393600  1
  Mg  Mg11  1  0.00000000  0.00000000  0.83897700  1
  V  V0  1  0.50000000  0.00000000  0.16487400  1
  V  V1  1  0.50000000  0.50000000  0.66487400  1
loop_
_geom_bond_atom_site_label_1
_geom_bond_atom_site_label_2
_geom_bond_distance
_geom_bond_site_symmetry_2
La0 V0 3.213969 1_555
La0 V0 3.213969 1_565
La0 Mg3 3.269581 1_655
La0 Mg2 3.269581 1_655
La0 Mg3 3.269581 1_555
La0 Mg2 3.269581 1_555
La0 Mg5 3.275829 1_555
La0 Mg5 3.275829 1_655
La0 Mg6 3.308435 1_554
La0 Mg7 3.308435 1_554
La0 Mg1 3.314744 1_555
La0 Mg0 3.314744 1_555
La1 V1 3.213969 1_555
La1 V1 3.213969 1_545
La1 Mg8 3.269581 1_555
La1 Mg8 3.269581 1_655
La1 Mg9 3.269581 1_545
La1 Mg9 3.269581 1_645
La1 Mg11 3.275829 1_555
La1 Mg11 3.275829 1_655
La1 Mg0 3.308435 1_555
La1 Mg1 3.308435 1_545
La1 Mg6 3.314744 1_545
La1 Mg7 3.314744 1_555
Mg0 Mg1 3.152296 1_555
Mg0 Mg5 3.182898 1_555
Mg0 Mg5 3.182898 1_655
Mg0 Mg8 3.224421 1_555
Mg0 Mg8 3.224421 1_655
Mg0 V1 3.252606 1_555
Mg0 Mg4 3.268435 1_555
Mg0 Mg4 3.268435 1_655
Mg0 Mg1 3.275372 1_545
Mg0 V0 3.370163 1_555
Mg1 Mg5 3.182898 1_555
Mg1 Mg5 3.182898 1_655
Mg1 Mg9 3.224421 1_655
Mg1 Mg9 3.224421 1_555
Mg1 V1 3.252606 1_555
Mg1 Mg4 3.268435 1_565
Mg1 Mg4 3.268435 1_665
Mg1 V0 3.370163 1_565
Mg2 Mg3 2.989457 1_565
Mg2 V0 3.148402 1_465
Mg2 V0 3.148402 1_565
Mg2 Mg4 3.163558 1_565
Mg2 Mg6 3.224421 1_554
Mg2 Mg6 3.224421 1_454
Mg2 Mg5 3.425044 1_555
Mg2 Mg3 3.438211 1_555
Mg3 V0 3.148402 1_555
Mg3 V0 3.148402 1_455
Mg3 Mg4 3.163558 1_555
Mg3 Mg7 3.224421 1_454
Mg3 Mg7 3.224421 1_554
Mg3 Mg5 3.425044 1_555
Mg4 V0 3.190119 1_455
Mg4 V0 3.190119 1_555
Mg4 Mg5 3.218551 1_545
Mg4 Mg5 3.218551 1_555
Mg4 Mg8 3.459852 1_555
Mg4 Mg9 3.459852 1_545
Mg5 Mg8 3.199023 1_555
Mg5 Mg9 3.199023 1_555
Mg6 Mg7 3.152296 1_565
Mg6 V0 3.252606 1_566
Mg6 Mg7 3.275372 1_555
Mg6 V1 3.370163 1_555
Mg7 V0 3.252606 1_556
Mg7 V1 3.370163 1_555
Mg8 Mg9 2.989457 1_555
Mg8 V1 3.148402 1_455
Mg8 V1 3.148402 1_555
Mg8 Mg9 3.438211 1_545
Mg9 V1 3.148402 1_555
Mg9 V1 3.148402 1_455
Mg10 Mg8 3.163558 1_555
Mg10 Mg9 3.163558 1_555
Mg10 V1 3.190119 1_555
Mg10 V1 3.190119 1_455
Mg10 Mg11 3.218551 1_555
Mg10 Mg11 3.218551 1_565
Mg10 Mg7 3.268435 1_455
Mg10 Mg7 3.268435 1_555
Mg10 Mg6 3.268435 1_555
Mg10 Mg6 3.268435 1_455
Mg10 Mg3 3.459852 1_556
Mg10 Mg2 3.459852 1_556
Mg11 Mg7 3.182898 1_555
Mg11 Mg6 3.182898 1_445
Mg11 Mg6 3.182898 1_545
Mg11 Mg7 3.182898 1_455
Mg11 Mg3 3.199023 1_556
Mg11 Mg2 3.199023 1_546
Mg11 Mg8 3.425044 1_555
Mg11 Mg9 3.425044 1_545
