# generated using pymatgen
data_Nd(Fe5Re)2
_symmetry_space_group_name_H-M   'P 1'
_cell_length_a   4.68697200
_cell_length_b   6.55968944
_cell_length_c   6.55968944
_cell_angle_alpha   95.68096268
_cell_angle_beta   110.93175971
_cell_angle_gamma   69.06824029
_symmetry_Int_Tables_number   1
_chemical_formula_structural   Nd(Fe5Re)2
_chemical_formula_sum   'Nd1 Fe10 Re2'
_cell_volume   175.84279610
_cell_formula_units_Z   1
loop_
 _symmetry_equiv_pos_site_id
 _symmetry_equiv_pos_as_xyz
  1  'x, y, z'
loop_
 _atom_site_type_symbol
 _atom_site_label
 _atom_site_symmetry_multiplicity
 _atom_site_fract_x
 _atom_site_fract_y
 _atom_site_fract_z
 _atom_site_occupancy
  Nd  Nd0  1  0.00000000  0.00000000  0.00000000  1
  Fe  Fe0  1  0.72467800  0.77532200  0.22467800  1
  Fe  Fe1  1  0.27532200  0.22467800  0.77532200  1
  Fe  Fe2  1  0.50000000  0.76526700  0.76526700  1
  Fe  Fe3  1  0.50000000  0.23473300  0.23473300  1
  Fe  Fe4  1  0.50000000  0.00000000  0.50000000  1
  Fe  Fe5  1  0.00000000  0.00000000  0.50000000  1
  Fe  Fe6  1  0.50000000  0.50000000  0.00000000  1
  Fe  Fe7  1  0.00000000  0.50000000  0.00000000  1
  Fe  Fe8  1  0.63983000  0.36017000  0.63983000  1
  Fe  Fe9  1  0.36017000  0.63983000  0.36017000  1
  Re  Re0  1  0.00000000  0.35899300  0.35899300  1
  Re  Re1  1  0.00000000  0.64100700  0.64100700  1
loop_
_geom_bond_atom_site_label_1
_geom_bond_atom_site_label_2
_geom_bond_distance
_geom_bond_site_symmetry_2
Nd0 Re0 3.161180 1_555
Nd0 Re1 3.161180 1_544
Fe0 Fe7 2.503158 1_655
Fe0 Fe5 2.503158 1_665
Fe0 Fe6 2.503158 1_555
Fe0 Fe4 2.503158 1_565
Fe0 Fe9 2.612453 1_655
Fe0 Fe9 2.612453 1_555
Fe0 Re0 2.654382 1_655
Fe0 Re1 2.654382 1_655
Fe0 Fe2 2.817412 1_554
Fe0 Fe3 2.817412 1_565
Fe0 Nd0 3.026104 1_565
Fe0 Nd0 3.026104 1_665
Fe1 Fe5 2.503158 1_555
Fe1 Fe7 2.503158 1_556
Fe1 Fe4 2.503158 1_555
Fe1 Fe6 2.503158 1_556
Fe1 Fe8 2.612453 1_455
Fe1 Fe8 2.612453 1_555
Fe1 Re0 2.654382 1_555
Fe1 Re1 2.654382 1_555
Fe1 Fe2 2.817412 1_545
Fe1 Fe3 2.817412 1_556
Fe1 Nd0 3.026104 1_656
Fe1 Nd0 3.026104 1_556
Fe2 Fe7 2.434994 1_656
Fe2 Fe5 2.434994 1_565
Fe2 Fe4 2.434994 1_565
Fe2 Fe6 2.434994 1_556
Fe2 Re1 2.586347 1_655
Fe2 Re1 2.586347 1_555
Fe2 Fe9 2.622202 1_555
Fe2 Fe8 2.622202 1_555
Fe2 Nd0 3.124797 1_566
Fe2 Nd0 3.124797 1_666
Fe3 Fe7 2.434994 1_555
Fe3 Fe5 2.434994 1_655
Fe3 Fe6 2.434994 1_555
Fe3 Fe4 2.434994 1_555
Fe3 Re0 2.586347 1_555
Fe3 Re0 2.586347 1_655
Fe3 Fe8 2.622202 1_555
Fe3 Fe9 2.622202 1_555
Fe3 Nd0 3.124797 1_555
Fe3 Nd0 3.124797 1_655
Fe4 Fe5 2.343486 1_655
Fe4 Fe5 2.343486 1_555
Fe4 Re1 2.613859 1_645
Fe4 Re0 2.613859 1_555
Fe4 Fe9 2.664684 1_545
Fe4 Fe8 2.664684 1_555
Fe4 Nd0 3.279844 1_555
Fe4 Nd0 3.279844 1_656
Fe5 Re1 2.613859 1_545
Fe5 Re0 2.613859 1_555
Fe5 Fe9 2.664684 1_545
Fe5 Fe8 2.664684 1_455
Fe5 Nd0 3.279845 1_555
Fe5 Nd0 3.279845 1_556
Fe6 Fe7 2.343486 1_655
Fe6 Fe7 2.343486 1_555
Fe6 Re1 2.613859 1_554
Fe6 Re0 2.613859 1_655
Fe6 Fe8 2.664684 1_554
Fe6 Fe9 2.664684 1_555
Fe6 Nd0 3.279844 1_565
Fe6 Nd0 3.279844 1_655
Fe7 Re1 2.613859 1_554
Fe7 Re0 2.613859 1_555
Fe7 Fe8 2.664684 1_454
Fe7 Fe9 2.664684 1_555
Fe7 Nd0 3.279845 1_555
Fe7 Nd0 3.279845 1_565
Fe8 Fe9 2.383029 1_555
Fe8 Re0 2.907466 1_555
Fe8 Re1 2.907466 1_555
Fe8 Re1 2.907467 1_655
Fe8 Re0 2.907467 1_655
Fe8 Nd0 3.069068 1_656
Fe9 Re0 2.907466 1_655
Fe9 Re1 2.907466 1_655
Fe9 Re1 2.907467 1_555
Fe9 Re0 2.907467 1_555
Fe9 Nd0 3.069068 1_565
Re0 Re1 2.483327 1_555
