# generated using pymatgen
data_SrMg2
_symmetry_space_group_name_H-M   'P 1'
_cell_length_a   6.42725728
_cell_length_b   6.42725728
_cell_length_c   6.42725728
_cell_angle_alpha   60.00000000
_cell_angle_beta   60.00000000
_cell_angle_gamma   60.00000000
_symmetry_Int_Tables_number   1
_chemical_formula_structural   SrMg2
_chemical_formula_sum   'Sr2 Mg4'
_cell_volume   187.74226694
_cell_formula_units_Z   2
loop_
 _symmetry_equiv_pos_site_id
 _symmetry_equiv_pos_as_xyz
  1  'x, y, z'
loop_
 _atom_site_type_symbol
 _atom_site_label
 _atom_site_symmetry_multiplicity
 _atom_site_fract_x
 _atom_site_fract_y
 _atom_site_fract_z
 _atom_site_occupancy
  Sr  Sr0  1  -0.00000000  0.00000000  -0.00000000  1
  Sr  Sr1  1  0.25000000  0.25000000  0.25000000  1
  Mg  Mg0  1  0.62500000  0.62500000  0.12500000  1
  Mg  Mg1  1  0.62500000  0.12500000  0.62500000  1
  Mg  Mg2  1  0.12500000  0.62500000  0.62500000  1
  Mg  Mg3  1  0.62500000  0.62500000  0.62500000  1
loop_
_geom_bond_atom_site_label_1
_geom_bond_atom_site_label_2
_geom_bond_distance
_geom_bond_site_symmetry_2
Sr0 Sr1 3.935875 1_555
Sr0 Sr1 3.935875 1_545
Sr0 Sr1 3.935875 1_554
Sr0 Sr1 3.935875 1_455
Mg0 Mg1 3.213629 1_564
Mg0 Mg1 3.213629 1_555
Mg0 Mg3 3.213629 1_554
Mg0 Mg2 3.213629 1_555
Mg0 Mg2 3.213629 1_654
Mg0 Mg3 3.213629 1_555
Mg0 Sr1 3.768314 1_555
Mg0 Sr0 3.768314 1_665
Mg0 Sr0 3.768314 1_565
Mg0 Sr0 3.768314 1_655
Mg0 Sr1 3.768314 1_655
Mg0 Sr1 3.768314 1_565
Mg1 Mg2 3.213629 1_555
Mg1 Mg2 3.213629 1_645
Mg1 Mg3 3.213629 1_545
Mg1 Mg3 3.213629 1_555
Mg1 Sr0 3.768314 1_556
Mg1 Sr1 3.768314 1_655
Mg1 Sr1 3.768314 1_556
Mg1 Sr0 3.768314 1_655
Mg1 Sr0 3.768314 1_656
Mg1 Sr1 3.768314 1_555
Mg2 Mg3 3.213629 1_455
Mg2 Mg3 3.213629 1_555
Mg2 Sr0 3.768314 1_556
Mg2 Sr1 3.768314 1_565
Mg2 Sr0 3.768314 1_565
Mg2 Sr1 3.768314 1_556
Mg2 Sr0 3.768314 1_566
Mg2 Sr1 3.768314 1_555
Mg3 Sr1 3.768314 1_556
Mg3 Sr0 3.768314 1_665
Mg3 Sr0 3.768314 1_566
Mg3 Sr0 3.768314 1_656
Mg3 Sr1 3.768314 1_655
Mg3 Sr1 3.768314 1_565
