# generated using pymatgen
data_DyB4Rh
_symmetry_space_group_name_H-M   'P 1'
_cell_length_a   3.55790126
_cell_length_b   5.94783935
_cell_length_c   11.53539429
_cell_angle_alpha   90.00000000
_cell_angle_beta   90.00000000
_cell_angle_gamma   90.00000000
_symmetry_Int_Tables_number   1
_chemical_formula_structural   DyB4Rh
_chemical_formula_sum   'Dy4 B16 Rh4'
_cell_volume   244.10999663
_cell_formula_units_Z   4
loop_
 _symmetry_equiv_pos_site_id
 _symmetry_equiv_pos_as_xyz
  1  'x, y, z'
loop_
 _atom_site_type_symbol
 _atom_site_label
 _atom_site_symmetry_multiplicity
 _atom_site_fract_x
 _atom_site_fract_y
 _atom_site_fract_z
 _atom_site_occupancy
  Dy  Dy0  1  0.50000000  0.36936872  0.14880964  1
  Dy  Dy1  1  0.50000000  0.63063128  0.85119036  1
  Dy  Dy2  1  0.50000000  0.13063128  0.64880964  1
  Dy  Dy3  1  0.50000000  0.86936872  0.35119036  1
  B  B0  1  0.00000000  0.11225864  0.04674749  1
  B  B1  1  0.00000000  0.88774136  0.95325251  1
  B  B2  1  -0.00000000  0.38774136  0.54674749  1
  B  B3  1  -0.00000000  0.61225864  0.45325251  1
  B  B4  1  -0.00000000  0.13664791  0.46905906  1
  B  B5  1  0.00000000  0.86335209  0.53094094  1
  B  B6  1  -0.00000000  0.36335209  0.96905906  1
  B  B7  1  -0.00000000  0.63664791  0.03094094  1
  B  B8  1  -0.00000000  0.02329262  0.19218919  1
  B  B9  1  -0.00000000  0.97670738  0.80781081  1
  B  B10  1  0.00000000  0.47670738  0.69218919  1
  B  B11  1  0.00000000  0.52329262  0.30781081  1
  B  B12  1  -0.00000000  0.21092210  0.31317650  1
  B  B13  1  -0.00000000  0.78907790  0.68682350  1
  B  B14  1  0.00000000  0.28907790  0.81317650  1
  B  B15  1  0.00000000  0.71092210  0.18682350  1
  Rh  Rh0  1  0.50000000  0.35811471  0.40538022  1
  Rh  Rh1  1  0.50000000  0.64188529  0.59461978  1
  Rh  Rh2  1  0.50000000  0.14188529  0.90538022  1
  Rh  Rh3  1  0.50000000  0.85811471  0.09461978  1
loop_
_geom_bond_atom_site_label_1
_geom_bond_atom_site_label_2
_geom_bond_distance
_geom_bond_site_symmetry_2
Dy0 Rh0 2.960400 1_555
Dy0 Rh3 2.973432 1_555
Dy0 Rh3 3.104442 1_545
Dy0 Rh2 3.117029 1_554
Dy1 Rh1 2.960400 1_555
Dy1 Rh2 2.973432 1_555
Dy1 Rh2 3.104442 1_565
Dy1 Rh3 3.117029 1_556
Dy2 Rh2 2.960400 1_555
Dy2 Rh1 2.973432 1_545
Dy2 Rh1 3.104442 1_555
Dy2 Rh0 3.117029 1_555
Dy3 Rh3 2.960400 1_555
Dy3 Rh0 2.973432 1_565
Dy3 Rh0 3.104442 1_555
Dy3 Rh1 3.117029 1_555
B0 B1 1.716519 1_544
B0 B6 1.741708 1_554
B0 B8 1.759197 1_555
B0 Rh3 2.398870 1_545
B0 Rh3 2.398870 1_445
B0 Rh2 2.419708 1_454
B0 Rh2 2.419708 1_554
B0 Dy0 2.624761 1_555
B0 Dy0 2.624761 1_455
B1 B7 1.741708 1_556
B1 B9 1.759197 1_555
B1 Rh2 2.398870 1_565
B1 Rh2 2.398870 1_465
B1 Rh3 2.419708 1_456
B1 Rh3 2.419708 1_556
B1 Dy1 2.624761 1_455
B1 Dy1 2.624761 1_555
B2 B3 1.716519 1_555
B2 B4 1.741708 1_555
B2 Rh1 2.398870 1_455
B2 Rh1 2.398870 1_555
B2 Rh0 2.419708 1_455
B2 Rh0 2.419708 1_555
B2 Dy2 2.624761 1_455
B2 Dy2 2.624761 1_555
B3 B5 1.741708 1_555
B3 Rh0 2.398870 1_555
B3 Rh0 2.398870 1_455
B3 Rh1 2.419708 1_555
B3 Rh1 2.419708 1_455
B3 Dy3 2.624761 1_455
B3 Dy3 2.624761 1_555
B4 B5 1.775351 1_545
B4 Rh0 2.332250 1_555
B4 Rh0 2.332250 1_455
B4 Dy2 2.732274 1_455
B4 Dy2 2.732274 1_555
B4 Dy3 2.746015 1_445
B4 Dy3 2.746015 1_545
B5 Rh1 2.332250 1_555
B5 Rh1 2.332250 1_455
B5 Dy3 2.732274 1_455
B5 Dy3 2.732274 1_555
B5 Dy2 2.746015 1_565
B5 Dy2 2.746015 1_465
B6 B7 1.775351 1_556
B6 Rh2 2.332250 1_455
B6 Rh2 2.332250 1_555
B6 Dy0 2.732274 1_456
B6 Dy0 2.732274 1_556
B6 Dy1 2.746015 1_455
B6 Dy1 2.746015 1_555
B7 Rh3 2.332250 1_555
B7 Rh3 2.332250 1_455
B7 Dy1 2.732274 1_554
B7 Dy1 2.732274 1_454
B7 Dy0 2.746015 1_455
B7 Dy0 2.746015 1_555
B8 Rh3 2.323065 1_545
B8 Rh3 2.323065 1_445
B8 Dy3 2.714205 1_445
B8 Dy3 2.714205 1_545
B8 Dy0 2.766242 1_455
B8 Dy0 2.766242 1_555
B9 Rh2 2.323065 1_565
B9 Rh2 2.323065 1_465
B9 Dy2 2.714205 1_465
B9 Dy2 2.714205 1_565
B9 Dy1 2.766242 1_555
B9 Dy1 2.766242 1_455
B10 B2 1.759197 1_555
B10 B14 1.786962 1_555
B10 B13 1.858960 1_555
B10 Rh1 2.323065 1_455
B10 Rh1 2.323065 1_555
B10 Dy1 2.714205 1_455
B10 Dy1 2.714205 1_555
B10 Dy2 2.766242 1_555
B10 Dy2 2.766242 1_455
B11 B3 1.759197 1_555
B11 B15 1.786962 1_555
B11 B12 1.858960 1_555
B11 Rh0 2.323065 1_555
B11 Rh0 2.323065 1_455
B11 Dy0 2.714205 1_555
B11 Dy0 2.714205 1_455
B11 Dy3 2.766242 1_455
B11 Dy3 2.766242 1_555
B12 B8 1.786962 1_555
B12 B4 1.851639 1_555
B12 Rh0 2.249975 1_455
B12 Rh0 2.249975 1_555
B12 Dy3 2.735683 1_445
B12 Dy3 2.735683 1_545
B12 Dy0 2.765459 1_555
B12 Dy0 2.765459 1_455
B13 B9 1.786962 1_555
B13 B5 1.851639 1_555
B13 Rh1 2.249975 1_455
B13 Rh1 2.249975 1_555
B13 Dy2 2.735683 1_565
B13 Dy2 2.735683 1_465
B13 Dy1 2.765459 1_455
B13 Dy1 2.765459 1_555
B14 B6 1.851639 1_555
B14 B9 1.858960 1_545
B14 Rh2 2.249975 1_455
B14 Rh2 2.249975 1_555
B14 Dy1 2.735683 1_455
B14 Dy1 2.735683 1_555
B14 Dy2 2.765459 1_455
B14 Dy2 2.765459 1_555
B15 B7 1.851639 1_555
B15 B8 1.858960 1_565
B15 Rh3 2.249975 1_555
B15 Rh3 2.249975 1_455
B15 Dy0 2.735683 1_555
B15 Dy0 2.735683 1_455
B15 Dy3 2.765459 1_455
B15 Dy3 2.765459 1_555
Rh0 Rh1 2.759352 1_555
Rh2 Rh3 2.759352 1_546
