# generated using pymatgen
data_CsAc3
_symmetry_space_group_name_H-M   'P 1'
_cell_length_a   8.43661619
_cell_length_b   8.43661619
_cell_length_c   6.55917100
_cell_angle_alpha   90.00000000
_cell_angle_beta   90.00000000
_cell_angle_gamma   120.00000151
_symmetry_Int_Tables_number   1
_chemical_formula_structural   CsAc3
_chemical_formula_sum   'Cs2 Ac6'
_cell_volume   404.31156364
_cell_formula_units_Z   2
loop_
 _symmetry_equiv_pos_site_id
 _symmetry_equiv_pos_as_xyz
  1  'x, y, z'
loop_
 _atom_site_type_symbol
 _atom_site_label
 _atom_site_symmetry_multiplicity
 _atom_site_fract_x
 _atom_site_fract_y
 _atom_site_fract_z
 _atom_site_occupancy
  Cs  Cs0  1  0.33333300  0.66666700  0.75000000  1
  Cs  Cs1  1  0.66666700  0.33333300  0.25000000  1
  Ac  Ac0  1  0.15960600  0.31921200  0.25000000  1
  Ac  Ac1  1  0.68078800  0.84039400  0.25000000  1
  Ac  Ac2  1  0.15960600  0.84039400  0.25000000  1
  Ac  Ac3  1  0.84039400  0.68078800  0.75000000  1
  Ac  Ac4  1  0.31921200  0.15960600  0.75000000  1
  Ac  Ac5  1  0.84039400  0.15960600  0.75000000  1
loop_
_geom_bond_atom_site_label_1
_geom_bond_atom_site_label_2
_geom_bond_distance
_geom_bond_site_symmetry_2
Ac0 Ac5 4.024319 1_454
Ac0 Ac5 4.024319 1_455
Ac0 Ac4 4.024319 1_554
Ac0 Ac4 4.024319 1_555
Ac0 Ac1 4.039604 1_445
Ac0 Ac2 4.039604 1_545
Ac0 Cs0 4.147320 1_555
Ac0 Cs0 4.147320 1_554
Ac0 Cs1 4.219565 1_455
Ac0 Cs1 4.219574 1_555
Ac0 Ac1 4.397012 1_555
Ac0 Ac2 4.397013 1_555
Ac1 Ac5 4.024319 1_565
Ac1 Ac5 4.024319 1_564
Ac1 Ac3 4.024319 1_554
Ac1 Ac3 4.024319 1_555
Ac1 Ac2 4.039604 1_655
Ac1 Cs0 4.147320 1_555
Ac1 Cs0 4.147320 1_554
Ac1 Cs1 4.219565 1_565
Ac1 Cs1 4.219574 1_555
Ac1 Ac2 4.397013 1_555
Ac2 Ac3 4.024319 1_455
Ac2 Ac4 4.024319 1_565
Ac2 Ac4 4.024319 1_564
Ac2 Ac3 4.024319 1_454
Ac2 Cs0 4.147316 1_554
Ac2 Cs0 4.147316 1_555
Ac2 Cs1 4.219570 1_565
Ac2 Cs1 4.219570 1_455
Ac3 Ac4 4.039604 1_665
Ac3 Ac5 4.039604 1_565
Ac3 Cs1 4.147320 1_555
Ac3 Cs1 4.147320 1_556
Ac3 Cs0 4.219565 1_655
Ac3 Cs0 4.219574 1_555
Ac3 Ac4 4.397012 1_555
Ac3 Ac5 4.397013 1_555
Ac4 Ac5 4.039604 1_455
Ac4 Cs1 4.147320 1_555
Ac4 Cs1 4.147320 1_556
Ac4 Cs0 4.219565 1_545
Ac4 Cs0 4.219574 1_555
Ac4 Ac5 4.397013 1_555
Ac5 Cs1 4.147316 1_555
Ac5 Cs1 4.147316 1_556
Ac5 Cs0 4.219570 1_545
Ac5 Cs0 4.219570 1_655
