# generated using pymatgen
data_CaYMg14
_symmetry_space_group_name_H-M   'P 1'
_cell_length_a   6.60255195
_cell_length_b   6.59742482
_cell_length_c   10.53110868
_cell_angle_alpha   90.00000000
_cell_angle_beta   90.00000000
_cell_angle_gamma   119.97432139
_symmetry_Int_Tables_number   1
_chemical_formula_structural   CaYMg14
_chemical_formula_sum   'Ca1 Y1 Mg14'
_cell_volume   397.37754407
_cell_formula_units_Z   1
loop_
 _symmetry_equiv_pos_site_id
 _symmetry_equiv_pos_as_xyz
  1  'x, y, z'
loop_
 _atom_site_type_symbol
 _atom_site_label
 _atom_site_symmetry_multiplicity
 _atom_site_fract_x
 _atom_site_fract_y
 _atom_site_fract_z
 _atom_site_occupancy
  Ca  Ca0  1  0.16989885  0.33494893  0.12500000  1
  Y  Y0  1  0.17270028  0.83634964  0.12500000  1
  Mg  Mg0  1  0.16534966  0.33267433  0.62500000  1
  Mg  Mg1  1  0.16516285  0.83258092  0.62500000  1
  Mg  Mg2  1  0.66223343  0.33336441  0.12500000  1
  Mg  Mg3  1  0.66773227  0.33372603  0.62500000  1
  Mg  Mg4  1  0.66223343  0.82886803  0.12500000  1
  Mg  Mg5  1  0.66773227  0.83400523  0.62500000  1
  Mg  Mg6  1  0.33752430  0.16632994  0.38370737  1
  Mg  Mg7  1  0.33752430  0.16632994  0.86629263  1
  Mg  Mg8  1  0.33752430  0.67119535  0.38370737  1
  Mg  Mg9  1  0.33752430  0.67119535  0.86629263  1
  Mg  Mg10  1  0.82715034  0.16357567  0.37924968  1
  Mg  Mg11  1  0.82715034  0.16357567  0.87075032  1
  Mg  Mg12  1  0.83127954  0.66564027  0.37736462  1
  Mg  Mg13  1  0.83127954  0.66564027  0.87263538  1
loop_
_geom_bond_atom_site_label_1
_geom_bond_atom_site_label_2
_geom_bond_distance
_geom_bond_site_symmetry_2
Ca0 Mg4 3.255900 1_555
Ca0 Mg2 3.255900 1_555
Ca0 Y0 3.298751 1_555
Ca0 Y0 3.298751 1_545
Ca0 Mg10 3.318446 1_455
Ca0 Mg11 3.318446 1_454
Ca0 Mg6 3.333988 1_555
Ca0 Mg7 3.333988 1_554
Ca0 Mg8 3.333995 1_555
Ca0 Mg9 3.333995 1_554
Ca0 Mg4 3.346676 1_445
Ca0 Mg2 3.346677 1_455
Mg0 Mg6 3.193800 1_555
Mg0 Mg7 3.193800 1_555
Mg0 Mg9 3.193807 1_555
Mg0 Mg8 3.193807 1_555
Mg0 Mg10 3.231013 1_455
Mg0 Mg11 3.231013 1_455
Mg0 Mg5 3.289016 1_445
Mg0 Mg3 3.289017 1_455
Mg0 Mg1 3.298713 1_555
Mg0 Mg1 3.298713 1_545
Mg0 Mg5 3.313546 1_555
Mg0 Mg3 3.313546 1_555
Mg1 Mg8 3.177512 1_555
Mg1 Mg9 3.177512 1_555
Mg1 Mg6 3.177518 1_565
Mg1 Mg7 3.177518 1_565
Mg1 Mg12 3.232291 1_455
Mg1 Mg13 3.232291 1_455
Mg1 Mg3 3.289016 1_455
Mg1 Mg5 3.289016 1_455
Mg1 Mg3 3.313556 1_565
Mg1 Mg5 3.313556 1_555
Mg2 Y0 3.257109 1_545
Mg2 Mg4 3.269048 1_555
Mg2 Mg6 3.297387 1_555
Mg2 Mg7 3.297387 1_554
Mg2 Mg4 3.328377 1_545
Mg2 Y0 3.345996 1_655
Mg3 Mg7 3.166095 1_555
Mg3 Mg6 3.166095 1_555
Mg3 Mg5 3.296870 1_545
Mg3 Mg5 3.300554 1_555
Mg4 Y0 3.257109 1_555
Mg4 Mg9 3.297387 1_554
Mg4 Mg8 3.297387 1_555
Mg4 Y0 3.345997 1_655
Mg5 Mg9 3.166095 1_555
Mg5 Mg8 3.166095 1_555
Mg6 Mg8 3.266613 1_545
Mg6 Y0 3.313483 1_545
Mg6 Mg8 3.330812 1_555
Mg7 Mg9 3.266613 1_545
Mg7 Y0 3.313483 1_546
Mg7 Mg9 3.330812 1_555
Mg8 Y0 3.313476 1_555
Mg9 Y0 3.313476 1_556
Mg10 Mg3 3.201021 1_555
Mg10 Mg5 3.201027 1_545
Mg10 Mg8 3.242238 1_545
Mg10 Mg6 3.242238 1_555
Mg10 Mg2 3.290648 1_555
Mg10 Mg4 3.290655 1_545
Mg10 Mg12 3.298857 1_555
Mg10 Mg12 3.298857 1_545
Mg10 Mg8 3.361056 1_655
Mg10 Mg6 3.361057 1_655
Mg11 Mg3 3.201021 1_555
Mg11 Mg5 3.201027 1_545
Mg11 Mg9 3.242238 1_545
Mg11 Mg7 3.242238 1_555
Mg11 Mg2 3.290648 1_556
Mg11 Mg4 3.290655 1_546
Mg11 Mg13 3.298857 1_555
Mg11 Mg13 3.298857 1_545
Mg11 Mg9 3.361056 1_655
Mg11 Mg7 3.361057 1_655
Mg12 Mg5 3.224807 1_555
Mg12 Mg3 3.224814 1_555
Mg12 Mg4 3.266452 1_555
Mg12 Mg2 3.266459 1_555
Mg12 Mg6 3.279189 1_555
Mg12 Mg8 3.279189 1_555
Mg12 Y0 3.297947 1_655
Mg12 Mg6 3.325019 1_665
Mg12 Mg8 3.325020 1_655
Mg13 Mg5 3.224807 1_555
Mg13 Mg3 3.224814 1_555
Mg13 Mg4 3.266452 1_556
Mg13 Mg2 3.266459 1_556
Mg13 Mg7 3.279189 1_555
Mg13 Mg9 3.279189 1_555
Mg13 Y0 3.297947 1_656
Mg13 Mg7 3.325019 1_665
Mg13 Mg9 3.325020 1_655
