# generated using pymatgen
data_MnMo3
_symmetry_space_group_name_H-M   'P 1'
_cell_length_a   13.10557205
_cell_length_b   13.10557205
_cell_length_c   13.10557322
_cell_angle_alpha   118.33217033
_cell_angle_beta   118.33217033
_cell_angle_gamma   118.33215898
_symmetry_Int_Tables_number   1
_chemical_formula_structural   MnMo3
_chemical_formula_sum   'Mn8 Mo24'
_cell_volume   748.37441047
_cell_formula_units_Z   8
loop_
 _symmetry_equiv_pos_site_id
 _symmetry_equiv_pos_as_xyz
  1  'x, y, z'
loop_
 _atom_site_type_symbol
 _atom_site_label
 _atom_site_symmetry_multiplicity
 _atom_site_fract_x
 _atom_site_fract_y
 _atom_site_fract_z
 _atom_site_occupancy
  Mn  Mn0_0  1  0.00000000  0.00000000  0.00000000  1
  Mn  Mn0_1  1  0.00000000  0.00000000  0.50000000  1
  Mn  Mn0_2  1  0.00000000  0.50000000  0.00000000  1
  Mn  Mn0_3  1  0.00000000  0.50000000  0.50000000  1
  Mn  Mn0_4  1  0.50000000  0.00000000  0.00000000  1
  Mn  Mn0_5  1  0.50000000  0.00000000  0.50000000  1
  Mn  Mn0_6  1  0.50000000  0.50000000  0.00000000  1
  Mn  Mn0_7  1  0.50000000  0.50000000  0.50000000  1
  Mo  Mo0_0  1  0.00000000  0.39632100  0.10367900  1
  Mo  Mo0_1  1  0.00000000  0.39632100  0.60367900  1
  Mo  Mo0_2  1  0.00000000  0.89632100  0.10367900  1
  Mo  Mo0_3  1  0.00000000  0.89632100  0.60367900  1
  Mo  Mo0_4  1  0.50000000  0.39632100  0.10367900  1
  Mo  Mo0_5  1  0.50000000  0.39632100  0.60367900  1
  Mo  Mo0_6  1  0.50000000  0.89632100  0.10367900  1
  Mo  Mo0_7  1  0.50000000  0.89632100  0.60367900  1
  Mo  Mo1_0  1  0.39632100  0.10367900  0.00000000  1
  Mo  Mo1_1  1  0.39632100  0.10367900  0.50000000  1
  Mo  Mo1_2  1  0.39632100  0.60367900  0.00000000  1
  Mo  Mo1_3  1  0.39632100  0.60367900  0.50000000  1
  Mo  Mo1_4  1  0.89632100  0.10367900  0.00000000  1
  Mo  Mo1_5  1  0.89632100  0.10367900  0.50000000  1
  Mo  Mo1_6  1  0.89632100  0.60367900  0.00000000  1
  Mo  Mo1_7  1  0.89632100  0.60367900  0.50000000  1
  Mo  Mo2_0  1  0.10367900  0.00000000  0.39632100  1
  Mo  Mo2_1  1  0.10367900  0.00000000  0.89632100  1
  Mo  Mo2_2  1  0.10367900  0.50000000  0.39632100  1
  Mo  Mo2_3  1  0.10367900  0.50000000  0.89632100  1
  Mo  Mo2_4  1  0.60367900  0.00000000  0.39632100  1
  Mo  Mo2_5  1  0.60367900  0.00000000  0.89632100  1
  Mo  Mo2_6  1  0.60367900  0.50000000  0.39632100  1
  Mo  Mo2_7  1  0.60367900  0.50000000  0.89632100  1
loop_
_geom_bond_atom_site_label_1
_geom_bond_atom_site_label_2
_geom_bond_distance
_geom_bond_site_symmetry_2
Mn0_0 Mo1_4 2.333438 1_455
Mn0_0 Mo0_2 2.333438 1_545
Mn0_0 Mo2_1 2.333438 1_554
Mn0_0 Mn0_7 2.558990 1_444
Mn0_0 Mn0_7 2.558990 1_555
Mn0_1 Mo1_5 2.333438 1_455
Mn0_1 Mo2_0 2.333438 1_555
Mn0_1 Mo0_3 2.333438 1_545
Mn0_1 Mn0_6 2.558990 1_556
Mn0_1 Mn0_6 2.558990 1_445
Mn0_2 Mo1_6 2.333438 1_455
Mn0_2 Mo0_0 2.333438 1_555
Mn0_2 Mo2_3 2.333438 1_554
Mn0_2 Mn0_5 2.558990 1_565
Mn0_2 Mn0_5 2.558990 1_454
Mn0_3 Mo1_7 2.333438 1_455
Mn0_3 Mo2_2 2.333438 1_555
Mn0_3 Mo0_1 2.333438 1_555
Mn0_3 Mn0_4 2.558990 1_566
Mn0_3 Mn0_4 2.558990 1_455
Mn0_4 Mo1_0 2.333438 1_555
Mn0_4 Mo0_6 2.333438 1_545
Mn0_4 Mo2_5 2.333438 1_554
Mn0_5 Mo1_1 2.333438 1_555
Mn0_5 Mo2_4 2.333438 1_555
Mn0_5 Mo0_7 2.333438 1_545
Mn0_6 Mo1_2 2.333438 1_555
Mn0_6 Mo0_4 2.333438 1_555
Mn0_6 Mo2_7 2.333438 1_554
Mn0_7 Mo1_3 2.333438 1_555
Mn0_7 Mo0_5 2.333438 1_555
Mn0_7 Mo2_6 2.333438 1_555
Mo0_0 Mo0_7 2.558990 1_444
Mo0_0 Mo0_7 2.558990 1_555
Mo0_0 Mo1_4 2.599341 1_455
Mo0_0 Mo2_2 2.599342 1_555
Mo0_1 Mo0_6 2.558990 1_556
Mo0_1 Mo0_6 2.558990 1_445
Mo0_1 Mo1_5 2.599341 1_455
Mo0_1 Mo2_3 2.599342 1_555
Mo0_2 Mo0_5 2.558990 1_565
Mo0_2 Mo0_5 2.558990 1_454
Mo0_2 Mo1_6 2.599341 1_455
Mo0_2 Mo2_0 2.599342 1_565
Mo0_3 Mo0_4 2.558990 1_455
Mo0_3 Mo0_4 2.558990 1_566
Mo0_3 Mo1_7 2.599341 1_455
Mo0_3 Mo2_1 2.599342 1_565
Mo0_4 Mo1_0 2.599341 1_555
Mo0_4 Mo2_6 2.599342 1_555
Mo0_5 Mo1_1 2.599341 1_555
Mo0_5 Mo2_7 2.599342 1_555
Mo0_6 Mo1_2 2.599341 1_555
Mo0_6 Mo2_4 2.599342 1_565
Mo0_7 Mo1_3 2.599341 1_555
Mo0_7 Mo2_5 2.599342 1_565
Mo1_0 Mo1_7 2.558990 1_444
Mo1_0 Mo1_7 2.558990 1_555
Mo1_0 Mo2_1 2.599341 1_554
Mo1_1 Mo1_6 2.558990 1_556
Mo1_1 Mo1_6 2.558990 1_445
Mo1_1 Mo2_0 2.599341 1_555
Mo1_2 Mo1_5 2.558990 1_454
Mo1_2 Mo1_5 2.558990 1_565
Mo1_2 Mo2_3 2.599341 1_554
Mo1_3 Mo1_4 2.558990 1_566
Mo1_3 Mo1_4 2.558990 1_455
Mo1_3 Mo2_2 2.599341 1_555
Mo1_4 Mo2_5 2.599341 1_554
Mo1_5 Mo2_4 2.599341 1_555
Mo1_6 Mo2_7 2.599341 1_554
Mo1_7 Mo2_6 2.599341 1_555
Mo2_0 Mo2_7 2.558990 1_444
Mo2_0 Mo2_7 2.558990 1_555
Mo2_1 Mo2_6 2.558990 1_556
Mo2_1 Mo2_6 2.558990 1_445
Mo2_2 Mo2_5 2.558990 1_454
Mo2_2 Mo2_5 2.558990 1_565
Mo2_3 Mo2_4 2.558990 1_566
Mo2_3 Mo2_4 2.558990 1_455
