# generated using pymatgen
data_YGa4Ni
_symmetry_space_group_name_H-M   'P 1'
_cell_length_a   4.07632154
_cell_length_b   6.52007368
_cell_length_c   7.86319611
_cell_angle_alpha   90.00000000
_cell_angle_beta   105.02275557
_cell_angle_gamma   90.00000000
_symmetry_Int_Tables_number   1
_chemical_formula_structural   YGa4Ni
_chemical_formula_sum   'Y2 Ga8 Ni2'
_cell_volume   201.84480152
_cell_formula_units_Z   2
loop_
 _symmetry_equiv_pos_site_id
 _symmetry_equiv_pos_as_xyz
  1  'x, y, z'
loop_
 _atom_site_type_symbol
 _atom_site_label
 _atom_site_symmetry_multiplicity
 _atom_site_fract_x
 _atom_site_fract_y
 _atom_site_fract_z
 _atom_site_occupancy
  Y  Y0  1  0.88134389  0.75000000  0.76268579  1
  Y  Y1  1  0.11865611  0.25000000  0.23731421  1
  Ga  Ga0  1  0.50000000  0.50000000  -0.00000000  1
  Ga  Ga1  1  0.50000000  -0.00000000  -0.00000000  1
  Ga  Ga2  1  0.07136292  0.75000000  0.14272584  1
  Ga  Ga3  1  0.92863708  0.25000000  0.85727416  1
  Ga  Ga4  1  0.68639420  0.55206082  0.37278940  1
  Ga  Ga5  1  0.31360580  0.44793918  0.62721060  1
  Ga  Ga6  1  0.68639420  0.94793918  0.37278940  1
  Ga  Ga7  1  0.31360580  0.05206082  0.62721060  1
  Ni  Ni0  1  0.22390819  0.75000000  0.44781838  1
  Ni  Ni1  1  0.77609181  0.25000000  0.55218162  1
loop_
_geom_bond_atom_site_label_1
_geom_bond_atom_site_label_2
_geom_bond_distance
_geom_bond_site_symmetry_2
Ga0 Ga2 2.825943 1_655
Ga0 Ga3 2.825943 1_454
Ga0 Ga3 2.825943 1_554
Ga0 Ga2 2.825943 1_555
Ga0 Ga4 2.851409 1_555
Ga0 Ga5 2.851409 1_554
Ga0 Y0 3.171628 1_454
Ga0 Y1 3.171628 1_655
Ga0 Y1 3.171634 1_555
Ga0 Y0 3.171634 1_554
Ga1 Ga3 2.825943 1_454
Ga1 Ga2 2.825943 1_645
Ga1 Ga3 2.825943 1_554
Ga1 Ga2 2.825943 1_545
Ga1 Ga6 2.851409 1_545
Ga1 Ga7 2.851409 1_554
Ga1 Y0 3.171628 1_444
Ga1 Y1 3.171628 1_655
Ga1 Y1 3.171634 1_555
Ga1 Y0 3.171634 1_544
Ga2 Ni0 2.317012 1_555
Ga2 Y0 2.886197 1_454
Ga2 Ga6 2.978660 1_555
Ga2 Ga4 2.978660 1_555
Ga2 Ga6 2.978663 1_455
Ga2 Ga4 2.978663 1_455
Ga2 Y1 3.338242 1_565
Ga2 Y1 3.338242 1_555
Ga3 Ni1 2.317012 1_555
Ga3 Y1 2.886197 1_656
Ga3 Ga5 2.978660 1_555
Ga3 Ga7 2.978660 1_555
Ga3 Ga5 2.978663 1_655
Ga3 Ga7 2.978663 1_655
Ga3 Y0 3.338242 1_555
Ga3 Y0 3.338242 1_545
Ga4 Ni1 2.394758 1_555
Ga4 Ni0 2.478782 1_655
Ga4 Ni0 2.478785 1_555
Ga4 Ga6 2.581156 1_555
Ga4 Ga5 2.889346 1_555
Ga4 Ga5 2.889352 1_655
Ga4 Y1 3.015197 1_655
Ga4 Y1 3.015200 1_555
Ga4 Y0 3.230079 1_555
Ga5 Ni0 2.394758 1_555
Ga5 Ni1 2.478782 1_455
Ga5 Ni1 2.478785 1_555
Ga5 Ga7 2.581156 1_555
Ga5 Y0 3.015197 1_455
Ga5 Y0 3.015200 1_555
Ga5 Y1 3.230079 1_555
Ga6 Ni1 2.394758 1_565
Ga6 Ni0 2.478782 1_655
Ga6 Ni0 2.478785 1_555
Ga6 Ga7 2.889346 1_565
Ga6 Ga7 2.889352 1_665
Ga6 Y1 3.015197 1_665
Ga6 Y1 3.015200 1_565
Ga6 Y0 3.230079 1_555
Ga7 Ni0 2.394758 1_545
Ga7 Ni1 2.478782 1_455
Ga7 Ni1 2.478785 1_555
Ga7 Y0 3.015197 1_445
Ga7 Y0 3.015200 1_545
Ga7 Y1 3.230079 1_555
Ni0 Y0 3.141994 1_455
Ni0 Y0 3.142004 1_555
Ni1 Y1 3.141994 1_655
Ni1 Y1 3.142004 1_555
