# generated using pymatgen
data_Hf3Ti2(PbO3)5
_symmetry_space_group_name_H-M   'P 1'
_cell_length_a   9.19198509
_cell_length_b   9.19198509
_cell_length_c   7.10533416
_cell_angle_alpha   76.09271700
_cell_angle_beta   76.09271700
_cell_angle_gamma   36.75697210
_symmetry_Int_Tables_number   1
_chemical_formula_structural   Hf3Ti2(PbO3)5
_chemical_formula_sum   'Hf3 Ti2 Pb5 O15'
_cell_volume   347.54810350
_cell_formula_units_Z   1
loop_
 _symmetry_equiv_pos_site_id
 _symmetry_equiv_pos_as_xyz
  1  'x, y, z'
loop_
 _atom_site_type_symbol
 _atom_site_label
 _atom_site_symmetry_multiplicity
 _atom_site_fract_x
 _atom_site_fract_y
 _atom_site_fract_z
 _atom_site_occupancy
  Hf  Hf0  1  0.00047800  0.00047800  0.99642500  1
  Hf  Hf1  1  0.60229900  0.60229900  0.59937200  1
  Hf  Hf2  1  0.20406000  0.20406000  0.19506300  1
  Ti  Ti0  1  0.80601100  0.80601100  0.78741700  1
  Ti  Ti1  1  0.40537900  0.40537900  0.38436500  1
  Pb  Pb0  1  0.81481200  0.81481200  0.27607400  1
  Pb  Pb1  1  0.01735200  0.01735200  0.47191500  1
  Pb  Pb2  1  0.62490600  0.62490600  0.06798800  1
  Pb  Pb3  1  0.22416900  0.22416900  0.67626100  1
  Pb  Pb4  1  0.41230100  0.41230100  0.86079400  1
  O  O0  1  0.69645500  0.69645500  0.71666900  1
  O  O1  1  0.29629300  0.29629300  0.32715800  1
  O  O2  1  0.88906200  0.88906200  0.92031200  1
  O  O3  1  0.48740700  0.48740700  0.51654800  1
  O  O4  1  0.09299100  0.09299100  0.11849300  1
  O  O5  1  0.50585100  0.98266600  0.00383600  1
  O  O6  1  0.09321200  0.59066600  0.61765800  1
  O  O7  1  0.69144900  0.18662000  0.22022500  1
  O  O8  1  0.29734300  0.77995800  0.80739200  1
  O  O9  1  0.89866000  0.38439800  0.40486200  1
  O  O10  1  0.98266600  0.50585100  0.00383600  1
  O  O11  1  0.59066600  0.09321200  0.61765800  1
  O  O12  1  0.18662000  0.69144900  0.22022500  1
  O  O13  1  0.77995800  0.29734300  0.80739200  1
  O  O14  1  0.38439800  0.89866000  0.40486200  1
loop_
_geom_bond_atom_site_label_1
_geom_bond_atom_site_label_2
_geom_bond_distance
_geom_bond_site_symmetry_2
Hf0 O13 2.010685 1_455
Hf0 O8 2.010685 1_545
Hf0 O4 2.016528 1_556
Hf0 O2 2.145530 1_445
Hf0 O7 2.207664 1_456
Hf0 O12 2.207664 1_546
Hf1 O0 2.021501 1_555
Hf1 O14 2.029955 1_555
Hf1 O9 2.029955 1_555
Hf1 O8 2.131356 1_555
Hf1 O13 2.131356 1_555
Hf1 O3 2.227467 1_555
Hf2 O10 2.038237 1_455
Hf2 O5 2.038237 1_545
Hf2 O1 2.057967 1_555
Hf2 O14 2.137826 1_545
Hf2 O9 2.137826 1_455
Hf2 O4 2.141227 1_555
O0 Ti0 2.095859 1_555
O0 Pb2 2.492191 1_556
O1 Ti1 2.044269 1_555
O1 Pb3 2.480957 1_555
O2 Ti0 1.919393 1_555
O2 Pb0 2.531636 1_556
O3 Ti1 1.900246 1_555
O3 Pb4 2.465016 1_555
O4 Pb1 2.523659 1_555
O5 Ti0 2.143769 1_554
O5 Pb2 2.443852 1_555
O6 Ti0 1.893701 1_455
O6 Ti1 2.263162 1_555
O6 Pb3 2.457664 1_555
O6 Pb4 2.764794 1_555
O7 Ti1 1.870473 1_555
O7 Pb0 2.545224 1_545
O8 Pb4 2.556507 1_555
O9 Pb1 2.525733 1_655
O10 Ti0 2.143769 1_554
O10 Pb2 2.443852 1_555
O11 Ti0 1.893701 1_545
O11 Ti1 2.263162 1_555
O11 Pb3 2.457664 1_555
O11 Pb4 2.764794 1_555
O12 Ti1 1.870473 1_555
O12 Pb0 2.545224 1_455
O13 Pb4 2.556507 1_555
O14 Pb1 2.525733 1_565
