# generated using pymatgen
data_CaSnBiO5
_symmetry_space_group_name_H-M   'P 1'
_cell_length_a   5.51967400
_cell_length_b   10.56205500
_cell_length_c   15.89246500
_cell_angle_alpha   90.00000000
_cell_angle_beta   90.00000000
_cell_angle_gamma   90.00000000
_symmetry_Int_Tables_number   1
_chemical_formula_structural   CaSnBiO5
_chemical_formula_sum   'Ca8 Sn8 Bi8 O40'
_cell_volume   926.51641216
_cell_formula_units_Z   8
loop_
 _symmetry_equiv_pos_site_id
 _symmetry_equiv_pos_as_xyz
  1  'x, y, z'
loop_
 _atom_site_type_symbol
 _atom_site_label
 _atom_site_symmetry_multiplicity
 _atom_site_fract_x
 _atom_site_fract_y
 _atom_site_fract_z
 _atom_site_occupancy
  Ca  Ca0  1  0.54295400  0.36882600  0.56876900  1
  Ca  Ca1  1  0.04295400  0.13117400  0.56876900  1
  Ca  Ca2  1  0.04295400  0.63117400  0.93123100  1
  Ca  Ca3  1  0.95704600  0.36882600  0.06876900  1
  Ca  Ca4  1  0.45704600  0.13117400  0.06876900  1
  Ca  Ca5  1  0.95704600  0.86882600  0.43123100  1
  Ca  Ca6  1  0.45704600  0.63117400  0.43123100  1
  Ca  Ca7  1  0.54295400  0.86882600  0.93123100  1
  Sn  Sn0  1  0.03791500  0.38008300  0.43004900  1
  Sn  Sn1  1  0.46208500  0.88008300  0.56995100  1
  Sn  Sn2  1  0.96208500  0.61991700  0.56995100  1
  Sn  Sn3  1  0.53791500  0.11991700  0.43004900  1
  Sn  Sn4  1  0.96208500  0.11991700  0.93004900  1
  Sn  Sn5  1  0.03791500  0.88008300  0.06995100  1
  Sn  Sn6  1  0.46208500  0.38008300  0.93004900  1
  Sn  Sn7  1  0.53791500  0.61991700  0.06995100  1
  Bi  Bi0  1  0.97072400  0.85262900  0.75462600  1
  Bi  Bi1  1  0.02927600  0.14737100  0.24537400  1
  Bi  Bi2  1  0.52927600  0.35262900  0.24537400  1
  Bi  Bi3  1  0.02927600  0.64737100  0.25462600  1
  Bi  Bi4  1  0.47072400  0.14737100  0.74537400  1
  Bi  Bi5  1  0.47072400  0.64737100  0.75462600  1
  Bi  Bi6  1  0.52927600  0.85262900  0.25462600  1
  Bi  Bi7  1  0.97072400  0.35262900  0.74537400  1
  O  O0  1  0.87437300  0.31066100  0.31660900  1
  O  O1  1  0.22224900  0.99573600  0.97345300  1
  O  O2  1  0.27775100  0.49573600  0.02654700  1
  O  O3  1  0.26651000  0.78027700  0.83339900  1
  O  O4  1  0.23349000  0.28027700  0.16660100  1
  O  O5  1  0.87437300  0.81066100  0.18339100  1
  O  O6  1  0.23349000  0.78027700  0.33339900  1
  O  O7  1  0.62562700  0.81066100  0.68339100  1
  O  O8  1  0.22224900  0.49573600  0.52654700  1
  O  O9  1  0.12562700  0.68933900  0.68339100  1
  O  O10  1  0.62562700  0.31066100  0.81660900  1
  O  O11  1  0.79435600  0.24376900  0.47783900  1
  O  O12  1  0.72224900  0.00426400  0.52654700  1
  O  O13  1  0.73349000  0.71972300  0.33339900  1
  O  O14  1  0.23922700  0.98864600  0.16118200  1
  O  O15  1  0.72224900  0.50426400  0.97345300  1
  O  O16  1  0.12562700  0.18933900  0.81660900  1
  O  O17  1  0.76651000  0.21972300  0.66660100  1
  O  O18  1  0.29435600  0.75623100  0.02216100  1
  O  O19  1  0.27775100  0.99573600  0.47345300  1
  O  O20  1  0.20564400  0.75623100  0.52216100  1
  O  O21  1  0.76077300  0.01135400  0.83881800  1
  O  O22  1  0.73349000  0.21972300  0.16660100  1
  O  O23  1  0.73922700  0.01135400  0.33881800  1
  O  O24  1  0.20564400  0.25623100  0.97783900  1
  O  O25  1  0.29435600  0.25623100  0.47783900  1
  O  O26  1  0.77775100  0.50426400  0.47345300  1
  O  O27  1  0.77775100  0.00426400  0.02654700  1
  O  O28  1  0.73922700  0.51135400  0.16118200  1
  O  O29  1  0.70564400  0.74376900  0.52216100  1
  O  O30  1  0.70564400  0.24376900  0.97783900  1
  O  O31  1  0.79435600  0.74376900  0.02216100  1
  O  O32  1  0.76077300  0.51135400  0.66118200  1
  O  O33  1  0.76651000  0.71972300  0.83339900  1
  O  O34  1  0.26651000  0.28027700  0.66660100  1
  O  O35  1  0.23922700  0.48864600  0.33881800  1
  O  O36  1  0.26077300  0.48864600  0.83881800  1
  O  O37  1  0.37437300  0.18933900  0.31660900  1
  O  O38  1  0.26077300  0.98864600  0.66118200  1
  O  O39  1  0.37437300  0.68933900  0.18339100  1
loop_
_geom_bond_atom_site_label_1
_geom_bond_atom_site_label_2
_geom_bond_distance
_geom_bond_site_symmetry_2
Ca0 O8 2.319606 1_555
Ca0 O25 2.320663 1_555
Ca0 O34 2.370738 1_555
Ca0 O11 2.399704 1_555
Ca0 O32 2.422538 1_555
Ca0 O26 2.453691 1_555
Ca0 O17 2.533797 1_555
Ca1 O12 2.319606 1_455
Ca1 O11 2.320663 1_455
Ca1 O17 2.370738 1_455
Ca1 O25 2.399704 1_555
Ca1 O38 2.422538 1_545
Ca1 O19 2.453691 1_545
Ca1 O34 2.533797 1_555
Ca2 O15 2.319606 1_455
Ca2 O31 2.320663 1_456
Ca2 O33 2.370738 1_455
Ca2 O18 2.399704 1_556
Ca2 O36 2.422538 1_555
Ca2 O2 2.453691 1_556
Ca2 O3 2.533797 1_555
Ca3 O2 2.319606 1_655
Ca3 O24 2.320663 1_654
Ca3 O4 2.370738 1_655
Ca3 O30 2.399704 1_554
Ca3 O28 2.422538 1_555
Ca3 O15 2.453691 1_554
Ca3 O22 2.533797 1_555
Ca4 O27 2.319606 1_555
Ca4 O30 2.320663 1_554
Ca4 O22 2.370738 1_555
Ca4 O24 2.399704 1_554
Ca4 O14 2.422538 1_545
Ca4 O1 2.453691 1_544
Ca4 O4 2.533797 1_555
Ca5 O19 2.319606 1_655
Ca5 O20 2.320663 1_655
Ca5 O6 2.370738 1_655
Ca5 O29 2.399704 1_555
Ca5 O23 2.422538 1_565
Ca5 O12 2.453691 1_565
Ca5 O13 2.533797 1_555
Ca6 O26 2.319606 1_555
Ca6 O29 2.320663 1_555
Ca6 O13 2.370738 1_555
Ca6 O20 2.399704 1_555
Ca6 O35 2.422538 1_555
Ca6 O8 2.453691 1_555
Ca6 O6 2.533797 1_555
Ca7 O1 2.319606 1_555
Ca7 O18 2.320663 1_556
Ca7 O3 2.370738 1_555
Ca7 O31 2.399704 1_556
Ca7 O21 2.422538 1_565
Ca7 O27 2.453691 1_566
Ca7 O33 2.533797 1_555
Bi0 O33 2.192797 1_555
Bi0 O3 2.194709 1_655
Bi0 O9 2.233207 1_655
Bi0 O7 2.259754 1_555
Bi0 O21 2.437986 1_565
Bi0 O38 2.613884 1_655
Bi1 O4 2.192797 1_555
Bi1 O22 2.194709 1_455
Bi1 O0 2.233207 1_455
Bi1 O37 2.259754 1_555
Bi1 O14 2.437986 1_545
Bi1 O23 2.613884 1_455
Bi2 O22 2.192797 1_555
Bi2 O4 2.194709 1_555
Bi2 O37 2.233207 1_555
Bi2 O0 2.259754 1_555
Bi2 O28 2.437986 1_555
Bi2 O35 2.613884 1_555
Bi3 O6 2.192797 1_555
Bi3 O13 2.194709 1_455
Bi3 O5 2.233207 1_455
Bi3 O39 2.259754 1_555
Bi3 O35 2.437986 1_555
Bi3 O28 2.613884 1_455
Bi4 O34 2.192797 1_555
Bi4 O17 2.194709 1_555
Bi4 O10 2.233207 1_555
Bi4 O16 2.259754 1_555
Bi4 O38 2.437986 1_545
Bi4 O21 2.613884 1_555
Bi5 O3 2.192797 1_555
Bi5 O33 2.194709 1_555
Bi5 O7 2.233207 1_555
Bi5 O9 2.259754 1_555
Bi5 O36 2.437986 1_555
Bi5 O32 2.613884 1_555
Bi6 O13 2.192797 1_555
Bi6 O6 2.194709 1_555
Bi6 O39 2.233207 1_555
Bi6 O5 2.259754 1_555
Bi6 O23 2.437986 1_565
Bi6 O14 2.613884 1_555
Bi7 O17 2.192797 1_555
Bi7 O34 2.194709 1_655
Bi7 O16 2.233207 1_655
Bi7 O10 2.259754 1_555
Bi7 O32 2.437986 1_555
Bi7 O36 2.613884 1_655
O0 Sn0 2.145400 1_655
O1 Sn4 2.063561 1_465
O1 Sn5 2.208909 1_556
O2 Sn7 2.063561 1_555
O2 Sn6 2.208909 1_554
O5 Sn5 2.145400 1_655
O7 Sn1 2.145400 1_555
O8 Sn2 2.063561 1_455
O8 Sn0 2.208909 1_555
O9 Sn2 2.145400 1_455
O10 Sn6 2.145400 1_555
O11 Sn3 2.071620 1_555
O11 Sn0 2.111175 1_655
O12 Sn1 2.063561 1_545
O12 Sn3 2.208909 1_555
O14 Sn5 2.156776 1_555
O15 Sn6 2.063561 1_555
O15 Sn7 2.208909 1_556
O16 Sn4 2.145400 1_455
O18 Sn5 2.071620 1_555
O18 Sn7 2.111175 1_555
O19 Sn3 2.063561 1_565
O19 Sn1 2.208909 1_555
O20 Sn1 2.071620 1_555
O20 Sn2 2.111175 1_455
O21 Sn4 2.156776 1_555
O23 Sn3 2.156776 1_555
O24 Sn6 2.071620 1_555
O24 Sn4 2.111175 1_455
O25 Sn0 2.071620 1_555
O25 Sn3 2.111175 1_555
O26 Sn0 2.063561 1_655
O26 Sn2 2.208909 1_555
O27 Sn5 2.063561 1_645
O27 Sn4 2.208909 1_554
O28 Sn7 2.156776 1_555
O29 Sn2 2.071620 1_555
O29 Sn1 2.111175 1_555
O30 Sn4 2.071620 1_555
O30 Sn6 2.111175 1_555
O31 Sn7 2.071620 1_555
O31 Sn5 2.111175 1_655
O32 Sn2 2.156776 1_555
O35 Sn0 2.156776 1_555
O36 Sn6 2.156776 1_555
O37 Sn3 2.145400 1_555
O38 Sn1 2.156776 1_555
O39 Sn7 2.145400 1_555
