# generated using pymatgen
data_SmTlZn
_symmetry_space_group_name_H-M   'P 1'
_cell_length_a   4.67902957
_cell_length_b   4.67755638
_cell_length_c   7.57264050
_cell_angle_alpha   90.00000000
_cell_angle_beta   90.00000000
_cell_angle_gamma   120.01042610
_symmetry_Int_Tables_number   1
_chemical_formula_structural   SmTlZn
_chemical_formula_sum   'Sm2 Tl2 Zn2'
_cell_volume   143.51825843
_cell_formula_units_Z   2
loop_
 _symmetry_equiv_pos_site_id
 _symmetry_equiv_pos_as_xyz
  1  'x, y, z'
loop_
 _atom_site_type_symbol
 _atom_site_label
 _atom_site_symmetry_multiplicity
 _atom_site_fract_x
 _atom_site_fract_y
 _atom_site_fract_z
 _atom_site_occupancy
  Sm  Sm0  1  -0.00000000  -0.00000000  0.50000000  1
  Sm  Sm1  1  -0.00000000  -0.00000000  -0.00000000  1
  Tl  Tl0  1  0.33343216  0.66686432  0.25000000  1
  Tl  Tl1  1  0.66656784  0.33313568  0.75000000  1
  Zn  Zn0  1  0.33324511  0.66649123  0.75000000  1
  Zn  Zn1  1  0.66675489  0.33350877  0.25000000  1
loop_
_geom_bond_atom_site_label_1
_geom_bond_atom_site_label_2
_geom_bond_distance
_geom_bond_site_symmetry_2
Sm0 Zn0 3.297251 1_555
Sm0 Zn1 3.297251 1_445
Sm0 Tl0 3.298202 1_445
Sm0 Tl1 3.298202 1_555
Sm0 Tl1 3.298202 1_455
Sm0 Tl0 3.298202 1_545
Sm0 Tl1 3.298488 1_445
Sm0 Tl0 3.298488 1_555
Sm0 Zn0 3.298819 1_545
Sm0 Zn1 3.298819 1_455
Sm0 Zn1 3.298822 1_555
Sm0 Zn0 3.298822 1_445
Sm1 Zn1 3.297251 1_445
Sm1 Zn0 3.297251 1_554
Sm1 Tl0 3.298202 1_445
Sm1 Tl1 3.298202 1_554
Sm1 Tl0 3.298202 1_545
Sm1 Tl1 3.298202 1_454
Sm1 Tl1 3.298488 1_444
Sm1 Tl0 3.298488 1_555
Sm1 Zn0 3.298819 1_544
Sm1 Zn1 3.298819 1_455
Sm1 Zn1 3.298822 1_555
Sm1 Zn0 3.298822 1_444
Tl0 Zn1 2.700215 1_565
Tl0 Zn1 2.701198 1_455
Tl0 Zn1 2.701203 1_555
Tl1 Zn0 2.700215 1_545
Tl1 Zn0 2.701198 1_655
Tl1 Zn0 2.701203 1_555
