# generated using pymatgen
data_ZrH6(OF3)2
_symmetry_space_group_name_H-M   'P 1'
_cell_length_a   7.37739922
_cell_length_b   7.37739922
_cell_length_c   6.81941546
_cell_angle_alpha   78.78293606
_cell_angle_beta   78.78293606
_cell_angle_gamma   120.02510143
_symmetry_Int_Tables_number   1
_chemical_formula_structural   ZrH6(OF3)2
_chemical_formula_sum   'Zr2 H12 O4 F12'
_cell_volume   296.00988713
_cell_formula_units_Z   2
loop_
 _symmetry_equiv_pos_site_id
 _symmetry_equiv_pos_as_xyz
  1  'x, y, z'
loop_
 _atom_site_type_symbol
 _atom_site_label
 _atom_site_symmetry_multiplicity
 _atom_site_fract_x
 _atom_site_fract_y
 _atom_site_fract_z
 _atom_site_occupancy
  Zr  Zr0  1  0.04723400  0.95276600  0.75000000  1
  Zr  Zr1  1  0.95276500  0.04723400  0.25000000  1
  H  H0  1  0.38388300  0.85013000  0.87383600  1
  H  H1  1  0.85013000  0.38388300  0.37383600  1
  H  H2  1  0.61611700  0.14987000  0.12616400  1
  H  H3  1  0.14987000  0.61611700  0.62616400  1
  H  H4  1  0.59620900  0.24102400  0.56364000  1
  H  H5  1  0.24102400  0.59620900  0.06364000  1
  H  H6  1  0.40379100  0.75897600  0.43636000  1
  H  H7  1  0.75897600  0.40379100  0.93636000  1
  H  H8  1  0.52272300  0.72953600  0.94362800  1
  H  H9  1  0.72953600  0.52272300  0.44362800  1
  H  H10  1  0.47727700  0.27046400  0.05637200  1
  H  H11  1  0.27046400  0.47727700  0.55637200  1
  O  O0  1  0.61159000  0.25581100  0.00945000  1
  O  O1  1  0.25581100  0.61159000  0.50945000  1
  O  O2  1  0.38841000  0.74418900  0.99055000  1
  O  O3  1  0.74418900  0.38841000  0.49055000  1
  F  F0  1  0.99621500  0.62871600  0.79957000  1
  F  F1  1  0.62871600  0.99621500  0.29957000  1
  F  F2  1  0.00378500  0.37128400  0.20043000  1
  F  F3  1  0.37128400  0.00378500  0.70043000  1
  F  F4  1  0.93352800  0.11358800  0.93838900  1
  F  F5  1  0.11358800  0.93352800  0.43838900  1
  F  F6  1  0.06647200  0.88641200  0.06161100  1
  F  F7  1  0.88641200  0.06647200  0.56161100  1
  F  F8  1  0.70873100  0.71608300  0.89574100  1
  F  F9  1  0.71608300  0.70873100  0.39574100  1
  F  F10  1  0.29126900  0.28391700  0.10425900  1
  F  F11  1  0.28391700  0.29126900  0.60425900  1
loop_
_geom_bond_atom_site_label_1
_geom_bond_atom_site_label_2
_geom_bond_distance
_geom_bond_site_symmetry_2
H0 O2 1.019756 1_555
H1 O3 1.019756 1_555
H2 O0 1.019756 1_555
H3 O1 1.019756 1_555
H4 O3 1.006004 1_555
H5 O2 1.006004 1_554
H6 O1 1.006004 1_555
H7 O0 1.006004 1_556
H8 O2 1.045570 1_555
H9 O3 1.045570 1_555
H10 O0 1.045570 1_555
H11 O1 1.045570 1_555
F0 H3 1.522724 1_655
F0 H7 1.594693 1_555
F0 Zr0 2.169500 1_655
F1 H2 1.522724 1_565
F1 H6 1.594693 1_555
F1 Zr1 2.169492 1_565
F2 H1 1.522724 1_455
F2 H5 1.594693 1_555
F2 Zr1 2.169497 1_455
F3 H0 1.522724 1_545
F3 H4 1.594693 1_555
F3 Zr0 2.169500 1_545
F4 Zr1 2.134846 1_556
F4 Zr0 2.220708 1_645
F5 Zr0 2.134848 1_555
F5 Zr1 2.220714 1_465
F6 Zr0 2.134848 1_554
F6 Zr1 2.220712 1_465
F7 Zr1 2.134848 1_555
F7 Zr0 2.220708 1_645
F8 H8 1.405041 1_555
F8 Zr0 2.066020 1_655
F9 H9 1.405041 1_555
F9 Zr1 2.066019 1_565
F10 H10 1.405041 1_555
F10 Zr1 2.066026 1_455
F11 H11 1.405041 1_555
F11 Zr0 2.066020 1_545
