# generated using pymatgen
data_Mg2Nb2CuO8
_symmetry_space_group_name_H-M   'P 1'
_cell_length_a   10.02656593
_cell_length_b   10.02656593
_cell_length_c   5.16518261
_cell_angle_alpha   88.35715531
_cell_angle_beta   88.35715531
_cell_angle_gamma   35.26220195
_symmetry_Int_Tables_number   1
_chemical_formula_structural   Mg2Nb2CuO8
_chemical_formula_sum   'Mg4 Nb4 Cu2 O16'
_cell_volume   299.64665557
_cell_formula_units_Z   2
loop_
 _symmetry_equiv_pos_site_id
 _symmetry_equiv_pos_as_xyz
  1  'x, y, z'
loop_
 _atom_site_type_symbol
 _atom_site_label
 _atom_site_symmetry_multiplicity
 _atom_site_fract_x
 _atom_site_fract_y
 _atom_site_fract_z
 _atom_site_occupancy
  Mg  Mg0  1  0.86999100  0.58654600  0.75221900  1
  Mg  Mg1  1  0.41345400  0.13000900  0.74778100  1
  Mg  Mg2  1  0.13000900  0.41345400  0.24778100  1
  Mg  Mg3  1  0.58654600  0.86999100  0.25221900  1
  Nb  Nb0  1  0.04906300  0.71977300  0.73553800  1
  Nb  Nb1  1  0.28022700  0.95093700  0.76446200  1
  Nb  Nb2  1  0.95093700  0.28022700  0.26446200  1
  Nb  Nb3  1  0.71977300  0.04906300  0.23553800  1
  Cu  Cu0  1  0.65125600  0.34874400  0.75000000  1
  Cu  Cu1  1  0.34874400  0.65125600  0.25000000  1
  O  O0  1  0.03945100  0.81632800  0.06885500  1
  O  O1  1  0.18367200  0.96054900  0.43114500  1
  O  O2  1  0.96054900  0.18367200  0.93114500  1
  O  O3  1  0.81632800  0.03945100  0.56885500  1
  O  O4  1  0.30648100  0.58071300  0.56102500  1
  O  O5  1  0.41928700  0.69351900  0.93897500  1
  O  O6  1  0.69351900  0.41928700  0.43897500  1
  O  O7  1  0.58071300  0.30648100  0.06102500  1
  O  O8  1  0.91454100  0.71025000  0.45339100  1
  O  O9  1  0.28975000  0.08545900  0.04660900  1
  O  O10  1  0.45209600  0.16535300  0.37755900  1
  O  O11  1  0.83464700  0.54790400  0.12244100  1
  O  O12  1  0.54790400  0.83464700  0.62244100  1
  O  O13  1  0.16535300  0.45209600  0.87755900  1
  O  O14  1  0.71025000  0.91454100  0.95339100  1
  O  O15  1  0.08545900  0.28975000  0.54660900  1
loop_
_geom_bond_atom_site_label_1
_geom_bond_atom_site_label_2
_geom_bond_distance
_geom_bond_site_symmetry_2
Mg0 O12 1.994031 1_555
Mg0 O11 2.018746 1_556
Mg0 O15 2.049801 1_655
Mg0 O13 2.132388 1_655
Mg0 O8 2.208118 1_555
Mg0 O14 2.441132 1_555
Mg1 O13 1.994031 1_555
Mg1 O10 2.018746 1_555
Mg1 O14 2.049801 1_545
Mg1 O12 2.132388 1_545
Mg1 O9 2.208118 1_556
Mg1 O15 2.441132 1_555
Mg2 O10 1.994031 1_555
Mg2 O13 2.018746 1_554
Mg2 O8 2.049801 1_455
Mg2 O11 2.132388 1_455
Mg2 O15 2.208118 1_555
Mg2 O9 2.441132 1_555
Mg3 O11 1.994031 1_555
Mg3 O12 2.018746 1_555
Mg3 O9 2.049801 1_565
Mg3 O10 2.132388 1_565
Mg3 O14 2.208118 1_554
Mg3 O8 2.441132 1_555
Nb0 O4 1.865496 1_555
Nb0 O0 1.960683 1_556
Nb0 O13 1.981573 1_555
Nb0 O3 2.050089 1_465
Nb0 O8 2.069590 1_455
Nb0 O14 2.386086 1_455
Nb1 O5 1.865496 1_555
Nb1 O1 1.960683 1_555
Nb1 O12 1.981573 1_555
Nb1 O2 2.050089 1_465
Nb1 O9 2.069590 1_566
Nb1 O15 2.386086 1_565
Nb2 O6 1.865496 1_555
Nb2 O2 1.960683 1_554
Nb2 O11 1.981573 1_555
Nb2 O1 2.050089 1_645
Nb2 O15 2.069590 1_655
Nb2 O9 2.386086 1_655
Nb3 O7 1.865496 1_555
Nb3 O3 1.960683 1_555
Nb3 O10 1.981573 1_555
Nb3 O0 2.050089 1_645
Nb3 O14 2.069590 1_544
Nb3 O8 2.386086 1_545
Cu0 O7 1.909440 1_556
Cu0 O6 1.909440 1_555
Cu0 O3 2.219812 1_555
Cu0 O2 2.219812 1_555
Cu0 O4 2.290376 1_555
Cu0 O5 2.290376 1_555
Cu1 O4 1.909440 1_555
Cu1 O5 1.909440 1_554
Cu1 O0 2.219812 1_555
Cu1 O1 2.219812 1_555
Cu1 O7 2.290376 1_555
Cu1 O6 2.290376 1_555
