# generated using pymatgen
data_Ca3Mn2(GaO5)2
_symmetry_space_group_name_H-M   'P 1'
_cell_length_a   5.41837800
_cell_length_b   5.69062300
_cell_length_c   15.04577371
_cell_angle_alpha   69.32872770
_cell_angle_beta   90.00000000
_cell_angle_gamma   90.00000000
_symmetry_Int_Tables_number   1
_chemical_formula_structural   Ca3Mn2(GaO5)2
_chemical_formula_sum   'Ca6 Mn4 Ga4 O20'
_cell_volume   434.05390454
_cell_formula_units_Z   2
loop_
 _symmetry_equiv_pos_site_id
 _symmetry_equiv_pos_as_xyz
  1  'x, y, z'
loop_
 _atom_site_type_symbol
 _atom_site_label
 _atom_site_symmetry_multiplicity
 _atom_site_fract_x
 _atom_site_fract_y
 _atom_site_fract_z
 _atom_site_occupancy
  Ca  Ca0  1  0.23438100  0.07353600  0.38861500  1
  Ca  Ca1  1  0.76561900  0.07353600  0.88861500  1
  Ca  Ca2  1  0.73192900  0.92894400  0.11357100  1
  Ca  Ca3  1  0.23751800  0.37285000  0.09683800  1
  Ca  Ca4  1  0.26807100  0.92894400  0.61357100  1
  Ca  Ca5  1  0.76248200  0.37285000  0.59683800  1
  Mn  Mn0  1  0.25500700  0.50917300  0.49370000  1
  Mn  Mn1  1  0.75212800  0.99912000  0.49288000  1
  Mn  Mn2  1  0.74499300  0.50917300  0.99370000  1
  Mn  Mn3  1  0.24787200  0.99912000  0.99288000  1
  Ga  Ga0  1  0.69668200  0.34242600  0.25318800  1
  Ga  Ga1  1  0.80957100  0.67006300  0.75162600  1
  Ga  Ga2  1  0.30331800  0.34242600  0.75318800  1
  Ga  Ga3  1  0.19042900  0.67006300  0.25162600  1
  O  O0  1  0.77267500  0.30369600  0.13708800  1
  O  O1  1  0.27832700  0.93206900  0.14022900  1
  O  O2  1  0.85258200  0.63147700  0.24874800  1
  O  O3  1  0.01092600  0.24135900  0.49003000  1
  O  O4  1  0.72167300  0.93206900  0.64022900  1
  O  O5  1  0.65341700  0.37489200  0.74777900  1
  O  O6  1  0.49771600  0.72785800  0.52139800  1
  O  O7  1  0.98907400  0.24135900  0.99003000  1
  O  O8  1  0.48935800  0.24123600  0.48626500  1
  O  O9  1  0.01238400  0.73907100  0.52087200  1
  O  O10  1  0.51064200  0.24123600  0.98626500  1
  O  O11  1  0.50228400  0.72785800  0.02139800  1
  O  O12  1  0.22732500  0.30369600  0.63708800  1
  O  O13  1  0.98761600  0.73907100  0.02087200  1
  O  O14  1  0.14741800  0.63147700  0.74874800  1
  O  O15  1  0.77846400  0.06976500  0.36114900  1
  O  O16  1  0.27266200  0.70666800  0.36433500  1
  O  O17  1  0.34658300  0.37489200  0.24777900  1
  O  O18  1  0.22153600  0.06976500  0.86114900  1
  O  O19  1  0.72733800  0.70666800  0.86433500  1
loop_
_geom_bond_atom_site_label_1
_geom_bond_atom_site_label_2
_geom_bond_distance
_geom_bond_site_symmetry_2
Ca0 O16 2.252431 1_545
Ca0 O17 2.288025 1_555
Ca0 O3 2.394807 1_555
Ca0 O8 2.442937 1_555
Ca0 O15 2.505998 1_455
Ca0 O9 2.520964 1_545
Ca0 O6 2.668739 1_545
Ca0 O15 2.977999 1_555
Ca1 O19 2.252431 1_545
Ca1 O5 2.288025 1_555
Ca1 O7 2.394807 1_555
Ca1 O10 2.442937 1_555
Ca1 O18 2.505998 1_655
Ca1 O13 2.520964 1_546
Ca1 O11 2.668739 1_546
Ca1 O18 2.977999 1_555
Ca2 O2 2.235776 1_555
Ca2 O0 2.292278 1_565
Ca2 O10 2.421042 1_564
Ca2 O11 2.429274 1_555
Ca2 O13 2.469019 1_555
Ca2 O1 2.491374 1_555
Ca2 O7 2.494786 1_564
Ca3 O17 2.350648 1_555
Ca3 O1 2.368678 1_545
Ca3 O13 2.408594 1_455
Ca3 O7 2.409044 1_454
Ca3 O11 2.410142 1_555
Ca3 O10 2.529522 1_554
Ca3 O0 2.587890 1_455
Ca3 O0 2.959985 1_555
Ca4 O14 2.235776 1_555
Ca4 O12 2.292278 1_565
Ca4 O8 2.421042 1_565
Ca4 O6 2.429274 1_555
Ca4 O9 2.469019 1_555
Ca4 O4 2.491374 1_555
Ca4 O3 2.494786 1_565
Ca5 O5 2.350648 1_555
Ca5 O4 2.368678 1_545
Ca5 O9 2.408594 1_655
Ca5 O3 2.409044 1_655
Ca5 O6 2.410142 1_555
Ca5 O8 2.529522 1_555
Ca5 O12 2.587890 1_655
Ca5 O12 2.959985 1_555
Mn0 O16 1.875179 1_555
Mn0 O6 1.953955 1_555
Mn0 O9 1.996129 1_555
Mn0 O8 2.017456 1_555
Mn0 O3 2.033271 1_555
Mn0 O12 2.064716 1_555
Mn1 O15 1.883544 1_565
Mn1 O3 1.956193 1_665
Mn1 O8 1.959227 1_565
Mn1 O9 1.978850 1_655
Mn1 O6 1.999901 1_555
Mn1 O4 2.119102 1_555
Mn2 O19 1.875179 1_555
Mn2 O11 1.953955 1_556
Mn2 O13 1.996129 1_556
Mn2 O10 2.017456 1_555
Mn2 O7 2.033271 1_555
Mn2 O0 2.064716 1_556
Mn3 O18 1.883544 1_565
Mn3 O7 1.956193 1_465
Mn3 O10 1.959227 1_565
Mn3 O13 1.978850 1_456
Mn3 O11 1.999901 1_556
Mn3 O1 2.119102 1_556
Ga0 O2 1.829228 1_555
Ga0 O15 1.860909 1_555
Ga0 O0 1.881832 1_555
Ga0 O17 1.904897 1_555
Ga1 O19 1.834948 1_555
Ga1 O14 1.846032 1_655
Ga1 O4 1.869413 1_555
Ga1 O5 1.899814 1_555
Ga2 O14 1.829228 1_555
Ga2 O18 1.860909 1_555
Ga2 O12 1.881832 1_555
Ga2 O5 1.904897 1_555
Ga3 O16 1.834948 1_555
Ga3 O2 1.846032 1_455
Ga3 O1 1.869413 1_555
Ga3 O17 1.899814 1_555
