# generated using pymatgen
data_Sm4Ga7Ag5
_symmetry_space_group_name_H-M   'P 1'
_cell_length_a   4.39809959
_cell_length_b   7.06322096
_cell_length_c   10.28114081
_cell_angle_alpha   89.77875920
_cell_angle_beta   90.00000000
_cell_angle_gamma   90.00000000
_symmetry_Int_Tables_number   1
_chemical_formula_structural   Sm4Ga7Ag5
_chemical_formula_sum   'Sm4 Ga7 Ag5'
_cell_volume   319.37867979
_cell_formula_units_Z   1
loop_
 _symmetry_equiv_pos_site_id
 _symmetry_equiv_pos_as_xyz
  1  'x, y, z'
loop_
 _atom_site_type_symbol
 _atom_site_label
 _atom_site_symmetry_multiplicity
 _atom_site_fract_x
 _atom_site_fract_y
 _atom_site_fract_z
 _atom_site_occupancy
  Sm  Sm0  1  0.50000000  0.78522305  0.17085380  1
  Sm  Sm1  1  0.50000000  0.28016953  0.33087244  1
  Sm  Sm2  1  -0.00000000  0.21344660  0.83137061  1
  Sm  Sm3  1  0.00000000  0.71897745  0.66841834  1
  Ga  Ga0  1  0.50000000  0.91906921  0.84856089  1
  Ga  Ga1  1  0.50000000  0.42234188  0.65134770  1
  Ga  Ga2  1  -0.00000000  0.08134239  0.15032444  1
  Ga  Ga3  1  0.00000000  0.57756891  0.34797565  1
  Ga  Ga4  1  0.50000000  0.20445896  0.03659405  1
  Ga  Ga5  1  -0.00000000  0.29700021  0.53717442  1
  Ga  Ga6  1  -0.00000000  0.79406634  0.96329660  1
  Ag  Ag0  1  0.50000000  0.53954757  0.90317604  1
  Ag  Ag1  1  0.50000000  0.04577421  0.60031320  1
  Ag  Ag2  1  0.00000000  0.45927567  0.09719108  1
  Ag  Ag3  1  0.00000000  0.96057064  0.40211766  1
  Ag  Ag4  1  0.50000000  0.70116639  0.46041108  1
loop_
_geom_bond_atom_site_label_1
_geom_bond_atom_site_label_2
_geom_bond_distance
_geom_bond_site_symmetry_2
Sm0 Sm1 3.869424 1_565
Sm0 Sm1 3.922619 1_555
Sm2 Sm3 3.879408 1_545
Sm2 Sm3 3.938309 1_555
Ga0 Ga6 2.645528 1_655
Ga0 Ga6 2.645528 1_555
Ga0 Ga4 2.798334 1_566
Ga0 Sm2 3.031090 1_665
Ga0 Sm2 3.031090 1_565
Ga0 Sm3 3.206805 1_555
Ga0 Sm3 3.206805 1_655
Ga0 Sm0 3.442252 1_556
Ga1 Ga5 2.646792 1_655
Ga1 Ga5 2.646792 1_555
Ga1 Sm3 3.042916 1_555
Ga1 Sm3 3.042916 1_655
Ga1 Sm2 3.227594 1_555
Ga1 Sm2 3.227594 1_655
Ga1 Sm1 3.448189 1_555
Ga2 Ga4 2.636547 1_555
Ga2 Ga4 2.636547 1_455
Ga2 Ga6 2.800847 1_544
Ga2 Sm0 3.041639 1_545
Ga2 Sm0 3.041639 1_445
Ga2 Sm1 3.205277 1_555
Ga2 Sm1 3.205277 1_455
Ga2 Sm2 3.405910 1_554
Ga3 Ga5 2.771491 1_555
Ga3 Sm1 3.046654 1_555
Ga3 Sm1 3.046654 1_455
Ga3 Sm0 3.206636 1_555
Ga3 Sm0 3.206636 1_455
Ga3 Sm3 3.446281 1_555
Ga4 Sm2 3.048053 1_654
Ga4 Sm2 3.048053 1_554
Ga4 Sm1 3.074446 1_555
Ga4 Sm0 3.262242 1_545
Ga5 Sm1 3.057879 1_455
Ga5 Sm1 3.057879 1_555
Ga5 Sm2 3.079471 1_555
Ga5 Sm3 3.276471 1_555
Ga6 Sm0 3.064690 1_456
Ga6 Sm0 3.064690 1_556
Ga6 Sm3 3.079744 1_555
Ga6 Sm2 3.253174 1_565
Ag0 Ga1 2.721256 1_555
Ag0 Ga4 2.730975 1_556
Ag0 Ga0 2.736699 1_555
Ag0 Ga6 2.908310 1_655
Ag0 Ga6 2.908310 1_555
Ag0 Ag2 3.021152 1_556
Ag0 Ag2 3.021152 1_656
Ag0 Sm0 3.259094 1_556
Ag0 Sm2 3.270971 1_555
Ag0 Sm2 3.270971 1_655
Ag0 Sm3 3.499105 1_555
Ag0 Sm3 3.499105 1_655
Ag1 Ga0 2.701364 1_545
Ag1 Ga1 2.713027 1_555
Ag1 Ag4 2.832041 1_545
Ag1 Ga5 2.897763 1_655
Ag1 Ga5 2.897763 1_555
Ag1 Ag3 3.059345 1_545
Ag1 Ag3 3.059345 1_645
Ag1 Sm1 3.221696 1_555
Ag1 Sm3 3.262143 1_545
Ag1 Sm3 3.262143 1_645
Ag1 Sm2 3.450115 1_555
Ag1 Sm2 3.450115 1_655
Ag2 Ga3 2.713420 1_555
Ag2 Ga2 2.722680 1_555
Ag2 Ga6 2.731605 1_554
Ag2 Ga4 2.910669 1_455
Ag2 Ga4 2.910669 1_555
Ag2 Sm2 3.243530 1_554
Ag2 Sm0 3.274621 1_455
Ag2 Sm0 3.274621 1_555
Ag2 Sm1 3.490673 1_455
Ag2 Sm1 3.490673 1_555
Ag3 Ga2 2.722517 1_565
Ag3 Ga5 2.756847 1_565
Ag3 Ga3 2.764005 1_555
Ag3 Ag4 2.922942 1_555
Ag3 Ag4 2.922942 1_455
Ag3 Sm3 3.220523 1_555
Ag3 Sm1 3.233485 1_465
Ag3 Sm1 3.233485 1_565
Ag3 Sm0 3.470697 1_455
Ag3 Sm0 3.470697 1_555
Ag4 Ga3 2.634766 1_555
Ag4 Ga3 2.634766 1_655
Ag4 Ga1 2.775289 1_555
Ag4 Sm0 3.033356 1_555
Ag4 Sm3 3.070363 1_555
Ag4 Sm3 3.070363 1_655
Ag4 Sm1 3.262905 1_555
