# generated using pymatgen
data_Ca(CoO2)2
_symmetry_space_group_name_H-M   'P 1'
_cell_length_a   7.12731471
_cell_length_b   7.12731471
_cell_length_c   8.74753202
_cell_angle_alpha   61.58398670
_cell_angle_beta   61.58398670
_cell_angle_gamma   23.61005675
_symmetry_Int_Tables_number   1
_chemical_formula_structural   Ca(CoO2)2
_chemical_formula_sum   'Ca2 Co4 O8'
_cell_volume   155.52473313
_cell_formula_units_Z   2
loop_
 _symmetry_equiv_pos_site_id
 _symmetry_equiv_pos_as_xyz
  1  'x, y, z'
loop_
 _atom_site_type_symbol
 _atom_site_label
 _atom_site_symmetry_multiplicity
 _atom_site_fract_x
 _atom_site_fract_y
 _atom_site_fract_z
 _atom_site_occupancy
  Ca  Ca0  1  0.61432000  0.61432000  0.84637100  1
  Ca  Ca1  1  0.38568000  0.38568000  0.15362900  1
  Co  Co0  1  0.42349600  0.42349600  0.76601200  1
  Co  Co1  1  0.83498900  0.83498900  0.51578000  1
  Co  Co2  1  0.16501100  0.16501100  0.48422000  1
  Co  Co3  1  0.57650400  0.57650400  0.23398800  1
  O  O0  1  0.12238200  0.12238200  0.30745900  1
  O  O1  1  0.57288800  0.57288800  0.61755100  1
  O  O2  1  0.42711200  0.42711200  0.38244900  1
  O  O3  1  0.87761800  0.87761800  0.69254100  1
  O  O4  1  0.93961300  0.93961300  0.90911400  1
  O  O5  1  0.23090500  0.23090500  0.63661000  1
  O  O6  1  0.06038700  0.06038700  0.09088600  1
  O  O7  1  0.76909500  0.76909500  0.36339000  1
loop_
_geom_bond_atom_site_label_1
_geom_bond_atom_site_label_2
_geom_bond_distance
_geom_bond_site_symmetry_2
Ca0 O5 2.288445 1_655
Ca0 O5 2.288445 1_565
Ca0 O1 2.337894 1_555
Ca0 O6 2.387950 1_566
Ca0 O6 2.387950 1_656
Ca0 O4 2.658741 1_545
Ca0 O4 2.658741 1_455
Ca1 O7 2.288445 1_545
Ca1 O7 2.288445 1_455
Ca1 O2 2.337894 1_555
Ca1 O4 2.387950 1_544
Ca1 O4 2.387950 1_454
Ca1 O6 2.658741 1_655
Ca1 O6 2.658741 1_565
Co0 O3 1.830018 1_545
Co0 O3 1.830018 1_455
Co0 O1 1.843784 1_555
Co0 O4 2.004338 1_545
Co0 O4 2.004338 1_455
Co1 O3 1.907573 1_555
Co1 O2 1.918595 1_565
Co1 O2 1.918595 1_655
Co1 O7 1.952952 1_555
Co1 O5 1.964674 1_565
Co1 O5 1.964674 1_655
Co2 O0 1.907573 1_555
Co2 O1 1.918595 1_455
Co2 O1 1.918595 1_545
Co2 O5 1.952952 1_555
Co2 O7 1.964674 1_545
Co2 O7 1.964674 1_455
Co3 O0 1.830018 1_565
Co3 O0 1.830018 1_655
Co3 O2 1.843784 1_555
Co3 O6 2.004338 1_655
Co3 O6 2.004338 1_565
