# generated using pymatgen
data_Pu5Pb3
_symmetry_space_group_name_H-M   'P 1'
_cell_length_a   5.95541800
_cell_length_b   9.26699545
_cell_length_c   9.26699545
_cell_angle_alpha   84.07369636
_cell_angle_beta   71.25698006
_cell_angle_gamma   71.25698006
_symmetry_Int_Tables_number   1
_chemical_formula_structural   Pu5Pb3
_chemical_formula_sum   'Pu10 Pb6'
_cell_volume   458.62944211
_cell_formula_units_Z   2
loop_
 _symmetry_equiv_pos_site_id
 _symmetry_equiv_pos_as_xyz
  1  'x, y, z'
loop_
 _atom_site_type_symbol
 _atom_site_label
 _atom_site_symmetry_multiplicity
 _atom_site_fract_x
 _atom_site_fract_y
 _atom_site_fract_z
 _atom_site_occupancy
  Pu  Pu0  1  0.22715700  0.69439500  0.85129100  1
  Pu  Pu1  1  0.77284300  0.30560500  0.14870900  1
  Pu  Pu2  1  0.27284300  0.14870900  0.30560500  1
  Pu  Pu3  1  0.72715700  0.85129100  0.69439500  1
  Pu  Pu4  1  0.07844800  0.14870900  0.69439500  1
  Pu  Pu5  1  0.92155200  0.85129100  0.30560500  1
  Pu  Pu6  1  0.57844800  0.69439500  0.14870900  1
  Pu  Pu7  1  0.42155200  0.30560500  0.85129100  1
  Pu  Pu8  1  0.75000000  0.50000000  0.50000000  1
  Pu  Pu9  1  0.25000000  0.50000000  0.50000000  1
  Pb  Pb0  1  0.66469100  0.17061800  0.50000000  1
  Pb  Pb1  1  0.33530900  0.82938200  0.50000000  1
  Pb  Pb2  1  0.83530900  0.50000000  0.82938200  1
  Pb  Pb3  1  0.16469100  0.50000000  0.17061800  1
  Pb  Pb4  1  0.25000000  0.00000000  0.00000000  1
  Pb  Pb5  1  0.75000000  0.00000000  0.00000000  1
loop_
_geom_bond_atom_site_label_1
_geom_bond_atom_site_label_2
_geom_bond_distance
_geom_bond_site_symmetry_2
Pu0 Pu7 3.411850 1_555
Pu0 Pu3 3.557834 1_555
Pu0 Pu3 3.557834 1_455
Pu1 Pu6 3.411850 1_555
Pu1 Pu2 3.557834 1_555
Pu1 Pu2 3.557834 1_655
Pu2 Pu4 3.411850 1_555
Pu3 Pu5 3.411850 1_555
Pu4 Pu7 3.557834 1_455
Pu4 Pu7 3.557834 1_555
Pu5 Pu6 3.557834 1_555
Pu5 Pu6 3.557834 1_655
Pu8 Pu9 2.977709 1_555
Pu8 Pu9 2.977709 1_655
Pb0 Pu9 3.251422 1_555
Pb0 Pu8 3.251422 1_555
Pb0 Pu3 3.280688 1_545
Pb0 Pu5 3.280688 1_545
Pb0 Pu7 3.302537 1_555
Pb0 Pu1 3.302537 1_555
Pb0 Pu4 3.437135 1_655
Pb0 Pu4 3.437135 1_555
Pb0 Pu2 3.437135 1_655
Pb0 Pu2 3.437135 1_555
Pb1 Pu9 3.251422 1_555
Pb1 Pu8 3.251422 1_555
Pb1 Pu4 3.280688 1_565
Pb1 Pu2 3.280688 1_565
Pb1 Pu0 3.302537 1_555
Pb1 Pu6 3.302537 1_555
Pb1 Pu3 3.437135 1_555
Pb1 Pu5 3.437135 1_555
Pb1 Pu3 3.437135 1_455
Pb1 Pu5 3.437135 1_455
Pb2 Pu8 3.251422 1_555
Pb2 Pu9 3.251422 1_655
Pb2 Pu6 3.280688 1_556
Pb2 Pu1 3.280688 1_556
Pb2 Pu3 3.302537 1_555
Pb2 Pu4 3.302537 1_655
Pb2 Pu0 3.437135 1_655
Pb2 Pu7 3.437135 1_655
Pb2 Pu0 3.437135 1_555
Pb2 Pu7 3.437135 1_555
Pb3 Pu9 3.251422 1_555
Pb3 Pu8 3.251422 1_455
Pb3 Pu0 3.280688 1_554
Pb3 Pu7 3.280688 1_554
Pb3 Pu5 3.302537 1_455
Pb3 Pu2 3.302537 1_555
Pb3 Pu6 3.437135 1_555
Pb3 Pu1 3.437135 1_555
Pb3 Pu6 3.437135 1_455
Pb3 Pu1 3.437135 1_455
Pb4 Pb5 2.977709 1_555
Pb4 Pb5 2.977709 1_455
Pb4 Pu2 3.333477 1_555
Pb4 Pu1 3.333477 1_455
Pb4 Pu7 3.333477 1_554
Pb4 Pu6 3.333477 1_545
Pb4 Pu3 3.333477 1_544
Pb4 Pu4 3.333477 1_554
Pb4 Pu5 3.333477 1_445
Pb4 Pu0 3.333477 1_544
Pb5 Pu1 3.333477 1_555
Pb5 Pu5 3.333477 1_545
Pb5 Pu2 3.333477 1_555
Pb5 Pu4 3.333477 1_654
Pb5 Pu6 3.333477 1_545
Pb5 Pu7 3.333477 1_554
Pb5 Pu0 3.333477 1_644
Pb5 Pu3 3.333477 1_544
