# generated using pymatgen
data_Sr2Mg
_symmetry_space_group_name_H-M   'P 1'
_cell_length_a   7.11223802
_cell_length_b   7.11223802
_cell_length_c   10.26049225
_cell_angle_alpha   68.36515005
_cell_angle_beta   68.36515005
_cell_angle_gamma   32.75282622
_symmetry_Int_Tables_number   1
_chemical_formula_structural   Sr2Mg
_chemical_formula_sum   'Sr4 Mg2'
_cell_volume   259.23545273
_cell_formula_units_Z   2
loop_
 _symmetry_equiv_pos_site_id
 _symmetry_equiv_pos_as_xyz
  1  'x, y, z'
loop_
 _atom_site_type_symbol
 _atom_site_label
 _atom_site_symmetry_multiplicity
 _atom_site_fract_x
 _atom_site_fract_y
 _atom_site_fract_z
 _atom_site_occupancy
  Sr  Sr0  1  0.16507122  0.16507122  0.88912253  1
  Sr  Sr1  1  0.48401765  0.48401765  0.69721162  1
  Sr  Sr2  1  0.51598235  0.51598235  0.30278838  1
  Sr  Sr3  1  0.83492878  0.83492878  0.11087747  1
  Mg  Mg0  1  0.80567733  0.80567733  0.56866846  1
  Mg  Mg1  1  0.19432267  0.19432267  0.43133154  1
loop_
_geom_bond_atom_site_label_1
_geom_bond_atom_site_label_2
_geom_bond_distance
_geom_bond_site_symmetry_2
Mg0 Mg1 3.156286 1_565
Mg0 Mg1 3.156286 1_655
Mg0 Sr0 3.696649 1_565
Mg0 Sr0 3.696649 1_655
Mg0 Sr2 3.699091 1_655
Mg0 Sr2 3.699091 1_565
Mg0 Sr1 3.761857 1_655
Mg0 Sr1 3.761857 1_565
Mg1 Sr3 3.696649 1_545
Mg1 Sr3 3.696649 1_455
Mg1 Sr1 3.699091 1_545
Mg1 Sr1 3.699091 1_455
Mg1 Sr2 3.761857 1_455
Mg1 Sr2 3.761857 1_545
