# generated using pymatgen
data_CaTiV(PO4)3
_symmetry_space_group_name_H-M   'P 1'
_cell_length_a   8.87059187
_cell_length_b   8.87059173
_cell_length_c   8.87059125
_cell_angle_alpha   58.46360295
_cell_angle_beta   58.46360429
_cell_angle_gamma   58.46360580
_symmetry_Int_Tables_number   1
_chemical_formula_structural   CaTiV(PO4)3
_chemical_formula_sum   'Ca2 Ti2 V2 P6 O24'
_cell_volume   476.21269316
_cell_formula_units_Z   2
loop_
 _symmetry_equiv_pos_site_id
 _symmetry_equiv_pos_as_xyz
  1  'x, y, z'
loop_
 _atom_site_type_symbol
 _atom_site_label
 _atom_site_symmetry_multiplicity
 _atom_site_fract_x
 _atom_site_fract_y
 _atom_site_fract_z
 _atom_site_occupancy
  Ca  Ca0  1  0.99832400  0.99832400  0.99832400  1
  Ca  Ca1  1  0.49832400  0.49832400  0.49832400  1
  Ti  Ti0  1  0.14737500  0.14737500  0.14737500  1
  Ti  Ti1  1  0.64737500  0.64737500  0.64737500  1
  V  V0  1  0.35441300  0.35441300  0.35441300  1
  V  V1  1  0.85441300  0.85441300  0.85441300  1
  P  P0  1  0.04032900  0.45957200  0.75195100  1
  P  P1  1  0.45957200  0.75195100  0.04032900  1
  P  P2  1  0.75195100  0.04032900  0.45957200  1
  P  P3  1  0.25195100  0.95957200  0.54032900  1
  P  P4  1  0.54032900  0.25195100  0.95957200  1
  P  P5  1  0.95957200  0.54032900  0.25195100  1
  O  O0  1  0.11999500  0.50851700  0.29613500  1
  O  O1  1  0.29613500  0.11999500  0.50851700  1
  O  O2  1  0.05613600  0.27166100  0.92237200  1
  O  O3  1  0.50851700  0.29613500  0.11999500  1
  O  O4  1  0.00851700  0.61999500  0.79613500  1
  O  O5  1  0.22636600  0.43512900  0.58452200  1
  O  O6  1  0.27166100  0.92237200  0.05613600  1
  O  O7  1  0.43512900  0.58452200  0.22636600  1
  O  O8  1  0.20603300  0.99883300  0.37233400  1
  O  O9  1  0.58452200  0.22636600  0.43512900  1
  O  O10  1  0.08452200  0.93512900  0.72636600  1
  O  O11  1  0.37233400  0.20603300  0.99883300  1
  O  O12  1  0.61999500  0.79613500  0.00851700  1
  O  O13  1  0.92237200  0.05613600  0.27166100  1
  O  O14  1  0.42237200  0.77166100  0.55613600  1
  O  O15  1  0.79613500  0.00851700  0.61999500  1
  O  O16  1  0.55613600  0.42237200  0.77166100  1
  O  O17  1  0.72636600  0.08452200  0.93512900  1
  O  O18  1  0.77166100  0.55613600  0.42237200  1
  O  O19  1  0.99883300  0.37233400  0.20603300  1
  O  O20  1  0.49883300  0.70603300  0.87233400  1
  O  O21  1  0.93512900  0.72636600  0.08452200  1
  O  O22  1  0.70603300  0.87233400  0.49883300  1
  O  O23  1  0.87233400  0.49883300  0.70603300  1
loop_
_geom_bond_atom_site_label_1
_geom_bond_atom_site_label_2
_geom_bond_distance
_geom_bond_site_symmetry_2
Ca0 O10 2.399039 1_655
Ca0 O21 2.399039 1_556
Ca0 O17 2.399039 1_565
Ca0 O13 2.413778 1_566
Ca0 O2 2.413779 1_665
Ca0 O6 2.413779 1_656
Ca1 O7 2.399039 1_555
Ca1 O9 2.399039 1_555
Ca1 O5 2.399039 1_555
Ca1 O16 2.413778 1_555
Ca1 O14 2.413779 1_555
Ca1 O18 2.413779 1_555
O0 P5 1.518547 1_455
O0 V0 1.967652 1_555
O1 P3 1.518547 1_545
O1 V0 1.967652 1_555
O2 P0 1.557158 1_555
O2 Ti0 2.075744 1_556
O3 P4 1.518546 1_554
O3 V0 1.967652 1_555
O4 P0 1.518547 1_555
O4 V1 1.967652 1_455
O5 P0 1.541049 1_555
O5 V0 2.054771 1_555
O6 P1 1.557158 1_555
O6 Ti0 2.075744 1_565
O7 P1 1.541049 1_555
O7 V0 2.054771 1_555
O8 P3 1.565759 1_555
O8 Ti0 1.899330 1_565
O9 P2 1.541050 1_555
O9 V0 2.054771 1_555
O10 P3 1.541049 1_555
O10 V1 2.054771 1_455
O11 P4 1.565759 1_555
O11 Ti0 1.899330 1_556
O12 P1 1.518547 1_555
O12 V1 1.967652 1_554
O13 P2 1.557158 1_555
O13 Ti0 2.075744 1_655
O14 P3 1.557158 1_555
O14 Ti1 2.075744 1_555
O15 P2 1.518546 1_555
O15 V1 1.967652 1_545
O16 P4 1.557158 1_555
O16 Ti1 2.075744 1_555
O17 P4 1.541050 1_555
O17 V1 2.054771 1_545
O18 P5 1.557158 1_555
O18 Ti1 2.075744 1_555
O19 P5 1.565759 1_555
O19 Ti0 1.899330 1_655
O20 P1 1.565759 1_556
O20 Ti1 1.899330 1_555
O21 P5 1.541049 1_555
O21 V1 2.054771 1_554
O22 P2 1.565759 1_565
O22 Ti1 1.899330 1_555
O23 P0 1.565759 1_655
O23 Ti1 1.899330 1_555
