# generated using pymatgen
data_CeZr2O6
_symmetry_space_group_name_H-M   'P 1'
_cell_length_a   3.72916557
_cell_length_b   3.72916557
_cell_length_c   9.02041800
_cell_angle_alpha   90.00000000
_cell_angle_beta   90.00000000
_cell_angle_gamma   119.99999246
_symmetry_Int_Tables_number   1
_chemical_formula_structural   CeZr2O6
_chemical_formula_sum   'Ce1 Zr2 O6'
_cell_volume   108.63772453
_cell_formula_units_Z   1
loop_
 _symmetry_equiv_pos_site_id
 _symmetry_equiv_pos_as_xyz
  1  'x, y, z'
loop_
 _atom_site_type_symbol
 _atom_site_label
 _atom_site_symmetry_multiplicity
 _atom_site_fract_x
 _atom_site_fract_y
 _atom_site_fract_z
 _atom_site_occupancy
  Ce  Ce0  1  0.00000000  0.00000000  0.00000000  1
  Zr  Zr0  1  0.33333300  0.66666700  0.65922700  1
  Zr  Zr1  1  0.66666700  0.33333300  0.34077300  1
  O  O0  1  0.00000000  0.00000000  0.26446800  1
  O  O1  1  0.33333300  0.66666700  0.90568000  1
  O  O2  1  0.66666700  0.33333300  0.58172700  1
  O  O3  1  0.66666700  0.33333300  0.09432000  1
  O  O4  1  0.00000000  0.00000000  0.73553200  1
  O  O5  1  0.33333300  0.66666700  0.41827300  1
loop_
_geom_bond_atom_site_label_1
_geom_bond_atom_site_label_2
_geom_bond_distance
_geom_bond_site_symmetry_2
Ce0 O1 2.315042 1_544
Ce0 O3 2.315042 1_455
Ce0 O1 2.315045 1_554
Ce0 O1 2.315045 1_444
Ce0 O3 2.315045 1_555
Ce0 O3 2.315045 1_445
Ce0 O0 2.385612 1_555
Ce0 O4 2.385612 1_554
O0 Zr1 2.260378 1_455
O0 Zr1 2.260382 1_445
O0 Zr1 2.260382 1_555
O1 Zr0 2.223109 1_555
O2 Zr1 2.173506 1_555
O2 Zr0 2.263684 1_545
O2 Zr0 2.263684 1_655
O2 Zr0 2.263690 1_555
O3 Zr1 2.223109 1_555
O4 Zr0 2.260378 1_545
O4 Zr0 2.260382 1_555
O4 Zr0 2.260382 1_445
O5 Zr0 2.173506 1_555
O5 Zr1 2.263684 1_455
O5 Zr1 2.263684 1_565
O5 Zr1 2.263690 1_555
