# generated using pymatgen
data_PaSb3
_symmetry_space_group_name_H-M   'P 1'
_cell_length_a   6.35636962
_cell_length_b   6.35636962
_cell_length_c   5.96619660
_cell_angle_alpha   90.00000000
_cell_angle_beta   90.00000000
_cell_angle_gamma   119.99999131
_symmetry_Int_Tables_number   1
_chemical_formula_structural   PaSb3
_chemical_formula_sum   'Pa2 Sb6'
_cell_volume   208.75962943
_cell_formula_units_Z   2
loop_
 _symmetry_equiv_pos_site_id
 _symmetry_equiv_pos_as_xyz
  1  'x, y, z'
loop_
 _atom_site_type_symbol
 _atom_site_label
 _atom_site_symmetry_multiplicity
 _atom_site_fract_x
 _atom_site_fract_y
 _atom_site_fract_z
 _atom_site_occupancy
  Pa  Pa0  1  0.66666700  0.33333300  0.25000000  1
  Pa  Pa1  1  0.33333300  0.66666700  0.75000000  1
  Sb  Sb0  1  0.82672594  0.17327406  0.75000000  1
  Sb  Sb1  1  0.34654712  0.17327406  0.75000000  1
  Sb  Sb2  1  0.82672594  0.65345288  0.75000000  1
  Sb  Sb3  1  0.17327406  0.82672594  0.25000000  1
  Sb  Sb4  1  0.65345288  0.82672594  0.25000000  1
  Sb  Sb5  1  0.17327406  0.34654712  0.25000000  1
loop_
_geom_bond_atom_site_label_1
_geom_bond_atom_site_label_2
_geom_bond_distance
_geom_bond_site_symmetry_2
Pa0 Sb5 3.179017 1_555
Pa0 Sb4 3.179017 1_555
Pa0 Sb5 3.179017 1_655
Pa0 Sb4 3.179017 1_545
Pa0 Sb3 3.179018 1_655
Pa0 Sb3 3.179018 1_545
Pa0 Sb0 3.464700 1_554
Pa0 Sb0 3.464700 1_555
Pa0 Sb1 3.464706 1_555
Pa0 Sb2 3.464706 1_554
Pa0 Sb2 3.464706 1_555
Pa0 Sb1 3.464706 1_554
Pa1 Sb2 3.179017 1_555
Pa1 Sb1 3.179017 1_555
Pa1 Sb1 3.179017 1_565
Pa1 Sb2 3.179017 1_455
Pa1 Sb0 3.179018 1_455
Pa1 Sb0 3.179018 1_565
Pa1 Sb3 3.464700 1_556
Pa1 Sb3 3.464700 1_555
Pa1 Sb4 3.464706 1_555
Pa1 Sb5 3.464706 1_556
Pa1 Sb5 3.464706 1_555
Pa1 Sb4 3.464706 1_556
Sb0 Sb2 3.052194 1_555
Sb0 Sb1 3.052194 1_555
Sb0 Sb1 3.304176 1_655
Sb0 Sb2 3.304176 1_545
Sb1 Sb2 3.052194 1_555
Sb1 Sb2 3.304176 1_445
Sb3 Sb5 3.052194 1_555
Sb3 Sb4 3.052194 1_555
Sb3 Sb5 3.304176 1_565
Sb3 Sb4 3.304176 1_455
Sb4 Sb5 3.052194 1_555
Sb4 Sb5 3.304176 1_665
