# generated using pymatgen
data_Y2Mn2O7
_symmetry_space_group_name_H-M   'P 1'
_cell_length_a   7.00130249
_cell_length_b   7.00122408
_cell_length_c   7.00126391
_cell_angle_alpha   60.00006398
_cell_angle_beta   60.00042797
_cell_angle_gamma   60.00020684
_symmetry_Int_Tables_number   1
_chemical_formula_structural   Y2Mn2O7
_chemical_formula_sum   'Y4 Mn4 O14'
_cell_volume   242.67026493
_cell_formula_units_Z   2
loop_
 _symmetry_equiv_pos_site_id
 _symmetry_equiv_pos_as_xyz
  1  'x, y, z'
loop_
 _atom_site_type_symbol
 _atom_site_label
 _atom_site_symmetry_multiplicity
 _atom_site_fract_x
 _atom_site_fract_y
 _atom_site_fract_z
 _atom_site_occupancy
  Y  Y0  1  0.12499997  0.12500013  0.12499991  1
  Y  Y1  1  0.62499994  0.12499994  0.12500026  1
  Y  Y2  1  0.12500024  0.12500011  0.62499991  1
  Y  Y3  1  0.12500002  0.62499988  0.12500007  1
  Mn  Mn0  1  0.62500005  0.62500037  0.62500080  1
  Mn  Mn1  1  0.12499934  0.62500047  0.62500006  1
  Mn  Mn2  1  0.62500066  0.62499997  0.12500022  1
  Mn  Mn3  1  0.62499884  0.12500003  0.62500008  1
  O  O0  1  -0.00000089  0.00000216  -0.00000064  1
  O  O1  1  0.25000087  0.24999783  0.25000063  1
  O  O2  1  0.29739600  0.29742862  0.70258747  1
  O  O3  1  0.54741500  0.54741062  0.95259024  1
  O  O4  1  0.70258804  0.29741774  0.70258932  1
  O  O5  1  0.70258745  0.29742114  0.29740095  1
  O  O6  1  0.29740185  0.70258916  0.70258631  1
  O  O7  1  0.29740478  0.70258954  0.29741819  1
  O  O8  1  0.70258459  0.70258948  0.29740869  1
  O  O9  1  0.95259822  0.54741059  0.54741350  1
  O  O10  1  0.54741270  0.95257894  0.95259883  1
  O  O11  1  0.95260514  0.95257067  0.54741268  1
  O  O12  1  0.95259518  0.54741062  0.95258170  1
  O  O13  1  0.54741203  0.95258199  0.54741080  1
loop_
_geom_bond_atom_site_label_1
_geom_bond_atom_site_label_2
_geom_bond_distance
_geom_bond_site_symmetry_2
Mn0 O13 1.911429 1_555
Mn0 O4 1.911438 1_555
Mn0 O3 1.911499 1_555
Mn0 O8 1.911517 1_555
Mn0 O9 1.911566 1_555
Mn0 O6 1.911569 1_555
Mn1 O11 1.911364 1_455
Mn1 O2 1.911375 1_555
Mn1 O9 1.911416 1_455
Mn1 O6 1.911417 1_555
Mn1 O12 1.911451 1_455
Mn1 O7 1.911454 1_555
Mn2 O5 1.911414 1_555
Mn2 O10 1.911415 1_554
Mn2 O8 1.911444 1_555
Mn2 O3 1.911462 1_554
Mn2 O12 1.911546 1_554
Mn2 O7 1.911552 1_555
Mn3 O13 1.911516 1_545
Mn3 O4 1.911526 1_555
Mn3 O10 1.911554 1_545
Mn3 O5 1.911556 1_555
Mn3 O2 1.911597 1_555
Mn3 O11 1.911616 1_545
O0 Y0 2.143683 1_555
O0 Y3 2.143693 1_545
O0 Y2 2.143694 1_554
O0 Y1 2.143708 1_455
O1 Y0 2.143683 1_555
O1 Y3 2.143692 1_555
O1 Y2 2.143693 1_555
O1 Y1 2.143707 1_555
O2 Y2 2.444949 1_555
O2 Y0 2.444965 1_556
O3 Y1 2.444935 1_556
O3 Y3 2.444995 1_556
O4 Y1 2.444951 1_556
O4 Y2 2.444975 1_655
O5 Y1 2.444931 1_555
O5 Y0 2.444978 1_655
O6 Y2 2.444938 1_565
O6 Y3 2.444972 1_556
O7 Y0 2.444936 1_565
O7 Y3 2.444953 1_555
O8 Y1 2.444934 1_565
O8 Y3 2.444998 1_655
O9 Y2 2.444935 1_655
O9 Y3 2.444970 1_655
O10 Y1 2.444933 1_566
O10 Y0 2.444979 1_566
O11 Y2 2.444949 1_665
O11 Y0 2.444966 1_665
O12 Y0 2.444936 1_656
O12 Y3 2.444953 1_656
O13 Y1 2.444949 1_565
O13 Y2 2.444973 1_565
