# generated using pymatgen
data_Ho4MgNi
_symmetry_space_group_name_H-M   'P 1'
_cell_length_a   9.53711178
_cell_length_b   9.53706301
_cell_length_c   9.53712185
_cell_angle_alpha   60.00026179
_cell_angle_beta   60.00042035
_cell_angle_gamma   60.00026064
_symmetry_Int_Tables_number   1
_chemical_formula_structural   Ho4MgNi
_chemical_formula_sum   'Ho16 Mg4 Ni4'
_cell_volume   613.39036921
_cell_formula_units_Z   4
loop_
 _symmetry_equiv_pos_site_id
 _symmetry_equiv_pos_as_xyz
  1  'x, y, z'
loop_
 _atom_site_type_symbol
 _atom_site_label
 _atom_site_symmetry_multiplicity
 _atom_site_fract_x
 _atom_site_fract_y
 _atom_site_fract_z
 _atom_site_occupancy
  Ho  Ho0  1  0.34603624  0.34603352  0.34603727  1
  Ho  Ho1  1  0.34603634  0.34603427  0.96189096  1
  Ho  Ho2  1  0.34603271  0.96189873  0.34603472  1
  Ho  Ho3  1  0.96189222  0.34603356  0.34603672  1
  Ho  Ho4  1  0.81227403  0.18772346  0.18772778  1
  Ho  Ho5  1  0.18772734  0.81227453  0.81227089  1
  Ho  Ho6  1  0.18772815  0.81227277  0.18772867  1
  Ho  Ho7  1  0.81227530  0.18772344  0.81227432  1
  Ho  Ho8  1  0.18772715  0.18772345  0.81227468  1
  Ho  Ho9  1  0.81227052  0.81227272  0.18772840  1
  Ho  Ho10  1  0.93590468  0.56408918  0.56410313  1
  Ho  Ho11  1  0.56409107  0.93590967  0.93590922  1
  Ho  Ho12  1  0.56408933  0.93591062  0.56409158  1
  Ho  Ho13  1  0.93590417  0.56409094  0.93590322  1
  Ho  Ho14  1  0.56410395  0.56409242  0.93590181  1
  Ho  Ho15  1  0.93591052  0.93591101  0.56409044  1
  Mg  Mg0  1  0.57893117  0.57892656  0.57893068  1
  Mg  Mg1  1  0.57891183  0.57890646  0.26324862  1
  Mg  Mg2  1  0.57890713  0.26325731  0.57890709  1
  Mg  Mg3  1  0.26325189  0.57890550  0.57891075  1
  Ni  Ni0  1  0.14182580  0.14183068  0.14182569  1
  Ni  Ni1  1  0.14182188  0.14182660  0.57452554  1
  Ni  Ni2  1  0.14182197  0.57452878  0.14182125  1
  Ni  Ni3  1  0.57452561  0.14182682  0.14182058  1
loop_
_geom_bond_atom_site_label_1
_geom_bond_atom_site_label_2
_geom_bond_distance
_geom_bond_site_symmetry_2
Ho0 Ni1 2.764013 1_555
Ho0 Ni3 2.764028 1_555
Ho0 Ni2 2.764075 1_555
Ho0 Mg3 3.451661 1_555
Ho0 Mg2 3.451662 1_555
Ho0 Mg1 3.451667 1_555
Ho0 Ho12 3.464814 1_545
Ho0 Ho10 3.464919 1_455
Ho0 Ho14 3.464956 1_554
Ho1 Ni0 2.763956 1_556
Ho1 Ni3 2.763998 1_556
Ho1 Ni2 2.764037 1_556
Ho1 Mg3 3.451834 1_555
Ho1 Mg2 3.451839 1_555
Ho1 Mg0 3.451855 1_555
Ho1 Ho11 3.464810 1_545
Ho1 Ho13 3.464908 1_455
Ho1 Ho14 3.464929 1_555
Ho2 Ni0 2.763975 1_565
Ho2 Ni1 2.763999 1_565
Ho2 Ni3 2.764014 1_565
Ho2 Mg3 3.451909 1_555
Ho2 Mg0 3.451920 1_555
Ho2 Mg1 3.451923 1_555
Ho3 Ni0 2.763957 1_655
Ho3 Ni1 2.763995 1_655
Ho3 Ni2 2.764038 1_655
Ho3 Mg2 3.451842 1_555
Ho3 Mg1 3.451848 1_555
Ho3 Mg0 3.451857 1_555
Ho4 Ni3 2.775139 1_555
Ho4 Ni0 2.775173 1_655
Ho4 Mg1 3.488763 1_555
Ho4 Mg2 3.488808 1_555
Ho5 Ni1 2.775133 1_565
Ho5 Ni2 2.775134 1_556
Ho5 Mg0 3.488808 1_555
Ho5 Mg3 3.488952 1_555
Ho6 Ni2 2.775148 1_555
Ho6 Ni0 2.775179 1_565
Ho6 Mg1 3.488779 1_555
Ho6 Mg3 3.488784 1_555
Ho7 Ni1 2.775127 1_655
Ho7 Ni3 2.775130 1_556
Ho7 Mg0 3.488791 1_555
Ho7 Mg2 3.488971 1_555
Ho8 Ni1 2.775137 1_555
Ho8 Ni0 2.775171 1_556
Ho8 Mg3 3.488771 1_555
Ho8 Mg2 3.488810 1_555
Ho9 Ni2 2.775133 1_655
Ho9 Ni3 2.775143 1_565
Ho9 Mg0 3.488791 1_555
Ho9 Mg1 3.488933 1_555
Ho10 Mg0 3.269166 1_555
Ho10 Mg3 3.269318 1_655
Ho10 Ni1 3.459877 1_655
Ho10 Ni2 3.460019 1_655
Ho10 Ho3 3.464908 1_555
Ho10 Ho13 3.545909 1_555
Ho10 Ho14 3.545920 1_555
Ho10 Ho15 3.546056 1_555
Ho10 Ho12 3.546079 1_555
Ho10 Ho7 3.580793 1_555
Ho10 Ho8 3.580797 1_655
Ho10 Ho6 3.580897 1_655
Ho10 Ho9 3.580901 1_555
Ho11 Mg1 3.269456 1_556
Ho11 Mg2 3.269490 1_565
Ho11 Ni3 3.459846 1_566
Ho11 Ni0 3.459911 1_566
Ho11 Ho2 3.464867 1_556
Ho11 Ho14 3.546018 1_555
Ho11 Ho13 3.546055 1_555
Ho11 Ho12 3.546074 1_555
Ho11 Ho15 3.546105 1_555
Ho11 Ho7 3.580795 1_565
Ho11 Ho9 3.580803 1_556
Ho11 Ho8 3.580814 1_565
Ho11 Ho6 3.580823 1_556
Ho12 Mg0 3.269179 1_555
Ho12 Mg2 3.269346 1_565
Ho12 Ni1 3.459905 1_565
Ho12 Ni3 3.459932 1_565
Ho12 Ho2 3.464841 1_555
Ho12 Ho14 3.546041 1_555
Ho12 Ho15 3.546097 1_555
Ho12 Ho8 3.580804 1_565
Ho12 Ho5 3.580811 1_555
Ho12 Ho4 3.580817 1_565
Ho12 Ho9 3.580832 1_555
Ho13 Mg1 3.269444 1_556
Ho13 Mg3 3.269455 1_655
Ho13 Ni0 3.459882 1_656
Ho13 Ni2 3.459931 1_656
Ho13 Ho3 3.464924 1_556
Ho13 Ho14 3.545900 1_555
Ho13 Ho15 3.546062 1_555
Ho13 Ho8 3.580804 1_655
Ho13 Ho4 3.580811 1_556
Ho13 Ho9 3.580873 1_556
Ho13 Ho5 3.580873 1_655
Ho14 Mg0 3.269162 1_555
Ho14 Mg1 3.269307 1_556
Ho14 Ni3 3.459904 1_556
Ho14 Ni2 3.460025 1_556
Ho14 Ho7 3.580811 1_555
Ho14 Ho4 3.580818 1_556
Ho14 Ho5 3.580898 1_555
Ho14 Ho6 3.580902 1_556
Ho15 Mg3 3.269475 1_655
Ho15 Mg2 3.269489 1_565
Ho15 Ni1 3.459835 1_665
Ho15 Ni0 3.459903 1_665
Ho15 Ho3 3.464793 1_565
Ho15 Ho2 3.464832 1_655
Ho15 Ho7 3.580783 1_565
Ho15 Ho5 3.580793 1_655
Ho15 Ho4 3.580816 1_565
Ho15 Ho6 3.580823 1_655
Mg0 Mg2 3.010785 1_555
Mg0 Mg3 3.010864 1_555
Mg0 Mg1 3.010886 1_555
Mg1 Mg2 3.010431 1_555
Mg1 Mg3 3.010515 1_555
Mg2 Mg3 3.010410 1_555
