# generated using pymatgen
data_Mg5Si6
_symmetry_space_group_name_H-M   'P 1'
_cell_length_a   8.09487111
_cell_length_b   4.15123242
_cell_length_c   12.95388683
_cell_angle_alpha   101.05556719
_cell_angle_beta   107.46913722
_cell_angle_gamma   89.52085878
_symmetry_Int_Tables_number   1
_chemical_formula_structural   Mg5Si6
_chemical_formula_sum   'Mg10 Si12'
_cell_volume   406.95288259
_cell_formula_units_Z   2
loop_
 _symmetry_equiv_pos_site_id
 _symmetry_equiv_pos_as_xyz
  1  'x, y, z'
loop_
 _atom_site_type_symbol
 _atom_site_label
 _atom_site_symmetry_multiplicity
 _atom_site_fract_x
 _atom_site_fract_y
 _atom_site_fract_z
 _atom_site_occupancy
  Mg  Mg0  1  0.05282200  0.25860600  0.98900200  1
  Mg  Mg1  1  0.56486700  0.96294800  0.40891300  1
  Mg  Mg2  1  0.68165700  0.55020900  0.58723100  1
  Mg  Mg3  1  0.29186900  0.46983500  0.40836400  1
  Mg  Mg4  1  0.26692400  0.85533700  0.17498200  1
  Mg  Mg5  1  0.58282900  0.65605700  0.79159800  1
  Mg  Mg6  1  0.11865800  0.60283100  0.67777000  1
  Mg  Mg7  1  0.88505400  0.46074400  0.40723700  1
  Mg  Mg8  1  0.79899500  0.78858700  0.04252000  1
  Mg  Mg9  1  0.31554100  0.72599100  0.92686400  1
  Si  Si0  1  0.58321000  0.23387400  0.94689500  1
  Si  Si1  1  0.40452000  0.30490900  0.06957300  1
  Si  Si2  1  0.15263300  0.03877500  0.51096000  1
  Si  Si3  1  0.88770900  0.03409400  0.56252000  1
  Si  Si4  1  0.83363500  0.12306300  0.74524200  1
  Si  Si5  1  0.99939300  0.35165500  0.19557900  1
  Si  Si6  1  0.72516900  0.86851600  0.23766800  1
  Si  Si7  1  0.47475700  0.07017800  0.62087700  1
  Si  Si8  1  0.34604300  0.14686500  0.77354300  1
  Si  Si9  1  0.53822100  0.38540400  0.26678500  1
  Si  Si10  1  0.04366100  0.92144100  0.30994400  1
  Si  Si11  1  0.94807200  0.68314000  0.84240500  1
loop_
_geom_bond_atom_site_label_1
_geom_bond_atom_site_label_2
_geom_bond_distance
_geom_bond_site_symmetry_2
Mg0 Si11 2.712800 1_445
Mg0 Si1 2.716549 1_556
Mg0 Si11 2.778996 1_455
Mg0 Si5 2.791549 1_456
Mg0 Si4 3.067081 1_455
Mg1 Si9 2.694742 1_555
Mg1 Si9 2.739576 1_565
Mg1 Si3 2.746217 1_565
Mg1 Si6 2.853856 1_555
Mg1 Si7 2.999614 1_565
Mg2 Si3 2.733623 1_555
Mg2 Si3 2.746402 1_565
Mg2 Si7 2.769689 1_565
Mg2 Si7 2.791617 1_555
Mg2 Si4 2.833465 1_565
Mg2 Si4 2.948040 1_555
Mg3 Si2 2.843211 1_555
Mg3 Si2 2.875018 1_565
Mg3 Si10 2.875813 1_545
Mg3 Si10 2.914218 1_555
Mg3 Si5 3.004405 1_455
Mg3 Si9 3.066067 1_555
Mg4 Si1 2.828434 1_555
Mg4 Si10 2.846539 1_555
Mg4 Si1 2.917752 1_565
Mg4 Si9 2.930577 1_565
Mg4 Si5 3.011239 1_465
Mg4 Si9 3.048418 1_555
Mg4 Si5 3.125637 1_455
Mg5 Si8 2.779958 1_565
Mg5 Si8 2.793867 1_555
Mg5 Si0 2.818908 1_565
Mg5 Si11 2.827748 1_555
Mg5 Si7 2.895250 1_555
Mg5 Si0 2.909783 1_555
Mg5 Si7 2.980400 1_565
Mg5 Si4 3.079788 1_565
Mg5 Si4 3.086301 1_555
Mg6 Si8 2.766139 1_565
Mg6 Si8 2.825115 1_555
Mg6 Si11 2.837942 1_455
Mg6 Si3 2.867465 1_465
Mg6 Si3 2.888654 1_455
Mg6 Si2 2.938221 1_555
Mg6 Si2 3.144005 1_565
Mg7 Si3 2.801843 1_565
Mg7 Si9 2.831979 1_555
Mg7 Si10 2.844330 1_645
Mg7 Si3 2.919470 1_555
Mg7 Si2 2.942323 1_655
Mg7 Si6 2.969748 1_545
Mg7 Si10 2.971751 1_655
Mg7 Si6 3.007991 1_555
Mg7 Si2 3.059063 1_665
Mg7 Si5 3.101541 1_555
Mg8 Si6 2.727571 1_555
Mg8 Si0 2.743642 1_564
Mg8 Si0 2.749984 1_554
Mg8 Si5 2.895028 1_565
Mg8 Si5 3.041634 1_555
Mg8 Si11 3.130790 1_554
Mg9 Si1 2.690240 1_566
Mg9 Si1 2.722247 1_556
Mg9 Si11 2.838531 1_455
Mg9 Si8 2.870273 1_555
Mg9 Si8 2.947974 1_565
Mg9 Si0 2.954191 1_555
Mg9 Si0 2.955716 1_565
Si0 Si1 2.428556 1_556
Si0 Si8 2.443574 1_555
Si1 Si9 2.414119 1_555
Si2 Si3 2.431273 1_455
Si2 Si7 2.559119 1_555
Si3 Si4 2.492904 1_555
Si4 Si7 2.854497 1_555
Si6 Si9 2.648494 1_565
Si6 Si9 2.671710 1_555
Si7 Si8 2.467393 1_555
Si10 Si2 2.436711 1_565
Si10 Si6 2.460301 1_455
Si10 Si5 2.489569 1_465
Si10 Si5 2.503879 1_455
Si11 Si4 2.435288 1_565
Si11 Si4 2.462044 1_555
