# generated using pymatgen
data_CaTl6C2(O3F)2
_symmetry_space_group_name_H-M   'P 1'
_cell_length_a   7.29702697
_cell_length_b   8.01011546
_cell_length_c   8.22688112
_cell_angle_alpha   129.50940072
_cell_angle_beta   105.67460344
_cell_angle_gamma   77.28919170
_symmetry_Int_Tables_number   1
_chemical_formula_structural   CaTl6C2(O3F)2
_chemical_formula_sum   'Ca1 Tl6 C2 O6 F2'
_cell_volume   356.44661226
_cell_formula_units_Z   1
loop_
 _symmetry_equiv_pos_site_id
 _symmetry_equiv_pos_as_xyz
  1  'x, y, z'
loop_
 _atom_site_type_symbol
 _atom_site_label
 _atom_site_symmetry_multiplicity
 _atom_site_fract_x
 _atom_site_fract_y
 _atom_site_fract_z
 _atom_site_occupancy
  Ca  Ca0  1  0.88136900  0.87083500  0.62462800  1
  Tl  Tl0  1  0.37332700  0.60725400  0.38636100  1
  Tl  Tl1  1  0.45672600  0.03567300  0.87314100  1
  Tl  Tl2  1  0.69958400  0.35441600  0.56514500  1
  Tl  Tl3  1  0.18004800  0.03981700  0.28037300  1
  Tl  Tl4  1  0.11457500  0.39427600  0.91860700  1
  Tl  Tl5  1  0.70495600  0.71990500  0.09597000  1
  C  C0  1  0.25889000  0.63429200  0.77823400  1
  C  C1  1  0.81355700  0.31458200  0.14861600  1
  O  O0  1  0.34370800  0.63744800  0.94234700  1
  O  O1  1  0.13958200  0.79682400  0.81117100  1
  O  O2  1  0.29392400  0.47401100  0.58792700  1
  O  O3  1  0.81968700  0.22127100  0.94998200  1
  O  O4  1  0.79546000  0.19569900  0.20013300  1
  O  O5  1  0.81952600  0.52422400  0.29142800  1
  F  F0  1  0.08433700  0.94674500  0.52738700  1
  F  F1  1  0.62699200  0.97439500  0.46855200  1
loop_
_geom_bond_atom_site_label_1
_geom_bond_atom_site_label_2
_geom_bond_distance
_geom_bond_site_symmetry_2
Ca0 F0 2.204250 1_655
Ca0 F1 2.274228 1_555
Ca0 O1 2.315263 1_655
Ca0 O5 2.371760 1_555
Ca0 O3 2.404431 1_565
C0 O2 1.295796 1_555
C0 O1 1.306186 1_555
C0 O0 1.310916 1_555
C1 O5 1.302426 1_555
C1 O3 1.304499 1_554
C1 O4 1.304988 1_555
O0 Tl5 2.624133 1_556
O0 Tl4 2.720372 1_555
O2 Tl0 2.695908 1_555
O4 Tl2 2.647511 1_555
O5 Tl5 2.765036 1_555
F1 Tl5 2.521095 1_555
F1 Tl2 2.753597 1_565
