# generated using pymatgen
data_Rb3FeF6
_symmetry_space_group_name_H-M   'P 1'
_cell_length_a   6.64660302
_cell_length_b   6.64660302
_cell_length_c   6.64660302
_cell_angle_alpha   120.85137857
_cell_angle_beta   120.85137857
_cell_angle_gamma   88.53158794
_symmetry_Int_Tables_number   1
_chemical_formula_structural   Rb3FeF6
_chemical_formula_sum   'Rb3 Fe1 F6'
_cell_volume   204.88231066
_cell_formula_units_Z   1
loop_
 _symmetry_equiv_pos_site_id
 _symmetry_equiv_pos_as_xyz
  1  'x, y, z'
loop_
 _atom_site_type_symbol
 _atom_site_label
 _atom_site_symmetry_multiplicity
 _atom_site_fract_x
 _atom_site_fract_y
 _atom_site_fract_z
 _atom_site_occupancy
  Rb  Rb0  1  0.75000000  0.25000000  0.50000000  1
  Rb  Rb1  1  0.25000000  0.75000000  0.50000000  1
  Rb  Rb2  1  0.50000000  0.50000000  0.00000000  1
  Fe  Fe0  1  0.00000000  0.00000000  0.00000000  1
  F  F0  1  0.00000000  0.29557200  0.29557200  1
  F  F1  1  0.00000000  0.70442800  0.70442800  1
  F  F2  1  0.29557200  0.00000000  0.29557200  1
  F  F3  1  0.70442800  0.00000000  0.70442800  1
  F  F4  1  0.21392300  0.21392300  0.00000000  1
  F  F5  1  0.78607700  0.78607700  0.00000000  1
loop_
_geom_bond_atom_site_label_1
_geom_bond_atom_site_label_2
_geom_bond_distance
_geom_bond_site_symmetry_2
F0 Fe0 1.939215 1_555
F0 Rb1 2.731771 1_555
F0 Rb0 2.731771 1_455
F1 Fe0 1.939215 1_566
F1 Rb0 2.731771 1_455
F1 Rb1 2.731771 1_555
F2 Fe0 1.939215 1_555
F2 Rb1 2.731771 1_545
F2 Rb0 2.731771 1_555
F3 Fe0 1.939215 1_656
F3 Rb1 2.731771 1_545
F3 Rb0 2.731771 1_555
F4 Fe0 2.036417 1_555
F4 Rb2 2.723279 1_555
F4 Rb0 3.298372 1_555
F4 Rb1 3.298372 1_555
F4 Rb0 3.298372 1_454
F4 Rb1 3.298372 1_544
F5 Fe0 2.036417 1_665
F5 Rb2 2.723279 1_555
F5 Rb1 3.298372 1_554
F5 Rb0 3.298372 1_565
F5 Rb1 3.298372 1_655
F5 Rb0 3.298372 1_554
