# generated using pymatgen
data_LiH2N
_symmetry_space_group_name_H-M   'P 1'
_cell_length_a   3.65038300
_cell_length_b   5.45522500
_cell_length_c   6.23558600
_cell_angle_alpha   90.00000000
_cell_angle_beta   90.00000000
_cell_angle_gamma   90.00000000
_symmetry_Int_Tables_number   1
_chemical_formula_structural   LiH2N
_chemical_formula_sum   'Li4 H8 N4'
_cell_volume   124.17334325
_cell_formula_units_Z   4
loop_
 _symmetry_equiv_pos_site_id
 _symmetry_equiv_pos_as_xyz
  1  'x, y, z'
loop_
 _atom_site_type_symbol
 _atom_site_label
 _atom_site_symmetry_multiplicity
 _atom_site_fract_x
 _atom_site_fract_y
 _atom_site_fract_z
 _atom_site_occupancy
  Li  Li0  1  0.01284600  0.70866100  0.62624700  1
  Li  Li1  1  0.51284600  0.79133900  0.37375300  1
  Li  Li2  1  0.48715400  0.29133900  0.12624700  1
  Li  Li3  1  0.98715400  0.20866100  0.87375300  1
  H  H0  1  0.47954600  0.49275700  0.76688000  1
  H  H1  1  0.97954600  0.00724300  0.23312000  1
  H  H2  1  0.02045400  0.50724300  0.26688000  1
  H  H3  1  0.52045400  0.99275700  0.73312000  1
  H  H4  1  0.56463900  0.35235600  0.54434000  1
  H  H5  1  0.06463900  0.14764400  0.45566000  1
  H  H6  1  0.93536100  0.64764400  0.04434000  1
  H  H7  1  0.43536100  0.85235600  0.95566000  1
  N  N0  1  0.01928200  0.97595500  0.39441800  1
  N  N1  1  0.51928200  0.52404500  0.60558200  1
  N  N2  1  0.48071800  0.02404500  0.89441800  1
  N  N3  1  0.98071800  0.47595500  0.10558200  1
loop_
_geom_bond_atom_site_label_1
_geom_bond_atom_site_label_2
_geom_bond_distance
_geom_bond_site_symmetry_2
Li0 N0 2.053407 1_555
Li0 N1 2.068094 1_455
Li0 N1 2.109155 1_555
Li1 N1 2.053407 1_555
Li1 N0 2.068094 1_555
Li1 N0 2.109155 1_655
Li2 N2 2.053407 1_554
Li2 N3 2.068094 1_555
Li2 N3 2.109155 1_455
Li3 N3 2.053407 1_556
Li3 N2 2.068094 1_655
Li3 N2 2.109155 1_555
H0 N1 1.030428 1_555
H1 N0 1.030428 1_645
H2 N3 1.030428 1_455
H3 N2 1.030428 1_565
H4 N1 1.024924 1_555
H5 N0 1.024924 1_545
H6 N3 1.024924 1_555
H7 N2 1.024924 1_565
