# generated using pymatgen
data_K2TiCr(PO4)3
_symmetry_space_group_name_H-M   'P 1'
_cell_length_a   9.94820100
_cell_length_b   9.94820100
_cell_length_c   9.94820100
_cell_angle_alpha   90.00000000
_cell_angle_beta   90.00000000
_cell_angle_gamma   90.00000000
_symmetry_Int_Tables_number   1
_chemical_formula_structural   K2TiCr(PO4)3
_chemical_formula_sum   'K8 Ti4 Cr4 P12 O48'
_cell_volume   984.54065511
_cell_formula_units_Z   4
loop_
 _symmetry_equiv_pos_site_id
 _symmetry_equiv_pos_as_xyz
  1  'x, y, z'
loop_
 _atom_site_type_symbol
 _atom_site_label
 _atom_site_symmetry_multiplicity
 _atom_site_fract_x
 _atom_site_fract_y
 _atom_site_fract_z
 _atom_site_occupancy
  K  K0  1  0.31657900  0.18342100  0.81657900  1
  K  K1  1  0.18342100  0.81657900  0.31657900  1
  K  K2  1  0.68342100  0.68342100  0.68342100  1
  K  K3  1  0.81657900  0.31657900  0.18342100  1
  K  K4  1  0.54380100  0.95619900  0.04380100  1
  K  K5  1  0.95619900  0.04380100  0.54380100  1
  K  K6  1  0.45619900  0.45619900  0.45619900  1
  K  K7  1  0.04380100  0.54380100  0.95619900  1
  Ti  Ti0  1  0.16379400  0.16379400  0.16379400  1
  Ti  Ti1  1  0.83620600  0.66379400  0.33620600  1
  Ti  Ti2  1  0.66379400  0.33620600  0.83620600  1
  Ti  Ti3  1  0.33620600  0.83620600  0.66379400  1
  Cr  Cr0  1  0.39479400  0.60520600  0.10520600  1
  Cr  Cr1  1  0.89479400  0.89479400  0.89479400  1
  Cr  Cr2  1  0.10520600  0.39479400  0.60520600  1
  Cr  Cr3  1  0.60520600  0.10520600  0.39479400  1
  P  P0  1  0.20707300  0.87530600  0.97756700  1
  P  P1  1  0.02243300  0.70707300  0.62469400  1
  P  P2  1  0.37530600  0.52243300  0.79292700  1
  P  P3  1  0.70707300  0.62469400  0.02243300  1
  P  P4  1  0.52243300  0.79292700  0.37530600  1
  P  P5  1  0.87530600  0.97756700  0.20707300  1
  P  P6  1  0.79292700  0.37530600  0.52243300  1
  P  P7  1  0.97756700  0.20707300  0.87530600  1
  P  P8  1  0.62469400  0.02243300  0.70707300  1
  P  P9  1  0.29292700  0.12469400  0.47756700  1
  P  P10  1  0.47756700  0.29292700  0.12469400  1
  P  P11  1  0.12469400  0.47756700  0.29292700  1
  O  O0  1  0.22788000  0.01237200  0.05117100  1
  O  O1  1  0.94882900  0.72788000  0.48762800  1
  O  O2  1  0.51237200  0.44882900  0.77212000  1
  O  O3  1  0.72788000  0.48762800  0.94882900  1
  O  O4  1  0.44882900  0.77212000  0.51237200  1
  O  O5  1  0.01237200  0.05117100  0.22788000  1
  O  O6  1  0.77212000  0.51237200  0.44882900  1
  O  O7  1  0.05117100  0.22788000  0.01237200  1
  O  O8  1  0.48762800  0.94882900  0.72788000  1
  O  O9  1  0.27212000  0.98762800  0.55117100  1
  O  O10  1  0.55117100  0.27212000  0.98762800  1
  O  O11  1  0.98762800  0.55117100  0.27212000  1
  O  O12  1  0.24895900  0.89759600  0.82835800  1
  O  O13  1  0.17164200  0.74895900  0.60240400  1
  O  O14  1  0.39759600  0.67164200  0.75104100  1
  O  O15  1  0.74895900  0.60240400  0.17164200  1
  O  O16  1  0.67164200  0.75104100  0.39759600  1
  O  O17  1  0.89759600  0.82835800  0.24895900  1
  O  O18  1  0.75104100  0.39759600  0.67164200  1
  O  O19  1  0.82835800  0.24895900  0.89759600  1
  O  O20  1  0.60240400  0.17164200  0.74895900  1
  O  O21  1  0.25104100  0.10240400  0.32835800  1
  O  O22  1  0.32835800  0.25104100  0.10240400  1
  O  O23  1  0.10240400  0.32835800  0.25104100  1
  O  O24  1  0.29949300  0.77508600  0.04830700  1
  O  O25  1  0.95169300  0.79949300  0.72491400  1
  O  O26  1  0.27508600  0.45169300  0.70050700  1
  O  O27  1  0.79949300  0.72491400  0.95169300  1
  O  O28  1  0.45169300  0.70050700  0.27508600  1
  O  O29  1  0.77508600  0.04830700  0.29949300  1
  O  O30  1  0.70050700  0.27508600  0.45169300  1
  O  O31  1  0.04830700  0.29949300  0.77508600  1
  O  O32  1  0.72491400  0.95169300  0.79949300  1
  O  O33  1  0.20050700  0.22491400  0.54830700  1
  O  O34  1  0.54830700  0.20050700  0.22491400  1
  O  O35  1  0.22491400  0.54830700  0.20050700  1
  O  O36  1  0.05998900  0.82738300  0.98707000  1
  O  O37  1  0.01293000  0.55998900  0.67261700  1
  O  O38  1  0.32738300  0.51293000  0.94001100  1
  O  O39  1  0.55998900  0.67261700  0.01293000  1
  O  O40  1  0.51293000  0.94001100  0.32738300  1
  O  O41  1  0.82738300  0.98707000  0.05998900  1
  O  O42  1  0.94001100  0.32738300  0.51293000  1
  O  O43  1  0.98707000  0.05998900  0.82738300  1
  O  O44  1  0.67261700  0.01293000  0.55998900  1
  O  O45  1  0.44001100  0.17261700  0.48707000  1
  O  O46  1  0.48707000  0.44001100  0.17261700  1
  O  O47  1  0.17261700  0.48707000  0.44001100  1
loop_
_geom_bond_atom_site_label_1
_geom_bond_atom_site_label_2
_geom_bond_distance
_geom_bond_site_symmetry_2
K0 O20 2.924283 1_555
K0 O12 2.924283 1_545
K0 O22 2.924283 1_556
K0 O26 2.937066 1_555
K0 O33 2.937066 1_555
K0 O31 2.937066 1_555
K0 O8 3.020040 1_545
K0 O0 3.020040 1_556
K0 O10 3.020040 1_555
K1 O13 2.924283 1_555
K1 O17 2.924283 1_455
K1 O21 2.924283 1_565
K1 O28 2.937066 1_555
K1 O35 2.937066 1_555
K1 O24 2.937066 1_555
K1 O1 3.020040 1_455
K1 O5 3.020040 1_565
K1 O9 3.020040 1_555
K2 O14 2.924283 1_555
K2 O16 2.924283 1_555
K2 O18 2.924283 1_555
K2 O32 2.937066 1_555
K2 O27 2.937066 1_555
K2 O25 2.937066 1_555
K2 O6 3.020040 1_555
K2 O4 3.020040 1_555
K2 O2 3.020040 1_555
K3 O15 2.924283 1_555
K3 O19 2.924283 1_554
K3 O23 2.924283 1_655
K3 O30 2.937066 1_555
K3 O34 2.937066 1_555
K3 O29 2.937066 1_555
K3 O3 3.020040 1_554
K3 O7 3.020040 1_655
K3 O11 3.020040 1_555
K4 O39 2.842363 1_555
K4 O40 2.842363 1_555
K4 O41 2.842363 1_555
K4 O24 3.025768 1_555
K4 O32 3.025768 1_554
K4 O34 3.025768 1_565
K4 O0 3.192982 1_565
K4 O8 3.192982 1_554
K4 O10 3.192982 1_564
K5 O44 2.842363 1_555
K5 O42 2.842363 1_555
K5 O43 2.842363 1_555
K5 O29 3.025768 1_555
K5 O25 3.025768 1_545
K5 O33 3.025768 1_655
K5 O1 3.192982 1_545
K5 O5 3.192982 1_655
K5 O9 3.192982 1_645
K6 O46 2.842363 1_555
K6 O47 2.842363 1_555
K6 O45 2.842363 1_555
K6 O28 3.025768 1_555
K6 O26 3.025768 1_555
K6 O30 3.025768 1_555
K6 O4 3.192982 1_555
K6 O2 3.192982 1_555
K6 O6 3.192982 1_555
K7 O37 2.842363 1_555
K7 O38 2.842363 1_555
K7 O36 2.842363 1_555
K7 O31 3.025768 1_555
K7 O27 3.025768 1_455
K7 O35 3.025768 1_556
K7 O3 3.192982 1_455
K7 O7 3.192982 1_556
K7 O11 3.192982 1_456
Cr0 O39 1.998289 1_555
Cr0 O46 1.998289 1_555
Cr0 O38 1.998289 1_554
Cr0 O24 2.018749 1_555
Cr0 O28 2.018749 1_555
Cr0 O35 2.018749 1_555
Cr1 O36 1.998289 1_655
Cr1 O43 1.998289 1_565
Cr1 O41 1.998289 1_556
Cr1 O32 2.018749 1_555
Cr1 O27 2.018749 1_555
Cr1 O25 2.018749 1_555
Cr2 O37 1.998289 1_555
Cr2 O47 1.998289 1_555
Cr2 O42 1.998289 1_455
Cr2 O31 2.018749 1_555
Cr2 O26 2.018749 1_555
Cr2 O33 2.018749 1_555
Cr3 O44 1.998289 1_555
Cr3 O45 1.998289 1_555
Cr3 O40 1.998289 1_545
Cr3 O29 2.018749 1_555
Cr3 O30 2.018749 1_555
Cr3 O34 2.018749 1_555
O0 P0 1.561505 1_544
O0 Ti0 1.982654 1_555
O1 P1 1.561505 1_655
O1 Ti1 1.982654 1_555
O2 P2 1.561505 1_555
O2 Ti2 1.982654 1_555
O3 P3 1.561505 1_556
O3 Ti2 1.982654 1_555
O4 P4 1.561505 1_555
O4 Ti3 1.982654 1_555
O5 P5 1.561505 1_445
O5 Ti0 1.982654 1_555
O6 P6 1.561505 1_555
O6 Ti1 1.982654 1_555
O7 P7 1.561505 1_454
O7 Ti0 1.982654 1_555
O8 P8 1.561505 1_565
O8 Ti3 1.982654 1_555
O9 P9 1.561505 1_565
O9 Ti3 1.982654 1_555
O10 P10 1.561505 1_556
O10 Ti2 1.982654 1_555
O11 P11 1.561505 1_655
O11 Ti1 1.982654 1_555
O12 P0 1.557604 1_555
O12 Ti3 1.951016 1_555
O13 P1 1.557604 1_555
O13 Ti3 1.951016 1_555
O14 P2 1.557604 1_555
O14 Ti3 1.951016 1_555
O15 P3 1.557604 1_555
O15 Ti1 1.951016 1_555
O16 P4 1.557604 1_555
O16 Ti1 1.951016 1_555
O17 P5 1.557604 1_555
O17 Ti1 1.951016 1_555
O18 P6 1.557604 1_555
O18 Ti2 1.951016 1_555
O19 P7 1.557604 1_555
O19 Ti2 1.951016 1_555
O20 P8 1.557604 1_555
O20 Ti2 1.951016 1_555
O21 P9 1.557604 1_555
O21 Ti0 1.951016 1_555
O22 P10 1.557604 1_555
O22 Ti0 1.951016 1_555
O23 P11 1.557604 1_555
O23 Ti0 1.951016 1_555
O24 P0 1.527937 1_554
O25 P1 1.527937 1_655
O26 P2 1.527937 1_555
O27 P3 1.527937 1_556
O28 P4 1.527937 1_555
O29 P5 1.527937 1_545
O30 P6 1.527937 1_555
O31 P7 1.527937 1_455
O32 P8 1.527937 1_565
O33 P9 1.527937 1_555
O34 P10 1.527937 1_555
O35 P11 1.527937 1_555
O36 P0 1.541831 1_555
O37 P1 1.541831 1_555
O38 P2 1.541831 1_555
O39 P3 1.541831 1_555
O40 P4 1.541831 1_555
O41 P5 1.541831 1_555
O42 P6 1.541831 1_555
O43 P7 1.541831 1_555
O44 P8 1.541831 1_555
O45 P9 1.541831 1_555
O46 P10 1.541831 1_555
O47 P11 1.541831 1_555
