# generated using pymatgen
data_Y5Sb3
_symmetry_space_group_name_H-M   'P 1'
_cell_length_a   8.15771077
_cell_length_b   9.28713531
_cell_length_c   11.97450924
_cell_angle_alpha   90.00000000
_cell_angle_beta   90.00000000
_cell_angle_gamma   90.00000000
_symmetry_Int_Tables_number   1
_chemical_formula_structural   Y5Sb3
_chemical_formula_sum   'Y20 Sb12'
_cell_volume   907.20993995
_cell_formula_units_Z   4
loop_
 _symmetry_equiv_pos_site_id
 _symmetry_equiv_pos_as_xyz
  1  'x, y, z'
loop_
 _atom_site_type_symbol
 _atom_site_label
 _atom_site_symmetry_multiplicity
 _atom_site_fract_x
 _atom_site_fract_y
 _atom_site_fract_z
 _atom_site_occupancy
  Y  Y0  1  0.17070686  0.75000000  0.77406216  1
  Y  Y1  1  0.82929314  0.25000000  0.22593784  1
  Y  Y2  1  0.67070686  0.25000000  0.72593784  1
  Y  Y3  1  0.32929314  0.75000000  0.27406216  1
  Y  Y4  1  0.80962506  0.94285582  0.93229312  1
  Y  Y5  1  0.19037494  0.05714418  0.06770688  1
  Y  Y6  1  0.30962506  0.05714418  0.56770688  1
  Y  Y7  1  0.19037494  0.44285582  0.06770688  1
  Y  Y8  1  0.69037494  0.94285582  0.43229312  1
  Y  Y9  1  0.80962506  0.55714418  0.93229312  1
  Y  Y10  1  0.69037494  0.55714418  0.43229312  1
  Y  Y11  1  0.30962506  0.44285582  0.56770688  1
  Y  Y12  1  0.65562767  0.75000000  0.70793114  1
  Y  Y13  1  0.34437233  0.25000000  0.29206886  1
  Y  Y14  1  0.15562767  0.25000000  0.79206886  1
  Y  Y15  1  0.84437233  0.75000000  0.20793114  1
  Y  Y16  1  0.47274850  0.75000000  0.99606024  1
  Y  Y17  1  0.52725150  0.25000000  0.00393976  1
  Y  Y18  1  0.97274850  0.25000000  0.50393976  1
  Y  Y19  1  0.02725150  0.75000000  0.49606024  1
  Sb  Sb0  1  0.93664931  0.99174930  0.67385195  1
  Sb  Sb1  1  0.06335069  0.00825070  0.32614805  1
  Sb  Sb2  1  0.43664931  0.00825070  0.82614805  1
  Sb  Sb3  1  0.06335069  0.49174930  0.32614805  1
  Sb  Sb4  1  0.56335069  0.99174930  0.17385195  1
  Sb  Sb5  1  0.93664931  0.50825070  0.67385195  1
  Sb  Sb6  1  0.56335069  0.50825070  0.17385195  1
  Sb  Sb7  1  0.43664931  0.49174930  0.82614805  1
  Sb  Sb8  1  0.40741622  0.75000000  0.52303537  1
  Sb  Sb9  1  0.59258378  0.25000000  0.47696463  1
  Sb  Sb10  1  0.90741622  0.25000000  0.97696463  1
  Sb  Sb11  1  0.09258378  0.75000000  0.02303537  1
loop_
_geom_bond_atom_site_label_1
_geom_bond_atom_site_label_2
_geom_bond_distance
_geom_bond_site_symmetry_2
Sb0 Y18 3.158916 1_565
Sb0 Y19 3.181120 1_655
Sb0 Y0 3.182196 1_655
Sb0 Y12 3.234624 1_555
Sb0 Y2 3.293634 1_565
Sb0 Y4 3.295021 1_555
Sb0 Y14 3.308678 1_665
Sb0 Y6 3.352904 1_665
Sb0 Y8 3.550950 1_555
Sb1 Y19 3.158916 1_545
Sb1 Y18 3.181120 1_455
Sb1 Y1 3.182196 1_455
Sb1 Y13 3.234624 1_555
Sb1 Y3 3.293634 1_545
Sb1 Y5 3.295021 1_555
Sb1 Y15 3.308678 1_445
Sb1 Y8 3.352904 1_445
Sb1 Y6 3.550950 1_555
Sb2 Y16 3.158916 1_545
Sb2 Y17 3.181120 1_556
Sb2 Y2 3.182196 1_555
Sb2 Y14 3.234624 1_555
Sb2 Y0 3.293634 1_545
Sb2 Y6 3.295021 1_555
Sb2 Y12 3.308678 1_545
Sb2 Y4 3.352904 1_545
Sb2 Y5 3.550950 1_556
Sb3 Y19 3.158916 1_555
Sb3 Y18 3.181120 1_455
Sb3 Y1 3.182196 1_455
Sb3 Y13 3.234624 1_555
Sb3 Y3 3.293634 1_555
Sb3 Y7 3.295021 1_555
Sb3 Y15 3.308678 1_455
Sb3 Y10 3.352904 1_455
Sb3 Y11 3.550950 1_555
Sb4 Y17 3.158916 1_565
Sb4 Y16 3.181120 1_554
Sb4 Y3 3.182196 1_555
Sb4 Y15 3.234624 1_555
Sb4 Y1 3.293634 1_565
Sb4 Y8 3.295021 1_555
Sb4 Y13 3.308678 1_565
Sb4 Y5 3.352904 1_565
Sb4 Y4 3.550950 1_554
Sb5 Y18 3.158916 1_555
Sb5 Y19 3.181120 1_655
Sb5 Y0 3.182196 1_655
Sb5 Y12 3.234624 1_555
Sb5 Y2 3.293634 1_555
Sb5 Y9 3.295021 1_555
Sb5 Y14 3.308678 1_655
Sb5 Y11 3.352904 1_655
Sb5 Y10 3.550950 1_555
Sb6 Y17 3.158916 1_555
Sb6 Y16 3.181120 1_554
Sb6 Y3 3.182196 1_555
Sb6 Y15 3.234624 1_555
Sb6 Y1 3.293634 1_555
Sb6 Y10 3.295021 1_555
Sb6 Y13 3.308678 1_555
Sb6 Y7 3.352904 1_555
Sb6 Y9 3.550950 1_554
Sb7 Y16 3.158916 1_555
Sb7 Y17 3.181120 1_556
Sb7 Y2 3.182196 1_555
Sb7 Y14 3.234624 1_555
Sb7 Y0 3.293634 1_555
Sb7 Y11 3.295021 1_555
Sb7 Y12 3.308678 1_555
Sb7 Y9 3.352904 1_555
Sb7 Y7 3.550950 1_556
Sb8 Y12 3.000320 1_555
Sb8 Y11 3.009858 1_555
Sb8 Y6 3.009858 1_565
Sb8 Y3 3.048688 1_555
Sb8 Y10 3.117190 1_555
Sb8 Y8 3.117190 1_555
Sb8 Y19 3.118050 1_555
Sb8 Y0 3.572724 1_555
Sb9 Y13 3.000320 1_555
Sb9 Y10 3.009858 1_555
Sb9 Y8 3.009858 1_545
Sb9 Y2 3.048688 1_555
Sb9 Y11 3.117190 1_555
Sb9 Y6 3.117190 1_555
Sb9 Y18 3.118050 1_555
Sb9 Y1 3.572724 1_555
Sb10 Y14 3.000320 1_655
Sb10 Y9 3.009858 1_555
Sb10 Y4 3.009858 1_545
Sb10 Y1 3.048688 1_556
Sb10 Y7 3.117190 1_656
Sb10 Y5 3.117190 1_656
Sb10 Y17 3.118050 1_556
Sb10 Y2 3.572724 1_555
Sb11 Y15 3.000320 1_455
Sb11 Y7 3.009858 1_555
Sb11 Y5 3.009858 1_565
Sb11 Y0 3.048688 1_554
Sb11 Y9 3.117190 1_454
Sb11 Y4 3.117190 1_454
Sb11 Y16 3.118050 1_554
Sb11 Y3 3.572724 1_555
