# generated using pymatgen
data_MnZn2Si(HO3)2
_symmetry_space_group_name_H-M   'P 1'
_cell_length_a   5.37073100
_cell_length_b   8.32102900
_cell_length_c   11.88280364
_cell_angle_alpha   84.45612715
_cell_angle_beta   90.00000000
_cell_angle_gamma   90.00000000
_symmetry_Int_Tables_number   1
_chemical_formula_structural   MnZn2Si(HO3)2
_chemical_formula_sum   'Mn4 Zn8 Si4 H8 O24'
_cell_volume   528.55865055
_cell_formula_units_Z   4
loop_
 _symmetry_equiv_pos_site_id
 _symmetry_equiv_pos_as_xyz
  1  'x, y, z'
loop_
 _atom_site_type_symbol
 _atom_site_label
 _atom_site_symmetry_multiplicity
 _atom_site_fract_x
 _atom_site_fract_y
 _atom_site_fract_z
 _atom_site_occupancy
  Mn  Mn0  1  0.25467800  0.60664000  0.45619300  1
  Mn  Mn1  1  0.75467800  0.89336000  0.54380700  1
  Mn  Mn2  1  0.74532200  0.39336000  0.54380700  1
  Mn  Mn3  1  0.24532200  0.10664000  0.45619300  1
  Zn  Zn0  1  0.43368700  0.77322200  0.92065000  1
  Zn  Zn1  1  0.93368700  0.72677800  0.07935000  1
  Zn  Zn2  1  0.56631300  0.22677800  0.07935000  1
  Zn  Zn3  1  0.06631300  0.27322200  0.92065000  1
  Zn  Zn4  1  0.43571000  0.11141400  0.75089900  1
  Zn  Zn5  1  0.93571000  0.38858600  0.24910100  1
  Zn  Zn6  1  0.56429000  0.88858600  0.24910100  1
  Zn  Zn7  1  0.06429000  0.61141400  0.75089900  1
  Si  Si0  1  0.43154300  0.56776200  0.17119900  1
  Si  Si1  1  0.93154300  0.93223800  0.82880100  1
  Si  Si2  1  0.56845700  0.43223800  0.82880100  1
  Si  Si3  1  0.06845700  0.06776200  0.17119900  1
  H  H0  1  0.27870900  0.91069900  0.64093000  1
  H  H1  1  0.77870900  0.58930100  0.35907000  1
  H  H2  1  0.72129100  0.08930100  0.35907000  1
  H  H3  1  0.22129100  0.41069900  0.64093000  1
  H  H4  1  0.45884500  0.35970200  0.36664300  1
  H  H5  1  0.95884500  0.14029800  0.63335700  1
  H  H6  1  0.54115500  0.64029800  0.63335700  1
  H  H7  1  0.04115500  0.85970200  0.36664300  1
  O  O0  1  0.42550000  0.60873800  0.80726900  1
  O  O1  1  0.92550000  0.89126200  0.19273100  1
  O  O2  1  0.57450000  0.39126200  0.19273100  1
  O  O3  1  0.07450000  0.10873800  0.80726900  1
  O  O4  1  0.46207800  0.66333300  0.28617000  1
  O  O5  1  0.96207800  0.83666700  0.71383000  1
  O  O6  1  0.53792200  0.33666700  0.71383000  1
  O  O7  1  0.03792200  0.16333300  0.28617000  1
  O  O8  1  0.43012100  0.31902700  0.93331600  1
  O  O9  1  0.93012100  0.18097300  0.06668400  1
  O  O10  1  0.56987900  0.68097300  0.06668400  1
  O  O11  1  0.06987900  0.81902700  0.93331600  1
  O  O12  1  0.36293500  0.03822700  0.13851400  1
  O  O13  1  0.86293500  0.46177300  0.86148600  1
  O  O14  1  0.63706500  0.96177300  0.86148600  1
  O  O15  1  0.13706500  0.53822700  0.13851400  1
  O  O16  1  0.41037800  0.98880200  0.61781800  1
  O  O17  1  0.91037800  0.51119800  0.38218200  1
  O  O18  1  0.58962200  0.01119800  0.38218200  1
  O  O19  1  0.08962200  0.48880200  0.61781800  1
  O  O20  1  0.40394600  0.35062900  0.44541900  1
  O  O21  1  0.90394600  0.14937100  0.55458100  1
  O  O22  1  0.59605400  0.64937100  0.55458100  1
  O  O23  1  0.09605400  0.85062900  0.44541900  1
loop_
_geom_bond_atom_site_label_1
_geom_bond_atom_site_label_2
_geom_bond_distance
_geom_bond_site_symmetry_2
Mn0 O23 2.194042 1_555
Mn0 O22 2.221508 1_555
Mn0 O17 2.226756 1_455
Mn0 O19 2.252102 1_555
Mn0 O20 2.291254 1_555
Mn0 O4 2.315374 1_555
Mn1 O22 2.194042 1_555
Mn1 O23 2.221508 1_655
Mn1 O16 2.226756 1_555
Mn1 O18 2.252102 1_565
Mn1 O21 2.291254 1_565
Mn1 O5 2.315374 1_555
Mn2 O21 2.194042 1_555
Mn2 O20 2.221508 1_555
Mn2 O19 2.226756 1_655
Mn2 O17 2.252102 1_555
Mn2 O22 2.291254 1_555
Mn2 O6 2.315374 1_555
Mn3 O20 2.194042 1_555
Mn3 O21 2.221508 1_455
Mn3 O18 2.226756 1_555
Mn3 O16 2.252102 1_545
Mn3 O23 2.291254 1_545
Mn3 O7 2.315374 1_555
H0 O16 0.981519 1_555
H1 O17 0.981519 1_555
H2 O18 0.981519 1_555
H3 O19 0.981519 1_555
H4 O20 0.977356 1_555
H5 O21 0.977356 1_555
H6 O22 0.977356 1_555
H7 O23 0.977356 1_555
O0 Si2 1.655089 1_555
O0 Zn0 2.011634 1_555
O0 Zn7 2.051766 1_555
O1 Si3 1.655089 1_665
O1 Zn1 2.011634 1_555
O1 Zn6 2.051766 1_555
O2 Si0 1.655089 1_555
O2 Zn2 2.011634 1_555
O2 Zn5 2.051766 1_555
O3 Si1 1.655089 1_445
O3 Zn3 2.011634 1_555
O3 Zn4 2.051766 1_555
O4 Si0 1.653988 1_555
O4 Zn6 1.961885 1_555
O5 Si1 1.653988 1_555
O5 Zn7 1.961885 1_655
O6 Si2 1.653988 1_555
O6 Zn4 1.961885 1_555
O7 Si3 1.653988 1_555
O7 Zn5 1.961885 1_455
O8 Si2 1.660050 1_555
O8 Zn2 1.969293 1_556
O8 Zn3 1.999198 1_555
O9 Si3 1.660050 1_655
O9 Zn3 1.969293 1_654
O9 Zn2 1.999198 1_555
O10 Si0 1.660050 1_555
O10 Zn0 1.969293 1_554
O10 Zn1 1.999198 1_555
O11 Si1 1.660050 1_455
O11 Zn1 1.969293 1_456
O11 Zn0 1.999198 1_555
O12 Si3 1.652582 1_555
O12 Zn2 1.983885 1_555
O12 Zn6 2.032384 1_545
O13 Si2 1.652582 1_555
O13 Zn3 1.983885 1_655
O13 Zn7 2.032384 1_655
O14 Si1 1.652582 1_555
O14 Zn0 1.983885 1_555
O14 Zn4 2.032384 1_565
O15 Si0 1.652582 1_555
O15 Zn1 1.983885 1_455
O15 Zn5 2.032384 1_455
O16 Zn4 1.967720 1_565
O17 Zn5 1.967720 1_555
O18 Zn6 1.967720 1_545
O19 Zn7 1.967720 1_555
