# generated using pymatgen
data_Sr4LaCrFe4O15
_symmetry_space_group_name_H-M   'P 1'
_cell_length_a   8.72318661
_cell_length_b   8.72318661
_cell_length_c   6.77902499
_cell_angle_alpha   75.23519393
_cell_angle_beta   75.23519393
_cell_angle_gamma   36.95796468
_symmetry_Int_Tables_number   1
_chemical_formula_structural   Sr4LaCrFe4O15
_chemical_formula_sum   'Sr4 La1 Cr1 Fe4 O15'
_cell_volume   298.73347899
_cell_formula_units_Z   1
loop_
 _symmetry_equiv_pos_site_id
 _symmetry_equiv_pos_as_xyz
  1  'x, y, z'
loop_
 _atom_site_type_symbol
 _atom_site_label
 _atom_site_symmetry_multiplicity
 _atom_site_fract_x
 _atom_site_fract_y
 _atom_site_fract_z
 _atom_site_occupancy
  Sr  Sr0  1  0.59963900  0.59963900  0.10116200  1
  Sr  Sr1  1  0.99996000  0.99996000  0.50066200  1
  Sr  Sr2  1  0.40015200  0.40015200  0.89910000  1
  Sr  Sr3  1  0.19987100  0.19987100  0.69907800  1
  La  La0  1  0.79904100  0.79904100  0.29941200  1
  Cr  Cr0  1  0.19892700  0.19892700  0.19920400  1
  Fe  Fe0  1  0.59945700  0.59945700  0.60048100  1
  Fe  Fe1  1  0.00042800  0.00042800  0.99902600  1
  Fe  Fe2  1  0.40038100  0.40038100  0.39959400  1
  Fe  Fe3  1  0.79945400  0.79945400  0.80082200  1
  O  O0  1  0.29804500  0.29804500  0.29849400  1
  O  O1  1  0.50026500  0.50026500  0.49868700  1
  O  O2  1  0.89805300  0.89805300  0.90548900  1
  O  O3  1  0.70259300  0.70259300  0.69300400  1
  O  O4  1  0.10170300  0.10170300  0.10487900  1
  O  O5  1  0.09583600  0.60284600  0.59233800  1
  O  O6  1  0.29967900  0.80012200  0.80146400  1
  O  O7  1  0.70136000  0.19214600  0.20194700  1
  O  O8  1  0.50259300  0.99964100  0.00684600  1
  O  O9  1  0.90078900  0.40702100  0.39785700  1
  O  O10  1  0.60284600  0.09583600  0.59233800  1
  O  O11  1  0.80012200  0.29967900  0.80146400  1
  O  O12  1  0.19214600  0.70136000  0.20194700  1
  O  O13  1  0.99964100  0.50259300  0.00684600  1
  O  O14  1  0.40702100  0.90078900  0.39785700  1
loop_
_geom_bond_atom_site_label_1
_geom_bond_atom_site_label_2
_geom_bond_distance
_geom_bond_site_symmetry_2
La0 O9 2.686122 1_555
La0 O14 2.686122 1_555
La0 O13 2.701149 1_555
La0 O8 2.701149 1_555
La0 O3 2.716187 1_555
La0 O5 2.716998 1_655
La0 O10 2.716998 1_565
La0 O7 2.717346 1_565
La0 O12 2.717346 1_655
La0 O2 2.732042 1_554
La0 O0 2.764939 1_655
La0 O0 2.764939 1_565
Cr0 O4 1.884085 1_555
Cr0 O0 1.932927 1_555
Cr0 O13 1.942875 1_455
Cr0 O8 1.942875 1_545
Cr0 O9 1.946389 1_455
Cr0 O14 1.946389 1_545
Fe0 O1 1.943908 1_555
Fe0 O11 1.960314 1_555
Fe0 O6 1.960314 1_555
Fe0 O3 1.970035 1_555
Fe0 O14 1.974127 1_555
Fe0 O9 1.974127 1_555
Fe1 O11 1.944825 1_455
Fe1 O6 1.944825 1_545
Fe1 O2 1.961862 1_445
Fe1 O7 1.966181 1_456
Fe1 O12 1.966181 1_546
Fe1 O4 1.992337 1_556
Fe2 O1 1.944106 1_555
Fe2 O10 1.947452 1_555
Fe2 O5 1.947452 1_555
Fe2 O7 1.952866 1_555
Fe2 O12 1.952866 1_555
Fe2 O0 1.990176 1_555
Fe3 O3 1.931981 1_555
Fe3 O2 1.946115 1_555
Fe3 O13 1.969424 1_556
Fe3 O8 1.969424 1_556
Fe3 O10 1.977325 1_565
Fe3 O5 1.977325 1_655
O0 Sr3 2.764506 1_555
O0 Sr2 2.779707 1_554
O1 Sr0 2.754007 1_555
O1 Sr1 2.764903 1_545
O1 Sr1 2.764903 1_455
O1 Sr2 2.774109 1_555
O2 Sr2 2.765284 1_565
O2 Sr2 2.765284 1_655
O2 Sr1 2.808528 1_555
O3 Sr3 2.765366 1_565
O3 Sr3 2.765366 1_655
O3 Sr0 2.832805 1_556
O4 Sr1 2.757791 1_445
O4 Sr0 2.765282 1_455
O4 Sr0 2.765282 1_545
O4 Sr3 2.793703 1_554
O5 Sr1 2.761007 1_455
O5 Sr3 2.764761 1_555
O5 Sr2 2.817109 1_555
O6 Sr2 2.758810 1_555
O6 Sr0 2.760093 1_556
O6 Sr3 2.760777 1_565
O6 Sr1 2.766640 1_455
O7 Sr2 2.764491 1_554
O7 Sr1 2.770412 1_545
O7 Sr0 2.814237 1_555
O8 Sr2 2.753307 1_564
O8 Sr0 2.778243 1_555
O8 Sr3 2.820725 1_564
O9 Sr3 2.746258 1_655
O9 Sr0 2.772360 1_555
O9 Sr1 2.824795 1_545
O10 Sr1 2.761007 1_545
O10 Sr3 2.764761 1_555
O10 Sr2 2.817109 1_555
O11 Sr2 2.758810 1_555
O11 Sr0 2.760093 1_556
O11 Sr3 2.760777 1_655
O11 Sr1 2.766640 1_545
O12 Sr2 2.764491 1_554
O12 Sr1 2.770412 1_455
O12 Sr0 2.814237 1_555
O13 Sr2 2.753307 1_654
O13 Sr0 2.778243 1_555
O13 Sr3 2.820725 1_654
O14 Sr3 2.746258 1_565
O14 Sr0 2.772360 1_555
O14 Sr1 2.824795 1_455
