# generated using pymatgen
data_KLu(NbCl3)6
_symmetry_space_group_name_H-M   'P 1'
_cell_length_a   10.11884394
_cell_length_b   10.11884394
_cell_length_c   10.11884408
_cell_angle_alpha   55.20299553
_cell_angle_beta   55.20299553
_cell_angle_gamma   55.20299950
_symmetry_Int_Tables_number   1
_chemical_formula_structural   KLu(NbCl3)6
_chemical_formula_sum   'K1 Lu1 Nb6 Cl18'
_cell_volume   650.91795634
_cell_formula_units_Z   1
loop_
 _symmetry_equiv_pos_site_id
 _symmetry_equiv_pos_as_xyz
  1  'x, y, z'
loop_
 _atom_site_type_symbol
 _atom_site_label
 _atom_site_symmetry_multiplicity
 _atom_site_fract_x
 _atom_site_fract_y
 _atom_site_fract_z
 _atom_site_occupancy
  K  K0  1  0.72238500  0.72238500  0.72238500  1
  Lu  Lu0  1  0.99842700  0.99842700  0.99842700  1
  Nb  Nb0  1  0.34877700  0.58800200  0.70334800  1
  Nb  Nb1  1  0.58800200  0.70334800  0.34877700  1
  Nb  Nb2  1  0.70334800  0.34877700  0.58800200  1
  Nb  Nb3  1  0.65158600  0.41076600  0.29816600  1
  Nb  Nb4  1  0.41076600  0.29816600  0.65158600  1
  Nb  Nb5  1  0.29816600  0.65158600  0.41076600  1
  Cl  Cl0  1  0.22236500  0.36255600  0.91792200  1
  Cl  Cl1  1  0.36255600  0.91792200  0.22236500  1
  Cl  Cl2  1  0.91792200  0.22236500  0.36255600  1
  Cl  Cl3  1  0.77844700  0.63739100  0.08141200  1
  Cl  Cl4  1  0.63739100  0.08141200  0.77844700  1
  Cl  Cl5  1  0.08141200  0.77844700  0.63739100  1
  Cl  Cl6  1  0.84667000  0.30185400  0.02758000  1
  Cl  Cl7  1  0.30185400  0.02758000  0.84667000  1
  Cl  Cl8  1  0.02758000  0.84667000  0.30185400  1
  Cl  Cl9  1  0.15373000  0.70022100  0.97060400  1
  Cl  Cl10  1  0.70022100  0.97060400  0.15373000  1
  Cl  Cl11  1  0.97060400  0.15373000  0.70022100  1
  Cl  Cl12  1  0.56132500  0.42603900  0.84288900  1
  Cl  Cl13  1  0.42603900  0.84288900  0.56132500  1
  Cl  Cl14  1  0.84288900  0.56132500  0.42603900  1
  Cl  Cl15  1  0.43954200  0.57326500  0.15733200  1
  Cl  Cl16  1  0.57326500  0.15733200  0.43954200  1
  Cl  Cl17  1  0.15733200  0.43954200  0.57326500  1
loop_
_geom_bond_atom_site_label_1
_geom_bond_atom_site_label_2
_geom_bond_distance
_geom_bond_site_symmetry_2
Cl0 Nb4 2.458550 1_555
Cl0 Nb0 2.462110 1_555
Cl1 Nb5 2.458550 1_555
Cl1 Nb1 2.462110 1_555
Cl2 Nb3 2.458550 1_555
Cl2 Nb2 2.462110 1_555
Cl3 Nb1 2.474031 1_555
Cl3 Nb3 2.474452 1_555
Cl3 K0 3.533974 1_554
Cl4 Nb2 2.474031 1_555
Cl4 Nb4 2.474452 1_555
Cl4 K0 3.533974 1_545
Cl5 Nb0 2.474031 1_555
Cl5 Nb5 2.474452 1_555
Cl5 K0 3.533974 1_455
Cl6 Lu0 2.647177 1_544
Cl6 Nb3 2.720327 1_555
Cl6 K0 3.542928 1_554
Cl7 Lu0 2.647177 1_445
Cl7 Nb4 2.720327 1_555
Cl7 K0 3.542928 1_545
Cl8 Lu0 2.647177 1_454
Cl8 Nb5 2.720327 1_555
Cl8 K0 3.542928 1_455
Cl9 Lu0 2.589709 1_455
Cl9 Nb0 2.711690 1_555
Cl10 Lu0 2.589708 1_554
Cl10 Nb1 2.711690 1_555
Cl11 Lu0 2.589709 1_545
Cl11 Nb2 2.711690 1_555
Cl12 Nb0 2.471281 1_555
Cl12 Nb2 2.473299 1_555
Cl12 K0 3.503053 1_555
Cl13 Nb1 2.471281 1_555
Cl13 Nb0 2.473299 1_555
Cl13 K0 3.503053 1_555
Cl14 Nb2 2.471281 1_555
Cl14 Nb1 2.473299 1_555
Cl14 K0 3.503053 1_555
Cl15 Nb5 2.467701 1_555
Cl15 Nb3 2.475284 1_555
Cl15 K0 3.579246 1_554
Cl16 Nb3 2.467701 1_555
Cl16 Nb4 2.475284 1_555
Cl16 K0 3.579246 1_545
Cl17 Nb4 2.467701 1_555
Cl17 Nb5 2.475283 1_555
Cl17 K0 3.579246 1_455
