# generated using pymatgen
data_Mg14NbAl
_symmetry_space_group_name_H-M   'P 1'
_cell_length_a   6.30364791
_cell_length_b   6.21080067
_cell_length_c   10.13086312
_cell_angle_alpha   90.00000000
_cell_angle_beta   90.00000000
_cell_angle_gamma   119.51395399
_symmetry_Int_Tables_number   1
_chemical_formula_structural   Mg14NbAl
_chemical_formula_sum   'Mg14 Nb1 Al1'
_cell_volume   345.16194193
_cell_formula_units_Z   1
loop_
 _symmetry_equiv_pos_site_id
 _symmetry_equiv_pos_as_xyz
  1  'x, y, z'
loop_
 _atom_site_type_symbol
 _atom_site_label
 _atom_site_symmetry_multiplicity
 _atom_site_fract_x
 _atom_site_fract_y
 _atom_site_fract_z
 _atom_site_occupancy
  Mg  Mg0  1  0.16640138  0.33320019  0.62500000  1
  Mg  Mg1  1  0.16618690  0.83309295  0.62500000  1
  Mg  Mg2  1  0.66633068  0.33495840  0.12500000  1
  Mg  Mg3  1  0.66582815  0.33308735  0.62500000  1
  Mg  Mg4  1  0.66633068  0.83137127  0.12500000  1
  Mg  Mg5  1  0.66582815  0.83273980  0.62500000  1
  Mg  Mg6  1  0.32951839  0.16196592  0.36790050  1
  Mg  Mg7  1  0.32951839  0.16196592  0.88209950  1
  Mg  Mg8  1  0.32951839  0.66755347  0.36790050  1
  Mg  Mg9  1  0.32951839  0.66755347  0.88209950  1
  Mg  Mg10  1  0.83679357  0.16839729  0.37197461  1
  Mg  Mg11  1  0.83679357  0.16839729  0.87802539  1
  Mg  Mg12  1  0.84099571  0.67049836  0.37104716  1
  Mg  Mg13  1  0.84099571  0.67049836  0.87895284  1
  Nb  Nb0  1  0.16285883  0.83142891  0.12500000  1
  Al  Al0  1  0.16658309  0.33329104  0.12500000  1
loop_
_geom_bond_atom_site_label_1
_geom_bond_atom_site_label_2
_geom_bond_distance
_geom_bond_site_symmetry_2
Mg0 Mg1 3.105401 1_545
Mg0 Mg1 3.105401 1_555
Mg0 Mg10 3.136898 1_455
Mg0 Mg11 3.136898 1_455
Mg0 Mg5 3.148556 1_555
Mg0 Mg3 3.148556 1_555
Mg0 Mg5 3.155092 1_445
Mg0 Mg3 3.155092 1_455
Mg0 Mg6 3.170153 1_555
Mg0 Mg7 3.170153 1_555
Mg0 Mg8 3.170159 1_555
Mg0 Mg9 3.170159 1_555
Mg1 Mg13 3.130712 1_455
Mg1 Mg12 3.130712 1_455
Mg1 Mg3 3.150643 1_565
Mg1 Mg5 3.150644 1_555
Mg1 Mg3 3.153005 1_455
Mg1 Mg5 3.153005 1_455
Mg1 Mg8 3.153444 1_555
Mg1 Mg9 3.153444 1_555
Mg1 Mg6 3.153450 1_565
Mg1 Mg7 3.153450 1_565
Mg2 Mg7 3.077348 1_554
Mg2 Mg6 3.077348 1_555
Mg2 Mg4 3.083121 1_555
Mg2 Mg4 3.127679 1_545
Mg2 Nb0 3.129762 1_655
Mg2 Nb0 3.173885 1_545
Mg3 Mg5 3.103242 1_555
Mg3 Mg5 3.107559 1_545
Mg3 Mg6 3.191876 1_555
Mg3 Mg7 3.191876 1_555
Mg4 Mg9 3.077348 1_554
Mg4 Mg8 3.077348 1_555
Mg4 Nb0 3.129762 1_655
Mg4 Nb0 3.173886 1_555
Mg5 Mg8 3.191876 1_555
Mg5 Mg9 3.191876 1_555
Mg6 Nb0 3.041158 1_545
Mg6 Mg8 3.070697 1_545
Mg6 Mg8 3.140103 1_555
Mg7 Nb0 3.041158 1_546
Mg7 Mg9 3.070697 1_545
Mg7 Mg9 3.140103 1_555
Mg8 Nb0 3.041152 1_555
Mg9 Nb0 3.041152 1_556
Mg10 Mg2 3.095210 1_555
Mg10 Mg4 3.095216 1_545
Mg10 Mg12 3.105500 1_555
Mg10 Mg12 3.105500 1_545
Mg10 Mg8 3.126107 1_655
Mg10 Mg6 3.126107 1_655
Mg10 Mg3 3.140801 1_555
Mg10 Mg5 3.140807 1_545
Mg10 Mg8 3.178464 1_545
Mg10 Mg6 3.178464 1_555
Mg11 Mg2 3.095210 1_556
Mg11 Mg4 3.095216 1_546
Mg11 Mg13 3.105500 1_555
Mg11 Mg13 3.105500 1_545
Mg11 Mg9 3.126107 1_655
Mg11 Mg7 3.126107 1_655
Mg11 Mg3 3.140801 1_555
Mg11 Mg5 3.140807 1_545
Mg11 Mg9 3.178464 1_545
Mg11 Mg7 3.178464 1_555
Mg12 Nb0 3.054645 1_655
Mg12 Mg4 3.083480 1_555
Mg12 Mg2 3.083487 1_555
Mg12 Mg6 3.088691 1_665
Mg12 Mg8 3.088691 1_655
Mg12 Mg5 3.154355 1_555
Mg12 Mg3 3.154361 1_555
Mg12 Mg6 3.215360 1_555
Mg12 Mg8 3.215360 1_555
Mg13 Nb0 3.054645 1_656
Mg13 Mg4 3.083480 1_556
Mg13 Mg2 3.083487 1_556
Mg13 Mg7 3.088691 1_665
Mg13 Mg9 3.088691 1_655
Mg13 Mg5 3.154355 1_555
Mg13 Mg3 3.154361 1_555
Mg13 Mg7 3.215360 1_555
Mg13 Mg9 3.215360 1_555
Al0 Mg7 3.052774 1_554
Al0 Mg6 3.052774 1_555
Al0 Mg9 3.052781 1_554
Al0 Mg8 3.052781 1_555
Al0 Mg11 3.087592 1_454
Al0 Mg10 3.087592 1_455
Al0 Nb0 3.105468 1_545
Al0 Nb0 3.105468 1_555
Al0 Mg4 3.145144 1_555
Al0 Mg2 3.145144 1_555
Al0 Mg4 3.158529 1_445
Al0 Mg2 3.158529 1_455
