# generated using pymatgen
data_Na2HgS2O7
_symmetry_space_group_name_H-M   'P 1'
_cell_length_a   9.87571300
_cell_length_b   8.71462500
_cell_length_c   9.68410432
_cell_angle_alpha   67.87870237
_cell_angle_beta   90.00000000
_cell_angle_gamma   90.00000000
_symmetry_Int_Tables_number   1
_chemical_formula_structural   Na2HgS2O7
_chemical_formula_sum   'Na8 Hg4 S8 O28'
_cell_volume   772.09347317
_cell_formula_units_Z   4
loop_
 _symmetry_equiv_pos_site_id
 _symmetry_equiv_pos_as_xyz
  1  'x, y, z'
loop_
 _atom_site_type_symbol
 _atom_site_label
 _atom_site_symmetry_multiplicity
 _atom_site_fract_x
 _atom_site_fract_y
 _atom_site_fract_z
 _atom_site_occupancy
  Na  Na0  1  0.76125400  0.18464300  0.36907900  1
  Na  Na1  1  0.73874600  0.18464300  0.86907900  1
  Na  Na2  1  0.23874600  0.81535700  0.63092100  1
  Na  Na3  1  0.26125400  0.81535700  0.13092100  1
  Na  Na4  1  0.51173500  0.48659300  0.18959000  1
  Na  Na5  1  0.98826500  0.48659300  0.68959000  1
  Na  Na6  1  0.48826500  0.51340700  0.81041000  1
  Na  Na7  1  0.01173500  0.51340700  0.31041000  1
  Hg  Hg0  1  0.58043600  0.78707700  0.36947500  1
  Hg  Hg1  1  0.91956400  0.78707700  0.86947500  1
  Hg  Hg2  1  0.41956400  0.21292300  0.63052500  1
  Hg  Hg3  1  0.08043600  0.21292300  0.13052500  1
  S  S0  1  0.69595100  0.50792700  0.49894100  1
  S  S1  1  0.80404900  0.50792700  0.99894100  1
  S  S2  1  0.30404900  0.49207300  0.50105900  1
  S  S3  1  0.19595100  0.49207300  0.00105900  1
  S  S4  1  0.92811700  0.94798900  0.20175700  1
  S  S5  1  0.57188300  0.94798900  0.70175700  1
  S  S6  1  0.07188300  0.05201100  0.79824300  1
  S  S7  1  0.42811700  0.05201100  0.29824300  1
  O  O0  1  0.63995400  0.40027800  0.42303500  1
  O  O1  1  0.86004600  0.40027800  0.92303500  1
  O  O2  1  0.36004600  0.59972200  0.57696500  1
  O  O3  1  0.13995400  0.59972200  0.07696500  1
  O  O4  1  0.84403900  0.44171900  0.16053300  1
  O  O5  1  0.65596100  0.44171900  0.66053300  1
  O  O6  1  0.15596100  0.55828100  0.83946700  1
  O  O7  1  0.34403900  0.55828100  0.33946700  1
  O  O8  1  0.85424700  0.96952200  0.06185800  1
  O  O9  1  0.64575300  0.96952200  0.56185800  1
  O  O10  1  0.14575300  0.03047800  0.93814200  1
  O  O11  1  0.35424700  0.03047800  0.43814200  1
  O  O12  1  0.83448800  0.94253700  0.32268400  1
  O  O13  1  0.66551200  0.94253700  0.82268400  1
  O  O14  1  0.16551200  0.05746300  0.67731600  1
  O  O15  1  0.33448800  0.05746300  0.17731600  1
  O  O16  1  0.84523800  0.52193100  0.48322600  1
  O  O17  1  0.65476200  0.52193100  0.98322600  1
  O  O18  1  0.15476200  0.47806900  0.51677400  1
  O  O19  1  0.34523800  0.47806900  0.01677400  1
  O  O20  1  0.52824900  0.18749400  0.25573500  1
  O  O21  1  0.97175100  0.18749400  0.75573500  1
  O  O22  1  0.47175100  0.81250600  0.74426500  1
  O  O23  1  0.02824900  0.81250600  0.24426500  1
  O  O24  1  0.50463600  0.77018800  0.15572300  1
  O  O25  1  0.99536400  0.77018800  0.65572300  1
  O  O26  1  0.49536400  0.22981200  0.84427700  1
  O  O27  1  0.00463600  0.22981200  0.34427700  1
loop_
_geom_bond_atom_site_label_1
_geom_bond_atom_site_label_2
_geom_bond_distance
_geom_bond_site_symmetry_2
Na0 O9 2.380126 1_545
Na0 O12 2.427014 1_545
Na0 O27 2.432814 1_655
Na0 O0 2.445171 1_555
Na0 O4 2.521621 1_555
Na0 O20 2.545565 1_555
Na1 O8 2.380126 1_546
Na1 O13 2.427014 1_545
Na1 O26 2.432814 1_555
Na1 O1 2.445171 1_555
Na1 O5 2.521621 1_555
Na1 O21 2.545565 1_555
Na2 O11 2.380126 1_565
Na2 O14 2.427014 1_565
Na2 O25 2.432814 1_455
Na2 O2 2.445171 1_555
Na2 O6 2.521621 1_555
Na2 O22 2.545565 1_555
Na3 O10 2.380126 1_564
Na3 O15 2.427014 1_565
Na3 O24 2.432814 1_555
Na3 O3 2.445171 1_555
Na3 O7 2.521621 1_555
Na3 O23 2.545565 1_555
Na4 O19 2.367197 1_555
Na4 O24 2.368535 1_555
Na4 O17 2.370711 1_554
Na4 O7 2.433631 1_555
Na4 O20 2.444070 1_555
Na4 O0 2.449343 1_555
Na5 O18 2.367197 1_655
Na5 O25 2.368535 1_555
Na5 O16 2.370711 1_555
Na5 O6 2.433631 1_655
Na5 O21 2.444070 1_555
Na5 O1 2.449343 1_555
Na6 O17 2.367197 1_555
Na6 O26 2.368535 1_555
Na6 O19 2.370711 1_556
Na6 O5 2.433631 1_555
Na6 O22 2.444070 1_555
Na6 O2 2.449343 1_555
Na7 O16 2.367197 1_455
Na7 O27 2.368535 1_555
Na7 O18 2.370711 1_555
Na7 O4 2.433631 1_455
Na7 O23 2.444070 1_555
Na7 O3 2.449343 1_555
Hg0 O24 2.257515 1_555
Hg0 S0 2.548376 1_555
Hg0 S7 2.621015 1_565
Hg1 O25 2.257515 1_555
Hg1 S1 2.548376 1_555
Hg1 S6 2.621015 1_665
Hg2 O26 2.257515 1_555
Hg2 S2 2.548376 1_555
Hg2 S5 2.621015 1_545
Hg3 O27 2.257515 1_555
Hg3 S3 2.548376 1_555
Hg3 S4 2.621015 1_445
O0 S0 1.498531 1_555
O1 S1 1.498531 1_555
O2 S2 1.498531 1_555
O3 S3 1.498531 1_555
O4 S1 1.502564 1_554
O5 S0 1.502564 1_555
O6 S3 1.502564 1_556
O7 S2 1.502564 1_555
O8 S4 1.487083 1_555
O9 S5 1.487083 1_555
O10 S6 1.487083 1_555
O11 S7 1.487083 1_555
O12 S4 1.478763 1_555
O13 S5 1.478763 1_555
O14 S6 1.478763 1_555
O15 S7 1.478763 1_555
O16 S0 1.482455 1_555
O17 S1 1.482455 1_555
O18 S2 1.482455 1_555
O19 S3 1.482455 1_555
O20 S7 1.474889 1_555
O21 S6 1.474889 1_655
O22 S5 1.474889 1_555
O23 S4 1.474889 1_455
