# generated using pymatgen
data_HoPu3
_symmetry_space_group_name_H-M   'P 1'
_cell_length_a   6.90632484
_cell_length_b   6.90632484
_cell_length_c   5.56770900
_cell_angle_alpha   90.00000000
_cell_angle_beta   90.00000000
_cell_angle_gamma   120.00000804
_symmetry_Int_Tables_number   1
_chemical_formula_structural   HoPu3
_chemical_formula_sum   'Ho2 Pu6'
_cell_volume   229.98585608
_cell_formula_units_Z   2
loop_
 _symmetry_equiv_pos_site_id
 _symmetry_equiv_pos_as_xyz
  1  'x, y, z'
loop_
 _atom_site_type_symbol
 _atom_site_label
 _atom_site_symmetry_multiplicity
 _atom_site_fract_x
 _atom_site_fract_y
 _atom_site_fract_z
 _atom_site_occupancy
  Ho  Ho0  1  0.33333300  0.66666700  0.75000000  1
  Ho  Ho1  1  0.66666700  0.33333300  0.25000000  1
  Pu  Pu0  1  0.16377700  0.32755300  0.25000000  1
  Pu  Pu1  1  0.67244700  0.83622300  0.25000000  1
  Pu  Pu2  1  0.16377700  0.83622300  0.25000000  1
  Pu  Pu3  1  0.83622300  0.67244700  0.75000000  1
  Pu  Pu4  1  0.32755300  0.16377700  0.75000000  1
  Pu  Pu5  1  0.83622300  0.16377700  0.75000000  1
loop_
_geom_bond_atom_site_label_1
_geom_bond_atom_site_label_2
_geom_bond_distance
_geom_bond_site_symmetry_2
Ho0 Pu2 3.444362 1_556
Ho0 Pu2 3.444362 1_555
Ho0 Pu0 3.444369 1_555
Ho0 Pu1 3.444369 1_556
Ho0 Pu1 3.444369 1_555
Ho0 Pu0 3.444369 1_556
Ho0 Pu5 3.453335 1_455
Ho0 Pu5 3.453335 1_565
Ho0 Pu4 3.453335 1_555
Ho0 Pu3 3.453335 1_555
Ho0 Pu3 3.453335 1_455
Ho0 Pu4 3.453335 1_565
Ho1 Pu5 3.444362 1_555
Ho1 Pu5 3.444362 1_554
Ho1 Pu3 3.444369 1_555
Ho1 Pu3 3.444369 1_554
Ho1 Pu4 3.444369 1_554
Ho1 Pu4 3.444369 1_555
Ho1 Pu2 3.453335 1_545
Ho1 Pu2 3.453335 1_655
Ho1 Pu1 3.453335 1_555
Ho1 Pu0 3.453335 1_555
Ho1 Pu1 3.453335 1_545
Ho1 Pu0 3.453335 1_655
Pu0 Pu1 3.393284 1_445
Pu0 Pu2 3.393285 1_545
Pu0 Pu4 3.404107 1_555
Pu0 Pu4 3.404107 1_554
Pu0 Pu5 3.404113 1_455
Pu0 Pu5 3.404113 1_454
Pu0 Pu1 3.513040 1_555
Pu0 Pu2 3.513040 1_555
Pu1 Pu2 3.393285 1_655
Pu1 Pu3 3.404107 1_554
Pu1 Pu3 3.404107 1_555
Pu1 Pu5 3.404113 1_565
Pu1 Pu5 3.404113 1_564
Pu1 Pu2 3.513040 1_555
Pu2 Pu3 3.404113 1_454
Pu2 Pu3 3.404113 1_455
Pu2 Pu4 3.404113 1_564
Pu2 Pu4 3.404113 1_565
Pu3 Pu4 3.393284 1_665
Pu3 Pu5 3.393285 1_565
Pu3 Pu4 3.513040 1_555
Pu3 Pu5 3.513040 1_555
Pu4 Pu5 3.393285 1_455
Pu4 Pu5 3.513040 1_555
