# generated using pymatgen
data_ErSi3Ni
_symmetry_space_group_name_H-M   'P 1'
_cell_length_a   3.89254700
_cell_length_b   3.92260637
_cell_length_c   10.60764251
_cell_angle_alpha   90.00000000
_cell_angle_beta   100.57244124
_cell_angle_gamma   90.00000000
_symmetry_Int_Tables_number   1
_chemical_formula_structural   ErSi3Ni
_chemical_formula_sum   'Er2 Si6 Ni2'
_cell_volume   159.21774320
_cell_formula_units_Z   2
loop_
 _symmetry_equiv_pos_site_id
 _symmetry_equiv_pos_as_xyz
  1  'x, y, z'
loop_
 _atom_site_type_symbol
 _atom_site_label
 _atom_site_symmetry_multiplicity
 _atom_site_fract_x
 _atom_site_fract_y
 _atom_site_fract_z
 _atom_site_occupancy
  Er  Er0  1  0.33135315  0.50000000  0.66270729  1
  Er  Er1  1  0.66864685  0.50000000  0.33729271  1
  Si  Si0  1  0.44360746  0.00000000  0.88721693  1
  Si  Si1  1  0.55639254  0.00000000  0.11278307  1
  Si  Si2  1  0.21772864  0.00000000  0.43545627  1
  Si  Si3  1  0.78227136  -0.00000000  0.56454373  1
  Si  Si4  1  0.94360941  0.50000000  0.88721883  1
  Si  Si5  1  0.05639059  0.50000000  0.11278117  1
  Ni  Ni0  1  0.11070329  -0.00000000  0.22140658  1
  Ni  Ni1  1  0.88929671  0.00000000  0.77859342  1
loop_
_geom_bond_atom_site_label_1
_geom_bond_atom_site_label_2
_geom_bond_distance
_geom_bond_site_symmetry_2
Er0 Si3 2.946602 1_465
Er0 Si3 2.946602 1_455
Er0 Si3 2.946602 1_565
Er0 Si3 2.946602 1_555
Er0 Ni1 3.015782 1_465
Er0 Ni1 3.015782 1_455
Er0 Ni1 3.015784 1_565
Er0 Ni1 3.015784 1_555
Er0 Si4 3.044464 1_455
Er0 Si4 3.044466 1_555
Er0 Si0 3.054080 1_555
Er0 Si0 3.054080 1_565
Er0 Si2 3.076047 1_555
Er0 Si2 3.076047 1_565
Er1 Si2 2.946602 1_655
Er1 Si2 2.946602 1_665
Er1 Si2 2.946602 1_555
Er1 Si2 2.946602 1_565
Er1 Ni0 3.015782 1_655
Er1 Ni0 3.015782 1_665
Er1 Ni0 3.015784 1_565
Er1 Ni0 3.015784 1_555
Er1 Si5 3.044464 1_655
Er1 Si5 3.044466 1_555
Er1 Si1 3.054080 1_555
Er1 Si1 3.054080 1_565
Er1 Si3 3.076047 1_565
Er1 Si3 3.076047 1_555
Si0 Si1 2.352105 1_556
Si0 Si4 2.763092 1_455
Si0 Si4 2.763092 1_445
Si0 Si4 2.763097 1_555
Si0 Si4 2.763097 1_545
Si1 Si5 2.763092 1_655
Si1 Si5 2.763092 1_645
Si1 Si5 2.763097 1_545
Si1 Si5 2.763097 1_555
Si2 Si3 2.366403 1_555
Si2 Si3 2.366410 1_455
Si4 Si5 2.352066 1_656
Ni0 Si2 2.232017 1_555
Ni0 Si1 2.251872 1_455
Ni0 Si1 2.251879 1_555
Ni0 Si5 2.264888 1_545
Ni0 Si5 2.264888 1_555
Ni1 Si3 2.232017 1_555
Ni1 Si0 2.251872 1_655
Ni1 Si0 2.251879 1_555
Ni1 Si4 2.264888 1_555
Ni1 Si4 2.264888 1_545
