# generated using pymatgen
data_SrFe2AsP
_symmetry_space_group_name_H-M   'P 1'
_cell_length_a   3.88105200
_cell_length_b   3.88105200
_cell_length_c   6.42551137
_cell_angle_alpha   72.42203085
_cell_angle_beta   72.42203085
_cell_angle_gamma   90.00000000
_symmetry_Int_Tables_number   1
_chemical_formula_structural   SrFe2AsP
_chemical_formula_sum   'Sr1 Fe2 As1 P1'
_cell_volume   87.51325948
_cell_formula_units_Z   1
loop_
 _symmetry_equiv_pos_site_id
 _symmetry_equiv_pos_as_xyz
  1  'x, y, z'
loop_
 _atom_site_type_symbol
 _atom_site_label
 _atom_site_symmetry_multiplicity
 _atom_site_fract_x
 _atom_site_fract_y
 _atom_site_fract_z
 _atom_site_occupancy
  Sr  Sr0  1  0.00379300  0.00379300  0.99241400  1
  Fe  Fe0  1  0.24359400  0.74359500  0.51281100  1
  Fe  Fe1  1  0.74359500  0.24359400  0.51281100  1
  As  As0  1  0.35374900  0.35374900  0.29250200  1
  P  P0  1  0.65526900  0.65526900  0.68946200  1
loop_
_geom_bond_atom_site_label_1
_geom_bond_atom_site_label_2
_geom_bond_distance
_geom_bond_site_symmetry_2
Fe0 P0 2.195224 1_455
Fe0 P0 2.195227 1_555
Fe1 P0 2.195224 1_545
Fe1 P0 2.195227 1_555
As0 Fe1 2.324653 1_455
As0 Fe0 2.324653 1_545
As0 Fe0 2.324656 1_555
As0 Fe1 2.324656 1_555
As0 Sr0 3.251322 1_664
As0 Sr0 3.251322 1_654
As0 Sr0 3.251322 1_564
As0 Sr0 3.251322 1_554
P0 Sr0 3.260276 1_665
P0 Sr0 3.260276 1_565
P0 Sr0 3.260276 1_655
P0 Sr0 3.260276 1_555
