# generated using pymatgen
data_NaAg3S2
_symmetry_space_group_name_H-M   'P 1'
_cell_length_a   8.76301202
_cell_length_b   8.76300900
_cell_length_c   8.76301312
_cell_angle_alpha   59.99969512
_cell_angle_beta   59.99971012
_cell_angle_gamma   59.99970889
_symmetry_Int_Tables_number   1
_chemical_formula_structural   NaAg3S2
_chemical_formula_sum   'Na4 Ag12 S8'
_cell_volume   475.81948381
_cell_formula_units_Z   4
loop_
 _symmetry_equiv_pos_site_id
 _symmetry_equiv_pos_as_xyz
  1  'x, y, z'
loop_
 _atom_site_type_symbol
 _atom_site_label
 _atom_site_symmetry_multiplicity
 _atom_site_fract_x
 _atom_site_fract_y
 _atom_site_fract_z
 _atom_site_occupancy
  Na  Na0  1  0.62500004  0.62500003  0.12499995  1
  Na  Na1  1  0.62500003  0.12500006  0.62499997  1
  Na  Na2  1  0.12500002  0.62500006  0.62500000  1
  Na  Na3  1  0.62500000  0.62500005  0.62499995  1
  Ag  Ag0  1  0.07862118  0.42137867  0.42137843  1
  Ag  Ag1  1  0.82862146  0.17137823  0.17137874  1
  Ag  Ag2  1  0.42137894  0.07862203  0.42137826  1
  Ag  Ag3  1  0.42137850  0.42137842  0.07862206  1
  Ag  Ag4  1  0.07862136  0.07862126  0.42137857  1
  Ag  Ag5  1  0.07862157  0.42137866  0.07862136  1
  Ag  Ag6  1  0.17137880  0.82862137  0.82862164  1
  Ag  Ag7  1  0.82862133  0.82862161  0.17137814  1
  Ag  Ag8  1  0.17137860  0.17137862  0.82862151  1
  Ag  Ag9  1  0.17137836  0.82862153  0.17137861  1
  Ag  Ag10  1  0.82862128  0.17137789  0.82862167  1
  Ag  Ag11  1  0.42137864  0.07862153  0.07862139  1
  S  S0  1  0.86080105  0.86080104  0.41759784  1
  S  S1  1  0.38919940  0.38919939  0.38919949  1
  S  S2  1  0.41759806  0.86080104  0.86080096  1
  S  S3  1  0.86080103  0.41759794  0.86080090  1
  S  S4  1  0.38919903  0.38919905  0.83240288  1
  S  S5  1  0.38919906  0.83240272  0.38919909  1
  S  S6  1  0.83240262  0.38919918  0.38919905  1
  S  S7  1  0.86080066  0.86080061  0.86080054  1
loop_
_geom_bond_atom_site_label_1
_geom_bond_atom_site_label_2
_geom_bond_distance
_geom_bond_site_symmetry_2
Na0 S7 2.932791 1_554
Na0 S2 2.932792 1_554
Na0 S1 2.932792 1_555
Na0 S3 2.932793 1_554
Na0 S6 2.932796 1_555
Na0 S5 2.932797 1_555
Na1 S2 2.932791 1_545
Na1 S1 2.932791 1_555
Na1 S7 2.932792 1_545
Na1 S0 2.932793 1_545
Na1 S6 2.932795 1_555
Na1 S4 2.932797 1_555
Na2 S7 2.932792 1_455
Na2 S1 2.932792 1_555
Na2 S3 2.932792 1_455
Na2 S0 2.932793 1_455
Na2 S5 2.932796 1_555
Na2 S4 2.932797 1_555
Na3 S6 2.932798 1_555
Na3 S5 2.932798 1_555
Na3 S4 2.932799 1_555
Na3 S0 2.932800 1_555
Na3 S3 2.932800 1_555
Na3 S2 2.932800 1_555
Ag0 S6 2.471987 1_455
Ag0 S1 2.471991 1_555
Ag1 S0 2.471973 1_545
Ag1 S3 2.471979 1_554
Ag2 S1 2.471982 1_555
Ag2 S5 2.471994 1_545
Ag3 S1 2.471985 1_555
Ag3 S4 2.471992 1_554
Ag4 S5 2.471975 1_545
Ag4 S6 2.471976 1_455
Ag5 S4 2.471974 1_554
Ag5 S6 2.471977 1_455
Ag6 S7 2.471991 1_455
Ag6 S2 2.471994 1_555
Ag7 S7 2.471986 1_554
Ag7 S0 2.471998 1_555
Ag8 S3 2.471977 1_455
Ag8 S2 2.471977 1_545
Ag9 S0 2.471976 1_455
Ag9 S2 2.471979 1_554
Ag10 S7 2.471982 1_545
Ag10 S3 2.472000 1_555
Ag11 S4 2.471973 1_554
Ag11 S5 2.471976 1_545
