# generated using pymatgen
data_Fe3Sb(PO4)4
_symmetry_space_group_name_H-M   'P 1'
_cell_length_a   4.95858699
_cell_length_b   10.13627682
_cell_length_c   6.09521800
_cell_angle_alpha   90.00000000
_cell_angle_beta   90.00000000
_cell_angle_gamma   88.64628991
_symmetry_Int_Tables_number   1
_chemical_formula_structural   Fe3Sb(PO4)4
_chemical_formula_sum   'Fe3 Sb1 P4 O16'
_cell_volume   306.26996950
_cell_formula_units_Z   1
loop_
 _symmetry_equiv_pos_site_id
 _symmetry_equiv_pos_as_xyz
  1  'x, y, z'
loop_
 _atom_site_type_symbol
 _atom_site_label
 _atom_site_symmetry_multiplicity
 _atom_site_fract_x
 _atom_site_fract_y
 _atom_site_fract_z
 _atom_site_occupancy
  Fe  Fe0  1  0.46232300  0.22826100  0.75000000  1
  Fe  Fe1  1  0.53027000  0.77722400  0.25000000  1
  Fe  Fe2  1  0.96738800  0.27311500  0.25000000  1
  Sb  Sb0  1  0.03684100  0.72001700  0.75000000  1
  P  P0  1  0.07764600  0.58977100  0.25000000  1
  P  P1  1  0.42179100  0.10331000  0.25000000  1
  P  P2  1  0.59460000  0.90840200  0.75000000  1
  P  P3  1  0.90498700  0.39543500  0.75000000  1
  O  O0  1  0.14586500  0.44203400  0.25000000  1
  O  O1  1  0.22764000  0.66242300  0.05391400  1
  O  O2  1  0.22764000  0.66242300  0.44608600  1
  O  O3  1  0.21301700  0.38010700  0.75000000  1
  O  O4  1  0.28813600  0.88582300  0.75000000  1
  O  O5  1  0.27687900  0.17851900  0.05164000  1
  O  O6  1  0.27687900  0.17851900  0.44836000  1
  O  O7  1  0.35950500  0.95797700  0.25000000  1
  O  O8  1  0.64487100  0.05616300  0.75000000  1
  O  O9  1  0.74314800  0.83435700  0.55391800  1
  O  O10  1  0.74314800  0.83435700  0.94608200  1
  O  O11  1  0.72565200  0.12737300  0.25000000  1
  O  O12  1  0.77686900  0.61673400  0.25000000  1
  O  O13  1  0.77008300  0.32246000  0.55211100  1
  O  O14  1  0.77008300  0.32246000  0.94788900  1
  O  O15  1  0.81473700  0.54273800  0.75000000  1
loop_
_geom_bond_atom_site_label_1
_geom_bond_atom_site_label_2
_geom_bond_distance
_geom_bond_site_symmetry_2
Fe0 O8 1.946225 1_555
Fe0 O3 1.951229 1_555
Fe0 O5 2.121788 1_556
Fe0 O6 2.121788 1_555
Fe0 O13 2.182716 1_555
Fe0 O14 2.182716 1_555
Fe1 O7 2.000127 1_555
Fe1 O12 2.011863 1_555
Fe1 O9 2.215864 1_555
Fe1 O10 2.215864 1_554
Fe1 O1 2.262061 1_555
Fe1 O2 2.262061 1_555
Fe2 O11 1.924275 1_555
Fe2 O0 1.945886 1_655
Fe2 O13 2.138949 1_555
Fe2 O14 2.138949 1_554
Fe2 O6 2.160273 1_655
Fe2 O5 2.160273 1_655
O0 P0 1.527419 1_555
O1 P0 1.596823 1_555
O1 Sb0 2.154361 1_554
O2 P0 1.596823 1_555
O2 Sb0 2.154361 1_555
O3 P3 1.531619 1_455
O4 P2 1.542104 1_555
O4 Sb0 2.115712 1_555
O5 P1 1.591666 1_555
O6 P1 1.591666 1_555
O7 P1 1.512288 1_565
O8 P2 1.524146 1_545
O9 P2 1.583719 1_555
O9 Sb0 2.193791 1_655
O10 P2 1.583719 1_555
O10 Sb0 2.193791 1_655
O11 P1 1.532013 1_555
O12 P0 1.509899 1_655
O13 P3 1.572533 1_555
O14 P3 1.572533 1_555
O15 P3 1.548566 1_555
O15 Sb0 2.129658 1_655
