# generated using pymatgen
data_Li9Mn2Co5O16
_symmetry_space_group_name_H-M   'P 1'
_cell_length_a   6.44167300
_cell_length_b   6.45596212
_cell_length_c   7.85919498
_cell_angle_alpha   113.92324008
_cell_angle_beta   87.50668622
_cell_angle_gamma   108.18594608
_symmetry_Int_Tables_number   1
_chemical_formula_structural   Li9Mn2Co5O16
_chemical_formula_sum   'Li9 Mn2 Co5 O16'
_cell_volume   282.53796944
_cell_formula_units_Z   1
loop_
 _symmetry_equiv_pos_site_id
 _symmetry_equiv_pos_as_xyz
  1  'x, y, z'
loop_
 _atom_site_type_symbol
 _atom_site_label
 _atom_site_symmetry_multiplicity
 _atom_site_fract_x
 _atom_site_fract_y
 _atom_site_fract_z
 _atom_site_occupancy
  Li  Li0  1  0.93707600  0.44268600  0.68725100  1
  Li  Li1  1  0.44107900  0.94114000  0.19333000  1
  Li  Li2  1  0.06712900  0.55931100  0.30751700  1
  Li  Li3  1  0.56070600  0.06224000  0.81232300  1
  Li  Li4  1  0.19232600  0.67426400  0.94796700  1
  Li  Li5  1  0.67496500  0.19189200  0.42442100  1
  Li  Li6  1  0.31652500  0.81229000  0.56328200  1
  Li  Li7  1  0.81106100  0.31679500  0.06108800  1
  Li  Li8  1  0.25479800  0.25466200  0.24807500  1
  Mn  Mn0  1  0.99926200  0.99900000  0.00515200  1
  Mn  Mn1  1  0.12742100  0.12552400  0.62144800  1
  Co  Co0  1  0.49450100  0.50231700  0.49026900  1
  Co  Co1  1  0.62159200  0.62091000  0.12648500  1
  Co  Co2  1  0.74838800  0.74801700  0.75133300  1
  Co  Co3  1  0.37926000  0.37307600  0.88358300  1
  Co  Co4  1  0.87386400  0.87371700  0.37662600  1
  O  O0  1  0.09980900  0.32931300  0.95850100  1
  O  O1  1  0.60511400  0.83060600  0.47020900  1
  O  O2  1  0.22264600  0.45400100  0.58335300  1
  O  O3  1  0.72850000  0.95984800  0.08837800  1
  O  O4  1  0.36365700  0.59901700  0.21353100  1
  O  O5  1  0.86153500  0.07365300  0.73795600  1
  O  O6  1  0.47713800  0.70466300  0.83658600  1
  O  O7  1  0.97697400  0.18846400  0.37614100  1
  O  O8  1  0.77178000  0.54657700  0.41228100  1
  O  O9  1  0.26408000  0.04840200  0.89184300  1
  O  O10  1  0.89722800  0.67027400  0.03298600  1
  O  O11  1  0.39933300  0.16533100  0.54121600  1
  O  O12  1  0.02689900  0.79323100  0.66495600  1
  O  O13  1  0.53637700  0.30085700  0.15066700  1
  O  O14  1  0.12623000  0.91350800  0.25904400  1
  O  O15  1  0.64274200  0.42441600  0.78220200  1
loop_
_geom_bond_atom_site_label_1
_geom_bond_atom_site_label_2
_geom_bond_distance
_geom_bond_site_symmetry_2
Li0 O2 1.972269 1_655
Li0 O15 1.993566 1_555
Li0 O12 2.232164 1_655
Li1 O3 1.982734 1_555
Li1 O14 2.041987 1_555
Li1 O4 2.177694 1_555
Li1 O13 2.367735 1_565
Li2 O4 1.996274 1_555
Li2 O8 2.031088 1_455
Li2 O14 2.381065 1_555
Li3 O9 1.970894 1_555
Li3 O5 1.987339 1_555
Li3 O6 2.286420 1_545
Li3 O15 2.338633 1_555
Li4 O10 1.983312 1_456
Li4 O6 1.986360 1_555
Li4 O0 2.153672 1_555
Li5 O11 1.954557 1_555
Li5 O7 1.971054 1_555
Li5 O8 2.218556 1_555
Li5 O1 2.404957 1_545
Li6 O1 1.954363 1_555
Li6 O12 1.985233 1_555
Li6 O11 2.250128 1_565
Li6 O2 2.270572 1_555
Li7 O13 1.863817 1_555
Li7 O0 1.986148 1_654
Li7 O10 2.274213 1_555
Li7 O3 2.294600 1_545
Li8 O13 1.921383 1_555
Li8 O7 2.028115 1_455
Li8 O14 2.133875 1_545
Li8 O4 2.237775 1_555
Mn0 O3 1.814789 1_555
Mn0 O9 1.887672 1_664
Mn0 O10 2.115912 1_555
Mn0 O0 2.202891 1_664
Mn1 O11 1.812731 1_555
Mn1 O5 1.907435 1_455
Mn1 O2 2.156380 1_555
Mn1 O12 2.201583 1_545
Co0 O8 1.837344 1_555
Co0 O2 1.852520 1_555
Co0 O1 2.084006 1_555
Co0 Li8 2.193203 1_555
Co0 O11 2.263153 1_555
Co1 O4 1.755452 1_555
Co1 O10 1.875457 1_555
Co1 O13 2.051402 1_555
Co1 O3 2.219228 1_555
Co2 O6 1.823541 1_555
Co2 O12 1.868854 1_655
Co2 O5 2.044030 1_565
Co2 O15 2.096615 1_555
Co3 O15 1.835970 1_555
Co3 O0 1.841796 1_555
Co3 O9 2.020812 1_555
Co3 O6 2.212491 1_555
Co4 O14 1.834085 1_655
Co4 O1 1.835738 1_555
Co4 O7 1.932300 1_565
Co4 O8 2.137415 1_555
