# generated using pymatgen
data_Al12Si12Ag16S5O48
_symmetry_space_group_name_H-M   'P 1'
_cell_length_a   9.00972944
_cell_length_b   8.92446093
_cell_length_c   17.98971808
_cell_angle_alpha   89.99658211
_cell_angle_beta   89.96215096
_cell_angle_gamma   89.90536035
_symmetry_Int_Tables_number   1
_chemical_formula_structural   Al12Si12Ag16S5O48
_chemical_formula_sum   'Al12 Si12 Ag16 S5 O48'
_cell_volume   1446.49658190
_cell_formula_units_Z   1
loop_
 _symmetry_equiv_pos_site_id
 _symmetry_equiv_pos_as_xyz
  1  'x, y, z'
loop_
 _atom_site_type_symbol
 _atom_site_label
 _atom_site_symmetry_multiplicity
 _atom_site_fract_x
 _atom_site_fract_y
 _atom_site_fract_z
 _atom_site_occupancy
  Al  Al0  1  0.99746503  0.74936085  0.24595105  1
  Al  Al1  1  0.99725703  0.25085173  0.75257356  1
  Al  Al2  1  0.00017391  0.74936254  0.75274334  1
  Al  Al3  1  0.24832353  0.50009672  0.99950204  1
  Al  Al4  1  0.24868819  0.50059035  0.49976090  1
  Al  Al5  1  0.49886370  0.00003967  0.37220122  1
  Al  Al6  1  0.49934922  0.99953913  0.12371986  1
  Al  Al7  1  0.49878595  0.00033359  0.62702006  1
  Al  Al8  1  0.49902966  0.00017330  0.87520967  1
  Al  Al9  1  0.74911750  0.49930799  0.99939484  1
  Al  Al10  1  0.74869681  0.49978578  0.49978727  1
  Al  Al11  1  0.99998629  0.25071585  0.24598715  1
  Si  Si0  1  0.99856819  0.49975703  0.12288464  1
  Si  Si1  1  0.24962148  0.00018621  0.24664556  1
  Si  Si2  1  0.24954377  0.99967066  0.75212489  1
  Si  Si3  1  0.49863674  0.74929886  0.99955651  1
  Si  Si4  1  0.49832322  0.74921290  0.49981099  1
  Si  Si5  1  0.49941715  0.25022073  0.99936590  1
  Si  Si6  1  0.49914245  0.25113836  0.49975518  1
  Si  Si7  1  0.74823593  0.99995956  0.24665975  1
  Si  Si8  1  0.74816463  0.00045495  0.75196049  1
  Si  Si9  1  0.99879511  0.50017609  0.37296262  1
  Si  Si10  1  0.99877435  0.50022223  0.62607925  1
  Si  Si11  1  0.99869909  0.50002760  0.87604187  1
  Ag  Ag0  1  0.15930074  0.15492910  0.07356083  1
  Ag  Ag1  1  0.17846069  0.17924852  0.59278124  1
  Ag  Ag2  1  0.18028012  0.81916645  0.40495650  1
  Ag  Ag3  1  0.15703670  0.84615822  0.92398949  1
  Ag  Ag4  1  0.33763101  0.33969469  0.32339116  1
  Ag  Ag5  1  0.35146704  0.64607827  0.16771641  1
  Ag  Ag6  1  0.34874758  0.35200121  0.83061186  1
  Ag  Ag7  1  0.34038692  0.65913427  0.67571632  1
  Ag  Ag8  1  0.64389283  0.35395935  0.16787300  1
  Ag  Ag9  1  0.65985942  0.66026745  0.32288980  1
  Ag  Ag10  1  0.65778787  0.34230943  0.67616545  1
  Ag  Ag11  1  0.64849027  0.64810820  0.83033240  1
  Ag  Ag12  1  0.81731131  0.18131533  0.40520889  1
  Ag  Ag13  1  0.84039766  0.84338326  0.07271094  1
  Ag  Ag14  1  0.84250774  0.15332864  0.92365709  1
  Ag  Ag15  1  0.81888989  0.82103238  0.59276309  1
  S  S0  1  0.10817395  0.00178400  0.49769647  1
  S  S1  1  0.49802458  0.50009580  0.74776294  1
  S  S2  1  0.49798789  0.50035788  0.25364477  1
  S  S3  1  0.99971478  0.99979382  0.99998951  1
  S  S4  1  0.88952855  0.99768163  0.49735545  1
  O  O0  1  0.06577303  0.63630940  0.17384501  1
  O  O1  1  0.05952535  0.35961025  0.32274258  1
  O  O2  1  0.06012431  0.63996038  0.67634406  1
  O  O3  1  0.06548609  0.36319558  0.82486520  1
  O  O4  1  0.13547233  0.43219530  0.07232396  1
  O  O5  1  0.13569784  0.43744287  0.57396490  1
  O  O6  1  0.13557983  0.56211546  0.42521124  1
  O  O7  1  0.13513351  0.56735961  0.92662947  1
  O  O8  1  0.14929562  0.13952887  0.21492005  1
  O  O9  1  0.14410831  0.13633498  0.71987086  1
  O  O10  1  0.14428681  0.86334108  0.27837784  1
  O  O11  1  0.14892731  0.86086698  0.78386558  1
  O  O12  1  0.34879344  0.06142617  0.31723289  1
  O  O13  1  0.35259431  0.93257287  0.17961995  1
  O  O14  1  0.35198791  0.06692248  0.81935708  1
  O  O15  1  0.34939559  0.93775177  0.68192804  1
  O  O16  1  0.35986545  0.35144665  0.46942310  1
  O  O17  1  0.36072352  0.64797131  0.03212925  1
  O  O18  1  0.36210027  0.35283227  0.96705890  1
  O  O19  1  0.35777708  0.65098765  0.53030815  1
  O  O20  1  0.43414046  0.14807415  0.06781757  1
  O  O21  1  0.43900662  0.14830009  0.56941702  1
  O  O22  1  0.43946478  0.85222264  0.42991248  1
  O  O23  1  0.43365957  0.85199866  0.93116696  1
  O  O24  1  0.55808467  0.14802577  0.42987515  1
  O  O25  1  0.56496811  0.14860786  0.93073402  1
  O  O26  1  0.56444372  0.85032224  0.06824984  1
  O  O27  1  0.55836818  0.85207457  0.56947584  1
  O  O28  1  0.63664118  0.35181229  0.03240542  1
  O  O29  1  0.63763277  0.64885162  0.46944234  1
  O  O30  1  0.63529022  0.64638554  0.96675068  1
  O  O31  1  0.63965414  0.34935054  0.53032906  1
  O  O32  1  0.64522306  0.06767656  0.17973177  1
  O  O33  1  0.64896314  0.93856205  0.31723996  1
  O  O34  1  0.64828893  0.06268759  0.68188482  1
  O  O35  1  0.64558993  0.93297118  0.81914111  1
  O  O36  1  0.85353411  0.13650940  0.27866845  1
  O  O37  1  0.84868524  0.13925863  0.78389673  1
  O  O38  1  0.84846219  0.86061605  0.21484763  1
  O  O39  1  0.85348640  0.86371708  0.71985719  1
  O  O40  1  0.86188013  0.43827075  0.42520741  1
  O  O41  1  0.86230260  0.43216965  0.92652813  1
  O  O42  1  0.86202278  0.56722098  0.07213045  1
  O  O43  1  0.86198700  0.56277352  0.57386377  1
  O  O44  1  0.93716216  0.35974259  0.67604947  1
  O  O45  1  0.93135178  0.36336391  0.17386335  1
  O  O46  1  0.93776779  0.64081925  0.32284952  1
  O  O47  1  0.93174892  0.63713239  0.82517249  1
loop_
_geom_bond_atom_site_label_1
_geom_bond_atom_site_label_2
_geom_bond_distance
_geom_bond_site_symmetry_2
Al0 O0 1.753962 1_655
Al0 O38 1.760024 1_555
Al0 O10 1.769298 1_655
Al0 O46 1.772553 1_555
Al1 O3 1.754330 1_655
Al1 O37 1.761967 1_555
Al1 O44 1.769683 1_555
Al1 O9 1.770802 1_655
Al2 O47 1.755514 1_455
Al2 O11 1.762214 1_555
Al2 O2 1.769586 1_555
Al2 O39 1.770510 1_455
Al3 O18 1.764535 1_555
Al3 O17 1.765493 1_556
Al3 O4 1.765620 1_556
Al3 O7 1.765960 1_555
Al4 O16 1.751517 1_555
Al4 O19 1.753484 1_555
Al4 O5 1.770858 1_555
Al4 O6 1.771580 1_555
Al5 O33 1.761629 1_545
Al5 O12 1.762212 1_555
Al5 O22 1.762377 1_545
Al5 O24 1.763133 1_555
Al6 O26 1.763498 1_555
Al6 O20 1.764026 1_565
Al6 O32 1.765478 1_565
Al6 O13 1.765647 1_555
Al7 O15 1.760661 1_545
Al7 O34 1.761390 1_555
Al7 O21 1.762364 1_555
Al7 O27 1.762834 1_545
Al8 O25 1.763248 1_555
Al8 O23 1.763676 1_545
Al8 O35 1.765337 1_545
Al8 O14 1.765961 1_555
Al9 O41 1.764532 1_555
Al9 O30 1.765156 1_555
Al9 O28 1.765167 1_556
Al9 O42 1.765835 1_556
Al10 O29 1.750811 1_555
Al10 O31 1.753022 1_555
Al10 O43 1.771297 1_555
Al10 O40 1.771381 1_555
Al11 O45 1.753679 1_555
Al11 O8 1.761053 1_655
Al11 O36 1.768870 1_555
Al11 O1 1.772482 1_655
Ag0 S3 2.396918 1_444
Ag0 O20 2.478972 1_555
Ag0 O4 2.483494 1_555
Ag0 O8 2.548259 1_555
Ag1 O9 2.338593 1_555
Ag1 O5 2.360025 1_555
Ag1 O21 2.400007 1_555
Ag1 S0 2.416694 1_555
Ag2 O10 2.333727 1_555
Ag2 O6 2.358040 1_555
Ag2 O22 2.396945 1_555
Ag2 S0 2.420128 1_565
Ag3 S3 2.397830 1_455
Ag3 O23 2.496355 1_555
Ag3 O7 2.496712 1_555
Ag3 O11 2.525296 1_555
Ag4 S2 2.392027 1_555
Ag4 O12 2.487738 1_555
Ag4 O1 2.511694 1_555
Ag4 O16 2.636938 1_555
Ag5 S2 2.412530 1_555
Ag5 O17 2.440603 1_555
Ag5 O13 2.565812 1_555
Ag5 O0 2.577931 1_555
Ag6 S1 2.404172 1_555
Ag6 O18 2.457682 1_555
Ag6 O14 2.552347 1_555
Ag6 O3 2.556059 1_555
Ag7 S1 2.388955 1_555
Ag7 O15 2.490487 1_555
Ag7 O2 2.531181 1_555
Ag7 O19 2.621442 1_555
Ag8 S2 2.409950 1_555
Ag8 O28 2.438020 1_555
Ag8 O32 2.563807 1_555
Ag8 O45 2.593737 1_555
Ag9 S2 2.392670 1_555
Ag9 O33 2.487481 1_555
Ag9 O46 2.509601 1_555
Ag9 O29 2.645870 1_555
Ag10 S1 2.388496 1_555
Ag10 O34 2.499193 1_555
Ag10 O44 2.522146 1_555
Ag10 O31 2.629486 1_555
Ag11 S1 2.407880 1_555
Ag11 O30 2.456976 1_555
Ag11 O35 2.550288 1_555
Ag11 O47 2.555427 1_555
Ag12 O36 2.333928 1_555
Ag12 O40 2.356422 1_555
Ag12 O24 2.396023 1_555
Ag12 S4 2.419637 1_545
Ag13 S3 2.392545 1_554
Ag13 O42 2.471990 1_555
Ag13 O26 2.488287 1_555
Ag13 O38 2.562714 1_555
Ag14 S3 2.401097 1_545
Ag14 O41 2.495722 1_555
Ag14 O25 2.504136 1_555
Ag14 O37 2.517964 1_555
Ag15 O39 2.339076 1_555
Ag15 O43 2.361256 1_555
Ag15 O27 2.400183 1_555
Ag15 S4 2.416160 1_555
S0 S4 1.970350 1_445
O0 Si0 1.641800 1_455
O1 Si9 1.639061 1_455
O2 Si10 1.637527 1_455
O3 Si11 1.642520 1_455
O4 Si0 1.645736 1_455
O5 Si10 1.646506 1_455
O6 Si9 1.646718 1_455
O7 Si11 1.644474 1_455
O8 Si1 1.638935 1_555
O9 Si2 1.650288 1_545
O10 Si1 1.649568 1_565
O11 Si2 1.638682 1_555
O12 Si1 1.647048 1_555
O13 Si1 1.635691 1_565
O14 Si2 1.636580 1_545
O15 Si2 1.645103 1_555
O16 Si6 1.634291 1_555
O17 Si3 1.645526 1_554
O18 Si5 1.644435 1_555
O19 Si4 1.635728 1_555
O20 Si5 1.641342 1_554
O21 Si6 1.645290 1_555
O22 Si4 1.645195 1_555
O23 Si3 1.641790 1_555
O24 Si6 1.645244 1_555
O25 Si5 1.641027 1_555
O26 Si3 1.641457 1_554
O27 Si4 1.645806 1_555
O28 Si5 1.645781 1_554
O29 Si4 1.634476 1_555
O30 Si3 1.644108 1_555
O31 Si6 1.636485 1_555
O32 Si7 1.635793 1_545
O33 Si7 1.646951 1_555
O34 Si8 1.645350 1_555
O35 Si8 1.636367 1_565
O36 Si7 1.649642 1_545
O37 Si8 1.639902 1_555
O38 Si7 1.638626 1_555
O39 Si8 1.648844 1_565
O40 Si9 1.646488 1_555
O41 Si11 1.644000 1_555
O42 Si0 1.645789 1_555
O43 Si10 1.646826 1_555
O44 Si10 1.639981 1_555
O45 Si0 1.640440 1_555
O46 Si9 1.639738 1_555
O47 Si11 1.642142 1_555
