# generated using pymatgen
data_Ti3B4Mo3
_symmetry_space_group_name_H-M   'P 1'
_cell_length_a   6.00435491
_cell_length_b   6.00435491
_cell_length_c   3.16808100
_cell_angle_alpha   90.00000000
_cell_angle_beta   90.00000000
_cell_angle_gamma   90.50403800
_symmetry_Int_Tables_number   1
_chemical_formula_structural   Ti3B4Mo3
_chemical_formula_sum   'Ti3 B4 Mo3'
_cell_volume   114.21211693
_cell_formula_units_Z   1
loop_
 _symmetry_equiv_pos_site_id
 _symmetry_equiv_pos_as_xyz
  1  'x, y, z'
loop_
 _atom_site_type_symbol
 _atom_site_label
 _atom_site_symmetry_multiplicity
 _atom_site_fract_x
 _atom_site_fract_y
 _atom_site_fract_z
 _atom_site_occupancy
  Ti  Ti0  1  0.49975300  0.00110900  0.00000000  1
  Ti  Ti1  1  0.99889100  0.50024700  0.00000000  1
  Ti  Ti2  1  0.82468300  0.17531700  0.50000000  1
  B  B0  1  0.39166100  0.60833900  0.00000000  1
  B  B1  1  0.60789500  0.39210500  0.00000000  1
  B  B2  1  0.10793900  0.10759600  0.00000000  1
  B  B3  1  0.89240400  0.89206100  0.00000000  1
  Mo  Mo0  1  0.17882000  0.82118000  0.50000000  1
  Mo  Mo1  1  0.67609200  0.67813800  0.50000000  1
  Mo  Mo2  1  0.32186200  0.32390800  0.50000000  1
loop_
_geom_bond_atom_site_label_1
_geom_bond_atom_site_label_2
_geom_bond_distance
_geom_bond_site_symmetry_2
B0 B1 1.844197 1_555
B0 Mo2 2.364085 1_555
B0 Mo2 2.364085 1_554
B0 Mo1 2.364085 1_555
B0 Mo1 2.364085 1_554
B0 Mo0 2.409222 1_554
B0 Mo0 2.409222 1_555
B0 Ti1 2.440497 1_455
B0 Ti0 2.440497 1_565
B1 Mo2 2.369409 1_555
B1 Mo2 2.369409 1_554
B1 Mo1 2.369409 1_554
B1 Mo1 2.369409 1_555
B1 Ti0 2.430308 1_555
B1 Ti1 2.430308 1_555
B1 Ti2 2.434686 1_554
B1 Ti2 2.434686 1_555
B2 B3 1.822135 1_445
B2 Ti2 2.362056 1_455
B2 Ti2 2.362056 1_454
B2 Mo0 2.379225 1_544
B2 Mo0 2.379225 1_545
B2 Mo2 2.411765 1_555
B2 Mo2 2.411765 1_554
B2 Ti0 2.443350 1_555
B2 Ti1 2.452392 1_455
B3 Ti2 2.362056 1_565
B3 Ti2 2.362056 1_564
B3 Mo0 2.379225 1_655
B3 Mo0 2.379225 1_654
B3 Mo1 2.411765 1_554
B3 Mo1 2.411765 1_555
B3 Ti1 2.443350 1_555
B3 Ti0 2.452392 1_565
Mo0 Ti1 2.711649 1_456
Mo0 Ti0 2.711649 1_566
Mo0 Ti0 2.711649 1_565
Mo0 Ti1 2.711649 1_455
Mo1 Ti0 2.725251 1_566
Mo1 Ti0 2.725251 1_565
Mo1 Ti1 2.728206 1_556
Mo1 Ti1 2.728206 1_555
Mo2 Ti1 2.725251 1_455
Mo2 Ti1 2.725251 1_456
Mo2 Ti0 2.728206 1_556
Mo2 Ti0 2.728206 1_555
