# generated using pymatgen
data_VPbO4
_symmetry_space_group_name_H-M   'P 1'
_cell_length_a   7.30367300
_cell_length_b   6.92691400
_cell_length_c   8.46863897
_cell_angle_alpha   52.89258299
_cell_angle_beta   90.00000000
_cell_angle_gamma   90.00000000
_symmetry_Int_Tables_number   1
_chemical_formula_structural   VPbO4
_chemical_formula_sum   'V4 Pb4 O16'
_cell_volume   341.68711736
_cell_formula_units_Z   4
loop_
 _symmetry_equiv_pos_site_id
 _symmetry_equiv_pos_as_xyz
  1  'x, y, z'
loop_
 _atom_site_type_symbol
 _atom_site_label
 _atom_site_symmetry_multiplicity
 _atom_site_fract_x
 _atom_site_fract_y
 _atom_site_fract_z
 _atom_site_occupancy
  V  V0  1  0.83805500  0.68429300  0.20297400  1
  V  V1  1  0.16194500  0.31570700  0.79702600  1
  V  V2  1  0.33805500  0.31570700  0.29702600  1
  V  V3  1  0.66194500  0.68429300  0.70297400  1
  Pb  Pb0  1  0.36321600  0.81402600  0.27789700  1
  Pb  Pb1  1  0.63678400  0.18597400  0.72210300  1
  Pb  Pb2  1  0.86321600  0.18597400  0.22210300  1
  Pb  Pb3  1  0.13678400  0.81402600  0.77789700  1
  O  O0  1  0.90220300  0.64762000  0.02531800  1
  O  O1  1  0.09779700  0.35238000  0.97468200  1
  O  O2  1  0.40220300  0.35238000  0.47468200  1
  O  O3  1  0.59779700  0.64762000  0.52531800  1
  O  O4  1  0.79076000  0.38650200  0.40333700  1
  O  O5  1  0.20924000  0.61349800  0.59666300  1
  O  O6  1  0.29076000  0.61349800  0.09666300  1
  O  O7  1  0.70924000  0.38650200  0.90333700  1
  O  O8  1  0.64124000  0.86692600  0.10808100  1
  O  O9  1  0.35876000  0.13307400  0.89191900  1
  O  O10  1  0.14124000  0.13307400  0.39191900  1
  O  O11  1  0.85876000  0.86692600  0.60808100  1
  O  O12  1  0.00061200  0.84003700  0.24145400  1
  O  O13  1  0.99938800  0.15996300  0.75854600  1
  O  O14  1  0.50061200  0.15996300  0.25854600  1
  O  O15  1  0.49938800  0.84003700  0.74145400  1
loop_
_geom_bond_atom_site_label_1
_geom_bond_atom_site_label_2
_geom_bond_distance
_geom_bond_site_symmetry_2
O0 V0 1.734570 1_555
O0 Pb3 2.395864 1_654
O0 Pb2 2.579515 1_555
O1 V1 1.734570 1_555
O1 Pb2 2.395864 1_456
O1 Pb3 2.579515 1_555
O2 V2 1.734570 1_555
O2 Pb1 2.395864 1_555
O2 Pb0 2.579515 1_555
O3 V3 1.734570 1_555
O3 Pb0 2.395864 1_555
O3 Pb1 2.579515 1_555
O4 V0 1.740738 1_555
O4 Pb1 2.440697 1_555
O4 Pb2 2.671613 1_555
O5 V1 1.740738 1_555
O5 Pb0 2.440697 1_555
O5 Pb3 2.671613 1_555
O6 V2 1.740738 1_555
O6 Pb3 2.440697 1_554
O6 Pb0 2.671613 1_555
O7 V3 1.740738 1_555
O7 Pb2 2.440697 1_556
O7 Pb1 2.671613 1_555
O8 V0 1.756661 1_555
O8 Pb0 2.385351 1_555
O8 Pb1 2.617856 1_564
O9 V1 1.756661 1_555
O9 Pb1 2.385351 1_555
O9 Pb0 2.617856 1_546
O10 V2 1.756661 1_555
O10 Pb2 2.385351 1_455
O10 Pb3 2.617856 1_545
O11 V3 1.756661 1_555
O11 Pb3 2.385351 1_655
O11 Pb2 2.617856 1_565
O12 V0 1.761775 1_455
O12 Pb2 2.510411 1_465
O12 Pb0 2.659760 1_555
O13 V1 1.761775 1_655
O13 Pb3 2.510411 1_645
O13 Pb1 2.659760 1_555
O14 V2 1.761775 1_555
O14 Pb0 2.510411 1_545
O14 Pb2 2.659760 1_555
O15 V3 1.761775 1_555
O15 Pb1 2.510411 1_565
O15 Pb3 2.659760 1_555
