# generated using pymatgen
data_Na2Cr2H2O7
_symmetry_space_group_name_H-M   'P 1'
_cell_length_a   10.51019200
_cell_length_b   6.34179400
_cell_length_c   13.52307365
_cell_angle_alpha   88.92669478
_cell_angle_beta   90.00000000
_cell_angle_gamma   90.00000000
_symmetry_Int_Tables_number   1
_chemical_formula_structural   Na2Cr2H2O7
_chemical_formula_sum   'Na8 Cr8 H8 O28'
_cell_volume   901.20167316
_cell_formula_units_Z   4
loop_
 _symmetry_equiv_pos_site_id
 _symmetry_equiv_pos_as_xyz
  1  'x, y, z'
loop_
 _atom_site_type_symbol
 _atom_site_label
 _atom_site_symmetry_multiplicity
 _atom_site_fract_x
 _atom_site_fract_y
 _atom_site_fract_z
 _atom_site_occupancy
  Na  Na0  1  0.83814100  0.35198400  0.23032600  1
  Na  Na1  1  0.33814100  0.64801600  0.76967400  1
  Na  Na2  1  0.32210200  0.32152200  0.01131900  1
  Na  Na3  1  0.82210200  0.67847800  0.98868100  1
  Na  Na4  1  0.33940000  0.93173300  0.23451000  1
  Na  Na5  1  0.83940000  0.06826700  0.76549000  1
  Na  Na6  1  0.87871300  0.83272600  0.47181500  1
  Na  Na7  1  0.37871300  0.16727400  0.52818500  1
  Cr  Cr0  1  0.50742100  0.43644700  0.33284700  1
  Cr  Cr1  1  0.00742100  0.56355300  0.66715300  1
  Cr  Cr2  1  0.49306900  0.84721300  0.00542200  1
  Cr  Cr3  1  0.99306900  0.15278700  0.99457800  1
  Cr  Cr4  1  0.99406200  0.85647100  0.19137000  1
  Cr  Cr5  1  0.49406200  0.14352900  0.80863000  1
  Cr  Cr6  1  0.55239900  0.66113700  0.54216300  1
  Cr  Cr7  1  0.05239900  0.33886300  0.45783700  1
  H  H0  1  0.71529700  0.97240600  0.31353100  1
  H  H1  1  0.21529700  0.02759400  0.68646900  1
  H  H2  1  0.72316000  0.67537800  0.79719100  1
  H  H3  1  0.22316000  0.32462200  0.20280900  1
  H  H4  1  0.23467800  0.84445300  0.42781800  1
  H  H5  1  0.73467800  0.15554700  0.57218200  1
  H  H6  1  0.68281600  0.33416100  0.06596300  1
  H  H7  1  0.18281600  0.66583900  0.93403700  1
  O  O0  1  0.90191100  0.66844600  0.15006000  1
  O  O1  1  0.40191100  0.33155400  0.84994000  1
  O  O2  1  0.41297900  0.61461500  0.28544200  1
  O  O3  1  0.91297900  0.38538500  0.71455800  1
  O  O4  1  0.65384800  0.47994500  0.29627300  1
  O  O5  1  0.15384800  0.52005500  0.70372700  1
  O  O6  1  0.95931800  0.09892900  0.12322300  1
  O  O7  1  0.45931800  0.90107100  0.87677700  1
  O  O8  1  0.64446200  0.87669700  0.02441700  1
  O  O9  1  0.14446200  0.12330300  0.97558300  1
  O  O10  1  0.98436300  0.37628400  0.35042800  1
  O  O11  1  0.48436300  0.62371600  0.64957200  1
  O  O12  1  0.50822500  0.88367800  0.49048700  1
  O  O13  1  0.00822500  0.11632200  0.50951300  1
  O  O14  1  0.96029800  0.79999700  0.69701800  1
  O  O15  1  0.46029800  0.20000300  0.30298200  1
  O  O16  1  0.00238800  0.55242800  0.53468500  1
  O  O17  1  0.50238800  0.44757200  0.46531500  1
  O  O18  1  0.14256900  0.79731600  0.17433200  1
  O  O19  1  0.64256900  0.20268400  0.82566800  1
  O  O20  1  0.96605400  0.89599400  0.30759600  1
  O  O21  1  0.46605400  0.10400600  0.69240400  1
  O  O22  1  0.70692700  0.65910200  0.55254700  1
  O  O23  1  0.20692700  0.34089800  0.44745300  1
  O  O24  1  0.91324400  0.98649200  0.92653500  1
  O  O25  1  0.41324400  0.01350800  0.07346500  1
  O  O26  1  0.45115700  0.60563100  0.03146500  1
  O  O27  1  0.95115700  0.39436900  0.96853500  1
loop_
_geom_bond_atom_site_label_1
_geom_bond_atom_site_label_2
_geom_bond_distance
_geom_bond_site_symmetry_2
Na0 O10 2.243391 1_555
Na0 O4 2.287523 1_555
Na0 O0 2.360844 1_555
Na0 O6 2.526327 1_555
Na1 O11 2.243391 1_555
Na1 O5 2.287523 1_555
Na1 O1 2.360844 1_555
Na1 O7 2.526327 1_555
Na2 O26 2.275688 1_555
Na2 O9 2.307014 1_554
Na2 O25 2.319054 1_555
Na2 O1 2.337745 1_554
Na3 O27 2.275688 1_555
Na3 O8 2.307014 1_556
Na3 O24 2.319054 1_555
Na3 O0 2.337745 1_556
Na4 O2 2.250565 1_555
Na4 O15 2.329260 1_565
Na4 O25 2.360488 1_565
Na4 O18 2.386327 1_555
Na5 O3 2.250565 1_555
Na5 O14 2.329260 1_545
Na5 O24 2.360488 1_545
Na5 O19 2.386327 1_555
Na6 O13 2.319854 1_665
Na6 O16 2.348543 1_655
Na6 O22 2.370466 1_555
Na6 O20 2.429401 1_555
Na7 O12 2.319854 1_545
Na7 O17 2.348543 1_555
Na7 O23 2.370466 1_555
Na7 O21 2.429401 1_555
Cr0 O2 1.626582 1_555
Cr0 O15 1.636926 1_555
Cr0 O4 1.638308 1_555
Cr0 O17 1.794863 1_555
Cr1 O3 1.626582 1_455
Cr1 O14 1.636926 1_455
Cr1 O5 1.638308 1_555
Cr1 O16 1.794863 1_555
Cr2 O8 1.623134 1_555
Cr2 O26 1.626370 1_555
Cr2 O25 1.642897 1_565
Cr2 O7 1.801862 1_554
Cr3 O9 1.623134 1_655
Cr3 O27 1.626370 1_555
Cr3 O24 1.642897 1_545
Cr3 O6 1.801862 1_556
Cr4 O18 1.622737 1_655
Cr4 O20 1.623139 1_555
Cr4 O0 1.642232 1_555
Cr4 O6 1.814883 1_565
Cr5 O19 1.622737 1_555
Cr5 O21 1.623139 1_555
Cr5 O1 1.642232 1_555
Cr5 O7 1.814883 1_545
Cr6 O22 1.630209 1_555
Cr6 O12 1.630566 1_555
Cr6 O11 1.632326 1_555
Cr6 O17 1.800931 1_555
Cr7 O23 1.630209 1_555
Cr7 O13 1.630566 1_555
Cr7 O10 1.632326 1_455
Cr7 O16 1.800931 1_555
