# generated using pymatgen
data_SrCaTbBiO6
_symmetry_space_group_name_H-M   'P 1'
_cell_length_a   5.87088141
_cell_length_b   6.03886928
_cell_length_c   8.41719225
_cell_angle_alpha   89.97679258
_cell_angle_beta   89.83154889
_cell_angle_gamma   89.86580378
_symmetry_Int_Tables_number   1
_chemical_formula_structural   SrCaTbBiO6
_chemical_formula_sum   'Sr2 Ca2 Tb2 Bi2 O12'
_cell_volume   298.41667035
_cell_formula_units_Z   2
loop_
 _symmetry_equiv_pos_site_id
 _symmetry_equiv_pos_as_xyz
  1  'x, y, z'
loop_
 _atom_site_type_symbol
 _atom_site_label
 _atom_site_symmetry_multiplicity
 _atom_site_fract_x
 _atom_site_fract_y
 _atom_site_fract_z
 _atom_site_occupancy
  Sr  Sr0  1  0.51137856  0.55057952  0.24999090  1
  Sr  Sr1  1  0.48862144  0.44942048  0.75000910  1
  Ca  Ca0  1  0.98615814  0.04884416  0.24849714  1
  Ca  Ca1  1  0.01384186  0.95115584  0.75150286  1
  Tb  Tb0  1  0.50000000  0.00000000  0.00000000  1
  Tb  Tb1  1  0.00000000  0.50000000  0.50000000  1
  Bi  Bi0  1  0.00000000  0.50000000  0.00000000  1
  Bi  Bi1  1  0.50000000  0.00000000  0.50000000  1
  O  O0  1  0.18542891  0.20384925  0.93695858  1
  O  O1  1  0.30978164  0.70750924  0.55433389  1
  O  O2  1  0.81457109  0.79615075  0.06304142  1
  O  O3  1  0.69021836  0.29249076  0.44566611  1
  O  O4  1  0.29487088  0.69600732  0.94949795  1
  O  O5  1  0.20380386  0.19152714  0.56384870  1
  O  O6  1  0.70512912  0.30399268  0.05050205  1
  O  O7  1  0.79619614  0.80847286  0.43615130  1
  O  O8  1  0.38005847  0.96629870  0.25857054  1
  O  O9  1  0.09799975  0.44124953  0.24205924  1
  O  O10  1  0.61994153  0.03370130  0.74142946  1
  O  O11  1  0.90200025  0.55875047  0.75794076  1
loop_
_geom_bond_atom_site_label_1
_geom_bond_atom_site_label_2
_geom_bond_distance
_geom_bond_site_symmetry_2
Ca0 O8 2.366272 1_645
Ca0 O2 2.408020 1_545
Ca0 O7 2.416833 1_545
Ca0 O9 2.460986 1_655
Ca0 O6 2.806391 1_555
Ca0 O3 2.812628 1_555
Ca0 O0 3.017666 1_654
Ca0 O5 3.073726 1_655
Ca1 O10 2.366272 1_465
Ca1 O0 2.408020 1_565
Ca1 O5 2.416833 1_565
Ca1 O11 2.460986 1_455
Ca1 O4 2.806391 1_555
Ca1 O1 2.812628 1_555
Ca1 O2 3.017666 1_456
Ca1 O7 3.073726 1_455
Bi0 O6 2.140912 1_455
Bi0 O4 2.140912 1_554
Bi0 O11 2.147903 1_454
Bi0 O9 2.147903 1_555
Bi0 O2 2.157167 1_455
Bi0 O0 2.157167 1_554
Bi1 O1 2.140498 1_545
Bi1 O3 2.140498 1_555
Bi1 O5 2.153147 1_555
Bi1 O7 2.153147 1_545
Bi1 O10 2.162487 1_555
Bi1 O8 2.162487 1_545
O0 Tb0 2.280848 1_556
O0 Sr1 2.799611 1_555
O1 Tb1 2.259013 1_555
O1 Sr1 2.498932 1_555
O1 Sr0 2.973239 1_555
O2 Tb0 2.280848 1_565
O2 Sr0 2.799611 1_555
O3 Tb1 2.259013 1_655
O3 Sr0 2.498932 1_555
O3 Sr1 2.973239 1_555
O4 Tb0 2.239434 1_566
O4 Sr1 2.512702 1_555
O4 Sr0 2.965841 1_556
O5 Tb1 2.276645 1_555
O5 Sr1 2.776035 1_555
O6 Tb0 2.239434 1_555
O6 Sr0 2.512702 1_555
O6 Sr1 2.965841 1_554
O7 Tb1 2.276645 1_655
O7 Sr0 2.776035 1_555
O8 Tb0 2.294656 1_565
O8 Sr0 2.625421 1_555
O9 Tb1 2.272235 1_555
O9 Sr0 2.517675 1_555
O10 Tb0 2.294656 1_556
O10 Sr1 2.625421 1_555
O11 Tb1 2.272235 1_655
O11 Sr1 2.517675 1_555
