# generated using pymatgen
data_Sr4CaMn2(GaO5)2
_symmetry_space_group_name_H-M   'P 1'
_cell_length_a   6.17947036
_cell_length_b   6.20431739
_cell_length_c   9.12460187
_cell_angle_alpha   73.33281836
_cell_angle_beta   74.00313437
_cell_angle_gamma   99.83725875
_symmetry_Int_Tables_number   1
_chemical_formula_structural   Sr4CaMn2(GaO5)2
_chemical_formula_sum   'Sr4 Ca1 Mn2 Ga2 O10'
_cell_volume   310.06890863
_cell_formula_units_Z   1
loop_
 _symmetry_equiv_pos_site_id
 _symmetry_equiv_pos_as_xyz
  1  'x, y, z'
loop_
 _atom_site_type_symbol
 _atom_site_label
 _atom_site_symmetry_multiplicity
 _atom_site_fract_x
 _atom_site_fract_y
 _atom_site_fract_z
 _atom_site_occupancy
  Sr  Sr0  1  0.03154500  0.68098100  0.78331400  1
  Sr  Sr1  1  0.93248000  0.35931600  0.20506900  1
  Sr  Sr2  1  0.69014000  0.03311100  0.78089000  1
  Sr  Sr3  1  0.36192400  0.93718000  0.20448300  1
  Ca  Ca0  1  0.37376200  0.36741100  0.75973300  1
  Mn  Mn0  1  0.48201200  0.48778000  0.04288500  1
  Mn  Mn1  1  0.97310700  0.97192600  0.04258900  1
  Ga  Ga0  1  0.69075300  0.69307800  0.47563200  1
  Ga  Ga1  1  0.33429400  0.33055300  0.47585800  1
  O  O0  1  0.23934100  0.24628000  0.01438700  1
  O  O1  1  0.25099200  0.75139700  0.00255300  1
  O  O2  1  0.74956500  0.25039300  0.99447600  1
  O  O3  1  0.75433700  0.74930800  0.99636000  1
  O  O4  1  0.68988000  0.69255900  0.67985500  1
  O  O5  1  0.30869900  0.29996700  0.29279700  1
  O  O6  1  0.13233300  0.12596900  0.68020200  1
  O  O7  1  0.89844500  0.90756000  0.29256500  1
  O  O8  1  0.35399700  0.63848900  0.50249900  1
  O  O9  1  0.64525000  0.35769500  0.50242300  1
loop_
_geom_bond_atom_site_label_1
_geom_bond_atom_site_label_2
_geom_bond_distance
_geom_bond_site_symmetry_2
Ca0 O0 2.091684 1_556
Ca0 O4 2.332819 1_555
Ca0 O6 2.335166 1_555
Ca0 O9 2.505057 1_555
Ca0 O8 2.513260 1_555
Mn0 O3 1.980667 1_554
Mn0 O0 2.057192 1_555
Mn0 O5 2.099542 1_555
Mn0 O1 2.364450 1_555
Mn0 O2 2.429108 1_554
Mn1 O3 1.980832 1_554
Mn1 O0 2.056396 1_665
Mn1 O7 2.099881 1_555
Mn1 O1 2.387052 1_655
Mn1 O2 2.408428 1_564
Ga0 O7 1.779883 1_555
Ga0 O4 1.861051 1_555
Ga0 O8 1.983840 1_555
Ga0 O9 1.984703 1_555
Ga1 O5 1.779974 1_555
Ga1 O6 1.861128 1_555
Ga1 O8 1.981738 1_555
Ga1 O9 1.987211 1_555
O0 Sr1 2.539823 1_455
O0 Sr3 2.563728 1_545
O1 Sr3 2.614934 1_555
O1 Sr1 2.643281 1_455
O1 Sr0 2.797453 1_554
O1 Sr2 2.799322 1_564
O2 Sr3 2.632427 1_546
O2 Sr1 2.666046 1_556
O2 Sr2 2.735453 1_555
O2 Sr0 2.737127 1_655
O3 Sr0 2.403854 1_655
O3 Sr2 2.409568 1_565
O3 Sr1 3.180497 1_556
O4 Sr2 2.535988 1_565
O4 Sr0 2.542722 1_655
O5 Sr3 2.640296 1_545
O5 Sr1 2.707465 1_455
O6 Sr2 2.533261 1_455
O6 Sr0 2.548497 1_545
O7 Sr1 2.638172 1_565
O7 Sr3 2.710948 1_655
O8 Sr3 2.799291 1_555
O8 Sr0 2.891075 1_555
O9 Sr1 2.799295 1_555
O9 Sr2 2.869283 1_555
