# generated using pymatgen
data_Li9Mn2Co5O16
_symmetry_space_group_name_H-M   'P 1'
_cell_length_a   3.02604200
_cell_length_b   5.06900242
_cell_length_c   19.14271146
_cell_angle_alpha   92.07325164
_cell_angle_beta   92.05637119
_cell_angle_gamma   91.07031389
_symmetry_Int_Tables_number   1
_chemical_formula_structural   Li9Mn2Co5O16
_chemical_formula_sum   'Li9 Mn2 Co5 O16'
_cell_volume   293.19046197
_cell_formula_units_Z   1
loop_
 _symmetry_equiv_pos_site_id
 _symmetry_equiv_pos_as_xyz
  1  'x, y, z'
loop_
 _atom_site_type_symbol
 _atom_site_label
 _atom_site_symmetry_multiplicity
 _atom_site_fract_x
 _atom_site_fract_y
 _atom_site_fract_z
 _atom_site_occupancy
  Li  Li0  1  0.00664500  0.62076000  0.87467900  1
  Li  Li1  1  0.49989900  0.75020900  0.74979700  1
  Li  Li2  1  0.99224300  0.87864000  0.62495800  1
  Li  Li3  1  0.49593300  0.00157700  0.50064500  1
  Li  Li4  1  0.99942700  0.12518500  0.37551000  1
  Li  Li5  1  0.49926700  0.24959200  0.25005900  1
  Li  Li6  1  0.00017100  0.37535100  0.12457900  1
  Li  Li7  1  0.50394300  0.49788400  0.99953900  1
  Li  Li8  1  0.00007500  0.24965900  0.74971300  1
  Mn  Mn0  1  0.99551000  0.00315700  0.99841600  1
  Mn  Mn1  1  0.50059800  0.62485000  0.37597500  1
  Co  Co0  1  0.51132700  0.12655100  0.86861700  1
  Co  Co1  1  0.49874100  0.37524700  0.63086500  1
  Co  Co2  1  0.99553700  0.49318400  0.50260900  1
  Co  Co3  1  0.00322900  0.75208600  0.24931400  1
  Co  Co4  1  0.49417900  0.87378500  0.12468100  1
  O  O0  1  0.52671800  0.84414000  0.93455500  1
  O  O1  1  0.03596000  0.94833800  0.81699000  1
  O  O2  1  0.50060600  0.09393700  0.68002600  1
  O  O3  1  0.03650000  0.20815600  0.56341100  1
  O  O4  1  0.48625400  0.33048400  0.43891300  1
  O  O5  1  0.03976200  0.45659200  0.31118700  1
  O  O6  1  0.49180800  0.58496500  0.18672900  1
  O  O7  1  0.98095600  0.70937000  0.06173900  1
  O  O8  1  0.50013700  0.40688600  0.81948700  1
  O  O9  1  0.97200200  0.55207800  0.68296100  1
  O  O10  1  0.50883400  0.65340600  0.56460200  1
  O  O11  1  0.96143600  0.79238100  0.44085600  1
  O  O12  1  0.51810900  0.91645700  0.31170800  1
  O  O13  1  0.00537900  0.04106800  0.18727500  1
  O  O14  1  0.46221000  0.17042500  0.06340000  1
  O  O15  1  0.97661200  0.29360400  0.93620300  1
loop_
_geom_bond_atom_site_label_1
_geom_bond_atom_site_label_2
_geom_bond_distance
_geom_bond_site_symmetry_2
Li0 O1 2.029494 1_555
Li0 O15 2.070949 1_455
Li0 O8 2.092755 1_455
Li0 O8 2.147659 1_555
Li0 O0 2.186934 1_555
Li0 O0 2.189061 1_455
Li1 O1 2.173209 1_555
Li1 O9 2.185933 1_555
Li1 O9 2.213102 1_455
Li1 O8 2.230768 1_555
Li1 O2 2.233406 1_565
Li1 O1 2.233917 1_655
Li2 O9 2.027520 1_555
Li2 O3 2.083591 1_665
Li2 O2 2.099137 1_665
Li2 O10 2.121109 1_555
Li2 O2 2.146047 1_565
Li2 O10 2.276605 1_655
Li3 O4 2.078188 1_555
Li3 O11 2.121874 1_545
Li3 O3 2.134530 1_555
Li3 O11 2.183046 1_445
Li3 O10 2.184203 1_545
Li3 O3 2.218073 1_655
Li4 O4 2.109331 1_655
Li4 O12 2.110394 1_545
Li4 O5 2.122711 1_655
Li4 O11 2.140010 1_545
Li4 O4 2.252054 1_555
Li4 O12 2.276125 1_645
Li5 O12 2.095351 1_545
Li5 O5 2.118050 1_555
Li5 O6 2.123396 1_555
Li5 O13 2.124969 1_555
Li5 O5 2.203410 1_655
Li5 O13 2.237839 1_655
Li6 O13 2.111566 1_555
Li6 O7 2.112623 1_455
Li6 O6 2.116640 1_555
Li6 O14 2.118764 1_555
Li6 O14 2.193767 1_455
Li6 O6 2.238706 1_455
Li7 O7 2.092132 1_556
Li7 O14 2.101355 1_556
Li7 O15 2.162631 1_555
Li7 O0 2.189167 1_555
Li7 O15 2.190239 1_455
Li7 O7 2.275470 1_456
Li8 O9 2.031946 1_455
Li8 O1 2.035145 1_545
Li8 O2 2.102748 1_455
Li8 O8 2.107571 1_555
Li8 O2 2.193219 1_555
Li8 O8 2.195650 1_455
Mn0 O15 1.927250 1_555
Mn0 O7 1.954747 1_546
Mn0 O0 1.979414 1_545
Mn0 O14 2.003422 1_656
Mn0 O0 2.201414 1_645
Mn0 O14 2.233730 1_556
Mn1 O4 1.952263 1_555
Mn1 O12 1.958210 1_555
Mn1 O11 1.990866 1_555
Mn1 O5 1.991268 1_555
Mn1 O11 2.246436 1_455
Mn1 O5 2.246808 1_655
Co0 O8 1.732384 1_555
Co0 O1 1.909665 1_545
Co0 O0 1.942607 1_545
Co0 O15 2.029475 1_555
Co0 O1 2.101117 1_645
Co0 O15 2.265221 1_455
Co1 O2 1.736673 1_555
Co1 O9 1.906249 1_555
Co1 O10 1.930946 1_555
Co1 O3 2.021939 1_555
Co1 O9 2.107458 1_455
Co1 O3 2.270664 1_655
Co2 O3 1.890911 1_655
Co2 O11 1.958325 1_555
Co2 O10 2.057029 1_655
Co2 O4 2.070466 1_555
Co2 O10 2.082637 1_555
Co2 O4 2.115384 1_655
Co3 O13 1.918927 1_565
Co3 O5 1.945200 1_555
Co3 O6 2.071834 1_455
Co3 O12 2.072257 1_555
Co3 O12 2.091724 1_455
Co3 O6 2.106959 1_555
Co4 O6 1.918401 1_555
Co4 O14 1.942015 1_565
Co4 O13 2.071753 1_665
Co4 O7 2.074353 1_455
Co4 O7 2.101584 1_555
Co4 O13 2.107871 1_565
