# generated using pymatgen
data_HfMg6Fe
_symmetry_space_group_name_H-M   'P 1'
_cell_length_a   4.97914500
_cell_length_b   5.89883400
_cell_length_c   11.21200600
_cell_angle_alpha   90.00000000
_cell_angle_beta   90.00000000
_cell_angle_gamma   90.00000000
_symmetry_Int_Tables_number   1
_chemical_formula_structural   HfMg6Fe
_chemical_formula_sum   'Hf2 Mg12 Fe2'
_cell_volume   329.30950797
_cell_formula_units_Z   2
loop_
 _symmetry_equiv_pos_site_id
 _symmetry_equiv_pos_as_xyz
  1  'x, y, z'
loop_
 _atom_site_type_symbol
 _atom_site_label
 _atom_site_symmetry_multiplicity
 _atom_site_fract_x
 _atom_site_fract_y
 _atom_site_fract_z
 _atom_site_occupancy
  Hf  Hf0  1  0.50000000  0.50000000  0.17696000  1
  Hf  Hf1  1  0.50000000  0.00000000  0.67696000  1
  Mg  Mg0  1  0.50000000  0.25162700  0.42541700  1
  Mg  Mg1  1  0.50000000  0.74837300  0.42541700  1
  Mg  Mg2  1  0.00000000  0.75453400  0.08358600  1
  Mg  Mg3  1  0.00000000  0.24546600  0.08358600  1
  Mg  Mg4  1  0.00000000  0.00000000  0.31146100  1
  Mg  Mg5  1  0.00000000  0.50000000  0.32955200  1
  Mg  Mg6  1  0.50000000  0.75162700  0.92541700  1
  Mg  Mg7  1  0.50000000  0.24837300  0.92541700  1
  Mg  Mg8  1  0.00000000  0.25453400  0.58358600  1
  Mg  Mg9  1  0.00000000  0.74546600  0.58358600  1
  Mg  Mg10  1  0.00000000  0.50000000  0.81146100  1
  Mg  Mg11  1  0.00000000  0.00000000  0.82955200  1
  Fe  Fe0  1  0.50000000  0.00000000  0.16401600  1
  Fe  Fe1  1  0.50000000  0.50000000  0.66401600  1
loop_
_geom_bond_atom_site_label_1
_geom_bond_atom_site_label_2
_geom_bond_distance
_geom_bond_site_symmetry_2
Hf0 Mg5 3.020765 1_555
Hf0 Mg5 3.020765 1_655
Hf0 Mg3 3.090041 1_655
Hf0 Mg2 3.090041 1_655
Hf0 Mg3 3.090041 1_555
Hf0 Mg2 3.090041 1_555
Hf0 Mg1 3.147488 1_555
Hf0 Mg0 3.147488 1_555
Hf0 Mg7 3.187046 1_554
Hf0 Mg6 3.187046 1_554
Hf1 Mg11 3.020765 1_655
Hf1 Mg11 3.020765 1_555
Hf1 Mg8 3.090041 1_555
Hf1 Mg8 3.090041 1_655
Hf1 Mg9 3.090041 1_645
Hf1 Mg9 3.090041 1_545
Hf1 Mg6 3.147488 1_545
Hf1 Mg7 3.147488 1_555
Hf1 Mg0 3.187046 1_555
Hf1 Mg1 3.187046 1_545
Mg0 Mg1 2.930222 1_555
Mg0 Mg1 2.968612 1_545
Mg0 Mg8 3.056662 1_555
Mg0 Mg8 3.056662 1_655
Mg0 Mg5 3.082175 1_655
Mg0 Mg5 3.082175 1_555
Mg0 Mg4 3.167584 1_655
Mg0 Mg4 3.167584 1_555
Mg1 Mg9 3.056662 1_555
Mg1 Mg9 3.056662 1_655
Mg1 Mg5 3.082175 1_655
Mg1 Mg5 3.082175 1_555
Mg1 Mg4 3.167584 1_665
Mg1 Mg4 3.167584 1_565
Mg2 Mg3 2.895926 1_565
Mg2 Mg4 2.936715 1_565
Mg2 Mg3 3.002908 1_555
Mg2 Mg6 3.056662 1_454
Mg2 Mg6 3.056662 1_554
Mg2 Mg5 3.140011 1_555
Mg3 Mg4 2.936715 1_555
Mg3 Mg7 3.056662 1_554
Mg3 Mg7 3.056662 1_454
Mg3 Mg5 3.140011 1_555
Mg4 Mg5 2.956383 1_555
Mg4 Mg5 2.956383 1_545
Mg4 Mg8 3.400496 1_555
Mg4 Mg9 3.400496 1_545
Mg5 Mg9 3.195155 1_555
Mg5 Mg8 3.195155 1_555
Mg6 Mg7 2.930222 1_565
Mg6 Mg7 2.968612 1_555
Mg8 Mg9 2.895926 1_555
Mg8 Mg9 3.002908 1_545
Mg10 Mg8 2.936715 1_555
Mg10 Mg9 2.936715 1_555
Mg10 Mg11 2.956383 1_555
Mg10 Mg11 2.956383 1_565
Mg10 Mg6 3.167584 1_455
Mg10 Mg6 3.167584 1_555
Mg10 Mg7 3.167584 1_455
Mg10 Mg7 3.167584 1_555
Mg10 Mg2 3.400496 1_556
Mg10 Mg3 3.400496 1_556
Mg11 Mg6 3.082175 1_545
Mg11 Mg7 3.082175 1_555
Mg11 Mg7 3.082175 1_455
Mg11 Mg6 3.082175 1_445
Mg11 Mg8 3.140011 1_555
Mg11 Mg9 3.140011 1_545
Mg11 Mg3 3.195155 1_556
Mg11 Mg2 3.195155 1_546
Fe0 Hf0 2.952985 1_545
Fe0 Hf0 2.952985 1_555
Fe0 Mg4 2.988459 1_655
Fe0 Mg4 2.988459 1_555
Fe0 Mg2 3.017910 1_545
Fe0 Mg3 3.017910 1_655
Fe0 Mg3 3.017910 1_555
Fe0 Mg2 3.017910 1_645
Fe0 Mg6 3.050099 1_544
Fe0 Mg7 3.050099 1_554
Fe0 Mg0 3.285259 1_555
Fe0 Mg1 3.285259 1_545
Fe1 Hf1 2.952985 1_565
Fe1 Hf1 2.952985 1_555
Fe1 Mg10 2.988459 1_555
Fe1 Mg10 2.988459 1_655
Fe1 Mg9 3.017910 1_555
Fe1 Mg9 3.017910 1_655
Fe1 Mg8 3.017910 1_555
Fe1 Mg8 3.017910 1_655
Fe1 Mg1 3.050099 1_555
Fe1 Mg0 3.050099 1_555
Fe1 Mg7 3.285259 1_555
Fe1 Mg6 3.285259 1_555
