# generated using pymatgen
data_MgFe3Co5O16
_symmetry_space_group_name_H-M   'P 1'
_cell_length_a   5.81814217
_cell_length_b   5.83481220
_cell_length_c   8.75630586
_cell_angle_alpha   90.05102727
_cell_angle_beta   91.81927990
_cell_angle_gamma   119.84368156
_symmetry_Int_Tables_number   1
_chemical_formula_structural   MgFe3Co5O16
_chemical_formula_sum   'Mg1 Fe3 Co5 O16'
_cell_volume   257.65895875
_cell_formula_units_Z   1
loop_
 _symmetry_equiv_pos_site_id
 _symmetry_equiv_pos_as_xyz
  1  'x, y, z'
loop_
 _atom_site_type_symbol
 _atom_site_label
 _atom_site_symmetry_multiplicity
 _atom_site_fract_x
 _atom_site_fract_y
 _atom_site_fract_z
 _atom_site_occupancy
  Mg  Mg0  1  0.64924300  0.33371600  0.37560100  1
  Fe  Fe0  1  0.65546700  0.83700500  0.20487900  1
  Fe  Fe1  1  0.83748700  0.67816700  0.71960700  1
  Fe  Fe2  1  0.83582800  0.17407400  0.71947900  1
  Co  Co0  1  0.15499500  0.83250800  0.21182400  1
  Co  Co1  1  0.33269900  0.67530600  0.49808000  1
  Co  Co2  1  0.15508800  0.33812400  0.21026200  1
  Co  Co3  1  0.33931700  0.17882900  0.71069000  1
  Co  Co4  1  0.66661000  0.34357500  0.98799100  1
  O  O0  1  0.18360000  0.84227600  0.60707600  1
  O  O1  1  0.03646400  0.52702000  0.34290200  1
  O  O2  1  0.30076600  0.66163500  0.10408700  1
  O  O3  1  0.00464200  0.01049000  0.31761500  1
  O  O4  1  0.02275000  0.01965000  0.81955600  1
  O  O5  1  0.18296600  0.35724500  0.60643800  1
  O  O6  1  0.45526700  0.95259200  0.35019000  1
  O  O7  1  0.45600500  0.52347100  0.34940800  1
  O  O8  1  0.32632500  0.17601400  0.12118200  1
  O  O9  1  0.65330700  0.83476800  0.60336800  1
  O  O10  1  0.50887600  0.46933100  0.85015000  1
  O  O11  1  0.50898400  0.05843500  0.85151000  1
  O  O12  1  0.66183400  0.33916100  0.60129700  1
  O  O13  1  0.82196600  0.65772400  0.10888100  1
  O  O14  1  0.94830000  0.48090800  0.86221000  1
  O  O15  1  0.82204800  0.18775700  0.11268600  1
loop_
_geom_bond_atom_site_label_1
_geom_bond_atom_site_label_2
_geom_bond_distance
_geom_bond_site_symmetry_2
Mg0 O6 1.937460 1_545
Mg0 O7 1.940481 1_555
Mg0 O12 1.974936 1_555
Mg0 O1 1.985504 1_655
Fe0 O13 1.948833 1_555
Fe0 O15 1.964168 1_565
Fe0 O2 1.966183 1_555
Fe0 O3 1.987583 1_665
Fe0 O7 2.068691 1_555
Fe0 O6 2.074848 1_555
Fe1 O4 1.922830 1_665
Fe1 O9 1.981439 1_555
Fe1 O12 1.986820 1_555
Fe1 O14 1.997395 1_555
Fe1 O0 2.037521 1_655
Fe1 O10 2.066243 1_555
Fe2 O4 1.917990 1_655
Fe2 O9 1.978976 1_545
Fe2 O12 1.982248 1_555
Fe2 O14 1.993370 1_555
Fe2 O5 2.044904 1_655
Fe2 O11 2.066876 1_555
Co0 O2 1.869226 1_555
Co0 O13 1.878214 1_455
Co0 O3 1.911985 1_565
Co0 O6 1.912261 1_555
Co0 O8 1.924936 1_565
Co0 O1 1.949512 1_555
Co1 O9 1.832234 1_555
Co1 O0 1.872056 1_555
Co1 O5 1.884093 1_555
Co1 O7 1.919399 1_555
Co1 O6 1.928000 1_555
Co1 O1 1.982551 1_555
Co2 O15 1.859005 1_455
Co2 O8 1.865910 1_555
Co2 O2 1.899126 1_555
Co2 O3 1.922075 1_555
Co2 O7 1.922774 1_555
Co2 O1 1.961062 1_555
Co3 O4 1.890550 1_555
Co3 O10 1.895548 1_555
Co3 O11 1.898105 1_555
Co3 O5 1.906838 1_555
Co3 O0 1.916798 1_545
Co3 O12 1.918948 1_555
Co4 O14 1.830377 1_555
Co4 O10 1.854417 1_555
Co4 O11 1.856221 1_555
Co4 O13 1.893207 1_556
Co4 O15 1.895793 1_556
Co4 O8 2.111372 1_556
