# generated using pymatgen
data_BaMg14VO16
_symmetry_space_group_name_H-M   'P 1'
_cell_length_a   8.71481495
_cell_length_b   8.83530748
_cell_length_c   4.49734807
_cell_angle_alpha   90.00000000
_cell_angle_beta   90.00000000
_cell_angle_gamma   90.00000000
_symmetry_Int_Tables_number   1
_chemical_formula_structural   BaMg14VO16
_chemical_formula_sum   'Ba1 Mg14 V1 O16'
_cell_volume   346.28712022
_cell_formula_units_Z   1
loop_
 _symmetry_equiv_pos_site_id
 _symmetry_equiv_pos_as_xyz
  1  'x, y, z'
loop_
 _atom_site_type_symbol
 _atom_site_label
 _atom_site_symmetry_multiplicity
 _atom_site_fract_x
 _atom_site_fract_y
 _atom_site_fract_z
 _atom_site_occupancy
  Ba  Ba0  1  -0.00000000  0.50000000  -0.00000000  1
  Mg  Mg0  1  0.50000000  0.00000000  -0.00000000  1
  Mg  Mg1  1  0.50000000  0.50000000  -0.00000000  1
  Mg  Mg2  1  -0.00000000  0.23738507  0.50000000  1
  Mg  Mg3  1  -0.00000000  0.76261493  0.50000000  1
  Mg  Mg4  1  0.50000000  0.24706005  0.50000000  1
  Mg  Mg5  1  0.50000000  0.75293995  0.50000000  1
  Mg  Mg6  1  0.25251463  0.00000000  0.50000000  1
  Mg  Mg7  1  0.26414025  0.50000000  0.50000000  1
  Mg  Mg8  1  0.74748537  0.00000000  0.50000000  1
  Mg  Mg9  1  0.73585975  0.50000000  0.50000000  1
  Mg  Mg10  1  0.25823309  0.24188523  -0.00000000  1
  Mg  Mg11  1  0.25823309  0.75811477  -0.00000000  1
  Mg  Mg12  1  0.74176691  0.24188523  -0.00000000  1
  Mg  Mg13  1  0.74176691  0.75811477  0.00000000  1
  V  V0  1  -0.00000000  0.00000000  -0.00000000  1
  O  O0  1  0.25833699  0.00000000  -0.00000000  1
  O  O1  1  0.28147993  0.50000000  -0.00000000  1
  O  O2  1  0.74166301  0.00000000  -0.00000000  1
  O  O3  1  0.71852007  0.50000000  -0.00000000  1
  O  O4  1  0.25043750  0.24877574  0.50000000  1
  O  O5  1  0.25043750  0.75122426  0.50000000  1
  O  O6  1  0.74956250  0.24877574  0.50000000  1
  O  O7  1  0.74956250  0.75122426  0.50000000  1
  O  O8  1  -0.00000000  0.00000000  0.50000000  1
  O  O9  1  -0.00000000  0.50000000  0.50000000  1
  O  O10  1  0.50000000  0.00000000  0.50000000  1
  O  O11  1  0.50000000  0.50000000  0.50000000  1
  O  O12  1  -0.00000000  0.22640228  0.00000000  1
  O  O13  1  -0.00000000  0.77359772  -0.00000000  1
  O  O14  1  0.50000000  0.24168295  -0.00000000  1
  O  O15  1  0.50000000  0.75831705  0.00000000  1
loop_
_geom_bond_atom_site_label_1
_geom_bond_atom_site_label_2
_geom_bond_distance
_geom_bond_site_symmetry_2
Ba0 O9 2.248674 1_554
Ba0 O9 2.248674 1_555
Ba0 O12 2.417320 1_555
Ba0 O13 2.417320 1_555
Ba0 O1 2.453046 1_555
Ba0 O3 2.453046 1_455
Mg0 O0 2.106048 1_555
Mg0 O2 2.106048 1_555
Mg0 O15 2.135343 1_545
Mg0 O14 2.135343 1_555
Mg0 O10 2.248674 1_555
Mg0 O10 2.248674 1_554
Mg1 O3 1.904362 1_555
Mg1 O1 1.904362 1_555
Mg1 O11 2.248674 1_554
Mg1 O11 2.248674 1_555
Mg1 O14 2.282311 1_555
Mg1 O15 2.282311 1_555
Mg2 O8 2.097370 1_555
Mg2 O6 2.184836 1_455
Mg2 O4 2.184836 1_555
Mg2 O12 2.250767 1_556
Mg2 O12 2.250767 1_555
Mg2 O9 2.320284 1_555
Mg3 O8 2.097370 1_565
Mg3 O5 2.184836 1_555
Mg3 O7 2.184836 1_455
Mg3 O13 2.250767 1_555
Mg3 O13 2.250767 1_556
Mg3 O9 2.320284 1_555
Mg4 O4 2.174944 1_555
Mg4 O6 2.174944 1_555
Mg4 O10 2.182852 1_555
Mg4 O11 2.234802 1_555
Mg4 O14 2.249176 1_556
Mg4 O14 2.249176 1_555
Mg5 O5 2.174944 1_555
Mg5 O7 2.174944 1_555
Mg5 O10 2.182852 1_565
Mg5 O11 2.234802 1_555
Mg5 O15 2.249176 1_556
Mg5 O15 2.249176 1_555
Mg6 O10 2.156789 1_555
Mg6 O4 2.198085 1_555
Mg6 O5 2.198085 1_545
Mg6 O8 2.200618 1_555
Mg6 O0 2.249246 1_555
Mg6 O0 2.249246 1_556
Mg7 O11 2.055474 1_555
Mg7 O4 2.222854 1_555
Mg7 O5 2.222854 1_555
Mg7 O1 2.253746 1_556
Mg7 O1 2.253746 1_555
Mg7 O9 2.301933 1_555
Mg8 O10 2.156789 1_555
Mg8 O6 2.198085 1_555
Mg8 O7 2.198085 1_545
Mg8 O8 2.200618 1_655
Mg8 O2 2.249246 1_556
Mg8 O2 2.249246 1_555
Mg9 O11 2.055474 1_555
Mg9 O6 2.222854 1_555
Mg9 O7 2.222854 1_555
Mg9 O3 2.253746 1_556
Mg9 O3 2.253746 1_555
Mg9 O9 2.301933 1_655
Mg10 O14 2.106955 1_555
Mg10 O0 2.137131 1_555
Mg10 O4 2.250524 1_554
Mg10 O4 2.250524 1_555
Mg10 O12 2.254607 1_555
Mg10 O1 2.289504 1_555
Mg11 O15 2.106955 1_555
Mg11 O0 2.137131 1_565
Mg11 O5 2.250524 1_554
Mg11 O5 2.250524 1_555
Mg11 O13 2.254607 1_555
Mg11 O1 2.289504 1_555
Mg12 O14 2.106955 1_555
Mg12 O2 2.137131 1_555
Mg12 O6 2.250524 1_554
Mg12 O6 2.250524 1_555
Mg12 O12 2.254607 1_655
Mg12 O3 2.289504 1_555
Mg13 O15 2.106955 1_555
Mg13 O2 2.137131 1_565
Mg13 O7 2.250524 1_555
Mg13 O7 2.250524 1_554
Mg13 O13 2.254607 1_655
Mg13 O3 2.289504 1_555
O0 V0 2.251359 1_555
O2 V0 2.251359 1_655
O8 V0 2.248674 1_555
O8 V0 2.248674 1_556
O12 V0 2.000334 1_555
O13 V0 2.000334 1_565
