# generated using pymatgen
data_Ag2S(NO)4
_symmetry_space_group_name_H-M   'P 1'
_cell_length_a   8.25530400
_cell_length_b   6.35720800
_cell_length_c   6.35720800
_cell_angle_alpha   90.00000000
_cell_angle_beta   90.00000000
_cell_angle_gamma   90.00000000
_symmetry_Int_Tables_number   1
_chemical_formula_structural   Ag2S(NO)4
_chemical_formula_sum   'Ag4 S2 N8 O8'
_cell_volume   333.63062818
_cell_formula_units_Z   2
loop_
 _symmetry_equiv_pos_site_id
 _symmetry_equiv_pos_as_xyz
  1  'x, y, z'
loop_
 _atom_site_type_symbol
 _atom_site_label
 _atom_site_symmetry_multiplicity
 _atom_site_fract_x
 _atom_site_fract_y
 _atom_site_fract_z
 _atom_site_occupancy
  Ag  Ag0  1  0.95563700  0.00000000  0.50000000  1
  Ag  Ag1  1  0.54436300  0.50000000  0.00000000  1
  Ag  Ag2  1  0.04436300  0.50000000  0.00000000  1
  Ag  Ag3  1  0.45563700  0.00000000  0.50000000  1
  S  S0  1  0.50000000  0.50000000  0.50000000  1
  S  S1  1  0.00000000  0.00000000  0.00000000  1
  N  N0  1  0.00811400  0.65218200  0.50430000  1
  N  N1  1  0.49188600  0.15218200  0.99570000  1
  N  N2  1  0.00811400  0.34781800  0.49570000  1
  N  N3  1  0.49188600  0.84781800  0.00430000  1
  N  N4  1  0.99188600  0.50430000  0.34781800  1
  N  N5  1  0.50811400  0.99570000  0.84781800  1
  N  N6  1  0.99188600  0.49570000  0.65218200  1
  N  N7  1  0.50811400  0.00430000  0.15218200  1
  O  O0  1  0.61130500  0.54956800  0.67835600  1
  O  O1  1  0.88869500  0.04956800  0.82164400  1
  O  O2  1  0.61130500  0.45043200  0.32164400  1
  O  O3  1  0.88869500  0.95043200  0.17835600  1
  O  O4  1  0.38869500  0.67835600  0.45043200  1
  O  O5  1  0.11130500  0.82164400  0.95043200  1
  O  O6  1  0.38869500  0.32164400  0.54956800  1
  O  O7  1  0.11130500  0.17835600  0.04956800  1
loop_
_geom_bond_atom_site_label_1
_geom_bond_atom_site_label_2
_geom_bond_distance
_geom_bond_site_symmetry_2
Ag0 O1 2.141431 1_555
Ag0 O3 2.141431 1_545
Ag0 N0 2.253356 1_645
Ag0 N2 2.253356 1_655
Ag1 O2 2.141431 1_555
Ag1 O0 2.141431 1_554
Ag1 N3 2.253356 1_555
Ag1 N1 2.253356 1_554
Ag2 O5 2.141431 1_554
Ag2 O7 2.141431 1_555
Ag2 N6 2.253356 1_454
Ag2 N4 2.253356 1_455
Ag3 O6 2.141431 1_555
Ag3 O4 2.141431 1_545
Ag3 N7 2.253356 1_555
Ag3 N5 2.253356 1_545
N0 N4 1.375271 1_455
N0 N6 1.375271 1_455
N1 N5 1.375271 1_545
N1 N7 1.375271 1_556
N2 N4 1.375271 1_455
N2 N6 1.375271 1_455
N3 N7 1.375271 1_565
N3 N5 1.375271 1_554
O0 S0 1.493051 1_555
O1 S1 1.493051 1_656
O2 S0 1.493051 1_555
O3 S1 1.493051 1_665
O4 S0 1.493051 1_555
O5 S1 1.493051 1_566
O6 S0 1.493051 1_555
O7 S1 1.493051 1_555
