# generated using pymatgen
data_LiLu2W2(ClO4)2
_symmetry_space_group_name_H-M   'P 1'
_cell_length_a   6.00113946
_cell_length_b   6.90602003
_cell_length_c   6.71327492
_cell_angle_alpha   69.86627938
_cell_angle_beta   75.17443060
_cell_angle_gamma   68.26446465
_symmetry_Int_Tables_number   1
_chemical_formula_structural   LiLu2W2(ClO4)2
_chemical_formula_sum   'Li1 Lu2 W2 Cl2 O8'
_cell_volume   240.00648297
_cell_formula_units_Z   1
loop_
 _symmetry_equiv_pos_site_id
 _symmetry_equiv_pos_as_xyz
  1  'x, y, z'
loop_
 _atom_site_type_symbol
 _atom_site_label
 _atom_site_symmetry_multiplicity
 _atom_site_fract_x
 _atom_site_fract_y
 _atom_site_fract_z
 _atom_site_occupancy
  Li  Li0  1  0.80767900  0.28896600  0.41740100  1
  Lu  Lu0  1  0.27463200  0.21072200  0.83969200  1
  Lu  Lu1  1  0.72986800  0.80507800  0.15453100  1
  W  W0  1  0.36623100  0.37409000  0.23110400  1
  W  W1  1  0.61830200  0.63584700  0.78160700  1
  Cl  Cl0  1  0.98951000  0.00165600  0.23602000  1
  Cl  Cl1  1  0.01635300  0.01107100  0.74690100  1
  O  O0  1  0.43800200  0.28878800  0.51746200  1
  O  O1  1  0.60339400  0.71886600  0.49742300  1
  O  O2  1  0.39227300  0.48137000  0.87793900  1
  O  O3  1  0.60253900  0.53234300  0.14061700  1
  O  O4  1  0.93303500  0.47683700  0.78741400  1
  O  O5  1  0.03187200  0.48974300  0.26378500  1
  O  O6  1  0.44935700  0.11340400  0.14047400  1
  O  O7  1  0.55945400  0.89122100  0.84911100  1
loop_
_geom_bond_atom_site_label_1
_geom_bond_atom_site_label_2
_geom_bond_distance
_geom_bond_site_symmetry_2
Li0 O5 2.117419 1_655
Li0 O0 2.147491 1_555
Li0 O3 2.298103 1_555
Lu0 O0 2.105855 1_555
Lu0 O4 2.199289 1_455
Lu0 O7 2.227122 1_545
Lu0 O6 2.292547 1_556
Lu0 O2 2.336309 1_555
Lu1 O6 2.159814 1_565
Lu1 O1 2.174051 1_555
Lu1 O5 2.285289 1_655
Lu1 O3 2.315994 1_555
Lu1 O7 2.320893 1_554
Cl0 Li0 2.447456 1_555
Cl0 Lu1 2.661630 1_545
Cl0 Lu0 2.991118 1_654
Cl1 Li0 2.619061 1_455
Cl1 Lu0 2.712884 1_555
Cl1 Lu1 3.031816 1_446
O0 W0 1.919465 1_555
O1 W1 1.809085 1_555
O2 W1 1.882587 1_555
O2 W0 2.209378 1_556
O3 W0 1.955632 1_555
O3 W1 2.253007 1_554
O4 W1 1.801900 1_555
O5 W0 1.849490 1_555
O6 W0 1.947743 1_555
O7 W1 1.856728 1_555
