# generated using pymatgen
data_HfMg30BO32
_symmetry_space_group_name_H-M   'P 1'
_cell_length_a   8.60149200
_cell_length_b   8.60149200
_cell_length_c   8.58957300
_cell_angle_alpha   90.00000000
_cell_angle_beta   90.00000000
_cell_angle_gamma   90.00000000
_symmetry_Int_Tables_number   1
_chemical_formula_structural   HfMg30BO32
_chemical_formula_sum   'Hf1 Mg30 B1 O32'
_cell_volume   635.50526726
_cell_formula_units_Z   1
loop_
 _symmetry_equiv_pos_site_id
 _symmetry_equiv_pos_as_xyz
  1  'x, y, z'
loop_
 _atom_site_type_symbol
 _atom_site_label
 _atom_site_symmetry_multiplicity
 _atom_site_fract_x
 _atom_site_fract_y
 _atom_site_fract_z
 _atom_site_occupancy
  Hf  Hf0  1  0.50000000  0.50000000  0.00000000  1
  Mg  Mg0  1  0.50000000  0.00000000  0.00000000  1
  Mg  Mg1  1  0.00000000  0.50000000  0.00000000  1
  Mg  Mg2  1  0.00000000  0.00000000  0.50000000  1
  Mg  Mg3  1  0.50000000  0.00000000  0.50000000  1
  Mg  Mg4  1  0.00000000  0.50000000  0.50000000  1
  Mg  Mg5  1  0.50000000  0.50000000  0.50000000  1
  Mg  Mg6  1  0.23929900  0.23929900  0.00000000  1
  Mg  Mg7  1  0.76070100  0.23929900  0.00000000  1
  Mg  Mg8  1  0.23929900  0.76070100  0.00000000  1
  Mg  Mg9  1  0.76070100  0.76070100  0.00000000  1
  Mg  Mg10  1  0.24761400  0.24761400  0.50000000  1
  Mg  Mg11  1  0.75238600  0.24761400  0.50000000  1
  Mg  Mg12  1  0.24761400  0.75238600  0.50000000  1
  Mg  Mg13  1  0.75238600  0.75238600  0.50000000  1
  Mg  Mg14  1  0.24582500  0.00000000  0.24881800  1
  Mg  Mg15  1  0.75417500  0.00000000  0.24881800  1
  Mg  Mg16  1  0.24253300  0.50000000  0.25577900  1
  Mg  Mg17  1  0.75746700  0.50000000  0.25577900  1
  Mg  Mg18  1  0.24582500  0.00000000  0.75118200  1
  Mg  Mg19  1  0.75417500  0.00000000  0.75118200  1
  Mg  Mg20  1  0.24253300  0.50000000  0.74422100  1
  Mg  Mg21  1  0.75746700  0.50000000  0.74422100  1
  Mg  Mg22  1  0.00000000  0.24582500  0.24881800  1
  Mg  Mg23  1  0.50000000  0.24253300  0.25577900  1
  Mg  Mg24  1  0.00000000  0.75417500  0.24881800  1
  Mg  Mg25  1  0.50000000  0.75746700  0.25577900  1
  Mg  Mg26  1  0.00000000  0.24582500  0.75118200  1
  Mg  Mg27  1  0.50000000  0.24253300  0.74422100  1
  Mg  Mg28  1  0.00000000  0.75417500  0.75118200  1
  Mg  Mg29  1  0.50000000  0.75746700  0.74422100  1
  B  B0  1  0.00000000  0.00000000  0.00000000  1
  O  O0  1  0.00000000  0.00000000  0.26575800  1
  O  O1  1  0.50000000  0.00000000  0.25163800  1
  O  O2  1  0.00000000  0.50000000  0.25163800  1
  O  O3  1  0.50000000  0.50000000  0.24612100  1
  O  O4  1  0.00000000  0.00000000  0.73424200  1
  O  O5  1  0.50000000  0.00000000  0.74836200  1
  O  O6  1  0.00000000  0.50000000  0.74836200  1
  O  O7  1  0.50000000  0.50000000  0.75387900  1
  O  O8  1  0.25050300  0.25050300  0.24851600  1
  O  O9  1  0.74949700  0.25050300  0.24851600  1
  O  O10  1  0.25050300  0.74949700  0.24851600  1
  O  O11  1  0.74949700  0.74949700  0.24851600  1
  O  O12  1  0.25050300  0.25050300  0.75148400  1
  O  O13  1  0.74949700  0.25050300  0.75148400  1
  O  O14  1  0.25050300  0.74949700  0.75148400  1
  O  O15  1  0.74949700  0.74949700  0.75148400  1
  O  O16  1  0.26862100  0.00000000  0.00000000  1
  O  O17  1  0.73137900  0.00000000  0.00000000  1
  O  O18  1  0.25653400  0.50000000  0.00000000  1
  O  O19  1  0.74346600  0.50000000  0.00000000  1
  O  O20  1  0.25295100  0.00000000  0.50000000  1
  O  O21  1  0.74704900  0.00000000  0.50000000  1
  O  O22  1  0.25213700  0.50000000  0.50000000  1
  O  O23  1  0.74786300  0.50000000  0.50000000  1
  O  O24  1  0.00000000  0.26862100  0.00000000  1
  O  O25  1  0.50000000  0.25653400  0.00000000  1
  O  O26  1  0.00000000  0.73137900  0.00000000  1
  O  O27  1  0.50000000  0.74346600  0.00000000  1
  O  O28  1  0.00000000  0.25295100  0.50000000  1
  O  O29  1  0.50000000  0.25213700  0.50000000  1
  O  O30  1  0.00000000  0.74704900  0.50000000  1
  O  O31  1  0.50000000  0.74786300  0.50000000  1
loop_
_geom_bond_atom_site_label_1
_geom_bond_atom_site_label_2
_geom_bond_distance
_geom_bond_site_symmetry_2
Hf0 O19 2.094171 1_555
Hf0 O27 2.094171 1_555
Hf0 O25 2.094171 1_555
Hf0 O18 2.094171 1_555
Hf0 O3 2.114074 1_555
Hf0 O7 2.114074 1_554
Mg0 O16 1.990205 1_555
Mg0 O17 1.990205 1_555
Mg0 O1 2.161463 1_555
Mg0 O5 2.161463 1_554
Mg0 O25 2.206575 1_555
Mg0 O27 2.206575 1_545
Mg1 O24 1.990205 1_555
Mg1 O26 1.990205 1_555
Mg1 O2 2.161463 1_555
Mg1 O6 2.161463 1_554
Mg1 O18 2.206575 1_555
Mg1 O19 2.206575 1_455
Mg2 O4 2.012039 1_555
Mg2 O0 2.012039 1_555
Mg2 O20 2.175756 1_555
Mg2 O28 2.175756 1_555
Mg2 O21 2.175756 1_455
Mg2 O30 2.175756 1_545
Mg3 O21 2.124990 1_555
Mg3 O20 2.124990 1_555
Mg3 O5 2.133324 1_555
Mg3 O1 2.133324 1_555
Mg3 O29 2.168754 1_555
Mg3 O31 2.168754 1_545
Mg4 O30 2.124990 1_555
Mg4 O28 2.124990 1_555
Mg4 O6 2.133324 1_555
Mg4 O2 2.133324 1_555
Mg4 O22 2.168754 1_555
Mg4 O23 2.168754 1_455
Mg5 O31 2.131992 1_555
Mg5 O23 2.131992 1_555
Mg5 O22 2.131992 1_555
Mg5 O29 2.131992 1_555
Mg5 O7 2.180712 1_555
Mg5 O3 2.180712 1_555
Mg6 O24 2.073723 1_555
Mg6 O16 2.073723 1_555
Mg6 O8 2.138993 1_555
Mg6 O12 2.138993 1_554
Mg6 O25 2.247313 1_555
Mg6 O18 2.247313 1_555
Mg7 O17 2.073723 1_555
Mg7 O24 2.073723 1_655
Mg7 O9 2.138993 1_555
Mg7 O13 2.138993 1_554
Mg7 O25 2.247313 1_555
Mg7 O19 2.247313 1_555
Mg8 O26 2.073723 1_555
Mg8 O16 2.073723 1_565
Mg8 O10 2.138993 1_555
Mg8 O14 2.138993 1_554
Mg8 O18 2.247313 1_555
Mg8 O27 2.247313 1_555
Mg9 O17 2.073723 1_565
Mg9 O26 2.073723 1_655
Mg9 O11 2.138993 1_555
Mg9 O15 2.138993 1_554
Mg9 O19 2.247313 1_555
Mg9 O27 2.247313 1_555
Mg10 O20 2.130345 1_555
Mg10 O28 2.130345 1_555
Mg10 O12 2.160426 1_555
Mg10 O8 2.160426 1_555
Mg10 O22 2.171245 1_555
Mg10 O29 2.171245 1_555
Mg11 O28 2.130345 1_655
Mg11 O21 2.130345 1_555
Mg11 O13 2.160426 1_555
Mg11 O9 2.160426 1_555
Mg11 O23 2.171245 1_555
Mg11 O29 2.171245 1_555
Mg12 O30 2.130345 1_555
Mg12 O20 2.130345 1_565
Mg12 O14 2.160426 1_555
Mg12 O10 2.160426 1_555
Mg12 O31 2.171245 1_555
Mg12 O22 2.171245 1_555
Mg13 O21 2.130345 1_565
Mg13 O30 2.130345 1_655
Mg13 O15 2.160426 1_555
Mg13 O11 2.160426 1_555
Mg13 O31 2.171245 1_555
Mg13 O23 2.171245 1_555
Mg14 O0 2.119462 1_555
Mg14 O16 2.146216 1_555
Mg14 O8 2.155077 1_555
Mg14 O10 2.155077 1_545
Mg14 O20 2.158417 1_555
Mg14 O1 2.186418 1_555
Mg15 O0 2.119462 1_655
Mg15 O17 2.146216 1_555
Mg15 O9 2.155077 1_555
Mg15 O11 2.155077 1_545
Mg15 O21 2.158417 1_555
Mg15 O1 2.186418 1_555
Mg16 O2 2.086449 1_555
Mg16 O22 2.099380 1_555
Mg16 O10 2.148047 1_555
Mg16 O8 2.148047 1_555
Mg16 O18 2.200331 1_555
Mg16 O3 2.216154 1_555
Mg17 O2 2.086449 1_655
Mg17 O23 2.099380 1_555
Mg17 O11 2.148047 1_555
Mg17 O9 2.148047 1_555
Mg17 O19 2.200331 1_555
Mg17 O3 2.216154 1_555
Mg18 O4 2.119462 1_555
Mg18 O16 2.146216 1_556
Mg18 O12 2.155077 1_555
Mg18 O14 2.155077 1_545
Mg18 O20 2.158417 1_555
Mg18 O5 2.186418 1_555
Mg19 O4 2.119462 1_655
Mg19 O17 2.146216 1_556
Mg19 O13 2.155077 1_555
Mg19 O15 2.155077 1_545
Mg19 O21 2.158417 1_555
Mg19 O5 2.186418 1_555
Mg20 O6 2.086449 1_555
Mg20 O22 2.099380 1_555
Mg20 O12 2.148047 1_555
Mg20 O14 2.148047 1_555
Mg20 O18 2.200331 1_556
Mg20 O7 2.216154 1_555
Mg21 O6 2.086449 1_655
Mg21 O23 2.099380 1_555
Mg21 O15 2.148047 1_555
Mg21 O13 2.148047 1_555
Mg21 O19 2.200331 1_556
Mg21 O7 2.216154 1_555
Mg22 O0 2.119462 1_555
Mg22 O24 2.146216 1_555
Mg22 O8 2.155077 1_555
Mg22 O9 2.155077 1_455
Mg22 O28 2.158417 1_555
Mg22 O2 2.186418 1_555
Mg23 O1 2.086449 1_555
Mg23 O29 2.099380 1_555
Mg23 O9 2.148047 1_555
Mg23 O8 2.148047 1_555
Mg23 O25 2.200331 1_555
Mg23 O3 2.216154 1_555
Mg24 O0 2.119462 1_565
Mg24 O26 2.146216 1_555
Mg24 O10 2.155077 1_555
Mg24 O11 2.155077 1_455
Mg24 O30 2.158417 1_555
Mg24 O2 2.186418 1_555
Mg25 O1 2.086449 1_565
Mg25 O31 2.099380 1_555
Mg25 O11 2.148047 1_555
Mg25 O10 2.148047 1_555
Mg25 O27 2.200331 1_555
Mg25 O3 2.216154 1_555
Mg26 O4 2.119462 1_555
Mg26 O24 2.146216 1_556
Mg26 O12 2.155077 1_555
Mg26 O13 2.155077 1_455
Mg26 O28 2.158417 1_555
Mg26 O6 2.186418 1_555
Mg27 O5 2.086449 1_555
Mg27 O29 2.099380 1_555
Mg27 O13 2.148047 1_555
Mg27 O12 2.148047 1_555
Mg27 O25 2.200331 1_556
Mg27 O7 2.216154 1_555
Mg28 O4 2.119462 1_565
Mg28 O26 2.146216 1_556
Mg28 O14 2.155077 1_555
Mg28 O15 2.155077 1_455
Mg28 O30 2.158417 1_555
Mg28 O6 2.186418 1_555
Mg29 O5 2.086449 1_565
Mg29 O31 2.099380 1_555
Mg29 O15 2.148047 1_555
Mg29 O14 2.148047 1_555
Mg29 O27 2.200331 1_556
Mg29 O7 2.216154 1_555
