# generated using pymatgen
data_Li2VO2F
_symmetry_space_group_name_H-M   'P 1'
_cell_length_a   5.90784870
_cell_length_b   6.66939748
_cell_length_c   6.65074947
_cell_angle_alpha   72.66170116
_cell_angle_beta   63.74448258
_cell_angle_gamma   77.55396092
_symmetry_Int_Tables_number   1
_chemical_formula_structural   Li2VO2F
_chemical_formula_sum   'Li8 V4 O8 F4'
_cell_volume   223.26247708
_cell_formula_units_Z   4
loop_
 _symmetry_equiv_pos_site_id
 _symmetry_equiv_pos_as_xyz
  1  'x, y, z'
loop_
 _atom_site_type_symbol
 _atom_site_label
 _atom_site_symmetry_multiplicity
 _atom_site_fract_x
 _atom_site_fract_y
 _atom_site_fract_z
 _atom_site_occupancy
  Li  Li0  1  0.74458600  0.00102900  0.51033700  1
  Li  Li1  1  0.24387200  0.00076100  0.51054700  1
  Li  Li2  1  0.83871200  0.33227500  0.65632100  1
  Li  Li3  1  0.33946000  0.33257600  0.65611400  1
  Li  Li4  1  0.65427700  0.66727500  0.35782200  1
  Li  Li5  1  0.15425300  0.66768700  0.35792800  1
  Li  Li6  1  0.42906100  0.66558200  0.80880800  1
  Li  Li7  1  0.92899000  0.66607200  0.80889400  1
  V  V0  1  0.50621900  0.00459900  0.99063100  1
  V  V1  1  0.07710500  0.32869000  0.17614100  1
  V  V2  1  0.00604900  0.00495500  0.99067600  1
  V  V3  1  0.57726900  0.32847300  0.17591800  1
  O  O0  1  0.13788000  0.00091400  0.23162900  1
  O  O1  1  0.63761600  0.00099600  0.23124300  1
  O  O2  1  0.44551100  0.33250800  0.93514800  1
  O  O3  1  0.94582500  0.33223900  0.93536200  1
  O  O4  1  0.36828800  0.99189800  0.76965300  1
  O  O5  1  0.86829800  0.99291800  0.76896600  1
  O  O6  1  0.71498300  0.34056600  0.39751700  1
  O  O7  1  0.21506000  0.34134700  0.39713400  1
  F  F0  1  0.04116700  0.66707800  0.08329700  1
  F  F1  1  0.54214400  0.66635600  0.08323900  1
  F  F2  1  0.79169400  0.66660300  0.58332700  1
  F  F3  1  0.29168200  0.66659800  0.58335500  1
loop_
_geom_bond_atom_site_label_1
_geom_bond_atom_site_label_2
_geom_bond_distance
_geom_bond_site_symmetry_2
Li0 O4 2.126944 1_545
Li0 O5 2.129679 1_545
Li0 O6 2.157370 1_555
Li0 O1 2.209739 1_555
Li0 O0 2.241468 1_655
Li1 O5 2.121863 1_445
Li1 O4 2.134144 1_545
Li1 O7 2.164110 1_555
Li1 O0 2.204425 1_555
Li1 O1 2.244659 1_555
Li2 O7 2.126852 1_655
Li2 O6 2.130509 1_555
Li2 O5 2.156172 1_545
Li2 O3 2.209810 1_555
Li2 O2 2.241411 1_555
Li3 O6 2.122066 1_555
Li3 O7 2.133457 1_555
Li3 O4 2.164740 1_545
Li3 O2 2.205576 1_555
Li3 O3 2.244075 1_455
Li4 O6 2.085718 1_555
Li4 O1 2.129393 1_565
Li5 O7 2.083688 1_555
Li5 O0 2.126184 1_565
Li6 O4 2.083569 1_555
Li6 O2 2.125274 1_555
Li7 O5 2.086436 1_555
Li7 O3 2.129997 1_555
O0 V0 2.053941 1_554
O0 V2 2.060302 1_554
O0 V1 2.083763 1_555
O1 V2 2.053474 1_654
O1 V0 2.057203 1_554
O1 V3 2.081854 1_555
O2 V1 2.054222 1_556
O2 V3 2.058859 1_556
O2 V0 2.084606 1_555
O3 V3 2.053962 1_556
O3 V1 2.057860 1_656
O3 V2 2.080606 1_655
O4 V2 1.990208 1_565
O4 V0 1.998663 1_565
O5 V0 1.990413 1_565
O5 V2 2.000852 1_665
O6 V1 1.990106 1_655
O6 V3 2.000134 1_555
O7 V3 1.990393 1_555
O7 V1 1.998758 1_555
F0 V2 2.141185 1_564
F0 V1 2.144426 1_555
F0 Li7 2.202069 1_454
F0 Li4 2.205856 1_455
F0 Li5 2.206288 1_555
F0 Li6 2.209964 1_554
F1 V3 2.141229 1_555
F1 V0 2.143484 1_564
F1 Li4 2.202866 1_555
F1 Li7 2.205253 1_554
F1 Li6 2.205342 1_554
F1 Li5 2.210413 1_555
F2 Li4 1.995022 1_555
F2 Li7 1.995169 1_555
F2 Li5 1.998634 1_655
F2 Li6 1.999103 1_555
F2 Li2 2.119397 1_555
F2 Li0 2.120026 1_565
F3 Li5 1.993732 1_555
F3 Li6 1.993825 1_555
F3 Li4 1.999009 1_555
F3 Li7 1.999435 1_455
F3 Li3 2.117518 1_555
F3 Li1 2.118410 1_565
