# generated using pymatgen
data_Ta2B2Os
_symmetry_space_group_name_H-M   'P 1'
_cell_length_a   5.90934500
_cell_length_b   5.90934500
_cell_length_c   6.91034400
_cell_angle_alpha   90.00000000
_cell_angle_beta   90.00000000
_cell_angle_gamma   90.00000000
_symmetry_Int_Tables_number   1
_chemical_formula_structural   Ta2B2Os
_chemical_formula_sum   'Ta8 B8 Os4'
_cell_volume   241.31168866
_cell_formula_units_Z   4
loop_
 _symmetry_equiv_pos_site_id
 _symmetry_equiv_pos_as_xyz
  1  'x, y, z'
loop_
 _atom_site_type_symbol
 _atom_site_label
 _atom_site_symmetry_multiplicity
 _atom_site_fract_x
 _atom_site_fract_y
 _atom_site_fract_z
 _atom_site_occupancy
  Ta  Ta0  1  0.66412200  0.81457100  0.50000000  1
  Ta  Ta1  1  0.33587800  0.18542900  0.50000000  1
  Ta  Ta2  1  0.83587800  0.31457100  0.00000000  1
  Ta  Ta3  1  0.16412200  0.68542900  0.00000000  1
  Ta  Ta4  1  0.81457100  0.33587800  0.50000000  1
  Ta  Ta5  1  0.18542900  0.66412200  0.50000000  1
  Ta  Ta6  1  0.31457100  0.16412200  0.00000000  1
  Ta  Ta7  1  0.68542900  0.83587800  0.00000000  1
  B  B0  1  0.38631000  0.88631000  0.25000000  1
  B  B1  1  0.61369000  0.11369000  0.25000000  1
  B  B2  1  0.11369000  0.38631000  0.75000000  1
  B  B3  1  0.88631000  0.61369000  0.75000000  1
  B  B4  1  0.88631000  0.61369000  0.25000000  1
  B  B5  1  0.11369000  0.38631000  0.25000000  1
  B  B6  1  0.38631000  0.88631000  0.75000000  1
  B  B7  1  0.61369000  0.11369000  0.75000000  1
  Os  Os0  1  0.50000000  0.50000000  0.22200400  1
  Os  Os1  1  0.00000000  0.00000000  0.72200400  1
  Os  Os2  1  0.50000000  0.50000000  0.77799600  1
  Os  Os3  1  0.00000000  0.00000000  0.27799600  1
loop_
_geom_bond_atom_site_label_1
_geom_bond_atom_site_label_2
_geom_bond_distance
_geom_bond_site_symmetry_2
B0 B1 1.900232 1_565
B0 Os3 2.387497 1_565
B0 Os0 2.387497 1_555
B0 Ta6 2.420621 1_565
B0 Ta0 2.420621 1_555
B0 Ta5 2.473385 1_555
B0 Ta3 2.473385 1_555
B0 Ta7 2.489532 1_555
B0 Ta1 2.489532 1_565
B1 Os0 2.387497 1_555
B1 Os3 2.387497 1_655
B1 Ta7 2.420621 1_545
B1 Ta1 2.420621 1_555
B1 Ta4 2.473385 1_555
B1 Ta2 2.473385 1_555
B1 Ta0 2.489532 1_545
B1 Ta6 2.489532 1_555
B2 B3 1.900232 1_455
B2 Os1 2.387497 1_555
B2 Os2 2.387497 1_555
B2 Ta2 2.420621 1_456
B2 Ta5 2.420621 1_555
B2 Ta1 2.473385 1_555
B2 Ta6 2.473385 1_556
B2 Ta3 2.489532 1_556
B2 Ta4 2.489532 1_455
B3 Os2 2.387497 1_555
B3 Os1 2.387497 1_665
B3 Ta3 2.420621 1_656
B3 Ta4 2.420621 1_555
B3 Ta0 2.473385 1_555
B3 Ta7 2.473385 1_556
B3 Ta2 2.489532 1_556
B3 Ta5 2.489532 1_655
B4 B5 1.900232 1_655
B4 Os0 2.387497 1_555
B4 Os3 2.387497 1_665
B4 Ta3 2.420621 1_655
B4 Ta4 2.420621 1_555
B4 Ta0 2.473385 1_555
B4 Ta7 2.473385 1_555
B4 Ta2 2.489532 1_555
B4 Ta5 2.489532 1_655
B5 Os3 2.387497 1_555
B5 Os0 2.387497 1_555
B5 Ta2 2.420621 1_455
B5 Ta5 2.420621 1_555
B5 Ta1 2.473385 1_555
B5 Ta6 2.473385 1_555
B5 Ta3 2.489532 1_555
B5 Ta4 2.489532 1_455
B6 B7 1.900232 1_565
B6 Os1 2.387497 1_565
B6 Os2 2.387497 1_555
B6 Ta6 2.420621 1_566
B6 Ta0 2.420621 1_555
B6 Ta5 2.473385 1_555
B6 Ta3 2.473385 1_556
B6 Ta7 2.489532 1_556
B6 Ta1 2.489532 1_565
B7 Os1 2.387497 1_655
B7 Os2 2.387497 1_555
B7 Ta7 2.420621 1_546
B7 Ta1 2.420621 1_555
B7 Ta2 2.473385 1_556
B7 Ta4 2.473385 1_555
B7 Ta0 2.489532 1_545
B7 Ta6 2.489532 1_556
Os0 Ta3 2.737470 1_555
Os0 Ta6 2.737470 1_555
Os0 Ta7 2.737470 1_555
Os0 Ta2 2.737470 1_555
Os0 Ta0 2.843692 1_555
Os0 Ta4 2.843692 1_555
Os0 Ta1 2.843692 1_555
Os0 Ta5 2.843692 1_555
Os1 Ta4 2.737470 1_455
Os1 Ta1 2.737470 1_555
Os1 Ta5 2.737470 1_545
Os1 Ta0 2.737470 1_445
Os1 Ta7 2.843692 1_446
Os1 Ta6 2.843692 1_556
Os1 Ta2 2.843692 1_456
Os1 Ta3 2.843692 1_546
Os2 Ta6 2.737470 1_556
Os2 Ta3 2.737470 1_556
Os2 Ta7 2.737470 1_556
Os2 Ta2 2.737470 1_556
Os2 Ta0 2.843692 1_555
Os2 Ta4 2.843692 1_555
Os2 Ta1 2.843692 1_555
Os2 Ta5 2.843692 1_555
Os3 Ta4 2.737470 1_455
Os3 Ta1 2.737470 1_555
Os3 Ta5 2.737470 1_545
Os3 Ta0 2.737470 1_445
Os3 Ta3 2.843692 1_545
Os3 Ta6 2.843692 1_555
Os3 Ta2 2.843692 1_455
Os3 Ta7 2.843692 1_445
