# generated using pymatgen
data_Gd4InIr
_symmetry_space_group_name_H-M   'P 1'
_cell_length_a   9.78160751
_cell_length_b   9.78160751
_cell_length_c   9.78160751
_cell_angle_alpha   60.00000000
_cell_angle_beta   60.00000000
_cell_angle_gamma   60.00000000
_symmetry_Int_Tables_number   1
_chemical_formula_structural   Gd4InIr
_chemical_formula_sum   'Gd16 In4 Ir4'
_cell_volume   661.78314188
_cell_formula_units_Z   4
loop_
 _symmetry_equiv_pos_site_id
 _symmetry_equiv_pos_as_xyz
  1  'x, y, z'
loop_
 _atom_site_type_symbol
 _atom_site_label
 _atom_site_symmetry_multiplicity
 _atom_site_fract_x
 _atom_site_fract_y
 _atom_site_fract_z
 _atom_site_occupancy
  Gd  Gd0  1  0.93927500  0.56072500  0.56072500  1
  Gd  Gd1  1  0.93927500  0.56072500  0.93927500  1
  Gd  Gd2  1  0.93927500  0.93927500  0.56072500  1
  Gd  Gd3  1  0.56072500  0.93927500  0.93927500  1
  Gd  Gd4  1  0.56072500  0.93927500  0.56072500  1
  Gd  Gd5  1  0.56072500  0.56072500  0.93927500  1
  Gd  Gd6  1  0.80902100  0.19097900  0.19097900  1
  Gd  Gd7  1  0.80902100  0.19097900  0.80902100  1
  Gd  Gd8  1  0.80902100  0.80902100  0.19097900  1
  Gd  Gd9  1  0.19097900  0.80902100  0.80902100  1
  Gd  Gd10  1  0.19097900  0.80902100  0.19097900  1
  Gd  Gd11  1  0.19097900  0.19097900  0.80902100  1
  Gd  Gd12  1  0.95486200  0.34837900  0.34837900  1
  Gd  Gd13  1  0.34837900  0.95486200  0.34837900  1
  Gd  Gd14  1  0.34837900  0.34837900  0.95486200  1
  Gd  Gd15  1  0.34837900  0.34837900  0.34837900  1
  In  In0  1  0.25306500  0.58231200  0.58231200  1
  In  In1  1  0.58231200  0.25306500  0.58231200  1
  In  In2  1  0.58231200  0.58231200  0.25306500  1
  In  In3  1  0.58231200  0.58231200  0.58231200  1
  Ir  Ir0  1  0.57724400  0.14091900  0.14091900  1
  Ir  Ir1  1  0.14091900  0.57724400  0.14091900  1
  Ir  Ir2  1  0.14091900  0.14091900  0.57724400  1
  Ir  Ir3  1  0.14091900  0.14091900  0.14091900  1
loop_
_geom_bond_atom_site_label_1
_geom_bond_atom_site_label_2
_geom_bond_distance
_geom_bond_site_symmetry_2
Gd0 In3 3.294080 1_555
Gd0 In0 3.294089 1_655
Gd0 Ir1 3.512061 1_655
Gd0 Ir2 3.512061 1_655
Gd1 In2 3.294084 1_556
Gd1 In0 3.294084 1_655
Gd1 Ir3 3.512064 1_656
Gd1 Ir1 3.512070 1_656
Gd2 In1 3.294084 1_565
Gd2 In0 3.294084 1_655
Gd2 Ir3 3.512064 1_665
Gd2 Ir2 3.512070 1_665
Gd3 In1 3.294084 1_565
Gd3 In2 3.294084 1_556
Gd3 Ir3 3.512064 1_566
Gd3 Ir0 3.512070 1_566
Gd4 In3 3.294080 1_555
Gd4 In1 3.294089 1_565
Gd4 Ir0 3.512061 1_565
Gd4 Ir2 3.512061 1_565
Gd5 In3 3.294080 1_555
Gd5 In2 3.294089 1_556
Gd5 Ir0 3.512061 1_556
Gd5 Ir1 3.512061 1_556
Gd6 Ir0 2.842463 1_555
Gd6 Ir3 2.842473 1_655
Gd6 In1 3.525388 1_555
Gd6 In2 3.525388 1_555
Gd7 Ir2 2.842470 1_655
Gd7 Ir0 2.842470 1_556
Gd7 In1 3.525380 1_555
Gd7 In3 3.525384 1_555
Gd8 Ir0 2.842470 1_565
Gd8 Ir1 2.842470 1_655
Gd8 In2 3.525380 1_555
Gd8 In3 3.525384 1_555
Gd9 Ir2 2.842470 1_565
Gd9 Ir1 2.842470 1_556
Gd9 In0 3.525380 1_555
Gd9 In3 3.525384 1_555
Gd10 Ir1 2.842463 1_555
Gd10 Ir3 2.842473 1_565
Gd10 In0 3.525388 1_555
Gd10 In2 3.525388 1_555
Gd11 Ir2 2.842463 1_555
Gd11 Ir3 2.842473 1_556
Gd11 In1 3.525388 1_555
Gd11 In0 3.525388 1_555
Gd12 Ir3 2.877479 1_655
Gd12 Ir1 2.877493 1_655
Gd12 Ir2 2.877493 1_655
Gd12 In2 3.508630 1_555
Gd12 In1 3.508630 1_555
Gd12 In3 3.508639 1_555
Gd13 Ir3 2.877479 1_565
Gd13 Ir0 2.877493 1_565
Gd13 Ir2 2.877493 1_565
Gd13 In2 3.508630 1_555
Gd13 In0 3.508630 1_555
Gd13 In3 3.508639 1_555
Gd14 Ir3 2.877479 1_556
Gd14 Ir0 2.877493 1_556
Gd14 Ir1 2.877493 1_556
Gd14 In0 3.508630 1_555
Gd14 In1 3.508630 1_555
Gd14 In3 3.508639 1_555
Gd15 Ir0 2.877480 1_555
Gd15 Ir1 2.877480 1_555
Gd15 Ir2 2.877480 1_555
Gd15 In1 3.508647 1_555
Gd15 In2 3.508647 1_555
Gd15 In0 3.508647 1_555
In0 In3 3.220565 1_555
In0 In1 3.220565 1_555
In0 In2 3.220565 1_555
In1 In3 3.220565 1_555
In1 In2 3.220565 1_555
In2 In3 3.220565 1_555
