# generated using pymatgen
data_Mg11(CN5)2
_symmetry_space_group_name_H-M   'P 1'
_cell_length_a   13.14130400
_cell_length_b   13.14130400
_cell_length_c   3.17554800
_cell_angle_alpha   90.00000000
_cell_angle_beta   90.00000000
_cell_angle_gamma   90.00000000
_symmetry_Int_Tables_number   1
_chemical_formula_structural   Mg11(CN5)2
_chemical_formula_sum   'Mg22 C4 N20'
_cell_volume   548.39767610
_cell_formula_units_Z   2
loop_
 _symmetry_equiv_pos_site_id
 _symmetry_equiv_pos_as_xyz
  1  'x, y, z'
loop_
 _atom_site_type_symbol
 _atom_site_label
 _atom_site_symmetry_multiplicity
 _atom_site_fract_x
 _atom_site_fract_y
 _atom_site_fract_z
 _atom_site_occupancy
  Mg  Mg0  1  0.50000000  0.50000000  0.50000000  1
  Mg  Mg1  1  0.00000000  0.00000000  0.00000000  1
  Mg  Mg2  1  0.98603700  0.79348400  0.50000000  1
  Mg  Mg3  1  0.01396300  0.20651600  0.50000000  1
  Mg  Mg4  1  0.51396300  0.29348400  0.00000000  1
  Mg  Mg5  1  0.48603700  0.70651600  0.00000000  1
  Mg  Mg6  1  0.79348400  0.98603700  0.50000000  1
  Mg  Mg7  1  0.20651600  0.01396300  0.50000000  1
  Mg  Mg8  1  0.29348400  0.51396300  0.00000000  1
  Mg  Mg9  1  0.70651600  0.48603700  0.00000000  1
  Mg  Mg10  1  0.66082300  0.66082300  0.50000000  1
  Mg  Mg11  1  0.33917700  0.33917700  0.50000000  1
  Mg  Mg12  1  0.83917700  0.16082300  0.00000000  1
  Mg  Mg13  1  0.16082300  0.83917700  0.00000000  1
  Mg  Mg14  1  0.38502300  0.90396000  0.50000000  1
  Mg  Mg15  1  0.61497700  0.09604000  0.50000000  1
  Mg  Mg16  1  0.11497700  0.40396000  0.00000000  1
  Mg  Mg17  1  0.88502300  0.59604000  0.00000000  1
  Mg  Mg18  1  0.90396000  0.38502300  0.50000000  1
  Mg  Mg19  1  0.09604000  0.61497700  0.50000000  1
  Mg  Mg20  1  0.40396000  0.11497700  0.00000000  1
  Mg  Mg21  1  0.59604000  0.88502300  0.00000000  1
  C  C0  1  0.30914100  0.69085900  0.50000000  1
  C  C1  1  0.69085900  0.30914100  0.50000000  1
  C  C2  1  0.19085900  0.19085900  0.00000000  1
  C  C3  1  0.80914100  0.80914100  0.00000000  1
  N  N0  1  0.08611200  0.91388800  0.50000000  1
  N  N1  1  0.91388800  0.08611200  0.50000000  1
  N  N2  1  0.41388800  0.41388800  0.00000000  1
  N  N3  1  0.58611200  0.58611200  0.00000000  1
  N  N4  1  0.48130300  0.18456100  0.50000000  1
  N  N5  1  0.51869700  0.81543900  0.50000000  1
  N  N6  1  0.01869700  0.68456100  0.00000000  1
  N  N7  1  0.98130300  0.31543900  0.00000000  1
  N  N8  1  0.18456100  0.48130300  0.50000000  1
  N  N9  1  0.81543900  0.51869700  0.50000000  1
  N  N10  1  0.68456100  0.01869700  0.00000000  1
  N  N11  1  0.31543900  0.98130300  0.00000000  1
  N  N12  1  0.24300900  0.75699100  0.50000000  1
  N  N13  1  0.75699100  0.24300900  0.50000000  1
  N  N14  1  0.25699100  0.25699100  0.00000000  1
  N  N15  1  0.74300900  0.74300900  0.00000000  1
  N  N16  1  0.37574300  0.62425700  0.50000000  1
  N  N17  1  0.62425700  0.37574300  0.50000000  1
  N  N18  1  0.12425700  0.12425700  0.00000000  1
  N  N19  1  0.87574300  0.87574300  0.00000000  1
loop_
_geom_bond_atom_site_label_1
_geom_bond_atom_site_label_2
_geom_bond_distance
_geom_bond_site_symmetry_2
Mg0 N3 2.254367 1_556
Mg0 N3 2.254367 1_555
Mg0 N2 2.254367 1_555
Mg0 N2 2.254367 1_556
Mg0 N16 2.309268 1_555
Mg0 N17 2.309268 1_555
Mg1 N1 2.254367 1_455
Mg1 N0 2.254367 1_544
Mg1 N1 2.254367 1_454
Mg1 N0 2.254367 1_545
Mg1 N19 2.309268 1_445
Mg1 N18 2.309268 1_555
Mg2 N0 2.057449 1_655
Mg2 N6 2.180393 1_655
Mg2 N6 2.180393 1_656
Mg2 N19 2.406314 1_555
Mg2 N19 2.406314 1_556
Mg3 N1 2.057449 1_455
Mg3 N7 2.180393 1_456
Mg3 N7 2.180393 1_455
Mg3 N18 2.406314 1_556
Mg3 N18 2.406314 1_555
Mg4 N2 2.057449 1_555
Mg4 N4 2.180393 1_555
Mg4 N4 2.180393 1_554
Mg4 N17 2.406314 1_555
Mg4 N17 2.406314 1_554
Mg5 N3 2.057449 1_555
Mg5 N5 2.180393 1_554
Mg5 N5 2.180393 1_555
Mg5 N16 2.406314 1_555
Mg5 N16 2.406314 1_554
Mg6 N1 2.057449 1_565
Mg6 N10 2.180393 1_565
Mg6 N10 2.180393 1_566
Mg6 N19 2.406314 1_555
Mg6 N19 2.406314 1_556
Mg7 N0 2.057449 1_545
Mg7 N11 2.180393 1_545
Mg7 N11 2.180393 1_546
Mg7 N18 2.406314 1_556
Mg7 N18 2.406314 1_555
Mg8 N2 2.057449 1_555
Mg8 N8 2.180393 1_555
Mg8 N8 2.180393 1_554
Mg8 N16 2.406314 1_555
Mg8 N16 2.406314 1_554
Mg9 N3 2.057449 1_555
Mg9 N9 2.180393 1_554
Mg9 N9 2.180393 1_555
Mg9 N17 2.406314 1_555
Mg9 N17 2.406314 1_554
Mg10 N3 2.109239 1_555
Mg10 N3 2.109239 1_556
Mg10 N15 2.203171 1_555
Mg10 N15 2.203171 1_556
Mg11 N2 2.109239 1_556
Mg11 N2 2.109239 1_555
Mg11 N14 2.203171 1_556
Mg11 N14 2.203171 1_555
Mg12 N1 2.109239 1_554
Mg12 N1 2.109239 1_555
Mg12 N13 2.203171 1_554
Mg12 N13 2.203171 1_555
Mg13 N0 2.109239 1_554
Mg13 N0 2.109239 1_555
Mg13 N12 2.203171 1_555
Mg13 N12 2.203171 1_554
Mg14 N11 2.095291 1_556
Mg14 N11 2.095291 1_555
Mg14 N5 2.106904 1_555
Mg14 N12 2.685713 1_555
Mg15 N10 2.095291 1_556
Mg15 N10 2.095291 1_555
Mg15 N4 2.106904 1_555
Mg15 N13 2.685713 1_555
Mg16 N8 2.095291 1_554
Mg16 N8 2.095291 1_555
Mg16 N7 2.106904 1_455
Mg16 N14 2.685713 1_555
Mg17 N9 2.095291 1_555
Mg17 N9 2.095291 1_554
Mg17 N6 2.106904 1_655
Mg17 N15 2.685713 1_555
Mg18 N7 2.095291 1_555
Mg18 N7 2.095291 1_556
Mg18 N9 2.106904 1_555
Mg18 N13 2.685713 1_555
Mg19 N6 2.095291 1_556
Mg19 N6 2.095291 1_555
Mg19 N8 2.106904 1_555
Mg19 N12 2.685713 1_555
Mg20 N4 2.095291 1_555
Mg20 N4 2.095291 1_554
Mg20 N11 2.106904 1_545
Mg20 N14 2.685713 1_555
Mg21 N5 2.095291 1_554
Mg21 N5 2.095291 1_555
Mg21 N10 2.106904 1_565
Mg21 N15 2.685713 1_555
C0 N12 1.229037 1_555
C0 N16 1.237772 1_555
C1 N13 1.229037 1_555
C1 N17 1.237772 1_555
C2 N14 1.229037 1_555
C2 N18 1.237772 1_555
C3 N15 1.229037 1_555
C3 N19 1.237772 1_555
