# generated using pymatgen
data_UCrSe3
_symmetry_space_group_name_H-M   'P 1'
_cell_length_a   6.49267439
_cell_length_b   7.45388811
_cell_length_c   9.40069327
_cell_angle_alpha   90.00000000
_cell_angle_beta   90.00000000
_cell_angle_gamma   90.00000000
_symmetry_Int_Tables_number   1
_chemical_formula_structural   UCrSe3
_chemical_formula_sum   'U4 Cr4 Se12'
_cell_volume   454.95283458
_cell_formula_units_Z   4
loop_
 _symmetry_equiv_pos_site_id
 _symmetry_equiv_pos_as_xyz
  1  'x, y, z'
loop_
 _atom_site_type_symbol
 _atom_site_label
 _atom_site_symmetry_multiplicity
 _atom_site_fract_x
 _atom_site_fract_y
 _atom_site_fract_z
 _atom_site_occupancy
  U  U0  1  0.55252028  0.11597046  0.75000000  1
  U  U1  1  0.94747972  0.61597046  0.75000000  1
  U  U2  1  0.44747972  0.88402954  0.25000000  1
  U  U3  1  0.05252028  0.38402954  0.25000000  1
  Cr  Cr0  1  0.50000000  0.50000000  0.00000000  1
  Cr  Cr1  1  0.00000000  -0.00000000  0.50000000  1
  Cr  Cr2  1  0.50000000  0.50000000  0.50000000  1
  Cr  Cr3  1  0.00000000  -0.00000000  0.00000000  1
  Se  Se0  1  0.33535512  0.17918369  0.44239017  1
  Se  Se1  1  0.16464488  0.67918369  0.05760983  1
  Se  Se2  1  0.66464488  0.82081631  0.94239017  1
  Se  Se3  1  0.83535512  0.32081631  0.55760983  1
  Se  Se4  1  0.66464488  0.82081631  0.55760983  1
  Se  Se5  1  0.83535512  0.32081631  0.94239017  1
  Se  Se6  1  0.33535512  0.17918369  0.05760983  1
  Se  Se7  1  0.16464488  0.67918369  0.44239017  1
  Se  Se8  1  0.35842198  0.45894911  0.75000000  1
  Se  Se9  1  0.14157802  0.95894911  0.75000000  1
  Se  Se10  1  0.64157802  0.54105089  0.25000000  1
  Se  Se11  1  0.85842198  0.04105089  0.25000000  1
loop_
_geom_bond_atom_site_label_1
_geom_bond_atom_site_label_2
_geom_bond_distance
_geom_bond_site_symmetry_2
Cr0 Se8 2.542029 1_554
Cr0 Se10 2.542029 1_555
Cr0 Se5 2.611135 1_554
Cr0 Se1 2.611135 1_555
Cr0 Se6 2.674787 1_555
Cr0 Se2 2.674787 1_554
Cr1 Se11 2.542029 1_455
Cr1 Se9 2.542029 1_545
Cr1 Se0 2.611135 1_555
Cr1 Se4 2.611135 1_445
Cr1 Se3 2.674787 1_455
Cr1 Se7 2.674787 1_545
Cr2 Se8 2.542029 1_555
Cr2 Se10 2.542029 1_555
Cr2 Se3 2.611135 1_555
Cr2 Se7 2.611135 1_555
Cr2 Se0 2.674787 1_555
Cr2 Se4 2.674787 1_555
Cr3 Se9 2.542029 1_544
Cr3 Se11 2.542029 1_455
Cr3 Se6 2.611135 1_555
Cr3 Se2 2.611135 1_444
Cr3 Se1 2.674787 1_545
Cr3 Se5 2.674787 1_454
Se0 U2 2.939593 1_545
Se0 U3 2.995773 1_555
Se0 U0 3.251501 1_555
Se1 U3 2.939593 1_555
Se1 U2 2.995773 1_555
Se1 U1 3.251501 1_454
Se2 U0 2.939593 1_565
Se2 U1 2.995773 1_555
Se2 U2 3.251501 1_556
Se3 U1 2.939593 1_555
Se3 U0 2.995773 1_555
Se3 U3 3.251501 1_655
Se4 U0 2.939593 1_565
Se4 U1 2.995773 1_555
Se4 U2 3.251501 1_555
Se5 U1 2.939593 1_555
Se5 U0 2.995773 1_555
Se5 U3 3.251501 1_656
Se6 U2 2.939593 1_545
Se6 U3 2.995773 1_555
Se6 U0 3.251501 1_554
Se7 U3 2.939593 1_555
Se7 U2 2.995773 1_555
Se7 U1 3.251501 1_455
Se8 U0 2.850257 1_555
Se8 U1 2.913540 1_455
Se9 U1 2.850257 1_455
Se9 U0 2.913540 1_565
Se10 U2 2.850257 1_555
Se10 U3 2.913540 1_655
Se11 U3 2.850257 1_655
Se11 U2 2.913540 1_545
