# generated using pymatgen
data_La2C2S2O15
_symmetry_space_group_name_H-M   'P 1'
_cell_length_a   9.92718100
_cell_length_b   9.94348800
_cell_length_c   14.44003560
_cell_angle_alpha   62.04693749
_cell_angle_beta   90.00000000
_cell_angle_gamma   90.00000000
_symmetry_Int_Tables_number   1
_chemical_formula_structural   La2C2S2O15
_chemical_formula_sum   'La8 C8 S8 O60'
_cell_volume   1259.09027617
_cell_formula_units_Z   4
loop_
 _symmetry_equiv_pos_site_id
 _symmetry_equiv_pos_as_xyz
  1  'x, y, z'
loop_
 _atom_site_type_symbol
 _atom_site_label
 _atom_site_symmetry_multiplicity
 _atom_site_fract_x
 _atom_site_fract_y
 _atom_site_fract_z
 _atom_site_occupancy
  La  La0  1  0.71276600  0.20650800  0.09122100  1
  La  La1  1  0.78723400  0.20650800  0.59122100  1
  La  La2  1  0.28723400  0.79349200  0.90877900  1
  La  La3  1  0.21276600  0.79349200  0.40877900  1
  La  La4  1  0.95152000  0.55070200  0.21712800  1
  La  La5  1  0.54848000  0.55070200  0.71712800  1
  La  La6  1  0.04848000  0.44929800  0.78287200  1
  La  La7  1  0.45152000  0.44929800  0.28287200  1
  C  C0  1  0.93760800  0.44932800  0.01444000  1
  C  C1  1  0.56239200  0.44932800  0.51444000  1
  C  C2  1  0.06239200  0.55067200  0.98556000  1
  C  C3  1  0.43760800  0.55067200  0.48556000  1
  C  C4  1  0.49607200  0.49482500  0.05430600  1
  C  C5  1  0.00392800  0.49482500  0.55430600  1
  C  C6  1  0.50392800  0.50517500  0.94569400  1
  C  C7  1  0.99607200  0.50517500  0.44569400  1
  S  S0  1  0.66307500  0.77801200  0.25204900  1
  S  S1  1  0.83692500  0.77801200  0.75204900  1
  S  S2  1  0.33692500  0.22198800  0.74795100  1
  S  S3  1  0.16307500  0.22198800  0.24795100  1
  S  S4  1  0.79130600  0.21722100  0.84090300  1
  S  S5  1  0.70869400  0.21722100  0.34090300  1
  S  S6  1  0.20869400  0.78277900  0.15909700  1
  S  S7  1  0.29130600  0.78277900  0.65909700  1
  O  O0  1  0.86546100  0.43663100  0.09082700  1
  O  O1  1  0.63453900  0.43663100  0.59082700  1
  O  O2  1  0.13453900  0.56336900  0.90917300  1
  O  O3  1  0.36546100  0.56336900  0.40917300  1
  O  O4  1  0.91200900  0.38146400  0.96081400  1
  O  O5  1  0.58799100  0.38146400  0.46081400  1
  O  O6  1  0.08799100  0.61853600  0.03918600  1
  O  O7  1  0.41200900  0.61853600  0.53918600  1
  O  O8  1  0.56276100  0.39109700  0.12735600  1
  O  O9  1  0.93723900  0.39109700  0.62735600  1
  O  O10  1  0.43723900  0.60890300  0.87264400  1
  O  O11  1  0.06276100  0.60890300  0.37264400  1
  O  O12  1  0.42247300  0.59033300  0.06586300  1
  O  O13  1  0.07752700  0.59033300  0.56586300  1
  O  O14  1  0.57752700  0.40966700  0.93413700  1
  O  O15  1  0.92247300  0.40966700  0.43413700  1
  O  O16  1  0.48082800  0.09373600  0.16367200  1
  O  O17  1  0.01917200  0.09373600  0.66367200  1
  O  O18  1  0.51917200  0.90626400  0.83632800  1
  O  O19  1  0.98082800  0.90626400  0.33632800  1
  O  O20  1  0.79022600  0.72935700  0.06759700  1
  O  O21  1  0.70977400  0.72935700  0.56759700  1
  O  O22  1  0.20977400  0.27064300  0.93240300  1
  O  O23  1  0.29022600  0.27064300  0.43240300  1
  O  O24  1  0.95019700  0.04835300  0.18644900  1
  O  O25  1  0.54980300  0.04835300  0.68644900  1
  O  O26  1  0.04980300  0.95164700  0.81355100  1
  O  O27  1  0.45019700  0.95164700  0.31355100  1
  O  O28  1  0.66511300  0.93840100  0.16594800  1
  O  O29  1  0.83488700  0.93840100  0.66594800  1
  O  O30  1  0.33488700  0.06159900  0.83405200  1
  O  O31  1  0.16511300  0.06159900  0.33405200  1
  O  O32  1  0.57022800  0.68835700  0.22107800  1
  O  O33  1  0.92977200  0.68835700  0.72107800  1
  O  O34  1  0.42977200  0.31164300  0.77892200  1
  O  O35  1  0.07022800  0.31164300  0.27892200  1
  O  O36  1  0.61971700  0.77164500  0.35235300  1
  O  O37  1  0.88028300  0.77164500  0.85235300  1
  O  O38  1  0.38028300  0.22835500  0.64764700  1
  O  O39  1  0.11971700  0.22835500  0.14764700  1
  O  O40  1  0.80181800  0.71527200  0.26361900  1
  O  O41  1  0.69818200  0.71527200  0.76361900  1
  O  O42  1  0.19818200  0.28472800  0.73638100  1
  O  O43  1  0.30181800  0.28472800  0.23638100  1
  O  O44  1  0.72037700  0.14356400  0.94267800  1
  O  O45  1  0.77962300  0.14356400  0.44267800  1
  O  O46  1  0.27962300  0.85643600  0.05732200  1
  O  O47  1  0.22037700  0.85643600  0.55732200  1
  O  O48  1  0.76536100  0.38704700  0.78675300  1
  O  O49  1  0.73463900  0.38704700  0.28675300  1
  O  O50  1  0.23463900  0.61295300  0.21324700  1
  O  O51  1  0.26536100  0.61295300  0.71324700  1
  O  O52  1  0.74665700  0.15145400  0.77278800  1
  O  O53  1  0.75334300  0.15145400  0.27278800  1
  O  O54  1  0.25334300  0.84854600  0.22721200  1
  O  O55  1  0.24665700  0.84854600  0.72721200  1
  O  O56  1  0.94026500  0.19697900  0.85692200  1
  O  O57  1  0.55973500  0.19697900  0.35692200  1
  O  O58  1  0.05973500  0.80302100  0.14307800  1
  O  O59  1  0.44026500  0.80302100  0.64307800  1
loop_
_geom_bond_atom_site_label_1
_geom_bond_atom_site_label_2
_geom_bond_distance
_geom_bond_site_symmetry_2
La0 O28 2.407986 1_545
La0 O53 2.447528 1_555
La0 O44 2.501381 1_554
La0 O16 2.559997 1_555
La0 O14 2.594732 1_554
La0 O8 2.599334 1_555
La0 O4 2.722764 1_554
La0 O0 2.742544 1_555
La0 O24 2.809309 1_555
La1 O29 2.407986 1_545
La1 O52 2.447528 1_555
La1 O45 2.501381 1_555
La1 O17 2.559997 1_655
La1 O15 2.594732 1_555
La1 O9 2.599334 1_555
La1 O5 2.722764 1_555
La1 O1 2.742544 1_555
La1 O25 2.809309 1_555
La2 O30 2.407986 1_565
La2 O55 2.447528 1_555
La2 O46 2.501381 1_556
La2 O18 2.559997 1_555
La2 O12 2.594732 1_556
La2 O10 2.599334 1_555
La2 O6 2.722764 1_556
La2 O2 2.742544 1_555
La2 O26 2.809309 1_555
La3 O31 2.407986 1_565
La3 O54 2.447528 1_555
La3 O47 2.501381 1_555
La3 O19 2.559997 1_455
La3 O13 2.594732 1_555
La3 O11 2.599334 1_555
La3 O7 2.722764 1_555
La3 O3 2.742544 1_555
La3 O27 2.809309 1_555
La4 O35 2.418041 1_655
La4 O58 2.465174 1_655
La4 O40 2.523280 1_555
La4 O49 2.600113 1_555
La4 O20 2.604971 1_555
La4 O6 2.695891 1_655
La4 O0 2.698517 1_555
La4 O15 2.783798 1_555
La4 O11 2.795670 1_655
La4 O50 2.872820 1_655
La5 O34 2.418041 1_555
La5 O59 2.465174 1_555
La5 O41 2.523280 1_555
La5 O48 2.600113 1_555
La5 O21 2.604971 1_555
La5 O7 2.695891 1_555
La5 O1 2.698517 1_555
La5 O14 2.783798 1_555
La5 O10 2.795670 1_555
La5 O51 2.872820 1_555
La6 O33 2.418041 1_455
La6 O56 2.465174 1_455
La6 O42 2.523280 1_555
La6 O51 2.600113 1_555
La6 O22 2.604971 1_555
La6 O4 2.695891 1_455
La6 O2 2.698517 1_555
La6 O13 2.783798 1_555
La6 O9 2.795670 1_455
La6 O48 2.872820 1_455
La7 O32 2.418041 1_555
La7 O57 2.465174 1_555
La7 O43 2.523280 1_555
La7 O50 2.600113 1_555
La7 O23 2.604971 1_555
La7 O5 2.695891 1_555
La7 O3 2.698517 1_555
La7 O12 2.783798 1_555
La7 O8 2.795670 1_555
La7 O49 2.872820 1_555
C0 O4 1.268645 1_554
C0 O0 1.270837 1_555
C1 O5 1.268645 1_555
C1 O1 1.270837 1_555
C2 O6 1.268645 1_556
C2 O2 1.270837 1_555
C3 O7 1.268645 1_555
C3 O3 1.270837 1_555
C4 O8 1.262864 1_555
C4 O12 1.269704 1_555
C5 O9 1.262864 1_455
C5 O13 1.269704 1_555
C6 O10 1.262864 1_555
C6 O14 1.269704 1_555
C7 O11 1.262864 1_655
C7 O15 1.269704 1_555
O16 O27 1.976356 1_545
O17 O26 1.976356 1_545
O18 O25 1.976356 1_565
O19 O24 1.976356 1_565
O28 S0 1.493574 1_555
O29 S1 1.493574 1_555
O30 S2 1.493574 1_555
O31 S3 1.493574 1_555
O32 S0 1.489318 1_555
O33 S1 1.489318 1_555
O34 S2 1.489318 1_555
O35 S3 1.489318 1_555
O36 S0 1.483627 1_555
O37 S1 1.483627 1_555
O38 S2 1.483627 1_555
O39 S3 1.483627 1_555
O40 S0 1.488766 1_555
O41 S1 1.488766 1_555
O42 S2 1.488766 1_555
O43 S3 1.488766 1_555
O44 S4 1.477479 1_555
O45 S5 1.477479 1_555
O46 S6 1.477479 1_555
O47 S7 1.477479 1_555
O48 S4 1.513753 1_555
O49 S5 1.513753 1_555
O50 S6 1.513753 1_555
O51 S7 1.513753 1_555
O52 S4 1.481406 1_555
O53 S5 1.481406 1_555
O54 S6 1.481406 1_555
O55 S7 1.481406 1_555
O56 S4 1.495678 1_555
O57 S5 1.495678 1_555
O58 S6 1.495678 1_555
O59 S7 1.495678 1_555
