# generated using pymatgen
data_V3OF7
_symmetry_space_group_name_H-M   'P 1'
_cell_length_a   4.02737300
_cell_length_b   9.97051000
_cell_length_c   15.35959800
_cell_angle_alpha   90.00000000
_cell_angle_beta   90.00000000
_cell_angle_gamma   90.00000000
_symmetry_Int_Tables_number   1
_chemical_formula_structural   V3OF7
_chemical_formula_sum   'V12 O4 F28'
_cell_volume   616.76408586
_cell_formula_units_Z   4
loop_
 _symmetry_equiv_pos_site_id
 _symmetry_equiv_pos_as_xyz
  1  'x, y, z'
loop_
 _atom_site_type_symbol
 _atom_site_label
 _atom_site_symmetry_multiplicity
 _atom_site_fract_x
 _atom_site_fract_y
 _atom_site_fract_z
 _atom_site_occupancy
  V  V0  1  0.48922000  0.25000000  0.03979400  1
  V  V1  1  0.49570200  0.57344600  0.17929800  1
  V  V2  1  0.49570200  0.92655400  0.17929800  1
  V  V3  1  0.99570200  0.07344600  0.32070200  1
  V  V4  1  0.99570200  0.42655400  0.32070200  1
  V  V5  1  0.98922000  0.75000000  0.46020600  1
  V  V6  1  0.01078000  0.25000000  0.53979400  1
  V  V7  1  0.00429800  0.57344600  0.67929800  1
  V  V8  1  0.00429800  0.92655400  0.67929800  1
  V  V9  1  0.50429800  0.07344600  0.82070200  1
  V  V10  1  0.50429800  0.42655400  0.82070200  1
  V  V11  1  0.51078000  0.75000000  0.96020600  1
  O  O0  1  0.49481400  0.75000000  0.20721100  1
  O  O1  1  0.99481400  0.25000000  0.29278900  1
  O  O2  1  0.00518600  0.75000000  0.70721100  1
  O  O3  1  0.50518600  0.25000000  0.79278900  1
  F  F0  1  0.98903000  0.25000000  0.03675100  1
  F  F1  1  0.51072500  0.61378300  0.05240900  1
  F  F2  1  0.51072500  0.88621700  0.05240900  1
  F  F3  1  0.49006800  0.11617300  0.13419500  1
  F  F4  1  0.49006800  0.38382700  0.13419500  1
  F  F5  1  0.99483500  0.96542800  0.19840400  1
  F  F6  1  0.99483500  0.53457200  0.19840400  1
  F  F7  1  0.49483500  0.03457200  0.30159600  1
  F  F8  1  0.49483500  0.46542800  0.30159600  1
  F  F9  1  0.99006800  0.61617300  0.36580500  1
  F  F10  1  0.99006800  0.88382700  0.36580500  1
  F  F11  1  0.01072500  0.11378300  0.44759100  1
  F  F12  1  0.01072500  0.38621700  0.44759100  1
  F  F13  1  0.48903000  0.75000000  0.46324900  1
  F  F14  1  0.51097000  0.25000000  0.53675100  1
  F  F15  1  0.98927500  0.61378300  0.55240900  1
  F  F16  1  0.98927500  0.88621700  0.55240900  1
  F  F17  1  0.00993200  0.11617300  0.63419500  1
  F  F18  1  0.00993200  0.38382700  0.63419500  1
  F  F19  1  0.50516500  0.53457200  0.69840400  1
  F  F20  1  0.50516500  0.96542800  0.69840400  1
  F  F21  1  0.00516500  0.03457200  0.80159600  1
  F  F22  1  0.00516500  0.46542800  0.80159600  1
  F  F23  1  0.50993200  0.61617300  0.86580500  1
  F  F24  1  0.50993200  0.88382700  0.86580500  1
  F  F25  1  0.48927500  0.11378300  0.94759100  1
  F  F26  1  0.48927500  0.38621700  0.94759100  1
  F  F27  1  0.01097000  0.75000000  0.96324900  1
loop_
_geom_bond_atom_site_label_1
_geom_bond_atom_site_label_2
_geom_bond_distance
_geom_bond_site_symmetry_2
O0 V1 1.811794 1_555
O0 V2 1.811794 1_555
O1 V3 1.811794 1_555
O1 V4 1.811794 1_555
O2 V8 1.811794 1_555
O2 V7 1.811794 1_555
O3 V10 1.811794 1_555
O3 V9 1.811794 1_555
F0 V0 2.013464 1_555
F0 V0 2.014994 1_655
F1 V11 1.962194 1_554
F1 V1 1.990947 1_555
F2 V11 1.962194 1_554
F2 V2 1.990947 1_555
F3 V0 1.970487 1_555
F3 V2 2.013653 1_545
F4 V0 1.970487 1_555
F4 V1 2.013653 1_555
F5 V2 2.068147 1_555
F5 V2 2.074935 1_655
F5 V3 2.165294 1_565
F6 V1 2.068147 1_555
F6 V1 2.074935 1_655
F6 V4 2.165294 1_555
F7 V3 2.068147 1_455
F7 V3 2.074935 1_555
F7 V2 2.165294 1_545
F8 V4 2.068147 1_455
F8 V4 2.074935 1_555
F8 V1 2.165294 1_555
F9 V5 1.970487 1_555
F9 V4 2.013653 1_555
F10 V5 1.970487 1_555
F10 V3 2.013653 1_565
F11 V6 1.962194 1_555
F11 V3 1.990947 1_455
F12 V6 1.962194 1_555
F12 V4 1.990947 1_455
F13 V5 2.013464 1_455
F13 V5 2.014994 1_555
F14 V6 2.013464 1_655
F14 V6 2.014994 1_555
F15 V5 1.962194 1_555
F15 V7 1.990947 1_655
F16 V5 1.962194 1_555
F16 V8 1.990947 1_655
F17 V6 1.970487 1_555
F17 V8 2.013653 1_545
F18 V6 1.970487 1_555
F18 V7 2.013653 1_555
F19 V7 2.068147 1_655
F19 V7 2.074935 1_555
F19 V10 2.165294 1_555
F20 V8 2.068147 1_655
F20 V8 2.074935 1_555
F20 V9 2.165294 1_565
F21 V9 2.068147 1_555
F21 V9 2.074935 1_455
F21 V8 2.165294 1_545
F22 V10 2.068147 1_555
F22 V10 2.074935 1_455
F22 V7 2.165294 1_555
F23 V11 1.970487 1_555
F23 V10 2.013653 1_555
F24 V11 1.970487 1_555
F24 V9 2.013653 1_565
F25 V0 1.962194 1_556
F25 V9 1.990947 1_555
F26 V0 1.962194 1_556
F26 V10 1.990947 1_555
F27 V11 2.013464 1_555
F27 V11 2.014994 1_455
