# generated using pymatgen
data_CdB10H6O19
_symmetry_space_group_name_H-M   'P 1'
_cell_length_a   7.89030200
_cell_length_b   19.30792800
_cell_length_c   12.53390625
_cell_angle_alpha   90.00000000
_cell_angle_beta   127.80522687
_cell_angle_gamma   90.00000000
_symmetry_Int_Tables_number   1
_chemical_formula_structural   CdB10H6O19
_chemical_formula_sum   'Cd4 B40 H24 O76'
_cell_volume   1508.68059267
_cell_formula_units_Z   4
loop_
 _symmetry_equiv_pos_site_id
 _symmetry_equiv_pos_as_xyz
  1  'x, y, z'
loop_
 _atom_site_type_symbol
 _atom_site_label
 _atom_site_symmetry_multiplicity
 _atom_site_fract_x
 _atom_site_fract_y
 _atom_site_fract_z
 _atom_site_occupancy
  Cd  Cd0  1  0.91877300  0.23081200  0.97194600  1
  Cd  Cd1  1  0.91877300  0.26918800  0.47194600  1
  Cd  Cd2  1  0.08122700  0.76918800  0.02805400  1
  Cd  Cd3  1  0.08122700  0.73081200  0.52805400  1
  B  B0  1  0.51507200  0.21445200  0.96961700  1
  B  B1  1  0.51507200  0.28554800  0.46961700  1
  B  B2  1  0.48492800  0.78554800  0.03038300  1
  B  B3  1  0.48492800  0.71445200  0.53038300  1
  B  B4  1  0.79522300  0.26212600  0.19544800  1
  B  B5  1  0.79522300  0.23787400  0.69544800  1
  B  B6  1  0.20477700  0.73787400  0.80455200  1
  B  B7  1  0.20477700  0.76212600  0.30455200  1
  B  B8  1  0.43473500  0.31417300  0.08151400  1
  B  B9  1  0.43473500  0.18582700  0.58151400  1
  B  B10  1  0.56526500  0.68582700  0.91848600  1
  B  B11  1  0.56526500  0.81417300  0.41848600  1
  B  B12  1  0.22174900  0.40785600  0.91738400  1
  B  B13  1  0.22174900  0.09214400  0.41738400  1
  B  B14  1  0.77825100  0.59214400  0.08261600  1
  B  B15  1  0.77825100  0.90785600  0.58261600  1
  B  B16  1  0.16362800  0.28876200  0.82442200  1
  B  B17  1  0.16362800  0.21123800  0.32442200  1
  B  B18  1  0.83637200  0.71123800  0.17557800  1
  B  B19  1  0.83637200  0.78876200  0.67557800  1
  B  B20  1  0.33307200  0.23022200  0.72856600  1
  B  B21  1  0.33307200  0.26977800  0.22856600  1
  B  B22  1  0.66692800  0.76977800  0.27143400  1
  B  B23  1  0.66692800  0.73022200  0.77143400  1
  B  B24  1  0.00753700  0.51302400  0.78271000  1
  B  B25  1  0.00753700  0.98697600  0.28271000  1
  B  B26  1  0.99246300  0.48697600  0.21729000  1
  B  B27  1  0.99246300  0.01302400  0.71729000  1
  B  B28  1  0.48194400  0.12021600  0.09516600  1
  B  B29  1  0.48194400  0.37978400  0.59516600  1
  B  B30  1  0.51805600  0.87978400  0.90483400  1
  B  B31  1  0.51805600  0.62021600  0.40483400  1
  B  B32  1  0.47047200  0.02059700  0.20853600  1
  B  B33  1  0.47047200  0.47940300  0.70853600  1
  B  B34  1  0.52952800  0.97940300  0.79146400  1
  B  B35  1  0.52952800  0.52059700  0.29146400  1
  B  B36  1  0.68949100  0.11819000  0.33738600  1
  B  B37  1  0.68949100  0.38181000  0.83738600  1
  B  B38  1  0.31050900  0.88181000  0.66261400  1
  B  B39  1  0.31050900  0.61819000  0.16261400  1
  H  H0  1  0.86199100  0.60515500  0.71977900  1
  H  H1  1  0.86199100  0.89484500  0.21977900  1
  H  H2  1  0.13800900  0.39484500  0.28022100  1
  H  H3  1  0.13800900  0.10515500  0.78022100  1
  H  H4  1  0.78693500  0.51344200  0.57923900  1
  H  H5  1  0.78693500  0.98655800  0.07923900  1
  H  H6  1  0.21306500  0.48655800  0.42076100  1
  H  H7  1  0.21306500  0.01344200  0.92076100  1
  H  H8  1  0.45830400  0.93684000  0.29409800  1
  H  H9  1  0.45830400  0.56316000  0.79409800  1
  H  H10  1  0.54169600  0.06316000  0.70590200  1
  H  H11  1  0.54169600  0.43684000  0.20590200  1
  H  H12  1  0.89906100  0.12329300  0.54339100  1
  H  H13  1  0.89906100  0.37670700  0.04339100  1
  H  H14  1  0.10093900  0.87670700  0.45660900  1
  H  H15  1  0.10093900  0.62329300  0.95660900  1
  H  H16  1  0.97662900  0.10456600  0.08879400  1
  H  H17  1  0.97662900  0.39543400  0.58879400  1
  H  H18  1  0.02337100  0.89543400  0.91120600  1
  H  H19  1  0.02337100  0.60456600  0.41120600  1
  H  H20  1  0.84160800  0.08836100  0.93346000  1
  H  H21  1  0.84160800  0.41163900  0.43346000  1
  H  H22  1  0.15839200  0.91163900  0.06654000  1
  H  H23  1  0.15839200  0.58836100  0.56654000  1
  O  O0  1  0.73682500  0.22676600  0.08258700  1
  O  O1  1  0.73682500  0.27323400  0.58258700  1
  O  O2  1  0.26317500  0.77323400  0.91741300  1
  O  O3  1  0.26317500  0.72676600  0.41741300  1
  O  O4  1  0.38038700  0.27509000  0.95679300  1
  O  O5  1  0.38038700  0.22491000  0.45679300  1
  O  O6  1  0.61961300  0.72491000  0.04320700  1
  O  O7  1  0.61961300  0.77509000  0.54320700  1
  O  O8  1  0.51118500  0.20996300  0.85202600  1
  O  O9  1  0.51118500  0.29003700  0.35202600  1
  O  O10  1  0.48881500  0.79003700  0.14797400  1
  O  O11  1  0.48881500  0.70996300  0.64797400  1
  O  O12  1  0.99770300  0.25393900  0.31712900  1
  O  O13  1  0.99770300  0.24606100  0.81712900  1
  O  O14  1  0.00229700  0.74606100  0.68287100  1
  O  O15  1  0.00229700  0.75393900  0.18287100  1
  O  O16  1  0.65965700  0.30646600  0.19455500  1
  O  O17  1  0.65965700  0.19353400  0.69455500  1
  O  O18  1  0.34034300  0.69353400  0.80544500  1
  O  O19  1  0.34034300  0.80646600  0.30544500  1
  O  O20  1  0.29449900  0.28296900  0.10867500  1
  O  O21  1  0.29449900  0.21703100  0.60867500  1
  O  O22  1  0.70550100  0.71703100  0.89132500  1
  O  O23  1  0.70550100  0.78296900  0.39132500  1
  O  O24  1  0.38421200  0.38774300  0.04763700  1
  O  O25  1  0.38421200  0.11225700  0.54763700  1
  O  O26  1  0.61578800  0.61225700  0.95236300  1
  O  O27  1  0.61578800  0.88774300  0.45236300  1
  O  O28  1  0.11855000  0.36220000  0.81210900  1
  O  O29  1  0.11855000  0.13780000  0.31210900  1
  O  O30  1  0.88145000  0.63780000  0.18789100  1
  O  O31  1  0.88145000  0.86220000  0.68789100  1
  O  O32  1  0.16927200  0.26593600  0.71485500  1
  O  O33  1  0.16927200  0.23406400  0.21485500  1
  O  O34  1  0.83072800  0.73406400  0.28514500  1
  O  O35  1  0.83072800  0.76593600  0.78514500  1
  O  O36  1  0.16224400  0.47716800  0.89653700  1
  O  O37  1  0.16224400  0.02283200  0.39653700  1
  O  O38  1  0.83775600  0.52283200  0.10346300  1
  O  O39  1  0.83775600  0.97716800  0.60346300  1
  O  O40  1  0.97384500  0.58110200  0.80379600  1
  O  O41  1  0.97384500  0.91889800  0.30379600  1
  O  O42  1  0.02615500  0.41889800  0.19620400  1
  O  O43  1  0.02615500  0.08110200  0.69620400  1
  O  O44  1  0.89123000  0.48370700  0.65666700  1
  O  O45  1  0.89123000  0.01629300  0.15666700  1
  O  O46  1  0.10877000  0.51629300  0.34333300  1
  O  O47  1  0.10877000  0.98370700  0.84333300  1
  O  O48  1  0.42598700  0.14918300  0.98028600  1
  O  O49  1  0.42598700  0.35081700  0.48028600  1
  O  O50  1  0.57401300  0.85081700  0.01971400  1
  O  O51  1  0.57401300  0.64918300  0.51971400  1
  O  O52  1  0.61081800  0.15399000  0.22007700  1
  O  O53  1  0.61081800  0.34601000  0.72007700  1
  O  O54  1  0.38918200  0.84601000  0.77992300  1
  O  O55  1  0.38918200  0.65399000  0.27992300  1
  O  O56  1  0.40818200  0.05321700  0.09030100  1
  O  O57  1  0.40818200  0.44678300  0.59030100  1
  O  O58  1  0.59181800  0.94678300  0.90969900  1
  O  O59  1  0.59181800  0.55321700  0.40969900  1
  O  O60  1  0.38543300  0.95837600  0.20303600  1
  O  O61  1  0.38543300  0.54162400  0.70303600  1
  O  O62  1  0.61456700  0.04162400  0.79696400  1
  O  O63  1  0.61456700  0.45837600  0.29696400  1
  O  O64  1  0.62137300  0.05209000  0.33220300  1
  O  O65  1  0.62137300  0.44791000  0.83220300  1
  O  O66  1  0.37862700  0.94791000  0.66779700  1
  O  O67  1  0.37862700  0.55209000  0.16779700  1
  O  O68  1  0.83584200  0.15070200  0.45861900  1
  O  O69  1  0.83584200  0.34929800  0.95861900  1
  O  O70  1  0.16415800  0.84929800  0.54138100  1
  O  O71  1  0.16415800  0.65070200  0.04138100  1
  O  O72  1  0.96530100  0.11590300  0.00823100  1
  O  O73  1  0.96530100  0.38409700  0.50823100  1
  O  O74  1  0.03469900  0.88409700  0.99176900  1
  O  O75  1  0.03469900  0.61590300  0.49176900  1
loop_
_geom_bond_atom_site_label_1
_geom_bond_atom_site_label_2
_geom_bond_distance
_geom_bond_site_symmetry_2
Cd0 O72 2.249300 1_556
Cd0 O69 2.357061 1_555
Cd0 O13 2.391963 1_555
Cd0 O33 2.408878 1_656
Cd0 O0 2.535934 1_556
Cd0 O20 2.551728 1_656
Cd0 O8 2.614912 1_555
Cd1 O73 2.249300 1_555
Cd1 O68 2.357061 1_555
Cd1 O12 2.391963 1_555
Cd1 O32 2.408878 1_655
Cd1 O1 2.535934 1_555
Cd1 O21 2.551728 1_655
Cd1 O9 2.614912 1_555
Cd2 O74 2.249300 1_554
Cd2 O71 2.357061 1_555
Cd2 O15 2.391963 1_555
Cd2 O35 2.408878 1_454
Cd2 O2 2.535934 1_554
Cd2 O22 2.551728 1_454
Cd2 O10 2.614912 1_555
Cd3 O75 2.249300 1_555
Cd3 O70 2.357061 1_555
Cd3 O14 2.391963 1_555
Cd3 O34 2.408878 1_455
Cd3 O3 2.535934 1_555
Cd3 O23 2.551728 1_455
Cd3 O11 2.614912 1_555
B0 O0 1.444160 1_556
B0 O8 1.457855 1_555
B0 O48 1.488396 1_555
B0 O4 1.522014 1_555
B1 O1 1.444160 1_555
B1 O9 1.457855 1_555
B1 O49 1.488396 1_555
B1 O5 1.522014 1_555
B2 O2 1.444160 1_554
B2 O10 1.457855 1_555
B2 O50 1.488396 1_555
B2 O6 1.522014 1_555
B3 O3 1.444160 1_555
B3 O11 1.457855 1_555
B3 O51 1.488396 1_555
B3 O7 1.522014 1_555
B4 O16 1.364750 1_555
B4 O0 1.371278 1_555
B4 O12 1.384296 1_555
B5 O17 1.364750 1_555
B5 O1 1.371278 1_555
B5 O13 1.384296 1_555
B6 O18 1.364750 1_555
B6 O2 1.371278 1_555
B6 O14 1.384296 1_555
B7 O19 1.364750 1_555
B7 O3 1.371278 1_555
B7 O15 1.384296 1_555
B8 O16 1.447935 1_555
B8 O24 1.466107 1_555
B8 O20 1.471408 1_555
B8 O4 1.541177 1_554
B9 O17 1.447935 1_555
B9 O25 1.466107 1_555
B9 O21 1.471408 1_555
B9 O5 1.541177 1_555
B10 O18 1.447935 1_555
B10 O26 1.466107 1_555
B10 O22 1.471408 1_555
B10 O6 1.541177 1_556
B11 O19 1.447935 1_555
B11 O27 1.466107 1_555
B11 O23 1.471408 1_555
B11 O7 1.541177 1_555
B12 O28 1.365285 1_555
B12 O24 1.376114 1_556
B12 O36 1.388987 1_555
B13 O29 1.365285 1_555
B13 O25 1.376114 1_555
B13 O37 1.388987 1_555
B14 O30 1.365285 1_555
B14 O26 1.376114 1_554
B14 O38 1.388987 1_555
B15 O31 1.365285 1_555
B15 O27 1.376114 1_555
B15 O39 1.388987 1_555
B16 O28 1.446918 1_555
B16 O32 1.468726 1_555
B16 O13 1.501795 1_455
B16 O4 1.506226 1_555
B17 O29 1.446918 1_555
B17 O33 1.468726 1_555
B17 O12 1.501795 1_455
B17 O5 1.506226 1_555
B18 O30 1.446918 1_555
B18 O34 1.468726 1_555
B18 O15 1.501795 1_655
B18 O6 1.506226 1_555
B19 O31 1.446918 1_555
B19 O35 1.468726 1_555
B19 O14 1.501795 1_655
B19 O7 1.506226 1_555
B20 O21 1.361954 1_555
B20 O8 1.362537 1_555
B20 O32 1.379535 1_555
B21 O20 1.361954 1_555
B21 O9 1.362537 1_555
B21 O33 1.379535 1_555
B22 O23 1.361954 1_555
B22 O10 1.362537 1_555
B22 O34 1.379535 1_555
B23 O22 1.361954 1_555
B23 O11 1.362537 1_555
B23 O35 1.379535 1_555
B24 O36 1.367391 1_555
B24 O44 1.371497 1_455
B24 O40 1.398006 1_455
B25 O37 1.367391 1_565
B25 O45 1.371497 1_465
B25 O41 1.398006 1_455
B26 O38 1.367391 1_555
B26 O46 1.371497 1_655
B26 O42 1.398006 1_655
B27 O39 1.367391 1_545
B27 O47 1.371497 1_645
B27 O43 1.398006 1_655
B28 O48 1.342257 1_554
B28 O52 1.399525 1_555
B28 O56 1.404411 1_555
B29 O49 1.342257 1_555
B29 O53 1.399525 1_555
B29 O57 1.404411 1_555
B30 O50 1.342257 1_556
B30 O54 1.399525 1_555
B30 O58 1.404411 1_555
B31 O51 1.342257 1_555
B31 O55 1.399525 1_555
B31 O59 1.404411 1_555
B32 O60 1.357029 1_545
B32 O64 1.388318 1_555
B32 O56 1.393366 1_555
B33 O61 1.357029 1_555
B33 O65 1.388318 1_555
B33 O57 1.393366 1_555
B34 O62 1.357029 1_565
B34 O66 1.388318 1_555
B34 O58 1.393366 1_555
B35 O63 1.357029 1_555
B35 O67 1.388318 1_555
B35 O59 1.393366 1_555
B36 O64 1.370808 1_555
B36 O68 1.373064 1_555
B36 O52 1.380605 1_555
B37 O65 1.370808 1_555
B37 O69 1.373064 1_555
B37 O53 1.380605 1_555
B38 O66 1.370808 1_555
B38 O70 1.373064 1_555
B38 O54 1.380605 1_555
B39 O67 1.370808 1_555
B39 O71 1.373064 1_555
B39 O55 1.380605 1_555
H0 O40 0.981905 1_555
H1 O41 0.981905 1_555
H2 O42 0.981905 1_555
H3 O43 0.981905 1_555
H4 O44 0.984660 1_555
H5 O45 0.984660 1_565
H6 O46 0.984660 1_555
H7 O47 0.984660 1_545
H8 O60 1.000833 1_555
H9 O61 1.000833 1_555
H10 O62 1.000833 1_555
H11 O63 1.000833 1_555
H12 O68 1.004030 1_555
H13 O69 1.004030 1_554
H14 O70 1.004030 1_555
H15 O71 1.004030 1_556
H16 O72 0.982288 1_555
H17 O73 0.982288 1_555
H18 O74 0.982288 1_555
H19 O75 0.982288 1_555
H20 O72 0.996131 1_556
H21 O73 0.996131 1_555
H22 O74 0.996131 1_554
H23 O75 0.996131 1_555
