# generated using pymatgen
data_LiTiSiO4
_symmetry_space_group_name_H-M   'P 1'
_cell_length_a   5.65410400
_cell_length_b   8.42314200
_cell_length_c   18.00124200
_cell_angle_alpha   90.00000000
_cell_angle_beta   90.00000000
_cell_angle_gamma   90.00000000
_symmetry_Int_Tables_number   1
_chemical_formula_structural   LiTiSiO4
_chemical_formula_sum   'Li12 Ti12 Si12 O48'
_cell_volume   857.31492639
_cell_formula_units_Z   12
loop_
 _symmetry_equiv_pos_site_id
 _symmetry_equiv_pos_as_xyz
  1  'x, y, z'
loop_
 _atom_site_type_symbol
 _atom_site_label
 _atom_site_symmetry_multiplicity
 _atom_site_fract_x
 _atom_site_fract_y
 _atom_site_fract_z
 _atom_site_occupancy
  Li  Li0  1  0.47987200  0.16374800  0.91668200  1
  Li  Li1  1  0.02012800  0.66374800  0.91668200  1
  Li  Li2  1  0.50000000  0.84020800  0.75000000  1
  Li  Li3  1  0.00000000  0.34020800  0.75000000  1
  Li  Li4  1  0.52012800  0.16374800  0.58331800  1
  Li  Li5  1  0.97987200  0.66374800  0.58331800  1
  Li  Li6  1  0.47987200  0.83625200  0.41668200  1
  Li  Li7  1  0.02012800  0.33625200  0.41668200  1
  Li  Li8  1  0.50000000  0.15979200  0.25000000  1
  Li  Li9  1  0.00000000  0.65979200  0.25000000  1
  Li  Li10  1  0.52012800  0.83625200  0.08331800  1
  Li  Li11  1  0.97987200  0.33625200  0.08331800  1
  Ti  Ti0  1  0.50000000  0.50000000  0.00000000  1
  Ti  Ti1  1  0.00000000  0.00000000  0.00000000  1
  Ti  Ti2  1  0.99773200  0.00156400  0.82929800  1
  Ti  Ti3  1  0.50226800  0.50156400  0.82929800  1
  Ti  Ti4  1  0.00226800  0.00156400  0.67070200  1
  Ti  Ti5  1  0.49773200  0.50156400  0.67070200  1
  Ti  Ti6  1  0.50000000  0.50000000  0.50000000  1
  Ti  Ti7  1  0.00000000  0.00000000  0.50000000  1
  Ti  Ti8  1  0.99773200  0.99843600  0.32929800  1
  Ti  Ti9  1  0.50226800  0.49843600  0.32929800  1
  Ti  Ti10  1  0.00226800  0.99843600  0.17070200  1
  Ti  Ti11  1  0.49773200  0.49843600  0.17070200  1
  Si  Si0  1  0.49949000  0.84787000  0.91589700  1
  Si  Si1  1  0.00051000  0.34787000  0.91589700  1
  Si  Si2  1  0.50000000  0.15500300  0.75000000  1
  Si  Si3  1  0.00000000  0.65500300  0.75000000  1
  Si  Si4  1  0.50051000  0.84787000  0.58410300  1
  Si  Si5  1  0.99949000  0.34787000  0.58410300  1
  Si  Si6  1  0.49949000  0.15213000  0.41589700  1
  Si  Si7  1  0.00051000  0.65213000  0.41589700  1
  Si  Si8  1  0.50000000  0.84499700  0.25000000  1
  Si  Si9  1  0.00000000  0.34499700  0.25000000  1
  Si  Si10  1  0.50051000  0.15213000  0.08410300  1
  Si  Si11  1  0.99949000  0.65213000  0.08410300  1
  O  O0  1  0.99594400  0.76720700  0.01124600  1
  O  O1  1  0.49594400  0.73279300  0.98875400  1
  O  O2  1  0.00405600  0.23279300  0.98875400  1
  O  O3  1  0.76656000  0.47237400  0.91616700  1
  O  O4  1  0.23391700  0.47007900  0.91598000  1
  O  O5  1  0.26608300  0.97007900  0.91598000  1
  O  O6  1  0.73344000  0.97237400  0.91616700  1
  O  O7  1  0.49746700  0.73462400  0.84259100  1
  O  O8  1  0.00253300  0.23462400  0.84259100  1
  O  O9  1  0.49942100  0.26713400  0.82287500  1
  O  O10  1  0.00057900  0.76713400  0.82287500  1
  O  O11  1  0.22838300  0.52948100  0.75038700  1
  O  O12  1  0.77161700  0.52948100  0.74961300  1
  O  O13  1  0.72838300  0.02948100  0.74961300  1
  O  O14  1  0.27161700  0.02948100  0.75038700  1
  O  O15  1  0.50057900  0.26713400  0.67712500  1
  O  O16  1  0.99942100  0.76713400  0.67712500  1
  O  O17  1  0.50253300  0.73462400  0.65740900  1
  O  O18  1  0.99746700  0.23462400  0.65740900  1
  O  O19  1  0.23344000  0.47237400  0.58383300  1
  O  O20  1  0.76608300  0.47007900  0.58402000  1
  O  O21  1  0.73391700  0.97007900  0.58402000  1
  O  O22  1  0.26656000  0.97237400  0.58383300  1
  O  O23  1  0.50405600  0.73279300  0.51124600  1
  O  O24  1  0.99594400  0.23279300  0.51124600  1
  O  O25  1  0.49594400  0.26720700  0.48875400  1
  O  O26  1  0.00405600  0.76720700  0.48875400  1
  O  O27  1  0.76656000  0.52762600  0.41616700  1
  O  O28  1  0.23391700  0.52992100  0.41598000  1
  O  O29  1  0.26608300  0.02992100  0.41598000  1
  O  O30  1  0.73344000  0.02762600  0.41616700  1
  O  O31  1  0.49746700  0.26537600  0.34259100  1
  O  O32  1  0.00253300  0.76537600  0.34259100  1
  O  O33  1  0.49942100  0.73286600  0.32287500  1
  O  O34  1  0.00057900  0.23286600  0.32287500  1
  O  O35  1  0.77161700  0.47051900  0.24961300  1
  O  O36  1  0.22838300  0.47051900  0.25038700  1
  O  O37  1  0.27161700  0.97051900  0.25038700  1
  O  O38  1  0.72838300  0.97051900  0.24961300  1
  O  O39  1  0.50057900  0.73286600  0.17712500  1
  O  O40  1  0.99942100  0.23286600  0.17712500  1
  O  O41  1  0.50253300  0.26537600  0.15740900  1
  O  O42  1  0.99746700  0.76537600  0.15740900  1
  O  O43  1  0.23344000  0.52762600  0.08383300  1
  O  O44  1  0.76608300  0.52992100  0.08402000  1
  O  O45  1  0.73391700  0.02992100  0.08402000  1
  O  O46  1  0.26656000  0.02762600  0.08383300  1
  O  O47  1  0.50405600  0.26720700  0.01124600  1
loop_
_geom_bond_atom_site_label_1
_geom_bond_atom_site_label_2
_geom_bond_distance
_geom_bond_site_symmetry_2
Li0 O9 1.903177 1_555
Li0 O47 1.917249 1_556
Li0 O5 2.030386 1_545
Li0 O6 2.157320 1_545
Li1 O10 1.903177 1_555
Li1 O0 1.917249 1_456
Li1 O4 2.030386 1_555
Li1 O3 2.157320 1_455
Li2 O7 1.889236 1_555
Li2 O17 1.889236 1_555
Li2 O13 2.051637 1_565
Li2 O14 2.051637 1_565
Li3 O8 1.889236 1_555
Li3 O18 1.889236 1_455
Li3 O11 2.051637 1_555
Li3 O12 2.051637 1_455
Li4 O15 1.903177 1_555
Li4 O25 1.917249 1_555
Li4 O21 2.030386 1_545
Li4 O22 2.157320 1_545
Li5 O16 1.903177 1_555
Li5 O26 1.917249 1_655
Li5 O20 2.030386 1_555
Li5 O19 2.157320 1_655
Li6 O33 1.903177 1_555
Li6 O23 1.917249 1_555
Li6 O29 2.030386 1_565
Li6 O30 2.157320 1_565
Li7 O34 1.903177 1_555
Li7 O24 1.917249 1_455
Li7 O28 2.030386 1_555
Li7 O27 2.157320 1_455
Li8 O31 1.889236 1_555
Li8 O41 1.889236 1_555
Li8 O38 2.051637 1_545
Li8 O37 2.051637 1_545
Li9 O32 1.889236 1_555
Li9 O42 1.889236 1_455
Li9 O35 2.051637 1_455
Li9 O36 2.051637 1_555
Li10 O39 1.903177 1_555
Li10 O1 1.917249 1_554
Li10 O45 2.030386 1_565
Li10 O46 2.157320 1_565
Li11 O40 1.903177 1_555
Li11 O2 1.917249 1_654
Li11 O44 2.030386 1_555
Li11 O43 2.157320 1_655
O0 Si11 1.630963 1_555
O0 Ti1 1.971404 1_665
O1 Si0 1.630963 1_555
O1 Ti0 1.971404 1_556
O2 Si1 1.630963 1_555
O2 Ti1 1.971404 1_556
O3 Si1 1.688066 1_655
O3 Ti0 2.145472 1_556
O3 Ti3 2.176879 1_555
O4 Si1 1.673697 1_555
O4 Ti0 2.148132 1_556
O4 Ti3 2.192551 1_555
O5 Si0 1.673697 1_555
O5 Ti1 2.148132 1_566
O5 Ti2 2.192551 1_465
O6 Si0 1.688066 1_555
O6 Ti1 2.145472 1_666
O6 Ti2 2.176879 1_565
O7 Si0 1.628304 1_555
O7 Ti3 1.977814 1_555
O8 Si1 1.628304 1_555
O8 Ti2 1.977814 1_455
O9 Si2 1.616480 1_555
O9 Ti3 1.978085 1_555
O10 Si3 1.616480 1_555
O10 Ti2 1.978085 1_465
O11 Si3 1.668942 1_555
O11 Ti5 2.105276 1_555
O11 Ti3 2.114518 1_555
O12 Si3 1.668942 1_655
O12 Ti3 2.105276 1_555
O12 Ti5 2.114518 1_555
O13 Si2 1.668942 1_555
O13 Ti2 2.105276 1_555
O13 Ti4 2.114518 1_655
O14 Si2 1.668942 1_555
O14 Ti4 2.105276 1_555
O14 Ti2 2.114518 1_455
O15 Si2 1.616480 1_555
O15 Ti5 1.978085 1_555
O16 Si3 1.616480 1_655
O16 Ti4 1.978085 1_665
O17 Si4 1.628304 1_555
O17 Ti5 1.977814 1_555
O18 Si5 1.628304 1_555
O18 Ti4 1.977814 1_655
O19 Si5 1.688066 1_455
O19 Ti6 2.145472 1_555
O19 Ti5 2.176879 1_555
O20 Si5 1.673697 1_555
O20 Ti6 2.148132 1_555
O20 Ti5 2.192551 1_555
O21 Si4 1.673697 1_555
O21 Ti7 2.148132 1_665
O21 Ti4 2.192551 1_665
O22 Si4 1.688066 1_555
O22 Ti7 2.145472 1_565
O22 Ti4 2.176879 1_565
O23 Si4 1.630963 1_555
O23 Ti6 1.971404 1_555
O24 Si5 1.630963 1_555
O24 Ti7 1.971404 1_655
O25 Si6 1.630963 1_555
O25 Ti6 1.971404 1_555
O26 Si7 1.630963 1_555
O26 Ti7 1.971404 1_565
O27 Si7 1.688066 1_655
O27 Ti6 2.145472 1_555
O27 Ti9 2.176879 1_555
O28 Si7 1.673697 1_555
O28 Ti6 2.148132 1_555
O28 Ti9 2.192551 1_555
O29 Si6 1.673697 1_555
O29 Ti7 2.148132 1_555
O29 Ti8 2.192551 1_445
O30 Si6 1.688066 1_555
O30 Ti7 2.145472 1_655
O30 Ti8 2.176879 1_545
O31 Si6 1.628304 1_555
O31 Ti9 1.977814 1_555
O32 Si7 1.628304 1_555
O32 Ti8 1.977814 1_455
O33 Si8 1.616480 1_555
O33 Ti9 1.978085 1_555
O34 Si9 1.616480 1_555
O34 Ti8 1.978085 1_445
O35 Si9 1.668942 1_655
O35 Ti9 2.105276 1_555
O35 Ti11 2.114518 1_555
O36 Si9 1.668942 1_555
O36 Ti11 2.105276 1_555
O36 Ti9 2.114518 1_555
O37 Si8 1.668942 1_555
O37 Ti10 2.105276 1_555
O37 Ti8 2.114518 1_455
O38 Si8 1.668942 1_555
O38 Ti8 2.105276 1_555
O38 Ti10 2.114518 1_655
O39 Si8 1.616480 1_555
O39 Ti11 1.978085 1_555
O40 Si9 1.616480 1_655
O40 Ti10 1.978085 1_645
O41 Si10 1.628304 1_555
O41 Ti11 1.977814 1_555
O42 Si11 1.628304 1_555
O42 Ti10 1.977814 1_655
O43 Si11 1.688066 1_455
O43 Ti0 2.145472 1_555
O43 Ti11 2.176879 1_555
O44 Si11 1.673697 1_555
O44 Ti0 2.148132 1_555
O44 Ti11 2.192551 1_555
O45 Si10 1.673697 1_555
O45 Ti1 2.148132 1_655
O45 Ti10 2.192551 1_645
O46 Si10 1.688066 1_555
O46 Ti1 2.145472 1_555
O46 Ti10 2.176879 1_545
O47 Si10 1.630963 1_555
O47 Ti0 1.971404 1_555
