# generated using pymatgen
data_Ho2CuTe2(SO7)2
_symmetry_space_group_name_H-M   'P 1'
_cell_length_a   5.20045981
_cell_length_b   7.93868721
_cell_length_c   8.19231901
_cell_angle_alpha   62.33634491
_cell_angle_beta   74.16660845
_cell_angle_gamma   85.30338726
_symmetry_Int_Tables_number   1
_chemical_formula_structural   Ho2CuTe2(SO7)2
_chemical_formula_sum   'Ho2 Cu1 Te2 S2 O14'
_cell_volume   287.79219447
_cell_formula_units_Z   1
loop_
 _symmetry_equiv_pos_site_id
 _symmetry_equiv_pos_as_xyz
  1  'x, y, z'
loop_
 _atom_site_type_symbol
 _atom_site_label
 _atom_site_symmetry_multiplicity
 _atom_site_fract_x
 _atom_site_fract_y
 _atom_site_fract_z
 _atom_site_occupancy
  Ho  Ho0  1  0.92639000  0.74840500  0.98207100  1
  Ho  Ho1  1  0.07361000  0.25159400  0.01792900  1
  Cu  Cu0  1  0.00000000  0.00000000  0.50000000  1
  Te  Te0  1  0.48928400  0.72796600  0.65540600  1
  Te  Te1  1  0.51071600  0.27203400  0.34459400  1
  S  S0  1  0.25167600  0.74793600  0.25052000  1
  S  S1  1  0.74832400  0.25206400  0.74948000  1
  O  O0  1  0.13582000  0.58680000  0.24172200  1
  O  O1  1  0.86418000  0.41320000  0.75827800  1
  O  O2  1  0.14072100  0.74798000  0.43565400  1
  O  O3  1  0.85927900  0.25202000  0.56434600  1
  O  O4  1  0.54776000  0.73617400  0.21382200  1
  O  O5  1  0.45224000  0.26382600  0.78617800  1
  O  O6  1  0.17570400  0.92250500  0.09200100  1
  O  O7  1  0.82429600  0.07749500  0.90799900  1
  O  O8  1  0.24865500  0.56081500  0.89178900  1
  O  O9  1  0.75134500  0.43918500  0.10821100  1
  O  O10  1  0.72924900  0.81242600  0.74632000  1
  O  O11  1  0.27075100  0.18757400  0.25368000  1
  O  O12  1  0.24926700  0.92780600  0.65876400  1
  O  O13  1  0.75073300  0.07219400  0.34123600  1
loop_
_geom_bond_atom_site_label_1
_geom_bond_atom_site_label_2
_geom_bond_distance
_geom_bond_site_symmetry_2
Ho0 O10 2.263445 1_555
Ho0 O4 2.304635 1_556
Ho0 O9 2.328024 1_556
Ho0 O8 2.347593 1_655
Ho0 O0 2.420377 1_656
Ho0 O7 2.439687 1_565
Ho0 O12 2.514974 1_655
Ho0 O6 2.547306 1_656
Ho1 O11 2.263447 1_555
Ho1 O5 2.304633 1_554
Ho1 O8 2.328031 1_554
Ho1 O9 2.347598 1_455
Ho1 O1 2.420378 1_454
Ho1 O6 2.439680 1_545
Ho1 O13 2.514973 1_455
Ho1 O7 2.547300 1_454
Cu0 O12 1.951088 1_545
Cu0 O13 1.951088 1_455
Cu0 O11 2.067528 1_555
Cu0 O10 2.067528 1_445
Cu0 O2 2.311991 1_545
Cu0 O3 2.311991 1_455
O0 S0 1.496698 1_555
O1 S1 1.496698 1_555
O2 S0 1.468388 1_555
O3 S1 1.468388 1_555
O4 S0 1.489940 1_555
O5 S1 1.489940 1_555
O6 S0 1.510729 1_555
O7 S1 1.510729 1_555
O8 Te0 1.907971 1_555
O9 Te1 1.907971 1_555
O10 Te0 1.915604 1_555
O11 Te1 1.915604 1_555
O12 Te0 1.942458 1_555
O13 Te1 1.942458 1_555
