# generated using pymatgen
data_LiLaMg14
_symmetry_space_group_name_H-M   'P 1'
_cell_length_a   6.60731100
_cell_length_b   6.60731042
_cell_length_c   10.28325237
_cell_angle_alpha   90.00000000
_cell_angle_beta   90.00000000
_cell_angle_gamma   120.00000289
_symmetry_Int_Tables_number   1
_chemical_formula_structural   LiLaMg14
_chemical_formula_sum   'Li1 La1 Mg14'
_cell_volume   388.78596050
_cell_formula_units_Z   1
loop_
 _symmetry_equiv_pos_site_id
 _symmetry_equiv_pos_as_xyz
  1  'x, y, z'
loop_
 _atom_site_type_symbol
 _atom_site_label
 _atom_site_symmetry_multiplicity
 _atom_site_fract_x
 _atom_site_fract_y
 _atom_site_fract_z
 _atom_site_occupancy
  Li  Li0  1  0.16666700  0.33333300  0.12500000  1
  La  La0  1  0.16666700  0.33333300  0.62500000  1
  Mg  Mg0  1  0.16713416  0.83356658  0.12500000  1
  Mg  Mg1  1  0.17646226  0.83823063  0.62500000  1
  Mg  Mg2  1  0.66643342  0.33286584  0.12500000  1
  Mg  Mg3  1  0.66176937  0.32353774  0.62500000  1
  Mg  Mg4  1  0.66643342  0.83356658  0.12500000  1
  Mg  Mg5  1  0.66176937  0.83823063  0.62500000  1
  Mg  Mg6  1  0.33500494  0.16499506  0.36820069  1
  Mg  Mg7  1  0.33500494  0.16499506  0.88179931  1
  Mg  Mg8  1  0.33500494  0.67001088  0.36820069  1
  Mg  Mg9  1  0.33500494  0.67001088  0.88179931  1
  Mg  Mg10  1  0.82998912  0.16499506  0.36820069  1
  Mg  Mg11  1  0.82998912  0.16499506  0.88179931  1
  Mg  Mg12  1  0.83333300  0.66666700  0.37982873  1
  Mg  Mg13  1  0.83333300  0.66666700  0.87017127  1
loop_
_geom_bond_atom_site_label_1
_geom_bond_atom_site_label_2
_geom_bond_distance
_geom_bond_site_symmetry_2
Li0 Mg6 3.156873 1_555
Li0 Mg7 3.156873 1_554
Li0 Mg9 3.156880 1_554
Li0 Mg8 3.156880 1_555
Li0 Mg10 3.156880 1_455
Li0 Mg11 3.156880 1_454
Li0 Mg0 3.303656 1_555
Li0 Mg4 3.303656 1_555
Li0 Mg4 3.303656 1_445
Li0 Mg0 3.303656 1_545
Li0 Mg2 3.303657 1_455
Li0 Mg2 3.303657 1_555
La0 Mg6 3.268767 1_555
La0 Mg7 3.268767 1_555
La0 Mg8 3.268774 1_555
La0 Mg9 3.268774 1_555
La0 Mg10 3.268774 1_455
La0 Mg11 3.268774 1_455
La0 Mg1 3.304131 1_555
La0 Mg5 3.304131 1_555
La0 Mg1 3.304131 1_545
La0 Mg5 3.304131 1_445
La0 Mg3 3.304131 1_555
La0 Mg3 3.304131 1_455
Mg0 Mg8 3.138665 1_555
Mg0 Mg9 3.138665 1_554
Mg0 Mg7 3.138672 1_564
Mg0 Mg6 3.138672 1_565
Mg0 Mg12 3.242702 1_455
Mg0 Mg13 3.242702 1_454
Mg0 Mg2 3.299025 1_565
Mg0 Mg4 3.299025 1_555
Mg0 Mg2 3.308285 1_455
Mg0 Mg4 3.308286 1_455
Mg1 Mg12 3.195505 1_455
Mg1 Mg13 3.195505 1_455
Mg1 Mg3 3.206575 1_565
Mg1 Mg5 3.206575 1_555
Mg1 Mg9 3.235818 1_555
Mg1 Mg8 3.235818 1_555
Mg1 Mg7 3.235824 1_565
Mg1 Mg6 3.235824 1_565
Mg1 Mg3 3.400736 1_455
Mg1 Mg5 3.400736 1_455
Mg2 Mg6 3.138672 1_555
Mg2 Mg7 3.138672 1_554
Mg2 Mg4 3.299025 1_545
Mg2 Mg4 3.308285 1_555
Mg3 Mg5 3.206575 1_545
Mg3 Mg6 3.235824 1_555
Mg3 Mg7 3.235824 1_555
Mg3 Mg5 3.400736 1_555
Mg4 Mg9 3.138672 1_554
Mg4 Mg8 3.138672 1_555
Mg5 Mg9 3.235824 1_555
Mg5 Mg8 3.235824 1_555
Mg6 Mg8 3.270514 1_545
Mg6 Mg8 3.336796 1_555
Mg7 Mg9 3.270514 1_545
Mg7 Mg9 3.336796 1_555
Mg10 Mg2 3.138665 1_555
Mg10 Mg4 3.138672 1_545
Mg10 Mg3 3.235818 1_555
Mg10 Mg5 3.235824 1_545
Mg10 Mg8 3.270514 1_545
Mg10 Mg6 3.270514 1_555
Mg10 Mg12 3.305874 1_555
Mg10 Mg12 3.305874 1_545
Mg10 Mg8 3.336796 1_655
Mg10 Mg6 3.336797 1_655
Mg11 Mg2 3.138665 1_556
Mg11 Mg4 3.138672 1_546
Mg11 Mg3 3.235818 1_555
Mg11 Mg5 3.235824 1_545
Mg11 Mg9 3.270514 1_545
Mg11 Mg7 3.270514 1_555
Mg11 Mg13 3.305874 1_555
Mg11 Mg13 3.305874 1_545
Mg11 Mg9 3.336796 1_655
Mg11 Mg7 3.336797 1_655
Mg12 Mg5 3.195498 1_555
Mg12 Mg3 3.195505 1_555
Mg12 Mg4 3.242696 1_555
Mg12 Mg2 3.242702 1_555
Mg12 Mg6 3.305874 1_555
Mg12 Mg6 3.305874 1_665
Mg12 Mg8 3.305874 1_655
Mg12 Mg8 3.305874 1_555
Mg13 Mg5 3.195498 1_555
Mg13 Mg3 3.195505 1_555
Mg13 Mg4 3.242696 1_556
Mg13 Mg2 3.242702 1_556
Mg13 Mg7 3.305874 1_555
Mg13 Mg7 3.305874 1_665
Mg13 Mg9 3.305874 1_655
Mg13 Mg9 3.305874 1_555
