# generated using pymatgen
data_KNaTi4(PO4)6
_symmetry_space_group_name_H-M   'P 1'
_cell_length_a   9.07649628
_cell_length_b   9.07649628
_cell_length_c   9.07649672
_cell_angle_alpha   56.29527250
_cell_angle_beta   56.29527250
_cell_angle_gamma   56.29527410
_symmetry_Int_Tables_number   1
_chemical_formula_structural   KNaTi4(PO4)6
_chemical_formula_sum   'K1 Na1 Ti4 P6 O24'
_cell_volume   483.41809694
_cell_formula_units_Z   1
loop_
 _symmetry_equiv_pos_site_id
 _symmetry_equiv_pos_as_xyz
  1  'x, y, z'
loop_
 _atom_site_type_symbol
 _atom_site_label
 _atom_site_symmetry_multiplicity
 _atom_site_fract_x
 _atom_site_fract_y
 _atom_site_fract_z
 _atom_site_occupancy
  K  K0  1  0.00000000  0.00000000  0.00000000  1
  Na  Na0  1  0.50000000  0.50000000  0.50000000  1
  Ti  Ti0  1  0.35287100  0.35287100  0.35287100  1
  Ti  Ti1  1  0.85234700  0.85234700  0.85234700  1
  Ti  Ti2  1  0.64712900  0.64712900  0.64712900  1
  Ti  Ti3  1  0.14765300  0.14765300  0.14765300  1
  P  P0  1  0.53277100  0.96595600  0.25030000  1
  P  P1  1  0.25030000  0.53277100  0.96595600  1
  P  P2  1  0.96595600  0.25030000  0.53277100  1
  P  P3  1  0.74970000  0.46722900  0.03404400  1
  P  P4  1  0.03404400  0.74970000  0.46722900  1
  P  P5  1  0.46722900  0.03404400  0.74970000  1
  O  O0  1  0.99273800  0.23676200  0.35701100  1
  O  O1  1  0.35701100  0.99273800  0.23676200  1
  O  O2  1  0.23676200  0.35701100  0.99273800  1
  O  O3  1  0.85874000  0.73556400  0.49221100  1
  O  O4  1  0.49221100  0.85874000  0.73556400  1
  O  O5  1  0.73556400  0.49221100  0.85874000  1
  O  O6  1  0.00726200  0.76323800  0.64298900  1
  O  O7  1  0.64298900  0.00726200  0.76323800  1
  O  O8  1  0.76323800  0.64298900  0.00726200  1
  O  O9  1  0.14126000  0.26443600  0.50778900  1
  O  O10  1  0.50778900  0.14126000  0.26443600  1
  O  O11  1  0.26443600  0.50778900  0.14126000  1
  O  O12  1  0.78894300  0.42836700  0.56328900  1
  O  O13  1  0.56328900  0.78894300  0.42836700  1
  O  O14  1  0.42836700  0.56328900  0.78894300  1
  O  O15  1  0.06473600  0.92824700  0.29295100  1
  O  O16  1  0.29295100  0.06473600  0.92824700  1
  O  O17  1  0.92824700  0.29295100  0.06473600  1
  O  O18  1  0.21105700  0.57163300  0.43671100  1
  O  O19  1  0.43671100  0.21105700  0.57163300  1
  O  O20  1  0.57163300  0.43671100  0.21105700  1
  O  O21  1  0.93526400  0.07175300  0.70704900  1
  O  O22  1  0.70704900  0.93526400  0.07175300  1
  O  O23  1  0.07175300  0.70704900  0.93526400  1
loop_
_geom_bond_atom_site_label_1
_geom_bond_atom_site_label_2
_geom_bond_distance
_geom_bond_site_symmetry_2
K0 O22 2.688283 1_445
K0 O16 2.688283 1_554
K0 O23 2.688283 1_544
K0 O17 2.688283 1_455
K0 O21 2.688283 1_454
K0 O15 2.688283 1_545
Na0 O13 2.644948 1_555
Na0 O19 2.644948 1_555
Na0 O12 2.644948 1_555
Na0 O18 2.644948 1_555
Na0 O14 2.644948 1_555
Na0 O20 2.644948 1_555
O0 P2 1.540502 1_555
O0 Ti3 1.928822 1_655
O1 P0 1.540502 1_555
O1 Ti3 1.928822 1_565
O2 P1 1.540502 1_555
O2 Ti3 1.928822 1_556
O3 P4 1.547092 1_655
O3 Ti2 1.942054 1_555
O4 P5 1.547092 1_565
O4 Ti2 1.942055 1_555
O5 P3 1.547092 1_556
O5 Ti2 1.942055 1_555
O6 P4 1.540502 1_555
O6 Ti1 1.928822 1_455
O7 P5 1.540502 1_555
O7 Ti1 1.928822 1_545
O8 P3 1.540502 1_555
O8 Ti1 1.928822 1_554
O9 P2 1.547092 1_455
O9 Ti0 1.942054 1_555
O10 P0 1.547092 1_545
O10 Ti0 1.942055 1_555
O11 P1 1.547092 1_554
O11 Ti0 1.942055 1_555
O12 P2 1.546380 1_555
O12 Ti2 1.982883 1_555
O13 P0 1.546380 1_555
O13 Ti2 1.982883 1_555
O14 P1 1.546380 1_555
O14 Ti2 1.982883 1_555
O15 P4 1.540467 1_555
O15 Ti3 1.979529 1_565
O16 P5 1.540467 1_555
O16 Ti3 1.979529 1_556
O17 P3 1.540467 1_555
O17 Ti3 1.979529 1_655
O18 P4 1.546380 1_555
O18 Ti0 1.982883 1_555
O19 P5 1.546380 1_555
O19 Ti0 1.982883 1_555
O20 P3 1.546380 1_555
O20 Ti0 1.982883 1_555
O21 P2 1.540467 1_555
O21 Ti1 1.979529 1_545
O22 P0 1.540467 1_555
O22 Ti1 1.979529 1_554
O23 P1 1.540467 1_555
O23 Ti1 1.979529 1_455
