# generated using pymatgen
data_Y2(GePt3)3
_symmetry_space_group_name_H-M   'P 1'
_cell_length_a   7.75554236
_cell_length_b   7.75554236
_cell_length_c   10.08529401
_cell_angle_alpha   67.09446002
_cell_angle_beta   67.09446002
_cell_angle_gamma   60.24239979
_symmetry_Int_Tables_number   1
_chemical_formula_structural   Y2(GePt3)3
_chemical_formula_sum   'Y4 Ge6 Pt18'
_cell_volume   470.29529297
_cell_formula_units_Z   2
loop_
 _symmetry_equiv_pos_site_id
 _symmetry_equiv_pos_as_xyz
  1  'x, y, z'
loop_
 _atom_site_type_symbol
 _atom_site_label
 _atom_site_symmetry_multiplicity
 _atom_site_fract_x
 _atom_site_fract_y
 _atom_site_fract_z
 _atom_site_occupancy
  Y  Y0  1  0.41618439  0.24596911  0.25117606  1
  Y  Y1  1  0.58381561  0.75403089  0.74882394  1
  Y  Y2  1  0.75403089  0.58381561  0.24882394  1
  Y  Y3  1  0.24596911  0.41618439  0.75117606  1
  Ge  Ge0  1  0.50000000  0.00000000  -0.00000000  1
  Ge  Ge1  1  0.00000000  0.50000000  0.50000000  1
  Ge  Ge2  1  0.63833821  0.18205890  0.49729558  1
  Ge  Ge3  1  0.36166179  0.81794110  0.50270442  1
  Ge  Ge4  1  0.81794110  0.36166179  0.00270442  1
  Ge  Ge5  1  0.18205890  0.63833821  0.99729558  1
  Pt  Pt0  1  0.29838217  0.91304861  0.25793734  1
  Pt  Pt1  1  0.70161783  0.08695139  0.74206266  1
  Pt  Pt2  1  0.08695139  0.70161783  0.24206266  1
  Pt  Pt3  1  0.91304861  0.29838217  0.75793734  1
  Pt  Pt4  1  0.47599229  0.64372819  0.07554548  1
  Pt  Pt5  1  0.52400771  0.35627181  0.92445452  1
  Pt  Pt6  1  0.35627181  0.52400771  0.42445452  1
  Pt  Pt7  1  0.64372819  0.47599229  0.57554548  1
  Pt  Pt8  1  0.86543368  0.13456632  0.25000000  1
  Pt  Pt9  1  0.13456632  0.86543368  0.75000000  1
  Pt  Pt10  1  0.79877779  0.97638294  0.07829449  1
  Pt  Pt11  1  0.20122221  0.02361706  0.92170551  1
  Pt  Pt12  1  0.02361706  0.20122221  0.42170551  1
  Pt  Pt13  1  0.97638294  0.79877779  0.57829449  1
  Pt  Pt14  1  0.69656083  0.85847562  0.42189464  1
  Pt  Pt15  1  0.30343917  0.14152438  0.57810536  1
  Pt  Pt16  1  0.14152438  0.30343917  0.07810536  1
  Pt  Pt17  1  0.85847562  0.69656083  0.92189464  1
loop_
_geom_bond_atom_site_label_1
_geom_bond_atom_site_label_2
_geom_bond_distance
_geom_bond_site_symmetry_2
Ge0 Pt1 2.486307 1_554
Ge0 Pt0 2.486307 1_545
Ge0 Pt11 2.629979 1_554
Ge0 Pt10 2.629979 1_545
Ge0 Pt4 2.647887 1_545
Ge0 Pt5 2.647887 1_554
Ge0 Pt16 2.670513 1_555
Ge0 Pt17 2.670513 1_544
Ge1 Pt3 2.486307 1_455
Ge1 Pt2 2.486307 1_555
Ge1 Pt12 2.629979 1_555
Ge1 Pt13 2.629979 1_455
Ge1 Pt7 2.647887 1_455
Ge1 Pt6 2.647887 1_555
Ge1 Pt15 2.670513 1_555
Ge1 Pt14 2.670513 1_455
Ge2 Pt1 2.458655 1_555
Ge2 Pt8 2.471786 1_555
Ge2 Pt6 2.516703 1_555
Ge2 Pt15 2.544100 1_555
Ge2 Pt14 2.678327 1_545
Ge2 Pt7 2.709584 1_555
Ge2 Pt12 2.848002 1_655
Ge2 Pt13 2.901326 1_545
Ge3 Pt0 2.458655 1_555
Ge3 Pt9 2.471786 1_555
Ge3 Pt7 2.516703 1_555
Ge3 Pt14 2.544100 1_555
Ge3 Pt15 2.678327 1_565
Ge3 Pt6 2.709584 1_555
Ge3 Pt13 2.848002 1_455
Ge3 Pt12 2.901326 1_565
Ge4 Pt3 2.458655 1_554
Ge4 Pt8 2.471786 1_555
Ge4 Pt4 2.516703 1_555
Ge4 Pt17 2.544100 1_554
Ge4 Pt16 2.678327 1_655
Ge4 Pt5 2.709584 1_554
Ge4 Pt10 2.848002 1_545
Ge4 Pt11 2.901326 1_654
Ge5 Pt2 2.458655 1_556
Ge5 Pt9 2.471786 1_555
Ge5 Pt5 2.516703 1_555
Ge5 Pt16 2.544100 1_556
Ge5 Pt17 2.678327 1_455
Ge5 Pt4 2.709584 1_556
Ge5 Pt11 2.848002 1_565
Ge5 Pt10 2.901326 1_456
Pt0 Y0 3.108385 1_565
Pt0 Y2 3.160518 1_555
Pt1 Y1 3.108385 1_545
Pt1 Y3 3.160518 1_555
Pt2 Y2 3.108385 1_455
Pt2 Y0 3.160518 1_555
Pt3 Y3 3.108385 1_655
Pt3 Y1 3.160518 1_555
Pt4 Y1 2.942725 1_554
Pt4 Y2 3.037494 1_555
Pt4 Y0 3.065328 1_555
Pt5 Y0 2.942725 1_556
Pt5 Y3 3.037494 1_555
Pt5 Y1 3.065328 1_555
Pt6 Y3 2.942725 1_555
Pt6 Y0 3.037494 1_555
Pt6 Y2 3.065328 1_555
Pt7 Y2 2.942725 1_555
Pt7 Y1 3.037494 1_555
Pt7 Y3 3.065328 1_555
Pt8 Y0 3.142241 1_555
Pt8 Y2 3.142241 1_555
Pt9 Y3 3.142241 1_555
Pt9 Y1 3.142241 1_555
Pt10 Y2 2.975895 1_555
Pt10 Y0 2.977911 1_565
Pt11 Y3 2.975895 1_555
Pt11 Y1 2.977911 1_545
Pt12 Y0 2.975895 1_555
Pt12 Y2 2.977911 1_455
Pt13 Y1 2.975895 1_555
Pt13 Y3 2.977911 1_655
Pt14 Y1 2.944814 1_555
Pt14 Y0 3.020572 1_565
Pt14 Y2 3.021424 1_555
Pt15 Y0 2.944814 1_555
Pt15 Y1 3.020572 1_545
Pt15 Y3 3.021424 1_555
Pt16 Y3 2.944814 1_554
Pt16 Y2 3.020572 1_455
Pt16 Y0 3.021424 1_555
Pt17 Y2 2.944814 1_556
Pt17 Y3 3.020572 1_655
Pt17 Y1 3.021424 1_555
