# generated using pymatgen
data_TiSe
_symmetry_space_group_name_H-M   'P 1'
_cell_length_a   13.02843176
_cell_length_b   13.02843176
_cell_length_c   13.02843110
_cell_angle_alpha   15.83694126
_cell_angle_beta   15.83694126
_cell_angle_gamma   15.83694167
_symmetry_Int_Tables_number   1
_chemical_formula_structural   TiSe
_chemical_formula_sum   'Ti4 Se4'
_cell_volume   143.53966435
_cell_formula_units_Z   4
loop_
 _symmetry_equiv_pos_site_id
 _symmetry_equiv_pos_as_xyz
  1  'x, y, z'
loop_
 _atom_site_type_symbol
 _atom_site_label
 _atom_site_symmetry_multiplicity
 _atom_site_fract_x
 _atom_site_fract_y
 _atom_site_fract_z
 _atom_site_occupancy
  Ti  Ti0  1  0.00000000  0.00000000  0.00000000  1
  Ti  Ti1  1  0.50000000  0.50000000  0.50000000  1
  Ti  Ti2  1  0.91436900  0.91436900  0.91436900  1
  Ti  Ti3  1  0.08563100  0.08563100  0.08563100  1
  Se  Se0  1  0.79253300  0.79253300  0.79253300  1
  Se  Se1  1  0.20746700  0.20746700  0.20746700  1
  Se  Se2  1  0.62417400  0.62417400  0.62417400  1
  Se  Se3  1  0.37582600  0.37582600  0.37582600  1
loop_
_geom_bond_atom_site_label_1
_geom_bond_atom_site_label_2
_geom_bond_distance
_geom_bond_site_symmetry_2
Se0 Ti3 2.589560 1_665
Se0 Ti3 2.589560 1_566
Se0 Ti3 2.589560 1_656
Se0 Ti1 2.602690 1_556
Se0 Ti1 2.602690 1_565
Se0 Ti1 2.602690 1_655
Se1 Ti2 2.589560 1_445
Se1 Ti2 2.589560 1_454
Se1 Ti2 2.589560 1_544
Se1 Ti1 2.602690 1_554
Se1 Ti1 2.602690 1_545
Se1 Ti1 2.602690 1_455
Se2 Ti0 2.642704 1_566
Se2 Ti0 2.642704 1_656
Se2 Ti0 2.642704 1_665
Se2 Ti2 2.658234 1_554
Se2 Ti2 2.658234 1_545
Se2 Ti2 2.658234 1_455
Se3 Ti0 2.642704 1_655
Se3 Ti0 2.642704 1_565
Se3 Ti0 2.642704 1_556
Se3 Ti3 2.658234 1_556
Se3 Ti3 2.658234 1_565
Se3 Ti3 2.658234 1_655
