# generated using pymatgen
data_Tm(BRh)4
_symmetry_space_group_name_H-M   'P 1'
_cell_length_a   5.32592900
_cell_length_b   5.32592900
_cell_length_c   7.44522200
_cell_angle_alpha   90.00000000
_cell_angle_beta   90.00000000
_cell_angle_gamma   90.00000000
_symmetry_Int_Tables_number   1
_chemical_formula_structural   Tm(BRh)4
_chemical_formula_sum   'Tm2 B8 Rh8'
_cell_volume   211.18759141
_cell_formula_units_Z   2
loop_
 _symmetry_equiv_pos_site_id
 _symmetry_equiv_pos_as_xyz
  1  'x, y, z'
loop_
 _atom_site_type_symbol
 _atom_site_label
 _atom_site_symmetry_multiplicity
 _atom_site_fract_x
 _atom_site_fract_y
 _atom_site_fract_z
 _atom_site_occupancy
  Tm  Tm0  1  0.00000000  0.00000000  0.00000000  1
  Tm  Tm1  1  0.50000000  0.50000000  0.50000000  1
  B  B0  1  0.83154200  0.50000000  0.14827800  1
  B  B1  1  0.16845800  0.50000000  0.14827800  1
  B  B2  1  0.00000000  0.33154200  0.64827800  1
  B  B3  1  0.00000000  0.66845800  0.64827800  1
  B  B4  1  0.66845800  0.00000000  0.35172200  1
  B  B5  1  0.33154200  0.00000000  0.35172200  1
  B  B6  1  0.50000000  0.16845800  0.85172200  1
  B  B7  1  0.50000000  0.83154200  0.85172200  1
  Rh  Rh0  1  0.25164700  0.50000000  0.85436400  1
  Rh  Rh1  1  0.74835300  0.50000000  0.85436400  1
  Rh  Rh2  1  0.00000000  0.75164700  0.35436400  1
  Rh  Rh3  1  0.00000000  0.24835300  0.35436400  1
  Rh  Rh4  1  0.24835300  0.00000000  0.64563600  1
  Rh  Rh5  1  0.75164700  0.00000000  0.64563600  1
  Rh  Rh6  1  0.50000000  0.74835300  0.14563600  1
  Rh  Rh7  1  0.50000000  0.25164700  0.14563600  1
loop_
_geom_bond_atom_site_label_1
_geom_bond_atom_site_label_2
_geom_bond_distance
_geom_bond_site_symmetry_2
B0 B1 1.794391 1_655
B0 Rh6 2.206330 1_555
B0 Rh7 2.206330 1_555
B0 Rh2 2.226093 1_655
B0 Rh3 2.226093 1_655
B0 Rh1 2.232658 1_554
B0 Tm0 3.019118 1_665
B0 Tm0 3.019118 1_655
B0 Tm1 3.158363 1_555
B1 Rh6 2.206330 1_555
B1 Rh7 2.206330 1_555
B1 Rh2 2.226093 1_555
B1 Rh3 2.226093 1_555
B1 Rh0 2.232658 1_554
B1 Tm0 3.019118 1_565
B1 Tm0 3.019118 1_555
B1 Tm1 3.158363 1_555
B2 B3 1.794391 1_555
B2 Rh4 2.206330 1_555
B2 Rh5 2.206330 1_455
B2 Rh0 2.226093 1_555
B2 Rh1 2.226093 1_455
B2 Rh3 2.232658 1_555
B2 Tm1 3.019118 1_455
B2 Tm1 3.019118 1_555
B2 Tm0 3.158363 1_556
B3 Rh5 2.206330 1_465
B3 Rh4 2.206330 1_565
B3 Rh0 2.226093 1_555
B3 Rh1 2.226093 1_455
B3 Rh2 2.232658 1_555
B3 Tm1 3.019118 1_455
B3 Tm1 3.019118 1_555
B3 Tm0 3.158363 1_566
B4 B5 1.794391 1_555
B4 Rh3 2.206330 1_655
B4 Rh2 2.206330 1_645
B4 Rh7 2.226093 1_555
B4 Rh6 2.226093 1_545
B4 Rh5 2.232658 1_555
B4 Tm1 3.019118 1_555
B4 Tm1 3.019118 1_545
B4 Tm0 3.158363 1_655
B5 Rh2 2.206330 1_545
B5 Rh3 2.206330 1_555
B5 Rh7 2.226093 1_555
B5 Rh6 2.226093 1_545
B5 Rh4 2.232658 1_555
B5 Tm1 3.019118 1_555
B5 Tm1 3.019118 1_545
B5 Tm0 3.158363 1_555
B6 B7 1.794391 1_545
B6 Rh1 2.206330 1_555
B6 Rh0 2.206330 1_555
B6 Rh5 2.226093 1_555
B6 Rh4 2.226093 1_555
B6 Rh7 2.232658 1_556
B6 Tm0 3.019118 1_656
B6 Tm0 3.019118 1_556
B6 Tm1 3.158363 1_555
B7 Rh1 2.206330 1_555
B7 Rh0 2.206330 1_555
B7 Rh5 2.226093 1_565
B7 Rh4 2.226093 1_565
B7 Rh6 2.232658 1_556
B7 Tm0 3.019118 1_566
B7 Tm0 3.019118 1_666
B7 Tm1 3.158363 1_555
Rh0 Tm1 2.951320 1_555
Rh0 Tm0 3.172278 1_556
Rh0 Tm0 3.172278 1_566
Rh1 Tm1 2.951320 1_555
Rh1 Tm0 3.172278 1_666
Rh1 Tm0 3.172278 1_656
Rh2 Tm0 2.951320 1_565
Rh2 Tm1 3.172278 1_455
Rh2 Tm1 3.172278 1_555
Rh3 Tm0 2.951320 1_555
Rh3 Tm1 3.172278 1_455
Rh3 Tm1 3.172278 1_555
Rh4 Tm0 2.951320 1_556
Rh4 Tm1 3.172278 1_555
Rh4 Tm1 3.172278 1_545
Rh5 Tm0 2.951320 1_656
Rh5 Tm1 3.172278 1_555
Rh5 Tm1 3.172278 1_545
Rh6 Tm1 2.951320 1_555
Rh6 Tm0 3.172278 1_665
Rh6 Tm0 3.172278 1_565
Rh7 Tm1 2.951320 1_555
Rh7 Tm0 3.172278 1_555
Rh7 Tm0 3.172278 1_655
