# generated using pymatgen
data_LiMg14Mn
_symmetry_space_group_name_H-M   'P 1'
_cell_length_a   6.32930038
_cell_length_b   6.32929987
_cell_length_c   10.08359321
_cell_angle_alpha   90.00000000
_cell_angle_beta   90.00000000
_cell_angle_gamma   120.00000266
_symmetry_Int_Tables_number   1
_chemical_formula_structural   LiMg14Mn
_chemical_formula_sum   'Li1 Mg14 Mn1'
_cell_volume   349.83021477
_cell_formula_units_Z   1
loop_
 _symmetry_equiv_pos_site_id
 _symmetry_equiv_pos_as_xyz
  1  'x, y, z'
loop_
 _atom_site_type_symbol
 _atom_site_label
 _atom_site_symmetry_multiplicity
 _atom_site_fract_x
 _atom_site_fract_y
 _atom_site_fract_z
 _atom_site_occupancy
  Li  Li0  1  0.16666700  0.33333300  0.62500000  1
  Mg  Mg0  1  0.16742853  0.83371377  0.12500000  1
  Mg  Mg1  1  0.16789001  0.83394451  0.62500000  1
  Mg  Mg2  1  0.66628623  0.33257147  0.12500000  1
  Mg  Mg3  1  0.66605549  0.33210999  0.62500000  1
  Mg  Mg4  1  0.66628623  0.83371377  0.12500000  1
  Mg  Mg5  1  0.66605549  0.83394451  0.62500000  1
  Mg  Mg6  1  0.33014026  0.16985974  0.37249255  1
  Mg  Mg7  1  0.33014026  0.16985974  0.87750745  1
  Mg  Mg8  1  0.33014026  0.66028153  0.37249255  1
  Mg  Mg9  1  0.33014026  0.66028153  0.87750745  1
  Mg  Mg10  1  0.83971847  0.16985974  0.37249255  1
  Mg  Mg11  1  0.83971847  0.16985974  0.87750745  1
  Mg  Mg12  1  0.83333300  0.66666700  0.37551330  1
  Mg  Mg13  1  0.83333300  0.66666700  0.87448670  1
  Mn  Mn0  1  0.16666700  0.33333300  0.12500000  1
loop_
_geom_bond_atom_site_label_1
_geom_bond_atom_site_label_2
_geom_bond_distance
_geom_bond_site_symmetry_2
Li0 Mg7 3.113628 1_555
Li0 Mg6 3.113628 1_555
Li0 Mg9 3.113634 1_555
Li0 Mg8 3.113634 1_555
Li0 Mg11 3.113634 1_455
Li0 Mg10 3.113634 1_455
Li0 Mg1 3.164657 1_545
Li0 Mg5 3.164657 1_555
Li0 Mg5 3.164657 1_445
Li0 Mg1 3.164657 1_555
Li0 Mg3 3.164657 1_555
Li0 Mg3 3.164657 1_455
Mg0 Mg8 3.102275 1_555
Mg0 Mg9 3.102275 1_554
Mg0 Mg6 3.102282 1_565
Mg0 Mg7 3.102282 1_564
Mg0 Mg12 3.120044 1_455
Mg0 Mg13 3.120044 1_454
Mg0 Mg2 3.157420 1_565
Mg0 Mg4 3.157420 1_555
Mg0 Mn0 3.164653 1_565
Mg0 Mn0 3.164653 1_555
Mg0 Mg2 3.171880 1_455
Mg0 Mg4 3.171880 1_455
Mg1 Mg13 3.113158 1_455
Mg1 Mg12 3.113158 1_455
Mg1 Mg9 3.142381 1_555
Mg1 Mg8 3.142381 1_555
Mg1 Mg7 3.142388 1_565
Mg1 Mg6 3.142388 1_565
Mg1 Mg3 3.153039 1_565
Mg1 Mg5 3.153039 1_555
Mg1 Mg3 3.176261 1_455
Mg1 Mg5 3.176261 1_455
Mg2 Mg6 3.102282 1_555
Mg2 Mg7 3.102282 1_554
Mg2 Mg4 3.157420 1_545
Mg2 Mn0 3.164653 1_555
Mg2 Mn0 3.164653 1_655
Mg2 Mg4 3.171880 1_555
Mg3 Mg7 3.142388 1_555
Mg3 Mg6 3.142388 1_555
Mg3 Mg5 3.153039 1_545
Mg3 Mg5 3.176261 1_555
Mg4 Mg8 3.102282 1_555
Mg4 Mg9 3.102282 1_554
Mg4 Mn0 3.164653 1_555
Mg4 Mn0 3.164653 1_665
Mg5 Mg9 3.142388 1_555
Mg5 Mg8 3.142388 1_555
Mg6 Mn0 3.072413 1_555
Mg6 Mg8 3.104027 1_555
Mg6 Mg8 3.225273 1_545
Mg7 Mn0 3.072413 1_556
Mg7 Mg9 3.104027 1_555
Mg7 Mg9 3.225273 1_545
Mg8 Mn0 3.072420 1_555
Mg9 Mn0 3.072420 1_556
Mg10 Mn0 3.072420 1_655
Mg10 Mg2 3.102275 1_555
Mg10 Mg4 3.102282 1_545
Mg10 Mg8 3.104027 1_655
Mg10 Mg6 3.104027 1_655
Mg10 Mg3 3.142381 1_555
Mg10 Mg5 3.142388 1_545
Mg10 Mg12 3.164990 1_555
Mg10 Mg12 3.164990 1_545
Mg10 Mg8 3.225273 1_545
Mg10 Mg6 3.225274 1_555
Mg11 Mn0 3.072420 1_656
Mg11 Mg2 3.102275 1_556
Mg11 Mg4 3.102282 1_546
Mg11 Mg9 3.104027 1_655
Mg11 Mg7 3.104027 1_655
Mg11 Mg3 3.142381 1_555
Mg11 Mg5 3.142388 1_545
Mg11 Mg13 3.164990 1_555
Mg11 Mg13 3.164990 1_545
Mg11 Mg9 3.225273 1_545
Mg11 Mg7 3.225274 1_555
Mg12 Mg5 3.113151 1_555
Mg12 Mg3 3.113158 1_555
Mg12 Mg4 3.120037 1_555
Mg12 Mg2 3.120043 1_555
Mg12 Mg6 3.164990 1_665
Mg12 Mg6 3.164990 1_555
Mg12 Mg8 3.164990 1_655
Mg12 Mg8 3.164990 1_555
Mg13 Mg5 3.113151 1_555
Mg13 Mg3 3.113158 1_555
Mg13 Mg4 3.120037 1_556
Mg13 Mg2 3.120043 1_556
Mg13 Mg7 3.164990 1_665
Mg13 Mg7 3.164990 1_555
Mg13 Mg9 3.164990 1_655
Mg13 Mg9 3.164990 1_555
