# generated using pymatgen
data_Bi8Mo3
_symmetry_space_group_name_H-M   'P 1'
_cell_length_a   4.90132700
_cell_length_b   7.31877300
_cell_length_c   17.14918002
_cell_angle_alpha   77.93492724
_cell_angle_beta   90.00000000
_cell_angle_gamma   90.00000000
_symmetry_Int_Tables_number   1
_chemical_formula_structural   Bi8Mo3
_chemical_formula_sum   'Bi16 Mo6'
_cell_volume   601.58164082
_cell_formula_units_Z   2
loop_
 _symmetry_equiv_pos_site_id
 _symmetry_equiv_pos_as_xyz
  1  'x, y, z'
loop_
 _atom_site_type_symbol
 _atom_site_label
 _atom_site_symmetry_multiplicity
 _atom_site_fract_x
 _atom_site_fract_y
 _atom_site_fract_z
 _atom_site_occupancy
  Bi  Bi0  1  0.25000000  0.16449000  0.48463200  1
  Bi  Bi1  1  0.75000000  0.83551000  0.51536800  1
  Bi  Bi2  1  0.75000000  0.14526100  0.63488600  1
  Bi  Bi3  1  0.25000000  0.85473900  0.36511400  1
  Bi  Bi4  1  0.25000000  0.17283800  0.76476500  1
  Bi  Bi5  1  0.75000000  0.82716200  0.23523500  1
  Bi  Bi6  1  0.75000000  0.22227400  0.89808600  1
  Bi  Bi7  1  0.25000000  0.77772600  0.10191400  1
  Bi  Bi8  1  0.25000000  0.26344300  0.03354600  1
  Bi  Bi9  1  0.75000000  0.73655700  0.96645400  1
  Bi  Bi10  1  0.75000000  0.30286600  0.16869000  1
  Bi  Bi11  1  0.25000000  0.69713400  0.83131000  1
  Bi  Bi12  1  0.25000000  0.36756800  0.28711600  1
  Bi  Bi13  1  0.75000000  0.63243200  0.71288400  1
  Bi  Bi14  1  0.75000000  0.44691300  0.40761600  1
  Bi  Bi15  1  0.25000000  0.55308700  0.59238400  1
  Mo  Mo0  1  0.75000000  0.01663600  0.06579300  1
  Mo  Mo1  1  0.25000000  0.98336400  0.93420700  1
  Mo  Mo2  1  0.25000000  0.06421100  0.20455400  1
  Mo  Mo3  1  0.75000000  0.93578900  0.79544600  1
  Mo  Mo4  1  0.75000000  0.10803700  0.34883800  1
  Mo  Mo5  1  0.25000000  0.89196300  0.65116200  1
loop_
_geom_bond_atom_site_label_1
_geom_bond_atom_site_label_2
_geom_bond_distance
_geom_bond_site_symmetry_2
Bi0 Mo5 3.122966 1_545
Bi0 Bi14 3.298689 1_455
Bi0 Bi14 3.298689 1_555
Bi0 Bi3 3.358979 1_545
Bi0 Bi1 3.398559 1_445
Bi0 Bi1 3.398559 1_545
Bi0 Bi12 3.402618 1_555
Bi0 Mo4 3.464360 1_455
Bi0 Mo4 3.464360 1_555
Bi0 Bi2 3.537445 1_455
Bi0 Bi2 3.537445 1_555
Bi0 Bi15 3.701380 1_555
Bi1 Mo4 3.122966 1_565
Bi1 Bi15 3.298689 1_555
Bi1 Bi15 3.298689 1_655
Bi1 Bi2 3.358979 1_565
Bi1 Bi13 3.402618 1_555
Bi1 Mo5 3.464360 1_655
Bi1 Mo5 3.464360 1_555
Bi1 Bi3 3.537445 1_555
Bi1 Bi3 3.537445 1_655
Bi1 Bi14 3.701380 1_555
Bi2 Mo3 2.857840 1_545
Bi2 Mo5 3.050251 1_545
Bi2 Mo5 3.050251 1_645
Bi2 Bi4 3.345947 1_655
Bi2 Bi4 3.345947 1_555
Bi3 Mo2 2.857840 1_565
Bi3 Mo4 3.050251 1_565
Bi3 Mo4 3.050251 1_465
Bi3 Bi5 3.345947 1_455
Bi3 Bi5 3.345947 1_555
Bi4 Mo1 2.946539 1_545
Bi4 Mo3 2.985112 1_445
Bi4 Mo3 2.985112 1_545
Bi4 Mo5 3.113746 1_545
Bi4 Bi6 3.421966 1_555
Bi4 Bi6 3.421966 1_455
Bi5 Mo0 2.946539 1_565
Bi5 Mo2 2.985112 1_565
Bi5 Mo2 2.985112 1_665
Bi5 Mo4 3.113746 1_565
Bi5 Bi7 3.421966 1_555
Bi5 Bi7 3.421966 1_655
Bi6 Mo0 2.954178 1_556
Bi6 Mo1 2.999004 1_545
Bi6 Mo1 2.999004 1_645
Bi6 Mo3 3.006219 1_545
Bi6 Bi8 3.433017 1_656
Bi6 Bi8 3.433017 1_556
Bi6 Bi9 3.502750 1_545
Bi7 Mo1 2.954178 1_554
Bi7 Mo0 2.999004 1_565
Bi7 Mo0 2.999004 1_465
Bi7 Mo2 3.006219 1_565
Bi7 Bi9 3.433017 1_454
Bi7 Bi9 3.433017 1_554
Bi7 Bi8 3.502750 1_565
Bi8 Mo1 2.926406 1_544
Bi8 Mo2 2.989805 1_555
Bi8 Mo0 3.026018 1_455
Bi8 Mo0 3.026018 1_555
Bi9 Mo0 2.926406 1_566
Bi9 Mo3 2.989805 1_555
Bi9 Mo1 3.026018 1_655
Bi9 Mo1 3.026018 1_555
Bi10 Mo2 2.997626 1_655
Bi10 Mo2 2.997626 1_555
Bi10 Mo0 3.007915 1_555
Bi10 Mo4 3.120254 1_555
Bi10 Bi12 3.279729 1_655
Bi10 Bi12 3.279729 1_555
Bi10 Bi8 3.426347 1_655
Bi10 Bi8 3.426347 1_555
Bi10 Bi5 3.429679 1_545
Bi11 Mo3 2.997626 1_555
Bi11 Mo3 2.997626 1_455
Bi11 Mo1 3.007915 1_555
Bi11 Mo5 3.120254 1_555
Bi11 Bi13 3.279729 1_555
Bi11 Bi13 3.279729 1_455
Bi11 Bi9 3.426347 1_555
Bi11 Bi9 3.426347 1_455
Bi11 Bi4 3.429679 1_565
Bi12 Mo2 2.871953 1_555
Bi12 Mo4 3.145401 1_555
Bi12 Mo4 3.145401 1_455
Bi12 Bi14 3.333911 1_455
Bi12 Bi14 3.333911 1_555
Bi13 Mo3 2.871953 1_555
Bi13 Mo5 3.145401 1_655
Bi13 Mo5 3.145401 1_555
Bi13 Bi15 3.333911 1_555
Bi13 Bi15 3.333911 1_655
Bi14 Mo4 2.865717 1_555
Bi14 Bi5 3.611742 1_555
Bi15 Mo5 2.865717 1_555
Bi15 Bi4 3.611742 1_555
