# generated using pymatgen
data_Co4Cu3(NiSe6)2
_symmetry_space_group_name_H-M   'P 1'
_cell_length_a   7.13659084
_cell_length_b   7.13659084
_cell_length_c   17.50689302
_cell_angle_alpha   89.97618747
_cell_angle_beta   89.97618747
_cell_angle_gamma   59.98612412
_symmetry_Int_Tables_number   1
_chemical_formula_structural   Co4Cu3(NiSe6)2
_chemical_formula_sum   'Co8 Cu6 Ni4 Se24'
_cell_volume   772.07682082
_cell_formula_units_Z   2
loop_
 _symmetry_equiv_pos_site_id
 _symmetry_equiv_pos_as_xyz
  1  'x, y, z'
loop_
 _atom_site_type_symbol
 _atom_site_label
 _atom_site_symmetry_multiplicity
 _atom_site_fract_x
 _atom_site_fract_y
 _atom_site_fract_z
 _atom_site_occupancy
  Co  Co0  1  0.16674700  0.16674700  0.66664000  1
  Co  Co1  1  0.83325300  0.83325300  0.33336000  1
  Co  Co2  1  0.50000000  0.00000000  0.00000000  1
  Co  Co3  1  0.16632800  0.66688600  0.66648400  1
  Co  Co4  1  0.83367200  0.33311400  0.33351600  1
  Co  Co5  1  0.00000000  0.50000000  0.00000000  1
  Co  Co6  1  0.66688600  0.16632800  0.66648400  1
  Co  Co7  1  0.33311400  0.83367200  0.33351600  1
  Cu  Cu0  1  0.33338900  0.33338900  0.45857000  1
  Cu  Cu1  1  0.99978900  0.99978900  0.12518600  1
  Cu  Cu2  1  0.66661900  0.66661900  0.79188400  1
  Cu  Cu3  1  0.33338100  0.33338100  0.20811600  1
  Cu  Cu4  1  0.00021100  0.00021100  0.87481400  1
  Cu  Cu5  1  0.66661100  0.66661100  0.54143000  1
  Ni  Ni0  1  0.66679600  0.66679600  0.16672700  1
  Ni  Ni1  1  0.33320400  0.33320400  0.83327300  1
  Ni  Ni2  1  0.00000000  0.00000000  0.50000000  1
  Ni  Ni3  1  0.50000000  0.50000000  0.00000000  1
  Se  Se0  1  0.15006700  0.15006700  0.41125500  1
  Se  Se1  1  0.81666500  0.81666500  0.07809900  1
  Se  Se2  1  0.48318200  0.48318200  0.74442400  1
  Se  Se3  1  0.00012500  0.00012500  0.26290200  1
  Se  Se4  1  0.66812000  0.66812000  0.92943200  1
  Se  Se5  1  0.33337700  0.33337700  0.59633800  1
  Se  Se6  1  0.69993400  0.14995500  0.41126300  1
  Se  Se7  1  0.36607700  0.81884400  0.07859400  1
  Se  Se8  1  0.03360100  0.48314600  0.74474200  1
  Se  Se9  1  0.14995500  0.69993400  0.41126300  1
  Se  Se10  1  0.81884400  0.36607700  0.07859400  1
  Se  Se11  1  0.48314600  0.03360100  0.74474200  1
  Se  Se12  1  0.51681800  0.51681800  0.25557600  1
  Se  Se13  1  0.18333500  0.18333500  0.92190100  1
  Se  Se14  1  0.84993300  0.84993300  0.58874500  1
  Se  Se15  1  0.66662300  0.66662300  0.40366200  1
  Se  Se16  1  0.33188000  0.33188000  0.07056800  1
  Se  Se17  1  0.99987500  0.99987500  0.73709800  1
  Se  Se18  1  0.96639900  0.51685400  0.25525800  1
  Se  Se19  1  0.63392300  0.18115600  0.92140600  1
  Se  Se20  1  0.30006600  0.85004500  0.58873700  1
  Se  Se21  1  0.51685400  0.96639900  0.25525800  1
  Se  Se22  1  0.18115600  0.63392300  0.92140600  1
  Se  Se23  1  0.85004500  0.30006600  0.58873700  1
loop_
_geom_bond_atom_site_label_1
_geom_bond_atom_site_label_2
_geom_bond_distance
_geom_bond_site_symmetry_2
Co0 Se23 2.392454 1_455
Co0 Se20 2.392454 1_545
Co0 Se11 2.392924 1_555
Co0 Se8 2.392924 1_555
Co0 Se5 2.399027 1_555
Co0 Se17 2.402995 1_445
Co1 Se6 2.392454 1_565
Co1 Se9 2.392454 1_655
Co1 Se18 2.392924 1_555
Co1 Se21 2.392924 1_555
Co1 Se15 2.399027 1_555
Co1 Se3 2.402995 1_665
Co2 Se19 2.389910 1_554
Co2 Se7 2.389910 1_545
Co2 Se13 2.394055 1_554
Co2 Se1 2.394055 1_545
Co2 Se16 2.394545 1_555
Co2 Se4 2.394545 1_544
Co3 Se14 2.389013 1_455
Co3 Se20 2.391168 1_555
Co3 Se2 2.393567 1_555
Co3 Se8 2.394522 1_555
Co3 Se5 2.399338 1_555
Co3 Se17 2.400789 1_455
Co4 Se0 2.389013 1_655
Co4 Se6 2.391168 1_555
Co4 Se12 2.393567 1_555
Co4 Se18 2.394522 1_555
Co4 Se15 2.399338 1_555
Co4 Se3 2.400789 1_655
Co5 Se22 2.389910 1_554
Co5 Se10 2.389910 1_455
Co5 Se1 2.394055 1_455
Co5 Se13 2.394055 1_554
Co5 Se16 2.394545 1_555
Co5 Se4 2.394545 1_454
Co6 Se14 2.389013 1_545
Co6 Se23 2.391168 1_555
Co6 Se2 2.393567 1_555
Co6 Se11 2.394522 1_555
Co6 Se5 2.399338 1_555
Co6 Se17 2.400789 1_545
Co7 Se0 2.389013 1_565
Co7 Se9 2.391168 1_555
Co7 Se12 2.393567 1_555
Co7 Se21 2.394522 1_555
Co7 Se15 2.399338 1_555
Co7 Se3 2.400789 1_565
Cu0 Se6 2.411578 1_555
Cu0 Se9 2.411578 1_555
Cu0 Se5 2.411890 1_555
Cu0 Se0 2.413206 1_555
Cu1 Se7 2.405868 1_655
Cu1 Se10 2.405868 1_565
Cu1 Se1 2.409537 1_555
Cu1 Se3 2.410985 1_665
Cu2 Se4 2.408119 1_555
Cu2 Se11 2.413125 1_565
Cu2 Se8 2.413125 1_655
Cu2 Se2 2.415415 1_555
Cu3 Se16 2.408119 1_555
Cu3 Se18 2.413125 1_455
Cu3 Se21 2.413125 1_545
Cu3 Se12 2.415415 1_555
Cu4 Se22 2.405868 1_545
Cu4 Se19 2.405868 1_455
Cu4 Se13 2.409537 1_555
Cu4 Se17 2.410985 1_445
Cu5 Se20 2.411578 1_555
Cu5 Se23 2.411578 1_555
Cu5 Se15 2.411890 1_555
Cu5 Se14 2.413206 1_555
Ni0 Se21 2.414821 1_555
Ni0 Se18 2.414821 1_555
Ni0 Se7 2.415681 1_555
Ni0 Se10 2.415681 1_555
Ni0 Se1 2.415993 1_555
Ni0 Se12 2.419510 1_555
Ni1 Se8 2.414821 1_555
Ni1 Se11 2.414821 1_555
Ni1 Se19 2.415681 1_555
Ni1 Se22 2.415681 1_555
Ni1 Se13 2.415993 1_555
Ni1 Se2 2.419510 1_555
Ni2 Se0 2.419184 1_555
Ni2 Se14 2.419184 1_445
Ni2 Se23 2.419331 1_455
Ni2 Se20 2.419331 1_545
Ni2 Se6 2.419331 1_455
Ni2 Se9 2.419331 1_545
Ni3 Se10 2.410436 1_555
Ni3 Se7 2.410436 1_555
Ni3 Se19 2.410436 1_554
Ni3 Se22 2.410436 1_554
Ni3 Se16 2.417231 1_555
Ni3 Se4 2.417231 1_554
