# generated using pymatgen
data_BeAgPO4
_symmetry_space_group_name_H-M   'P 1'
_cell_length_a   7.99686500
_cell_length_b   8.32969900
_cell_length_c   16.80049630
_cell_angle_alpha   60.47489277
_cell_angle_beta   90.00000000
_cell_angle_gamma   90.00000000
_symmetry_Int_Tables_number   1
_chemical_formula_structural   BeAgPO4
_chemical_formula_sum   'Be12 Ag12 P12 O48'
_cell_volume   973.77861472
_cell_formula_units_Z   12
loop_
 _symmetry_equiv_pos_site_id
 _symmetry_equiv_pos_as_xyz
  1  'x, y, z'
loop_
 _atom_site_type_symbol
 _atom_site_label
 _atom_site_symmetry_multiplicity
 _atom_site_fract_x
 _atom_site_fract_y
 _atom_site_fract_z
 _atom_site_occupancy
  Be  Be0  1  0.17305400  0.98509900  0.41860100  1
  Be  Be1  1  0.82909600  0.65753700  0.90884900  1
  Be  Be2  1  0.32909600  0.34246300  0.59115100  1
  Be  Be3  1  0.17090400  0.34246300  0.09115100  1
  Be  Be4  1  0.67090400  0.65753700  0.40884900  1
  Be  Be5  1  0.82694600  0.01490100  0.58139900  1
  Be  Be6  1  0.32694600  0.98509900  0.91860100  1
  Be  Be7  1  0.67305400  0.01490100  0.08139900  1
  Be  Be8  1  0.82573700  0.32034700  0.75803400  1
  Be  Be9  1  0.32573700  0.67965300  0.74196600  1
  Be  Be10  1  0.17426300  0.67965300  0.24196600  1
  Be  Be11  1  0.67426300  0.32034700  0.25803400  1
  Ag  Ag0  1  0.98571100  0.27726600  0.93545400  1
  Ag  Ag1  1  0.48571100  0.72273400  0.56454600  1
  Ag  Ag2  1  0.01428900  0.72273400  0.06454600  1
  Ag  Ag3  1  0.51428900  0.27726600  0.43545400  1
  Ag  Ag4  1  0.51954900  0.36432500  0.91436700  1
  Ag  Ag5  1  0.01954900  0.63567500  0.58563300  1
  Ag  Ag6  1  0.48045100  0.63567500  0.08563300  1
  Ag  Ag7  1  0.98045100  0.36432500  0.41436700  1
  Ag  Ag8  1  0.99313800  0.99815300  0.75212400  1
  Ag  Ag9  1  0.49313800  0.00184700  0.74787600  1
  Ag  Ag10  1  0.00686200  0.00184700  0.24787600  1
  Ag  Ag11  1  0.50686200  0.99815300  0.25212400  1
  P  P0  1  0.70535400  0.34053700  0.58953800  1
  P  P1  1  0.20535400  0.65946300  0.91046200  1
  P  P2  1  0.29464600  0.65946300  0.41046200  1
  P  P3  1  0.79464600  0.34053700  0.08953800  1
  P  P4  1  0.70354900  0.97784800  0.91764500  1
  P  P5  1  0.20354900  0.02215200  0.58235500  1
  P  P6  1  0.29645100  0.02215200  0.08235500  1
  P  P7  1  0.79645100  0.97784800  0.41764500  1
  P  P8  1  0.70779500  0.67978300  0.73805800  1
  P  P9  1  0.20779500  0.32021700  0.76194200  1
  P  P10  1  0.29220500  0.32021700  0.26194200  1
  P  P11  1  0.79220500  0.67978300  0.23805800  1
  O  O0  1  0.52420500  0.38209100  0.60641300  1
  O  O1  1  0.32490500  0.61546300  0.85078600  1
  O  O2  1  0.17509500  0.61546300  0.35078600  1
  O  O3  1  0.67509500  0.38453700  0.14921400  1
  O  O4  1  0.82152800  0.81137500  0.94281200  1
  O  O5  1  0.32152800  0.18862500  0.55718800  1
  O  O6  1  0.17847200  0.18862500  0.05718800  1
  O  O7  1  0.67847200  0.81137500  0.44281200  1
  O  O8  1  0.74589300  0.46169000  0.98712100  1
  O  O9  1  0.32159700  0.20547500  0.84589300  1
  O  O10  1  0.17840300  0.20547500  0.34589300  1
  O  O11  1  0.67840300  0.79452500  0.15410700  1
  O  O12  1  0.97788100  0.72028100  0.20542800  1
  O  O13  1  0.47788100  0.27971900  0.29457200  1
  O  O14  1  0.02211900  0.27971900  0.79457200  1
  O  O15  1  0.52211900  0.72028100  0.70542800  1
  O  O16  1  0.97962300  0.90788000  0.43319500  1
  O  O17  1  0.82490500  0.38453700  0.64921400  1
  O  O18  1  0.47962300  0.09212000  0.06680500  1
  O  O19  1  0.02037700  0.09212000  0.56680500  1
  O  O20  1  0.52037700  0.90788000  0.93319500  1
  O  O21  1  0.97579500  0.38209100  0.10641300  1
  O  O22  1  0.47579500  0.61790900  0.39358700  1
  O  O23  1  0.02420500  0.61790900  0.89358700  1
  O  O24  1  0.76801200  0.74047300  0.31124900  1
  O  O25  1  0.26801200  0.25952700  0.18875100  1
  O  O26  1  0.23198800  0.25952700  0.68875100  1
  O  O27  1  0.73198800  0.74047300  0.81124900  1
  O  O28  1  0.77336200  0.12371800  0.31559600  1
  O  O29  1  0.27336200  0.87628200  0.18440400  1
  O  O30  1  0.22663800  0.87628200  0.68440400  1
  O  O31  1  0.72663800  0.12371800  0.81559600  1
  O  O32  1  0.78064300  0.13300600  0.11787000  1
  O  O33  1  0.28064300  0.86699400  0.38213000  1
  O  O34  1  0.21935700  0.86699400  0.88213000  1
  O  O35  1  0.71935700  0.13300600  0.61787000  1
  O  O36  1  0.75463100  0.47196500  0.28100400  1
  O  O37  1  0.25463100  0.52803500  0.21899600  1
  O  O38  1  0.24536900  0.52803500  0.71899600  1
  O  O39  1  0.74536900  0.47196500  0.78100400  1
  O  O40  1  0.75361500  0.06156800  0.47992800  1
  O  O41  1  0.25361500  0.93843200  0.02007200  1
  O  O42  1  0.24638500  0.93843200  0.52007200  1
  O  O43  1  0.74638500  0.06156800  0.97992800  1
  O  O44  1  0.75410700  0.46169000  0.48712100  1
  O  O45  1  0.25410700  0.53831000  0.01287900  1
  O  O46  1  0.24589300  0.53831000  0.51287900  1
  O  O47  1  0.82159700  0.79452500  0.65410700  1
loop_
_geom_bond_atom_site_label_1
_geom_bond_atom_site_label_2
_geom_bond_distance
_geom_bond_site_symmetry_2
Be0 O10 1.628982 1_565
Be0 O33 1.636344 1_555
Be0 O16 1.646547 1_455
Be0 O42 1.657729 1_555
Be1 O27 1.628658 1_555
Be1 O4 1.640714 1_555
Be1 O23 1.640895 1_655
Be1 O8 1.648904 1_555
Be2 O26 1.628658 1_555
Be2 O5 1.640714 1_555
Be2 O0 1.640895 1_555
Be2 O46 1.648904 1_555
Be3 O25 1.628658 1_555
Be3 O6 1.640714 1_555
Be3 O21 1.640895 1_455
Be3 O45 1.648904 1_555
Be4 O24 1.628658 1_555
Be4 O7 1.640714 1_555
Be4 O22 1.640895 1_555
Be4 O44 1.648904 1_555
Be5 O47 1.628982 1_545
Be5 O35 1.636344 1_555
Be5 O19 1.646547 1_655
Be5 O40 1.657729 1_555
Be6 O9 1.628982 1_565
Be6 O34 1.636344 1_555
Be6 O20 1.646547 1_555
Be6 O41 1.657729 1_556
Be7 O11 1.628982 1_545
Be7 O32 1.636344 1_555
Be7 O18 1.646547 1_555
Be7 O43 1.657729 1_554
Be8 O39 1.623988 1_555
Be8 O17 1.632452 1_555
Be8 O31 1.638507 1_555
Be8 O14 1.659180 1_655
Be9 O38 1.623988 1_555
Be9 O1 1.632452 1_555
Be9 O30 1.638507 1_555
Be9 O15 1.659180 1_555
Be10 O37 1.623988 1_555
Be10 O2 1.632452 1_555
Be10 O29 1.638507 1_555
Be10 O12 1.659180 1_455
Be11 O36 1.623988 1_555
Be11 O3 1.632452 1_555
Be11 O28 1.638507 1_555
Be11 O13 1.659180 1_555
Ag0 O6 2.369769 1_656
Ag0 O14 2.374800 1_655
Ag0 O43 2.475099 1_555
Ag0 O23 2.583321 1_655
Ag1 O7 2.369769 1_555
Ag1 O15 2.374800 1_555
Ag1 O42 2.475099 1_555
Ag1 O0 2.583321 1_555
Ag2 O4 2.369769 1_454
Ag2 O12 2.374800 1_455
Ag2 O41 2.475099 1_555
Ag2 O21 2.583321 1_455
Ag3 O5 2.369769 1_555
Ag3 O13 2.374800 1_555
Ag3 O40 2.475099 1_555
Ag3 O22 2.583321 1_555
Ag4 O1 2.395312 1_555
Ag4 O18 2.465479 1_556
Ag4 O8 2.530827 1_555
Ag4 O9 2.660892 1_555
Ag4 O39 2.665546 1_555
Ag5 O17 2.395312 1_455
Ag5 O16 2.465479 1_455
Ag5 O46 2.530827 1_555
Ag5 O47 2.660892 1_455
Ag5 O38 2.665546 1_555
Ag6 O3 2.395312 1_555
Ag6 O20 2.465479 1_554
Ag6 O45 2.530827 1_555
Ag6 O11 2.660892 1_555
Ag6 O37 2.665546 1_555
Ag7 O2 2.395312 1_655
Ag7 O19 2.465479 1_655
Ag7 O44 2.530827 1_555
Ag7 O10 2.660892 1_655
Ag7 O36 2.665546 1_555
Ag8 O34 2.623911 1_655
Ag8 O30 2.636283 1_655
Ag8 O26 2.690216 1_665
Ag9 O35 2.623911 1_555
Ag9 O31 2.636283 1_555
Ag9 O27 2.690216 1_545
Ag10 O32 2.623911 1_455
Ag10 O28 2.636283 1_455
Ag10 O24 2.690216 1_445
Ag11 O33 2.623911 1_555
Ag11 O29 2.636283 1_555
Ag11 O25 2.690216 1_565
O0 P0 1.547713 1_555
O1 P1 1.554244 1_555
O2 P2 1.554244 1_555
O3 P3 1.554244 1_555
O4 P4 1.553666 1_555
O5 P5 1.553666 1_555
O6 P6 1.553666 1_555
O7 P7 1.553666 1_555
O8 P3 1.555517 1_556
O9 P9 1.549950 1_555
O10 P10 1.549950 1_555
O11 P11 1.549950 1_555
O12 P11 1.561013 1_555
O13 P10 1.561013 1_555
O14 P9 1.561013 1_555
O15 P8 1.561013 1_555
O16 P7 1.550322 1_555
O17 P0 1.554244 1_555
O18 P6 1.550322 1_555
O19 P5 1.550322 1_555
O20 P4 1.550322 1_555
O21 P3 1.547713 1_555
O22 P2 1.547713 1_555
O23 P1 1.547713 1_555
O24 P11 1.554893 1_555
O25 P10 1.554893 1_555
O26 P9 1.554893 1_555
O27 P8 1.554893 1_555
O28 P7 1.548117 1_545
O29 P6 1.548117 1_565
O30 P5 1.548117 1_565
O31 P4 1.548117 1_545
O32 P3 1.554483 1_555
O33 P2 1.554483 1_555
O34 P1 1.554483 1_555
O35 P0 1.554483 1_555
O36 P11 1.541567 1_555
O37 P10 1.541567 1_555
O38 P9 1.541567 1_555
O39 P8 1.541567 1_555
O40 P7 1.554924 1_545
O41 P6 1.554924 1_565
O42 P5 1.554924 1_565
O43 P4 1.554924 1_545
O44 P0 1.555517 1_555
O45 P1 1.555517 1_554
O46 P2 1.555517 1_555
O47 P8 1.549950 1_555
