# generated using pymatgen
data_Sr3Nb2CuO9
_symmetry_space_group_name_H-M   'P 1'
_cell_length_a   5.83221902
_cell_length_b   5.83221902
_cell_length_c   7.10008758
_cell_angle_alpha   86.31282817
_cell_angle_beta   86.31282817
_cell_angle_gamma   57.49025504
_symmetry_Int_Tables_number   1
_chemical_formula_structural   Sr3Nb2CuO9
_chemical_formula_sum   'Sr3 Nb2 Cu1 O9'
_cell_volume   203.11504819
_cell_formula_units_Z   1
loop_
 _symmetry_equiv_pos_site_id
 _symmetry_equiv_pos_as_xyz
  1  'x, y, z'
loop_
 _atom_site_type_symbol
 _atom_site_label
 _atom_site_symmetry_multiplicity
 _atom_site_fract_x
 _atom_site_fract_y
 _atom_site_fract_z
 _atom_site_occupancy
  Sr  Sr0  1  0.83290400  0.83290400  0.32663200  1
  Sr  Sr1  1  0.50000000  0.50000000  0.00000000  1
  Sr  Sr2  1  0.16709600  0.16709600  0.67336800  1
  Nb  Nb0  1  0.84396500  0.84396500  0.81913100  1
  Nb  Nb1  1  0.15603500  0.15603500  0.18086900  1
  Cu  Cu0  1  0.50000000  0.50000000  0.50000000  1
  O  O0  1  0.00000000  0.00000000  0.00000000  1
  O  O1  1  0.70632600  0.70632600  0.65049800  1
  O  O2  1  0.29367400  0.29367400  0.34950200  1
  O  O3  1  0.80190200  0.31297100  0.31366200  1
  O  O4  1  0.50000000  0.00000000  0.00000000  1
  O  O5  1  0.19809800  0.68702900  0.68633800  1
  O  O6  1  0.31297100  0.80190200  0.31366200  1
  O  O7  1  0.00000000  0.50000000  0.00000000  1
  O  O8  1  0.68702900  0.19809800  0.68633800  1
loop_
_geom_bond_atom_site_label_1
_geom_bond_atom_site_label_2
_geom_bond_distance
_geom_bond_site_symmetry_2
Nb0 O1 1.913693 1_555
Nb0 O5 1.954751 1_655
Nb0 O8 1.954751 1_565
Nb0 O7 2.087655 1_656
Nb0 O4 2.087655 1_566
Nb0 O0 2.120432 1_666
Nb1 O2 1.913693 1_555
Nb1 O6 1.954751 1_545
Nb1 O3 1.954751 1_455
Nb1 O7 2.087655 1_555
Nb1 O4 2.087655 1_555
Nb1 O0 2.120432 1_555
Cu0 O5 1.965202 1_555
Cu0 O8 1.965202 1_555
Cu0 O6 1.965202 1_555
Cu0 O3 1.965202 1_555
Cu0 O2 2.434145 1_555
Cu0 O1 2.434145 1_555
O0 Sr2 2.777991 1_554
O0 Sr0 2.777991 1_445
O0 Sr1 2.804797 1_545
O0 Sr1 2.804797 1_455
O1 Sr0 2.554739 1_555
O1 Sr2 2.836311 1_655
O1 Sr2 2.836311 1_565
O1 Sr1 3.137228 1_556
O2 Sr2 2.554739 1_555
O2 Sr0 2.836311 1_545
O2 Sr0 2.836311 1_455
O2 Sr1 3.137228 1_555
O3 Sr0 2.702812 1_545
O3 Sr1 2.716101 1_555
O3 Sr0 3.140668 1_555
O3 Sr2 3.202389 1_655
O4 Sr0 2.890040 1_545
O4 Sr2 2.890040 1_554
O4 Sr1 2.916110 1_545
O4 Sr1 2.916110 1_555
O5 Sr2 2.702812 1_565
O5 Sr1 2.716101 1_556
O5 Sr2 3.140668 1_555
O5 Sr0 3.202389 1_455
O6 Sr0 2.702812 1_455
O6 Sr1 2.716101 1_555
O6 Sr0 3.140668 1_555
O6 Sr2 3.202389 1_565
O7 Sr0 2.890040 1_455
O7 Sr2 2.890040 1_554
O7 Sr1 2.916110 1_455
O7 Sr1 2.916110 1_555
O8 Sr2 2.702812 1_655
O8 Sr1 2.716101 1_556
O8 Sr2 3.140668 1_555
O8 Sr0 3.202389 1_545
