# generated using pymatgen
data_Mg6NbW
_symmetry_space_group_name_H-M   'P 1'
_cell_length_a   4.80888600
_cell_length_b   6.04148500
_cell_length_c   10.94774500
_cell_angle_alpha   90.00000000
_cell_angle_beta   90.00000000
_cell_angle_gamma   90.00000000
_symmetry_Int_Tables_number   1
_chemical_formula_structural   Mg6NbW
_chemical_formula_sum   'Mg12 Nb2 W2'
_cell_volume   318.06278427
_cell_formula_units_Z   2
loop_
 _symmetry_equiv_pos_site_id
 _symmetry_equiv_pos_as_xyz
  1  'x, y, z'
loop_
 _atom_site_type_symbol
 _atom_site_label
 _atom_site_symmetry_multiplicity
 _atom_site_fract_x
 _atom_site_fract_y
 _atom_site_fract_z
 _atom_site_occupancy
  Mg  Mg0  1  0.00000000  0.25958800  0.07644700  1
  Mg  Mg1  1  0.00000000  0.74041200  0.07644700  1
  Mg  Mg2  1  0.00000000  0.00000000  0.33197200  1
  Mg  Mg3  1  0.50000000  0.74278700  0.42356900  1
  Mg  Mg4  1  0.50000000  0.25721300  0.42356900  1
  Mg  Mg5  1  0.50000000  0.00000000  0.16945000  1
  Mg  Mg6  1  0.00000000  0.75958800  0.57644700  1
  Mg  Mg7  1  0.00000000  0.24041200  0.57644700  1
  Mg  Mg8  1  0.00000000  0.50000000  0.83197200  1
  Mg  Mg9  1  0.50000000  0.24278700  0.92356900  1
  Mg  Mg10  1  0.50000000  0.75721300  0.92356900  1
  Mg  Mg11  1  0.50000000  0.50000000  0.66945000  1
  Nb  Nb0  1  0.00000000  0.50000000  0.30992200  1
  Nb  Nb1  1  0.00000000  0.00000000  0.80992200  1
  W  W0  1  0.50000000  0.50000000  0.18862500  1
  W  W1  1  0.50000000  0.00000000  0.68862500  1
loop_
_geom_bond_atom_site_label_1
_geom_bond_atom_site_label_2
_geom_bond_distance
_geom_bond_site_symmetry_2
Mg0 Mg1 2.904891 1_555
Mg0 Mg9 2.931351 1_554
Mg0 Mg9 2.931351 1_454
Mg0 Nb0 2.939874 1_555
Mg0 Mg8 3.045157 1_554
Mg0 Mg5 3.045912 1_455
Mg0 Mg5 3.045912 1_555
Mg0 W0 3.065806 1_455
Mg0 W0 3.065806 1_555
Mg0 Mg1 3.136594 1_545
Mg0 Mg2 3.207044 1_555
Mg0 Nb1 3.312611 1_554
Mg1 Mg10 2.931351 1_554
Mg1 Mg10 2.931351 1_454
Mg1 Nb0 2.939874 1_555
Mg1 Mg8 3.045157 1_554
Mg1 Mg5 3.045912 1_465
Mg1 Mg5 3.045912 1_565
Mg1 W0 3.065806 1_555
Mg1 W0 3.065806 1_455
Mg1 Mg2 3.207044 1_565
Mg1 Nb1 3.312611 1_564
Mg2 Mg5 2.991166 1_455
Mg2 Mg5 2.991166 1_555
Mg2 Nb0 3.030373 1_555
Mg2 Nb0 3.030373 1_545
Mg2 Mg4 3.033426 1_555
Mg2 Mg4 3.033426 1_455
Mg2 Mg3 3.033426 1_545
Mg2 Mg3 3.033426 1_445
Mg2 Mg7 3.045157 1_555
Mg2 Mg6 3.045157 1_545
Mg3 Mg6 2.931351 1_555
Mg3 Mg6 2.931351 1_655
Mg3 Mg4 2.933588 1_555
Mg3 W0 2.960949 1_555
Mg3 Nb0 3.079093 1_555
Mg3 Nb0 3.079093 1_655
Mg3 Mg4 3.107897 1_565
Mg3 Mg5 3.186604 1_565
Mg3 W1 3.291656 1_565
Mg4 Mg7 2.931351 1_555
Mg4 Mg7 2.931351 1_655
Mg4 W0 2.960949 1_555
Mg4 Nb0 3.079093 1_555
Mg4 Nb0 3.079093 1_655
Mg4 Mg5 3.186604 1_555
Mg4 W1 3.291656 1_555
Mg5 W0 3.028028 1_555
Mg5 W0 3.028028 1_545
Mg5 Mg9 3.065534 1_554
Mg6 Mg7 2.904891 1_565
Mg6 Nb1 2.939874 1_565
Mg6 W1 3.065806 1_565
Mg6 W1 3.065806 1_465
Mg6 Mg7 3.136594 1_555
Mg6 Mg8 3.207044 1_555
Mg6 Nb0 3.312611 1_555
Mg7 Nb1 2.939874 1_555
Mg7 W1 3.065806 1_555
Mg7 W1 3.065806 1_455
Mg7 Mg8 3.207044 1_555
Mg7 Nb0 3.312611 1_555
Mg8 Nb1 3.030373 1_555
Mg8 Nb1 3.030373 1_565
Mg8 Mg9 3.033426 1_555
Mg8 Mg9 3.033426 1_455
Mg9 W1 2.960949 1_555
Mg9 Nb1 3.079093 1_655
Mg9 Nb1 3.079093 1_555
Mg9 W0 3.291656 1_556
Mg10 Mg9 2.933588 1_565
Mg10 W1 2.960949 1_565
Mg10 Mg8 3.033426 1_655
Mg10 Mg8 3.033426 1_555
Mg10 Mg5 3.065534 1_566
Mg10 Nb1 3.079093 1_565
Mg10 Nb1 3.079093 1_665
Mg10 Mg9 3.107897 1_555
Mg10 Mg11 3.186604 1_555
Mg10 W0 3.291656 1_556
Mg11 Mg8 2.991166 1_655
Mg11 Mg8 2.991166 1_555
Mg11 W1 3.028028 1_565
Mg11 W1 3.028028 1_555
Mg11 Mg6 3.045912 1_555
Mg11 Mg6 3.045912 1_655
Mg11 Mg7 3.045912 1_655
Mg11 Mg7 3.045912 1_555
Mg11 Mg3 3.065534 1_555
Mg11 Mg4 3.065534 1_555
Mg11 Mg9 3.186604 1_555
Nb0 W0 2.746769 1_555
Nb0 W0 2.746769 1_455
Nb1 W1 2.746769 1_555
Nb1 W1 2.746769 1_455
