# generated using pymatgen
data_V6CoNi
_symmetry_space_group_name_H-M   'P 1'
_cell_length_a   4.62928293
_cell_length_b   4.62928499
_cell_length_c   4.62928785
_cell_angle_alpha   90.00000000
_cell_angle_beta   90.00000000
_cell_angle_gamma   90.00000000
_symmetry_Int_Tables_number   1
_chemical_formula_structural   V6CoNi
_chemical_formula_sum   'V6 Co1 Ni1'
_cell_volume   99.20688845
_cell_formula_units_Z   1
loop_
 _symmetry_equiv_pos_site_id
 _symmetry_equiv_pos_as_xyz
  1  'x, y, z'
loop_
 _atom_site_type_symbol
 _atom_site_label
 _atom_site_symmetry_multiplicity
 _atom_site_fract_x
 _atom_site_fract_y
 _atom_site_fract_z
 _atom_site_occupancy
  V  V0  1  0.00000000  0.50000000  0.74932892  1
  V  V1  1  0.50000000  0.25067327  0.00000000  1
  V  V2  1  0.74931468  0.00000000  0.50000000  1
  V  V3  1  0.00000000  0.50000000  0.25067108  1
  V  V4  1  0.50000000  0.74932673  0.00000000  1
  V  V5  1  0.25068532  0.00000000  0.50000000  1
  Co  Co0  1  0.50000000  0.50000000  0.50000000  1
  Ni  Ni0  1  -0.00000000  0.00000000  0.00000000  1
loop_
_geom_bond_atom_site_label_1
_geom_bond_atom_site_label_2
_geom_bond_distance
_geom_bond_site_symmetry_2
V0 V3 2.308431 1_555
V0 V3 2.320857 1_556
V0 V1 2.834845 1_456
V0 V1 2.834845 1_556
V0 V4 2.834845 1_456
V0 V4 2.834845 1_556
V0 V5 2.834877 1_565
V0 V2 2.834877 1_465
V0 V2 2.834877 1_455
V0 V5 2.834877 1_555
V1 V4 2.308409 1_555
V1 V4 2.320876 1_545
V1 V5 2.834828 1_555
V1 V2 2.834828 1_555
V1 V5 2.834828 1_554
V1 V2 2.834828 1_554
V1 V3 2.834845 1_655
V1 V3 2.834845 1_555
V2 V5 2.308296 1_555
V2 V5 2.320987 1_655
V2 V4 2.834828 1_546
V2 V4 2.834828 1_545
V2 V3 2.834877 1_645
V2 V3 2.834877 1_655
V3 V4 2.834845 1_555
V3 V4 2.834845 1_455
V3 V5 2.834877 1_565
V3 V5 2.834877 1_555
V4 V5 2.834828 1_565
V4 V5 2.834828 1_564
Co0 V2 2.586432 1_565
Co0 V5 2.586432 1_565
Co0 V2 2.586432 1_555
Co0 V5 2.586432 1_555
Co0 V1 2.586458 1_556
Co0 V4 2.586458 1_556
Co0 V4 2.586458 1_555
Co0 V1 2.586458 1_555
Co0 V0 2.586461 1_655
Co0 V3 2.586461 1_655
Co0 V0 2.586461 1_555
Co0 V3 2.586461 1_555
Ni0 V0 2.589240 1_544
Ni0 V3 2.589240 1_545
Ni0 V3 2.589240 1_555
Ni0 V0 2.589240 1_554
Ni0 V4 2.589243 1_445
Ni0 V1 2.589243 1_555
Ni0 V1 2.589243 1_455
Ni0 V4 2.589243 1_545
Ni0 V5 2.589270 1_554
Ni0 V2 2.589270 1_455
Ni0 V5 2.589270 1_555
Ni0 V2 2.589270 1_454
