# generated using pymatgen
data_Sr2NdGaCu2O7
_symmetry_space_group_name_H-M   'P 1'
_cell_length_a   5.48418132
_cell_length_b   5.60782196
_cell_length_c   12.22251327
_cell_angle_alpha   103.10045099
_cell_angle_beta   102.94085668
_cell_angle_gamma   90.05349575
_symmetry_Int_Tables_number   1
_chemical_formula_structural   Sr2NdGaCu2O7
_chemical_formula_sum   'Sr4 Nd2 Ga2 Cu4 O14'
_cell_volume   356.28393805
_cell_formula_units_Z   2
loop_
 _symmetry_equiv_pos_site_id
 _symmetry_equiv_pos_as_xyz
  1  'x, y, z'
loop_
 _atom_site_type_symbol
 _atom_site_label
 _atom_site_symmetry_multiplicity
 _atom_site_fract_x
 _atom_site_fract_y
 _atom_site_fract_z
 _atom_site_occupancy
  Sr  Sr0  1  0.15246900  0.17616800  0.30510500  1
  Sr  Sr1  1  0.33169500  0.36954100  0.69282900  1
  Sr  Sr2  1  0.65111200  0.63701300  0.30555200  1
  Sr  Sr3  1  0.83692800  0.82986100  0.69433100  1
  Nd  Nd0  1  0.49744700  0.49489500  0.00021100  1
  Nd  Nd1  1  0.99823400  0.99608500  0.00112900  1
  Ga  Ga0  1  0.21914300  0.82353000  0.50143700  1
  Ga  Ga1  1  0.71714500  0.18384500  0.49592500  1
  Cu  Cu0  1  0.07688200  0.57596600  0.15011900  1
  Cu  Cu1  1  0.92078500  0.41947200  0.85260000  1
  Cu  Cu2  1  0.58074800  0.07695600  0.15706300  1
  Cu  Cu3  1  0.41732400  0.91860700  0.84621900  1
  O  O0  1  0.81440000  0.32436300  0.13188100  1
  O  O1  1  0.67475300  0.67000200  0.86841700  1
  O  O2  1  0.30726700  0.30822400  0.13072600  1
  O  O3  1  0.32491000  0.81053300  0.13715300  1
  O  O4  1  0.17306500  0.68334700  0.87103400  1
  O  O5  1  0.18164400  0.18360600  0.86401800  1
  O  O6  1  0.82558800  0.81942700  0.13687300  1
  O  O7  1  0.21749900  0.62559200  0.35887800  1
  O  O8  1  0.35488800  0.77935700  0.64758300  1
  O  O9  1  0.37550100  0.12826200  0.50031600  1
  O  O10  1  0.68619200  0.17264000  0.86697000  1
  O  O11  1  0.70423100  0.22459700  0.34880100  1
  O  O12  1  0.86286100  0.38760500  0.63523800  1
  O  O13  1  0.87349000  0.88050600  0.49959500  1
loop_
_geom_bond_atom_site_label_1
_geom_bond_atom_site_label_2
_geom_bond_distance
_geom_bond_site_symmetry_2
Nd0 O1 2.433407 1_554
Nd0 O0 2.444133 1_555
Nd0 O3 2.489853 1_555
Nd0 O5 2.490710 1_554
Nd0 O2 2.495701 1_555
Nd0 O4 2.505249 1_554
Nd0 O10 2.532543 1_554
Nd0 O6 2.571030 1_555
Nd1 O4 2.438291 1_654
Nd1 O2 2.445512 1_665
Nd1 O6 2.465269 1_555
Nd1 O10 2.465749 1_564
Nd1 O0 2.520088 1_565
Nd1 O5 2.545172 1_664
Nd1 O1 2.546098 1_554
Nd1 O3 2.551492 1_655
Ga0 O7 1.839681 1_555
Ga0 O8 1.847069 1_555
Ga0 O9 1.915439 1_565
Ga0 O13 1.918661 1_455
Ga1 O12 1.830430 1_555
Ga1 O11 1.849361 1_555
Ga1 O13 1.910738 1_545
Ga1 O9 1.913658 1_555
Cu0 O6 1.947633 1_455
Cu0 O3 1.947653 1_555
Cu0 O0 1.955127 1_455
Cu0 O2 1.970595 1_555
Cu0 O7 2.445200 1_555
Cu1 O10 1.951956 1_555
Cu1 O5 1.952792 1_655
Cu1 O1 1.956786 1_555
Cu1 O4 1.964712 1_655
Cu1 O12 2.568586 1_555
Cu2 O3 1.984525 1_545
Cu2 O6 1.984940 1_545
Cu2 O2 2.002923 1_555
Cu2 O0 2.007117 1_555
Cu2 O11 2.246050 1_555
Cu3 O5 1.977191 1_565
Cu3 O10 1.983111 1_565
Cu3 O4 1.996753 1_555
Cu3 O1 2.003483 1_555
Cu3 O8 2.321450 1_555
O0 Sr2 2.747540 1_555
O0 Sr0 2.766424 1_655
O1 Sr1 2.744247 1_555
O1 Sr3 2.798726 1_555
O2 Sr0 2.708596 1_555
O2 Sr2 2.814997 1_555
O3 Sr2 2.765071 1_555
O3 Sr0 2.877080 1_565
O4 Sr1 2.777008 1_555
O4 Sr3 2.786017 1_455
O5 Sr1 2.810859 1_555
O5 Sr3 2.860496 1_445
O6 Sr0 2.814507 1_665
O6 Sr2 2.837306 1_555
O7 Sr0 2.460378 1_555
O7 Sr2 2.607048 1_555
O7 Sr2 3.031457 1_455
O8 Sr1 2.492131 1_555
O8 Sr3 2.577593 1_555
O8 Sr3 3.021706 1_455
O8 Sr1 3.237029 1_565
O9 Sr1 2.497116 1_555
O9 Sr0 2.499035 1_555
O10 Sr3 2.788616 1_545
O10 Sr1 2.957221 1_555
O11 Sr2 2.489904 1_555
O11 Sr0 2.631606 1_655
O11 Sr0 2.953697 1_555
O11 Sr2 3.218913 1_545
O12 Sr3 2.434625 1_555
O12 Sr1 2.517708 1_655
O12 Sr1 3.153021 1_555
O13 Sr2 2.492007 1_555
O13 Sr3 2.511201 1_555
