# generated using pymatgen
data_PdC4S4(IN4)2
_symmetry_space_group_name_H-M   'P 1'
_cell_length_a   9.83466600
_cell_length_b   8.60705372
_cell_length_c   15.21451838
_cell_angle_alpha   57.27884903
_cell_angle_beta   71.14343923
_cell_angle_gamma   55.15807210
_symmetry_Int_Tables_number   1
_chemical_formula_structural   PdC4S4(IN4)2
_chemical_formula_sum   'Pd2 C8 S8 I4 N16'
_cell_volume   889.06996383
_cell_formula_units_Z   2
loop_
 _symmetry_equiv_pos_site_id
 _symmetry_equiv_pos_as_xyz
  1  'x, y, z'
loop_
 _atom_site_type_symbol
 _atom_site_label
 _atom_site_symmetry_multiplicity
 _atom_site_fract_x
 _atom_site_fract_y
 _atom_site_fract_z
 _atom_site_occupancy
  Pd  Pd0  1  0.00000000  0.00000000  0.50000000  1
  Pd  Pd1  1  0.50000000  0.50000000  0.00000000  1
  C  C0  1  0.63317900  0.35789500  0.58209000  1
  C  C1  1  0.57316400  0.14210500  0.91791000  1
  C  C2  1  0.36682100  0.64210500  0.41791000  1
  C  C3  1  0.42683600  0.85789500  0.08209000  1
  C  C4  1  0.02427500  0.34823100  0.28603900  1
  C  C5  1  0.65854400  0.15176900  0.21396100  1
  C  C6  1  0.97572500  0.65176900  0.71396100  1
  C  C7  1  0.34145600  0.84823100  0.78603900  1
  S  S0  1  0.64264200  0.27037800  0.49328700  1
  S  S1  1  0.40630700  0.22962200  0.00671300  1
  S  S2  1  0.35735800  0.72962200  0.50671300  1
  S  S3  1  0.59369300  0.77037800  0.99328700  1
  S  S4  1  0.05141900  0.91132600  0.36631500  1
  S  S5  1  0.32906000  0.58867400  0.13368500  1
  S  S6  1  0.94858100  0.08867400  0.63368500  1
  S  S7  1  0.67094000  0.41132600  0.86631500  1
  I  I0  1  0.79918500  0.73413900  0.39080600  1
  I  I1  1  0.92413000  0.76586100  0.10919400  1
  I  I2  1  0.20081500  0.26586100  0.60919400  1
  I  I3  1  0.07587000  0.23413900  0.89080600  1
  N  N0  1  0.75926900  0.24463400  0.64531000  1
  N  N1  1  0.64921300  0.25536600  0.85469000  1
  N  N2  1  0.24073100  0.75536600  0.35469000  1
  N  N3  1  0.35078700  0.74463400  0.14531000  1
  N  N4  1  0.50966400  0.53405300  0.58590900  1
  N  N5  1  0.62962600  0.96594700  0.91409100  1
  N  N6  1  0.49033600  0.46594700  0.41409100  1
  N  N7  1  0.37037400  0.03405300  0.08590900  1
  N  N8  1  0.05048800  0.23254100  0.37845600  1
  N  N9  1  0.66148400  0.26745900  0.12154400  1
  N  N10  1  0.94951200  0.76745900  0.62154400  1
  N  N11  1  0.33851600  0.73254100  0.87845600  1
  N  N12  1  0.02079700  0.44107500  0.18726000  1
  N  N13  1  0.64913200  0.05892500  0.31274000  1
  N  N14  1  0.97920300  0.55892500  0.81274000  1
  N  N15  1  0.35086800  0.94107500  0.68726000  1
loop_
_geom_bond_atom_site_label_1
_geom_bond_atom_site_label_2
_geom_bond_distance
_geom_bond_site_symmetry_2
Pd0 S4 2.355334 1_545
Pd0 S6 2.355334 1_455
Pd0 S0 2.899574 1_455
Pd0 S2 2.899574 1_545
Pd1 S7 2.355334 1_554
Pd1 S5 2.355334 1_555
Pd1 S1 2.899574 1_555
Pd1 S3 2.899574 1_554
C0 N4 1.312618 1_555
C0 N0 1.337626 1_555
C0 S0 1.827680 1_555
C1 N5 1.312618 1_545
C1 N1 1.337626 1_555
C1 S1 1.827680 1_556
C2 N6 1.312618 1_555
C2 N2 1.337626 1_555
C2 S2 1.827680 1_555
C3 N7 1.312618 1_565
C3 N3 1.337626 1_555
C3 S3 1.827680 1_554
C4 N8 1.209288 1_555
C4 N12 1.265707 1_555
C5 N9 1.209288 1_555
C5 N13 1.265706 1_555
C6 N10 1.209288 1_555
C6 N14 1.265707 1_555
C7 N11 1.209288 1_555
C7 N15 1.265706 1_555
I0 N13 2.057371 1_565
I1 N12 2.057371 1_655
I2 N15 2.057371 1_545
I3 N14 2.057371 1_455
N0 S6 1.577247 1_555
N1 S7 1.577247 1_555
N2 S4 1.577247 1_555
N3 S5 1.577247 1_555
N4 S2 1.619222 1_555
N5 S3 1.619222 1_555
N6 S0 1.619222 1_555
N7 S1 1.619222 1_555
N8 Pd0 2.052511 1_555
N9 Pd1 2.052506 1_555
N10 Pd0 2.052511 1_665
N11 Pd1 2.052506 1_556
