# generated using pymatgen
data_MgFe4H42(S3O23)2
_symmetry_space_group_name_H-M   'P 1'
_cell_length_a   7.44992500
_cell_length_b   7.51928255
_cell_length_c   18.66813695
_cell_angle_alpha   98.73771283
_cell_angle_beta   95.44990771
_cell_angle_gamma   102.89692239
_symmetry_Int_Tables_number   1
_chemical_formula_structural   MgFe4H42(S3O23)2
_chemical_formula_sum   'Mg1 Fe4 H42 S6 O46'
_cell_volume   998.48631143
_cell_formula_units_Z   1
loop_
 _symmetry_equiv_pos_site_id
 _symmetry_equiv_pos_as_xyz
  1  'x, y, z'
loop_
 _atom_site_type_symbol
 _atom_site_label
 _atom_site_symmetry_multiplicity
 _atom_site_fract_x
 _atom_site_fract_y
 _atom_site_fract_z
 _atom_site_occupancy
  Mg  Mg0  1  0.00000000  0.00000000  0.00000000  1
  Fe  Fe0  1  0.46140100  0.21566600  0.68506600  1
  Fe  Fe1  1  0.53859900  0.78433400  0.31493400  1
  Fe  Fe2  1  0.18318700  0.39333600  0.33099900  1
  Fe  Fe3  1  0.81681300  0.60666400  0.66900100  1
  H  H0  1  0.53295700  0.50573700  0.37748200  1
  H  H1  1  0.46704300  0.49426300  0.62251800  1
  H  H2  1  0.85117800  0.74204300  0.24909100  1
  H  H3  1  0.14882200  0.25795700  0.75090900  1
  H  H4  1  0.73133300  0.54518500  0.26145100  1
  H  H5  1  0.26866700  0.45481500  0.73854900  1
  H  H6  1  0.84696700  0.89096500  0.41254400  1
  H  H7  1  0.15303300  0.10903500  0.58745600  1
  H  H8  1  0.69085100  0.98613900  0.44550400  1
  H  H9  1  0.30914900  0.01386100  0.55449600  1
  H  H10  1  0.97807100  0.77981000  0.10297200  1
  H  H11  1  0.02192900  0.22019000  0.89702800  1
  H  H12  1  0.92805900  0.64884000  0.02727600  1
  H  H13  1  0.07194100  0.35116000  0.97272400  1
  H  H14  1  0.81259400  0.83619900  0.57428700  1
  H  H15  1  0.18740600  0.16380100  0.42571300  1
  H  H16  1  0.74554500  0.62775100  0.52498000  1
  H  H17  1  0.25445500  0.37224900  0.47502000  1
  H  H18  1  0.68192500  0.11740000  0.01800300  1
  H  H19  1  0.31807500  0.88260000  0.98199700  1
  H  H20  1  0.62866200  0.92966500  0.95797700  1
  H  H21  1  0.37133800  0.07033500  0.04202300  1
  H  H22  1  0.61718100  0.85201300  0.71999100  1
  H  H23  1  0.38281900  0.14798700  0.28000900  1
  H  H24  1  0.82764700  0.95526400  0.74948900  1
  H  H25  1  0.17235300  0.04473600  0.25051100  1
  H  H26  1  0.91056500  0.70334800  0.88964300  1
  H  H27  1  0.08943500  0.29665200  0.11035700  1
  H  H28  1  0.03646100  0.87300900  0.86135500  1
  H  H29  1  0.96353900  0.12699100  0.13864500  1
  H  H30  1  0.55529700  0.37260800  0.07274600  1
  H  H31  1  0.44470300  0.62739200  0.92725400  1
  H  H32  1  0.60603900  0.25150000  0.12951500  1
  H  H33  1  0.39396100  0.74850000  0.87048500  1
  H  H34  1  0.70570400  0.36452600  0.45989900  1
  H  H35  1  0.29429600  0.63547400  0.54010100  1
  H  H36  1  0.83967800  0.50725200  0.42278200  1
  H  H37  1  0.16032200  0.49274800  0.57721800  1
  H  H38  1  0.33516900  0.32127800  0.92655100  1
  H  H39  1  0.66483100  0.67872200  0.07344900  1
  H  H40  1  0.49501800  0.34644800  0.87631700  1
  H  H41  1  0.50498200  0.65355200  0.12368300  1
  S  S0  1  0.76535300  0.16175300  0.25959300  1
  S  S1  1  0.23464700  0.83824700  0.74040700  1
  S  S2  1  0.78946800  0.19404600  0.57968700  1
  S  S3  1  0.21053200  0.80595400  0.42031300  1
  S  S4  1  0.82278600  0.37045000  0.80676300  1
  S  S5  1  0.17721400  0.62955000  0.19323700  1
  O  O0  1  0.91951600  0.24567300  0.32275200  1
  O  O1  1  0.08048400  0.75432700  0.67724800  1
  O  O2  1  0.69262400  0.30903800  0.23174200  1
  O  O3  1  0.30737600  0.69096200  0.76825800  1
  O  O4  1  0.38973100  0.95255500  0.70773000  1
  O  O5  1  0.61026900  0.04744500  0.29227000  1
  O  O6  1  0.16997800  0.95773100  0.79675200  1
  O  O7  1  0.83002200  0.04226900  0.20324800  1
  O  O8  1  0.89725700  0.39297000  0.60507800  1
  O  O9  1  0.10274300  0.60703000  0.39492200  1
  O  O10  1  0.67999100  0.17702700  0.50744100  1
  O  O11  1  0.32000900  0.82297300  0.49255900  1
  O  O12  1  0.66512800  0.13502700  0.63484600  1
  O  O13  1  0.33487200  0.86497300  0.36515400  1
  O  O14  1  0.92042000  0.07256400  0.57594100  1
  O  O15  1  0.07958000  0.92743600  0.42405900  1
  O  O16  1  0.85166300  0.47072400  0.88212400  1
  O  O17  1  0.14833700  0.52927600  0.11787600  1
  O  O18  1  0.11346700  0.49565200  0.24320800  1
  O  O19  1  0.88653300  0.50434800  0.75679200  1
  O  O20  1  0.92576800  0.22270900  0.79883000  1
  O  O21  1  0.07423200  0.77729100  0.20117000  1
  O  O22  1  0.61646000  0.28648100  0.78447700  1
  O  O23  1  0.38354000  0.71351900  0.21552300  1
  O  O24  1  0.44403900  0.53469800  0.34035600  1
  O  O25  1  0.55596100  0.46530200  0.65964400  1
  O  O26  1  0.25000200  0.31754400  0.72544800  1
  O  O27  1  0.74999800  0.68245600  0.27455200  1
  O  O28  1  0.28941700  0.12170800  0.58841100  1
  O  O29  1  0.71058300  0.87829200  0.41158900  1
  O  O30  1  0.90955900  0.76465200  0.05332200  1
  O  O31  1  0.09044100  0.23534800  0.94667800  1
  O  O32  1  0.24391000  0.29643800  0.42483600  1
  O  O33  1  0.75609000  0.70356200  0.57516400  1
  O  O34  1  0.26627700  0.96748000  0.01568600  1
  O  O35  1  0.73372300  0.03252000  0.98431400  1
  O  O36  1  0.25575500  0.16602900  0.27279500  1
  O  O37  1  0.74424500  0.83397100  0.72720500  1
  O  O38  1  0.95630900  0.84011400  0.89898500  1
  O  O39  1  0.04369100  0.15988600  0.10101500  1
  O  O40  1  0.56549200  0.24363200  0.07702500  1
  O  O41  1  0.43450800  0.75636800  0.92297500  1
  O  O42  1  0.72227700  0.48665600  0.44397700  1
  O  O43  1  0.27772300  0.51334400  0.55602300  1
  O  O44  1  0.45247800  0.40426800  0.91986700  1
  O  O45  1  0.54752200  0.59573200  0.08013300  1
loop_
_geom_bond_atom_site_label_1
_geom_bond_atom_site_label_2
_geom_bond_distance
_geom_bond_site_symmetry_2
Mg0 O39 2.031580 1_555
Mg0 O38 2.031580 1_444
Mg0 O34 2.051519 1_545
Mg0 O35 2.051519 1_454
Mg0 O30 2.169524 1_445
Mg0 O31 2.169524 1_554
Fe0 O25 1.997202 1_555
Fe0 O12 2.014582 1_555
Fe0 O22 2.019901 1_555
Fe0 O28 2.041078 1_555
Fe0 O4 2.050333 1_545
Fe0 O26 2.055258 1_555
Fe1 O24 1.997202 1_555
Fe1 O13 2.014582 1_555
Fe1 O23 2.019901 1_555
Fe1 O29 2.041078 1_555
Fe1 O5 2.050333 1_565
Fe1 O27 2.055258 1_555
Fe2 O24 1.973295 1_555
Fe2 O18 1.986810 1_555
Fe2 O0 2.008013 1_455
Fe2 O32 2.046599 1_555
Fe2 O9 2.085237 1_555
Fe2 O36 2.086631 1_555
Fe3 O25 1.973295 1_555
Fe3 O19 1.986810 1_555
Fe3 O1 2.008013 1_655
Fe3 O33 2.046599 1_555
Fe3 O8 2.085237 1_555
Fe3 O37 2.086631 1_555
H0 O24 0.994802 1_555
H1 O25 0.994802 1_555
H2 O27 0.988360 1_555
H3 O26 0.988360 1_555
H4 O27 0.998658 1_555
H5 O26 0.998658 1_555
H6 O29 0.997286 1_555
H6 O15 1.680391 1_655
H7 O28 0.997286 1_555
H7 O14 1.680391 1_455
H8 O29 0.997485 1_555
H9 O28 0.997485 1_555
H10 O30 0.992307 1_555
H11 O31 0.992307 1_555
H12 O30 0.975402 1_555
H13 O31 0.975402 1_555
H14 O33 0.995492 1_555
H14 O14 1.773786 1_565
H15 O32 0.995492 1_555
H15 O15 1.773786 1_545
H16 O33 1.006265 1_555
H17 O32 1.006265 1_555
H18 O35 0.992913 1_554
H19 O34 0.992913 1_556
H20 O35 0.996816 1_565
H21 O34 0.996816 1_545
H22 O37 0.985539 1_555
H23 O36 0.985539 1_555
H24 O37 0.986708 1_555
H25 O36 0.986708 1_555
H26 O38 0.990908 1_555
H26 O16 1.686093 1_555
H27 O39 0.990908 1_555
H27 O17 1.686093 1_555
H28 O38 0.988817 1_455
H29 O39 0.988817 1_655
H30 O40 1.003962 1_555
H31 O41 1.003962 1_555
H32 O40 0.986467 1_555
H33 O41 0.986467 1_555
H34 O42 0.993081 1_555
H35 O43 0.993081 1_555
H36 O42 0.984582 1_555
H37 O43 0.984582 1_555
H38 O44 0.984722 1_555
H39 O45 0.984722 1_555
H40 O44 0.976464 1_555
H41 O45 0.976464 1_555
O0 S0 1.516787 1_555
O1 S1 1.516787 1_555
O2 S0 1.476381 1_555
O3 S1 1.476381 1_555
O4 S1 1.515136 1_555
O5 S0 1.515136 1_555
O6 S1 1.465625 1_555
O7 S0 1.465625 1_555
O8 S2 1.510942 1_555
O9 S3 1.510942 1_555
O10 S2 1.480738 1_555
O11 S3 1.480738 1_555
O12 S2 1.500616 1_555
O13 S3 1.500616 1_555
O14 S2 1.477300 1_555
O15 S3 1.477300 1_555
O16 S4 1.463498 1_555
O17 S5 1.463498 1_555
O18 S5 1.505167 1_555
O19 S4 1.505167 1_555
O20 S4 1.482131 1_555
O21 S5 1.482131 1_555
O22 S4 1.516555 1_555
O23 S5 1.516555 1_555
