# generated using pymatgen
data_CeMg6Mn
_symmetry_space_group_name_H-M   'P 1'
_cell_length_a   6.85376076
_cell_length_b   6.85376020
_cell_length_c   4.59952469
_cell_angle_alpha   90.00000000
_cell_angle_beta   90.00000000
_cell_angle_gamma   125.10000056
_symmetry_Int_Tables_number   1
_chemical_formula_structural   CeMg6Mn
_chemical_formula_sum   'Ce1 Mg6 Mn1'
_cell_volume   176.76797319
_cell_formula_units_Z   1
loop_
 _symmetry_equiv_pos_site_id
 _symmetry_equiv_pos_as_xyz
  1  'x, y, z'
loop_
 _atom_site_type_symbol
 _atom_site_label
 _atom_site_symmetry_multiplicity
 _atom_site_fract_x
 _atom_site_fract_y
 _atom_site_fract_z
 _atom_site_occupancy
  Ce  Ce0  1  0.28630748  0.21369252  0.75000000  1
  Mg  Mg0  1  0.17658593  0.83472324  0.25000000  1
  Mg  Mg1  1  0.66527676  0.32341407  0.25000000  1
  Mg  Mg2  1  0.67982618  0.82017382  0.25000000  1
  Mg  Mg3  1  0.31667521  0.68022924  0.75000000  1
  Mg  Mg4  1  0.81977076  0.18332479  0.75000000  1
  Mg  Mg5  1  0.83727683  0.66272317  0.75000000  1
  Mn  Mn0  1  0.21828084  0.28171916  0.25000000  1
loop_
_geom_bond_atom_site_label_1
_geom_bond_atom_site_label_2
_geom_bond_distance
_geom_bond_site_symmetry_2
Ce0 Mn0 2.444105 1_555
Ce0 Mn0 2.444105 1_556
Ce0 Mg3 3.082560 1_555
Ce0 Mg4 3.082560 1_455
Ce0 Mg0 3.217838 1_545
Ce0 Mg0 3.217838 1_546
Ce0 Mg1 3.217839 1_556
Ce0 Mg1 3.217839 1_555
Ce0 Mg5 3.219668 1_445
Ce0 Mg5 3.219668 1_555
Mg0 Mn0 2.908697 1_565
Mg0 Mg3 2.915670 1_554
Mg0 Mg3 2.915670 1_555
Mg0 Mg5 2.988985 1_455
Mg0 Mg5 2.988985 1_454
Mg0 Mg1 3.087947 1_565
Mg0 Mg1 3.230868 1_455
Mg0 Mg2 3.348328 1_455
Mg0 Mg2 3.507376 1_555
Mg1 Mn0 2.908697 1_555
Mg1 Mg4 2.915670 1_554
Mg1 Mg4 2.915670 1_555
Mg1 Mg5 2.988985 1_554
Mg1 Mg5 2.988985 1_555
Mg1 Mg2 3.348328 1_555
Mg1 Mg2 3.507376 1_545
Mg2 Mg5 2.992851 1_554
Mg2 Mg5 2.992851 1_555
Mg2 Mg4 3.107790 1_564
Mg2 Mg4 3.107790 1_565
Mg2 Mg3 3.107790 1_555
Mg2 Mg3 3.107790 1_554
Mg2 Mn0 3.193849 1_555
Mg2 Mn0 3.193849 1_665
Mg3 Mg4 3.139848 1_455
Mg3 Mg4 3.178968 1_565
Mg3 Mg5 3.218189 1_455
Mg3 Mn0 3.329479 1_556
Mg3 Mn0 3.329479 1_555
Mg4 Mg5 3.218188 1_555
Mg4 Mn0 3.329479 1_656
Mg4 Mn0 3.329479 1_655
