# generated using pymatgen
data_Zr(PbO3)2
_symmetry_space_group_name_H-M   'P 1'
_cell_length_a   5.90909500
_cell_length_b   8.78216521
_cell_length_c   11.28680712
_cell_angle_alpha   89.73441444
_cell_angle_beta   90.00000000
_cell_angle_gamma   90.00000000
_symmetry_Int_Tables_number   1
_chemical_formula_structural   Zr(PbO3)2
_chemical_formula_sum   'Zr4 Pb8 O24'
_cell_volume   585.71859591
_cell_formula_units_Z   4
loop_
 _symmetry_equiv_pos_site_id
 _symmetry_equiv_pos_as_xyz
  1  'x, y, z'
loop_
 _atom_site_type_symbol
 _atom_site_label
 _atom_site_symmetry_multiplicity
 _atom_site_fract_x
 _atom_site_fract_y
 _atom_site_fract_z
 _atom_site_occupancy
  Zr  Zr0  1  0.25505200  0.74286200  0.08588300  1
  Zr  Zr1  1  0.22157300  0.25226700  0.60928700  1
  Zr  Zr2  1  0.75505200  0.25713800  0.41411700  1
  Zr  Zr3  1  0.72157300  0.74773300  0.89071300  1
  Pb  Pb0  1  0.97007200  0.88644000  0.34906500  1
  Pb  Pb1  1  0.32993000  0.51494800  0.33642300  1
  Pb  Pb2  1  0.39425800  0.40808500  0.93582100  1
  Pb  Pb3  1  0.36275400  0.06058400  0.86517400  1
  Pb  Pb4  1  0.47007200  0.11356000  0.15093500  1
  Pb  Pb5  1  0.82993000  0.48505200  0.16357700  1
  Pb  Pb6  1  0.86275400  0.93941600  0.63482600  1
  Pb  Pb7  1  0.89425800  0.59191500  0.56417900  1
  O  O0  1  0.19112900  0.18748100  0.99313500  1
  O  O1  1  0.99452800  0.10881900  0.49582900  1
  O  O2  1  0.99309900  0.80825600  0.98954800  1
  O  O3  1  0.13852500  0.76550500  0.48652000  1
  O  O4  1  0.02198900  0.35765600  0.28292600  1
  O  O5  1  0.03647300  0.68421900  0.23878700  1
  O  O6  1  0.19066900  0.44904400  0.49698300  1
  O  O7  1  0.14163400  0.04799700  0.71268500  1
  O  O8  1  0.25338100  0.93896500  0.21391200  1
  O  O9  1  0.17753800  0.51211700  0.06480500  1
  O  O10  1  0.40463000  0.28268900  0.76737500  1
  O  O11  1  0.42076700  0.62968900  0.85550700  1
  O  O12  1  0.49309900  0.19174400  0.51045200  1
  O  O13  1  0.63852500  0.23449500  0.01348000  1
  O  O14  1  0.69112900  0.81251900  0.50686500  1
  O  O15  1  0.49452800  0.89118100  0.00417000  1
  O  O16  1  0.53647300  0.31578100  0.26121300  1
  O  O17  1  0.52198900  0.64234400  0.21707400  1
  O  O18  1  0.69066900  0.55095600  0.00301700  1
  O  O19  1  0.64163400  0.95200300  0.78731500  1
  O  O20  1  0.75338100  0.06103500  0.28608800  1
  O  O21  1  0.67753800  0.48788300  0.43519500  1
  O  O22  1  0.92076700  0.37031100  0.64449300  1
  O  O23  1  0.90463000  0.71731100  0.73262500  1
loop_
_geom_bond_atom_site_label_1
_geom_bond_atom_site_label_2
_geom_bond_distance
_geom_bond_site_symmetry_2
O0 Pb3 2.090764 1_555
O0 Pb2 2.366651 1_555
O0 Pb4 2.509938 1_556
O1 Zr2 2.130394 1_555
O1 Zr1 2.245410 1_655
O1 Pb6 2.293304 1_545
O1 Pb0 2.570787 1_545
O2 Zr0 1.975423 1_656
O2 Zr3 2.026514 1_555
O3 Pb0 2.123789 1_455
O3 Pb7 2.272309 1_455
O4 Pb5 2.083351 1_455
O4 Zr2 2.334044 1_455
O4 Pb1 2.364661 1_555
O5 Pb0 2.208540 1_455
O5 Zr0 2.214411 1_555
O5 Pb5 2.298554 1_455
O5 Pb1 2.532997 1_555
O6 Pb1 2.070396 1_555
O6 Zr1 2.146197 1_555
O6 Pb7 2.286083 1_455
O7 Pb6 2.098809 1_445
O7 Pb3 2.164133 1_555
O7 Zr1 2.187209 1_555
O8 Pb4 2.117963 1_565
O8 Zr0 2.253289 1_555
O8 Pb0 2.309947 1_455
O9 Zr0 2.092206 1_555
O9 Pb2 2.146260 1_554
O9 Pb5 2.348612 1_455
O10 Zr1 2.104670 1_555
O10 Pb2 2.202395 1_555
O10 Pb3 2.250428 1_555
O11 Zr3 2.096640 1_555
O11 Pb2 2.148826 1_555
O12 Zr2 1.975423 1_555
O12 Zr1 2.026514 1_555
O13 Pb4 2.123789 1_555
O13 Pb2 2.272309 1_554
O14 Pb6 2.090764 1_555
O14 Pb7 2.366651 1_555
O14 Pb0 2.509938 1_555
O15 Zr0 2.130399 1_555
O15 Zr3 2.245403 1_554
O15 Pb3 2.293296 1_564
O15 Pb4 2.570794 1_565
O16 Pb4 2.208540 1_555
O16 Zr2 2.214411 1_555
O16 Pb1 2.298554 1_555
O16 Pb5 2.532997 1_555
O17 Pb1 2.083351 1_555
O17 Zr0 2.334044 1_555
O17 Pb5 2.364661 1_555
O18 Pb5 2.070396 1_555
O18 Zr3 2.146197 1_554
O18 Pb2 2.286083 1_554
O19 Pb3 2.098809 1_565
O19 Pb6 2.164133 1_555
O19 Zr3 2.187209 1_555
O20 Pb0 2.117963 1_545
O20 Zr2 2.253289 1_555
O20 Pb4 2.309947 1_555
O21 Zr2 2.092206 1_555
O21 Pb7 2.146260 1_555
O21 Pb1 2.348612 1_555
O22 Zr1 2.096640 1_655
O22 Pb7 2.148826 1_555
O23 Zr3 2.104670 1_555
O23 Pb7 2.202395 1_555
O23 Pb6 2.250428 1_555
