# generated using pymatgen
data_Ho2Ni2Sn
_symmetry_space_group_name_H-M   'P 1'
_cell_length_a   7.29816556
_cell_length_b   7.29816556
_cell_length_c   3.60986978
_cell_angle_alpha   90.00000000
_cell_angle_beta   90.00000000
_cell_angle_gamma   90.00000000
_symmetry_Int_Tables_number   1
_chemical_formula_structural   Ho2Ni2Sn
_chemical_formula_sum   'Ho4 Ni4 Sn2'
_cell_volume   192.27329022
_cell_formula_units_Z   2
loop_
 _symmetry_equiv_pos_site_id
 _symmetry_equiv_pos_as_xyz
  1  'x, y, z'
loop_
 _atom_site_type_symbol
 _atom_site_label
 _atom_site_symmetry_multiplicity
 _atom_site_fract_x
 _atom_site_fract_y
 _atom_site_fract_z
 _atom_site_occupancy
  Ho  Ho0  1  0.67431849  0.17431849  0.50000000  1
  Ho  Ho1  1  0.32568151  0.82568151  0.50000000  1
  Ho  Ho2  1  0.17431849  0.32568151  0.50000000  1
  Ho  Ho3  1  0.82568151  0.67431849  0.50000000  1
  Ni  Ni0  1  0.88006029  0.38006029  -0.00000000  1
  Ni  Ni1  1  0.11993971  0.61993971  0.00000000  1
  Ni  Ni2  1  0.38006029  0.11993971  -0.00000000  1
  Ni  Ni3  1  0.61993971  0.88006029  0.00000000  1
  Sn  Sn0  1  0.50000000  0.50000000  -0.00000000  1
  Sn  Sn1  1  0.00000000  -0.00000000  -0.00000000  1
loop_
_geom_bond_atom_site_label_1
_geom_bond_atom_site_label_2
_geom_bond_distance
_geom_bond_site_symmetry_2
Ho0 Ni0 2.786938 1_555
Ho0 Ni0 2.786938 1_556
Ho0 Ni2 2.833239 1_555
Ho0 Ni2 2.833239 1_556
Ho0 Ni3 2.833239 1_546
Ho0 Ni3 2.833239 1_545
Ho0 Sn1 3.244356 1_655
Ho0 Sn1 3.244356 1_656
Ho0 Sn0 3.244356 1_555
Ho0 Sn0 3.244356 1_556
Ho1 Ni1 2.786938 1_556
Ho1 Ni1 2.786938 1_555
Ho1 Ni2 2.833239 1_565
Ho1 Ni2 2.833239 1_566
Ho1 Ni3 2.833239 1_556
Ho1 Ni3 2.833239 1_555
Ho1 Sn1 3.244356 1_565
Ho1 Sn1 3.244356 1_566
Ho1 Sn0 3.244356 1_555
Ho1 Sn0 3.244356 1_556
Ho2 Ni2 2.786938 1_556
Ho2 Ni2 2.786938 1_555
Ho2 Ni0 2.833239 1_455
Ho2 Ni1 2.833239 1_556
Ho2 Ni0 2.833239 1_456
Ho2 Ni1 2.833239 1_555
Ho2 Sn0 3.244356 1_556
Ho2 Sn0 3.244356 1_555
Ho2 Sn1 3.244356 1_556
Ho2 Sn1 3.244356 1_555
Ho3 Ni3 2.786938 1_555
Ho3 Ni3 2.786938 1_556
Ho3 Ni1 2.833239 1_655
Ho3 Ni0 2.833239 1_555
Ho3 Ni0 2.833239 1_556
Ho3 Ni1 2.833239 1_656
Ho3 Sn0 3.244356 1_556
Ho3 Sn0 3.244356 1_555
Ho3 Sn1 3.244356 1_666
Ho3 Sn1 3.244356 1_665
Ni0 Ni1 2.475835 1_655
Ni0 Sn0 2.908586 1_555
Ni0 Sn1 2.908586 1_655
Ni1 Sn1 2.908586 1_565
Ni1 Sn0 2.908586 1_555
Ni2 Ni3 2.475835 1_545
Ni2 Sn0 2.908586 1_555
Ni2 Sn1 2.908586 1_555
Ni3 Sn1 2.908586 1_665
Ni3 Sn0 2.908586 1_555
