# generated using pymatgen
data_Er4Ir
_symmetry_space_group_name_H-M   'P 1'
_cell_length_a   7.60284747
_cell_length_b   7.60284747
_cell_length_c   7.60284747
_cell_angle_alpha   60.00000000
_cell_angle_beta   60.00000000
_cell_angle_gamma   60.00000000
_symmetry_Int_Tables_number   1
_chemical_formula_structural   Er4Ir
_chemical_formula_sum   'Er8 Ir2'
_cell_volume   310.75192998
_cell_formula_units_Z   2
loop_
 _symmetry_equiv_pos_site_id
 _symmetry_equiv_pos_as_xyz
  1  'x, y, z'
loop_
 _atom_site_type_symbol
 _atom_site_label
 _atom_site_symmetry_multiplicity
 _atom_site_fract_x
 _atom_site_fract_y
 _atom_site_fract_z
 _atom_site_occupancy
  Er  Er0  1  0.61150900  0.61150900  0.61150900  1
  Er  Er1  1  0.16547200  0.61150900  0.61150900  1
  Er  Er2  1  0.61150900  0.16547200  0.61150900  1
  Er  Er3  1  0.58452800  0.13849100  0.13849100  1
  Er  Er4  1  0.13849100  0.13849100  0.13849100  1
  Er  Er5  1  0.61150900  0.61150900  0.16547200  1
  Er  Er6  1  0.13849100  0.58452800  0.13849100  1
  Er  Er7  1  0.13849100  0.13849100  0.58452800  1
  Ir  Ir0  1  0.00000000  0.00000000  0.00000000  1
  Ir  Ir1  1  0.75000000  0.75000000  0.75000000  1
loop_
_geom_bond_atom_site_label_1
_geom_bond_atom_site_label_2
_geom_bond_distance
_geom_bond_site_symmetry_2
Er0 Ir1 2.579131 1_555
Er1 Ir1 2.579125 1_455
Er2 Ir1 2.579125 1_545
Er3 Ir0 2.579125 1_655
Er4 Ir0 2.579131 1_555
Er5 Ir1 2.579125 1_554
Er6 Ir0 2.579125 1_565
Er7 Ir0 2.579125 1_556
