# generated using pymatgen
data_Be
_symmetry_space_group_name_H-M   'P 1'
_cell_length_a   7.49362800
_cell_length_b   7.49362800
_cell_length_c   4.56256000
_cell_angle_alpha   90.00000000
_cell_angle_beta   90.00000000
_cell_angle_gamma   90.00000000
_symmetry_Int_Tables_number   1
_chemical_formula_structural   Be
_chemical_formula_sum   Be32
_cell_volume   256.20809577
_cell_formula_units_Z   32
loop_
 _symmetry_equiv_pos_site_id
 _symmetry_equiv_pos_as_xyz
  1  'x, y, z'
loop_
 _atom_site_type_symbol
 _atom_site_label
 _atom_site_symmetry_multiplicity
 _atom_site_fract_x
 _atom_site_fract_y
 _atom_site_fract_z
 _atom_site_occupancy
  Be  Be0_0  1  0.14870400  0.14870400  0.00000000  1
  Be  Be0_1  1  0.14870400  0.14870400  0.50000000  1
  Be  Be0_2  1  0.14870400  0.64870400  0.00000000  1
  Be  Be0_3  1  0.14870400  0.64870400  0.50000000  1
  Be  Be0_4  1  0.64870400  0.14870400  0.00000000  1
  Be  Be0_5  1  0.64870400  0.14870400  0.50000000  1
  Be  Be0_6  1  0.64870400  0.64870400  0.00000000  1
  Be  Be0_7  1  0.64870400  0.64870400  0.50000000  1
  Be  Be1_0  1  0.35129600  0.35129600  0.00000000  1
  Be  Be1_1  1  0.35129600  0.35129600  0.50000000  1
  Be  Be1_2  1  0.35129600  0.85129600  0.00000000  1
  Be  Be1_3  1  0.35129600  0.85129600  0.50000000  1
  Be  Be1_4  1  0.85129600  0.35129600  0.00000000  1
  Be  Be1_5  1  0.85129600  0.35129600  0.50000000  1
  Be  Be1_6  1  0.85129600  0.85129600  0.00000000  1
  Be  Be1_7  1  0.85129600  0.85129600  0.50000000  1
  Be  Be2_0  1  0.10129600  0.39870400  0.25000000  1
  Be  Be2_1  1  0.10129600  0.39870400  0.75000000  1
  Be  Be2_2  1  0.10129600  0.89870400  0.25000000  1
  Be  Be2_3  1  0.10129600  0.89870400  0.75000000  1
  Be  Be2_4  1  0.60129600  0.39870400  0.25000000  1
  Be  Be2_5  1  0.60129600  0.39870400  0.75000000  1
  Be  Be2_6  1  0.60129600  0.89870400  0.25000000  1
  Be  Be2_7  1  0.60129600  0.89870400  0.75000000  1
  Be  Be3_0  1  0.39870400  0.10129600  0.25000000  1
  Be  Be3_1  1  0.39870400  0.10129600  0.75000000  1
  Be  Be3_2  1  0.39870400  0.60129600  0.25000000  1
  Be  Be3_3  1  0.39870400  0.60129600  0.75000000  1
  Be  Be3_4  1  0.89870400  0.10129600  0.25000000  1
  Be  Be3_5  1  0.89870400  0.10129600  0.75000000  1
  Be  Be3_6  1  0.89870400  0.60129600  0.25000000  1
  Be  Be3_7  1  0.89870400  0.60129600  0.75000000  1
loop_
_geom_bond_atom_site_label_1
_geom_bond_atom_site_label_2
_geom_bond_distance
_geom_bond_site_symmetry_2
Be0_0 Be1_0 2.146987 1_555
Be0_0 Be2_3 2.221918 1_544
Be0_0 Be3_5 2.221918 1_454
Be0_0 Be3_4 2.221918 1_455
Be0_0 Be2_2 2.221918 1_545
Be0_0 Be3_0 2.221918 1_555
Be0_0 Be3_1 2.221918 1_554
Be0_0 Be2_1 2.221918 1_554
Be0_0 Be2_0 2.221918 1_555
Be0_0 Be0_1 2.281280 1_554
Be0_0 Be0_1 2.281280 1_555
Be0_1 Be1_1 2.146987 1_555
Be0_1 Be2_3 2.221918 1_545
Be0_1 Be3_5 2.221918 1_455
Be0_1 Be3_4 2.221918 1_455
Be0_1 Be2_2 2.221918 1_545
Be0_1 Be3_0 2.221918 1_555
Be0_1 Be3_1 2.221918 1_555
Be0_1 Be2_0 2.221918 1_555
Be0_1 Be2_1 2.221918 1_555
Be0_2 Be1_2 2.146987 1_555
Be0_2 Be2_0 2.221918 1_555
Be0_2 Be2_1 2.221918 1_554
Be0_2 Be3_7 2.221918 1_454
Be0_2 Be3_6 2.221918 1_455
Be0_2 Be3_2 2.221918 1_555
Be0_2 Be3_3 2.221918 1_554
Be0_2 Be2_3 2.221918 1_554
Be0_2 Be2_2 2.221918 1_555
Be0_2 Be0_3 2.281280 1_555
Be0_2 Be0_3 2.281280 1_554
Be0_3 Be1_3 2.146987 1_555
Be0_3 Be2_1 2.221918 1_555
Be0_3 Be2_0 2.221918 1_555
Be0_3 Be3_7 2.221918 1_455
Be0_3 Be3_6 2.221918 1_455
Be0_3 Be3_3 2.221918 1_555
Be0_3 Be3_2 2.221918 1_555
Be0_3 Be2_2 2.221918 1_555
Be0_3 Be2_3 2.221918 1_555
Be0_4 Be1_4 2.146987 1_555
Be0_4 Be3_0 2.221918 1_555
Be0_4 Be3_1 2.221918 1_554
Be0_4 Be2_7 2.221918 1_544
Be0_4 Be2_6 2.221918 1_545
Be0_4 Be2_5 2.221918 1_554
Be0_4 Be2_4 2.221918 1_555
Be0_4 Be3_5 2.221918 1_554
Be0_4 Be3_4 2.221918 1_555
Be0_4 Be0_5 2.281280 1_555
Be0_4 Be0_5 2.281280 1_554
Be0_5 Be1_5 2.146987 1_555
Be0_5 Be3_0 2.221918 1_555
Be0_5 Be3_1 2.221918 1_555
Be0_5 Be2_7 2.221918 1_545
Be0_5 Be2_6 2.221918 1_545
Be0_5 Be2_5 2.221918 1_555
Be0_5 Be2_4 2.221918 1_555
Be0_5 Be3_5 2.221918 1_555
Be0_5 Be3_4 2.221918 1_555
Be0_6 Be1_6 2.146987 1_555
Be0_6 Be2_4 2.221918 1_555
Be0_6 Be2_5 2.221918 1_554
Be0_6 Be3_3 2.221918 1_554
Be0_6 Be3_2 2.221918 1_555
Be0_6 Be2_6 2.221918 1_555
Be0_6 Be3_7 2.221918 1_554
Be0_6 Be2_7 2.221918 1_554
Be0_6 Be3_6 2.221918 1_555
Be0_6 Be0_7 2.281280 1_554
Be0_6 Be0_7 2.281280 1_555
Be0_7 Be1_7 2.146987 1_555
Be0_7 Be2_4 2.221918 1_555
Be0_7 Be2_5 2.221918 1_555
Be0_7 Be3_3 2.221918 1_555
Be0_7 Be3_2 2.221918 1_555
Be0_7 Be2_6 2.221918 1_555
Be0_7 Be2_7 2.221918 1_555
Be0_7 Be3_6 2.221918 1_555
Be0_7 Be3_7 2.221918 1_555
Be1_0 Be3_0 2.221918 1_555
Be1_0 Be2_5 2.221918 1_554
Be1_0 Be3_1 2.221918 1_554
Be1_0 Be2_1 2.221918 1_554
Be1_0 Be2_0 2.221918 1_555
Be1_0 Be2_4 2.221918 1_555
Be1_0 Be3_3 2.221918 1_554
Be1_0 Be3_2 2.221918 1_555
Be1_0 Be1_1 2.281280 1_554
Be1_0 Be1_1 2.281280 1_555
Be1_1 Be2_5 2.221918 1_555
Be1_1 Be3_0 2.221918 1_555
Be1_1 Be3_1 2.221918 1_555
Be1_1 Be2_0 2.221918 1_555
Be1_1 Be2_4 2.221918 1_555
Be1_1 Be2_1 2.221918 1_555
Be1_1 Be3_2 2.221918 1_555
Be1_1 Be3_3 2.221918 1_555
Be1_2 Be2_2 2.221918 1_555
Be1_2 Be2_3 2.221918 1_554
Be1_2 Be2_6 2.221918 1_555
Be1_2 Be3_1 2.221918 1_564
Be1_2 Be3_2 2.221918 1_555
Be1_2 Be3_3 2.221918 1_554
Be1_2 Be2_7 2.221918 1_554
Be1_2 Be3_0 2.221918 1_565
Be1_2 Be1_3 2.281280 1_554
Be1_2 Be1_3 2.281280 1_555
Be1_3 Be2_2 2.221918 1_555
Be1_3 Be3_1 2.221918 1_565
Be1_3 Be3_3 2.221918 1_555
Be1_3 Be2_6 2.221918 1_555
Be1_3 Be2_3 2.221918 1_555
Be1_3 Be3_2 2.221918 1_555
Be1_3 Be2_7 2.221918 1_555
Be1_3 Be3_0 2.221918 1_565
Be1_4 Be2_0 2.221918 1_655
Be1_4 Be2_1 2.221918 1_654
Be1_4 Be3_6 2.221918 1_555
Be1_4 Be3_4 2.221918 1_555
Be1_4 Be2_5 2.221918 1_554
Be1_4 Be3_7 2.221918 1_554
Be1_4 Be2_4 2.221918 1_555
Be1_4 Be3_5 2.221918 1_554
Be1_4 Be1_5 2.281280 1_554
Be1_4 Be1_5 2.281280 1_555
Be1_5 Be2_5 2.221918 1_555
Be1_5 Be3_6 2.221918 1_555
Be1_5 Be2_0 2.221918 1_655
Be1_5 Be3_4 2.221918 1_555
Be1_5 Be2_1 2.221918 1_655
Be1_5 Be3_7 2.221918 1_555
Be1_5 Be2_4 2.221918 1_555
Be1_5 Be3_5 2.221918 1_555
Be1_6 Be3_5 2.221918 1_564
Be1_6 Be3_6 2.221918 1_555
Be1_6 Be3_4 2.221918 1_565
Be1_6 Be2_2 2.221918 1_655
Be1_6 Be2_6 2.221918 1_555
Be1_6 Be2_3 2.221918 1_654
Be1_6 Be3_7 2.221918 1_554
Be1_6 Be2_7 2.221918 1_554
Be1_6 Be1_7 2.281280 1_555
Be1_6 Be1_7 2.281280 1_554
Be1_7 Be3_6 2.221918 1_555
Be1_7 Be3_4 2.221918 1_565
Be1_7 Be3_5 2.221918 1_565
Be1_7 Be3_7 2.221918 1_555
Be1_7 Be2_2 2.221918 1_655
Be1_7 Be2_6 2.221918 1_555
Be1_7 Be2_3 2.221918 1_655
Be1_7 Be2_7 2.221918 1_555
Be2_0 Be3_6 2.146987 1_455
Be2_0 Be2_1 2.281280 1_554
Be2_0 Be2_1 2.281280 1_555
Be2_1 Be3_7 2.146987 1_455
Be2_2 Be3_4 2.146987 1_465
Be2_2 Be2_3 2.281280 1_555
Be2_2 Be2_3 2.281280 1_554
Be2_3 Be3_5 2.146987 1_465
Be2_4 Be3_2 2.146987 1_555
Be2_4 Be2_5 2.281280 1_555
Be2_4 Be2_5 2.281280 1_554
Be2_5 Be3_3 2.146987 1_555
Be2_6 Be3_0 2.146987 1_565
Be2_6 Be2_7 2.281280 1_554
Be2_6 Be2_7 2.281280 1_555
Be2_7 Be3_1 2.146987 1_565
Be3_0 Be3_1 2.281280 1_555
Be3_0 Be3_1 2.281280 1_554
Be3_2 Be3_3 2.281280 1_555
Be3_2 Be3_3 2.281280 1_554
Be3_4 Be3_5 2.281280 1_554
Be3_4 Be3_5 2.281280 1_555
Be3_6 Be3_7 2.281280 1_555
Be3_6 Be3_7 2.281280 1_554
