# generated using pymatgen
data_Y2RhPb
_symmetry_space_group_name_H-M   'P 1'
_cell_length_a   12.31509642
_cell_length_b   12.31509642
_cell_length_c   12.31509642
_cell_angle_alpha   129.34360568
_cell_angle_beta   117.29539480
_cell_angle_gamma   84.68980511
_symmetry_Int_Tables_number   1
_chemical_formula_structural   Y2RhPb
_chemical_formula_sum   'Y2 Rh1 Pb1'
_cell_volume   1229.06576066
_cell_formula_units_Z   1
loop_
 _symmetry_equiv_pos_site_id
 _symmetry_equiv_pos_as_xyz
  1  'x, y, z'
loop_
 _atom_site_type_symbol
 _atom_site_label
 _atom_site_symmetry_multiplicity
 _atom_site_fract_x
 _atom_site_fract_y
 _atom_site_fract_z
 _atom_site_occupancy
  Y  Y0  1  0.00000000  0.22885400  0.22885400  1
  Y  Y1  1  0.00000000  0.77114600  0.77114600  1
  Rh  Rh0  1  0.00000000  0.00000000  0.00000000  1
  Pb  Pb0  1  0.00000000  0.50000000  0.50000000  1
loop_
_geom_bond_atom_site_label_1
_geom_bond_atom_site_label_2
_geom_bond_distance
_geom_bond_site_symmetry_2
Rh0 Y0 2.411403 1_555
Rh0 Y1 2.411403 1_544
Pb0 Y1 2.857029 1_555
Pb0 Y0 2.857029 1_555
