# generated using pymatgen
data_CeIn7Pt2
_symmetry_space_group_name_H-M   'P 1'
_cell_length_a   11.32388816
_cell_length_b   11.32388816
_cell_length_c   11.32388816
_cell_angle_alpha   156.18074477
_cell_angle_beta   156.18074477
_cell_angle_gamma   33.93740438
_symmetry_Int_Tables_number   1
_chemical_formula_structural   CeIn7Pt2
_chemical_formula_sum   'Ce1 In7 Pt2'
_cell_volume   236.59346006
_cell_formula_units_Z   1
loop_
 _symmetry_equiv_pos_site_id
 _symmetry_equiv_pos_as_xyz
  1  'x, y, z'
loop_
 _atom_site_type_symbol
 _atom_site_label
 _atom_site_symmetry_multiplicity
 _atom_site_fract_x
 _atom_site_fract_y
 _atom_site_fract_z
 _atom_site_occupancy
  Ce  Ce0  1  0.50000000  0.50000000  0.00000000  1
  In  In0  1  0.00000000  0.00000000  0.00000000  1
  In  In1  1  0.75000000  0.25000000  0.50000000  1
  In  In2  1  0.25000000  0.75000000  0.50000000  1
  In  In3  1  0.89422700  0.39422700  0.50000000  1
  In  In4  1  0.39422700  0.89422700  0.50000000  1
  In  In5  1  0.10577300  0.60577300  0.50000000  1
  In  In6  1  0.60577300  0.10577300  0.50000000  1
  Pt  Pt0  1  0.67458300  0.67458300  0.00000000  1
  Pt  Pt1  1  0.32541700  0.32541700  0.00000000  1
loop_
_geom_bond_atom_site_label_1
_geom_bond_atom_site_label_2
_geom_bond_distance
_geom_bond_site_symmetry_2
Ce0 In3 3.272740 1_555
Ce0 In3 3.272740 1_454
Ce0 In5 3.272740 1_554
Ce0 In4 3.272740 1_544
Ce0 In6 3.272740 1_554
Ce0 In4 3.272740 1_555
Ce0 In5 3.272740 1_655
Ce0 In6 3.272740 1_565
Ce0 In0 3.304869 1_565
Ce0 In0 3.304869 1_655
Ce0 In0 3.304869 1_666
Ce0 In0 3.304869 1_554
In0 In6 3.272740 1_555
In0 In3 3.272740 1_444
In0 In6 3.272740 1_454
In0 In4 3.272740 1_444
In0 In4 3.272740 1_545
In0 In5 3.272740 1_555
In0 In5 3.272740 1_544
In0 In3 3.272740 1_455
In1 Pt0 2.851306 1_556
In1 Pt0 2.851306 1_545
In1 Pt1 2.851306 1_555
In1 Pt1 2.851306 1_656
In2 Pt0 2.851306 1_455
In2 Pt0 2.851306 1_556
In2 Pt1 2.851306 1_555
In2 Pt1 2.851306 1_566
In3 Pt1 2.771788 1_656
In3 Pt1 2.771788 1_555
In4 Pt1 2.771788 1_566
In4 Pt1 2.771788 1_555
In5 Pt0 2.771788 1_556
In5 Pt0 2.771788 1_455
In6 Pt0 2.771788 1_556
In6 Pt0 2.771788 1_545
