# generated using pymatgen
data_LaAl(NO4)6
_symmetry_space_group_name_H-M   'P 1'
_cell_length_a   12.57326300
_cell_length_b   12.57326300
_cell_length_c   12.57326300
_cell_angle_alpha   90.00000000
_cell_angle_beta   90.00000000
_cell_angle_gamma   90.00000000
_symmetry_Int_Tables_number   1
_chemical_formula_structural   LaAl(NO4)6
_chemical_formula_sum   'La4 Al4 N24 O96'
_cell_volume   1987.66870451
_cell_formula_units_Z   4
loop_
 _symmetry_equiv_pos_site_id
 _symmetry_equiv_pos_as_xyz
  1  'x, y, z'
loop_
 _atom_site_type_symbol
 _atom_site_label
 _atom_site_symmetry_multiplicity
 _atom_site_fract_x
 _atom_site_fract_y
 _atom_site_fract_z
 _atom_site_occupancy
  La  La0  1  0.24894000  0.75106000  0.25106000  1
  La  La1  1  0.74894000  0.74894000  0.74894000  1
  La  La2  1  0.25106000  0.24894000  0.75106000  1
  La  La3  1  0.75106000  0.25106000  0.24894000  1
  Al  Al0  1  0.25365600  0.25365600  0.25365600  1
  Al  Al1  1  0.74634400  0.75365600  0.24634400  1
  Al  Al2  1  0.75365600  0.24634400  0.74634400  1
  Al  Al3  1  0.24634400  0.74634400  0.75365600  1
  N  N0  1  0.32467600  0.93076500  0.40590400  1
  N  N1  1  0.59409600  0.82467600  0.56923500  1
  N  N2  1  0.43076500  0.09409600  0.67532400  1
  N  N3  1  0.82467600  0.56923500  0.59409600  1
  N  N4  1  0.09409600  0.67532400  0.43076500  1
  N  N5  1  0.93076500  0.40590400  0.32467600  1
  N  N6  1  0.67532400  0.43076500  0.09409600  1
  N  N7  1  0.40590400  0.32467600  0.93076500  1
  N  N8  1  0.56923500  0.59409600  0.82467600  1
  N  N9  1  0.17532400  0.06923500  0.90590400  1
  N  N10  1  0.90590400  0.17532400  0.06923500  1
  N  N11  1  0.06923500  0.90590400  0.17532400  1
  N  N12  1  0.43079500  0.59487200  0.32511200  1
  N  N13  1  0.67488800  0.93079500  0.90512800  1
  N  N14  1  0.09487200  0.17488800  0.56920500  1
  N  N15  1  0.93079500  0.90512800  0.67488800  1
  N  N16  1  0.17488800  0.56920500  0.09487200  1
  N  N17  1  0.59487200  0.32511200  0.43079500  1
  N  N18  1  0.56920500  0.09487200  0.17488800  1
  N  N19  1  0.32511200  0.43079500  0.59487200  1
  N  N20  1  0.90512800  0.67488800  0.93079500  1
  N  N21  1  0.06920500  0.40512800  0.82511200  1
  N  N22  1  0.82511200  0.06920500  0.40512800  1
  N  N23  1  0.40512800  0.82511200  0.06920500  1
  O  O0  1  0.26329400  0.85608000  0.43699000  1
  O  O1  1  0.56301000  0.76329400  0.64392000  1
  O  O2  1  0.35608000  0.06301000  0.73670600  1
  O  O3  1  0.76329400  0.64392000  0.56301000  1
  O  O4  1  0.06301000  0.73670600  0.35608000  1
  O  O5  1  0.85608000  0.43699000  0.26329400  1
  O  O6  1  0.73670600  0.35608000  0.06301000  1
  O  O7  1  0.43699000  0.26329400  0.85608000  1
  O  O8  1  0.64392000  0.56301000  0.76329400  1
  O  O9  1  0.23670600  0.14392000  0.93699000  1
  O  O10  1  0.93699000  0.23670600  0.14392000  1
  O  O11  1  0.14392000  0.93699000  0.23670600  1
  O  O12  1  0.36050100  0.92423200  0.31161900  1
  O  O13  1  0.68838100  0.86050100  0.57576800  1
  O  O14  1  0.42423200  0.18838100  0.63949900  1
  O  O15  1  0.86050100  0.57576800  0.68838100  1
  O  O16  1  0.18838100  0.63949900  0.42423200  1
  O  O17  1  0.92423200  0.31161900  0.36050100  1
  O  O18  1  0.63949900  0.42423200  0.18838100  1
  O  O19  1  0.31161900  0.36050100  0.92423200  1
  O  O20  1  0.57576800  0.68838100  0.86050100  1
  O  O21  1  0.13949900  0.07576800  0.81161900  1
  O  O22  1  0.81161900  0.13949900  0.07576800  1
  O  O23  1  0.07576800  0.81161900  0.13949900  1
  O  O24  1  0.15221400  0.99381000  0.96490200  1
  O  O25  1  0.03509800  0.65221400  0.50619000  1
  O  O26  1  0.49381000  0.53509800  0.84778600  1
  O  O27  1  0.65221400  0.50619000  0.03509800  1
  O  O28  1  0.53509800  0.84778600  0.49381000  1
  O  O29  1  0.99381000  0.96490200  0.15221400  1
  O  O30  1  0.84778600  0.49381000  0.53509800  1
  O  O31  1  0.96490200  0.15221400  0.99381000  1
  O  O32  1  0.50619000  0.03509800  0.65221400  1
  O  O33  1  0.34778600  0.00619000  0.46490200  1
  O  O34  1  0.46490200  0.34778600  0.00619000  1
  O  O35  1  0.00619000  0.46490200  0.34778600  1
  O  O36  1  0.35613400  0.56398900  0.26336700  1
  O  O37  1  0.73663300  0.85613400  0.93601100  1
  O  O38  1  0.06398900  0.23663300  0.64386600  1
  O  O39  1  0.85613400  0.93601100  0.73663300  1
  O  O40  1  0.23663300  0.64386600  0.06398900  1
  O  O41  1  0.56398900  0.26336700  0.35613400  1
  O  O42  1  0.64386600  0.06398900  0.23663300  1
  O  O43  1  0.26336700  0.35613400  0.56398900  1
  O  O44  1  0.93601100  0.73663300  0.85613400  1
  O  O45  1  0.14386600  0.43601100  0.76336700  1
  O  O46  1  0.76336700  0.14386600  0.43601100  1
  O  O47  1  0.43601100  0.76336700  0.14386600  1
  O  O48  1  0.31097400  0.86115500  0.07674400  1
  O  O49  1  0.92325600  0.81097400  0.63884500  1
  O  O50  1  0.36115500  0.42325600  0.68902600  1
  O  O51  1  0.81097400  0.63884500  0.92325600  1
  O  O52  1  0.42325600  0.68902600  0.36115500  1
  O  O53  1  0.86115500  0.07674400  0.31097400  1
  O  O54  1  0.68902600  0.36115500  0.42325600  1
  O  O55  1  0.07674400  0.31097400  0.86115500  1
  O  O56  1  0.63884500  0.92325600  0.81097400  1
  O  O57  1  0.18902600  0.13884500  0.57674400  1
  O  O58  1  0.57674400  0.18902600  0.13884500  1
  O  O59  1  0.13884500  0.57674400  0.18902600  1
  O  O60  1  0.50599700  0.53639400  0.34799700  1
  O  O61  1  0.65200300  0.00599700  0.96360600  1
  O  O62  1  0.03639400  0.15200300  0.49400300  1
  O  O63  1  0.00599700  0.96360600  0.65200300  1
  O  O64  1  0.15200300  0.49400300  0.03639400  1
  O  O65  1  0.53639400  0.34799700  0.50599700  1
  O  O66  1  0.49400300  0.03639400  0.15200300  1
  O  O67  1  0.34799700  0.50599700  0.53639400  1
  O  O68  1  0.96360600  0.65200300  0.00599700  1
  O  O69  1  0.99400300  0.46360600  0.84799700  1
  O  O70  1  0.84799700  0.99400300  0.46360600  1
  O  O71  1  0.46360600  0.84799700  0.99400300  1
  O  O72  1  0.19781400  0.34260800  0.35521100  1
  O  O73  1  0.64478900  0.69781400  0.15739200  1
  O  O74  1  0.84260800  0.14478900  0.80218600  1
  O  O75  1  0.69781400  0.15739200  0.64478900  1
  O  O76  1  0.14478900  0.80218600  0.84260800  1
  O  O77  1  0.34260800  0.35521100  0.19781400  1
  O  O78  1  0.80218600  0.84260800  0.14478900  1
  O  O79  1  0.35521100  0.19781400  0.34260800  1
  O  O80  1  0.15739200  0.64478900  0.69781400  1
  O  O81  1  0.30218600  0.65739200  0.85521100  1
  O  O82  1  0.85521100  0.30218600  0.65739200  1
  O  O83  1  0.65739200  0.85521100  0.30218600  1
  O  O84  1  0.15729700  0.29588000  0.15036400  1
  O  O85  1  0.84963600  0.65729700  0.20412000  1
  O  O86  1  0.79588000  0.34963600  0.84270300  1
  O  O87  1  0.65729700  0.20412000  0.84963600  1
  O  O88  1  0.34963600  0.84270300  0.79588000  1
  O  O89  1  0.29588000  0.15036400  0.15729700  1
  O  O90  1  0.84270300  0.79588000  0.34963600  1
  O  O91  1  0.15036400  0.15729700  0.29588000  1
  O  O92  1  0.20412000  0.84963600  0.65729700  1
  O  O93  1  0.34270300  0.70412000  0.65036400  1
  O  O94  1  0.65036400  0.34270300  0.70412000  1
  O  O95  1  0.70412000  0.65036400  0.34270300  1
loop_
_geom_bond_atom_site_label_1
_geom_bond_atom_site_label_2
_geom_bond_distance
_geom_bond_site_symmetry_2
La0 O0 2.690949 1_555
La0 O4 2.690949 1_555
La0 O11 2.690949 1_555
La0 O16 2.699646 1_555
La0 O23 2.699646 1_555
La0 O12 2.699646 1_555
La0 O59 2.707056 1_555
La0 O48 2.707056 1_555
La0 O52 2.707056 1_555
La0 O40 2.715288 1_555
La0 O36 2.715288 1_555
La0 O47 2.715288 1_555
La1 O1 2.690949 1_555
La1 O8 2.690949 1_555
La1 O3 2.690949 1_555
La1 O13 2.699646 1_555
La1 O15 2.699646 1_555
La1 O20 2.699646 1_555
La1 O51 2.707056 1_555
La1 O49 2.707056 1_555
La1 O56 2.707056 1_555
La1 O39 2.715288 1_555
La1 O37 2.715288 1_555
La1 O44 2.715288 1_555
La2 O2 2.690949 1_555
La2 O7 2.690949 1_555
La2 O9 2.690949 1_555
La2 O14 2.699646 1_555
La2 O21 2.699646 1_555
La2 O19 2.699646 1_555
La2 O57 2.707056 1_555
La2 O50 2.707056 1_555
La2 O55 2.707056 1_555
La2 O38 2.715288 1_555
La2 O45 2.715288 1_555
La2 O43 2.715288 1_555
La3 O6 2.690949 1_555
La3 O5 2.690949 1_555
La3 O10 2.690949 1_555
La3 O18 2.699646 1_555
La3 O22 2.699646 1_555
La3 O17 2.699646 1_555
La3 O58 2.707056 1_555
La3 O54 2.707056 1_555
La3 O53 2.707056 1_555
La3 O42 2.715288 1_555
La3 O41 2.715288 1_555
La3 O46 2.715288 1_555
Al0 O72 1.836910 1_555
Al0 O77 1.836910 1_555
Al0 O79 1.836910 1_555
Al0 O84 1.853742 1_555
Al0 O91 1.853742 1_555
Al0 O89 1.853742 1_555
Al1 O78 1.836910 1_555
Al1 O73 1.836910 1_555
Al1 O83 1.836910 1_555
Al1 O95 1.853742 1_555
Al1 O85 1.853742 1_555
Al1 O90 1.853742 1_555
Al2 O74 1.836910 1_555
Al2 O75 1.836910 1_555
Al2 O82 1.836910 1_555
Al2 O87 1.853742 1_555
Al2 O94 1.853742 1_555
Al2 O86 1.853742 1_555
Al3 O76 1.836910 1_555
Al3 O80 1.836910 1_555
Al3 O81 1.836910 1_555
Al3 O93 1.853742 1_555
Al3 O92 1.853742 1_555
Al3 O88 1.853742 1_555
N0 O33 1.238563 1_565
N0 O12 1.270819 1_555
N0 O0 1.276786 1_555
N1 O28 1.238563 1_555
N1 O13 1.270819 1_555
N1 O1 1.276786 1_555
N2 O32 1.238563 1_555
N2 O14 1.270819 1_555
N2 O2 1.276786 1_555
N3 O30 1.238563 1_555
N3 O15 1.270819 1_555
N3 O3 1.276786 1_555
N4 O25 1.238563 1_555
N4 O16 1.270819 1_555
N4 O4 1.276786 1_555
N5 O35 1.238563 1_655
N5 O17 1.270819 1_555
N5 O5 1.276786 1_555
N6 O27 1.238563 1_555
N6 O18 1.270819 1_555
N6 O6 1.276786 1_555
N7 O34 1.238563 1_556
N7 O19 1.270819 1_555
N7 O7 1.276786 1_555
N8 O26 1.238563 1_555
N8 O20 1.270819 1_555
N8 O8 1.276786 1_555
N9 O24 1.238563 1_545
N9 O21 1.270819 1_555
N9 O9 1.276786 1_555
N10 O31 1.238563 1_554
N10 O22 1.270819 1_555
N10 O10 1.276786 1_555
N11 O29 1.238563 1_455
N11 O23 1.270819 1_555
N11 O11 1.276786 1_555
N12 O60 1.231842 1_555
N12 O52 1.271138 1_555
N12 O36 1.278551 1_555
N13 O61 1.231842 1_565
N13 O56 1.271138 1_555
N13 O37 1.278551 1_555
N14 O62 1.231842 1_555
N14 O57 1.271138 1_555
N14 O38 1.278551 1_555
N15 O63 1.231842 1_655
N15 O49 1.271138 1_555
N15 O39 1.278551 1_555
N16 O64 1.231842 1_555
N16 O59 1.271138 1_555
N16 O40 1.278551 1_555
N17 O65 1.231842 1_555
N17 O54 1.271138 1_555
N17 O41 1.278551 1_555
N18 O66 1.231842 1_555
N18 O58 1.271138 1_555
N18 O42 1.278551 1_555
N19 O67 1.231842 1_555
N19 O50 1.271138 1_555
N19 O43 1.278551 1_555
N20 O68 1.231842 1_556
N20 O51 1.271138 1_555
N20 O44 1.278551 1_555
N21 O69 1.231842 1_455
N21 O55 1.271138 1_555
N21 O45 1.278551 1_555
N22 O70 1.231842 1_545
N22 O53 1.271138 1_555
N22 O46 1.278551 1_555
N23 O71 1.231842 1_554
N23 O48 1.271138 1_555
N23 O47 1.278551 1_555
