# generated using pymatgen
data_CsMoH2C2SO7
_symmetry_space_group_name_H-M   'P 1'
_cell_length_a   16.83697900
_cell_length_b   9.98627500
_cell_length_c   13.10554313
_cell_angle_alpha   66.36964647
_cell_angle_beta   90.00000000
_cell_angle_gamma   90.00000000
_symmetry_Int_Tables_number   1
_chemical_formula_structural   CsMoH2C2SO7
_chemical_formula_sum   'Cs8 Mo8 H16 C16 S8 O56'
_cell_volume   2018.78255193
_cell_formula_units_Z   8
loop_
 _symmetry_equiv_pos_site_id
 _symmetry_equiv_pos_as_xyz
  1  'x, y, z'
loop_
 _atom_site_type_symbol
 _atom_site_label
 _atom_site_symmetry_multiplicity
 _atom_site_fract_x
 _atom_site_fract_y
 _atom_site_fract_z
 _atom_site_occupancy
  Cs  Cs0  1  0.90270500  0.03167200  0.71188600  1
  Cs  Cs1  1  0.59729500  0.03167200  0.21188600  1
  Cs  Cs2  1  0.09729500  0.96832800  0.28811400  1
  Cs  Cs3  1  0.40270500  0.96832800  0.78811400  1
  Cs  Cs4  1  0.51820300  0.52299500  0.18760200  1
  Cs  Cs5  1  0.98179700  0.52299500  0.68760200  1
  Cs  Cs6  1  0.48179700  0.47700500  0.81239800  1
  Cs  Cs7  1  0.01820300  0.47700500  0.31239800  1
  Mo  Mo0  1  0.64074200  0.76675600  0.88361300  1
  Mo  Mo1  1  0.85925800  0.76675600  0.38361300  1
  Mo  Mo2  1  0.35925800  0.23324400  0.11638700  1
  Mo  Mo3  1  0.14074200  0.23324400  0.61638700  1
  Mo  Mo4  1  0.63525900  0.13032100  0.83921700  1
  Mo  Mo5  1  0.86474100  0.13032100  0.33921700  1
  Mo  Mo6  1  0.36474100  0.86967900  0.16078300  1
  Mo  Mo7  1  0.13525900  0.86967900  0.66078300  1
  H  H0  1  0.70678500  0.56992000  0.08921400  1
  H  H1  1  0.79321500  0.56992000  0.58921400  1
  H  H2  1  0.29321500  0.43008000  0.91078600  1
  H  H3  1  0.20678500  0.43008000  0.41078600  1
  H  H4  1  0.70637100  0.48721700  0.00720700  1
  H  H5  1  0.79362900  0.48721700  0.50720700  1
  H  H6  1  0.29362900  0.51278300  0.99279300  1
  H  H7  1  0.20637100  0.51278300  0.49279300  1
  H  H8  1  0.66514000  0.42549700  0.68592500  1
  H  H9  1  0.83486000  0.42549700  0.18592500  1
  H  H10  1  0.33486000  0.57450300  0.31407500  1
  H  H11  1  0.16514000  0.57450300  0.81407500  1
  H  H12  1  0.63271000  0.34069600  0.61441200  1
  H  H13  1  0.86729000  0.34069600  0.11441200  1
  H  H14  1  0.36729000  0.65930400  0.38558800  1
  H  H15  1  0.13271000  0.65930400  0.88558800  1
  C  C0  1  0.78837600  0.68994900  0.78334600  1
  C  C1  1  0.71162400  0.68994900  0.28334600  1
  C  C2  1  0.21162400  0.31005100  0.21665400  1
  C  C3  1  0.28837600  0.31005100  0.71665400  1
  C  C4  1  0.71772400  0.62037400  0.74577000  1
  C  C5  1  0.78227600  0.62037400  0.24577000  1
  C  C6  1  0.28227600  0.37962600  0.25423000  1
  C  C7  1  0.21772400  0.37962600  0.75423000  1
  C  C8  1  0.79974000  0.24735200  0.85780500  1
  C  C9  1  0.70026000  0.24735200  0.35780500  1
  C  C10  1  0.20026000  0.75264800  0.14219500  1
  C  C11  1  0.29974000  0.75264800  0.64219500  1
  C  C12  1  0.74456200  0.29626300  0.93266400  1
  C  C13  1  0.75543800  0.29626300  0.43266400  1
  C  C14  1  0.25543800  0.70373700  0.06733600  1
  C  C15  1  0.24456200  0.70373700  0.56733600  1
  S  S0  1  0.66903300  0.90556300  0.98992700  1
  S  S1  1  0.83096700  0.90556300  0.48992700  1
  S  S2  1  0.33096700  0.09443700  0.01007300  1
  S  S3  1  0.16903300  0.09443700  0.51007300  1
  S  S4  1  0.63084400  0.99559200  0.72400800  1
  S  S5  1  0.86915600  0.99559200  0.22400800  1
  S  S6  1  0.36915600  0.00440800  0.27599200  1
  S  S7  1  0.13084400  0.00440800  0.77599200  1
  O  O0  1  0.54073500  0.71718400  0.90646100  1
  O  O1  1  0.95926500  0.71718400  0.40646100  1
  O  O2  1  0.45926500  0.28281600  0.09353900  1
  O  O3  1  0.04073500  0.28281600  0.59353900  1
  O  O4  1  0.53619200  0.15159900  0.86604100  1
  O  O5  1  0.96380800  0.15159900  0.36604100  1
  O  O6  1  0.46380800  0.84840100  0.13395900  1
  O  O7  1  0.03619200  0.84840100  0.63395900  1
  O  O8  1  0.67605700  0.56179400  0.02616200  1
  O  O9  1  0.82394300  0.56179400  0.52616200  1
  O  O10  1  0.32394300  0.43820600  0.97383800  1
  O  O11  1  0.17605700  0.43820600  0.47383800  1
  O  O12  1  0.62675800  0.34684900  0.68675600  1
  O  O13  1  0.87324200  0.34684900  0.18675600  1
  O  O14  1  0.37324200  0.65315100  0.31324400  1
  O  O15  1  0.12675800  0.65315100  0.81324400  1
  O  O16  1  0.76561400  0.75773800  0.84450800  1
  O  O17  1  0.73438600  0.75773800  0.34450800  1
  O  O18  1  0.23438600  0.24226200  0.15549200  1
  O  O19  1  0.26561400  0.24226200  0.65549200  1
  O  O20  1  0.64915100  0.64035100  0.77955700  1
  O  O21  1  0.85084900  0.64035100  0.27955700  1
  O  O22  1  0.35084900  0.35964900  0.22044300  1
  O  O23  1  0.14915100  0.35964900  0.72044300  1
  O  O24  1  0.85733700  0.67964900  0.75531100  1
  O  O25  1  0.64266300  0.67964900  0.25531100  1
  O  O26  1  0.14266300  0.32035100  0.24468900  1
  O  O27  1  0.35733700  0.32035100  0.74468900  1
  O  O28  1  0.72922200  0.54584900  0.68908600  1
  O  O29  1  0.77077800  0.54584900  0.18908600  1
  O  O30  1  0.27077800  0.45415100  0.31091400  1
  O  O31  1  0.22922200  0.45415100  0.81091400  1
  O  O32  1  0.76030800  0.18320100  0.80448200  1
  O  O33  1  0.73969200  0.18320100  0.30448200  1
  O  O34  1  0.23969200  0.81679900  0.19551800  1
  O  O35  1  0.26030800  0.81679900  0.69551800  1
  O  O36  1  0.67183000  0.25201700  0.93804800  1
  O  O37  1  0.82817000  0.25201700  0.43804800  1
  O  O38  1  0.32817000  0.74798300  0.06195200  1
  O  O39  1  0.17183000  0.74798300  0.56195200  1
  O  O40  1  0.87205200  0.27069400  0.85061600  1
  O  O41  1  0.62794800  0.27069400  0.35061600  1
  O  O42  1  0.12794800  0.72930600  0.14938400  1
  O  O43  1  0.37205200  0.72930600  0.64938400  1
  O  O44  1  0.76969800  0.37627300  0.97852200  1
  O  O45  1  0.73030200  0.37627300  0.47852200  1
  O  O46  1  0.23030200  0.62372700  0.02147800  1
  O  O47  1  0.26969800  0.62372700  0.52147800  1
  O  O48  1  0.48401200  0.32362700  0.54966200  1
  O  O49  1  0.01598800  0.32362700  0.04966200  1
  O  O50  1  0.51598800  0.67637300  0.45033800  1
  O  O51  1  0.98401200  0.67637300  0.95033800  1
  O  O52  1  0.98172100  0.76422400  0.99486800  1
  O  O53  1  0.51827900  0.76422400  0.49486800  1
  O  O54  1  0.01827900  0.23577600  0.00513200  1
  O  O55  1  0.48172100  0.23577600  0.50513200  1
loop_
_geom_bond_atom_site_label_1
_geom_bond_atom_site_label_2
_geom_bond_distance
_geom_bond_site_symmetry_2
Cs0 O7 3.307927 1_645
Cs0 O3 3.313342 1_655
Cs0 O32 3.314020 1_555
Cs0 O24 3.414900 1_545
Cs0 O16 3.467051 1_545
Cs0 O40 3.570505 1_555
Cs0 O37 3.600768 1_555
Cs0 S1 3.800439 1_545
Cs0 O52 3.836215 1_545
Cs0 S7 3.918060 1_655
Cs1 O6 3.307927 1_545
Cs1 O2 3.313342 1_555
Cs1 O33 3.314020 1_555
Cs1 O25 3.414900 1_545
Cs1 O17 3.467051 1_545
Cs1 O41 3.570505 1_555
Cs1 O36 3.600768 1_554
Cs1 S0 3.800439 1_544
Cs1 O53 3.836215 1_545
Cs1 S6 3.918060 1_555
Cs2 O5 3.307927 1_465
Cs2 O1 3.313342 1_455
Cs2 O34 3.314020 1_555
Cs2 O26 3.414900 1_565
Cs2 O18 3.467051 1_565
Cs2 O42 3.570505 1_555
Cs2 O39 3.600768 1_555
Cs2 S3 3.800439 1_565
Cs2 O54 3.836215 1_565
Cs2 S5 3.918060 1_455
Cs3 O4 3.307927 1_565
Cs3 O0 3.313342 1_555
Cs3 O35 3.314020 1_555
Cs3 O27 3.414900 1_565
Cs3 O19 3.467051 1_565
Cs3 O43 3.570505 1_555
Cs3 O38 3.600768 1_556
Cs3 S2 3.800439 1_566
Cs3 O55 3.836215 1_565
Cs3 S4 3.918060 1_555
Cs4 O25 2.956153 1_555
Cs4 O41 3.164075 1_555
Cs4 O6 3.171977 1_555
Cs4 O22 3.197330 1_555
Cs4 O2 3.259984 1_555
Cs4 O8 3.321625 1_555
Cs4 O0 3.428134 1_554
Cs4 O14 3.474696 1_555
Cs5 O24 2.956153 1_555
Cs5 O40 3.164075 1_555
Cs5 O7 3.171977 1_655
Cs5 O23 3.197330 1_655
Cs5 O3 3.259984 1_655
Cs5 O9 3.321625 1_555
Cs5 O1 3.428134 1_555
Cs5 O15 3.474696 1_655
Cs6 O27 2.956153 1_555
Cs6 O43 3.164075 1_555
Cs6 O4 3.171977 1_555
Cs6 O20 3.197330 1_555
Cs6 O0 3.259984 1_555
Cs6 O10 3.321625 1_555
Cs6 O2 3.428134 1_556
Cs6 O12 3.474696 1_555
Cs7 O26 2.956153 1_555
Cs7 O42 3.164075 1_555
Cs7 O5 3.171977 1_455
Cs7 O21 3.197330 1_455
Cs7 O1 3.259984 1_455
Cs7 O11 3.321625 1_555
Cs7 O3 3.428134 1_555
Cs7 O13 3.474696 1_455
Mo0 O0 1.746748 1_555
Mo0 O16 2.174426 1_555
Mo0 O20 2.203000 1_555
Mo0 O8 2.228821 1_556
Mo0 S0 2.374435 1_555
Mo0 S4 2.406919 1_555
Mo1 O1 1.746748 1_555
Mo1 O17 2.174426 1_555
Mo1 O21 2.203000 1_555
Mo1 O9 2.228821 1_555
Mo1 S1 2.374435 1_555
Mo1 S5 2.406919 1_555
Mo2 O2 1.746748 1_555
Mo2 O18 2.174426 1_555
Mo2 O22 2.203000 1_555
Mo2 O10 2.228821 1_554
Mo2 S2 2.374435 1_555
Mo2 S6 2.406919 1_555
Mo3 O3 1.746748 1_555
Mo3 O19 2.174426 1_555
Mo3 O23 2.203000 1_555
Mo3 O11 2.228821 1_555
Mo3 S3 2.374435 1_555
Mo3 S7 2.406919 1_555
Mo4 O4 1.735167 1_555
Mo4 O32 2.174002 1_555
Mo4 O36 2.189885 1_555
Mo4 O12 2.285785 1_555
Mo4 S0 2.389214 1_545
Mo4 S4 2.392491 1_545
Mo5 O5 1.735167 1_555
Mo5 O33 2.174002 1_555
Mo5 O37 2.189885 1_555
Mo5 O13 2.285785 1_555
Mo5 S1 2.389214 1_545
Mo5 S5 2.392491 1_545
Mo6 O6 1.735167 1_555
Mo6 O34 2.174002 1_555
Mo6 O38 2.189885 1_555
Mo6 O14 2.285785 1_555
Mo6 S2 2.389214 1_565
Mo6 S6 2.392491 1_565
Mo7 O7 1.735167 1_555
Mo7 O35 2.174002 1_555
Mo7 O39 2.189885 1_555
Mo7 O15 2.285785 1_555
Mo7 S3 2.389214 1_565
Mo7 S7 2.392491 1_565
H0 O8 1.005401 1_555
H0 O29 1.636951 1_555
H1 O9 1.005401 1_555
H1 O28 1.636951 1_555
H2 O10 1.005401 1_555
H2 O31 1.636951 1_555
H3 O11 1.005401 1_555
H3 O30 1.636951 1_555
H4 O8 1.012510 1_555
H4 O44 1.685100 1_554
H5 O9 1.012510 1_555
H5 O45 1.685100 1_555
H6 O10 1.012510 1_555
H6 O46 1.685100 1_556
H7 O11 1.012510 1_555
H7 O47 1.685100 1_555
H8 O12 1.013774 1_555
H8 O28 1.627957 1_555
H9 O13 1.013774 1_555
H9 O29 1.627957 1_555
H10 O14 1.013774 1_555
H10 O30 1.627957 1_555
H11 O15 1.013774 1_555
H11 O31 1.627957 1_555
H12 O12 0.979504 1_555
H13 O13 0.979504 1_555
H14 O14 0.979504 1_555
H15 O15 0.979504 1_555
C0 O24 1.234508 1_555
C0 O16 1.297172 1_555
C1 O25 1.234508 1_555
C1 O17 1.297172 1_555
C2 O26 1.234508 1_555
C2 O18 1.297172 1_555
C3 O27 1.234508 1_555
C3 O19 1.297172 1_555
C4 O28 1.259536 1_555
C4 O20 1.280507 1_555
C5 O29 1.259536 1_555
C5 O21 1.280507 1_555
C6 O30 1.259536 1_555
C6 O22 1.280507 1_555
C7 O31 1.259536 1_555
C7 O23 1.280507 1_555
C8 O40 1.236103 1_555
C8 O32 1.303245 1_555
C9 O41 1.236103 1_555
C9 O33 1.303245 1_555
C10 O42 1.236103 1_555
C10 O34 1.303245 1_555
C11 O43 1.236103 1_555
C11 O35 1.303245 1_555
C12 O44 1.250466 1_555
C12 O36 1.294153 1_555
C13 O45 1.250466 1_555
C13 O37 1.294153 1_555
C14 O46 1.250466 1_555
C14 O38 1.294153 1_555
C15 O47 1.250466 1_555
C15 O39 1.294153 1_555
O48 O55 1.233763 1_555
O49 O54 1.233763 1_555
O50 O53 1.233763 1_555
O51 O52 1.233763 1_555
