# generated using pymatgen
data_Zr3(CuSi)4
_symmetry_space_group_name_H-M   'P 1'
_cell_length_a   3.92810485
_cell_length_b   6.36160577
_cell_length_c   7.52624214
_cell_angle_alpha   115.00265899
_cell_angle_beta   105.09630502
_cell_angle_gamma   90.00160276
_symmetry_Int_Tables_number   1
_chemical_formula_structural   Zr3(CuSi)4
_chemical_formula_sum   'Zr3 Cu4 Si4'
_cell_volume   163.25855920
_cell_formula_units_Z   1
loop_
 _symmetry_equiv_pos_site_id
 _symmetry_equiv_pos_as_xyz
  1  'x, y, z'
loop_
 _atom_site_type_symbol
 _atom_site_label
 _atom_site_symmetry_multiplicity
 _atom_site_fract_x
 _atom_site_fract_y
 _atom_site_fract_z
 _atom_site_occupancy
  Zr  Zr0  1  0.87489238  0.87494617  0.74968760  1
  Zr  Zr1  1  0.12510762  0.12505483  0.25031240  1
  Zr  Zr2  1  -0.00000000  0.50000000  0.00000000  1
  Cu  Cu0  1  0.33132523  0.52261011  0.66083027  1
  Cu  Cu1  1  0.66880036  0.86099804  0.33838306  1
  Cu  Cu2  1  0.33119964  0.13900196  0.66161694  1
  Cu  Cu3  1  0.66867477  0.47738889  0.33916973  1
  Si  Si0  1  0.49987447  0.80899056  -0.00017620  1
  Si  Si1  1  0.50012553  0.19100944  1.00017620  1
  Si  Si2  1  0.78496304  0.28439998  0.56907554  1
  Si  Si3  1  0.21503696  0.71560002  0.43092446  1
loop_
_geom_bond_atom_site_label_1
_geom_bond_atom_site_label_2
_geom_bond_distance
_geom_bond_site_symmetry_2
Cu0 Si0 2.336173 1_556
Cu0 Si2 2.388541 1_555
Cu0 Si2 2.392189 1_455
Cu0 Cu2 2.442872 1_555
Cu0 Si3 2.468622 1_555
Cu0 Zr0 2.831798 1_555
Cu0 Zr0 2.836095 1_455
Cu0 Zr1 2.947767 1_555
Cu1 Si0 2.334335 1_555
Cu1 Si3 2.389320 1_555
Cu1 Si3 2.389736 1_655
Cu1 Cu3 2.442879 1_555
Cu1 Si2 2.472209 1_565
Cu1 Zr1 2.833084 1_565
Cu1 Zr1 2.834408 1_665
Cu1 Zr0 2.950983 1_555
Cu2 Si1 2.334335 1_555
Cu2 Si2 2.389320 1_555
Cu2 Si2 2.389736 1_455
Cu2 Si3 2.472209 1_545
Cu2 Zr0 2.833080 1_545
Cu2 Zr0 2.834404 1_445
Cu2 Zr1 2.950986 1_555
Cu3 Si1 2.336171 1_554
Cu3 Si3 2.388544 1_555
Cu3 Si3 2.392192 1_655
Cu3 Si2 2.468617 1_555
Cu3 Zr1 2.831789 1_555
Cu3 Zr1 2.836086 1_655
Cu3 Zr0 2.947773 1_555
Si0 Si1 2.429134 1_564
Si0 Zr2 2.778991 1_555
Si0 Zr2 2.779278 1_655
Si0 Zr0 2.828862 1_554
Si0 Zr1 2.829415 1_565
Si0 Zr0 2.829764 1_454
Si0 Zr1 2.830633 1_665
Si1 Zr2 2.778991 1_656
Si1 Zr2 2.779278 1_556
Si1 Zr1 2.828860 1_556
Si1 Zr0 2.829413 1_545
Si1 Zr1 2.829762 1_656
Si1 Zr0 2.830630 1_445
Si2 Zr2 2.815317 1_656
Si2 Zr1 2.860492 1_655
Si2 Zr1 2.864714 1_555
Si3 Zr2 2.815317 1_555
Si3 Zr0 2.860492 1_455
Si3 Zr0 2.864714 1_555
