# generated using pymatgen
data_Co3(PO4)2
_symmetry_space_group_name_H-M   'P 1'
_cell_length_a   8.33132868
_cell_length_b   5.03765464
_cell_length_c   8.71738544
_cell_angle_alpha   59.22327427
_cell_angle_beta   90.00271323
_cell_angle_gamma   89.99865562
_symmetry_Int_Tables_number   1
_chemical_formula_structural   Co3(PO4)2
_chemical_formula_sum   'Co6 P4 O16'
_cell_volume   314.34525651
_cell_formula_units_Z   2
loop_
 _symmetry_equiv_pos_site_id
 _symmetry_equiv_pos_as_xyz
  1  'x, y, z'
loop_
 _atom_site_type_symbol
 _atom_site_label
 _atom_site_symmetry_multiplicity
 _atom_site_fract_x
 _atom_site_fract_y
 _atom_site_fract_z
 _atom_site_occupancy
  Co  Co0  1  0.86067799  0.01942704  0.38567233  1
  Co  Co1  1  0.63931493  0.01946637  0.88565105  1
  Co  Co2  1  0.00000000  -0.00000000  0.00000000  1
  Co  Co3  1  0.36068507  0.98053363  0.11434895  1
  Co  Co4  1  0.13932201  0.98057296  0.61432767  1
  Co  Co5  1  0.50000000  -0.00000000  0.50000000  1
  P  P0  1  0.19429588  0.34449896  0.19570941  1
  P  P1  1  0.30571249  0.34449233  0.69569123  1
  P  P2  1  0.80570412  0.65550104  0.80429059  1
  P  P3  1  0.69428751  0.65550767  0.30430877  1
  O  O0  1  0.57948599  0.81180084  0.14329796  1
  O  O1  1  0.92050699  0.81181038  0.64329490  1
  O  O2  1  0.35771477  0.28147742  0.54934342  1
  O  O3  1  0.30484192  0.69262228  0.62593199  1
  O  O4  1  0.85771702  0.71845230  0.95069858  1
  O  O5  1  0.36338376  0.19665967  0.25412658  1
  O  O6  1  0.63661624  0.80334033  0.74587342  1
  O  O7  1  0.14228298  0.28154770  0.04930142  1
  O  O8  1  0.69515808  0.30737772  0.37406801  1
  O  O9  1  0.42051401  0.18819916  0.85670204  1
  O  O10  1  0.07949301  0.18818962  0.35670510  1
  O  O11  1  0.13664700  0.19667065  0.75413823  1
  O  O12  1  0.64228523  0.71852258  0.45065658  1
  O  O13  1  0.80481680  0.30730841  0.87407722  1
  O  O14  1  0.19518320  0.69269159  0.12592278  1
  O  O15  1  0.86335300  0.80332935  0.24586177  1
loop_
_geom_bond_atom_site_label_1
_geom_bond_atom_site_label_2
_geom_bond_distance
_geom_bond_site_symmetry_2
Co0 O8 1.966170 1_555
Co0 O10 1.972401 1_655
Co0 O1 1.995499 1_545
Co0 O15 2.007203 1_545
Co0 O12 2.247384 1_545
Co1 O13 1.965816 1_555
Co1 O9 1.972193 1_555
Co1 O0 1.995734 1_546
Co1 O6 2.007072 1_545
Co1 O4 2.247596 1_545
Co2 O7 2.055589 1_555
Co2 O4 2.055589 1_444
Co2 O14 2.122859 1_545
Co2 O13 2.122859 1_454
Co2 O11 2.167589 1_554
Co2 O15 2.167589 1_445
Co3 O14 1.965816 1_555
Co3 O0 1.972193 1_555
Co3 O9 1.995734 1_564
Co3 O5 2.007072 1_565
Co3 O7 2.247596 1_565
Co4 O3 1.966170 1_555
Co4 O1 1.972401 1_455
Co4 O10 1.995499 1_565
Co4 O11 2.007203 1_565
Co4 O2 2.247384 1_565
Co5 O2 2.055509 1_555
Co5 O12 2.055509 1_545
Co5 O3 2.123008 1_545
Co5 O8 2.123008 1_555
Co5 O5 2.167403 1_555
Co5 O6 2.167403 1_545
O0 P3 1.540669 1_555
O1 P2 1.540700 1_555
O2 P1 1.526622 1_555
O3 P1 1.534305 1_555
O4 P2 1.526907 1_555
O5 P0 1.552501 1_555
O6 P2 1.552501 1_555
O7 P0 1.526907 1_555
O8 P3 1.534305 1_555
O9 P1 1.540669 1_555
O10 P0 1.540700 1_555
O11 P1 1.552401 1_555
O12 P3 1.526622 1_555
O13 P2 1.534558 1_555
O14 P0 1.534558 1_555
O15 P3 1.552401 1_555
