# generated using pymatgen
data_Mg(ScS2)2
_symmetry_space_group_name_H-M   'P 1'
_cell_length_a   6.86933400
_cell_length_b   7.94283833
_cell_length_c   12.67597280
_cell_angle_alpha   98.99440290
_cell_angle_beta   95.20400260
_cell_angle_gamma   90.05243504
_symmetry_Int_Tables_number   1
_chemical_formula_structural   Mg(ScS2)2
_chemical_formula_sum   'Mg4 Sc8 S16'
_cell_volume   680.22614108
_cell_formula_units_Z   4
loop_
 _symmetry_equiv_pos_site_id
 _symmetry_equiv_pos_as_xyz
  1  'x, y, z'
loop_
 _atom_site_type_symbol
 _atom_site_label
 _atom_site_symmetry_multiplicity
 _atom_site_fract_x
 _atom_site_fract_y
 _atom_site_fract_z
 _atom_site_occupancy
  Mg  Mg0  1  0.86749300  0.80065400  0.70087000  1
  Mg  Mg1  1  0.13250700  0.19934600  0.29913000  1
  Mg  Mg2  1  0.75069100  0.62490000  0.99842900  1
  Mg  Mg3  1  0.24930900  0.37510000  0.00157100  1
  Sc  Sc0  1  0.86249200  0.29914200  0.69857700  1
  Sc  Sc1  1  0.13750800  0.70085800  0.30142300  1
  Sc  Sc2  1  0.75868600  0.12366400  0.00037200  1
  Sc  Sc3  1  0.24131400  0.87633600  0.99962800  1
  Sc  Sc4  1  0.63224900  0.44643800  0.30025000  1
  Sc  Sc5  1  0.36775100  0.55356200  0.69975000  1
  Sc  Sc6  1  0.63144800  0.95380300  0.30222400  1
  Sc  Sc7  1  0.36855200  0.04619700  0.69777600  1
  S  S0  1  0.89669300  0.34560800  0.89237400  1
  S  S1  1  0.10330700  0.65439200  0.10762600  1
  S  S2  1  0.89965300  0.85140800  0.89576600  1
  S  S3  1  0.10034700  0.14859200  0.10423400  1
  S  S4  1  0.81224800  0.21789900  0.37195000  1
  S  S5  1  0.18775200  0.78210100  0.62805000  1
  S  S6  1  0.81135300  0.71766000  0.37044500  1
  S  S7  1  0.18864700  0.28234000  0.62955500  1
  S  S8  1  0.68846700  0.03114300  0.62826500  1
  S  S9  1  0.31153300  0.96885700  0.37173500  1
  S  S10  1  0.68834100  0.53333400  0.63008800  1
  S  S11  1  0.31165900  0.46666600  0.36991200  1
  S  S12  1  0.59748100  0.90626600  0.10716900  1
  S  S13  1  0.40251900  0.09373400  0.89283100  1
  S  S14  1  0.60451000  0.39891600  0.10613400  1
  S  S15  1  0.39549000  0.60108400  0.89386600  1
loop_
_geom_bond_atom_site_label_1
_geom_bond_atom_site_label_2
_geom_bond_distance
_geom_bond_site_symmetry_2
Mg0 S2 2.429835 1_555
Mg0 S10 2.455014 1_555
Mg0 S8 2.456956 1_565
Mg0 S5 2.457652 1_655
Mg1 S3 2.429835 1_555
Mg1 S11 2.455014 1_555
Mg1 S9 2.456956 1_545
Mg1 S4 2.457652 1_455
Mg2 S2 2.635845 1_555
Mg2 S0 2.655279 1_555
Mg2 S15 2.660870 1_555
Mg2 S14 2.665671 1_556
Mg2 S1 2.669723 1_656
Mg2 S12 2.703036 1_556
Mg3 S3 2.635845 1_555
Mg3 S1 2.655279 1_555
Mg3 S14 2.660870 1_555
Mg3 S15 2.665671 1_554
Mg3 S0 2.669723 1_454
Mg3 S13 2.703036 1_554
S0 Sc0 2.416150 1_555
S0 Sc2 2.620590 1_556
S1 Sc1 2.416150 1_555
S1 Sc3 2.620590 1_554
S2 Sc3 2.576424 1_655
S2 Sc2 2.590842 1_566
S3 Sc2 2.576424 1_455
S3 Sc3 2.590842 1_544
S4 Sc6 2.437275 1_545
S4 Sc4 2.442568 1_555
S5 Sc7 2.437275 1_565
S5 Sc5 2.442568 1_555
S6 Sc6 2.471978 1_555
S6 Sc1 2.474394 1_655
S6 Sc4 2.478613 1_555
S7 Sc7 2.471978 1_555
S7 Sc0 2.474394 1_455
S7 Sc5 2.478613 1_555
S8 Sc7 2.436992 1_555
S8 Sc0 2.442034 1_555
S9 Sc6 2.436992 1_555
S9 Sc1 2.442034 1_555
S10 Sc5 2.442228 1_555
S10 Sc0 2.442461 1_555
S11 Sc4 2.442228 1_555
S11 Sc1 2.442461 1_555
S12 Sc6 2.431790 1_555
S12 Sc2 2.653295 1_565
S12 Sc3 2.682047 1_554
S13 Sc7 2.431790 1_555
S13 Sc3 2.653295 1_545
S13 Sc2 2.682047 1_556
S14 Sc4 2.420287 1_555
S14 Sc2 2.654081 1_555
S15 Sc5 2.420287 1_555
S15 Sc3 2.654081 1_555
