# generated using pymatgen
data_Rb12Li(ClO)4
_symmetry_space_group_name_H-M   'P 1'
_cell_length_a   7.73479854
_cell_length_b   8.54183970
_cell_length_c   10.58161700
_cell_angle_alpha   90.00000000
_cell_angle_beta   90.00000000
_cell_angle_gamma   96.38077196
_symmetry_Int_Tables_number   1
_chemical_formula_structural   Rb12Li(ClO)4
_chemical_formula_sum   'Rb12 Li1 Cl4 O4'
_cell_volume   694.79031746
_cell_formula_units_Z   1
loop_
 _symmetry_equiv_pos_site_id
 _symmetry_equiv_pos_as_xyz
  1  'x, y, z'
loop_
 _atom_site_type_symbol
 _atom_site_label
 _atom_site_symmetry_multiplicity
 _atom_site_fract_x
 _atom_site_fract_y
 _atom_site_fract_z
 _atom_site_occupancy
  Rb  Rb0  1  0.11239200  0.47633000  0.25000000  1
  Rb  Rb1  1  0.22267100  0.17240200  0.53574600  1
  Rb  Rb2  1  0.22267100  0.17240200  0.96425400  1
  Rb  Rb3  1  0.28770800  0.69579200  0.93970700  1
  Rb  Rb4  1  0.28770800  0.69579200  0.56029300  1
  Rb  Rb5  1  0.39376800  0.97305400  0.25000000  1
  Rb  Rb6  1  0.61994500  0.05503200  0.75000000  1
  Rb  Rb7  1  0.72842400  0.29231100  0.03422100  1
  Rb  Rb8  1  0.72842400  0.29231100  0.46577900  1
  Rb  Rb9  1  0.77604200  0.82997000  0.05798800  1
  Rb  Rb10  1  0.77604200  0.82997000  0.44201200  1
  Rb  Rb11  1  0.82718000  0.58091800  0.75000000  1
  Li  Li0  1  0.09697000  0.40072600  0.75000000  1
  Cl  Cl0  1  0.97961200  0.10843200  0.25000000  1
  Cl  Cl1  1  0.54603600  0.53950700  0.25000000  1
  Cl  Cl2  1  0.44697200  0.40210200  0.75000000  1
  Cl  Cl3  1  0.02585700  0.92951800  0.75000000  1
  O  O0  1  0.02740800  0.43600600  0.91698600  1
  O  O1  1  0.02740800  0.43600600  0.58301400  1
  O  O2  1  0.51671500  0.99070800  0.99970100  1
  O  O3  1  0.51671500  0.99070800  0.50029900  1
loop_
_geom_bond_atom_site_label_1
_geom_bond_atom_site_label_2
_geom_bond_distance
_geom_bond_site_symmetry_2
Li0 O1 1.881110 1_555
Li0 O0 1.881110 1_555
Cl0 Rb0 3.195760 1_655
Cl0 Rb10 3.381221 1_545
Cl0 Rb9 3.381221 1_545
Cl0 Rb8 3.483319 1_555
Cl0 Rb7 3.483319 1_555
Cl0 Rb5 3.524547 1_645
Cl0 Rb1 3.570319 1_655
Cl0 Rb2 3.570319 1_654
Cl1 Rb0 3.337546 1_555
Cl1 Rb8 3.510577 1_555
Cl1 Rb7 3.510577 1_555
Cl1 Rb9 3.530994 1_555
Cl1 Rb10 3.530994 1_555
Cl2 Li0 2.705914 1_555
Cl2 Rb11 3.159602 1_555
Cl2 Rb1 3.353060 1_555
Cl2 Rb2 3.353060 1_555
Cl2 Rb6 3.385346 1_555
Cl2 Rb4 3.539411 1_555
Cl2 Rb3 3.539411 1_555
Cl2 Rb8 3.888145 1_555
Cl2 Rb7 3.888145 1_556
Cl3 Rb11 3.195474 1_455
Cl3 Rb1 3.325615 1_565
Cl3 Rb2 3.325615 1_565
Cl3 Rb6 3.428558 1_465
Cl3 Rb4 3.607819 1_555
Cl3 Rb3 3.607819 1_555
Cl3 Rb9 3.835709 1_456
Cl3 Rb10 3.835709 1_455
O0 Rb11 2.734786 1_455
O0 Rb7 2.786145 1_456
O0 Rb3 2.835945 1_555
O0 Rb2 2.890866 1_555
O1 Rb11 2.734786 1_455
O1 Rb8 2.786145 1_455
O1 Rb4 2.835945 1_555
O1 Rb1 2.890866 1_555
O2 Rb9 2.626989 1_556
O2 Rb6 2.797026 1_565
O2 Rb5 2.812494 1_556
O2 Rb2 2.916631 1_565
O2 Rb7 2.917922 1_566
O2 Rb3 2.982411 1_555
O3 Rb10 2.626989 1_555
O3 Rb6 2.797026 1_565
O3 Rb5 2.812494 1_555
O3 Rb1 2.916631 1_565
O3 Rb8 2.917922 1_565
O3 Rb4 2.982411 1_555
