# generated using pymatgen
data_CsIn(SeO5)2
_symmetry_space_group_name_H-M   'P 1'
_cell_length_a   7.49417291
_cell_length_b   8.63646825
_cell_length_c   8.63646825
_cell_angle_alpha   112.02165035
_cell_angle_beta   99.54291419
_cell_angle_gamma   99.54291419
_symmetry_Int_Tables_number   1
_chemical_formula_structural   CsIn(SeO5)2
_chemical_formula_sum   'Cs2 In2 Se4 O20'
_cell_volume   494.88673552
_cell_formula_units_Z   2
loop_
 _symmetry_equiv_pos_site_id
 _symmetry_equiv_pos_as_xyz
  1  'x, y, z'
loop_
 _atom_site_type_symbol
 _atom_site_label
 _atom_site_symmetry_multiplicity
 _atom_site_fract_x
 _atom_site_fract_y
 _atom_site_fract_z
 _atom_site_occupancy
  Cs  Cs0  1  0.75000000  0.38610500  0.61389500  1
  Cs  Cs1  1  0.25000000  0.61389500  0.38610500  1
  In  In0  1  0.75000000  0.82380200  0.17619800  1
  In  In1  1  0.25000000  0.17619800  0.82380200  1
  Se  Se0  1  0.82001500  0.89876700  0.61797800  1
  Se  Se1  1  0.67998500  0.38202200  0.10123300  1
  Se  Se2  1  0.17998500  0.10123300  0.38202200  1
  Se  Se3  1  0.32001500  0.61797800  0.89876700  1
  O  O0  1  0.67806600  0.86202700  0.42697300  1
  O  O1  1  0.82193400  0.57302700  0.13797300  1
  O  O2  1  0.32193400  0.13797300  0.57302700  1
  O  O3  1  0.17806600  0.42697300  0.86202700  1
  O  O4  1  0.95129300  0.10470100  0.70130300  1
  O  O5  1  0.54870700  0.29869700  0.89529900  1
  O  O6  1  0.04870700  0.89529900  0.29869700  1
  O  O7  1  0.45129300  0.70130300  0.10470100  1
  O  O8  1  0.96111700  0.76487900  0.59168200  1
  O  O9  1  0.53888300  0.40831800  0.23512100  1
  O  O10  1  0.03888300  0.23512100  0.40831800  1
  O  O11  1  0.46111700  0.59168200  0.76487900  1
  O  O12  1  0.67488800  0.87778500  0.74045800  1
  O  O13  1  0.82511200  0.25954200  0.12221500  1
  O  O14  1  0.32511200  0.12221500  0.25954200  1
  O  O15  1  0.17488800  0.74045800  0.87778500  1
  O  O16  1  0.73631800  0.09519900  0.25636200  1
  O  O17  1  0.76368200  0.74363800  0.90480100  1
  O  O18  1  0.26368200  0.90480100  0.74363800  1
  O  O19  1  0.23631800  0.25636200  0.09519900  1
loop_
_geom_bond_atom_site_label_1
_geom_bond_atom_site_label_2
_geom_bond_distance
_geom_bond_site_symmetry_2
Cs0 O16 3.138344 1_555
Cs0 O17 3.138344 1_555
Cs0 O10 3.164477 1_655
Cs0 O11 3.164477 1_555
Cs0 O4 3.311482 1_555
Cs0 O5 3.311482 1_555
Cs0 O2 3.433091 1_555
Cs0 O3 3.433091 1_655
Cs0 O8 3.477982 1_555
Cs0 O9 3.477982 1_555
Cs1 O18 3.138344 1_555
Cs1 O19 3.138344 1_555
Cs1 O9 3.164477 1_555
Cs1 O8 3.164477 1_455
Cs1 O6 3.311482 1_555
Cs1 O7 3.311482 1_555
Cs1 O1 3.433091 1_455
Cs1 O0 3.433091 1_555
Cs1 O11 3.477982 1_555
Cs1 O10 3.477982 1_555
In0 O7 2.185917 1_555
In0 O6 2.185917 1_655
In0 O17 2.206819 1_554
In0 O16 2.206819 1_565
In0 O0 2.236132 1_555
In0 O1 2.236132 1_555
In1 O4 2.185917 1_455
In1 O5 2.185917 1_555
In1 O18 2.206819 1_545
In1 O19 2.206819 1_556
In1 O3 2.236132 1_555
In1 O2 2.236132 1_555
O0 Se0 1.693292 1_555
O1 Se1 1.693292 1_555
O2 Se2 1.693292 1_555
O3 Se3 1.693292 1_555
O4 Se0 1.695361 1_545
O5 Se1 1.695361 1_556
O6 Se2 1.695361 1_565
O7 Se3 1.695361 1_554
O8 Se0 1.671813 1_555
O9 Se1 1.671813 1_555
O10 Se2 1.671813 1_555
O11 Se3 1.671813 1_555
O12 Se0 1.671680 1_555
O13 Se1 1.671680 1_555
O14 Se2 1.671680 1_555
O15 Se3 1.671680 1_555
