# generated using pymatgen
data_HoZn(NiO3)2
_symmetry_space_group_name_H-M   'P 1'
_cell_length_a   5.11871500
_cell_length_b   5.39029300
_cell_length_c   7.43469100
_cell_angle_alpha   90.00000000
_cell_angle_beta   90.00000000
_cell_angle_gamma   90.00000000
_symmetry_Int_Tables_number   1
_chemical_formula_structural   HoZn(NiO3)2
_chemical_formula_sum   'Ho2 Zn2 Ni4 O12'
_cell_volume   205.13333723
_cell_formula_units_Z   2
loop_
 _symmetry_equiv_pos_site_id
 _symmetry_equiv_pos_as_xyz
  1  'x, y, z'
loop_
 _atom_site_type_symbol
 _atom_site_label
 _atom_site_symmetry_multiplicity
 _atom_site_fract_x
 _atom_site_fract_y
 _atom_site_fract_z
 _atom_site_occupancy
  Ho  Ho0  1  0.01827000  0.67660600  0.00000000  1
  Ho  Ho1  1  0.51827000  0.32339400  0.50000000  1
  Zn  Zn0  1  0.47595900  0.19159100  0.00000000  1
  Zn  Zn1  1  0.97595900  0.80840900  0.50000000  1
  Ni  Ni0  1  0.99802300  0.24313900  0.74988900  1
  Ni  Ni1  1  0.99802300  0.24313900  0.25011100  1
  Ni  Ni2  1  0.49802300  0.75686100  0.24988900  1
  Ni  Ni3  1  0.49802300  0.75686100  0.75011100  1
  O  O0  1  0.10685800  0.19070300  0.50000000  1
  O  O1  1  0.20824000  0.96224500  0.81911900  1
  O  O2  1  0.20824000  0.96224500  0.18088100  1
  O  O3  1  0.31193200  0.44093500  0.80937900  1
  O  O4  1  0.31193200  0.44093500  0.19062100  1
  O  O5  1  0.36297600  0.71723200  0.50000000  1
  O  O6  1  0.60685800  0.80929700  0.00000000  1
  O  O7  1  0.70824000  0.03775500  0.31911900  1
  O  O8  1  0.70824000  0.03775500  0.68088100  1
  O  O9  1  0.81193200  0.55906500  0.69062100  1
  O  O10  1  0.81193200  0.55906500  0.30937900  1
  O  O11  1  0.86297600  0.28276800  0.00000000  1
loop_
_geom_bond_atom_site_label_1
_geom_bond_atom_site_label_2
_geom_bond_distance
_geom_bond_site_symmetry_2
Ho0 O6 2.224048 1_455
Ho0 O2 2.263768 1_555
Ho0 O1 2.263768 1_554
Ho0 O11 2.266846 1_455
Ho0 O4 2.425234 1_555
Ho0 O3 2.425234 1_554
Ho0 O10 2.609135 1_455
Ho0 O9 2.609135 1_454
Ho1 O0 2.224048 1_555
Ho1 O8 2.263768 1_555
Ho1 O7 2.263768 1_555
Ho1 O5 2.266846 1_555
Ho1 O9 2.425234 1_555
Ho1 O10 2.425234 1_555
Ho1 O3 2.609135 1_555
Ho1 O4 2.609135 1_555
Ni0 O8 1.920697 1_555
Ni0 O1 1.927508 1_645
Ni0 O0 1.960061 1_655
Ni0 O3 1.978433 1_655
Ni0 O11 1.995298 1_556
Ni0 O9 2.000373 1_555
Ni1 O7 1.920697 1_555
Ni1 O2 1.927508 1_645
Ni1 O0 1.960061 1_655
Ni1 O4 1.978433 1_655
Ni1 O11 1.995298 1_555
Ni1 O10 2.000373 1_555
Ni2 O2 1.920697 1_555
Ni2 O7 1.927508 1_565
Ni2 O6 1.960061 1_555
Ni2 O10 1.978433 1_555
Ni2 O5 1.995298 1_555
Ni2 O4 2.000373 1_555
Ni3 O1 1.920697 1_555
Ni3 O8 1.927508 1_565
Ni3 O6 1.960061 1_556
Ni3 O9 1.978433 1_555
Ni3 O5 1.995298 1_555
Ni3 O3 2.000373 1_555
O0 Zn1 2.166872 1_445
O1 Zn0 2.283572 1_566
O2 Zn0 2.283572 1_565
O3 Zn0 2.125995 1_556
O4 Zn0 2.125995 1_555
O5 Zn1 2.041084 1_455
O6 Zn0 2.166872 1_565
O7 Zn1 2.283572 1_545
O8 Zn1 2.283572 1_545
O9 Zn1 2.125995 1_555
O10 Zn1 2.125995 1_555
O11 Zn0 2.041084 1_555
