# generated using pymatgen
data_Sn3Rh
_symmetry_space_group_name_H-M   'P 1'
_cell_length_a   5.00838501
_cell_length_b   5.00838501
_cell_length_c   5.00838501
_cell_angle_alpha   60.00000000
_cell_angle_beta   60.00000000
_cell_angle_gamma   60.00000000
_symmetry_Int_Tables_number   1
_chemical_formula_structural   Sn3Rh
_chemical_formula_sum   'Sn3 Rh1'
_cell_volume   88.83377585
_cell_formula_units_Z   1
loop_
 _symmetry_equiv_pos_site_id
 _symmetry_equiv_pos_as_xyz
  1  'x, y, z'
loop_
 _atom_site_type_symbol
 _atom_site_label
 _atom_site_symmetry_multiplicity
 _atom_site_fract_x
 _atom_site_fract_y
 _atom_site_fract_z
 _atom_site_occupancy
  Sn  Sn0  1  0.25000000  0.25000000  0.25000000  1
  Sn  Sn1  1  0.75000000  0.75000000  0.75000000  1
  Sn  Sn2  1  0.50000000  0.50000000  0.50000000  1
  Rh  Rh0  1  0.00000000  0.00000000  0.00000000  1
loop_
_geom_bond_atom_site_label_1
_geom_bond_atom_site_label_2
_geom_bond_distance
_geom_bond_site_symmetry_2
Sn0 Sn2 3.066997 1_555
Sn0 Sn2 3.066997 1_545
Sn0 Sn2 3.066997 1_554
Sn0 Sn2 3.066997 1_455
Sn1 Sn2 3.066997 1_555
Sn1 Sn2 3.066997 1_655
Sn1 Sn2 3.066997 1_556
Sn1 Sn2 3.066997 1_565
Rh0 Sn0 3.066997 1_554
Rh0 Sn1 3.066997 1_445
Rh0 Sn0 3.066997 1_455
Rh0 Sn1 3.066997 1_454
Rh0 Sn0 3.066997 1_545
Rh0 Sn0 3.066997 1_555
Rh0 Sn1 3.066997 1_444
Rh0 Sn1 3.066997 1_544
