# generated using pymatgen
data_UP2O7
_symmetry_space_group_name_H-M   'P 1'
_cell_length_a   8.75851246
_cell_length_b   8.81362750
_cell_length_c   8.73398117
_cell_angle_alpha   90.17066333
_cell_angle_beta   90.39153223
_cell_angle_gamma   89.51342001
_symmetry_Int_Tables_number   1
_chemical_formula_structural   UP2O7
_chemical_formula_sum   'U4 P8 O28'
_cell_volume   674.17033834
_cell_formula_units_Z   4
loop_
 _symmetry_equiv_pos_site_id
 _symmetry_equiv_pos_as_xyz
  1  'x, y, z'
loop_
 _atom_site_type_symbol
 _atom_site_label
 _atom_site_symmetry_multiplicity
 _atom_site_fract_x
 _atom_site_fract_y
 _atom_site_fract_z
 _atom_site_occupancy
  U  U0  1  0.99309234  0.98415988  0.99943532  1
  U  U1  1  0.48571265  0.98507854  0.49105132  1
  U  U2  1  0.49545251  0.50126404  -0.00047970  1
  U  U3  1  0.99822032  0.47952123  0.49540832  1
  P  P0  1  0.59607593  0.58669153  0.59979012  1
  P  P1  1  0.39586829  0.38633256  0.39537447  1
  P  P2  1  0.39281759  0.89546129  0.09077540  1
  P  P3  1  0.59315121  0.10158748  0.89284335  1
  P  P4  1  0.88420138  0.08237977  0.40044639  1
  P  P5  1  0.08980685  0.87889100  0.59750167  1
  P  P6  1  0.09579118  0.38098110  0.89886529  1
  P  P7  1  0.89362478  0.58601656  0.09668484  1
  O  O0  1  0.48050630  0.46474662  0.53488639  1
  O  O1  1  0.75435062  0.54209793  0.54755203  1
  O  O2  1  0.57855620  0.57317923  0.77113307  1
  O  O3  1  0.54774887  0.74174056  0.54258728  1
  O  O4  1  0.23055058  0.43363249  0.40764380  1
  O  O5  1  0.46604381  0.43864936  0.24722564  1
  O  O6  1  0.41611847  0.21804014  0.42117328  1
  O  O7  1  0.46992348  0.02884955  1.00067425  1
  O  O8  1  0.22417351  0.93242052  0.08451567  1
  O  O9  1  0.45460496  0.90111520  0.25227532  1
  O  O10  1  0.42939683  0.74691506  0.01261514  1
  O  O11  1  0.74924738  0.03775693  0.93486506  1
  O  O12  1  0.54832289  0.06202720  0.72993903  1
  O  O13  1  0.57891057  0.26962723  0.92659358  1
  O  O14  1  0.94935237  0.95808403  0.51422613  1
  O  O15  1  0.71357064  0.06215932  0.41136451  1
  O  O16  1  0.94326672  0.04697926  0.24211037  1
  O  O17  1  0.93486603  0.23640111  0.45617644  1
  O  O18  1  0.23676392  0.94554937  0.53874027  1
  O  O19  1  0.06694439  0.91001863  0.76604176  1
  O  O20  1  0.07554450  0.71248827  0.55884136  1
  O  O21  1  0.95685984  0.46416905  0.97965138  1
  O  O22  1  0.24507737  0.44575033  0.95662257  1
  O  O23  1  0.07129731  0.40959911  0.72944975  1
  O  O24  1  0.07814087  0.21552408  0.93918823  1
  O  O25  1  0.72245470  0.56989443  0.08667020  1
  O  O26  1  0.95358418  0.54541695  0.25414178  1
  O  O27  1  0.94520864  0.74020304  0.04529990  1
loop_
_geom_bond_atom_site_label_1
_geom_bond_atom_site_label_2
_geom_bond_distance
_geom_bond_site_symmetry_2
O0 P1 1.582162 1_555
O0 P0 1.583691 1_555
O1 P0 1.510843 1_555
O1 U3 2.250690 1_555
O2 P0 1.510553 1_555
O2 U2 2.223891 1_556
O3 P0 1.512470 1_555
O3 U1 2.253916 1_555
O4 P1 1.507780 1_555
O4 U3 2.212991 1_455
O5 P1 1.511250 1_555
O5 U2 2.251349 1_555
O6 P1 1.509730 1_555
O6 U1 2.222820 1_545
O7 P2 1.575985 1_546
O7 P3 1.578631 1_555
O8 P2 1.510519 1_555
O8 U0 2.195951 1_454
O9 P2 1.508166 1_555
O9 U1 2.226543 1_555
O10 P2 1.507740 1_555
O10 U2 2.239087 1_555
O11 P3 1.517122 1_555
O11 U0 2.251772 1_545
O12 P3 1.513880 1_555
O12 U1 2.257465 1_545
O13 P3 1.513503 1_555
O13 U2 2.254162 1_556
O14 P4 1.581576 1_565
O14 P5 1.582945 1_655
O15 P4 1.510255 1_555
O15 U1 2.230148 1_545
O16 P4 1.510583 1_555
O16 U0 2.234032 1_544
O17 P4 1.509949 1_555
O17 U3 2.242766 1_555
O18 P5 1.512916 1_555
O18 U1 2.252837 1_555
O19 P5 1.510931 1_555
O19 U0 2.236873 1_455
O20 P5 1.510017 1_555
O20 U3 2.234568 1_455
O21 P7 1.579863 1_556
O21 P6 1.584169 1_655
O22 P6 1.513906 1_555
O22 U2 2.279154 1_556
O23 P6 1.515268 1_555
O23 U3 2.225032 1_455
O24 P6 1.510673 1_555
O24 U0 2.242202 1_445
O25 P7 1.509033 1_555
O25 U2 2.212510 1_555
O26 P7 1.511604 1_555
O26 U3 2.218713 1_555
O27 P7 1.506351 1_555
O27 U0 2.232088 1_554
