# generated using pymatgen
data_ZrMnFe
_symmetry_space_group_name_H-M   'P 1'
_cell_length_a   4.98368057
_cell_length_b   4.98368057
_cell_length_c   8.05810800
_cell_angle_alpha   90.00000000
_cell_angle_beta   90.00000000
_cell_angle_gamma   120.49580356
_symmetry_Int_Tables_number   1
_chemical_formula_structural   ZrMnFe
_chemical_formula_sum   'Zr4 Mn4 Fe4'
_cell_volume   172.45373497
_cell_formula_units_Z   4
loop_
 _symmetry_equiv_pos_site_id
 _symmetry_equiv_pos_as_xyz
  1  'x, y, z'
loop_
 _atom_site_type_symbol
 _atom_site_label
 _atom_site_symmetry_multiplicity
 _atom_site_fract_x
 _atom_site_fract_y
 _atom_site_fract_z
 _atom_site_occupancy
  Zr  Zr0  1  0.33341400  0.66658600  0.31529300  1
  Zr  Zr1  1  0.66646800  0.33353200  0.18833800  1
  Zr  Zr2  1  0.66646800  0.33353200  0.81166200  1
  Zr  Zr3  1  0.33341400  0.66658600  0.68470700  1
  Mn  Mn0  1  0.66331600  0.82945300  0.00000000  1
  Mn  Mn1  1  0.17054700  0.33668400  0.00000000  1
  Mn  Mn2  1  0.99920600  0.00079400  0.25436200  1
  Mn  Mn3  1  0.99920600  0.00079400  0.74563800  1
  Fe  Fe0  1  0.83096200  0.16903800  0.50000000  1
  Fe  Fe1  1  0.34022700  0.16984800  0.50000000  1
  Fe  Fe2  1  0.83015200  0.65977300  0.50000000  1
  Fe  Fe3  1  0.16836800  0.83163200  0.00000000  1
loop_
_geom_bond_atom_site_label_1
_geom_bond_atom_site_label_2
_geom_bond_distance
_geom_bond_site_symmetry_2
Zr0 Zr3 2.976778 1_555
Zr0 Zr1 3.041389 1_565
Zr0 Zr1 3.041389 1_455
Zr0 Zr1 3.058252 1_555
Zr1 Zr2 3.035296 1_554
Zr2 Zr3 3.041389 1_655
Zr2 Zr3 3.041389 1_545
Zr2 Zr3 3.058252 1_555
Mn0 Mn1 2.437376 1_555
Mn0 Mn2 2.506335 1_565
Mn0 Mn3 2.506335 1_564
Mn0 Mn1 2.508910 1_665
Mn0 Zr1 2.907108 1_555
Mn0 Zr2 2.907108 1_554
Mn0 Zr0 2.909037 1_555
Mn0 Zr3 2.909037 1_554
Mn0 Zr1 2.928215 1_565
Mn0 Zr2 2.928215 1_564
Mn1 Mn2 2.506335 1_455
Mn1 Mn3 2.506335 1_454
Mn1 Zr1 2.907108 1_555
Mn1 Zr2 2.907108 1_554
Mn1 Zr0 2.909037 1_555
Mn1 Zr3 2.909037 1_554
Mn1 Zr1 2.928215 1_455
Mn1 Zr2 2.928215 1_454
Mn2 Zr0 2.901000 1_545
Mn2 Zr0 2.901000 1_655
Mn2 Zr1 2.914524 1_545
Mn2 Zr1 2.914524 1_655
Mn2 Zr1 2.928078 1_555
Mn2 Zr0 2.933441 1_645
Mn3 Zr3 2.901000 1_545
Mn3 Zr3 2.901000 1_655
Mn3 Zr2 2.914524 1_545
Mn3 Zr2 2.914524 1_655
Mn3 Zr2 2.928078 1_555
Mn3 Zr3 2.933441 1_645
Fe0 Fe2 2.447718 1_555
Fe0 Fe1 2.447718 1_555
Fe0 Mn3 2.457145 1_555
Fe0 Mn2 2.457145 1_555
Fe0 Fe1 2.535968 1_655
Fe0 Fe2 2.535968 1_545
Fe0 Zr0 2.886553 1_655
Fe0 Zr3 2.886553 1_655
Fe0 Zr3 2.886553 1_545
Fe0 Zr0 2.886553 1_545
Fe0 Zr2 2.886755 1_555
Fe0 Zr1 2.886755 1_555
Fe1 Fe2 2.423309 1_555
Fe1 Mn3 2.462297 1_455
Fe1 Mn2 2.462297 1_455
Fe1 Fe2 2.522977 1_445
Fe1 Zr2 2.875753 1_555
Fe1 Zr1 2.875753 1_555
Fe1 Zr3 2.901822 1_545
Fe1 Zr0 2.901822 1_545
Fe1 Zr3 2.903495 1_555
Fe1 Zr0 2.903495 1_555
Fe2 Mn3 2.462297 1_565
Fe2 Mn2 2.462297 1_565
Fe2 Zr2 2.875753 1_555
Fe2 Zr1 2.875753 1_555
Fe2 Zr3 2.901822 1_655
Fe2 Zr0 2.901822 1_655
Fe2 Zr3 2.903495 1_555
Fe2 Zr0 2.903495 1_555
Fe3 Mn1 2.472191 1_555
Fe3 Mn0 2.472191 1_555
Fe3 Mn0 2.511524 1_455
Fe3 Mn1 2.511524 1_565
Fe3 Mn2 2.518729 1_465
Fe3 Mn3 2.518729 1_464
Fe3 Zr1 2.901717 1_455
Fe3 Zr2 2.901717 1_454
Fe3 Zr1 2.901717 1_565
Fe3 Zr2 2.901717 1_564
Fe3 Zr0 2.914583 1_555
Fe3 Zr3 2.914583 1_554
