# generated using pymatgen
data_Al3(O2F)2
_symmetry_space_group_name_H-M   'P 1'
_cell_length_a   4.80858629
_cell_length_b   8.53626470
_cell_length_c   8.99033054
_cell_angle_alpha   90.00000000
_cell_angle_beta   90.00000000
_cell_angle_gamma   90.00000000
_symmetry_Int_Tables_number   1
_chemical_formula_structural   Al3(O2F)2
_chemical_formula_sum   'Al12 O16 F8'
_cell_volume   369.02938278
_cell_formula_units_Z   4
loop_
 _symmetry_equiv_pos_site_id
 _symmetry_equiv_pos_as_xyz
  1  'x, y, z'
loop_
 _atom_site_type_symbol
 _atom_site_label
 _atom_site_symmetry_multiplicity
 _atom_site_fract_x
 _atom_site_fract_y
 _atom_site_fract_z
 _atom_site_occupancy
  Al  Al0  1  0.92298345  0.57771249  0.63079335  1
  Al  Al1  1  0.07701655  0.42228751  0.36920665  1
  Al  Al2  1  0.42298345  0.42228751  0.86920665  1
  Al  Al3  1  0.07701655  0.07771249  0.36920665  1
  Al  Al4  1  0.57701655  0.57771249  0.13079335  1
  Al  Al5  1  0.92298345  0.92228751  0.63079335  1
  Al  Al6  1  0.57701655  0.92228751  0.13079335  1
  Al  Al7  1  0.42298345  0.07771249  0.86920665  1
  Al  Al8  1  0.11350840  0.75000000  0.93310749  1
  Al  Al9  1  0.88649160  0.25000000  0.06689251  1
  Al  Al10  1  0.61350840  0.25000000  0.56689251  1
  Al  Al11  1  0.38649160  0.75000000  0.43310749  1
  O  O0  1  0.03442039  0.75000000  0.74319976  1
  O  O1  1  0.96557961  0.25000000  0.25680024  1
  O  O2  1  0.53442039  0.25000000  0.75680024  1
  O  O3  1  0.46557961  0.75000000  0.24319976  1
  O  O4  1  0.71951673  0.75000000  0.53081128  1
  O  O5  1  0.28048327  0.25000000  0.46918872  1
  O  O6  1  0.21951673  0.25000000  0.96918872  1
  O  O7  1  0.78048327  0.75000000  0.03081128  1
  O  O8  1  0.80166648  0.08612423  0.51177878  1
  O  O9  1  0.19833352  0.91387577  0.48822122  1
  O  O10  1  0.30166648  0.91387577  0.98822122  1
  O  O11  1  0.19833352  0.58612423  0.48822122  1
  O  O12  1  0.69833352  0.08612423  0.01177878  1
  O  O13  1  0.80166648  0.41387577  0.51177878  1
  O  O14  1  0.69833352  0.41387577  0.01177878  1
  O  O15  1  0.30166648  0.58612423  0.98822122  1
  F  F0  1  0.61231493  0.55562764  0.74669651  1
  F  F1  1  0.38768507  0.44437236  0.25330349  1
  F  F2  1  0.11231493  0.44437236  0.75330349  1
  F  F3  1  0.38768507  0.05562764  0.25330349  1
  F  F4  1  0.88768507  0.55562764  0.24669651  1
  F  F5  1  0.61231493  0.94437236  0.74669651  1
  F  F6  1  0.88768507  0.94437236  0.24669651  1
  F  F7  1  0.11231493  0.05562764  0.75330349  1
loop_
_geom_bond_atom_site_label_1
_geom_bond_atom_site_label_2
_geom_bond_distance
_geom_bond_site_symmetry_2
Al0 F2 1.826887 1_655
Al0 F0 1.831116 1_555
Al0 O11 1.844230 1_655
Al0 O13 1.855026 1_555
Al0 O0 1.863150 1_655
Al0 O4 1.981955 1_555
Al1 F4 1.826887 1_455
Al1 F1 1.831116 1_555
Al1 O13 1.844230 1_455
Al1 O11 1.855026 1_555
Al1 O1 1.863150 1_455
Al1 O5 1.981955 1_555
Al2 F0 1.826887 1_555
Al2 F2 1.831116 1_555
Al2 O14 1.844230 1_556
Al2 O15 1.855026 1_555
Al2 O2 1.863150 1_555
Al2 O6 1.981955 1_555
Al3 F6 1.826887 1_445
Al3 F3 1.831116 1_555
Al3 O8 1.844230 1_455
Al3 O9 1.855026 1_545
Al3 O1 1.863150 1_455
Al3 O5 1.981955 1_555
Al4 F1 1.826887 1_555
Al4 F4 1.831116 1_555
Al4 O15 1.844230 1_554
Al4 O14 1.855026 1_555
Al4 O3 1.863150 1_555
Al4 O7 1.981955 1_555
Al5 F7 1.826887 1_665
Al5 F5 1.831116 1_555
Al5 O9 1.844230 1_655
Al5 O8 1.855026 1_565
Al5 O0 1.863150 1_655
Al5 O4 1.981955 1_555
Al6 F3 1.826887 1_565
Al6 F6 1.831116 1_555
Al6 O10 1.844230 1_554
Al6 O12 1.855026 1_565
Al6 O3 1.863150 1_555
Al6 O7 1.981955 1_555
Al7 F5 1.826887 1_545
Al7 F7 1.831116 1_555
Al7 O12 1.844230 1_556
Al7 O10 1.855026 1_545
Al7 O2 1.863150 1_555
Al7 O6 1.981955 1_555
Al8 O10 1.738106 1_555
Al8 O15 1.738106 1_555
Al8 O0 1.749176 1_555
Al8 O7 1.826468 1_456
Al9 O12 1.738106 1_555
Al9 O14 1.738106 1_555
Al9 O1 1.749176 1_555
Al9 O6 1.826468 1_654
Al10 O8 1.738106 1_555
Al10 O13 1.738106 1_555
Al10 O2 1.749176 1_555
Al10 O5 1.826468 1_555
Al11 O11 1.738106 1_555
Al11 O9 1.738106 1_555
Al11 O3 1.749176 1_555
Al11 O4 1.826468 1_555
