# generated using pymatgen
data_TaMnZn2O6
_symmetry_space_group_name_H-M   'P 1'
_cell_length_a   7.59199500
_cell_length_b   5.27984900
_cell_length_c   5.48180552
_cell_angle_alpha   84.16364852
_cell_angle_beta   90.00000000
_cell_angle_gamma   90.00000000
_symmetry_Int_Tables_number   1
_chemical_formula_structural   TaMnZn2O6
_chemical_formula_sum   'Ta2 Mn2 Zn4 O12'
_cell_volume   218.59688704
_cell_formula_units_Z   2
loop_
 _symmetry_equiv_pos_site_id
 _symmetry_equiv_pos_as_xyz
  1  'x, y, z'
loop_
 _atom_site_type_symbol
 _atom_site_label
 _atom_site_symmetry_multiplicity
 _atom_site_fract_x
 _atom_site_fract_y
 _atom_site_fract_z
 _atom_site_occupancy
  Ta  Ta0  1  0.00000000  0.00000000  0.50000000  1
  Ta  Ta1  1  0.50000000  0.00000000  0.50000000  1
  Mn  Mn0  1  0.00000000  0.50000000  0.00000000  1
  Mn  Mn1  1  0.50000000  0.50000000  0.00000000  1
  Zn  Zn0  1  0.75000000  0.98413600  0.03177500  1
  Zn  Zn1  1  0.75000000  0.49865800  0.55369800  1
  Zn  Zn2  1  0.25000000  0.50134200  0.44630200  1
  Zn  Zn3  1  0.25000000  0.01586400  0.96822500  1
  O  O0  1  0.43919400  0.17679300  0.17273900  1
  O  O1  1  0.57171700  0.70087300  0.33481500  1
  O  O2  1  0.56080600  0.82320700  0.82726100  1
  O  O3  1  0.07171700  0.29912700  0.66518500  1
  O  O4  1  0.25000000  0.86636200  0.54326000  1
  O  O5  1  0.42828300  0.29912700  0.66518500  1
  O  O6  1  0.92828300  0.70087300  0.33481500  1
  O  O7  1  0.06080600  0.17679300  0.17273900  1
  O  O8  1  0.75000000  0.37287800  0.92743400  1
  O  O9  1  0.93919400  0.82320700  0.82726100  1
  O  O10  1  0.25000000  0.62712200  0.07256600  1
  O  O11  1  0.75000000  0.13363800  0.45674000  1
loop_
_geom_bond_atom_site_label_1
_geom_bond_atom_site_label_2
_geom_bond_distance
_geom_bond_site_symmetry_2
Mn0 O7 1.921776 1_555
Mn0 O9 1.921776 1_454
Mn0 O10 2.065291 1_555
Mn0 O8 2.065291 1_454
Mn0 O6 2.277241 1_455
Mn0 O3 2.277241 1_554
Mn1 O0 1.921776 1_555
Mn1 O2 1.921776 1_554
Mn1 O10 2.065291 1_555
Mn1 O8 2.065291 1_554
Mn1 O5 2.277241 1_554
Mn1 O1 2.277241 1_555
O0 Ta1 1.990533 1_555
O0 Zn3 2.058081 1_554
O1 Ta1 1.975244 1_565
O1 Zn1 2.037424 1_555
O1 Zn0 2.514583 1_555
O2 Ta1 1.990533 1_565
O2 Zn0 2.058081 1_556
O3 Ta0 1.975244 1_555
O3 Zn2 2.037424 1_555
O3 Zn3 2.514583 1_555
O4 Ta0 2.030385 1_565
O4 Ta1 2.030385 1_565
O4 Zn2 2.050638 1_555
O5 Ta1 1.975244 1_555
O5 Zn2 2.037424 1_555
O5 Zn3 2.514583 1_555
O6 Ta0 1.975244 1_665
O6 Zn1 2.037424 1_555
O6 Zn0 2.514583 1_555
O7 Ta0 1.990533 1_555
O7 Zn3 2.058081 1_554
O8 Zn0 2.073922 1_546
O8 Zn1 2.088466 1_555
O9 Ta0 1.990533 1_665
O9 Zn0 2.058081 1_556
O10 Zn3 2.073922 1_564
O10 Zn2 2.088466 1_555
O11 Ta0 2.030385 1_655
O11 Ta1 2.030385 1_555
O11 Zn1 2.050638 1_555
