# generated using pymatgen
data_La3ScAl8
_symmetry_space_group_name_H-M   'P 1'
_cell_length_a   9.89032737
_cell_length_b   9.89032737
_cell_length_c   9.89032743
_cell_angle_alpha   33.22359304
_cell_angle_beta   33.22359304
_cell_angle_gamma   33.22359481
_symmetry_Int_Tables_number   1
_chemical_formula_structural   La3ScAl8
_chemical_formula_sum   'La3 Sc1 Al8'
_cell_volume   258.55477435
_cell_formula_units_Z   1
loop_
 _symmetry_equiv_pos_site_id
 _symmetry_equiv_pos_as_xyz
  1  'x, y, z'
loop_
 _atom_site_type_symbol
 _atom_site_label
 _atom_site_symmetry_multiplicity
 _atom_site_fract_x
 _atom_site_fract_y
 _atom_site_fract_z
 _atom_site_occupancy
  La  La0  1  0.37457100  0.37457100  0.37457100  1
  La  La1  1  0.99931500  0.99931500  0.99931500  1
  La  La2  1  0.50055500  0.50055500  0.50055500  1
  Sc  Sc0  1  0.87490300  0.87490300  0.87490300  1
  Al  Al0  1  0.43597900  0.93469400  0.43597900  1
  Al  Al1  1  0.93857000  0.44193000  0.93857000  1
  Al  Al2  1  0.43597900  0.43597900  0.93469400  1
  Al  Al3  1  0.93857000  0.93857000  0.44193000  1
  Al  Al4  1  0.18792600  0.18792600  0.18792600  1
  Al  Al5  1  0.68700900  0.68700900  0.68700900  1
  Al  Al6  1  0.93469400  0.43597900  0.43597900  1
  Al  Al7  1  0.44193000  0.93857000  0.93857000  1
loop_
_geom_bond_atom_site_label_1
_geom_bond_atom_site_label_2
_geom_bond_distance
_geom_bond_site_symmetry_2
La0 La1 3.469631 1_445
La0 La1 3.469631 1_454
La0 La1 3.469631 1_544
La0 La2 3.528519 1_555
La1 Sc0 3.484491 1_555
La2 Sc0 3.461108 1_554
La2 Sc0 3.461108 1_545
La2 Sc0 3.461108 1_455
Al0 Al4 2.796417 1_565
Al0 Al2 2.820236 1_555
Al0 Al6 2.820236 1_555
Al0 Al2 2.834770 1_564
Al0 Al6 2.834770 1_465
Al0 Al5 2.879410 1_555
Al0 La2 3.280016 1_555
Al0 Sc0 3.298489 1_455
Al0 Sc0 3.298489 1_554
Al0 La1 3.344278 1_554
Al0 La1 3.344278 1_455
Al0 La0 3.382384 1_565
Al1 Al3 2.808502 1_555
Al1 Al7 2.808502 1_555
Al1 Al4 2.814269 1_656
Al1 Al3 2.846504 1_546
Al1 Al7 2.846504 1_645
Al1 Al5 2.903929 1_555
Al1 Sc0 3.281949 1_555
Al1 La2 3.301644 1_655
Al1 La2 3.301644 1_556
Al1 La0 3.364707 1_556
Al1 La0 3.364707 1_655
Al1 La1 3.418888 1_545
Al2 Al4 2.796417 1_556
Al2 Al6 2.820236 1_555
Al2 Al6 2.834770 1_456
Al2 Al5 2.879410 1_555
Al2 La2 3.280016 1_555
Al2 Sc0 3.298490 1_545
Al2 Sc0 3.298490 1_455
Al2 La1 3.344278 1_545
Al2 La1 3.344278 1_455
Al2 La0 3.382384 1_556
Al3 Al7 2.808502 1_555
Al3 Al4 2.814269 1_665
Al3 Al7 2.846504 1_654
Al3 Al5 2.903929 1_555
Al3 Sc0 3.281949 1_555
Al3 La2 3.301644 1_655
Al3 La2 3.301644 1_565
Al3 La0 3.364707 1_565
Al3 La0 3.364707 1_655
Al3 La1 3.418888 1_554
Al4 Al6 2.796417 1_455
Al4 Al7 2.814269 1_544
Al4 Sc0 3.314103 1_445
Al4 Sc0 3.314104 1_544
Al4 Sc0 3.314104 1_454
Al4 La2 3.316015 1_554
Al4 La2 3.316015 1_455
Al4 La2 3.316015 1_545
Al5 Al6 2.879410 1_555
Al5 Al7 2.903929 1_555
Al5 La0 3.316955 1_556
Al5 La0 3.316955 1_565
Al5 La0 3.316955 1_655
Al5 La1 3.317609 1_554
Al5 La1 3.317609 1_455
Al5 La1 3.317609 1_545
Al6 La2 3.280016 1_555
Al6 Sc0 3.298489 1_545
Al6 Sc0 3.298489 1_554
Al6 La1 3.344278 1_554
Al6 La1 3.344278 1_545
Al6 La0 3.382384 1_655
Al7 Sc0 3.281949 1_555
Al7 La2 3.301644 1_565
Al7 La2 3.301644 1_556
Al7 La0 3.364707 1_556
Al7 La0 3.364707 1_565
Al7 La1 3.418888 1_455
