# generated using pymatgen
data_TmCd2
_symmetry_space_group_name_H-M   'P 1'
_cell_length_a   10.81232911
_cell_length_b   10.81232911
_cell_length_c   6.40232800
_cell_angle_alpha   90.00000000
_cell_angle_beta   90.00000000
_cell_angle_gamma   120.00000677
_symmetry_Int_Tables_number   1
_chemical_formula_structural   TmCd2
_chemical_formula_sum   'Tm8 Cd16'
_cell_volume   648.19702672
_cell_formula_units_Z   8
loop_
 _symmetry_equiv_pos_site_id
 _symmetry_equiv_pos_as_xyz
  1  'x, y, z'
loop_
 _atom_site_type_symbol
 _atom_site_label
 _atom_site_symmetry_multiplicity
 _atom_site_fract_x
 _atom_site_fract_y
 _atom_site_fract_z
 _atom_site_occupancy
  Tm  Tm0_0  1  0.00000000  0.00000000  0.00000000  1
  Tm  Tm0_1  1  0.00000000  0.00000000  0.50000000  1
  Tm  Tm0_2  1  0.00000000  0.50000000  0.00000000  1
  Tm  Tm0_3  1  0.00000000  0.50000000  0.50000000  1
  Tm  Tm0_4  1  0.50000000  0.00000000  0.00000000  1
  Tm  Tm0_5  1  0.50000000  0.00000000  0.50000000  1
  Tm  Tm0_6  1  0.50000000  0.50000000  0.00000000  1
  Tm  Tm0_7  1  0.50000000  0.50000000  0.50000000  1
  Cd  Cd0_0  1  0.33333350  0.16666650  0.47639950  1
  Cd  Cd0_1  1  0.33333350  0.16666650  0.97639950  1
  Cd  Cd0_2  1  0.33333350  0.66666650  0.47639950  1
  Cd  Cd0_3  1  0.33333350  0.66666650  0.97639950  1
  Cd  Cd0_4  1  0.83333350  0.16666650  0.47639950  1
  Cd  Cd0_5  1  0.83333350  0.16666650  0.97639950  1
  Cd  Cd0_6  1  0.83333350  0.66666650  0.47639950  1
  Cd  Cd0_7  1  0.83333350  0.66666650  0.97639950  1
  Cd  Cd1_0  1  0.16666650  0.33333350  0.02360050  1
  Cd  Cd1_1  1  0.16666650  0.33333350  0.52360050  1
  Cd  Cd1_2  1  0.16666650  0.83333350  0.02360050  1
  Cd  Cd1_3  1  0.16666650  0.83333350  0.52360050  1
  Cd  Cd1_4  1  0.66666650  0.33333350  0.02360050  1
  Cd  Cd1_5  1  0.66666650  0.33333350  0.52360050  1
  Cd  Cd1_6  1  0.66666650  0.83333350  0.02360050  1
  Cd  Cd1_7  1  0.66666650  0.83333350  0.52360050  1
loop_
_geom_bond_atom_site_label_1
_geom_bond_atom_site_label_2
_geom_bond_distance
_geom_bond_site_symmetry_2
Tm0_0 Tm0_1 3.201164 1_555
Tm0_0 Tm0_1 3.201164 1_554
Tm0_2 Tm0_3 3.201164 1_555
Tm0_2 Tm0_3 3.201164 1_554
Tm0_4 Tm0_5 3.201164 1_555
Tm0_4 Tm0_5 3.201164 1_554
Tm0_6 Tm0_7 3.201164 1_555
Tm0_6 Tm0_7 3.201164 1_554
Cd0_0 Tm0_5 3.124903 1_555
Cd0_0 Tm0_1 3.124907 1_555
Cd0_0 Tm0_7 3.124907 1_555
Cd0_0 Cd1_3 3.135842 1_545
Cd0_0 Cd1_5 3.135842 1_555
Cd0_0 Cd1_1 3.135852 1_555
Cd0_0 Cd0_1 3.201164 1_554
Cd0_0 Cd0_1 3.201164 1_555
Cd0_1 Tm0_4 3.124903 1_556
Cd0_1 Tm0_6 3.124907 1_556
Cd0_1 Tm0_0 3.124907 1_556
Cd0_1 Cd1_4 3.135842 1_556
Cd0_1 Cd1_2 3.135842 1_546
Cd0_1 Cd1_0 3.135852 1_556
Cd0_2 Tm0_7 3.124903 1_555
Cd0_2 Tm0_3 3.124907 1_555
Cd0_2 Tm0_5 3.124907 1_565
Cd0_2 Cd1_1 3.135842 1_555
Cd0_2 Cd1_7 3.135842 1_555
Cd0_2 Cd1_3 3.135852 1_555
Cd0_2 Cd0_3 3.201164 1_554
Cd0_2 Cd0_3 3.201164 1_555
Cd0_3 Tm0_6 3.124903 1_556
Cd0_3 Tm0_2 3.124907 1_556
Cd0_3 Tm0_4 3.124907 1_566
Cd0_3 Cd1_0 3.135842 1_556
Cd0_3 Cd1_6 3.135842 1_556
Cd0_3 Cd1_2 3.135852 1_556
Cd0_4 Tm0_1 3.124903 1_655
Cd0_4 Tm0_3 3.124907 1_655
Cd0_4 Tm0_5 3.124907 1_555
Cd0_4 Cd1_7 3.135842 1_545
Cd0_4 Cd1_1 3.135842 1_655
Cd0_4 Cd1_5 3.135852 1_555
Cd0_4 Cd0_5 3.201164 1_554
Cd0_4 Cd0_5 3.201164 1_555
Cd0_5 Tm0_0 3.124903 1_656
Cd0_5 Tm0_2 3.124907 1_656
Cd0_5 Tm0_4 3.124907 1_556
Cd0_5 Cd1_6 3.135842 1_546
Cd0_5 Cd1_0 3.135842 1_656
Cd0_5 Cd1_4 3.135852 1_556
Cd0_6 Tm0_3 3.124903 1_655
Cd0_6 Tm0_7 3.124907 1_555
Cd0_6 Tm0_1 3.124907 1_665
Cd0_6 Cd1_5 3.135842 1_555
Cd0_6 Cd1_3 3.135842 1_655
Cd0_6 Cd1_7 3.135852 1_555
Cd0_6 Cd0_7 3.201164 1_554
Cd0_6 Cd0_7 3.201164 1_555
Cd0_7 Tm0_2 3.124903 1_656
Cd0_7 Tm0_6 3.124907 1_556
Cd0_7 Tm0_0 3.124907 1_666
Cd0_7 Cd1_4 3.135842 1_556
Cd0_7 Cd1_2 3.135842 1_656
Cd0_7 Cd1_6 3.135852 1_556
Cd1_0 Tm0_2 3.124903 1_555
Cd1_0 Tm0_6 3.124907 1_555
Cd1_0 Tm0_0 3.124907 1_555
Cd1_0 Cd1_1 3.201164 1_555
Cd1_0 Cd1_1 3.201164 1_554
Cd1_1 Tm0_3 3.124903 1_555
Cd1_1 Tm0_1 3.124907 1_555
Cd1_1 Tm0_7 3.124907 1_555
Cd1_2 Tm0_0 3.124903 1_565
Cd1_2 Tm0_4 3.124907 1_565
Cd1_2 Tm0_2 3.124907 1_555
Cd1_2 Cd1_3 3.201164 1_555
Cd1_2 Cd1_3 3.201164 1_554
Cd1_3 Tm0_1 3.124903 1_565
Cd1_3 Tm0_5 3.124907 1_565
Cd1_3 Tm0_3 3.124907 1_555
Cd1_4 Tm0_6 3.124903 1_555
Cd1_4 Tm0_4 3.124907 1_555
Cd1_4 Tm0_2 3.124907 1_655
Cd1_4 Cd1_5 3.201164 1_555
Cd1_4 Cd1_5 3.201164 1_554
Cd1_5 Tm0_7 3.124903 1_555
Cd1_5 Tm0_5 3.124907 1_555
Cd1_5 Tm0_3 3.124907 1_655
Cd1_6 Tm0_4 3.124903 1_565
Cd1_6 Tm0_6 3.124907 1_555
Cd1_6 Tm0_0 3.124907 1_665
Cd1_6 Cd1_7 3.201164 1_555
Cd1_6 Cd1_7 3.201164 1_554
Cd1_7 Tm0_5 3.124903 1_565
Cd1_7 Tm0_1 3.124907 1_665
Cd1_7 Tm0_7 3.124907 1_555
