# generated using pymatgen
data_LiCu6OF11
_symmetry_space_group_name_H-M   'P 1'
_cell_length_a   5.40767163
_cell_length_b   4.85506873
_cell_length_c   8.51523959
_cell_angle_alpha   92.07373877
_cell_angle_beta   95.23489536
_cell_angle_gamma   88.12659013
_symmetry_Int_Tables_number   1
_chemical_formula_structural   LiCu6OF11
_chemical_formula_sum   'Li1 Cu6 O1 F11'
_cell_volume   222.38902696
_cell_formula_units_Z   1
loop_
 _symmetry_equiv_pos_site_id
 _symmetry_equiv_pos_as_xyz
  1  'x, y, z'
loop_
 _atom_site_type_symbol
 _atom_site_label
 _atom_site_symmetry_multiplicity
 _atom_site_fract_x
 _atom_site_fract_y
 _atom_site_fract_z
 _atom_site_occupancy
  Li  Li0  1  0.00414600  0.00056400  0.49756400  1
  Cu  Cu0  1  0.00309300  0.99980500  0.00309400  1
  Cu  Cu1  1  0.50375400  0.51948100  0.02377600  1
  Cu  Cu2  1  0.39072400  0.98449100  0.31072100  1
  Cu  Cu3  1  0.85123200  0.49572300  0.31924200  1
  Cu  Cu4  1  0.14576100  0.51269200  0.68298800  1
  Cu  Cu5  1  0.62740200  0.00091000  0.69144900  1
  O  O0  1  0.56562200  0.68143600  0.23174400  1
  F  F0  1  0.28942900  0.19571100  0.08477100  1
  F  F1  1  0.06919500  0.80204400  0.28336200  1
  F  F2  1  0.80508400  0.29103300  0.07708100  1
  F  F3  1  0.16451000  0.29201900  0.40975100  1
  F  F4  1  0.68145800  0.17489600  0.40469400  1
  F  F5  1  0.32378400  0.82085600  0.60454200  1
  F  F6  1  0.84234000  0.70401900  0.58929400  1
  F  F7  1  0.44714700  0.32440400  0.77808500  1
  F  F8  1  0.20029700  0.70729300  0.92680500  1
  F  F9  1  0.94631200  0.19743300  0.71781800  1
  F  F10  1  0.71370800  0.80907700  0.91790600  1
loop_
_geom_bond_atom_site_label_1
_geom_bond_atom_site_label_2
_geom_bond_distance
_geom_bond_site_symmetry_2
Cu0 F2 1.871446 1_465
Cu0 F8 1.880623 1_554
Cu0 F0 1.907318 1_565
Cu0 F10 1.916134 1_454
Cu1 O0 1.916923 1_555
Cu1 F2 1.968438 1_555
Cu1 F8 1.978774 1_554
Cu1 F0 2.090943 1_555
Cu1 F10 2.112227 1_554
Cu1 F7 2.264150 1_554
Cu2 O0 1.861487 1_555
Cu2 F4 1.943864 1_565
Cu2 F1 1.968225 1_555
Cu2 F3 2.101069 1_565
Cu2 F0 2.228738 1_565
Cu3 O0 1.871126 1_555
Cu3 F1 1.976769 1_655
Cu3 F4 2.023858 1_555
Cu3 F3 2.037021 1_655
Cu3 F2 2.252993 1_555
Cu3 F6 2.482274 1_555
Cu4 F9 1.947602 1_455
Cu4 F7 1.965445 1_555
Cu4 F5 1.973654 1_555
Cu4 F6 1.976544 1_455
Cu4 F8 2.248242 1_555
Cu4 F3 2.535175 1_555
Cu5 F5 1.957770 1_545
Cu5 F7 1.976969 1_555
Cu5 F9 1.989049 1_555
Cu5 F6 2.041954 1_545
Cu5 F10 2.177399 1_545
F1 Li0 2.085017 1_565
F3 Li0 1.894363 1_555
F4 Li0 2.021588 1_655
F5 Li0 2.061640 1_565
F6 Li0 1.933152 1_665
F9 Li0 2.118184 1_655
