# generated using pymatgen
data_Rb2SnTe5
_symmetry_space_group_name_H-M   'P 1'
_cell_length_a   10.07392986
_cell_length_b   10.07392986
_cell_length_c   10.07392986
_cell_angle_alpha   127.38042207
_cell_angle_beta   127.38042207
_cell_angle_gamma   77.63089198
_symmetry_Int_Tables_number   1
_chemical_formula_structural   Rb2SnTe5
_chemical_formula_sum   'Rb4 Sn2 Te10'
_cell_volume   625.94424925
_cell_formula_units_Z   2
loop_
 _symmetry_equiv_pos_site_id
 _symmetry_equiv_pos_as_xyz
  1  'x, y, z'
loop_
 _atom_site_type_symbol
 _atom_site_label
 _atom_site_symmetry_multiplicity
 _atom_site_fract_x
 _atom_site_fract_y
 _atom_site_fract_z
 _atom_site_occupancy
  Rb  Rb0  1  0.24603300  0.24603300  0.00000000  1
  Rb  Rb1  1  0.74603300  0.74603300  0.00000000  1
  Rb  Rb2  1  0.99567400  0.99567400  0.00000000  1
  Rb  Rb3  1  0.49567400  0.49567400  0.00000000  1
  Sn  Sn0  1  0.25000000  0.75000000  0.50000000  1
  Sn  Sn1  1  0.75000000  0.25000000  0.50000000  1
  Te  Te0  1  0.96053600  0.46053600  0.15374000  1
  Te  Te1  1  0.46053600  0.30679600  0.50000000  1
  Te  Te2  1  0.80679600  0.96053600  0.50000000  1
  Te  Te3  1  0.30679600  0.80679600  0.84626000  1
  Te  Te4  1  0.69320400  0.19320400  0.15374000  1
  Te  Te5  1  0.19320400  0.03946400  0.50000000  1
  Te  Te6  1  0.53946400  0.69320400  0.50000000  1
  Te  Te7  1  0.03946400  0.53946400  0.84626000  1
  Te  Te8  1  0.00000000  0.50000000  0.50000000  1
  Te  Te9  1  0.50000000  0.00000000  0.50000000  1
loop_
_geom_bond_atom_site_label_1
_geom_bond_atom_site_label_2
_geom_bond_distance
_geom_bond_site_symmetry_2
Rb0 Te1 3.744636 1_555
Rb0 Te2 3.744636 1_444
Rb0 Te0 3.744636 1_455
Rb0 Te3 3.744636 1_544
Rb0 Te7 3.804896 1_554
Rb0 Te4 3.804896 1_555
Rb0 Te6 3.804896 1_555
Rb0 Te5 3.804896 1_554
Rb1 Te0 3.744636 1_555
Rb1 Te2 3.744636 1_555
Rb1 Te3 3.744636 1_554
Rb1 Te1 3.744636 1_554
Rb1 Te6 3.804896 1_554
Rb1 Te5 3.804896 1_665
Rb1 Te7 3.804896 1_654
Rb1 Te4 3.804896 1_565
Rb2 Te5 3.877285 1_665
Rb2 Te6 3.877285 1_554
Rb2 Te4 3.877285 1_565
Rb2 Te7 3.877285 1_654
Rb2 Te2 3.950109 1_554
Rb2 Te3 3.950109 1_654
Rb2 Te1 3.950109 1_665
Rb2 Te0 3.950109 1_565
Rb3 Te4 3.877285 1_555
Rb3 Te7 3.877285 1_554
Rb3 Te5 3.877285 1_554
Rb3 Te6 3.877285 1_555
Rb3 Te3 3.950109 1_554
Rb3 Te0 3.950109 1_555
Rb3 Te1 3.950109 1_554
Rb3 Te2 3.950109 1_555
Sn0 Te6 2.848836 1_555
Sn0 Te5 2.848836 1_565
Sn0 Te0 2.848836 1_455
Sn0 Te3 2.848836 1_555
Sn1 Te7 2.848836 1_655
Sn1 Te4 2.848836 1_555
Sn1 Te1 2.848836 1_555
Sn1 Te2 2.848836 1_545
Te0 Te8 3.030465 1_655
Te1 Te9 3.030465 1_555
Te2 Te9 3.030465 1_565
Te3 Te8 3.030465 1_555
Te4 Te8 3.030465 1_655
Te5 Te9 3.030465 1_555
Te6 Te9 3.030465 1_565
Te7 Te8 3.030465 1_555
