# generated using pymatgen
data_Co(BRh2)3
_symmetry_space_group_name_H-M   'P 1'
_cell_length_a   7.49202817
_cell_length_b   7.49202817
_cell_length_c   4.75226857
_cell_angle_alpha   89.87718751
_cell_angle_beta   89.87718751
_cell_angle_gamma   60.11396430
_symmetry_Int_Tables_number   1
_chemical_formula_structural   Co(BRh2)3
_chemical_formula_sum   'Co2 B6 Rh12'
_cell_volume   231.27392440
_cell_formula_units_Z   2
loop_
 _symmetry_equiv_pos_site_id
 _symmetry_equiv_pos_as_xyz
  1  'x, y, z'
loop_
 _atom_site_type_symbol
 _atom_site_label
 _atom_site_symmetry_multiplicity
 _atom_site_fract_x
 _atom_site_fract_y
 _atom_site_fract_z
 _atom_site_occupancy
  Co  Co0  1  0.45006100  0.09232700  0.99544400  1
  Co  Co1  1  0.09232700  0.45006100  0.99544400  1
  B  B0  1  0.18831300  0.18831300  0.74118900  1
  B  B1  1  0.18484400  0.62356500  0.73995100  1
  B  B2  1  0.62356500  0.18484400  0.73995100  1
  B  B3  1  0.81042100  0.81042100  0.24065500  1
  B  B4  1  0.81174700  0.37969100  0.23910100  1
  B  B5  1  0.37969100  0.81174700  0.23910100  1
  Rh  Rh0  1  0.87265600  0.87265600  0.83420100  1
  Rh  Rh1  1  0.87799400  0.25125100  0.83352500  1
  Rh  Rh2  1  0.25125100  0.87799400  0.83352500  1
  Rh  Rh3  1  0.12793700  0.12793700  0.32123500  1
  Rh  Rh4  1  0.12334400  0.74961600  0.32884900  1
  Rh  Rh5  1  0.74961600  0.12334400  0.32884900  1
  Rh  Rh6  1  0.33271800  0.33271800  0.50705400  1
  Rh  Rh7  1  0.66822500  0.66822500  0.01104500  1
  Rh  Rh8  1  0.54332100  0.54332100  0.49029800  1
  Rh  Rh9  1  0.53989600  0.92236900  0.49820400  1
  Rh  Rh10  1  0.92236900  0.53989600  0.49820400  1
  Rh  Rh11  1  0.44970500  0.44970500  0.99103300  1
loop_
_geom_bond_atom_site_label_1
_geom_bond_atom_site_label_2
_geom_bond_distance
_geom_bond_site_symmetry_2
B0 Co0 2.103279 1_555
B0 Co1 2.103279 1_555
B0 Rh3 2.145652 1_555
B0 Rh2 2.173513 1_545
B0 Rh1 2.173513 1_455
B0 Rh6 2.176033 1_555
B1 Rh4 2.117376 1_555
B1 Rh11 2.117949 1_555
B1 Co1 2.128830 1_555
B1 Rh6 2.190859 1_555
B1 Rh0 2.191600 1_455
B1 Rh2 2.242436 1_555
B2 Rh5 2.117376 1_555
B2 Rh11 2.117949 1_555
B2 Co0 2.128830 1_555
B2 Rh6 2.190859 1_555
B2 Rh0 2.191600 1_545
B2 Rh1 2.242436 1_555
B3 Rh0 2.091587 1_554
B3 Rh7 2.145117 1_555
B3 Rh9 2.146870 1_555
B3 Rh10 2.146870 1_555
B3 Rh4 2.195131 1_655
B3 Rh5 2.195131 1_565
B4 Rh1 2.101215 1_554
B4 Rh8 2.123997 1_555
B4 Rh10 2.155391 1_555
B4 Rh7 2.163864 1_555
B4 Rh3 2.206744 1_655
B4 Rh5 2.230176 1_555
B5 Rh2 2.101215 1_554
B5 Rh8 2.123997 1_555
B5 Rh9 2.155391 1_555
B5 Rh7 2.163864 1_555
B5 Rh3 2.206744 1_565
B5 Rh4 2.230176 1_555
