# generated using pymatgen
data_K2PdBrCl3
_symmetry_space_group_name_H-M   'P 1'
_cell_length_a   7.27998031
_cell_length_b   7.27998031
_cell_length_c   4.26236600
_cell_angle_alpha   90.00000000
_cell_angle_beta   90.00000000
_cell_angle_gamma   90.29831502
_symmetry_Int_Tables_number   1
_chemical_formula_structural   K2PdBrCl3
_chemical_formula_sum   'K2 Pd1 Br1 Cl3'
_cell_volume   225.89429433
_cell_formula_units_Z   1
loop_
 _symmetry_equiv_pos_site_id
 _symmetry_equiv_pos_as_xyz
  1  'x, y, z'
loop_
 _atom_site_type_symbol
 _atom_site_label
 _atom_site_symmetry_multiplicity
 _atom_site_fract_x
 _atom_site_fract_y
 _atom_site_fract_z
 _atom_site_occupancy
  K  K0  1  0.99324500  0.50645800  0.50000000  1
  K  K1  1  0.50645800  0.99324500  0.50000000  1
  Pd  Pd0  1  0.99795200  0.99795200  0.00000000  1
  Br  Br0  1  0.23669800  0.23669800  0.00000000  1
  Cl  Cl0  1  0.76921400  0.76921400  0.00000000  1
  Cl  Cl1  1  0.22438600  0.77204700  0.00000000  1
  Cl  Cl2  1  0.77204700  0.22438600  0.00000000  1
loop_
_geom_bond_atom_site_label_1
_geom_bond_atom_site_label_2
_geom_bond_distance
_geom_bond_site_symmetry_2
Br0 Pd0 2.451590 1_445
Br0 K0 3.402359 1_455
Br0 K0 3.402359 1_454
Br0 K1 3.402359 1_544
Br0 K1 3.402359 1_545
Cl0 Pd0 2.348821 1_555
Cl0 K1 3.300519 1_555
Cl0 K1 3.300519 1_554
Cl0 K0 3.300519 1_555
Cl0 K0 3.300519 1_554
Cl1 Pd0 2.334572 1_455
Cl1 K0 3.328348 1_455
Cl1 K0 3.328348 1_454
Cl1 K1 3.364135 1_555
Cl1 K1 3.364135 1_554
Cl2 Pd0 2.334572 1_545
Cl2 K1 3.328348 1_545
Cl2 K1 3.328348 1_544
Cl2 K0 3.364135 1_554
Cl2 K0 3.364135 1_555
