# generated using pymatgen
data_BaEuDyWO6
_symmetry_space_group_name_H-M   'P 1'
_cell_length_a   5.96663149
_cell_length_b   5.95781868
_cell_length_c   8.45954494
_cell_angle_alpha   89.71170029
_cell_angle_beta   89.94812135
_cell_angle_gamma   90.68287480
_symmetry_Int_Tables_number   1
_chemical_formula_structural   BaEuDyWO6
_chemical_formula_sum   'Ba2 Eu2 Dy2 W2 O12'
_cell_volume   300.69551648
_cell_formula_units_Z   2
loop_
 _symmetry_equiv_pos_site_id
 _symmetry_equiv_pos_as_xyz
  1  'x, y, z'
loop_
 _atom_site_type_symbol
 _atom_site_label
 _atom_site_symmetry_multiplicity
 _atom_site_fract_x
 _atom_site_fract_y
 _atom_site_fract_z
 _atom_site_occupancy
  Ba  Ba0  1  0.50318928  0.51918613  0.24859688  1
  Ba  Ba1  1  0.49681072  0.48081387  0.75140312  1
  Eu  Eu0  1  0.99710052  0.02445928  0.25043365  1
  Eu  Eu1  1  0.00289948  0.97554072  0.74956635  1
  Dy  Dy0  1  0.00000000  0.50000000  0.00000000  1
  Dy  Dy1  1  0.50000000  -0.00000000  0.50000000  1
  W  W0  1  0.50000000  -0.00000000  0.00000000  1
  W  W1  1  0.00000000  0.50000000  0.50000000  1
  O  O0  1  0.23029443  0.20117105  0.96967847  1
  O  O1  1  0.25572611  0.71116255  0.53006667  1
  O  O2  1  0.76970557  0.79882895  0.03032153  1
  O  O3  1  0.74427389  0.28883745  0.46993333  1
  O  O4  1  0.28752708  0.74020551  0.96620746  1
  O  O5  1  0.20378946  0.22614093  0.53387045  1
  O  O6  1  0.71247292  0.25979449  0.03379254  1
  O  O7  1  0.79621054  0.77385907  0.46612955  1
  O  O8  1  0.43068515  0.99967900  0.23658903  1
  O  O9  1  0.04948404  0.48520347  0.26214442  1
  O  O10  1  0.56931485  0.00032100  0.76341097  1
  O  O11  1  0.95051596  0.51479653  0.73785558  1
loop_
_geom_bond_atom_site_label_1
_geom_bond_atom_site_label_2
_geom_bond_distance
_geom_bond_site_symmetry_2
Ba0 O6 2.705505 1_555
Ba0 O9 2.714519 1_555
Ba0 O3 2.735794 1_555
Ba0 O8 2.901574 1_555
Ba0 O2 2.935078 1_555
Ba0 O7 2.952294 1_555
Ba0 O4 3.018413 1_554
Ba0 O1 3.036325 1_555
Ba0 O8 3.122278 1_545
Ba0 O9 3.270305 1_655
Ba0 O0 3.433191 1_554
Ba0 O5 3.455264 1_555
Ba1 O4 2.705505 1_555
Ba1 O11 2.714519 1_555
Ba1 O1 2.735794 1_555
Ba1 O10 2.901574 1_555
Ba1 O0 2.935078 1_555
Ba1 O5 2.952294 1_555
Ba1 O6 3.018413 1_556
Ba1 O3 3.036325 1_555
Ba1 O10 3.122278 1_565
Ba1 O11 3.270305 1_455
Ba1 O2 3.433191 1_556
Ba1 O7 3.455264 1_555
Eu0 O8 2.595576 1_645
Eu0 O7 2.630841 1_545
Eu0 O2 2.664849 1_545
Eu0 O9 2.761347 1_655
Eu0 O6 2.871450 1_555
Eu0 O3 2.878470 1_555
Eu0 O0 2.935850 1_654
Eu0 O5 2.951760 1_655
Eu0 O9 3.232693 1_645
Eu1 O10 2.595576 1_465
Eu1 O5 2.630841 1_565
Eu1 O0 2.664849 1_565
Eu1 O11 2.761347 1_455
Eu1 O4 2.871450 1_555
Eu1 O1 2.878470 1_555
Eu1 O2 2.935850 1_456
Eu1 O7 2.951760 1_455
Eu1 O11 3.232693 1_465
Dy0 O6 2.238173 1_455
Dy0 O4 2.238173 1_554
Dy0 O11 2.238891 1_454
Dy0 O9 2.238891 1_555
Dy0 O0 2.277253 1_554
Dy0 O2 2.277253 1_455
Dy1 O5 2.254039 1_555
Dy1 O7 2.254039 1_545
Dy1 O3 2.255086 1_555
Dy1 O1 2.255086 1_545
Dy1 O10 2.266766 1_555
Dy1 O8 2.266766 1_545
O0 W0 2.033607 1_556
O1 W1 1.983364 1_555
O2 W0 2.033607 1_565
O3 W1 1.983364 1_655
O4 W0 2.010710 1_566
O5 W1 2.065416 1_555
O6 W0 2.010710 1_555
O7 W1 2.065416 1_655
O8 W0 2.043340 1_565
O9 W1 2.035933 1_555
O10 W0 2.043340 1_556
O11 W1 2.035933 1_655
