# generated using pymatgen
data_Mg14GaSb
_symmetry_space_group_name_H-M   'P 1'
_cell_length_a   6.29687909
_cell_length_b   6.60342384
_cell_length_c   10.28645657
_cell_angle_alpha   90.00000000
_cell_angle_beta   90.00000000
_cell_angle_gamma   121.62389611
_symmetry_Int_Tables_number   1
_chemical_formula_structural   Mg14GaSb
_chemical_formula_sum   'Mg14 Ga1 Sb1'
_cell_volume   364.20778231
_cell_formula_units_Z   1
loop_
 _symmetry_equiv_pos_site_id
 _symmetry_equiv_pos_as_xyz
  1  'x, y, z'
loop_
 _atom_site_type_symbol
 _atom_site_label
 _atom_site_symmetry_multiplicity
 _atom_site_fract_x
 _atom_site_fract_y
 _atom_site_fract_z
 _atom_site_occupancy
  Mg  Mg0  1  0.17128394  0.33564147  0.62500000  1
  Mg  Mg1  1  0.17225648  0.83612774  0.62500000  1
  Mg  Mg2  1  0.67242862  0.33504864  0.12500000  1
  Mg  Mg3  1  0.66826356  0.33407851  0.62500000  1
  Mg  Mg4  1  0.67242862  0.83737898  0.12500000  1
  Mg  Mg5  1  0.66826356  0.83418404  0.62500000  1
  Mg  Mg6  1  0.32895360  0.17006054  0.37069175  1
  Mg  Mg7  1  0.32895360  0.17006054  0.87930825  1
  Mg  Mg8  1  0.32895360  0.65889405  0.37069175  1
  Mg  Mg9  1  0.32895360  0.65889405  0.87930825  1
  Mg  Mg10  1  0.83716824  0.16858462  0.37135097  1
  Mg  Mg11  1  0.83716824  0.16858462  0.87864903  1
  Mg  Mg12  1  0.83209729  0.66604914  0.37787070  1
  Mg  Mg13  1  0.83209729  0.66604914  0.87212930  1
  Ga  Ga0  1  0.16093326  0.33046613  0.12500000  1
  Sb  Sb0  1  0.15979654  0.82989777  0.12500000  1
loop_
_geom_bond_atom_site_label_1
_geom_bond_atom_site_label_2
_geom_bond_distance
_geom_bond_site_symmetry_2
Mg0 Mg5 3.134844 1_555
Mg0 Mg3 3.134845 1_555
Mg0 Mg5 3.162059 1_445
Mg0 Mg3 3.162059 1_455
Mg0 Mg10 3.164972 1_455
Mg0 Mg11 3.164972 1_455
Mg0 Mg6 3.187904 1_555
Mg0 Mg7 3.187904 1_555
Mg0 Mg9 3.187910 1_555
Mg0 Mg8 3.187910 1_555
Mg0 Mg1 3.301716 1_555
Mg0 Mg1 3.301716 1_545
Mg1 Mg13 3.128696 1_455
Mg1 Mg12 3.128696 1_455
Mg1 Mg3 3.130045 1_565
Mg1 Mg5 3.130046 1_555
Mg1 Mg3 3.166871 1_455
Mg1 Mg5 3.166871 1_455
Mg1 Mg8 3.224500 1_555
Mg1 Mg9 3.224500 1_555
Mg1 Mg7 3.224506 1_565
Mg1 Mg6 3.224506 1_565
Mg2 Sb0 3.095086 1_655
Mg2 Mg7 3.127448 1_554
Mg2 Mg6 3.127448 1_555
Mg2 Sb0 3.202355 1_545
Mg2 Mg4 3.286324 1_545
Mg2 Mg4 3.317100 1_555
Mg3 Mg7 3.186602 1_555
Mg3 Mg6 3.186602 1_555
Mg3 Mg5 3.301015 1_545
Mg3 Mg5 3.302409 1_555
Mg4 Sb0 3.095086 1_655
Mg4 Mg9 3.127448 1_554
Mg4 Mg8 3.127448 1_555
Mg4 Sb0 3.202355 1_555
Mg5 Mg9 3.186602 1_555
Mg5 Mg8 3.186602 1_555
Mg6 Sb0 3.171483 1_545
Mg7 Sb0 3.171483 1_546
Mg8 Sb0 3.171476 1_555
Mg9 Sb0 3.171476 1_556
Mg10 Mg2 3.146704 1_555
Mg10 Mg4 3.146711 1_545
Mg10 Mg3 3.217453 1_555
Mg10 Mg5 3.217459 1_545
Mg11 Mg2 3.146704 1_556
Mg11 Mg4 3.146711 1_546
Mg11 Mg3 3.217453 1_555
Mg11 Mg5 3.217459 1_545
Mg12 Sb0 3.138989 1_655
Mg12 Mg5 3.155998 1_555
Mg12 Mg3 3.156005 1_555
Mg12 Mg4 3.201508 1_555
Mg12 Mg2 3.201515 1_555
Mg13 Sb0 3.138989 1_656
Mg13 Mg5 3.155998 1_555
Mg13 Mg3 3.156005 1_555
Mg13 Mg4 3.201508 1_556
Mg13 Mg2 3.201515 1_556
Ga0 Mg11 3.071673 1_454
Ga0 Mg10 3.071673 1_455
Ga0 Mg4 3.092028 1_445
Ga0 Mg2 3.092029 1_455
Ga0 Mg6 3.131100 1_555
Ga0 Mg7 3.131100 1_554
Ga0 Mg9 3.131107 1_554
Ga0 Mg8 3.131107 1_555
Ga0 Mg4 3.205061 1_555
Ga0 Mg2 3.205061 1_555
Ga0 Sb0 3.301718 1_545
Ga0 Sb0 3.301718 1_555
