# generated using pymatgen
data_ReS2NO9
_symmetry_space_group_name_H-M   'P 1'
_cell_length_a   7.91910723
_cell_length_b   8.02029716
_cell_length_c   8.01125718
_cell_angle_alpha   105.03712544
_cell_angle_beta   104.32667250
_cell_angle_gamma   105.64039604
_symmetry_Int_Tables_number   1
_chemical_formula_structural   ReS2NO9
_chemical_formula_sum   'Re2 S4 N2 O18'
_cell_volume   444.79372347
_cell_formula_units_Z   2
loop_
 _symmetry_equiv_pos_site_id
 _symmetry_equiv_pos_as_xyz
  1  'x, y, z'
loop_
 _atom_site_type_symbol
 _atom_site_label
 _atom_site_symmetry_multiplicity
 _atom_site_fract_x
 _atom_site_fract_y
 _atom_site_fract_z
 _atom_site_occupancy
  Re  Re0  1  0.83047100  0.84269100  0.55328100  1
  Re  Re1  1  0.16952900  0.15730900  0.44671900  1
  S  S0  1  0.78191100  0.82714000  0.12618200  1
  S  S1  1  0.21808900  0.17286000  0.87381800  1
  S  S2  1  0.80960700  0.24868600  0.54008000  1
  S  S3  1  0.19039300  0.75131400  0.45992000  1
  N  N0  1  0.78031100  0.28059500  0.03064100  1
  N  N1  1  0.21968900  0.71940500  0.96935900  1
  O  O0  1  0.97997100  0.70977000  0.46093100  1
  O  O1  1  0.02002900  0.29023000  0.53906900  1
  O  O2  1  0.94788400  0.02713000  0.22880100  1
  O  O3  1  0.05211600  0.97287000  0.77119900  1
  O  O4  1  0.71393400  0.81145700  0.29719100  1
  O  O5  1  0.28606600  0.18854300  0.70280900  1
  O  O6  1  0.78550400  0.07484400  0.60842500  1
  O  O7  1  0.21449600  0.92515600  0.39157500  1
  O  O8  1  0.85471900  0.68645500  0.06734400  1
  O  O9  1  0.14528100  0.31354500  0.93265600  1
  O  O10  1  0.63823200  0.85458100  0.00201200  1
  O  O11  1  0.36176800  0.14541900  0.99798800  1
  O  O12  1  0.81823400  0.39810500  0.68829300  1
  O  O13  1  0.18176600  0.60189500  0.31170700  1
  O  O14  1  0.68068400  0.19643400  0.35908400  1
  O  O15  1  0.31931600  0.80356600  0.64091600  1
  O  O16  1  0.67487200  0.69616100  0.60733200  1
  O  O17  1  0.32512800  0.30383900  0.39266800  1
loop_
_geom_bond_atom_site_label_1
_geom_bond_atom_site_label_2
_geom_bond_distance
_geom_bond_site_symmetry_2
O0 S3 1.611374 1_655
O0 Re0 1.946857 1_555
O1 S2 1.611374 1_455
O1 Re1 1.946857 1_555
O2 S0 1.618770 1_545
O2 Re1 1.941209 1_655
O3 S1 1.618770 1_565
O3 Re0 1.941209 1_455
O4 S0 1.612573 1_555
O4 Re0 1.948117 1_555
O5 S1 1.612573 1_555
O5 Re1 1.948117 1_555
O6 S2 1.607651 1_555
O6 Re0 1.948672 1_545
O7 S3 1.607651 1_555
O7 Re1 1.948672 1_565
O8 S0 1.427262 1_555
O9 S1 1.427262 1_555
O10 S0 1.421642 1_555
O11 S1 1.421642 1_555
O12 S2 1.424083 1_555
O13 S3 1.424083 1_555
O14 S2 1.428928 1_555
O15 S3 1.428928 1_555
O16 Re0 1.683527 1_555
O17 Re1 1.683527 1_555
