# generated using pymatgen
data_In(C4N3)2
_symmetry_space_group_name_H-M   'P 1'
_cell_length_a   13.20481248
_cell_length_b   13.16310804
_cell_length_c   5.70158948
_cell_angle_alpha   89.94321435
_cell_angle_beta   90.02830065
_cell_angle_gamma   119.89558195
_symmetry_Int_Tables_number   1
_chemical_formula_structural   In(C4N3)2
_chemical_formula_sum   'In3 C24 N18'
_cell_volume   859.15801291
_cell_formula_units_Z   3
loop_
 _symmetry_equiv_pos_site_id
 _symmetry_equiv_pos_as_xyz
  1  'x, y, z'
loop_
 _atom_site_type_symbol
 _atom_site_label
 _atom_site_symmetry_multiplicity
 _atom_site_fract_x
 _atom_site_fract_y
 _atom_site_fract_z
 _atom_site_occupancy
  In  In0  1  0.00000000  0.99767700  0.35083000  1
  In  In1  1  0.33474500  0.66779600  0.81475600  1
  In  In2  1  0.66525500  0.33305100  0.81475600  1
  C  C0  1  0.00000000  0.63175600  0.21788400  1
  C  C1  1  0.63396500  0.00100700  0.21149500  1
  C  C2  1  0.36603500  0.36704200  0.21149500  1
  C  C3  1  0.00000000  0.71185600  0.38228100  1
  C  C4  1  0.71594100  0.00015400  0.36935000  1
  C  C5  1  0.28405900  0.28421400  0.36935000  1
  C  C6  1  0.10384400  0.64316500  0.13124500  1
  C  C7  1  0.53810500  0.89773800  0.13182800  1
  C  C8  1  0.35749200  0.46295700  0.13446900  1
  C  C9  1  0.89615600  0.53932100  0.13124500  1
  C  C10  1  0.64250800  0.10546700  0.13446900  1
  C  C11  1  0.46189500  0.35963200  0.13182800  1
  C  C12  1  0.66859100  0.66764100  0.73910700  1
  C  C13  1  0.00000000  0.32912900  0.73961800  1
  C  C14  1  0.33140900  0.99904900  0.73910700  1
  C  C15  1  0.75223300  0.75126900  0.89518000  1
  C  C16  1  0.00000000  0.24479800  0.89471600  1
  C  C17  1  0.24776700  0.99903600  0.89518000  1
  C  C18  1  0.57426800  0.67991800  0.66756700  1
  C  C19  1  0.10568200  0.42498200  0.66947900  1
  C  C20  1  0.31955000  0.89256700  0.66670600  1
  C  C21  1  0.42573200  0.10565100  0.66756700  1
  C  C22  1  0.68045000  0.57301600  0.66670600  1
  C  C23  1  0.89431800  0.31930100  0.66947900  1
  N  N0  1  0.00000000  0.77853700  0.51852600  1
  N  N1  1  0.78356700  0.99977400  0.50211100  1
  N  N2  1  0.21643300  0.21620600  0.50211100  1
  N  N3  1  0.18923600  0.64828600  0.05844700  1
  N  N4  1  0.45324300  0.81415500  0.06660200  1
  N  N5  1  0.35665700  0.54752500  0.07211300  1
  N  N6  1  0.81076400  0.45905000  0.05844700  1
  N  N7  1  0.64334300  0.19086800  0.07211300  1
  N  N8  1  0.54675700  0.36091300  0.06660200  1
  N  N9  1  0.81964600  0.81891500  0.02801100  1
  N  N10  1  0.00000000  0.17640600  0.02609000  1
  N  N11  1  0.18035400  0.99926900  0.02801100  1
  N  N12  1  0.49572200  0.69297200  0.60835400  1
  N  N13  1  0.19601900  0.50576500  0.61240900  1
  N  N14  1  0.30682300  0.80099600  0.60707900  1
  N  N15  1  0.50427800  0.19725000  0.60835400  1
  N  N16  1  0.69317700  0.49417300  0.60707900  1
  N  N17  1  0.80398100  0.30974600  0.61240900  1
loop_
_geom_bond_atom_site_label_1
_geom_bond_atom_site_label_2
_geom_bond_distance
_geom_bond_site_symmetry_2
In1 N5 2.279200 1_556
In1 N3 2.279990 1_556
In1 N4 2.284753 1_556
In1 N14 2.291732 1_555
In1 N12 2.304928 1_555
In1 N13 2.311660 1_555
In2 N7 2.279200 1_556
In2 N6 2.279990 1_556
In2 N8 2.284759 1_556
In2 N16 2.291732 1_555
In2 N15 2.304928 1_555
In2 N17 2.311660 1_555
C0 C6 1.393597 1_555
C0 C9 1.393597 1_455
C0 C3 1.411461 1_555
C1 C10 1.393018 1_555
C1 C7 1.393497 1_545
C1 C4 1.411758 1_555
C2 C8 1.392993 1_555
C2 C5 1.411753 1_555
C3 N0 1.172689 1_555
C4 N1 1.172264 1_545
C5 N2 1.172274 1_555
C6 N3 1.171712 1_555
C7 N4 1.172985 1_555
C8 N5 1.173513 1_555
C9 N6 1.171712 1_555
C10 N7 1.173488 1_555
C11 N8 1.172973 1_555
C11 C2 1.393504 1_555
C12 C22 1.393507 1_555
C12 C18 1.394208 1_555
C12 C15 1.418624 1_555
C13 C19 1.394160 1_555
C13 C23 1.394166 1_455
C13 C16 1.418548 1_555
C14 C20 1.393482 1_555
C14 C21 1.394223 1_565
C14 C17 1.418630 1_555
C15 N9 1.170210 1_556
C16 N10 1.170546 1_556
C17 N11 1.170210 1_556
C18 N12 1.181717 1_555
C19 N13 1.181024 1_555
C20 N14 1.181329 1_555
C21 N15 1.181709 1_555
C22 N16 1.181316 1_555
C23 N17 1.181019 1_555
