# generated using pymatgen
data_Dy3(Al3Os)4
_symmetry_space_group_name_H-M   'P 1'
_cell_length_a   8.77585167
_cell_length_b   8.77594449
_cell_length_c   9.51190156
_cell_angle_alpha   90.00004870
_cell_angle_beta   90.00015263
_cell_angle_gamma   120.00022512
_symmetry_Int_Tables_number   1
_chemical_formula_structural   Dy3(Al3Os)4
_chemical_formula_sum   'Dy6 Al24 Os8'
_cell_volume   634.42477663
_cell_formula_units_Z   2
loop_
 _symmetry_equiv_pos_site_id
 _symmetry_equiv_pos_as_xyz
  1  'x, y, z'
loop_
 _atom_site_type_symbol
 _atom_site_label
 _atom_site_symmetry_multiplicity
 _atom_site_fract_x
 _atom_site_fract_y
 _atom_site_fract_z
 _atom_site_occupancy
  Dy  Dy0  1  0.19319302  0.38638455  0.24998311  1
  Dy  Dy1  1  0.80680686  0.61361465  0.75001659  1
  Dy  Dy2  1  0.61361618  0.80680830  0.24998360  1
  Dy  Dy3  1  0.38638526  0.19319187  0.75001660  1
  Dy  Dy4  1  0.19319352  0.80680873  0.24998316  1
  Dy  Dy5  1  0.80680626  0.19319201  0.75001673  1
  Al  Al0  1  0.33333284  0.66666625  0.01145922  1
  Al  Al1  1  0.66666726  0.33333378  0.98853625  1
  Al  Al2  1  0.66666732  0.33333379  0.51149807  1
  Al  Al3  1  0.33333293  0.66666607  0.48851213  1
  Al  Al4  1  0.16316383  0.32632752  0.57511366  1
  Al  Al5  1  0.83683738  0.67367408  0.42489129  1
  Al  Al6  1  0.67367296  0.83683630  0.57511386  1
  Al  Al7  1  0.83683650  0.67367746  0.07511340  1
  Al  Al8  1  0.32632553  0.16316274  0.42489128  1
  Al  Al9  1  0.16316416  0.32632288  0.92487981  1
  Al  Al10  1  0.16316396  0.83683614  0.57511310  1
  Al  Al11  1  0.32631667  0.16315825  0.07511481  1
  Al  Al12  1  0.83683750  0.16316333  0.42489207  1
  Al  Al13  1  0.67367758  0.83684141  0.92487983  1
  Al  Al14  1  0.83683649  0.16315926  0.07511299  1
  Al  Al15  1  0.16316420  0.83684096  0.92488050  1
  Al  Al16  1  0.56114648  0.12229122  0.25000036  1
  Al  Al17  1  0.43885236  0.87770579  0.74999944  1
  Al  Al18  1  0.87770888  0.43885453  0.25000018  1
  Al  Al19  1  0.12229438  0.56114677  0.74999980  1
  Al  Al20  1  0.56114669  0.43885557  0.25000039  1
  Al  Al21  1  0.43885251  0.56114566  0.74999946  1
  Al  Al22  1  -0.00000101  -0.00000102  0.25002061  1
  Al  Al23  1  0.00000142  0.00000116  0.74997912  1
  Os  Os0  1  0.50001026  0.00002086  0.00000670  1
  Os  Os1  1  -0.00002066  0.49998960  0.00000686  1
  Os  Os2  1  0.50001065  0.00002084  0.49999307  1
  Os  Os3  1  0.50001038  0.49998972  0.00000669  1
  Os  Os4  1  -0.00002067  0.49998942  0.49999277  1
  Os  Os5  1  0.50001022  0.49998958  0.49999309  1
  Os  Os6  1  -0.00000047  -0.00000037  0.00000034  1
  Os  Os7  1  0.00000037  0.00000034  0.49999905  1
loop_
_geom_bond_atom_site_label_1
_geom_bond_atom_site_label_2
_geom_bond_distance
_geom_bond_site_symmetry_2
Dy0 Os3 3.348617 1_555
Dy0 Os1 3.348627 1_555
Dy0 Os5 3.348831 1_555
Dy0 Os4 3.348857 1_555
Dy1 Os3 3.348571 1_556
Dy1 Os1 3.348581 1_656
Dy1 Os5 3.348786 1_555
Dy1 Os4 3.348814 1_655
Dy2 Os0 3.348637 1_565
Dy2 Os3 3.348637 1_555
Dy2 Os2 3.348856 1_565
Dy2 Os5 3.348865 1_555
Dy3 Os0 3.348579 1_556
Dy3 Os3 3.348589 1_556
Dy3 Os2 3.348809 1_555
Dy3 Os5 3.348821 1_555
Dy4 Os0 3.348616 1_565
Dy4 Os1 3.348631 1_555
Dy4 Os2 3.348831 1_565
Dy4 Os4 3.348866 1_555
Dy5 Os0 3.348569 1_556
Dy5 Os1 3.348582 1_656
Dy5 Os2 3.348783 1_555
Dy5 Os4 3.348820 1_655
Al0 Os1 2.535858 1_555
Al0 Os3 2.535885 1_555
Al0 Os0 2.535894 1_565
Al0 Dy2 3.112102 1_555
Al0 Dy4 3.112110 1_555
Al0 Dy0 3.112115 1_555
Al1 Os1 2.535551 1_656
Al1 Os3 2.535579 1_556
Al1 Os0 2.535585 1_556
Al1 Dy3 3.112062 1_555
Al1 Dy5 3.112074 1_555
Al1 Dy1 3.112081 1_555
Al2 Os4 2.535566 1_655
Al2 Os5 2.535594 1_555
Al2 Os2 2.535599 1_555
Al2 Dy5 3.112065 1_555
Al2 Dy1 3.112065 1_555
Al2 Dy3 3.112065 1_555
Al3 Os4 2.535871 1_555
Al3 Os5 2.535894 1_555
Al3 Os2 2.535906 1_565
Al3 Dy2 3.112141 1_555
Al3 Dy0 3.112141 1_555
Al3 Dy4 3.112143 1_555
Al4 Os7 2.581005 1_555
Al4 Os5 2.658312 1_555
Al4 Os4 2.658331 1_555
Al4 Dy0 3.126113 1_555
Al4 Dy5 3.203001 1_455
Al4 Dy3 3.203006 1_555
Al5 Os7 2.580980 1_665
Al5 Os5 2.658128 1_555
Al5 Os4 2.658142 1_655
Al5 Dy1 3.126066 1_555
Al5 Dy4 3.203017 1_655
Al5 Dy2 3.203020 1_555
Al6 Os7 2.580986 1_665
Al6 Os2 2.658333 1_565
Al6 Os5 2.658336 1_555
Al6 Dy2 3.126107 1_555
Al6 Dy1 3.203006 1_555
Al6 Dy5 3.203010 1_565
Al7 Os6 2.580968 1_665
Al7 Os3 2.658129 1_555
Al7 Os1 2.658186 1_655
Al7 Dy1 3.125800 1_554
Al7 Dy2 3.202813 1_555
Al7 Dy4 3.202828 1_655
Al8 Os7 2.580951 1_555
Al8 Os2 2.658145 1_555
Al8 Os5 2.658147 1_555
Al8 Dy3 3.126063 1_555
Al8 Dy4 3.203025 1_545
Al8 Dy0 3.203026 1_555
Al9 Os6 2.580995 1_556
Al9 Os3 2.658322 1_556
Al9 Os1 2.658386 1_556
Al9 Dy0 3.125860 1_556
Al9 Dy3 3.202785 1_555
Al9 Dy5 3.202801 1_455
Al10 Os7 2.581005 1_565
Al10 Os2 2.658312 1_565
Al10 Os4 2.658336 1_555
Al10 Dy4 3.126107 1_555
Al10 Dy1 3.203002 1_455
Al10 Dy3 3.203004 1_565
Al11 Os6 2.580905 1_555
Al11 Os0 2.658192 1_555
Al11 Os3 2.658202 1_555
Al11 Dy3 3.125821 1_554
Al11 Dy0 3.202809 1_555
Al11 Dy4 3.202813 1_545
Al12 Os7 2.580972 1_655
Al12 Os2 2.658123 1_555
Al12 Os4 2.658140 1_655
Al12 Dy5 3.126060 1_555
Al12 Dy0 3.203019 1_655
Al12 Dy2 3.203024 1_545
Al13 Os6 2.580956 1_666
Al13 Os0 2.658351 1_566
Al13 Os3 2.658392 1_556
Al13 Dy2 3.125866 1_556
Al13 Dy5 3.202789 1_565
Al13 Dy1 3.202821 1_555
Al14 Os6 2.580965 1_655
Al14 Os0 2.658128 1_555
Al14 Os1 2.658188 1_655
Al14 Dy5 3.125795 1_554
Al14 Dy2 3.202820 1_545
Al14 Dy0 3.202827 1_655
Al15 Os6 2.580989 1_566
Al15 Os0 2.658319 1_566
Al15 Os1 2.658389 1_556
Al15 Dy4 3.125854 1_556
Al15 Dy3 3.202788 1_565
Al15 Dy1 3.202803 1_455
Al16 Os2 2.553038 1_555
Al16 Os0 2.553042 1_555
Al16 Dy4 3.025263 1_545
Al16 Dy2 3.025292 1_545
Al17 Os2 2.553282 1_565
Al17 Os0 2.553286 1_566
Al17 Dy5 3.025281 1_565
Al17 Dy3 3.025306 1_565
Al18 Os4 2.553028 1_655
Al18 Os1 2.553041 1_655
Al18 Dy0 3.025278 1_655
Al18 Dy4 3.025287 1_655
Al19 Os4 2.553279 1_555
Al19 Os1 2.553286 1_556
Al19 Dy1 3.025297 1_455
Al19 Dy5 3.025302 1_455
Al20 Os5 2.553036 1_555
Al20 Os3 2.553043 1_555
Al20 Dy0 3.025263 1_555
Al20 Dy2 3.025296 1_555
Al21 Os5 2.553277 1_555
Al21 Os3 2.553283 1_556
Al21 Dy1 3.025276 1_555
Al21 Dy3 3.025313 1_555
Al22 Os7 2.377770 1_555
Al22 Os6 2.378168 1_555
Al22 Dy2 2.936545 1_445
Al22 Dy4 2.936586 1_545
Al22 Dy0 2.936597 1_555
Al23 Os7 2.377786 1_555
Al23 Os6 2.378177 1_556
Al23 Dy3 2.936553 1_555
Al23 Dy5 2.936595 1_455
Al23 Dy1 2.936605 1_445
