# generated using pymatgen
data_Sr3Yb2(BO3)4
_symmetry_space_group_name_H-M   'P 1'
_cell_length_a   7.52365100
_cell_length_b   8.73204600
_cell_length_c   16.29753900
_cell_angle_alpha   90.00000000
_cell_angle_beta   90.00000000
_cell_angle_gamma   90.00000000
_symmetry_Int_Tables_number   1
_chemical_formula_structural   Sr3Yb2(BO3)4
_chemical_formula_sum   'Sr12 Yb8 B16 O48'
_cell_volume   1070.69724592
_cell_formula_units_Z   4
loop_
 _symmetry_equiv_pos_site_id
 _symmetry_equiv_pos_as_xyz
  1  'x, y, z'
loop_
 _atom_site_type_symbol
 _atom_site_label
 _atom_site_symmetry_multiplicity
 _atom_site_fract_x
 _atom_site_fract_y
 _atom_site_fract_z
 _atom_site_occupancy
  Sr  Sr0  1  0.01952800  0.33430200  0.45259100  1
  Sr  Sr1  1  0.98047200  0.66569800  0.95259100  1
  Sr  Sr2  1  0.51952800  0.16569800  0.45259100  1
  Sr  Sr3  1  0.48047200  0.83430200  0.95259100  1
  Sr  Sr4  1  0.18123400  0.84189100  0.40854800  1
  Sr  Sr5  1  0.81876600  0.15810900  0.90854800  1
  Sr  Sr6  1  0.68123400  0.65810900  0.40854800  1
  Sr  Sr7  1  0.31876600  0.34189100  0.90854800  1
  Sr  Sr8  1  0.30250600  0.34659600  0.66744800  1
  Sr  Sr9  1  0.69749400  0.65340400  0.16744800  1
  Sr  Sr10  1  0.80250600  0.15340400  0.66744800  1
  Sr  Sr11  1  0.19749400  0.84659600  0.16744800  1
  Yb  Yb0  1  0.31653100  0.47246700  0.28789100  1
  Yb  Yb1  1  0.68346900  0.52753300  0.78789100  1
  Yb  Yb2  1  0.81653100  0.02753300  0.28789100  1
  Yb  Yb3  1  0.18346900  0.97246700  0.78789100  1
  Yb  Yb4  1  0.01809100  0.33066900  0.12687200  1
  Yb  Yb5  1  0.98190900  0.66933100  0.62687200  1
  Yb  Yb6  1  0.51809100  0.16933100  0.12687200  1
  Yb  Yb7  1  0.48190900  0.83066900  0.62687200  1
  B  B0  1  0.17297700  0.05841400  0.99965500  1
  B  B1  1  0.82702300  0.94158600  0.49965500  1
  B  B2  1  0.67297700  0.44158600  0.99965500  1
  B  B3  1  0.32702300  0.55841400  0.49965500  1
  B  B4  1  0.00607800  0.37455000  0.78661800  1
  B  B5  1  0.99392200  0.62545000  0.28661800  1
  B  B6  1  0.50607800  0.12545000  0.78661800  1
  B  B7  1  0.49392200  0.87455000  0.28661800  1
  B  B8  1  0.15954500  0.04196200  0.58493000  1
  B  B9  1  0.84045500  0.95803800  0.08493000  1
  B  B10  1  0.65954500  0.45803800  0.58493000  1
  B  B11  1  0.34045500  0.54196200  0.08493000  1
  B  B12  1  0.21383300  0.15523500  0.28613800  1
  B  B13  1  0.78616700  0.84476500  0.78613800  1
  B  B14  1  0.71383300  0.34476500  0.28613800  1
  B  B15  1  0.28616700  0.65523500  0.78613800  1
  O  O0  1  0.24766300  0.22662900  0.21183000  1
  O  O1  1  0.75233700  0.77337100  0.71183000  1
  O  O2  1  0.74766300  0.27337100  0.21183000  1
  O  O3  1  0.25233700  0.72662900  0.71183000  1
  O  O4  1  0.09002900  0.18774600  0.58150300  1
  O  O5  1  0.90997100  0.81225400  0.08150300  1
  O  O6  1  0.59002900  0.31225400  0.58150300  1
  O  O7  1  0.40997100  0.68774600  0.08150300  1
  O  O8  1  0.09424100  0.20092500  0.00200700  1
  O  O9  1  0.90575900  0.79907500  0.50200700  1
  O  O10  1  0.59424100  0.29907500  0.00200700  1
  O  O11  1  0.40575900  0.70092500  0.50200700  1
  O  O12  1  0.12726100  0.01725200  0.28732500  1
  O  O13  1  0.87273900  0.98274800  0.78732500  1
  O  O14  1  0.62726100  0.48274800  0.28732500  1
  O  O15  1  0.37273900  0.51725200  0.78732500  1
  O  O16  1  0.20727800  0.49359100  0.03470100  1
  O  O17  1  0.79272200  0.50640900  0.53470100  1
  O  O18  1  0.70727800  0.00640900  0.03470100  1
  O  O19  1  0.29272200  0.99359100  0.53470100  1
  O  O20  1  0.11053800  0.24223200  0.78725700  1
  O  O21  1  0.88946200  0.75776800  0.28725700  1
  O  O22  1  0.61053800  0.25776800  0.78725700  1
  O  O23  1  0.38946200  0.74223200  0.28725700  1
  O  O24  1  0.04429000  0.55649000  0.21331000  1
  O  O25  1  0.95571000  0.44351000  0.71331000  1
  O  O26  1  0.54429000  0.94351000  0.21331000  1
  O  O27  1  0.45571000  0.05649000  0.71331000  1
  O  O28  1  0.25928400  0.22317300  0.35936100  1
  O  O29  1  0.74071600  0.77682700  0.85936100  1
  O  O30  1  0.75928400  0.27682700  0.35936100  1
  O  O31  1  0.24071600  0.72317300  0.85936100  1
  O  O32  1  0.39034000  0.46611600  0.43717800  1
  O  O33  1  0.60966000  0.53388400  0.93717800  1
  O  O34  1  0.89034000  0.03388400  0.43717800  1
  O  O35  1  0.10966000  0.96611600  0.93717800  1
  O  O36  1  0.41210400  0.44991600  0.14571300  1
  O  O37  1  0.58789600  0.55008400  0.64571300  1
  O  O38  1  0.91210400  0.05008400  0.14571300  1
  O  O39  1  0.08789600  0.94991600  0.64571300  1
  O  O40  1  0.30675200  0.01763500  0.05191600  1
  O  O41  1  0.69324800  0.98236500  0.55191600  1
  O  O42  1  0.80675200  0.48236500  0.05191600  1
  O  O43  1  0.19324800  0.51763500  0.55191600  1
  O  O44  1  0.05743200  0.56802600  0.36020700  1
  O  O45  1  0.94256800  0.43197400  0.86020700  1
  O  O46  1  0.55743200  0.93197400  0.36020700  1
  O  O47  1  0.44256800  0.06802600  0.86020700  1
loop_
_geom_bond_atom_site_label_1
_geom_bond_atom_site_label_2
_geom_bond_distance
_geom_bond_site_symmetry_2
B0 O40 1.365733 1_556
B0 O8 1.378749 1_556
B0 O35 1.383208 1_545
B1 O41 1.365733 1_555
B1 O9 1.378749 1_555
B1 O34 1.383208 1_565
B2 O42 1.365733 1_556
B2 O10 1.378749 1_556
B2 O33 1.383208 1_555
B3 O43 1.365733 1_555
B3 O11 1.378749 1_555
B3 O32 1.383208 1_555
B4 O45 1.384961 1_455
B4 O25 1.390542 1_455
B4 O20 1.397406 1_555
B5 O44 1.384961 1_655
B5 O24 1.390542 1_655
B5 O21 1.397406 1_555
B6 O47 1.384961 1_555
B6 O27 1.390542 1_555
B6 O22 1.397406 1_555
B7 O46 1.384961 1_555
B7 O26 1.390542 1_555
B7 O23 1.397406 1_555
B8 O19 1.361059 1_545
B8 O4 1.377379 1_555
B8 O39 1.384889 1_545
B9 O18 1.361059 1_565
B9 O5 1.377379 1_555
B9 O38 1.384889 1_565
B10 O17 1.361059 1_555
B10 O6 1.377379 1_555
B10 O37 1.384889 1_555
B11 O16 1.361059 1_555
B11 O7 1.377379 1_555
B11 O36 1.384889 1_555
B12 O12 1.369794 1_555
B12 O28 1.375849 1_555
B12 O0 1.385656 1_555
B13 O13 1.369794 1_555
B13 O29 1.375849 1_555
B13 O1 1.385656 1_555
B14 O14 1.369794 1_555
B14 O30 1.375849 1_555
B14 O2 1.385656 1_555
B15 O15 1.369794 1_555
B15 O31 1.375849 1_555
B15 O3 1.385656 1_555
O0 Yb4 2.392856 1_555
O0 Yb6 2.511391 1_555
O0 Yb0 2.532446 1_555
O1 Yb5 2.392856 1_555
O1 Yb7 2.511391 1_555
O1 Yb1 2.532446 1_555
O2 Yb6 2.392856 1_555
O2 Yb4 2.511391 1_655
O2 Yb2 2.532446 1_555
O3 Yb7 2.392856 1_555
O3 Yb5 2.511391 1_455
O3 Yb3 2.532446 1_555
O4 Sr0 2.516556 1_555
O4 Sr8 2.538006 1_555
O4 Sr10 2.594493 1_455
O5 Sr1 2.516556 1_554
O5 Sr9 2.538006 1_555
O5 Sr11 2.594493 1_655
O6 Sr2 2.516556 1_555
O6 Sr10 2.538006 1_555
O6 Sr8 2.594493 1_555
O7 Sr3 2.516556 1_554
O7 Sr11 2.538006 1_555
O7 Sr9 2.594493 1_555
O8 Yb4 2.398535 1_555
O8 Sr7 2.586255 1_554
O8 Sr5 2.599105 1_454
O9 Yb5 2.398535 1_555
O9 Sr6 2.586255 1_555
O9 Sr4 2.599105 1_655
O10 Yb6 2.398535 1_555
O10 Sr5 2.586255 1_554
O10 Sr7 2.599105 1_554
O11 Yb7 2.398535 1_555
O11 Sr4 2.586255 1_555
O11 Sr6 2.599105 1_555
O12 Yb2 2.339565 1_455
O12 Sr11 2.513321 1_545
O12 Sr4 2.532350 1_545
O13 Yb3 2.339565 1_655
O13 Sr10 2.513321 1_565
O13 Sr5 2.532350 1_565
O14 Yb0 2.339565 1_555
O14 Sr9 2.513321 1_555
O14 Sr6 2.532350 1_555
O15 Yb1 2.339565 1_555
O15 Sr8 2.513321 1_555
O15 Sr7 2.532350 1_555
O16 Yb4 2.511255 1_555
O16 Sr7 2.585604 1_554
O16 Sr1 2.638396 1_454
O17 Yb5 2.511255 1_555
O17 Sr6 2.585604 1_555
O17 Sr0 2.638396 1_655
O18 Yb6 2.511255 1_555
O18 Sr5 2.585604 1_554
O18 Sr3 2.638396 1_544
O19 Yb7 2.511255 1_555
O19 Sr4 2.585604 1_555
O19 Sr2 2.638396 1_565
O20 Yb3 2.418686 1_545
O20 Sr8 2.594052 1_555
O20 Sr7 2.668175 1_555
O20 Sr5 3.044005 1_455
O21 Yb2 2.418686 1_565
O21 Sr9 2.594052 1_555
O21 Sr6 2.668175 1_555
O21 Sr4 3.044005 1_655
O22 Yb1 2.418686 1_555
O22 Sr10 2.594052 1_555
O22 Sr5 2.668175 1_555
O22 Sr7 3.044005 1_555
O23 Yb0 2.418686 1_555
O23 Sr11 2.594052 1_555
O23 Sr4 2.668175 1_555
O23 Sr6 3.044005 1_555
O24 Yb4 2.431393 1_555
O24 Yb0 2.492193 1_555
O24 Sr9 2.842990 1_455
O24 Sr11 2.881748 1_555
O25 Yb5 2.431393 1_555
O25 Yb1 2.492193 1_555
O25 Sr8 2.842990 1_655
O25 Sr10 2.881748 1_555
O26 Yb6 2.431393 1_565
O26 Yb2 2.492193 1_565
O26 Sr11 2.842990 1_555
O26 Sr9 2.881748 1_555
O27 Yb7 2.431393 1_545
O27 Yb3 2.492193 1_545
O27 Sr10 2.842990 1_555
O27 Sr8 2.881748 1_555
O28 Yb0 2.506171 1_555
O28 Sr2 2.528679 1_555
O28 Sr0 2.550318 1_555
O29 Yb1 2.506171 1_555
O29 Sr3 2.528679 1_555
O29 Sr1 2.550318 1_555
O30 Yb2 2.506171 1_555
O30 Sr0 2.528679 1_655
O30 Sr2 2.550318 1_555
O31 Yb3 2.506171 1_555
O31 Sr1 2.528679 1_455
O31 Sr3 2.550318 1_555
O32 Yb0 2.496195 1_555
O32 Sr6 2.796112 1_555
O32 Sr2 2.808795 1_555
O32 Sr0 3.028404 1_555
O33 Yb1 2.496195 1_555
O33 Sr7 2.796112 1_555
O33 Sr3 2.808795 1_555
O33 Sr1 3.028404 1_555
O34 Yb2 2.496195 1_555
O34 Sr4 2.796112 1_645
O34 Sr0 2.808795 1_655
O34 Sr2 3.028404 1_555
O35 Yb3 2.496195 1_555
O35 Sr5 2.796112 1_465
O35 Sr1 2.808795 1_455
O35 Sr3 3.028404 1_555
O36 Yb0 2.434135 1_555
O36 Yb6 2.594811 1_555
O36 Sr9 2.809465 1_555
O37 Yb1 2.434135 1_555
O37 Yb7 2.594811 1_555
O37 Sr8 2.809465 1_555
O38 Yb2 2.434135 1_555
O38 Yb4 2.594811 1_655
O38 Sr11 2.809465 1_645
O39 Yb3 2.434135 1_555
O39 Yb5 2.594811 1_455
O39 Sr10 2.809465 1_465
O40 Yb6 2.403152 1_555
O40 Sr11 2.539997 1_545
O40 Sr3 2.625152 1_544
O41 Yb7 2.403152 1_555
O41 Sr10 2.539997 1_565
O41 Sr2 2.625152 1_565
O42 Yb4 2.403152 1_655
O42 Sr9 2.539997 1_555
O42 Sr1 2.625152 1_554
O43 Yb5 2.403152 1_455
O43 Sr8 2.539997 1_555
O43 Sr0 2.625152 1_555
O44 Yb0 2.425973 1_555
O44 Sr0 2.552152 1_555
O44 Sr4 2.684600 1_555
O44 Sr6 3.041465 1_455
O45 Yb1 2.425973 1_555
O45 Sr1 2.552152 1_555
O45 Sr5 2.684600 1_555
O45 Sr7 3.041465 1_655
O46 Yb2 2.425973 1_565
O46 Sr2 2.552152 1_565
O46 Sr6 2.684600 1_555
O46 Sr4 3.041465 1_555
O47 Yb3 2.425973 1_545
O47 Sr3 2.552152 1_545
O47 Sr7 2.684600 1_555
O47 Sr5 3.041465 1_555
