# generated using pymatgen
data_SnO2
_symmetry_space_group_name_H-M   'P 1'
_cell_length_a   11.64624599
_cell_length_b   11.69206890
_cell_length_c   10.80818087
_cell_angle_alpha   88.71813953
_cell_angle_beta   97.75200325
_cell_angle_gamma   86.55873670
_symmetry_Int_Tables_number   1
_chemical_formula_structural   SnO2
_chemical_formula_sum   'Sn34 O68'
_cell_volume   1454.96584088
_cell_formula_units_Z   34
loop_
 _symmetry_equiv_pos_site_id
 _symmetry_equiv_pos_as_xyz
  1  'x, y, z'
loop_
 _atom_site_type_symbol
 _atom_site_label
 _atom_site_symmetry_multiplicity
 _atom_site_fract_x
 _atom_site_fract_y
 _atom_site_fract_z
 _atom_site_occupancy
  Sn  Sn0  1  0.23840869  0.47802176  0.64183971  1
  Sn  Sn1  1  0.04349569  0.71648728  0.17786491  1
  Sn  Sn2  1  0.32832415  0.73866922  0.81690029  1
  Sn  Sn3  1  0.95629828  0.05275173  0.55610493  1
  Sn  Sn4  1  0.02900137  0.27595482  0.82669951  1
  Sn  Sn5  1  0.79249713  0.15533222  0.76434146  1
  Sn  Sn6  1  0.71634565  0.70697052  0.20056873  1
  Sn  Sn7  1  0.20937997  0.47247549  0.21404616  1
  Sn  Sn8  1  0.00302059  0.80258843  0.81254022  1
  Sn  Sn9  1  0.92319803  0.64539755  0.48546779  1
  Sn  Sn10  1  0.12209418  0.52314854  0.91065251  1
  Sn  Sn11  1  0.55131604  0.51739294  0.76281010  1
  Sn  Sn12  1  0.67896248  0.91763092  0.91361067  1
  Sn  Sn13  1  0.40617864  0.92664270  0.05559411  1
  Sn  Sn14  1  0.70333241  0.93748341  0.47228412  1
  Sn  Sn15  1  0.15231016  0.01728857  0.80718798  1
  Sn  Sn16  1  0.49235004  0.81269022  0.60872657  1
  Sn  Sn17  1  0.33816042  0.66888800  0.37220211  1
  Sn  Sn18  1  0.40989223  0.30730807  0.52020922  1
  Sn  Sn19  1  0.99067726  0.01945661  0.06238306  1
  Sn  Sn20  1  0.79524089  0.66742288  0.94290975  1
  Sn  Sn21  1  0.56626595  0.47954171  0.29888175  1
  Sn  Sn22  1  0.86994966  0.33494507  0.40312100  1
  Sn  Sn23  1  0.15046668  0.78672214  0.51297424  1
  Sn  Sn24  1  0.08378947  0.18318757  0.29312014  1
  Sn  Sn25  1  0.79510662  0.47373843  0.66897942  1
  Sn  Sn26  1  0.38965430  0.02381350  0.33060991  1
  Sn  Sn27  1  0.59380702  0.30631509  0.01849013  1
  Sn  Sn28  1  0.58373529  0.21359311  0.32141056  1
  Sn  Sn29  1  0.47289655  0.09321991  0.82572426  1
  Sn  Sn30  1  0.25929119  0.22819297  0.07223494  1
  Sn  Sn31  1  0.88177603  0.41605142  0.09511040  1
  Sn  Sn32  1  0.26802226  0.03848361  0.57704751  1
  Sn  Sn33  1  0.78298220  0.01557017  0.21867855  1
  O  O0  1  0.22886268  0.08830205  0.38676609  1
  O  O1  1  0.05256156  0.15487459  0.69163922  1
  O  O2  1  -0.00317095  0.19631766  0.44904932  1
  O  O3  1  0.41426768  0.43493671  0.66027896  1
  O  O4  1  0.54220803  0.92900693  0.76193954  1
  O  O5  1  0.25030010  0.81936639  0.38292103  1
  O  O6  1  0.37892718  0.50117306  0.32019928  1
  O  O7  1  0.20843304  0.30080357  0.24173612  1
  O  O8  1  0.62897230  0.47273066  0.61329215  1
  O  O9  1  0.73656896  0.41699152  0.29304608  1
  O  O10  1  0.92897359  0.63485509  0.78448632  1
  O  O11  1  0.03396249  0.52944161  0.17058640  1
  O  O12  1  0.31870103  0.81978883  0.64362858  1
  O  O13  1  0.91191374  0.46714119  0.52726192  1
  O  O14  1  0.41502751  0.96340411  0.51122198  1
  O  O15  1  0.84661653  0.64048599  0.66375332  1
  O  O16  1  0.99495431  0.40475541  0.95498064  1
  O  O17  1  0.41206112  0.17053302  0.65048644  1
  O  O18  1  0.11077430  0.42006270  0.75149668  1
  O  O19  1  0.05699116  0.68176515  0.96767300  1
  O  O20  1  0.98260373  0.95696764  0.72236193  1
  O  O21  1  0.10301396  0.95845517  0.51833067  1
  O  O22  1  0.80933260  0.98154446  0.03972750  1
  O  O23  1  0.55588757  0.35237704  0.43723598  1
  O  O24  1  0.45317432  0.22396729  0.94382804  1
  O  O25  1  0.93185539  0.09772142  0.21451852  1
  O  O26  1  0.52777254  0.45050608  0.92396426  1
  O  O27  1  0.76459710  0.30903636  0.01062125  1
  O  O28  1  0.78584982  0.04632059  0.61951364  1
  O  O29  1  0.75480432  0.19695541  0.41766924  1
  O  O30  1  0.23847305  0.35687984  0.50830451  1
  O  O31  1  0.08474984  0.93682958  0.94802688  1
  O  O32  1  0.56476998  0.63312780  0.22002152  1
  O  O33  1  0.78581415  0.25811613  0.54167175  1
  O  O34  1  0.41806322  0.19863144  0.36884167  1
  O  O35  1  0.57845527  0.04310764  0.38193867  1
  O  O36  1  0.54860374  0.99329208  0.99991415  1
  O  O37  1  0.24035869  0.42190490  0.03820276  1
  O  O38  1  0.48348408  0.68478054  0.48342334  1
  O  O39  1  0.65652625  0.11525829  0.84526844  1
  O  O40  1  0.02890502  0.70871996  0.37073187  1
  O  O41  1  0.02535227  0.73496822  0.61196772  1
  O  O42  1  0.21836540  0.64866805  0.21059669  1
  O  O43  1  0.49027455  0.68354453  0.75970101  1
  O  O44  1  0.04321132  0.88574143  0.18405105  1
  O  O45  1  0.36401596  0.08859707  0.14271411  1
  O  O46  1  0.41856142  0.87961883  0.23622155  1
  O  O47  1  0.66561439  0.15192983  0.18035201  1
  O  O48  1  0.33073524  0.00373863  0.88056185  1
  O  O49  1  0.82071231  0.82095145  0.85075670  1
  O  O50  1  0.52444855  0.34435897  0.18002878  1
  O  O51  1  0.37636764  0.77026076  0.99306295  1
  O  O52  1  0.69927405  0.87479726  0.26676266  1
  O  O53  1  0.93234276  0.14399221  0.90214336  1
  O  O54  1  0.85584841  0.31966640  0.74836252  1
  O  O55  1  0.76557902  0.55128696  0.08326470  1
  O  O56  1  0.17117460  0.82798262  0.78615372  1
  O  O57  1  0.18447262  0.19369541  0.89684762  1
  O  O58  1  0.25079938  0.58395739  0.80212253  1
  O  O59  1  0.73065383  0.54395392  0.82695018  1
  O  O60  1  0.96255810  0.33170055  0.25444587  1
  O  O61  1  0.66134377  0.81828919  0.58020434  1
  O  O62  1  0.86882615  0.73462258  0.11718127  1
  O  O63  1  0.77336714  0.65673976  0.38152397  1
  O  O64  1  0.22986770  0.61413511  0.51755356  1
  O  O65  1  0.11588355  0.13709464  0.11905971  1
  O  O66  1  0.85713810  0.96858128  0.41377008  1
  O  O67  1  0.65641120  0.76181648  0.00178606  1
loop_
_geom_bond_atom_site_label_1
_geom_bond_atom_site_label_2
_geom_bond_distance
_geom_bond_site_symmetry_2
O0 Sn24 2.091228 1_555
O0 Sn32 2.106739 1_555
O0 Sn26 2.145039 1_555
O1 Sn4 2.089068 1_555
O1 Sn3 2.150435 1_455
O1 Sn15 2.188927 1_555
O2 Sn24 2.083960 1_555
O2 Sn3 2.129517 1_455
O2 Sn22 2.129703 1_455
O3 Sn0 2.061485 1_555
O3 Sn11 2.111969 1_555
O3 Sn18 2.147247 1_555
O4 Sn12 2.121805 1_555
O4 Sn29 2.199208 1_565
O4 Sn16 2.205690 1_555
O5 Sn23 1.985824 1_555
O5 Sn17 1.995225 1_555
O6 Sn17 2.096693 1_555
O6 Sn7 2.193976 1_555
O6 Sn21 2.224691 1_555
O7 Sn7 2.023663 1_555
O7 Sn24 2.174795 1_555
O7 Sn30 2.174798 1_555
O8 Sn25 1.948051 1_555
O8 Sn11 2.019278 1_555
O9 Sn22 2.005029 1_555
O9 Sn21 2.081910 1_555
O10 O15 1.509307 1_555
O10 Sn8 2.200188 1_655
O10 Sn20 2.485966 1_555
O11 Sn7 2.098023 1_555
O11 Sn1 2.199036 1_555
O11 Sn31 2.346264 1_455
O12 Sn2 2.066513 1_555
O12 Sn16 2.103849 1_555
O12 Sn23 2.313313 1_555
O12 Sn32 2.650725 1_565
O13 Sn22 2.105874 1_555
O13 Sn9 2.138206 1_555
O13 Sn25 2.181164 1_555
O14 Sn26 2.038255 1_565
O14 Sn32 2.093806 1_565
O14 Sn16 2.120641 1_555
O15 Sn25 2.075746 1_555
O15 Sn9 2.230851 1_555
O16 Sn4 2.125438 1_655
O16 Sn31 2.138994 1_556
O16 Sn10 2.178525 1_655
O17 Sn29 2.095436 1_555
O17 Sn18 2.103679 1_555
O17 Sn32 2.415439 1_555
O18 Sn10 2.116552 1_555
O18 Sn0 2.152611 1_555
O18 Sn4 2.178705 1_555
O19 Sn10 2.098202 1_555
O19 Sn8 2.169142 1_555
O19 Sn1 2.341044 1_556
O20 Sn8 2.017875 1_655
O20 Sn3 2.072994 1_565
O20 Sn15 2.225248 1_665
O21 Sn23 2.054533 1_555
O21 Sn3 2.069789 1_465
O21 Sn32 2.210146 1_565
O22 Sn33 2.042846 1_565
O22 Sn12 2.084519 1_554
O22 Sn19 2.166716 1_565
O23 Sn21 2.105277 1_555
O23 Sn28 2.107757 1_555
O23 Sn18 2.114400 1_555
O24 Sn27 2.031811 1_556
O24 Sn29 2.035528 1_555
O25 Sn33 2.037094 1_555
O25 Sn19 2.075177 1_555
O25 Sn24 2.167024 1_655
O26 Sn11 1.953004 1_555
O26 Sn27 2.008176 1_556
O27 Sn27 2.004428 1_555
O27 Sn31 2.044938 1_555
O28 Sn5 2.036956 1_555
O28 Sn3 2.190552 1_555
O28 Sn14 2.213581 1_545
O29 O33 1.543161 1_555
O29 Sn28 2.115369 1_555
O29 Sn22 2.175159 1_555
O30 Sn18 2.031383 1_555
O30 Sn0 2.044713 1_555
O31 Sn19 1.988203 1_466
O31 Sn15 2.041837 1_565
O31 Sn8 2.328097 1_555
O32 Sn21 1.968557 1_555
O32 Sn6 2.044709 1_555
O33 Sn22 2.109699 1_555
O33 Sn5 2.655391 1_555
O34 Sn28 2.078355 1_555
O34 Sn18 2.102530 1_555
O34 Sn26 2.130769 1_555
O35 Sn14 1.985216 1_545
O35 Sn28 2.091013 1_555
O35 Sn26 2.220259 1_555
O36 Sn13 2.030825 1_556
O36 Sn12 2.053116 1_555
O36 Sn29 2.239877 1_565
O37 Sn7 2.074006 1_555
O37 Sn10 2.101865 1_554
O37 Sn30 2.279155 1_555
O38 Sn17 1.960341 1_555
O38 Sn16 2.037849 1_555
O39 Sn5 1.984091 1_555
O39 Sn29 2.152053 1_555
O39 Sn12 2.398370 1_545
O40 Sn9 2.020331 1_455
O40 Sn1 2.114562 1_555
O40 Sn23 2.197767 1_555
O41 Sn23 2.032626 1_555
O41 Sn9 2.038710 1_455
O41 Sn8 2.365646 1_555
O42 Sn7 2.068735 1_555
O42 Sn17 2.110418 1_555
O42 Sn1 2.121503 1_555
O43 Sn11 2.026145 1_555
O43 Sn2 2.131075 1_555
O43 Sn16 2.201828 1_555
O44 Sn1 1.981374 1_555
O44 Sn19 2.030753 1_465
O45 Sn30 2.046101 1_555
O45 Sn26 2.127799 1_555
O45 Sn13 2.192323 1_545
O46 Sn13 2.000222 1_555
O46 Sn26 2.024332 1_565
O47 Sn28 2.027888 1_555
O47 Sn33 2.034195 1_555
O47 Sn27 2.510183 1_555
O48 Sn15 2.117148 1_555
O48 Sn13 2.131568 1_546
O48 Sn29 2.152198 1_555
O49 Sn20 2.089482 1_555
O49 Sn12 2.139499 1_555
O49 Sn8 2.215975 1_655
O50 Sn27 2.066572 1_555
O50 Sn21 2.097620 1_555
O50 Sn28 2.152553 1_555
O51 Sn2 1.960508 1_555
O51 Sn13 1.997162 1_556
O52 Sn33 2.054411 1_565
O52 Sn6 2.110952 1_555
O52 Sn14 2.349964 1_555
O53 Sn5 2.049217 1_555
O53 Sn4 2.170843 1_655
O53 Sn19 2.243255 1_556
O54 Sn25 2.023812 1_555
O54 Sn4 2.107362 1_655
O54 Sn5 2.110853 1_555
O55 Sn31 2.008772 1_555
O55 Sn20 2.090430 1_554
O55 Sn6 2.328867 1_555
O56 Sn2 2.035069 1_555
O56 Sn8 2.054595 1_555
O56 Sn15 2.230831 1_565
O57 Sn30 2.036203 1_556
O57 Sn4 2.041152 1_555
O57 Sn15 2.327614 1_555
O58 Sn2 2.069518 1_555
O58 Sn0 2.146178 1_555
O58 Sn10 2.166380 1_555
O59 Sn20 2.043913 1_555
O59 Sn25 2.118264 1_555
O59 Sn11 2.153188 1_555
O60 Sn31 2.049156 1_555
O60 Sn22 2.052365 1_555
O60 Sn24 2.167330 1_655
O61 Sn14 1.924792 1_555
O61 Sn16 2.037436 1_555
O62 Sn1 2.048255 1_655
O62 Sn6 2.134953 1_555
O62 Sn20 2.147357 1_554
O63 Sn9 1.939414 1_555
O63 Sn6 2.040215 1_555
O64 Sn0 2.048505 1_555
O64 Sn23 2.165330 1_555
O64 Sn17 2.248308 1_555
O65 Sn24 2.044559 1_555
O65 Sn19 2.104961 1_455
O65 Sn30 2.144185 1_555
O66 Sn14 2.028371 1_555
O66 Sn3 2.096113 1_565
O66 Sn33 2.212188 1_565
O67 Sn20 2.081331 1_554
O67 Sn12 2.084090 1_554
O67 Sn6 2.234828 1_555
