# generated using pymatgen
data_RbNaMg30O31
_symmetry_space_group_name_H-M   'P 1'
_cell_length_a   8.48097700
_cell_length_b   8.67500800
_cell_length_c   8.68983400
_cell_angle_alpha   90.00000000
_cell_angle_beta   90.00000000
_cell_angle_gamma   90.00000000
_symmetry_Int_Tables_number   1
_chemical_formula_structural   RbNaMg30O31
_chemical_formula_sum   'Rb1 Na1 Mg30 O31'
_cell_volume   639.33318843
_cell_formula_units_Z   1
loop_
 _symmetry_equiv_pos_site_id
 _symmetry_equiv_pos_as_xyz
  1  'x, y, z'
loop_
 _atom_site_type_symbol
 _atom_site_label
 _atom_site_symmetry_multiplicity
 _atom_site_fract_x
 _atom_site_fract_y
 _atom_site_fract_z
 _atom_site_occupancy
  Rb  Rb0  1  0.10088700  0.00000000  0.50000000  1
  Na  Na0  1  0.99277700  0.00000000  0.00000000  1
  Mg  Mg0  1  0.99413200  0.50000000  0.00000000  1
  Mg  Mg1  1  0.99008300  0.50000000  0.50000000  1
  Mg  Mg2  1  0.50114100  0.00000000  0.00000000  1
  Mg  Mg3  1  0.52016900  0.00000000  0.50000000  1
  Mg  Mg4  1  0.50058500  0.50000000  0.00000000  1
  Mg  Mg5  1  0.50458800  0.50000000  0.50000000  1
  Mg  Mg6  1  0.99652900  0.25005100  0.24615700  1
  Mg  Mg7  1  0.99652900  0.25005100  0.75384300  1
  Mg  Mg8  1  0.99652900  0.74994900  0.24615700  1
  Mg  Mg9  1  0.99652900  0.74994900  0.75384300  1
  Mg  Mg10  1  0.49831100  0.24740800  0.25170700  1
  Mg  Mg11  1  0.49831100  0.24740800  0.74829300  1
  Mg  Mg12  1  0.49831100  0.75259200  0.25170700  1
  Mg  Mg13  1  0.49831100  0.75259200  0.74829300  1
  Mg  Mg14  1  0.24457000  0.00000000  0.21793600  1
  Mg  Mg15  1  0.24457000  0.00000000  0.78206400  1
  Mg  Mg16  1  0.24715100  0.50000000  0.24502800  1
  Mg  Mg17  1  0.24715100  0.50000000  0.75497200  1
  Mg  Mg18  1  0.75916900  0.00000000  0.25162900  1
  Mg  Mg19  1  0.75916900  0.00000000  0.74837100  1
  Mg  Mg20  1  0.74777200  0.50000000  0.24913600  1
  Mg  Mg21  1  0.74777200  0.50000000  0.75086400  1
  Mg  Mg22  1  0.24651500  0.25448900  0.00000000  1
  Mg  Mg23  1  0.24873500  0.28052100  0.50000000  1
  Mg  Mg24  1  0.24651500  0.74551100  0.00000000  1
  Mg  Mg25  1  0.24873500  0.71947900  0.50000000  1
  Mg  Mg26  1  0.74885000  0.24727400  0.00000000  1
  Mg  Mg27  1  0.75834400  0.24417600  0.50000000  1
  Mg  Mg28  1  0.74885000  0.75272600  0.00000000  1
  Mg  Mg29  1  0.75834400  0.75582400  0.50000000  1
  O  O0  1  0.26533000  0.00000000  0.00000000  1
  O  O1  1  0.25257500  0.50000000  0.00000000  1
  O  O2  1  0.25687300  0.50000000  0.50000000  1
  O  O3  1  0.73185500  0.00000000  0.00000000  1
  O  O4  1  0.74933300  0.00000000  0.50000000  1
  O  O5  1  0.74398000  0.50000000  0.00000000  1
  O  O6  1  0.74352800  0.50000000  0.50000000  1
  O  O7  1  0.24731000  0.24540900  0.25578300  1
  O  O8  1  0.24731000  0.24540900  0.74421700  1
  O  O9  1  0.24731000  0.75459100  0.25578300  1
  O  O10  1  0.24731000  0.75459100  0.74421700  1
  O  O11  1  0.74693400  0.24902300  0.25122300  1
  O  O12  1  0.74693400  0.24902300  0.74877700  1
  O  O13  1  0.74693400  0.75097700  0.25122300  1
  O  O14  1  0.74693400  0.75097700  0.74877700  1
  O  O15  1  0.00042100  0.00000000  0.24221900  1
  O  O16  1  0.00042100  0.00000000  0.75778100  1
  O  O17  1  0.99920800  0.50000000  0.24877900  1
  O  O18  1  0.99920800  0.50000000  0.75122100  1
  O  O19  1  0.48767900  0.00000000  0.26115100  1
  O  O20  1  0.48767900  0.00000000  0.73884900  1
  O  O21  1  0.49619500  0.50000000  0.25192600  1
  O  O22  1  0.49619500  0.50000000  0.74807400  1
  O  O23  1  0.00007400  0.26590900  0.00000000  1
  O  O24  1  0.00186400  0.27174800  0.50000000  1
  O  O25  1  0.00007400  0.73409100  0.00000000  1
  O  O26  1  0.00186400  0.72825200  0.50000000  1
  O  O27  1  0.49555500  0.25145100  0.00000000  1
  O  O28  1  0.49081000  0.24340600  0.50000000  1
  O  O29  1  0.49555500  0.74854900  0.00000000  1
  O  O30  1  0.49081000  0.75659400  0.50000000  1
loop_
_geom_bond_atom_site_label_1
_geom_bond_atom_site_label_2
_geom_bond_distance
_geom_bond_site_symmetry_2
Na0 O15 2.105841 1_655
Na0 O16 2.105841 1_654
Na0 O3 2.212873 1_555
Na0 O25 2.307593 1_645
Na0 O23 2.307593 1_655
Na0 O0 2.311516 1_655
Mg0 O23 2.031366 1_655
Mg0 O25 2.031366 1_655
Mg0 O5 2.121533 1_555
Mg0 O18 2.162277 1_554
Mg0 O17 2.162277 1_555
Mg0 O1 2.191849 1_655
Mg1 O26 1.982607 1_655
Mg1 O24 1.982607 1_655
Mg1 O6 2.091027 1_555
Mg1 O18 2.184440 1_555
Mg1 O17 2.184440 1_555
Mg1 O2 2.262640 1_655
Mg2 O3 1.956680 1_555
Mg2 O0 1.999908 1_555
Mg2 O27 2.181854 1_555
Mg2 O29 2.181854 1_545
Mg2 O19 2.272229 1_555
Mg2 O20 2.272229 1_554
Mg3 O4 1.943535 1_555
Mg3 O20 2.093769 1_555
Mg3 O19 2.093769 1_555
Mg3 O28 2.126179 1_555
Mg3 O30 2.126179 1_545
Mg4 O5 2.064227 1_555
Mg4 O1 2.103367 1_555
Mg4 O27 2.156587 1_555
Mg4 O29 2.156587 1_555
Mg4 O22 2.189512 1_554
Mg4 O21 2.189512 1_555
Mg5 O6 2.026445 1_555
Mg5 O2 2.100865 1_555
Mg5 O22 2.156897 1_555
Mg5 O21 2.156897 1_555
Mg5 O30 2.229020 1_555
Mg5 O28 2.229020 1_555
Mg6 O11 2.117286 1_555
Mg6 O7 2.128893 1_655
Mg6 O23 2.143693 1_655
Mg6 O17 2.168548 1_555
Mg6 O15 2.169715 1_655
Mg6 O24 2.214332 1_655
Mg7 O12 2.117286 1_555
Mg7 O8 2.128893 1_655
Mg7 O23 2.143693 1_656
Mg7 O18 2.168548 1_555
Mg7 O16 2.169715 1_655
Mg7 O24 2.214332 1_655
Mg8 O13 2.117286 1_555
Mg8 O9 2.128893 1_655
Mg8 O25 2.143693 1_655
Mg8 O17 2.168548 1_555
Mg8 O15 2.169715 1_665
Mg8 O26 2.214332 1_655
Mg9 O14 2.117286 1_555
Mg9 O10 2.128893 1_655
Mg9 O25 2.143693 1_656
Mg9 O18 2.168548 1_555
Mg9 O16 2.169715 1_665
Mg9 O26 2.214332 1_655
Mg10 O11 2.108617 1_555
Mg10 O7 2.129099 1_555
Mg10 O19 2.149727 1_555
Mg10 O28 2.158842 1_555
Mg10 O27 2.187698 1_555
Mg10 O21 2.191312 1_555
Mg11 O12 2.108617 1_555
Mg11 O8 2.129099 1_555
Mg11 O20 2.149727 1_555
Mg11 O28 2.158842 1_555
Mg11 O27 2.187698 1_556
Mg11 O22 2.191312 1_555
Mg12 O13 2.108617 1_555
Mg12 O9 2.129099 1_555
Mg12 O19 2.149727 1_565
Mg12 O30 2.158842 1_555
Mg12 O29 2.187698 1_555
Mg12 O21 2.191312 1_555
Mg13 O14 2.108617 1_555
Mg13 O10 2.129099 1_555
Mg13 O20 2.149727 1_565
Mg13 O30 2.158842 1_555
Mg13 O29 2.187698 1_556
Mg13 O22 2.191312 1_555
Mg14 O0 1.901994 1_555
Mg14 O15 2.081346 1_555
Mg14 O19 2.095722 1_555
Mg14 O7 2.154304 1_555
Mg14 O9 2.154304 1_545
Mg15 O0 1.901994 1_556
Mg15 O16 2.081346 1_555
Mg15 O20 2.095722 1_555
Mg15 O8 2.154304 1_555
Mg15 O10 2.154304 1_545
Mg16 O17 2.103051 1_455
Mg16 O21 2.112987 1_555
Mg16 O1 2.129749 1_555
Mg16 O9 2.210556 1_555
Mg16 O7 2.210556 1_555
Mg16 O2 2.217198 1_555
Mg17 O18 2.103051 1_455
Mg17 O22 2.112987 1_555
Mg17 O1 2.129749 1_556
Mg17 O10 2.210556 1_555
Mg17 O8 2.210556 1_555
Mg17 O2 2.217198 1_555
Mg18 O15 2.047686 1_655
Mg18 O4 2.159914 1_555
Mg18 O11 2.162770 1_555
Mg18 O13 2.162770 1_545
Mg18 O3 2.198850 1_555
Mg18 O19 2.303987 1_555
Mg19 O16 2.047686 1_655
Mg19 O4 2.159914 1_555
Mg19 O12 2.162770 1_555
Mg19 O14 2.162770 1_545
Mg19 O3 2.198850 1_556
Mg19 O20 2.303987 1_555
Mg20 O17 2.132425 1_555
Mg20 O21 2.133756 1_555
Mg20 O5 2.165189 1_555
Mg20 O13 2.177315 1_555
Mg20 O11 2.177315 1_555
Mg20 O6 2.180264 1_555
Mg21 O18 2.132425 1_555
Mg21 O22 2.133756 1_555
Mg21 O5 2.165189 1_556
Mg21 O12 2.177315 1_555
Mg21 O14 2.177315 1_555
Mg21 O6 2.180264 1_555
Mg22 O23 2.092407 1_555
Mg22 O27 2.112267 1_555
Mg22 O1 2.130430 1_555
Mg22 O0 2.213453 1_555
Mg22 O8 2.224117 1_554
Mg22 O7 2.224117 1_555
Mg23 O2 1.905233 1_555
Mg23 O28 2.078126 1_555
Mg23 O24 2.095090 1_555
Mg23 O7 2.143987 1_555
Mg23 O8 2.143987 1_555
Mg24 O25 2.092407 1_555
Mg24 O29 2.112267 1_555
Mg24 O1 2.130430 1_555
Mg24 O0 2.213453 1_565
Mg24 O9 2.224117 1_555
Mg24 O10 2.224117 1_554
Mg25 O2 1.905233 1_555
Mg25 O30 2.078126 1_555
Mg25 O26 2.095090 1_555
Mg25 O9 2.143987 1_555
Mg25 O10 2.143987 1_555
Mg26 O23 2.136749 1_655
Mg26 O27 2.148495 1_555
Mg26 O3 2.149941 1_555
Mg26 O12 2.183199 1_554
Mg26 O11 2.183199 1_555
Mg26 O5 2.192789 1_555
Mg27 O24 2.079092 1_655
Mg27 O4 2.119607 1_555
Mg27 O12 2.164404 1_555
Mg27 O11 2.164404 1_555
Mg27 O6 2.222830 1_555
Mg27 O28 2.268960 1_555
Mg28 O25 2.136749 1_655
Mg28 O29 2.148495 1_555
Mg28 O3 2.149941 1_565
Mg28 O13 2.183199 1_555
Mg28 O14 2.183199 1_554
Mg28 O5 2.192789 1_555
Mg29 O26 2.079092 1_655
Mg29 O4 2.119607 1_565
Mg29 O14 2.164404 1_555
Mg29 O13 2.164404 1_555
Mg29 O6 2.222830 1_555
Mg29 O30 2.268960 1_555
O15 Rb0 2.396648 1_555
O16 Rb0 2.396648 1_555
O24 Rb0 2.502538 1_555
O26 Rb0 2.502538 1_565
