# generated using pymatgen
data_Hf2CS
_symmetry_space_group_name_H-M   'P 1'
_cell_length_a   3.37351513
_cell_length_b   3.37351404
_cell_length_c   11.98698973
_cell_angle_alpha   90.00000000
_cell_angle_beta   90.00000000
_cell_angle_gamma   120.00000058
_symmetry_Int_Tables_number   1
_chemical_formula_structural   Hf2CS
_chemical_formula_sum   'Hf4 C2 S2'
_cell_volume   118.14244300
_cell_formula_units_Z   2
loop_
 _symmetry_equiv_pos_site_id
 _symmetry_equiv_pos_as_xyz
  1  'x, y, z'
loop_
 _atom_site_type_symbol
 _atom_site_label
 _atom_site_symmetry_multiplicity
 _atom_site_fract_x
 _atom_site_fract_y
 _atom_site_fract_z
 _atom_site_occupancy
  Hf  Hf0  1  0.33333300  0.66666700  0.40046007  1
  Hf  Hf1  1  0.66666700  0.33333300  0.90046007  1
  Hf  Hf2  1  0.66666700  0.33333300  0.59953993  1
  Hf  Hf3  1  0.33333300  0.66666700  0.09953993  1
  C  C0  1  -0.00000000  0.00000000  0.50000000  1
  C  C1  1  -0.00000000  0.00000000  -0.00000000  1
  S  S0  1  0.66666700  0.33333300  0.25000000  1
  S  S1  1  0.33333300  0.66666700  0.75000000  1
loop_
_geom_bond_atom_site_label_1
_geom_bond_atom_site_label_2
_geom_bond_distance
_geom_bond_site_symmetry_2
Hf0 S0 2.654499 1_565
Hf0 S0 2.654500 1_455
Hf0 S0 2.654504 1_555
Hf1 S1 2.654499 1_545
Hf1 S1 2.654500 1_655
Hf1 S1 2.654504 1_555
Hf2 S1 2.654499 1_545
Hf2 S1 2.654500 1_655
Hf2 S1 2.654504 1_555
Hf3 S0 2.654499 1_565
Hf3 S0 2.654500 1_455
Hf3 S0 2.654504 1_555
C0 Hf0 2.284122 1_545
C0 Hf2 2.284122 1_455
C0 Hf0 2.284124 1_555
C0 Hf2 2.284124 1_445
C0 Hf0 2.284125 1_445
C0 Hf2 2.284125 1_555
C1 Hf1 2.284122 1_454
C1 Hf3 2.284122 1_545
C1 Hf1 2.284124 1_444
C1 Hf3 2.284124 1_555
C1 Hf1 2.284125 1_554
C1 Hf3 2.284125 1_445
