# generated using pymatgen
data_Al9Cr3Si
_symmetry_space_group_name_H-M   'P 1'
_cell_length_a   7.44497563
_cell_length_b   7.44504702
_cell_length_c   7.79161636
_cell_angle_alpha   89.99999853
_cell_angle_beta   90.00000891
_cell_angle_gamma   119.99987558
_symmetry_Int_Tables_number   1
_chemical_formula_structural   Al9Cr3Si
_chemical_formula_sum   'Al18 Cr6 Si2'
_cell_volume   374.01538130
_cell_formula_units_Z   2
loop_
 _symmetry_equiv_pos_site_id
 _symmetry_equiv_pos_as_xyz
  1  'x, y, z'
loop_
 _atom_site_type_symbol
 _atom_site_label
 _atom_site_symmetry_multiplicity
 _atom_site_fract_x
 _atom_site_fract_y
 _atom_site_fract_z
 _atom_site_occupancy
  Al  Al0  1  0.45707686  0.91415653  0.25000000  1
  Al  Al1  1  0.54292510  0.08584786  0.75000000  1
  Al  Al2  1  0.08584641  0.54293005  0.25000005  1
  Al  Al3  1  0.91415472  0.45707283  0.74999992  1
  Al  Al4  1  0.45708163  0.54293011  0.25000002  1
  Al  Al5  1  0.54292099  0.45707287  0.74999997  1
  Al  Al6  1  0.20153369  0.40306660  0.56191491  1
  Al  Al7  1  0.79846685  0.59693271  0.43809980  1
  Al  Al8  1  0.59694182  0.79847653  0.56191315  1
  Al  Al9  1  0.79846682  0.59693267  0.06190018  1
  Al  Al10  1  0.40304359  0.20151836  0.43808741  1
  Al  Al11  1  0.20153375  0.40306666  0.93808514  1
  Al  Al12  1  0.20153108  0.79847796  0.56191601  1
  Al  Al13  1  0.40304351  0.20151840  0.06191265  1
  Al  Al14  1  0.79847490  0.20151849  0.43808843  1
  Al  Al15  1  0.59694181  0.79847653  0.93808680  1
  Al  Al16  1  0.79847491  0.20151851  0.06191156  1
  Al  Al17  1  0.20153118  0.79847801  0.93808400  1
  Cr  Cr0  1  0.11483480  0.22966714  0.25000019  1
  Cr  Cr1  1  0.88516076  0.77032017  0.74999962  1
  Cr  Cr2  1  0.77033585  0.88516737  0.25000009  1
  Cr  Cr3  1  0.22967272  0.11484142  0.75000000  1
  Cr  Cr4  1  0.11483306  0.88516802  0.24999988  1
  Cr  Cr5  1  0.88516962  0.11484079  0.75000022  1
  Si  Si0  1  0.00000177  0.00000175  -0.00000768  1
  Si  Si1  1  0.00000182  0.00000165  0.50000767  1
loop_
_geom_bond_atom_site_label_1
_geom_bond_atom_site_label_2
_geom_bond_distance
_geom_bond_site_symmetry_2
Al0 Cr4 2.447235 1_555
Al0 Cr2 2.447266 1_555
Al0 Al2 2.763805 1_555
Al0 Al4 2.763816 1_555
Al0 Al10 2.783396 1_565
Al0 Al13 2.783397 1_565
Al0 Al14 2.783406 1_565
Al0 Al16 2.783406 1_565
Al0 Al8 2.937554 1_555
Al0 Al15 2.937554 1_554
Al0 Al17 2.937573 1_554
Al0 Al12 2.937574 1_555
Al1 Cr5 2.447226 1_555
Al1 Cr3 2.447236 1_555
Al1 Al3 2.763797 1_555
Al1 Al5 2.763803 1_555
Al1 Al15 2.783388 1_545
Al1 Al8 2.783388 1_545
Al1 Al17 2.783390 1_545
Al1 Al12 2.783390 1_545
Al1 Al16 2.937561 1_556
Al1 Al14 2.937562 1_555
Al1 Al10 2.937579 1_555
Al1 Al13 2.937580 1_556
Al2 Cr4 2.447223 1_555
Al2 Cr0 2.447313 1_555
Al2 Al4 2.763837 1_555
Al2 Al7 2.783422 1_455
Al2 Al9 2.783423 1_455
Al2 Al6 2.937586 1_555
Al3 Cr5 2.447184 1_555
Al3 Cr1 2.447221 1_555
Al3 Al5 2.763826 1_555
Al3 Al6 2.783372 1_655
Al3 Al7 2.937480 1_555
Al3 Al9 2.937481 1_556
Al4 Cr2 2.447223 1_555
Al4 Cr0 2.447287 1_555
Al4 Al7 2.783439 1_555
Al4 Al9 2.783440 1_555
Al4 Al8 2.937564 1_555
Al4 Al6 2.937574 1_555
Al5 Cr3 2.447179 1_555
Al5 Cr1 2.447207 1_555
Al5 Al6 2.783383 1_555
Al5 Al8 2.783481 1_555
Al5 Al9 2.937470 1_556
Al5 Al7 2.937471 1_555
Al6 Si1 2.643190 1_555
Al6 Cr0 2.675146 1_555
Al6 Cr5 2.691790 1_455
Al6 Cr3 2.691794 1_555
Al6 Al8 2.943830 1_555
Al7 Si1 2.643216 1_665
Al7 Cr1 2.675008 1_555
Al7 Cr4 2.691885 1_655
Al7 Cr2 2.691886 1_555
Al7 Al8 2.772090 1_555
Al7 Al9 2.931203 1_555
Al8 Si1 2.643132 1_665
Al8 Cr2 2.675115 1_555
Al8 Cr1 2.691806 1_555
Al8 Cr5 2.691807 1_565
Al9 Si0 2.643217 1_665
Al9 Cr1 2.675013 1_554
Al9 Cr4 2.691884 1_655
Al9 Cr2 2.691887 1_555
Al10 Si1 2.643037 1_555
Al10 Cr3 2.675049 1_555
Al10 Cr4 2.691713 1_545
Al10 Cr0 2.691719 1_555
Al10 Al12 2.771976 1_545
Al10 Al6 2.772064 1_555
Al10 Al4 2.783494 1_555
Al10 Al13 2.931009 1_555
Al10 Al5 2.937593 1_555
Al10 Al7 2.943903 1_555
Al10 Al14 2.943976 1_555
Al11 Si0 2.643190 1_556
Al11 Cr0 2.675148 1_556
Al11 Cr5 2.691789 1_455
Al11 Cr3 2.691794 1_555
Al11 Al16 2.772058 1_456
Al11 Al13 2.772063 1_556
Al11 Al3 2.783373 1_455
Al11 Al5 2.783384 1_555
Al11 Al6 2.930974 1_555
Al11 Al4 2.937573 1_556
Al11 Al2 2.937586 1_556
Al11 Al15 2.943830 1_555
Al11 Al17 2.943866 1_555
Al12 Si1 2.643099 1_565
Al12 Cr4 2.675122 1_555
Al12 Cr1 2.691758 1_455
Al12 Cr3 2.691780 1_565
Al12 Al7 2.772063 1_455
Al12 Al3 2.783455 1_455
Al12 Al17 2.930957 1_555
Al12 Al2 2.937589 1_555
Al12 Al8 2.943829 1_555
Al12 Al6 2.943866 1_555
Al13 Si0 2.643037 1_555
Al13 Cr3 2.675049 1_554
Al13 Cr4 2.691712 1_545
Al13 Cr0 2.691720 1_555
Al13 Al17 2.771976 1_544
Al13 Al4 2.783493 1_555
Al13 Al5 2.937594 1_554
Al13 Al9 2.943903 1_555
Al13 Al16 2.943977 1_555
Al14 Si1 2.643056 1_655
Al14 Cr5 2.675049 1_555
Al14 Cr2 2.691728 1_545
Al14 Cr0 2.691737 1_655
Al14 Al8 2.771975 1_545
Al14 Al6 2.772058 1_655
Al14 Al2 2.783488 1_655
Al14 Al16 2.931026 1_555
Al14 Al3 2.937585 1_555
Al14 Al7 2.943907 1_555
Al15 Si0 2.643132 1_666
Al15 Cr2 2.675116 1_556
Al15 Cr5 2.691805 1_565
Al15 Cr1 2.691809 1_555
Al15 Al16 2.771975 1_566
Al15 Al9 2.772090 1_556
Al15 Al5 2.783481 1_555
Al15 Al8 2.931001 1_555
Al15 Al4 2.937565 1_556
Al15 Al17 2.943828 1_555
Al16 Si0 2.643055 1_655
Al16 Cr5 2.675046 1_554
Al16 Cr2 2.691729 1_545
Al16 Cr0 2.691739 1_655
Al16 Al2 2.783488 1_655
Al16 Al3 2.937586 1_554
Al16 Al9 2.943907 1_555
Al17 Si0 2.643100 1_566
Al17 Cr4 2.675120 1_556
Al17 Cr1 2.691762 1_455
Al17 Cr3 2.691780 1_565
Al17 Al9 2.772064 1_456
Al17 Al3 2.783456 1_455
Al17 Al2 2.937590 1_556
Cr0 Si1 2.446897 1_555
Cr0 Si0 2.446899 1_555
Cr0 Cr4 2.564806 1_545
Cr0 Cr2 2.564806 1_445
Cr1 Si1 2.446863 1_665
Cr1 Si0 2.446868 1_666
Cr1 Cr3 2.564935 1_665
Cr1 Cr5 2.564939 1_565
Cr2 Si1 2.446891 1_665
Cr2 Si0 2.446892 1_665
Cr2 Cr4 2.564771 1_655
Cr3 Si1 2.446815 1_555
Cr3 Si0 2.446816 1_556
Cr3 Cr5 2.564815 1_455
Cr4 Si0 2.446890 1_565
Cr4 Si1 2.446891 1_565
Cr5 Si0 2.446818 1_656
Cr5 Si1 2.446821 1_655
