# generated using pymatgen
data_InGa(AgSe2)2
_symmetry_space_group_name_H-M   'P 1'
_cell_length_a   7.26583196
_cell_length_b   7.26583196
_cell_length_c   7.26583196
_cell_angle_alpha   130.10884566
_cell_angle_beta   130.10884566
_cell_angle_gamma   73.23281702
_symmetry_Int_Tables_number   1
_chemical_formula_structural   InGa(AgSe2)2
_chemical_formula_sum   'In1 Ga1 Ag2 Se4'
_cell_volume   219.06121284
_cell_formula_units_Z   1
loop_
 _symmetry_equiv_pos_site_id
 _symmetry_equiv_pos_as_xyz
  1  'x, y, z'
loop_
 _atom_site_type_symbol
 _atom_site_label
 _atom_site_symmetry_multiplicity
 _atom_site_fract_x
 _atom_site_fract_y
 _atom_site_fract_z
 _atom_site_occupancy
  In  In0  1  0.50000000  0.50000000  0.00000000  1
  Ga  Ga0  1  0.75000000  0.25000000  0.50000000  1
  Ag  Ag0  1  0.25000000  0.75000000  0.50000000  1
  Ag  Ag1  1  0.00000000  0.00000000  0.00000000  1
  Se  Se0  1  0.10463200  0.13538000  0.50270900  1
  Se  Se1  1  0.63267100  0.60192300  0.49729100  1
  Se  Se2  1  0.39807700  0.89536800  0.03074800  1
  Se  Se3  1  0.86462000  0.36732900  0.96925200  1
loop_
_geom_bond_atom_site_label_1
_geom_bond_atom_site_label_2
_geom_bond_distance
_geom_bond_site_symmetry_2
In0 Se2 2.647533 1_555
In0 Se1 2.647533 1_555
In0 Se3 2.647533 1_554
In0 Se0 2.647533 1_554
Ga0 Se0 2.459875 1_655
Ga0 Se1 2.459875 1_555
Ga0 Se3 2.459875 1_555
Ga0 Se2 2.459875 1_545
Ag0 Se1 2.684392 1_555
Ag0 Se2 2.684392 1_556
Ag0 Se0 2.684392 1_565
Ag0 Se3 2.684392 1_454
Ag1 Se3 2.666681 1_454
Ag1 Se2 2.666681 1_545
Ag1 Se1 2.666681 1_444
Ag1 Se0 2.666681 1_555
