# generated using pymatgen
data_CaMg2
_symmetry_space_group_name_H-M   'P 1'
_cell_length_a   6.09817096
_cell_length_b   6.09817096
_cell_length_c   5.42343100
_cell_angle_alpha   90.00000000
_cell_angle_beta   90.00000000
_cell_angle_gamma   123.29721237
_symmetry_Int_Tables_number   1
_chemical_formula_structural   CaMg2
_chemical_formula_sum   'Ca2 Mg4'
_cell_volume   168.57508236
_cell_formula_units_Z   2
loop_
 _symmetry_equiv_pos_site_id
 _symmetry_equiv_pos_as_xyz
  1  'x, y, z'
loop_
 _atom_site_type_symbol
 _atom_site_label
 _atom_site_symmetry_multiplicity
 _atom_site_fract_x
 _atom_site_fract_y
 _atom_site_fract_z
 _atom_site_occupancy
  Ca  Ca0  1  0.70372600  0.70372600  0.75000000  1
  Ca  Ca1  1  0.29627400  0.29627400  0.25000000  1
  Mg  Mg0  1  0.98115100  0.35017400  0.75000000  1
  Mg  Mg1  1  0.35017400  0.98115100  0.75000000  1
  Mg  Mg2  1  0.64982600  0.01884900  0.25000000  1
  Mg  Mg3  1  0.01884900  0.64982600  0.25000000  1
loop_
_geom_bond_atom_site_label_1
_geom_bond_atom_site_label_2
_geom_bond_distance
_geom_bond_site_symmetry_2
Ca0 Mg1 3.328673 1_655
Ca0 Mg0 3.328673 1_565
Ca0 Mg1 3.393437 1_555
Ca0 Mg0 3.393437 1_555
Ca0 Mg2 3.442061 1_565
Ca0 Mg2 3.442061 1_566
Ca0 Mg3 3.442061 1_655
Ca0 Mg3 3.442061 1_656
Ca0 Ca1 3.594772 1_556
Ca0 Ca1 3.594772 1_555
Ca0 Mg1 3.692386 1_545
Ca0 Mg0 3.692386 1_455
Ca1 Mg3 3.328673 1_545
Ca1 Mg2 3.328673 1_455
Ca1 Mg2 3.393437 1_555
Ca1 Mg3 3.393437 1_555
Ca1 Mg0 3.442061 1_455
Ca1 Mg0 3.442061 1_454
Ca1 Mg1 3.442061 1_545
Ca1 Mg1 3.442061 1_544
Ca1 Mg2 3.692386 1_565
Ca1 Mg3 3.692386 1_655
Mg0 Mg3 3.206890 1_655
Mg0 Mg3 3.206890 1_656
Mg0 Mg1 3.219086 1_545
Mg0 Mg1 3.219086 1_655
Mg0 Mg2 3.322018 1_555
Mg0 Mg2 3.322018 1_556
Mg1 Mg2 3.206890 1_565
Mg1 Mg2 3.206890 1_566
Mg1 Mg3 3.322018 1_556
Mg1 Mg3 3.322018 1_555
Mg2 Mg3 3.219086 1_545
Mg2 Mg3 3.219086 1_655
