# generated using pymatgen
data_MnFeBiO5
_symmetry_space_group_name_H-M   'P 1'
_cell_length_a   5.86376900
_cell_length_b   7.62945800
_cell_length_c   8.73766700
_cell_angle_alpha   90.00000000
_cell_angle_beta   90.00000000
_cell_angle_gamma   90.00000000
_symmetry_Int_Tables_number   1
_chemical_formula_structural   MnFeBiO5
_chemical_formula_sum   'Mn4 Fe4 Bi4 O20'
_cell_volume   390.90032284
_cell_formula_units_Z   4
loop_
 _symmetry_equiv_pos_site_id
 _symmetry_equiv_pos_as_xyz
  1  'x, y, z'
loop_
 _atom_site_type_symbol
 _atom_site_label
 _atom_site_symmetry_multiplicity
 _atom_site_fract_x
 _atom_site_fract_y
 _atom_site_fract_z
 _atom_site_occupancy
  Mn  Mn0  1  0.25278900  0.50000000  0.00000000  1
  Mn  Mn1  1  0.74721100  0.00000000  0.50000000  1
  Mn  Mn2  1  0.74721100  0.50000000  0.00000000  1
  Mn  Mn3  1  0.25278900  0.00000000  0.50000000  1
  Fe  Fe0  1  0.50000000  0.88599900  0.14700000  1
  Fe  Fe1  1  0.50000000  0.11400100  0.85300000  1
  Fe  Fe2  1  0.50000000  0.38599900  0.35300000  1
  Fe  Fe3  1  0.50000000  0.61400100  0.64700000  1
  Bi  Bi0  1  0.00000000  0.64668600  0.33778600  1
  Bi  Bi1  1  0.00000000  0.35331400  0.66221400  1
  Bi  Bi2  1  0.00000000  0.14668600  0.16221400  1
  Bi  Bi3  1  0.00000000  0.85331400  0.83778600  1
  O  O0  1  0.00000000  0.65469400  0.05718800  1
  O  O1  1  0.00000000  0.34530600  0.94281200  1
  O  O2  1  0.00000000  0.15469400  0.44281200  1
  O  O3  1  0.00000000  0.84530600  0.55718800  1
  O  O4  1  0.28102700  0.50000000  0.50000000  1
  O  O5  1  0.71897300  0.00000000  0.00000000  1
  O  O6  1  0.71897300  0.50000000  0.50000000  1
  O  O7  1  0.28102700  0.00000000  0.00000000  1
  O  O8  1  0.50000000  0.64463000  0.07691300  1
  O  O9  1  0.50000000  0.35537000  0.92308700  1
  O  O10  1  0.50000000  0.14463000  0.42308700  1
  O  O11  1  0.50000000  0.85537000  0.57691300  1
  O  O12  1  0.25203500  0.88495400  0.30139100  1
  O  O13  1  0.25203500  0.11504600  0.69860900  1
  O  O14  1  0.74796500  0.38495400  0.19860900  1
  O  O15  1  0.74796500  0.61504600  0.80139100  1
  O  O16  1  0.74796500  0.11504600  0.69860900  1
  O  O17  1  0.74796500  0.88495400  0.30139100  1
  O  O18  1  0.25203500  0.61504600  0.80139100  1
  O  O19  1  0.25203500  0.38495400  0.19860900  1
loop_
_geom_bond_atom_site_label_1
_geom_bond_atom_site_label_2
_geom_bond_distance
_geom_bond_site_symmetry_2
Mn0 O9 1.941788 1_554
Mn0 O8 1.941788 1_555
Mn0 O19 1.944733 1_555
Mn0 O18 1.944733 1_554
Mn0 O0 1.959551 1_555
Mn0 O1 1.959551 1_554
Mn1 O11 1.941788 1_545
Mn1 O10 1.941788 1_555
Mn1 O16 1.944733 1_555
Mn1 O17 1.944733 1_545
Mn1 O3 1.959551 1_645
Mn1 O2 1.959551 1_655
Mn2 O9 1.941788 1_554
Mn2 O8 1.941788 1_555
Mn2 O14 1.944733 1_555
Mn2 O15 1.944733 1_554
Mn2 O0 1.959551 1_655
Mn2 O1 1.959551 1_654
Mn3 O11 1.941788 1_545
Mn3 O10 1.941788 1_555
Mn3 O13 1.944733 1_555
Mn3 O12 1.944733 1_545
Mn3 O3 1.959551 1_545
Mn3 O2 1.959551 1_555
Fe0 O8 1.940672 1_555
Fe0 O12 1.983445 1_555
Fe0 O17 1.983445 1_555
Fe0 O5 2.013689 1_565
Fe0 O7 2.013689 1_565
Fe1 O9 1.940672 1_555
Fe1 O16 1.983445 1_555
Fe1 O13 1.983445 1_555
Fe1 O5 2.013689 1_556
Fe1 O7 2.013689 1_556
Fe2 O10 1.940672 1_555
Fe2 O19 1.983445 1_555
Fe2 O14 1.983445 1_555
Fe2 O6 2.013689 1_555
Fe2 O4 2.013689 1_555
Fe3 O11 1.940672 1_555
Fe3 O15 1.983445 1_555
Fe3 O18 1.983445 1_555
Fe3 O6 2.013689 1_555
Fe3 O4 2.013689 1_555
Bi0 O12 2.364285 1_555
Bi0 O17 2.364285 1_455
Bi0 O3 2.443655 1_555
Bi0 O4 2.444771 1_555
Bi0 O6 2.444771 1_455
Bi0 O0 2.452533 1_555
Bi0 O19 2.765949 1_555
Bi0 O14 2.765949 1_455
Bi1 O16 2.364285 1_455
Bi1 O13 2.364285 1_555
Bi1 O2 2.443655 1_555
Bi1 O4 2.444771 1_555
Bi1 O6 2.444771 1_455
Bi1 O1 2.452533 1_555
Bi1 O15 2.765949 1_455
Bi1 O18 2.765949 1_555
Bi2 O19 2.364285 1_555
Bi2 O14 2.364285 1_455
Bi2 O1 2.443655 1_554
Bi2 O7 2.444771 1_555
Bi2 O5 2.444771 1_455
Bi2 O2 2.452533 1_555
Bi2 O17 2.765949 1_445
Bi2 O12 2.765949 1_545
Bi3 O18 2.364285 1_555
Bi3 O15 2.364285 1_455
Bi3 O0 2.443655 1_556
Bi3 O7 2.444771 1_566
Bi3 O5 2.444771 1_466
Bi3 O3 2.452533 1_555
Bi3 O13 2.765949 1_565
Bi3 O16 2.765949 1_465
