# generated using pymatgen
data_VCuO3
_symmetry_space_group_name_H-M   'P 1'
_cell_length_a   6.34757303
_cell_length_b   6.34757303
_cell_length_c   6.34757303
_cell_angle_alpha   109.47122063
_cell_angle_beta   109.47122063
_cell_angle_gamma   109.47122063
_symmetry_Int_Tables_number   1
_chemical_formula_structural   VCuO3
_chemical_formula_sum   'V4 Cu4 O12'
_cell_volume   196.87983139
_cell_formula_units_Z   4
loop_
 _symmetry_equiv_pos_site_id
 _symmetry_equiv_pos_as_xyz
  1  'x, y, z'
loop_
 _atom_site_type_symbol
 _atom_site_label
 _atom_site_symmetry_multiplicity
 _atom_site_fract_x
 _atom_site_fract_y
 _atom_site_fract_z
 _atom_site_occupancy
  V  V0  1  0.00000000  0.00000000  0.50000000  1
  V  V1  1  0.50000000  0.00000000  0.00000000  1
  V  V2  1  0.00000000  0.50000000  0.00000000  1
  V  V3  1  0.50000000  0.50000000  0.50000000  1
  Cu  Cu0  1  0.00000000  0.00000000  0.00000000  1
  Cu  Cu1  1  0.50000000  0.00000000  0.50000000  1
  Cu  Cu2  1  0.00000000  0.50000000  0.50000000  1
  Cu  Cu3  1  0.50000000  0.50000000  0.00000000  1
  O  O0  1  0.30311400  0.12212400  0.81900900  1
  O  O1  1  0.69688600  0.87787600  0.18099100  1
  O  O2  1  0.69688600  0.51589500  0.81900900  1
  O  O3  1  0.30311400  0.48410500  0.18099100  1
  O  O4  1  0.12212400  0.81900900  0.30311400  1
  O  O5  1  0.87787600  0.18099100  0.69688600  1
  O  O6  1  0.51589500  0.81900900  0.69688600  1
  O  O7  1  0.48410500  0.18099100  0.30311400  1
  O  O8  1  0.81900900  0.30311400  0.12212400  1
  O  O9  1  0.18099100  0.69688600  0.87787600  1
  O  O10  1  0.81900900  0.69688600  0.51589500  1
  O  O11  1  0.18099100  0.30311400  0.48410500  1
loop_
_geom_bond_atom_site_label_1
_geom_bond_atom_site_label_2
_geom_bond_distance
_geom_bond_site_symmetry_2
Cu0 O3 2.587608 1_555
Cu0 O2 2.587608 1_444
Cu0 O6 2.587608 1_444
Cu0 O10 2.587608 1_444
Cu0 O11 2.587608 1_555
Cu0 O7 2.587608 1_555
Cu0 O4 2.587610 1_545
Cu0 O8 2.587610 1_455
Cu0 O1 2.587610 1_445
Cu0 O5 2.587610 1_454
Cu0 O0 2.587610 1_554
Cu0 O9 2.587610 1_544
Cu1 O5 1.960177 1_555
Cu1 O4 1.960177 1_545
Cu1 O7 1.960182 1_555
Cu1 O6 1.960182 1_545
Cu2 O8 1.960177 1_455
Cu2 O9 1.960177 1_555
Cu2 O11 1.960182 1_555
Cu2 O10 1.960182 1_455
Cu3 O0 1.960177 1_554
Cu3 O1 1.960177 1_555
Cu3 O3 1.960182 1_555
Cu3 O2 1.960182 1_554
O0 V0 1.940368 1_555
O0 V1 1.940375 1_556
O1 V0 1.940368 1_665
O1 V1 1.940375 1_565
O2 V2 1.940370 1_656
O2 V3 1.940370 1_555
O3 V2 1.940370 1_555
O3 V3 1.940370 1_555
O4 V2 1.940368 1_555
O4 V0 1.940375 1_565
O5 V2 1.940368 1_656
O5 V0 1.940375 1_655
O6 V1 1.940370 1_566
O6 V3 1.940370 1_555
O7 V1 1.940370 1_555
O7 V3 1.940370 1_555
O8 V1 1.940368 1_555
O8 V2 1.940375 1_655
O9 V1 1.940368 1_566
O9 V2 1.940375 1_556
O10 V0 1.940370 1_665
O10 V3 1.940370 1_555
O11 V3 1.940370 1_555
O11 V0 1.940370 1_555
