# generated using pymatgen
data_HgN4(ClO3)2
_symmetry_space_group_name_H-M   'P 1'
_cell_length_a   5.77178200
_cell_length_b   11.63835500
_cell_length_c   16.48387400
_cell_angle_alpha   90.00000000
_cell_angle_beta   90.00000000
_cell_angle_gamma   90.00000000
_symmetry_Int_Tables_number   1
_chemical_formula_structural   HgN4(ClO3)2
_chemical_formula_sum   'Hg4 N16 Cl8 O24'
_cell_volume   1107.28854163
_cell_formula_units_Z   4
loop_
 _symmetry_equiv_pos_site_id
 _symmetry_equiv_pos_as_xyz
  1  'x, y, z'
loop_
 _atom_site_type_symbol
 _atom_site_label
 _atom_site_symmetry_multiplicity
 _atom_site_fract_x
 _atom_site_fract_y
 _atom_site_fract_z
 _atom_site_occupancy
  Hg  Hg0  1  0.75000000  0.24418300  0.66957300  1
  Hg  Hg1  1  0.75000000  0.25581700  0.16957300  1
  Hg  Hg2  1  0.25000000  0.75581700  0.33042700  1
  Hg  Hg3  1  0.25000000  0.74418300  0.83042700  1
  N  N0  1  0.25000000  0.95363400  0.60521100  1
  N  N1  1  0.25000000  0.54636600  0.10521100  1
  N  N2  1  0.75000000  0.04636600  0.39478900  1
  N  N3  1  0.75000000  0.45363400  0.89478900  1
  N  N4  1  0.75000000  0.08958000  0.92060700  1
  N  N5  1  0.75000000  0.41042000  0.42060700  1
  N  N6  1  0.25000000  0.91042000  0.07939300  1
  N  N7  1  0.25000000  0.58958000  0.57939300  1
  N  N8  1  0.25000000  0.25374800  0.78012300  1
  N  N9  1  0.25000000  0.24625200  0.28012300  1
  N  N10  1  0.75000000  0.74625200  0.21987700  1
  N  N11  1  0.75000000  0.75374800  0.71987700  1
  N  N12  1  0.25000000  0.23821000  0.51218000  1
  N  N13  1  0.25000000  0.26179000  0.01218000  1
  N  N14  1  0.75000000  0.76179000  0.48782000  1
  N  N15  1  0.75000000  0.73821000  0.98782000  1
  Cl  Cl0  1  0.75000000  0.43970200  0.64601000  1
  Cl  Cl1  1  0.75000000  0.06029800  0.14601000  1
  Cl  Cl2  1  0.25000000  0.56029800  0.35399000  1
  Cl  Cl3  1  0.25000000  0.93970200  0.85399000  1
  Cl  Cl4  1  0.75000000  0.04783300  0.69236700  1
  Cl  Cl5  1  0.75000000  0.45216700  0.19236700  1
  Cl  Cl6  1  0.25000000  0.95216700  0.30763300  1
  Cl  Cl7  1  0.25000000  0.54783300  0.80763300  1
  O  O0  1  0.25000000  0.24132600  0.70401400  1
  O  O1  1  0.25000000  0.25867400  0.20401400  1
  O  O2  1  0.75000000  0.75867400  0.29598600  1
  O  O3  1  0.75000000  0.74132600  0.79598600  1
  O  O4  1  0.06146300  0.26001300  0.81750800  1
  O  O5  1  0.43853700  0.23998700  0.31750800  1
  O  O6  1  0.56146300  0.73998700  0.18249200  1
  O  O7  1  0.93853700  0.76001300  0.68249200  1
  O  O8  1  0.93853700  0.73998700  0.18249200  1
  O  O9  1  0.56146300  0.76001300  0.68249200  1
  O  O10  1  0.43853700  0.26001300  0.81750800  1
  O  O11  1  0.06146300  0.23998700  0.31750800  1
  O  O12  1  0.06082800  0.18592000  0.51835100  1
  O  O13  1  0.43917200  0.31408000  0.01835100  1
  O  O14  1  0.56082800  0.81408000  0.48164900  1
  O  O15  1  0.93917200  0.68592000  0.98164900  1
  O  O16  1  0.93917200  0.81408000  0.48164900  1
  O  O17  1  0.56082800  0.68592000  0.98164900  1
  O  O18  1  0.43917200  0.18592000  0.51835100  1
  O  O19  1  0.06082800  0.31408000  0.01835100  1
  O  O20  1  0.25000000  0.34488000  0.49982400  1
  O  O21  1  0.25000000  0.15512000  0.99982400  1
  O  O22  1  0.75000000  0.65512000  0.50017600  1
  O  O23  1  0.75000000  0.84488000  0.00017600  1
loop_
_geom_bond_atom_site_label_1
_geom_bond_atom_site_label_2
_geom_bond_distance
_geom_bond_site_symmetry_2
N8 O10 1.252696 1_555
N8 O4 1.252696 1_555
N8 O0 1.262874 1_555
N9 O11 1.252696 1_555
N9 O5 1.252696 1_555
N9 O1 1.262874 1_555
N10 O6 1.252696 1_555
N10 O8 1.252696 1_555
N10 O2 1.262874 1_555
N11 O7 1.252696 1_555
N11 O9 1.252696 1_555
N11 O3 1.262874 1_555
N12 O12 1.254138 1_555
N12 O18 1.254138 1_555
N12 O20 1.258060 1_555
N13 O13 1.254138 1_555
N13 O19 1.254138 1_555
N13 O21 1.258060 1_554
N14 O16 1.254138 1_555
N14 O14 1.254138 1_555
N14 O22 1.258060 1_555
N15 O15 1.254138 1_555
N15 O17 1.254138 1_555
N15 O23 1.258060 1_556
Cl0 Hg0 2.308430 1_555
Cl1 Hg1 2.308430 1_555
Cl2 Hg2 2.308430 1_555
Cl3 Hg3 2.308430 1_555
Cl4 Hg0 2.315874 1_555
Cl5 Hg1 2.315874 1_555
Cl6 Hg2 2.315874 1_555
Cl7 Hg3 2.315874 1_555
