# generated using pymatgen
data_Be46Ru7
_symmetry_space_group_name_H-M   'P 1'
_cell_length_a   4.18019966
_cell_length_b   4.18019966
_cell_length_c   32.84404200
_cell_angle_alpha   90.00000000
_cell_angle_beta   90.00000000
_cell_angle_gamma   119.99999461
_symmetry_Int_Tables_number   1
_chemical_formula_structural   Be46Ru7
_chemical_formula_sum   'Be46 Ru7'
_cell_volume   497.02851487
_cell_formula_units_Z   1
loop_
 _symmetry_equiv_pos_site_id
 _symmetry_equiv_pos_as_xyz
  1  'x, y, z'
loop_
 _atom_site_type_symbol
 _atom_site_label
 _atom_site_symmetry_multiplicity
 _atom_site_fract_x
 _atom_site_fract_y
 _atom_site_fract_z
 _atom_site_occupancy
  Be  Be0  1  0.33333300  0.66666700  0.87567400  1
  Be  Be1  1  0.33333300  0.66666700  0.54131500  1
  Be  Be2  1  0.33333300  0.66666700  0.20725500  1
  Be  Be3  1  0.33333300  0.66666700  0.79100100  1
  Be  Be4  1  0.33333300  0.66666700  0.45929200  1
  Be  Be5  1  0.33333300  0.66666700  0.12531100  1
  Be  Be6  1  0.00000000  0.00000000  0.88555200  1
  Be  Be7  1  0.00000000  0.00000000  0.55215200  1
  Be  Be8  1  0.00000000  0.00000000  0.21886300  1
  Be  Be9  1  0.00000000  0.00000000  0.78133000  1
  Be  Be10  1  0.00000000  0.00000000  0.44788800  1
  Be  Be11  1  0.00000000  0.00000000  0.11425500  1
  Be  Be12  1  0.16991600  0.83008400  0.93824400  1
  Be  Be13  1  0.16668700  0.83331300  0.60561000  1
  Be  Be14  1  0.17083600  0.82916400  0.27009400  1
  Be  Be15  1  0.16991600  0.33983200  0.93824400  1
  Be  Be16  1  0.16668700  0.33337500  0.60561000  1
  Be  Be17  1  0.17083600  0.34167300  0.27009400  1
  Be  Be18  1  0.66016800  0.83008400  0.93824400  1
  Be  Be19  1  0.66662500  0.83331300  0.60561000  1
  Be  Be20  1  0.65832700  0.82916400  0.27009400  1
  Be  Be21  1  0.16686000  0.83314000  0.72754700  1
  Be  Be22  1  0.17099800  0.82900200  0.39665600  1
  Be  Be23  1  0.16969000  0.83031000  0.06181900  1
  Be  Be24  1  0.16686000  0.33372000  0.72754700  1
  Be  Be25  1  0.17099800  0.34199600  0.39665600  1
  Be  Be26  1  0.16969000  0.33937900  0.06181900  1
  Be  Be27  1  0.66628000  0.83314000  0.72754700  1
  Be  Be28  1  0.65800400  0.82900200  0.39665600  1
  Be  Be29  1  0.66062100  0.83031000  0.06181900  1
  Be  Be30  1  0.66666700  0.33333300  0.96751500  1
  Be  Be31  1  0.66666700  0.33333300  0.63443100  1
  Be  Be32  1  0.66666700  0.33333300  0.30237200  1
  Be  Be33  1  0.66666700  0.33333300  0.69925900  1
  Be  Be34  1  0.66666700  0.33333300  0.36403300  1
  Be  Be35  1  0.66666700  0.33333300  0.03238600  1
  Be  Be36  1  0.82951700  0.17048300  0.83380600  1
  Be  Be37  1  0.82978100  0.17021900  0.49980800  1
  Be  Be38  1  0.82981300  0.17018700  0.16644500  1
  Be  Be39  1  0.82951700  0.65903300  0.83380600  1
  Be  Be40  1  0.82978100  0.65956100  0.49980800  1
  Be  Be41  1  0.82981300  0.65962700  0.16644500  1
  Be  Be42  1  0.34096700  0.17048300  0.83380600  1
  Be  Be43  1  0.34043900  0.17021900  0.49980800  1
  Be  Be44  1  0.34037300  0.17018700  0.16644500  1
  Be  Be45  1  0.00000000  0.00000000  0.66671900  1
  Ru  Ru0  1  0.66666700  0.33333300  0.89909000  1
  Ru  Ru1  1  0.66666700  0.33333300  0.56455400  1
  Ru  Ru2  1  0.66666700  0.33333300  0.23114600  1
  Ru  Ru3  1  0.66666700  0.33333300  0.76952900  1
  Ru  Ru4  1  0.66666700  0.33333300  0.43489300  1
  Ru  Ru5  1  0.66666700  0.33333300  0.10088300  1
  Ru  Ru6  1  0.33333300  0.66666700  0.33321500  1
loop_
_geom_bond_atom_site_label_1
_geom_bond_atom_site_label_2
_geom_bond_distance
_geom_bond_site_symmetry_2
Be0 Be12 2.371324 1_555
Be0 Be18 2.371326 1_555
Be0 Be15 2.371326 1_555
Be0 Be6 2.435146 1_565
Be0 Be6 2.435150 1_665
Be0 Be6 2.435150 1_555
Be0 Be42 2.502040 1_565
Be0 Be39 2.502040 1_455
Be0 Be36 2.502043 1_565
Be0 Be36 2.502043 1_455
Be0 Be39 2.502047 1_555
Be0 Be42 2.502047 1_555
Be0 Ru0 2.533013 1_455
Be0 Ru0 2.533013 1_565
Be0 Ru0 2.533020 1_555
Be1 Be13 2.432102 1_555
Be1 Be19 2.432102 1_555
Be1 Be16 2.432102 1_555
Be1 Be7 2.439542 1_565
Be1 Be7 2.439546 1_555
Be1 Be7 2.439546 1_665
Be1 Be43 2.495523 1_565
Be1 Be40 2.495523 1_455
Be1 Be37 2.495526 1_565
Be1 Be37 2.495526 1_455
Be1 Be43 2.495530 1_555
Be1 Be40 2.495530 1_555
Be1 Ru1 2.531254 1_455
Be1 Ru1 2.531254 1_565
Be1 Ru1 2.531261 1_555
Be2 Be20 2.375679 1_555
Be2 Be8 2.443365 1_565
Be2 Be8 2.443369 1_665
Be2 Be8 2.443369 1_555
Be2 Be44 2.483092 1_555
Be2 Be41 2.483092 1_555
Be2 Be44 2.483092 1_565
Be2 Be41 2.483092 1_455
Be2 Be38 2.483092 1_455
Be2 Be38 2.483092 1_565
Be2 Ru2 2.537794 1_455
Be2 Ru2 2.537794 1_565
Be2 Ru2 2.537800 1_555
Be3 Be9 2.434249 1_565
Be3 Be9 2.434253 1_665
Be3 Be9 2.434253 1_555
Be3 Ru3 2.514364 1_455
Be3 Ru3 2.514364 1_565
Be3 Ru3 2.514370 1_555
Be3 Be42 2.519085 1_565
Be3 Be39 2.519085 1_455
Be3 Be36 2.519088 1_565
Be3 Be36 2.519088 1_455
Be3 Be39 2.519092 1_555
Be3 Be42 2.519092 1_555
Be4 Be43 2.477892 1_565
Be4 Be40 2.477892 1_455
Be4 Be40 2.477899 1_555
Be4 Be43 2.477899 1_555
Be4 Ru4 2.543002 1_455
Be4 Ru4 2.543002 1_565
Be4 Ru4 2.543009 1_555
Be5 Ru5 2.543302 1_455
Be5 Ru5 2.543302 1_565
Be5 Ru5 2.543309 1_555
Be6 Ru0 2.454055 1_455
Be6 Ru0 2.454059 1_445
Be6 Ru0 2.454059 1_555
Be7 Ru1 2.447570 1_455
Be7 Ru1 2.447573 1_445
Be7 Ru1 2.447573 1_555
Be8 Ru2 2.446922 1_455
Be8 Ru2 2.446926 1_555
Be8 Ru2 2.446926 1_445
Be9 Ru3 2.444362 1_455
Be9 Ru3 2.444366 1_445
Be9 Ru3 2.444366 1_555
Be10 Be22 2.089068 1_545
Be10 Be28 2.089068 1_445
Be10 Be25 2.089068 1_555
Be10 Be37 2.104003 1_455
Be10 Be40 2.104005 1_445
Be10 Be43 2.104005 1_555
Be10 Be4 2.442328 1_545
Be10 Be4 2.442332 1_555
Be10 Be4 2.442332 1_445
Be10 Ru4 2.450886 1_455
Be10 Ru4 2.450890 1_555
Be10 Ru4 2.450890 1_445
Be11 Be44 2.111059 1_555
Be11 Be41 2.111059 1_445
Be11 Be38 2.111061 1_455
Be11 Be26 2.115533 1_555
Be11 Be29 2.115533 1_445
Be11 Be23 2.115535 1_545
Be11 Be5 2.440602 1_545
Be11 Be5 2.440605 1_445
Be11 Be5 2.440605 1_555
Be11 Ru5 2.453073 1_455
Be11 Ru5 2.453077 1_445
Be11 Ru5 2.453077 1_555
Be12 Be18 2.049351 1_555
Be12 Be15 2.049351 1_555
Be12 Be6 2.123333 1_565
Be12 Be15 2.130848 1_565
Be12 Be18 2.130848 1_455
Be12 Be30 2.300721 1_455
Be12 Be30 2.300721 1_565
Be12 Ru0 2.454140 1_455
Be12 Ru0 2.454140 1_565
Be13 Be19 2.089841 1_555
Be13 Be16 2.089841 1_555
Be13 Be16 2.090359 1_565
Be13 Be19 2.090359 1_455
Be13 Be7 2.130559 1_565
Be13 Be31 2.294464 1_455
Be13 Be31 2.294464 1_565
Be13 Be45 2.341974 1_565
Be13 Ru1 2.487332 1_455
Be13 Ru1 2.487332 1_565
Be14 Be17 2.037810 1_555
Be14 Be20 2.037810 1_555
Be14 Be8 2.088347 1_565
Be14 Be20 2.142390 1_455
Be14 Be17 2.142390 1_565
Be14 Be32 2.343785 1_455
Be14 Be32 2.343785 1_565
Be14 Be2 2.375679 1_555
Be14 Ru6 2.383730 1_555
Be14 Ru2 2.450675 1_455
Be14 Ru2 2.450675 1_565
Be15 Be18 2.049351 1_555
Be15 Be6 2.123333 1_555
Be15 Be18 2.130849 1_445
Be15 Be30 2.300719 1_455
Be15 Be30 2.300723 1_555
Be15 Ru0 2.454138 1_455
Be15 Ru0 2.454142 1_555
Be16 Be19 2.089841 1_555
Be16 Be19 2.090359 1_445
Be16 Be7 2.130561 1_555
Be16 Be31 2.294460 1_455
Be16 Be31 2.294468 1_555
Be16 Be45 2.341976 1_555
Be16 Ru1 2.487329 1_455
Be16 Ru1 2.487336 1_555
Be17 Be20 2.037810 1_555
Be17 Be8 2.088349 1_555
Be17 Be20 2.142390 1_445
Be17 Be32 2.343781 1_455
Be17 Be32 2.343788 1_555
Be17 Be2 2.375679 1_555
Be17 Ru6 2.383730 1_555
Be17 Ru2 2.450671 1_455
Be17 Ru2 2.450678 1_555
Be18 Be6 2.123333 1_665
Be18 Be30 2.300719 1_565
Be18 Be30 2.300723 1_555
Be18 Ru0 2.454138 1_565
Be18 Ru0 2.454142 1_555
Be19 Be7 2.130561 1_665
Be19 Be31 2.294460 1_565
Be19 Be31 2.294468 1_555
Be19 Be45 2.341976 1_665
Be19 Ru1 2.487329 1_565
Be19 Ru1 2.487336 1_555
Be20 Be8 2.088349 1_665
Be20 Be32 2.343781 1_565
Be20 Be32 2.343788 1_555
Be20 Ru6 2.383730 1_555
Be20 Ru2 2.450671 1_565
Be20 Ru2 2.450678 1_555
Be21 Be27 2.087675 1_555
Be21 Be24 2.087675 1_555
Be21 Be27 2.092524 1_455
Be21 Be24 2.092524 1_565
Be21 Be9 2.140071 1_565
Be21 Be33 2.287298 1_455
Be21 Be33 2.287298 1_565
Be21 Be45 2.334718 1_565
Be21 Be3 2.407531 1_555
Be21 Ru3 2.503951 1_455
Be21 Ru3 2.503951 1_565
Be22 Be25 2.035782 1_555
Be22 Be28 2.035782 1_555
Be22 Be28 2.144417 1_455
Be22 Be25 2.144417 1_565
Be22 Be34 2.348947 1_455
Be22 Be34 2.348947 1_565
Be22 Be4 2.369307 1_555
Be22 Ru6 2.392300 1_555
Be22 Ru4 2.438581 1_455
Be22 Ru4 2.438581 1_565
Be23 Be26 2.052190 1_555
Be23 Be29 2.052190 1_555
Be23 Be29 2.128010 1_455
Be23 Be26 2.128010 1_565
Be23 Be35 2.302934 1_455
Be23 Be35 2.302934 1_565
Be23 Be5 2.398423 1_555
Be23 Ru5 2.452578 1_455
Be23 Ru5 2.452578 1_565
Be24 Be27 2.087675 1_555
Be24 Be27 2.092525 1_445
Be24 Be9 2.140071 1_555
Be24 Be33 2.287296 1_455
Be24 Be33 2.287300 1_555
Be24 Be45 2.334718 1_555
Be24 Be3 2.407533 1_555
Be24 Ru3 2.503949 1_455
Be24 Ru3 2.503953 1_555
Be25 Be28 2.035782 1_555
Be25 Be28 2.144418 1_445
Be25 Be34 2.348945 1_455
Be25 Be34 2.348949 1_555
Be25 Be4 2.369309 1_555
Be25 Ru6 2.392302 1_555
Be25 Ru4 2.438580 1_455
Be25 Ru4 2.438583 1_555
Be26 Be29 2.052190 1_555
Be26 Be29 2.128010 1_445
Be26 Be35 2.302934 1_555
Be26 Be35 2.302934 1_455
Be26 Be5 2.398427 1_555
Be26 Ru5 2.452577 1_555
Be26 Ru5 2.452577 1_455
Be27 Be9 2.140071 1_665
Be27 Be33 2.287296 1_565
Be27 Be33 2.287300 1_555
Be27 Be45 2.334718 1_665
Be27 Be3 2.407533 1_555
Be27 Ru3 2.503949 1_565
Be27 Ru3 2.503953 1_555
Be28 Be34 2.348945 1_565
Be28 Be34 2.348949 1_555
Be28 Be4 2.369309 1_555
Be28 Ru6 2.392302 1_555
Be28 Ru4 2.438580 1_565
Be28 Ru4 2.438583 1_555
Be29 Be35 2.302934 1_555
Be29 Be35 2.302934 1_565
Be29 Be5 2.398427 1_555
Be29 Ru5 2.452577 1_555
Be29 Ru5 2.452577 1_565
Be30 Be35 2.130626 1_556
Be30 Ru0 2.247354 1_555
Be31 Be33 2.129214 1_555
Be31 Ru1 2.295043 1_555
Be32 Be34 2.025196 1_555
Be32 Ru2 2.339350 1_555
Be32 Ru6 2.617416 1_545
Be32 Ru6 2.617416 1_655
Be32 Ru6 2.617422 1_555
Be33 Ru3 2.307951 1_555
Be34 Ru4 2.327329 1_555
Be34 Ru6 2.617098 1_545
Be34 Ru6 2.617098 1_655
Be34 Ru6 2.617105 1_555
Be35 Ru5 2.249718 1_555
Be36 Be42 2.042237 1_555
Be36 Be39 2.042237 1_555
Be36 Be6 2.100496 1_655
Be36 Be9 2.119943 1_655
Be36 Be39 2.137963 1_545
Be36 Be42 2.137963 1_655
Be36 Ru3 2.418069 1_555
Be36 Ru0 2.446997 1_555
Be37 Be43 2.045547 1_555
Be37 Be40 2.045547 1_555
Be37 Be7 2.115305 1_655
Be37 Be43 2.134652 1_655
Be37 Be40 2.134652 1_545
Be37 Ru1 2.432456 1_555
Be37 Ru4 2.437310 1_555
Be37 Be4 2.477896 1_545
Be37 Be4 2.477896 1_655
Be38 Be41 2.045957 1_555
Be38 Be44 2.045957 1_555
Be38 Be8 2.117146 1_655
Be38 Be41 2.134243 1_545
Be38 Be44 2.134243 1_655
Be38 Ru2 2.431277 1_555
Be38 Ru5 2.456032 1_555
Be38 Be5 2.488853 1_545
Be38 Be5 2.488853 1_655
Be39 Be42 2.042237 1_555
Be39 Be6 2.100499 1_665
Be39 Be9 2.119945 1_665
Be39 Be42 2.137963 1_665
Be39 Ru3 2.418069 1_555
Be39 Ru0 2.446997 1_555
Be40 Be43 2.045547 1_555
Be40 Be7 2.115308 1_665
Be40 Be43 2.134653 1_665
Be40 Ru1 2.432456 1_555
Be40 Ru4 2.437310 1_555
Be41 Be44 2.045957 1_555
Be41 Be8 2.117144 1_665
Be41 Be44 2.134243 1_665
Be41 Ru2 2.431280 1_555
Be41 Ru5 2.456036 1_555
Be41 Be5 2.488852 1_555
Be41 Be5 2.488852 1_655
Be42 Be6 2.100499 1_555
Be42 Be9 2.119945 1_555
Be42 Ru3 2.418069 1_555
Be42 Ru0 2.446997 1_555
Be43 Be7 2.115308 1_555
Be43 Ru1 2.432456 1_555
Be43 Ru4 2.437310 1_555
Be44 Be8 2.117144 1_555
Be44 Ru2 2.431280 1_555
Be44 Ru5 2.456036 1_555
Be44 Be5 2.488852 1_555
Be44 Be5 2.488852 1_545
