# generated using pymatgen
data_Ho4FeSn8
_symmetry_space_group_name_H-M   'P 1'
_cell_length_a   4.44489300
_cell_length_b   4.46209000
_cell_length_c   16.60506200
_cell_angle_alpha   90.00000000
_cell_angle_beta   90.00000000
_cell_angle_gamma   90.00000000
_symmetry_Int_Tables_number   1
_chemical_formula_structural   Ho4FeSn8
_chemical_formula_sum   'Ho4 Fe1 Sn8'
_cell_volume   329.33670651
_cell_formula_units_Z   1
loop_
 _symmetry_equiv_pos_site_id
 _symmetry_equiv_pos_as_xyz
  1  'x, y, z'
loop_
 _atom_site_type_symbol
 _atom_site_label
 _atom_site_symmetry_multiplicity
 _atom_site_fract_x
 _atom_site_fract_y
 _atom_site_fract_z
 _atom_site_occupancy
  Ho  Ho0  1  0.00000000  0.00000000  0.09650100  1
  Ho  Ho1  1  0.00000000  0.50000000  0.60221700  1
  Ho  Ho2  1  0.50000000  0.50000000  0.39564100  1
  Ho  Ho3  1  0.50000000  0.00000000  0.90021100  1
  Fe  Fe0  1  0.00000000  0.00000000  0.30602100  1
  Sn  Sn0  1  0.00000000  0.00000000  0.45454700  1
  Sn  Sn1  1  0.00000000  0.50000000  0.93576000  1
  Sn  Sn2  1  0.50000000  0.50000000  0.06408500  1
  Sn  Sn3  1  0.50000000  0.00000000  0.57339100  1
  Sn  Sn4  1  0.00000000  0.50000000  0.23628700  1
  Sn  Sn5  1  0.00000000  0.00000000  0.74948300  1
  Sn  Sn6  1  0.50000000  0.00000000  0.23739000  1
  Sn  Sn7  1  0.50000000  0.50000000  0.75146700  1
loop_
_geom_bond_atom_site_label_1
_geom_bond_atom_site_label_2
_geom_bond_distance
_geom_bond_site_symmetry_2
Ho0 Sn2 3.194771 1_545
Ho0 Sn2 3.194771 1_455
Ho0 Sn2 3.194771 1_555
Ho0 Sn2 3.194771 1_445
Ho0 Sn4 3.219522 1_545
Ho0 Sn4 3.219522 1_555
Ho0 Sn6 3.226824 1_455
Ho0 Sn6 3.226824 1_555
Ho0 Sn1 3.478754 1_554
Ho0 Sn1 3.478754 1_544
Ho1 Sn3 3.185270 1_465
Ho1 Sn3 3.185270 1_455
Ho1 Sn3 3.185270 1_555
Ho1 Sn3 3.185270 1_565
Ho1 Sn5 3.310189 1_555
Ho1 Sn5 3.310189 1_565
Ho1 Sn0 3.315148 1_555
Ho1 Sn0 3.315148 1_565
Ho1 Sn7 3.328854 1_455
Ho1 Sn7 3.328854 1_555
Ho2 Sn0 3.297512 1_565
Ho2 Sn0 3.297512 1_655
Ho2 Sn0 3.297512 1_665
Ho2 Sn0 3.297512 1_555
Ho2 Sn6 3.447133 1_555
Ho2 Sn6 3.447133 1_565
Ho2 Sn4 3.455579 1_555
Ho2 Sn4 3.455579 1_655
Ho2 Sn3 3.699893 1_555
Ho2 Sn3 3.699893 1_565
Ho3 Sn1 3.203947 1_655
Ho3 Sn1 3.203947 1_645
Ho3 Sn1 3.203947 1_555
Ho3 Sn1 3.203947 1_545
Ho3 Sn7 3.328361 1_555
Ho3 Sn7 3.328361 1_545
Ho3 Sn5 3.347165 1_555
Ho3 Sn5 3.347165 1_655
Ho3 Sn2 3.518828 1_546
Ho3 Sn2 3.518828 1_556
Fe0 Sn0 2.466283 1_555
Fe0 Sn6 2.497600 1_455
Fe0 Sn6 2.497600 1_555
Fe0 Sn4 2.513639 1_555
Fe0 Sn4 2.513639 1_545
Fe0 Ho2 3.483017 1_455
Fe0 Ho2 3.483017 1_555
Fe0 Ho2 3.483017 1_545
Fe0 Ho2 3.483017 1_445
Sn0 Sn3 2.972141 1_455
Sn0 Sn3 2.972141 1_555
Sn1 Sn2 3.078923 1_456
Sn1 Sn2 3.078923 1_556
Sn4 Sn6 3.149153 1_555
Sn4 Sn6 3.149153 1_465
Sn4 Sn6 3.149153 1_565
Sn4 Sn6 3.149153 1_455
Sn5 Sn7 3.149272 1_545
Sn5 Sn7 3.149272 1_455
Sn5 Sn7 3.149272 1_555
Sn5 Sn7 3.149272 1_445
