# generated using pymatgen
data_Ag3P3O10
_symmetry_space_group_name_H-M   'P 1'
_cell_length_a   7.89599756
_cell_length_b   7.89599756
_cell_length_c   9.23702572
_cell_angle_alpha   64.76673808
_cell_angle_beta   64.76673808
_cell_angle_gamma   85.56270429
_symmetry_Int_Tables_number   1
_chemical_formula_structural   Ag3P3O10
_chemical_formula_sum   'Ag6 P6 O20'
_cell_volume   467.38867540
_cell_formula_units_Z   2
loop_
 _symmetry_equiv_pos_site_id
 _symmetry_equiv_pos_as_xyz
  1  'x, y, z'
loop_
 _atom_site_type_symbol
 _atom_site_label
 _atom_site_symmetry_multiplicity
 _atom_site_fract_x
 _atom_site_fract_y
 _atom_site_fract_z
 _atom_site_occupancy
  Ag  Ag0  1  0.00508700  0.32691800  0.94950300  1
  Ag  Ag1  1  0.67308200  0.99491300  0.05049700  1
  Ag  Ag2  1  0.99491300  0.67308200  0.05049700  1
  Ag  Ag3  1  0.32691800  0.00508700  0.94950300  1
  Ag  Ag4  1  0.17372500  0.82627500  0.50000000  1
  Ag  Ag5  1  0.82627500  0.17372500  0.50000000  1
  P  P0  1  0.43775000  0.71484400  0.73587400  1
  P  P1  1  0.28515600  0.56225000  0.26412600  1
  P  P2  1  0.56225000  0.28515600  0.26412600  1
  P  P3  1  0.71484400  0.43775000  0.73587400  1
  P  P4  1  0.78459900  0.78459900  0.41911100  1
  P  P5  1  0.21540100  0.21540100  0.58088900  1
  O  O0  1  0.51403000  0.51403000  0.80624200  1
  O  O1  1  0.48597000  0.48597000  0.19375800  1
  O  O2  1  0.56080300  0.79563200  0.52122200  1
  O  O3  1  0.20436800  0.43919700  0.47877800  1
  O  O4  1  0.43919700  0.20436800  0.47877800  1
  O  O5  1  0.79563200  0.56080300  0.52122200  1
  O  O6  1  0.48430500  0.84190300  0.80043200  1
  O  O7  1  0.15809700  0.51569500  0.19956800  1
  O  O8  1  0.51569500  0.15809700  0.19956800  1
  O  O9  1  0.84190300  0.48430500  0.80043200  1
  O  O10  1  0.23540900  0.67728800  0.77034200  1
  O  O11  1  0.32271200  0.76459100  0.22965800  1
  O  O12  1  0.76459100  0.32271200  0.22965800  1
  O  O13  1  0.67728800  0.23540900  0.77034200  1
  O  O14  1  0.82192900  0.82192900  0.23342200  1
  O  O15  1  0.17807100  0.17807100  0.76657800  1
  O  O16  1  0.89881300  0.89881300  0.44813700  1
  O  O17  1  0.10118700  0.10118700  0.55186300  1
  O  O18  1  0.82260400  0.82260400  0.94063500  1
  O  O19  1  0.17739600  0.17739600  0.05936500  1
loop_
_geom_bond_atom_site_label_1
_geom_bond_atom_site_label_2
_geom_bond_distance
_geom_bond_site_symmetry_2
Ag0 O19 2.044973 1_556
Ag0 O9 2.215090 1_455
Ag0 O15 2.361994 1_555
Ag0 O12 2.459777 1_456
Ag1 O18 2.044973 1_554
Ag1 O8 2.215090 1_565
Ag1 O14 2.361994 1_555
Ag1 O13 2.459777 1_564
Ag2 O18 2.044973 1_554
Ag2 O7 2.215090 1_655
Ag2 O14 2.361994 1_555
Ag2 O10 2.459777 1_654
Ag3 O19 2.044973 1_556
Ag3 O6 2.215090 1_545
Ag3 O15 2.361994 1_555
Ag3 O11 2.459777 1_546
Ag4 O17 2.393702 1_565
Ag4 O16 2.393702 1_455
Ag4 O10 2.510098 1_555
Ag4 O11 2.510098 1_555
Ag5 O17 2.393702 1_655
Ag5 O16 2.393702 1_545
Ag5 O13 2.510098 1_555
Ag5 O12 2.510098 1_555
O0 P0 1.614544 1_555
O0 P3 1.614544 1_555
O1 P2 1.614544 1_555
O1 P1 1.614544 1_555
O2 P4 1.626348 1_555
O2 P0 1.630106 1_555
O3 P5 1.626348 1_555
O3 P1 1.630106 1_555
O4 P5 1.626348 1_555
O4 P2 1.630106 1_555
O5 P4 1.626348 1_555
O5 P3 1.630106 1_555
O6 P0 1.500436 1_555
O7 P1 1.500436 1_555
O8 P2 1.500436 1_555
O9 P3 1.500436 1_555
O10 P0 1.516909 1_555
O11 P1 1.516909 1_555
O12 P2 1.516909 1_555
O13 P3 1.516909 1_555
O14 P4 1.505675 1_555
O15 P5 1.505675 1_555
O16 P4 1.495544 1_555
O17 P5 1.495544 1_555
