# generated using pymatgen
data_Ca2ZnGe2O7
_symmetry_space_group_name_H-M   'P 1'
_cell_length_a   8.06421800
_cell_length_b   8.06421800
_cell_length_c   5.22891200
_cell_angle_alpha   90.00000000
_cell_angle_beta   90.00000000
_cell_angle_gamma   90.00000000
_symmetry_Int_Tables_number   1
_chemical_formula_structural   Ca2ZnGe2O7
_chemical_formula_sum   'Ca4 Zn2 Ge4 O14'
_cell_volume   340.04457611
_cell_formula_units_Z   2
loop_
 _symmetry_equiv_pos_site_id
 _symmetry_equiv_pos_as_xyz
  1  'x, y, z'
loop_
 _atom_site_type_symbol
 _atom_site_label
 _atom_site_symmetry_multiplicity
 _atom_site_fract_x
 _atom_site_fract_y
 _atom_site_fract_z
 _atom_site_occupancy
  Ca  Ca0  1  0.33289300  0.83289300  0.50864900  1
  Ca  Ca1  1  0.16710700  0.33289300  0.49135100  1
  Ca  Ca2  1  0.83289300  0.66710700  0.49135100  1
  Ca  Ca3  1  0.66710700  0.16710700  0.50864900  1
  Zn  Zn0  1  0.50000000  0.50000000  0.00000000  1
  Zn  Zn1  1  0.00000000  0.00000000  0.00000000  1
  Ge  Ge0  1  0.14488900  0.64488900  0.94325400  1
  Ge  Ge1  1  0.35511100  0.14488900  0.05674600  1
  Ge  Ge2  1  0.64488900  0.85511100  0.05674600  1
  Ge  Ge3  1  0.85511100  0.35511100  0.94325400  1
  O  O0  1  0.67350000  0.41283700  0.77436300  1
  O  O1  1  0.32650000  0.58716300  0.77436300  1
  O  O2  1  0.41283700  0.32650000  0.22563700  1
  O  O3  1  0.58716300  0.67350000  0.22563700  1
  O  O4  1  0.91283700  0.17350000  0.77436300  1
  O  O5  1  0.82650000  0.91283700  0.22563700  1
  O  O6  1  0.17350000  0.08716300  0.22563700  1
  O  O7  1  0.08716300  0.82650000  0.77436300  1
  O  O8  1  0.86003500  0.36003500  0.27533200  1
  O  O9  1  0.63996500  0.86003500  0.72466800  1
  O  O10  1  0.50000000  0.00000000  0.20422200  1
  O  O11  1  0.00000000  0.50000000  0.79577800  1
  O  O12  1  0.13996500  0.63996500  0.27533200  1
  O  O13  1  0.36003500  0.13996500  0.72466800  1
loop_
_geom_bond_atom_site_label_1
_geom_bond_atom_site_label_2
_geom_bond_distance
_geom_bond_site_symmetry_2
Ca0 O1 2.420722 1_555
Ca0 O7 2.420722 1_555
Ca0 O10 2.483119 1_565
Ca0 O12 2.515849 1_555
Ca0 O9 2.730534 1_555
Ca0 O13 2.730534 1_565
Ca0 O6 2.836661 1_565
Ca0 O3 2.836661 1_555
Ca1 O2 2.420722 1_555
Ca1 O6 2.420722 1_555
Ca1 O11 2.483119 1_555
Ca1 O13 2.515849 1_555
Ca1 O8 2.730534 1_455
Ca1 O12 2.730534 1_555
Ca1 O1 2.836661 1_555
Ca1 O4 2.836661 1_455
Ca2 O3 2.420722 1_555
Ca2 O5 2.420722 1_555
Ca2 O11 2.483119 1_655
Ca2 O9 2.515849 1_555
Ca2 O8 2.730534 1_555
Ca2 O12 2.730534 1_655
Ca2 O7 2.836661 1_655
Ca2 O0 2.836661 1_555
Ca3 O0 2.420722 1_555
Ca3 O4 2.420722 1_555
Ca3 O10 2.483119 1_555
Ca3 O8 2.515849 1_555
Ca3 O9 2.730534 1_545
Ca3 O13 2.730534 1_555
Ca3 O5 2.836661 1_545
Ca3 O2 2.836661 1_555
Ge0 O12 1.737314 1_556
Ge0 O1 1.772430 1_555
Ge0 O7 1.772430 1_555
Ge0 O11 1.823472 1_555
Ge1 O13 1.737314 1_554
Ge1 O2 1.772430 1_555
Ge1 O6 1.772430 1_555
Ge1 O10 1.823472 1_555
Ge2 O9 1.737314 1_554
Ge2 O3 1.772430 1_555
Ge2 O5 1.772430 1_555
Ge2 O10 1.823472 1_565
Ge3 O8 1.737314 1_556
Ge3 O0 1.772430 1_555
Ge3 O4 1.772430 1_555
Ge3 O11 1.823472 1_655
O0 Zn0 1.960531 1_556
O1 Zn0 1.960531 1_556
O2 Zn0 1.960531 1_555
O3 Zn0 1.960531 1_555
O4 Zn1 1.960531 1_656
O5 Zn1 1.960531 1_665
O6 Zn1 1.960531 1_555
O7 Zn1 1.960531 1_566
