# generated using pymatgen
data_La7Sm(FeO3)8
_symmetry_space_group_name_H-M   'P 1'
_cell_length_a   7.90246400
_cell_length_b   7.90246400
_cell_length_c   7.90246400
_cell_angle_alpha   90.00000000
_cell_angle_beta   90.00000000
_cell_angle_gamma   90.00000000
_symmetry_Int_Tables_number   1
_chemical_formula_structural   La7Sm(FeO3)8
_chemical_formula_sum   'La7 Sm1 Fe8 O24'
_cell_volume   493.50047862
_cell_formula_units_Z   1
loop_
 _symmetry_equiv_pos_site_id
 _symmetry_equiv_pos_as_xyz
  1  'x, y, z'
loop_
 _atom_site_type_symbol
 _atom_site_label
 _atom_site_symmetry_multiplicity
 _atom_site_fract_x
 _atom_site_fract_y
 _atom_site_fract_z
 _atom_site_occupancy
  La  La0  1  0.50000000  0.00000000  0.00000000  1
  La  La1  1  0.50000000  0.00000000  0.50000000  1
  La  La2  1  0.50000000  0.50000000  0.00000000  1
  La  La3  1  0.50000000  0.50000000  0.50000000  1
  La  La4  1  0.00000000  0.00000000  0.50000000  1
  La  La5  1  0.00000000  0.50000000  0.00000000  1
  La  La6  1  0.00000000  0.50000000  0.50000000  1
  Sm  Sm0  1  0.00000000  0.00000000  0.00000000  1
  Fe  Fe0  1  0.24969600  0.75030400  0.75030400  1
  Fe  Fe1  1  0.24969600  0.75030400  0.24969600  1
  Fe  Fe2  1  0.24969600  0.24969600  0.75030400  1
  Fe  Fe3  1  0.24969600  0.24969600  0.24969600  1
  Fe  Fe4  1  0.75030400  0.75030400  0.75030400  1
  Fe  Fe5  1  0.75030400  0.75030400  0.24969600  1
  Fe  Fe6  1  0.75030400  0.24969600  0.75030400  1
  Fe  Fe7  1  0.75030400  0.24969600  0.24969600  1
  O  O0  1  0.50000000  0.75002300  0.75002300  1
  O  O1  1  0.50000000  0.75002300  0.24997700  1
  O  O2  1  0.50000000  0.24997700  0.75002300  1
  O  O3  1  0.50000000  0.24997700  0.24997700  1
  O  O4  1  0.00000000  0.75112300  0.75112300  1
  O  O5  1  0.00000000  0.75112300  0.24887700  1
  O  O6  1  0.00000000  0.24887700  0.75112300  1
  O  O7  1  0.00000000  0.24887700  0.24887700  1
  O  O8  1  0.24887700  0.00000000  0.75112300  1
  O  O9  1  0.24887700  0.00000000  0.24887700  1
  O  O10  1  0.24997700  0.50000000  0.75002300  1
  O  O11  1  0.24997700  0.50000000  0.24997700  1
  O  O12  1  0.75112300  0.00000000  0.75112300  1
  O  O13  1  0.75112300  0.00000000  0.24887700  1
  O  O14  1  0.75002300  0.50000000  0.75002300  1
  O  O15  1  0.75002300  0.50000000  0.24997700  1
  O  O16  1  0.24887700  0.75112300  0.00000000  1
  O  O17  1  0.24997700  0.75002300  0.50000000  1
  O  O18  1  0.24887700  0.24887700  0.00000000  1
  O  O19  1  0.24997700  0.24997700  0.50000000  1
  O  O20  1  0.75112300  0.75112300  0.00000000  1
  O  O21  1  0.75002300  0.75002300  0.50000000  1
  O  O22  1  0.75112300  0.24887700  0.00000000  1
  O  O23  1  0.75002300  0.24997700  0.50000000  1
loop_
_geom_bond_atom_site_label_1
_geom_bond_atom_site_label_2
_geom_bond_distance
_geom_bond_site_symmetry_2
La0 O3 2.793686 1_555
La0 O1 2.793686 1_545
La0 O2 2.793686 1_554
La0 O0 2.793686 1_544
La0 O8 2.793971 1_554
La0 O16 2.793971 1_545
La0 O12 2.793971 1_554
La0 O18 2.793971 1_555
La0 O20 2.793971 1_545
La0 O22 2.793971 1_555
La0 O9 2.793971 1_555
La0 O13 2.793971 1_555
La1 O2 2.793943 1_555
La1 O23 2.793943 1_555
La1 O19 2.793943 1_555
La1 O21 2.793943 1_545
La1 O3 2.793943 1_555
La1 O0 2.793943 1_545
La1 O17 2.793943 1_545
La1 O1 2.793943 1_545
La1 O12 2.806493 1_555
La1 O9 2.806493 1_555
La1 O8 2.806493 1_555
La1 O13 2.806493 1_555
La2 O1 2.793943 1_555
La2 O15 2.793943 1_555
La2 O0 2.793943 1_554
La2 O3 2.793943 1_555
La2 O14 2.793943 1_554
La2 O11 2.793943 1_555
La2 O2 2.793943 1_554
La2 O10 2.793943 1_554
La2 O16 2.806493 1_555
La2 O20 2.806493 1_555
La2 O18 2.806493 1_555
La2 O22 2.806493 1_555
La3 O14 2.794200 1_555
La3 O0 2.794200 1_555
La3 O21 2.794200 1_555
La3 O15 2.794200 1_555
La3 O10 2.794200 1_555
La3 O17 2.794200 1_555
La3 O2 2.794200 1_555
La3 O23 2.794200 1_555
La3 O1 2.794200 1_555
La3 O19 2.794200 1_555
La3 O3 2.794200 1_555
La3 O11 2.794200 1_555
La4 O19 2.793686 1_555
La4 O17 2.793686 1_545
La4 O23 2.793686 1_455
La4 O21 2.793686 1_445
La4 O12 2.793971 1_455
La4 O8 2.793971 1_555
La4 O6 2.793971 1_555
La4 O4 2.793971 1_545
La4 O13 2.793971 1_455
La4 O5 2.793971 1_545
La4 O7 2.793971 1_555
La4 O9 2.793971 1_555
La5 O11 2.793686 1_555
La5 O10 2.793686 1_554
La5 O15 2.793686 1_455
La5 O14 2.793686 1_454
La5 O4 2.793971 1_554
La5 O5 2.793971 1_555
La5 O18 2.793971 1_555
La5 O7 2.793971 1_555
La5 O22 2.793971 1_455
La5 O6 2.793971 1_554
La5 O16 2.793971 1_555
La5 O20 2.793971 1_455
La6 O17 2.793943 1_555
La6 O10 2.793943 1_555
La6 O19 2.793943 1_555
La6 O14 2.793943 1_455
La6 O11 2.793943 1_555
La6 O21 2.793943 1_455
La6 O15 2.793943 1_455
La6 O23 2.793943 1_455
La6 O7 2.806493 1_555
La6 O4 2.806493 1_555
La6 O6 2.806493 1_555
La6 O5 2.806493 1_555
Fe0 O4 1.973235 1_555
Fe0 O8 1.973235 1_565
Fe0 O16 1.973235 1_556
Fe0 O17 1.978021 1_555
Fe0 O10 1.978021 1_555
Fe0 O0 1.978021 1_555
Fe1 O5 1.973235 1_555
Fe1 O16 1.973235 1_555
Fe1 O9 1.973235 1_565
Fe1 O11 1.978021 1_555
Fe1 O17 1.978021 1_555
Fe1 O1 1.978021 1_555
Fe2 O8 1.973235 1_555
Fe2 O6 1.973235 1_555
Fe2 O18 1.973235 1_556
Fe2 O19 1.978021 1_555
Fe2 O10 1.978021 1_555
Fe2 O2 1.978021 1_555
Fe3 O18 1.973235 1_555
Fe3 O7 1.973235 1_555
Fe3 O9 1.973235 1_555
Fe3 O19 1.978021 1_555
Fe3 O11 1.978021 1_555
Fe3 O3 1.978021 1_555
Fe4 O4 1.973235 1_655
Fe4 O12 1.973235 1_565
Fe4 O20 1.973235 1_556
Fe4 O21 1.978021 1_555
Fe4 O14 1.978021 1_555
Fe4 O0 1.978021 1_555
Fe5 O20 1.973235 1_555
Fe5 O13 1.973235 1_565
Fe5 O5 1.973235 1_655
Fe5 O21 1.978021 1_555
Fe5 O15 1.978021 1_555
Fe5 O1 1.978021 1_555
Fe6 O12 1.973235 1_555
Fe6 O22 1.973235 1_556
Fe6 O6 1.973235 1_655
Fe6 O23 1.978021 1_555
Fe6 O14 1.978021 1_555
Fe6 O2 1.978021 1_555
Fe7 O13 1.973235 1_555
Fe7 O22 1.973235 1_555
Fe7 O7 1.973235 1_655
Fe7 O23 1.978021 1_555
Fe7 O15 1.978021 1_555
Fe7 O3 1.978021 1_555
O4 Sm0 2.781393 1_566
O5 Sm0 2.781393 1_565
O6 Sm0 2.781393 1_556
O7 Sm0 2.781393 1_555
O8 Sm0 2.781393 1_556
O9 Sm0 2.781393 1_555
O12 Sm0 2.781393 1_656
O13 Sm0 2.781393 1_655
O16 Sm0 2.781393 1_565
O18 Sm0 2.781393 1_555
O20 Sm0 2.781393 1_665
O22 Sm0 2.781393 1_655
