# generated using pymatgen
data_Dy6Al43Mo4
_symmetry_space_group_name_H-M   'P 1'
_cell_length_a   11.06196104
_cell_length_b   11.06196104
_cell_length_c   17.60199800
_cell_angle_alpha   90.00000000
_cell_angle_beta   90.00000000
_cell_angle_gamma   119.99999426
_symmetry_Int_Tables_number   1
_chemical_formula_structural   Dy6Al43Mo4
_chemical_formula_sum   'Dy12 Al86 Mo8'
_cell_volume   1865.33514667
_cell_formula_units_Z   2
loop_
 _symmetry_equiv_pos_site_id
 _symmetry_equiv_pos_as_xyz
  1  'x, y, z'
loop_
 _atom_site_type_symbol
 _atom_site_label
 _atom_site_symmetry_multiplicity
 _atom_site_fract_x
 _atom_site_fract_y
 _atom_site_fract_z
 _atom_site_occupancy
  Dy  Dy0  1  0.46900500  0.46900500  0.90477300  1
  Dy  Dy1  1  0.53099500  0.00000000  0.90477300  1
  Dy  Dy2  1  0.00000000  0.53099500  0.90477300  1
  Dy  Dy3  1  0.53099500  0.53099500  0.09522700  1
  Dy  Dy4  1  0.46900500  0.00000000  0.09522700  1
  Dy  Dy5  1  0.00000000  0.46900500  0.09522700  1
  Dy  Dy6  1  0.53099500  0.53099500  0.40477300  1
  Dy  Dy7  1  0.46900500  0.00000000  0.40477300  1
  Dy  Dy8  1  0.00000000  0.46900500  0.40477300  1
  Dy  Dy9  1  0.46900500  0.46900500  0.59522700  1
  Dy  Dy10  1  0.53099500  0.00000000  0.59522700  1
  Dy  Dy11  1  0.00000000  0.53099500  0.59522700  1
  Al  Al0  1  0.84176900  0.23625900  0.83643400  1
  Al  Al1  1  0.76374100  0.60551000  0.83643400  1
  Al  Al2  1  0.39449000  0.15823100  0.83643400  1
  Al  Al3  1  0.23625900  0.84176900  0.83643400  1
  Al  Al4  1  0.60551000  0.76374100  0.83643400  1
  Al  Al5  1  0.15823100  0.39449000  0.83643400  1
  Al  Al6  1  0.15823100  0.76374100  0.16356600  1
  Al  Al7  1  0.23625900  0.39449000  0.16356600  1
  Al  Al8  1  0.60551000  0.84176900  0.16356600  1
  Al  Al9  1  0.76374100  0.15823100  0.16356600  1
  Al  Al10  1  0.39449000  0.23625900  0.16356600  1
  Al  Al11  1  0.84176900  0.60551000  0.16356600  1
  Al  Al12  1  0.15823100  0.76374100  0.33643400  1
  Al  Al13  1  0.23625900  0.39449000  0.33643400  1
  Al  Al14  1  0.60551000  0.84176900  0.33643400  1
  Al  Al15  1  0.76374100  0.15823100  0.33643400  1
  Al  Al16  1  0.39449000  0.23625900  0.33643400  1
  Al  Al17  1  0.84176900  0.60551000  0.33643400  1
  Al  Al18  1  0.84176900  0.23625900  0.66356600  1
  Al  Al19  1  0.76374100  0.60551000  0.66356600  1
  Al  Al20  1  0.39449000  0.15823100  0.66356600  1
  Al  Al21  1  0.23625900  0.84176900  0.66356600  1
  Al  Al22  1  0.60551000  0.76374100  0.66356600  1
  Al  Al23  1  0.15823100  0.39449000  0.66356600  1
  Al  Al24  1  0.84096200  0.84096200  0.38511700  1
  Al  Al25  1  0.15903800  0.00000000  0.38511700  1
  Al  Al26  1  0.00000000  0.15903800  0.38511700  1
  Al  Al27  1  0.15903800  0.15903800  0.61488300  1
  Al  Al28  1  0.84096200  0.00000000  0.61488300  1
  Al  Al29  1  0.00000000  0.84096200  0.61488300  1
  Al  Al30  1  0.15903800  0.15903800  0.88511700  1
  Al  Al31  1  0.84096200  0.00000000  0.88511700  1
  Al  Al32  1  0.00000000  0.84096200  0.88511700  1
  Al  Al33  1  0.84096200  0.84096200  0.11488300  1
  Al  Al34  1  0.15903800  0.00000000  0.11488300  1
  Al  Al35  1  0.00000000  0.15903800  0.11488300  1
  Al  Al36  1  0.74604500  0.74604500  0.96943800  1
  Al  Al37  1  0.25395500  0.00000000  0.96943800  1
  Al  Al38  1  0.00000000  0.25395500  0.96943800  1
  Al  Al39  1  0.25395500  0.25395500  0.03056200  1
  Al  Al40  1  0.74604500  0.00000000  0.03056200  1
  Al  Al41  1  0.00000000  0.74604500  0.03056200  1
  Al  Al42  1  0.25395500  0.25395500  0.46943800  1
  Al  Al43  1  0.74604500  0.00000000  0.46943800  1
  Al  Al44  1  0.00000000  0.74604500  0.46943800  1
  Al  Al45  1  0.74604500  0.74604500  0.53056200  1
  Al  Al46  1  0.25395500  0.00000000  0.53056200  1
  Al  Al47  1  0.00000000  0.25395500  0.53056200  1
  Al  Al48  1  0.85260600  0.44861600  0.75000000  1
  Al  Al49  1  0.55138400  0.40399000  0.75000000  1
  Al  Al50  1  0.59601000  0.14739400  0.75000000  1
  Al  Al51  1  0.44861600  0.85260600  0.75000000  1
  Al  Al52  1  0.40399000  0.55138400  0.75000000  1
  Al  Al53  1  0.14739400  0.59601000  0.75000000  1
  Al  Al54  1  0.14739400  0.55138400  0.25000000  1
  Al  Al55  1  0.44861600  0.59601000  0.25000000  1
  Al  Al56  1  0.40399000  0.85260600  0.25000000  1
  Al  Al57  1  0.55138400  0.14739400  0.25000000  1
  Al  Al58  1  0.59601000  0.44861600  0.25000000  1
  Al  Al59  1  0.85260600  0.40399000  0.25000000  1
  Al  Al60  1  0.75285100  0.24714900  0.00000000  1
  Al  Al61  1  0.75285100  0.50570200  0.00000000  1
  Al  Al62  1  0.49429800  0.24714900  0.00000000  1
  Al  Al63  1  0.24714900  0.75285100  0.00000000  1
  Al  Al64  1  0.50570200  0.75285100  0.00000000  1
  Al  Al65  1  0.24714900  0.49429800  0.00000000  1
  Al  Al66  1  0.24714900  0.75285100  0.50000000  1
  Al  Al67  1  0.24714900  0.49429800  0.50000000  1
  Al  Al68  1  0.50570200  0.75285100  0.50000000  1
  Al  Al69  1  0.75285100  0.24714900  0.50000000  1
  Al  Al70  1  0.49429800  0.24714900  0.50000000  1
  Al  Al71  1  0.75285100  0.50570200  0.50000000  1
  Al  Al72  1  0.66666700  0.33333300  0.87375800  1
  Al  Al73  1  0.33333300  0.66666700  0.87375800  1
  Al  Al74  1  0.33333300  0.66666700  0.12624200  1
  Al  Al75  1  0.66666700  0.33333300  0.12624200  1
  Al  Al76  1  0.33333300  0.66666700  0.37375800  1
  Al  Al77  1  0.66666700  0.33333300  0.37375800  1
  Al  Al78  1  0.66666700  0.33333300  0.62624200  1
  Al  Al79  1  0.33333300  0.66666700  0.62624200  1
  Al  Al80  1  0.85292900  0.85292900  0.75000000  1
  Al  Al81  1  0.14707100  0.00000000  0.75000000  1
  Al  Al82  1  0.00000000  0.14707100  0.75000000  1
  Al  Al83  1  0.14707100  0.14707100  0.25000000  1
  Al  Al84  1  0.85292900  0.00000000  0.25000000  1
  Al  Al85  1  0.00000000  0.85292900  0.25000000  1
  Mo  Mo0  1  0.27056700  0.27056700  0.75000000  1
  Mo  Mo1  1  0.72943300  0.00000000  0.75000000  1
  Mo  Mo2  1  0.00000000  0.72943300  0.75000000  1
  Mo  Mo3  1  0.72943300  0.72943300  0.25000000  1
  Mo  Mo4  1  0.27056700  0.00000000  0.25000000  1
  Mo  Mo5  1  0.00000000  0.27056700  0.25000000  1
  Mo  Mo6  1  0.00000000  0.00000000  0.00000000  1
  Mo  Mo7  1  0.00000000  0.00000000  0.50000000  1
loop_
_geom_bond_atom_site_label_1
_geom_bond_atom_site_label_2
_geom_bond_distance
_geom_bond_site_symmetry_2
Dy0 Dy3 3.421786 1_556
Dy0 Mo0 3.498630 1_555
Dy1 Dy4 3.421786 1_556
Dy1 Mo1 3.498630 1_555
Dy2 Dy5 3.421786 1_556
Dy2 Mo2 3.498630 1_555
Dy3 Mo3 3.498630 1_555
Dy4 Mo4 3.498630 1_555
Dy5 Mo5 3.498630 1_555
Dy6 Dy9 3.421786 1_555
Dy6 Mo3 3.498630 1_555
Dy7 Mo4 3.498630 1_555
Dy8 Mo5 3.498630 1_555
Dy9 Mo0 3.498630 1_555
Dy10 Dy7 3.421786 1_555
Dy10 Mo1 3.498630 1_555
Dy11 Dy8 3.421786 1_555
Dy11 Mo2 3.498630 1_555
Al0 Al72 2.723336 1_555
Al0 Mo1 2.727918 1_555
Al0 Al31 2.746157 1_555
Al0 Al48 2.750574 1_555
Al0 Al50 2.828297 1_555
Al0 Al82 2.842296 1_655
Al0 Al38 2.870594 1_655
Al0 Al5 3.031687 1_655
Al0 Al18 3.042822 1_555
Al0 Al60 3.064251 1_556
Al0 Dy2 3.071460 1_655
Al0 Dy1 3.333315 1_555
Al1 Al72 2.723347 1_555
Al1 Mo2 2.727918 1_655
Al1 Al32 2.746157 1_655
Al1 Al49 2.750574 1_555
Al1 Al48 2.828297 1_555
Al1 Al80 2.842296 1_555
Al1 Al36 2.870594 1_555
Al1 Al4 3.031687 1_555
Al1 Al19 3.042822 1_555
Al1 Al61 3.064251 1_556
Al1 Dy0 3.071460 1_555
Al1 Dy2 3.333315 1_655
Al2 Al72 2.723345 1_555
Al2 Mo0 2.727918 1_555
Al2 Al30 2.746157 1_555
Al2 Al50 2.750574 1_555
Al2 Al49 2.828297 1_555
Al2 Al81 2.842296 1_555
Al2 Al37 2.870594 1_555
Al2 Al3 3.031687 1_545
Al2 Al20 3.042822 1_555
Al2 Al62 3.064251 1_556
Al2 Dy1 3.071460 1_555
Al2 Dy0 3.333315 1_555
Al3 Al73 2.723336 1_555
Al3 Mo2 2.727918 1_555
Al3 Al32 2.746157 1_555
Al3 Al51 2.750574 1_555
Al3 Al53 2.828297 1_555
Al3 Al81 2.842296 1_565
Al3 Al37 2.870594 1_565
Al3 Al63 3.064251 1_556
Al3 Dy1 3.071460 1_565
Al3 Dy2 3.333315 1_555
Al4 Al73 2.723347 1_555
Al4 Mo1 2.727918 1_565
Al4 Al52 2.750574 1_555
Al4 Al51 2.828297 1_555
Al4 Al80 2.842296 1_555
Al4 Al64 3.064251 1_556
Al4 Dy0 3.071460 1_555
Al4 Dy1 3.333315 1_565
Al5 Al73 2.723345 1_555
Al5 Mo0 2.727918 1_555
Al5 Al53 2.750574 1_555
Al5 Al52 2.828297 1_555
Al5 Al82 2.842296 1_555
Al5 Al65 3.064251 1_556
Al5 Dy2 3.071460 1_555
Al5 Dy0 3.333315 1_555
Al6 Al74 2.723336 1_555
Al6 Mo4 2.727918 1_565
Al6 Al85 2.842296 1_555
Al6 Al63 3.064251 1_555
Al6 Dy5 3.071460 1_555
Al6 Dy4 3.333315 1_565
Al7 Al74 2.723347 1_555
Al7 Mo5 2.727918 1_555
Al7 Al83 2.842296 1_555
Al7 Dy3 3.071460 1_555
Al7 Dy5 3.333315 1_555
Al8 Mo3 2.727918 1_555
Al8 Al84 2.842296 1_565
Al8 Al9 3.031687 1_565
Al8 Dy4 3.071460 1_565
Al8 Dy3 3.333315 1_555
Al9 Mo5 2.727918 1_655
Al9 Dy4 3.071460 1_555
Al9 Dy5 3.333315 1_655
Al10 Al75 2.723347 1_555
Al10 Mo4 2.727918 1_555
Al10 Al34 2.746157 1_555
Al10 Al58 2.750574 1_555
Al10 Al57 2.828297 1_555
Al10 Al83 2.842296 1_555
Al10 Al39 2.870594 1_555
Al10 Al7 3.031687 1_555
Al10 Al16 3.042822 1_555
Al10 Al62 3.064251 1_555
Al10 Dy3 3.071460 1_555
Al10 Dy4 3.333315 1_555
Al11 Al75 2.723345 1_555
Al11 Mo3 2.727918 1_555
Al11 Al33 2.746157 1_555
Al11 Al59 2.750574 1_555
Al11 Al58 2.828297 1_555
Al11 Al85 2.842296 1_655
Al11 Al41 2.870594 1_655
Al11 Al6 3.031687 1_655
Al11 Al17 3.042822 1_555
Al11 Al61 3.064251 1_555
Al11 Dy5 3.071460 1_655
Al11 Dy3 3.333315 1_555
Al12 Al76 2.723336 1_555
Al12 Mo4 2.727918 1_565
Al12 Al25 2.746157 1_565
Al12 Al54 2.750574 1_555
Al12 Al56 2.828297 1_555
Al12 Al85 2.842296 1_555
Al12 Al44 2.870594 1_555
Al12 Al17 3.031687 1_455
Al12 Al6 3.042822 1_555
Al12 Al66 3.064251 1_555
Al12 Dy8 3.071460 1_555
Al12 Dy7 3.333315 1_565
Al13 Al76 2.723347 1_555
Al13 Mo5 2.727918 1_555
Al13 Al26 2.746157 1_555
Al13 Al55 2.750574 1_555
Al13 Al54 2.828297 1_555
Al13 Al83 2.842296 1_555
Al13 Al42 2.870594 1_555
Al13 Al16 3.031687 1_555
Al13 Al7 3.042822 1_555
Al13 Al67 3.064251 1_555
Al13 Dy6 3.071460 1_555
Al13 Dy8 3.333315 1_555
Al14 Al76 2.723345 1_555
Al14 Mo3 2.727918 1_555
Al14 Al24 2.746157 1_555
Al14 Al56 2.750574 1_555
Al14 Al55 2.828297 1_555
Al14 Al84 2.842296 1_565
Al14 Al43 2.870594 1_565
Al14 Al15 3.031687 1_565
Al14 Al8 3.042822 1_555
Al14 Al68 3.064251 1_555
Al14 Dy7 3.071460 1_565
Al14 Dy6 3.333315 1_555
Al15 Al77 2.723336 1_555
Al15 Mo5 2.727918 1_655
Al15 Al26 2.746157 1_655
Al15 Al57 2.750574 1_555
Al15 Al59 2.828297 1_555
Al15 Al84 2.842296 1_555
Al15 Al43 2.870594 1_555
Al15 Al9 3.042822 1_555
Al15 Al69 3.064251 1_555
Al15 Dy7 3.071460 1_555
Al15 Dy8 3.333315 1_655
Al16 Al77 2.723347 1_555
Al16 Mo4 2.727918 1_555
Al16 Al25 2.746157 1_555
Al16 Al58 2.750574 1_555
Al16 Al57 2.828297 1_555
Al16 Al83 2.842296 1_555
Al16 Al42 2.870594 1_555
Al16 Al70 3.064251 1_555
Al16 Dy6 3.071460 1_555
Al16 Dy7 3.333315 1_555
Al17 Al77 2.723345 1_555
Al17 Mo3 2.727918 1_555
Al17 Al24 2.746157 1_555
Al17 Al59 2.750574 1_555
Al17 Al58 2.828297 1_555
Al17 Al85 2.842296 1_655
Al17 Al44 2.870594 1_655
Al17 Al71 3.064251 1_555
Al17 Dy8 3.071460 1_655
Al17 Dy6 3.333315 1_555
Al18 Al78 2.723336 1_555
Al18 Mo1 2.727918 1_555
Al18 Al28 2.746157 1_555
Al18 Al48 2.750574 1_555
Al18 Al50 2.828297 1_555
Al18 Al82 2.842296 1_655
Al18 Al47 2.870594 1_655
Al18 Al23 3.031687 1_655
Al18 Al69 3.064251 1_555
Al18 Dy11 3.071460 1_655
Al18 Dy10 3.333315 1_555
Al19 Al78 2.723347 1_555
Al19 Mo2 2.727918 1_655
Al19 Al29 2.746157 1_655
Al19 Al49 2.750574 1_555
Al19 Al48 2.828297 1_555
Al19 Al80 2.842296 1_555
Al19 Al45 2.870594 1_555
Al19 Al22 3.031687 1_555
Al19 Al71 3.064251 1_555
Al19 Dy9 3.071460 1_555
Al19 Dy11 3.333315 1_655
Al20 Al78 2.723345 1_555
Al20 Mo0 2.727918 1_555
Al20 Al27 2.746157 1_555
Al20 Al50 2.750574 1_555
Al20 Al49 2.828297 1_555
Al20 Al81 2.842296 1_555
Al20 Al46 2.870594 1_555
Al20 Al21 3.031687 1_545
Al20 Al70 3.064251 1_555
Al20 Dy10 3.071460 1_555
Al20 Dy9 3.333315 1_555
Al21 Al79 2.723336 1_555
Al21 Mo2 2.727918 1_555
Al21 Al29 2.746157 1_555
Al21 Al51 2.750574 1_555
Al21 Al53 2.828297 1_555
Al21 Al81 2.842296 1_565
Al21 Al46 2.870594 1_565
Al21 Al3 3.042822 1_555
Al21 Al66 3.064251 1_555
Al21 Dy10 3.071460 1_565
Al21 Dy11 3.333315 1_555
Al22 Al79 2.723347 1_555
Al22 Mo1 2.727918 1_565
Al22 Al28 2.746157 1_565
Al22 Al52 2.750574 1_555
Al22 Al51 2.828297 1_555
Al22 Al80 2.842296 1_555
Al22 Al45 2.870594 1_555
Al22 Al4 3.042822 1_555
Al22 Al68 3.064251 1_555
Al22 Dy9 3.071460 1_555
Al22 Dy10 3.333315 1_565
Al23 Al79 2.723345 1_555
Al23 Mo0 2.727918 1_555
Al23 Al27 2.746157 1_555
Al23 Al53 2.750574 1_555
Al23 Al52 2.828297 1_555
Al23 Al82 2.842296 1_555
Al23 Al47 2.870594 1_555
Al23 Al5 3.042822 1_555
Al23 Al67 3.064251 1_555
Al23 Dy11 3.071460 1_555
Al23 Dy9 3.333315 1_555
Al24 Mo3 2.679279 1_555
Al24 Mo7 2.680338 1_665
Al24 Al45 2.767067 1_555
Al24 Al43 2.871856 1_565
Al24 Al44 2.871856 1_655
Al24 Dy6 3.446255 1_555
Al25 Mo4 2.679279 1_555
Al25 Mo7 2.680338 1_555
Al25 Al46 2.767067 1_555
Al25 Al42 2.871856 1_555
Al25 Al44 2.871856 1_545
Al25 Dy7 3.446254 1_555
Al26 Mo5 2.679279 1_555
Al26 Mo7 2.680338 1_555
Al26 Al47 2.767067 1_555
Al26 Al42 2.871856 1_555
Al26 Al43 2.871856 1_455
Al26 Dy8 3.446254 1_555
Al27 Mo0 2.679279 1_555
Al27 Mo7 2.680338 1_555
Al27 Al42 2.767067 1_555
Al27 Al47 2.871856 1_555
Al27 Al46 2.871856 1_555
Al27 Dy9 3.446255 1_555
Al28 Mo1 2.679279 1_555
Al28 Mo7 2.680338 1_655
Al28 Al43 2.767067 1_555
Al28 Al45 2.871856 1_545
Al28 Al47 2.871856 1_655
Al28 Dy10 3.446254 1_555
Al29 Mo2 2.679279 1_555
Al29 Mo7 2.680338 1_565
Al29 Al44 2.767067 1_555
Al29 Al45 2.871856 1_455
Al29 Al46 2.871856 1_565
Al29 Dy11 3.446254 1_555
Al30 Mo0 2.679279 1_555
Al30 Mo6 2.680338 1_556
Al30 Al5 2.746157 1_555
Al30 Al39 2.767067 1_556
Al30 Al37 2.871856 1_555
Al30 Al38 2.871856 1_555
Al30 Dy0 3.446255 1_555
Al31 Mo1 2.679279 1_555
Al31 Mo6 2.680338 1_656
Al31 Al4 2.746157 1_545
Al31 Al40 2.767067 1_556
Al31 Al36 2.871856 1_545
Al31 Al38 2.871856 1_655
Al31 Dy1 3.446254 1_555
Al32 Mo2 2.679279 1_555
Al32 Mo6 2.680338 1_566
Al32 Al41 2.767067 1_556
Al32 Al36 2.871856 1_455
Al32 Al37 2.871856 1_565
Al32 Dy2 3.446254 1_555
Al33 Mo3 2.679279 1_555
Al33 Mo6 2.680338 1_665
Al33 Al8 2.746157 1_555
Al33 Al36 2.767067 1_554
Al33 Al40 2.871856 1_565
Al33 Al41 2.871856 1_655
Al33 Dy3 3.446255 1_555
Al34 Mo4 2.679279 1_555
Al34 Mo6 2.680338 1_555
Al34 Al6 2.746157 1_545
Al34 Al37 2.767067 1_554
Al34 Al39 2.871856 1_555
Al34 Al41 2.871856 1_545
Al34 Dy4 3.446254 1_555
Al35 Mo5 2.679279 1_555
Al35 Mo6 2.680338 1_555
Al35 Al9 2.746157 1_455
Al35 Al7 2.746157 1_555
Al35 Al38 2.767067 1_554
Al35 Al39 2.871856 1_555
Al35 Al40 2.871856 1_455
Al35 Dy5 3.446254 1_555
Al36 Al61 2.750223 1_556
Al36 Al64 2.750223 1_556
Al36 Mo6 2.860284 1_666
Al36 Al4 2.870594 1_555
Al36 Al40 3.008222 1_566
Al36 Al41 3.008222 1_656
Al36 Dy3 3.249839 1_556
Al36 Dy0 3.269157 1_555
Al37 Al63 2.750223 1_546
Al37 Al62 2.750223 1_556
Al37 Mo6 2.860284 1_556
Al37 Al39 3.008222 1_556
Al37 Al41 3.008223 1_546
Al37 Dy4 3.249839 1_556
Al37 Dy1 3.269156 1_555
Al38 Al60 2.750223 1_456
Al38 Al65 2.750223 1_556
Al38 Mo6 2.860284 1_556
Al38 Al5 2.870594 1_555
Al38 Al39 3.008222 1_556
Al38 Al40 3.008223 1_456
Al38 Dy5 3.249839 1_556
Al38 Dy2 3.269156 1_555
Al39 Al65 2.750223 1_555
Al39 Al62 2.750223 1_555
Al39 Mo6 2.860284 1_555
Al39 Al7 2.870594 1_555
Al39 Dy0 3.249839 1_554
Al39 Dy3 3.269157 1_555
Al40 Al60 2.750223 1_555
Al40 Al64 2.750223 1_545
Al40 Mo6 2.860284 1_655
Al40 Al9 2.870594 1_555
Al40 Al8 2.870594 1_545
Al40 Dy1 3.249839 1_554
Al40 Dy4 3.269156 1_555
Al41 Al63 2.750223 1_555
Al41 Al61 2.750223 1_455
Al41 Mo6 2.860284 1_565
Al41 Al6 2.870594 1_555
Al41 Dy2 3.249839 1_554
Al41 Dy5 3.269156 1_555
Al42 Al67 2.750223 1_555
Al42 Al70 2.750223 1_555
Al42 Mo7 2.860284 1_555
Al42 Al46 3.008222 1_555
Al42 Al47 3.008222 1_555
Al42 Dy9 3.249839 1_555
Al42 Dy6 3.269157 1_555
Al43 Al69 2.750223 1_555
Al43 Al68 2.750223 1_545
Al43 Mo7 2.860284 1_655
Al43 Al45 3.008222 1_545
Al43 Al47 3.008223 1_655
Al43 Dy10 3.249839 1_555
Al43 Dy7 3.269156 1_555
Al44 Al66 2.750223 1_555
Al44 Al71 2.750223 1_455
Al44 Mo7 2.860284 1_565
Al44 Al45 3.008222 1_455
Al44 Al46 3.008223 1_565
Al44 Dy11 3.249839 1_555
Al44 Dy8 3.269156 1_555
Al45 Al71 2.750223 1_555
Al45 Al68 2.750223 1_555
Al45 Mo7 2.860284 1_665
Al45 Dy6 3.249839 1_555
Al45 Dy9 3.269157 1_555
Al46 Al66 2.750223 1_545
Al46 Al70 2.750223 1_555
Al46 Mo7 2.860284 1_555
Al46 Dy7 3.249839 1_555
Al46 Dy10 3.269156 1_555
Al47 Al69 2.750223 1_455
Al47 Al67 2.750223 1_555
Al47 Mo7 2.860284 1_555
Al47 Dy8 3.249839 1_555
Al47 Dy11 3.269156 1_555
Al48 Mo2 2.691320 1_655
Al48 Al78 2.824761 1_555
Al48 Al72 2.824761 1_555
Al48 Dy11 3.070004 1_655
Al48 Dy2 3.070004 1_655
Al49 Mo0 2.691320 1_555
Al49 Al78 2.824766 1_555
Al49 Al72 2.824766 1_555
Al49 Dy9 3.070004 1_555
Al49 Dy0 3.070004 1_555
Al50 Mo1 2.691319 1_555
Al50 Al78 2.824760 1_555
Al50 Al72 2.824760 1_555
Al50 Dy1 3.070004 1_555
Al50 Dy10 3.070004 1_555
Al51 Mo1 2.691320 1_565
Al51 Al73 2.824761 1_555
Al51 Al79 2.824761 1_555
Al51 Dy1 3.070004 1_565
Al51 Dy10 3.070004 1_565
Al52 Mo0 2.691320 1_555
Al52 Al73 2.824766 1_555
Al52 Al79 2.824766 1_555
Al52 Dy0 3.070004 1_555
Al52 Dy9 3.070004 1_555
Al53 Mo2 2.691319 1_555
Al53 Al79 2.824760 1_555
Al53 Al73 2.824760 1_555
Al53 Dy2 3.070004 1_555
Al53 Dy11 3.070004 1_555
Al54 Mo5 2.691320 1_555
Al54 Al6 2.750574 1_555
Al54 Al76 2.824761 1_555
Al54 Al74 2.824761 1_555
Al54 Al7 2.828297 1_555
Al54 Dy8 3.070004 1_555
Al54 Dy5 3.070004 1_555
Al55 Mo3 2.691320 1_555
Al55 Al7 2.750574 1_555
Al55 Al76 2.824766 1_555
Al55 Al74 2.824766 1_555
Al55 Al8 2.828297 1_555
Al55 Dy6 3.070004 1_555
Al55 Dy3 3.070004 1_555
Al56 Mo4 2.691319 1_565
Al56 Al8 2.750574 1_555
Al56 Al76 2.824760 1_555
Al56 Al74 2.824760 1_555
Al56 Al6 2.828297 1_555
Al56 Dy7 3.070004 1_565
Al56 Dy4 3.070004 1_565
Al57 Mo4 2.691320 1_555
Al57 Al9 2.750574 1_555
Al57 Al77 2.824761 1_555
Al57 Al75 2.824761 1_555
Al57 Dy7 3.070004 1_555
Al57 Dy4 3.070004 1_555
Al58 Mo3 2.691320 1_555
Al58 Al77 2.824766 1_555
Al58 Al75 2.824766 1_555
Al58 Dy6 3.070004 1_555
Al58 Dy3 3.070004 1_555
Al59 Mo5 2.691319 1_655
Al59 Al77 2.824760 1_555
Al59 Al75 2.824760 1_555
Al59 Al9 2.828297 1_555
Al59 Dy5 3.070004 1_655
Al59 Dy8 3.070004 1_655
Al60 Al72 2.768481 1_554
Al60 Al75 2.768481 1_555
Al60 Al61 2.860103 1_555
Al60 Al62 2.860103 1_555
Al60 Al9 3.064251 1_555
Al60 Dy5 3.097974 1_655
Al60 Dy1 3.097974 1_554
Al60 Dy2 3.399810 1_654
Al60 Dy4 3.399810 1_555
Al61 Al72 2.768487 1_554
Al61 Al75 2.768487 1_555
Al61 Al62 2.860103 1_555
Al61 Dy3 3.097974 1_555
Al61 Dy2 3.097974 1_654
Al61 Dy5 3.399810 1_655
Al61 Dy0 3.399810 1_554
Al62 Al72 2.768487 1_554
Al62 Al75 2.768487 1_555
Al62 Dy0 3.097974 1_554
Al62 Dy4 3.097974 1_555
Al62 Dy1 3.399810 1_554
Al62 Dy3 3.399810 1_555
Al63 Al73 2.768481 1_554
Al63 Al74 2.768481 1_555
Al63 Al64 2.860103 1_555
Al63 Al65 2.860103 1_555
Al63 Dy4 3.097974 1_565
Al63 Dy2 3.097974 1_554
Al63 Dy1 3.399810 1_564
Al63 Dy5 3.399810 1_555
Al64 Al73 2.768487 1_554
Al64 Al74 2.768487 1_555
Al64 Al65 2.860103 1_555
Al64 Al8 3.064251 1_555
Al64 Dy3 3.097974 1_555
Al64 Dy1 3.097974 1_564
Al64 Dy4 3.399810 1_565
Al64 Dy0 3.399810 1_554
Al65 Al73 2.768487 1_554
Al65 Al74 2.768487 1_555
Al65 Al7 3.064251 1_555
Al65 Dy0 3.097974 1_554
Al65 Dy5 3.097974 1_555
Al65 Dy2 3.399810 1_554
Al65 Dy3 3.399810 1_555
Al66 Al79 2.768481 1_555
Al66 Al76 2.768481 1_555
Al66 Al68 2.860103 1_555
Al66 Al67 2.860103 1_555
Al66 Dy7 3.097974 1_565
Al66 Dy11 3.097974 1_555
Al66 Dy10 3.399810 1_565
Al66 Dy8 3.399810 1_555
Al67 Al79 2.768487 1_555
Al67 Al76 2.768487 1_555
Al67 Al68 2.860103 1_555
Al67 Dy9 3.097974 1_555
Al67 Dy8 3.097974 1_555
Al67 Dy11 3.399810 1_555
Al67 Dy6 3.399810 1_555
Al68 Al79 2.768487 1_555
Al68 Al76 2.768487 1_555
Al68 Dy6 3.097974 1_555
Al68 Dy10 3.097974 1_565
Al68 Dy7 3.399810 1_565
Al68 Dy9 3.399810 1_555
Al69 Al78 2.768481 1_555
Al69 Al77 2.768481 1_555
Al69 Al71 2.860103 1_555
Al69 Al70 2.860103 1_555
Al69 Dy10 3.097974 1_555
Al69 Dy8 3.097974 1_655
Al69 Dy11 3.399810 1_655
Al69 Dy7 3.399810 1_555
Al70 Al78 2.768487 1_555
Al70 Al77 2.768487 1_555
Al70 Al71 2.860103 1_555
Al70 Dy9 3.097974 1_555
Al70 Dy7 3.097974 1_555
Al70 Dy10 3.399810 1_555
Al70 Dy6 3.399810 1_555
Al71 Al78 2.768487 1_555
Al71 Al77 2.768487 1_555
Al71 Dy6 3.097974 1_555
Al71 Dy11 3.097974 1_655
Al71 Dy8 3.399810 1_655
Al71 Dy9 3.399810 1_555
Al72 Dy1 3.257732 1_555
Al72 Dy2 3.257733 1_655
Al72 Dy0 3.257742 1_555
Al73 Dy2 3.257732 1_555
Al73 Dy1 3.257733 1_565
Al73 Dy0 3.257742 1_555
Al74 Al8 2.723345 1_555
Al74 Dy4 3.257732 1_565
Al74 Dy5 3.257733 1_555
Al74 Dy3 3.257742 1_555
Al75 Al9 2.723336 1_555
Al75 Dy5 3.257732 1_655
Al75 Dy4 3.257733 1_555
Al75 Dy3 3.257742 1_555
Al76 Dy7 3.257732 1_565
Al76 Dy8 3.257733 1_555
Al76 Dy6 3.257742 1_555
Al77 Dy8 3.257732 1_655
Al77 Dy7 3.257733 1_555
Al77 Dy6 3.257742 1_555
Al78 Dy10 3.257732 1_555
Al78 Dy11 3.257733 1_655
Al78 Dy9 3.257742 1_555
Al79 Dy11 3.257732 1_555
Al79 Dy10 3.257733 1_565
Al79 Dy9 3.257742 1_555
Al80 Mo1 2.595293 1_565
Al80 Mo2 2.595293 1_655
Al81 Mo0 2.595293 1_555
Al81 Mo2 2.595293 1_545
Al82 Mo0 2.595293 1_555
Al82 Mo1 2.595293 1_455
Al83 Mo5 2.595293 1_555
Al83 Mo4 2.595293 1_555
Al84 Mo3 2.595293 1_545
Al84 Mo5 2.595293 1_655
Al84 Al9 2.842296 1_555
Al85 Mo3 2.595293 1_455
Al85 Mo4 2.595293 1_565
