# generated using pymatgen
data_Na2Cu(NO3)4
_symmetry_space_group_name_H-M   'P 1'
_cell_length_a   7.74947300
_cell_length_b   7.03978400
_cell_length_c   9.07519999
_cell_angle_alpha   89.87387620
_cell_angle_beta   90.00000000
_cell_angle_gamma   90.00000000
_symmetry_Int_Tables_number   1
_chemical_formula_structural   Na2Cu(NO3)4
_chemical_formula_sum   'Na4 Cu2 N8 O24'
_cell_volume   495.09285123
_cell_formula_units_Z   2
loop_
 _symmetry_equiv_pos_site_id
 _symmetry_equiv_pos_as_xyz
  1  'x, y, z'
loop_
 _atom_site_type_symbol
 _atom_site_label
 _atom_site_symmetry_multiplicity
 _atom_site_fract_x
 _atom_site_fract_y
 _atom_site_fract_z
 _atom_site_occupancy
  Na  Na0  1  0.94418000  0.72384600  0.38529300  1
  Na  Na1  1  0.44418000  0.27615400  0.11470700  1
  Na  Na2  1  0.05582000  0.27615400  0.61470700  1
  Na  Na3  1  0.55582000  0.72384600  0.88529300  1
  Cu  Cu0  1  0.50000000  0.00000000  0.50000000  1
  Cu  Cu1  1  0.00000000  0.00000000  0.00000000  1
  N  N0  1  0.60335500  0.85165300  0.22832500  1
  N  N1  1  0.10335500  0.14834700  0.27167500  1
  N  N2  1  0.39664500  0.14834700  0.77167500  1
  N  N3  1  0.89664500  0.85165300  0.72832500  1
  N  N4  1  0.70928700  0.31005300  0.44101400  1
  N  N5  1  0.20928700  0.68994700  0.05898600  1
  N  N6  1  0.29071300  0.68994700  0.55898600  1
  N  N7  1  0.79071300  0.31005300  0.94101400  1
  O  O0  1  0.64693300  0.84535800  0.36784200  1
  O  O1  1  0.14693300  0.15464200  0.13215800  1
  O  O2  1  0.35306700  0.15464200  0.63215800  1
  O  O3  1  0.85306700  0.84535800  0.86784200  1
  O  O4  1  0.69261800  0.75764700  0.14110800  1
  O  O5  1  0.19261800  0.24235300  0.35889200  1
  O  O6  1  0.30738200  0.24235300  0.85889200  1
  O  O7  1  0.80738200  0.75764700  0.64110800  1
  O  O8  1  0.97640800  0.05013000  0.30948800  1
  O  O9  1  0.47640800  0.94987000  0.19051200  1
  O  O10  1  0.02359200  0.94987000  0.69051200  1
  O  O11  1  0.52359200  0.05013000  0.80948800  1
  O  O12  1  0.70197400  0.17314800  0.53817500  1
  O  O13  1  0.20197400  0.82685200  0.96182500  1
  O  O14  1  0.29802600  0.82685200  0.46182500  1
  O  O15  1  0.79802600  0.17314800  0.03817500  1
  O  O16  1  0.16016400  0.58559500  0.55543500  1
  O  O17  1  0.66016400  0.41440500  0.94456500  1
  O  O18  1  0.83983600  0.41440500  0.44456500  1
  O  O19  1  0.33983600  0.58559500  0.05543500  1
  O  O20  1  0.08895200  0.67013400  0.14864800  1
  O  O21  1  0.58895200  0.32986600  0.35135200  1
  O  O22  1  0.91104800  0.32986600  0.85135200  1
  O  O23  1  0.41104800  0.67013400  0.64864800  1
loop_
_geom_bond_atom_site_label_1
_geom_bond_atom_site_label_2
_geom_bond_distance
_geom_bond_site_symmetry_2
Na0 O18 2.383999 1_555
Na0 O8 2.409306 1_565
Na0 O20 2.453042 1_655
Na0 O0 2.462189 1_555
Na0 O16 2.475127 1_655
Na0 O7 2.563706 1_555
Na1 O19 2.383999 1_555
Na1 O9 2.409306 1_545
Na1 O21 2.453042 1_555
Na1 O1 2.462189 1_555
Na1 O17 2.475127 1_554
Na1 O6 2.563706 1_554
Na2 O16 2.383999 1_555
Na2 O10 2.409306 1_545
Na2 O22 2.453042 1_455
Na2 O2 2.462189 1_555
Na2 O18 2.475127 1_455
Na2 O5 2.563706 1_555
Na3 O17 2.383999 1_555
Na3 O11 2.409306 1_565
Na3 O23 2.453042 1_555
Na3 O3 2.462189 1_555
Na3 O19 2.475127 1_556
Na3 O4 2.563706 1_556
Cu0 O0 1.981387 1_545
Cu0 O2 1.981387 1_555
Cu0 O12 2.014320 1_555
Cu0 O14 2.014320 1_545
Cu1 O3 1.981387 1_444
Cu1 O1 1.981387 1_555
Cu1 O13 2.014320 1_544
Cu1 O15 2.014320 1_455
N0 O4 1.243084 1_555
N0 O9 1.250037 1_555
N0 O0 1.311062 1_555
N1 O5 1.243084 1_555
N1 O8 1.250037 1_455
N1 O1 1.311062 1_555
N2 O6 1.243084 1_555
N2 O11 1.250037 1_555
N2 O2 1.311062 1_555
N3 O7 1.243084 1_555
N3 O10 1.250037 1_655
N3 O3 1.311062 1_555
N4 O21 1.245263 1_555
N4 O18 1.250724 1_555
N4 O12 1.306077 1_555
N5 O20 1.245263 1_555
N5 O19 1.250724 1_555
N5 O13 1.306077 1_554
N6 O23 1.245263 1_555
N6 O16 1.250724 1_555
N6 O14 1.306077 1_555
N7 O22 1.245263 1_555
N7 O17 1.250724 1_555
N7 O15 1.306077 1_556
