# generated using pymatgen
data_InBi3
_symmetry_space_group_name_H-M   'P 1'
_cell_length_a   9.44140241
_cell_length_b   9.44140241
_cell_length_c   17.35612800
_cell_angle_alpha   90.00000000
_cell_angle_beta   90.00000000
_cell_angle_gamma   138.83833613
_symmetry_Int_Tables_number   1
_chemical_formula_structural   InBi3
_chemical_formula_sum   'In8 Bi24'
_cell_volume   1018.29689853
_cell_formula_units_Z   8
loop_
 _symmetry_equiv_pos_site_id
 _symmetry_equiv_pos_as_xyz
  1  'x, y, z'
loop_
 _atom_site_type_symbol
 _atom_site_label
 _atom_site_symmetry_multiplicity
 _atom_site_fract_x
 _atom_site_fract_y
 _atom_site_fract_z
 _atom_site_occupancy
  In  In0_0  1  0.25000000  0.25000000  0.00000000  1
  In  In0_1  1  0.25000000  0.25000000  0.50000000  1
  In  In0_2  1  0.25000000  0.75000000  0.00000000  1
  In  In0_3  1  0.25000000  0.75000000  0.50000000  1
  In  In0_4  1  0.75000000  0.25000000  0.00000000  1
  In  In0_5  1  0.75000000  0.25000000  0.50000000  1
  In  In0_6  1  0.75000000  0.75000000  0.00000000  1
  In  In0_7  1  0.75000000  0.75000000  0.50000000  1
  Bi  Bi0_0  1  0.00000000  0.00000000  0.25000000  1
  Bi  Bi0_1  1  0.00000000  0.00000000  0.75000000  1
  Bi  Bi0_2  1  0.00000000  0.50000000  0.25000000  1
  Bi  Bi0_3  1  0.00000000  0.50000000  0.75000000  1
  Bi  Bi0_4  1  0.50000000  0.00000000  0.25000000  1
  Bi  Bi0_5  1  0.50000000  0.00000000  0.75000000  1
  Bi  Bi0_6  1  0.50000000  0.50000000  0.25000000  1
  Bi  Bi0_7  1  0.50000000  0.50000000  0.75000000  1
  Bi  Bi1_0  1  0.00000000  0.25000000  0.38027501  1
  Bi  Bi1_1  1  0.00000000  0.25000000  0.88027500  1
  Bi  Bi1_2  1  0.00000000  0.75000000  0.38027501  1
  Bi  Bi1_3  1  0.00000000  0.75000000  0.88027500  1
  Bi  Bi1_4  1  0.50000000  0.25000000  0.38027501  1
  Bi  Bi1_5  1  0.50000000  0.25000000  0.88027500  1
  Bi  Bi1_6  1  0.50000000  0.75000000  0.38027501  1
  Bi  Bi1_7  1  0.50000000  0.75000000  0.88027500  1
  Bi  Bi2_0  1  0.25000000  0.00000000  0.11972500  1
  Bi  Bi2_1  1  0.25000000  0.00000000  0.61972500  1
  Bi  Bi2_2  1  0.25000000  0.50000000  0.11972500  1
  Bi  Bi2_3  1  0.25000000  0.50000000  0.61972500  1
  Bi  Bi2_4  1  0.75000000  0.00000000  0.11972500  1
  Bi  Bi2_5  1  0.75000000  0.00000000  0.61972500  1
  Bi  Bi2_6  1  0.75000000  0.50000000  0.11972500  1
  Bi  Bi2_7  1  0.75000000  0.50000000  0.61972500  1
loop_
_geom_bond_atom_site_label_1
_geom_bond_atom_site_label_2
_geom_bond_distance
_geom_bond_site_symmetry_2
In0_0 In0_6 3.318922 1_445
In0_0 In0_6 3.318922 1_555
In0_1 In0_7 3.318922 1_555
In0_1 In0_7 3.318922 1_445
In0_2 In0_4 3.318922 1_565
In0_2 In0_4 3.318922 1_455
In0_3 In0_5 3.318922 1_455
In0_3 In0_5 3.318922 1_565
Bi0_0 Bi2_0 3.268592 1_555
Bi0_0 Bi2_4 3.268592 1_455
Bi0_0 Bi1_2 3.268592 1_545
Bi0_0 Bi1_0 3.268592 1_555
Bi0_0 Bi0_6 3.318922 1_555
Bi0_0 Bi0_6 3.318922 1_445
Bi0_1 Bi1_1 3.268592 1_555
Bi0_1 Bi2_5 3.268592 1_455
Bi0_1 Bi2_1 3.268592 1_555
Bi0_1 Bi1_3 3.268592 1_545
Bi0_1 Bi0_7 3.318922 1_555
Bi0_1 Bi0_7 3.318922 1_445
Bi0_2 Bi2_2 3.268592 1_555
Bi0_2 Bi2_6 3.268592 1_455
Bi0_2 Bi1_2 3.268592 1_555
Bi0_2 Bi1_0 3.268592 1_555
Bi0_2 Bi0_4 3.318922 1_455
Bi0_2 Bi0_4 3.318922 1_565
Bi0_3 Bi2_3 3.268592 1_555
Bi0_3 Bi1_1 3.268592 1_555
Bi0_3 Bi1_3 3.268592 1_555
Bi0_3 Bi2_7 3.268592 1_455
Bi0_3 Bi0_5 3.318922 1_565
Bi0_3 Bi0_5 3.318922 1_455
Bi0_4 Bi2_4 3.268592 1_555
Bi0_4 Bi2_0 3.268592 1_555
Bi0_4 Bi1_6 3.268592 1_545
Bi0_4 Bi1_4 3.268592 1_555
Bi0_5 Bi2_5 3.268592 1_555
Bi0_5 Bi1_5 3.268592 1_555
Bi0_5 Bi1_7 3.268592 1_545
Bi0_5 Bi2_1 3.268592 1_555
Bi0_6 Bi2_2 3.268592 1_555
Bi0_6 Bi2_6 3.268592 1_555
Bi0_6 Bi1_4 3.268592 1_555
Bi0_6 Bi1_6 3.268592 1_555
Bi0_7 Bi1_5 3.268592 1_555
Bi0_7 Bi2_3 3.268592 1_555
Bi0_7 Bi2_7 3.268592 1_555
Bi0_7 Bi1_7 3.268592 1_555
Bi1_0 In0_5 3.144707 1_455
Bi1_0 In0_1 3.144707 1_555
Bi1_0 Bi1_6 3.318922 1_555
Bi1_0 Bi1_6 3.318922 1_445
Bi1_1 In0_0 3.144707 1_556
Bi1_1 In0_4 3.144707 1_456
Bi1_1 Bi1_7 3.318922 1_555
Bi1_1 Bi1_7 3.318922 1_445
Bi1_2 In0_3 3.144707 1_555
Bi1_2 In0_7 3.144707 1_455
Bi1_2 Bi1_4 3.318922 1_565
Bi1_2 Bi1_4 3.318922 1_455
Bi1_3 In0_6 3.144707 1_456
Bi1_3 In0_2 3.144707 1_556
Bi1_3 Bi1_5 3.318922 1_455
Bi1_3 Bi1_5 3.318922 1_565
Bi1_4 In0_5 3.144707 1_555
Bi1_4 In0_1 3.144707 1_555
Bi1_5 In0_0 3.144707 1_556
Bi1_5 In0_4 3.144707 1_556
Bi1_6 In0_3 3.144707 1_555
Bi1_6 In0_7 3.144707 1_555
Bi1_7 In0_2 3.144707 1_556
Bi1_7 In0_6 3.144707 1_556
Bi2_0 In0_0 3.144707 1_555
Bi2_0 In0_2 3.144707 1_545
Bi2_0 Bi2_6 3.318922 1_445
Bi2_0 Bi2_6 3.318922 1_555
Bi2_1 In0_1 3.144707 1_555
Bi2_1 In0_3 3.144707 1_545
Bi2_1 Bi2_7 3.318922 1_555
Bi2_1 Bi2_7 3.318922 1_445
Bi2_2 In0_0 3.144707 1_555
Bi2_2 In0_2 3.144707 1_555
Bi2_2 Bi2_4 3.318922 1_455
Bi2_2 Bi2_4 3.318922 1_565
Bi2_3 In0_1 3.144707 1_555
Bi2_3 In0_3 3.144707 1_555
Bi2_3 Bi2_5 3.318922 1_565
Bi2_3 Bi2_5 3.318922 1_455
Bi2_4 In0_6 3.144707 1_545
Bi2_4 In0_4 3.144707 1_555
Bi2_5 In0_7 3.144707 1_545
Bi2_5 In0_5 3.144707 1_555
Bi2_6 In0_4 3.144707 1_555
Bi2_6 In0_6 3.144707 1_555
Bi2_7 In0_7 3.144707 1_555
Bi2_7 In0_5 3.144707 1_555
