# generated using pymatgen
data_CsMg6Mo
_symmetry_space_group_name_H-M   'P 1'
_cell_length_a   14.54765209
_cell_length_b   14.54765209
_cell_length_c   7.83302800
_cell_angle_alpha   90.00000000
_cell_angle_beta   90.00000000
_cell_angle_gamma   90.20487091
_symmetry_Int_Tables_number   1
_chemical_formula_structural   CsMg6Mo
_chemical_formula_sum   'Cs8 Mg48 Mo8'
_cell_volume   1657.72586969
_cell_formula_units_Z   8
loop_
 _symmetry_equiv_pos_site_id
 _symmetry_equiv_pos_as_xyz
  1  'x, y, z'
loop_
 _atom_site_type_symbol
 _atom_site_label
 _atom_site_symmetry_multiplicity
 _atom_site_fract_x
 _atom_site_fract_y
 _atom_site_fract_z
 _atom_site_occupancy
  Cs  Cs0_0  1  0.43626350  0.06373650  0.25000000  1
  Cs  Cs0_1  1  0.43626350  0.06373650  0.75000000  1
  Cs  Cs0_2  1  0.43626350  0.56373650  0.25000000  1
  Cs  Cs0_3  1  0.43626350  0.56373650  0.75000000  1
  Cs  Cs0_4  1  0.93626350  0.06373650  0.25000000  1
  Cs  Cs0_5  1  0.93626350  0.06373650  0.75000000  1
  Cs  Cs0_6  1  0.93626350  0.56373650  0.25000000  1
  Cs  Cs0_7  1  0.93626350  0.56373650  0.75000000  1
  Mg  Mg0_0  1  0.18687200  0.05919900  0.25000000  1
  Mg  Mg0_1  1  0.18687200  0.05919900  0.75000000  1
  Mg  Mg0_2  1  0.18687200  0.55919900  0.25000000  1
  Mg  Mg0_3  1  0.18687200  0.55919900  0.75000000  1
  Mg  Mg0_4  1  0.68687200  0.05919900  0.25000000  1
  Mg  Mg0_5  1  0.68687200  0.05919900  0.75000000  1
  Mg  Mg0_6  1  0.68687200  0.55919900  0.25000000  1
  Mg  Mg0_7  1  0.68687200  0.55919900  0.75000000  1
  Mg  Mg1_0  1  0.44080100  0.31312800  0.25000000  1
  Mg  Mg1_1  1  0.44080100  0.31312800  0.75000000  1
  Mg  Mg1_2  1  0.44080100  0.81312800  0.25000000  1
  Mg  Mg1_3  1  0.44080100  0.81312800  0.75000000  1
  Mg  Mg1_4  1  0.94080100  0.31312800  0.25000000  1
  Mg  Mg1_5  1  0.94080100  0.31312800  0.75000000  1
  Mg  Mg1_6  1  0.94080100  0.81312800  0.25000000  1
  Mg  Mg1_7  1  0.94080100  0.81312800  0.75000000  1
  Mg  Mg2_0  1  0.08865250  0.21211100  0.00000000  1
  Mg  Mg2_1  1  0.08865250  0.21211100  0.50000000  1
  Mg  Mg2_2  1  0.08865250  0.71211100  0.00000000  1
  Mg  Mg2_3  1  0.08865250  0.71211100  0.50000000  1
  Mg  Mg2_4  1  0.58865250  0.21211100  0.00000000  1
  Mg  Mg2_5  1  0.58865250  0.21211100  0.50000000  1
  Mg  Mg2_6  1  0.58865250  0.71211100  0.00000000  1
  Mg  Mg2_7  1  0.58865250  0.71211100  0.50000000  1
  Mg  Mg3_0  1  0.28788900  0.41134750  0.00000000  1
  Mg  Mg3_1  1  0.28788900  0.41134750  0.50000000  1
  Mg  Mg3_2  1  0.28788900  0.91134750  0.00000000  1
  Mg  Mg3_3  1  0.28788900  0.91134750  0.50000000  1
  Mg  Mg3_4  1  0.78788900  0.41134750  0.00000000  1
  Mg  Mg3_5  1  0.78788900  0.41134750  0.50000000  1
  Mg  Mg3_6  1  0.78788900  0.91134750  0.00000000  1
  Mg  Mg3_7  1  0.78788900  0.91134750  0.50000000  1
  Mg  Mg4_0  1  0.28581400  0.21418600  0.00000000  1
  Mg  Mg4_1  1  0.28581400  0.21418600  0.50000000  1
  Mg  Mg4_2  1  0.28581400  0.71418600  0.00000000  1
  Mg  Mg4_3  1  0.28581400  0.71418600  0.50000000  1
  Mg  Mg4_4  1  0.78581400  0.21418600  0.00000000  1
  Mg  Mg4_5  1  0.78581400  0.21418600  0.50000000  1
  Mg  Mg4_6  1  0.78581400  0.71418600  0.00000000  1
  Mg  Mg4_7  1  0.78581400  0.71418600  0.50000000  1
  Mg  Mg5_0  1  0.08773150  0.41226850  0.00000000  1
  Mg  Mg5_1  1  0.08773150  0.41226850  0.50000000  1
  Mg  Mg5_2  1  0.08773150  0.91226850  0.00000000  1
  Mg  Mg5_3  1  0.08773150  0.91226850  0.50000000  1
  Mg  Mg5_4  1  0.58773150  0.41226850  0.00000000  1
  Mg  Mg5_5  1  0.58773150  0.41226850  0.50000000  1
  Mg  Mg5_6  1  0.58773150  0.91226850  0.00000000  1
  Mg  Mg5_7  1  0.58773150  0.91226850  0.50000000  1
  Mo  Mo0_0  1  0.18597950  0.31402050  0.25000000  1
  Mo  Mo0_1  1  0.18597950  0.31402050  0.75000000  1
  Mo  Mo0_2  1  0.18597950  0.81402050  0.25000000  1
  Mo  Mo0_3  1  0.18597950  0.81402050  0.75000000  1
  Mo  Mo0_4  1  0.68597950  0.31402050  0.25000000  1
  Mo  Mo0_5  1  0.68597950  0.31402050  0.75000000  1
  Mo  Mo0_6  1  0.68597950  0.81402050  0.25000000  1
  Mo  Mo0_7  1  0.68597950  0.81402050  0.75000000  1
loop_
_geom_bond_atom_site_label_1
_geom_bond_atom_site_label_2
_geom_bond_distance
_geom_bond_site_symmetry_2
Cs0_0 Mg1_0 3.628425 1_555
Cs0_0 Mg0_0 3.628425 1_555
Cs0_0 Mg0_4 3.646599 1_555
Cs0_0 Mg1_2 3.646599 1_545
Cs0_0 Mg3_2 3.657093 1_545
Cs0_0 Mg3_3 3.657093 1_545
Cs0_0 Mg2_4 3.657093 1_555
Cs0_0 Mg2_5 3.657093 1_555
Cs0_0 Mg4_1 3.667387 1_555
Cs0_0 Mg4_0 3.667387 1_555
Cs0_0 Mg5_6 3.685153 1_545
Cs0_0 Mg5_7 3.685153 1_545
Cs0_0 Cs0_1 3.916514 1_554
Cs0_0 Cs0_1 3.916514 1_555
Cs0_1 Mg1_1 3.628425 1_555
Cs0_1 Mg0_1 3.628425 1_555
Cs0_1 Mg0_5 3.646599 1_555
Cs0_1 Mg1_3 3.646599 1_545
Cs0_1 Mg3_2 3.657093 1_546
Cs0_1 Mg3_3 3.657093 1_545
Cs0_1 Mg2_4 3.657093 1_556
Cs0_1 Mg2_5 3.657093 1_555
Cs0_1 Mg4_0 3.667387 1_556
Cs0_1 Mg4_1 3.667387 1_555
Cs0_1 Mg5_6 3.685153 1_546
Cs0_1 Mg5_7 3.685153 1_545
Cs0_2 Mg1_2 3.628425 1_555
Cs0_2 Mg0_2 3.628425 1_555
Cs0_2 Mg0_6 3.646599 1_555
Cs0_2 Mg1_0 3.646599 1_555
Cs0_2 Mg3_1 3.657093 1_555
Cs0_2 Mg3_0 3.657093 1_555
Cs0_2 Mg2_7 3.657093 1_555
Cs0_2 Mg2_6 3.657093 1_555
Cs0_2 Mg4_2 3.667387 1_555
Cs0_2 Mg4_3 3.667387 1_555
Cs0_2 Mg5_5 3.685153 1_555
Cs0_2 Mg5_4 3.685153 1_555
Cs0_2 Cs0_3 3.916514 1_554
Cs0_2 Cs0_3 3.916514 1_555
Cs0_3 Mg1_3 3.628425 1_555
Cs0_3 Mg0_3 3.628425 1_555
Cs0_3 Mg0_7 3.646599 1_555
Cs0_3 Mg1_1 3.646599 1_555
Cs0_3 Mg3_0 3.657093 1_556
Cs0_3 Mg3_1 3.657093 1_555
Cs0_3 Mg2_6 3.657093 1_556
Cs0_3 Mg2_7 3.657093 1_555
Cs0_3 Mg4_2 3.667387 1_556
Cs0_3 Mg4_3 3.667387 1_555
Cs0_3 Mg5_4 3.685153 1_556
Cs0_3 Mg5_5 3.685153 1_555
Cs0_4 Mg1_4 3.628425 1_555
Cs0_4 Mg0_4 3.628425 1_555
Cs0_4 Mg0_0 3.646599 1_655
Cs0_4 Mg1_6 3.646599 1_545
Cs0_4 Mg3_6 3.657093 1_545
Cs0_4 Mg3_7 3.657093 1_545
Cs0_4 Mg2_0 3.657093 1_655
Cs0_4 Mg2_1 3.657093 1_655
Cs0_4 Mg4_4 3.667387 1_555
Cs0_4 Mg4_5 3.667387 1_555
Cs0_4 Mg5_3 3.685153 1_645
Cs0_4 Mg5_2 3.685153 1_645
Cs0_4 Cs0_5 3.916514 1_554
Cs0_4 Cs0_5 3.916514 1_555
Cs0_5 Mg1_5 3.628425 1_555
Cs0_5 Mg0_5 3.628425 1_555
Cs0_5 Mg0_1 3.646599 1_655
Cs0_5 Mg1_7 3.646599 1_545
Cs0_5 Mg3_6 3.657093 1_546
Cs0_5 Mg3_7 3.657093 1_545
Cs0_5 Mg2_0 3.657093 1_656
Cs0_5 Mg2_1 3.657093 1_655
Cs0_5 Mg4_4 3.667387 1_556
Cs0_5 Mg4_5 3.667387 1_555
Cs0_5 Mg5_2 3.685153 1_646
Cs0_5 Mg5_3 3.685153 1_645
Cs0_6 Mg1_6 3.628425 1_555
Cs0_6 Mg0_6 3.628425 1_555
Cs0_6 Mg0_2 3.646599 1_655
Cs0_6 Mg1_4 3.646599 1_555
Cs0_6 Mg3_4 3.657093 1_555
Cs0_6 Mg3_5 3.657093 1_555
Cs0_6 Mg2_3 3.657093 1_655
Cs0_6 Mg2_2 3.657093 1_655
Cs0_6 Mg4_7 3.667387 1_555
Cs0_6 Mg4_6 3.667387 1_555
Cs0_6 Mg5_0 3.685153 1_655
Cs0_6 Mg5_1 3.685153 1_655
Cs0_6 Cs0_7 3.916514 1_554
Cs0_6 Cs0_7 3.916514 1_555
Cs0_7 Mg1_7 3.628425 1_555
Cs0_7 Mg0_7 3.628425 1_555
Cs0_7 Mg0_3 3.646599 1_655
Cs0_7 Mg1_5 3.646599 1_555
Cs0_7 Mg3_4 3.657093 1_556
Cs0_7 Mg3_5 3.657093 1_555
Cs0_7 Mg2_2 3.657093 1_656
Cs0_7 Mg2_3 3.657093 1_655
Cs0_7 Mg4_6 3.667387 1_556
Cs0_7 Mg4_7 3.667387 1_555
Cs0_7 Mg5_0 3.685153 1_656
Cs0_7 Mg5_1 3.685153 1_655
Mg0_0 Mg5_2 3.234459 1_545
Mg0_0 Mg5_3 3.234459 1_545
Mg0_0 Mg3_3 3.262410 1_545
Mg0_0 Mg3_2 3.262410 1_545
Mg0_0 Mg2_1 3.293569 1_555
Mg0_0 Mg2_0 3.293569 1_555
Mg0_0 Mg4_1 3.311649 1_555
Mg0_0 Mg4_0 3.311649 1_555
Mg0_1 Mg5_2 3.234459 1_546
Mg0_1 Mg5_3 3.234459 1_545
Mg0_1 Mg3_2 3.262410 1_546
Mg0_1 Mg3_3 3.262410 1_545
Mg0_1 Mg2_0 3.293569 1_556
Mg0_1 Mg2_1 3.293569 1_555
Mg0_1 Mg4_0 3.311649 1_556
Mg0_1 Mg4_1 3.311649 1_555
Mg0_2 Mg5_0 3.234459 1_555
Mg0_2 Mg5_1 3.234459 1_555
Mg0_2 Mg3_0 3.262410 1_555
Mg0_2 Mg3_1 3.262410 1_555
Mg0_2 Mg2_3 3.293569 1_555
Mg0_2 Mg2_2 3.293569 1_555
Mg0_2 Mg4_2 3.311649 1_555
Mg0_2 Mg4_3 3.311649 1_555
Mg0_3 Mg5_0 3.234459 1_556
Mg0_3 Mg5_1 3.234459 1_555
Mg0_3 Mg3_0 3.262410 1_556
Mg0_3 Mg3_1 3.262410 1_555
Mg0_3 Mg2_2 3.293569 1_556
Mg0_3 Mg2_3 3.293569 1_555
Mg0_3 Mg4_2 3.311649 1_556
Mg0_3 Mg4_3 3.311649 1_555
Mg0_4 Mg5_7 3.234459 1_545
Mg0_4 Mg5_6 3.234459 1_545
Mg0_4 Mg3_6 3.262410 1_545
Mg0_4 Mg3_7 3.262410 1_545
Mg0_4 Mg2_4 3.293569 1_555
Mg0_4 Mg2_5 3.293569 1_555
Mg0_4 Mg4_5 3.311649 1_555
Mg0_4 Mg4_4 3.311649 1_555
Mg0_5 Mg5_6 3.234459 1_546
Mg0_5 Mg5_7 3.234459 1_545
Mg0_5 Mg3_6 3.262410 1_546
Mg0_5 Mg3_7 3.262410 1_545
Mg0_5 Mg2_4 3.293569 1_556
Mg0_5 Mg2_5 3.293569 1_555
Mg0_5 Mg4_4 3.311649 1_556
Mg0_5 Mg4_5 3.311649 1_555
Mg0_6 Mg5_5 3.234459 1_555
Mg0_6 Mg5_4 3.234459 1_555
Mg0_6 Mg3_4 3.262410 1_555
Mg0_6 Mg3_5 3.262410 1_555
Mg0_6 Mg2_7 3.293569 1_555
Mg0_6 Mg2_6 3.293569 1_555
Mg0_6 Mg4_7 3.311649 1_555
Mg0_6 Mg4_6 3.311649 1_555
Mg0_7 Mg5_4 3.234459 1_556
Mg0_7 Mg5_5 3.234459 1_555
Mg0_7 Mg3_4 3.262410 1_556
Mg0_7 Mg3_5 3.262410 1_555
Mg0_7 Mg2_6 3.293569 1_556
Mg0_7 Mg2_7 3.293569 1_555
Mg0_7 Mg4_6 3.311649 1_556
Mg0_7 Mg4_7 3.311649 1_555
Mg1_0 Mg5_4 3.234459 1_555
Mg1_0 Mg5_5 3.234459 1_555
Mg1_0 Mg2_5 3.262410 1_555
Mg1_0 Mg2_4 3.262410 1_555
Mg1_0 Mg3_0 3.293569 1_555
Mg1_0 Mg3_1 3.293569 1_555
Mg1_0 Mg4_0 3.311649 1_555
Mg1_0 Mg4_1 3.311649 1_555
Mg1_1 Mg5_4 3.234459 1_556
Mg1_1 Mg5_5 3.234459 1_555
Mg1_1 Mg2_4 3.262410 1_556
Mg1_1 Mg2_5 3.262410 1_555
Mg1_1 Mg3_0 3.293569 1_556
Mg1_1 Mg3_1 3.293569 1_555
Mg1_1 Mg4_0 3.311649 1_556
Mg1_1 Mg4_1 3.311649 1_555
Mg1_2 Mg5_7 3.234459 1_555
Mg1_2 Mg5_6 3.234459 1_555
Mg1_2 Mg2_7 3.262410 1_555
Mg1_2 Mg2_6 3.262410 1_555
Mg1_2 Mg3_2 3.293569 1_555
Mg1_2 Mg3_3 3.293569 1_555
Mg1_2 Mg4_2 3.311649 1_555
Mg1_2 Mg4_3 3.311649 1_555
Mg1_3 Mg5_6 3.234459 1_556
Mg1_3 Mg5_7 3.234459 1_555
Mg1_3 Mg2_6 3.262410 1_556
Mg1_3 Mg2_7 3.262410 1_555
Mg1_3 Mg3_2 3.293569 1_556
Mg1_3 Mg3_3 3.293569 1_555
Mg1_3 Mg4_2 3.311649 1_556
Mg1_3 Mg4_3 3.311649 1_555
Mg1_4 Mg5_1 3.234459 1_655
Mg1_4 Mg5_0 3.234459 1_655
Mg1_4 Mg2_0 3.262410 1_655
Mg1_4 Mg2_1 3.262410 1_655
Mg1_4 Mg3_5 3.293569 1_555
Mg1_4 Mg3_4 3.293569 1_555
Mg1_4 Mg4_4 3.311649 1_555
Mg1_4 Mg4_5 3.311649 1_555
Mg1_5 Mg5_0 3.234459 1_656
Mg1_5 Mg5_1 3.234459 1_655
Mg1_5 Mg2_0 3.262410 1_656
Mg1_5 Mg2_1 3.262410 1_655
Mg1_5 Mg3_4 3.293569 1_556
Mg1_5 Mg3_5 3.293569 1_555
Mg1_5 Mg4_4 3.311649 1_556
Mg1_5 Mg4_5 3.311649 1_555
Mg1_6 Mg5_3 3.234459 1_655
Mg1_6 Mg5_2 3.234459 1_655
Mg1_6 Mg2_3 3.262410 1_655
Mg1_6 Mg2_2 3.262410 1_655
Mg1_6 Mg3_6 3.293569 1_555
Mg1_6 Mg3_7 3.293569 1_555
Mg1_6 Mg4_6 3.311649 1_555
Mg1_6 Mg4_7 3.311649 1_555
Mg1_7 Mg5_2 3.234459 1_656
Mg1_7 Mg5_3 3.234459 1_655
Mg1_7 Mg2_2 3.262410 1_656
Mg1_7 Mg2_3 3.262410 1_655
Mg1_7 Mg3_6 3.293569 1_556
Mg1_7 Mg3_7 3.293569 1_555
Mg1_7 Mg4_6 3.311649 1_556
Mg1_7 Mg4_7 3.311649 1_555
Mg2_0 Mo0_1 2.832386 1_554
Mg2_0 Mo0_0 2.832386 1_555
Mg2_0 Mg4_0 2.868288 1_555
Mg2_0 Mg5_0 2.911900 1_555
Mg2_1 Mo0_0 2.832386 1_555
Mg2_1 Mo0_1 2.832386 1_555
Mg2_1 Mg4_1 2.868288 1_555
Mg2_1 Mg5_1 2.911900 1_555
Mg2_2 Mo0_3 2.832386 1_554
Mg2_2 Mo0_2 2.832386 1_555
Mg2_2 Mg4_2 2.868288 1_555
Mg2_2 Mg5_2 2.911900 1_555
Mg2_3 Mo0_2 2.832386 1_555
Mg2_3 Mo0_3 2.832386 1_555
Mg2_3 Mg4_3 2.868288 1_555
Mg2_3 Mg5_3 2.911900 1_555
Mg2_4 Mo0_5 2.832386 1_554
Mg2_4 Mo0_4 2.832386 1_555
Mg2_4 Mg4_4 2.868288 1_555
Mg2_4 Mg5_4 2.911900 1_555
Mg2_5 Mo0_4 2.832386 1_555
Mg2_5 Mo0_5 2.832386 1_555
Mg2_5 Mg4_5 2.868288 1_555
Mg2_5 Mg5_5 2.911900 1_555
Mg2_6 Mo0_7 2.832386 1_554
Mg2_6 Mo0_6 2.832386 1_555
Mg2_6 Mg4_6 2.868288 1_555
Mg2_6 Mg5_6 2.911900 1_555
Mg2_7 Mo0_6 2.832386 1_555
Mg2_7 Mo0_7 2.832386 1_555
Mg2_7 Mg4_7 2.868288 1_555
Mg2_7 Mg5_7 2.911900 1_555
Mg3_0 Mo0_1 2.832386 1_554
Mg3_0 Mo0_0 2.832386 1_555
Mg3_0 Mg4_0 2.868288 1_555
Mg3_0 Mg5_0 2.911900 1_555
Mg3_1 Mo0_0 2.832386 1_555
Mg3_1 Mo0_1 2.832386 1_555
Mg3_1 Mg4_1 2.868288 1_555
Mg3_1 Mg5_1 2.911900 1_555
Mg3_2 Mo0_3 2.832386 1_554
Mg3_2 Mo0_2 2.832386 1_555
Mg3_2 Mg4_2 2.868288 1_555
Mg3_2 Mg5_2 2.911900 1_555
Mg3_3 Mo0_2 2.832386 1_555
Mg3_3 Mo0_3 2.832386 1_555
Mg3_3 Mg4_3 2.868288 1_555
Mg3_3 Mg5_3 2.911900 1_555
Mg3_4 Mo0_5 2.832386 1_554
Mg3_4 Mo0_4 2.832386 1_555
Mg3_4 Mg4_4 2.868288 1_555
Mg3_4 Mg5_4 2.911900 1_555
Mg3_5 Mo0_4 2.832386 1_555
Mg3_5 Mo0_5 2.832386 1_555
Mg3_5 Mg4_5 2.868288 1_555
Mg3_5 Mg5_5 2.911900 1_555
Mg3_6 Mo0_7 2.832386 1_554
Mg3_6 Mo0_6 2.832386 1_555
Mg3_6 Mg4_6 2.868288 1_555
Mg3_6 Mg5_6 2.911900 1_555
Mg3_7 Mo0_6 2.832386 1_555
Mg3_7 Mo0_7 2.832386 1_555
Mg3_7 Mg4_7 2.868288 1_555
Mg3_7 Mg5_7 2.911900 1_555
Mg4_0 Mo0_1 2.840518 1_554
Mg4_0 Mo0_0 2.840518 1_555
Mg4_1 Mo0_0 2.840518 1_555
Mg4_1 Mo0_1 2.840518 1_555
Mg4_2 Mo0_3 2.840518 1_554
Mg4_2 Mo0_2 2.840518 1_555
Mg4_3 Mo0_2 2.840518 1_555
Mg4_3 Mo0_3 2.840518 1_555
Mg4_4 Mo0_5 2.840518 1_554
Mg4_4 Mo0_4 2.840518 1_555
Mg4_5 Mo0_4 2.840518 1_555
Mg4_5 Mo0_5 2.840518 1_555
Mg4_6 Mo0_7 2.840518 1_554
Mg4_6 Mo0_6 2.840518 1_555
Mg4_7 Mo0_6 2.840518 1_555
Mg4_7 Mo0_7 2.840518 1_555
Mg5_0 Mo0_1 2.816922 1_554
Mg5_0 Mo0_0 2.816922 1_555
Mg5_1 Mo0_0 2.816922 1_555
Mg5_1 Mo0_1 2.816922 1_555
Mg5_2 Mo0_3 2.816922 1_554
Mg5_2 Mo0_2 2.816922 1_555
Mg5_3 Mo0_2 2.816922 1_555
Mg5_3 Mo0_3 2.816922 1_555
Mg5_4 Mo0_5 2.816922 1_554
Mg5_4 Mo0_4 2.816922 1_555
Mg5_5 Mo0_4 2.816922 1_555
Mg5_5 Mo0_5 2.816922 1_555
Mg5_6 Mo0_7 2.816922 1_554
Mg5_6 Mo0_6 2.816922 1_555
Mg5_7 Mo0_6 2.816922 1_555
Mg5_7 Mo0_7 2.816922 1_555
