# generated using pymatgen
data_MgV4Sb2(PO4)6
_symmetry_space_group_name_H-M   'P 1'
_cell_length_a   8.98499684
_cell_length_b   8.84968524
_cell_length_c   8.98304002
_cell_angle_alpha   59.68774755
_cell_angle_beta   59.03298967
_cell_angle_gamma   59.66588532
_symmetry_Int_Tables_number   1
_chemical_formula_structural   MgV4Sb2(PO4)6
_chemical_formula_sum   'Mg1 V4 Sb2 P6 O24'
_cell_volume   498.85150380
_cell_formula_units_Z   1
loop_
 _symmetry_equiv_pos_site_id
 _symmetry_equiv_pos_as_xyz
  1  'x, y, z'
loop_
 _atom_site_type_symbol
 _atom_site_label
 _atom_site_symmetry_multiplicity
 _atom_site_fract_x
 _atom_site_fract_y
 _atom_site_fract_z
 _atom_site_occupancy
  Mg  Mg0  1  0.35831167  0.74991676  0.14174718  1
  V  V0  1  0.14262679  0.14754190  0.14910279  1
  V  V1  1  0.35084736  0.35246366  0.35730181  1
  V  V2  1  0.65612024  0.64876400  0.64223332  1
  V  V3  1  0.85779308  0.85140748  0.84366323  1
  Sb  Sb0  1  0.97354659  0.00866378  0.99106803  1
  Sb  Sb1  1  0.50935346  0.49078375  0.52640878  1
  P  P0  1  0.04212749  0.75002156  0.45791402  1
  P  P1  1  0.46853800  0.03633177  0.74464508  1
  P  P2  1  0.75530067  0.46378154  0.03133096  1
  P  P3  1  0.25217493  0.56371275  0.95971977  1
  P  P4  1  0.54021880  0.93607775  0.24781519  1
  P  P5  1  0.95305723  0.25001195  0.54717765  1
  O  O0  1  0.09780650  0.30650413  0.52338245  1
  O  O1  1  0.30516780  0.57393442  0.09192967  1
  O  O2  1  0.07288772  0.90152634  0.26050081  1
  O  O3  1  0.47922281  0.10501406  0.29175075  1
  O  O4  1  0.00787161  0.81249538  0.60577430  1
  O  O5  1  0.23961387  0.59843952  0.42744038  1
  O  O6  1  0.29374727  0.01159772  0.92555618  1
  O  O7  1  0.42205163  0.23364005  0.60393925  1
  O  O8  1  0.20850015  0.39469631  0.02064951  1
  O  O9  1  0.57456524  0.48851051  0.20638255  1
  O  O10  1  0.08766826  0.75221155  0.92234432  1
  O  O11  1  0.40801002  0.92597068  0.19484149  1
  O  O12  1  0.62159936  0.00673136  0.79561139  1
  O  O13  1  0.89584986  0.26625886  0.07765829  1
  O  O14  1  0.41592456  0.57716618  0.76338873  1
  O  O15  1  0.83325384  0.60913421  0.98159921  1
  O  O16  1  0.57785098  0.74746963  0.41210099  1
  O  O17  1  0.73644637  0.92274401  0.08392488  1
  O  O18  1  0.75559352  0.41137157  0.57913548  1
  O  O19  1  0.97690465  0.19352676  0.40235452  1
  O  O20  1  0.51803481  0.89061658  0.66720157  1
  O  O21  1  0.92080296  0.08882515  0.74471337  1
  O  O22  1  0.70355323  0.49414299  0.87842623  1
  O  O23  1  0.89419967  0.68799336  0.49212285  1
loop_
_geom_bond_atom_site_label_1
_geom_bond_atom_site_label_2
_geom_bond_distance
_geom_bond_site_symmetry_2
Mg0 O11 2.127513 1_555
Mg0 O1 2.127980 1_555
Mg0 O2 2.160759 1_555
Mg0 O5 2.162285 1_555
Mg0 O9 2.174633 1_555
Mg0 O6 2.175692 1_564
O0 P5 1.499973 1_455
O0 V1 2.095530 1_555
O1 P3 1.542493 1_554
O1 V1 2.273909 1_555
O2 P0 1.577568 1_555
O2 V0 2.160450 1_565
O2 Sb0 2.570130 1_464
O3 P4 1.495546 1_545
O3 V1 2.126960 1_555
O4 P0 1.520949 1_555
O4 V3 1.952408 1_455
O5 P0 1.577813 1_555
O5 V1 2.161770 1_555
O5 Sb1 2.569438 1_555
O6 P1 1.586527 1_555
O6 V0 2.303537 1_556
O6 Sb0 2.634733 1_455
O7 P1 1.549121 1_555
O7 V1 2.202535 1_555
O7 Sb1 2.433082 1_555
O8 P3 1.495416 1_554
O8 V0 2.126725 1_555
O9 P2 1.586900 1_555
O9 V1 2.306625 1_555
O9 Sb1 2.630833 1_555
O10 P3 1.592174 1_555
O10 V3 2.140267 1_455
O10 Sb0 2.235066 1_465
O11 P4 1.541931 1_555
O11 V0 2.274126 1_565
O12 P1 1.527273 1_555
O12 V3 1.994177 1_545
O13 P2 1.549290 1_555
O13 V0 2.205189 1_655
O13 Sb0 2.431616 1_554
O14 P3 1.607479 1_555
O14 V2 2.124055 1_555
O14 Sb1 2.230777 1_555
O15 P2 1.533867 1_556
O15 V3 1.922374 1_555
O16 P4 1.592235 1_555
O16 V2 2.141041 1_555
O16 Sb1 2.236192 1_555
O17 P4 1.607464 1_555
O17 V3 2.122257 1_554
O17 Sb0 2.231493 1_564
O18 P5 1.612432 1_555
O18 V2 2.077914 1_555
O18 Sb1 2.187488 1_555
O19 P5 1.499886 1_555
O19 V0 2.096360 1_655
O20 P1 1.533799 1_565
O20 V2 1.920038 1_555
O21 P5 1.612699 1_555
O21 V3 2.079318 1_545
O21 Sb0 2.186374 1_555
O22 P2 1.527579 1_556
O22 V2 1.991639 1_555
O23 P0 1.519442 1_655
O23 V2 1.955484 1_555
