# generated using pymatgen
data_Co2Re5B4
_symmetry_space_group_name_H-M   'P 1'
_cell_length_a   5.38106648
_cell_length_b   5.38106648
_cell_length_c   8.09738000
_cell_angle_alpha   90.00000000
_cell_angle_beta   90.00000000
_cell_angle_gamma   90.02594505
_symmetry_Int_Tables_number   1
_chemical_formula_structural   Co2Re5B4
_chemical_formula_sum   'Co4 Re10 B8'
_cell_volume   234.46671085
_cell_formula_units_Z   2
loop_
 _symmetry_equiv_pos_site_id
 _symmetry_equiv_pos_as_xyz
  1  'x, y, z'
loop_
 _atom_site_type_symbol
 _atom_site_label
 _atom_site_symmetry_multiplicity
 _atom_site_fract_x
 _atom_site_fract_y
 _atom_site_fract_z
 _atom_site_occupancy
  Co  Co0  1  0.00000000  0.50000000  0.50000000  1
  Co  Co1  1  0.50000000  0.00000000  0.50000000  1
  Co  Co2  1  0.83824000  0.83824000  0.00000000  1
  Co  Co3  1  0.16176000  0.16176000  0.00000000  1
  Re  Re0  1  0.67721800  0.67721800  0.71720000  1
  Re  Re1  1  0.32278200  0.32278200  0.71720000  1
  Re  Re2  1  0.82655700  0.17344300  0.71603100  1
  Re  Re3  1  0.17344300  0.82655700  0.71603100  1
  Re  Re4  1  0.32278200  0.32278200  0.28280000  1
  Re  Re5  1  0.67721800  0.67721800  0.28280000  1
  Re  Re6  1  0.17344300  0.82655700  0.28396900  1
  Re  Re7  1  0.82655700  0.17344300  0.28396900  1
  Re  Re8  1  0.66450300  0.33549700  0.00000000  1
  Re  Re9  1  0.33549700  0.66450300  0.00000000  1
  B  B0  1  0.87690700  0.87690700  0.50000000  1
  B  B1  1  0.12309300  0.12309300  0.50000000  1
  B  B2  1  0.62054500  0.37945500  0.50000000  1
  B  B3  1  0.37945500  0.62054500  0.50000000  1
  B  B4  1  0.00000000  0.50000000  0.86391700  1
  B  B5  1  0.50000000  0.00000000  0.86391700  1
  B  B6  1  0.00000000  0.50000000  0.13608300  1
  B  B7  1  0.50000000  0.00000000  0.13608300  1
loop_
_geom_bond_atom_site_label_1
_geom_bond_atom_site_label_2
_geom_bond_distance
_geom_bond_site_symmetry_2
B0 B1 1.873046 1_665
B0 Co1 2.133868 1_565
B0 Co0 2.133868 1_655
B0 Re0 2.324098 1_555
B0 Re5 2.324098 1_555
B0 Re7 2.383273 1_565
B0 Re2 2.383273 1_565
B0 Re3 2.383273 1_655
B0 Re6 2.383273 1_655
B1 Co0 2.133868 1_555
B1 Co1 2.133868 1_555
B1 Re1 2.324098 1_555
B1 Re4 2.324098 1_555
B1 Re6 2.383273 1_545
B1 Re3 2.383273 1_545
B1 Re2 2.383273 1_455
B1 Re7 2.383273 1_455
B2 B3 1.835105 1_555
B2 Co0 2.142150 1_655
B2 Co1 2.142150 1_555
B2 Re2 2.349243 1_555
B2 Re7 2.349243 1_555
B2 Re0 2.398556 1_555
B2 Re1 2.398556 1_555
B2 Re5 2.398556 1_555
B2 Re4 2.398556 1_555
B3 Co1 2.142150 1_565
B3 Co0 2.142150 1_555
B3 Re3 2.349243 1_555
B3 Re6 2.349243 1_555
B3 Re0 2.398556 1_555
B3 Re1 2.398556 1_555
B3 Re5 2.398556 1_555
B3 Re4 2.398556 1_555
B4 B6 2.203832 1_556
B4 Re9 2.292504 1_556
B4 Re8 2.292504 1_456
B4 Co3 2.299142 1_556
B4 Co2 2.299142 1_456
B4 Re1 2.310661 1_555
B4 Re0 2.310661 1_455
B4 Re3 2.321939 1_555
B4 Re2 2.321939 1_455
B5 B7 2.203832 1_556
B5 Re8 2.292504 1_556
B5 Re9 2.292504 1_546
B5 Co3 2.299142 1_556
B5 Co2 2.299142 1_546
B5 Re1 2.310661 1_555
B5 Re0 2.310661 1_545
B5 Re2 2.321939 1_555
B5 Re3 2.321939 1_545
B6 Re9 2.292504 1_555
B6 Re8 2.292504 1_455
B6 Co3 2.299142 1_555
B6 Co2 2.299142 1_455
B6 Re4 2.310661 1_555
B6 Re5 2.310661 1_455
B6 Re7 2.321939 1_455
B6 Re6 2.321939 1_555
B7 Re8 2.292504 1_555
B7 Re9 2.292504 1_545
B7 Co2 2.299142 1_545
B7 Co3 2.299142 1_555
B7 Re5 2.310661 1_545
B7 Re4 2.310661 1_555
B7 Re7 2.321939 1_555
B7 Re6 2.321939 1_545
