# generated using pymatgen
data_Ta2CrSi6
_symmetry_space_group_name_H-M   'P 1'
_cell_length_a   4.75313853
_cell_length_b   4.75313853
_cell_length_c   6.51089400
_cell_angle_alpha   90.00000000
_cell_angle_beta   90.00000000
_cell_angle_gamma   121.19686038
_symmetry_Int_Tables_number   1
_chemical_formula_structural   Ta2CrSi6
_chemical_formula_sum   'Ta2 Cr1 Si6'
_cell_volume   125.82504084
_cell_formula_units_Z   1
loop_
 _symmetry_equiv_pos_site_id
 _symmetry_equiv_pos_as_xyz
  1  'x, y, z'
loop_
 _atom_site_type_symbol
 _atom_site_label
 _atom_site_symmetry_multiplicity
 _atom_site_fract_x
 _atom_site_fract_y
 _atom_site_fract_z
 _atom_site_occupancy
  Ta  Ta0  1  0.50000000  0.00000000  0.66358600  1
  Ta  Ta1  1  0.00000000  0.50000000  0.33641400  1
  Cr  Cr0  1  0.50000000  0.50000000  0.00000000  1
  Si  Si0  1  0.15930300  0.84069700  0.00000000  1
  Si  Si1  1  0.16905600  0.32203700  0.67501500  1
  Si  Si2  1  0.67796300  0.83094400  0.32498500  1
  Si  Si3  1  0.84069800  0.15930200  0.00000000  1
  Si  Si4  1  0.83094400  0.67796300  0.67501500  1
  Si  Si5  1  0.32203700  0.16905600  0.32498500  1
loop_
_geom_bond_atom_site_label_1
_geom_bond_atom_site_label_2
_geom_bond_distance
_geom_bond_site_symmetry_2
Cr0 Si2 2.507726 1_555
Cr0 Si5 2.507726 1_555
Cr0 Si4 2.507726 1_554
Cr0 Si1 2.507726 1_554
Cr0 Si3 2.680593 1_565
Cr0 Si3 2.680593 1_455
Cr0 Si0 2.680597 1_655
Cr0 Si0 2.680597 1_545
Cr0 Si0 2.821609 1_555
Cr0 Si3 2.821617 1_555
Si0 Si5 2.502153 1_565
Si0 Si4 2.502153 1_454
Si0 Ta1 2.592897 1_555
Si0 Ta0 2.592897 1_564
Si0 Si3 2.638646 1_465
Si0 Si3 2.775221 1_455
Si0 Si3 2.775221 1_565
Si1 Si3 2.502151 1_456
Si1 Si5 2.607506 1_555
Si1 Si4 2.618763 1_445
Si1 Ta1 2.631652 1_555
Si1 Si4 2.691822 1_555
Si1 Ta0 2.705056 1_555
Si1 Ta0 2.723760 1_455
Si1 Ta0 2.759142 1_565
Si1 Si4 2.874268 1_455
Si2 Si3 2.502151 1_565
Si2 Si4 2.607506 1_555
Si2 Si5 2.618763 1_665
Si2 Ta0 2.631652 1_565
Si2 Si5 2.691822 1_555
Si2 Ta1 2.705056 1_655
Si2 Ta1 2.723760 1_665
Si2 Ta1 2.759142 1_555
Si2 Si5 2.874268 1_565
Si3 Ta0 2.592900 1_554
Si3 Ta1 2.592900 1_655
Si4 Ta1 2.631652 1_655
Si4 Ta0 2.705056 1_565
Si4 Ta0 2.723760 1_665
Si4 Ta0 2.759142 1_555
Si5 Ta0 2.631652 1_555
Si5 Ta1 2.705056 1_555
Si5 Ta1 2.723760 1_545
Si5 Ta1 2.759142 1_655
