# generated using pymatgen
data_Dy3Bi(Ru2O7)2
_symmetry_space_group_name_H-M   'P 1'
_cell_length_a   7.26131781
_cell_length_b   7.26131781
_cell_length_c   7.26131759
_cell_angle_alpha   60.28133024
_cell_angle_beta   60.28133024
_cell_angle_gamma   60.28133726
_symmetry_Int_Tables_number   1
_chemical_formula_structural   Dy3Bi(Ru2O7)2
_chemical_formula_sum   'Dy3 Bi1 Ru4 O14'
_cell_volume   272.45059178
_cell_formula_units_Z   1
loop_
 _symmetry_equiv_pos_site_id
 _symmetry_equiv_pos_as_xyz
  1  'x, y, z'
loop_
 _atom_site_type_symbol
 _atom_site_label
 _atom_site_symmetry_multiplicity
 _atom_site_fract_x
 _atom_site_fract_y
 _atom_site_fract_z
 _atom_site_occupancy
  Dy  Dy0  1  0.00000000  0.50000000  0.00000000  1
  Dy  Dy1  1  0.50000000  0.00000000  0.00000000  1
  Dy  Dy2  1  0.00000000  0.00000000  0.50000000  1
  Bi  Bi0  1  0.00000000  0.00000000  0.00000000  1
  Ru  Ru0  1  0.50000000  0.50000000  0.50000000  1
  Ru  Ru1  1  0.50000000  0.00000000  0.50000000  1
  Ru  Ru2  1  0.00000000  0.50000000  0.50000000  1
  Ru  Ru3  1  0.50000000  0.50000000  0.00000000  1
  O  O0  1  0.41494300  0.41494300  0.83502500  1
  O  O1  1  0.83502500  0.41494300  0.41494300  1
  O  O2  1  0.41494300  0.83502500  0.41494300  1
  O  O3  1  0.83302400  0.83302400  0.41835300  1
  O  O4  1  0.41835300  0.83302400  0.83302400  1
  O  O5  1  0.83302400  0.41835300  0.83302400  1
  O  O6  1  0.58505700  0.58505700  0.16497500  1
  O  O7  1  0.16497500  0.58505700  0.58505700  1
  O  O8  1  0.58505700  0.16497500  0.58505700  1
  O  O9  1  0.16697600  0.16697600  0.58164700  1
  O  O10  1  0.58164700  0.16697600  0.16697600  1
  O  O11  1  0.16697600  0.58164700  0.16697600  1
  O  O12  1  0.12937900  0.12937900  0.12937900  1
  O  O13  1  0.87062100  0.87062100  0.87062100  1
loop_
_geom_bond_atom_site_label_1
_geom_bond_atom_site_label_2
_geom_bond_distance
_geom_bond_site_symmetry_2
Dy0 O12 2.206649 1_555
Dy0 O13 2.206649 1_454
Dy0 O11 2.484874 1_555
Dy0 O5 2.484874 1_454
Dy0 O1 2.490923 1_455
Dy0 O7 2.490923 1_554
Dy0 O0 2.490923 1_554
Dy0 O6 2.490923 1_455
Dy1 O12 2.206649 1_555
Dy1 O13 2.206649 1_544
Dy1 O10 2.484874 1_555
Dy1 O4 2.484874 1_544
Dy1 O2 2.490923 1_545
Dy1 O8 2.490923 1_554
Dy1 O0 2.490923 1_554
Dy1 O6 2.490923 1_545
Dy2 O13 2.206649 1_445
Dy2 O12 2.206649 1_555
Dy2 O9 2.484874 1_555
Dy2 O3 2.484874 1_445
Dy2 O2 2.490923 1_545
Dy2 O1 2.490923 1_455
Dy2 O8 2.490923 1_455
Dy2 O7 2.490923 1_545
Bi0 O13 2.296298 1_444
Bi0 O12 2.296298 1_555
Bi0 O9 2.514396 1_554
Bi0 O3 2.514396 1_445
Bi0 O10 2.514396 1_455
Bi0 O11 2.514396 1_545
Bi0 O5 2.514396 1_454
Bi0 O4 2.514396 1_544
O0 Ru3 2.010805 1_556
O0 Ru0 2.019863 1_555
O1 Ru2 2.010805 1_655
O1 Ru0 2.019863 1_555
O2 Ru1 2.010805 1_565
O2 Ru0 2.019863 1_555
O3 Ru1 2.013323 1_565
O3 Ru2 2.013323 1_655
O4 Ru1 2.013323 1_565
O4 Ru3 2.013323 1_556
O5 Ru2 2.013323 1_655
O5 Ru3 2.013323 1_556
O6 Ru3 2.010805 1_555
O6 Ru0 2.019863 1_555
O7 Ru2 2.010805 1_555
O7 Ru0 2.019863 1_555
O8 Ru1 2.010805 1_555
O8 Ru0 2.019863 1_555
O9 Ru2 2.013323 1_555
O9 Ru1 2.013323 1_555
O10 Ru1 2.013323 1_555
O10 Ru3 2.013323 1_555
O11 Ru2 2.013323 1_555
O11 Ru3 2.013323 1_555
