# generated using pymatgen
data_Na3Ga
_symmetry_space_group_name_H-M   'P 1'
_cell_length_a   6.86808381
_cell_length_b   6.86808381
_cell_length_c   5.67372600
_cell_angle_alpha   90.00000000
_cell_angle_beta   90.00000000
_cell_angle_gamma   119.99999817
_symmetry_Int_Tables_number   1
_chemical_formula_structural   Na3Ga
_chemical_formula_sum   'Na6 Ga2'
_cell_volume   231.77691108
_cell_formula_units_Z   2
loop_
 _symmetry_equiv_pos_site_id
 _symmetry_equiv_pos_as_xyz
  1  'x, y, z'
loop_
 _atom_site_type_symbol
 _atom_site_label
 _atom_site_symmetry_multiplicity
 _atom_site_fract_x
 _atom_site_fract_y
 _atom_site_fract_z
 _atom_site_occupancy
  Na  Na0  1  0.17413000  0.34826100  0.25000000  1
  Na  Na1  1  0.65173900  0.82587000  0.25000000  1
  Na  Na2  1  0.17413000  0.82587000  0.25000000  1
  Na  Na3  1  0.82587000  0.65173900  0.75000000  1
  Na  Na4  1  0.34826100  0.17413000  0.75000000  1
  Na  Na5  1  0.82587000  0.17413000  0.75000000  1
  Ga  Ga0  1  0.33333300  0.66666700  0.75000000  1
  Ga  Ga1  1  0.66666700  0.33333300  0.25000000  1
loop_
_geom_bond_atom_site_label_1
_geom_bond_atom_site_label_2
_geom_bond_distance
_geom_bond_site_symmetry_2
Na0 Na2 3.280259 1_555
Na0 Na1 3.280259 1_555
Na0 Na5 3.512635 1_455
Na0 Na5 3.512635 1_454
Na0 Na4 3.512642 1_555
Na0 Na4 3.512642 1_554
Na0 Na2 3.587825 1_545
Na0 Na1 3.587825 1_445
Na1 Na2 3.280259 1_555
Na1 Na5 3.512635 1_565
Na1 Na5 3.512635 1_564
Na1 Na3 3.512642 1_554
Na1 Na3 3.512642 1_555
Na1 Na2 3.587825 1_655
Na2 Na4 3.512635 1_564
Na2 Na4 3.512635 1_565
Na2 Na3 3.512635 1_455
Na2 Na3 3.512635 1_454
Na3 Na5 3.280259 1_555
Na3 Na4 3.280259 1_555
Na3 Na5 3.587825 1_565
Na3 Na4 3.587825 1_665
Na4 Na5 3.280259 1_555
Na4 Na5 3.587825 1_455
Ga0 Na2 3.410937 1_556
Ga0 Na2 3.410937 1_555
Ga0 Na1 3.410937 1_556
Ga0 Na1 3.410937 1_555
Ga0 Na0 3.410937 1_555
Ga0 Na0 3.410937 1_556
Ga0 Na3 3.435183 1_455
Ga0 Na4 3.435183 1_565
Ga0 Na5 3.435189 1_455
Ga0 Na5 3.435189 1_565
Ga0 Na4 3.435196 1_555
Ga0 Na3 3.435196 1_555
Ga1 Na5 3.410937 1_555
Ga1 Na5 3.410937 1_554
Ga1 Na3 3.410937 1_554
Ga1 Na3 3.410937 1_555
Ga1 Na4 3.410937 1_555
Ga1 Na4 3.410937 1_554
Ga1 Na1 3.435183 1_545
Ga1 Na0 3.435183 1_655
Ga1 Na2 3.435189 1_545
Ga1 Na2 3.435189 1_655
Ga1 Na0 3.435196 1_555
Ga1 Na1 3.435196 1_555
