# generated using pymatgen
data_CaLa2FeO6
_symmetry_space_group_name_H-M   'P 1'
_cell_length_a   5.84203893
_cell_length_b   18.66789647
_cell_length_c   5.86877606
_cell_angle_alpha   78.23357193
_cell_angle_beta   118.23643796
_cell_angle_gamma   97.78993665
_symmetry_Int_Tables_number   1
_chemical_formula_structural   CaLa2FeO6
_chemical_formula_sum   'Ca4 La8 Fe4 O24'
_cell_volume   551.46210996
_cell_formula_units_Z   4
loop_
 _symmetry_equiv_pos_site_id
 _symmetry_equiv_pos_as_xyz
  1  'x, y, z'
loop_
 _atom_site_type_symbol
 _atom_site_label
 _atom_site_symmetry_multiplicity
 _atom_site_fract_x
 _atom_site_fract_y
 _atom_site_fract_z
 _atom_site_occupancy
  Ca  Ca0  1  0.12522400  0.37500200  0.87548000  1
  Ca  Ca1  1  0.86978900  0.62507900  0.12075900  1
  Ca  Ca2  1  0.62451800  0.87504600  0.37508200  1
  Ca  Ca3  1  0.38045700  0.12487700  0.62869500  1
  La  La0  1  0.18716300  0.57158500  0.81434900  1
  La  La1  1  0.94056400  0.82160600  0.06748700  1
  La  La2  1  0.69837400  0.07156500  0.32275900  1
  La  La3  1  0.44362100  0.32132800  0.56972900  1
  La  La4  1  0.06362100  0.17843200  0.93572900  1
  La  La5  1  0.80651100  0.42855900  0.18084000  1
  La  La6  1  0.55213100  0.67848300  0.42695000  1
  La  La7  1  0.30795500  0.92841100  0.68218100  1
  Fe  Fe0  1  0.49639800  0.49990000  0.49718700  1
  Fe  Fe1  1  0.24614900  0.75001700  0.74669500  1
  Fe  Fe2  1  0.00347900  0.99998500  0.00297900  1
  Fe  Fe3  1  0.75406200  0.25007000  0.25318800  1
  O  O0  1  0.82401900  0.31224700  0.99302400  1
  O  O1  1  0.56791900  0.56200800  0.23779600  1
  O  O2  1  0.32110500  0.81197200  0.48935400  1
  O  O3  1  0.07829600  0.06175100  0.74432500  1
  O  O4  1  0.03189500  0.31133800  0.54468900  1
  O  O5  1  0.77511000  0.56192500  0.78790400  1
  O  O6  1  0.52780300  0.81165700  0.04108500  1
  O  O7  1  0.28587200  0.06116500  0.29687900  1
  O  O8  1  0.49134100  0.31430700  0.18874900  1
  O  O9  1  0.23467200  0.56425400  0.43354600  1
  O  O10  1  0.98911800  0.81481100  0.68598400  1
  O  O11  1  0.74719900  0.06526400  0.94089400  1
  O  O12  1  0.42620400  0.43792200  0.75759900  1
  O  O13  1  0.17216600  0.68794300  0.00503700  1
  O  O14  1  0.92755500  0.93837900  0.26070400  1
  O  O15  1  0.68277700  0.18778100  0.51213000  1
  O  O16  1  0.75847900  0.43546900  0.56169200  1
  O  O17  1  0.50356900  0.68507100  0.80865100  1
  O  O18  1  0.25921000  0.93490200  0.06386700  1
  O  O19  1  0.01636000  0.18593100  0.31661100  1
  O  O20  1  0.21830200  0.43850900  0.20644700  1
  O  O21  1  0.96438500  0.68902600  0.45206300  1
  O  O22  1  0.72096900  0.93827900  0.70929600  1
  O  O23  1  0.47565700  0.18814600  0.96158500  1
loop_
_geom_bond_atom_site_label_1
_geom_bond_atom_site_label_2
_geom_bond_distance
_geom_bond_site_symmetry_2
Ca0 O0 2.281414 1_455
Ca0 O12 2.282488 1_555
Ca0 O20 2.288890 1_556
Ca0 O4 2.289610 1_555
Ca0 O8 2.307635 1_556
Ca0 O16 2.308756 1_455
Ca1 O13 2.281911 1_655
Ca1 O1 2.285078 1_555
Ca1 O5 2.291716 1_554
Ca1 O21 2.293911 1_555
Ca1 O17 2.300315 1_554
Ca1 O9 2.303569 1_655
Ca2 O2 2.283654 1_555
Ca2 O14 2.283844 1_555
Ca2 O18 2.294525 1_555
Ca2 O10 2.294693 1_555
Ca2 O22 2.297024 1_555
Ca2 O6 2.297508 1_555
Ca3 O3 2.282254 1_555
Ca3 O15 2.284659 1_555
Ca3 O23 2.292594 1_555
Ca3 O7 2.293556 1_555
Ca3 O11 2.299165 1_555
Ca3 O19 2.301634 1_555
La0 O5 2.321979 1_455
La0 O9 2.410864 1_555
La0 O1 2.419026 1_556
La0 O17 2.621863 1_555
La0 O13 2.667233 1_556
La0 O21 2.697220 1_455
La0 O20 2.982404 1_556
La0 O12 3.163982 1_555
La1 O6 2.325936 1_555
La1 O2 2.413115 1_655
La1 O10 2.415780 1_554
La1 O18 2.625035 1_655
La1 O22 2.673385 1_554
La1 O14 2.679218 1_555
La1 O21 2.959203 1_555
La1 O13 3.154119 1_655
La2 O7 2.325299 1_555
La2 O3 2.410456 1_655
La2 O11 2.416425 1_554
La2 O19 2.639559 1_655
La2 O15 2.661392 1_555
La2 O23 2.683060 1_554
La2 O22 2.976264 1_545
La2 O14 3.136881 1_545
La3 O4 2.323155 1_555
La3 O8 2.411082 1_555
La3 O0 2.417704 1_555
La3 O16 2.627639 1_555
La3 O12 2.666155 1_555
La3 O20 2.699338 1_555
La3 O23 2.981950 1_555
La4 O23 2.323243 1_555
La4 O19 2.411333 1_556
La4 O15 2.419820 1_455
La4 O11 2.617140 1_455
La4 O3 2.674570 1_555
La4 O7 2.691585 1_556
La4 O4 2.976026 1_555
La5 O20 2.322205 1_655
La5 O16 2.410824 1_555
La5 O12 2.417213 1_554
La5 O8 2.630068 1_555
La5 O0 2.661380 1_554
La5 O4 2.701269 1_655
La5 O5 2.988632 1_554
La5 O1 3.159512 1_555
La6 O21 2.325582 1_555
La6 O13 2.411806 1_555
La6 O17 2.415969 1_555
La6 O9 2.636371 1_555
La6 O1 2.665386 1_555
La6 O5 2.682582 1_555
La6 O6 2.970543 1_555
La6 O2 3.149165 1_555
La7 O22 2.325774 1_555
La7 O14 2.411379 1_455
La7 O18 2.416021 1_556
La7 O10 2.629920 1_455
La7 O2 2.672483 1_555
La7 O6 2.676441 1_556
La7 O7 2.965918 1_565
La7 O3 3.141290 1_565
Fe0 O12 1.893605 1_555
Fe0 O1 1.893926 1_555
Fe0 O9 1.922294 1_555
Fe0 O16 1.923361 1_555
Fe0 O20 2.129335 1_555
Fe0 O5 2.137477 1_555
Fe1 O2 1.893787 1_555
Fe1 O13 1.896329 1_556
Fe1 O10 1.911834 1_455
Fe1 O17 1.913318 1_555
Fe1 O21 2.144172 1_455
Fe1 O6 2.150377 1_556
Fe2 O14 1.895835 1_455
Fe2 O3 1.897934 1_564
Fe2 O18 1.909364 1_555
Fe2 O11 1.912255 1_464
Fe2 O7 2.145056 1_565
Fe2 O22 2.150403 1_454
Fe3 O15 1.892568 1_555
Fe3 O0 1.893304 1_554
Fe3 O19 1.922549 1_655
Fe3 O8 1.923921 1_555
Fe3 O4 2.129947 1_655
Fe3 O23 2.138646 1_554
