# generated using pymatgen
data_LaMgTaFeO6
_symmetry_space_group_name_H-M   'P 1'
_cell_length_a   5.45434584
_cell_length_b   8.03279614
_cell_length_c   5.61878115
_cell_angle_alpha   89.97350794
_cell_angle_beta   90.00370248
_cell_angle_gamma   90.28217489
_symmetry_Int_Tables_number   1
_chemical_formula_structural   LaMgTaFeO6
_chemical_formula_sum   'La2 Mg2 Ta2 Fe2 O12'
_cell_volume   246.17628824
_cell_formula_units_Z   2
loop_
 _symmetry_equiv_pos_site_id
 _symmetry_equiv_pos_as_xyz
  1  'x, y, z'
loop_
 _atom_site_type_symbol
 _atom_site_label
 _atom_site_symmetry_multiplicity
 _atom_site_fract_x
 _atom_site_fract_y
 _atom_site_fract_z
 _atom_site_occupancy
  La  La0  1  0.99217200  0.24985600  0.04894100  1
  La  La1  1  0.49205600  0.74977200  0.45132900  1
  Mg  Mg0  1  0.52592400  0.25695200  0.55377200  1
  Mg  Mg1  1  0.02582500  0.75713600  0.94645300  1
  Ta  Ta0  1  0.00265900  0.49809100  0.50970700  1
  Ta  Ta1  1  0.50279100  0.99814000  0.99026400  1
  Fe  Fe0  1  0.49900500  0.49911400  0.00438700  1
  Fe  Fe1  1  0.99882100  0.99891600  0.49552500  1
  O  O0  1  0.64729300  0.76933100  0.03518200  1
  O  O1  1  0.14675100  0.26916500  0.46518700  1
  O  O2  1  0.19460400  0.93862500  0.18364000  1
  O  O3  1  0.69433100  0.43881800  0.31628200  1
  O  O4  1  0.16421600  0.57087700  0.20346100  1
  O  O5  1  0.66439700  0.07097600  0.29635600  1
  O  O6  1  0.90205100  0.73434600  0.56661900  1
  O  O7  1  0.40169400  0.23417200  0.93293800  1
  O  O8  1  0.28185100  0.55724200  0.71631400  1
  O  O9  1  0.78203000  0.05770000  0.78373200  1
  O  O10  1  0.29095200  0.92529200  0.72481000  1
  O  O11  1  0.79057300  0.42548400  0.77510000  1
loop_
_geom_bond_atom_site_label_1
_geom_bond_atom_site_label_2
_geom_bond_distance
_geom_bond_site_symmetry_2
La0 O7 2.330890 1_654
La0 O11 2.362185 1_554
La0 O9 2.429264 1_554
La0 O1 2.490718 1_655
La0 O5 2.677063 1_555
La0 O3 2.688159 1_555
La0 O2 2.840340 1_645
La0 O4 2.874399 1_655
La1 O6 2.332014 1_555
La1 O10 2.360025 1_555
La1 O8 2.429772 1_555
La1 O0 2.491502 1_555
La1 O4 2.679256 1_555
La1 O2 2.686566 1_555
La1 O3 2.839218 1_555
La1 O5 2.876323 1_565
Mg0 O1 2.129882 1_555
Mg0 O3 2.178007 1_555
Mg0 O5 2.215272 1_555
Mg0 O7 2.242776 1_555
Mg0 O11 2.333449 1_555
Mg0 O9 2.490472 1_555
Mg1 O0 2.126752 1_456
Mg1 O2 2.176545 1_556
Mg1 O4 2.214194 1_556
Mg1 O6 2.245677 1_455
Mg1 O10 2.333692 1_555
Mg1 O8 2.494941 1_555
Fe0 O8 2.060421 1_554
Fe0 O3 2.108275 1_555
Fe0 O11 2.132815 1_554
Fe0 O4 2.220173 1_555
Fe0 O7 2.227523 1_554
Fe0 O0 2.319192 1_555
Fe1 O9 2.061550 1_565
Fe1 O2 2.109969 1_655
Fe1 O10 2.134635 1_655
Fe1 O5 2.219045 1_565
Fe1 O6 2.223283 1_555
Fe1 O1 2.318430 1_665
O0 Ta1 2.019126 1_554
O1 Ta0 2.019048 1_555
O2 Ta1 2.055864 1_554
O3 Ta0 2.056313 1_655
O4 Ta0 2.018276 1_555
O5 Ta1 2.018134 1_544
O6 Ta0 2.003953 1_655
O7 Ta1 2.003079 1_545
O8 Ta0 1.971170 1_555
O9 Ta1 1.971758 1_545
O10 Ta1 1.973843 1_555
O11 Ta0 1.973509 1_655
