# generated using pymatgen
data_RbNd(SO6)2
_symmetry_space_group_name_H-M   'P 1'
_cell_length_a   20.28622700
_cell_length_b   6.35267500
_cell_length_c   8.97242575
_cell_angle_alpha   86.25624407
_cell_angle_beta   90.00000000
_cell_angle_gamma   90.00000000
_symmetry_Int_Tables_number   1
_chemical_formula_structural   RbNd(SO6)2
_chemical_formula_sum   'Rb4 Nd4 S8 O48'
_cell_volume   1153.82524427
_cell_formula_units_Z   4
loop_
 _symmetry_equiv_pos_site_id
 _symmetry_equiv_pos_as_xyz
  1  'x, y, z'
loop_
 _atom_site_type_symbol
 _atom_site_label
 _atom_site_symmetry_multiplicity
 _atom_site_fract_x
 _atom_site_fract_y
 _atom_site_fract_z
 _atom_site_occupancy
  Rb  Rb0  1  0.21193900  0.83852500  0.63486600  1
  Rb  Rb1  1  0.78806100  0.16147500  0.36513400  1
  Rb  Rb2  1  0.71193900  0.16147500  0.86513400  1
  Rb  Rb3  1  0.28806100  0.83852500  0.13486600  1
  Nd  Nd0  1  0.36418600  0.37424800  0.79130500  1
  Nd  Nd1  1  0.63581400  0.62575200  0.20869500  1
  Nd  Nd2  1  0.86418600  0.62575200  0.70869500  1
  Nd  Nd3  1  0.13581400  0.37424800  0.29130500  1
  S  S0  1  0.21868200  0.37587300  0.90832300  1
  S  S1  1  0.78131800  0.62412700  0.09167700  1
  S  S2  1  0.71868200  0.62412700  0.59167700  1
  S  S3  1  0.28131800  0.37587300  0.40832300  1
  S  S4  1  0.42899800  0.80987900  0.77845200  1
  S  S5  1  0.57100200  0.19012100  0.22154800  1
  S  S6  1  0.92899800  0.19012100  0.72154800  1
  S  S7  1  0.07100200  0.80987900  0.27845200  1
  O  O0  1  0.12717200  0.18546400  0.53780000  1
  O  O1  1  0.87282800  0.81453600  0.46220000  1
  O  O2  1  0.62717200  0.81453600  0.96220000  1
  O  O3  1  0.37282800  0.18546400  0.03780000  1
  O  O4  1  0.42389000  0.64998400  0.91003600  1
  O  O5  1  0.57611000  0.35001600  0.08996400  1
  O  O6  1  0.92389000  0.35001600  0.58996400  1
  O  O7  1  0.07611000  0.64998400  0.41003600  1
  O  O8  1  0.76075600  0.81668700  0.61682700  1
  O  O9  1  0.23924400  0.18331300  0.38317300  1
  O  O10  1  0.26075600  0.18331300  0.88317300  1
  O  O11  1  0.73924400  0.81668700  0.11682700  1
  O  O12  1  0.47568000  0.30941300  0.63751800  1
  O  O13  1  0.52432000  0.69058700  0.36248200  1
  O  O14  1  0.97568000  0.69058700  0.86248200  1
  O  O15  1  0.02432000  0.30941300  0.13751800  1
  O  O16  1  0.07828300  0.78599700  0.82328000  1
  O  O17  1  0.92171700  0.21400300  0.17672000  1
  O  O18  1  0.57828300  0.21400300  0.67672000  1
  O  O19  1  0.42171700  0.78599700  0.32328000  1
  O  O20  1  0.16553600  0.40001200  0.79958900  1
  O  O21  1  0.83446400  0.59998800  0.20041100  1
  O  O22  1  0.66553600  0.59998800  0.70041100  1
  O  O23  1  0.33446400  0.40001200  0.29958900  1
  O  O24  1  0.38703200  0.72113400  0.65900600  1
  O  O25  1  0.61296800  0.27886600  0.34099400  1
  O  O26  1  0.88703200  0.27886600  0.84099400  1
  O  O27  1  0.11296800  0.72113400  0.15900600  1
  O  O28  1  0.30593200  0.35754000  0.56442200  1
  O  O29  1  0.69406800  0.64246000  0.43557800  1
  O  O30  1  0.80593200  0.64246000  0.93557800  1
  O  O31  1  0.19406800  0.35754000  0.06442200  1
  O  O32  1  0.26701500  0.55829400  0.89002900  1
  O  O33  1  0.73298500  0.44170600  0.10997100  1
  O  O34  1  0.76701500  0.44170600  0.60997100  1
  O  O35  1  0.23298500  0.55829400  0.39002900  1
  O  O36  1  0.49641900  0.85238400  0.73383300  1
  O  O37  1  0.50358100  0.14761600  0.26616700  1
  O  O38  1  0.99641900  0.14761600  0.76616700  1
  O  O39  1  0.00358100  0.85238400  0.23383300  1
  O  O40  1  0.02793400  0.69543300  0.77583400  1
  O  O41  1  0.97206600  0.30456700  0.22416600  1
  O  O42  1  0.52793400  0.30456700  0.72416600  1
  O  O43  1  0.47206600  0.69543300  0.27583400  1
  O  O44  1  0.39485100  0.01194300  0.81980500  1
  O  O45  1  0.60514900  0.98805700  0.18019500  1
  O  O46  1  0.89485100  0.98805700  0.68019500  1
  O  O47  1  0.10514900  0.01194300  0.31980500  1
loop_
_geom_bond_atom_site_label_1
_geom_bond_atom_site_label_2
_geom_bond_distance
_geom_bond_site_symmetry_2
Nd0 O28 2.362215 1_555
Nd0 O44 2.381785 1_555
Nd0 O4 2.431832 1_555
Nd0 O3 2.452361 1_556
Nd0 O24 2.477571 1_555
Nd0 O32 2.484477 1_555
Nd0 O10 2.534280 1_555
Nd0 O12 2.695094 1_555
Nd1 O29 2.362215 1_555
Nd1 O45 2.381785 1_555
Nd1 O5 2.431832 1_555
Nd1 O2 2.452361 1_554
Nd1 O25 2.477571 1_555
Nd1 O33 2.484477 1_555
Nd1 O11 2.534280 1_555
Nd1 O13 2.695094 1_555
Nd2 O30 2.362215 1_555
Nd2 O46 2.381785 1_555
Nd2 O6 2.431832 1_555
Nd2 O1 2.452361 1_555
Nd2 O26 2.477571 1_555
Nd2 O34 2.484477 1_555
Nd2 O8 2.534280 1_555
Nd2 O14 2.695094 1_555
Nd3 O31 2.362215 1_555
Nd3 O47 2.381785 1_555
Nd3 O7 2.431832 1_555
Nd3 O0 2.452361 1_555
Nd3 O27 2.477571 1_555
Nd3 O35 2.484477 1_555
Nd3 O9 2.534280 1_555
Nd3 O15 2.695094 1_555
O0 Rb0 2.884864 1_545
O1 Rb1 2.884864 1_565
O2 Rb2 2.884864 1_565
O3 Rb3 2.884864 1_545
O4 S4 1.509895 1_555
O5 S5 1.509895 1_555
O6 S6 1.509895 1_555
O7 S7 1.509895 1_555
O8 S2 1.520481 1_555
O8 Rb1 3.091652 1_565
O8 Rb2 3.373294 1_565
O9 S3 1.520481 1_555
O9 Rb0 3.091652 1_545
O9 Rb3 3.373294 1_545
O10 S0 1.520481 1_555
O10 Rb3 3.091652 1_546
O10 Rb0 3.373294 1_545
O11 S1 1.520481 1_555
O11 Rb2 3.091652 1_564
O11 Rb1 3.373294 1_565
O12 O42 1.313742 1_555
O13 O43 1.313742 1_555
O14 O40 1.313742 1_655
O15 O41 1.313742 1_455
O16 O40 1.259939 1_555
O16 Rb0 3.201115 1_555
O17 O41 1.259939 1_555
O17 Rb1 3.201115 1_555
O18 O42 1.259939 1_555
O18 Rb2 3.201115 1_555
O19 O43 1.259939 1_555
O19 Rb3 3.201115 1_555
O20 S0 1.455389 1_555
O20 Rb0 3.208292 1_555
O21 S1 1.455389 1_555
O21 Rb1 3.208292 1_555
O22 S2 1.455389 1_555
O22 Rb2 3.208292 1_555
O23 S3 1.455389 1_555
O23 Rb3 3.208292 1_555
O24 S4 1.506681 1_555
O25 S5 1.506681 1_555
O26 S6 1.506681 1_555
O27 S7 1.506681 1_555
O28 S3 1.484329 1_555
O29 S2 1.484329 1_555
O30 S1 1.484329 1_556
O31 S0 1.484329 1_554
O32 S0 1.518694 1_555
O32 Rb3 2.947542 1_556
O32 Rb0 3.021051 1_555
O33 S1 1.518694 1_555
O33 Rb2 2.947542 1_554
O33 Rb1 3.021051 1_555
O34 S2 1.518694 1_555
O34 Rb1 2.947542 1_555
O34 Rb2 3.021051 1_555
O35 S3 1.518694 1_555
O35 Rb0 2.947542 1_555
O35 Rb3 3.021051 1_555
O36 S4 1.445586 1_555
O37 S5 1.445586 1_555
O38 S6 1.445586 1_555
O39 S7 1.445586 1_555
O44 S4 1.525604 1_545
O45 S5 1.525604 1_565
O46 S6 1.525604 1_565
O47 S7 1.525604 1_545
