# generated using pymatgen
data_Mg6ZrCd
_symmetry_space_group_name_H-M   'P 1'
_cell_length_a   5.03437700
_cell_length_b   6.40933700
_cell_length_c   11.10566900
_cell_angle_alpha   90.00000000
_cell_angle_beta   90.00000000
_cell_angle_gamma   90.00000000
_symmetry_Int_Tables_number   1
_chemical_formula_structural   Mg6ZrCd
_chemical_formula_sum   'Mg12 Zr2 Cd2'
_cell_volume   358.34683017
_cell_formula_units_Z   2
loop_
 _symmetry_equiv_pos_site_id
 _symmetry_equiv_pos_as_xyz
  1  'x, y, z'
loop_
 _atom_site_type_symbol
 _atom_site_label
 _atom_site_symmetry_multiplicity
 _atom_site_fract_x
 _atom_site_fract_y
 _atom_site_fract_z
 _atom_site_occupancy
  Mg  Mg0  1  0.00000000  0.25191000  0.08162500  1
  Mg  Mg1  1  0.00000000  0.74809000  0.08162500  1
  Mg  Mg2  1  0.00000000  0.00000000  0.33490500  1
  Mg  Mg3  1  0.50000000  0.74732100  0.41626600  1
  Mg  Mg4  1  0.50000000  0.25267900  0.41626600  1
  Mg  Mg5  1  0.50000000  0.00000000  0.16708400  1
  Mg  Mg6  1  0.00000000  0.75191000  0.58162500  1
  Mg  Mg7  1  0.00000000  0.24809000  0.58162500  1
  Mg  Mg8  1  0.00000000  0.50000000  0.83490500  1
  Mg  Mg9  1  0.50000000  0.24732100  0.91626600  1
  Mg  Mg10  1  0.50000000  0.75267900  0.91626600  1
  Mg  Mg11  1  0.50000000  0.50000000  0.66708400  1
  Zr  Zr0  1  0.00000000  0.50000000  0.33128000  1
  Zr  Zr1  1  0.00000000  0.00000000  0.83128000  1
  Cd  Cd0  1  0.50000000  0.50000000  0.17095000  1
  Cd  Cd1  1  0.50000000  0.00000000  0.67095000  1
loop_
_geom_bond_atom_site_label_1
_geom_bond_atom_site_label_2
_geom_bond_distance
_geom_bond_site_symmetry_2
Mg0 Mg9 3.116015 1_454
Mg0 Mg9 3.116015 1_554
Mg0 Mg5 3.137490 1_455
Mg0 Mg5 3.137490 1_555
Mg0 Mg8 3.167956 1_554
Mg0 Mg1 3.180185 1_555
Mg0 Zr0 3.196189 1_555
Mg0 Zr1 3.215064 1_554
Mg0 Mg1 3.229152 1_545
Mg0 Mg2 3.243293 1_555
Mg1 Mg10 3.116015 1_554
Mg1 Mg10 3.116015 1_454
Mg1 Mg5 3.137490 1_565
Mg1 Mg5 3.137490 1_465
Mg1 Mg8 3.167956 1_554
Mg1 Zr0 3.196189 1_555
Mg1 Zr1 3.215064 1_564
Mg1 Mg2 3.243293 1_565
Mg2 Mg3 3.126575 1_545
Mg2 Mg3 3.126575 1_445
Mg2 Mg4 3.126575 1_455
Mg2 Mg4 3.126575 1_555
Mg2 Mg5 3.132069 1_555
Mg2 Mg5 3.132069 1_455
Mg2 Mg6 3.167956 1_545
Mg2 Mg7 3.167956 1_555
Mg2 Zr0 3.204921 1_545
Mg2 Zr0 3.204921 1_555
Mg3 Mg6 3.116015 1_555
Mg3 Mg6 3.116015 1_655
Mg3 Zr0 3.120864 1_555
Mg3 Zr0 3.120864 1_655
Mg3 Mg4 3.170327 1_555
Mg3 Mg5 3.206388 1_565
Mg3 Mg4 3.239010 1_565
Mg4 Mg7 3.116015 1_655
Mg4 Mg7 3.116015 1_555
Mg4 Zr0 3.120864 1_555
Mg4 Zr0 3.120864 1_655
Mg4 Mg5 3.206388 1_555
Mg5 Mg9 3.204959 1_554
Mg6 Mg7 3.180185 1_565
Mg6 Zr1 3.196189 1_565
Mg6 Zr0 3.215064 1_555
Mg6 Mg7 3.229152 1_555
Mg6 Mg8 3.243293 1_555
Mg7 Zr1 3.196189 1_555
Mg7 Zr0 3.215064 1_555
Mg7 Mg8 3.243293 1_555
Mg8 Mg9 3.126575 1_555
Mg8 Mg9 3.126575 1_455
Mg8 Zr1 3.204921 1_555
Mg8 Zr1 3.204921 1_565
Mg9 Zr1 3.120864 1_555
Mg9 Zr1 3.120864 1_655
Mg10 Zr1 3.120864 1_565
Mg10 Zr1 3.120864 1_665
Mg10 Mg8 3.126575 1_655
Mg10 Mg8 3.126575 1_555
Mg10 Mg9 3.170327 1_565
Mg10 Mg5 3.204959 1_566
Mg10 Mg11 3.206388 1_555
Mg10 Mg9 3.239010 1_555
Mg11 Mg8 3.132069 1_655
Mg11 Mg8 3.132069 1_555
Mg11 Mg7 3.137490 1_555
Mg11 Mg6 3.137490 1_655
Mg11 Mg7 3.137490 1_655
Mg11 Mg6 3.137490 1_555
Mg11 Mg3 3.204959 1_555
Mg11 Mg4 3.204959 1_555
Mg11 Mg9 3.206388 1_555
Cd0 Zr0 3.083290 1_555
Cd0 Zr0 3.083290 1_655
Cd0 Mg0 3.138268 1_655
Cd0 Mg0 3.138268 1_555
Cd0 Mg1 3.138268 1_555
Cd0 Mg1 3.138268 1_655
Cd0 Mg4 3.151998 1_555
Cd0 Mg3 3.151998 1_555
Cd0 Mg5 3.204956 1_565
Cd0 Mg5 3.204956 1_555
Cd0 Mg9 3.259271 1_554
Cd0 Mg10 3.259271 1_554
Cd1 Zr1 3.083290 1_655
Cd1 Zr1 3.083290 1_555
Cd1 Mg7 3.138268 1_655
Cd1 Mg6 3.138268 1_645
Cd1 Mg6 3.138268 1_545
Cd1 Mg7 3.138268 1_555
Cd1 Mg9 3.151998 1_555
Cd1 Mg10 3.151998 1_545
Cd1 Mg11 3.204956 1_555
Cd1 Mg11 3.204956 1_545
Cd1 Mg3 3.259271 1_545
Cd1 Mg4 3.259271 1_555
