# generated using pymatgen
data_HfTiMo4
_symmetry_space_group_name_H-M   'P 1'
_cell_length_a   5.31308297
_cell_length_b   5.31308297
_cell_length_c   5.31308297
_cell_angle_alpha   60.00000000
_cell_angle_beta   60.00000000
_cell_angle_gamma   60.00000000
_symmetry_Int_Tables_number   1
_chemical_formula_structural   HfTiMo4
_chemical_formula_sum   'Hf1 Ti1 Mo4'
_cell_volume   106.05344905
_cell_formula_units_Z   1
loop_
 _symmetry_equiv_pos_site_id
 _symmetry_equiv_pos_as_xyz
  1  'x, y, z'
loop_
 _atom_site_type_symbol
 _atom_site_label
 _atom_site_symmetry_multiplicity
 _atom_site_fract_x
 _atom_site_fract_y
 _atom_site_fract_z
 _atom_site_occupancy
  Hf  Hf0  1  0.25000000  0.25000000  0.25000000  1
  Ti  Ti0  1  0.00000000  0.00000000  0.00000000  1
  Mo  Mo0  1  0.62508800  0.62508800  0.12473600  1
  Mo  Mo1  1  0.62508800  0.12473600  0.62508800  1
  Mo  Mo2  1  0.12473600  0.62508800  0.62508800  1
  Mo  Mo3  1  0.62508800  0.62508800  0.62508800  1
loop_
_geom_bond_atom_site_label_1
_geom_bond_atom_site_label_2
_geom_bond_distance
_geom_bond_site_symmetry_2
Hf0 Mo0 3.115271 1_555
Hf0 Mo1 3.115271 1_555
Hf0 Mo2 3.115271 1_555
Hf0 Mo3 3.115271 1_554
Hf0 Mo3 3.115271 1_545
Hf0 Mo2 3.115271 1_545
Hf0 Mo1 3.115271 1_455
Hf0 Mo0 3.115271 1_455
Hf0 Mo1 3.115271 1_554
Hf0 Mo0 3.115271 1_545
Hf0 Mo3 3.115271 1_455
Hf0 Mo2 3.115271 1_554
Hf0 Ti0 3.253586 1_556
Hf0 Ti0 3.253586 1_555
Hf0 Ti0 3.253586 1_655
Hf0 Ti0 3.253586 1_565
Mo0 Mo2 2.654671 1_654
Mo0 Mo1 2.654671 1_564
Mo0 Mo3 2.654671 1_554
Mo0 Mo2 2.658412 1_555
Mo0 Mo3 2.658412 1_555
Mo0 Mo1 2.658412 1_555
Mo0 Ti0 3.114872 1_565
Mo0 Ti0 3.114872 1_655
Mo0 Ti0 3.114872 1_665
Mo1 Mo2 2.654671 1_645
Mo1 Mo3 2.654671 1_545
Mo1 Mo2 2.658412 1_555
Mo1 Mo3 2.658412 1_555
Mo1 Ti0 3.114872 1_556
Mo1 Ti0 3.114872 1_655
Mo1 Ti0 3.114872 1_656
Mo2 Mo3 2.654671 1_455
Mo2 Mo3 2.658412 1_555
Mo2 Ti0 3.114872 1_556
Mo2 Ti0 3.114872 1_565
Mo2 Ti0 3.114872 1_566
Mo3 Ti0 3.114872 1_566
Mo3 Ti0 3.114872 1_656
Mo3 Ti0 3.114872 1_665
