# generated using pymatgen
data_Mg14GaCo
_symmetry_space_group_name_H-M   'P 1'
_cell_length_a   6.25937691
_cell_length_b   6.25937642
_cell_length_c   9.96928359
_cell_angle_alpha   90.00000000
_cell_angle_beta   90.00000000
_cell_angle_gamma   120.00000263
_symmetry_Int_Tables_number   1
_chemical_formula_structural   Mg14GaCo
_chemical_formula_sum   'Mg14 Ga1 Co1'
_cell_volume   338.26475045
_cell_formula_units_Z   1
loop_
 _symmetry_equiv_pos_site_id
 _symmetry_equiv_pos_as_xyz
  1  'x, y, z'
loop_
 _atom_site_type_symbol
 _atom_site_label
 _atom_site_symmetry_multiplicity
 _atom_site_fract_x
 _atom_site_fract_y
 _atom_site_fract_z
 _atom_site_occupancy
  Mg  Mg0  1  0.16355512  0.83177706  0.12500000  1
  Mg  Mg1  1  0.16895942  0.83447921  0.62500000  1
  Mg  Mg2  1  0.66822294  0.33644488  0.12500000  1
  Mg  Mg3  1  0.66552079  0.33104058  0.62500000  1
  Mg  Mg4  1  0.66822294  0.83177706  0.12500000  1
  Mg  Mg5  1  0.66552079  0.83447921  0.62500000  1
  Mg  Mg6  1  0.32524043  0.17475957  0.36502250  1
  Mg  Mg7  1  0.32524043  0.17475957  0.88497750  1
  Mg  Mg8  1  0.32524043  0.65048186  0.36502250  1
  Mg  Mg9  1  0.32524043  0.65048186  0.88497750  1
  Mg  Mg10  1  0.84951814  0.17475957  0.36502250  1
  Mg  Mg11  1  0.84951814  0.17475957  0.88497750  1
  Mg  Mg12  1  0.83333300  0.66666700  0.37578295  1
  Mg  Mg13  1  0.83333300  0.66666700  0.87421705  1
  Ga  Ga0  1  0.16666700  0.33333300  0.62500000  1
  Co  Co0  1  0.16666700  0.33333300  0.12500000  1
loop_
_geom_bond_atom_site_label_1
_geom_bond_atom_site_label_2
_geom_bond_distance
_geom_bond_site_symmetry_2
Mg0 Mg8 3.030877 1_555
Mg0 Mg9 3.030877 1_554
Mg0 Mg6 3.030883 1_565
Mg0 Mg7 3.030883 1_564
Mg0 Mg13 3.074890 1_454
Mg0 Mg12 3.074890 1_455
Mg0 Mg2 3.100471 1_455
Mg0 Mg4 3.100471 1_455
Mg0 Mg2 3.158906 1_565
Mg0 Mg4 3.158906 1_555
Mg1 Mg12 3.079428 1_455
Mg1 Mg13 3.079428 1_455
Mg1 Mg3 3.108165 1_565
Mg1 Mg5 3.108165 1_555
Mg1 Mg3 3.151212 1_455
Mg1 Mg5 3.151212 1_455
Mg1 Mg9 3.182350 1_555
Mg1 Mg8 3.182350 1_555
Mg1 Mg7 3.182356 1_565
Mg1 Mg6 3.182356 1_565
Mg2 Mg6 3.030884 1_555
Mg2 Mg7 3.030884 1_554
Mg2 Mg4 3.100471 1_555
Mg2 Mg4 3.158906 1_545
Mg3 Mg5 3.108165 1_545
Mg3 Mg5 3.151212 1_555
Mg3 Mg7 3.182356 1_555
Mg3 Mg6 3.182356 1_555
Mg4 Mg8 3.030883 1_555
Mg4 Mg9 3.030883 1_554
Mg5 Mg9 3.182356 1_555
Mg5 Mg8 3.182356 1_555
Mg6 Mg8 2.977725 1_555
Mg6 Mg8 3.281652 1_545
Mg7 Mg9 2.977725 1_555
Mg7 Mg9 3.281652 1_545
Mg10 Mg8 2.977725 1_655
Mg10 Mg6 2.977725 1_655
Mg10 Mg2 3.030877 1_555
Mg10 Mg4 3.030883 1_545
Mg10 Mg12 3.132755 1_545
Mg10 Mg12 3.132755 1_555
Mg10 Mg3 3.182350 1_555
Mg10 Mg5 3.182356 1_545
Mg10 Mg8 3.281652 1_545
Mg10 Mg6 3.281652 1_555
Mg11 Mg9 2.977725 1_655
Mg11 Mg7 2.977725 1_655
Mg11 Mg2 3.030877 1_556
Mg11 Mg4 3.030883 1_546
Mg11 Mg13 3.132755 1_545
Mg11 Mg13 3.132755 1_555
Mg11 Mg3 3.182350 1_555
Mg11 Mg5 3.182356 1_545
Mg11 Mg9 3.281652 1_545
Mg11 Mg7 3.281652 1_555
Mg12 Mg4 3.074884 1_555
Mg12 Mg2 3.074890 1_555
Mg12 Mg5 3.079421 1_555
Mg12 Mg3 3.079428 1_555
Mg12 Mg6 3.132755 1_665
Mg12 Mg6 3.132755 1_555
Mg12 Mg8 3.132755 1_555
Mg12 Mg8 3.132755 1_655
Mg13 Mg4 3.074884 1_556
Mg13 Mg2 3.074890 1_556
Mg13 Mg5 3.079421 1_555
Mg13 Mg3 3.079428 1_555
Mg13 Mg7 3.132755 1_665
Mg13 Mg7 3.132755 1_555
Mg13 Mg9 3.132755 1_555
Mg13 Mg9 3.132755 1_655
Ga0 Mg7 3.110139 1_555
Ga0 Mg6 3.110139 1_555
Ga0 Mg9 3.110145 1_555
Ga0 Mg8 3.110145 1_555
Ga0 Mg11 3.110145 1_455
Ga0 Mg10 3.110145 1_455
Ga0 Mg5 3.129713 1_555
Ga0 Mg5 3.129713 1_445
Ga0 Mg1 3.129713 1_555
Ga0 Mg1 3.129713 1_545
Ga0 Mg3 3.129713 1_455
Ga0 Mg3 3.129713 1_555
Co0 Mg6 2.946410 1_555
Co0 Mg7 2.946410 1_554
Co0 Mg8 2.946416 1_555
Co0 Mg9 2.946416 1_554
Co0 Mg10 2.946417 1_455
Co0 Mg11 2.946417 1_454
Co0 Mg4 3.129734 1_445
Co0 Mg0 3.129734 1_545
Co0 Mg4 3.129734 1_555
Co0 Mg0 3.129734 1_555
Co0 Mg2 3.129734 1_555
Co0 Mg2 3.129734 1_455
