# generated using pymatgen
data_CuPb2(BrO)2
_symmetry_space_group_name_H-M   'P 1'
_cell_length_a   7.78513334
_cell_length_b   7.78513334
_cell_length_c   12.33093500
_cell_angle_alpha   90.00000000
_cell_angle_beta   90.00000000
_cell_angle_gamma   88.44764251
_symmetry_Int_Tables_number   1
_chemical_formula_structural   CuPb2(BrO)2
_chemical_formula_sum   'Cu4 Pb8 Br8 O8'
_cell_volume   747.08273256
_cell_formula_units_Z   4
loop_
 _symmetry_equiv_pos_site_id
 _symmetry_equiv_pos_as_xyz
  1  'x, y, z'
loop_
 _atom_site_type_symbol
 _atom_site_label
 _atom_site_symmetry_multiplicity
 _atom_site_fract_x
 _atom_site_fract_y
 _atom_site_fract_z
 _atom_site_occupancy
  Cu  Cu0  1  0.12500000  0.62500000  0.41749000  1
  Cu  Cu1  1  0.62500000  0.12500000  0.41749000  1
  Cu  Cu2  1  0.37500000  0.87500000  0.58251000  1
  Cu  Cu3  1  0.87500000  0.37500000  0.58251000  1
  Pb  Pb0  1  0.37500000  0.37500000  0.10174800  1
  Pb  Pb1  1  0.37500000  0.87500000  0.10247300  1
  Pb  Pb2  1  0.87500000  0.37500000  0.10247300  1
  Pb  Pb3  1  0.87500000  0.87500000  0.10174800  1
  Pb  Pb4  1  0.12500000  0.12500000  0.89825200  1
  Pb  Pb5  1  0.12500000  0.62500000  0.89752700  1
  Pb  Pb6  1  0.62500000  0.12500000  0.89752700  1
  Pb  Pb7  1  0.62500000  0.62500000  0.89825200  1
  Br  Br0  1  0.37500000  0.37500000  0.37770700  1
  Br  Br1  1  0.37500000  0.87500000  0.38854500  1
  Br  Br2  1  0.87500000  0.37500000  0.38854500  1
  Br  Br3  1  0.87500000  0.87500000  0.37770700  1
  Br  Br4  1  0.12500000  0.12500000  0.62229300  1
  Br  Br5  1  0.12500000  0.62500000  0.61145500  1
  Br  Br6  1  0.62500000  0.12500000  0.61145500  1
  Br  Br7  1  0.62500000  0.62500000  0.62229300  1
  O  O0  1  0.37498600  0.12501400  0.00000000  1
  O  O1  1  0.37501400  0.62498600  0.00000000  1
  O  O2  1  0.87501400  0.12498600  0.00000000  1
  O  O3  1  0.87498600  0.62501400  0.00000000  1
  O  O4  1  0.12501400  0.37498600  0.00000000  1
  O  O5  1  0.12498600  0.87501400  0.00000000  1
  O  O6  1  0.62498600  0.37501400  0.00000000  1
  O  O7  1  0.62501400  0.87498600  0.00000000  1
loop_
_geom_bond_atom_site_label_1
_geom_bond_atom_site_label_2
_geom_bond_distance
_geom_bond_site_symmetry_2
Br0 Cu1 2.758886 1_555
Br0 Cu0 2.758886 1_555
Br1 Cu2 2.391770 1_555
Br1 Cu0 2.812235 1_555
Br1 Cu1 2.812235 1_565
Br2 Cu3 2.391770 1_555
Br2 Cu0 2.812235 1_655
Br2 Cu1 2.812235 1_555
Br3 Cu1 2.758886 1_565
Br3 Cu0 2.758886 1_655
Br4 Cu3 2.758886 1_455
Br4 Cu2 2.758886 1_545
Br5 Cu0 2.391770 1_555
Br5 Cu2 2.812235 1_555
Br5 Cu3 2.812235 1_455
Br6 Cu1 2.391770 1_555
Br6 Cu3 2.812235 1_555
Br6 Cu2 2.812235 1_545
Br7 Cu3 2.758886 1_555
Br7 Cu2 2.758886 1_555
O0 Pb4 2.315545 1_554
O0 Pb0 2.315545 1_555
O0 Pb1 2.320579 1_545
O0 Pb6 2.320579 1_554
O1 Pb7 2.315545 1_554
O1 Pb0 2.315545 1_555
O1 Pb1 2.320579 1_555
O1 Pb5 2.320579 1_554
O2 Pb3 2.315545 1_545
O2 Pb4 2.315545 1_654
O2 Pb6 2.320579 1_554
O2 Pb2 2.320579 1_555
O3 Pb7 2.315545 1_554
O3 Pb3 2.315545 1_555
O3 Pb5 2.320579 1_654
O3 Pb2 2.320579 1_555
O4 Pb4 2.315545 1_554
O4 Pb0 2.315545 1_555
O4 Pb2 2.320579 1_455
O4 Pb5 2.320579 1_554
O5 Pb3 2.315545 1_455
O5 Pb4 2.315545 1_564
O5 Pb5 2.320579 1_554
O5 Pb1 2.320579 1_555
O6 Pb7 2.315545 1_554
O6 Pb0 2.315545 1_555
O6 Pb2 2.320579 1_555
O6 Pb6 2.320579 1_554
O7 Pb7 2.315545 1_554
O7 Pb3 2.315545 1_555
O7 Pb1 2.320579 1_555
O7 Pb6 2.320579 1_564
