# generated using pymatgen
data_Ba2SrSeO6
_symmetry_space_group_name_H-M   'P 1'
_cell_length_a   5.99751956
_cell_length_b   5.99751956
_cell_length_c   5.99751956
_cell_angle_alpha   60.00000000
_cell_angle_beta   60.00000000
_cell_angle_gamma   60.00000000
_symmetry_Int_Tables_number   1
_chemical_formula_structural   Ba2SrSeO6
_chemical_formula_sum   'Ba2 Sr1 Se1 O6'
_cell_volume   152.54571783
_cell_formula_units_Z   1
loop_
 _symmetry_equiv_pos_site_id
 _symmetry_equiv_pos_as_xyz
  1  'x, y, z'
loop_
 _atom_site_type_symbol
 _atom_site_label
 _atom_site_symmetry_multiplicity
 _atom_site_fract_x
 _atom_site_fract_y
 _atom_site_fract_z
 _atom_site_occupancy
  Ba  Ba0  1  0.25000000  0.25000000  0.25000000  1
  Ba  Ba1  1  0.75000000  0.75000000  0.75000000  1
  Sr  Sr0  1  0.50000000  0.50000000  0.50000000  1
  Se  Se0  1  0.00000000  0.00000000  0.00000000  1
  O  O0  1  0.78276388  0.21723612  0.21723612  1
  O  O1  1  0.21723612  0.78276388  0.78276388  1
  O  O2  1  0.78276388  0.21723612  0.78276388  1
  O  O3  1  0.21723612  0.78276388  0.21723612  1
  O  O4  1  0.78276388  0.78276388  0.21723612  1
  O  O5  1  0.21723612  0.21723612  0.78276388  1
loop_
_geom_bond_atom_site_label_1
_geom_bond_atom_site_label_2
_geom_bond_distance
_geom_bond_site_symmetry_2
Ba0 O5 3.011609 1_555
Ba0 O5 3.011609 1_554
Ba0 O3 3.011609 1_545
Ba0 O2 3.011609 1_455
Ba0 O2 3.011609 1_554
Ba0 O4 3.011609 1_545
Ba0 O1 3.011609 1_545
Ba0 O0 3.011609 1_455
Ba0 O0 3.011609 1_555
Ba0 O3 3.011609 1_555
Ba0 O4 3.011609 1_455
Ba0 O1 3.011609 1_554
Ba1 O4 3.011609 1_556
Ba1 O1 3.011609 1_655
Ba1 O2 3.011609 1_565
Ba1 O3 3.011609 1_556
Ba1 O0 3.011609 1_556
Ba1 O3 3.011609 1_655
Ba1 O0 3.011609 1_565
Ba1 O5 3.011609 1_655
Ba1 O5 3.011609 1_565
Ba1 O4 3.011609 1_555
Ba1 O2 3.011609 1_555
Ba1 O1 3.011609 1_555
O0 Se0 1.842548 1_655
O0 Sr0 2.398339 1_555
O1 Se0 1.842548 1_566
O1 Sr0 2.398339 1_555
O2 Se0 1.842548 1_656
O2 Sr0 2.398339 1_555
O3 Se0 1.842548 1_565
O3 Sr0 2.398339 1_555
O4 Se0 1.842548 1_665
O4 Sr0 2.398339 1_555
O5 Se0 1.842548 1_556
O5 Sr0 2.398339 1_555
