# generated using pymatgen
data_Cd3TeO6
_symmetry_space_group_name_H-M   'P 1'
_cell_length_a   5.51890365
_cell_length_b   5.67412086
_cell_length_c   8.05791047
_cell_angle_alpha   90.00000000
_cell_angle_beta   90.04804204
_cell_angle_gamma   90.00000000
_symmetry_Int_Tables_number   1
_chemical_formula_structural   Cd3TeO6
_chemical_formula_sum   'Cd6 Te2 O12'
_cell_volume   252.33278386
_cell_formula_units_Z   2
loop_
 _symmetry_equiv_pos_site_id
 _symmetry_equiv_pos_as_xyz
  1  'x, y, z'
loop_
 _atom_site_type_symbol
 _atom_site_label
 _atom_site_symmetry_multiplicity
 _atom_site_fract_x
 _atom_site_fract_y
 _atom_site_fract_z
 _atom_site_occupancy
  Cd  Cd0  1  0.01278987  0.54613596  0.74121776  1
  Cd  Cd1  1  0.48721013  0.04613596  0.75878224  1
  Cd  Cd2  1  0.98721013  0.45386404  0.25878224  1
  Cd  Cd3  1  0.51278987  0.95386404  0.24121776  1
  Cd  Cd4  1  0.50000000  0.50000000  -0.00000000  1
  Cd  Cd5  1  0.00000000  -0.00000000  0.50000000  1
  Te  Te0  1  0.50000000  0.50000000  0.50000000  1
  Te  Te1  1  0.00000000  -0.00000000  -0.00000000  1
  O  O0  1  0.66660576  0.22292583  0.41850617  1
  O  O1  1  0.83339424  0.72292583  0.08149383  1
  O  O2  1  0.33339424  0.77707417  0.58149383  1
  O  O3  1  0.16660576  0.27707417  0.91850617  1
  O  O4  1  0.21248141  0.32331616  0.54912186  1
  O  O5  1  0.28751859  0.82331616  0.95087814  1
  O  O6  1  0.78751859  0.67668384  0.45087814  1
  O  O7  1  0.71248141  0.17668384  0.04912186  1
  O  O8  1  0.11920232  0.07312805  0.22150591  1
  O  O9  1  0.38079768  0.57312805  0.27849409  1
  O  O10  1  0.88079768  0.92687195  0.77849409  1
  O  O11  1  0.61920232  0.42687195  0.72150591  1
loop_
_geom_bond_atom_site_label_1
_geom_bond_atom_site_label_2
_geom_bond_distance
_geom_bond_site_symmetry_2
Cd0 O3 2.256146 1_555
Cd0 O11 2.280554 1_455
Cd0 O4 2.282953 1_555
Cd0 O10 2.299632 1_455
Cd0 O2 2.551096 1_555
Cd0 O6 2.750073 1_455
Cd0 O5 2.760848 1_555
Cd1 O2 2.256146 1_545
Cd1 O10 2.280554 1_545
Cd1 O5 2.282953 1_545
Cd1 O11 2.299632 1_555
Cd1 O3 2.551096 1_555
Cd1 O7 2.750073 1_556
Cd1 O4 2.760848 1_555
Cd2 O1 2.256146 1_555
Cd2 O9 2.280554 1_655
Cd2 O6 2.282953 1_555
Cd2 O8 2.299632 1_655
Cd2 O0 2.551096 1_555
Cd2 O4 2.750073 1_655
Cd2 O7 2.760848 1_555
Cd3 O0 2.256146 1_565
Cd3 O8 2.280554 1_565
Cd3 O7 2.282953 1_565
Cd3 O9 2.299632 1_555
Cd3 O1 2.551096 1_555
Cd3 O5 2.750073 1_554
Cd3 O6 2.760848 1_555
Cd4 O5 2.212816 1_554
Cd4 O7 2.212816 1_555
Cd4 O3 2.326945 1_554
Cd4 O1 2.326945 1_555
Cd4 O11 2.375570 1_554
Cd4 O9 2.375570 1_555
Cd5 O6 2.212816 1_445
Cd5 O4 2.212816 1_555
Cd5 O0 2.326945 1_455
Cd5 O2 2.326945 1_545
Cd5 O10 2.375570 1_445
Cd5 O8 2.375570 1_555
O0 Te0 1.936320 1_555
O1 Te1 1.936320 1_665
O2 Te0 1.936320 1_555
O3 Te1 1.936320 1_556
O4 Te0 1.918509 1_555
O5 Te1 1.918509 1_566
O6 Te0 1.918509 1_555
O7 Te1 1.918509 1_655
O8 Te1 1.946476 1_555
O9 Te0 1.946476 1_555
O10 Te1 1.946476 1_666
O11 Te0 1.946476 1_555
