# generated using pymatgen
data_CaWO2
_symmetry_space_group_name_H-M   'P 1'
_cell_length_a   7.39204584
_cell_length_b   7.39204584
_cell_length_c   7.39204584
_cell_angle_alpha   129.86715672
_cell_angle_beta   129.86715672
_cell_angle_gamma   73.61922588
_symmetry_Int_Tables_number   1
_chemical_formula_structural   CaWO2
_chemical_formula_sum   'Ca4 W4 O8'
_cell_volume   232.18753726
_cell_formula_units_Z   4
loop_
 _symmetry_equiv_pos_site_id
 _symmetry_equiv_pos_as_xyz
  1  'x, y, z'
loop_
 _atom_site_type_symbol
 _atom_site_label
 _atom_site_symmetry_multiplicity
 _atom_site_fract_x
 _atom_site_fract_y
 _atom_site_fract_z
 _atom_site_occupancy
  Ca  Ca0  1  0.87500000  0.62500000  0.25000000  1
  Ca  Ca1  1  0.37500000  0.62500000  0.75000000  1
  Ca  Ca2  1  0.37500000  0.62500000  0.25000000  1
  Ca  Ca3  1  0.37500000  0.12500000  0.75000000  1
  W  W0  1  0.37500000  0.12500000  0.25000000  1
  W  W1  1  0.87500000  0.12500000  0.75000000  1
  W  W2  1  0.87500000  0.12500000  0.25000000  1
  W  W3  1  0.87500000  0.62500000  0.75000000  1
  O  O0  1  0.17572000  0.39982100  0.22410100  1
  O  O1  1  0.17572000  0.95161900  0.77589900  1
  O  O2  1  0.14982100  0.42572000  0.72410100  1
  O  O3  1  0.57428000  0.85017900  0.27589900  1
  O  O4  1  0.70161900  0.42572000  0.27589900  1
  O  O5  1  0.57428000  0.29838100  0.72410100  1
  O  O6  1  0.60017900  0.82428000  0.77589900  1
  O  O7  1  0.04838100  0.82428000  0.22410100  1
loop_
_geom_bond_atom_site_label_1
_geom_bond_atom_site_label_2
_geom_bond_distance
_geom_bond_site_symmetry_2
Ca0 O4 2.364369 1_555
Ca0 O7 2.364369 1_655
Ca0 O5 2.408068 1_554
Ca0 O3 2.408068 1_555
Ca0 O1 2.408068 1_655
Ca0 O0 2.408068 1_655
Ca1 O2 2.364369 1_555
Ca1 O6 2.364369 1_555
Ca1 O3 2.408068 1_556
Ca1 O1 2.408068 1_555
Ca1 O5 2.408068 1_555
Ca1 O0 2.408068 1_555
Ca2 O3 2.364369 1_555
Ca2 O0 2.364369 1_555
Ca2 O6 2.408068 1_555
Ca2 O4 2.408068 1_555
Ca2 O7 2.408068 1_555
Ca2 O2 2.408068 1_554
Ca3 O5 2.364369 1_555
Ca3 O1 2.364369 1_545
Ca3 O4 2.408068 1_556
Ca3 O2 2.408068 1_555
Ca3 O6 2.408068 1_545
Ca3 O7 2.408068 1_545
O0 W1 2.186943 1_454
O0 W0 2.186943 1_555
O1 W0 2.186943 1_566
O1 W1 2.186943 1_465
O2 W3 2.186943 1_455
O2 W2 2.186943 1_455
O3 W0 2.186943 1_565
O3 W1 2.186943 1_565
O4 W2 2.186943 1_555
O4 W3 2.186943 1_555
O5 W1 2.186943 1_555
O5 W0 2.186943 1_555
O6 W3 2.186943 1_555
O6 W2 2.186943 1_566
O7 W3 2.186943 1_454
O7 W2 2.186943 1_465
