# generated using pymatgen
data_Li3V3SbO8
_symmetry_space_group_name_H-M   'P 1'
_cell_length_a   6.10471741
_cell_length_b   6.10843486
_cell_length_c   10.57031369
_cell_angle_alpha   106.47242619
_cell_angle_beta   106.50000284
_cell_angle_gamma   60.62372449
_symmetry_Int_Tables_number   1
_chemical_formula_structural   Li3V3SbO8
_chemical_formula_sum   'Li6 V6 Sb2 O16'
_cell_volume   324.39734589
_cell_formula_units_Z   2
loop_
 _symmetry_equiv_pos_site_id
 _symmetry_equiv_pos_as_xyz
  1  'x, y, z'
loop_
 _atom_site_type_symbol
 _atom_site_label
 _atom_site_symmetry_multiplicity
 _atom_site_fract_x
 _atom_site_fract_y
 _atom_site_fract_z
 _atom_site_occupancy
  Li  Li0  1  0.75027800  0.74973600  0.75001200  1
  Li  Li1  1  0.25026100  0.24971700  0.24999000  1
  Li  Li2  1  0.50024900  0.99966200  0.99992900  1
  Li  Li3  1  0.00020800  0.49961800  0.49995800  1
  Li  Li4  1  0.00033500  0.49974300  0.00006600  1
  Li  Li5  1  0.50036300  0.99979000  0.50003900  1
  V  V0  1  0.50103100  0.49897600  0.00001700  1
  V  V1  1  0.74857900  0.25057900  0.75038400  1
  V  V2  1  0.74948400  0.25138800  0.24960900  1
  V  V3  1  0.00130400  0.99870300  0.50001600  1
  V  V4  1  0.24852400  0.75054400  0.25041500  1
  V  V5  1  0.24948100  0.75146400  0.74957100  1
  Sb  Sb0  1  0.50071000  0.49927400  0.49997300  1
  Sb  Sb1  1  0.00037500  0.99955900  0.99994800  1
  O  O0  1  0.88903500  0.89097000  0.63944300  1
  O  O1  1  0.38908100  0.39090500  0.13944100  1
  O  O2  1  0.10946000  0.11061500  0.36062200  1
  O  O3  1  0.60947000  0.61062900  0.86061800  1
  O  O4  1  0.38547500  0.38572500  0.61939700  1
  O  O5  1  0.88516500  0.88595300  0.11939700  1
  O  O6  1  0.61450500  0.61435600  0.38057100  1
  O  O7  1  0.11426900  0.11472500  0.88061900  1
  O  O8  1  0.12403400  0.65717100  0.87994300  1
  O  O9  1  0.62415600  0.15693600  0.37995500  1
  O  O10  1  0.65614300  0.12290800  0.88041200  1
  O  O11  1  0.15631200  0.62288900  0.38047100  1
  O  O12  1  0.87757600  0.34315800  0.11958100  1
  O  O13  1  0.37769200  0.84307100  0.61962700  1
  O  O14  1  0.34308100  0.87563100  0.12000200  1
  O  O15  1  0.84335800  0.37559900  0.61997200  1
loop_
_geom_bond_atom_site_label_1
_geom_bond_atom_site_label_2
_geom_bond_distance
_geom_bond_site_symmetry_2
Li0 O3 2.163026 1_555
Li0 O0 2.163083 1_555
Li0 O13 2.188770 1_555
Li0 O8 2.192409 1_655
Li0 O10 2.192981 1_565
Li0 O15 2.196226 1_555
Li1 O1 2.162997 1_555
Li1 O2 2.163182 1_555
Li1 O12 2.189270 1_455
Li1 O9 2.193080 1_555
Li1 O11 2.193410 1_555
Li1 O14 2.195893 1_545
Li2 O5 2.193018 1_556
Li2 O7 2.196936 1_565
Li2 O10 2.234663 1_565
Li2 O14 2.248491 1_556
Li2 O3 2.297584 1_555
Li2 O1 2.307682 1_566
Li3 O4 2.194469 1_555
Li3 O6 2.196044 1_455
Li3 O11 2.235487 1_555
Li3 O15 2.246492 1_455
Li3 O2 2.297560 1_555
Li3 O0 2.308031 1_455
Li4 O7 2.195250 1_554
Li4 O5 2.199954 1_455
Li4 O12 2.235782 1_455
Li4 O8 2.248729 1_554
Li4 O1 2.294772 1_555
Li4 O3 2.303858 1_454
Li5 O6 2.197186 1_555
Li5 O4 2.198868 1_565
Li5 O13 2.236622 1_555
Li5 O9 2.247516 1_565
Li5 O0 2.294587 1_555
Li5 O2 2.303895 1_565
O0 V5 2.047205 1_655
O0 V1 2.048923 1_565
O0 V3 2.154329 1_655
O1 V2 2.047184 1_555
O1 V4 2.049221 1_555
O1 V0 2.154366 1_555
O2 V4 2.047490 1_545
O2 V2 2.049183 1_455
O2 V3 2.154284 1_545
O3 V1 2.047522 1_555
O3 V5 2.049399 1_555
O3 V0 2.154418 1_556
O4 Sb0 2.012257 1_555
O4 V1 2.149798 1_555
O4 V5 2.158615 1_555
O5 Sb1 2.012610 1_654
O5 V4 2.151074 1_655
O5 V2 2.157451 1_565
O6 Sb0 2.012460 1_555
O6 V2 2.150830 1_555
O6 V4 2.157804 1_555
O7 Sb1 2.012601 1_545
O7 V5 2.152516 1_545
O7 V1 2.156882 1_455
O8 Sb1 2.010859 1_555
O8 V5 2.073569 1_555
O8 V0 2.166984 1_556
O9 Sb0 2.010656 1_555
O9 V2 2.073460 1_555
O9 V3 2.167573 1_645
O10 Sb1 2.014573 1_645
O10 V1 2.072652 1_555
O10 V0 2.161243 1_556
O11 Sb0 2.015172 1_555
O11 V4 2.071953 1_555
O11 V3 2.159874 1_555
O12 Sb1 2.013933 1_644
O12 V2 2.071782 1_555
O12 V0 2.161631 1_555
O13 Sb0 2.014907 1_555
O13 V5 2.070896 1_555
O13 V3 2.161085 1_555
O14 Sb1 2.010805 1_554
O14 V4 2.073493 1_555
O14 V0 2.166826 1_555
O15 Sb0 2.010240 1_555
O15 V1 2.074079 1_555
O15 V3 2.167696 1_645
