# generated using pymatgen
data_Li4MnCo3O8
_symmetry_space_group_name_H-M   'P 1'
_cell_length_a   2.98019929
_cell_length_b   2.98019929
_cell_length_c   19.61010312
_cell_angle_alpha   84.21101773
_cell_angle_beta   84.21101773
_cell_angle_gamma   58.49252241
_symmetry_Int_Tables_number   1
_chemical_formula_structural   Li4MnCo3O8
_chemical_formula_sum   'Li4 Mn1 Co3 O8'
_cell_volume   147.49595690
_cell_formula_units_Z   1
loop_
 _symmetry_equiv_pos_site_id
 _symmetry_equiv_pos_as_xyz
  1  'x, y, z'
loop_
 _atom_site_type_symbol
 _atom_site_label
 _atom_site_symmetry_multiplicity
 _atom_site_fract_x
 _atom_site_fract_y
 _atom_site_fract_z
 _atom_site_occupancy
  Li  Li0  1  0.62442700  0.62442700  0.62412100  1
  Li  Li1  1  0.37557300  0.37557300  0.37587900  1
  Li  Li2  1  0.12461700  0.12461700  0.12732800  1
  Li  Li3  1  0.87538300  0.87538300  0.87267200  1
  Mn  Mn0  1  0.50000000  0.50000000  0.00000000  1
  Co  Co0  1  0.25058100  0.25058100  0.74927700  1
  Co  Co1  1  0.00000000  0.00000000  0.50000000  1
  Co  Co2  1  0.74941900  0.74941900  0.25072300  1
  O  O0  1  0.93419100  0.93419100  0.69340300  1
  O  O1  1  0.68783100  0.68783100  0.44232600  1
  O  O2  1  0.43450400  0.43450400  0.19332000  1
  O  O3  1  0.16061700  0.16061700  0.94161200  1
  O  O4  1  0.31216900  0.31216900  0.55767400  1
  O  O5  1  0.06580900  0.06580900  0.30659700  1
  O  O6  1  0.83938300  0.83938300  0.05838800  1
  O  O7  1  0.56549600  0.56549600  0.80668000  1
loop_
_geom_bond_atom_site_label_1
_geom_bond_atom_site_label_2
_geom_bond_distance
_geom_bond_site_symmetry_2
Li0 O4 2.115903 1_655
Li0 O4 2.115903 1_565
Li0 O0 2.152647 1_545
Li0 O0 2.152647 1_455
Li0 O4 2.196425 1_555
Li0 O0 2.224208 1_555
Li1 O1 2.115903 1_545
Li1 O1 2.115903 1_455
Li1 O5 2.152647 1_655
Li1 O5 2.152647 1_565
Li1 O1 2.196425 1_555
Li1 O5 2.224208 1_555
Li2 O2 2.115757 1_545
Li2 O2 2.115757 1_455
Li2 O6 2.119386 1_445
Li2 O2 2.180407 1_555
Li2 O6 2.201379 1_545
Li2 O6 2.201379 1_455
Li3 O7 2.115757 1_655
Li3 O7 2.115757 1_565
Li3 O3 2.119386 1_665
Li3 O7 2.180407 1_555
Li3 O3 2.201379 1_565
Li3 O3 2.201379 1_655
Mn0 O6 1.976769 1_545
Mn0 O6 1.976769 1_455
Mn0 O3 1.976769 1_654
Mn0 O3 1.976769 1_564
Mn0 O6 2.212120 1_555
Mn0 O3 2.212120 1_554
Co0 O0 1.997610 1_455
Co0 O0 1.997610 1_545
Co0 O7 2.015724 1_545
Co0 O7 2.015724 1_455
Co0 O0 2.079613 1_445
Co0 O7 2.091799 1_555
Co1 O1 2.024331 1_545
Co1 O4 2.024331 1_545
Co1 O4 2.024331 1_455
Co1 O1 2.024331 1_455
Co1 O4 2.083103 1_555
Co1 O1 2.083103 1_445
Co2 O5 1.997610 1_655
Co2 O5 1.997610 1_565
Co2 O2 2.015724 1_655
Co2 O2 2.015724 1_565
Co2 O5 2.079613 1_665
Co2 O2 2.091799 1_555
