# generated using pymatgen
data_Pt(NCl)4
_symmetry_space_group_name_H-M   'P 1'
_cell_length_a   6.30384724
_cell_length_b   6.30384724
_cell_length_c   6.30384724
_cell_angle_alpha   123.09527133
_cell_angle_beta   123.09527133
_cell_angle_gamma   84.71754679
_symmetry_Int_Tables_number   1
_chemical_formula_structural   Pt(NCl)4
_chemical_formula_sum   'Pt1 N4 Cl4'
_cell_volume   168.06638740
_cell_formula_units_Z   1
loop_
 _symmetry_equiv_pos_site_id
 _symmetry_equiv_pos_as_xyz
  1  'x, y, z'
loop_
 _atom_site_type_symbol
 _atom_site_label
 _atom_site_symmetry_multiplicity
 _atom_site_fract_x
 _atom_site_fract_y
 _atom_site_fract_z
 _atom_site_occupancy
  Pt  Pt0  1  0.00000000  0.00000000  0.00000000  1
  N  N0  1  0.23024300  0.23024300  0.46048600  1
  N  N1  1  0.76975700  0.76975700  0.53951400  1
  N  N2  1  0.23024300  0.76975700  0.00000000  1
  N  N3  1  0.76975700  0.23024300  0.00000000  1
  Cl  Cl0  1  0.74249400  0.74249400  0.00000000  1
  Cl  Cl1  1  0.25750600  0.25750600  0.00000000  1
  Cl  Cl2  1  0.50000000  0.00000000  0.50000000  1
  Cl  Cl3  1  0.00000000  0.50000000  0.50000000  1
loop_
_geom_bond_atom_site_label_1
_geom_bond_atom_site_label_2
_geom_bond_distance
_geom_bond_site_symmetry_2
N0 Pt0 1.955845 1_555
N1 Pt0 1.955845 1_666
N2 Pt0 1.955845 1_565
N3 Pt0 1.955845 1_655
Cl0 Pt0 2.399012 1_665
Cl1 Pt0 2.399012 1_555
Cl2 N1 2.130296 1_545
Cl2 N3 2.130296 1_556
Cl2 N2 2.130296 1_545
Cl2 N0 2.130296 1_555
Cl3 N2 2.130296 1_556
Cl3 N1 2.130296 1_455
Cl3 N3 2.130296 1_455
Cl3 N0 2.130296 1_555
