# generated using pymatgen
data_MgVCr2Fe3(PO4)6
_symmetry_space_group_name_H-M   'P 1'
_cell_length_a   8.70869889
_cell_length_b   8.66489385
_cell_length_c   8.66219051
_cell_angle_alpha   60.19734918
_cell_angle_beta   61.30408746
_cell_angle_gamma   59.35695182
_symmetry_Int_Tables_number   1
_chemical_formula_structural   MgVCr2Fe3(PO4)6
_chemical_formula_sum   'Mg1 V1 Cr2 Fe3 P6 O24'
_cell_volume   464.92348287
_cell_formula_units_Z   1
loop_
 _symmetry_equiv_pos_site_id
 _symmetry_equiv_pos_as_xyz
  1  'x, y, z'
loop_
 _atom_site_type_symbol
 _atom_site_label
 _atom_site_symmetry_multiplicity
 _atom_site_fract_x
 _atom_site_fract_y
 _atom_site_fract_z
 _atom_site_occupancy
  Mg  Mg0  1  0.24131000  0.25762400  0.24770800  1
  V  V0  1  0.60849600  0.12701100  0.13255600  1
  Cr  Cr0  1  0.01943400  0.99927500  0.98737300  1
  Cr  Cr1  1  0.48653300  0.50511100  0.50371600  1
  Fe  Fe0  1  0.04906400  0.64417600  0.65523100  1
  Fe  Fe1  1  0.44209500  0.85486800  0.85345400  1
  Fe  Fe2  1  0.88605100  0.36515900  0.37726500  1
  P  P0  1  0.26484500  0.25410100  0.53925600  1
  P  P1  1  0.25602100  0.94820300  0.24956500  1
  P  P2  1  0.25578900  0.55121500  0.94304000  1
  P  P3  1  0.74644300  0.45649000  0.04489500  1
  P  P4  1  0.74506800  0.04021100  0.75417800  1
  P  P5  1  0.73350800  0.74803400  0.46989400  1
  O  O0  1  0.08150500  0.11286800  0.30876200  1
  O  O1  1  0.08476700  0.50493500  0.10225300  1
  O  O2  1  0.08942600  0.31222800  0.49071900  1
  O  O3  1  0.25512800  0.10138400  0.73270200  1
  O  O4  1  0.43104000  0.19890700  0.37064100  1
  O  O5  1  0.27992200  0.42392700  0.54589600  1
  O  O6  1  0.23794800  0.92897200  0.09092100  1
  O  O7  1  0.28069800  0.75350300  0.41244500  1
  O  O8  1  0.57357200  0.59611400  0.98184000  1
  O  O9  1  0.27739000  0.55575100  0.74975200  1
  O  O10  1  0.79335200  0.24791800  0.06240200  1
  O  O11  1  0.57948400  0.97527000  0.84969500  1
  O  O12  1  0.42272700  0.00643200  0.19232400  1
  O  O13  1  0.23757300  0.74901400  0.91851900  1
  O  O14  1  0.69631900  0.45690800  0.24579300  1
  O  O15  1  0.42772500  0.37829000  0.00224200  1
  O  O16  1  0.69050500  0.24307800  0.60409900  1
  O  O17  1  0.79111100  0.05700700  0.89947200  1
  O  O18  1  0.68967100  0.59409200  0.46711600  1
  O  O19  1  0.56313100  0.84196800  0.60546800  1
  O  O20  1  0.77219700  0.89277200  0.26689200  1
  O  O21  1  0.91326300  0.66123700  0.52141800  1
  O  O22  1  0.92208000  0.50595900  0.90533200  1
  O  O23  1  0.92480600  0.89998900  0.66516400  1
loop_
_geom_bond_atom_site_label_1
_geom_bond_atom_site_label_2
_geom_bond_distance
_geom_bond_site_symmetry_2
Mg0 O1 2.006440 1_555
Mg0 O2 2.020570 1_555
Mg0 O0 2.050118 1_555
Mg0 O12 2.065996 1_555
Mg0 O4 2.101686 1_555
Mg0 O15 2.110753 1_555
Cr0 O13 2.159901 1_555
Cr0 O6 2.170539 1_556
Cr0 O10 2.186218 1_466
Cr0 O17 2.201152 1_465
Cr0 O3 2.329193 1_565
Cr0 O20 2.479514 1_456
Cr1 O7 2.051179 1_555
Cr1 O5 2.066229 1_555
Cr1 O18 2.105561 1_555
Cr1 O9 2.106931 1_555
Cr1 O16 2.115678 1_555
Cr1 O14 2.175711 1_555
Fe0 O21 1.931824 1_455
Fe0 O23 1.935650 1_455
Fe0 O22 1.954722 1_455
Fe0 O9 2.144310 1_555
Fe0 O5 2.153603 1_555
Fe0 O7 2.298490 1_555
Fe1 O19 1.918870 1_555
Fe1 O8 1.924080 1_555
Fe1 O11 1.929325 1_555
Fe1 O3 2.043804 1_565
Fe1 O6 2.107500 1_556
Fe1 O13 2.125739 1_555
Fe2 O14 2.056010 1_555
Fe2 O18 2.064888 1_555
Fe2 O16 2.106346 1_555
Fe2 O0 2.134175 1_655
Fe2 O2 2.169911 1_655
Fe2 O1 2.333718 1_655
O0 P1 1.541721 1_545
O1 P2 1.538702 1_554
O2 P0 1.544730 1_555
O3 P0 1.529682 1_555
O4 P0 1.554179 1_555
O4 V0 2.065098 1_555
O5 P0 1.572982 1_555
O6 P1 1.550175 1_555
O7 P1 1.561576 1_555
O8 P3 1.518099 1_556
O9 P2 1.574758 1_555
O10 P3 1.578136 1_555
O10 V0 2.050709 1_555
O11 P4 1.516320 1_565
O12 P1 1.553979 1_545
O12 V0 2.087573 1_555
O13 P2 1.549545 1_555
O14 P3 1.579265 1_555
O15 P2 1.560987 1_554
O15 V0 2.064602 1_555
O16 P4 1.573525 1_555
O17 P4 1.578649 1_555
O17 V0 2.030776 1_556
O18 P5 1.576519 1_555
O19 P5 1.512908 1_555
O20 P5 1.564649 1_555
O20 V0 1.949816 1_565
O21 P5 1.533799 1_555
O22 P3 1.536975 1_556
O23 P4 1.534411 1_565
