# generated using pymatgen
data_Ti12Se16O3
_symmetry_space_group_name_H-M   'P 1'
_cell_length_a   10.83670148
_cell_length_b   10.83670148
_cell_length_c   9.99580907
_cell_angle_alpha   62.63684552
_cell_angle_beta   62.63684552
_cell_angle_gamma   41.30781329
_symmetry_Int_Tables_number   1
_chemical_formula_structural   Ti12Se16O3
_chemical_formula_sum   'Ti12 Se16 O3'
_cell_volume   674.94187354
_cell_formula_units_Z   1
loop_
 _symmetry_equiv_pos_site_id
 _symmetry_equiv_pos_as_xyz
  1  'x, y, z'
loop_
 _atom_site_type_symbol
 _atom_site_label
 _atom_site_symmetry_multiplicity
 _atom_site_fract_x
 _atom_site_fract_y
 _atom_site_fract_z
 _atom_site_occupancy
  Ti  Ti0  1  0.30936500  0.30936500  0.48417500  1
  Ti  Ti1  1  0.82059800  0.82059800  0.36440700  1
  Ti  Ti2  1  0.13338400  0.13338400  0.63733000  1
  Ti  Ti3  1  0.54134200  0.54134200  0.73344600  1
  Ti  Ti4  1  0.23647500  0.23647500  0.89803100  1
  Ti  Ti5  1  0.70274800  0.70274800  0.86216300  1
  Ti  Ti6  1  0.71628500  0.17708700  0.50486400  1
  Ti  Ti7  1  0.17708700  0.71628500  0.50486400  1
  Ti  Ti8  1  0.89444600  0.35834000  0.35966000  1
  Ti  Ti9  1  0.35834000  0.89444600  0.35966000  1
  Ti  Ti10  1  0.81291200  0.30310000  0.13407200  1
  Ti  Ti11  1  0.30310000  0.81291200  0.13407200  1
  Se  Se0  1  0.04294000  0.04294000  0.32796900  1
  Se  Se1  1  0.54200800  0.54200800  0.34158700  1
  Se  Se2  1  0.97421000  0.45974500  0.66151200  1
  Se  Se3  1  0.45974500  0.97421000  0.66151200  1
  Se  Se4  1  0.22337400  0.22337400  0.34637900  1
  Se  Se5  1  0.67958200  0.67958200  0.42852700  1
  Se  Se6  1  0.07167700  0.07167700  0.94907300  1
  Se  Se7  1  0.56212400  0.56212400  0.96130800  1
  Se  Se8  1  0.36953400  0.36953400  0.65580400  1
  Se  Se9  1  0.85239700  0.85239700  0.66973600  1
  Se  Se10  1  0.82729500  0.22728400  0.64515100  1
  Se  Se11  1  0.22728400  0.82729500  0.64515100  1
  Se  Se12  1  0.90941400  0.48359500  0.06058200  1
  Se  Se13  1  0.48359500  0.90941400  0.06058200  1
  Se  Se14  1  0.63583600  0.17946300  0.29793400  1
  Se  Se15  1  0.17946300  0.63583600  0.29793400  1
  O  O0  1  0.44927400  0.44927400  0.84448700  1
  O  O1  1  0.28875400  0.28875400  0.98362000  1
  O  O2  1  0.84041400  0.84041400  0.18441100  1
loop_
_geom_bond_atom_site_label_1
_geom_bond_atom_site_label_2
_geom_bond_distance
_geom_bond_site_symmetry_2
Se0 Ti9 2.575961 1_545
Se0 Ti8 2.575961 1_455
Se0 Ti6 2.578481 1_455
Se0 Ti7 2.578481 1_545
Se0 Ti11 2.603588 1_545
Se0 Ti10 2.603588 1_455
Se1 Ti9 2.732081 1_555
Se1 Ti8 2.732081 1_555
Se1 Ti10 2.746653 1_555
Se1 Ti11 2.746653 1_555
Se1 Ti6 2.747546 1_555
Se1 Ti7 2.747546 1_555
Se2 Ti2 2.603724 1_655
Se2 Ti0 2.614242 1_655
Se2 Ti5 2.721094 1_555
Se2 Ti4 3.179384 1_655
Se2 Ti1 3.312368 1_555
Se3 Ti2 2.603724 1_565
Se3 Ti0 2.614242 1_565
Se3 Ti5 2.721094 1_555
Se3 Ti4 3.179384 1_565
Se3 Ti1 3.312368 1_555
Se4 Ti2 2.564098 1_555
Se4 Ti8 2.602611 1_455
Se4 Ti9 2.602611 1_545
Se4 Ti0 2.701530 1_555
Se5 Ti9 2.562437 1_555
Se5 Ti8 2.562437 1_555
Se5 Ti1 2.605551 1_555
Se5 Ti3 2.958907 1_555
Se6 Ti11 2.550180 1_546
Se6 Ti10 2.550180 1_456
Se6 Ti2 2.728612 1_555
Se6 Ti4 3.123338 1_555
Se7 Ti3 2.511664 1_555
Se7 Ti5 2.517729 1_555
Se7 Ti10 2.577765 1_556
Se7 Ti11 2.577765 1_556
Se8 Ti0 2.547308 1_555
Se8 Ti7 2.579367 1_555
Se8 Ti6 2.579367 1_555
Se8 Ti4 2.593376 1_555
Se9 Ti6 2.525667 1_565
Se9 Ti7 2.525667 1_655
Se9 Ti5 2.678758 1_555
Se10 Ti3 2.523326 1_555
Se10 Ti8 2.570657 1_555
Se10 Ti2 2.609203 1_655
Se10 Ti6 2.635243 1_555
Se11 Ti3 2.523326 1_555
Se11 Ti9 2.570657 1_555
Se11 Ti2 2.609203 1_565
Se11 Ti7 2.635243 1_555
Se12 Ti5 2.520357 1_554
Se12 Ti10 2.550507 1_555
Se12 Ti4 2.611518 1_654
Se12 Ti8 2.638331 1_555
Se13 Ti5 2.520357 1_554
Se13 Ti11 2.550507 1_555
Se13 Ti4 2.611518 1_564
Se13 Ti9 2.638331 1_555
Se14 Ti6 2.571789 1_555
Se14 Ti1 2.593003 1_545
Se14 Ti0 2.614635 1_555
Se14 Ti10 2.667603 1_555
Se15 Ti7 2.571789 1_555
Se15 Ti1 2.593003 1_455
Se15 Ti0 2.614635 1_555
Se15 Ti11 2.667603 1_555
O0 Ti3 1.637786 1_555
O1 Ti4 1.657451 1_555
O2 Ti1 1.639608 1_555
