# generated using pymatgen
data_Ta7(B4Ru3)2
_symmetry_space_group_name_H-M   'P 1'
_cell_length_a   9.53935145
_cell_length_b   9.53936726
_cell_length_c   3.10402913
_cell_angle_alpha   90.00000010
_cell_angle_beta   90.00000282
_cell_angle_gamma   120.00025177
_symmetry_Int_Tables_number   1
_chemical_formula_structural   Ta7(B4Ru3)2
_chemical_formula_sum   'Ta7 B8 Ru6'
_cell_volume   244.62099962
_cell_formula_units_Z   1
loop_
 _symmetry_equiv_pos_site_id
 _symmetry_equiv_pos_as_xyz
  1  'x, y, z'
loop_
 _atom_site_type_symbol
 _atom_site_label
 _atom_site_symmetry_multiplicity
 _atom_site_fract_x
 _atom_site_fract_y
 _atom_site_fract_z
 _atom_site_occupancy
  Ta  Ta0  1  -0.00000401  -0.00000088  0.00000002  1
  Ta  Ta1  1  0.72424267  0.63779114  0.00000005  1
  Ta  Ta2  1  0.36220134  0.08646621  -0.00000000  1
  Ta  Ta3  1  0.91355197  0.27575773  -0.00000003  1
  Ta  Ta4  1  0.27575936  0.36221895  -0.00000001  1
  Ta  Ta5  1  0.63778720  0.91353143  -0.00000003  1
  Ta  Ta6  1  0.08645320  0.72424134  -0.00000001  1
  B  B0  1  0.66667533  0.33333697  0.00000001  1
  B  B1  1  0.33333082  0.66666259  0.00000004  1
  B  B2  1  0.15342653  0.93461342  0.50000000  1
  B  B3  1  0.06537385  0.21881132  0.49999994  1
  B  B4  1  0.78118077  0.84656403  0.50000001  1
  B  B5  1  0.84656091  0.06538228  0.49999994  1
  B  B6  1  0.93461052  0.78117927  0.49999999  1
  B  B7  1  0.21881678  0.15343218  0.50000003  1
  Ru  Ru0  1  0.36046079  0.84643045  0.50000010  1
  Ru  Ru1  1  0.15357388  0.51402373  0.50000022  1
  Ru  Ru2  1  0.48599133  0.63953349  0.49999983  1
  Ru  Ru3  1  0.63953868  0.15355801  0.49999995  1
  Ru  Ru4  1  0.84643897  0.48598095  0.50000000  1
  Ru  Ru5  1  0.51403010  0.36048438  0.49999995  1
loop_
_geom_bond_atom_site_label_1
_geom_bond_atom_site_label_2
_geom_bond_distance
_geom_bond_site_symmetry_2
B0 Ru4 2.229947 1_555
B0 Ru4 2.229947 1_554
B0 Ru3 2.230012 1_555
B0 Ru3 2.230013 1_554
B0 Ru5 2.230077 1_555
B0 Ru5 2.230077 1_554
B0 Ta3 2.672356 1_555
B0 Ta1 2.672379 1_555
B0 Ta2 2.672438 1_555
B1 Ru1 2.229905 1_554
B1 Ru1 2.229906 1_555
B1 Ru0 2.229954 1_554
B1 Ru0 2.229954 1_555
B1 Ru2 2.230103 1_555
B1 Ru2 2.230104 1_554
B1 Ta4 2.672266 1_555
B1 Ta5 2.672323 1_555
B1 Ta6 2.672362 1_555
B2 B6 1.855849 1_455
B2 B7 1.855862 1_565
B2 Ta6 2.358411 1_555
B2 Ta6 2.358411 1_556
B2 Ta2 2.364007 1_566
B2 Ta2 2.364007 1_565
B2 Ta0 2.419283 1_565
B2 Ta0 2.419284 1_566
B2 Ru0 2.503903 1_555
B3 B5 1.855817 1_455
B3 B7 1.855918 1_555
B3 Ta4 2.358492 1_555
B3 Ta4 2.358492 1_556
B3 Ta3 2.363923 1_455
B3 Ta3 2.363923 1_456
B3 Ta0 2.419266 1_555
B3 Ta0 2.419267 1_556
B3 Ru1 2.503819 1_555
B4 B6 1.855837 1_555
B4 B5 1.855879 1_565
B4 Ta5 2.358346 1_556
B4 Ta5 2.358346 1_555
B4 Ta1 2.363969 1_555
B4 Ta1 2.363969 1_556
B4 Ta0 2.419279 1_666
B4 Ta0 2.419279 1_665
B4 Ru2 2.503690 1_555
B5 Ta3 2.358408 1_555
B5 Ta3 2.358408 1_556
B5 Ta5 2.363998 1_545
B5 Ta5 2.363998 1_546
B5 Ta0 2.419302 1_655
B5 Ta0 2.419302 1_656
B5 Ru3 2.503743 1_555
B6 Ta1 2.358368 1_555
B6 Ta1 2.358369 1_556
B6 Ta6 2.364024 1_656
B6 Ta6 2.364024 1_655
B6 Ta0 2.419308 1_665
B6 Ta0 2.419308 1_666
B6 Ru4 2.503752 1_555
B7 Ta2 2.358277 1_556
B7 Ta2 2.358277 1_555
B7 Ta4 2.364057 1_556
B7 Ta4 2.364057 1_555
B7 Ta0 2.419306 1_555
B7 Ta0 2.419306 1_556
B7 Ru5 2.503903 1_555
Ru0 Ta6 2.748249 1_556
Ru0 Ta6 2.748250 1_555
Ru0 Ta2 2.759373 1_566
Ru0 Ta2 2.759373 1_565
Ru0 Ta5 2.850230 1_556
Ru0 Ta5 2.850231 1_555
Ru1 Ta4 2.748137 1_556
Ru1 Ta4 2.748138 1_555
Ru1 Ta3 2.759195 1_456
Ru1 Ta3 2.759196 1_455
Ru1 Ta6 2.850285 1_556
Ru1 Ta6 2.850285 1_555
Ru2 Ta5 2.748177 1_555
Ru2 Ta5 2.748177 1_556
Ru2 Ta1 2.759031 1_555
Ru2 Ta1 2.759032 1_556
Ru2 Ta4 2.850178 1_555
Ru2 Ta4 2.850179 1_556
Ru3 Ta3 2.748284 1_556
Ru3 Ta3 2.748284 1_555
Ru3 Ta5 2.759258 1_545
Ru3 Ta5 2.759258 1_546
Ru3 Ta2 2.850336 1_555
Ru3 Ta2 2.850337 1_556
Ru4 Ta1 2.748246 1_555
Ru4 Ta1 2.748247 1_556
Ru4 Ta6 2.759143 1_656
Ru4 Ta6 2.759143 1_655
Ru4 Ta3 2.850286 1_556
Ru4 Ta3 2.850286 1_555
Ru5 Ta2 2.748326 1_555
Ru5 Ta2 2.748326 1_556
Ru5 Ta4 2.759153 1_555
Ru5 Ta4 2.759153 1_556
Ru5 Ta1 2.850091 1_555
Ru5 Ta1 2.850091 1_556
