# generated using pymatgen
data_Yb5(Ni2Ge5)2
_symmetry_space_group_name_H-M   'P 1'
_cell_length_a   12.84024200
_cell_length_b   12.84024200
_cell_length_c   4.19464200
_cell_angle_alpha   90.00000000
_cell_angle_beta   90.00000000
_cell_angle_gamma   90.00000000
_symmetry_Int_Tables_number   1
_chemical_formula_structural   Yb5(Ni2Ge5)2
_chemical_formula_sum   'Yb10 Ni8 Ge20'
_cell_volume   691.57823822
_cell_formula_units_Z   2
loop_
 _symmetry_equiv_pos_site_id
 _symmetry_equiv_pos_as_xyz
  1  'x, y, z'
loop_
 _atom_site_type_symbol
 _atom_site_label
 _atom_site_symmetry_multiplicity
 _atom_site_fract_x
 _atom_site_fract_y
 _atom_site_fract_z
 _atom_site_occupancy
  Yb  Yb0  1  0.50000000  0.50000000  0.00000000  1
  Yb  Yb1  1  0.00000000  0.00000000  0.00000000  1
  Yb  Yb2  1  0.82124500  0.32124500  0.50000000  1
  Yb  Yb3  1  0.17875500  0.67875500  0.50000000  1
  Yb  Yb4  1  0.32124500  0.17875500  0.50000000  1
  Yb  Yb5  1  0.67875500  0.82124500  0.50000000  1
  Yb  Yb6  1  0.88927100  0.61072900  0.50000000  1
  Yb  Yb7  1  0.11072900  0.38927100  0.50000000  1
  Yb  Yb8  1  0.38927100  0.88927100  0.50000000  1
  Yb  Yb9  1  0.61072900  0.11072900  0.50000000  1
  Ni  Ni0  1  0.74690600  0.47169500  0.00000000  1
  Ni  Ni1  1  0.25309400  0.52830500  0.00000000  1
  Ni  Ni2  1  0.24690600  0.02830500  0.00000000  1
  Ni  Ni3  1  0.75309400  0.97169500  0.00000000  1
  Ni  Ni4  1  0.52830500  0.74690600  0.00000000  1
  Ni  Ni5  1  0.47169500  0.25309400  0.00000000  1
  Ni  Ni6  1  0.97169500  0.24690600  0.00000000  1
  Ni  Ni7  1  0.02830500  0.75309400  0.00000000  1
  Ge  Ge0  1  0.93350200  0.43350200  0.00000000  1
  Ge  Ge1  1  0.06649800  0.56649800  0.00000000  1
  Ge  Ge2  1  0.43350200  0.06649800  0.00000000  1
  Ge  Ge3  1  0.56649800  0.93350200  0.00000000  1
  Ge  Ge4  1  0.69806400  0.65188500  0.00000000  1
  Ge  Ge5  1  0.30193600  0.34811500  0.00000000  1
  Ge  Ge6  1  0.19806400  0.84811500  0.00000000  1
  Ge  Ge7  1  0.80193600  0.15188500  0.00000000  1
  Ge  Ge8  1  0.34811500  0.69806400  0.00000000  1
  Ge  Ge9  1  0.65188500  0.30193600  0.00000000  1
  Ge  Ge10  1  0.15188500  0.19806400  0.00000000  1
  Ge  Ge11  1  0.84811500  0.80193600  0.00000000  1
  Ge  Ge12  1  0.00309200  0.83942400  0.50000000  1
  Ge  Ge13  1  0.99690800  0.16057600  0.50000000  1
  Ge  Ge14  1  0.50309200  0.66057600  0.50000000  1
  Ge  Ge15  1  0.49690800  0.33942400  0.50000000  1
  Ge  Ge16  1  0.16057600  0.00309200  0.50000000  1
  Ge  Ge17  1  0.83942400  0.99690800  0.50000000  1
  Ge  Ge18  1  0.33942400  0.50309200  0.50000000  1
  Ge  Ge19  1  0.66057600  0.49690800  0.50000000  1
loop_
_geom_bond_atom_site_label_1
_geom_bond_atom_site_label_2
_geom_bond_distance
_geom_bond_site_symmetry_2
Ni0 Yb2 3.006957 1_555
Ni0 Yb2 3.006957 1_554
Ni0 Yb0 3.191097 1_555
Ni0 Yb6 3.305660 1_555
Ni0 Yb6 3.305660 1_554
Ni1 Yb3 3.006957 1_555
Ni1 Yb3 3.006957 1_554
Ni1 Yb0 3.191097 1_555
Ni1 Yb7 3.305660 1_554
Ni1 Yb7 3.305660 1_555
Ni2 Yb4 3.006957 1_554
Ni2 Yb4 3.006957 1_555
Ni2 Yb1 3.191097 1_555
Ni2 Yb8 3.305660 1_545
Ni2 Yb8 3.305660 1_544
Ni3 Yb5 3.006957 1_555
Ni3 Yb5 3.006957 1_554
Ni3 Yb1 3.191097 1_665
Ni3 Yb9 3.305660 1_564
Ni3 Yb9 3.305660 1_565
Ni4 Yb5 3.006957 1_555
Ni4 Yb5 3.006957 1_554
Ni4 Yb0 3.191097 1_555
Ni4 Yb8 3.305660 1_555
Ni4 Yb8 3.305660 1_554
Ni5 Yb4 3.006957 1_555
Ni5 Yb4 3.006957 1_554
Ni5 Yb0 3.191097 1_555
Ni5 Yb9 3.305660 1_555
Ni5 Yb9 3.305660 1_554
Ni6 Yb2 3.006957 1_555
Ni6 Yb2 3.006957 1_554
Ni6 Yb1 3.191097 1_655
Ni6 Yb7 3.305660 1_655
Ni6 Yb7 3.305660 1_654
Ni7 Yb3 3.006957 1_555
Ni7 Yb3 3.006957 1_554
Ni7 Yb1 3.191097 1_565
Ni7 Yb6 3.305660 1_455
Ni7 Yb6 3.305660 1_454
Ge0 Ge1 2.415054 1_655
Ge0 Ni6 2.445612 1_555
Ge0 Ni0 2.445612 1_555
Ge0 Yb2 2.924733 1_555
Ge0 Yb2 2.924733 1_554
Ge0 Yb6 3.146400 1_554
Ge0 Yb6 3.146400 1_555
Ge0 Yb7 3.146400 1_655
Ge0 Yb7 3.146400 1_654
Ge1 Ni1 2.445612 1_555
Ge1 Ni7 2.445612 1_555
Ge1 Yb3 2.924733 1_555
Ge1 Yb3 2.924733 1_554
Ge1 Yb7 3.146400 1_554
Ge1 Yb6 3.146400 1_455
Ge1 Yb6 3.146400 1_454
Ge1 Yb7 3.146400 1_555
Ge2 Ge3 2.415054 1_545
Ge2 Ni5 2.445612 1_555
Ge2 Ni2 2.445612 1_555
Ge2 Yb4 2.924733 1_555
Ge2 Yb4 2.924733 1_554
Ge2 Yb9 3.146400 1_554
Ge2 Yb9 3.146400 1_555
Ge2 Yb8 3.146400 1_544
Ge2 Yb8 3.146400 1_545
Ge3 Ni3 2.445612 1_555
Ge3 Ni4 2.445612 1_555
Ge3 Yb5 2.924733 1_554
Ge3 Yb5 2.924733 1_555
Ge3 Yb8 3.146400 1_554
Ge3 Yb8 3.146400 1_555
Ge3 Yb9 3.146400 1_564
Ge3 Yb9 3.146400 1_565
Ge4 Ni0 2.397173 1_555
Ge4 Ni4 2.497983 1_555
Ge4 Yb5 3.031371 1_555
Ge4 Yb5 3.031371 1_554
Ge4 Yb0 3.204879 1_555
Ge4 Yb6 3.271964 1_555
Ge4 Yb6 3.271964 1_554
Ge5 Ni1 2.397173 1_555
Ge5 Ni5 2.497983 1_555
Ge5 Yb4 3.031371 1_554
Ge5 Yb4 3.031371 1_555
Ge5 Yb0 3.204879 1_555
Ge5 Yb7 3.271964 1_555
Ge5 Yb7 3.271964 1_554
Ge6 Ni2 2.397173 1_565
Ge6 Ni7 2.497983 1_555
Ge6 Ge8 2.724753 1_555
Ge6 Yb3 3.031371 1_555
Ge6 Yb3 3.031371 1_554
Ge6 Yb1 3.204879 1_565
Ge6 Yb8 3.271964 1_554
Ge6 Yb8 3.271964 1_555
Ge7 Ni3 2.397173 1_545
Ge7 Ni6 2.497983 1_555
Ge7 Ge9 2.724753 1_555
Ge7 Yb2 3.031371 1_555
Ge7 Yb2 3.031371 1_554
Ge7 Yb1 3.204879 1_655
Ge7 Yb9 3.271964 1_555
Ge7 Yb9 3.271964 1_554
Ge8 Ni4 2.397173 1_555
Ge8 Ni1 2.497983 1_555
Ge8 Yb3 3.031371 1_554
Ge8 Yb3 3.031371 1_555
Ge8 Yb0 3.204879 1_555
Ge8 Yb8 3.271964 1_554
Ge8 Yb8 3.271964 1_555
Ge9 Ni5 2.397173 1_555
Ge9 Ni0 2.497983 1_555
Ge9 Yb2 3.031371 1_554
Ge9 Yb2 3.031371 1_555
Ge9 Yb0 3.204879 1_555
Ge9 Yb9 3.271964 1_554
Ge9 Yb9 3.271964 1_555
Ge10 Ni6 2.397173 1_455
Ge10 Ni2 2.497983 1_555
Ge10 Ge5 2.724753 1_555
Ge10 Ge13 2.930926 1_454
Ge10 Ge13 2.930926 1_455
Ge10 Yb4 3.031371 1_554
Ge10 Yb4 3.031371 1_555
Ge10 Yb1 3.204879 1_555
Ge10 Yb7 3.271964 1_555
Ge10 Yb7 3.271964 1_554
Ge11 Ni7 2.397173 1_655
Ge11 Ni3 2.497983 1_555
Ge11 Ge4 2.724753 1_555
Ge11 Ge12 2.930926 1_655
Ge11 Ge12 2.930926 1_654
Ge11 Yb5 3.031371 1_555
Ge11 Yb5 3.031371 1_554
Ge11 Yb1 3.204879 1_665
Ge11 Yb6 3.271964 1_555
Ge11 Yb6 3.271964 1_554
Ge12 Ni7 2.394229 1_556
Ge12 Ni7 2.394229 1_555
Ge12 Ge16 2.916415 1_565
Ge12 Ge17 2.916415 1_455
Ge12 Yb1 2.941342 1_566
Ge12 Yb1 2.941342 1_565
Ge12 Yb3 3.056733 1_555
Ge12 Yb6 3.280088 1_455
Ge13 Ni6 2.394229 1_555
Ge13 Ni6 2.394229 1_556
Ge13 Ge17 2.916415 1_545
Ge13 Ge16 2.916415 1_655
Ge13 Yb1 2.941342 1_656
Ge13 Yb1 2.941342 1_655
Ge13 Yb2 3.056733 1_555
Ge13 Yb7 3.280088 1_655
Ge14 Ni4 2.394229 1_556
Ge14 Ni4 2.394229 1_555
Ge14 Ge18 2.916415 1_555
Ge14 Ge19 2.916415 1_555
Ge14 Ge8 2.930926 1_555
Ge14 Ge8 2.930926 1_556
Ge14 Yb0 2.941342 1_556
Ge14 Yb0 2.941342 1_555
Ge14 Yb5 3.056733 1_555
Ge14 Yb8 3.280088 1_555
Ge15 Ni5 2.394229 1_556
Ge15 Ni5 2.394229 1_555
Ge15 Ge18 2.916415 1_555
Ge15 Ge19 2.916415 1_555
Ge15 Ge9 2.930926 1_556
Ge15 Ge9 2.930926 1_555
Ge15 Yb0 2.941342 1_555
Ge15 Yb0 2.941342 1_556
Ge15 Yb4 3.056733 1_555
Ge15 Yb9 3.280088 1_555
Ge16 Ni2 2.394229 1_556
Ge16 Ni2 2.394229 1_555
Ge16 Ge6 2.930926 1_546
Ge16 Ge6 2.930926 1_545
Ge16 Yb1 2.941342 1_556
Ge16 Yb1 2.941342 1_555
Ge16 Yb4 3.056733 1_555
Ge16 Yb8 3.280088 1_545
Ge17 Ni3 2.394229 1_555
Ge17 Ni3 2.394229 1_556
Ge17 Ge7 2.930926 1_566
Ge17 Ge7 2.930926 1_565
Ge17 Yb1 2.941342 1_665
Ge17 Yb1 2.941342 1_666
Ge17 Yb5 3.056733 1_555
Ge17 Yb9 3.280088 1_565
Ge18 Ni1 2.394229 1_555
Ge18 Ni1 2.394229 1_556
Ge18 Ge5 2.930926 1_556
Ge18 Ge5 2.930926 1_555
Ge18 Yb0 2.941342 1_555
Ge18 Yb0 2.941342 1_556
Ge18 Yb3 3.056733 1_555
Ge18 Yb7 3.280088 1_555
Ge19 Ni0 2.394229 1_556
Ge19 Ni0 2.394229 1_555
Ge19 Ge4 2.930926 1_556
Ge19 Ge4 2.930926 1_555
Ge19 Yb0 2.941342 1_556
Ge19 Yb0 2.941342 1_555
Ge19 Yb2 3.056733 1_555
Ge19 Yb6 3.280088 1_555
