# generated using pymatgen
data_UCuSi
_symmetry_space_group_name_H-M   'P 1'
_cell_length_a   5.56095595
_cell_length_b   10.57308079
_cell_length_c   8.96958161
_cell_angle_alpha   115.09819332
_cell_angle_beta   90.00001227
_cell_angle_gamma   58.05339581
_symmetry_Int_Tables_number   1
_chemical_formula_structural   UCuSi
_chemical_formula_sum   'U8 Cu8 Si8'
_cell_volume   387.57974794
_cell_formula_units_Z   8
loop_
 _symmetry_equiv_pos_site_id
 _symmetry_equiv_pos_as_xyz
  1  'x, y, z'
loop_
 _atom_site_type_symbol
 _atom_site_label
 _atom_site_symmetry_multiplicity
 _atom_site_fract_x
 _atom_site_fract_y
 _atom_site_fract_z
 _atom_site_occupancy
  U  U0_0  1  0.49991650  0.00016450  0.00008250  1
  U  U0_1  1  0.49991650  0.00016450  0.50008250  1
  U  U0_2  1  0.49991650  0.50016450  0.00008250  1
  U  U0_3  1  0.49991650  0.50016450  0.50008250  1
  U  U0_4  1  0.99991650  0.00016450  0.00008250  1
  U  U0_5  1  0.99991650  0.00016450  0.50008250  1
  U  U0_6  1  0.99991650  0.50016450  0.00008250  1
  U  U0_7  1  0.99991650  0.50016450  0.50008250  1
  Cu  Cu0_0  1  0.08324850  0.16637650  0.33318850  1
  Cu  Cu0_1  1  0.08324850  0.16637650  0.83318850  1
  Cu  Cu0_2  1  0.08324850  0.66637650  0.33318850  1
  Cu  Cu0_3  1  0.08324850  0.66637650  0.83318850  1
  Cu  Cu0_4  1  0.58324850  0.16637650  0.33318850  1
  Cu  Cu0_5  1  0.58324850  0.16637650  0.83318850  1
  Cu  Cu0_6  1  0.58324850  0.66637650  0.33318850  1
  Cu  Cu0_7  1  0.58324850  0.66637650  0.83318850  1
  Si  Si0_0  1  0.41683500  0.33345850  0.16672950  1
  Si  Si0_1  1  0.41683500  0.33345850  0.66672950  1
  Si  Si0_2  1  0.41683500  0.83345850  0.16672950  1
  Si  Si0_3  1  0.41683500  0.83345850  0.66672950  1
  Si  Si0_4  1  0.91683500  0.33345850  0.16672950  1
  Si  Si0_5  1  0.91683500  0.33345850  0.66672950  1
  Si  Si0_6  1  0.91683500  0.83345850  0.16672950  1
  Si  Si0_7  1  0.91683500  0.83345850  0.66672950  1
loop_
_geom_bond_atom_site_label_1
_geom_bond_atom_site_label_2
_geom_bond_distance
_geom_bond_site_symmetry_2
U0_0 U0_4 2.780478 1_555
U0_0 U0_4 2.780478 1_455
U0_1 U0_5 2.780478 1_455
U0_1 U0_5 2.780478 1_555
U0_2 U0_6 2.780478 1_555
U0_2 U0_6 2.780478 1_455
U0_3 U0_7 2.780478 1_555
U0_3 U0_7 2.780478 1_455
Cu0_0 Si0_2 2.586893 1_545
Cu0_0 Si0_5 2.591131 1_455
Cu0_0 Si0_4 2.591131 1_455
Cu0_0 Cu0_4 2.780478 1_555
Cu0_0 Cu0_4 2.780478 1_455
Cu0_0 U0_1 2.936099 1_555
Cu0_0 U0_0 2.936099 1_555
Cu0_0 U0_3 2.936279 1_455
Cu0_0 U0_4 2.938979 1_455
Cu0_0 U0_5 2.938980 1_455
Cu0_0 U0_7 2.949260 1_455
Cu0_1 Si0_3 2.586893 1_545
Cu0_1 Si0_4 2.591131 1_456
Cu0_1 Si0_5 2.591131 1_455
Cu0_1 Cu0_5 2.780478 1_555
Cu0_1 Cu0_5 2.780478 1_455
Cu0_1 U0_0 2.936099 1_556
Cu0_1 U0_1 2.936099 1_555
Cu0_1 U0_2 2.936279 1_456
Cu0_1 U0_5 2.938979 1_455
Cu0_1 U0_4 2.938980 1_456
Cu0_1 U0_6 2.949260 1_456
Cu0_2 Si0_0 2.586893 1_555
Cu0_2 Si0_7 2.591131 1_455
Cu0_2 Si0_6 2.591131 1_455
Cu0_2 Cu0_6 2.780478 1_455
Cu0_2 Cu0_6 2.780478 1_555
Cu0_2 U0_3 2.936099 1_555
Cu0_2 U0_2 2.936099 1_555
Cu0_2 U0_1 2.936279 1_465
Cu0_2 U0_6 2.938979 1_455
Cu0_2 U0_7 2.938980 1_455
Cu0_2 U0_5 2.949260 1_465
Cu0_3 Si0_1 2.586893 1_555
Cu0_3 Si0_6 2.591131 1_456
Cu0_3 Si0_7 2.591131 1_455
Cu0_3 Cu0_7 2.780478 1_555
Cu0_3 Cu0_7 2.780478 1_455
Cu0_3 U0_2 2.936099 1_556
Cu0_3 U0_3 2.936099 1_555
Cu0_3 U0_0 2.936279 1_466
Cu0_3 U0_7 2.938979 1_455
Cu0_3 U0_6 2.938980 1_456
Cu0_3 U0_4 2.949260 1_466
Cu0_4 Si0_6 2.586893 1_545
Cu0_4 Si0_1 2.591131 1_555
Cu0_4 Si0_0 2.591131 1_555
Cu0_4 U0_5 2.936099 1_555
Cu0_4 U0_4 2.936099 1_555
Cu0_4 U0_7 2.936279 1_455
Cu0_4 U0_0 2.938979 1_555
Cu0_4 U0_1 2.938980 1_555
Cu0_4 U0_3 2.949260 1_555
Cu0_5 Si0_7 2.586893 1_545
Cu0_5 Si0_0 2.591131 1_556
Cu0_5 Si0_1 2.591131 1_555
Cu0_5 U0_4 2.936099 1_556
Cu0_5 U0_5 2.936099 1_555
Cu0_5 U0_6 2.936279 1_456
Cu0_5 U0_1 2.938979 1_555
Cu0_5 U0_0 2.938980 1_556
Cu0_5 U0_2 2.949260 1_556
Cu0_6 Si0_4 2.586893 1_555
Cu0_6 Si0_3 2.591131 1_555
Cu0_6 Si0_2 2.591131 1_555
Cu0_6 U0_7 2.936099 1_555
Cu0_6 U0_6 2.936099 1_555
Cu0_6 U0_5 2.936279 1_465
Cu0_6 U0_2 2.938979 1_555
Cu0_6 U0_3 2.938980 1_555
Cu0_6 U0_1 2.949260 1_565
Cu0_7 Si0_5 2.586893 1_555
Cu0_7 Si0_2 2.591131 1_556
Cu0_7 Si0_3 2.591131 1_555
Cu0_7 U0_6 2.936099 1_556
Cu0_7 U0_7 2.936099 1_555
Cu0_7 U0_4 2.936279 1_466
Cu0_7 U0_3 2.938979 1_555
Cu0_7 U0_2 2.938980 1_556
Cu0_7 U0_0 2.949260 1_566
Si0_0 Si0_4 2.780478 1_455
Si0_0 Si0_4 2.780478 1_555
Si0_0 U0_4 2.933533 1_555
Si0_0 U0_6 2.937143 1_455
Si0_0 U0_7 2.937143 1_455
Si0_0 U0_3 2.941318 1_555
Si0_0 U0_2 2.941318 1_555
Si0_0 U0_0 2.945232 1_555
Si0_1 Si0_5 2.780478 1_455
Si0_1 Si0_5 2.780478 1_555
Si0_1 U0_5 2.933533 1_555
Si0_1 U0_7 2.937143 1_455
Si0_1 U0_6 2.937143 1_456
Si0_1 U0_2 2.941318 1_556
Si0_1 U0_3 2.941318 1_555
Si0_1 U0_1 2.945232 1_555
Si0_2 Si0_6 2.780478 1_555
Si0_2 Si0_6 2.780478 1_455
Si0_2 U0_6 2.933533 1_555
Si0_2 U0_4 2.937143 1_465
Si0_2 U0_5 2.937143 1_465
Si0_2 U0_1 2.941318 1_565
Si0_2 U0_0 2.941318 1_565
Si0_2 U0_2 2.945232 1_555
Si0_3 Si0_7 2.780478 1_555
Si0_3 Si0_7 2.780478 1_455
Si0_3 U0_7 2.933533 1_555
Si0_3 U0_5 2.937143 1_465
Si0_3 U0_4 2.937143 1_466
Si0_3 U0_0 2.941318 1_566
Si0_3 U0_1 2.941318 1_565
Si0_3 U0_3 2.945232 1_555
Si0_4 U0_0 2.933533 1_655
Si0_4 U0_2 2.937143 1_555
Si0_4 U0_3 2.937143 1_555
Si0_4 U0_7 2.941318 1_555
Si0_4 U0_6 2.941318 1_555
Si0_4 U0_4 2.945232 1_555
Si0_5 U0_1 2.933533 1_655
Si0_5 U0_3 2.937143 1_555
Si0_5 U0_2 2.937143 1_556
Si0_5 U0_6 2.941318 1_556
Si0_5 U0_7 2.941318 1_555
Si0_5 U0_5 2.945232 1_555
Si0_6 U0_2 2.933533 1_655
Si0_6 U0_0 2.937143 1_565
Si0_6 U0_1 2.937143 1_565
Si0_6 U0_5 2.941318 1_565
Si0_6 U0_4 2.941318 1_565
Si0_6 U0_6 2.945232 1_555
Si0_7 U0_3 2.933533 1_655
Si0_7 U0_1 2.937143 1_565
Si0_7 U0_0 2.937143 1_566
Si0_7 U0_4 2.941318 1_566
Si0_7 U0_5 2.941318 1_565
Si0_7 U0_7 2.945232 1_555
