# generated using pymatgen
data_Co3(P2O7)2
_symmetry_space_group_name_H-M   'P 1'
_cell_length_a   5.66055760
_cell_length_b   13.47093943
_cell_length_c   7.28617940
_cell_angle_alpha   83.98761655
_cell_angle_beta   89.46375382
_cell_angle_gamma   82.59071880
_symmetry_Int_Tables_number   1
_chemical_formula_structural   Co3(P2O7)2
_chemical_formula_sum   'Co6 P8 O28'
_cell_volume   547.91870999
_cell_formula_units_Z   2
loop_
 _symmetry_equiv_pos_site_id
 _symmetry_equiv_pos_as_xyz
  1  'x, y, z'
loop_
 _atom_site_type_symbol
 _atom_site_label
 _atom_site_symmetry_multiplicity
 _atom_site_fract_x
 _atom_site_fract_y
 _atom_site_fract_z
 _atom_site_occupancy
  Co  Co0  1  0.99810800  0.99855400  0.00317000  1
  Co  Co1  1  0.90169700  0.74039800  0.33045500  1
  Co  Co2  1  0.09375400  0.25835500  0.67031100  1
  Co  Co3  1  0.50237100  0.50080600  0.00171900  1
  Co  Co4  1  0.39941300  0.23964900  0.32601800  1
  Co  Co5  1  0.58511600  0.75845700  0.67788200  1
  P  P0  1  0.57674600  0.34590700  0.68520200  1
  P  P1  1  0.07669400  0.84602300  0.68134100  1
  P  P2  1  0.92028000  0.15554300  0.31967000  1
  P  P3  1  0.42338500  0.65489500  0.32096800  1
  P  P4  1  0.00143700  0.34527900  0.07088500  1
  P  P5  1  0.50009600  0.84602400  0.07647100  1
  P  P6  1  0.49895700  0.15369800  0.92154900  1
  P  P7  1  0.00060000  0.65365300  0.92296700  1
  O  O0  1  0.80913400  0.43146800  0.08911100  1
  O  O1  1  0.30334800  0.93044500  0.09526000  1
  O  O2  1  0.69846000  0.06977600  0.90496300  1
  O  O3  1  0.19840700  0.56854300  0.90918400  1
  O  O4  1  0.22201600  0.35289100  0.19320400  1
  O  O5  1  0.72206700  0.85418200  0.19545600  1
  O  O6  1  0.28729200  0.14698200  0.78999600  1
  O  O7  1  0.78645900  0.64547100  0.79670300  1
  O  O8  1  0.89421100  0.24328100  0.15115200  1
  O  O9  1  0.39689200  0.74271600  0.15235700  1
  O  O10  1  0.60509200  0.25779500  0.85351500  1
  O  O11  1  0.11037900  0.75609300  0.84803600  1
  O  O12  1  0.37103300  0.32069400  0.56053700  1
  O  O13  1  0.87410000  0.82255500  0.55631000  1
  O  O14  1  0.12216600  0.18247200  0.44852500  1
  O  O15  1  0.62445400  0.68121200  0.44943300  1
  O  O16  1  0.81091900  0.33130400  0.57334900  1
  O  O17  1  0.31237400  0.83390100  0.56931600  1
  O  O18  1  0.68297300  0.16805500  0.42497000  1
  O  O19  1  0.18619400  0.66749200  0.42659500  1
  O  O20  1  0.08438900  0.33246000  0.87384700  1
  O  O21  1  0.58071300  0.83483000  0.87723800  1
  O  O22  1  0.40970300  0.16229700  0.11811300  1
  O  O23  1  0.91417700  0.66474800  0.11959300  1
  O  O24  1  0.97700300  0.05625400  0.24445700  1
  O  O25  1  0.47867100  0.55563200  0.24456300  1
  O  O26  1  0.52826400  0.44525000  0.76161600  1
  O  O27  1  0.03045900  0.94396100  0.76398900  1
loop_
_geom_bond_atom_site_label_1
_geom_bond_atom_site_label_2
_geom_bond_distance
_geom_bond_site_symmetry_2
Co0 O1 1.939402 1_655
Co0 O2 1.941317 1_564
Co0 O27 1.959390 1_654
Co0 O24 1.991879 1_565
Co1 O19 1.875564 1_655
Co1 O5 1.910952 1_555
Co1 O23 1.926488 1_555
Co1 O15 2.000623 1_555
Co1 O13 2.071099 1_555
Co2 O20 1.869128 1_555
Co2 O16 1.870288 1_455
Co2 O6 1.879214 1_555
Co2 O14 1.995228 1_555
Co2 O12 1.996040 1_555
Co3 O3 1.932768 1_554
Co3 O0 1.941892 1_555
Co3 O26 1.970602 1_554
Co3 O25 1.984445 1_555
Co4 O18 1.871649 1_555
Co4 O4 1.893607 1_555
Co4 O22 1.922823 1_555
Co4 O14 1.998610 1_555
Co4 O12 2.116124 1_555
Co5 O21 1.864063 1_555
Co5 O17 1.868666 1_555
Co5 O7 1.913132 1_555
Co5 O15 2.049176 1_555
Co5 O13 2.093565 1_555
O0 P4 1.501406 1_655
O1 P5 1.501824 1_555
O2 P6 1.504912 1_555
O3 P7 1.506393 1_555
O4 P4 1.561031 1_555
O5 P5 1.555113 1_555
O6 P6 1.558880 1_555
O7 P7 1.550618 1_655
O8 P2 1.606460 1_555
O8 P4 1.624329 1_655
O9 P3 1.607658 1_555
O9 P5 1.620539 1_555
O10 P0 1.608783 1_555
O10 P6 1.624549 1_555
O11 P1 1.617298 1_555
O11 P7 1.626502 1_555
O12 P0 1.575690 1_555
O13 P1 1.555118 1_655
O14 P2 1.586621 1_455
O15 P3 1.578211 1_555
O16 P0 1.551156 1_555
O17 P1 1.556929 1_555
O18 P2 1.539770 1_555
O19 P3 1.540463 1_555
O20 P4 1.526371 1_556
O21 P5 1.534266 1_556
O22 P6 1.525119 1_554
O23 P7 1.525461 1_654
O24 P2 1.493941 1_555
O25 P3 1.496870 1_555
O26 P0 1.494893 1_555
O27 P1 1.498717 1_555
