# generated using pymatgen
data_K2NaNb(OF2)2
_symmetry_space_group_name_H-M   'P 1'
_cell_length_a   6.08373758
_cell_length_b   6.08373758
_cell_length_c   6.08373758
_cell_angle_alpha   119.25012591
_cell_angle_beta   119.25012591
_cell_angle_gamma   91.30380248
_symmetry_Int_Tables_number   1
_chemical_formula_structural   K2NaNb(OF2)2
_chemical_formula_sum   'K2 Na1 Nb1 O2 F4'
_cell_volume   160.97909966
_cell_formula_units_Z   1
loop_
 _symmetry_equiv_pos_site_id
 _symmetry_equiv_pos_as_xyz
  1  'x, y, z'
loop_
 _atom_site_type_symbol
 _atom_site_label
 _atom_site_symmetry_multiplicity
 _atom_site_fract_x
 _atom_site_fract_y
 _atom_site_fract_z
 _atom_site_occupancy
  K  K0  1  0.25000000  0.75000000  0.50000000  1
  K  K1  1  0.75000000  0.25000000  0.50000000  1
  Na  Na0  1  0.00000000  0.00000000  0.00000000  1
  Nb  Nb0  1  0.50000000  0.50000000  0.00000000  1
  O  O0  1  0.27795900  0.27795900  0.00000000  1
  O  O1  1  0.72204100  0.72204100  0.00000000  1
  F  F0  1  0.26542800  0.26542800  0.53085600  1
  F  F1  1  0.26542800  0.73457200  0.00000000  1
  F  F2  1  0.73457200  0.73457200  0.46914400  1
  F  F3  1  0.73457200  0.26542800  0.00000000  1
loop_
_geom_bond_atom_site_label_1
_geom_bond_atom_site_label_2
_geom_bond_distance
_geom_bond_site_symmetry_2
K0 O0 3.085458 1_566
K0 O0 3.085458 1_555
K0 O1 3.085458 1_556
K0 O1 3.085458 1_455
K1 O0 3.085458 1_555
K1 O0 3.085458 1_656
K1 O1 3.085458 1_556
K1 O1 3.085458 1_545
Na0 O0 2.364113 1_555
Na0 O1 2.364113 1_445
Nb0 O1 1.888516 1_555
Nb0 O0 1.888516 1_555
F0 Nb0 2.041020 1_556
F0 Na0 2.309499 1_555
F0 K1 3.044829 1_555
F0 K0 3.044829 1_555
F0 K0 3.044829 1_545
F0 K1 3.044829 1_455
F1 Nb0 2.041020 1_555
F1 Na0 2.309499 1_565
F1 K1 3.044829 1_565
F1 K0 3.044829 1_554
F1 K1 3.044829 1_454
F1 K0 3.044829 1_555
F2 Nb0 2.041020 1_555
F2 Na0 2.309499 1_666
F2 K1 3.044829 1_565
F2 K1 3.044829 1_555
F2 K0 3.044829 1_555
F2 K0 3.044829 1_655
F3 Nb0 2.041020 1_555
F3 Na0 2.309499 1_655
F3 K0 3.044829 1_544
F3 K1 3.044829 1_555
F3 K1 3.044829 1_554
F3 K0 3.044829 1_655
