# generated using pymatgen
data_Sm4Al
_symmetry_space_group_name_H-M   'P 1'
_cell_length_a   8.02974622
_cell_length_b   8.02974622
_cell_length_c   8.02974622
_cell_angle_alpha   60.00000000
_cell_angle_beta   60.00000000
_cell_angle_gamma   60.00000000
_symmetry_Int_Tables_number   1
_chemical_formula_structural   Sm4Al
_chemical_formula_sum   'Sm8 Al2'
_cell_volume   366.09218686
_cell_formula_units_Z   2
loop_
 _symmetry_equiv_pos_site_id
 _symmetry_equiv_pos_as_xyz
  1  'x, y, z'
loop_
 _atom_site_type_symbol
 _atom_site_label
 _atom_site_symmetry_multiplicity
 _atom_site_fract_x
 _atom_site_fract_y
 _atom_site_fract_z
 _atom_site_occupancy
  Sm  Sm0  1  0.60702500  0.60702500  0.60702500  1
  Sm  Sm1  1  0.17892500  0.60702500  0.60702500  1
  Sm  Sm2  1  0.60702500  0.17892500  0.60702500  1
  Sm  Sm3  1  0.57107500  0.14297500  0.14297500  1
  Sm  Sm4  1  0.14297500  0.14297500  0.14297500  1
  Sm  Sm5  1  0.60702500  0.60702500  0.17892500  1
  Sm  Sm6  1  0.14297500  0.57107500  0.14297500  1
  Sm  Sm7  1  0.14297500  0.14297500  0.57107500  1
  Al  Al0  1  0.00000000  0.00000000  0.00000000  1
  Al  Al1  1  0.75000000  0.75000000  0.75000000  1
loop_
_geom_bond_atom_site_label_1
_geom_bond_atom_site_label_2
_geom_bond_distance
_geom_bond_site_symmetry_2
Sm0 Sm5 3.437534 1_555
Sm0 Sm1 3.437534 1_555
Sm0 Sm2 3.437534 1_555
Sm0 Sm7 4.035575 1_565
Sm0 Sm7 4.035575 1_655
Sm0 Sm3 4.035575 1_556
Sm0 Sm6 4.035575 1_556
Sm0 Sm3 4.035575 1_565
Sm0 Sm6 4.035575 1_655
Sm1 Sm5 3.437534 1_555
Sm1 Sm2 3.437534 1_555
Sm1 Sm7 4.035575 1_555
Sm1 Sm6 4.035575 1_555
Sm1 Sm4 4.035575 1_565
Sm1 Sm4 4.035575 1_556
Sm1 Sm6 4.035575 1_556
Sm1 Sm7 4.035575 1_565
Sm2 Sm5 3.437534 1_555
Sm2 Sm3 4.035575 1_555
Sm2 Sm7 4.035575 1_555
Sm2 Sm4 4.035575 1_655
Sm2 Sm4 4.035575 1_556
Sm2 Sm7 4.035575 1_655
Sm2 Sm3 4.035575 1_556
Sm3 Sm6 3.437534 1_555
Sm3 Sm7 3.437534 1_555
Sm3 Sm4 3.437534 1_555
Sm3 Sm5 4.035575 1_555
Sm3 Sm5 4.035575 1_545
Sm4 Sm6 3.437534 1_555
Sm4 Sm7 3.437534 1_555
Sm4 Sm5 4.035575 1_545
Sm4 Sm5 4.035575 1_455
Sm5 Sm6 4.035575 1_555
Sm5 Sm6 4.035575 1_655
Sm6 Sm7 3.437534 1_555
Al0 Sm4 2.812144 1_555
Al0 Sm7 2.812144 1_554
Al0 Sm6 2.812144 1_545
Al0 Sm3 2.812144 1_455
Al1 Sm1 2.812144 1_655
Al1 Sm2 2.812144 1_565
Al1 Sm5 2.812144 1_556
Al1 Sm0 2.812144 1_555
