# generated using pymatgen
data_Mg149V
_symmetry_space_group_name_H-M   'P 1'
_cell_length_a   15.91098348
_cell_length_b   15.91108833
_cell_length_c   15.59156761
_cell_angle_alpha   90.00000000
_cell_angle_beta   90.00000000
_cell_angle_gamma   120.00021801
_symmetry_Int_Tables_number   1
_chemical_formula_structural   Mg149V
_chemical_formula_sum   'Mg149 V1'
_cell_volume   3418.34877162
_cell_formula_units_Z   1
loop_
 _symmetry_equiv_pos_site_id
 _symmetry_equiv_pos_as_xyz
  1  'x, y, z'
loop_
 _atom_site_type_symbol
 _atom_site_label
 _atom_site_symmetry_multiplicity
 _atom_site_fract_x
 _atom_site_fract_y
 _atom_site_fract_z
 _atom_site_occupancy
  Mg  Mg0  1  0.60159582  0.00018073  -0.00000000  1
  Mg  Mg1  1  0.39858187  0.00018135  -0.00000000  1
  Mg  Mg2  1  0.80465301  0.00030587  0.00000000  1
  Mg  Mg3  1  0.19565260  0.00030454  0.00000000  1
  Mg  Mg4  1  0.19565260  0.19534805  -0.00000000  1
  Mg  Mg5  1  0.99969465  0.19535033  0.00000000  1
  Mg  Mg6  1  0.59986216  0.19972595  -0.00000000  1
  Mg  Mg7  1  0.80025040  0.19975025  -0.00000000  1
  Mg  Mg8  1  0.39950158  0.19975029  0.00000000  1
  Mg  Mg9  1  0.39858187  0.39840152  0.00000000  1
  Mg  Mg10  1  0.99981926  0.39840097  0.00000000  1
  Mg  Mg11  1  0.19951503  0.39903075  -0.00000000  1
  Mg  Mg12  1  0.59986216  0.40013521  0.00000000  1
  Mg  Mg13  1  0.80027383  0.40013692  -0.00000000  1
  Mg  Mg14  1  0.40003446  0.59996594  0.00000000  1
  Mg  Mg15  1  0.19992988  0.59996444  -0.00000000  1
  Mg  Mg16  1  0.80025040  0.60050016  0.00000000  1
  Mg  Mg17  1  0.60159582  0.60141409  0.00000000  1
  Mg  Mg18  1  0.99981926  0.60141929  0.00000000  1
  Mg  Mg19  1  0.40003446  0.80006853  -0.00000000  1
  Mg  Mg20  1  0.60096605  0.80048353  0.00000000  1
  Mg  Mg21  1  0.19951503  0.80048428  0.00000000  1
  Mg  Mg22  1  0.80465301  0.80434614  -0.00000000  1
  Mg  Mg23  1  0.99969465  0.80434432  -0.00000000  1
  Mg  Mg24  1  0.06520780  0.13041655  0.16235110  1
  Mg  Mg25  1  0.06520780  0.93479124  0.16235110  1
  Mg  Mg26  1  0.86958058  0.93479029  0.16235008  1
  Mg  Mg27  1  0.26600455  0.33269141  0.16628581  1
  Mg  Mg28  1  0.06668651  0.33269098  0.16628618  1
  Mg  Mg29  1  0.66730800  0.73399587  0.16628606  1
  Mg  Mg30  1  0.06668651  0.73399652  0.16628618  1
  Mg  Mg31  1  0.26600455  0.93331315  0.16628581  1
  Mg  Mg32  1  0.66730800  0.93331213  0.16628606  1
  Mg  Mg33  1  0.06659261  0.53329631  0.16639894  1
  Mg  Mg34  1  0.46670510  0.53329687  0.16639937  1
  Mg  Mg35  1  0.46670510  0.93340823  0.16639937  1
  Mg  Mg36  1  0.26734275  0.13367138  0.16639767  1
  Mg  Mg37  1  0.86632939  0.13367190  0.16640163  1
  Mg  Mg38  1  0.86632939  0.73265749  0.16640163  1
  Mg  Mg39  1  0.26663041  0.53326077  0.16653902  1
  Mg  Mg40  1  0.46673925  0.73336913  0.16653887  1
  Mg  Mg41  1  0.26663041  0.73336964  0.16653902  1
  Mg  Mg42  1  0.66666932  0.33333416  0.16649978  1
  Mg  Mg43  1  0.46671210  0.13345169  0.16669872  1
  Mg  Mg44  1  0.66674148  0.13345299  0.16670056  1
  Mg  Mg45  1  0.46671210  0.33326041  0.16669872  1
  Mg  Mg46  1  0.86654837  0.33325952  0.16670046  1
  Mg  Mg47  1  0.86654837  0.53328885  0.16670046  1
  Mg  Mg48  1  0.66674148  0.53328750  0.16670056  1
  Mg  Mg49  1  0.19935264  0.19957004  0.33203804  1
  Mg  Mg50  1  0.00021925  0.19956906  0.33203903  1
  Mg  Mg51  1  0.00021925  0.80065019  0.33203903  1
  Mg  Mg52  1  0.80043166  0.80064972  0.33204054  1
  Mg  Mg53  1  0.80043166  0.99978194  0.33204054  1
  Mg  Mg54  1  0.19935264  0.99978260  0.33203804  1
  Mg  Mg55  1  0.99999930  0.99999965  0.33309971  1
  Mg  Mg56  1  0.60023291  0.99989134  0.33304830  1
  Mg  Mg57  1  0.39966082  0.99989149  0.33304909  1
  Mg  Mg58  1  0.00010871  0.39976582  0.33304648  1
  Mg  Mg59  1  0.39966082  0.39976833  0.33304909  1
  Mg  Mg60  1  0.00010871  0.60034289  0.33304648  1
  Mg  Mg61  1  0.60023291  0.60034157  0.33304830  1
  Mg  Mg62  1  0.20003279  0.40006555  0.33335516  1
  Mg  Mg63  1  0.59993214  0.79996657  0.33335600  1
  Mg  Mg64  1  0.20003279  0.79996724  0.33335516  1
  Mg  Mg65  1  0.59987215  0.19974580  0.33329705  1
  Mg  Mg66  1  0.80025664  0.40012832  0.33329715  1
  Mg  Mg67  1  0.59987215  0.40012636  0.33329705  1
  Mg  Mg68  1  0.19995859  0.59997930  0.33332567  1
  Mg  Mg69  1  0.40002369  0.59998069  0.33332690  1
  Mg  Mg70  1  0.40002369  0.80004301  0.33332690  1
  Mg  Mg71  1  0.80010387  0.19989328  0.33345512  1
  Mg  Mg72  1  0.39978924  0.19989512  0.33345632  1
  Mg  Mg73  1  0.80010387  0.60021058  0.33345512  1
  Mg  Mg74  1  0.26635655  0.13317827  0.50000000  1
  Mg  Mg75  1  0.86682039  0.13317902  0.50000000  1
  Mg  Mg76  1  0.06659147  0.13318534  0.50000000  1
  Mg  Mg77  1  0.46674755  0.13356789  0.50000000  1
  Mg  Mg78  1  0.66682119  0.13356747  0.50000000  1
  Mg  Mg79  1  0.06643263  0.33290117  0.50000000  1
  Mg  Mg80  1  0.26647292  0.33290324  0.50000000  1
  Mg  Mg81  1  0.46674755  0.33317866  0.50000000  1
  Mg  Mg82  1  0.86643346  0.33317999  0.50000000  1
  Mg  Mg83  1  0.66666913  0.33333406  0.50000000  1
  Mg  Mg84  1  0.26652589  0.53305619  0.50000000  1
  Mg  Mg85  1  0.46695259  0.53304800  0.50000000  1
  Mg  Mg86  1  0.06609541  0.53304720  0.50000000  1
  Mg  Mg87  1  0.66682119  0.53325372  0.50000000  1
  Mg  Mg88  1  0.86643346  0.53325347  0.50000000  1
  Mg  Mg89  1  0.46694497  0.73347249  0.50000000  1
  Mg  Mg90  1  0.26652589  0.73346870  0.50000000  1
  Mg  Mg91  1  0.66709576  0.73352634  0.50000000  1
  Mg  Mg92  1  0.06643263  0.73353046  0.50000000  1
  Mg  Mg93  1  0.86682039  0.73364237  0.50000000  1
  Mg  Mg94  1  0.06659147  0.93340613  0.50000000  1
  Mg  Mg95  1  0.86681226  0.93340613  0.50000000  1
  Mg  Mg96  1  0.26647292  0.93356968  0.50000000  1
  Mg  Mg97  1  0.66709576  0.93356943  0.50000000  1
  Mg  Mg98  1  0.46695259  0.93390459  0.50000000  1
  Mg  Mg99  1  0.80010387  0.19989328  0.66654488  1
  Mg  Mg100  1  0.39978924  0.19989512  0.66654368  1
  Mg  Mg101  1  0.80010387  0.60021058  0.66654488  1
  Mg  Mg102  1  0.19995859  0.59997930  0.66667433  1
  Mg  Mg103  1  0.40002369  0.59998069  0.66667310  1
  Mg  Mg104  1  0.40002369  0.80004301  0.66667310  1
  Mg  Mg105  1  0.59987215  0.19974580  0.66670295  1
  Mg  Mg106  1  0.80025664  0.40012832  0.66670285  1
  Mg  Mg107  1  0.59987215  0.40012636  0.66670295  1
  Mg  Mg108  1  0.20003279  0.40006555  0.66664484  1
  Mg  Mg109  1  0.59993214  0.79996657  0.66664400  1
  Mg  Mg110  1  0.20003279  0.79996724  0.66664484  1
  Mg  Mg111  1  0.60023291  0.99989134  0.66695170  1
  Mg  Mg112  1  0.39966082  0.99989149  0.66695091  1
  Mg  Mg113  1  0.00010871  0.39976582  0.66695352  1
  Mg  Mg114  1  0.39966082  0.39976833  0.66695091  1
  Mg  Mg115  1  0.00010871  0.60034289  0.66695352  1
  Mg  Mg116  1  0.60023291  0.60034157  0.66695170  1
  Mg  Mg117  1  0.99999930  0.99999965  0.66690029  1
  Mg  Mg118  1  0.19935264  0.19957004  0.66796196  1
  Mg  Mg119  1  0.00021925  0.19956906  0.66796097  1
  Mg  Mg120  1  0.00021925  0.80065019  0.66796097  1
  Mg  Mg121  1  0.80043166  0.80064972  0.66795946  1
  Mg  Mg122  1  0.80043166  0.99978194  0.66795946  1
  Mg  Mg123  1  0.19935264  0.99978260  0.66796196  1
  Mg  Mg124  1  0.46671210  0.13345169  0.83330128  1
  Mg  Mg125  1  0.66674148  0.13345299  0.83329944  1
  Mg  Mg126  1  0.46671210  0.33326041  0.83330128  1
  Mg  Mg127  1  0.86654837  0.33325952  0.83329954  1
  Mg  Mg128  1  0.86654837  0.53328885  0.83329954  1
  Mg  Mg129  1  0.66674148  0.53328750  0.83329944  1
  Mg  Mg130  1  0.66666932  0.33333416  0.83350022  1
  Mg  Mg131  1  0.26663041  0.53326077  0.83346098  1
  Mg  Mg132  1  0.46673925  0.73336913  0.83346113  1
  Mg  Mg133  1  0.26663041  0.73336964  0.83346098  1
  Mg  Mg134  1  0.26734275  0.13367138  0.83360233  1
  Mg  Mg135  1  0.86632939  0.13367190  0.83359837  1
  Mg  Mg136  1  0.86632939  0.73265749  0.83359837  1
  Mg  Mg137  1  0.06659261  0.53329631  0.83360106  1
  Mg  Mg138  1  0.46670510  0.53329687  0.83360063  1
  Mg  Mg139  1  0.46670510  0.93340823  0.83360063  1
  Mg  Mg140  1  0.26600455  0.33269141  0.83371419  1
  Mg  Mg141  1  0.06668651  0.33269098  0.83371382  1
  Mg  Mg142  1  0.66730800  0.73399587  0.83371394  1
  Mg  Mg143  1  0.06668651  0.73399652  0.83371382  1
  Mg  Mg144  1  0.26600455  0.93331315  0.83371419  1
  Mg  Mg145  1  0.66730800  0.93331213  0.83371394  1
  Mg  Mg146  1  0.06520780  0.13041655  0.83764890  1
  Mg  Mg147  1  0.06520780  0.93479124  0.83764890  1
  Mg  Mg148  1  0.86958058  0.93479029  0.83764992  1
  V  V0  1  0.99999538  0.99999769  0.00000000  1
loop_
_geom_bond_atom_site_label_1
_geom_bond_atom_site_label_2
_geom_bond_distance
_geom_bond_site_symmetry_2
Mg0 Mg7 3.168094 1_555
Mg0 Mg32 3.171666 1_545
Mg0 Mg145 3.171666 1_544
Mg0 Mg20 3.172401 1_545
Mg0 Mg44 3.182515 1_555
Mg0 Mg125 3.182515 1_554
Mg0 Mg6 3.188863 1_555
Mg0 Mg35 3.191539 1_545
Mg0 Mg139 3.191539 1_544
Mg0 Mg19 3.195573 1_545
Mg0 Mg2 3.229844 1_555
Mg0 Mg1 3.230157 1_555
Mg1 Mg8 3.168068 1_555
Mg1 Mg144 3.171628 1_544
Mg1 Mg31 3.171628 1_545
Mg1 Mg21 3.172375 1_545
Mg1 Mg43 3.182476 1_555
Mg1 Mg124 3.182476 1_554
Mg1 Mg6 3.188849 1_555
Mg1 Mg35 3.191592 1_545
Mg1 Mg139 3.191592 1_544
Mg1 Mg19 3.195632 1_545
Mg1 Mg3 3.229785 1_555
Mg2 Mg5 3.103327 1_555
Mg2 Mg26 3.104545 1_545
Mg2 V0 3.110544 1_545
Mg2 Mg22 3.117933 1_545
Mg2 Mg37 3.180366 1_555
Mg2 Mg7 3.208976 1_555
Mg2 Mg32 3.210018 1_545
Mg2 Mg20 3.210556 1_545
Mg3 Mg4 3.103355 1_555
Mg3 V0 3.110660 1_445
Mg3 Mg36 3.180321 1_555
Mg3 Mg8 3.208981 1_555
Mg3 Mg31 3.210009 1_545
Mg4 V0 3.110660 1_445
Mg4 Mg5 3.117902 1_455
Mg4 Mg8 3.208989 1_555
Mg4 Mg9 3.229793 1_555
Mg5 V0 3.110668 1_545
Mg5 Mg7 3.208931 1_555
Mg6 Mg8 3.188128 1_555
Mg6 Mg7 3.188181 1_555
Mg8 Mg9 3.168099 1_555
Mg10 Mg7 3.168058 1_555
Mg10 Mg141 3.171639 1_654
Mg10 Mg28 3.171639 1_655
Mg10 Mg11 3.172358 1_655
Mg10 Mg46 3.182496 1_555
Mg10 Mg127 3.182496 1_554
Mg10 Mg13 3.188864 1_555
Mg10 Mg137 3.191578 1_654
Mg10 Mg33 3.191578 1_655
Mg10 Mg15 3.195578 1_655
Mg10 Mg5 3.229766 1_555
Mg10 Mg18 3.230242 1_555
Mg11 Mg9 3.172367 1_555
Mg11 Mg141 3.173615 1_554
Mg11 Mg28 3.173615 1_555
Mg11 Mg140 3.173620 1_554
Mg11 Mg27 3.173620 1_555
Mg11 Mg131 3.188008 1_554
Mg11 Mg39 3.188008 1_555
Mg11 Mg14 3.193774 1_555
Mg11 Mg15 3.193778 1_555
Mg11 Mg5 3.210488 1_455
Mg11 Mg4 3.210527 1_555
Mg12 Mg126 3.181428 1_554
Mg12 Mg45 3.181428 1_555
Mg12 Mg48 3.181476 1_555
Mg12 Mg129 3.181476 1_554
Mg12 Mg42 3.182546 1_555
Mg12 Mg130 3.182546 1_554
Mg12 Mg8 3.188128 1_555
Mg12 Mg16 3.188189 1_555
Mg12 Mg6 3.188729 1_555
Mg12 Mg13 3.188733 1_555
Mg12 Mg17 3.188863 1_555
Mg12 Mg9 3.188864 1_555
Mg13 Mg47 3.181472 1_555
Mg13 Mg46 3.181472 1_555
Mg13 Mg130 3.182509 1_554
Mg13 Mg42 3.182509 1_555
Mg13 Mg7 3.188184 1_555
Mg13 Mg16 3.188184 1_555
Mg13 Mg6 3.188741 1_555
Mg13 Mg18 3.188872 1_555
Mg14 Mg34 3.179129 1_555
Mg14 Mg40 3.181410 1_555
Mg14 Mg39 3.181412 1_555
Mg14 Mg15 3.183849 1_555
Mg14 Mg19 3.183850 1_555
Mg14 Mg20 3.193731 1_555
Mg14 Mg17 3.195581 1_555
Mg14 Mg9 3.195616 1_555
Mg15 Mg33 3.179097 1_555
Mg15 Mg39 3.181420 1_555
Mg15 Mg41 3.181428 1_555
Mg15 Mg19 3.183857 1_555
Mg15 Mg21 3.193794 1_555
Mg15 Mg18 3.195594 1_455
Mg16 Mg18 3.168050 1_555
Mg16 Mg17 3.168086 1_555
Mg16 Mg38 3.169770 1_555
Mg16 Mg48 3.184311 1_555
Mg16 Mg47 3.184319 1_555
Mg16 Mg23 3.208931 1_555
Mg16 Mg22 3.208960 1_555
Mg17 Mg29 3.171674 1_555
Mg17 Mg20 3.172433 1_555
Mg17 Mg48 3.182515 1_555
Mg17 Mg34 3.191539 1_555
Mg17 Mg22 3.229844 1_555
Mg17 Mg9 3.230141 1_555
Mg18 Mg30 3.171639 1_655
Mg18 Mg21 3.172350 1_655
Mg18 Mg47 3.182496 1_555
Mg18 Mg33 3.191586 1_655
Mg18 Mg23 3.229750 1_555
Mg19 Mg35 3.179129 1_555
Mg19 Mg41 3.181412 1_555
Mg19 Mg40 3.181418 1_555
Mg19 Mg20 3.193723 1_555
Mg19 Mg21 3.193774 1_555
Mg20 Mg32 3.173621 1_555
Mg20 Mg29 3.173629 1_555
Mg20 Mg40 3.187974 1_555
Mg20 Mg22 3.210572 1_555
Mg21 Mg30 3.173615 1_555
Mg21 Mg31 3.173620 1_555
Mg21 Mg41 3.188008 1_555
Mg21 Mg23 3.210488 1_455
Mg21 Mg3 3.210527 1_565
Mg22 Mg23 3.103319 1_555
Mg22 Mg26 3.104553 1_555
Mg22 V0 3.110552 1_555
Mg22 Mg38 3.180358 1_555
Mg22 Mg29 3.210018 1_555
Mg23 Mg25 3.104588 1_655
Mg23 V0 3.110668 1_555
Mg23 Mg3 3.117902 1_665
Mg23 Mg38 3.180351 1_555
Mg23 Mg30 3.209984 1_655
Mg24 V0 3.104361 1_445
Mg24 Mg4 3.104564 1_555
Mg24 Mg5 3.104588 1_455
Mg24 Mg25 3.112612 1_545
Mg24 Mg26 3.112614 1_445
Mg24 Mg37 3.191190 1_455
Mg24 Mg36 3.191211 1_555
Mg24 Mg27 3.207284 1_555
Mg24 Mg28 3.207294 1_555
Mg24 Mg55 3.212001 1_445
Mg24 Mg50 3.227590 1_555
Mg24 Mg49 3.227600 1_555
Mg25 V0 3.104361 1_455
Mg25 Mg3 3.104564 1_565
Mg25 Mg26 3.112614 1_455
Mg25 Mg38 3.191190 1_455
Mg25 Mg36 3.191211 1_565
Mg25 Mg30 3.207278 1_555
Mg25 Mg31 3.207284 1_555
Mg25 Mg55 3.212001 1_455
Mg25 Mg51 3.227590 1_555
Mg25 Mg54 3.227600 1_555
Mg26 V0 3.104309 1_555
Mg26 Mg38 3.191228 1_555
Mg26 Mg37 3.191228 1_565
Mg26 Mg29 3.207248 1_555
Mg26 Mg32 3.207248 1_555
Mg26 Mg55 3.212022 1_555
Mg26 Mg52 3.227618 1_555
Mg26 Mg53 3.227618 1_555
Mg27 Mg49 3.169158 1_555
Mg27 Mg28 3.171343 1_555
Mg27 Mg9 3.171628 1_555
Mg27 Mg36 3.177325 1_555
Mg27 Mg59 3.186276 1_555
Mg27 Mg39 3.186312 1_555
Mg27 Mg62 3.187729 1_555
Mg27 Mg45 3.188944 1_555
Mg27 Mg34 3.192587 1_555
Mg27 Mg4 3.210009 1_555
Mg28 Mg50 3.169171 1_555
Mg28 Mg37 3.177288 1_455
Mg28 Mg58 3.186216 1_555
Mg28 Mg39 3.186298 1_555
Mg28 Mg62 3.187720 1_555
Mg28 Mg46 3.188934 1_455
Mg28 Mg33 3.192597 1_555
Mg28 Mg5 3.209992 1_455
Mg29 Mg52 3.169198 1_555
Mg29 Mg32 3.171339 1_555
Mg29 Mg38 3.177328 1_555
Mg29 Mg61 3.186254 1_555
Mg29 Mg40 3.186274 1_555
Mg29 Mg63 3.187741 1_555
Mg29 Mg48 3.188998 1_555
Mg29 Mg34 3.192555 1_555
Mg30 Mg51 3.169163 1_555
Mg30 Mg31 3.171335 1_555
Mg30 Mg38 3.177280 1_455
Mg30 Mg60 3.186224 1_555
Mg30 Mg41 3.186305 1_555
Mg30 Mg64 3.187720 1_555
Mg30 Mg47 3.188942 1_455
Mg30 Mg33 3.192612 1_555
Mg31 Mg54 3.169158 1_555
Mg31 Mg36 3.177325 1_565
Mg31 Mg57 3.186276 1_555
Mg31 Mg41 3.186312 1_555
Mg31 Mg64 3.187729 1_555
Mg31 Mg43 3.188944 1_565
Mg31 Mg35 3.192587 1_555
Mg32 Mg53 3.169198 1_555
Mg32 Mg37 3.177328 1_565
Mg32 Mg56 3.186254 1_555
Mg32 Mg40 3.186282 1_555
Mg32 Mg63 3.187733 1_555
Mg32 Mg44 3.188982 1_565
Mg32 Mg35 3.192555 1_555
Mg33 Mg47 3.182845 1_455
Mg33 Mg46 3.182845 1_455
Mg33 Mg41 3.183082 1_555
Mg33 Mg39 3.183082 1_555
Mg33 Mg60 3.183809 1_555
Mg33 Mg58 3.183809 1_555
Mg33 Mg68 3.186045 1_555
Mg34 Mg48 3.182854 1_555
Mg34 Mg45 3.182857 1_555
Mg34 Mg40 3.183096 1_555
Mg34 Mg39 3.183099 1_555
Mg34 Mg61 3.183799 1_555
Mg34 Mg59 3.183822 1_555
Mg34 Mg69 3.186056 1_555
Mg34 Mg9 3.191584 1_555
Mg35 Mg44 3.182846 1_565
Mg35 Mg43 3.182857 1_565
Mg35 Mg41 3.183099 1_555
Mg35 Mg40 3.183112 1_555
Mg35 Mg56 3.183799 1_555
Mg35 Mg57 3.183814 1_555
Mg35 Mg70 3.186056 1_555
Mg36 Mg8 3.169724 1_555
Mg36 Mg49 3.173914 1_555
Mg36 Mg54 3.173915 1_545
Mg36 Mg45 3.173915 1_555
Mg36 Mg43 3.173915 1_555
Mg36 Mg4 3.180321 1_555
Mg36 Mg72 3.180438 1_555
Mg37 Mg7 3.169770 1_555
Mg37 Mg50 3.173879 1_655
Mg37 Mg44 3.173903 1_555
Mg37 Mg53 3.173906 1_545
Mg37 Mg46 3.173919 1_555
Mg37 Mg5 3.180351 1_555
Mg37 Mg71 3.180382 1_555
Mg38 Mg51 3.173879 1_655
Mg38 Mg52 3.173906 1_555
Mg38 Mg48 3.173911 1_555
Mg38 Mg47 3.173919 1_555
Mg38 Mg73 3.180382 1_555
Mg39 Mg62 3.183286 1_555
Mg39 Mg40 3.183925 1_555
Mg39 Mg41 3.183950 1_555
Mg39 Mg68 3.184462 1_555
Mg39 Mg69 3.184494 1_555
Mg40 Mg63 3.183273 1_555
Mg40 Mg41 3.183933 1_555
Mg40 Mg69 3.184464 1_555
Mg40 Mg70 3.184472 1_555
Mg41 Mg64 3.183286 1_555
Mg41 Mg68 3.184462 1_555
Mg41 Mg70 3.184494 1_555
Mg42 Mg46 3.180868 1_555
Mg42 Mg47 3.180876 1_555
Mg42 Mg44 3.180903 1_555
Mg42 Mg48 3.180903 1_555
Mg42 Mg43 3.180923 1_555
Mg42 Mg45 3.180931 1_555
Mg42 Mg6 3.182546 1_555
Mg42 Mg66 3.186158 1_555
Mg42 Mg65 3.186172 1_555
Mg42 Mg67 3.186180 1_555
Mg43 Mg45 3.179174 1_555
Mg43 Mg65 3.180229 1_555
Mg43 Mg57 3.180266 1_545
Mg43 Mg6 3.181428 1_555
Mg43 Mg44 3.182654 1_555
Mg43 Mg72 3.183903 1_555
Mg43 Mg8 3.184296 1_555
Mg44 Mg46 3.179121 1_555
Mg44 Mg65 3.180229 1_555
Mg44 Mg56 3.180244 1_545
Mg44 Mg6 3.181476 1_555
Mg44 Mg71 3.183826 1_555
Mg44 Mg7 3.184311 1_555
Mg45 Mg67 3.180229 1_555
Mg45 Mg59 3.180258 1_555
Mg45 Mg9 3.182484 1_555
Mg45 Mg48 3.182646 1_555
Mg45 Mg72 3.183895 1_555
Mg45 Mg8 3.184304 1_555
Mg46 Mg58 3.180205 1_655
Mg46 Mg66 3.180219 1_555
Mg46 Mg47 3.182684 1_555
Mg46 Mg71 3.183865 1_555
Mg46 Mg7 3.184319 1_555
Mg47 Mg48 3.179113 1_555
Mg47 Mg60 3.180205 1_655
Mg47 Mg66 3.180219 1_555
Mg47 Mg73 3.183865 1_555
Mg48 Mg67 3.180221 1_555
Mg48 Mg61 3.180252 1_555
Mg48 Mg73 3.183826 1_555
Mg49 Mg50 3.168400 1_555
Mg49 Mg55 3.173679 1_445
Mg49 Mg54 3.178836 1_545
Mg49 Mg62 3.184771 1_555
Mg49 Mg59 3.186265 1_555
Mg49 Mg72 3.186637 1_555
Mg49 Mg76 3.194464 1_555
Mg49 Mg80 3.198999 1_555
Mg49 Mg74 3.199489 1_555
Mg50 Mg55 3.173661 1_445
Mg50 Mg53 3.178813 1_445
Mg50 Mg62 3.184743 1_555
Mg50 Mg58 3.186267 1_555
Mg50 Mg71 3.186691 1_455
Mg50 Mg76 3.194417 1_555
Mg50 Mg79 3.198978 1_555
Mg50 Mg75 3.199495 1_455
Mg51 Mg54 3.168400 1_555
Mg51 Mg55 3.173661 1_455
Mg51 Mg52 3.178813 1_455
Mg51 Mg64 3.184743 1_555
Mg51 Mg60 3.186267 1_555
Mg51 Mg73 3.186692 1_455
Mg51 Mg94 3.194417 1_555
Mg51 Mg92 3.198986 1_555
Mg51 Mg93 3.199495 1_455
Mg52 Mg53 3.168410 1_555
Mg52 Mg55 3.173630 1_555
Mg52 Mg63 3.184790 1_555
Mg52 Mg61 3.186268 1_555
Mg52 Mg73 3.186677 1_555
Mg52 Mg95 3.194401 1_555
Mg52 Mg91 3.198982 1_555
Mg52 Mg93 3.199461 1_555
Mg53 Mg55 3.173630 1_555
Mg53 Mg63 3.184782 1_555
Mg53 Mg56 3.186268 1_555
Mg53 Mg71 3.186676 1_565
Mg53 Mg95 3.194401 1_555
Mg53 Mg97 3.198982 1_555
Mg53 Mg75 3.199469 1_565
Mg54 Mg55 3.173679 1_455
Mg54 Mg64 3.184771 1_555
Mg54 Mg57 3.186273 1_555
Mg54 Mg72 3.186645 1_565
Mg54 Mg94 3.194464 1_555
Mg54 Mg96 3.198999 1_555
Mg54 Mg74 3.199489 1_565
Mg55 Mg76 3.184283 1_665
Mg55 Mg94 3.184283 1_655
Mg55 Mg95 3.184286 1_555
Mg56 Mg63 3.178634 1_555
Mg56 Mg71 3.181192 1_565
Mg56 Mg70 3.182661 1_555
Mg56 Mg65 3.182778 1_565
Mg56 Mg97 3.184933 1_555
Mg56 Mg98 3.185699 1_555
Mg56 Mg78 3.188839 1_565
Mg56 Mg57 3.191300 1_555
Mg57 Mg64 3.178641 1_555
Mg57 Mg72 3.181261 1_565
Mg57 Mg70 3.182701 1_555
Mg57 Mg65 3.182725 1_565
Mg57 Mg96 3.184941 1_555
Mg57 Mg98 3.185683 1_555
Mg57 Mg77 3.188831 1_565
Mg58 Mg62 3.178611 1_555
Mg58 Mg71 3.181228 1_455
Mg58 Mg68 3.182708 1_555
Mg58 Mg66 3.182733 1_455
Mg58 Mg79 3.184987 1_555
Mg58 Mg86 3.185738 1_555
Mg58 Mg82 3.188848 1_455
Mg58 Mg60 3.191399 1_555
Mg59 Mg62 3.178649 1_555
Mg59 Mg72 3.181229 1_555
Mg59 Mg69 3.182717 1_555
Mg59 Mg67 3.182717 1_555
Mg59 Mg80 3.184941 1_555
Mg59 Mg85 3.185691 1_555
Mg59 Mg81 3.188831 1_555
Mg59 Mg61 3.191308 1_555
Mg60 Mg64 3.178611 1_555
Mg60 Mg73 3.181228 1_455
Mg60 Mg68 3.182708 1_555
Mg60 Mg66 3.182733 1_455
Mg60 Mg92 3.184979 1_555
Mg60 Mg86 3.185746 1_555
Mg60 Mg88 3.188848 1_455
Mg61 Mg63 3.178650 1_555
Mg61 Mg73 3.181192 1_555
Mg61 Mg69 3.182661 1_555
Mg61 Mg67 3.182778 1_555
Mg61 Mg91 3.184933 1_555
Mg61 Mg85 3.185699 1_555
Mg61 Mg87 3.188839 1_555
Mg62 Mg84 3.179479 1_555
Mg62 Mg68 3.181436 1_555
Mg62 Mg69 3.181449 1_555
Mg62 Mg79 3.184325 1_555
Mg62 Mg80 3.184350 1_555
Mg63 Mg89 3.179433 1_555
Mg63 Mg70 3.181348 1_555
Mg63 Mg69 3.181356 1_555
Mg63 Mg97 3.184343 1_555
Mg63 Mg91 3.184351 1_555
Mg64 Mg90 3.179487 1_555
Mg64 Mg68 3.181436 1_555
Mg64 Mg70 3.181449 1_555
Mg64 Mg92 3.184325 1_555
Mg64 Mg96 3.184350 1_555
Mg65 Mg77 3.181282 1_555
Mg65 Mg78 3.181311 1_555
Mg65 Mg72 3.184705 1_555
Mg65 Mg71 3.184712 1_555
Mg65 Mg83 3.184971 1_555
Mg65 Mg67 3.188273 1_555
Mg65 Mg66 3.188299 1_555
Mg66 Mg88 3.181292 1_555
Mg66 Mg82 3.181292 1_555
Mg66 Mg73 3.184744 1_555
Mg66 Mg71 3.184744 1_555
Mg66 Mg83 3.184957 1_555
Mg66 Mg67 3.188299 1_555
Mg67 Mg81 3.181282 1_555
Mg67 Mg87 3.181311 1_555
Mg67 Mg72 3.184698 1_555
Mg67 Mg73 3.184712 1_555
Mg67 Mg83 3.184979 1_555
Mg68 Mg70 3.183221 1_555
Mg68 Mg69 3.183221 1_555
Mg68 Mg90 3.183821 1_555
Mg68 Mg84 3.183829 1_555
Mg68 Mg86 3.186791 1_555
Mg69 Mg70 3.183209 1_555
Mg69 Mg89 3.183825 1_555
Mg69 Mg84 3.183865 1_555
Mg69 Mg85 3.186770 1_555
Mg70 Mg89 3.183825 1_555
Mg70 Mg90 3.183865 1_555
Mg70 Mg98 3.186770 1_555
Mg71 Mg78 3.180524 1_555
Mg71 Mg82 3.180563 1_555
Mg71 Mg75 3.181706 1_555
Mg72 Mg81 3.180523 1_555
Mg72 Mg77 3.180539 1_555
Mg72 Mg74 3.181699 1_555
Mg73 Mg87 3.180524 1_555
Mg73 Mg88 3.180563 1_555
Mg73 Mg93 3.181714 1_555
Mg74 Mg96 3.176916 1_545
Mg74 Mg80 3.176916 1_555
Mg74 Mg94 3.178515 1_545
Mg74 Mg76 3.178515 1_555
Mg74 Mg81 3.185315 1_555
Mg74 Mg77 3.185323 1_555
Mg75 Mg97 3.176900 1_545
Mg75 Mg79 3.176902 1_655
Mg75 Mg76 3.178504 1_655
Mg75 Mg95 3.178539 1_545
Mg75 Mg99 3.181706 1_555
Mg75 Mg78 3.185279 1_555
Mg75 Mg82 3.185316 1_555
Mg76 Mg95 3.178684 1_445
Mg76 Mg94 3.178705 1_545
Mg76 Mg79 3.178961 1_555
Mg76 Mg80 3.179010 1_555
Mg77 Mg81 3.176025 1_555
Mg77 Mg98 3.178493 1_545
Mg77 Mg83 3.179713 1_555
Mg77 Mg78 3.183372 1_555
Mg77 Mg96 3.184370 1_545
Mg78 Mg82 3.176030 1_555
Mg78 Mg98 3.178471 1_545
Mg78 Mg83 3.179714 1_555
Mg78 Mg99 3.180524 1_555
Mg78 Mg97 3.184373 1_545
Mg79 Mg80 3.182821 1_555
Mg79 Mg84 3.184172 1_555
Mg79 Mg82 3.184404 1_455
Mg79 Mg86 3.187227 1_555
Mg80 Mg84 3.184230 1_555
Mg80 Mg81 3.184377 1_555
Mg80 Mg85 3.187168 1_555
Mg81 Mg85 3.178509 1_555
Mg81 Mg83 3.179713 1_555
Mg81 Mg87 3.183380 1_555
Mg82 Mg86 3.178452 1_655
Mg82 Mg83 3.179673 1_555
Mg82 Mg99 3.180563 1_555
Mg82 Mg88 3.183387 1_555
Mg83 Mg88 3.179681 1_555
Mg83 Mg87 3.179730 1_555
Mg84 Mg90 3.188781 1_555
Mg84 Mg89 3.188843 1_555
Mg84 Mg86 3.188975 1_555
Mg84 Mg85 3.189051 1_555
Mg85 Mg87 3.178471 1_555
Mg85 Mg91 3.187144 1_555
Mg85 Mg89 3.189032 1_555
Mg86 Mg88 3.178460 1_455
Mg86 Mg92 3.187227 1_555
Mg86 Mg90 3.188975 1_555
Mg87 Mg88 3.176030 1_555
Mg87 Mg91 3.184373 1_555
Mg87 Mg93 3.185287 1_555
Mg88 Mg92 3.184396 1_655
Mg88 Mg93 3.185332 1_555
Mg89 Mg97 3.184168 1_555
Mg89 Mg91 3.184168 1_555
Mg89 Mg90 3.188835 1_555
Mg89 Mg98 3.189032 1_555
Mg90 Mg92 3.184172 1_555
Mg90 Mg96 3.184246 1_555
Mg90 Mg98 3.189059 1_555
Mg91 Mg93 3.176893 1_555
Mg91 Mg95 3.178986 1_555
Mg91 Mg97 3.182903 1_555
Mg92 Mg93 3.176918 1_455
Mg92 Mg94 3.178977 1_555
Mg92 Mg96 3.182829 1_555
Mg93 Mg94 3.178496 1_655
Mg93 Mg95 3.178524 1_555
Mg94 Mg95 3.178684 1_455
Mg94 Mg96 3.179010 1_555
Mg95 Mg97 3.178986 1_555
Mg96 Mg98 3.187168 1_555
Mg97 Mg98 3.187144 1_555
Mg100 Mg134 3.180438 1_555
Mg100 Mg81 3.180523 1_555
Mg100 Mg77 3.180539 1_555
Mg100 Mg114 3.181229 1_555
Mg100 Mg112 3.181261 1_545
Mg100 Mg74 3.181699 1_555
Mg100 Mg126 3.183895 1_555
Mg100 Mg124 3.183903 1_555
Mg100 Mg107 3.184698 1_555
Mg100 Mg105 3.184705 1_555
Mg100 Mg118 3.186637 1_555
Mg100 Mg123 3.186645 1_545
Mg101 Mg136 3.180382 1_555
Mg101 Mg87 3.180524 1_555
Mg101 Mg88 3.180563 1_555
Mg101 Mg116 3.181192 1_555
Mg101 Mg115 3.181228 1_655
Mg101 Mg93 3.181714 1_555
Mg101 Mg129 3.183826 1_555
Mg101 Mg128 3.183865 1_555
Mg101 Mg107 3.184712 1_555
Mg101 Mg106 3.184744 1_555
Mg101 Mg121 3.186677 1_555
Mg101 Mg120 3.186692 1_655
Mg102 Mg110 3.181436 1_555
Mg102 Mg108 3.181436 1_555
Mg102 Mg115 3.182708 1_555
Mg102 Mg113 3.182708 1_555
Mg102 Mg104 3.183221 1_555
Mg102 Mg103 3.183221 1_555
Mg102 Mg90 3.183821 1_555
Mg102 Mg84 3.183829 1_555
Mg102 Mg133 3.184462 1_555
Mg102 Mg131 3.184462 1_555
Mg102 Mg137 3.186045 1_555
Mg102 Mg86 3.186791 1_555
Mg103 Mg109 3.181356 1_555
Mg103 Mg108 3.181449 1_555
Mg103 Mg116 3.182661 1_555
Mg103 Mg114 3.182717 1_555
Mg103 Mg104 3.183209 1_555
Mg103 Mg89 3.183825 1_555
Mg103 Mg84 3.183865 1_555
Mg103 Mg132 3.184464 1_555
Mg103 Mg131 3.184494 1_555
Mg103 Mg138 3.186056 1_555
Mg103 Mg85 3.186770 1_555
Mg104 Mg109 3.181348 1_555
Mg104 Mg110 3.181449 1_555
Mg104 Mg111 3.182661 1_555
Mg104 Mg112 3.182701 1_555
Mg104 Mg89 3.183825 1_555
Mg104 Mg90 3.183865 1_555
Mg104 Mg132 3.184472 1_555
Mg104 Mg133 3.184494 1_555
Mg104 Mg139 3.186056 1_555
Mg104 Mg98 3.186770 1_555
Mg105 Mg124 3.180229 1_555
Mg105 Mg125 3.180229 1_555
Mg105 Mg77 3.181282 1_555
Mg105 Mg78 3.181311 1_555
Mg105 Mg112 3.182725 1_545
Mg105 Mg111 3.182778 1_545
Mg105 Mg99 3.184712 1_555
Mg105 Mg83 3.184971 1_555
Mg105 Mg130 3.186172 1_555
Mg105 Mg107 3.188273 1_555
Mg105 Mg106 3.188299 1_555
Mg106 Mg128 3.180219 1_555
Mg106 Mg127 3.180219 1_555
Mg106 Mg88 3.181292 1_555
Mg106 Mg82 3.181292 1_555
Mg106 Mg115 3.182733 1_655
Mg106 Mg113 3.182733 1_655
Mg106 Mg99 3.184744 1_555
Mg106 Mg83 3.184957 1_555
Mg106 Mg130 3.186158 1_555
Mg106 Mg107 3.188299 1_555
Mg107 Mg129 3.180221 1_555
Mg107 Mg126 3.180229 1_555
Mg107 Mg81 3.181282 1_555
Mg107 Mg87 3.181311 1_555
Mg107 Mg114 3.182717 1_555
Mg107 Mg116 3.182778 1_555
Mg107 Mg83 3.184979 1_555
Mg107 Mg130 3.186180 1_555
Mg108 Mg113 3.178611 1_555
Mg108 Mg114 3.178649 1_555
Mg108 Mg84 3.179479 1_555
Mg108 Mg131 3.183286 1_555
Mg108 Mg79 3.184325 1_555
Mg108 Mg80 3.184350 1_555
Mg108 Mg119 3.184743 1_555
Mg108 Mg118 3.184771 1_555
Mg108 Mg141 3.187720 1_555
Mg108 Mg140 3.187729 1_555
Mg109 Mg111 3.178634 1_555
Mg109 Mg116 3.178650 1_555
Mg109 Mg89 3.179433 1_555
Mg109 Mg132 3.183273 1_555
Mg109 Mg97 3.184343 1_555
Mg109 Mg91 3.184351 1_555
Mg109 Mg122 3.184782 1_555
Mg109 Mg121 3.184790 1_555
Mg109 Mg145 3.187733 1_555
Mg109 Mg142 3.187741 1_555
Mg110 Mg115 3.178611 1_555
Mg110 Mg112 3.178641 1_555
Mg110 Mg90 3.179487 1_555
Mg110 Mg133 3.183286 1_555
Mg110 Mg92 3.184325 1_555
Mg110 Mg96 3.184350 1_555
Mg110 Mg120 3.184743 1_555
Mg110 Mg123 3.184771 1_555
Mg110 Mg143 3.187720 1_555
Mg110 Mg144 3.187729 1_555
Mg111 Mg125 3.180244 1_565
Mg111 Mg99 3.181192 1_565
Mg111 Mg139 3.183799 1_555
Mg111 Mg97 3.184933 1_555
Mg111 Mg98 3.185699 1_555
Mg111 Mg145 3.186254 1_555
Mg111 Mg122 3.186268 1_555
Mg111 Mg78 3.188839 1_565
Mg111 Mg112 3.191300 1_555
Mg112 Mg124 3.180266 1_565
Mg112 Mg139 3.183814 1_555
Mg112 Mg96 3.184941 1_555
Mg112 Mg98 3.185683 1_555
Mg112 Mg123 3.186273 1_555
Mg112 Mg144 3.186276 1_555
Mg112 Mg77 3.188831 1_565
Mg113 Mg127 3.180205 1_455
Mg113 Mg99 3.181228 1_455
Mg113 Mg137 3.183809 1_555
Mg113 Mg79 3.184987 1_555
Mg113 Mg86 3.185738 1_555
Mg113 Mg141 3.186216 1_555
Mg113 Mg119 3.186267 1_555
Mg113 Mg82 3.188848 1_455
Mg113 Mg115 3.191399 1_555
Mg114 Mg126 3.180258 1_555
Mg114 Mg138 3.183822 1_555
Mg114 Mg80 3.184941 1_555
Mg114 Mg85 3.185691 1_555
Mg114 Mg118 3.186265 1_555
Mg114 Mg140 3.186276 1_555
Mg114 Mg81 3.188831 1_555
Mg114 Mg116 3.191308 1_555
Mg115 Mg128 3.180205 1_455
Mg115 Mg137 3.183809 1_555
Mg115 Mg92 3.184979 1_555
Mg115 Mg86 3.185746 1_555
Mg115 Mg143 3.186224 1_555
Mg115 Mg120 3.186267 1_555
Mg115 Mg88 3.188848 1_455
Mg116 Mg129 3.180252 1_555
Mg116 Mg138 3.183799 1_555
Mg116 Mg91 3.184933 1_555
Mg116 Mg85 3.185699 1_555
Mg116 Mg142 3.186254 1_555
Mg116 Mg121 3.186268 1_555
Mg116 Mg87 3.188839 1_555
Mg117 Mg121 3.173630 1_555
Mg117 Mg122 3.173630 1_555
Mg117 Mg119 3.173661 1_665
Mg117 Mg120 3.173661 1_655
Mg117 Mg118 3.173679 1_665
Mg117 Mg123 3.173679 1_655
Mg117 Mg76 3.184283 1_665
Mg117 Mg94 3.184283 1_655
Mg117 Mg95 3.184286 1_555
Mg117 Mg146 3.212001 1_665
Mg117 Mg147 3.212001 1_655
Mg117 Mg148 3.212022 1_555
Mg118 Mg119 3.168400 1_555
Mg118 Mg140 3.169158 1_555
Mg118 Mg134 3.173914 1_555
Mg118 Mg123 3.178836 1_545
Mg118 Mg76 3.194464 1_555
Mg118 Mg80 3.198999 1_555
Mg118 Mg74 3.199489 1_555
Mg118 Mg146 3.227600 1_555
Mg119 Mg141 3.169171 1_555
Mg119 Mg135 3.173879 1_455
Mg119 Mg122 3.178813 1_445
Mg119 Mg99 3.186691 1_455
Mg119 Mg76 3.194417 1_555
Mg119 Mg79 3.198978 1_555
Mg119 Mg75 3.199495 1_455
Mg119 Mg146 3.227590 1_555
Mg120 Mg123 3.168400 1_555
Mg120 Mg143 3.169163 1_555
Mg120 Mg136 3.173879 1_455
Mg120 Mg121 3.178813 1_455
Mg120 Mg94 3.194417 1_555
Mg120 Mg92 3.198986 1_555
Mg120 Mg93 3.199495 1_455
Mg120 Mg147 3.227590 1_555
Mg121 Mg122 3.168410 1_555
Mg121 Mg142 3.169198 1_555
Mg121 Mg136 3.173906 1_555
Mg121 Mg95 3.194401 1_555
Mg121 Mg91 3.198982 1_555
Mg121 Mg93 3.199461 1_555
Mg121 Mg148 3.227618 1_555
Mg122 Mg145 3.169198 1_555
Mg122 Mg135 3.173906 1_565
Mg122 Mg99 3.186676 1_565
Mg122 Mg95 3.194401 1_555
Mg122 Mg97 3.198982 1_555
Mg122 Mg75 3.199469 1_565
Mg122 Mg148 3.227618 1_555
Mg123 Mg144 3.169158 1_555
Mg123 Mg134 3.173915 1_565
Mg123 Mg94 3.194464 1_555
Mg123 Mg96 3.198999 1_555
Mg123 Mg74 3.199489 1_565
Mg123 Mg147 3.227600 1_555
Mg124 Mg134 3.173915 1_555
Mg124 Mg126 3.179174 1_555
Mg124 Mg130 3.180923 1_555
Mg124 Mg6 3.181428 1_556
Mg124 Mg125 3.182654 1_555
Mg124 Mg139 3.182857 1_545
Mg124 Mg8 3.184296 1_556
Mg124 Mg144 3.188944 1_545
Mg125 Mg135 3.173903 1_555
Mg125 Mg127 3.179121 1_555
Mg125 Mg130 3.180903 1_555
Mg125 Mg6 3.181476 1_556
Mg125 Mg139 3.182846 1_545
Mg125 Mg99 3.183826 1_555
Mg125 Mg7 3.184311 1_556
Mg125 Mg145 3.188982 1_545
Mg126 Mg134 3.173915 1_555
Mg126 Mg130 3.180931 1_555
Mg126 Mg9 3.182484 1_556
Mg126 Mg129 3.182646 1_555
Mg126 Mg138 3.182857 1_555
Mg126 Mg8 3.184304 1_556
Mg126 Mg140 3.188944 1_555
Mg127 Mg135 3.173919 1_555
Mg127 Mg130 3.180868 1_555
Mg127 Mg13 3.181472 1_556
Mg127 Mg128 3.182684 1_555
Mg127 Mg137 3.182845 1_655
Mg127 Mg99 3.183865 1_555
Mg127 Mg7 3.184319 1_556
Mg127 Mg141 3.188934 1_655
Mg128 Mg136 3.173919 1_555
Mg128 Mg129 3.179113 1_555
Mg128 Mg130 3.180876 1_555
Mg128 Mg13 3.181472 1_556
Mg128 Mg18 3.182496 1_556
Mg128 Mg137 3.182845 1_655
Mg128 Mg16 3.184319 1_556
Mg128 Mg143 3.188942 1_655
Mg129 Mg136 3.173911 1_555
Mg129 Mg130 3.180903 1_555
Mg129 Mg17 3.182515 1_556
Mg129 Mg138 3.182854 1_555
Mg129 Mg16 3.184311 1_556
Mg129 Mg142 3.188998 1_555
Mg130 Mg6 3.182546 1_556
Mg131 Mg14 3.181412 1_556
Mg131 Mg15 3.181420 1_556
Mg131 Mg137 3.183082 1_555
Mg131 Mg138 3.183099 1_555
Mg131 Mg132 3.183925 1_555
Mg131 Mg133 3.183950 1_555
Mg131 Mg141 3.186298 1_555
Mg131 Mg140 3.186312 1_555
Mg132 Mg14 3.181410 1_556
Mg132 Mg19 3.181418 1_556
Mg132 Mg138 3.183096 1_555
Mg132 Mg139 3.183112 1_555
Mg132 Mg133 3.183933 1_555
Mg132 Mg142 3.186274 1_555
Mg132 Mg145 3.186282 1_555
Mg132 Mg20 3.187974 1_556
Mg133 Mg19 3.181412 1_556
Mg133 Mg15 3.181428 1_556
Mg133 Mg137 3.183082 1_555
Mg133 Mg139 3.183099 1_555
Mg133 Mg143 3.186305 1_555
Mg133 Mg144 3.186312 1_555
Mg133 Mg21 3.188008 1_556
Mg134 Mg8 3.169724 1_556
Mg134 Mg144 3.177325 1_545
Mg134 Mg140 3.177325 1_555
Mg134 Mg4 3.180321 1_556
Mg134 Mg3 3.180321 1_556
Mg134 Mg146 3.191211 1_555
Mg134 Mg147 3.191211 1_545
Mg135 Mg7 3.169770 1_556
Mg135 Mg141 3.177288 1_655
Mg135 Mg145 3.177328 1_545
Mg135 Mg5 3.180351 1_556
Mg135 Mg2 3.180366 1_556
Mg135 Mg99 3.180382 1_555
Mg135 Mg146 3.191190 1_655
Mg135 Mg148 3.191228 1_545
Mg136 Mg16 3.169770 1_556
Mg136 Mg143 3.177280 1_655
Mg136 Mg142 3.177328 1_555
Mg136 Mg23 3.180351 1_556
Mg136 Mg22 3.180358 1_556
Mg136 Mg147 3.191190 1_655
Mg136 Mg148 3.191228 1_555
Mg137 Mg15 3.179097 1_556
Mg137 Mg18 3.191586 1_456
Mg137 Mg141 3.192597 1_555
Mg137 Mg143 3.192612 1_555
Mg138 Mg14 3.179129 1_556
Mg138 Mg17 3.191539 1_556
Mg138 Mg9 3.191584 1_556
Mg138 Mg142 3.192555 1_555
Mg138 Mg140 3.192587 1_555
Mg139 Mg19 3.179129 1_556
Mg139 Mg145 3.192555 1_555
Mg139 Mg144 3.192587 1_555
Mg140 Mg141 3.171343 1_555
Mg140 Mg9 3.171628 1_556
Mg140 Mg146 3.207284 1_555
Mg140 Mg4 3.210009 1_556
Mg141 Mg146 3.207294 1_555
Mg141 Mg5 3.209992 1_456
Mg142 Mg145 3.171339 1_555
Mg142 Mg17 3.171674 1_556
Mg142 Mg20 3.173629 1_556
Mg142 Mg148 3.207248 1_555
Mg142 Mg22 3.210018 1_556
Mg143 Mg144 3.171335 1_555
Mg143 Mg18 3.171639 1_456
Mg143 Mg21 3.173615 1_556
Mg143 Mg147 3.207278 1_555
Mg143 Mg23 3.209984 1_456
Mg144 Mg21 3.173620 1_556
Mg144 Mg147 3.207284 1_555
Mg144 Mg3 3.210009 1_566
Mg145 Mg20 3.173621 1_556
Mg145 Mg148 3.207248 1_555
Mg145 Mg2 3.210018 1_566
Mg146 V0 3.104361 1_446
Mg146 Mg4 3.104564 1_556
Mg146 Mg5 3.104588 1_456
Mg146 Mg147 3.112612 1_545
Mg146 Mg148 3.112614 1_445
Mg147 V0 3.104361 1_456
Mg147 Mg3 3.104564 1_566
Mg147 Mg23 3.104588 1_456
Mg147 Mg148 3.112614 1_455
Mg148 V0 3.104309 1_556
Mg148 Mg2 3.104545 1_566
Mg148 Mg22 3.104553 1_556
