# generated using pymatgen
data_ZnCu3(NiO3)4
_symmetry_space_group_name_H-M   'P 1'
_cell_length_a   6.27227732
_cell_length_b   6.27227732
_cell_length_c   6.27227732
_cell_angle_alpha   109.47122063
_cell_angle_beta   109.47122063
_cell_angle_gamma   109.47122063
_symmetry_Int_Tables_number   1
_chemical_formula_structural   ZnCu3(NiO3)4
_chemical_formula_sum   'Zn1 Cu3 Ni4 O12'
_cell_volume   189.95637143
_cell_formula_units_Z   1
loop_
 _symmetry_equiv_pos_site_id
 _symmetry_equiv_pos_as_xyz
  1  'x, y, z'
loop_
 _atom_site_type_symbol
 _atom_site_label
 _atom_site_symmetry_multiplicity
 _atom_site_fract_x
 _atom_site_fract_y
 _atom_site_fract_z
 _atom_site_occupancy
  Zn  Zn0  1  0.00000000  0.00000000  0.00000000  1
  Cu  Cu0  1  0.50000000  0.50000000  0.00000000  1
  Cu  Cu1  1  0.50000000  0.00000000  0.50000000  1
  Cu  Cu2  1  0.00000000  0.50000000  0.50000000  1
  Ni  Ni0  1  0.50000000  0.50000000  0.50000000  1
  Ni  Ni1  1  0.00000000  0.50000000  0.00000000  1
  Ni  Ni2  1  0.00000000  0.00000000  0.50000000  1
  Ni  Ni3  1  0.50000000  0.00000000  0.00000000  1
  O  O0  1  0.30762600  0.83061200  0.13823800  1
  O  O1  1  0.69237400  0.16938800  0.86176200  1
  O  O2  1  0.69237400  0.83061200  0.52298600  1
  O  O3  1  0.86176200  0.69237400  0.16938800  1
  O  O4  1  0.83061200  0.13823800  0.30762600  1
  O  O5  1  0.16938800  0.47701400  0.30762600  1
  O  O6  1  0.47701400  0.30762600  0.16938800  1
  O  O7  1  0.16938800  0.86176200  0.69237400  1
  O  O8  1  0.30762600  0.16938800  0.47701400  1
  O  O9  1  0.13823800  0.30762600  0.83061200  1
  O  O10  1  0.83061200  0.52298600  0.69237400  1
  O  O11  1  0.52298600  0.69237400  0.83061200  1
loop_
_geom_bond_atom_site_label_1
_geom_bond_atom_site_label_2
_geom_bond_distance
_geom_bond_site_symmetry_2
Cu0 O6 1.856425 1_555
Cu0 O11 1.856425 1_554
Cu0 O3 1.856425 1_555
Cu0 O9 1.856425 1_554
Cu1 O8 1.856425 1_555
Cu1 O2 1.856425 1_545
Cu1 O1 1.856425 1_555
Cu1 O0 1.856425 1_545
Cu2 O10 1.856425 1_455
Cu2 O5 1.856425 1_555
Cu2 O7 1.856425 1_555
Cu2 O4 1.856425 1_455
Ni0 O2 1.947695 1_555
Ni0 O10 1.947695 1_555
Ni0 O11 1.947695 1_555
Ni0 O8 1.947695 1_555
Ni0 O5 1.947695 1_555
Ni0 O6 1.947695 1_555
Ni1 O5 1.947695 1_555
Ni1 O3 1.947695 1_455
Ni1 O9 1.947695 1_554
Ni1 O0 1.947695 1_555
Ni1 O10 1.947695 1_454
Ni1 O1 1.947695 1_454
Ni2 O7 1.947695 1_545
Ni2 O8 1.947695 1_555
Ni2 O4 1.947695 1_455
Ni2 O9 1.947695 1_555
Ni2 O2 1.947695 1_445
Ni2 O3 1.947695 1_445
Ni3 O6 1.947695 1_555
Ni3 O1 1.947695 1_554
Ni3 O0 1.947695 1_545
Ni3 O4 1.947695 1_555
Ni3 O11 1.947695 1_544
Ni3 O7 1.947695 1_544
O0 Zn0 2.543443 1_565
O1 Zn0 2.543443 1_656
O2 Zn0 2.543443 1_666
O3 Zn0 2.543443 1_665
O4 Zn0 2.543443 1_655
O5 Zn0 2.543443 1_555
O6 Zn0 2.543443 1_555
O7 Zn0 2.543443 1_566
O8 Zn0 2.543443 1_555
O9 Zn0 2.543443 1_556
O10 Zn0 2.543443 1_666
O11 Zn0 2.543443 1_666
