# generated using pymatgen
data_SiB2H50C21N2
_symmetry_space_group_name_H-M   'P 1'
_cell_length_a   10.64150472
_cell_length_b   14.36567356
_cell_length_c   19.44763852
_cell_angle_alpha   90.00000000
_cell_angle_beta   90.00000000
_cell_angle_gamma   90.00000000
_symmetry_Int_Tables_number   1
_chemical_formula_structural   SiB2H50C21N2
_chemical_formula_sum   'Si4 B8 H200 C84 N8'
_cell_volume   2973.00684417
_cell_formula_units_Z   4
loop_
 _symmetry_equiv_pos_site_id
 _symmetry_equiv_pos_as_xyz
  1  'x, y, z'
loop_
 _atom_site_type_symbol
 _atom_site_label
 _atom_site_symmetry_multiplicity
 _atom_site_fract_x
 _atom_site_fract_y
 _atom_site_fract_z
 _atom_site_occupancy
  Si  Si0  1  0.29136409  0.40164994  0.48834055  1
  Si  Si1  1  0.70863591  0.90164994  0.51165945  1
  Si  Si2  1  0.79136409  0.90164994  0.01165945  1
  Si  Si3  1  0.20863591  0.40164994  0.98834055  1
  B  B0  1  0.13656399  0.46062879  0.58641317  1
  B  B1  1  0.86343601  0.96062879  0.41358683  1
  B  B2  1  0.63656399  0.96062879  0.91358683  1
  B  B3  1  0.36343601  0.46062879  0.08641317  1
  B  B4  1  0.93986998  0.44348822  0.65887903  1
  B  B5  1  0.06013002  0.94348822  0.34112097  1
  B  B6  1  0.43986998  0.94348822  0.84112097  1
  B  B7  1  0.56013002  0.44348822  0.15887903  1
  H  H0  1  0.12606044  0.51295003  0.53762715  1
  H  H1  1  0.87393956  0.01295003  0.46237285  1
  H  H2  1  0.62606044  0.01295003  0.96237285  1
  H  H3  1  0.37393956  0.51295003  0.03762715  1
  H  H4  1  0.19155140  0.37420019  0.37562377  1
  H  H5  1  0.80844860  0.87420019  0.62437623  1
  H  H6  1  0.69155140  0.87420019  0.12437623  1
  H  H7  1  0.30844860  0.37420019  0.87562377  1
  H  H8  1  0.07327282  0.40717678  0.43463579  1
  H  H9  1  0.92672718  0.90717678  0.56536421  1
  H  H10  1  0.57327282  0.90717678  0.06536421  1
  H  H11  1  0.42672718  0.40717678  0.93463579  1
  H  H12  1  0.17262859  0.49309645  0.39833670  1
  H  H13  1  0.82737141  0.99309645  0.60166330  1
  H  H14  1  0.67262859  0.99309645  0.10166330  1
  H  H15  1  0.32737141  0.49309645  0.89833670  1
  H  H16  1  0.43926394  0.52451095  0.53950131  1
  H  H17  1  0.56073606  0.02451095  0.46049869  1
  H  H18  1  0.93926394  0.02451095  0.96049869  1
  H  H19  1  0.06073606  0.52451095  0.03950131  1
  H  H20  1  0.35901490  0.56386700  0.46500379  1
  H  H21  1  0.64098510  0.06386700  0.53499621  1
  H  H22  1  0.85901490  0.06386700  0.03499621  1
  H  H23  1  0.14098510  0.56386700  0.96500379  1
  H  H24  1  0.48674673  0.48502203  0.45700211  1
  H  H25  1  0.51325327  0.98502203  0.54299789  1
  H  H26  1  0.98674673  0.98502203  0.04299789  1
  H  H27  1  0.01325327  0.48502203  0.95700211  1
  H  H28  1  0.45244138  0.26384915  0.47994705  1
  H  H29  1  0.54755862  0.76384915  0.52005295  1
  H  H30  1  0.95244138  0.76384915  0.02005295  1
  H  H31  1  0.04755862  0.26384915  0.97994705  1
  H  H32  1  0.31248511  0.24394756  0.43222076  1
  H  H33  1  0.68751489  0.74394756  0.56777924  1
  H  H34  1  0.81248511  0.74394756  0.06777924  1
  H  H35  1  0.18751489  0.24394756  0.93222076  1
  H  H36  1  0.42306036  0.32733862  0.40408538  1
  H  H37  1  0.57693964  0.82733862  0.59591462  1
  H  H38  1  0.92306036  0.82733862  0.09591462  1
  H  H39  1  0.07693964  0.32733862  0.90408538  1
  H  H40  1  0.44803470  0.39292379  0.64514958  1
  H  H41  1  0.55196530  0.89292379  0.35485042  1
  H  H42  1  0.94803470  0.89292379  0.85485042  1
  H  H43  1  0.05196530  0.39292379  0.14514958  1
  H  H44  1  0.46552079  0.31328819  0.57612545  1
  H  H45  1  0.53447921  0.81328819  0.42387455  1
  H  H46  1  0.96552079  0.81328819  0.92387455  1
  H  H47  1  0.03447921  0.31328819  0.07612545  1
  H  H48  1  0.45811928  0.27155117  0.66131227  1
  H  H49  1  0.54188072  0.77155117  0.33868773  1
  H  H50  1  0.95811928  0.77155117  0.83868773  1
  H  H51  1  0.04188072  0.27155117  0.16131227  1
  H  H52  1  0.27657583  0.20379772  0.54473811  1
  H  H53  1  0.72342417  0.70379772  0.45526189  1
  H  H54  1  0.77657583  0.70379772  0.95526189  1
  H  H55  1  0.22342417  0.20379772  0.04473811  1
  H  H56  1  0.13732498  0.20785124  0.59519910  1
  H  H57  1  0.86267502  0.70785124  0.40480090  1
  H  H58  1  0.63732498  0.70785124  0.90480090  1
  H  H59  1  0.36267502  0.20785124  0.09519910  1
  H  H60  1  0.27915166  0.16377063  0.63072002  1
  H  H61  1  0.72084834  0.66377063  0.36927998  1
  H  H62  1  0.77915166  0.66377063  0.86927998  1
  H  H63  1  0.22084834  0.16377063  0.13072002  1
  H  H64  1  0.12365716  0.31767351  0.69965016  1
  H  H65  1  0.87634284  0.81767351  0.30034984  1
  H  H66  1  0.62365716  0.81767351  0.80034984  1
  H  H67  1  0.37634284  0.31767351  0.19965016  1
  H  H68  1  0.25088160  0.39331154  0.71835442  1
  H  H69  1  0.74911840  0.89331154  0.28164558  1
  H  H70  1  0.75088160  0.89331154  0.78164558  1
  H  H71  1  0.24911840  0.39331154  0.21835442  1
  H  H72  1  0.26952268  0.27132283  0.72794544  1
  H  H73  1  0.73047732  0.77132283  0.27205456  1
  H  H74  1  0.76952268  0.77132283  0.77205456  1
  H  H75  1  0.23047732  0.27132283  0.22794544  1
  H  H76  1  0.24676141  0.61028146  0.60400755  1
  H  H77  1  0.75323859  0.11028146  0.39599245  1
  H  H78  1  0.74676141  0.11028146  0.89599245  1
  H  H79  1  0.25323859  0.61028146  0.10400755  1
  H  H80  1  0.30699085  0.54163763  0.67301839  1
  H  H81  1  0.69300915  0.04163763  0.32698161  1
  H  H82  1  0.80699085  0.04163763  0.82698161  1
  H  H83  1  0.19300915  0.54163763  0.17301839  1
  H  H84  1  0.27226326  0.66097453  0.68573752  1
  H  H85  1  0.72773674  0.16097453  0.31426248  1
  H  H86  1  0.77226326  0.16097453  0.81426248  1
  H  H87  1  0.22773674  0.66097453  0.18573752  1
  H  H88  1  0.17594199  0.50857387  0.77753131  1
  H  H89  1  0.82405801  0.00857387  0.22246869  1
  H  H90  1  0.67594199  0.00857387  0.72246869  1
  H  H91  1  0.32405801  0.50857387  0.27753131  1
  H  H92  1  0.02247227  0.55531161  0.78703296  1
  H  H93  1  0.97752773  0.05531161  0.21296704  1
  H  H94  1  0.52247227  0.05531161  0.71296704  1
  H  H95  1  0.47752773  0.55531161  0.28703296  1
  H  H96  1  0.15364164  0.63055050  0.78233828  1
  H  H97  1  0.84635836  0.13055050  0.21766172  1
  H  H98  1  0.65364164  0.13055050  0.71766172  1
  H  H99  1  0.34635836  0.63055050  0.28233828  1
  H  H100  1  0.92415591  0.64818635  0.67964635  1
  H  H101  1  0.07584409  0.14818635  0.32035365  1
  H  H102  1  0.42415591  0.14818635  0.82035365  1
  H  H103  1  0.57584409  0.64818635  0.17964635  1
  H  H104  1  0.02215259  0.66750098  0.60700779  1
  H  H105  1  0.97784741  0.16750098  0.39299221  1
  H  H106  1  0.52215259  0.16750098  0.89299221  1
  H  H107  1  0.47784741  0.66750098  0.10700779  1
  H  H108  1  0.05819679  0.72142786  0.68692740  1
  H  H109  1  0.94180321  0.22142786  0.31307260  1
  H  H110  1  0.55819679  0.22142786  0.81307260  1
  H  H111  1  0.44180321  0.72142786  0.18692740  1
  H  H112  1  0.98724051  0.34728475  0.57358715  1
  H  H113  1  0.01275949  0.84728475  0.42641285  1
  H  H114  1  0.48724051  0.84728475  0.92641285  1
  H  H115  1  0.51275949  0.34728475  0.07358715  1
  H  H116  1  0.93765929  0.24678101  0.67839092  1
  H  H117  1  0.06234071  0.74678101  0.32160908  1
  H  H118  1  0.43765929  0.74678101  0.82160908  1
  H  H119  1  0.56234071  0.24678101  0.17839092  1
  H  H120  1  0.85865724  0.21161533  0.60322255  1
  H  H121  1  0.14134276  0.71161533  0.39677745  1
  H  H122  1  0.35865724  0.71161533  0.89677745  1
  H  H123  1  0.64134276  0.21161533  0.10322255  1
  H  H124  1  0.77694828  0.27485685  0.66742009  1
  H  H125  1  0.22305172  0.77485685  0.33257991  1
  H  H126  1  0.27694828  0.77485685  0.83257991  1
  H  H127  1  0.72305172  0.27485685  0.16742009  1
  H  H128  1  0.71159352  0.40214779  0.58106173  1
  H  H129  1  0.28840648  0.90214779  0.41893827  1
  H  H130  1  0.21159352  0.90214779  0.91893827  1
  H  H131  1  0.78840648  0.40214779  0.08106173  1
  H  H132  1  0.85217530  0.53907245  0.54781958  1
  H  H133  1  0.14782470  0.03907245  0.45218042  1
  H  H134  1  0.35217530  0.03907245  0.95218042  1
  H  H135  1  0.64782470  0.53907245  0.04781958  1
  H  H136  1  0.75541131  0.50079269  0.47903156  1
  H  H137  1  0.24458869  0.00079269  0.52096844  1
  H  H138  1  0.25541131  0.00079269  0.02096844  1
  H  H139  1  0.74458869  0.50079269  0.97903156  1
  H  H140  1  0.91664725  0.46968067  0.48177760  1
  H  H141  1  0.08335275  0.96968067  0.51822240  1
  H  H142  1  0.41664725  0.96968067  0.01822240  1
  H  H143  1  0.58335275  0.46968067  0.98177760  1
  H  H144  1  0.74474046  0.24769106  0.52284761  1
  H  H145  1  0.25525954  0.74769106  0.47715239  1
  H  H146  1  0.24474046  0.74769106  0.97715239  1
  H  H147  1  0.75525954  0.24769106  0.02284761  1
  H  H148  1  0.86055912  0.29987873  0.46943595  1
  H  H149  1  0.13944088  0.79987873  0.53056405  1
  H  H150  1  0.36055912  0.79987873  0.03056405  1
  H  H151  1  0.63944088  0.29987873  0.96943595  1
  H  H152  1  0.70041394  0.33428886  0.46295656  1
  H  H153  1  0.29958606  0.83428886  0.53704344  1
  H  H154  1  0.20041394  0.83428886  0.03704344  1
  H  H155  1  0.79958606  0.33428886  0.96295656  1
  H  H156  1  0.87251350  0.53783162  0.74299291  1
  H  H157  1  0.12748650  0.03783162  0.25700709  1
  H  H158  1  0.37251350  0.03783162  0.75700709  1
  H  H159  1  0.62748650  0.53783162  0.24299291  1
  H  H160  1  0.98835941  0.39420083  0.78975194  1
  H  H161  1  0.01164059  0.89420083  0.21024806  1
  H  H162  1  0.48835941  0.89420083  0.71024806  1
  H  H163  1  0.51164059  0.39420083  0.28975194  1
  H  H164  1  0.85231050  0.32824320  0.77126269  1
  H  H165  1  0.14768950  0.82824320  0.22873731  1
  H  H166  1  0.35231050  0.82824320  0.72873731  1
  H  H167  1  0.64768950  0.32824320  0.27126269  1
  H  H168  1  0.84540914  0.41998304  0.83198834  1
  H  H169  1  0.15459086  0.91998304  0.16801166  1
  H  H170  1  0.34540914  0.91998304  0.66801166  1
  H  H171  1  0.65459086  0.41998304  0.33198834  1
  H  H172  1  0.67802109  0.40620726  0.68444512  1
  H  H173  1  0.32197891  0.90620726  0.31555488  1
  H  H174  1  0.17802109  0.90620726  0.81555488  1
  H  H175  1  0.82197891  0.40620726  0.18444512  1
  H  H176  1  0.71740407  0.56045978  0.62122784  1
  H  H177  1  0.28259593  0.06045978  0.37877216  1
  H  H178  1  0.21740407  0.06045978  0.87877216  1
  H  H179  1  0.78259593  0.56045978  0.12122784  1
  H  H180  1  0.68674033  0.61900852  0.69986484  1
  H  H181  1  0.31325967  0.11900852  0.30013516  1
  H  H182  1  0.18674033  0.11900852  0.80013516  1
  H  H183  1  0.81325967  0.61900852  0.19986484  1
  H  H184  1  0.56570939  0.55544202  0.65892413  1
  H  H185  1  0.43429061  0.05544202  0.34107587  1
  H  H186  1  0.06570939  0.05544202  0.84107587  1
  H  H187  1  0.93429061  0.55544202  0.15892413  1
  H  H188  1  0.64539671  0.41100552  0.81268986  1
  H  H189  1  0.35460329  0.91100552  0.18731014  1
  H  H190  1  0.14539671  0.91100552  0.68731014  1
  H  H191  1  0.85460329  0.41100552  0.31268986  1
  H  H192  1  0.52799780  0.47459783  0.76883188  1
  H  H193  1  0.47200220  0.97459783  0.23116812  1
  H  H194  1  0.02799780  0.97459783  0.73116812  1
  H  H195  1  0.97200220  0.47459783  0.26883188  1
  H  H196  1  0.65269462  0.53462896  0.80973876  1
  H  H197  1  0.34730538  0.03462896  0.19026124  1
  H  H198  1  0.15269462  0.03462896  0.69026124  1
  H  H199  1  0.84730538  0.53462896  0.30973876  1
  C  C0  1  0.17015826  0.42155600  0.41844656  1
  C  C1  1  0.82984174  0.92155600  0.58155344  1
  C  C2  1  0.67015826  0.92155600  0.08155344  1
  C  C3  1  0.32984174  0.42155600  0.91844656  1
  C  C4  1  0.40470833  0.50315377  0.48867138  1
  C  C5  1  0.59529167  0.00315377  0.51132862  1
  C  C6  1  0.90470833  0.00315377  0.01132862  1
  C  C7  1  0.09529167  0.50315377  0.98867138  1
  C  C8  1  0.37779442  0.29784258  0.45035121  1
  C  C9  1  0.62220558  0.79784258  0.54964879  1
  C  C10  1  0.87779442  0.79784258  0.04964879  1
  C  C11  1  0.12220558  0.29784258  0.95035121  1
  C  C12  1  0.41982560  0.32415595  0.62600278  1
  C  C13  1  0.58017440  0.82415595  0.37399722  1
  C  C14  1  0.91982560  0.82415595  0.87399722  1
  C  C15  1  0.08017440  0.32415595  0.12600278  1
  C  C16  1  0.23970161  0.21716901  0.59642102  1
  C  C17  1  0.76029839  0.71716901  0.40357898  1
  C  C18  1  0.73970161  0.71716901  0.90357898  1
  C  C19  1  0.26029839  0.21716901  0.09642102  1
  C  C20  1  0.22583890  0.32562818  0.69606033  1
  C  C21  1  0.77416110  0.82562818  0.30393967  1
  C  C22  1  0.72583890  0.82562818  0.80393967  1
  C  C23  1  0.27416110  0.32562818  0.19606033  1
  C  C24  1  0.10572470  0.57441346  0.68314985  1
  C  C25  1  0.89427530  0.07441346  0.31685015  1
  C  C26  1  0.60572470  0.07441346  0.81685015  1
  C  C27  1  0.39427530  0.57441346  0.18314985  1
  C  C28  1  0.24073105  0.59735999  0.65947198  1
  C  C29  1  0.75926895  0.09735999  0.34052802  1
  C  C30  1  0.74073105  0.09735999  0.84052802  1
  C  C31  1  0.25926895  0.59735999  0.15947198  1
  C  C32  1  0.11341863  0.56568281  0.76204795  1
  C  C33  1  0.88658137  0.06568281  0.23795205  1
  C  C34  1  0.61341863  0.06568281  0.73795205  1
  C  C35  1  0.38658137  0.56568281  0.26204795  1
  C  C36  1  0.02192376  0.65750805  0.66301893  1
  C  C37  1  0.97807624  0.15750805  0.33698107  1
  C  C38  1  0.52192376  0.15750805  0.83698107  1
  C  C39  1  0.47807624  0.65750805  0.16301893  1
  C  C40  1  0.90268626  0.36155288  0.60508367  1
  C  C41  1  0.09731374  0.86155288  0.39491633  1
  C  C42  1  0.40268626  0.86155288  0.89491633  1
  C  C43  1  0.59731374  0.36155288  0.10508367  1
  C  C44  1  0.86750144  0.26894113  0.64035340  1
  C  C45  1  0.13249856  0.76894113  0.35964660  1
  C  C46  1  0.36750144  0.76894113  0.85964660  1
  C  C47  1  0.63249856  0.26894113  0.14035340  1
  C  C48  1  0.79952486  0.39039078  0.55229557  1
  C  C49  1  0.20047514  0.89039078  0.44770443  1
  C  C50  1  0.29952486  0.89039078  0.94770443  1
  C  C51  1  0.70047514  0.39039078  0.05229557  1
  C  C52  1  0.83226691  0.48009860  0.51359447  1
  C  C53  1  0.16773309  0.98009860  0.48640553  1
  C  C54  1  0.33226691  0.98009860  0.98640553  1
  C  C55  1  0.66773309  0.48009860  0.01359447  1
  C  C56  1  0.77437874  0.31348836  0.49929483  1
  C  C57  1  0.22562126  0.81348836  0.50070517  1
  C  C58  1  0.27437874  0.81348836  0.00070517  1
  C  C59  1  0.72562126  0.31348836  0.99929483  1
  C  C60  1  0.84990866  0.46743136  0.72412904  1
  C  C61  1  0.15009134  0.96743136  0.27587096  1
  C  C62  1  0.34990866  0.96743136  0.77587096  1
  C  C63  1  0.65009134  0.46743136  0.22412904  1
  C  C64  1  0.88619520  0.39889991  0.78244929  1
  C  C65  1  0.11380480  0.89889991  0.21755071  1
  C  C66  1  0.38619520  0.89889991  0.71755071  1
  C  C67  1  0.61380480  0.39889991  0.28244929  1
  C  C68  1  0.70536350  0.46977830  0.71261089  1
  C  C69  1  0.29463650  0.96977830  0.28738911  1
  C  C70  1  0.20536350  0.96977830  0.78738911  1
  C  C71  1  0.79463650  0.46977830  0.21261089  1
  C  C72  1  0.66699406  0.55517775  0.67022936  1
  C  C73  1  0.33300594  0.05517775  0.32977064  1
  C  C74  1  0.16699406  0.05517775  0.82977064  1
  C  C75  1  0.83300594  0.55517775  0.17022936  1
  C  C76  1  0.62932415  0.47180104  0.77974157  1
  C  C77  1  0.37067585  0.97180104  0.22025843  1
  C  C78  1  0.12932415  0.97180104  0.72025843  1
  C  C79  1  0.87067585  0.47180104  0.27974157  1
  C  C80  1  0.27516443  0.31516706  0.62229255  1
  C  C81  1  0.72483557  0.81516706  0.37770745  1
  C  C82  1  0.77516443  0.81516706  0.87770745  1
  C  C83  1  0.22483557  0.31516706  0.12229255  1
  N  N0  1  0.22424007  0.38763425  0.57385620  1
  N  N1  1  0.77575993  0.88763425  0.42614380  1
  N  N2  1  0.72424007  0.88763425  0.92614380  1
  N  N3  1  0.27575993  0.38763425  0.07385620  1
  N  N4  1  0.05937656  0.48620891  0.64843274  1
  N  N5  1  0.94062344  0.98620891  0.35156726  1
  N  N6  1  0.55937656  0.98620891  0.85156726  1
  N  N7  1  0.44062344  0.48620891  0.14843274  1
loop_
_geom_bond_atom_site_label_1
_geom_bond_atom_site_label_2
_geom_bond_distance
_geom_bond_site_symmetry_2
B0 H0 1.215570 1_555
B0 N0 1.424686 1_555
B0 N4 1.504819 1_555
B1 H1 1.215570 1_565
B1 N1 1.424686 1_555
B1 N5 1.504819 1_555
B2 H2 1.215570 1_565
B2 N2 1.424686 1_555
B2 N6 1.504819 1_555
B3 H3 1.215570 1_555
B3 N3 1.424686 1_555
B3 N7 1.504819 1_555
B4 N4 1.426608 1_655
B4 C40 1.623746 1_555
B4 C60 1.626356 1_555
B5 N5 1.426608 1_455
B5 C41 1.623746 1_555
B5 C61 1.626356 1_555
B6 N6 1.426608 1_555
B6 C42 1.623746 1_555
B6 C62 1.626356 1_555
B7 N7 1.426608 1_555
B7 C43 1.623746 1_555
B7 C63 1.626356 1_555
C0 H8 1.097621 1_555
C0 H4 1.099178 1_555
C0 H12 1.099938 1_555
C0 Si0 1.895525 1_555
C1 H9 1.097621 1_555
C1 H5 1.099178 1_555
C1 H13 1.099938 1_555
C1 Si1 1.895525 1_555
C2 H10 1.097621 1_555
C2 H6 1.099178 1_555
C2 H14 1.099938 1_555
C2 Si2 1.895525 1_555
C3 H11 1.097621 1_555
C3 H7 1.099178 1_555
C3 H15 1.099938 1_555
C3 Si3 1.895525 1_555
C4 H16 1.098421 1_555
C4 H20 1.099546 1_555
C4 H24 1.099691 1_555
C4 Si0 1.892382 1_555
C5 H17 1.098421 1_555
C5 H21 1.099546 1_555
C5 H25 1.099691 1_545
C5 Si1 1.892382 1_545
C6 H18 1.098421 1_554
C6 H22 1.099546 1_555
C6 H26 1.099691 1_545
C6 Si2 1.892382 1_545
C7 H19 1.098421 1_556
C7 H23 1.099546 1_555
C7 H27 1.099691 1_555
C7 Si3 1.892382 1_555
C8 H28 1.095790 1_555
C8 H32 1.098534 1_555
C8 H36 1.105057 1_555
C8 Si0 1.901481 1_555
C9 H29 1.095790 1_555
C9 H33 1.098534 1_555
C9 H37 1.105057 1_555
C9 Si1 1.901481 1_555
C10 H30 1.095790 1_555
C10 H34 1.098534 1_555
C10 H38 1.105057 1_555
C10 Si2 1.901481 1_555
C11 H31 1.095790 1_555
C11 H35 1.098534 1_555
C11 H39 1.105057 1_555
C11 Si3 1.901481 1_555
C12 H44 1.096230 1_555
C12 H40 1.097590 1_555
C12 H48 1.099401 1_555
C12 C80 1.546503 1_555
C13 H45 1.096230 1_555
C13 H41 1.097590 1_555
C13 H49 1.099401 1_555
C13 C81 1.546503 1_555
C14 H46 1.096230 1_555
C14 H42 1.097590 1_555
C14 H50 1.099401 1_555
C14 C82 1.546503 1_555
C15 H47 1.096230 1_555
C15 H43 1.097590 1_555
C15 H51 1.099401 1_555
C15 C83 1.546503 1_555
C16 H52 1.095956 1_555
C16 H56 1.097891 1_555
C16 H60 1.099828 1_555
C16 C80 1.541910 1_555
C17 H53 1.095956 1_555
C17 H57 1.097891 1_555
C17 H61 1.099828 1_555
C17 C81 1.541910 1_555
C18 H54 1.095956 1_555
C18 H58 1.097891 1_555
C18 H62 1.099828 1_555
C18 C82 1.541910 1_555
C19 H55 1.095956 1_555
C19 H59 1.097891 1_555
C19 H63 1.099828 1_555
C19 C83 1.541910 1_555
C20 H64 1.095582 1_555
C20 H68 1.097451 1_555
C20 H72 1.099643 1_555
C20 C80 1.534994 1_555
C21 H65 1.095582 1_555
C21 H69 1.097451 1_555
C21 H73 1.099643 1_555
C21 C81 1.534994 1_555
C22 H66 1.095582 1_555
C22 H70 1.097451 1_555
C22 H74 1.099643 1_555
C22 C82 1.534994 1_555
C23 H67 1.095582 1_555
C23 H71 1.097451 1_555
C23 H75 1.099643 1_555
C23 C83 1.534994 1_555
C24 N4 1.518123 1_555
C24 C36 1.540605 1_555
C24 C32 1.541675 1_555
C24 C28 1.544256 1_555
C25 N5 1.518123 1_545
C25 C37 1.540605 1_555
C25 C33 1.541675 1_555
C25 C29 1.544256 1_555
C26 N6 1.518123 1_545
C26 C38 1.540605 1_555
C26 C34 1.541675 1_555
C26 C30 1.544256 1_555
C27 N7 1.518123 1_555
C27 C39 1.540605 1_555
C27 C35 1.541675 1_555
C27 C31 1.544256 1_555
C28 H76 1.096387 1_555
C28 H80 1.098799 1_555
C28 H84 1.099393 1_555
C29 H77 1.096387 1_555
C29 H81 1.098799 1_555
C29 H85 1.099393 1_555
C30 H78 1.096387 1_555
C30 H82 1.098799 1_555
C30 H86 1.099393 1_555
C31 H79 1.096387 1_555
C31 H83 1.098799 1_555
C31 H87 1.099393 1_555
C32 H92 1.093135 1_555
C32 H88 1.098372 1_555
C32 H96 1.098772 1_555
C33 H93 1.093135 1_555
C33 H89 1.098372 1_555
C33 H97 1.098772 1_555
C34 H94 1.093135 1_555
C34 H90 1.098372 1_555
C34 H98 1.098772 1_555
C35 H95 1.093135 1_555
C35 H91 1.098372 1_555
C35 H99 1.098772 1_555
C36 H100 1.097690 1_455
C36 H104 1.098706 1_555
C36 H108 1.099260 1_555
C37 H101 1.097690 1_655
C37 H105 1.098706 1_555
C37 H109 1.099260 1_555
C38 H102 1.097690 1_555
C38 H106 1.098706 1_555
C38 H110 1.099260 1_555
C39 H103 1.097690 1_555
C39 H107 1.098706 1_555
C39 H111 1.099260 1_555
C40 H112 1.107620 1_555
C40 C44 1.542955 1_555
C40 C48 1.559067 1_555
C41 H113 1.107620 1_555
C41 C45 1.542955 1_555
C41 C49 1.559067 1_555
C42 H114 1.107620 1_555
C42 C46 1.542955 1_555
C42 C50 1.559067 1_555
C43 H115 1.107620 1_555
C43 C47 1.542955 1_555
C43 C51 1.559067 1_555
C44 H116 1.098157 1_555
C44 H120 1.099313 1_555
C44 H124 1.101303 1_555
C45 H117 1.098157 1_555
C45 H121 1.099313 1_555
C45 H125 1.101303 1_555
C46 H118 1.098157 1_555
C46 H122 1.099313 1_555
C46 H126 1.101303 1_555
C47 H119 1.098157 1_555
C47 H123 1.099313 1_555
C47 H127 1.101303 1_555
C48 H128 1.103208 1_555
C49 H129 1.103208 1_555
C50 H130 1.103208 1_555
C51 H131 1.103208 1_555
C52 H132 1.098021 1_555
C52 H136 1.099582 1_555
C52 H140 1.100705 1_555
C53 H133 1.098021 1_565
C53 H137 1.099582 1_565
C53 H141 1.100705 1_555
C54 H134 1.098021 1_565
C54 H138 1.099582 1_566
C54 H142 1.100705 1_556
C55 H135 1.098021 1_555
C55 H139 1.099582 1_554
C55 H143 1.100705 1_554
C56 H144 1.096689 1_555
C56 H152 1.099194 1_555
C56 H148 1.102938 1_555
C57 H145 1.096689 1_555
C57 H153 1.099194 1_555
C57 H149 1.102938 1_555
C58 H146 1.096689 1_554
C58 H154 1.099194 1_555
C58 H150 1.102938 1_555
C59 H147 1.096689 1_556
C59 H155 1.099194 1_555
C59 H151 1.102938 1_555
C60 H156 1.102394 1_555
C60 C64 1.550722 1_555
C60 C68 1.554768 1_555
C61 H157 1.102394 1_565
C61 C65 1.550722 1_555
C61 C69 1.554768 1_555
C62 H158 1.102394 1_565
C62 C66 1.550722 1_555
C62 C70 1.554768 1_555
C63 H159 1.102394 1_555
C63 C67 1.550722 1_555
C63 C71 1.554768 1_555
C64 H160 1.098494 1_555
C64 H164 1.098926 1_555
C64 H168 1.099219 1_555
C65 H161 1.098494 1_555
C65 H165 1.098926 1_555
C65 H169 1.099219 1_555
C66 H162 1.098494 1_555
C66 H166 1.098926 1_555
C66 H170 1.099219 1_555
C67 H163 1.098494 1_555
C67 H167 1.098926 1_555
C67 H171 1.099219 1_555
C68 H172 1.103951 1_555
C69 H173 1.103951 1_555
C70 H174 1.103951 1_555
C71 H175 1.103951 1_555
C72 H176 1.096204 1_555
C72 H184 1.100023 1_555
C72 H180 1.103250 1_555
C73 H177 1.096204 1_555
C73 H185 1.100023 1_555
C73 H181 1.103250 1_555
C74 H178 1.096204 1_555
C74 H186 1.100023 1_555
C74 H182 1.103250 1_555
C75 H179 1.096204 1_555
C75 H187 1.100023 1_555
C75 H183 1.103250 1_555
C76 H188 1.096635 1_555
C76 H192 1.099675 1_555
C76 H196 1.103087 1_555
C77 H189 1.096635 1_555
C77 H193 1.099675 1_555
C77 H197 1.103087 1_565
C78 H190 1.096635 1_555
C78 H194 1.099675 1_555
C78 H198 1.103087 1_565
C79 H191 1.096635 1_555
C79 H195 1.099675 1_555
C79 H199 1.103087 1_555
C80 N0 1.504907 1_555
C81 N1 1.504907 1_555
C82 N2 1.504907 1_555
C83 N3 1.504907 1_555
N0 Si0 1.821151 1_555
N1 Si1 1.821151 1_555
N2 Si2 1.821151 1_556
N3 Si3 1.821151 1_554
