# generated using pymatgen
data_Cr3H
_symmetry_space_group_name_H-M   'P 1'
_cell_length_a   4.58328828
_cell_length_b   4.58328828
_cell_length_c   4.58328828
_cell_angle_alpha   139.28455304
_cell_angle_beta   139.28455304
_cell_angle_gamma   58.94123137
_symmetry_Int_Tables_number   1
_chemical_formula_structural   Cr3H
_chemical_formula_sum   'Cr3 H1'
_cell_volume   40.57645137
_cell_formula_units_Z   1
loop_
 _symmetry_equiv_pos_site_id
 _symmetry_equiv_pos_as_xyz
  1  'x, y, z'
loop_
 _atom_site_type_symbol
 _atom_site_label
 _atom_site_symmetry_multiplicity
 _atom_site_fract_x
 _atom_site_fract_y
 _atom_site_fract_z
 _atom_site_occupancy
  Cr  Cr0  1  0.75000000  0.25000000  0.50000000  1
  Cr  Cr1  1  0.25000000  0.75000000  0.50000000  1
  Cr  Cr2  1  0.50000000  0.50000000  0.00000000  1
  H  H0  1  0.00000000  0.00000000  0.00000000  1
loop_
_geom_bond_atom_site_label_1
_geom_bond_atom_site_label_2
_geom_bond_distance
_geom_bond_site_symmetry_2
Cr0 Cr1 2.254873 1_544
Cr0 Cr1 2.254873 1_555
Cr0 Cr1 2.254873 1_645
Cr0 Cr1 2.254873 1_656
Cr2 H0 2.254873 1_554
Cr2 H0 2.254873 1_565
Cr2 H0 2.254873 1_655
Cr2 H0 2.254873 1_666
