# generated using pymatgen
data_SrCaTbBiO6
_symmetry_space_group_name_H-M   'P 1'
_cell_length_a   8.48948072
_cell_length_b   8.48023825
_cell_length_c   8.49084909
_cell_angle_alpha   90.00000000
_cell_angle_beta   90.00000000
_cell_angle_gamma   90.00000000
_symmetry_Int_Tables_number   1
_chemical_formula_structural   SrCaTbBiO6
_chemical_formula_sum   'Sr4 Ca4 Tb4 Bi4 O24'
_cell_volume   611.28016275
_cell_formula_units_Z   4
loop_
 _symmetry_equiv_pos_site_id
 _symmetry_equiv_pos_as_xyz
  1  'x, y, z'
loop_
 _atom_site_type_symbol
 _atom_site_label
 _atom_site_symmetry_multiplicity
 _atom_site_fract_x
 _atom_site_fract_y
 _atom_site_fract_z
 _atom_site_occupancy
  Sr  Sr0  1  0.00000000  0.50000000  0.50000000  1
  Sr  Sr1  1  0.50000000  -0.00000000  0.50000000  1
  Sr  Sr2  1  0.50000000  0.50000000  -0.00000000  1
  Sr  Sr3  1  0.50000000  -0.00000000  -0.00000000  1
  Ca  Ca0  1  0.00000000  0.50000000  -0.00000000  1
  Ca  Ca1  1  -0.00000000  -0.00000000  0.50000000  1
  Ca  Ca2  1  -0.00000000  -0.00000000  -0.00000000  1
  Ca  Ca3  1  0.50000000  0.50000000  0.50000000  1
  Tb  Tb0  1  0.24779170  0.24968614  0.25001555  1
  Tb  Tb1  1  0.75220830  0.75031386  0.25001555  1
  Tb  Tb2  1  0.75220830  0.24968614  0.74998445  1
  Tb  Tb3  1  0.24779170  0.75031386  0.74998445  1
  Bi  Bi0  1  0.75254314  0.75026013  0.74980863  1
  Bi  Bi1  1  0.24745686  0.24973987  0.74980863  1
  Bi  Bi2  1  0.24745686  0.75026013  0.25019137  1
  Bi  Bi3  1  0.75254314  0.24973987  0.25019137  1
  O  O0  1  0.99291176  0.19388295  0.29612966  1
  O  O1  1  0.00708824  0.80611705  0.29612966  1
  O  O2  1  0.00708824  0.19388295  0.70387034  1
  O  O3  1  0.99291176  0.80611705  0.70387034  1
  O  O4  1  0.28504894  0.99277616  0.19972349  1
  O  O5  1  0.28504894  0.00722384  0.80027651  1
  O  O6  1  0.71495106  0.00722384  0.19972349  1
  O  O7  1  0.71495106  0.99277616  0.80027651  1
  O  O8  1  0.19208285  0.29364044  0.99201508  1
  O  O9  1  0.80791715  0.29364044  0.00798492  1
  O  O10  1  0.19208285  0.70635956  0.00798492  1
  O  O11  1  0.80791715  0.70635956  0.99201508  1
  O  O12  1  0.50758350  0.29478161  0.21317776  1
  O  O13  1  0.49241650  0.70521839  0.21317776  1
  O  O14  1  0.49241650  0.29478161  0.78682224  1
  O  O15  1  0.50758350  0.70521839  0.78682224  1
  O  O16  1  0.21317204  0.50682961  0.29710164  1
  O  O17  1  0.21317204  0.49317039  0.70289836  1
  O  O18  1  0.78682796  0.49317039  0.29710164  1
  O  O19  1  0.78682796  0.50682961  0.70289836  1
  O  O20  1  0.29781424  0.21569729  0.50676590  1
  O  O21  1  0.70218576  0.21569729  0.49323410  1
  O  O22  1  0.29781424  0.78430271  0.49323410  1
  O  O23  1  0.70218576  0.78430271  0.50676590  1
loop_
_geom_bond_atom_site_label_1
_geom_bond_atom_site_label_2
_geom_bond_distance
_geom_bond_site_symmetry_2
Ca0 O10 2.392937 1_555
Ca0 O8 2.392937 1_554
Ca0 O11 2.392937 1_454
Ca0 O9 2.392937 1_455
Ca1 O1 2.388179 1_545
Ca1 O0 2.388179 1_455
Ca1 O3 2.388179 1_445
Ca1 O2 2.388179 1_555
Ca2 O5 2.955599 1_554
Ca2 O7 2.955599 1_444
Ca2 O6 2.955599 1_455
Ca2 O4 2.955599 1_545
Ca2 O8 2.977336 1_554
Ca2 O11 2.977336 1_444
Ca2 O9 2.977336 1_455
Ca2 O10 2.977336 1_545
Ca2 O2 3.004845 1_554
Ca2 O3 3.004845 1_444
Ca2 O1 3.004845 1_545
Ca2 O0 3.004845 1_455
Ca3 O20 2.960103 1_555
Ca3 O21 2.960103 1_555
Ca3 O22 2.960103 1_555
Ca3 O23 2.960103 1_555
Ca3 O18 2.983395 1_555
Ca3 O16 2.983395 1_555
Ca3 O19 2.983395 1_555
Ca3 O17 2.983395 1_555
Ca3 O14 2.993959 1_555
Ca3 O15 2.993959 1_555
Ca3 O12 2.993959 1_555
Ca3 O13 2.993959 1_555
Bi0 O19 2.122475 1_555
Bi0 O7 2.124865 1_555
Bi0 O23 2.127137 1_555
Bi0 O3 2.130864 1_555
Bi0 O15 2.137597 1_555
Bi0 O11 2.142181 1_555
Bi1 O17 2.122475 1_555
Bi1 O5 2.124865 1_555
Bi1 O20 2.127137 1_555
Bi1 O2 2.130864 1_555
Bi1 O14 2.137597 1_555
Bi1 O8 2.142181 1_555
Bi2 O16 2.122475 1_555
Bi2 O4 2.124865 1_555
Bi2 O22 2.127137 1_555
Bi2 O1 2.130864 1_555
Bi2 O13 2.137597 1_555
Bi2 O10 2.142181 1_555
Bi3 O18 2.122475 1_555
Bi3 O6 2.124865 1_555
Bi3 O21 2.127137 1_555
Bi3 O0 2.130864 1_555
Bi3 O12 2.137597 1_555
Bi3 O9 2.142181 1_555
O0 Tb0 2.249283 1_655
O1 Tb1 2.249283 1_455
O2 Tb2 2.249283 1_455
O3 Tb3 2.249283 1_655
O4 Tb0 2.242530 1_565
O4 Sr3 2.491896 1_565
O4 Sr1 3.135954 1_565
O5 Tb3 2.242530 1_545
O5 Sr3 2.491896 1_556
O5 Sr1 3.135954 1_555
O6 Tb1 2.242530 1_545
O6 Sr3 2.491896 1_555
O6 Sr1 3.135954 1_555
O7 Tb2 2.242530 1_565
O7 Sr3 2.491896 1_566
O7 Sr1 3.135954 1_565
O8 Tb0 2.271899 1_556
O9 Tb2 2.271899 1_554
O10 Tb3 2.271899 1_554
O11 Tb1 2.271899 1_556
O12 Tb0 2.260154 1_555
O12 Sr2 2.511794 1_555
O12 Sr3 3.086998 1_555
O13 Tb1 2.260154 1_555
O13 Sr2 2.511794 1_555
O13 Sr3 3.086998 1_565
O14 Tb2 2.260154 1_555
O14 Sr2 2.511794 1_556
O14 Sr3 3.086998 1_556
O15 Tb3 2.260154 1_555
O15 Sr2 2.511794 1_556
O15 Sr3 3.086998 1_566
O16 Tb0 2.236381 1_555
O16 Sr0 2.499282 1_555
O17 Tb3 2.236381 1_555
O17 Sr0 2.499282 1_555
O18 Tb1 2.236381 1_555
O18 Sr0 2.499282 1_655
O19 Tb2 2.236381 1_555
O19 Sr0 2.499282 1_655
O20 Tb0 2.239630 1_555
O20 Sr1 2.509054 1_555
O21 Tb2 2.239630 1_555
O21 Sr1 2.509054 1_555
O22 Tb3 2.239630 1_555
O22 Sr1 2.509054 1_565
O23 Tb1 2.239630 1_555
O23 Sr1 2.509054 1_565
