# generated using pymatgen
data_Er2Ge2Ru
_symmetry_space_group_name_H-M   'P 1'
_cell_length_a   5.71824213
_cell_length_b   5.71824213
_cell_length_c   10.03605899
_cell_angle_alpha   64.07823479
_cell_angle_beta   64.07823479
_cell_angle_gamma   43.65575139
_symmetry_Int_Tables_number   1
_chemical_formula_structural   Er2Ge2Ru
_chemical_formula_sum   'Er4 Ge4 Ru2'
_cell_volume   199.84823666
_cell_formula_units_Z   2
loop_
 _symmetry_equiv_pos_site_id
 _symmetry_equiv_pos_as_xyz
  1  'x, y, z'
loop_
 _atom_site_type_symbol
 _atom_site_label
 _atom_site_symmetry_multiplicity
 _atom_site_fract_x
 _atom_site_fract_y
 _atom_site_fract_z
 _atom_site_occupancy
  Er  Er0  1  -0.00031088  -0.00031088  0.32782544  1
  Er  Er1  1  0.00031088  0.00031088  0.67217456  1
  Er  Er2  1  0.81653845  0.81653845  0.11238324  1
  Er  Er3  1  0.18346155  0.18346155  0.88761676  1
  Ge  Ge0  1  0.64380868  0.64380868  0.43556613  1
  Ge  Ge1  1  0.35619132  0.35619132  0.56443387  1
  Ge  Ge2  1  0.51390676  0.51390676  0.12354304  1
  Ge  Ge3  1  0.48609324  0.48609324  0.87645696  1
  Ru  Ru0  1  0.72993095  0.72993095  0.62920776  1
  Ru  Ru1  1  0.27006905  0.27006905  0.37079224  1
loop_
_geom_bond_atom_site_label_1
_geom_bond_atom_site_label_2
_geom_bond_distance
_geom_bond_site_symmetry_2
Er0 Ge2 2.907773 1_545
Er0 Ge2 2.907773 1_455
Er0 Ge1 3.012164 1_545
Er0 Ge1 3.012164 1_455
Er0 Ru0 3.031886 1_445
Er0 Ge0 3.096602 1_545
Er0 Ge0 3.096602 1_455
Er0 Ru1 3.097016 1_555
Er0 Ru1 3.107921 1_545
Er0 Ru1 3.107921 1_455
Er0 Ge0 3.405365 1_445
Er1 Ge3 2.907773 1_455
Er1 Ge3 2.907773 1_545
Er1 Ge0 3.012164 1_455
Er1 Ge0 3.012164 1_545
Er1 Ru1 3.031886 1_555
Er1 Ge1 3.096602 1_455
Er1 Ge1 3.096602 1_545
Er1 Ru0 3.097016 1_445
Er1 Ru0 3.107921 1_455
Er1 Ru0 3.107921 1_545
Er1 Ge1 3.405365 1_555
Er2 Ge0 2.877709 1_555
Er2 Ge2 3.024016 1_655
Er2 Ge2 3.024016 1_565
Er2 Ge3 3.058268 1_564
Er2 Ge3 3.058268 1_654
Er2 Ge2 3.161706 1_555
Er2 Ru1 3.206976 1_565
Er2 Ru1 3.206976 1_655
Er3 Ge1 2.877709 1_555
Er3 Ge3 3.024016 1_455
Er3 Ge3 3.024016 1_545
Er3 Ge2 3.058268 1_546
Er3 Ge2 3.058268 1_456
Er3 Ge3 3.161706 1_555
Er3 Ru0 3.206976 1_455
Er3 Ru0 3.206976 1_545
Ge0 Ru1 2.432950 1_655
Ge0 Ru1 2.432950 1_565
Ge0 Ru0 2.507245 1_555
Ge0 Ge1 2.697629 1_555
Ge1 Ru0 2.432950 1_455
Ge1 Ru0 2.432950 1_545
Ge1 Ru1 2.507245 1_555
Ge2 Ru1 2.609399 1_555
Ge2 Ge3 2.631745 1_554
Ge3 Ru0 2.609399 1_555
