# generated using pymatgen
data_Zn(H3C)2
_symmetry_space_group_name_H-M   'P 1'
_cell_length_a   7.07279300
_cell_length_b   4.38452100
_cell_length_c   8.31934349
_cell_angle_alpha   58.34642895
_cell_angle_beta   90.00000000
_cell_angle_gamma   90.00000000
_symmetry_Int_Tables_number   1
_chemical_formula_structural   Zn(H3C)2
_chemical_formula_sum   'Zn2 H12 C4'
_cell_volume   219.61017952
_cell_formula_units_Z   2
loop_
 _symmetry_equiv_pos_site_id
 _symmetry_equiv_pos_as_xyz
  1  'x, y, z'
loop_
 _atom_site_type_symbol
 _atom_site_label
 _atom_site_symmetry_multiplicity
 _atom_site_fract_x
 _atom_site_fract_y
 _atom_site_fract_z
 _atom_site_occupancy
  Zn  Zn0  1  0.50000000  0.00000000  0.50000000  1
  Zn  Zn1  1  0.00000000  0.00000000  0.00000000  1
  H  H0  1  0.35284800  0.38700200  0.17392200  1
  H  H1  1  0.14715200  0.38700200  0.67392200  1
  H  H2  1  0.64715200  0.61299800  0.82607800  1
  H  H3  1  0.85284800  0.61299800  0.32607800  1
  H  H4  1  0.27721500  0.93317300  0.28088800  1
  H  H5  1  0.22278500  0.93317300  0.78088800  1
  H  H6  1  0.72278500  0.06682700  0.71911200  1
  H  H7  1  0.77721500  0.06682700  0.21911200  1
  H  H8  1  0.17382000  0.21447600  0.35275800  1
  H  H9  1  0.32618000  0.21447600  0.85275800  1
  H  H10  1  0.82618000  0.78552400  0.64724200  1
  H  H11  1  0.67382000  0.78552400  0.14724200  1
  C  C0  1  0.30616900  0.14977300  0.30735100  1
  C  C1  1  0.19383100  0.14977300  0.80735100  1
  C  C2  1  0.69383100  0.85022700  0.69264900  1
  C  C3  1  0.80616900  0.85022700  0.19264900  1
loop_
_geom_bond_atom_site_label_1
_geom_bond_atom_site_label_2
_geom_bond_distance
_geom_bond_site_symmetry_2
C0 H0 1.100570 1_555
C0 H4 1.100796 1_545
C0 H8 1.100863 1_555
C0 Zn0 1.942864 1_555
C1 H1 1.100570 1_555
C1 H5 1.100796 1_545
C1 H9 1.100863 1_555
C1 Zn1 1.942864 1_556
C2 H2 1.100570 1_555
C2 H6 1.100796 1_565
C2 H10 1.100863 1_555
C2 Zn0 1.942864 1_565
C3 H3 1.100570 1_555
C3 H7 1.100796 1_565
C3 H11 1.100863 1_555
C3 Zn1 1.942864 1_665
