# generated using pymatgen
data_Yb3Si
_symmetry_space_group_name_H-M   'P 1'
_cell_length_a   6.46552296
_cell_length_b   6.46552296
_cell_length_c   5.12254164
_cell_angle_alpha   90.00000000
_cell_angle_beta   90.00000000
_cell_angle_gamma   119.99999661
_symmetry_Int_Tables_number   1
_chemical_formula_structural   Yb3Si
_chemical_formula_sum   'Yb6 Si2'
_cell_volume   185.44855821
_cell_formula_units_Z   2
loop_
 _symmetry_equiv_pos_site_id
 _symmetry_equiv_pos_as_xyz
  1  'x, y, z'
loop_
 _atom_site_type_symbol
 _atom_site_label
 _atom_site_symmetry_multiplicity
 _atom_site_fract_x
 _atom_site_fract_y
 _atom_site_fract_z
 _atom_site_occupancy
  Yb  Yb0  1  0.17412865  0.34825831  0.25000000  1
  Yb  Yb1  1  0.65174169  0.82587135  0.25000000  1
  Yb  Yb2  1  0.17412865  0.82587135  0.25000000  1
  Yb  Yb3  1  0.82587135  0.65174169  0.75000000  1
  Yb  Yb4  1  0.34825831  0.17412865  0.75000000  1
  Yb  Yb5  1  0.82587135  0.17412865  0.75000000  1
  Si  Si0  1  0.33333300  0.66666700  0.75000000  1
  Si  Si1  1  0.66666700  0.33333300  0.25000000  1
loop_
_geom_bond_atom_site_label_1
_geom_bond_atom_site_label_2
_geom_bond_distance
_geom_bond_site_symmetry_2
Si0 Yb2 3.120693 1_556
Si0 Yb2 3.120693 1_555
Si0 Yb1 3.120693 1_556
Si0 Yb1 3.120693 1_555
Si0 Yb0 3.120693 1_555
Si0 Yb0 3.120693 1_556
Si0 Yb3 3.233835 1_455
Si0 Yb4 3.233835 1_565
Si0 Yb5 3.233841 1_455
Si0 Yb5 3.233841 1_565
Si0 Yb3 3.233848 1_555
Si0 Yb4 3.233848 1_555
Si1 Yb5 3.120693 1_555
Si1 Yb5 3.120693 1_554
Si1 Yb4 3.120693 1_555
Si1 Yb4 3.120693 1_554
Si1 Yb3 3.120693 1_554
Si1 Yb3 3.120693 1_555
Si1 Yb1 3.233835 1_545
Si1 Yb0 3.233835 1_655
Si1 Yb2 3.233841 1_545
Si1 Yb2 3.233841 1_655
Si1 Yb1 3.233848 1_555
Si1 Yb0 3.233848 1_555
