# generated using pymatgen
data_TiMo(PO4)3
_symmetry_space_group_name_H-M   'P 1'
_cell_length_a   8.84463495
_cell_length_b   8.84463472
_cell_length_c   8.84463552
_cell_angle_alpha   59.03042776
_cell_angle_beta   59.03042982
_cell_angle_gamma   59.03043343
_symmetry_Int_Tables_number   1
_chemical_formula_structural   TiMo(PO4)3
_chemical_formula_sum   'Ti2 Mo2 P6 O24'
_cell_volume   478.42481070
_cell_formula_units_Z   2
loop_
 _symmetry_equiv_pos_site_id
 _symmetry_equiv_pos_as_xyz
  1  'x, y, z'
loop_
 _atom_site_type_symbol
 _atom_site_label
 _atom_site_symmetry_multiplicity
 _atom_site_fract_x
 _atom_site_fract_y
 _atom_site_fract_z
 _atom_site_occupancy
  Ti  Ti0  1  0.13943300  0.13943300  0.13943300  1
  Ti  Ti1  1  0.63943300  0.63943300  0.63943300  1
  Mo  Mo0  1  0.35865300  0.35865300  0.35865300  1
  Mo  Mo1  1  0.85865300  0.85865300  0.85865300  1
  P  P0  1  0.03168300  0.46480000  0.75051600  1
  P  P1  1  0.46480000  0.75051600  0.03168300  1
  P  P2  1  0.75051600  0.03168300  0.46480000  1
  P  P3  1  0.25051600  0.96480000  0.53168300  1
  P  P4  1  0.53168300  0.25051600  0.96480000  1
  P  P5  1  0.96480000  0.53168300  0.25051600  1
  O  O0  1  0.13382700  0.50758100  0.28266800  1
  O  O1  1  0.28266800  0.13382700  0.50758100  1
  O  O2  1  0.06239400  0.28794500  0.92047900  1
  O  O3  1  0.50758100  0.28266800  0.13382700  1
  O  O4  1  0.00758100  0.63382700  0.78266700  1
  O  O5  1  0.21344300  0.44126300  0.57855700  1
  O  O6  1  0.28794500  0.92047900  0.06239400  1
  O  O7  1  0.44126300  0.57855700  0.21344300  1
  O  O8  1  0.21258100  0.00128900  0.36463100  1
  O  O9  1  0.57855700  0.21344300  0.44126300  1
  O  O10  1  0.07855700  0.94126300  0.71344300  1
  O  O11  1  0.36463100  0.21258100  0.00128900  1
  O  O12  1  0.63382700  0.78266700  0.00758100  1
  O  O13  1  0.92047900  0.06239400  0.28794500  1
  O  O14  1  0.42047900  0.78794500  0.56239400  1
  O  O15  1  0.78266700  0.00758100  0.63382700  1
  O  O16  1  0.56239400  0.42047900  0.78794500  1
  O  O17  1  0.71344300  0.07855700  0.94126300  1
  O  O18  1  0.78794500  0.56239400  0.42047900  1
  O  O19  1  0.00128900  0.36463100  0.21258100  1
  O  O20  1  0.50128900  0.71258100  0.86463100  1
  O  O21  1  0.94126300  0.71344300  0.07855700  1
  O  O22  1  0.71258100  0.86463100  0.50128900  1
  O  O23  1  0.86463100  0.50128900  0.71258100  1
loop_
_geom_bond_atom_site_label_1
_geom_bond_atom_site_label_2
_geom_bond_distance
_geom_bond_site_symmetry_2
Mo0 O7 1.972869 1_555
Mo0 O9 1.972869 1_555
Mo0 O5 1.972869 1_555
Mo0 O1 1.977243 1_555
Mo0 O0 1.977243 1_555
Mo0 O3 1.977244 1_555
Mo1 O10 1.972869 1_655
Mo1 O17 1.972869 1_565
Mo1 O21 1.972869 1_556
Mo1 O12 1.977248 1_556
Mo1 O4 1.977248 1_655
Mo1 O15 1.977248 1_565
O0 P5 1.551915 1_455
O1 P3 1.551915 1_545
O2 P0 1.530785 1_555
O2 Ti0 1.938793 1_556
O3 P4 1.551915 1_554
O4 P0 1.551909 1_555
O5 P0 1.551126 1_555
O6 P1 1.530785 1_555
O6 Ti0 1.938793 1_565
O7 P1 1.551126 1_555
O8 P3 1.519139 1_545
O8 Ti0 1.971481 1_555
O9 P2 1.551126 1_555
O10 P3 1.551126 1_555
O11 P4 1.519139 1_554
O11 Ti0 1.971481 1_555
O12 P1 1.551909 1_555
O13 P2 1.530785 1_555
O13 Ti0 1.938793 1_655
O14 P3 1.530785 1_555
O14 Ti1 1.938793 1_555
O15 P2 1.551910 1_555
O16 P4 1.530785 1_555
O16 Ti1 1.938793 1_555
O17 P4 1.551126 1_555
O18 P5 1.530785 1_555
O18 Ti1 1.938793 1_555
O19 P5 1.519139 1_455
O19 Ti0 1.971481 1_555
O20 P1 1.519139 1_556
O20 Ti1 1.971481 1_555
O21 P5 1.551126 1_555
O22 P2 1.519139 1_565
O22 Ti1 1.971481 1_555
O23 P0 1.519139 1_655
O23 Ti1 1.971481 1_555
