# generated using pymatgen
data_LaNdZr2O7
_symmetry_space_group_name_H-M   'P 1'
_cell_length_a   7.66667687
_cell_length_b   7.66667687
_cell_length_c   7.66667687
_cell_angle_alpha   120.01664441
_cell_angle_beta   119.98564749
_cell_angle_gamma   89.99801727
_symmetry_Int_Tables_number   1
_chemical_formula_structural   LaNdZr2O7
_chemical_formula_sum   'La2 Nd2 Zr4 O14'
_cell_volume   318.63898993
_cell_formula_units_Z   2
loop_
 _symmetry_equiv_pos_site_id
 _symmetry_equiv_pos_as_xyz
  1  'x, y, z'
loop_
 _atom_site_type_symbol
 _atom_site_label
 _atom_site_symmetry_multiplicity
 _atom_site_fract_x
 _atom_site_fract_y
 _atom_site_fract_z
 _atom_site_occupancy
  La  La0  1  0.50000000  0.50000000  0.00000000  1
  La  La1  1  0.00000000  0.50000000  0.50000000  1
  Nd  Nd0  1  0.50000000  0.50000000  0.50000000  1
  Nd  Nd1  1  0.50000000  0.00000000  0.00000000  1
  Zr  Zr0  1  0.00000000  0.00000000  0.50000000  1
  Zr  Zr1  1  0.00000000  0.50000000  0.00000000  1
  Zr  Zr2  1  0.00000000  0.00000000  0.00000000  1
  Zr  Zr3  1  0.50000000  0.00000000  0.50000000  1
  O  O0  1  0.37763900  0.62763900  0.75000000  1
  O  O1  1  0.62236100  0.37236100  0.25000000  1
  O  O2  1  0.33531200  0.08531200  0.25000000  1
  O  O3  1  0.91656600  0.66656600  0.25000000  1
  O  O4  1  0.33443600  0.66564400  0.25160200  1
  O  O5  1  0.91404300  0.08283500  0.24839800  1
  O  O6  1  0.33443600  0.08283500  0.66879200  1
  O  O7  1  0.91404300  0.66564400  0.83120800  1
  O  O8  1  0.66468800  0.91468800  0.75000000  1
  O  O9  1  0.08343400  0.33343400  0.75000000  1
  O  O10  1  0.66556400  0.33435600  0.74839800  1
  O  O11  1  0.08595700  0.91716500  0.75160200  1
  O  O12  1  0.66556400  0.91716500  0.33120800  1
  O  O13  1  0.08595700  0.33435600  0.16879200  1
loop_
_geom_bond_atom_site_label_1
_geom_bond_atom_site_label_2
_geom_bond_distance
_geom_bond_site_symmetry_2
La0 O0 2.364417 1_554
La0 O1 2.364417 1_555
La0 O9 2.633785 1_554
La0 O3 2.633785 1_555
La0 O6 2.634609 1_554
La0 O12 2.634609 1_555
La0 O4 2.634615 1_555
La0 O10 2.634615 1_554
La1 O1 2.364417 1_455
La1 O0 2.364417 1_555
La1 O3 2.633785 1_455
La1 O9 2.633785 1_555
La1 O11 2.634609 1_555
La1 O5 2.634609 1_455
La1 O7 2.634609 1_455
La1 O13 2.634609 1_555
Nd0 O0 2.330645 1_555
Nd0 O1 2.330645 1_555
Nd0 O10 2.618004 1_555
Nd0 O4 2.618004 1_555
Nd0 O13 2.618010 1_555
Nd0 O7 2.618010 1_555
Nd0 O8 2.619208 1_555
Nd0 O2 2.619208 1_555
Nd1 O1 2.330645 1_555
Nd1 O0 2.330645 1_544
Nd1 O11 2.618010 1_544
Nd1 O5 2.618010 1_555
Nd1 O6 2.618010 1_554
Nd1 O12 2.618010 1_545
Nd1 O8 2.619208 1_544
Nd1 O2 2.619208 1_555
O2 Zr2 2.128575 1_555
O2 Zr3 2.128575 1_555
O3 Zr1 2.118994 1_655
O3 Zr0 2.118994 1_665
O4 Zr3 2.123375 1_565
O4 Zr1 2.124475 1_555
O5 Zr2 2.123368 1_655
O5 Zr0 2.124481 1_655
O6 Zr3 2.123375 1_555
O6 Zr0 2.124475 1_555
O7 Zr2 2.123375 1_666
O7 Zr1 2.124475 1_656
O8 Zr2 2.128575 1_666
O8 Zr3 2.128575 1_565
O9 Zr0 2.118994 1_555
O9 Zr1 2.118994 1_556
O10 Zr3 2.123375 1_555
O10 Zr1 2.124475 1_656
O11 Zr2 2.123368 1_566
O11 Zr0 2.124481 1_565
O12 Zr3 2.123375 1_565
O12 Zr0 2.124475 1_665
O13 Zr2 2.123375 1_555
O13 Zr1 2.124475 1_555
