# generated using pymatgen
data_Mg6VW
_symmetry_space_group_name_H-M   'P 1'
_cell_length_a   6.15394845
_cell_length_b   6.15394845
_cell_length_c   4.91315300
_cell_angle_alpha   90.00000000
_cell_angle_beta   90.00000000
_cell_angle_gamma   123.69294718
_symmetry_Int_Tables_number   1
_chemical_formula_structural   Mg6VW
_chemical_formula_sum   'Mg6 V1 W1'
_cell_volume   154.81143016
_cell_formula_units_Z   1
loop_
 _symmetry_equiv_pos_site_id
 _symmetry_equiv_pos_as_xyz
  1  'x, y, z'
loop_
 _atom_site_type_symbol
 _atom_site_label
 _atom_site_symmetry_multiplicity
 _atom_site_fract_x
 _atom_site_fract_y
 _atom_site_fract_z
 _atom_site_occupancy
  Mg  Mg0  1  0.32743900  0.17124300  0.50000000  1
  Mg  Mg1  1  0.82875700  0.67256100  0.50000000  1
  Mg  Mg2  1  0.16987700  0.34295400  0.00000000  1
  Mg  Mg3  1  0.65704600  0.83012300  0.00000000  1
  Mg  Mg4  1  0.67956100  0.32043900  0.00000000  1
  Mg  Mg5  1  0.18090400  0.81909600  0.00000000  1
  V  V0  1  0.83027600  0.16972400  0.50000000  1
  W  W0  1  0.32614500  0.67385500  0.50000000  1
loop_
_geom_bond_atom_site_label_1
_geom_bond_atom_site_label_2
_geom_bond_distance
_geom_bond_site_symmetry_2
Mg0 Mg1 2.895999 1_445
Mg0 Mg1 2.911307 1_555
Mg0 Mg2 3.037820 1_556
Mg0 Mg2 3.037820 1_555
Mg0 V0 3.054340 1_455
Mg0 W0 3.056490 1_545
Mg0 Mg4 3.060392 1_555
Mg0 Mg4 3.060392 1_556
Mg0 Mg5 3.062038 1_546
Mg0 Mg5 3.062038 1_545
Mg0 W0 3.097473 1_555
Mg0 V0 3.099628 1_555
Mg1 Mg3 3.037820 1_556
Mg1 Mg3 3.037820 1_555
Mg1 V0 3.054340 1_565
Mg1 W0 3.056490 1_655
Mg1 Mg4 3.060392 1_555
Mg1 Mg4 3.060392 1_556
Mg1 Mg5 3.062038 1_656
Mg1 Mg5 3.062038 1_655
Mg1 W0 3.097473 1_555
Mg1 V0 3.099628 1_555
Mg2 Mg3 2.829139 1_555
Mg2 Mg5 2.893060 1_555
Mg2 Mg4 2.942775 1_455
Mg2 Mg3 2.978167 1_445
Mg2 W0 2.988912 1_554
Mg2 W0 2.988912 1_555
Mg2 V0 3.011148 1_455
Mg2 V0 3.011148 1_454
Mg2 Mg4 3.215499 1_555
Mg2 Mg5 3.261928 1_545
Mg3 Mg5 2.893060 1_555
Mg3 Mg4 2.942775 1_565
Mg3 W0 2.988912 1_554
Mg3 W0 2.988912 1_555
Mg3 V0 3.011148 1_564
Mg3 V0 3.011148 1_565
Mg3 Mg4 3.215499 1_555
Mg3 Mg5 3.261928 1_655
Mg4 Mg5 2.903690 1_655
Mg4 Mg5 2.903690 1_545
Mg4 V0 2.951216 1_555
Mg4 V0 2.951216 1_554
Mg5 W0 2.918715 1_554
Mg5 W0 2.918715 1_555
V0 W0 2.903999 1_655
V0 W0 2.903999 1_545
