# generated using pymatgen
data_Ba8Sr2Sm5(Cu3O7)5
_symmetry_space_group_name_H-M   'P 1'
_cell_length_a   3.85035400
_cell_length_b   3.94434200
_cell_length_c   58.66747400
_cell_angle_alpha   90.00000000
_cell_angle_beta   90.00000000
_cell_angle_gamma   90.00000000
_symmetry_Int_Tables_number   1
_chemical_formula_structural   Ba8Sr2Sm5(Cu3O7)5
_chemical_formula_sum   'Ba8 Sr2 Sm5 Cu15 O35'
_cell_volume   890.98955689
_cell_formula_units_Z   1
loop_
 _symmetry_equiv_pos_site_id
 _symmetry_equiv_pos_as_xyz
  1  'x, y, z'
loop_
 _atom_site_type_symbol
 _atom_site_label
 _atom_site_symmetry_multiplicity
 _atom_site_fract_x
 _atom_site_fract_y
 _atom_site_fract_z
 _atom_site_occupancy
  Ba  Ba0  1  0.50000000  0.50000000  0.03570700  1
  Ba  Ba1  1  0.50000000  0.50000000  0.23583900  1
  Ba  Ba2  1  0.50000000  0.50000000  0.43590500  1
  Ba  Ba3  1  0.50000000  0.50000000  0.63598300  1
  Ba  Ba4  1  0.50000000  0.50000000  0.83560500  1
  Ba  Ba5  1  0.50000000  0.50000000  0.16399700  1
  Ba  Ba6  1  0.50000000  0.50000000  0.36407000  1
  Ba  Ba7  1  0.50000000  0.50000000  0.56409800  1
  Sr  Sr0  1  0.50000000  0.50000000  0.76397600  1
  Sr  Sr1  1  0.50000000  0.50000000  0.96399200  1
  Sm  Sm0  1  0.50000000  0.50000000  0.09997500  1
  Sm  Sm1  1  0.50000000  0.50000000  0.30002000  1
  Sm  Sm2  1  0.50000000  0.50000000  0.50001000  1
  Sm  Sm3  1  0.50000000  0.50000000  0.70050000  1
  Sm  Sm4  1  0.50000000  0.50000000  0.90052500  1
  Cu  Cu0  1  0.00000000  0.00000000  0.06961900  1
  Cu  Cu1  1  0.00000000  0.00000000  0.26960600  1
  Cu  Cu2  1  0.00000000  0.00000000  0.46961800  1
  Cu  Cu3  1  0.00000000  0.00000000  0.66979600  1
  Cu  Cu4  1  0.00000000  0.00000000  0.86977000  1
  Cu  Cu5  1  0.00000000  0.00000000  0.13036100  1
  Cu  Cu6  1  0.00000000  0.00000000  0.33038500  1
  Cu  Cu7  1  0.00000000  0.00000000  0.53039800  1
  Cu  Cu8  1  0.00000000  0.00000000  0.73110700  1
  Cu  Cu9  1  0.00000000  0.00000000  0.93109800  1
  Cu  Cu10  1  0.00000000  0.00000000  0.99945500  1
  Cu  Cu11  1  0.00000000  0.00000000  0.20001700  1
  Cu  Cu12  1  0.00000000  0.00000000  0.40001100  1
  Cu  Cu13  1  0.00000000  0.00000000  0.60000000  1
  Cu  Cu14  1  0.00000000  0.00000000  0.79946700  1
  O  O0  1  0.00000000  0.00000000  0.03135900  1
  O  O1  1  0.00000000  0.00000000  0.23186200  1
  O  O2  1  0.00000000  0.00000000  0.43184500  1
  O  O3  1  0.00000000  0.00000000  0.63188800  1
  O  O4  1  0.00000000  0.00000000  0.83144200  1
  O  O5  1  0.00000000  0.00000000  0.16816900  1
  O  O6  1  0.00000000  0.00000000  0.36816300  1
  O  O7  1  0.00000000  0.00000000  0.56815500  1
  O  O8  1  0.00000000  0.00000000  0.76758500  1
  O  O9  1  0.00000000  0.00000000  0.96758700  1
  O  O10  1  0.00000000  0.50000000  0.99820500  1
  O  O11  1  0.00000000  0.50000000  0.19997100  1
  O  O12  1  0.00000000  0.50000000  0.39999500  1
  O  O13  1  0.00000000  0.50000000  0.60003100  1
  O  O14  1  0.00000000  0.50000000  0.79821700  1
  O  O15  1  0.00000000  0.50000000  0.07450200  1
  O  O16  1  0.00000000  0.50000000  0.27457900  1
  O  O17  1  0.00000000  0.50000000  0.47455900  1
  O  O18  1  0.00000000  0.50000000  0.67504500  1
  O  O19  1  0.00000000  0.50000000  0.87493300  1
  O  O20  1  0.00000000  0.50000000  0.12538900  1
  O  O21  1  0.00000000  0.50000000  0.32544500  1
  O  O22  1  0.00000000  0.50000000  0.52542500  1
  O  O23  1  0.00000000  0.50000000  0.72656000  1
  O  O24  1  0.00000000  0.50000000  0.92653400  1
  O  O25  1  0.50000000  0.00000000  0.07499800  1
  O  O26  1  0.50000000  0.00000000  0.27505200  1
  O  O27  1  0.50000000  0.00000000  0.47503300  1
  O  O28  1  0.50000000  0.00000000  0.67533000  1
  O  O29  1  0.50000000  0.00000000  0.87528900  1
  O  O30  1  0.50000000  0.00000000  0.12493500  1
  O  O31  1  0.50000000  0.00000000  0.32496600  1
  O  O32  1  0.50000000  0.00000000  0.52496200  1
  O  O33  1  0.50000000  0.00000000  0.72554900  1
  O  O34  1  0.50000000  0.00000000  0.92553400  1
loop_
_geom_bond_atom_site_label_1
_geom_bond_atom_site_label_2
_geom_bond_distance
_geom_bond_site_symmetry_2
Ba0 O0 2.767821 1_555
Ba0 O0 2.767821 1_565
Ba0 O0 2.767821 1_655
Ba0 O0 2.767821 1_665
Ba0 O10 2.923518 1_554
Ba0 O10 2.923518 1_654
Ba0 O15 2.981024 1_555
Ba0 O15 2.981024 1_655
Ba0 O25 3.033638 1_565
Ba0 O25 3.033638 1_555
Ba1 O1 2.765900 1_555
Ba1 O1 2.765900 1_655
Ba1 O1 2.765900 1_665
Ba1 O1 2.765900 1_565
Ba1 O11 2.852073 1_555
Ba1 O11 2.852073 1_655
Ba1 O16 2.978561 1_555
Ba1 O16 2.978561 1_655
Ba1 O26 3.030163 1_555
Ba1 O26 3.030163 1_565
Ba2 O2 2.766315 1_565
Ba2 O2 2.766315 1_655
Ba2 O2 2.766315 1_665
Ba2 O2 2.766315 1_555
Ba2 O12 2.853892 1_555
Ba2 O12 2.853892 1_655
Ba2 O17 2.974713 1_655
Ba2 O17 2.974713 1_555
Ba2 O27 3.026378 1_555
Ba2 O27 3.026378 1_565
Ba3 O3 2.766493 1_555
Ba3 O3 2.766493 1_565
Ba3 O3 2.766493 1_665
Ba3 O3 2.766493 1_655
Ba3 O13 2.855711 1_555
Ba3 O13 2.855711 1_655
Ba3 O18 2.993001 1_555
Ba3 O18 2.993001 1_655
Ba3 O28 3.036135 1_555
Ba3 O28 3.036135 1_565
Ba4 O4 2.766842 1_655
Ba4 O4 2.766842 1_565
Ba4 O4 2.766842 1_665
Ba4 O4 2.766842 1_555
Ba4 O14 2.918488 1_655
Ba4 O14 2.918488 1_555
Ba4 O19 3.004966 1_555
Ba4 O19 3.004966 1_655
Ba4 O29 3.051194 1_555
Ba4 O29 3.051194 1_565
Ba5 O5 2.766889 1_555
Ba5 O5 2.766889 1_565
Ba5 O5 2.766889 1_655
Ba5 O5 2.766889 1_665
Ba5 O11 2.856665 1_555
Ba5 O11 2.856665 1_655
Ba5 O20 2.972656 1_555
Ba5 O20 2.972656 1_655
Ba5 O30 3.023443 1_555
Ba5 O30 3.023443 1_565
Ba6 O6 2.766482 1_565
Ba6 O6 2.766482 1_655
Ba6 O6 2.766482 1_665
Ba6 O6 2.766482 1_555
Ba6 O12 2.854541 1_555
Ba6 O12 2.854541 1_655
Ba6 O21 2.973416 1_655
Ba6 O21 2.973416 1_555
Ba6 O31 3.025311 1_555
Ba6 O31 3.025311 1_565
Ba7 O7 2.766300 1_665
Ba7 O7 2.766300 1_565
Ba7 O7 2.766300 1_555
Ba7 O7 2.766300 1_655
Ba7 O13 2.854888 1_655
Ba7 O13 2.854888 1_555
Ba7 O22 2.975563 1_655
Ba7 O22 2.975563 1_555
Ba7 O32 3.026734 1_565
Ba7 O32 3.026734 1_555
Cu0 O25 1.950870 1_555
Cu0 O25 1.950870 1_455
Cu0 O15 1.992869 1_555
Cu0 O15 1.992869 1_545
Cu0 O0 2.244618 1_555
Cu1 O26 1.951509 1_455
Cu1 O26 1.951509 1_555
Cu1 O16 1.993634 1_545
Cu1 O16 1.993634 1_555
Cu1 O1 2.214345 1_555
Cu2 O27 1.951212 1_455
Cu2 O27 1.951212 1_555
Cu2 O17 1.993361 1_545
Cu2 O17 1.993361 1_555
Cu2 O2 2.216046 1_555
Cu3 O28 1.952361 1_555
Cu3 O28 1.952361 1_455
Cu3 O18 1.996068 1_545
Cu3 O18 1.996068 1_555
Cu3 O3 2.223967 1_555
Cu4 O29 1.952215 1_555
Cu4 O29 1.952215 1_455
Cu4 O19 1.995296 1_545
Cu4 O19 1.995296 1_555
Cu4 O4 2.248607 1_555
Cu5 O30 1.951318 1_455
Cu5 O30 1.951318 1_555
Cu5 O20 1.993626 1_545
Cu5 O20 1.993626 1_555
Cu5 O5 2.218100 1_555
Cu6 O31 1.951251 1_555
Cu6 O31 1.951251 1_455
Cu6 O21 1.993352 1_545
Cu6 O21 1.993352 1_555
Cu6 O6 2.216340 1_555
Cu7 O32 1.951413 1_455
Cu7 O32 1.951413 1_555
Cu7 O22 1.993634 1_545
Cu7 O22 1.993634 1_555
Cu7 O7 2.215108 1_555
Cu8 O33 1.952596 1_455
Cu8 O33 1.952596 1_555
Cu8 O23 1.990131 1_545
Cu8 O23 1.990131 1_555
Cu8 O8 2.140072 1_555
Cu9 O34 1.952655 1_455
Cu9 O34 1.952655 1_555
Cu9 O24 1.990265 1_555
Cu9 O24 1.990265 1_545
Cu9 O9 2.140717 1_555
Cu10 O9 1.869615 1_555
Cu10 O0 1.871727 1_556
Cu10 O10 1.973534 1_555
Cu10 O10 1.973534 1_545
Cu11 O1 1.868266 1_555
Cu11 O5 1.868442 1_555
Cu11 O11 1.972173 1_555
Cu11 O11 1.972173 1_545
Cu12 O2 1.867620 1_555
Cu12 O6 1.868442 1_555
Cu12 O12 1.972171 1_555
Cu12 O12 1.972171 1_545
Cu13 O7 1.868266 1_555
Cu13 O3 1.870788 1_555
Cu13 O13 1.972172 1_545
Cu13 O13 1.972172 1_555
Cu14 O8 1.870436 1_555
Cu14 O4 1.875892 1_555
Cu14 O14 1.973534 1_555
Cu14 O14 1.973534 1_545
O8 Sr0 2.764163 1_545
O8 Sr0 2.764163 1_555
O8 Sr0 2.764163 1_445
O8 Sr0 2.764163 1_455
O9 Sr1 2.764100 1_455
O9 Sr1 2.764100 1_555
O9 Sr1 2.764100 1_445
O9 Sr1 2.764100 1_545
O10 Sr1 2.781208 1_455
O10 Sr1 2.781208 1_555
O14 Sr0 2.782394 1_555
O14 Sr0 2.782394 1_455
O15 Sm0 2.437139 1_455
O15 Sm0 2.437139 1_555
O16 Sm1 2.435988 1_455
O16 Sm1 2.435988 1_555
O17 Sm2 2.436348 1_455
O17 Sm2 2.436348 1_555
O18 Sm3 2.436492 1_555
O18 Sm3 2.436492 1_455
O19 Sm4 2.441426 1_555
O19 Sm4 2.441426 1_455
O20 Sm0 2.435018 1_455
O20 Sm0 2.435018 1_555
O21 Sm1 2.435413 1_555
O21 Sm1 2.435413 1_455
O22 Sm2 2.435054 1_455
O22 Sm2 2.435054 1_555
O23 Sm3 2.458407 1_555
O23 Sm3 2.458407 1_455
O23 Sr0 2.919723 1_555
O23 Sr0 2.919723 1_455
O24 Sm4 2.456547 1_555
O24 Sm4 2.456547 1_455
O24 Sr1 2.921576 1_455
O24 Sr1 2.921576 1_555
O25 Sm0 2.456964 1_555
O25 Sm0 2.456964 1_545
O26 Sm1 2.456649 1_555
O26 Sm1 2.456649 1_545
O27 Sm2 2.456964 1_545
O27 Sm2 2.456964 1_555
O28 Sm3 2.463734 1_545
O28 Sm3 2.463734 1_555
O29 Sm4 2.466056 1_545
O29 Sm4 2.466056 1_555
O30 Sm0 2.456369 1_555
O30 Sm0 2.456369 1_545
O31 Sm1 2.455880 1_545
O31 Sm1 2.455880 1_555
O32 Sm2 2.456090 1_555
O32 Sm2 2.456090 1_545
O33 Sm3 2.459486 1_555
O33 Sm3 2.459486 1_545
O33 Sr0 2.995304 1_545
O33 Sr0 2.995304 1_555
O34 Sm4 2.458084 1_555
O34 Sm4 2.458084 1_545
O34 Sr1 2.996673 1_545
O34 Sr1 2.996673 1_555
