# generated using pymatgen
data_H16PdC4S4(N4Cl)2
_symmetry_space_group_name_H-M   'P 1'
_cell_length_a   8.43135041
_cell_length_b   13.23605126
_cell_length_c   15.44128228
_cell_angle_alpha   90.00000000
_cell_angle_beta   90.00000000
_cell_angle_gamma   90.00000000
_symmetry_Int_Tables_number   1
_chemical_formula_structural   H16PdC4S4(N4Cl)2
_chemical_formula_sum   'H64 Pd4 C16 S16 N32 Cl8'
_cell_volume   1723.21291881
_cell_formula_units_Z   4
loop_
 _symmetry_equiv_pos_site_id
 _symmetry_equiv_pos_as_xyz
  1  'x, y, z'
loop_
 _atom_site_type_symbol
 _atom_site_label
 _atom_site_symmetry_multiplicity
 _atom_site_fract_x
 _atom_site_fract_y
 _atom_site_fract_z
 _atom_site_occupancy
  H  H0  1  0.48634087  0.29931466  0.71822285  1
  H  H1  1  0.51365913  0.70068534  0.21822285  1
  H  H2  1  0.98634087  0.20068534  0.21822285  1
  H  H3  1  0.01365913  0.79931466  0.71822285  1
  H  H4  1  0.40728168  0.35363107  0.81102669  1
  H  H5  1  0.59271832  0.64636893  0.31102669  1
  H  H6  1  0.90728168  0.14636893  0.31102669  1
  H  H7  1  0.09271832  0.85363107  0.81102669  1
  H  H8  1  0.88642996  0.36929775  0.77195248  1
  H  H9  1  0.11357004  0.63070225  0.27195248  1
  H  H10  1  0.38642996  0.13070225  0.27195248  1
  H  H11  1  0.61357004  0.86929775  0.77195248  1
  H  H12  1  0.76440754  0.33123049  0.68530519  1
  H  H13  1  0.23559246  0.66876951  0.18530519  1
  H  H14  1  0.26440754  0.16876951  0.18530519  1
  H  H15  1  0.73559246  0.83123049  0.68530519  1
  H  H16  1  0.32023134  0.65061069  0.85594551  1
  H  H17  1  0.67976866  0.34938931  0.35594551  1
  H  H18  1  0.82023134  0.84938931  0.35594551  1
  H  H19  1  0.17976866  0.15061069  0.85594551  1
  H  H20  1  0.30518061  0.52955887  0.89719786  1
  H  H21  1  0.69481939  0.47044113  0.39719786  1
  H  H22  1  0.80518061  0.97044113  0.39719786  1
  H  H23  1  0.19481939  0.02955887  0.89719786  1
  H  H24  1  0.58514367  0.73993509  0.01550899  1
  H  H25  1  0.41485633  0.26006491  0.51550899  1
  H  H26  1  0.08514367  0.76006491  0.51550899  1
  H  H27  1  0.91485633  0.23993509  0.01550899  1
  H  H28  1  0.47182981  0.77362558  0.92490103  1
  H  H29  1  0.52817019  0.22637442  0.42490103  1
  H  H30  1  0.97182981  0.72637442  0.42490103  1
  H  H31  1  0.02817019  0.27362558  0.92490103  1
  H  H32  1  0.64793918  0.22523009  0.11941547  1
  H  H33  1  0.35206082  0.77476991  0.61941547  1
  H  H34  1  0.14793918  0.27476991  0.61941547  1
  H  H35  1  0.85206082  0.72523009  0.11941547  1
  H  H36  1  0.62442348  0.10550004  0.16311591  1
  H  H37  1  0.37557652  0.89449996  0.66311591  1
  H  H38  1  0.12442348  0.39449996  0.66311591  1
  H  H39  1  0.87557652  0.60550004  0.16311591  1
  H  H40  1  0.56035169  0.97119591  0.06763219  1
  H  H41  1  0.43964831  0.02880409  0.56763219  1
  H  H42  1  0.06035169  0.52880409  0.56763219  1
  H  H43  1  0.93964831  0.47119591  0.06763219  1
  H  H44  1  0.46408795  0.99881077  0.97031880  1
  H  H45  1  0.53591205  0.00118923  0.47031880  1
  H  H46  1  0.96408795  0.50118923  0.47031880  1
  H  H47  1  0.03591205  0.49881077  0.97031880  1
  H  H48  1  0.54594964  0.38775060  0.18885275  1
  H  H49  1  0.45405036  0.61224940  0.68885275  1
  H  H50  1  0.04594964  0.11224940  0.68885275  1
  H  H51  1  0.95405036  0.88775060  0.18885275  1
  H  H52  1  0.45733047  0.43066468  0.28419705  1
  H  H53  1  0.54266953  0.56933532  0.78419705  1
  H  H54  1  0.95733047  0.06933532  0.78419705  1
  H  H55  1  0.04266953  0.93066468  0.28419705  1
  H  H56  1  0.18105295  0.41080602  0.30359476  1
  H  H57  1  0.81894705  0.58919398  0.80359476  1
  H  H58  1  0.68105295  0.08919398  0.80359476  1
  H  H59  1  0.31894705  0.91080602  0.30359476  1
  H  H60  1  0.06177814  0.38191929  0.21360913  1
  H  H61  1  0.93822186  0.61808071  0.71360913  1
  H  H62  1  0.56177814  0.11808071  0.71360913  1
  H  H63  1  0.43822186  0.88191929  0.21360913  1
  Pd  Pd0  1  0.49011984  0.37370246  0.99866035  1
  Pd  Pd1  1  0.50988016  0.62629754  0.49866035  1
  Pd  Pd2  1  0.99011984  0.12629754  0.49866035  1
  Pd  Pd3  1  0.00988016  0.87370246  0.99866035  1
  C  C0  1  0.65010703  0.36602514  0.80001316  1
  C  C1  1  0.34989297  0.63397486  0.30001316  1
  C  C2  1  0.15010703  0.13397486  0.30001316  1
  C  C3  1  0.84989297  0.86602514  0.80001316  1
  C  C4  1  0.45697760  0.62415044  0.96307920  1
  C  C5  1  0.54302240  0.37584956  0.46307920  1
  C  C6  1  0.95697760  0.87584956  0.46307920  1
  C  C7  1  0.04302240  0.12415044  0.96307920  1
  C  C8  1  0.54068678  0.12274444  0.03848752  1
  C  C9  1  0.45931322  0.87725556  0.53848752  1
  C  C10  1  0.04068678  0.37725556  0.53848752  1
  C  C11  1  0.95931322  0.62274444  0.03848752  1
  C  C12  1  0.30212380  0.38045404  0.19079539  1
  C  C13  1  0.69787620  0.61954596  0.69079539  1
  C  C14  1  0.80212380  0.11954596  0.69079539  1
  C  C15  1  0.19787620  0.88045404  0.19079539  1
  S  S0  1  0.68566743  0.42220823  0.89926471  1
  S  S1  1  0.31433257  0.57779177  0.39926471  1
  S  S2  1  0.18566743  0.07779177  0.39926471  1
  S  S3  1  0.81433257  0.92220823  0.89926471  1
  S  S4  1  0.50049835  0.54344489  0.04730996  1
  S  S5  1  0.49950165  0.45655511  0.54730996  1
  S  S6  1  0.00049835  0.95655511  0.54730996  1
  S  S7  1  0.99950165  0.04344489  0.04730996  1
  S  S8  1  0.50288801  0.20329130  0.95266965  1
  S  S9  1  0.49711199  0.79670870  0.45266965  1
  S  S10  1  0.00288801  0.29670870  0.45266965  1
  S  S11  1  0.99711199  0.70329130  0.95266965  1
  S  S12  1  0.27734325  0.33101036  0.08842890  1
  S  S13  1  0.72265675  0.66898964  0.58842890  1
  S  S14  1  0.77734325  0.16898964  0.58842890  1
  S  S15  1  0.22265675  0.83101036  0.08842890  1
  N  N0  1  0.50577508  0.33779020  0.77457121  1
  N  N1  1  0.49422492  0.66220980  0.27457121  1
  N  N2  1  0.00577508  0.16220980  0.27457121  1
  N  N3  1  0.99422492  0.83779020  0.77457121  1
  N  N4  1  0.77521895  0.35585141  0.74770701  1
  N  N5  1  0.22478105  0.64414859  0.24770701  1
  N  N6  1  0.27521895  0.14414859  0.24770701  1
  N  N7  1  0.72478105  0.85585141  0.74770701  1
  N  N8  1  0.36622949  0.59627442  0.89536048  1
  N  N9  1  0.63377051  0.40372558  0.39536048  1
  N  N10  1  0.86622949  0.90372558  0.39536048  1
  N  N11  1  0.13377051  0.09627442  0.89536048  1
  N  N12  1  0.51484368  0.71773388  0.96524888  1
  N  N13  1  0.48515632  0.28226612  0.46524888  1
  N  N14  1  0.01484368  0.78226612  0.46524888  1
  N  N15  1  0.98515632  0.21773388  0.96524888  1
  N  N16  1  0.59801450  0.15486895  0.11444373  1
  N  N17  1  0.40198550  0.84513105  0.61444373  1
  N  N18  1  0.09801450  0.34513105  0.61444373  1
  N  N19  1  0.90198550  0.65486895  0.11444373  1
  N  N20  1  0.51223515  0.02458120  0.02690986  1
  N  N21  1  0.48776485  0.97541880  0.52690986  1
  N  N22  1  0.01223515  0.47541880  0.52690986  1
  N  N23  1  0.98776485  0.52458120  0.02690986  1
  N  N24  1  0.44471881  0.40267009  0.22299636  1
  N  N25  1  0.55528119  0.59732991  0.72299636  1
  N  N26  1  0.94471881  0.09732991  0.72299636  1
  N  N27  1  0.05528119  0.90267009  0.22299636  1
  N  N28  1  0.17279788  0.39269032  0.23965214  1
  N  N29  1  0.82720212  0.60730968  0.73965214  1
  N  N30  1  0.67279788  0.10730968  0.73965214  1
  N  N31  1  0.32720212  0.89269032  0.23965214  1
  Cl  Cl0  1  0.82559413  0.34881768  0.15283739  1
  Cl  Cl1  1  0.17440587  0.65118232  0.65283739  1
  Cl  Cl2  1  0.32559413  0.15118232  0.65283739  1
  Cl  Cl3  1  0.67440587  0.84881768  0.15283739  1
  Cl  Cl4  1  0.13623268  0.39364330  0.84236742  1
  Cl  Cl5  1  0.86376732  0.60635670  0.34236742  1
  Cl  Cl6  1  0.63623268  0.10635670  0.34236742  1
  Cl  Cl7  1  0.36376732  0.89364330  0.84236742  1
loop_
_geom_bond_atom_site_label_1
_geom_bond_atom_site_label_2
_geom_bond_distance
_geom_bond_site_symmetry_2
H0 N0 1.021400 1_555
H1 N1 1.021400 1_555
H2 N2 1.021400 1_655
H3 N3 1.021400 1_455
H4 N0 1.024918 1_555
H5 N1 1.024918 1_555
H6 N2 1.024918 1_655
H7 N3 1.024918 1_455
H8 N4 1.025203 1_555
H9 N5 1.025203 1_555
H10 N6 1.025203 1_555
H11 N7 1.025203 1_555
H12 N4 1.021257 1_555
H13 N5 1.021257 1_555
H14 N6 1.021257 1_555
H15 N7 1.021257 1_555
H16 N8 1.018857 1_555
H17 N9 1.018857 1_555
H18 N10 1.018857 1_555
H19 N11 1.018857 1_555
H20 N8 1.022509 1_555
H21 N9 1.022509 1_555
H22 N10 1.022509 1_555
H23 N11 1.022509 1_555
H24 N12 1.019791 1_554
H25 N13 1.019791 1_555
H26 N14 1.019791 1_555
H27 N15 1.019791 1_554
H28 N12 1.032940 1_555
H29 N13 1.032940 1_555
H30 N14 1.032940 1_655
H31 N15 1.032940 1_455
H32 N16 1.024892 1_555
H33 N17 1.024892 1_555
H34 N18 1.024892 1_555
H35 N19 1.024892 1_555
H36 N16 1.020499 1_555
H37 N17 1.020499 1_555
H38 N18 1.020499 1_555
H39 N19 1.020499 1_555
H40 N20 1.029211 1_565
H41 N21 1.029211 1_545
H42 N22 1.029211 1_555
H43 N23 1.029211 1_555
H44 N20 1.022122 1_566
H45 N21 1.022122 1_545
H46 N22 1.022122 1_655
H47 N23 1.022122 1_456
H48 N24 1.022469 1_555
H49 N25 1.022469 1_555
H50 N26 1.022469 1_455
H51 N27 1.022469 1_655
H52 N24 1.020619 1_555
H53 N25 1.020619 1_555
H54 N26 1.020619 1_555
H55 N27 1.020619 1_555
H56 N28 1.018436 1_555
H57 N29 1.018436 1_555
H58 N30 1.018436 1_555
H59 N31 1.018436 1_555
H60 N28 1.028699 1_555
H61 N29 1.028699 1_555
H62 N30 1.028699 1_555
H63 N31 1.028699 1_555
Pd0 S12 2.336474 1_556
Pd0 S0 2.342244 1_555
Pd0 S8 2.367173 1_555
Pd0 S4 2.370596 1_556
Pd1 S13 2.336474 1_555
Pd1 S1 2.342244 1_555
Pd1 S9 2.367173 1_555
Pd1 S5 2.370596 1_555
Pd2 S14 2.336474 1_555
Pd2 S2 2.342244 1_655
Pd2 S10 2.367173 1_655
Pd2 S6 2.370596 1_645
Pd3 S15 2.336474 1_556
Pd3 S3 2.342244 1_455
Pd3 S11 2.367173 1_455
Pd3 S7 2.370596 1_466
C0 N0 1.332246 1_555
C0 N4 1.335367 1_555
C0 S0 1.729645 1_555
C1 N1 1.332246 1_555
C1 N5 1.335367 1_555
C1 S1 1.729645 1_555
C2 N2 1.332246 1_555
C2 N6 1.335367 1_555
C2 S2 1.729645 1_555
C3 N3 1.332246 1_555
C3 N7 1.335367 1_555
C3 S3 1.729645 1_555
C4 N12 1.331719 1_555
C4 N8 1.347209 1_555
C4 S4 1.722610 1_556
C5 N13 1.331719 1_555
C5 N9 1.347209 1_555
C5 S5 1.722610 1_555
C6 N14 1.331719 1_655
C6 N10 1.347209 1_555
C6 S6 1.722610 1_655
C7 N15 1.331719 1_455
C7 N11 1.347209 1_555
C7 S7 1.722610 1_456
C8 N20 1.333293 1_555
C8 N16 1.337919 1_555
C8 S8 1.730368 1_554
C9 N21 1.333293 1_555
C9 N17 1.337919 1_555
C9 S9 1.730368 1_555
C10 N22 1.333293 1_555
C10 N18 1.337919 1_555
C10 S10 1.730368 1_555
C11 N23 1.333293 1_555
C11 N19 1.337919 1_555
C11 S11 1.730368 1_554
C12 N24 1.333847 1_555
C12 N28 1.335785 1_555
C12 S12 1.723503 1_555
C13 N25 1.333847 1_555
C13 N29 1.335785 1_555
C13 S13 1.723503 1_555
C14 N26 1.333847 1_555
C14 N30 1.335785 1_555
C14 S14 1.723503 1_555
C15 N27 1.333847 1_555
C15 N31 1.335785 1_555
C15 S15 1.723503 1_555
