# generated using pymatgen
data_Sm(Co5Mo)2
_symmetry_space_group_name_H-M   'P 1'
_cell_length_a   4.67732800
_cell_length_b   6.44760623
_cell_length_c   6.44760623
_cell_angle_alpha   97.37610102
_cell_angle_beta   111.26722292
_cell_angle_gamma   68.73277708
_symmetry_Int_Tables_number   1
_chemical_formula_structural   Sm(Co5Mo)2
_chemical_formula_sum   'Sm1 Co10 Mo2'
_cell_volume   168.86105636
_cell_formula_units_Z   1
loop_
 _symmetry_equiv_pos_site_id
 _symmetry_equiv_pos_as_xyz
  1  'x, y, z'
loop_
 _atom_site_type_symbol
 _atom_site_label
 _atom_site_symmetry_multiplicity
 _atom_site_fract_x
 _atom_site_fract_y
 _atom_site_fract_z
 _atom_site_occupancy
  Sm  Sm0  1  0.00000000  0.00000000  0.00000000  1
  Co  Co0  1  0.71146600  0.78853400  0.21146600  1
  Co  Co1  1  0.28853400  0.21146600  0.78853400  1
  Co  Co2  1  0.50000000  0.77422000  0.77422000  1
  Co  Co3  1  0.50000000  0.22578000  0.22578000  1
  Co  Co4  1  0.50000000  0.00000000  0.50000000  1
  Co  Co5  1  0.00000000  0.00000000  0.50000000  1
  Co  Co6  1  0.50000000  0.50000000  0.00000000  1
  Co  Co7  1  0.00000000  0.50000000  0.00000000  1
  Co  Co8  1  0.64004100  0.35995900  0.64004100  1
  Co  Co9  1  0.35995900  0.64004100  0.35995900  1
  Mo  Mo0  1  0.00000000  0.35947900  0.35947900  1
  Mo  Mo1  1  0.00000000  0.64052100  0.64052100  1
loop_
_geom_bond_atom_site_label_1
_geom_bond_atom_site_label_2
_geom_bond_distance
_geom_bond_site_symmetry_2
Co0 Co6 2.450200 1_555
Co0 Co4 2.450200 1_565
Co0 Co7 2.450200 1_655
Co0 Co5 2.450200 1_665
Co0 Co2 2.628922 1_554
Co0 Co3 2.628922 1_565
Co0 Co9 2.656245 1_555
Co0 Co9 2.656245 1_655
Co0 Mo1 2.723990 1_655
Co0 Mo0 2.723990 1_655
Co0 Sm0 2.947262 1_565
Co0 Sm0 2.947262 1_665
Co1 Co5 2.450200 1_555
Co1 Co4 2.450200 1_555
Co1 Co7 2.450200 1_556
Co1 Co6 2.450200 1_556
Co1 Co2 2.628922 1_545
Co1 Co3 2.628922 1_556
Co1 Co8 2.656245 1_455
Co1 Co8 2.656245 1_555
Co1 Mo1 2.723990 1_555
Co1 Mo0 2.723990 1_555
Co1 Sm0 2.947262 1_656
Co1 Sm0 2.947262 1_556
Co2 Co7 2.430246 1_656
Co2 Co5 2.430246 1_565
Co2 Co4 2.430246 1_565
Co2 Co6 2.430246 1_556
Co2 Mo1 2.600916 1_555
Co2 Mo1 2.600916 1_655
Co2 Co8 2.619214 1_555
Co2 Co9 2.619214 1_555
Co2 Sm0 3.027141 1_566
Co2 Sm0 3.027141 1_666
Co3 Co7 2.430246 1_555
Co3 Co5 2.430246 1_655
Co3 Co6 2.430246 1_555
Co3 Co4 2.430246 1_555
Co3 Mo0 2.600916 1_555
Co3 Mo0 2.600916 1_655
Co3 Co8 2.619214 1_555
Co3 Co9 2.619214 1_555
Co3 Sm0 3.027141 1_655
Co3 Sm0 3.027141 1_555
Co4 Co5 2.338664 1_655
Co4 Co5 2.338664 1_555
Co4 Mo0 2.594643 1_555
Co4 Mo1 2.594643 1_645
Co4 Co8 2.601247 1_555
Co4 Co9 2.601247 1_545
Co4 Sm0 3.223803 1_555
Co4 Sm0 3.223803 1_656
Co5 Mo1 2.594643 1_545
Co5 Mo0 2.594643 1_555
Co5 Co8 2.601247 1_455
Co5 Co9 2.601247 1_545
Co5 Sm0 3.223803 1_556
Co5 Sm0 3.223803 1_555
Co6 Co7 2.338664 1_555
Co6 Co7 2.338664 1_655
Co6 Mo1 2.594643 1_554
Co6 Mo0 2.594643 1_655
Co6 Co9 2.601247 1_555
Co6 Co8 2.601247 1_554
Co6 Sm0 3.223803 1_655
Co6 Sm0 3.223803 1_565
Co7 Mo1 2.594643 1_554
Co7 Mo0 2.594643 1_555
Co7 Co9 2.601247 1_555
Co7 Co8 2.601247 1_454
Co7 Sm0 3.223803 1_565
Co7 Sm0 3.223803 1_555
Co8 Co9 2.375583 1_555
Co8 Mo1 2.882913 1_555
Co8 Mo1 2.882913 1_655
Co8 Mo0 2.882913 1_555
Co8 Mo0 2.882913 1_655
Co8 Sm0 3.053079 1_656
Co9 Mo0 2.882913 1_555
Co9 Mo0 2.882913 1_655
Co9 Mo1 2.882913 1_555
Co9 Mo1 2.882913 1_655
Co9 Sm0 3.053079 1_565
Mo0 Mo1 2.392477 1_555
Mo0 Sm0 3.060202 1_555
Mo1 Sm0 3.060202 1_566
