# generated using pymatgen
data_TiMo2
_symmetry_space_group_name_H-M   'P 1'
_cell_length_a   13.96239576
_cell_length_b   13.56630593
_cell_length_c   5.54789495
_cell_angle_alpha   82.41271288
_cell_angle_beta   74.39197705
_cell_angle_gamma   23.19531007
_symmetry_Int_Tables_number   1
_chemical_formula_structural   TiMo2
_chemical_formula_sum   'Ti8 Mo16'
_cell_volume   379.79070603
_cell_formula_units_Z   8
loop_
 _symmetry_equiv_pos_site_id
 _symmetry_equiv_pos_as_xyz
  1  'x, y, z'
loop_
 _atom_site_type_symbol
 _atom_site_label
 _atom_site_symmetry_multiplicity
 _atom_site_fract_x
 _atom_site_fract_y
 _atom_site_fract_z
 _atom_site_occupancy
  Ti  Ti0_0  1  0.00000000  0.00000000  0.00000000  1
  Ti  Ti0_1  1  0.00000000  0.00000000  0.50000000  1
  Ti  Ti0_2  1  0.00000000  0.50000000  0.00000000  1
  Ti  Ti0_3  1  0.00000000  0.50000000  0.50000000  1
  Ti  Ti0_4  1  0.50000000  0.00000000  0.00000000  1
  Ti  Ti0_5  1  0.50000000  0.00000000  0.50000000  1
  Ti  Ti0_6  1  0.50000000  0.50000000  0.00000000  1
  Ti  Ti0_7  1  0.50000000  0.50000000  0.50000000  1
  Mo  Mo0_0  1  0.16570740  0.16570740  0.33429260  1
  Mo  Mo0_1  1  0.16570740  0.16570740  0.83429260  1
  Mo  Mo0_2  1  0.16570740  0.66570740  0.33429260  1
  Mo  Mo0_3  1  0.16570740  0.66570740  0.83429260  1
  Mo  Mo0_4  1  0.66570740  0.16570740  0.33429260  1
  Mo  Mo0_5  1  0.66570740  0.16570740  0.83429260  1
  Mo  Mo0_6  1  0.66570740  0.66570740  0.33429260  1
  Mo  Mo0_7  1  0.66570740  0.66570740  0.83429260  1
  Mo  Mo1_0  1  0.33429260  0.33429260  0.16570740  1
  Mo  Mo1_1  1  0.33429260  0.33429260  0.66570740  1
  Mo  Mo1_2  1  0.33429260  0.83429260  0.16570740  1
  Mo  Mo1_3  1  0.33429260  0.83429260  0.66570740  1
  Mo  Mo1_4  1  0.83429260  0.33429260  0.16570740  1
  Mo  Mo1_5  1  0.83429260  0.33429260  0.66570740  1
  Mo  Mo1_6  1  0.83429260  0.83429260  0.16570740  1
  Mo  Mo1_7  1  0.83429260  0.83429260  0.66570740  1
loop_
_geom_bond_atom_site_label_1
_geom_bond_atom_site_label_2
_geom_bond_distance
_geom_bond_site_symmetry_2
Ti0_0 Ti0_6 2.773947 1_545
Ti0_0 Ti0_1 2.773947 1_555
Ti0_0 Ti0_6 2.773947 1_455
Ti0_0 Ti0_1 2.773947 1_554
Ti0_1 Ti0_7 2.773947 1_545
Ti0_1 Ti0_7 2.773947 1_455
Ti0_2 Ti0_3 2.773947 1_555
Ti0_2 Ti0_4 2.773947 1_555
Ti0_2 Ti0_3 2.773947 1_554
Ti0_2 Ti0_4 2.773947 1_465
Ti0_3 Ti0_5 2.773947 1_555
Ti0_3 Ti0_5 2.773947 1_465
Ti0_4 Ti0_5 2.773947 1_554
Ti0_4 Ti0_5 2.773947 1_555
Ti0_6 Ti0_7 2.773947 1_555
Ti0_6 Ti0_7 2.773947 1_554
Mo0_0 Mo1_2 2.664694 1_545
Mo0_0 Mo1_5 2.664694 1_455
Mo0_0 Ti0_3 2.726298 1_555
Mo0_0 Ti0_4 2.726298 1_555
Mo0_0 Mo0_6 2.773947 1_545
Mo0_0 Mo0_1 2.773947 1_555
Mo0_0 Mo0_6 2.773947 1_455
Mo0_0 Mo0_1 2.773947 1_554
Mo0_1 Mo1_4 2.664694 1_456
Mo0_1 Mo1_3 2.664694 1_545
Mo0_1 Ti0_5 2.726298 1_555
Mo0_1 Ti0_2 2.726298 1_556
Mo0_1 Mo0_7 2.773947 1_455
Mo0_1 Mo0_7 2.773947 1_545
Mo0_2 Mo1_0 2.664694 1_555
Mo0_2 Mo1_7 2.664694 1_455
Mo0_2 Ti0_6 2.726298 1_555
Mo0_2 Ti0_1 2.726298 1_565
Mo0_2 Mo0_3 2.773947 1_554
Mo0_2 Mo0_3 2.773947 1_555
Mo0_2 Mo0_4 2.773947 1_555
Mo0_2 Mo0_4 2.773947 1_465
Mo0_3 Mo1_1 2.664694 1_555
Mo0_3 Mo1_6 2.664694 1_456
Mo0_3 Ti0_7 2.726298 1_555
Mo0_3 Ti0_0 2.726298 1_566
Mo0_3 Mo0_5 2.773947 1_555
Mo0_3 Mo0_5 2.773947 1_465
Mo0_4 Mo1_1 2.664694 1_555
Mo0_4 Mo1_6 2.664694 1_545
Mo0_4 Ti0_0 2.726298 1_655
Mo0_4 Ti0_7 2.726298 1_555
Mo0_4 Mo0_5 2.773947 1_554
Mo0_4 Mo0_5 2.773947 1_555
Mo0_5 Mo1_7 2.664694 1_545
Mo0_5 Mo1_0 2.664694 1_556
Mo0_5 Ti0_6 2.726298 1_556
Mo0_5 Ti0_1 2.726298 1_655
Mo0_6 Mo1_3 2.664694 1_555
Mo0_6 Mo1_4 2.664694 1_555
Mo0_6 Ti0_2 2.726298 1_655
Mo0_6 Ti0_5 2.726298 1_565
Mo0_6 Mo0_7 2.773947 1_555
Mo0_6 Mo0_7 2.773947 1_554
Mo0_7 Mo1_2 2.664694 1_556
Mo0_7 Mo1_5 2.664694 1_555
Mo0_7 Ti0_3 2.726298 1_655
Mo0_7 Ti0_4 2.726298 1_566
Mo1_0 Ti0_4 2.726298 1_555
Mo1_0 Ti0_3 2.726298 1_555
Mo1_0 Mo1_1 2.773947 1_555
Mo1_0 Mo1_6 2.773947 1_545
Mo1_0 Mo1_1 2.773947 1_554
Mo1_0 Mo1_6 2.773947 1_455
Mo1_1 Ti0_5 2.726298 1_555
Mo1_1 Ti0_2 2.726298 1_556
Mo1_1 Mo1_7 2.773947 1_545
Mo1_1 Mo1_7 2.773947 1_455
Mo1_2 Ti0_1 2.726298 1_565
Mo1_2 Ti0_6 2.726298 1_555
Mo1_2 Mo1_4 2.773947 1_465
Mo1_2 Mo1_3 2.773947 1_555
Mo1_2 Mo1_4 2.773947 1_555
Mo1_2 Mo1_3 2.773947 1_554
Mo1_3 Ti0_0 2.726298 1_566
Mo1_3 Ti0_7 2.726298 1_555
Mo1_3 Mo1_5 2.773947 1_555
Mo1_3 Mo1_5 2.773947 1_465
Mo1_4 Ti0_0 2.726298 1_655
Mo1_4 Ti0_7 2.726298 1_555
Mo1_4 Mo1_5 2.773947 1_555
Mo1_4 Mo1_5 2.773947 1_554
Mo1_5 Ti0_1 2.726298 1_655
Mo1_5 Ti0_6 2.726298 1_556
Mo1_6 Ti0_2 2.726298 1_655
Mo1_6 Ti0_5 2.726298 1_565
Mo1_6 Mo1_7 2.773947 1_554
Mo1_6 Mo1_7 2.773947 1_555
Mo1_7 Ti0_3 2.726298 1_655
Mo1_7 Ti0_4 2.726298 1_566
