# generated using pymatgen
data_Ba2MgHg
_symmetry_space_group_name_H-M   'P 1'
_cell_length_a   13.52666944
_cell_length_b   13.52666944
_cell_length_c   13.52666944
_cell_angle_alpha   120.80459539
_cell_angle_beta   118.39350861
_cell_angle_gamma   90.70840582
_symmetry_Int_Tables_number   1
_chemical_formula_structural   Ba2MgHg
_chemical_formula_sum   'Ba2 Mg1 Hg1'
_cell_volume   1759.57957644
_cell_formula_units_Z   1
loop_
 _symmetry_equiv_pos_site_id
 _symmetry_equiv_pos_as_xyz
  1  'x, y, z'
loop_
 _atom_site_type_symbol
 _atom_site_label
 _atom_site_symmetry_multiplicity
 _atom_site_fract_x
 _atom_site_fract_y
 _atom_site_fract_z
 _atom_site_occupancy
  Ba  Ba0  1  0.27414804  0.00000000  0.27414804  1
  Ba  Ba1  1  0.72585196  -0.00000000  0.72585196  1
  Mg  Mg0  1  0.00000000  -0.00000000  0.00000000  1
  Hg  Hg0  1  0.50000000  0.00000000  0.50000000  1
loop_
_geom_bond_atom_site_label_1
_geom_bond_atom_site_label_2
_geom_bond_distance
_geom_bond_site_symmetry_2
Ba0 Hg0 3.128905 1_555
Ba0 Mg0 3.797988 1_555
Ba1 Hg0 3.128905 1_555
Ba1 Mg0 3.797988 1_656
