# generated using pymatgen
data_EuGdTi2O7
_symmetry_space_group_name_H-M   'P 1'
_cell_length_a   7.28035254
_cell_length_b   7.24055282
_cell_length_c   7.30541856
_cell_angle_alpha   90.00000000
_cell_angle_beta   59.88603561
_cell_angle_gamma   119.81932622
_symmetry_Int_Tables_number   1
_chemical_formula_structural   EuGdTi2O7
_chemical_formula_sum   'Eu2 Gd2 Ti4 O14'
_cell_volume   272.57667328
_cell_formula_units_Z   2
loop_
 _symmetry_equiv_pos_site_id
 _symmetry_equiv_pos_as_xyz
  1  'x, y, z'
loop_
 _atom_site_type_symbol
 _atom_site_label
 _atom_site_symmetry_multiplicity
 _atom_site_fract_x
 _atom_site_fract_y
 _atom_site_fract_z
 _atom_site_occupancy
  Eu  Eu0  1  0.50000000  0.50000000  0.00000000  1
  Eu  Eu1  1  0.50000000  0.00000000  0.00000000  1
  Gd  Gd0  1  0.00000000  0.00000000  0.50000000  1
  Gd  Gd1  1  0.00000000  0.00000000  0.00000000  1
  Ti  Ti0  1  0.50000000  0.00000000  0.50000000  1
  Ti  Ti1  1  0.50000000  0.50000000  0.50000000  1
  Ti  Ti2  1  0.00000000  0.50000000  0.00000000  1
  Ti  Ti3  1  0.00000000  0.50000000  0.50000000  1
  O  O0  1  0.24603200  0.12301600  0.12698400  1
  O  O1  1  0.75396800  0.87698400  0.87301600  1
  O  O2  1  0.65327400  0.82663700  0.42336300  1
  O  O3  1  0.84911000  0.42455500  0.82544500  1
  O  O4  1  0.24853400  0.82630400  0.82590000  1
  O  O5  1  0.24853400  0.42223000  0.42556600  1
  O  O6  1  0.24853400  0.42223000  0.82590000  1
  O  O7  1  0.24853400  0.82630400  0.42556600  1
  O  O8  1  0.34672600  0.17336300  0.57663700  1
  O  O9  1  0.15089000  0.57544500  0.17455500  1
  O  O10  1  0.75146600  0.17369600  0.17410000  1
  O  O11  1  0.75146600  0.57777000  0.57443400  1
  O  O12  1  0.75146600  0.57777000  0.17410000  1
  O  O13  1  0.75146600  0.17369600  0.57443400  1
loop_
_geom_bond_atom_site_label_1
_geom_bond_atom_site_label_2
_geom_bond_distance
_geom_bond_site_symmetry_2
Eu0 O0 2.233692 1_555
Eu0 O1 2.233692 1_554
Eu0 O9 2.552067 1_555
Eu0 O3 2.552067 1_554
Eu0 O11 2.568594 1_554
Eu0 O5 2.568594 1_555
Eu0 O12 2.568595 1_555
Eu0 O6 2.568595 1_554
Eu1 O1 2.233692 1_544
Eu1 O0 2.233692 1_555
Eu1 O9 2.552067 1_545
Eu1 O3 2.552067 1_554
Eu1 O13 2.568594 1_554
Eu1 O7 2.568594 1_545
Eu1 O10 2.568595 1_555
Eu1 O4 2.568595 1_544
Gd0 O1 2.223282 1_445
Gd0 O0 2.223282 1_555
Gd0 O5 2.535202 1_555
Gd0 O7 2.535202 1_545
Gd0 O11 2.535202 1_445
Gd0 O13 2.535202 1_455
Gd0 O8 2.554989 1_555
Gd0 O2 2.554989 1_445
Gd1 O0 2.223282 1_555
Gd1 O1 2.223282 1_444
Gd1 O4 2.535202 1_544
Gd1 O10 2.535202 1_455
Gd1 O6 2.535202 1_554
Gd1 O12 2.535202 1_445
Gd1 O2 2.554988 1_445
Gd1 O8 2.554988 1_554
O2 Ti1 1.974956 1_555
O2 Ti0 1.974956 1_565
O3 Ti3 1.984985 1_655
O3 Ti2 1.984985 1_656
O4 Ti2 1.978070 1_556
O4 Ti0 1.984473 1_565
O5 Ti3 1.978070 1_555
O5 Ti1 1.984473 1_555
O6 Ti2 1.978070 1_556
O6 Ti1 1.984473 1_555
O7 Ti3 1.978070 1_555
O7 Ti0 1.984473 1_565
O8 Ti0 1.974956 1_555
O8 Ti1 1.974956 1_555
O9 Ti3 1.984985 1_555
O9 Ti2 1.984985 1_555
O10 Ti2 1.978070 1_655
O10 Ti0 1.984473 1_555
O11 Ti3 1.978070 1_655
O11 Ti1 1.984473 1_555
O12 Ti2 1.978070 1_655
O12 Ti1 1.984473 1_555
O13 Ti3 1.978070 1_655
O13 Ti0 1.984473 1_555
