# generated using pymatgen
data_Zn2FeSbO6
_symmetry_space_group_name_H-M   'P 1'
_cell_length_a   7.73904700
_cell_length_b   5.26897800
_cell_length_c   5.33459313
_cell_angle_alpha   89.41282161
_cell_angle_beta   90.00000000
_cell_angle_gamma   90.00000000
_symmetry_Int_Tables_number   1
_chemical_formula_structural   Zn2FeSbO6
_chemical_formula_sum   'Zn4 Fe2 Sb2 O12'
_cell_volume   217.51657912
_cell_formula_units_Z   2
loop_
 _symmetry_equiv_pos_site_id
 _symmetry_equiv_pos_as_xyz
  1  'x, y, z'
loop_
 _atom_site_type_symbol
 _atom_site_label
 _atom_site_symmetry_multiplicity
 _atom_site_fract_x
 _atom_site_fract_y
 _atom_site_fract_z
 _atom_site_occupancy
  Zn  Zn0  1  0.75000000  0.48148800  0.55924600  1
  Zn  Zn1  1  0.25000000  0.51851200  0.44075400  1
  Zn  Zn2  1  0.75000000  0.97785300  0.01886100  1
  Zn  Zn3  1  0.25000000  0.02214700  0.98113900  1
  Fe  Fe0  1  0.50000000  0.50000000  0.00000000  1
  Fe  Fe1  1  0.00000000  0.50000000  0.00000000  1
  Sb  Sb0  1  0.50000000  0.00000000  0.50000000  1
  Sb  Sb1  1  0.00000000  0.00000000  0.50000000  1
  O  O0  1  0.43197900  0.68084000  0.67638000  1
  O  O1  1  0.06877000  0.82964900  0.18452100  1
  O  O2  1  0.93197900  0.31916000  0.32362000  1
  O  O3  1  0.56877000  0.17035100  0.81547900  1
  O  O4  1  0.43123000  0.82964900  0.18452100  1
  O  O5  1  0.93123000  0.17035100  0.81547900  1
  O  O6  1  0.25000000  0.13394300  0.57714300  1
  O  O7  1  0.06802100  0.68084000  0.67638000  1
  O  O8  1  0.75000000  0.61270300  0.92521600  1
  O  O9  1  0.56802100  0.31916000  0.32362000  1
  O  O10  1  0.75000000  0.86605700  0.42285700  1
  O  O11  1  0.25000000  0.38729700  0.07478400  1
loop_
_geom_bond_atom_site_label_1
_geom_bond_atom_site_label_2
_geom_bond_distance
_geom_bond_site_symmetry_2
Fe0 O0 2.032658 1_554
Fe0 O9 2.032658 1_555
Fe0 O11 2.061610 1_555
Fe0 O8 2.061610 1_554
Fe0 O4 2.074632 1_555
Fe0 O3 2.074632 1_554
Fe1 O7 2.032658 1_554
Fe1 O2 2.032658 1_455
Fe1 O11 2.061610 1_555
Fe1 O8 2.061610 1_454
Fe1 O5 2.074632 1_454
Fe1 O1 2.074632 1_555
O0 Sb0 1.989458 1_565
O0 Zn1 2.077735 1_555
O1 Sb1 1.988010 1_565
O1 Zn3 2.037268 1_564
O2 Sb1 1.989458 1_655
O2 Zn0 2.077735 1_555
O3 Sb0 1.988010 1_555
O3 Zn2 2.037268 1_546
O4 Sb0 1.988010 1_565
O4 Zn3 2.037268 1_564
O5 Sb1 1.988010 1_655
O5 Zn2 2.037268 1_546
O6 Sb0 2.101590 1_555
O6 Sb1 2.101590 1_555
O6 Zn1 2.145924 1_555
O6 Zn3 2.228374 1_555
O7 Sb1 1.989458 1_565
O7 Zn1 2.077735 1_555
O8 Zn2 1.992714 1_556
O8 Zn0 2.077772 1_555
O9 Sb0 1.989458 1_555
O9 Zn0 2.077735 1_555
O10 Sb0 2.101590 1_565
O10 Sb1 2.101590 1_665
O10 Zn0 2.145924 1_555
O10 Zn2 2.228374 1_555
O11 Zn3 1.992714 1_554
O11 Zn1 2.077772 1_555
