# generated using pymatgen
data_Cs3Nb9(TeO8)4
_symmetry_space_group_name_H-M   'P 1'
_cell_length_a   19.67701849
_cell_length_b   19.67701849
_cell_length_c   7.53532100
_cell_angle_alpha   90.00000000
_cell_angle_beta   90.00000000
_cell_angle_gamma   147.89947598
_symmetry_Int_Tables_number   1
_chemical_formula_structural   Cs3Nb9(TeO8)4
_chemical_formula_sum   'Cs6 Nb18 Te8 O64'
_cell_volume   1550.41180439
_cell_formula_units_Z   2
loop_
 _symmetry_equiv_pos_site_id
 _symmetry_equiv_pos_as_xyz
  1  'x, y, z'
loop_
 _atom_site_type_symbol
 _atom_site_label
 _atom_site_symmetry_multiplicity
 _atom_site_fract_x
 _atom_site_fract_y
 _atom_site_fract_z
 _atom_site_occupancy
  Cs  Cs0  1  0.36550400  0.36550400  0.25000000  1
  Cs  Cs1  1  0.63449600  0.63449600  0.75000000  1
  Cs  Cs2  1  0.24891900  0.04446100  0.25000000  1
  Cs  Cs3  1  0.95553900  0.75108100  0.75000000  1
  Cs  Cs4  1  0.75108100  0.95553900  0.75000000  1
  Cs  Cs5  1  0.04446100  0.24891900  0.25000000  1
  Nb  Nb0  1  0.19795100  0.80204900  0.00000000  1
  Nb  Nb1  1  0.19795100  0.80204900  0.50000000  1
  Nb  Nb2  1  0.80204900  0.19795100  0.00000000  1
  Nb  Nb3  1  0.80204900  0.19795100  0.50000000  1
  Nb  Nb4  1  0.39156300  0.09235400  0.75000000  1
  Nb  Nb5  1  0.90764600  0.60843700  0.25000000  1
  Nb  Nb6  1  0.60843700  0.90764600  0.25000000  1
  Nb  Nb7  1  0.09235400  0.39156300  0.75000000  1
  Nb  Nb8  1  0.59353500  0.40646500  0.00000000  1
  Nb  Nb9  1  0.59353500  0.40646500  0.50000000  1
  Nb  Nb10  1  0.40646500  0.59353500  0.00000000  1
  Nb  Nb11  1  0.40646500  0.59353500  0.50000000  1
  Nb  Nb12  1  0.28917300  0.19359100  0.75000000  1
  Nb  Nb13  1  0.80640900  0.71082700  0.25000000  1
  Nb  Nb14  1  0.71082700  0.80640900  0.25000000  1
  Nb  Nb15  1  0.19359100  0.28917300  0.75000000  1
  Nb  Nb16  1  0.00000000  0.00000000  0.00000000  1
  Nb  Nb17  1  0.00000000  0.00000000  0.50000000  1
  Te  Te0  1  0.48324400  0.98521200  0.75000000  1
  Te  Te1  1  0.01478800  0.51675600  0.25000000  1
  Te  Te2  1  0.51675600  0.01478800  0.25000000  1
  Te  Te3  1  0.98521200  0.48324400  0.75000000  1
  Te  Te4  1  0.68288200  0.31711800  0.00000000  1
  Te  Te5  1  0.68288200  0.31711800  0.50000000  1
  Te  Te6  1  0.31711800  0.68288200  0.00000000  1
  Te  Te7  1  0.31711800  0.68288200  0.50000000  1
  O  O0  1  0.36446800  0.88766100  0.94582000  1
  O  O1  1  0.11233900  0.63553200  0.05418000  1
  O  O2  1  0.36446800  0.88766100  0.55418000  1
  O  O3  1  0.11233900  0.63553200  0.44582000  1
  O  O4  1  0.63553200  0.11233900  0.05418000  1
  O  O5  1  0.88766100  0.36446800  0.94582000  1
  O  O6  1  0.63553200  0.11233900  0.44582000  1
  O  O7  1  0.88766100  0.36446800  0.55418000  1
  O  O8  1  0.51375000  0.10766700  0.75000000  1
  O  O9  1  0.89233300  0.48625000  0.25000000  1
  O  O10  1  0.48625000  0.89233300  0.25000000  1
  O  O11  1  0.10766700  0.51375000  0.75000000  1
  O  O12  1  0.60307300  0.23307300  0.25000000  1
  O  O13  1  0.76692700  0.39692700  0.75000000  1
  O  O14  1  0.39692700  0.76692700  0.75000000  1
  O  O15  1  0.23307300  0.60307300  0.25000000  1
  O  O16  1  0.53116100  0.24427700  0.93681400  1
  O  O17  1  0.75572300  0.46883900  0.06318600  1
  O  O18  1  0.53116100  0.24427700  0.56318600  1
  O  O19  1  0.75572300  0.46883900  0.43681400  1
  O  O20  1  0.46883900  0.75572300  0.06318600  1
  O  O21  1  0.24427700  0.53116100  0.93681400  1
  O  O22  1  0.46883900  0.75572300  0.43681400  1
  O  O23  1  0.24427700  0.53116100  0.56318600  1
  O  O24  1  0.14699400  0.74620600  0.75000000  1
  O  O25  1  0.25379400  0.85300600  0.25000000  1
  O  O26  1  0.85300600  0.25379400  0.25000000  1
  O  O27  1  0.74620600  0.14699400  0.75000000  1
  O  O28  1  0.28850900  0.96270700  0.93457500  1
  O  O29  1  0.03729300  0.71149100  0.06542500  1
  O  O30  1  0.28850900  0.96270700  0.56542500  1
  O  O31  1  0.03729300  0.71149100  0.43457500  1
  O  O32  1  0.71149100  0.03729300  0.06542500  1
  O  O33  1  0.96270700  0.28850900  0.93457500  1
  O  O34  1  0.71149100  0.03729300  0.43457500  1
  O  O35  1  0.96270700  0.28850900  0.56542500  1
  O  O36  1  0.30496000  0.10169700  0.75000000  1
  O  O37  1  0.89830300  0.69504000  0.25000000  1
  O  O38  1  0.69504000  0.89830300  0.25000000  1
  O  O39  1  0.10169700  0.30496000  0.75000000  1
  O  O40  1  0.65441400  0.45677200  0.75000000  1
  O  O41  1  0.54322800  0.34558600  0.25000000  1
  O  O42  1  0.34558600  0.54322800  0.25000000  1
  O  O43  1  0.45677200  0.65441400  0.75000000  1
  O  O44  1  0.43465000  0.30964900  0.56051900  1
  O  O45  1  0.69035100  0.56535000  0.43948100  1
  O  O46  1  0.43465000  0.30964900  0.93948100  1
  O  O47  1  0.69035100  0.56535000  0.06051900  1
  O  O48  1  0.56535000  0.69035100  0.43948100  1
  O  O49  1  0.30964900  0.43465000  0.56051900  1
  O  O50  1  0.56535000  0.69035100  0.06051900  1
  O  O51  1  0.30964900  0.43465000  0.93948100  1
  O  O52  1  0.31026300  0.31026300  0.75000000  1
  O  O53  1  0.68973700  0.68973700  0.25000000  1
  O  O54  1  0.16281300  0.08766400  0.93644800  1
  O  O55  1  0.91233600  0.83718700  0.06355200  1
  O  O56  1  0.16281300  0.08766400  0.56355200  1
  O  O57  1  0.91233600  0.83718700  0.43644800  1
  O  O58  1  0.83718700  0.91233600  0.06355200  1
  O  O59  1  0.08766400  0.16281300  0.93644800  1
  O  O60  1  0.83718700  0.91233600  0.43644800  1
  O  O61  1  0.08766400  0.16281300  0.56355200  1
  O  O62  1  0.05734800  0.05734800  0.25000000  1
  O  O63  1  0.94265200  0.94265200  0.75000000  1
loop_
_geom_bond_atom_site_label_1
_geom_bond_atom_site_label_2
_geom_bond_distance
_geom_bond_site_symmetry_2
Cs0 O44 3.326797 1_555
Cs0 O49 3.326797 1_555
Cs0 O46 3.326797 1_554
Cs0 O51 3.326797 1_554
Cs0 O62 3.352930 1_555
Cs0 O53 3.527857 1_555
Cs1 O50 3.326797 1_556
Cs1 O47 3.326797 1_556
Cs1 O48 3.326797 1_555
Cs1 O45 3.326797 1_555
Cs1 O63 3.352930 1_555
Cs1 O52 3.527857 1_555
Cs2 O41 3.241910 1_555
Cs2 O30 3.311675 1_545
Cs2 O28 3.311675 1_544
Cs2 O56 3.408235 1_555
Cs2 O54 3.408235 1_554
Cs3 O40 3.241910 1_555
Cs3 O31 3.311675 1_655
Cs3 O29 3.311675 1_656
Cs3 O57 3.408235 1_555
Cs3 O55 3.408235 1_556
Cs4 O43 3.241910 1_555
Cs4 O32 3.311675 1_566
Cs4 O34 3.311675 1_565
Cs4 O60 3.408235 1_555
Cs4 O58 3.408235 1_556
Cs5 O42 3.241910 1_555
Cs5 O35 3.311675 1_455
Cs5 O33 3.311675 1_454
Cs5 O61 3.408235 1_555
Cs5 O59 3.408235 1_554
Nb0 O29 1.966746 1_555
Nb0 O28 1.966746 1_554
Nb0 O25 1.973561 1_555
Nb0 O24 1.973561 1_554
Nb0 O0 2.094938 1_554
Nb0 O1 2.094938 1_555
Nb1 O31 1.966746 1_555
Nb1 O30 1.966746 1_555
Nb1 O25 1.973561 1_555
Nb1 O24 1.973561 1_555
Nb1 O2 2.094938 1_555
Nb1 O3 2.094938 1_555
Nb2 O32 1.966746 1_555
Nb2 O33 1.966746 1_554
Nb2 O26 1.973561 1_555
Nb2 O27 1.973561 1_554
Nb2 O5 2.094938 1_554
Nb2 O4 2.094938 1_555
Nb3 O34 1.966746 1_555
Nb3 O35 1.966746 1_555
Nb3 O26 1.973561 1_555
Nb3 O27 1.973561 1_555
Nb3 O7 2.094938 1_555
Nb3 O6 2.094938 1_555
Nb4 O36 1.862389 1_555
Nb4 O28 1.946783 1_545
Nb4 O30 1.946783 1_545
Nb4 O16 2.133362 1_555
Nb4 O18 2.133362 1_555
Nb4 O8 2.154984 1_555
Nb5 O37 1.862389 1_555
Nb5 O29 1.946783 1_655
Nb5 O31 1.946783 1_655
Nb5 O19 2.133362 1_555
Nb5 O17 2.133362 1_555
Nb5 O9 2.154984 1_555
Nb6 O38 1.862389 1_555
Nb6 O32 1.946783 1_565
Nb6 O34 1.946783 1_565
Nb6 O22 2.133362 1_555
Nb6 O20 2.133362 1_555
Nb6 O10 2.154984 1_555
Nb7 O39 1.862389 1_555
Nb7 O33 1.946783 1_455
Nb7 O35 1.946783 1_455
Nb7 O21 2.133362 1_555
Nb7 O23 2.133362 1_555
Nb7 O11 2.154984 1_555
Nb8 O46 1.876362 1_554
Nb8 O47 1.876362 1_555
Nb8 O41 1.988635 1_555
Nb8 O40 1.988635 1_554
Nb8 O17 2.298218 1_555
Nb8 O16 2.298218 1_554
Nb9 O44 1.876362 1_555
Nb9 O45 1.876362 1_555
Nb9 O41 1.988635 1_555
Nb9 O40 1.988635 1_555
Nb9 O19 2.298218 1_555
Nb9 O18 2.298218 1_555
Nb10 O51 1.876362 1_554
Nb10 O50 1.876362 1_555
Nb10 O42 1.988635 1_555
Nb10 O43 1.988635 1_554
Nb10 O20 2.298218 1_555
Nb10 O21 2.298218 1_554
Nb11 O49 1.876362 1_555
Nb11 O48 1.876362 1_555
Nb11 O42 1.988635 1_555
Nb11 O43 1.988635 1_555
Nb11 O22 2.298218 1_555
Nb11 O23 2.298218 1_555
Nb12 O54 1.928766 1_555
Nb12 O56 1.928766 1_555
Nb12 O52 1.956680 1_555
Nb12 O36 2.077917 1_555
Nb12 O44 2.091064 1_555
Nb12 O46 2.091064 1_555
Nb13 O57 1.928766 1_555
Nb13 O55 1.928766 1_555
Nb13 O53 1.956680 1_555
Nb13 O37 2.077917 1_555
Nb13 O45 2.091064 1_555
Nb13 O47 2.091064 1_555
Nb14 O60 1.928766 1_555
Nb14 O58 1.928766 1_555
Nb14 O53 1.956680 1_555
Nb14 O38 2.077917 1_555
Nb14 O48 2.091064 1_555
Nb14 O50 2.091064 1_555
Nb15 O59 1.928766 1_555
Nb15 O61 1.928766 1_555
Nb15 O52 1.956680 1_555
Nb15 O39 2.077917 1_555
Nb15 O49 2.091064 1_555
Nb15 O51 2.091064 1_555
Nb16 O62 1.984482 1_555
Nb16 O63 1.984482 1_444
Nb16 O55 2.026238 1_445
Nb16 O58 2.026238 1_445
Nb16 O54 2.026238 1_554
Nb16 O59 2.026238 1_554
Nb17 O62 1.984482 1_555
Nb17 O63 1.984482 1_445
Nb17 O60 2.026238 1_445
Nb17 O57 2.026238 1_445
Nb17 O56 2.026238 1_555
Nb17 O61 2.026238 1_555
O0 Te0 1.929625 1_555
O1 Te1 1.929625 1_555
O2 Te0 1.929625 1_555
O3 Te1 1.929625 1_555
O4 Te2 1.929625 1_555
O5 Te3 1.929625 1_555
O6 Te2 1.929625 1_555
O7 Te3 1.929625 1_555
O8 Te0 1.927629 1_545
O9 Te1 1.927629 1_655
O10 Te2 1.927629 1_565
O11 Te3 1.927629 1_455
O12 Te5 2.085631 1_555
O12 Te4 2.085631 1_555
O13 Te4 2.085631 1_556
O13 Te5 2.085631 1_555
O14 Te6 2.085631 1_556
O14 Te7 2.085631 1_555
O15 Te6 2.085631 1_555
O15 Te7 2.085631 1_555
O16 Te4 1.985988 1_556
O17 Te4 1.985988 1_555
O18 Te5 1.985988 1_555
O19 Te5 1.985988 1_555
O20 Te6 1.985988 1_555
O21 Te6 1.985988 1_556
O22 Te7 1.985988 1_555
O23 Te7 1.985988 1_555
