# generated using pymatgen
data_LaAu2
_symmetry_space_group_name_H-M   'P 1'
_cell_length_a   4.72999593
_cell_length_b   6.03767710
_cell_length_c   6.03767710
_cell_angle_alpha   75.72256604
_cell_angle_beta   66.93927464
_cell_angle_gamma   66.93927464
_symmetry_Int_Tables_number   1
_chemical_formula_structural   LaAu2
_chemical_formula_sum   'La2 Au4'
_cell_volume   145.08227624
_cell_formula_units_Z   2
loop_
 _symmetry_equiv_pos_site_id
 _symmetry_equiv_pos_as_xyz
  1  'x, y, z'
loop_
 _atom_site_type_symbol
 _atom_site_label
 _atom_site_symmetry_multiplicity
 _atom_site_fract_x
 _atom_site_fract_y
 _atom_site_fract_z
 _atom_site_occupancy
  La  La0  1  0.51645292  0.73354708  0.23354708  1
  La  La1  1  0.48354708  0.26645292  0.76645292  1
  Au  Au0  1  0.16560675  0.31720929  0.35157821  1
  Au  Au1  1  0.83439325  0.68279071  0.64842179  1
  Au  Au2  1  0.83439325  0.14842179  0.18279171  1
  Au  Au3  1  0.16560675  0.85157821  0.81720929  1
loop_
_geom_bond_atom_site_label_1
_geom_bond_atom_site_label_2
_geom_bond_distance
_geom_bond_site_symmetry_2
La0 La1 3.715632 1_564
La0 La1 3.715632 1_555
Au0 Au2 2.746837 1_555
Au0 Au2 2.746841 1_455
Au0 Au1 2.753367 1_455
Au0 La1 3.292622 1_555
Au0 La1 3.292626 1_455
Au0 La1 3.293474 1_554
Au0 La0 3.322427 1_555
Au0 La0 3.322431 1_455
Au0 La0 3.377999 1_545
Au1 Au3 2.746837 1_555
Au1 Au3 2.746845 1_655
Au1 La0 3.292622 1_555
Au1 La0 3.292626 1_655
Au1 La0 3.293474 1_556
Au1 La1 3.322427 1_555
Au1 La1 3.322431 1_655
Au1 La1 3.377999 1_565
Au2 Au3 2.753371 1_644
Au2 La0 3.292624 1_545
Au2 La0 3.292624 1_645
Au2 La0 3.293473 1_555
Au2 La1 3.322433 1_554
Au2 La1 3.322433 1_654
Au2 La1 3.377994 1_555
Au3 La1 3.292622 1_565
Au3 La1 3.292626 1_465
Au3 La1 3.293474 1_555
Au3 La0 3.322427 1_556
Au3 La0 3.322431 1_456
Au3 La0 3.377999 1_555
