# generated using pymatgen
data_MgV(SiO3)2
_symmetry_space_group_name_H-M   'P 1'
_cell_length_a   5.27728800
_cell_length_b   8.95328200
_cell_length_c   18.68596900
_cell_angle_alpha   90.00000000
_cell_angle_beta   90.00000000
_cell_angle_gamma   90.00000000
_symmetry_Int_Tables_number   1
_chemical_formula_structural   MgV(SiO3)2
_chemical_formula_sum   'Mg8 V8 Si16 O48'
_cell_volume   882.89423984
_cell_formula_units_Z   8
loop_
 _symmetry_equiv_pos_site_id
 _symmetry_equiv_pos_as_xyz
  1  'x, y, z'
loop_
 _atom_site_type_symbol
 _atom_site_label
 _atom_site_symmetry_multiplicity
 _atom_site_fract_x
 _atom_site_fract_y
 _atom_site_fract_z
 _atom_site_occupancy
  Mg  Mg0  1  0.62800500  0.15276000  0.37610600  1
  Mg  Mg1  1  0.37199500  0.84724000  0.62389400  1
  Mg  Mg2  1  0.62800500  0.65276000  0.12389400  1
  Mg  Mg3  1  0.12800500  0.84724000  0.12389400  1
  Mg  Mg4  1  0.87199500  0.15276000  0.87610600  1
  Mg  Mg5  1  0.37199500  0.34724000  0.87610600  1
  Mg  Mg6  1  0.12800500  0.34724000  0.37610600  1
  Mg  Mg7  1  0.87199500  0.65276000  0.62389400  1
  V  V0  1  0.35700700  0.97781800  0.87782400  1
  V  V1  1  0.64299300  0.02218200  0.12217600  1
  V  V2  1  0.85700700  0.02218200  0.62217600  1
  V  V3  1  0.14299300  0.97781800  0.37782400  1
  V  V4  1  0.35700700  0.47781800  0.62217600  1
  V  V5  1  0.64299300  0.52218200  0.37782400  1
  V  V6  1  0.85700700  0.52218200  0.87782400  1
  V  V7  1  0.14299300  0.47781800  0.12217600  1
  Si  Si0  1  0.55234400  0.65820700  0.76892300  1
  Si  Si1  1  0.70110300  0.83759400  0.47550400  1
  Si  Si2  1  0.79889700  0.83759400  0.97550400  1
  Si  Si3  1  0.94765600  0.15820700  0.23107700  1
  Si  Si4  1  0.05234400  0.34179300  0.73107700  1
  Si  Si5  1  0.44765600  0.84179300  0.26892300  1
  Si  Si6  1  0.20110300  0.66240600  0.47550400  1
  Si  Si7  1  0.70110300  0.33759400  0.02449600  1
  Si  Si8  1  0.79889700  0.33759400  0.52449600  1
  Si  Si9  1  0.94765600  0.65820700  0.26892300  1
  Si  Si10  1  0.44765600  0.34179300  0.23107700  1
  Si  Si11  1  0.55234400  0.15820700  0.73107700  1
  Si  Si12  1  0.29889700  0.16240600  0.52449600  1
  Si  Si13  1  0.05234400  0.84179300  0.76892300  1
  Si  Si14  1  0.29889700  0.66240600  0.97550400  1
  Si  Si15  1  0.20110300  0.16240600  0.02449600  1
  O  O0  1  0.96160200  0.49992800  0.30896700  1
  O  O1  1  0.29229700  0.01218600  0.06349100  1
  O  O2  1  0.03839800  0.50007200  0.69103300  1
  O  O3  1  0.70433300  0.33579400  0.93699600  1
  O  O4  1  0.20433300  0.16420600  0.93699600  1
  O  O5  1  0.90167300  0.20131300  0.05217000  1
  O  O6  1  0.95984100  0.65983200  0.18196200  1
  O  O7  1  0.04015900  0.84016800  0.68196200  1
  O  O8  1  0.70433300  0.83579400  0.56300400  1
  O  O9  1  0.95984100  0.15983200  0.31803800  1
  O  O10  1  0.46160200  0.50007200  0.19103300  1
  O  O11  1  0.79566700  0.33579400  0.43699600  1
  O  O12  1  0.70770300  0.98781400  0.93650900  1
  O  O13  1  0.45984100  0.84016800  0.18196200  1
  O  O14  1  0.53839800  0.99992800  0.69103300  1
  O  O15  1  0.29229700  0.51218600  0.43650900  1
  O  O16  1  0.46160200  0.00007200  0.30896700  1
  O  O17  1  0.16695100  0.77695400  0.29958700  1
  O  O18  1  0.33304900  0.77695400  0.79958700  1
  O  O19  1  0.59832700  0.70131300  0.94783000  1
  O  O20  1  0.79566700  0.83579400  0.06300400  1
  O  O21  1  0.54015900  0.65983200  0.68196200  1
  O  O22  1  0.79229700  0.48781400  0.06349100  1
  O  O23  1  0.16695100  0.27695400  0.20041300  1
  O  O24  1  0.29566700  0.16420600  0.43699600  1
  O  O25  1  0.54015900  0.15983200  0.81803800  1
  O  O26  1  0.70770300  0.48781400  0.56349100  1
  O  O27  1  0.20433300  0.66420600  0.56300400  1
  O  O28  1  0.20770300  0.51218600  0.93650900  1
  O  O29  1  0.66695100  0.72304600  0.29958700  1
  O  O30  1  0.03839800  0.00007200  0.80896700  1
  O  O31  1  0.83304900  0.72304600  0.79958700  1
  O  O32  1  0.83304900  0.22304600  0.70041300  1
  O  O33  1  0.79229700  0.98781400  0.43650900  1
  O  O34  1  0.29566700  0.66420600  0.06300400  1
  O  O35  1  0.20770300  0.01218600  0.56349100  1
  O  O36  1  0.33304900  0.27695400  0.70041300  1
  O  O37  1  0.09832700  0.79868700  0.94783000  1
  O  O38  1  0.40167300  0.79868700  0.44783000  1
  O  O39  1  0.66695100  0.22304600  0.20041300  1
  O  O40  1  0.40167300  0.29868700  0.05217000  1
  O  O41  1  0.59832700  0.20131300  0.55217000  1
  O  O42  1  0.09832700  0.29868700  0.55217000  1
  O  O43  1  0.45984100  0.34016800  0.31803800  1
  O  O44  1  0.53839800  0.49992800  0.80896700  1
  O  O45  1  0.90167300  0.70131300  0.44783000  1
  O  O46  1  0.04015900  0.34016800  0.81803800  1
  O  O47  1  0.96160200  0.99992800  0.19103300  1
loop_
_geom_bond_atom_site_label_1
_geom_bond_atom_site_label_2
_geom_bond_distance
_geom_bond_site_symmetry_2
Mg0 O33 2.051004 1_545
Mg0 O16 2.052784 1_555
Mg0 O9 2.061077 1_555
Mg0 O24 2.093091 1_555
Mg0 O11 2.182419 1_555
Mg0 O43 2.186394 1_555
Mg1 O35 2.051004 1_565
Mg1 O14 2.052784 1_555
Mg1 O7 2.061077 1_555
Mg1 O8 2.093091 1_555
Mg1 O27 2.182419 1_555
Mg1 O21 2.186394 1_555
Mg2 O22 2.051004 1_555
Mg2 O10 2.052784 1_555
Mg2 O6 2.061077 1_555
Mg2 O34 2.093091 1_555
Mg2 O20 2.182419 1_555
Mg2 O13 2.186394 1_555
Mg3 O1 2.051004 1_565
Mg3 O47 2.052784 1_455
Mg3 O13 2.061077 1_555
Mg3 O20 2.093091 1_455
Mg3 O34 2.182419 1_555
Mg3 O6 2.186394 1_455
Mg4 O12 2.051004 1_545
Mg4 O30 2.052784 1_655
Mg4 O25 2.061077 1_555
Mg4 O4 2.093091 1_655
Mg4 O3 2.182419 1_555
Mg4 O46 2.186394 1_655
Mg5 O28 2.051004 1_555
Mg5 O44 2.052784 1_555
Mg5 O46 2.061077 1_555
Mg5 O3 2.093091 1_555
Mg5 O4 2.182419 1_555
Mg5 O25 2.186394 1_555
Mg6 O15 2.051004 1_555
Mg6 O0 2.052784 1_455
Mg6 O43 2.061077 1_555
Mg6 O11 2.093091 1_455
Mg6 O24 2.182419 1_555
Mg6 O9 2.186394 1_455
Mg7 O26 2.051004 1_555
Mg7 O2 2.052784 1_655
Mg7 O21 2.061077 1_555
Mg7 O27 2.093091 1_655
Mg7 O8 2.182419 1_555
Mg7 O7 2.186394 1_655
O0 Si9 1.604223 1_555
O0 V5 2.126563 1_555
O1 Si15 1.603582 1_555
O1 V1 2.153065 1_555
O2 Si4 1.604223 1_555
O2 V4 2.126563 1_555
O3 Si7 1.635191 1_556
O3 V6 2.157902 1_555
O4 Si15 1.635191 1_556
O4 V0 2.157902 1_545
O5 Si7 1.696041 1_555
O5 Si15 1.698740 1_655
O5 V1 2.479312 1_555
O6 Si9 1.626287 1_555
O6 V7 2.199529 1_655
O7 Si13 1.626287 1_555
O7 V2 2.199529 1_465
O8 Si1 1.635191 1_555
O8 V2 2.157902 1_565
O9 Si3 1.626287 1_555
O9 V3 2.199529 1_645
O10 Si10 1.604223 1_555
O10 V7 2.126563 1_555
O11 Si8 1.635191 1_555
O11 V5 2.157902 1_555
O12 Si2 1.603582 1_555
O12 V0 2.153065 1_555
O13 Si5 1.626287 1_555
O13 V1 2.199529 1_565
O14 Si11 1.604223 1_565
O14 V2 2.126563 1_565
O15 Si6 1.603582 1_555
O15 V5 2.153065 1_555
O16 Si5 1.604223 1_545
O16 V3 2.126563 1_545
O17 Si9 1.672710 1_455
O17 Si5 1.691080 1_555
O17 V3 2.321088 1_555
O18 Si0 1.672710 1_555
O18 Si13 1.691080 1_555
O18 V0 2.321088 1_555
O19 Si2 1.696041 1_555
O19 Si14 1.698740 1_555
O19 V6 2.479312 1_555
O20 Si2 1.635191 1_554
O20 V1 2.157902 1_565
O21 Si0 1.626287 1_555
O21 V4 2.199529 1_555
O22 Si7 1.603582 1_555
O22 V7 2.153065 1_655
O23 Si3 1.672710 1_455
O23 Si10 1.691080 1_555
O23 V7 2.321088 1_555
O24 Si12 1.635191 1_555
O24 V3 2.157902 1_545
O25 Si11 1.626287 1_555
O25 V0 2.199529 1_545
O26 Si8 1.603582 1_555
O26 V4 2.153065 1_555
O27 Si6 1.635191 1_555
O27 V4 2.157902 1_555
O28 Si14 1.603582 1_555
O28 V6 2.153065 1_455
O29 Si5 1.672710 1_555
O29 Si9 1.691080 1_555
O29 V5 2.321088 1_555
O30 Si13 1.604223 1_545
O30 V0 2.126563 1_545
O31 Si13 1.672710 1_655
O31 Si0 1.691080 1_555
O31 V6 2.321088 1_555
O32 Si4 1.672710 1_655
O32 Si11 1.691080 1_555
O32 V2 2.321088 1_555
O33 Si1 1.603582 1_555
O33 V3 2.153065 1_655
O34 Si14 1.635191 1_554
O34 V7 2.157902 1_555
O35 Si12 1.603582 1_555
O35 V2 2.153065 1_455
O36 Si11 1.672710 1_555
O36 Si4 1.691080 1_555
O36 V4 2.321088 1_555
O37 Si14 1.696041 1_555
O37 Si2 1.698740 1_455
O37 V0 2.479312 1_555
O38 Si6 1.696041 1_555
O38 Si1 1.698740 1_555
O38 V3 2.479312 1_555
O39 Si10 1.672710 1_555
O39 Si3 1.691080 1_555
O39 V1 2.321088 1_555
O40 Si15 1.696041 1_555
O40 Si7 1.698740 1_555
O40 V7 2.479312 1_555
O41 Si8 1.696041 1_555
O41 Si12 1.698740 1_555
O41 V2 2.479312 1_555
O42 Si12 1.696041 1_555
O42 Si8 1.698740 1_455
O42 V4 2.479312 1_555
O43 Si10 1.626287 1_555
O43 V5 2.199529 1_555
O44 Si0 1.604223 1_555
O44 V6 2.126563 1_555
O45 Si1 1.696041 1_555
O45 Si6 1.698740 1_655
O45 V5 2.479312 1_555
O46 Si4 1.626287 1_555
O46 V6 2.199529 1_455
O47 Si3 1.604223 1_565
O47 V1 2.126563 1_565
