# generated using pymatgen
data_Cs3V2O2F7
_symmetry_space_group_name_H-M   'P 1'
_cell_length_a   6.32767507
_cell_length_b   6.32767507
_cell_length_c   14.76517383
_cell_angle_alpha   89.70022805
_cell_angle_beta   89.70022805
_cell_angle_gamma   120.17847169
_symmetry_Int_Tables_number   1
_chemical_formula_structural   Cs3V2O2F7
_chemical_formula_sum   'Cs6 V4 O4 F14'
_cell_volume   511.03398410
_cell_formula_units_Z   2
loop_
 _symmetry_equiv_pos_site_id
 _symmetry_equiv_pos_as_xyz
  1  'x, y, z'
loop_
 _atom_site_type_symbol
 _atom_site_label
 _atom_site_symmetry_multiplicity
 _atom_site_fract_x
 _atom_site_fract_y
 _atom_site_fract_z
 _atom_site_occupancy
  Cs  Cs0  1  0.66909926  0.33090074  0.25000000  1
  Cs  Cs1  1  0.33090074  0.66909926  0.75000000  1
  Cs  Cs2  1  0.66624854  0.33424149  0.93294747  1
  Cs  Cs3  1  0.33375146  0.66575851  0.06705253  1
  Cs  Cs4  1  0.33424149  0.66624854  0.43294747  1
  Cs  Cs5  1  0.66575851  0.33375146  0.56705253  1
  V  V0  1  0.98291047  0.97199661  0.14914651  1
  V  V1  1  0.01708953  0.02800339  0.85085349  1
  V  V2  1  0.97199661  0.98291047  0.64914651  1
  V  V3  1  0.02800339  0.01708953  0.35085349  1
  O  O0  1  0.28298772  0.13894234  0.40656884  1
  O  O1  1  0.71701228  0.86105766  0.59343116  1
  O  O2  1  0.13894234  0.28298772  0.90656884  1
  O  O3  1  0.86105766  0.71701228  0.09343116  1
  F  F0  1  0.26591042  0.12816706  0.75359460  1
  F  F1  1  0.87183294  0.73408958  0.74640540  1
  F  F2  1  0.86907140  0.13092860  0.75000000  1
  F  F3  1  0.73408958  0.87183294  0.24640540  1
  F  F4  1  0.12816706  0.26591042  0.25359460  1
  F  F5  1  0.13092860  0.86907140  0.25000000  1
  F  F6  1  0.83782072  0.70355259  0.40317215  1
  F  F7  1  0.84270542  0.13818408  0.40643517  1
  F  F8  1  0.16217928  0.29644741  0.59682785  1
  F  F9  1  0.15729458  0.86181592  0.59356483  1
  F  F10  1  0.70355259  0.83782072  0.90317215  1
  F  F11  1  0.13818408  0.84270542  0.90643517  1
  F  F12  1  0.29644741  0.16217928  0.09682785  1
  F  F13  1  0.86181592  0.15729458  0.09356483  1
loop_
_geom_bond_atom_site_label_1
_geom_bond_atom_site_label_2
_geom_bond_distance
_geom_bond_site_symmetry_2
Cs0 F12 3.060228 1_555
Cs0 F6 3.060228 1_555
Cs0 F13 3.061509 1_555
Cs0 F7 3.061509 1_555
Cs0 O0 3.117163 1_555
Cs0 O3 3.117163 1_555
Cs0 F4 3.132472 1_655
Cs0 F3 3.132472 1_545
Cs0 F5 3.182961 1_655
Cs0 F5 3.182961 1_545
Cs0 F3 3.235811 1_555
Cs0 F4 3.235811 1_555
Cs1 F8 3.060228 1_555
Cs1 F10 3.060228 1_555
Cs1 F9 3.061509 1_555
Cs1 F11 3.061509 1_555
Cs1 O2 3.117163 1_555
Cs1 O1 3.117163 1_555
Cs1 F1 3.132472 1_455
Cs1 F0 3.132472 1_565
Cs1 F2 3.182961 1_565
Cs1 F2 3.182961 1_455
Cs1 F0 3.235811 1_555
Cs1 F1 3.235811 1_555
Cs2 F10 3.103342 1_555
Cs2 F11 3.120485 1_655
Cs2 F13 3.131325 1_556
Cs2 F12 3.141296 1_556
Cs2 O3 3.176413 1_556
Cs2 O2 3.188681 1_655
Cs2 O2 3.211992 1_555
Cs2 F11 3.251127 1_545
Cs2 F10 3.297712 1_545
Cs2 F0 3.451901 1_555
Cs2 F2 3.501288 1_555
Cs2 F1 3.501504 1_555
Cs3 F12 3.103342 1_555
Cs3 F13 3.120485 1_455
Cs3 F11 3.131325 1_554
Cs3 F10 3.141296 1_554
Cs3 O2 3.176413 1_554
Cs3 O3 3.188681 1_455
Cs3 O3 3.211992 1_555
Cs3 F13 3.251127 1_565
Cs3 F12 3.297712 1_565
Cs3 F3 3.451901 1_555
Cs3 F5 3.501288 1_555
Cs3 F4 3.501504 1_555
Cs4 F6 3.103342 1_555
Cs4 F7 3.120485 1_565
Cs4 F9 3.131325 1_555
Cs4 F8 3.141296 1_555
Cs4 O1 3.176413 1_555
Cs4 O0 3.188681 1_565
Cs4 O0 3.211992 1_555
Cs4 F7 3.251127 1_455
Cs4 F6 3.297712 1_455
Cs4 F4 3.451901 1_555
Cs4 F5 3.501288 1_555
Cs4 F3 3.501504 1_555
Cs5 F8 3.103342 1_555
Cs5 F9 3.120485 1_545
Cs5 F7 3.131325 1_555
Cs5 F6 3.141296 1_555
Cs5 O0 3.176413 1_555
Cs5 O1 3.188681 1_545
Cs5 O1 3.211992 1_555
Cs5 F9 3.251127 1_655
Cs5 F8 3.297712 1_655
Cs5 F1 3.451901 1_555
Cs5 F2 3.501288 1_555
Cs5 F0 3.501504 1_555
O0 V3 1.626123 1_555
O1 V2 1.626123 1_555
O2 V1 1.626123 1_555
O3 V0 1.626123 1_555
F0 V1 1.976459 1_555
F0 V2 2.237907 1_445
F1 V2 1.976459 1_555
F1 V1 2.237907 1_665
F2 V2 2.033865 1_545
F2 V1 2.033865 1_655
F3 V0 1.976459 1_555
F3 V3 2.237907 1_665
F4 V3 1.976459 1_555
F4 V0 2.237907 1_445
F5 V3 2.033865 1_565
F5 V0 2.033865 1_455
F6 V3 1.885442 1_665
F7 V3 1.880210 1_655
F8 V2 1.885442 1_445
F9 V2 1.880210 1_455
F10 V1 1.885442 1_665
F11 V1 1.880210 1_565
F12 V0 1.885442 1_445
F13 V0 1.880210 1_545
