# generated using pymatgen
data_Ce3AlFeS7
_symmetry_space_group_name_H-M   'P 1'
_cell_length_a   5.97319800
_cell_length_b   9.94600853
_cell_length_c   9.95312012
_cell_angle_alpha   120.28669970
_cell_angle_beta   90.00000000
_cell_angle_gamma   90.00000000
_symmetry_Int_Tables_number   1
_chemical_formula_structural   Ce3AlFeS7
_chemical_formula_sum   'Ce6 Al2 Fe2 S14'
_cell_volume   510.60338003
_cell_formula_units_Z   2
loop_
 _symmetry_equiv_pos_site_id
 _symmetry_equiv_pos_as_xyz
  1  'x, y, z'
loop_
 _atom_site_type_symbol
 _atom_site_label
 _atom_site_symmetry_multiplicity
 _atom_site_fract_x
 _atom_site_fract_y
 _atom_site_fract_z
 _atom_site_occupancy
  Ce  Ce0  1  0.26014200  0.22687100  0.36538100  1
  Ce  Ce1  1  0.26033200  0.63379100  0.86060000  1
  Ce  Ce2  1  0.25987100  0.13879300  0.77359400  1
  Ce  Ce3  1  0.76014200  0.77312900  0.63461900  1
  Ce  Ce4  1  0.76033200  0.36620900  0.13940000  1
  Ce  Ce5  1  0.75987100  0.86120700  0.22640600  1
  Al  Al0  1  0.83542700  0.33350100  0.66690500  1
  Al  Al1  1  0.33542700  0.66649900  0.33309500  1
  Fe  Fe0  1  0.46869600  0.99991300  0.99992800  1
  Fe  Fe1  1  0.96869600  0.00008700  0.00007200  1
  S  S0  1  0.70910900  0.14474700  0.23587500  1
  S  S1  1  0.70855200  0.76358800  0.90777400  1
  S  S2  1  0.70890900  0.09194300  0.85633200  1
  S  S3  1  0.20910900  0.85525300  0.76412500  1
  S  S4  1  0.20855200  0.23641200  0.09222600  1
  S  S5  1  0.20890900  0.90805700  0.14366800  1
  S  S6  1  0.98780900  0.09529700  0.51752700  1
  S  S7  1  0.98644800  0.48199600  0.57780400  1
  S  S8  1  0.98704000  0.42298700  0.90480100  1
  S  S9  1  0.48780900  0.90470300  0.48247300  1
  S  S10  1  0.48644800  0.51800400  0.42219600  1
  S  S11  1  0.48704000  0.57701300  0.09519900  1
  S  S12  1  0.46366600  0.33272800  0.66646700  1
  S  S13  1  0.96366600  0.66727200  0.33353300  1
loop_
_geom_bond_atom_site_label_1
_geom_bond_atom_site_label_2
_geom_bond_distance
_geom_bond_site_symmetry_2
Ce0 S4 2.784917 1_555
Ce0 S5 2.821375 1_545
Ce0 S7 2.858365 1_455
Ce0 S12 2.895590 1_555
Ce0 S0 2.908364 1_555
Ce0 S6 2.941211 1_455
Ce0 S10 2.979937 1_555
Ce0 S0 3.478535 1_455
Ce1 S5 2.778728 1_556
Ce1 S3 2.828557 1_555
Ce1 S8 2.860895 1_455
Ce1 S12 2.887740 1_555
Ce1 S1 2.905791 1_555
Ce1 S7 2.931211 1_455
Ce1 S11 2.989128 1_556
Ce2 S3 2.790278 1_545
Ce2 S4 2.826396 1_556
Ce2 S6 2.865591 1_455
Ce2 S12 2.900648 1_555
Ce2 S2 2.911441 1_555
Ce2 S8 2.937287 1_455
Ce2 S9 2.977538 1_545
Ce2 S2 3.480380 1_455
Ce3 S1 2.784917 1_555
Ce3 S2 2.821375 1_565
Ce3 S10 2.858365 1_555
Ce3 S13 2.895590 1_555
Ce3 S3 2.908364 1_655
Ce3 S9 2.941211 1_555
Ce3 S7 2.979937 1_555
Ce3 S3 3.478535 1_555
Ce4 S2 2.778728 1_554
Ce4 S0 2.828557 1_555
Ce4 S11 2.860895 1_555
Ce4 S13 2.887740 1_555
Ce4 S4 2.905791 1_655
Ce4 S10 2.931211 1_555
Ce4 S8 2.989128 1_554
Ce5 S0 2.790278 1_565
Ce5 S1 2.826396 1_554
Ce5 S9 2.865591 1_555
Ce5 S13 2.900648 1_555
Ce5 S5 2.911441 1_655
Ce5 S11 2.937287 1_555
Ce5 S6 2.977538 1_565
Ce5 S5 3.480380 1_555
Al0 S12 2.220612 1_555
Al0 S8 2.256800 1_555
Al0 S6 2.258112 1_555
Al0 S7 2.258910 1_555
Al1 S13 2.220612 1_455
Al1 S11 2.256800 1_555
Al1 S9 2.258112 1_555
Al1 S10 2.258910 1_555
Fe0 S0 2.498021 1_566
Fe0 S1 2.498834 1_555
Fe0 S2 2.501765 1_565
Fe0 S3 2.564495 1_555
Fe0 S5 2.570560 1_556
Fe0 S4 2.571356 1_566
Fe1 S3 2.498021 1_644
Fe1 S4 2.498834 1_655
Fe1 S5 2.501765 1_645
Fe1 S0 2.564495 1_555
Fe1 S2 2.570560 1_554
Fe1 S1 2.571356 1_544
