# generated using pymatgen
data_Sm3Mg21Sb16
_symmetry_space_group_name_H-M   'P 1'
_cell_length_a   4.65725959
_cell_length_b   4.65725959
_cell_length_c   58.30380100
_cell_angle_alpha   90.00000000
_cell_angle_beta   90.00000000
_cell_angle_gamma   119.99999419
_symmetry_Int_Tables_number   1
_chemical_formula_structural   Sm3Mg21Sb16
_chemical_formula_sum   'Sm3 Mg21 Sb16'
_cell_volume   1095.18734614
_cell_formula_units_Z   1
loop_
 _symmetry_equiv_pos_site_id
 _symmetry_equiv_pos_as_xyz
  1  'x, y, z'
loop_
 _atom_site_type_symbol
 _atom_site_label
 _atom_site_symmetry_multiplicity
 _atom_site_fract_x
 _atom_site_fract_y
 _atom_site_fract_z
 _atom_site_occupancy
  Sm  Sm0  1  0.00000000  0.00000000  0.25003700  1
  Sm  Sm1  1  0.00000000  0.00000000  0.00000000  1
  Sm  Sm2  1  0.00000000  0.00000000  0.74996300  1
  Mg  Mg0  1  0.00000000  0.00000000  0.12499000  1
  Mg  Mg1  1  0.00000000  0.00000000  0.87501000  1
  Mg  Mg2  1  0.00000000  0.00000000  0.62449100  1
  Mg  Mg3  1  0.00000000  0.00000000  0.37550900  1
  Mg  Mg4  1  0.33333300  0.66666700  0.20222500  1
  Mg  Mg5  1  0.33333300  0.66666700  0.95224700  1
  Mg  Mg6  1  0.33333300  0.66666700  0.70218400  1
  Mg  Mg7  1  0.33333300  0.66666700  0.45268100  1
  Mg  Mg8  1  0.66666700  0.33333300  0.04775300  1
  Mg  Mg9  1  0.66666700  0.33333300  0.79777500  1
  Mg  Mg10  1  0.66666700  0.33333300  0.54731900  1
  Mg  Mg11  1  0.66666700  0.33333300  0.29781600  1
  Mg  Mg12  1  0.00000000  0.00000000  0.50000000  1
  Mg  Mg13  1  0.66666700  0.33333300  0.16805000  1
  Mg  Mg14  1  0.66666700  0.33333300  0.91805300  1
  Mg  Mg15  1  0.66666700  0.33333300  0.66806100  1
  Mg  Mg16  1  0.66666700  0.33333300  0.41906000  1
  Mg  Mg17  1  0.33333300  0.66666700  0.08194700  1
  Mg  Mg18  1  0.33333300  0.66666700  0.83195000  1
  Mg  Mg19  1  0.33333300  0.66666700  0.58094000  1
  Mg  Mg20  1  0.33333300  0.66666700  0.33193900  1
  Sb  Sb0  1  0.66666700  0.33333300  0.21902000  1
  Sb  Sb1  1  0.66666700  0.33333300  0.96902800  1
  Sb  Sb2  1  0.66666700  0.33333300  0.71922300  1
  Sb  Sb3  1  0.66666700  0.33333300  0.47002300  1
  Sb  Sb4  1  0.33333300  0.66666700  0.03097200  1
  Sb  Sb5  1  0.33333300  0.66666700  0.78098000  1
  Sb  Sb6  1  0.33333300  0.66666700  0.52997700  1
  Sb  Sb7  1  0.33333300  0.66666700  0.28077700  1
  Sb  Sb8  1  0.33333300  0.66666700  0.15242500  1
  Sb  Sb9  1  0.33333300  0.66666700  0.90243300  1
  Sb  Sb10  1  0.33333300  0.66666700  0.65290900  1
  Sb  Sb11  1  0.33333300  0.66666700  0.40173100  1
  Sb  Sb12  1  0.66666700  0.33333300  0.09756700  1
  Sb  Sb13  1  0.66666700  0.33333300  0.84757500  1
  Sb  Sb14  1  0.66666700  0.33333300  0.59826900  1
  Sb  Sb15  1  0.66666700  0.33333300  0.34709100  1
loop_
_geom_bond_atom_site_label_1
_geom_bond_atom_site_label_2
_geom_bond_distance
_geom_bond_site_symmetry_2
Mg0 Sb12 3.128319 1_455
Mg0 Sb12 3.128322 1_445
Mg0 Sb12 3.128322 1_555
Mg0 Sb8 3.128676 1_545
Mg0 Sb8 3.128680 1_555
Mg0 Sb8 3.128680 1_445
Mg1 Sb9 3.128319 1_545
Mg1 Sb9 3.128322 1_445
Mg1 Sb9 3.128322 1_555
Mg1 Sb13 3.128676 1_455
Mg1 Sb13 3.128680 1_555
Mg1 Sb13 3.128680 1_445
Mg2 Sb14 3.093116 1_455
Mg2 Sb14 3.093120 1_445
Mg2 Sb14 3.093120 1_555
Mg2 Sb10 3.158362 1_545
Mg2 Sb10 3.158366 1_445
Mg2 Sb10 3.158366 1_555
Mg3 Sb11 3.093116 1_545
Mg3 Sb11 3.093120 1_445
Mg3 Sb11 3.093120 1_555
Mg3 Sb15 3.158362 1_455
Mg3 Sb15 3.158366 1_555
Mg3 Sb15 3.158366 1_445
Mg4 Sb0 2.861619 1_455
Mg4 Sb0 2.861619 1_565
Mg4 Sb0 2.861627 1_555
Mg4 Sb8 2.903529 1_555
Mg5 Sb1 2.861340 1_455
Mg5 Sb1 2.861340 1_565
Mg5 Sb1 2.861348 1_555
Mg5 Sb9 2.904346 1_555
Mg6 Sb2 2.866519 1_455
Mg6 Sb2 2.866519 1_565
Mg6 Sb2 2.866526 1_555
Mg6 Sb10 2.872920 1_555
Mg7 Sb3 2.872689 1_455
Mg7 Sb3 2.872689 1_565
Mg7 Sb3 2.872696 1_555
Mg7 Sb11 2.970579 1_555
Mg8 Sb4 2.861340 1_545
Mg8 Sb4 2.861340 1_655
Mg8 Sb4 2.861348 1_555
Mg8 Sb12 2.904346 1_555
Mg9 Sb5 2.861619 1_545
Mg9 Sb5 2.861619 1_655
Mg9 Sb5 2.861627 1_555
Mg9 Sb13 2.903529 1_555
Mg10 Sb6 2.872689 1_545
Mg10 Sb6 2.872689 1_655
Mg10 Sb6 2.872696 1_555
Mg10 Sb14 2.970579 1_555
Mg11 Sb7 2.866519 1_545
Mg11 Sb7 2.866519 1_655
Mg11 Sb7 2.866526 1_555
Mg11 Sb15 2.872920 1_555
Mg12 Sb3 3.206980 1_455
Mg12 Sb6 3.206980 1_545
Mg12 Sb3 3.206983 1_555
Mg12 Sb3 3.206983 1_445
Mg12 Sb6 3.206983 1_445
Mg12 Sb6 3.206983 1_555
Mg13 Sb8 2.839001 1_545
Mg13 Sb8 2.839001 1_655
Mg13 Sb8 2.839008 1_555
Mg13 Sb0 2.971745 1_555
Mg14 Sb9 2.838907 1_545
Mg14 Sb9 2.838907 1_655
Mg14 Sb9 2.838914 1_555
Mg14 Sb1 2.972036 1_555
Mg15 Sb10 2.830272 1_545
Mg15 Sb10 2.830272 1_655
Mg15 Sb10 2.830279 1_555
Mg15 Sb2 2.982939 1_555
Mg16 Sb11 2.872422 1_545
Mg16 Sb11 2.872422 1_655
Mg16 Sb11 2.872429 1_555
Mg16 Sb3 2.971337 1_555
Mg17 Sb12 2.838907 1_455
Mg17 Sb12 2.838907 1_565
Mg17 Sb12 2.838914 1_555
Mg17 Sb4 2.972036 1_555
Mg18 Sb13 2.839001 1_455
Mg18 Sb13 2.839001 1_565
Mg18 Sb13 2.839008 1_555
Mg18 Sb5 2.971745 1_555
Mg19 Sb14 2.872422 1_455
Mg19 Sb14 2.872422 1_565
Mg19 Sb14 2.872429 1_555
Mg19 Sb6 2.971337 1_555
Mg20 Sb15 2.830272 1_455
Mg20 Sb15 2.830272 1_565
Mg20 Sb15 2.830279 1_555
Mg20 Sb7 2.982939 1_555
Sb0 Sm0 3.240424 1_655
Sb0 Sm0 3.240428 1_555
Sb0 Sm0 3.240428 1_665
Sb1 Sm1 3.238961 1_656
Sb1 Sm1 3.238964 1_666
Sb1 Sm1 3.238964 1_556
Sb2 Sm2 3.231439 1_655
Sb2 Sm2 3.231443 1_665
Sb2 Sm2 3.231443 1_555
Sb4 Sm1 3.238961 1_565
Sb4 Sm1 3.238964 1_665
Sb4 Sm1 3.238964 1_555
Sb5 Sm2 3.240424 1_565
Sb5 Sm2 3.240428 1_665
Sb5 Sm2 3.240428 1_555
Sb7 Sm0 3.231439 1_565
Sb7 Sm0 3.231443 1_665
Sb7 Sm0 3.231443 1_555
