# generated using pymatgen
data_Ba2LaIrO6
_symmetry_space_group_name_H-M   'P 1'
_cell_length_a   6.13087200
_cell_length_b   6.10285400
_cell_length_c   10.58589529
_cell_angle_alpha   90.00000000
_cell_angle_beta   125.20462250
_cell_angle_gamma   90.00000000
_symmetry_Int_Tables_number   1
_chemical_formula_structural   Ba2LaIrO6
_chemical_formula_sum   'Ba4 La2 Ir2 O12'
_cell_volume   323.63626327
_cell_formula_units_Z   2
loop_
 _symmetry_equiv_pos_site_id
 _symmetry_equiv_pos_as_xyz
  1  'x, y, z'
loop_
 _atom_site_type_symbol
 _atom_site_label
 _atom_site_symmetry_multiplicity
 _atom_site_fract_x
 _atom_site_fract_y
 _atom_site_fract_z
 _atom_site_occupancy
  Ba  Ba0  1  0.25345400  0.50270200  0.75152000  1
  Ba  Ba1  1  0.25345400  0.99729800  0.25152000  1
  Ba  Ba2  1  0.74654600  0.49729800  0.24848000  1
  Ba  Ba3  1  0.74654600  0.00270200  0.74848000  1
  La  La0  1  0.00000000  0.50000000  0.00000000  1
  La  La1  1  0.00000000  0.00000000  0.50000000  1
  Ir  Ir0  1  0.50000000  0.00000000  0.00000000  1
  Ir  Ir1  1  0.50000000  0.50000000  0.50000000  1
  O  O0  1  0.75125700  0.21654000  0.00925500  1
  O  O1  1  0.75125700  0.28346000  0.50925500  1
  O  O2  1  0.24874300  0.78346000  0.99074500  1
  O  O3  1  0.24874300  0.71654000  0.49074500  1
  O  O4  1  0.72626500  0.75735500  0.01003800  1
  O  O5  1  0.72626500  0.74264500  0.51003800  1
  O  O6  1  0.27373500  0.24264500  0.98996200  1
  O  O7  1  0.27373500  0.25735500  0.48996200  1
  O  O8  1  0.29195200  0.99815100  0.77142400  1
  O  O9  1  0.29195200  0.50184900  0.27142400  1
  O  O10  1  0.70804800  0.00184900  0.22857600  1
  O  O11  1  0.70804800  0.49815100  0.72857600  1
loop_
_geom_bond_atom_site_label_1
_geom_bond_atom_site_label_2
_geom_bond_distance
_geom_bond_site_symmetry_2
Ba0 O6 2.922950 1_555
Ba0 O11 2.933931 1_555
Ba0 O1 2.956826 1_455
Ba0 O4 3.026660 1_556
Ba0 O8 3.030716 1_555
Ba0 O3 3.038511 1_555
Ba0 O2 3.071498 1_555
Ba0 O8 3.086137 1_545
Ba0 O5 3.098261 1_455
Ba0 O0 3.194922 1_556
Ba0 O11 3.210054 1_455
Ba0 O7 3.212594 1_555
Ba1 O7 2.922950 1_565
Ba1 O10 2.933931 1_565
Ba1 O0 2.956826 1_465
Ba1 O5 3.026660 1_555
Ba1 O9 3.030716 1_555
Ba1 O2 3.038511 1_554
Ba1 O3 3.071498 1_555
Ba1 O9 3.086137 1_565
Ba1 O4 3.098261 1_455
Ba1 O1 3.194922 1_565
Ba1 O10 3.210054 1_465
Ba1 O6 3.212594 1_564
Ba2 O4 2.922950 1_555
Ba2 O9 2.933931 1_555
Ba2 O3 2.956826 1_655
Ba2 O6 3.026660 1_554
Ba2 O10 3.030716 1_555
Ba2 O1 3.038511 1_555
Ba2 O0 3.071498 1_555
Ba2 O10 3.086137 1_565
Ba2 O7 3.098261 1_655
Ba2 O2 3.194922 1_554
Ba2 O9 3.210054 1_655
Ba2 O5 3.212594 1_555
Ba3 O5 2.922950 1_545
Ba3 O8 2.933931 1_545
Ba3 O2 2.956826 1_645
Ba3 O7 3.026660 1_555
Ba3 O11 3.030716 1_555
Ba3 O0 3.038511 1_556
Ba3 O1 3.071498 1_555
Ba3 O11 3.086137 1_545
Ba3 O6 3.098261 1_655
Ba3 O3 3.194922 1_545
Ba3 O8 3.210054 1_645
Ba3 O4 3.212594 1_546
La0 O0 2.345236 1_455
La0 O2 2.345236 1_554
La0 O6 2.345242 1_554
La0 O4 2.345242 1_455
La0 O9 2.351560 1_555
La0 O11 2.351560 1_454
La1 O3 2.345236 1_545
La1 O1 2.345236 1_455
La1 O5 2.345242 1_445
La1 O7 2.345242 1_555
La1 O10 2.351560 1_455
La1 O8 2.351560 1_545
Ir0 O10 1.980754 1_555
Ir0 O8 1.980754 1_544
Ir0 O2 1.988691 1_544
Ir0 O0 1.988691 1_555
Ir0 O4 1.989601 1_545
Ir0 O6 1.989601 1_554
Ir1 O11 1.980754 1_555
Ir1 O9 1.980754 1_555
Ir1 O1 1.988691 1_555
Ir1 O3 1.988691 1_555
Ir1 O5 1.989601 1_555
Ir1 O7 1.989601 1_555
