# generated using pymatgen
data_ErSnGe
_symmetry_space_group_name_H-M   'P 1'
_cell_length_a   8.44563444
_cell_length_b   8.44563444
_cell_length_c   4.03204471
_cell_angle_alpha   90.00000000
_cell_angle_beta   90.00000000
_cell_angle_gamma   151.24047630
_symmetry_Int_Tables_number   1
_chemical_formula_structural   ErSnGe
_chemical_formula_sum   'Er2 Sn2 Ge2'
_cell_volume   138.37460367
_cell_formula_units_Z   2
loop_
 _symmetry_equiv_pos_site_id
 _symmetry_equiv_pos_as_xyz
  1  'x, y, z'
loop_
 _atom_site_type_symbol
 _atom_site_label
 _atom_site_symmetry_multiplicity
 _atom_site_fract_x
 _atom_site_fract_y
 _atom_site_fract_z
 _atom_site_occupancy
  Er  Er0  1  0.90490697  0.09509303  0.75000000  1
  Er  Er1  1  0.09509303  0.90490697  0.25000000  1
  Sn  Sn0  1  0.25621873  0.74378127  0.75000000  1
  Sn  Sn1  1  0.74378127  0.25621873  0.25000000  1
  Ge  Ge0  1  0.55172913  0.44827087  0.75000000  1
  Ge  Ge1  1  0.44827087  0.55172913  0.25000000  1
loop_
_geom_bond_atom_site_label_1
_geom_bond_atom_site_label_2
_geom_bond_distance
_geom_bond_site_symmetry_2
Er0 Ge1 2.994509 1_656
Er0 Ge1 2.994509 1_545
Er0 Ge1 2.994509 1_546
Er0 Ge1 2.994509 1_655
Er0 Ge0 3.189112 1_655
Er0 Ge0 3.189112 1_545
Er0 Sn0 3.212175 1_655
Er0 Sn0 3.212175 1_545
Er0 Sn1 3.318840 1_555
Er0 Sn1 3.318840 1_556
Er1 Ge0 2.994509 1_455
Er1 Ge0 2.994509 1_454
Er1 Ge0 2.994509 1_565
Er1 Ge0 2.994509 1_564
Er1 Ge1 3.189112 1_455
Er1 Ge1 3.189112 1_565
Er1 Sn1 3.212175 1_455
Er1 Sn1 3.212175 1_565
Er1 Sn0 3.318840 1_554
Er1 Sn0 3.318840 1_555
Sn0 Sn1 2.916346 1_455
Sn0 Sn1 2.916346 1_565
Sn0 Sn1 2.916346 1_566
Sn0 Sn1 2.916346 1_456
Ge0 Ge1 2.632469 1_555
Ge0 Ge1 2.632469 1_556
