# generated using pymatgen
data_Li9Mn2Co5O16
_symmetry_space_group_name_H-M   'P 1'
_cell_length_a   3.01946400
_cell_length_b   9.97602488
_cell_length_c   10.71885664
_cell_angle_alpha   114.84372577
_cell_angle_beta   94.41501525
_cell_angle_gamma   92.98780285
_symmetry_Int_Tables_number   1
_chemical_formula_structural   Li9Mn2Co5O16
_chemical_formula_sum   'Li9 Mn2 Co5 O16'
_cell_volume   290.85092925
_cell_formula_units_Z   1
loop_
 _symmetry_equiv_pos_site_id
 _symmetry_equiv_pos_as_xyz
  1  'x, y, z'
loop_
 _atom_site_type_symbol
 _atom_site_label
 _atom_site_symmetry_multiplicity
 _atom_site_fract_x
 _atom_site_fract_y
 _atom_site_fract_z
 _atom_site_occupancy
  Li  Li0  1  0.12960400  0.93964700  0.25611300  1
  Li  Li1  1  0.86774600  0.05951000  0.74685000  1
  Li  Li2  1  0.63171400  0.19321800  0.25584400  1
  Li  Li3  1  0.62339300  0.69059600  0.25365300  1
  Li  Li4  1  0.37245400  0.81074400  0.74723500  1
  Li  Li5  1  0.12940000  0.43607400  0.25025500  1
  Li  Li6  1  0.87600800  0.56175700  0.74865600  1
  Li  Li7  1  0.37258400  0.30673100  0.74088800  1
  Li  Li8  1  0.75020600  0.12473800  0.49956000  1
  Mn  Mn0  1  0.00023700  0.99997100  0.00068100  1
  Mn  Mn1  1  0.99959200  0.49990300  0.99925200  1
  Co  Co0  1  0.49996200  0.24972700  0.99926400  1
  Co  Co1  1  0.25061800  0.36687400  0.50205100  1
  Co  Co2  1  0.75013500  0.62480900  0.49961500  1
  Co  Co3  1  0.50139900  0.75045000  0.00097200  1
  Co  Co4  1  0.24972500  0.88356100  0.49867700  1
  O  O0  1  0.58400000  0.96118200  0.11716500  1
  O  O1  1  0.31049100  0.07067300  0.61500300  1
  O  O2  1  0.08654600  0.21429600  0.11343600  1
  O  O3  1  0.08595400  0.71359000  0.11359400  1
  O  O4  1  0.83625400  0.83295100  0.61450200  1
  O  O5  1  0.58460700  0.46008100  0.11551800  1
  O  O6  1  0.29373400  0.57935200  0.60979600  1
  O  O7  1  0.82267700  0.34598400  0.61547600  1
  O  O8  1  0.67776300  0.90412000  0.38552600  1
  O  O9  1  0.41749800  0.03954300  0.88560900  1
  O  O10  1  0.18719800  0.17977500  0.38441000  1
  O  O11  1  0.20458700  0.67113300  0.38952500  1
  O  O12  1  0.91049400  0.78654600  0.88533700  1
  O  O13  1  0.66433700  0.41677300  0.38615200  1
  O  O14  1  0.41829200  0.54027700  0.88555100  1
  O  O15  1  0.91079100  0.28541400  0.88383300  1
loop_
_geom_bond_atom_site_label_1
_geom_bond_atom_site_label_2
_geom_bond_distance
_geom_bond_site_symmetry_2
Li0 O3 2.116584 1_555
Li0 O8 2.136649 1_455
Li0 O0 2.167851 1_555
Li0 O10 2.193516 1_565
Li0 O0 2.215036 1_455
Li0 O8 2.215878 1_555
Li1 O1 2.050477 1_655
Li1 O4 2.095815 1_545
Li1 O15 2.100283 1_555
Li1 O1 2.150936 1_555
Li1 O9 2.152242 1_555
Li1 O9 2.215989 1_655
Li2 O10 2.034674 1_555
Li2 O13 2.067066 1_555
Li2 O10 2.133819 1_655
Li2 O0 2.151645 1_545
Li2 O2 2.196069 1_655
Li2 O2 2.236716 1_555
Li3 O8 1.990011 1_555
Li3 O11 2.062398 1_555
Li3 O5 2.139720 1_555
Li3 O3 2.199084 1_655
Li3 O3 2.211999 1_555
Li3 O11 2.262316 1_655
Li4 O9 2.126046 1_565
Li4 O4 2.138633 1_555
Li4 O6 2.141661 1_555
Li4 O4 2.154568 1_455
Li4 O12 2.185929 1_455
Li4 O12 2.204484 1_555
Li5 O2 2.068081 1_555
Li5 O5 2.143431 1_555
Li5 O13 2.157139 1_455
Li5 O13 2.161883 1_555
Li5 O11 2.174780 1_555
Li5 O5 2.194325 1_455
Li6 O7 2.010890 1_555
Li6 O6 2.079086 1_655
Li6 O12 2.092258 1_555
Li6 O14 2.157477 1_555
Li6 O14 2.193407 1_655
Li6 O6 2.277307 1_555
Li7 O7 2.115544 1_555
Li7 O1 2.155563 1_555
Li7 O14 2.179338 1_555
Li7 O7 2.209951 1_455
Li7 O15 2.215617 1_455
Li7 O15 2.227170 1_555
Li8 O8 2.008467 1_545
Li8 O7 2.016583 1_555
Li8 O10 2.076196 1_655
Li8 O1 2.079425 1_555
Li8 O1 2.240042 1_655
Li8 O10 2.249119 1_555
Mn0 O12 1.952316 1_454
Mn0 O2 1.955035 1_565
Mn0 O9 1.964980 1_564
Mn0 O0 1.971076 1_455
Mn0 O9 2.218265 1_464
Mn0 O0 2.225729 1_555
Mn1 O3 1.952408 1_656
Mn1 O14 1.960232 1_655
Mn1 O15 1.961039 1_555
Mn1 O5 1.971184 1_556
Mn1 O14 2.210242 1_555
Mn1 O5 2.231917 1_656
Co0 O9 1.922269 1_555
Co0 O5 1.928609 1_556
Co0 O2 1.932233 1_556
Co0 O15 1.938256 1_555
Co0 O2 2.203331 1_656
Co0 O15 2.218035 1_455
Co1 O10 1.748832 1_555
Co1 O7 1.902084 1_455
Co1 O6 1.932575 1_555
Co1 O13 2.011317 1_555
Co1 O7 2.105297 1_555
Co1 O13 2.279877 1_455
Co2 O13 1.904709 1_555
Co2 O4 1.908252 1_555
Co2 O11 2.032344 1_655
Co2 O6 2.033475 1_555
Co2 O6 2.126907 1_655
Co2 O11 2.134912 1_555
Co3 O14 1.925449 1_554
Co3 O3 1.929801 1_555
Co3 O0 1.931398 1_555
Co3 O12 1.938092 1_554
Co3 O3 2.195561 1_655
Co3 O12 2.225069 1_454
Co4 O1 1.745287 1_565
Co4 O8 1.899003 1_555
Co4 O11 1.933987 1_555
Co4 O4 2.013592 1_455
Co4 O8 2.102171 1_455
Co4 O4 2.283445 1_555
