# generated using pymatgen
data_Ba2YW2F11
_symmetry_space_group_name_H-M   'P 1'
_cell_length_a   7.88211627
_cell_length_b   7.88211627
_cell_length_c   15.15862700
_cell_angle_alpha   90.00000000
_cell_angle_beta   90.00000000
_cell_angle_gamma   120.00000224
_symmetry_Int_Tables_number   1
_chemical_formula_structural   Ba2YW2F11
_chemical_formula_sum   'Ba6 Y3 W6 F33'
_cell_volume   815.59801856
_cell_formula_units_Z   3
loop_
 _symmetry_equiv_pos_site_id
 _symmetry_equiv_pos_as_xyz
  1  'x, y, z'
loop_
 _atom_site_type_symbol
 _atom_site_label
 _atom_site_symmetry_multiplicity
 _atom_site_fract_x
 _atom_site_fract_y
 _atom_site_fract_z
 _atom_site_occupancy
  Ba  Ba0  1  0.87403500  0.91921500  0.67562600  1
  Ba  Ba1  1  0.49541200  0.19446400  0.80220200  1
  Ba  Ba2  1  0.04518000  0.12596500  0.00895900  1
  Ba  Ba3  1  0.80553600  0.30094700  0.46886800  1
  Ba  Ba4  1  0.69905300  0.50458800  0.13553500  1
  Ba  Ba5  1  0.08078500  0.95482000  0.34229200  1
  Y  Y0  1  0.53787100  0.70110900  0.88592700  1
  Y  Y1  1  0.16323800  0.46212900  0.21926100  1
  Y  Y2  1  0.29889100  0.83676200  0.55259400  1
  W  W0  1  0.00835400  0.63488100  0.89786000  1
  W  W1  1  0.10321700  0.49275200  0.73392500  1
  W  W2  1  0.50724800  0.61046400  0.40059200  1
  W  W3  1  0.62652700  0.99164600  0.23119300  1
  W  W4  1  0.38953600  0.89678300  0.06725800  1
  W  W5  1  0.36511900  0.37347300  0.56452700  1
  F  F0  1  0.08848700  0.82272500  0.07094300  1
  F  F1  1  0.79367600  0.35805700  0.92620100  1
  F  F2  1  0.73423700  0.91151300  0.40427700  1
  F  F3  1  0.41333500  0.07637400  0.45388000  1
  F  F4  1  0.82903100  0.90583700  0.19151000  1
  F  F5  1  0.22474100  0.24537500  0.16536300  1
  F  F6  1  0.92362600  0.33696100  0.12054700  1
  F  F7  1  0.75462500  0.97936500  0.83202900  1
  F  F8  1  0.07680600  0.17096900  0.52484300  1
  F  F9  1  0.64828400  0.92326900  0.00766800  1
  F  F10  1  0.66303900  0.58666500  0.78721400  1
  F  F11  1  0.17727500  0.26576300  0.73761000  1
  F  F12  1  0.75182100  0.66774300  0.97026400  1
  F  F13  1  0.44156600  0.17850300  0.03518500  1
  F  F14  1  0.91592200  0.24817900  0.30359800  1
  F  F15  1  0.64194300  0.43561900  0.59286800  1
  F  F16  1  0.32811100  0.82230800  0.91608200  1
  F  F17  1  0.27498600  0.35171600  0.34100100  1
  F  F18  1  0.27580300  0.67911000  0.41620300  1
  F  F19  1  0.33225700  0.08407800  0.63693100  1
  F  F20  1  0.40330800  0.72419700  0.74953600  1
  F  F21  1  0.82149700  0.26306400  0.70185200  1
  F  F22  1  0.73693600  0.55843400  0.36851900  1
  F  F23  1  0.49419700  0.67188900  0.24941500  1
  F  F24  1  0.07673100  0.72501400  0.67433500  1
  F  F25  1  0.09416300  0.92319400  0.85817600  1
  F  F26  1  0.56438100  0.20632400  0.25953400  1
  F  F27  1  0.34426200  0.38666300  0.90913100  1
  F  F28  1  0.04240100  0.65573800  0.24246400  1
  F  F29  1  0.32089000  0.59669200  0.08286900  1
  F  F30  1  0.02063500  0.77525900  0.49869600  1
  F  F31  1  0.17769200  0.50580300  0.58274900  1
  F  F32  1  0.61333700  0.95759900  0.57579800  1
loop_
_geom_bond_atom_site_label_1
_geom_bond_atom_site_label_2
_geom_bond_distance
_geom_bond_site_symmetry_2
Ba0 F7 2.679147 1_555
Ba0 F32 2.688044 1_555
Ba0 F24 2.709541 1_655
Ba0 F11 2.743755 1_665
Ba0 F10 2.852806 1_555
Ba0 F8 2.923157 1_665
Ba0 F21 2.966037 1_565
Ba1 F10 2.696188 1_555
Ba1 F19 2.751065 1_555
Ba1 F1 2.773323 1_555
Ba1 F21 2.796908 1_555
Ba1 F27 2.854223 1_555
Ba1 F25 2.920952 1_545
Ba1 F11 2.995292 1_555
Ba1 F16 3.074966 1_545
Ba1 F7 3.273744 1_545
Ba2 F5 2.679163 1_555
Ba2 F27 2.688044 1_554
Ba2 F9 2.709534 1_445
Ba2 F0 2.743751 1_545
Ba2 F6 2.852806 1_455
Ba2 F25 2.923157 1_544
Ba2 F13 2.966030 1_555
Ba3 F3 2.696188 1_555
Ba3 F14 2.751048 1_555
Ba3 F15 2.773339 1_555
Ba3 F22 2.796913 1_555
Ba3 F32 2.854227 1_545
Ba3 F8 2.920951 1_655
Ba3 F2 2.995272 1_545
Ba3 F31 3.074975 1_655
Ba3 F30 3.273746 1_655
Ba4 F6 2.696181 1_555
Ba4 F12 2.751065 1_554
Ba4 F26 2.773323 1_555
Ba4 F13 2.796912 1_555
Ba4 F28 2.854217 1_655
Ba4 F4 2.920958 1_555
Ba4 F0 2.995282 1_655
Ba4 F23 3.074972 1_555
Ba4 F5 3.273746 1_555
Ba5 F30 2.679164 1_555
Ba5 F28 2.688044 1_555
Ba5 F17 2.709534 1_565
Ba5 F2 2.743763 1_455
Ba5 F3 2.852806 1_565
Ba5 F4 2.923145 1_455
Ba5 F22 2.966035 1_455
F0 W4 2.142286 1_555
F1 W0 2.028950 1_655
F2 W2 2.142282 1_555
F3 Y2 2.217240 1_545
F4 W3 2.108698 1_555
F5 Y1 2.156307 1_555
F6 Y1 2.217240 1_655
F7 Y0 2.156302 1_555
F8 W5 2.108703 1_555
F9 W4 2.143187 1_555
F9 Y0 2.388591 1_554
F10 Y0 2.217230 1_555
F11 W1 2.142271 1_555
F12 Y0 2.234041 1_555
F12 W0 2.425701 1_655
F13 W4 2.103507 1_545
F14 Y1 2.234041 1_655
F14 W3 2.425707 1_545
F15 W5 2.028951 1_555
F16 W0 2.210795 1_555
F16 Y0 2.331220 1_555
F16 W4 2.355062 1_556
F17 W2 2.143193 1_555
F17 Y1 2.388583 1_555
F18 W2 2.159588 1_555
F18 Y2 2.371850 1_555
F19 Y2 2.234041 1_545
F19 W5 2.425701 1_555
F20 W1 2.159587 1_555
F20 Y0 2.371846 1_555
F21 W1 2.103501 1_655
F22 W2 2.103492 1_555
F23 W3 2.210795 1_555
F23 Y1 2.331217 1_555
F23 W2 2.355078 1_555
F24 W1 2.143187 1_555
F24 Y2 2.388591 1_555
F25 W0 2.108703 1_555
F26 W3 2.028951 1_545
F27 Y0 2.193900 1_555
F28 Y1 2.193897 1_555
F29 W4 2.159587 1_555
F29 Y1 2.371861 1_555
F30 Y2 2.156299 1_555
F31 W5 2.210795 1_555
F31 Y2 2.331220 1_555
F31 W1 2.355061 1_555
F32 Y2 2.193900 1_555
