# generated using pymatgen
data_NaYTiNbO6F
_symmetry_space_group_name_H-M   'P 1'
_cell_length_a   7.31100317
_cell_length_b   7.31100317
_cell_length_c   7.31100317
_cell_angle_alpha   121.64887860
_cell_angle_beta   117.97829370
_cell_angle_gamma   90.35240881
_symmetry_Int_Tables_number   1
_chemical_formula_structural   NaYTiNbO6F
_chemical_formula_sum   'Na2 Y2 Ti2 Nb2 O12 F2'
_cell_volume   276.74239154
_cell_formula_units_Z   2
loop_
 _symmetry_equiv_pos_site_id
 _symmetry_equiv_pos_as_xyz
  1  'x, y, z'
loop_
 _atom_site_type_symbol
 _atom_site_label
 _atom_site_symmetry_multiplicity
 _atom_site_fract_x
 _atom_site_fract_y
 _atom_site_fract_z
 _atom_site_occupancy
  Na  Na0  1  0.50000000  0.00000000  0.00000000  1
  Na  Na1  1  0.50000000  0.50000000  0.50000000  1
  Y  Y0  1  0.50000000  0.00000000  0.50000000  1
  Y  Y1  1  0.00000000  0.00000000  0.00000000  1
  Ti  Ti0  1  0.00000000  0.50000000  0.00000000  1
  Ti  Ti1  1  0.00000000  0.00000000  0.50000000  1
  Nb  Nb0  1  0.00000000  0.50000000  0.50000000  1
  Nb  Nb1  1  0.50000000  0.50000000  0.00000000  1
  O  O0  1  0.92067500  0.17067500  0.75000000  1
  O  O1  1  0.31866700  0.56866700  0.75000000  1
  O  O2  1  0.93575800  0.58834900  0.76786100  1
  O  O3  1  0.32048800  0.16789600  0.73213900  1
  O  O4  1  0.93575800  0.16789600  0.34740800  1
  O  O5  1  0.32048800  0.58834900  0.15259200  1
  O  O6  1  0.07932500  0.82932500  0.25000000  1
  O  O7  1  0.68133300  0.43133300  0.25000000  1
  O  O8  1  0.06424200  0.41165100  0.23213900  1
  O  O9  1  0.67951200  0.83210400  0.26786100  1
  O  O10  1  0.06424200  0.83210400  0.65259200  1
  O  O11  1  0.67951200  0.41165100  0.84740800  1
  F  F0  1  0.63276900  0.88276900  0.75000000  1
  F  F1  1  0.36723100  0.11723100  0.25000000  1
loop_
_geom_bond_atom_site_label_1
_geom_bond_atom_site_label_2
_geom_bond_distance
_geom_bond_site_symmetry_2
Na0 O7 2.582449 1_555
Na0 O1 2.582449 1_544
Na0 O9 2.682383 1_545
Na0 O3 2.682383 1_554
Na0 O4 2.682389 1_555
Na0 O10 2.682389 1_544
Na1 O7 2.582449 1_555
Na1 O1 2.582449 1_555
Na1 O11 2.682383 1_555
Na1 O5 2.682383 1_555
Na1 O2 2.682390 1_555
Na1 O8 2.682390 1_555
Nb0 O2 2.003038 1_455
Nb0 O8 2.003038 1_555
Nb0 O10 2.003044 1_555
Nb0 O4 2.003044 1_455
Nb0 O7 2.011924 1_455
Nb0 O1 2.011924 1_555
Nb1 O5 2.003043 1_555
Nb1 O9 2.003043 1_555
Nb1 O3 2.003043 1_554
Nb1 O11 2.003043 1_554
Nb1 O1 2.011924 1_554
Nb1 O7 2.011924 1_555
O0 Ti0 1.960637 1_656
O0 Ti1 1.960637 1_655
O0 Y0 2.577162 1_555
O0 Y1 2.577162 1_656
O2 Ti0 1.981016 1_656
O2 Y1 2.456225 1_666
O3 Ti1 1.981015 1_555
O3 Y0 2.456224 1_555
O4 Ti1 1.981015 1_655
O4 Y1 2.456219 1_655
O5 Ti0 1.981015 1_555
O5 Y0 2.456224 1_565
O6 Ti1 1.960637 1_565
O6 Ti0 1.960637 1_555
O6 Y1 2.577162 1_565
O6 Y0 2.577162 1_565
O8 Ti0 1.981016 1_555
O8 Y1 2.456225 1_555
O9 Ti1 1.981015 1_665
O9 Y0 2.456224 1_565
O10 Ti1 1.981015 1_565
O10 Y1 2.456219 1_566
O11 Ti0 1.981015 1_656
O11 Y0 2.456224 1_555
F0 Y1 2.237633 1_666
F0 Y0 2.237633 1_565
F0 Na1 2.246862 1_555
F0 Na0 2.246862 1_566
F1 Y0 2.237633 1_555
F1 Y1 2.237633 1_555
F1 Na0 2.246862 1_555
F1 Na1 2.246862 1_555
