# generated using pymatgen
data_Zn2AgSbO6
_symmetry_space_group_name_H-M   'P 1'
_cell_length_a   7.75366200
_cell_length_b   5.48904900
_cell_length_c   5.58995487
_cell_angle_alpha   82.46943422
_cell_angle_beta   90.00000000
_cell_angle_gamma   90.00000000
_symmetry_Int_Tables_number   1
_chemical_formula_structural   Zn2AgSbO6
_chemical_formula_sum   'Zn4 Ag2 Sb2 O12'
_cell_volume   235.85781771
_cell_formula_units_Z   2
loop_
 _symmetry_equiv_pos_site_id
 _symmetry_equiv_pos_as_xyz
  1  'x, y, z'
loop_
 _atom_site_type_symbol
 _atom_site_label
 _atom_site_symmetry_multiplicity
 _atom_site_fract_x
 _atom_site_fract_y
 _atom_site_fract_z
 _atom_site_occupancy
  Zn  Zn0  1  0.25000000  0.54431800  0.48449400  1
  Zn  Zn1  1  0.75000000  0.45568200  0.51550600  1
  Zn  Zn2  1  0.25000000  0.01517400  0.93919900  1
  Zn  Zn3  1  0.75000000  0.98482600  0.06080100  1
  Ag  Ag0  1  0.50000000  0.00000000  0.50000000  1
  Ag  Ag1  1  0.00000000  0.00000000  0.50000000  1
  Sb  Sb0  1  0.50000000  0.50000000  0.00000000  1
  Sb  Sb1  1  0.00000000  0.50000000  0.00000000  1
  O  O0  1  0.56209300  0.65399300  0.66069900  1
  O  O1  1  0.92635100  0.20102500  0.88025900  1
  O  O2  1  0.06209300  0.34600700  0.33930100  1
  O  O3  1  0.42635100  0.79897500  0.11974100  1
  O  O4  1  0.57364900  0.20102500  0.88025900  1
  O  O5  1  0.07364900  0.79897500  0.11974100  1
  O  O6  1  0.75000000  0.60220100  0.12511200  1
  O  O7  1  0.93790700  0.65399300  0.66069900  1
  O  O8  1  0.25000000  0.88886000  0.60302500  1
  O  O9  1  0.43790700  0.34600700  0.33930100  1
  O  O10  1  0.25000000  0.39779900  0.87488800  1
  O  O11  1  0.75000000  0.11114000  0.39697500  1
loop_
_geom_bond_atom_site_label_1
_geom_bond_atom_site_label_2
_geom_bond_distance
_geom_bond_site_symmetry_2
Ag0 O0 2.049073 1_545
Ag0 O9 2.049073 1_555
Ag0 O8 2.090263 1_545
Ag0 O11 2.090263 1_555
Ag0 O4 2.583941 1_555
Ag0 O3 2.583941 1_545
Ag1 O7 2.049073 1_445
Ag1 O2 2.049073 1_555
Ag1 O8 2.090263 1_545
Ag1 O11 2.090263 1_455
Ag1 O1 2.583941 1_455
Ag1 O5 2.583941 1_545
O0 Sb0 2.030628 1_556
O0 Zn1 2.048895 1_555
O1 Sb1 1.937837 1_656
O1 Zn3 1.995650 1_546
O2 Sb1 2.030628 1_555
O2 Zn0 2.048895 1_555
O3 Sb0 1.937837 1_555
O3 Zn2 1.995650 1_564
O4 Sb0 1.937837 1_556
O4 Zn3 1.995650 1_546
O5 Sb1 1.937837 1_555
O5 Zn2 1.995650 1_564
O6 Zn3 2.083837 1_555
O6 Sb1 2.159656 1_655
O6 Sb0 2.159656 1_555
O6 Zn1 2.224670 1_555
O7 Sb1 2.030628 1_656
O7 Zn1 2.048895 1_555
O8 Zn0 2.084257 1_555
O8 Zn2 2.086533 1_565
O9 Sb0 2.030628 1_555
O9 Zn0 2.048895 1_555
O10 Zn2 2.083837 1_555
O10 Sb0 2.159656 1_556
O10 Sb1 2.159656 1_556
O10 Zn0 2.224670 1_555
O11 Zn1 2.084257 1_555
O11 Zn3 2.086533 1_545
