# generated using pymatgen
data_Eu5Mg
_symmetry_space_group_name_H-M   'P 1'
_cell_length_a   19.65729410
_cell_length_b   19.65729410
_cell_length_c   12.33938400
_cell_angle_alpha   90.00000000
_cell_angle_beta   90.00000000
_cell_angle_gamma   156.48498198
_symmetry_Int_Tables_number   1
_chemical_formula_structural   Eu5Mg
_chemical_formula_sum   'Eu40 Mg8'
_cell_volume   1902.40220330
_cell_formula_units_Z   8
loop_
 _symmetry_equiv_pos_site_id
 _symmetry_equiv_pos_as_xyz
  1  'x, y, z'
loop_
 _atom_site_type_symbol
 _atom_site_label
 _atom_site_symmetry_multiplicity
 _atom_site_fract_x
 _atom_site_fract_y
 _atom_site_fract_z
 _atom_site_occupancy
  Eu  Eu0_0  1  0.49830100  0.00169900  0.00000000  1
  Eu  Eu0_1  1  0.49830100  0.00169900  0.50000000  1
  Eu  Eu0_2  1  0.49830100  0.50169900  0.00000000  1
  Eu  Eu0_3  1  0.49830100  0.50169900  0.50000000  1
  Eu  Eu0_4  1  0.99830100  0.00169900  0.00000000  1
  Eu  Eu0_5  1  0.99830100  0.00169900  0.50000000  1
  Eu  Eu0_6  1  0.99830100  0.50169900  0.00000000  1
  Eu  Eu0_7  1  0.99830100  0.50169900  0.50000000  1
  Eu  Eu1_0  1  0.16248750  0.33751250  0.00000000  1
  Eu  Eu1_1  1  0.16248750  0.33751250  0.50000000  1
  Eu  Eu1_2  1  0.16248750  0.83751250  0.00000000  1
  Eu  Eu1_3  1  0.16248750  0.83751250  0.50000000  1
  Eu  Eu1_4  1  0.66248750  0.33751250  0.00000000  1
  Eu  Eu1_5  1  0.66248750  0.33751250  0.50000000  1
  Eu  Eu1_6  1  0.66248750  0.83751250  0.00000000  1
  Eu  Eu1_7  1  0.66248750  0.83751250  0.50000000  1
  Eu  Eu2_0  1  0.33246100  0.16753900  0.00000000  1
  Eu  Eu2_1  1  0.33246100  0.16753900  0.50000000  1
  Eu  Eu2_2  1  0.33246100  0.66753900  0.00000000  1
  Eu  Eu2_3  1  0.33246100  0.66753900  0.50000000  1
  Eu  Eu2_4  1  0.83246100  0.16753900  0.00000000  1
  Eu  Eu2_5  1  0.83246100  0.16753900  0.50000000  1
  Eu  Eu2_6  1  0.83246100  0.66753900  0.00000000  1
  Eu  Eu2_7  1  0.83246100  0.66753900  0.50000000  1
  Eu  Eu3_0  1  0.21970150  0.28029850  0.25000000  1
  Eu  Eu3_1  1  0.21970150  0.28029850  0.75000000  1
  Eu  Eu3_2  1  0.21970150  0.78029850  0.25000000  1
  Eu  Eu3_3  1  0.21970150  0.78029850  0.75000000  1
  Eu  Eu3_4  1  0.71970150  0.28029850  0.25000000  1
  Eu  Eu3_5  1  0.71970150  0.28029850  0.75000000  1
  Eu  Eu3_6  1  0.71970150  0.78029850  0.25000000  1
  Eu  Eu3_7  1  0.71970150  0.78029850  0.75000000  1
  Eu  Eu4_0  1  0.06263850  0.43736150  0.25000000  1
  Eu  Eu4_1  1  0.06263850  0.43736150  0.75000000  1
  Eu  Eu4_2  1  0.06263850  0.93736150  0.25000000  1
  Eu  Eu4_3  1  0.06263850  0.93736150  0.75000000  1
  Eu  Eu4_4  1  0.56263850  0.43736150  0.25000000  1
  Eu  Eu4_5  1  0.56263850  0.43736150  0.75000000  1
  Eu  Eu4_6  1  0.56263850  0.93736150  0.25000000  1
  Eu  Eu4_7  1  0.56263850  0.93736150  0.75000000  1
  Mg  Mg0_0  1  0.39107850  0.10892150  0.25000000  1
  Mg  Mg0_1  1  0.39107850  0.10892150  0.75000000  1
  Mg  Mg0_2  1  0.39107850  0.60892150  0.25000000  1
  Mg  Mg0_3  1  0.39107850  0.60892150  0.75000000  1
  Mg  Mg0_4  1  0.89107850  0.10892150  0.25000000  1
  Mg  Mg0_5  1  0.89107850  0.10892150  0.75000000  1
  Mg  Mg0_6  1  0.89107850  0.60892150  0.25000000  1
  Mg  Mg0_7  1  0.89107850  0.60892150  0.75000000  1
loop_
_geom_bond_atom_site_label_1
_geom_bond_atom_site_label_2
_geom_bond_distance
_geom_bond_site_symmetry_2
Eu0_0 Eu2_2 3.808435 1_545
Eu0_0 Eu2_4 3.808435 1_555
Eu0_0 Eu3_2 3.839160 1_545
Eu0_0 Eu3_4 3.839160 1_555
Eu0_0 Eu3_3 3.839160 1_544
Eu0_0 Eu3_5 3.839160 1_554
Eu0_0 Eu1_4 3.862712 1_555
Eu0_0 Eu1_2 3.862712 1_545
Eu0_0 Eu4_6 3.955818 1_545
Eu0_0 Eu4_7 3.955818 1_544
Eu0_0 Eu0_6 4.005568 1_555
Eu0_0 Eu0_6 4.005568 1_445
Eu0_1 Eu2_3 3.808435 1_545
Eu0_1 Eu2_5 3.808435 1_555
Eu0_1 Eu3_3 3.839160 1_545
Eu0_1 Eu3_2 3.839160 1_545
Eu0_1 Eu3_5 3.839160 1_555
Eu0_1 Eu3_4 3.839160 1_555
Eu0_1 Eu1_5 3.862712 1_555
Eu0_1 Eu1_3 3.862712 1_545
Eu0_1 Eu4_7 3.955818 1_545
Eu0_1 Eu4_6 3.955818 1_545
Eu0_1 Eu0_7 4.005568 1_445
Eu0_1 Eu0_7 4.005568 1_555
Eu0_2 Eu2_0 3.808435 1_555
Eu0_2 Eu2_6 3.808435 1_555
Eu0_2 Eu3_6 3.839160 1_555
Eu0_2 Eu3_0 3.839160 1_555
Eu0_2 Eu3_1 3.839160 1_554
Eu0_2 Eu3_7 3.839160 1_554
Eu0_2 Eu1_6 3.862712 1_555
Eu0_2 Eu1_0 3.862712 1_555
Eu0_2 Eu4_4 3.955818 1_555
Eu0_2 Eu4_5 3.955818 1_554
Eu0_2 Eu0_4 4.005568 1_455
Eu0_2 Eu0_4 4.005568 1_565
Eu0_3 Eu2_1 3.808435 1_555
Eu0_3 Eu2_7 3.808435 1_555
Eu0_3 Eu3_6 3.839160 1_555
Eu0_3 Eu3_0 3.839160 1_555
Eu0_3 Eu3_7 3.839160 1_555
Eu0_3 Eu3_1 3.839160 1_555
Eu0_3 Eu1_7 3.862712 1_555
Eu0_3 Eu1_1 3.862712 1_555
Eu0_3 Eu4_5 3.955818 1_555
Eu0_3 Eu4_4 3.955818 1_555
Eu0_3 Eu0_5 4.005568 1_455
Eu0_3 Eu0_5 4.005568 1_565
Eu0_4 Eu2_0 3.808435 1_655
Eu0_4 Eu2_6 3.808435 1_545
Eu0_4 Eu3_0 3.839160 1_655
Eu0_4 Eu3_6 3.839160 1_545
Eu0_4 Eu3_1 3.839160 1_654
Eu0_4 Eu3_7 3.839160 1_544
Eu0_4 Eu1_0 3.862712 1_655
Eu0_4 Eu1_6 3.862712 1_545
Eu0_4 Eu4_2 3.955818 1_645
Eu0_4 Eu4_3 3.955818 1_644
Eu0_5 Eu2_1 3.808435 1_655
Eu0_5 Eu2_7 3.808435 1_545
Eu0_5 Eu3_1 3.839160 1_655
Eu0_5 Eu3_7 3.839160 1_545
Eu0_5 Eu3_0 3.839160 1_655
Eu0_5 Eu3_6 3.839160 1_545
Eu0_5 Eu1_1 3.862712 1_655
Eu0_5 Eu1_7 3.862712 1_545
Eu0_5 Eu4_3 3.955818 1_645
Eu0_5 Eu4_2 3.955818 1_645
Eu0_6 Eu2_2 3.808435 1_655
Eu0_6 Eu2_4 3.808435 1_555
Eu0_6 Eu3_2 3.839160 1_655
Eu0_6 Eu3_4 3.839160 1_555
Eu0_6 Eu3_5 3.839160 1_554
Eu0_6 Eu3_3 3.839160 1_654
Eu0_6 Eu1_2 3.862712 1_655
Eu0_6 Eu1_4 3.862712 1_555
Eu0_6 Eu4_0 3.955818 1_655
Eu0_6 Eu4_1 3.955818 1_654
Eu0_7 Eu2_3 3.808435 1_655
Eu0_7 Eu2_5 3.808435 1_555
Eu0_7 Eu3_3 3.839160 1_655
Eu0_7 Eu3_5 3.839160 1_555
Eu0_7 Eu3_2 3.839160 1_655
Eu0_7 Eu3_4 3.839160 1_555
Eu0_7 Eu1_3 3.862712 1_655
Eu0_7 Eu1_5 3.862712 1_555
Eu0_7 Eu4_1 3.955818 1_655
Eu0_7 Eu4_0 3.955818 1_655
Eu1_0 Eu2_4 3.674066 1_455
Eu1_0 Eu2_2 3.674066 1_555
Eu1_0 Mg0_2 3.769143 1_555
Eu1_0 Mg0_4 3.769143 1_455
Eu1_0 Mg0_3 3.769143 1_554
Eu1_0 Mg0_5 3.769143 1_454
Eu1_0 Eu3_0 3.790217 1_555
Eu1_0 Eu3_1 3.790217 1_554
Eu1_0 Eu1_6 4.005568 1_445
Eu1_0 Eu1_6 4.005568 1_555
Eu1_1 Eu2_5 3.674066 1_455
Eu1_1 Eu2_3 3.674066 1_555
Eu1_1 Mg0_3 3.769143 1_555
Eu1_1 Mg0_5 3.769143 1_455
Eu1_1 Mg0_2 3.769143 1_555
Eu1_1 Mg0_4 3.769143 1_455
Eu1_1 Eu3_1 3.790217 1_555
Eu1_1 Eu3_0 3.790217 1_555
Eu1_1 Eu1_7 4.005568 1_445
Eu1_1 Eu1_7 4.005568 1_555
Eu1_2 Eu2_6 3.674066 1_455
Eu1_2 Eu2_0 3.674066 1_565
Eu1_2 Mg0_0 3.769143 1_565
Eu1_2 Mg0_6 3.769143 1_455
Eu1_2 Mg0_1 3.769143 1_564
Eu1_2 Mg0_7 3.769143 1_454
Eu1_2 Eu3_2 3.790217 1_555
Eu1_2 Eu3_3 3.790217 1_554
Eu1_2 Eu1_4 4.005568 1_455
Eu1_2 Eu1_4 4.005568 1_565
Eu1_3 Eu2_7 3.674066 1_455
Eu1_3 Eu2_1 3.674066 1_565
Eu1_3 Mg0_1 3.769143 1_565
Eu1_3 Mg0_0 3.769143 1_565
Eu1_3 Mg0_7 3.769143 1_455
Eu1_3 Mg0_6 3.769143 1_455
Eu1_3 Eu3_3 3.790217 1_555
Eu1_3 Eu3_2 3.790217 1_555
Eu1_3 Eu1_5 4.005568 1_455
Eu1_3 Eu1_5 4.005568 1_565
Eu1_4 Eu2_0 3.674066 1_555
Eu1_4 Eu2_6 3.674066 1_555
Eu1_4 Mg0_6 3.769143 1_555
Eu1_4 Mg0_0 3.769143 1_555
Eu1_4 Mg0_7 3.769143 1_554
Eu1_4 Mg0_1 3.769143 1_554
Eu1_4 Eu3_4 3.790217 1_555
Eu1_4 Eu3_5 3.790217 1_554
Eu1_5 Eu2_1 3.674066 1_555
Eu1_5 Eu2_7 3.674066 1_555
Eu1_5 Mg0_7 3.769143 1_555
Eu1_5 Mg0_6 3.769143 1_555
Eu1_5 Mg0_1 3.769143 1_555
Eu1_5 Mg0_0 3.769143 1_555
Eu1_5 Eu3_5 3.790217 1_555
Eu1_5 Eu3_4 3.790217 1_555
Eu1_6 Eu2_2 3.674066 1_555
Eu1_6 Eu2_4 3.674066 1_565
Eu1_6 Mg0_4 3.769143 1_565
Eu1_6 Mg0_2 3.769143 1_555
Eu1_6 Mg0_5 3.769143 1_564
Eu1_6 Mg0_3 3.769143 1_554
Eu1_6 Eu3_6 3.790217 1_555
Eu1_6 Eu3_7 3.790217 1_554
Eu1_7 Eu2_3 3.674066 1_555
Eu1_7 Eu2_5 3.674066 1_565
Eu1_7 Mg0_4 3.769143 1_565
Eu1_7 Mg0_5 3.769143 1_565
Eu1_7 Mg0_3 3.769143 1_555
Eu1_7 Mg0_2 3.769143 1_555
Eu1_7 Eu3_7 3.790217 1_555
Eu1_7 Eu3_6 3.790217 1_555
Eu2_0 Eu4_4 3.756265 1_555
Eu2_0 Eu4_5 3.756265 1_554
Eu2_0 Eu4_2 3.756265 1_545
Eu2_0 Eu4_3 3.756265 1_544
Eu2_0 Mg0_0 3.821856 1_555
Eu2_0 Mg0_1 3.821856 1_554
Eu2_0 Eu2_6 4.005568 1_555
Eu2_0 Eu2_6 4.005568 1_445
Eu2_1 Eu4_5 3.756265 1_555
Eu2_1 Eu4_4 3.756265 1_555
Eu2_1 Eu4_3 3.756265 1_545
Eu2_1 Eu4_2 3.756265 1_545
Eu2_1 Mg0_1 3.821856 1_555
Eu2_1 Mg0_0 3.821856 1_555
Eu2_1 Eu2_7 4.005568 1_555
Eu2_1 Eu2_7 4.005568 1_445
Eu2_2 Eu4_6 3.756265 1_555
Eu2_2 Eu4_7 3.756265 1_554
Eu2_2 Eu4_0 3.756265 1_555
Eu2_2 Eu4_1 3.756265 1_554
Eu2_2 Mg0_2 3.821856 1_555
Eu2_2 Mg0_3 3.821856 1_554
Eu2_2 Eu2_4 4.005568 1_455
Eu2_2 Eu2_4 4.005568 1_565
Eu2_3 Eu4_7 3.756265 1_555
Eu2_3 Eu4_6 3.756265 1_555
Eu2_3 Eu4_1 3.756265 1_555
Eu2_3 Eu4_0 3.756265 1_555
Eu2_3 Mg0_3 3.821856 1_555
Eu2_3 Mg0_2 3.821856 1_555
Eu2_3 Eu2_5 4.005568 1_455
Eu2_3 Eu2_5 4.005568 1_565
Eu2_4 Eu4_0 3.756265 1_655
Eu2_4 Eu4_1 3.756265 1_654
Eu2_4 Eu4_6 3.756265 1_545
Eu2_4 Eu4_7 3.756265 1_544
Eu2_4 Mg0_4 3.821856 1_555
Eu2_4 Mg0_5 3.821856 1_554
Eu2_5 Eu4_1 3.756265 1_655
Eu2_5 Eu4_0 3.756265 1_655
Eu2_5 Eu4_7 3.756265 1_545
Eu2_5 Eu4_6 3.756265 1_545
Eu2_5 Mg0_5 3.821856 1_555
Eu2_5 Mg0_4 3.821856 1_555
Eu2_6 Eu4_2 3.756265 1_655
Eu2_6 Eu4_3 3.756265 1_654
Eu2_6 Eu4_4 3.756265 1_555
Eu2_6 Eu4_5 3.756265 1_554
Eu2_6 Mg0_6 3.821856 1_555
Eu2_6 Mg0_7 3.821856 1_554
Eu2_7 Eu4_3 3.756265 1_655
Eu2_7 Eu4_2 3.756265 1_655
Eu2_7 Eu4_4 3.756265 1_555
Eu2_7 Eu4_5 3.756265 1_555
Eu2_7 Mg0_7 3.821856 1_555
Eu2_7 Mg0_6 3.821856 1_555
Eu3_0 Mg0_2 3.628897 1_555
Eu3_0 Mg0_4 3.628897 1_455
Eu3_0 Eu3_6 4.005568 1_445
Eu3_0 Eu3_6 4.005568 1_555
Eu3_0 Eu4_4 4.099625 1_555
Eu3_0 Eu4_2 4.099625 1_545
Eu3_1 Mg0_3 3.628897 1_555
Eu3_1 Mg0_5 3.628897 1_455
Eu3_1 Eu3_7 4.005568 1_555
Eu3_1 Eu3_7 4.005568 1_445
Eu3_1 Eu4_5 4.099625 1_555
Eu3_1 Eu4_3 4.099625 1_545
Eu3_2 Mg0_0 3.628897 1_565
Eu3_2 Mg0_6 3.628897 1_455
Eu3_2 Eu3_4 4.005568 1_565
Eu3_2 Eu3_4 4.005568 1_455
Eu3_2 Eu4_6 4.099625 1_555
Eu3_2 Eu4_0 4.099625 1_555
Eu3_3 Mg0_1 3.628897 1_565
Eu3_3 Mg0_7 3.628897 1_455
Eu3_3 Eu3_5 4.005568 1_565
Eu3_3 Eu3_5 4.005568 1_455
Eu3_3 Eu4_7 4.099625 1_555
Eu3_3 Eu4_1 4.099625 1_555
Eu3_4 Mg0_6 3.628897 1_555
Eu3_4 Mg0_0 3.628897 1_555
Eu3_4 Eu4_0 4.099625 1_655
Eu3_4 Eu4_6 4.099625 1_545
Eu3_5 Mg0_7 3.628897 1_555
Eu3_5 Mg0_1 3.628897 1_555
Eu3_5 Eu4_1 4.099625 1_655
Eu3_5 Eu4_7 4.099625 1_545
Eu3_6 Mg0_4 3.628897 1_565
Eu3_6 Mg0_2 3.628897 1_555
Eu3_6 Eu4_2 4.099625 1_655
Eu3_6 Eu4_4 4.099625 1_555
Eu3_7 Mg0_5 3.628897 1_565
Eu3_7 Mg0_3 3.628897 1_555
Eu3_7 Eu4_3 4.099625 1_655
Eu3_7 Eu4_5 4.099625 1_555
Eu4_0 Mg0_2 3.623025 1_555
Eu4_0 Mg0_4 3.623025 1_455
Eu4_0 Eu4_6 4.005568 1_445
Eu4_0 Eu4_6 4.005568 1_555
Eu4_1 Mg0_3 3.623025 1_555
Eu4_1 Mg0_5 3.623025 1_455
Eu4_1 Eu4_7 4.005568 1_555
Eu4_1 Eu4_7 4.005568 1_445
Eu4_2 Mg0_6 3.623025 1_455
Eu4_2 Mg0_0 3.623025 1_565
Eu4_2 Eu4_4 4.005568 1_565
Eu4_2 Eu4_4 4.005568 1_455
Eu4_3 Mg0_7 3.623025 1_455
Eu4_3 Mg0_1 3.623025 1_565
Eu4_3 Eu4_5 4.005568 1_455
Eu4_3 Eu4_5 4.005568 1_565
Eu4_4 Mg0_6 3.623025 1_555
Eu4_4 Mg0_0 3.623025 1_555
Eu4_5 Mg0_7 3.623025 1_555
Eu4_5 Mg0_1 3.623025 1_555
Eu4_6 Mg0_2 3.623025 1_555
Eu4_6 Mg0_4 3.623025 1_565
Eu4_7 Mg0_3 3.623025 1_555
Eu4_7 Mg0_5 3.623025 1_565
