# generated using pymatgen
data_Mg14NbCd
_symmetry_space_group_name_H-M   'P 1'
_cell_length_a   6.35377224
_cell_length_b   6.34938761
_cell_length_c   10.03770781
_cell_angle_alpha   90.00000000
_cell_angle_beta   90.00000000
_cell_angle_gamma   119.97718020
_symmetry_Int_Tables_number   1
_chemical_formula_structural   Mg14NbCd
_chemical_formula_sum   'Mg14 Nb1 Cd1'
_cell_volume   350.77487899
_cell_formula_units_Z   1
loop_
 _symmetry_equiv_pos_site_id
 _symmetry_equiv_pos_as_xyz
  1  'x, y, z'
loop_
 _atom_site_type_symbol
 _atom_site_label
 _atom_site_symmetry_multiplicity
 _atom_site_fract_x
 _atom_site_fract_y
 _atom_site_fract_z
 _atom_site_occupancy
  Mg  Mg0  1  0.16661731  0.33330815  0.62500000  1
  Mg  Mg1  1  0.16719794  0.83359847  0.62500000  1
  Mg  Mg2  1  0.66593851  0.33019368  0.12500000  1
  Mg  Mg3  1  0.66631864  0.33266219  0.62500000  1
  Mg  Mg4  1  0.66593851  0.83574383  0.12500000  1
  Mg  Mg5  1  0.66631864  0.83365545  0.62500000  1
  Mg  Mg6  1  0.32887984  0.17053696  0.36866243  1
  Mg  Mg7  1  0.32887984  0.17053696  0.88133757  1
  Mg  Mg8  1  0.32887984  0.65834388  0.36866243  1
  Mg  Mg9  1  0.32887984  0.65834388  0.88133757  1
  Mg  Mg10  1  0.84251699  0.17125900  0.37078289  1
  Mg  Mg11  1  0.84251699  0.17125900  0.87921711  1
  Mg  Mg12  1  0.83420485  0.66710292  0.37266714  1
  Mg  Mg13  1  0.83420485  0.66710292  0.87733286  1
  Nb  Nb0  1  0.16453391  0.33226645  0.12500000  1
  Cd  Cd0  1  0.16817349  0.83408625  0.12500000  1
loop_
_geom_bond_atom_site_label_1
_geom_bond_atom_site_label_2
_geom_bond_distance
_geom_bond_site_symmetry_2
Mg0 Mg11 3.113413 1_455
Mg0 Mg10 3.113413 1_455
Mg0 Mg6 3.133107 1_555
Mg0 Mg7 3.133107 1_555
Mg0 Mg8 3.133113 1_555
Mg0 Mg9 3.133113 1_555
Mg0 Mg1 3.174695 1_545
Mg0 Mg1 3.174695 1_555
Mg0 Mg5 3.176736 1_445
Mg0 Mg3 3.176736 1_455
Mg0 Mg5 3.177040 1_555
Mg0 Mg3 3.177040 1_555
Mg1 Mg13 3.126368 1_455
Mg1 Mg12 3.126368 1_455
Mg1 Mg3 3.171118 1_565
Mg1 Mg5 3.171118 1_555
Mg1 Mg9 3.171189 1_555
Mg1 Mg8 3.171189 1_555
Mg1 Mg7 3.171195 1_565
Mg1 Mg6 3.171195 1_565
Mg1 Mg3 3.182654 1_455
Mg1 Mg5 3.182654 1_455
Mg2 Mg6 3.070272 1_555
Mg2 Mg7 3.070272 1_554
Mg2 Mg4 3.139454 1_545
Mg2 Nb0 3.161406 1_655
Mg2 Nb0 3.192407 1_555
Mg2 Mg4 3.209934 1_555
Mg3 Mg5 3.168387 1_545
Mg3 Mg7 3.173557 1_555
Mg3 Mg6 3.173557 1_555
Mg3 Mg5 3.181000 1_555
Mg4 Mg8 3.070272 1_555
Mg4 Mg9 3.070272 1_554
Mg4 Nb0 3.161406 1_665
Mg4 Nb0 3.192407 1_555
Mg5 Mg8 3.173557 1_555
Mg5 Mg9 3.173557 1_555
Mg6 Nb0 3.032890 1_555
Mg6 Mg8 3.097275 1_555
Mg6 Mg8 3.252112 1_545
Mg7 Nb0 3.032890 1_556
Mg7 Mg9 3.097275 1_555
Mg7 Mg9 3.252112 1_545
Mg8 Nb0 3.032897 1_555
Mg9 Nb0 3.032897 1_556
Mg10 Nb0 3.037707 1_655
Mg10 Mg2 3.081410 1_555
Mg10 Mg4 3.081416 1_545
Mg10 Mg8 3.092605 1_655
Mg10 Mg6 3.092605 1_655
Mg10 Mg3 3.156192 1_555
Mg10 Mg5 3.156198 1_545
Mg10 Mg12 3.175080 1_555
Mg10 Mg12 3.175080 1_545
Mg10 Mg8 3.261314 1_545
Mg10 Mg6 3.261315 1_555
Mg11 Nb0 3.037707 1_656
Mg11 Mg2 3.081410 1_556
Mg11 Mg4 3.081416 1_546
Mg11 Mg9 3.092605 1_655
Mg11 Mg7 3.092605 1_655
Mg11 Mg3 3.156192 1_555
Mg11 Mg5 3.156198 1_545
Mg11 Mg13 3.175080 1_555
Mg11 Mg13 3.175080 1_545
Mg11 Mg9 3.261314 1_545
Mg11 Mg7 3.261315 1_555
Mg12 Mg4 3.100615 1_555
Mg12 Mg2 3.100621 1_555
Mg12 Mg5 3.130298 1_555
Mg12 Mg3 3.130304 1_555
Mg12 Mg6 3.171461 1_665
Mg12 Mg8 3.171461 1_655
Mg12 Mg6 3.183550 1_555
Mg12 Mg8 3.183550 1_555
Mg13 Mg4 3.100615 1_556
Mg13 Mg2 3.100621 1_556
Mg13 Mg5 3.130298 1_555
Mg13 Mg3 3.130304 1_555
Mg13 Mg7 3.171461 1_665
Mg13 Mg9 3.171461 1_655
Mg13 Mg7 3.183550 1_555
Mg13 Mg9 3.183550 1_555
Cd0 Mg8 3.067306 1_555
Cd0 Mg9 3.067306 1_554
Cd0 Mg7 3.067313 1_564
Cd0 Mg6 3.067313 1_565
Cd0 Mg12 3.091737 1_455
Cd0 Mg13 3.091737 1_454
Cd0 Mg2 3.157440 1_565
Cd0 Mg4 3.157440 1_555
Cd0 Nb0 3.174757 1_565
Cd0 Nb0 3.174757 1_555
Cd0 Mg2 3.196358 1_455
Cd0 Mg4 3.196358 1_455
