# generated using pymatgen
data_Rb3TmF6
_symmetry_space_group_name_H-M   'P 1'
_cell_length_a   6.94766200
_cell_length_b   6.94766200
_cell_length_c   6.94766200
_cell_angle_alpha   118.12000219
_cell_angle_beta   118.12000219
_cell_angle_gamma   93.28831297
_symmetry_Int_Tables_number   1
_chemical_formula_structural   Rb3TmF6
_chemical_formula_sum   'Rb3 Tm1 F6'
_cell_volume   243.44279565
_cell_formula_units_Z   1
loop_
 _symmetry_equiv_pos_site_id
 _symmetry_equiv_pos_as_xyz
  1  'x, y, z'
loop_
 _atom_site_type_symbol
 _atom_site_label
 _atom_site_symmetry_multiplicity
 _atom_site_fract_x
 _atom_site_fract_y
 _atom_site_fract_z
 _atom_site_occupancy
  Rb  Rb0  1  0.25000000  0.75000000  0.50000000  1
  Rb  Rb1  1  0.75000000  0.25000000  0.50000000  1
  Rb  Rb2  1  0.50000000  0.50000000  0.00000000  1
  Tm  Tm0  1  0.00000000  0.00000000  0.00000000  1
  F  F0  1  0.29884700  0.00000000  0.29884700  1
  F  F1  1  0.70115300  0.00000000  0.70115300  1
  F  F2  1  0.00000000  0.70115300  0.70115300  1
  F  F3  1  0.00000000  0.29884700  0.29884700  1
  F  F4  1  0.22770100  0.22770100  0.00000000  1
  F  F5  1  0.77229900  0.77229900  0.00000000  1
loop_
_geom_bond_atom_site_label_1
_geom_bond_atom_site_label_2
_geom_bond_distance
_geom_bond_site_symmetry_2
F0 Tm0 2.135006 1_555
F0 Rb1 2.784387 1_555
F0 Rb0 2.784387 1_545
F1 Tm0 2.135006 1_656
F1 Rb1 2.784387 1_555
F1 Rb0 2.784387 1_545
F2 Tm0 2.135006 1_566
F2 Rb0 2.784387 1_555
F2 Rb1 2.784387 1_455
F3 Tm0 2.135006 1_555
F3 Rb0 2.784387 1_555
F3 Rb1 2.784387 1_455
F4 Tm0 2.172158 1_555
F4 Rb2 2.597602 1_555
F5 Tm0 2.172158 1_665
F5 Rb2 2.597602 1_555
