# generated using pymatgen
data_Y2MgPd2
_symmetry_space_group_name_H-M   'P 1'
_cell_length_a   3.89633000
_cell_length_b   7.61153900
_cell_length_c   7.61153900
_cell_angle_alpha   90.00000000
_cell_angle_beta   90.00000000
_cell_angle_gamma   90.00000000
_symmetry_Int_Tables_number   1
_chemical_formula_structural   Y2MgPd2
_chemical_formula_sum   'Y4 Mg2 Pd4'
_cell_volume   225.73592782
_cell_formula_units_Z   2
loop_
 _symmetry_equiv_pos_site_id
 _symmetry_equiv_pos_as_xyz
  1  'x, y, z'
loop_
 _atom_site_type_symbol
 _atom_site_label
 _atom_site_symmetry_multiplicity
 _atom_site_fract_x
 _atom_site_fract_y
 _atom_site_fract_z
 _atom_site_occupancy
  Y  Y0  1  0.50000000  0.17032200  0.67032200  1
  Y  Y1  1  0.50000000  0.82967800  0.32967800  1
  Y  Y2  1  0.50000000  0.32967800  0.17032200  1
  Y  Y3  1  0.50000000  0.67032200  0.82967800  1
  Mg  Mg0  1  0.00000000  0.00000000  0.00000000  1
  Mg  Mg1  1  0.00000000  0.50000000  0.50000000  1
  Pd  Pd0  1  0.00000000  0.63088400  0.13088400  1
  Pd  Pd1  1  0.00000000  0.36911600  0.86911600  1
  Pd  Pd2  1  0.00000000  0.86911600  0.63088400  1
  Pd  Pd3  1  0.00000000  0.13088400  0.36911600  1
loop_
_geom_bond_atom_site_label_1
_geom_bond_atom_site_label_2
_geom_bond_distance
_geom_bond_site_symmetry_2
Mg0 Pd0 2.980938 1_545
Mg0 Pd1 2.980938 1_554
Mg0 Pd2 2.980938 1_544
Mg0 Pd3 2.980938 1_555
Mg1 Pd0 2.980938 1_555
Mg1 Pd1 2.980938 1_555
Mg1 Pd3 2.980938 1_555
Mg1 Pd2 2.980938 1_555
Pd0 Y1 2.893866 1_455
Pd0 Y1 2.893866 1_555
Pd0 Y2 3.023518 1_455
Pd0 Y3 3.023518 1_554
Pd0 Y2 3.023518 1_555
Pd0 Y3 3.023518 1_454
Pd1 Y0 2.893866 1_455
Pd1 Y0 2.893866 1_555
Pd1 Y3 3.023518 1_455
Pd1 Y3 3.023518 1_555
Pd1 Y2 3.023518 1_556
Pd1 Y2 3.023518 1_456
Pd2 Y3 2.893866 1_555
Pd2 Y3 2.893866 1_455
Pd2 Y0 3.023518 1_465
Pd2 Y0 3.023518 1_565
Pd2 Y1 3.023518 1_555
Pd2 Y1 3.023518 1_455
Pd3 Y2 2.893866 1_455
Pd3 Y2 2.893866 1_555
Pd3 Y0 3.023518 1_455
Pd3 Y0 3.023518 1_555
Pd3 Y1 3.023518 1_545
Pd3 Y1 3.023518 1_445
