# generated using pymatgen
data_Rb2W3SeO12
_symmetry_space_group_name_H-M   'P 1'
_cell_length_a   7.26384379
_cell_length_b   7.26384379
_cell_length_c   12.15947548
_cell_angle_alpha   90.00000000
_cell_angle_beta   90.00000000
_cell_angle_gamma   119.99999692
_symmetry_Int_Tables_number   1
_chemical_formula_structural   Rb2W3SeO12
_chemical_formula_sum   'Rb4 W6 Se2 O24'
_cell_volume   555.62077867
_cell_formula_units_Z   2
loop_
 _symmetry_equiv_pos_site_id
 _symmetry_equiv_pos_as_xyz
  1  'x, y, z'
loop_
 _atom_site_type_symbol
 _atom_site_label
 _atom_site_symmetry_multiplicity
 _atom_site_fract_x
 _atom_site_fract_y
 _atom_site_fract_z
 _atom_site_occupancy
  Rb  Rb0  1  0.66666700  0.33333300  0.55159393  1
  Rb  Rb1  1  0.33333300  0.66666700  0.05159393  1
  Rb  Rb2  1  0.66666700  0.33333300  0.92987870  1
  Rb  Rb3  1  0.33333300  0.66666700  0.42987870  1
  W  W0  1  0.66069992  0.81475800  0.76306714  1
  W  W1  1  0.15405708  0.33930008  0.76306714  1
  W  W2  1  0.33930008  0.18524200  0.26306714  1
  W  W3  1  0.18524200  0.84594292  0.76306714  1
  W  W4  1  0.84594292  0.66069992  0.26306714  1
  W  W5  1  0.81475800  0.15405708  0.26306714  1
  Se  Se0  1  -0.00000000  -0.00000000  0.99512874  1
  Se  Se1  1  -0.00000000  -0.00000000  0.49512874  1
  O  O0  1  0.75264473  0.87537246  0.93457884  1
  O  O1  1  0.12272774  0.24735527  0.93457884  1
  O  O2  1  0.24735527  0.12462754  0.43457884  1
  O  O3  1  0.12462754  0.87727226  0.93457884  1
  O  O4  1  0.87727226  0.75264473  0.43457884  1
  O  O5  1  0.87537246  0.12272774  0.43457884  1
  O  O6  1  0.45226553  0.54043420  0.80876560  1
  O  O7  1  0.08816868  0.54773447  0.80876560  1
  O  O8  1  0.54773447  0.45956580  0.30876560  1
  O  O9  1  0.45956580  0.91183132  0.80876560  1
  O  O10  1  0.91183132  0.45226553  0.30876560  1
  O  O11  1  0.54043420  0.08816868  0.30876560  1
  O  O12  1  0.59670239  0.79373490  0.62418573  1
  O  O13  1  0.19703252  0.40329761  0.62418573  1
  O  O14  1  0.40329761  0.20626510  0.12418573  1
  O  O15  1  0.20626510  0.80296748  0.62418573  1
  O  O16  1  0.80296748  0.59670239  0.12418573  1
  O  O17  1  0.79373490  0.19703252  0.12418573  1
  O  O18  1  0.87156249  0.12124520  0.75183624  1
  O  O19  1  0.24968371  0.12843751  0.75183624  1
  O  O20  1  0.12843751  0.87875480  0.25183624  1
  O  O21  1  0.87875480  0.75031629  0.75183624  1
  O  O22  1  0.75031629  0.87156249  0.25183624  1
  O  O23  1  0.12124520  0.24968371  0.25183624  1
loop_
_geom_bond_atom_site_label_1
_geom_bond_atom_site_label_2
_geom_bond_distance
_geom_bond_site_symmetry_2
O0 Se0 1.721439 1_665
O0 W0 2.166825 1_555
O0 Rb1 2.997043 1_556
O1 Se0 1.721439 1_555
O1 W1 2.166825 1_555
O1 Rb1 2.997043 1_556
O2 Se1 1.721439 1_555
O2 W2 2.166825 1_555
O2 Rb0 2.997043 1_555
O3 Se0 1.721439 1_565
O3 W3 2.166823 1_555
O3 Rb1 2.997038 1_556
O4 Se1 1.721439 1_665
O4 W4 2.166825 1_555
O4 Rb0 2.997043 1_555
O5 Se1 1.721439 1_655
O5 W5 2.166823 1_555
O5 Rb0 2.997038 1_555
O6 W0 1.885410 1_555
O6 W1 1.992668 1_555
O6 Rb2 3.033168 1_555
O7 W1 1.885405 1_555
O7 W3 1.992669 1_555
O7 Rb2 3.033162 1_455
O8 W2 1.885410 1_555
O8 W4 1.992668 1_555
O8 Rb3 3.033168 1_555
O9 W3 1.885412 1_555
O9 W0 1.992663 1_555
O9 Rb2 3.033162 1_565
O10 W4 1.885405 1_555
O10 W5 1.992669 1_555
O10 Rb3 3.033162 1_655
O11 W5 1.885412 1_555
O11 W2 1.992663 1_555
O11 Rb3 3.033162 1_545
O12 W0 1.737880 1_555
O12 Rb3 2.885867 1_555
O13 W1 1.737880 1_555
O13 Rb3 2.885867 1_555
O14 W2 1.737880 1_555
O14 Rb2 2.885867 1_554
O15 W3 1.737881 1_555
O15 Rb3 2.885864 1_555
O16 W4 1.737880 1_555
O16 Rb2 2.885867 1_554
O17 W5 1.737881 1_555
O17 Rb2 2.885864 1_554
O18 W1 1.867603 1_655
O18 W0 1.977637 1_545
O19 W3 1.867598 1_545
O19 W1 1.977647 1_555
O20 W4 1.867603 1_455
O20 W2 1.977637 1_565
O21 W0 1.867612 1_555
O21 W3 1.977634 1_655
O22 W5 1.867598 1_565
O22 W4 1.977647 1_555
O23 W2 1.867612 1_555
O23 W5 1.977634 1_455
