# generated using pymatgen
data_Pr2Fe6Co8B
_symmetry_space_group_name_H-M   'P 1'
_cell_length_a   8.73294400
_cell_length_b   8.73294400
_cell_length_c   11.87686600
_cell_angle_alpha   90.00000000
_cell_angle_beta   90.00000000
_cell_angle_gamma   90.00000000
_symmetry_Int_Tables_number   1
_chemical_formula_structural   Pr2Fe6Co8B
_chemical_formula_sum   'Pr8 Fe24 Co32 B4'
_cell_volume   905.78100123
_cell_formula_units_Z   4
loop_
 _symmetry_equiv_pos_site_id
 _symmetry_equiv_pos_as_xyz
  1  'x, y, z'
loop_
 _atom_site_type_symbol
 _atom_site_label
 _atom_site_symmetry_multiplicity
 _atom_site_fract_x
 _atom_site_fract_y
 _atom_site_fract_z
 _atom_site_occupancy
  Pr  Pr0  1  0.23054500  0.76945500  0.50000000  1
  Pr  Pr1  1  0.76945500  0.23054500  0.50000000  1
  Pr  Pr2  1  0.26945500  0.26945500  0.00000000  1
  Pr  Pr3  1  0.73054500  0.73054500  0.00000000  1
  Pr  Pr4  1  0.64314600  0.64314600  0.50000000  1
  Pr  Pr5  1  0.35685400  0.35685400  0.50000000  1
  Pr  Pr6  1  0.85685400  0.14314600  0.00000000  1
  Pr  Pr7  1  0.14314600  0.85685400  0.00000000  1
  Fe  Fe0  1  0.00000000  0.50000000  0.50000000  1
  Fe  Fe1  1  0.50000000  0.00000000  0.00000000  1
  Fe  Fe2  1  0.50000000  0.00000000  0.50000000  1
  Fe  Fe3  1  0.00000000  0.50000000  0.00000000  1
  Fe  Fe4  1  0.50000000  0.50000000  0.11555500  1
  Fe  Fe5  1  0.00000000  0.00000000  0.61555500  1
  Fe  Fe6  1  0.50000000  0.50000000  0.88444500  1
  Fe  Fe7  1  0.00000000  0.00000000  0.38444500  1
  Fe  Fe8  1  0.93281800  0.72312300  0.37043900  1
  Fe  Fe9  1  0.06718200  0.27687700  0.37043900  1
  Fe  Fe10  1  0.56718200  0.22312300  0.87043900  1
  Fe  Fe11  1  0.43281800  0.77687700  0.87043900  1
  Fe  Fe12  1  0.06718200  0.27687700  0.62956100  1
  Fe  Fe13  1  0.93281800  0.72312300  0.62956100  1
  Fe  Fe14  1  0.43281800  0.77687700  0.12956100  1
  Fe  Fe15  1  0.56718200  0.22312300  0.12956100  1
  Fe  Fe16  1  0.72312300  0.93281800  0.37043900  1
  Fe  Fe17  1  0.27687700  0.06718200  0.37043900  1
  Fe  Fe18  1  0.22312300  0.56718200  0.87043900  1
  Fe  Fe19  1  0.77687700  0.43281800  0.87043900  1
  Fe  Fe20  1  0.27687700  0.06718200  0.62956100  1
  Fe  Fe21  1  0.72312300  0.93281800  0.62956100  1
  Fe  Fe22  1  0.77687700  0.43281800  0.12956100  1
  Fe  Fe23  1  0.22312300  0.56718200  0.12956100  1
  Co  Co0  1  0.18230600  0.81769400  0.25144200  1
  Co  Co1  1  0.81769400  0.18230600  0.25144200  1
  Co  Co2  1  0.31769400  0.31769400  0.75144200  1
  Co  Co3  1  0.68230600  0.68230600  0.75144200  1
  Co  Co4  1  0.81769400  0.18230600  0.74855800  1
  Co  Co5  1  0.18230600  0.81769400  0.74855800  1
  Co  Co6  1  0.68230600  0.68230600  0.24855800  1
  Co  Co7  1  0.31769400  0.31769400  0.24855800  1
  Co  Co8  1  0.40038700  0.59961300  0.29069400  1
  Co  Co9  1  0.59961300  0.40038700  0.29069400  1
  Co  Co10  1  0.09961300  0.09961300  0.79069400  1
  Co  Co11  1  0.90038700  0.90038700  0.79069400  1
  Co  Co12  1  0.59961300  0.40038700  0.70930600  1
  Co  Co13  1  0.40038700  0.59961300  0.70930600  1
  Co  Co14  1  0.90038700  0.90038700  0.20930600  1
  Co  Co15  1  0.09961300  0.09961300  0.20930600  1
  Co  Co16  1  0.14063400  0.53592500  0.32129400  1
  Co  Co17  1  0.85936600  0.46407500  0.32129400  1
  Co  Co18  1  0.35936600  0.03592500  0.82129400  1
  Co  Co19  1  0.64063400  0.96407500  0.82129400  1
  Co  Co20  1  0.85936600  0.46407500  0.67870600  1
  Co  Co21  1  0.14063400  0.53592500  0.67870600  1
  Co  Co22  1  0.64063400  0.96407500  0.17870600  1
  Co  Co23  1  0.35936600  0.03592500  0.17870600  1
  Co  Co24  1  0.53592500  0.14063400  0.32129400  1
  Co  Co25  1  0.46407500  0.85936600  0.32129400  1
  Co  Co26  1  0.03592500  0.35936600  0.82129400  1
  Co  Co27  1  0.96407500  0.64063400  0.82129400  1
  Co  Co28  1  0.46407500  0.85936600  0.67870600  1
  Co  Co29  1  0.53592500  0.14063400  0.67870600  1
  Co  Co30  1  0.96407500  0.64063400  0.17870600  1
  Co  Co31  1  0.03592500  0.35936600  0.17870600  1
  B  B0  1  0.87602500  0.87602500  0.50000000  1
  B  B1  1  0.12397500  0.12397500  0.50000000  1
  B  B2  1  0.62397500  0.37602500  0.00000000  1
  B  B3  1  0.37602500  0.62397500  0.00000000  1
loop_
_geom_bond_atom_site_label_1
_geom_bond_atom_site_label_2
_geom_bond_distance
_geom_bond_site_symmetry_2
Fe0 Fe8 2.551232 1_455
Fe0 Fe9 2.551232 1_555
Fe0 Fe13 2.551232 1_455
Fe0 Fe12 2.551232 1_555
Fe0 Pr1 3.096897 1_455
Fe0 Pr0 3.096897 1_555
Fe0 Pr4 3.357764 1_455
Fe0 Pr5 3.357764 1_555
Fe1 Fe14 2.551232 1_545
Fe1 Fe11 2.551232 1_544
Fe1 Fe15 2.551232 1_555
Fe1 Fe10 2.551232 1_554
Fe1 Pr3 3.096897 1_545
Fe1 Pr2 3.096897 1_555
Fe1 Pr7 3.357764 1_545
Fe1 Pr6 3.357764 1_555
Fe2 Fe21 2.551232 1_545
Fe2 Fe20 2.551232 1_555
Fe2 Pr0 3.096897 1_545
Fe2 Pr1 3.096897 1_555
Fe2 Pr4 3.357764 1_545
Fe2 Pr5 3.357764 1_555
Fe3 Pr2 3.096897 1_555
Fe3 Pr3 3.096897 1_455
Fe3 Pr6 3.357764 1_455
Fe3 Pr7 3.357764 1_555
Fe4 Pr2 3.160794 1_555
Fe4 Pr3 3.160794 1_555
Fe5 Pr0 3.160794 1_545
Fe5 Pr1 3.160794 1_455
Fe6 Pr2 3.160794 1_556
Fe6 Pr3 3.160794 1_556
Fe7 Pr1 3.160794 1_455
Fe7 Pr0 3.160794 1_545
Fe8 Pr4 3.042200 1_555
Fe8 Pr0 3.048233 1_655
Fe9 Pr5 3.042200 1_555
Fe9 Pr1 3.048233 1_455
Fe10 Pr6 3.042200 1_556
Fe10 Pr2 3.048233 1_556
Fe11 Pr7 3.042200 1_556
Fe11 Pr3 3.048233 1_556
Fe12 Pr5 3.042200 1_555
Fe12 Pr1 3.048233 1_455
Fe13 Pr4 3.042200 1_555
Fe13 Pr0 3.048233 1_655
Fe14 Pr7 3.042200 1_555
Fe14 Pr3 3.048233 1_555
Fe15 Pr6 3.042200 1_555
Fe15 Pr2 3.048233 1_555
Fe16 Fe2 2.551232 1_565
Fe16 Pr4 3.042200 1_555
Fe16 Pr1 3.048233 1_565
Fe17 Fe2 2.551232 1_555
Fe17 Pr5 3.042200 1_555
Fe17 Pr0 3.048233 1_545
Fe18 Fe3 2.551232 1_556
Fe18 Pr7 3.042200 1_556
Fe18 Pr2 3.048233 1_556
Fe19 Fe3 2.551232 1_656
Fe19 Pr6 3.042200 1_556
Fe19 Pr3 3.048233 1_556
Fe20 Pr5 3.042200 1_555
Fe20 Pr0 3.048233 1_545
Fe21 Pr4 3.042200 1_555
Fe21 Pr1 3.048233 1_565
Fe22 Fe3 2.551232 1_655
Fe22 Pr6 3.042200 1_555
Fe22 Pr3 3.048233 1_555
Fe23 Fe3 2.551232 1_555
Fe23 Pr7 3.042200 1_555
Fe23 Pr2 3.048233 1_555
Co0 Co30 2.601779 1_455
Co0 Co23 2.601779 1_565
Co0 Co14 2.614060 1_455
Co0 Co15 2.614060 1_565
Co0 Co25 2.622141 1_555
Co0 Co16 2.622141 1_555
Co0 Fe14 2.647369 1_555
Co0 Fe23 2.647369 1_555
Co0 Fe8 2.725169 1_455
Co0 Fe17 2.725169 1_565
Co0 Co8 2.733403 1_555
Co0 Fe7 2.750397 1_565
Co0 Pr0 3.011606 1_555
Co0 Pr7 3.025252 1_555
Co1 Co22 2.601779 1_545
Co1 Co31 2.601779 1_655
Co1 Co15 2.614060 1_655
Co1 Co14 2.614060 1_545
Co1 Co17 2.622141 1_555
Co1 Co24 2.622141 1_555
Co1 Fe22 2.647369 1_555
Co1 Fe15 2.647369 1_555
Co1 Fe16 2.725169 1_545
Co1 Fe9 2.725169 1_655
Co1 Co9 2.733403 1_555
Co1 Fe7 2.750397 1_655
Co1 Pr1 3.011606 1_555
Co1 Pr6 3.025252 1_555
Co2 Co21 2.601779 1_555
Co2 Co29 2.601779 1_555
Co2 Co26 2.622141 1_555
Co2 Fe12 2.647369 1_555
Co2 Fe20 2.647369 1_555
Co2 Fe10 2.725169 1_555
Co2 Fe18 2.725169 1_555
Co2 Fe6 2.750397 1_555
Co2 Pr2 3.011606 1_556
Co2 Pr5 3.025252 1_555
Co3 Fe21 2.647369 1_555
Co3 Fe13 2.647369 1_555
Co3 Fe19 2.725169 1_555
Co3 Fe11 2.725169 1_555
Co3 Fe6 2.750397 1_555
Co3 Pr3 3.011606 1_556
Co3 Pr4 3.025252 1_555
Co4 Fe19 2.647369 1_555
Co4 Fe10 2.647369 1_555
Co4 Fe21 2.725169 1_545
Co4 Fe12 2.725169 1_655
Co4 Fe5 2.750397 1_655
Co4 Pr1 3.011606 1_555
Co4 Pr6 3.025252 1_556
Co5 Fe11 2.647369 1_555
Co5 Fe18 2.647369 1_555
Co5 Fe13 2.725169 1_455
Co5 Fe20 2.725169 1_565
Co5 Fe5 2.750397 1_565
Co5 Pr0 3.011606 1_555
Co5 Pr7 3.025252 1_556
Co6 Co8 2.614060 1_555
Co6 Co9 2.614060 1_555
Co6 Fe8 2.647369 1_555
Co6 Fe16 2.647369 1_555
Co6 Fe14 2.725169 1_555
Co6 Fe22 2.725169 1_555
Co6 Fe4 2.750397 1_555
Co6 Pr3 3.011606 1_555
Co6 Pr4 3.025252 1_555
Co7 Co8 2.614060 1_555
Co7 Co9 2.614060 1_555
Co7 Fe9 2.647369 1_555
Co7 Fe17 2.647369 1_555
Co7 Fe15 2.725169 1_555
Co7 Fe23 2.725169 1_555
Co7 Fe4 2.750397 1_555
Co7 Pr2 3.011606 1_555
Co7 Pr5 3.025252 1_555
Co8 Fe4 2.416677 1_555
Co8 Co9 2.460490 1_555
Co8 Fe23 2.477718 1_555
Co8 Fe14 2.477718 1_555
Co8 Pr0 3.252627 1_555
Co8 Pr5 3.289168 1_555
Co8 Pr4 3.289168 1_555
Co9 Fe4 2.416677 1_555
Co9 Fe15 2.477718 1_555
Co9 Fe22 2.477718 1_555
Co9 Pr1 3.252627 1_555
Co9 Pr5 3.289168 1_555
Co9 Pr4 3.289168 1_555
Co10 Co26 2.363705 1_555
Co10 Co18 2.363705 1_555
Co10 Fe5 2.416677 1_555
Co10 Co11 2.460490 1_445
Co10 Fe20 2.477718 1_555
Co10 Fe12 2.477718 1_555
Co10 Co4 2.614060 1_455
Co10 Co5 2.614060 1_545
Co10 Co2 2.733403 1_555
Co10 Pr2 3.252627 1_556
Co10 Pr6 3.289168 1_456
Co10 Pr7 3.289168 1_546
Co11 Co27 2.363705 1_555
Co11 Co19 2.363705 1_555
Co11 Fe5 2.416677 1_665
Co11 Fe13 2.477718 1_555
Co11 Fe21 2.477718 1_555
Co11 Co5 2.614060 1_655
Co11 Co4 2.614060 1_565
Co11 Co3 2.733403 1_555
Co11 Pr3 3.252627 1_556
Co11 Pr7 3.289168 1_656
Co11 Pr6 3.289168 1_566
Co12 Co29 2.363705 1_555
Co12 Co20 2.363705 1_555
Co12 Fe6 2.416677 1_555
Co12 Co13 2.460490 1_555
Co12 Fe10 2.477718 1_555
Co12 Fe19 2.477718 1_555
Co12 Co3 2.614060 1_555
Co12 Co2 2.614060 1_555
Co12 Co4 2.733403 1_555
Co12 Pr1 3.252627 1_555
Co12 Pr5 3.289168 1_555
Co12 Pr4 3.289168 1_555
Co13 Co21 2.363705 1_555
Co13 Co28 2.363705 1_555
Co13 Fe6 2.416677 1_555
Co13 Fe18 2.477718 1_555
Co13 Fe11 2.477718 1_555
Co13 Co3 2.614060 1_555
Co13 Co2 2.614060 1_555
Co13 Co5 2.733403 1_555
Co13 Pr0 3.252627 1_555
Co13 Pr5 3.289168 1_555
Co13 Pr4 3.289168 1_555
Co14 Co30 2.363705 1_555
Co14 Co22 2.363705 1_555
Co14 Fe7 2.416677 1_665
Co14 Co15 2.460490 1_665
Co14 Fe8 2.477718 1_555
Co14 Fe16 2.477718 1_555
Co14 Co6 2.733403 1_555
Co14 Pr3 3.252627 1_555
Co14 Pr7 3.289168 1_655
Co14 Pr6 3.289168 1_565
Co15 Co23 2.363705 1_555
Co15 Co31 2.363705 1_555
Co15 Fe7 2.416677 1_555
Co15 Fe9 2.477718 1_555
Co15 Fe17 2.477718 1_555
Co15 Co7 2.733403 1_555
Co15 Pr2 3.252627 1_555
Co15 Pr6 3.289168 1_455
Co15 Pr7 3.289168 1_545
Co16 Co8 2.363705 1_555
Co16 Fe23 2.403961 1_555
Co16 Fe9 2.422795 1_555
Co16 Co30 2.466068 1_455
Co16 Co31 2.466068 1_555
Co16 Fe0 2.472174 1_555
Co16 Fe8 2.511353 1_455
Co16 Co17 2.535174 1_455
Co16 Co7 2.601779 1_555
Co16 Pr0 3.046401 1_555
Co16 Pr5 3.242812 1_555
Co17 Co9 2.363705 1_555
Co17 Fe22 2.403961 1_555
Co17 Fe8 2.422795 1_555
Co17 Co31 2.466068 1_655
Co17 Co30 2.466068 1_555
Co17 Fe0 2.472174 1_655
Co17 Fe9 2.511353 1_655
Co17 Co6 2.601779 1_555
Co17 Pr1 3.046401 1_555
Co17 Pr4 3.242812 1_555
Co18 Fe20 2.403961 1_555
Co18 Fe11 2.422795 1_545
Co18 Co29 2.466068 1_555
Co18 Co28 2.466068 1_545
Co18 Fe1 2.472174 1_556
Co18 Fe10 2.511353 1_555
Co18 Co19 2.535174 1_545
Co18 Co5 2.601779 1_545
Co18 Co2 2.622141 1_555
Co18 Pr2 3.046401 1_556
Co18 Pr7 3.242812 1_546
Co19 Fe21 2.403961 1_555
Co19 Fe10 2.422795 1_565
Co19 Co29 2.466068 1_565
Co19 Co28 2.466068 1_555
Co19 Fe1 2.472174 1_566
Co19 Fe11 2.511353 1_555
Co19 Co4 2.601779 1_565
Co19 Co3 2.622141 1_555
Co19 Pr3 3.046401 1_556
Co19 Pr6 3.242812 1_566
Co20 Fe19 2.403961 1_555
Co20 Fe13 2.422795 1_555
Co20 Co27 2.466068 1_555
Co20 Co26 2.466068 1_655
Co20 Fe0 2.472174 1_655
Co20 Fe12 2.511353 1_655
Co20 Co21 2.535174 1_655
Co20 Co3 2.601779 1_555
Co20 Co4 2.622141 1_555
Co20 Pr1 3.046401 1_555
Co20 Pr4 3.242812 1_555
Co21 Fe18 2.403961 1_555
Co21 Fe12 2.422795 1_555
Co21 Co26 2.466068 1_555
Co21 Co27 2.466068 1_455
Co21 Fe0 2.472174 1_555
Co21 Fe13 2.511353 1_455
Co21 Co5 2.622141 1_555
Co21 Pr0 3.046401 1_555
Co21 Pr5 3.242812 1_555
Co22 Fe16 2.403961 1_555
Co22 Fe15 2.422795 1_565
Co22 Co24 2.466068 1_565
Co22 Co25 2.466068 1_555
Co22 Fe1 2.472174 1_565
Co22 Fe14 2.511353 1_555
Co22 Co23 2.535174 1_565
Co22 Co6 2.622141 1_555
Co22 Pr3 3.046401 1_555
Co22 Pr6 3.242812 1_565
Co23 Fe17 2.403961 1_555
Co23 Fe14 2.422795 1_545
Co23 Co25 2.466068 1_545
Co23 Co24 2.466068 1_555
Co23 Fe1 2.472174 1_555
Co23 Fe15 2.511353 1_555
Co23 Co7 2.622141 1_555
Co23 Pr2 3.046401 1_555
Co23 Pr7 3.242812 1_545
Co24 Co9 2.363705 1_555
Co24 Fe15 2.403961 1_555
Co24 Fe17 2.422795 1_555
Co24 Fe2 2.472174 1_555
Co24 Fe16 2.511353 1_545
Co24 Co25 2.535174 1_545
Co24 Co7 2.601779 1_555
Co24 Pr1 3.046401 1_555
Co24 Pr5 3.242812 1_555
Co25 Co8 2.363705 1_555
Co25 Fe14 2.403961 1_555
Co25 Fe16 2.422795 1_555
Co25 Fe2 2.472174 1_565
Co25 Fe17 2.511353 1_565
Co25 Co6 2.601779 1_555
Co25 Pr0 3.046401 1_555
Co25 Pr4 3.242812 1_555
Co26 Fe12 2.403961 1_555
Co26 Fe19 2.422795 1_455
Co26 Fe3 2.472174 1_556
Co26 Fe18 2.511353 1_555
Co26 Co27 2.535174 1_455
Co26 Co4 2.601779 1_455
Co26 Pr2 3.046401 1_556
Co26 Pr6 3.242812 1_456
Co27 Fe13 2.403961 1_555
Co27 Fe18 2.422795 1_655
Co27 Fe3 2.472174 1_656
Co27 Fe19 2.511353 1_555
Co27 Co5 2.601779 1_655
Co27 Co3 2.622141 1_555
Co27 Pr3 3.046401 1_556
Co27 Pr7 3.242812 1_656
Co28 Fe11 2.403961 1_555
Co28 Fe21 2.422795 1_555
Co28 Fe2 2.472174 1_565
Co28 Fe20 2.511353 1_565
Co28 Co29 2.535174 1_565
Co28 Co3 2.601779 1_555
Co28 Co5 2.622141 1_555
Co28 Pr0 3.046401 1_555
Co28 Pr4 3.242812 1_555
Co29 Fe10 2.403961 1_555
Co29 Fe20 2.422795 1_555
Co29 Fe2 2.472174 1_555
Co29 Fe21 2.511353 1_545
Co29 Co4 2.622141 1_555
Co29 Pr1 3.046401 1_555
Co29 Pr5 3.242812 1_555
Co30 Fe8 2.403961 1_555
Co30 Fe23 2.422795 1_655
Co30 Fe3 2.472174 1_655
Co30 Fe22 2.511353 1_555
Co30 Co31 2.535174 1_655
Co30 Co6 2.622141 1_555
Co30 Pr3 3.046401 1_555
Co30 Pr7 3.242812 1_655
Co31 Fe9 2.403961 1_555
Co31 Fe22 2.422795 1_455
Co31 Fe3 2.472174 1_555
Co31 Fe23 2.511353 1_555
Co31 Co7 2.622141 1_555
Co31 Pr2 3.046401 1_555
Co31 Pr6 3.242812 1_455
B0 Fe5 2.056186 1_665
B0 Fe7 2.056186 1_665
B0 Fe8 2.096857 1_555
B0 Fe16 2.096857 1_555
B0 Fe21 2.096857 1_555
B0 Fe13 2.096857 1_555
B0 Pr4 2.876113 1_555
B0 Pr0 3.232860 1_655
B0 Pr1 3.232860 1_565
B1 Fe5 2.056186 1_555
B1 Fe7 2.056186 1_555
B1 Fe17 2.096857 1_555
B1 Fe9 2.096857 1_555
B1 Fe20 2.096857 1_555
B1 Fe12 2.096857 1_555
B1 Pr5 2.876113 1_555
B1 Pr0 3.232860 1_545
B1 Pr1 3.232860 1_455
B2 Fe6 2.056186 1_554
B2 Fe4 2.056186 1_555
B2 Fe15 2.096857 1_555
B2 Fe10 2.096857 1_554
B2 Fe22 2.096857 1_555
B2 Fe19 2.096857 1_554
B2 Pr6 2.876113 1_555
B2 Pr2 3.232860 1_555
B2 Pr3 3.232860 1_555
B3 Fe6 2.056186 1_554
B3 Fe4 2.056186 1_555
B3 Fe23 2.096857 1_555
B3 Fe18 2.096857 1_554
B3 Fe14 2.096857 1_555
B3 Fe11 2.096857 1_554
B3 Pr7 2.876113 1_555
B3 Pr2 3.232860 1_555
B3 Pr3 3.232860 1_555
