# generated using pymatgen
data_VCo2P2NO12
_symmetry_space_group_name_H-M   'P 1'
_cell_length_a   6.29586900
_cell_length_b   7.12730944
_cell_length_c   9.83479414
_cell_angle_alpha   89.86438835
_cell_angle_beta   89.42699153
_cell_angle_gamma   89.43916472
_symmetry_Int_Tables_number   1
_chemical_formula_structural   VCo2P2NO12
_chemical_formula_sum   'V2 Co4 P4 N2 O24'
_cell_volume   441.26850222
_cell_formula_units_Z   2
loop_
 _symmetry_equiv_pos_site_id
 _symmetry_equiv_pos_as_xyz
  1  'x, y, z'
loop_
 _atom_site_type_symbol
 _atom_site_label
 _atom_site_symmetry_multiplicity
 _atom_site_fract_x
 _atom_site_fract_y
 _atom_site_fract_z
 _atom_site_occupancy
  V  V0  1  0.00198100  0.69675600  0.76195500  1
  V  V1  1  0.00219000  0.27993000  0.26765100  1
  Co  Co0  1  0.24254900  0.95921000  0.49191500  1
  Co  Co1  1  0.75771200  0.96061900  0.49235000  1
  Co  Co2  1  0.76376700  0.04152300  0.99271700  1
  Co  Co3  1  0.23269500  0.04251800  0.99042200  1
  P  P0  1  0.49353900  0.81459200  0.76052800  1
  P  P1  1  0.49822100  0.18447100  0.25615800  1
  P  P2  1  0.99762700  0.30751300  0.57949700  1
  P  P3  1  0.99995300  0.68756900  0.08540400  1
  N  N0  1  0.50180500  0.45534000  0.54178600  1
  N  N1  1  0.50032800  0.54004900  0.03647000  1
  O  O0  1  0.20069700  0.18621900  0.59672300  1
  O  O1  1  0.79484500  0.18786000  0.59690800  1
  O  O2  1  0.79879200  0.81655400  0.09832100  1
  O  O3  1  0.20383400  0.81080700  0.09788900  1
  O  O4  1  0.49768600  0.91164200  0.62018800  1
  O  O5  1  0.49239800  0.08382500  0.11646800  1
  O  O6  1  0.47946000  0.94534000  0.88589900  1
  O  O7  1  0.50059000  0.05754900  0.38361300  1
  O  O8  1  0.25843300  0.76178500  0.41272800  1
  O  O9  1  0.74622000  0.76321700  0.41339300  1
  O  O10  1  0.73612100  0.24030300  0.91470800  1
  O  O11  1  0.26686900  0.24569100  0.91599000  1
  O  O12  1  0.01296900  0.95792500  0.88254600  1
  O  O13  1  0.00067800  0.06692500  0.37207600  1
  O  O14  1  0.99952300  0.84023500  0.61829600  1
  O  O15  1  0.01937700  0.15331900  0.10659900  1
  O  O16  1  0.99501100  0.45708900  0.69517600  1
  O  O17  1  0.99733100  0.53777800  0.19543500  1
  O  O18  1  0.30098700  0.68366700  0.76769000  1
  O  O19  1  0.70165400  0.70354200  0.77842300  1
  O  O20  1  0.70314500  0.29998600  0.25880600  1
  O  O21  1  0.30141100  0.31171200  0.26883200  1
  O  O22  1  0.99787800  0.41633100  0.44367400  1
  O  O23  1  0.00172100  0.59060900  0.94456800  1
loop_
_geom_bond_atom_site_label_1
_geom_bond_atom_site_label_2
_geom_bond_distance
_geom_bond_site_symmetry_2
Co0 O8 1.611627 1_555
Co0 O0 1.934897 1_565
Co0 O7 2.061357 1_565
Co0 O13 2.075110 1_565
Co0 O4 2.077137 1_555
Co0 O14 2.141819 1_455
Co1 O9 1.611214 1_555
Co1 O1 1.937868 1_565
Co1 O7 2.061716 1_565
Co1 O13 2.072544 1_665
Co1 O4 2.085800 1_555
Co1 O14 2.143664 1_555
Co2 O10 1.618277 1_555
Co2 O2 1.920429 1_546
Co2 O12 1.985281 1_645
Co2 O5 2.107415 1_556
Co2 O15 2.131782 1_656
Co2 O6 2.200582 1_545
Co3 O11 1.636156 1_555
Co3 O12 1.857826 1_545
Co3 O15 1.919806 1_556
Co3 O3 1.967545 1_546
Co3 O6 1.974958 1_545
Co3 O5 2.085300 1_556
O0 P2 1.546813 1_455
O1 P2 1.550090 1_555
O2 P3 1.561987 1_555
O3 P3 1.568429 1_455
O4 P0 1.542480 1_555
O5 P1 1.552253 1_555
O6 P0 1.548606 1_555
O7 P1 1.544194 1_555
O12 V0 2.211537 1_555
O13 V1 1.830932 1_555
O14 V0 1.742252 1_655
O15 V1 1.826536 1_555
O16 P2 1.560808 1_555
O16 V0 1.832619 1_655
O17 P3 1.518416 1_555
O17 V1 1.968728 1_655
O18 P0 1.538009 1_555
O18 V0 1.885301 1_555
O19 P0 1.535536 1_555
O19 V0 1.896283 1_655
O20 P1 1.537738 1_555
O20 V1 1.889627 1_655
O21 P1 1.532570 1_555
O21 V1 1.899780 1_555
O22 P2 1.543030 1_555
O22 V1 1.987271 1_655
O23 P3 1.549273 1_456
O23 V0 1.947144 1_555
