# generated using pymatgen
data_Na3V24O58
_symmetry_space_group_name_H-M   'P 1'
_cell_length_a   7.35985300
_cell_length_b   10.39204188
_cell_length_c   14.60588406
_cell_angle_alpha   102.09810217
_cell_angle_beta   97.24339022
_cell_angle_gamma   89.97639701
_symmetry_Int_Tables_number   1
_chemical_formula_structural   Na3V24O58
_chemical_formula_sum   'Na3 V24 O58'
_cell_volume   1083.19718487
_cell_formula_units_Z   1
loop_
 _symmetry_equiv_pos_site_id
 _symmetry_equiv_pos_as_xyz
  1  'x, y, z'
loop_
 _atom_site_type_symbol
 _atom_site_label
 _atom_site_symmetry_multiplicity
 _atom_site_fract_x
 _atom_site_fract_y
 _atom_site_fract_z
 _atom_site_occupancy
  Na  Na0  1  0.00043200  0.62845000  0.99040800  1
  Na  Na1  1  0.12884800  0.54695400  0.51327100  1
  Na  Na2  1  0.50374300  0.37202300  0.01088600  1
  V  V0  1  0.20839000  0.14014100  0.82587700  1
  V  V1  1  0.70683900  0.14156900  0.82852800  1
  V  V2  1  0.46964900  0.91906400  0.87604700  1
  V  V3  1  0.96741200  0.91499900  0.87030000  1
  V  V4  1  0.19412200  0.46088000  0.77857200  1
  V  V5  1  0.69580300  0.46443300  0.78100300  1
  V  V6  1  0.42881600  0.66216700  0.70918300  1
  V  V7  1  0.92581300  0.66457900  0.70983700  1
  V  V8  1  0.15100200  0.20978800  0.60450600  1
  V  V9  1  0.65201900  0.21126100  0.61019900  1
  V  V10  1  0.41274600  0.97512000  0.64508000  1
  V  V11  1  0.90991900  0.97579900  0.64150200  1
  V  V12  1  0.08927400  0.02459400  0.35723700  1
  V  V13  1  0.58917800  0.02844500  0.35609500  1
  V  V14  1  0.34826500  0.78815300  0.39221300  1
  V  V15  1  0.84780400  0.79365000  0.39337800  1
  V  V16  1  0.07221600  0.33118300  0.28727700  1
  V  V17  1  0.57332600  0.34105900  0.29529700  1
  V  V18  1  0.30453000  0.53670000  0.21993300  1
  V  V19  1  0.80552200  0.53578100  0.21999400  1
  V  V20  1  0.03108500  0.08143800  0.11978400  1
  V  V21  1  0.52952000  0.07560000  0.12346100  1
  V  V22  1  0.29221600  0.85696400  0.17228900  1
  V  V23  1  0.79597300  0.86102800  0.17544000  1
  O  O0  1  0.24002200  0.23606600  0.92969000  1
  O  O1  1  0.72124800  0.24086400  0.93198100  1
  O  O2  1  0.00046700  0.00261500  0.00157500  1
  O  O3  1  0.50001100  0.00033800  0.00210800  1
  O  O4  1  0.22143600  0.49778500  0.89306100  1
  O  O5  1  0.72617600  0.49878400  0.89529000  1
  O  O6  1  0.44210600  0.09856800  0.79683900  1
  O  O7  1  0.95741200  0.09092900  0.79859100  1
  O  O8  1  0.46926500  0.76273000  0.87847000  1
  O  O9  1  0.96993200  0.75597400  0.87490700  1
  O  O10  1  0.22313500  0.96559200  0.86043400  1
  O  O11  1  0.70655300  0.96356000  0.86026200  1
  O  O12  1  0.18656700  0.27967700  0.75248000  1
  O  O13  1  0.68853400  0.28278400  0.74902700  1
  O  O14  1  0.43841700  0.48753700  0.75172400  1
  O  O15  1  0.93756900  0.48809400  0.75199000  1
  O  O16  1  0.17259400  0.02323500  0.66206300  1
  O  O17  1  0.66059100  0.01645100  0.67001200  1
  O  O18  1  0.18552300  0.63339600  0.73486900  1
  O  O19  1  0.68325700  0.63644500  0.74021500  1
  O  O20  1  0.42689700  0.84369100  0.72114100  1
  O  O21  1  0.93207600  0.84080500  0.72160000  1
  O  O22  1  0.41250000  0.15530600  0.61162500  1
  O  O23  1  0.89319700  0.15514200  0.61234100  1
  O  O24  1  0.15001700  0.36651300  0.59829900  1
  O  O25  1  0.64759600  0.35885300  0.59174200  1
  O  O26  1  0.40641700  0.61722800  0.59566400  1
  O  O27  1  0.89292500  0.61681800  0.59607300  1
  O  O28  1  0.11777100  0.11896300  0.46868800  1
  O  O29  1  0.61606500  0.11775100  0.46692200  1
  O  O30  1  0.38549800  0.88250300  0.53535600  1
  O  O31  1  0.88271100  0.88042500  0.53012200  1
  O  O32  1  0.60256400  0.38787900  0.40778700  1
  O  O33  1  0.09933000  0.37342300  0.40108100  1
  O  O34  1  0.33920700  0.63642600  0.40756700  1
  O  O35  1  0.86025100  0.64189200  0.40652100  1
  O  O36  1  0.08871900  0.84530200  0.38702000  1
  O  O37  1  0.60462900  0.84288900  0.38782500  1
  O  O38  1  0.06962800  0.15616500  0.27480500  1
  O  O39  1  0.56964700  0.15770600  0.28318500  1
  O  O40  1  0.31710400  0.36436800  0.26203300  1
  O  O41  1  0.81361300  0.36407900  0.26108400  1
  O  O42  1  0.34292600  0.97520400  0.33432700  1
  O  O43  1  0.82465900  0.98196000  0.33427800  1
  O  O44  1  0.05965300  0.51167400  0.24705900  1
  O  O45  1  0.56443100  0.51293100  0.25038900  1
  O  O46  1  0.31326500  0.71554400  0.24872600  1
  O  O47  1  0.81110200  0.72103500  0.24979500  1
  O  O48  1  0.78507400  0.03698800  0.14232700  1
  O  O49  1  0.28665800  0.03809800  0.14296700  1
  O  O50  1  0.03005200  0.23935900  0.11977700  1
  O  O51  1  0.53072700  0.23452600  0.12339100  1
  O  O52  1  0.55578700  0.90547200  0.19708700  1
  O  O53  1  0.04458400  0.90536500  0.20544500  1
  O  O54  1  0.28081800  0.49993400  0.10535200  1
  O  O55  1  0.77250600  0.50235300  0.10558900  1
  O  O56  1  0.77978000  0.76453900  0.07180000  1
  O  O57  1  0.25373900  0.76094400  0.06765100  1
loop_
_geom_bond_atom_site_label_1
_geom_bond_atom_site_label_2
_geom_bond_distance
_geom_bond_site_symmetry_2
Na0 O57 2.337702 1_556
Na0 O9 2.343923 1_455
Na0 O56 2.414705 1_456
Na0 O4 2.506636 1_555
Na0 O5 2.516050 1_455
Na1 O33 2.157835 1_555
Na1 O27 2.272696 1_455
Na1 O26 2.273270 1_555
Na1 O24 2.451514 1_555
Na1 O34 2.617399 1_555
Na1 O35 2.679225 1_455
Na2 O1 2.356597 1_554
Na2 O51 2.383909 1_555
Na2 O0 2.426805 1_554
Na2 O54 2.482501 1_555
Na2 O55 2.487439 1_555
O0 V0 1.620068 1_555
O1 V1 1.632581 1_555
O2 V20 1.735494 1_555
O2 V3 1.927525 1_444
O3 V21 1.767061 1_555
O3 V2 1.843358 1_544
O4 V4 1.621809 1_555
O5 V5 1.618651 1_555
O6 V0 1.852533 1_555
O6 V1 1.974025 1_555
O6 V10 2.300687 1_545
O6 V2 2.388399 1_545
O7 V0 1.887349 1_655
O7 V1 1.993797 1_555
O7 V3 2.286504 1_545
O7 V11 2.337828 1_545
O8 V2 1.632425 1_555
O8 V6 2.454781 1_555
O9 V3 1.667997 1_555
O9 V7 2.379785 1_555
O10 V2 1.875812 1_555
O10 V0 1.981575 1_565
O10 V3 1.985043 1_455
O11 V2 1.858429 1_555
O11 V3 1.980241 1_555
O11 V1 1.999135 1_565
O12 V4 1.840708 1_555
O12 V0 1.971224 1_555
O12 V8 2.113458 1_555
O13 V5 1.846250 1_555
O13 V9 1.991799 1_555
O13 V1 2.048113 1_555
O14 V5 1.915038 1_555
O14 V4 1.920148 1_555
O14 V6 2.036151 1_555
O15 V5 1.907968 1_555
O15 V4 1.912254 1_655
O15 V7 2.051831 1_555
O16 V10 1.869059 1_545
O16 V11 1.965445 1_445
O16 V8 2.267074 1_555
O16 V0 2.427548 1_555
O17 V10 1.847165 1_545
O17 V11 1.958946 1_545
O17 V9 2.364962 1_555
O17 V1 2.388867 1_555
O18 V6 1.911349 1_555
O18 V7 1.940404 1_455
O18 V4 2.023605 1_555
O19 V6 1.902639 1_555
O19 V7 1.929701 1_555
O19 V5 1.997792 1_555
O20 V6 1.857881 1_555
O20 V10 1.928008 1_555
O20 V2 2.215725 1_555
O21 V7 1.803236 1_555
O21 V11 2.000736 1_555
O21 V3 2.129562 1_555
O22 V9 1.860455 1_555
O22 V8 2.002179 1_555
O22 V10 2.031831 1_545
O23 V9 1.866716 1_555
O23 V11 1.997353 1_545
O23 V8 2.004650 1_655
O24 V8 1.650039 1_555
O25 V9 1.611610 1_555
O26 V6 1.612746 1_555
O27 V7 1.618304 1_555
O28 V12 1.703088 1_555
O28 V8 1.994722 1_555
O29 V13 1.676427 1_555
O29 V9 2.098053 1_555
O30 V10 1.675562 1_555
O30 V14 2.098589 1_555
O31 V11 1.706189 1_555
O31 V15 1.996022 1_555
O32 V17 1.599493 1_555
O33 V16 1.614319 1_555
O34 V14 1.641025 1_555
O35 V15 1.629343 1_555
O36 V15 1.871851 1_455
O36 V14 1.997202 1_555
O36 V12 2.000249 1_565
O37 V15 1.857845 1_555
O37 V14 1.983517 1_555
O37 V13 2.075380 1_565
O38 V16 1.789367 1_555
O38 V12 1.996490 1_555
O38 V20 2.216165 1_555
O39 V13 1.876162 1_555
O39 V17 1.876210 1_555
O39 V21 2.291246 1_555
O40 V17 1.915390 1_555
O40 V16 1.929946 1_555
O40 V18 2.010236 1_555
O41 V17 1.925554 1_555
O41 V16 1.938136 1_655
O41 V19 1.996839 1_555
O42 V13 1.863788 1_565
O42 V12 1.986266 1_565
O42 V14 2.274940 1_555
O42 V22 2.410203 1_555
O43 V13 1.847324 1_565
O43 V12 1.968593 1_665
O43 V15 2.296612 1_555
O43 V23 2.379239 1_555
O44 V19 1.889968 1_455
O44 V18 1.922599 1_555
O44 V16 2.078402 1_555
O45 V19 1.909222 1_555
O45 V18 1.936213 1_555
O45 V17 2.026038 1_555
O46 V18 1.816829 1_555
O46 V22 2.018470 1_555
O46 V14 2.056467 1_555
O47 V19 1.881946 1_555
O47 V23 1.984935 1_555
O47 V15 2.057774 1_555
O48 V21 1.920815 1_555
O48 V20 1.953165 1_655
O48 V23 1.986170 1_545
O49 V21 1.898285 1_555
O49 V20 1.938610 1_555
O49 V22 2.015386 1_545
O50 V20 1.641157 1_555
O50 V16 2.412963 1_555
O51 V21 1.651808 1_555
O51 V17 2.502970 1_555
O52 V23 1.875426 1_555
O52 V22 1.973675 1_555
O52 V21 2.250285 1_565
O52 V13 2.387375 1_565
O53 V23 1.861760 1_455
O53 V22 1.982134 1_555
O53 V12 2.285543 1_565
O53 V20 2.418965 1_565
O54 V18 1.623455 1_555
O55 V19 1.620579 1_555
O56 V23 1.621559 1_555
O57 V22 1.632030 1_555
