# generated using pymatgen
data_Li9Mn2Co5O16
_symmetry_space_group_name_H-M   'P 1'
_cell_length_a   5.08755900
_cell_length_b   5.79142995
_cell_length_c   10.48593458
_cell_angle_alpha   74.77933430
_cell_angle_beta   76.92872621
_cell_angle_gamma   74.15783027
_symmetry_Int_Tables_number   1
_chemical_formula_structural   Li9Mn2Co5O16
_chemical_formula_sum   'Li9 Mn2 Co5 O16'
_cell_volume   282.79891850
_cell_formula_units_Z   1
loop_
 _symmetry_equiv_pos_site_id
 _symmetry_equiv_pos_as_xyz
  1  'x, y, z'
loop_
 _atom_site_type_symbol
 _atom_site_label
 _atom_site_symmetry_multiplicity
 _atom_site_fract_x
 _atom_site_fract_y
 _atom_site_fract_z
 _atom_site_occupancy
  Li  Li0  1  0.49768800  0.81644700  0.12011400  1
  Li  Li1  1  0.49912200  0.32125000  0.11781500  1
  Li  Li2  1  0.50582300  0.43502300  0.37538400  1
  Li  Li3  1  0.49698200  0.93926300  0.37651600  1
  Li  Li4  1  0.50147800  0.06039300  0.62850500  1
  Li  Li5  1  0.49861500  0.55839600  0.62855800  1
  Li  Li6  1  0.49966200  0.67872100  0.87530200  1
  Li  Li7  1  0.50025500  0.19307600  0.87501300  1
  Li  Li8  1  0.00180400  0.49467300  0.00036300  1
  Mn  Mn0  1  0.00503900  0.00306300  0.00157500  1
  Mn  Mn1  1  0.00092800  0.62383700  0.24522000  1
  Co  Co0  1  0.00022700  0.13016500  0.24695100  1
  Co  Co1  1  0.99892100  0.25239900  0.50283900  1
  Co  Co2  1  0.99930300  0.75543300  0.50087600  1
  Co  Co3  1  0.98856000  0.86533800  0.75990100  1
  Co  Co4  1  0.99838200  0.37753200  0.75787700  1
  O  O0  1  0.22221600  0.14699200  0.07134600  1
  O  O1  1  0.22336000  0.67224900  0.07020400  1
  O  O2  1  0.21767700  0.79696400  0.30825700  1
  O  O3  1  0.22344000  0.29769100  0.30286700  1
  O  O4  1  0.23349900  0.40444100  0.55612300  1
  O  O5  1  0.22719400  0.90494800  0.56452200  1
  O  O6  1  0.23098300  0.02668900  0.82760200  1
  O  O7  1  0.23784000  0.52666200  0.80418000  1
  O  O8  1  0.77506000  0.46189500  0.19545300  1
  O  O9  1  0.78257800  0.96066700  0.18373100  1
  O  O10  1  0.77934900  0.09881900  0.42814900  1
  O  O11  1  0.77527900  0.60215900  0.42686300  1
  O  O12  1  0.76236900  0.71024800  0.68660800  1
  O  O13  1  0.77244600  0.21477700  0.68608500  1
  O  O14  1  0.76717900  0.31784600  0.94196200  1
  O  O15  1  0.77674200  0.85194700  0.93323900  1
loop_
_geom_bond_atom_site_label_1
_geom_bond_atom_site_label_2
_geom_bond_distance
_geom_bond_site_symmetry_2
Li0 O1 2.028647 1_555
Li0 O0 2.058073 1_565
Li0 O15 2.141764 1_554
Li0 O2 2.152654 1_555
Li0 O9 2.152725 1_555
Li0 O8 2.214095 1_555
Li1 O14 2.031605 1_554
Li1 O3 2.117902 1_555
Li1 O1 2.139302 1_555
Li1 O0 2.141383 1_555
Li1 O8 2.187806 1_555
Li1 O9 2.228699 1_545
Li2 O8 2.062399 1_555
Li2 O4 2.076717 1_555
Li2 O10 2.082565 1_555
Li2 O11 2.107412 1_555
Li2 O3 2.170318 1_555
Li2 O2 2.247813 1_555
Li3 O11 2.093469 1_555
Li3 O5 2.128187 1_555
Li3 O10 2.133071 1_565
Li3 O2 2.149373 1_555
Li3 O9 2.202563 1_555
Li3 O3 2.215690 1_565
Li4 O13 2.096981 1_555
Li4 O12 2.119575 1_545
Li4 O4 2.143784 1_555
Li4 O5 2.152749 1_545
Li4 O6 2.218923 1_555
Li4 O10 2.246050 1_555
Li5 O7 2.008871 1_555
Li5 O12 2.058977 1_555
Li5 O13 2.121582 1_555
Li5 O5 2.141142 1_555
Li5 O4 2.160262 1_555
Li5 O11 2.255052 1_555
Li6 O6 2.110882 1_565
Li6 O12 2.117077 1_555
Li6 O7 2.130887 1_555
Li6 O14 2.195263 1_555
Li6 O15 2.200503 1_555
Li6 O1 2.200751 1_556
Li7 O14 2.022983 1_555
Li7 O6 2.081536 1_555
Li7 O7 2.086457 1_555
Li7 O15 2.119519 1_545
Li7 O13 2.140449 1_555
Li7 O0 2.216058 1_556
Li8 O14 2.043515 1_454
Li8 O0 2.055171 1_555
Li8 O1 2.065495 1_555
Li8 O15 2.096207 1_454
Li8 O8 2.097590 1_455
Li8 O7 2.124200 1_554
Mn0 O0 1.907767 1_555
Mn0 O6 1.916851 1_554
Mn0 O14 1.928199 1_454
Mn0 O15 1.972094 1_444
Mn0 O1 1.974326 1_545
Mn0 O9 1.979203 1_445
Mn1 O8 1.894482 1_455
Mn1 O1 1.921162 1_555
Mn1 O3 1.938362 1_555
Mn1 O11 1.981317 1_455
Mn1 O9 1.983814 1_455
Mn1 O2 1.984840 1_555
Co0 O0 1.923770 1_555
Co0 O3 1.943228 1_555
Co0 O8 1.956614 1_455
Co0 O2 1.966132 1_545
Co0 O10 1.967317 1_455
Co0 O9 1.973923 1_445
Co1 O4 1.909319 1_655
Co1 O10 1.989065 1_555
Co1 O13 1.995754 1_555
Co1 O5 2.048578 1_645
Co1 O11 2.082477 1_555
Co1 O3 2.135857 1_655
Co2 O5 1.934164 1_655
Co2 O11 2.000874 1_555
Co2 O12 2.038939 1_555
Co2 O10 2.040434 1_565
Co2 O2 2.060949 1_655
Co2 O4 2.063696 1_655
Co3 O15 1.885910 1_555
Co3 O12 2.012085 1_555
Co3 O7 2.025136 1_655
Co3 O13 2.061837 1_565
Co3 O6 2.066858 1_665
Co3 O5 2.122285 1_655
Co4 O7 1.878304 1_655
Co4 O14 2.018355 1_555
Co4 O12 2.024782 1_555
Co4 O13 2.032729 1_555
Co4 O6 2.088540 1_655
Co4 O4 2.171358 1_655
