# generated using pymatgen
data_Dy(CuTe)3
_symmetry_space_group_name_H-M   'P 1'
_cell_length_a   8.22018759
_cell_length_b   8.22018759
_cell_length_c   8.22018804
_cell_angle_alpha   53.93836001
_cell_angle_beta   53.93836001
_cell_angle_gamma   53.93836400
_symmetry_Int_Tables_number   1
_chemical_formula_structural   Dy(CuTe)3
_chemical_formula_sum   'Dy2 Cu6 Te6'
_cell_volume   337.14082912
_cell_formula_units_Z   2
loop_
 _symmetry_equiv_pos_site_id
 _symmetry_equiv_pos_as_xyz
  1  'x, y, z'
loop_
 _atom_site_type_symbol
 _atom_site_label
 _atom_site_symmetry_multiplicity
 _atom_site_fract_x
 _atom_site_fract_y
 _atom_site_fract_z
 _atom_site_occupancy
  Dy  Dy0  1  0.83397300  0.83397300  0.83397300  1
  Dy  Dy1  1  0.16602700  0.16602700  0.16602700  1
  Cu  Cu0  1  0.26762000  0.97604900  0.62840200  1
  Cu  Cu1  1  0.62840200  0.26762000  0.97604900  1
  Cu  Cu2  1  0.97604900  0.62840200  0.26762000  1
  Cu  Cu3  1  0.02395100  0.37159800  0.73238000  1
  Cu  Cu4  1  0.37159800  0.73238000  0.02395100  1
  Cu  Cu5  1  0.73238000  0.02395100  0.37159800  1
  Te  Te0  1  0.09706500  0.73564300  0.41904700  1
  Te  Te1  1  0.73564300  0.41904700  0.09706500  1
  Te  Te2  1  0.41904700  0.09706500  0.73564300  1
  Te  Te3  1  0.58095300  0.90293500  0.26435700  1
  Te  Te4  1  0.26435700  0.58095300  0.90293500  1
  Te  Te5  1  0.90293500  0.26435700  0.58095300  1
loop_
_geom_bond_atom_site_label_1
_geom_bond_atom_site_label_2
_geom_bond_distance
_geom_bond_site_symmetry_2
Dy0 Te1 3.076890 1_556
Dy0 Te2 3.076891 1_565
Dy0 Te0 3.076891 1_655
Dy0 Te5 3.077923 1_565
Dy0 Te4 3.077923 1_655
Dy0 Te3 3.077923 1_556
Dy1 Te4 3.076890 1_554
Dy1 Te3 3.076891 1_545
Dy1 Te5 3.076891 1_455
Dy1 Te0 3.077923 1_545
Dy1 Te1 3.077923 1_455
Dy1 Te2 3.077923 1_554
Cu0 Te5 2.584466 1_465
Cu0 Te4 2.654036 1_555
Cu0 Te2 2.664248 1_565
Cu0 Te3 2.677871 1_555
Cu1 Te3 2.584466 1_546
Cu1 Te5 2.654036 1_555
Cu1 Te1 2.664248 1_556
Cu1 Te4 2.677871 1_555
Cu2 Te4 2.584466 1_654
Cu2 Te3 2.654036 1_555
Cu2 Te0 2.664248 1_655
Cu2 Te5 2.677871 1_555
Cu3 Te1 2.584466 1_456
Cu3 Te2 2.654036 1_555
Cu3 Te5 2.664248 1_455
Cu3 Te0 2.677871 1_555
Cu4 Te2 2.584466 1_564
Cu4 Te0 2.654036 1_555
Cu4 Te4 2.664248 1_554
Cu4 Te1 2.677871 1_555
Cu5 Te0 2.584466 1_645
Cu5 Te1 2.654036 1_555
Cu5 Te3 2.664248 1_545
Cu5 Te2 2.677871 1_555
