# generated using pymatgen
data_CsH5N2
_symmetry_space_group_name_H-M   'P 1'
_cell_length_a   5.32332472
_cell_length_b   7.17536412
_cell_length_c   9.92804533
_cell_angle_alpha   90.00000000
_cell_angle_beta   90.00000000
_cell_angle_gamma   90.00000000
_symmetry_Int_Tables_number   1
_chemical_formula_structural   CsH5N2
_chemical_formula_sum   'Cs4 H20 N8'
_cell_volume   379.21949430
_cell_formula_units_Z   4
loop_
 _symmetry_equiv_pos_site_id
 _symmetry_equiv_pos_as_xyz
  1  'x, y, z'
loop_
 _atom_site_type_symbol
 _atom_site_label
 _atom_site_symmetry_multiplicity
 _atom_site_fract_x
 _atom_site_fract_y
 _atom_site_fract_z
 _atom_site_occupancy
  Cs  Cs0  1  0.75000000  0.22022102  0.57123582  1
  Cs  Cs1  1  0.75000000  0.72022102  0.92876418  1
  Cs  Cs2  1  0.25000000  0.77977898  0.42876418  1
  Cs  Cs3  1  0.25000000  0.27977898  0.07123582  1
  H  H0  1  0.75000000  0.28663612  0.86850817  1
  H  H1  1  0.75000000  0.78663612  0.63149183  1
  H  H2  1  0.25000000  0.71336388  0.13149183  1
  H  H3  1  0.25000000  0.21336388  0.36850817  1
  H  H4  1  0.75000000  0.12539384  0.97929164  1
  H  H5  1  0.75000000  0.62539384  0.52070836  1
  H  H6  1  0.25000000  0.87460616  0.02070836  1
  H  H7  1  0.25000000  0.37460616  0.47929164  1
  H  H8  1  0.75000000  0.13440212  0.25578008  1
  H  H9  1  0.75000000  0.63440212  0.24421992  1
  H  H10  1  0.25000000  0.86559788  0.74421992  1
  H  H11  1  0.25000000  0.36559788  0.75578008  1
  H  H12  1  0.59245997  0.94931935  0.20628174  1
  H  H13  1  0.90754003  0.44931935  0.29371826  1
  H  H14  1  0.09245997  0.05068065  0.79371826  1
  H  H15  1  0.40754003  0.55068065  0.70628174  1
  H  H16  1  0.40754003  0.05068065  0.79371826  1
  H  H17  1  0.09245997  0.55068065  0.70628174  1
  H  H18  1  0.90754003  0.94931935  0.20628174  1
  H  H19  1  0.59245997  0.44931935  0.29371826  1
  N  N0  1  0.75000000  0.14399036  0.87688869  1
  N  N1  1  0.75000000  0.64399036  0.62311131  1
  N  N2  1  0.25000000  0.85600964  0.12311131  1
  N  N3  1  0.25000000  0.35600964  0.37688869  1
  N  N4  1  0.75000000  0.49251389  0.24090516  1
  N  N5  1  0.75000000  0.99251389  0.25909484  1
  N  N6  1  0.25000000  0.50748611  0.75909484  1
  N  N7  1  0.25000000  0.00748611  0.74090516  1
loop_
_geom_bond_atom_site_label_1
_geom_bond_atom_site_label_2
_geom_bond_distance
_geom_bond_site_symmetry_2
Cs0 H5 2.950223 1_555
Cs0 H0 2.989560 1_555
Cs0 H7 3.024046 1_555
Cs0 H7 3.024046 1_655
Cs0 H14 3.111623 1_655
Cs0 H16 3.111623 1_555
Cs0 H1 3.168122 1_545
Cs0 H8 3.191822 1_555
Cs1 H4 2.950223 1_565
Cs1 H1 2.989560 1_555
Cs1 H6 3.024046 1_556
Cs1 H6 3.024046 1_656
Cs1 H17 3.111623 1_655
Cs1 H15 3.111623 1_555
Cs1 H0 3.168122 1_555
Cs1 H9 3.191822 1_556
Cs2 H7 2.950223 1_555
Cs2 H2 2.989560 1_555
Cs2 H5 3.024046 1_455
Cs2 H5 3.024046 1_555
Cs2 H12 3.111623 1_555
Cs2 H18 3.111623 1_455
Cs2 H3 3.168122 1_565
Cs2 H10 3.191822 1_555
Cs3 H6 2.950223 1_545
Cs3 H3 2.989560 1_555
Cs3 H4 3.024046 1_454
Cs3 H4 3.024046 1_554
Cs3 H19 3.111623 1_555
Cs3 H13 3.111623 1_455
Cs3 H2 3.168122 1_555
Cs3 H11 3.191822 1_554
H0 N0 1.026911 1_555
H1 N1 1.026911 1_555
H2 N2 1.026911 1_555
H3 N3 1.026911 1_555
H4 N0 1.025381 1_555
H5 N1 1.025381 1_555
H6 N2 1.025381 1_555
H7 N3 1.025381 1_555
H8 N5 1.018631 1_545
H9 N4 1.018631 1_555
H10 N7 1.018631 1_565
H11 N6 1.018631 1_555
H12 N5 1.036482 1_555
H13 N4 1.036482 1_555
H14 N7 1.036482 1_555
H15 N6 1.036482 1_555
H16 N7 1.036482 1_555
H17 N6 1.036482 1_555
H18 N5 1.036482 1_555
H19 N4 1.036482 1_555
