# generated using pymatgen
data_Fe5O8
_symmetry_space_group_name_H-M   'P 1'
_cell_length_a   6.01286413
_cell_length_b   6.01286413
_cell_length_c   6.01286413
_cell_angle_alpha   60.00000000
_cell_angle_beta   60.00000000
_cell_angle_gamma   60.00000000
_symmetry_Int_Tables_number   1
_chemical_formula_structural   Fe5O8
_chemical_formula_sum   'Fe5 O8'
_cell_volume   153.71957432
_cell_formula_units_Z   1
loop_
 _symmetry_equiv_pos_site_id
 _symmetry_equiv_pos_as_xyz
  1  'x, y, z'
loop_
 _atom_site_type_symbol
 _atom_site_label
 _atom_site_symmetry_multiplicity
 _atom_site_fract_x
 _atom_site_fract_y
 _atom_site_fract_z
 _atom_site_occupancy
  Fe  Fe0  1  0.61280700  0.12906400  0.12906400  1
  Fe  Fe1  1  0.12906400  0.61280700  0.12906400  1
  Fe  Fe2  1  0.12906400  0.12906400  0.61280700  1
  Fe  Fe3  1  0.12906400  0.12906400  0.12906400  1
  Fe  Fe4  1  0.75000000  0.75000000  0.75000000  1
  O  O0  1  0.35233500  0.88255500  0.88255500  1
  O  O1  1  0.88255500  0.35233500  0.88255500  1
  O  O2  1  0.88255500  0.88255500  0.35233500  1
  O  O3  1  0.88255500  0.88255500  0.88255500  1
  O  O4  1  0.91377600  0.36207500  0.36207500  1
  O  O5  1  0.36207500  0.91377600  0.36207500  1
  O  O6  1  0.36207500  0.36207500  0.91377600  1
  O  O7  1  0.36207500  0.36207500  0.36207500  1
loop_
_geom_bond_atom_site_label_1
_geom_bond_atom_site_label_2
_geom_bond_distance
_geom_bond_site_symmetry_2
Fe0 O6 1.984258 1_554
Fe0 O5 1.984258 1_545
Fe0 O7 1.984266 1_555
Fe0 O3 2.100835 1_544
Fe0 O2 2.100839 1_545
Fe0 O1 2.100839 1_554
Fe1 O6 1.984258 1_554
Fe1 O4 1.984258 1_455
Fe1 O7 1.984266 1_555
Fe1 O3 2.100835 1_454
Fe1 O0 2.100839 1_554
Fe1 O2 2.100839 1_455
Fe2 O5 1.984258 1_545
Fe2 O4 1.984258 1_455
Fe2 O7 1.984266 1_555
Fe2 O3 2.100835 1_445
Fe2 O1 2.100839 1_455
Fe2 O0 2.100839 1_545
Fe3 O5 1.984267 1_545
Fe3 O4 1.984267 1_455
Fe3 O6 1.984267 1_554
Fe3 O2 2.100835 1_445
Fe3 O1 2.100835 1_454
Fe3 O0 2.100835 1_544
Fe4 O3 1.952330 1_555
Fe4 O0 1.952330 1_555
Fe4 O2 1.952330 1_555
Fe4 O1 1.952330 1_555
