# generated using pymatgen
data_Li4Mn3CoO8
_symmetry_space_group_name_H-M   'P 1'
_cell_length_a   9.89621754
_cell_length_b   9.89621754
_cell_length_c   5.03631778
_cell_angle_alpha   87.99182070
_cell_angle_beta   87.99182070
_cell_angle_gamma   17.88882717
_symmetry_Int_Tables_number   1
_chemical_formula_structural   Li4Mn3CoO8
_chemical_formula_sum   'Li4 Mn3 Co1 O8'
_cell_volume   151.41135564
_cell_formula_units_Z   1
loop_
 _symmetry_equiv_pos_site_id
 _symmetry_equiv_pos_as_xyz
  1  'x, y, z'
loop_
 _atom_site_type_symbol
 _atom_site_label
 _atom_site_symmetry_multiplicity
 _atom_site_fract_x
 _atom_site_fract_y
 _atom_site_fract_z
 _atom_site_occupancy
  Li  Li0  1  0.37614500  0.37614500  0.87328900  1
  Li  Li1  1  0.62385500  0.62385500  0.12671100  1
  Li  Li2  1  0.87487400  0.87487400  0.37445300  1
  Li  Li3  1  0.12512600  0.12512600  0.62554700  1
  Mn  Mn0  1  0.24980400  0.24980400  0.24965600  1
  Mn  Mn1  1  0.50000000  0.50000000  0.50000000  1
  Mn  Mn2  1  0.75019600  0.75019600  0.75034400  1
  Co  Co0  1  0.00000000  0.00000000  0.00000000  1
  O  O0  1  0.55615300  0.55615300  0.80799200  1
  O  O1  1  0.80785800  0.80785800  0.05311700  1
  O  O2  1  0.05751000  0.05751000  0.30183600  1
  O  O3  1  0.30793200  0.30793200  0.55201600  1
  O  O4  1  0.19214200  0.19214200  0.94688300  1
  O  O5  1  0.44384700  0.44384700  0.19200800  1
  O  O6  1  0.69206800  0.69206800  0.44798400  1
  O  O7  1  0.94249000  0.94249000  0.69816400  1
loop_
_geom_bond_atom_site_label_1
_geom_bond_atom_site_label_2
_geom_bond_distance
_geom_bond_site_symmetry_2
Li0 O5 2.116478 1_556
Li0 O3 2.133036 1_555
Li0 O7 2.178698 1_545
Li0 O7 2.178698 1_455
Li0 O1 2.210067 1_546
Li0 O1 2.210067 1_456
Li1 O0 2.116478 1_554
Li1 O6 2.133036 1_555
Li1 O2 2.178698 1_655
Li1 O2 2.178698 1_565
Li1 O4 2.210067 1_654
Li1 O4 2.210067 1_564
Li2 O1 2.118097 1_555
Li2 O7 2.135074 1_555
Li2 O3 2.190224 1_655
Li2 O3 2.190224 1_565
Li2 O5 2.223132 1_655
Li2 O5 2.223132 1_565
Li3 O4 2.118097 1_555
Li3 O2 2.135074 1_555
Li3 O6 2.190224 1_545
Li3 O6 2.190224 1_455
Li3 O0 2.223132 1_545
Li3 O0 2.223132 1_455
Mn0 O4 1.928259 1_554
Mn0 O3 1.932172 1_555
Mn0 O1 2.134428 1_545
Mn0 O1 2.134428 1_455
Mn0 O6 2.135261 1_545
Mn0 O6 2.135261 1_455
Mn1 O0 1.931900 1_555
Mn1 O5 1.931900 1_555
Mn1 O7 2.132631 1_545
Mn1 O2 2.132631 1_565
Mn1 O7 2.132631 1_455
Mn1 O2 2.132631 1_655
Mn2 O1 1.928259 1_556
Mn2 O6 1.932172 1_555
Mn2 O4 2.134428 1_655
Mn2 O4 2.134428 1_565
Mn2 O3 2.135261 1_565
Mn2 O3 2.135261 1_655
Co0 O7 1.922608 1_444
Co0 O2 1.922608 1_555
Co0 O5 2.105356 1_455
Co0 O5 2.105356 1_545
Co0 O0 2.105356 1_544
Co0 O0 2.105356 1_454
