# generated using pymatgen
data_Mg(CoO2)2
_symmetry_space_group_name_H-M   'P 1'
_cell_length_a   5.97244258
_cell_length_b   5.97244258
_cell_length_c   5.97244163
_cell_angle_alpha   59.75553180
_cell_angle_beta   59.75553180
_cell_angle_gamma   59.75553152
_symmetry_Int_Tables_number   1
_chemical_formula_structural   Mg(CoO2)2
_chemical_formula_sum   'Mg2 Co4 O8'
_cell_volume   149.80397049
_cell_formula_units_Z   2
loop_
 _symmetry_equiv_pos_site_id
 _symmetry_equiv_pos_as_xyz
  1  'x, y, z'
loop_
 _atom_site_type_symbol
 _atom_site_label
 _atom_site_symmetry_multiplicity
 _atom_site_fract_x
 _atom_site_fract_y
 _atom_site_fract_z
 _atom_site_occupancy
  Mg  Mg0  1  0.00409700  0.00409700  0.00409700  1
  Mg  Mg1  1  0.62535600  0.62535600  0.62535600  1
  Co  Co0  1  0.24572900  0.24572900  0.24572900  1
  Co  Co1  1  0.62622600  0.12085400  0.62622600  1
  Co  Co2  1  0.62622600  0.62622600  0.12085400  1
  Co  Co3  1  0.12085400  0.62622600  0.62622600  1
  O  O0  1  0.84400400  0.37838000  0.37838000  1
  O  O1  1  0.37838000  0.37838000  0.84400400  1
  O  O2  1  0.37838000  0.84400400  0.37838000  1
  O  O3  1  0.38128900  0.38128900  0.38128900  1
  O  O4  1  0.86798300  0.86798300  0.86798300  1
  O  O5  1  0.87098900  0.40949700  0.87098900  1
  O  O6  1  0.87098900  0.87098900  0.40949700  1
  O  O7  1  0.40949700  0.87098900  0.87098900  1
loop_
_geom_bond_atom_site_label_1
_geom_bond_atom_site_label_2
_geom_bond_distance
_geom_bond_site_symmetry_2
Mg0 O6 1.971020 1_445
Mg0 O5 1.971020 1_454
Mg0 O7 1.971020 1_544
Mg0 O4 1.994942 1_444
Mg1 O7 2.079407 1_555
Mg1 O5 2.079407 1_555
Mg1 O6 2.079407 1_555
Mg1 O0 2.089927 1_555
Mg1 O2 2.089927 1_555
Mg1 O1 2.089927 1_555
Co0 O1 1.953058 1_554
Co0 O0 1.953058 1_455
Co0 O2 1.953058 1_545
Co0 O3 1.986822 1_555
Co1 O6 1.970161 1_545
Co1 O7 1.970161 1_545
Co1 O1 2.007667 1_555
Co1 O0 2.007667 1_555
Co1 O4 2.038916 1_545
Co1 O3 2.066582 1_555
Co2 O7 1.970161 1_554
Co2 O5 1.970161 1_554
Co2 O0 2.007667 1_555
Co2 O2 2.007667 1_555
Co2 O4 2.038917 1_554
Co2 O3 2.066582 1_555
Co3 O6 1.970161 1_455
Co3 O5 1.970161 1_455
Co3 O1 2.007667 1_555
Co3 O2 2.007667 1_555
Co3 O4 2.038916 1_455
Co3 O3 2.066582 1_555
