# generated using pymatgen
data_Mg14CdCo
_symmetry_space_group_name_H-M   'P 1'
_cell_length_a   6.28491809
_cell_length_b   6.28491760
_cell_length_c   9.90916743
_cell_angle_alpha   90.00000000
_cell_angle_beta   90.00000000
_cell_angle_gamma   120.00000262
_symmetry_Int_Tables_number   1
_chemical_formula_structural   Mg14CdCo
_chemical_formula_sum   'Mg14 Cd1 Co1'
_cell_volume   338.97447516
_cell_formula_units_Z   1
loop_
 _symmetry_equiv_pos_site_id
 _symmetry_equiv_pos_as_xyz
  1  'x, y, z'
loop_
 _atom_site_type_symbol
 _atom_site_label
 _atom_site_symmetry_multiplicity
 _atom_site_fract_x
 _atom_site_fract_y
 _atom_site_fract_z
 _atom_site_occupancy
  Mg  Mg0  1  0.16310904  0.83155402  0.12500000  1
  Mg  Mg1  1  0.16824142  0.83412021  0.62500000  1
  Mg  Mg2  1  0.66844598  0.33689096  0.12500000  1
  Mg  Mg3  1  0.66587979  0.33175858  0.62500000  1
  Mg  Mg4  1  0.66844598  0.83155402  0.12500000  1
  Mg  Mg5  1  0.66587979  0.83412021  0.62500000  1
  Mg  Mg6  1  0.32648009  0.17351991  0.36454539  1
  Mg  Mg7  1  0.32648009  0.17351991  0.88545461  1
  Mg  Mg8  1  0.32648009  0.65296117  0.36454539  1
  Mg  Mg9  1  0.32648009  0.65296117  0.88545461  1
  Mg  Mg10  1  0.84703883  0.17351991  0.36454539  1
  Mg  Mg11  1  0.84703883  0.17351991  0.88545461  1
  Mg  Mg12  1  0.83333300  0.66666700  0.37712358  1
  Mg  Mg13  1  0.83333300  0.66666700  0.87287642  1
  Cd  Cd0  1  0.16666700  0.33333300  0.62500000  1
  Co  Co0  1  0.16666700  0.33333300  0.12500000  1
loop_
_geom_bond_atom_site_label_1
_geom_bond_atom_site_label_2
_geom_bond_distance
_geom_bond_site_symmetry_2
Mg0 Mg9 3.016797 1_554
Mg0 Mg8 3.016797 1_555
Mg0 Mg7 3.016803 1_564
Mg0 Mg6 3.016803 1_565
Mg0 Mg12 3.076277 1_455
Mg0 Mg13 3.076277 1_454
Mg0 Mg2 3.108917 1_455
Mg0 Mg4 3.108917 1_455
Mg0 Mg2 3.176001 1_565
Mg0 Mg4 3.176001 1_555
Mg1 Mg12 3.058762 1_455
Mg1 Mg13 3.058762 1_455
Mg1 Mg3 3.127616 1_565
Mg1 Mg5 3.127616 1_555
Mg1 Mg3 3.157301 1_455
Mg1 Mg5 3.157302 1_455
Mg1 Mg8 3.174699 1_555
Mg1 Mg9 3.174699 1_555
Mg1 Mg6 3.174706 1_565
Mg1 Mg7 3.174706 1_565
Mg2 Mg7 3.016803 1_554
Mg2 Mg6 3.016803 1_555
Mg2 Mg4 3.108917 1_555
Mg2 Mg4 3.176001 1_545
Mg3 Mg5 3.127616 1_545
Mg3 Mg5 3.157301 1_555
Mg3 Mg6 3.174706 1_555
Mg3 Mg7 3.174706 1_555
Mg4 Mg9 3.016803 1_554
Mg4 Mg8 3.016803 1_555
Mg5 Mg8 3.174706 1_555
Mg5 Mg9 3.174706 1_555
Mg6 Mg8 3.013249 1_555
Mg6 Mg8 3.271669 1_545
Mg7 Mg9 3.013249 1_555
Mg7 Mg9 3.271669 1_545
Mg10 Mg8 3.013249 1_655
Mg10 Mg6 3.013249 1_655
Mg10 Mg2 3.016797 1_555
Mg10 Mg4 3.016803 1_545
Mg10 Mg12 3.145814 1_545
Mg10 Mg12 3.145814 1_555
Mg10 Mg3 3.174699 1_555
Mg10 Mg5 3.174706 1_545
Mg10 Mg8 3.271669 1_545
Mg10 Mg6 3.271669 1_555
Mg11 Mg9 3.013249 1_655
Mg11 Mg7 3.013249 1_655
Mg11 Mg2 3.016797 1_556
Mg11 Mg4 3.016803 1_546
Mg11 Mg13 3.145814 1_545
Mg11 Mg13 3.145814 1_555
Mg11 Mg3 3.174699 1_555
Mg11 Mg5 3.174706 1_545
Mg11 Mg9 3.271669 1_545
Mg11 Mg7 3.271669 1_555
Mg12 Mg5 3.058755 1_555
Mg12 Mg3 3.058762 1_555
Mg12 Mg4 3.076270 1_555
Mg12 Mg2 3.076276 1_555
Mg12 Mg6 3.145814 1_665
Mg12 Mg6 3.145814 1_555
Mg12 Mg8 3.145814 1_555
Mg12 Mg8 3.145815 1_655
Mg13 Mg5 3.058755 1_555
Mg13 Mg3 3.058762 1_555
Mg13 Mg4 3.076270 1_556
Mg13 Mg2 3.076276 1_556
Mg13 Mg7 3.145814 1_665
Mg13 Mg7 3.145814 1_555
Mg13 Mg9 3.145814 1_555
Mg13 Mg9 3.145815 1_655
Cd0 Mg6 3.112477 1_555
Cd0 Mg7 3.112477 1_555
Cd0 Mg8 3.112483 1_555
Cd0 Mg9 3.112483 1_555
Cd0 Mg10 3.112484 1_455
Cd0 Mg11 3.112484 1_455
Cd0 Mg5 3.142470 1_555
Cd0 Mg5 3.142470 1_445
Cd0 Mg1 3.142470 1_555
Cd0 Mg1 3.142470 1_545
Cd0 Mg3 3.142471 1_455
Cd0 Mg3 3.142471 1_555
Co0 Mg7 2.942951 1_554
Co0 Mg6 2.942951 1_555
Co0 Mg9 2.942957 1_554
Co0 Mg8 2.942957 1_555
Co0 Mg11 2.942957 1_454
Co0 Mg10 2.942957 1_455
Co0 Mg4 3.142518 1_445
Co0 Mg0 3.142518 1_545
Co0 Mg4 3.142518 1_555
Co0 Mg0 3.142518 1_555
Co0 Mg2 3.142519 1_555
Co0 Mg2 3.142519 1_455
