# generated using pymatgen
data_SrCa7Mn6Cr2O24
_symmetry_space_group_name_H-M   'P 1'
_cell_length_a   7.64543300
_cell_length_b   7.61321944
_cell_length_c   7.61321944
_cell_angle_alpha   89.96083559
_cell_angle_beta   90.00000000
_cell_angle_gamma   90.00000000
_symmetry_Int_Tables_number   1
_chemical_formula_structural   SrCa7Mn6Cr2O24
_chemical_formula_sum   'Sr1 Ca7 Mn6 Cr2 O24'
_cell_volume   443.13768197
_cell_formula_units_Z   1
loop_
 _symmetry_equiv_pos_site_id
 _symmetry_equiv_pos_as_xyz
  1  'x, y, z'
loop_
 _atom_site_type_symbol
 _atom_site_label
 _atom_site_symmetry_multiplicity
 _atom_site_fract_x
 _atom_site_fract_y
 _atom_site_fract_z
 _atom_site_occupancy
  Sr  Sr0  1  0.25000000  0.25078000  0.25078000  1
  Ca  Ca0  1  0.25000000  0.25065400  0.74883400  1
  Ca  Ca1  1  0.25000000  0.74883400  0.25065400  1
  Ca  Ca2  1  0.25000000  0.74917000  0.74917000  1
  Ca  Ca3  1  0.75000000  0.25081700  0.25081700  1
  Ca  Ca4  1  0.75000000  0.25123600  0.74936700  1
  Ca  Ca5  1  0.75000000  0.74936700  0.25123600  1
  Ca  Ca6  1  0.75000000  0.74891200  0.74891200  1
  Mn  Mn0  1  0.99963300  0.99965000  0.50028500  1
  Mn  Mn1  1  0.99963300  0.50028500  0.99965000  1
  Mn  Mn2  1  0.99964000  0.50035700  0.50035700  1
  Mn  Mn3  1  0.50036700  0.99965000  0.50028500  1
  Mn  Mn4  1  0.50036700  0.50028500  0.99965000  1
  Mn  Mn5  1  0.50036000  0.50035700  0.50035700  1
  Cr  Cr0  1  0.99964200  0.99955300  0.99955300  1
  Cr  Cr1  1  0.50035800  0.99955300  0.99955300  1
  O  O0  1  0.99728400  0.99856400  0.25011100  1
  O  O1  1  0.00050900  0.99924500  0.74995800  1
  O  O2  1  0.99779700  0.50209700  0.24992600  1
  O  O3  1  0.99998300  0.50016300  0.75005800  1
  O  O4  1  0.50271600  0.99856400  0.25011100  1
  O  O5  1  0.49949100  0.99924500  0.74995800  1
  O  O6  1  0.50220300  0.50209700  0.24992600  1
  O  O7  1  0.50001700  0.50016300  0.75005800  1
  O  O8  1  0.25000000  0.99750300  0.99750300  1
  O  O9  1  0.25000000  0.99771800  0.50222900  1
  O  O10  1  0.25000000  0.50222900  0.99771800  1
  O  O11  1  0.25000000  0.50215000  0.50215000  1
  O  O12  1  0.75000000  0.00049200  0.00049200  1
  O  O13  1  0.75000000  0.00006600  0.50004000  1
  O  O14  1  0.75000000  0.50004000  0.00006600  1
  O  O15  1  0.75000000  0.50009600  0.50009600  1
  O  O16  1  0.99728400  0.25011100  0.99856400  1
  O  O17  1  0.99779700  0.24992600  0.50209700  1
  O  O18  1  0.00050900  0.74995800  0.99924500  1
  O  O19  1  0.99998300  0.75005800  0.50016300  1
  O  O20  1  0.50271600  0.25011100  0.99856400  1
  O  O21  1  0.50220300  0.24992600  0.50209700  1
  O  O22  1  0.49949100  0.74995800  0.99924500  1
  O  O23  1  0.50001700  0.75005800  0.50016300  1
loop_
_geom_bond_atom_site_label_1
_geom_bond_atom_site_label_2
_geom_bond_distance
_geom_bond_site_symmetry_2
Ca0 O11 2.681090 1_555
Ca0 O9 2.690343 1_545
Ca0 O17 2.691956 1_455
Ca0 O21 2.691956 1_555
Ca0 O3 2.694857 1_455
Ca0 O7 2.694857 1_555
Ca0 O10 2.695110 1_555
Ca0 O8 2.700662 1_545
Ca0 O5 2.702221 1_545
Ca0 O1 2.702221 1_545
Ca0 O20 2.710693 1_555
Ca0 O16 2.710693 1_455
Ca1 O11 2.681090 1_555
Ca1 O10 2.690343 1_554
Ca1 O6 2.691956 1_555
Ca1 O2 2.691956 1_455
Ca1 O23 2.694857 1_555
Ca1 O19 2.694857 1_455
Ca1 O9 2.695110 1_555
Ca1 O8 2.700662 1_554
Ca1 O18 2.702221 1_554
Ca1 O22 2.702221 1_554
Ca1 O4 2.710693 1_555
Ca1 O0 2.710693 1_455
Ca2 O11 2.660504 1_555
Ca2 O10 2.666497 1_555
Ca2 O9 2.666497 1_555
Ca2 O8 2.674645 1_555
Ca2 O23 2.692149 1_555
Ca2 O19 2.692149 1_455
Ca2 O3 2.692149 1_455
Ca2 O7 2.692149 1_555
Ca2 O18 2.695037 1_555
Ca2 O5 2.695037 1_555
Ca2 O22 2.695037 1_555
Ca2 O1 2.695037 1_555
Ca3 O15 2.684834 1_555
Ca3 O14 2.690632 1_555
Ca3 O13 2.690632 1_555
Ca3 O2 2.692392 1_555
Ca3 O17 2.692392 1_555
Ca3 O21 2.692392 1_555
Ca3 O6 2.692392 1_555
Ca3 O0 2.694911 1_545
Ca3 O16 2.694911 1_554
Ca3 O4 2.694911 1_545
Ca3 O20 2.694911 1_554
Ca3 O12 2.696100 1_555
Ca4 O21 2.670805 1_555
Ca4 O17 2.670805 1_555
Ca4 O16 2.678382 1_555
Ca4 O20 2.678382 1_555
Ca4 O15 2.680702 1_555
Ca4 O14 2.689942 1_556
Ca4 O7 2.691538 1_555
Ca4 O3 2.691538 1_555
Ca4 O13 2.695294 1_555
Ca4 O12 2.700818 1_556
Ca4 O5 2.710847 1_545
Ca4 O1 2.710847 1_645
Ca5 O6 2.670805 1_555
Ca5 O2 2.670805 1_555
Ca5 O0 2.678382 1_555
Ca5 O4 2.678382 1_555
Ca5 O15 2.680702 1_555
Ca5 O13 2.689942 1_565
Ca5 O19 2.691538 1_555
Ca5 O23 2.691538 1_555
Ca5 O14 2.695294 1_555
Ca5 O12 2.700818 1_565
Ca5 O22 2.710847 1_554
Ca5 O18 2.710847 1_654
Ca6 O15 2.679847 1_555
Ca6 O19 2.690586 1_555
Ca6 O3 2.690586 1_555
Ca6 O23 2.690586 1_555
Ca6 O7 2.690586 1_555
Ca6 O13 2.690927 1_565
Ca6 O14 2.690927 1_556
Ca6 O22 2.701942 1_555
Ca6 O5 2.701942 1_555
Ca6 O1 2.701942 1_655
Ca6 O18 2.701942 1_655
Ca6 O12 2.709617 1_566
Mn0 O19 1.900201 1_555
Mn0 O1 1.900828 1_655
Mn0 O0 1.904738 1_555
Mn0 O17 1.905517 1_565
Mn0 O13 1.908556 1_565
Mn0 O9 1.914278 1_655
Mn1 O3 1.900201 1_555
Mn1 O18 1.900828 1_655
Mn1 O16 1.904738 1_555
Mn1 O2 1.905517 1_556
Mn1 O14 1.908556 1_556
Mn1 O10 1.914278 1_655
Mn2 O19 1.901030 1_555
Mn2 O3 1.901030 1_555
Mn2 O2 1.906675 1_555
Mn2 O17 1.906675 1_555
Mn2 O15 1.908608 1_555
Mn2 O11 1.914208 1_655
Mn3 O23 1.900201 1_555
Mn3 O5 1.900828 1_555
Mn3 O4 1.904738 1_555
Mn3 O21 1.905517 1_565
Mn3 O13 1.908556 1_565
Mn3 O9 1.914278 1_555
Mn4 O7 1.900201 1_555
Mn4 O22 1.900828 1_555
Mn4 O20 1.904738 1_555
Mn4 O6 1.905517 1_556
Mn4 O14 1.908556 1_556
Mn4 O10 1.914278 1_555
Mn5 O7 1.901030 1_555
Mn5 O23 1.901030 1_555
Mn5 O21 1.906675 1_555
Mn5 O6 1.906675 1_555
Mn5 O15 1.908608 1_555
Mn5 O11 1.914208 1_555
Cr0 O1 1.900236 1_655
Cr0 O18 1.900236 1_655
Cr0 O16 1.907648 1_565
Cr0 O0 1.907648 1_556
Cr0 O12 1.908648 1_566
Cr0 O8 1.914223 1_655
Cr1 O5 1.900236 1_555
Cr1 O22 1.900236 1_555
Cr1 O20 1.907648 1_565
Cr1 O4 1.907648 1_556
Cr1 O12 1.908648 1_566
Cr1 O8 1.914223 1_555
O0 Sr0 2.724007 1_665
O2 Sr0 2.716399 1_655
O4 Sr0 2.724007 1_565
O6 Sr0 2.716399 1_555
O8 Sr0 2.727894 1_566
O9 Sr0 2.715049 1_565
O10 Sr0 2.715049 1_556
O11 Sr0 2.707355 1_555
O16 Sr0 2.724007 1_656
O17 Sr0 2.716399 1_655
O20 Sr0 2.724007 1_556
O21 Sr0 2.716399 1_555
