# generated using pymatgen
data_Sc3Ga5Ni
_symmetry_space_group_name_H-M   'P 1'
_cell_length_a   6.81575400
_cell_length_b   7.87003165
_cell_length_c   7.87181208
_cell_angle_alpha   83.38956580
_cell_angle_beta   115.65311173
_cell_angle_gamma   64.34066298
_symmetry_Int_Tables_number   1
_chemical_formula_structural   Sc3Ga5Ni
_chemical_formula_sum   'Sc6 Ga10 Ni2'
_cell_volume   318.41349315
_cell_formula_units_Z   2
loop_
 _symmetry_equiv_pos_site_id
 _symmetry_equiv_pos_as_xyz
  1  'x, y, z'
loop_
 _atom_site_type_symbol
 _atom_site_label
 _atom_site_symmetry_multiplicity
 _atom_site_fract_x
 _atom_site_fract_y
 _atom_site_fract_z
 _atom_site_occupancy
  Sc  Sc0  1  0.43080100  0.46765000  0.95536600  1
  Sc  Sc1  1  0.94308500  0.53235000  0.04463400  1
  Sc  Sc2  1  0.78131200  0.27054800  0.73157100  1
  Sc  Sc3  1  0.32028900  0.72945200  0.26842900  1
  Sc  Sc4  1  0.41999100  0.05076200  0.54428300  1
  Sc  Sc5  1  0.92647000  0.94923800  0.45571700  1
  Ga  Ga0  1  0.21016200  0.26318700  0.75112900  1
  Ga  Ga1  1  0.72222000  0.73681300  0.24887100  1
  Ga  Ga2  1  0.36425700  0.12752200  0.14378000  1
  Ga  Ga3  1  0.34799900  0.87247800  0.85622000  1
  Ga  Ga4  1  0.81406300  0.63851900  0.62604500  1
  Ga  Ga5  1  0.82653700  0.36148100  0.37395500  1
  Ga  Ga6  1  0.97282400  0.83916900  0.83549300  1
  Ga  Ga7  1  0.97649900  0.16083100  0.16450700  1
  Ga  Ga8  1  0.23706900  0.50000000  0.50000000  1
  Ga  Ga9  1  0.72621200  0.00000000  0.00000000  1
  Ni  Ni0  1  0.46880700  0.33018500  0.33558700  1
  Ni  Ni1  1  0.46340500  0.66981500  0.66441300  1
loop_
_geom_bond_atom_site_label_1
_geom_bond_atom_site_label_2
_geom_bond_distance
_geom_bond_site_symmetry_2
Ga0 Ga4 2.665662 1_455
Ga0 Ga8 2.678927 1_555
Ga0 Ga5 2.692228 1_455
Ga0 Ga2 2.693481 1_556
Ga0 Ga3 2.694730 1_545
Ga0 Ga9 2.699931 1_556
Ga0 Sc2 2.834128 1_455
Ga0 Sc0 2.834338 1_555
Ga0 Sc4 2.839674 1_555
Ga1 Ga5 2.665662 1_555
Ga1 Ga8 2.678927 1_655
Ga1 Ga4 2.692228 1_555
Ga1 Ga3 2.693481 1_554
Ga1 Ga2 2.694730 1_565
Ga1 Ga9 2.699931 1_565
Ga1 Sc3 2.834128 1_555
Ga1 Sc1 2.834338 1_555
Ga1 Sc5 2.839674 1_555
Ga2 Ni0 2.436918 1_555
Ga2 Ga7 2.619785 1_455
Ga2 Sc1 2.926983 1_455
Ga2 Sc4 2.962176 1_555
Ga2 Ga9 2.984823 1_555
Ga2 Sc5 3.014170 1_545
Ga3 Ni1 2.436918 1_555
Ga3 Ga6 2.619778 1_455
Ga3 Sc0 2.926983 1_555
Ga3 Sc5 2.962176 1_455
Ga3 Ga9 2.984823 1_566
Ga3 Sc4 3.014170 1_565
Ga4 Ni1 2.448735 1_555
Ga4 Ga6 2.630093 1_555
Ga4 Sc1 2.923994 1_556
Ga4 Sc4 2.937681 1_565
Ga4 Sc3 3.001732 1_555
Ga4 Sc2 3.048423 1_555
Ga4 Sc5 3.181441 1_555
Ga5 Ni0 2.448735 1_555
Ga5 Ga7 2.630090 1_555
Ga5 Sc0 2.923994 1_554
Ga5 Sc5 2.937681 1_545
Ga5 Sc2 3.001732 1_555
Ga5 Sc3 3.048423 1_555
Ga5 Sc4 3.181441 1_655
Ga6 Ga9 2.554171 1_566
Ga6 Sc0 2.844869 1_655
Ga6 Sc5 2.852441 1_555
Ga6 Sc1 2.894762 1_556
Ga6 Sc4 2.904113 1_565
Ga6 Sc2 2.914967 1_565
Ga6 Sc3 2.920939 1_656
Ga7 Ga9 2.554167 1_555
Ga7 Sc1 2.844872 1_555
Ga7 Sc4 2.852444 1_655
Ga7 Sc0 2.894757 1_554
Ga7 Sc5 2.904108 1_545
Ga7 Sc3 2.914968 1_645
Ga7 Sc2 2.920940 1_554
Ga8 Ni1 2.509168 1_555
Ga8 Ni0 2.509168 1_555
Ga8 Sc3 2.816013 1_555
Ga8 Sc2 2.816013 1_555
Ga8 Sc5 3.114212 1_455
Ga8 Sc4 3.114212 1_555
Ga8 Sc0 3.171430 1_555
Ga8 Sc1 3.171430 1_455
Ga9 Sc2 3.079484 1_554
Ga9 Sc3 3.079484 1_645
Ga9 Sc5 3.138432 1_545
Ga9 Sc4 3.138432 1_554
Ga9 Sc0 3.224133 1_554
Ga9 Sc1 3.224133 1_545
Ni0 Sc2 2.742660 1_555
Ni0 Sc3 2.752702 1_555
Ni0 Sc1 2.781061 1_455
Ni0 Sc4 2.814356 1_555
Ni0 Sc5 2.882167 1_545
Ni0 Sc0 2.921681 1_554
Ni1 Sc3 2.742660 1_555
Ni1 Sc2 2.752702 1_555
Ni1 Sc0 2.781061 1_555
Ni1 Sc5 2.814356 1_455
Ni1 Sc4 2.882167 1_565
Ni1 Sc1 2.921681 1_556
