# generated using pymatgen
data_ErMnFeO5
_symmetry_space_group_name_H-M   'P 1'
_cell_length_a   5.77823500
_cell_length_b   7.30314900
_cell_length_c   8.57886600
_cell_angle_alpha   90.00000000
_cell_angle_beta   90.00000000
_cell_angle_gamma   90.00000000
_symmetry_Int_Tables_number   1
_chemical_formula_structural   ErMnFeO5
_chemical_formula_sum   'Er4 Mn4 Fe4 O20'
_cell_volume   362.02223575
_cell_formula_units_Z   4
loop_
 _symmetry_equiv_pos_site_id
 _symmetry_equiv_pos_as_xyz
  1  'x, y, z'
loop_
 _atom_site_type_symbol
 _atom_site_label
 _atom_site_symmetry_multiplicity
 _atom_site_fract_x
 _atom_site_fract_y
 _atom_site_fract_z
 _atom_site_occupancy
  Er  Er0  1  0.50000000  0.36630800  0.33117400  1
  Er  Er1  1  0.50000000  0.63369200  0.66882600  1
  Er  Er2  1  0.50000000  0.13369200  0.83117400  1
  Er  Er3  1  0.50000000  0.86630800  0.16882600  1
  Mn  Mn0  1  0.25155600  0.00000000  0.50000000  1
  Mn  Mn1  1  0.74844400  0.00000000  0.50000000  1
  Mn  Mn2  1  0.74844400  0.50000000  0.00000000  1
  Mn  Mn3  1  0.25155600  0.50000000  0.00000000  1
  Fe  Fe0  1  0.00000000  0.10673600  0.14614900  1
  Fe  Fe1  1  0.00000000  0.89326400  0.85385100  1
  Fe  Fe2  1  0.00000000  0.39326400  0.64614900  1
  Fe  Fe3  1  0.00000000  0.60673600  0.35385100  1
  O  O0  1  0.23594600  0.00000000  0.00000000  1
  O  O1  1  0.76405400  0.00000000  0.00000000  1
  O  O2  1  0.76405400  0.50000000  0.50000000  1
  O  O3  1  0.23594600  0.50000000  0.50000000  1
  O  O4  1  0.26085000  0.10823900  0.29490300  1
  O  O5  1  0.73915000  0.89176100  0.70509700  1
  O  O6  1  0.26085000  0.89176100  0.70509700  1
  O  O7  1  0.73915000  0.39176100  0.79490300  1
  O  O8  1  0.73915000  0.10823900  0.29490300  1
  O  O9  1  0.26085000  0.60823900  0.20509700  1
  O  O10  1  0.73915000  0.60823900  0.20509700  1
  O  O11  1  0.26085000  0.39176100  0.79490300  1
  O  O12  1  0.50000000  0.33699500  0.05844800  1
  O  O13  1  0.50000000  0.66300500  0.94155200  1
  O  O14  1  0.50000000  0.16300500  0.55844800  1
  O  O15  1  0.50000000  0.83699500  0.44155200  1
  O  O16  1  0.00000000  0.34967900  0.07015900  1
  O  O17  1  0.00000000  0.65032100  0.92984100  1
  O  O18  1  0.00000000  0.15032100  0.57015900  1
  O  O19  1  0.00000000  0.84967900  0.42984100  1
loop_
_geom_bond_atom_site_label_1
_geom_bond_atom_site_label_2
_geom_bond_distance
_geom_bond_site_symmetry_2
Er0 O3 2.319255 1_555
Er0 O2 2.319255 1_555
Er0 O12 2.349453 1_555
Er0 O8 2.357653 1_555
Er0 O4 2.357653 1_555
Er0 O14 2.450720 1_555
Er0 O9 2.490219 1_555
Er0 O10 2.490219 1_555
Er1 O2 2.319255 1_555
Er1 O3 2.319255 1_555
Er1 O13 2.349453 1_555
Er1 O6 2.357653 1_555
Er1 O5 2.357653 1_555
Er1 O15 2.450720 1_555
Er1 O11 2.490219 1_555
Er1 O7 2.490219 1_555
Er2 O0 2.319255 1_556
Er2 O1 2.319255 1_556
Er2 O14 2.349453 1_555
Er2 O11 2.357653 1_555
Er2 O7 2.357653 1_555
Er2 O12 2.450720 1_556
Er2 O6 2.490219 1_545
Er2 O5 2.490219 1_545
Er3 O0 2.319255 1_565
Er3 O1 2.319255 1_565
Er3 O15 2.349453 1_555
Er3 O9 2.357653 1_555
Er3 O10 2.357653 1_555
Er3 O13 2.450720 1_554
Er3 O8 2.490219 1_565
Er3 O4 2.490219 1_565
Mn0 O18 1.918404 1_555
Mn0 O19 1.918404 1_545
Mn0 O4 1.929661 1_555
Mn0 O6 1.929661 1_545
Mn0 O15 1.931177 1_545
Mn0 O14 1.931177 1_555
Mn1 O18 1.918404 1_655
Mn1 O19 1.918404 1_645
Mn1 O5 1.929661 1_545
Mn1 O8 1.929661 1_555
Mn1 O15 1.931177 1_545
Mn1 O14 1.931177 1_555
Mn2 O16 1.918404 1_655
Mn2 O17 1.918404 1_654
Mn2 O7 1.929661 1_554
Mn2 O10 1.929661 1_555
Mn2 O13 1.931177 1_554
Mn2 O12 1.931177 1_555
Mn3 O16 1.918404 1_555
Mn3 O17 1.918404 1_554
Mn3 O11 1.929661 1_554
Mn3 O9 1.929661 1_555
Mn3 O13 1.931177 1_554
Mn3 O12 1.931177 1_555
Fe0 O16 1.890223 1_555
Fe0 O4 1.974960 1_555
Fe0 O8 1.974960 1_455
Fe0 O1 2.009566 1_455
Fe0 O0 2.009566 1_555
Fe1 O17 1.890223 1_555
Fe1 O6 1.974960 1_555
Fe1 O5 1.974960 1_455
Fe1 O1 2.009566 1_466
Fe1 O0 2.009566 1_566
Fe2 O18 1.890223 1_555
Fe2 O7 1.974960 1_455
Fe2 O11 1.974960 1_555
Fe2 O3 2.009566 1_555
Fe2 O2 2.009566 1_455
Fe3 O19 1.890223 1_555
Fe3 O10 1.974960 1_455
Fe3 O9 1.974960 1_555
Fe3 O3 2.009566 1_555
Fe3 O2 2.009566 1_455
