# generated using pymatgen
data_GdSn2
_symmetry_space_group_name_H-M   'P 1'
_cell_length_a   4.33701156
_cell_length_b   4.45020231
_cell_length_c   8.63563064
_cell_angle_alpha   105.00903225
_cell_angle_beta   90.00019660
_cell_angle_gamma   89.99942743
_symmetry_Int_Tables_number   1
_chemical_formula_structural   GdSn2
_chemical_formula_sum   'Gd2 Sn4'
_cell_volume   160.98663445
_cell_formula_units_Z   2
loop_
 _symmetry_equiv_pos_site_id
 _symmetry_equiv_pos_as_xyz
  1  'x, y, z'
loop_
 _atom_site_type_symbol
 _atom_site_label
 _atom_site_symmetry_multiplicity
 _atom_site_fract_x
 _atom_site_fract_y
 _atom_site_fract_z
 _atom_site_occupancy
  Gd  Gd0  1  0.74999900  0.10043057  0.20054939  1
  Gd  Gd1  1  0.25000200  0.89956560  0.79944080  1
  Sn  Sn0  1  0.75000100  0.74744943  0.49423459  1
  Sn  Sn1  1  0.25000000  0.25255918  0.50578731  1
  Sn  Sn2  1  0.75000100  0.43978060  0.87901509  1
  Sn  Sn3  1  0.24999900  0.56021562  0.12097383  1
loop_
_geom_bond_atom_site_label_1
_geom_bond_atom_site_label_2
_geom_bond_distance
_geom_bond_site_symmetry_2
Gd0 Sn3 3.176395 1_555
Gd0 Sn3 3.176426 1_655
Gd0 Sn3 3.177801 1_645
Gd0 Sn3 3.177830 1_545
Gd0 Sn0 3.307650 1_555
Gd0 Sn0 3.311050 1_545
Gd0 Sn1 3.344330 1_555
Gd0 Sn1 3.344333 1_655
Gd0 Sn2 3.482149 1_544
Gd0 Sn2 3.487446 1_554
Gd1 Sn2 3.176387 1_555
Gd1 Sn2 3.176424 1_455
Gd1 Sn2 3.177804 1_465
Gd1 Sn2 3.177827 1_565
Gd1 Sn1 3.307464 1_555
Gd1 Sn1 3.310843 1_565
Gd1 Sn0 3.344129 1_555
Gd1 Sn0 3.344131 1_455
Gd1 Sn3 3.482142 1_566
Gd1 Sn3 3.487436 1_556
Sn0 Sn1 3.106272 1_565
Sn0 Sn1 3.106297 1_665
Sn0 Sn1 3.110700 1_655
Sn0 Sn1 3.110737 1_555
Sn2 Sn3 2.962341 1_656
Sn2 Sn3 2.962357 1_556
