# generated using pymatgen
data_BeZn3O4
_symmetry_space_group_name_H-M   'P 1'
_cell_length_a   5.39693132
_cell_length_b   5.39693132
_cell_length_c   5.39693132
_cell_angle_alpha   131.56490438
_cell_angle_beta   131.56490438
_cell_angle_gamma   70.91708731
_symmetry_Int_Tables_number   1
_chemical_formula_structural   BeZn3O4
_chemical_formula_sum   'Be1 Zn3 O4'
_cell_volume   86.18009943
_cell_formula_units_Z   1
loop_
 _symmetry_equiv_pos_site_id
 _symmetry_equiv_pos_as_xyz
  1  'x, y, z'
loop_
 _atom_site_type_symbol
 _atom_site_label
 _atom_site_symmetry_multiplicity
 _atom_site_fract_x
 _atom_site_fract_y
 _atom_site_fract_z
 _atom_site_occupancy
  Be  Be0  1  0.00000000  0.00000000  0.00000000  1
  Zn  Zn0  1  0.50000000  0.50000000  0.00000000  1
  Zn  Zn1  1  0.25000000  0.75000000  0.50000000  1
  Zn  Zn2  1  0.75000000  0.25000000  0.50000000  1
  O  O0  1  0.67059700  0.67059700  0.56337900  1
  O  O1  1  0.10721700  0.10721700  0.43662100  1
  O  O2  1  0.89278300  0.32940300  0.00000000  1
  O  O3  1  0.32940300  0.89278300  0.00000000  1
loop_
_geom_bond_atom_site_label_1
_geom_bond_atom_site_label_2
_geom_bond_distance
_geom_bond_site_symmetry_2
Be0 O0 1.680073 1_444
Be0 O3 1.680073 1_545
Be0 O2 1.680073 1_455
Be0 O1 1.680078 1_555
O0 Zn1 1.995347 1_555
O0 Zn2 1.995347 1_555
O0 Zn0 2.016220 1_555
O1 Zn1 1.995342 1_545
O1 Zn2 1.995342 1_455
O1 Zn0 2.016224 1_556
O2 Zn2 1.995345 1_554
O2 Zn1 1.995345 1_655
O2 Zn0 2.016225 1_555
O3 Zn1 1.995345 1_554
O3 Zn2 1.995345 1_565
O3 Zn0 2.016225 1_555
