# generated using pymatgen
data_TaVCo
_symmetry_space_group_name_H-M   'P 1'
_cell_length_a   4.82955021
_cell_length_b   4.82955021
_cell_length_c   8.09020100
_cell_angle_alpha   90.00000000
_cell_angle_beta   90.00000000
_cell_angle_gamma   118.30091029
_symmetry_Int_Tables_number   1
_chemical_formula_structural   TaVCo
_chemical_formula_sum   'Ta4 V4 Co4'
_cell_volume   166.14495470
_cell_formula_units_Z   4
loop_
 _symmetry_equiv_pos_site_id
 _symmetry_equiv_pos_as_xyz
  1  'x, y, z'
loop_
 _atom_site_type_symbol
 _atom_site_label
 _atom_site_symmetry_multiplicity
 _atom_site_fract_x
 _atom_site_fract_y
 _atom_site_fract_z
 _atom_site_occupancy
  Ta  Ta0  1  0.33004500  0.66995500  0.18302400  1
  Ta  Ta1  1  0.66311200  0.33688800  0.30695300  1
  Ta  Ta2  1  0.66311200  0.33688800  0.69304700  1
  Ta  Ta3  1  0.33004500  0.66995500  0.81697600  1
  V  V0  1  0.83389600  0.16610400  0.00000000  1
  V  V1  1  0.16704800  0.33909800  0.50000000  1
  V  V2  1  0.66090200  0.83295200  0.50000000  1
  V  V3  1  0.17167600  0.82832400  0.50000000  1
  Co  Co0  1  0.00011600  0.99988400  0.24235400  1
  Co  Co1  1  0.00011600  0.99988400  0.75764600  1
  Co  Co2  1  0.83671700  0.65692300  0.00000000  1
  Co  Co3  1  0.34307700  0.16328300  0.00000000  1
loop_
_geom_bond_atom_site_label_1
_geom_bond_atom_site_label_2
_geom_bond_distance
_geom_bond_site_symmetry_2
Ta0 V3 2.881117 1_555
Ta0 V0 2.885595 1_455
Ta0 V0 2.885595 1_565
Ta0 V1 2.925128 1_555
Ta0 V2 2.925128 1_555
Ta0 Ta1 2.938306 1_555
Ta0 Ta3 2.961402 1_554
Ta0 Ta1 3.009096 1_565
Ta0 Ta1 3.009096 1_455
Ta1 V0 2.858764 1_555
Ta1 V1 2.864130 1_555
Ta1 V2 2.864130 1_555
Ta1 V2 2.887555 1_545
Ta1 V1 2.887555 1_655
Ta1 V3 2.928719 1_655
Ta1 V3 2.928719 1_545
Ta1 Ta2 3.123578 1_555
Ta2 V0 2.858764 1_556
Ta2 V2 2.864130 1_555
Ta2 V1 2.864130 1_555
Ta2 V2 2.887555 1_545
Ta2 V1 2.887555 1_655
Ta2 V3 2.928719 1_655
Ta2 V3 2.928719 1_545
Ta2 Ta3 2.938306 1_555
Ta2 Ta3 3.009096 1_655
Ta2 Ta3 3.009096 1_545
Ta3 V3 2.881117 1_555
Ta3 V0 2.885595 1_456
Ta3 V0 2.885595 1_566
Ta3 V1 2.925128 1_555
Ta3 V2 2.925128 1_555
V1 V3 2.352227 1_555
V1 V2 2.446082 1_555
V1 V3 2.477484 1_545
V1 V2 2.506964 1_445
V2 V3 2.352227 1_555
V2 V3 2.477484 1_655
Co0 V0 2.396715 1_465
Co0 Co2 2.443595 1_455
Co0 Co3 2.443595 1_565
Co0 V3 2.523633 1_555
Co0 V2 2.535002 1_455
Co0 V1 2.535002 1_565
Co0 Ta0 2.777722 1_555
Co0 Ta1 2.843053 1_465
Co0 Ta1 2.869362 1_455
Co0 Ta1 2.869362 1_565
Co0 Ta0 2.890077 1_565
Co0 Ta0 2.890077 1_455
Co1 V0 2.396715 1_466
Co1 Co2 2.443595 1_456
Co1 Co3 2.443595 1_566
Co1 V3 2.523633 1_555
Co1 V2 2.535002 1_455
Co1 V1 2.535002 1_565
Co1 Ta3 2.777722 1_555
Co1 Ta2 2.843053 1_465
Co1 Ta2 2.869362 1_455
Co1 Ta2 2.869362 1_565
Co1 Ta3 2.890077 1_565
Co1 Ta3 2.890077 1_455
Co2 V0 2.364006 1_555
Co2 Co3 2.445022 1_555
Co2 V0 2.465604 1_565
Co2 Co3 2.508024 1_665
Co2 Ta3 2.780432 1_654
Co2 Ta0 2.780432 1_655
Co2 Ta1 2.833722 1_555
Co2 Ta2 2.833722 1_554
Co2 Ta3 2.886221 1_554
Co2 Ta0 2.886221 1_555
Co3 V0 2.364006 1_555
Co3 V0 2.465604 1_455
Co3 Ta3 2.780432 1_544
Co3 Ta0 2.780432 1_545
Co3 Ta1 2.833722 1_555
Co3 Ta2 2.833722 1_554
Co3 Ta3 2.886221 1_554
Co3 Ta0 2.886221 1_555
