# generated using pymatgen
data_NdTa2O6
_symmetry_space_group_name_H-M   'P 1'
_cell_length_a   3.98866100
_cell_length_b   3.98866100
_cell_length_c   7.97185400
_cell_angle_alpha   90.00000000
_cell_angle_beta   90.00000000
_cell_angle_gamma   90.00000000
_symmetry_Int_Tables_number   1
_chemical_formula_structural   NdTa2O6
_chemical_formula_sum   'Nd1 Ta2 O6'
_cell_volume   126.82754614
_cell_formula_units_Z   1
loop_
 _symmetry_equiv_pos_site_id
 _symmetry_equiv_pos_as_xyz
  1  'x, y, z'
loop_
 _atom_site_type_symbol
 _atom_site_label
 _atom_site_symmetry_multiplicity
 _atom_site_fract_x
 _atom_site_fract_y
 _atom_site_fract_z
 _atom_site_occupancy
  Nd  Nd0  1  0.50000000  0.50000000  0.00000000  1
  Ta  Ta0  1  0.00000000  0.00000000  0.25808900  1
  Ta  Ta1  1  0.00000000  0.00000000  0.74191100  1
  O  O0  1  0.50000000  0.00000000  0.22138300  1
  O  O1  1  0.50000000  0.00000000  0.77861700  1
  O  O2  1  0.00000000  0.50000000  0.22138300  1
  O  O3  1  0.00000000  0.50000000  0.77861700  1
  O  O4  1  0.00000000  0.00000000  0.50000000  1
  O  O5  1  0.00000000  0.00000000  0.00000000  1
loop_
_geom_bond_atom_site_label_1
_geom_bond_atom_site_label_2
_geom_bond_distance
_geom_bond_site_symmetry_2
Nd0 O1 2.663079 1_554
Nd0 O2 2.663079 1_655
Nd0 O0 2.663079 1_565
Nd0 O3 2.663079 1_654
Nd0 O2 2.663079 1_555
Nd0 O0 2.663079 1_555
Nd0 O3 2.663079 1_554
Nd0 O1 2.663079 1_564
Nd0 O5 2.820409 1_555
Nd0 O5 2.820409 1_655
Nd0 O5 2.820409 1_565
Nd0 O5 2.820409 1_665
O0 Ta0 2.015683 1_555
O0 Ta0 2.015683 1_655
O1 Ta1 2.015683 1_555
O1 Ta1 2.015683 1_655
O2 Ta0 2.015683 1_565
O2 Ta0 2.015683 1_555
O3 Ta1 2.015683 1_555
O3 Ta1 2.015683 1_565
O4 Ta1 1.928479 1_555
O4 Ta0 1.928479 1_555
O5 Ta1 2.057448 1_554
O5 Ta0 2.057448 1_555
