# generated using pymatgen
data_Rb5Er(MoO4)4
_symmetry_space_group_name_H-M   'P 1'
_cell_length_a   8.11194600
_cell_length_b   11.42876500
_cell_length_c   11.65190843
_cell_angle_alpha   66.52900872
_cell_angle_beta   90.00000000
_cell_angle_gamma   90.00000000
_symmetry_Int_Tables_number   1
_chemical_formula_structural   Rb5Er(MoO4)4
_chemical_formula_sum   'Rb10 Er2 Mo8 O32'
_cell_volume   990.86558442
_cell_formula_units_Z   2
loop_
 _symmetry_equiv_pos_site_id
 _symmetry_equiv_pos_as_xyz
  1  'x, y, z'
loop_
 _atom_site_type_symbol
 _atom_site_label
 _atom_site_symmetry_multiplicity
 _atom_site_fract_x
 _atom_site_fract_y
 _atom_site_fract_z
 _atom_site_occupancy
  Rb  Rb0  1  0.38515000  0.25000000  0.50000000  1
  Rb  Rb1  1  0.61485000  0.75000000  0.50000000  1
  Rb  Rb2  1  0.35070900  0.84176000  0.10705600  1
  Rb  Rb3  1  0.35070900  0.65824000  0.89294400  1
  Rb  Rb4  1  0.64929100  0.15824000  0.89294400  1
  Rb  Rb5  1  0.64929100  0.34176000  0.10705600  1
  Rb  Rb6  1  0.86886600  0.14461500  0.40928800  1
  Rb  Rb7  1  0.86886600  0.35538500  0.59071200  1
  Rb  Rb8  1  0.13113400  0.85538500  0.59071200  1
  Rb  Rb9  1  0.13113400  0.64461500  0.40928800  1
  Er  Er0  1  0.09364200  0.25000000  0.00000000  1
  Er  Er1  1  0.90635800  0.75000000  0.00000000  1
  Mo  Mo0  1  0.85502600  0.94328000  0.19678000  1
  Mo  Mo1  1  0.85502600  0.55672000  0.80322000  1
  Mo  Mo2  1  0.14497400  0.05672000  0.80322000  1
  Mo  Mo3  1  0.14497400  0.44328000  0.19678000  1
  Mo  Mo4  1  0.34952400  0.05356500  0.28522800  1
  Mo  Mo5  1  0.34952400  0.44643500  0.71477200  1
  Mo  Mo6  1  0.65047600  0.94643500  0.71477200  1
  Mo  Mo7  1  0.65047600  0.55356500  0.28522800  1
  O  O0  1  0.89359700  0.11487200  0.11734200  1
  O  O1  1  0.89359700  0.38512800  0.88265800  1
  O  O2  1  0.10640300  0.88512800  0.88265800  1
  O  O3  1  0.10640300  0.61487200  0.11734200  1
  O  O4  1  0.90464100  0.89322800  0.35758100  1
  O  O5  1  0.90464100  0.60677200  0.64241900  1
  O  O6  1  0.09535900  0.10677200  0.64241900  1
  O  O7  1  0.09535900  0.39322800  0.35758100  1
  O  O8  1  0.97226000  0.85166300  0.12670500  1
  O  O9  1  0.97226000  0.64833700  0.87329500  1
  O  O10  1  0.02774000  0.14833700  0.87329500  1
  O  O11  1  0.02774000  0.35166300  0.12670500  1
  O  O12  1  0.64408900  0.91487800  0.17805600  1
  O  O13  1  0.64408900  0.58512200  0.82194400  1
  O  O14  1  0.35591100  0.08512200  0.82194400  1
  O  O15  1  0.35591100  0.41487800  0.17805600  1
  O  O16  1  0.29202600  0.12041900  0.11637500  1
  O  O17  1  0.29202600  0.37958100  0.88362500  1
  O  O18  1  0.70797400  0.87958100  0.88362500  1
  O  O19  1  0.70797400  0.62041900  0.11637500  1
  O  O20  1  0.33271900  0.88356900  0.35097700  1
  O  O21  1  0.33271900  0.61643100  0.64902300  1
  O  O22  1  0.66728100  0.11643100  0.64902300  1
  O  O23  1  0.66728100  0.38356900  0.35097700  1
  O  O24  1  0.55101300  0.10121300  0.31241400  1
  O  O25  1  0.55101300  0.39878700  0.68758600  1
  O  O26  1  0.44898700  0.89878700  0.68758600  1
  O  O27  1  0.44898700  0.60121300  0.31241400  1
  O  O28  1  0.20734900  0.10979200  0.36762800  1
  O  O29  1  0.20734900  0.39020800  0.63237200  1
  O  O30  1  0.79265100  0.89020800  0.63237200  1
  O  O31  1  0.79265100  0.60979200  0.36762800  1
loop_
_geom_bond_atom_site_label_1
_geom_bond_atom_site_label_2
_geom_bond_distance
_geom_bond_site_symmetry_2
Er0 O16 2.240998 1_555
Er0 O17 2.240998 1_554
Er0 O10 2.276353 1_554
Er0 O11 2.276353 1_555
Er0 O1 2.281613 1_454
Er0 O0 2.281613 1_455
Er1 O18 2.240998 1_554
Er1 O19 2.240998 1_555
Er1 O9 2.276353 1_554
Er1 O8 2.276353 1_555
Er1 O2 2.281613 1_654
Er1 O3 2.281613 1_655
Mo0 O12 1.771234 1_555
Mo0 O4 1.773691 1_555
Mo0 O8 1.829877 1_555
Mo0 O0 1.831549 1_565
Mo1 O13 1.771234 1_555
Mo1 O5 1.773691 1_555
Mo1 O9 1.829877 1_555
Mo1 O1 1.831549 1_555
Mo2 O14 1.771234 1_555
Mo2 O6 1.773691 1_555
Mo2 O10 1.829877 1_555
Mo2 O2 1.831549 1_545
Mo3 O15 1.771234 1_555
Mo3 O7 1.773691 1_555
Mo3 O11 1.829877 1_555
Mo3 O3 1.831549 1_555
Mo4 O28 1.776617 1_555
Mo4 O20 1.787320 1_545
Mo4 O24 1.790469 1_555
Mo4 O16 1.864077 1_555
Mo5 O29 1.776617 1_555
Mo5 O21 1.787320 1_555
Mo5 O25 1.790469 1_555
Mo5 O17 1.864077 1_555
Mo6 O30 1.776617 1_555
Mo6 O22 1.787320 1_565
Mo6 O26 1.790469 1_555
Mo6 O18 1.864077 1_555
Mo7 O31 1.776617 1_555
Mo7 O23 1.787320 1_555
Mo7 O27 1.790469 1_555
Mo7 O19 1.864077 1_555
O0 Rb4 3.158694 1_554
O0 Rb5 3.227729 1_555
O1 Rb5 3.158694 1_556
O1 Rb4 3.227729 1_555
O2 Rb2 3.158694 1_556
O2 Rb3 3.227729 1_555
O3 Rb3 3.158694 1_554
O3 Rb2 3.227729 1_555
O4 Rb1 2.965739 1_555
O4 Rb8 3.163197 1_655
O4 Rb6 3.174967 1_565
O4 Rb9 3.232375 1_655
O5 Rb1 2.965739 1_555
O5 Rb9 3.163197 1_655
O5 Rb7 3.174967 1_555
O5 Rb8 3.232375 1_655
O6 Rb0 2.965739 1_555
O6 Rb6 3.163197 1_455
O6 Rb8 3.174967 1_545
O6 Rb7 3.232375 1_455
O7 Rb0 2.965739 1_555
O7 Rb7 3.163197 1_455
O7 Rb9 3.174967 1_555
O7 Rb6 3.232375 1_455
O8 Rb2 3.083911 1_655
O9 Rb3 3.083911 1_655
O10 Rb4 3.083911 1_455
O11 Rb5 3.083911 1_455
O12 Rb2 2.756308 1_555
O12 Rb4 3.378421 1_564
O13 Rb3 2.756308 1_555
O13 Rb5 3.378421 1_556
O14 Rb4 2.756308 1_555
O14 Rb2 3.378421 1_546
O15 Rb5 2.756308 1_555
O15 Rb3 3.378421 1_554
O16 Rb2 3.264407 1_545
O17 Rb3 3.264407 1_555
O18 Rb4 3.264407 1_565
O19 Rb5 3.264407 1_555
O20 Rb1 2.910632 1_555
O20 Rb9 3.019223 1_555
O20 Rb2 3.067439 1_555
O20 Rb8 3.140697 1_555
O21 Rb1 2.910632 1_555
O21 Rb8 3.019223 1_555
O21 Rb3 3.067439 1_555
O21 Rb9 3.140697 1_555
O22 Rb0 2.910632 1_555
O22 Rb7 3.019223 1_555
O22 Rb4 3.067439 1_555
O22 Rb6 3.140697 1_555
O23 Rb0 2.910632 1_555
O23 Rb6 3.019223 1_555
O23 Rb5 3.067439 1_555
O23 Rb7 3.140697 1_555
O24 Rb6 2.935020 1_555
O24 Rb5 2.946009 1_555
O25 Rb7 2.935020 1_555
O25 Rb4 2.946009 1_555
O26 Rb8 2.935020 1_555
O26 Rb3 2.946009 1_555
O27 Rb9 2.935020 1_555
O27 Rb2 2.946009 1_555
O28 Rb6 2.843780 1_455
O28 Rb0 2.999277 1_555
O28 Rb8 3.093942 1_545
O29 Rb7 2.843780 1_455
O29 Rb0 2.999277 1_555
O29 Rb9 3.093942 1_555
O30 Rb8 2.843780 1_655
O30 Rb1 2.999277 1_555
O30 Rb6 3.093942 1_565
O31 Rb9 2.843780 1_655
O31 Rb1 2.999277 1_555
O31 Rb7 3.093942 1_555
