# generated using pymatgen
data_Mg3SiO5F
_symmetry_space_group_name_H-M   'P 1'
_cell_length_a   4.77131600
_cell_length_b   8.91258900
_cell_length_c   10.45041500
_cell_angle_alpha   90.00000000
_cell_angle_beta   90.00000000
_cell_angle_gamma   90.00000000
_symmetry_Int_Tables_number   1
_chemical_formula_structural   Mg3SiO5F
_chemical_formula_sum   'Mg12 Si4 O20 F4'
_cell_volume   444.40158308
_cell_formula_units_Z   4
loop_
 _symmetry_equiv_pos_site_id
 _symmetry_equiv_pos_as_xyz
  1  'x, y, z'
loop_
 _atom_site_type_symbol
 _atom_site_label
 _atom_site_symmetry_multiplicity
 _atom_site_fract_x
 _atom_site_fract_y
 _atom_site_fract_z
 _atom_site_occupancy
  Mg  Mg0  1  0.47794400  0.93316600  0.86563200  1
  Mg  Mg1  1  0.02410300  0.57062000  0.36768500  1
  Mg  Mg2  1  0.52205600  0.43316600  0.13436800  1
  Mg  Mg3  1  0.97589700  0.07062000  0.63231500  1
  Mg  Mg4  1  0.52410300  0.07062000  0.13231500  1
  Mg  Mg5  1  0.97794400  0.43316600  0.63436800  1
  Mg  Mg6  1  0.47589700  0.57062000  0.86768500  1
  Mg  Mg7  1  0.02205600  0.93316600  0.36563200  1
  Mg  Mg8  1  0.49752900  0.74903800  0.59549100  1
  Mg  Mg9  1  0.00247100  0.74903800  0.09549100  1
  Mg  Mg10  1  0.50247100  0.24903800  0.40450900  1
  Mg  Mg11  1  0.99752900  0.24903800  0.90450900  1
  Si  Si0  1  0.91435700  0.74969500  0.78505200  1
  Si  Si1  1  0.58564300  0.74969500  0.28505200  1
  Si  Si2  1  0.08564300  0.24969500  0.21494800  1
  Si  Si3  1  0.41435700  0.24969500  0.71494800  1
  O  O0  1  0.24492400  0.74842700  0.28425700  1
  O  O1  1  0.25507600  0.74842700  0.78425700  1
  O  O2  1  0.75507600  0.24842700  0.71574300  1
  O  O3  1  0.74492400  0.24842700  0.21574300  1
  O  O4  1  0.73393200  0.89586800  0.21291000  1
  O  O5  1  0.76261400  0.60625000  0.71106300  1
  O  O6  1  0.26606800  0.39586800  0.78709000  1
  O  O7  1  0.23738600  0.10625000  0.28893700  1
  O  O8  1  0.26261400  0.10625000  0.78893700  1
  O  O9  1  0.23393200  0.39586800  0.28709000  1
  O  O10  1  0.73738600  0.60625000  0.21106300  1
  O  O11  1  0.76606800  0.89586800  0.71291000  1
  O  O12  1  0.73097300  0.74870100  0.42918800  1
  O  O13  1  0.76902700  0.74870100  0.92918800  1
  O  O14  1  0.26902700  0.24870100  0.57081200  1
  O  O15  1  0.23097300  0.24870100  0.07081200  1
  O  O16  1  0.22327000  0.91582600  0.53896000  1
  O  O17  1  0.77673000  0.41582600  0.46104000  1
  O  O18  1  0.72327000  0.41582600  0.96104000  1
  O  O19  1  0.27673000  0.91582600  0.03896000  1
  F  F0  1  0.26225800  0.58241000  0.03648400  1
  F  F1  1  0.73774200  0.08241000  0.96351600  1
  F  F2  1  0.76225800  0.08241000  0.46351600  1
  F  F3  1  0.23774200  0.58241000  0.53648400  1
loop_
_geom_bond_atom_site_label_1
_geom_bond_atom_site_label_2
_geom_bond_distance
_geom_bond_site_symmetry_2
Mg0 O8 2.019321 1_565
Mg0 O19 2.055864 1_556
Mg0 O11 2.132518 1_555
Mg0 O1 2.136567 1_555
Mg0 O13 2.252328 1_555
Mg1 O9 2.034083 1_555
Mg1 O17 2.061123 1_455
Mg1 O0 2.093218 1_555
Mg1 O10 2.156690 1_455
Mg1 O12 2.210954 1_455
Mg2 O10 2.019321 1_555
Mg2 O18 2.055864 1_554
Mg2 O9 2.132518 1_555
Mg2 O3 2.136567 1_555
Mg2 O15 2.252328 1_555
Mg3 O11 2.034083 1_545
Mg3 O16 2.061123 1_645
Mg3 O2 2.093218 1_555
Mg3 O8 2.156690 1_655
Mg3 O14 2.210954 1_655
Mg4 O4 2.034083 1_545
Mg4 O19 2.061123 1_545
Mg4 O3 2.093218 1_555
Mg4 O7 2.156690 1_555
Mg4 O15 2.210954 1_555
Mg5 O5 2.019321 1_555
Mg5 O17 2.055864 1_555
Mg5 O6 2.132518 1_655
Mg5 O2 2.136567 1_555
Mg5 O14 2.252328 1_655
Mg6 O6 2.034083 1_555
Mg6 O18 2.061123 1_555
Mg6 O1 2.093218 1_555
Mg6 O5 2.156690 1_555
Mg6 O13 2.210954 1_555
Mg7 O7 2.019321 1_565
Mg7 O16 2.055864 1_555
Mg7 O4 2.132518 1_455
Mg7 O0 2.136567 1_555
Mg7 O12 2.252328 1_455
Mg8 O12 2.064233 1_555
Mg8 O16 2.066665 1_555
Mg8 O5 2.162866 1_555
Mg8 O11 2.204526 1_555
Mg8 O1 2.286863 1_555
Mg9 O13 2.064233 1_454
Mg9 O19 2.066665 1_555
Mg9 O10 2.162866 1_455
Mg9 O4 2.204526 1_455
Mg9 O0 2.286863 1_555
Mg10 O14 2.064233 1_555
Mg10 O17 2.066665 1_555
Mg10 O7 2.162866 1_555
Mg10 O9 2.204526 1_555
Mg10 O3 2.286863 1_555
Mg11 O15 2.064233 1_656
Mg11 O18 2.066665 1_555
Mg11 O8 2.162866 1_655
Mg11 O6 2.204526 1_655
Mg11 O2 2.286863 1_555
O0 Si1 1.625739 1_555
O1 Si0 1.625739 1_455
O2 Si3 1.625739 1_555
O3 Si2 1.625739 1_655
O4 Si1 1.663197 1_555
O5 Si0 1.660282 1_555
O6 Si3 1.663197 1_555
O7 Si2 1.660282 1_555
O8 Si3 1.660282 1_555
O9 Si2 1.663197 1_555
O10 Si1 1.660282 1_555
O11 Si0 1.663197 1_555
O12 Si1 1.658248 1_555
O13 Si0 1.658248 1_555
O14 Si3 1.658248 1_555
O15 Si2 1.658248 1_555
F0 Mg9 2.030311 1_555
F0 Mg6 2.040064 1_554
F0 Mg2 2.086202 1_555
F1 Mg11 2.030311 1_555
F1 Mg4 2.040064 1_556
F1 Mg0 2.086202 1_545
F2 Mg10 2.030311 1_555
F2 Mg3 2.040064 1_555
F2 Mg7 2.086202 1_645
F3 Mg8 2.030311 1_555
F3 Mg1 2.040064 1_555
F3 Mg5 2.086202 1_455
