# generated using pymatgen
data_LiVFeP2(O4F)2
_symmetry_space_group_name_H-M   'P 1'
_cell_length_a   5.16155000
_cell_length_b   5.34790205
_cell_length_c   7.38730685
_cell_angle_alpha   109.53899899
_cell_angle_beta   105.74723678
_cell_angle_gamma   97.52654835
_symmetry_Int_Tables_number   1
_chemical_formula_structural   LiVFeP2(O4F)2
_chemical_formula_sum   'Li1 V1 Fe1 P2 O8 F2'
_cell_volume   179.34737153
_cell_formula_units_Z   1
loop_
 _symmetry_equiv_pos_site_id
 _symmetry_equiv_pos_as_xyz
  1  'x, y, z'
loop_
 _atom_site_type_symbol
 _atom_site_label
 _atom_site_symmetry_multiplicity
 _atom_site_fract_x
 _atom_site_fract_y
 _atom_site_fract_z
 _atom_site_occupancy
  Li  Li0  1  0.74471400  0.38720500  0.18007600  1
  V  V0  1  0.00398200  0.00385600  0.99507700  1
  Fe  Fe0  1  0.00056100  0.99433200  0.50573200  1
  P  P0  1  0.67619600  0.35732300  0.75933900  1
  P  P1  1  0.32010200  0.64480900  0.23970100  1
  O  O0  1  0.35633700  0.22100000  0.91153000  1
  O  O1  1  0.75184600  0.21753600  0.60435500  1
  O  O2  1  0.69664700  0.65740700  0.66373700  1
  O  O3  1  0.11870100  0.67079400  0.12284400  1
  O  O4  1  0.84710000  0.31185200  0.89985800  1
  O  O5  1  0.31502200  0.34445100  0.33517000  1
  O  O6  1  0.25937900  0.79495500  0.38833400  1
  O  O7  1  0.64014500  0.76758300  0.08479600  1
  F  F0  1  0.87842500  0.06681700  0.25672900  1
  F  F1  1  0.12064400  0.94465400  0.74131600  1
loop_
_geom_bond_atom_site_label_1
_geom_bond_atom_site_label_2
_geom_bond_distance
_geom_bond_site_symmetry_2
Li0 O4 2.195085 1_554
Li0 O0 2.222458 1_554
Li0 O7 2.442124 1_555
Fe0 O1 1.982693 1_465
Fe0 O6 2.014231 1_555
O0 V0 2.360618 1_555
O0 P0 2.400344 1_555
O1 P0 1.329952 1_555
O2 P0 1.959483 1_555
O2 V0 2.455498 1_665
O3 P1 1.214976 1_555
O3 V0 2.347672 1_564
O4 P0 1.281742 1_555
O4 V0 2.163047 1_655
O5 P1 1.958313 1_555
O5 V0 2.488134 1_554
O6 P1 1.269479 1_555
O7 P1 2.390380 1_555
O7 V0 2.485309 1_664
F0 O7 1.721530 1_545
F0 Fe0 1.960320 1_645
F0 Li0 2.116450 1_555
F0 V0 2.138045 1_654
F1 O0 1.643432 1_565
F1 Fe0 1.802892 1_555
F1 V0 2.059768 1_565
