# generated using pymatgen
data_Li6V3P8O29
_symmetry_space_group_name_H-M   'P 1'
_cell_length_a   9.83139693
_cell_length_b   9.78685065
_cell_length_c   13.98549914
_cell_angle_alpha   89.81326262
_cell_angle_beta   89.54551302
_cell_angle_gamma   59.90424879
_symmetry_Int_Tables_number   1
_chemical_formula_structural   Li6V3P8O29
_chemical_formula_sum   'Li12 V6 P16 O58'
_cell_volume   1164.21486931
_cell_formula_units_Z   2
loop_
 _symmetry_equiv_pos_site_id
 _symmetry_equiv_pos_as_xyz
  1  'x, y, z'
loop_
 _atom_site_type_symbol
 _atom_site_label
 _atom_site_symmetry_multiplicity
 _atom_site_fract_x
 _atom_site_fract_y
 _atom_site_fract_z
 _atom_site_occupancy
  Li  Li0  1  0.89809641  0.76505059  0.05533870  1
  Li  Li1  1  0.76341635  0.89994808  0.56521370  1
  Li  Li2  1  0.90274668  0.33724400  0.56331288  1
  Li  Li3  1  0.76498940  0.33118614  0.05580223  1
  Li  Li4  1  0.33251654  0.89821574  0.05565802  1
  Li  Li5  1  0.66694993  0.23637661  0.44359575  1
  Li  Li6  1  0.33972846  0.76349390  0.56495386  1
  Li  Li7  1  0.34098534  0.32914161  0.10886376  1
  Li  Li8  1  0.09915690  0.66628835  0.44339474  1
  Li  Li9  1  0.09527380  0.23132548  0.93448564  1
  Li  Li10  1  0.98530088  0.97576326  0.98601609  1
  Li  Li11  1  0.03041536  0.01160040  0.50493241  1
  V  V0  1  0.56375807  0.43871434  0.24823574  1
  V  V1  1  0.43394397  0.56302319  0.75499654  1
  V  V2  1  0.56104834  0.00185624  0.75084683  1
  V  V3  1  0.43572941  0.00016805  0.25267817  1
  V  V4  1  0.99957681  0.56688197  0.25233600  1
  V  V5  1  0.00005697  0.43607102  0.74840699  1
  P  P0  1  0.90776336  0.77731001  0.84094925  1
  P  P1  1  0.76981357  0.91619371  0.34498718  1
  P  P2  1  0.91252570  0.31242879  0.34307769  1
  P  P3  1  0.66776607  0.66959229  0.12911691  1
  P  P4  1  0.66593715  0.66500952  0.62966616  1
  P  P5  1  0.77574829  0.31251990  0.84229838  1
  P  P6  1  0.68870412  0.22591817  0.65895489  1
  P  P7  1  0.31218052  0.91242445  0.84357287  1
  P  P8  1  0.69261472  0.08695307  0.15828390  1
  P  P9  1  0.31037989  0.77379540  0.34412633  1
  P  P10  1  0.22065426  0.69002238  0.15930240  1
  P  P11  1  0.33608278  0.33402171  0.36988730  1
  P  P12  1  0.33131439  0.33262640  0.86958218  1
  P  P13  1  0.08840534  0.68833360  0.65838306  1
  P  P14  1  0.22334462  0.08385735  0.65913606  1
  P  P15  1  0.09053120  0.22465954  0.15775439  1
  O  O0  1  0.99954580  0.77637639  0.56932309  1
  O  O1  1  0.91926572  0.74948389  0.34097402  1
  O  O2  1  0.79834801  0.99049038  0.07788598  1
  O  O3  1  0.73846523  0.91486548  0.83294572  1
  O  O4  1  0.91412219  0.61822298  0.82893839  1
  O  O5  1  0.81399279  0.67330135  0.16919318  1
  O  O6  1  0.91477036  0.46897635  0.32641099  1
  O  O7  1  0.99747295  0.23434934  0.07008383  1
  O  O8  1  0.92070215  0.33694509  0.83642595  1
  O  O9  1  0.67396010  0.81155400  0.66768482  1
  O  O10  1  0.62093030  0.90595628  0.33049462  1
  O  O11  1  0.81211585  0.51045243  0.67046395  1
  O  O12  1  0.66320332  0.67195528  0.02276927  1
  O  O13  1  0.66868017  0.65922442  0.52274777  1
  O  O14  1  0.67103779  0.51664995  0.16975921  1
  O  O15  1  0.46880840  0.90801373  0.82905517  1
  O  O16  1  0.51675978  0.81677186  0.17265203  1
  O  O17  1  0.74434627  0.33980740  0.33766661  1
  O  O18  1  0.79683724  0.20242269  0.75105318  1
  O  O19  1  0.78093439  0.22277724  0.57005469  1
  O  O20  1  0.78735537  0.22489753  0.93301026  1
  O  O21  1  0.62317919  0.47084547  0.83001524  1
  O  O22  1  0.51278469  0.67264311  0.67147040  1
  O  O23  1  0.66372232  0.25829862  0.15659914  1
  O  O24  1  0.46500455  0.61547638  0.32897414  1
  O  O25  1  0.33918935  0.91180570  0.33776768  1
  O  O26  1  0.78644141  0.01281013  0.25698612  1
  O  O27  1  0.76830207  0.00062993  0.43560197  1
  O  O28  1  0.20770091  0.99198341  0.57820162  1
  O  O29  1  0.66381913  0.08276806  0.65818667  1
  O  O30  1  0.53419388  0.38218400  0.67012967  1
  O  O31  1  0.33555449  0.74661433  0.83894638  1
  O  O32  1  0.48934366  0.32741907  0.32790081  1
  O  O33  1  0.37137538  0.52482539  0.16859884  1
  O  O34  1  0.21481646  0.79017781  0.07707262  1
  O  O35  1  0.22621702  0.77431552  0.43558851  1
  O  O36  1  0.19779876  0.78653359  0.25699462  1
  O  O37  1  0.25469870  0.66449736  0.65816600  1
  O  O38  1  0.47943361  0.18959732  0.82477715  1
  O  O39  1  0.53026015  0.09748157  0.16559817  1
  O  O40  1  0.32761431  0.48322169  0.82666548  1
  O  O41  1  0.32903391  0.33253665  0.97675856  1
  O  O42  1  0.33950970  0.33162377  0.47589923  1
  O  O43  1  0.18805259  0.48891744  0.33172496  1
  O  O44  1  0.38293173  0.07576323  0.66600419  1
  O  O45  1  0.33531776  0.18903259  0.32066530  1
  O  O46  1  0.07866504  0.66055011  0.15907666  1
  O  O47  1  0.00134413  0.79575692  0.75051642  1
  O  O48  1  0.98282884  0.78895094  0.93144881  1
  O  O49  1  0.09051698  0.53054309  0.67062579  1
  O  O50  1  0.18504640  0.32587306  0.83202806  1
  O  O51  1  0.10805368  0.37212832  0.17248613  1
  O  O52  1  0.25553720  0.07739812  0.15638334  1
  O  O53  1  0.22520547  0.99879864  0.93423253  1
  O  O54  1  0.19708104  0.01218486  0.75697079  1
  O  O55  1  0.08560927  0.25717050  0.65736573  1
  O  O56  1  0.98859208  0.23088506  0.43437516  1
  O  O57  1  0.00367230  0.20508891  0.25129935  1
loop_
_geom_bond_atom_site_label_1
_geom_bond_atom_site_label_2
_geom_bond_distance
_geom_bond_site_symmetry_2
Li0 O2 1.938758 1_555
Li0 O48 1.980066 1_554
Li0 O46 2.124312 1_655
Li0 O5 2.177118 1_555
Li1 O0 2.010266 1_555
Li1 O29 2.022071 1_565
Li1 O27 2.072078 1_565
Li1 O9 2.076210 1_555
Li2 O19 2.010254 1_555
Li2 O56 2.038281 1_555
Li2 O55 2.047990 1_655
Li2 O11 2.096131 1_555
Li3 O20 1.963627 1_554
Li3 O7 1.998950 1_555
Li3 O23 2.042239 1_555
Li3 O14 2.236492 1_555
Li4 O34 1.940669 1_555
Li4 O53 1.985429 1_554
Li4 O52 2.073785 1_565
Li4 O16 2.276871 1_555
Li5 O27 2.005718 1_555
Li5 O19 2.069241 1_555
Li5 O17 2.131487 1_555
Li5 O32 2.221718 1_555
Li6 O28 1.951308 1_555
Li6 O37 2.030691 1_555
Li6 O22 2.102112 1_555
Li6 O35 2.107656 1_555
Li7 O41 1.851352 1_554
Li7 O39 2.239006 1_555
Li7 O33 2.245697 1_555
Li7 O51 2.284056 1_555
Li8 O35 2.002930 1_555
Li8 O0 2.036770 1_455
Li8 O1 2.105000 1_455
Li8 O43 2.165819 1_555
Li9 O53 1.973622 1_545
Li9 O8 2.035627 1_455
Li9 O7 2.112974 1_456
Li9 O50 2.116314 1_555
Li10 O48 1.994903 1_555
Li10 O2 2.178976 1_556
Li10 O20 2.352478 1_565
Li10 O34 2.435677 1_656
Li10 O53 2.577480 1_655
Li11 O28 1.953526 1_545
Li11 O56 2.203682 1_455
Li11 O35 2.353904 1_545
Li11 O19 2.451506 1_455
Li11 O0 2.624040 1_445
O0 P13 1.520652 1_655
O1 P1 1.555352 1_555
O1 V4 1.984353 1_555
O2 P8 1.496761 1_565
O3 P0 1.532970 1_555
O3 V2 1.903078 1_565
O4 P0 1.536286 1_555
O4 V5 1.909917 1_655
O5 P3 1.564431 1_555
O5 V4 1.971242 1_555
O6 P2 1.560023 1_555
O6 V4 1.862143 1_555
O7 P15 1.509771 1_655
O8 P5 1.560275 1_555
O8 V5 1.949663 1_655
O9 P4 1.570026 1_555
O9 V2 1.993470 1_565
O10 P1 1.531517 1_555
O10 V3 1.921201 1_565
O11 P4 1.583101 1_555
O11 V5 1.951944 1_655
O12 P3 1.488112 1_555
O13 P4 1.496081 1_555
O14 P3 1.584631 1_555
O14 V0 1.918789 1_555
O15 P7 1.530596 1_555
O15 V2 1.917088 1_565
O16 P3 1.579972 1_555
O16 V3 1.916707 1_565
O17 P2 1.539128 1_555
O17 V0 1.989289 1_555
O18 P5 1.616532 1_555
O18 P6 1.617632 1_555
O19 P6 1.524265 1_555
O20 P5 1.501648 1_555
O21 P5 1.533560 1_555
O21 V1 1.928067 1_555
O22 P4 1.577354 1_555
O22 V1 1.981868 1_555
O23 P8 1.554181 1_555
O23 V0 1.995111 1_555
O24 P9 1.546417 1_555
O24 V0 1.876498 1_555
O25 P9 1.514917 1_555
O25 V3 1.965549 1_565
O26 P1 1.606173 1_545
O26 P8 1.620287 1_555
O27 P1 1.511074 1_545
O28 P14 1.503808 1_565
O29 P6 1.538385 1_555
O29 V2 2.025396 1_555
O30 P6 1.529302 1_555
O30 V1 1.938617 1_555
O31 P7 1.522104 1_555
O31 V1 1.948135 1_555
O32 P11 1.583634 1_555
O32 V0 1.934255 1_555
O33 P10 1.557429 1_555
O33 V0 1.989163 1_555
O34 P10 1.491286 1_555
O35 P9 1.516548 1_555
O36 P10 1.612464 1_555
O36 P9 1.614799 1_555
O37 P13 1.531256 1_555
O37 V1 2.049290 1_555
O38 P12 1.555507 1_555
O38 V2 1.899883 1_555
O39 P8 1.549638 1_555
O39 V3 2.028823 1_555
O40 P12 1.573096 1_555
O40 V1 1.872031 1_555
O41 P12 1.498909 1_555
O42 P11 1.483122 1_555
O43 P11 1.579687 1_555
O43 V4 1.964090 1_455
O44 P14 1.534550 1_555
O44 V2 1.937700 1_555
O45 P11 1.582599 1_555
O45 V3 1.860577 1_555
O46 P10 1.560699 1_555
O46 V4 1.958842 1_455
O47 P13 1.608446 1_555
O47 P0 1.620268 1_455
O48 P0 1.503214 1_555
O49 P13 1.542953 1_555
O49 V5 1.905748 1_555
O50 P12 1.567049 1_555
O50 V5 1.974059 1_555
O51 P15 1.551438 1_555
O51 V4 1.993434 1_455
O52 P15 1.537553 1_555
O52 V3 2.052237 1_555
O53 P7 1.522578 1_555
O54 P14 1.612650 1_555
O54 P7 1.614527 1_545
O55 P14 1.551803 1_555
O55 V5 1.978588 1_555
O56 P2 1.495474 1_555
O57 P2 1.612630 1_455
O57 P15 1.619309 1_555
