# generated using pymatgen
data_AgSnF6
_symmetry_space_group_name_H-M   'P 1'
_cell_length_a   5.11720539
_cell_length_b   5.17874389
_cell_length_c   5.63248943
_cell_angle_alpha   65.46346883
_cell_angle_beta   89.16407547
_cell_angle_gamma   60.94197773
_symmetry_Int_Tables_number   1
_chemical_formula_structural   AgSnF6
_chemical_formula_sum   'Ag1 Sn1 F6'
_cell_volume   115.36164197
_cell_formula_units_Z   1
loop_
 _symmetry_equiv_pos_site_id
 _symmetry_equiv_pos_as_xyz
  1  'x, y, z'
loop_
 _atom_site_type_symbol
 _atom_site_label
 _atom_site_symmetry_multiplicity
 _atom_site_fract_x
 _atom_site_fract_y
 _atom_site_fract_z
 _atom_site_occupancy
  Ag  Ag0  1  0.00000000  -0.00000000  0.00000000  1
  Sn  Sn0  1  0.50000000  -0.00000000  0.50000000  1
  F  F0  1  0.56243186  0.56138959  0.72120652  1
  F  F1  1  0.43756814  0.43861041  0.27879348  1
  F  F2  1  0.74822008  0.83504357  0.26003798  1
  F  F3  1  0.25177992  0.16495643  0.73996202  1
  F  F4  1  0.11595861  0.14166134  0.26435709  1
  F  F5  1  0.88404139  0.85833866  0.73564291  1
loop_
_geom_bond_atom_site_label_1
_geom_bond_atom_site_label_2
_geom_bond_distance
_geom_bond_site_symmetry_2
Ag0 F4 2.112654 1_555
Ag0 F5 2.112654 1_444
Ag0 F3 2.123655 1_554
Ag0 F2 2.123655 1_445
Ag0 F1 2.432943 1_545
Ag0 F0 2.432943 1_454
F0 Sn0 1.941675 1_565
F1 Sn0 1.941675 1_555
F2 Sn0 2.006183 1_565
F3 Sn0 2.006183 1_555
F4 Sn0 2.007189 1_555
F5 Sn0 2.007189 1_565
