# generated using pymatgen
data_MgFe8(O7F)2
_symmetry_space_group_name_H-M   'P 1'
_cell_length_a   7.29045109
_cell_length_b   8.06266410
_cell_length_c   5.75971169
_cell_angle_alpha   114.31423290
_cell_angle_beta   108.79542787
_cell_angle_gamma   83.07006750
_symmetry_Int_Tables_number   1
_chemical_formula_structural   MgFe8(O7F)2
_chemical_formula_sum   'Mg1 Fe8 O14 F2'
_cell_volume   292.04812715
_cell_formula_units_Z   1
loop_
 _symmetry_equiv_pos_site_id
 _symmetry_equiv_pos_as_xyz
  1  'x, y, z'
loop_
 _atom_site_type_symbol
 _atom_site_label
 _atom_site_symmetry_multiplicity
 _atom_site_fract_x
 _atom_site_fract_y
 _atom_site_fract_z
 _atom_site_occupancy
  Mg  Mg0  1  0.87008300  0.36309700  0.23351900  1
  Fe  Fe0  1  0.73523200  0.22260300  0.52395500  1
  Fe  Fe1  1  0.51875400  0.98963900  0.99303500  1
  Fe  Fe2  1  0.26809600  0.20299300  0.55681500  1
  Fe  Fe3  1  0.73264300  0.78095800  0.47059200  1
  Fe  Fe4  1  0.47754500  0.54664400  0.96052500  1
  Fe  Fe5  1  0.00640900  0.95228100  0.01683100  1
  Fe  Fe6  1  0.23542100  0.75096900  0.49569600  1
  Fe  Fe7  1  0.01521000  0.51085800  0.97754500  1
  O  O0  1  0.99197500  0.16062400  0.35184400  1
  O  O1  1  0.91440700  0.27280800  0.86777200  1
  O  O2  1  0.60963400  0.23163900  0.17106200  1
  O  O3  1  0.33582700  0.00994900  0.67966000  1
  O  O4  1  0.51733100  0.33045200  0.66830100  1
  O  O5  1  0.75193800  0.58506800  0.14089100  1
  O  O6  1  0.72977500  0.91187000  0.82471400  1
  O  O7  1  0.23184700  0.43416800  0.83393300  1
  O  O8  1  0.47495800  0.67903400  0.32754500  1
  O  O9  1  0.65949300  0.97032500  0.32770400  1
  O  O10  1  0.12791200  0.50371600  0.31769400  1
  O  O11  1  0.41492800  0.74567300  0.83516800  1
  O  O12  1  0.08187000  0.76234200  0.14131300  1
  O  O13  1  0.00384500  0.83110800  0.63827100  1
  F  F0  1  0.83334700  0.49582500  0.60867400  1
  F  F1  1  0.27633400  0.07017000  0.16789200  1
loop_
_geom_bond_atom_site_label_1
_geom_bond_atom_site_label_2
_geom_bond_distance
_geom_bond_site_symmetry_2
Mg0 O0 2.023604 1_555
Mg0 O1 2.047231 1_554
Mg0 O5 2.085101 1_555
Mg0 O10 2.127930 1_655
Mg0 O2 2.142364 1_555
Fe0 O1 1.895349 1_555
Fe0 O9 1.922339 1_545
Fe0 O2 1.970182 1_555
Fe0 O4 1.973162 1_555
Fe0 O0 2.301728 1_555
Fe1 O2 1.877254 1_566
Fe1 O3 1.924265 1_565
Fe1 O11 1.926611 1_555
Fe1 O9 1.930498 1_556
Fe1 O6 1.981809 1_555
Fe2 O3 1.913967 1_555
Fe2 O7 1.947975 1_555
Fe2 O0 1.966022 1_455
Fe2 O4 1.981257 1_555
Fe3 O6 1.877227 1_555
Fe3 O13 1.909547 1_655
Fe3 O8 1.923806 1_555
Fe3 O5 1.941420 1_555
Fe3 O9 1.961706 1_555
Fe4 O7 1.889043 1_555
Fe4 O5 1.929347 1_556
Fe4 O4 1.931843 1_555
Fe4 O8 1.941938 1_556
Fe4 O11 1.967163 1_555
Fe5 O12 1.899645 1_555
Fe5 O6 1.954906 1_454
Fe5 O13 1.983161 1_554
Fe5 O0 1.993766 1_465
Fe6 O10 1.953391 1_555
Fe6 O11 1.985936 1_555
Fe6 O3 2.016354 1_565
Fe6 O12 2.021095 1_555
Fe6 O13 2.033563 1_555
Fe6 O8 2.169548 1_555
Fe7 O10 1.887043 1_556
Fe7 O12 1.898585 1_556
Fe7 O1 1.914489 1_455
Fe7 O7 1.935449 1_555
Fe7 O5 2.313023 1_456
F0 Mg0 2.070143 1_555
F0 Fe7 2.073173 1_655
F0 Fe0 2.207413 1_555
F1 Fe5 2.049401 1_545
F1 Fe2 2.064977 1_555
F1 Fe1 2.211555 1_544
