# generated using pymatgen
data_Y3NbO7
_symmetry_space_group_name_H-M   'P 1'
_cell_length_a   8.18122425
_cell_length_b   8.18122425
_cell_length_c   5.37999200
_cell_angle_alpha   90.00000000
_cell_angle_beta   90.00000000
_cell_angle_gamma   125.50558008
_symmetry_Int_Tables_number   1
_chemical_formula_structural   Y3NbO7
_chemical_formula_sum   'Y6 Nb2 O14'
_cell_volume   293.13932557
_cell_formula_units_Z   2
loop_
 _symmetry_equiv_pos_site_id
 _symmetry_equiv_pos_as_xyz
  1  'x, y, z'
loop_
 _atom_site_type_symbol
 _atom_site_label
 _atom_site_symmetry_multiplicity
 _atom_site_fract_x
 _atom_site_fract_y
 _atom_site_fract_z
 _atom_site_occupancy
  Y  Y0  1  0.00000000  0.50000000  0.00000000  1
  Y  Y1  1  0.50000000  0.00000000  0.00000000  1
  Y  Y2  1  0.61959900  0.38040100  0.47131400  1
  Y  Y3  1  0.88040100  0.11959900  0.47131400  1
  Y  Y4  1  0.11959900  0.88040100  0.52868600  1
  Y  Y5  1  0.38040100  0.61959900  0.52868600  1
  Nb  Nb0  1  0.75000000  0.75000000  0.00000000  1
  Nb  Nb1  1  0.25000000  0.25000000  0.00000000  1
  O  O0  1  0.75000000  0.25000000  0.24272900  1
  O  O1  1  0.83866400  0.59792500  0.76311200  1
  O  O2  1  0.25000000  0.75000000  0.75727100  1
  O  O3  1  0.98818900  0.01181100  0.21271900  1
  O  O4  1  0.40207500  0.16133600  0.76311200  1
  O  O5  1  0.33866400  0.09792500  0.23688800  1
  O  O6  1  0.09792500  0.33866400  0.76311200  1
  O  O7  1  0.48818900  0.51181100  0.78728100  1
  O  O8  1  0.51181100  0.48818900  0.21271900  1
  O  O9  1  0.90207500  0.66133600  0.23688800  1
  O  O10  1  0.59792500  0.83866400  0.23688800  1
  O  O11  1  0.66133600  0.90207500  0.76311200  1
  O  O12  1  0.01181100  0.98818900  0.78728100  1
  O  O13  1  0.16133600  0.40207500  0.23688800  1
loop_
_geom_bond_atom_site_label_1
_geom_bond_atom_site_label_2
_geom_bond_distance
_geom_bond_site_symmetry_2
Nb0 O11 2.178680 1_554
Nb0 O9 2.178680 1_555
Nb0 O1 2.178680 1_554
Nb0 O10 2.178680 1_555
Nb0 O12 2.201509 1_654
Nb0 O8 2.201509 1_555
Nb0 O7 2.201509 1_554
Nb0 O3 2.201509 1_565
Nb1 O5 2.178680 1_555
Nb1 O6 2.178680 1_554
Nb1 O4 2.178680 1_554
Nb1 O13 2.178680 1_555
Nb1 O8 2.201509 1_555
Nb1 O3 2.201509 1_455
Nb1 O12 2.201509 1_544
Nb1 O7 2.201509 1_554
O0 Y2 2.260685 1_555
O0 Y3 2.260685 1_555
O0 Y1 2.283141 1_555
O0 Y0 2.283141 1_655
O1 Y2 2.266894 1_555
O1 Y0 2.288357 1_656
O1 Y4 2.458502 1_655
O2 Y4 2.260685 1_555
O2 Y5 2.260685 1_555
O2 Y0 2.283141 1_556
O2 Y1 2.283141 1_566
O3 Y3 2.096210 1_555
O3 Y4 2.558102 1_645
O4 Y2 2.266894 1_555
O4 Y1 2.288357 1_556
O4 Y4 2.458502 1_545
O5 Y4 2.266894 1_545
O5 Y1 2.288357 1_555
O5 Y2 2.458502 1_555
O6 Y3 2.266894 1_455
O6 Y0 2.288357 1_556
O6 Y5 2.458502 1_555
O7 Y5 2.096210 1_555
O7 Y2 2.558102 1_555
O8 Y2 2.096210 1_555
O8 Y5 2.558102 1_555
O9 Y4 2.266894 1_655
O9 Y0 2.288357 1_655
O9 Y2 2.458502 1_555
O10 Y5 2.266894 1_555
O10 Y1 2.288357 1_565
O10 Y3 2.458502 1_565
O11 Y3 2.266894 1_565
O11 Y1 2.288357 1_566
O11 Y5 2.458502 1_555
O12 Y4 2.096210 1_555
O12 Y3 2.558102 1_465
O13 Y5 2.266894 1_555
O13 Y0 2.288357 1_555
O13 Y3 2.458502 1_455
