# generated using pymatgen
data_Y3Ga15Ru4
_symmetry_space_group_name_H-M   'P 1'
_cell_length_a   8.82023400
_cell_length_b   9.74049700
_cell_length_c   17.97892900
_cell_angle_alpha   90.00000000
_cell_angle_beta   90.00000000
_cell_angle_gamma   90.00000000
_symmetry_Int_Tables_number   1
_chemical_formula_structural   Y3Ga15Ru4
_chemical_formula_sum   'Y12 Ga60 Ru16'
_cell_volume   1544.63204812
_cell_formula_units_Z   4
loop_
 _symmetry_equiv_pos_site_id
 _symmetry_equiv_pos_as_xyz
  1  'x, y, z'
loop_
 _atom_site_type_symbol
 _atom_site_label
 _atom_site_symmetry_multiplicity
 _atom_site_fract_x
 _atom_site_fract_y
 _atom_site_fract_z
 _atom_site_occupancy
  Y  Y0  1  0.37437000  0.25000000  0.16850700  1
  Y  Y1  1  0.62563000  0.75000000  0.83149300  1
  Y  Y2  1  0.12563000  0.75000000  0.66850700  1
  Y  Y3  1  0.87437000  0.25000000  0.33149300  1
  Y  Y4  1  0.37453700  0.25000000  0.74803300  1
  Y  Y5  1  0.62546300  0.75000000  0.25196700  1
  Y  Y6  1  0.12546300  0.75000000  0.24803300  1
  Y  Y7  1  0.87453700  0.25000000  0.75196700  1
  Y  Y8  1  0.12556500  0.25000000  0.52306400  1
  Y  Y9  1  0.87443500  0.75000000  0.47693600  1
  Y  Y10  1  0.37443500  0.75000000  0.02306400  1
  Y  Y11  1  0.62556500  0.25000000  0.97693600  1
  Ga  Ga0  1  0.12746700  0.06177300  0.25279600  1
  Ga  Ga1  1  0.87253300  0.93822700  0.74720400  1
  Ga  Ga2  1  0.37253300  0.93822700  0.75279600  1
  Ga  Ga3  1  0.87253300  0.56177300  0.74720400  1
  Ga  Ga4  1  0.62746700  0.06177300  0.24720400  1
  Ga  Ga5  1  0.12746700  0.43822700  0.25279600  1
  Ga  Ga6  1  0.62746700  0.43822700  0.24720400  1
  Ga  Ga7  1  0.37253300  0.56177300  0.75279600  1
  Ga  Ga8  1  0.00725200  0.25000000  0.16896200  1
  Ga  Ga9  1  0.99274800  0.75000000  0.83103800  1
  Ga  Ga10  1  0.49274800  0.75000000  0.66896200  1
  Ga  Ga11  1  0.50725200  0.25000000  0.33103800  1
  Ga  Ga12  1  0.13328000  0.25000000  0.04243700  1
  Ga  Ga13  1  0.86671900  0.75000000  0.95756300  1
  Ga  Ga14  1  0.36671900  0.75000000  0.54243700  1
  Ga  Ga15  1  0.63328100  0.25000000  0.45756300  1
  Ga  Ga16  1  0.37406600  0.57684900  0.33280500  1
  Ga  Ga17  1  0.62593400  0.42315100  0.66719500  1
  Ga  Ga18  1  0.12593400  0.42315100  0.83280500  1
  Ga  Ga19  1  0.62593400  0.07684900  0.66719500  1
  Ga  Ga20  1  0.87406600  0.57684900  0.16719500  1
  Ga  Ga21  1  0.37406600  0.92315100  0.33280500  1
  Ga  Ga22  1  0.87406600  0.92315100  0.16719500  1
  Ga  Ga23  1  0.12593400  0.07684900  0.83280500  1
  Ga  Ga24  1  0.22007000  0.25000000  0.35908800  1
  Ga  Ga25  1  0.77993000  0.75000000  0.64091200  1
  Ga  Ga26  1  0.27993000  0.75000000  0.85908800  1
  Ga  Ga27  1  0.72007000  0.25000000  0.14091200  1
  Ga  Ga28  1  0.12375500  0.08553000  0.67123300  1
  Ga  Ga29  1  0.87624500  0.91447000  0.32876700  1
  Ga  Ga30  1  0.37624500  0.91447000  0.17123300  1
  Ga  Ga31  1  0.87624500  0.58553000  0.32876700  1
  Ga  Ga32  1  0.62375500  0.08553000  0.82876700  1
  Ga  Ga33  1  0.12375500  0.41447000  0.67123300  1
  Ga  Ga34  1  0.62375500  0.41447000  0.82876700  1
  Ga  Ga35  1  0.37624500  0.58553000  0.17123300  1
  Ga  Ga36  1  0.37898700  0.06038500  0.46599900  1
  Ga  Ga37  1  0.62101300  0.93961500  0.53400100  1
  Ga  Ga38  1  0.12101300  0.93961500  0.96599900  1
  Ga  Ga39  1  0.62101300  0.56038500  0.53400100  1
  Ga  Ga40  1  0.87898700  0.06038500  0.03400100  1
  Ga  Ga41  1  0.37898700  0.43961500  0.46599900  1
  Ga  Ga42  1  0.87898700  0.43961500  0.03400100  1
  Ga  Ga43  1  0.12101300  0.56038500  0.96599900  1
  Ga  Ga44  1  0.45134600  0.25000000  0.57769900  1
  Ga  Ga45  1  0.54865400  0.75000000  0.42230100  1
  Ga  Ga46  1  0.04865400  0.75000000  0.07769900  1
  Ga  Ga47  1  0.95134600  0.25000000  0.92230100  1
  Ga  Ga48  1  0.30376500  0.25000000  0.91791800  1
  Ga  Ga49  1  0.69623500  0.75000000  0.08208200  1
  Ga  Ga50  1  0.19623500  0.75000000  0.41791800  1
  Ga  Ga51  1  0.80376500  0.25000000  0.58208200  1
  Ga  Ga52  1  0.37228500  0.06867200  0.03213700  1
  Ga  Ga53  1  0.62771400  0.93132800  0.96786300  1
  Ga  Ga54  1  0.12771500  0.93132800  0.53213700  1
  Ga  Ga55  1  0.62771400  0.56867200  0.96786300  1
  Ga  Ga56  1  0.87228600  0.06867200  0.46786300  1
  Ga  Ga57  1  0.37228500  0.43132800  0.03213700  1
  Ga  Ga58  1  0.87228600  0.43132800  0.46786300  1
  Ga  Ga59  1  0.12771500  0.56867200  0.53213700  1
  Ru  Ru0  1  0.11725700  0.00209000  0.39027200  1
  Ru  Ru1  1  0.88274300  0.99791000  0.60972800  1
  Ru  Ru2  1  0.38274300  0.99791000  0.89027200  1
  Ru  Ru3  1  0.88274300  0.50209000  0.60972800  1
  Ru  Ru4  1  0.61725700  0.00209000  0.10972800  1
  Ru  Ru5  1  0.11725700  0.49791000  0.39027200  1
  Ru  Ru6  1  0.61725700  0.49791000  0.10972800  1
  Ru  Ru7  1  0.38274300  0.50209000  0.89027200  1
  Ru  Ru8  1  0.12999900  0.00308400  0.11389600  1
  Ru  Ru9  1  0.87000100  0.99691600  0.88610400  1
  Ru  Ru10  1  0.37000100  0.99691600  0.61389600  1
  Ru  Ru11  1  0.87000100  0.50308400  0.88610400  1
  Ru  Ru12  1  0.62999900  0.00308400  0.38610400  1
  Ru  Ru13  1  0.12999900  0.49691600  0.11389600  1
  Ru  Ru14  1  0.62999900  0.49691600  0.38610400  1
  Ru  Ru15  1  0.37000100  0.50308400  0.61389600  1
loop_
_geom_bond_atom_site_label_1
_geom_bond_atom_site_label_2
_geom_bond_distance
_geom_bond_site_symmetry_2
Ga0 Ru0 2.540714 1_555
Ga0 Ru8 2.561966 1_555
Ga0 Ga8 2.599524 1_555
Ga0 Y6 3.038083 1_545
Ga0 Y3 3.216652 1_455
Ga0 Y0 3.224984 1_555
Ga1 Ru1 2.540714 1_555
Ga1 Ru9 2.561966 1_555
Ga1 Ga9 2.599524 1_555
Ga1 Y7 3.038083 1_565
Ga1 Y2 3.216652 1_655
Ga1 Y1 3.224984 1_555
Ga2 Ru2 2.540714 1_555
Ga2 Ru10 2.561966 1_555
Ga2 Y4 3.038083 1_565
Ga2 Y1 3.216652 1_555
Ga2 Y2 3.224984 1_555
Ga3 Ru3 2.540714 1_555
Ga3 Ru11 2.561966 1_555
Ga3 Ga9 2.599524 1_555
Ga3 Y7 3.038083 1_555
Ga3 Y2 3.216652 1_655
Ga3 Y1 3.224984 1_555
Ga4 Ru4 2.540714 1_555
Ga4 Ru12 2.561966 1_555
Ga4 Y5 3.038083 1_545
Ga4 Y0 3.216652 1_555
Ga4 Y3 3.224984 1_555
Ga5 Ru5 2.540714 1_555
Ga5 Ru13 2.561966 1_555
Ga5 Ga8 2.599524 1_555
Ga5 Y6 3.038083 1_555
Ga5 Y3 3.216652 1_455
Ga5 Y0 3.224984 1_555
Ga6 Ru6 2.540714 1_555
Ga6 Ru14 2.561966 1_555
Ga6 Y5 3.038083 1_555
Ga6 Y0 3.216652 1_555
Ga6 Y3 3.224984 1_555
Ga7 Ru7 2.540714 1_555
Ga7 Ru15 2.561966 1_555
Ga7 Y4 3.038083 1_555
Ga7 Y1 3.216652 1_555
Ga7 Y2 3.224984 1_555
Ga8 Ru13 2.817221 1_555
Ga8 Ru8 2.817221 1_555
Ga8 Y3 3.148423 1_455
Ga8 Y0 3.238077 1_555
Ga9 Ru9 2.817221 1_555
Ga9 Ru11 2.817221 1_555
Ga9 Y2 3.148423 1_655
Ga9 Y1 3.238077 1_555
Ga10 Ga14 2.531859 1_555
Ga10 Ga25 2.582727 1_555
Ga10 Ga2 2.599524 1_555
Ga10 Ga7 2.599524 1_555
Ga10 Ru10 2.817221 1_555
Ga10 Ru15 2.817221 1_555
Ga10 Y1 3.148423 1_555
Ga10 Y2 3.238077 1_555
Ga11 Ga15 2.531859 1_555
Ga11 Ga24 2.582727 1_555
Ga11 Ga6 2.599524 1_555
Ga11 Ga4 2.599524 1_555
Ga11 Ru14 2.817221 1_555
Ga11 Ru12 2.817221 1_555
Ga11 Y0 3.148423 1_555
Ga11 Y3 3.238077 1_555
Ga12 Ga8 2.531855 1_555
Ga12 Ga47 2.690781 1_454
Ga12 Ga48 2.696855 1_554
Ga12 Ru13 2.726879 1_555
Ga12 Ru8 2.726879 1_555
Ga12 Ga52 2.756419 1_555
Ga12 Ga57 2.756419 1_555
Ga12 Ga42 2.909453 1_455
Ga12 Ga40 2.909453 1_455
Ga12 Y0 3.107952 1_555
Ga13 Ga9 2.531859 1_555
Ga13 Ga46 2.690786 1_656
Ga13 Ga49 2.696850 1_556
Ga13 Ru9 2.726879 1_555
Ga13 Ru11 2.726879 1_555
Ga13 Ga53 2.756419 1_555
Ga13 Ga55 2.756419 1_555
Ga13 Ga38 2.909459 1_655
Ga13 Ga43 2.909459 1_655
Ga13 Y1 3.107946 1_555
Ga14 Ga45 2.690786 1_555
Ga14 Ga50 2.696850 1_555
Ga14 Ru10 2.726879 1_555
Ga14 Ru15 2.726879 1_555
Ga14 Ga54 2.756412 1_555
Ga14 Ga59 2.756412 1_555
Ga14 Ga37 2.909459 1_555
Ga14 Ga39 2.909459 1_555
Ga14 Y2 3.107946 1_555
Ga15 Ga44 2.690786 1_555
Ga15 Ga51 2.696850 1_555
Ga15 Ru14 2.726879 1_555
Ga15 Ru12 2.726879 1_555
Ga15 Ga56 2.756419 1_555
Ga15 Ga58 2.756419 1_555
Ga15 Ga41 2.909459 1_555
Ga15 Ga36 2.909459 1_555
Ga15 Y3 3.107946 1_555
Ga16 Ru14 2.572987 1_555
Ga16 Ru5 2.605658 1_555
Ga16 Ga41 2.742853 1_555
Ga16 Ga50 2.765213 1_555
Ga16 Ga45 2.793720 1_555
Ga16 Y5 3.142234 1_555
Ga16 Y6 3.158409 1_555
Ga17 Ru15 2.572987 1_555
Ga17 Ru3 2.605658 1_555
Ga17 Ga39 2.742853 1_555
Ga17 Ga51 2.765213 1_555
Ga17 Ga44 2.793720 1_555
Ga17 Y4 3.142234 1_555
Ga17 Y7 3.158409 1_555
Ga18 Ru11 2.572987 1_455
Ga18 Ru7 2.605658 1_555
Ga18 Ga43 2.742853 1_555
Ga18 Ga48 2.765213 1_555
Ga18 Ga47 2.793720 1_455
Ga18 Y7 3.142234 1_455
Ga18 Y4 3.158409 1_555
Ga19 Ru10 2.572987 1_545
Ga19 Ru1 2.605658 1_545
Ga19 Ga37 2.742853 1_545
Ga19 Ga51 2.765213 1_555
Ga19 Ga44 2.793720 1_555
Ga19 Y4 3.142234 1_555
Ga19 Y7 3.158409 1_555
Ga20 Ru13 2.572987 1_655
Ga20 Ru6 2.605658 1_555
Ga20 Ga42 2.742853 1_555
Ga20 Ga49 2.765213 1_555
Ga20 Ga46 2.793720 1_655
Ga20 Y6 3.142234 1_655
Ga20 Y5 3.158409 1_555
Ga21 Ru12 2.572987 1_565
Ga21 Ru0 2.605658 1_565
Ga21 Ga36 2.742853 1_565
Ga21 Ga50 2.765213 1_555
Ga21 Ga45 2.793720 1_555
Ga21 Y5 3.142234 1_555
Ga21 Y6 3.158409 1_555
Ga22 Ru8 2.572987 1_665
Ga22 Ru4 2.605658 1_565
Ga22 Ga40 2.742853 1_565
Ga22 Ga49 2.765213 1_555
Ga22 Ga46 2.793720 1_655
Ga22 Y6 3.142234 1_655
Ga22 Y5 3.158409 1_555
Ga23 Ru9 2.572987 1_445
Ga23 Ru2 2.605658 1_545
Ga23 Ga38 2.742853 1_545
Ga23 Ga48 2.765213 1_555
Ga23 Ga47 2.793720 1_455
Ga23 Y7 3.142234 1_455
Ga23 Y4 3.158409 1_555
Ga24 Ru0 2.639655 1_555
Ga24 Ru5 2.639655 1_555
Ga24 Ga41 3.011738 1_555
Ga24 Ga36 3.011738 1_555
Ga24 Y8 3.063688 1_555
Ga24 Y3 3.089254 1_455
Ga25 Ru3 2.639655 1_555
Ga25 Ru1 2.639655 1_555
Ga25 Ga37 3.011738 1_555
Ga25 Ga39 3.011738 1_555
Ga25 Y9 3.063688 1_555
Ga25 Y2 3.089254 1_655
Ga26 Ga9 2.582727 1_455
Ga26 Ru7 2.639655 1_555
Ga26 Ru2 2.639655 1_555
Ga26 Ga43 3.011738 1_555
Ga26 Ga38 3.011738 1_555
Ga26 Y10 3.063688 1_556
Ga26 Y1 3.089254 1_555
Ga27 Ga8 2.582727 1_655
Ga27 Ru4 2.639655 1_555
Ga27 Ru6 2.639655 1_555
Ga27 Ga42 3.011738 1_555
Ga27 Ga40 3.011738 1_555
Ga27 Y11 3.063688 1_554
Ga27 Y0 3.089254 1_555
Ga28 Ru1 2.543645 1_445
Ga28 Ru10 2.554416 1_545
Ga28 Ga54 2.917400 1_545
Ga28 Y4 3.060355 1_555
Ga28 Y7 3.083061 1_455
Ga28 Y8 3.108567 1_555
Ga28 Y2 3.268638 1_545
Ga29 Ru0 2.543645 1_665
Ga29 Ru12 2.554416 1_565
Ga29 Ga56 2.917400 1_565
Ga29 Y5 3.060355 1_555
Ga29 Y6 3.083061 1_655
Ga29 Y9 3.108567 1_555
Ga29 Y3 3.268638 1_565
Ga30 Ru4 2.543645 1_565
Ga30 Ru8 2.554416 1_565
Ga30 Ga52 2.917400 1_565
Ga30 Y6 3.060355 1_555
Ga30 Y5 3.083061 1_555
Ga30 Y10 3.108567 1_555
Ga30 Y0 3.268638 1_565
Ga31 Ru5 2.543645 1_655
Ga31 Ru14 2.554416 1_555
Ga31 Ga58 2.917400 1_555
Ga31 Y5 3.060355 1_555
Ga31 Y6 3.083061 1_655
Ga31 Y9 3.108567 1_555
Ga31 Y3 3.268638 1_555
Ga32 Ru2 2.543645 1_545
Ga32 Ru9 2.554416 1_545
Ga32 Ga53 2.917400 1_545
Ga32 Y7 3.060355 1_555
Ga32 Y4 3.083061 1_555
Ga32 Y11 3.108567 1_555
Ga32 Y1 3.268638 1_545
Ga33 Ru3 2.543645 1_455
Ga33 Ru15 2.554416 1_555
Ga33 Ga59 2.917400 1_555
Ga33 Y4 3.060355 1_555
Ga33 Y7 3.083061 1_455
Ga33 Y8 3.108567 1_555
Ga33 Y2 3.268638 1_555
Ga34 Ru7 2.543645 1_555
Ga34 Ru11 2.554416 1_555
Ga34 Ga55 2.917400 1_555
Ga34 Y7 3.060355 1_555
Ga34 Y4 3.083061 1_555
Ga34 Y11 3.108567 1_555
Ga34 Y1 3.268638 1_555
Ga35 Ru6 2.543645 1_555
Ga35 Ru13 2.554416 1_555
Ga35 Ga57 2.917400 1_555
Ga35 Y6 3.060355 1_555
Ga35 Y5 3.083061 1_555
Ga35 Y10 3.108567 1_555
Ga35 Y0 3.268638 1_555
Ga36 Ru12 2.697512 1_555
Ga36 Ga37 2.726836 1_545
Ga36 Ru10 2.731102 1_545
Ga36 Ru0 2.739588 1_555
Ga36 Ga44 2.802068 1_555
Ga36 Ga54 2.811774 1_545
Ga36 Y8 3.075730 1_555
Ga37 Ru10 2.697512 1_555
Ga37 Ru12 2.731102 1_565
Ga37 Ru1 2.739588 1_555
Ga37 Ga45 2.802068 1_555
Ga37 Ga56 2.811781 1_565
Ga37 Y9 3.075730 1_555
Ga38 Ru9 2.697512 1_455
Ga38 Ga40 2.726836 1_466
Ga38 Ru8 2.731102 1_566
Ga38 Ru2 2.739588 1_555
Ga38 Ga46 2.802068 1_556
Ga38 Ga52 2.811774 1_566
Ga38 Y10 3.075730 1_556
Ga39 Ru15 2.697512 1_555
Ga39 Ga41 2.726836 1_555
Ga39 Ru14 2.731102 1_555
Ga39 Ru3 2.739588 1_555
Ga39 Ga45 2.802068 1_555
Ga39 Ga58 2.811781 1_555
Ga39 Y9 3.075730 1_555
Ga40 Ru8 2.697512 1_655
Ga40 Ru9 2.731102 1_544
Ga40 Ru4 2.739588 1_555
Ga40 Ga47 2.802068 1_554
Ga40 Ga53 2.811781 1_544
Ga40 Y11 3.075730 1_554
Ga41 Ru14 2.697512 1_555
Ga41 Ru15 2.731102 1_555
Ga41 Ru5 2.739588 1_555
Ga41 Ga44 2.802068 1_555
Ga41 Ga59 2.811774 1_555
Ga41 Y8 3.075730 1_555
Ga42 Ru13 2.697512 1_655
Ga42 Ga43 2.726836 1_654
Ga42 Ru11 2.731102 1_554
Ga42 Ru6 2.739588 1_555
Ga42 Ga47 2.802068 1_554
Ga42 Ga55 2.811781 1_554
Ga42 Y11 3.075730 1_554
Ga43 Ru11 2.697512 1_455
Ga43 Ru13 2.731102 1_556
Ga43 Ru7 2.739588 1_555
Ga43 Ga46 2.802068 1_556
Ga43 Ga57 2.811774 1_556
Ga43 Y10 3.075730 1_556
Ga44 Ru15 2.648647 1_555
Ga44 Ru10 2.648647 1_545
Ga44 Y8 3.036720 1_555
Ga44 Y4 3.136464 1_555
Ga45 Ru12 2.648647 1_565
Ga45 Ru14 2.648647 1_555
Ga45 Y9 3.036720 1_555
Ga45 Y5 3.136464 1_555
Ga46 Ru8 2.648647 1_565
Ga46 Ru13 2.648647 1_555
Ga46 Y10 3.036720 1_555
Ga46 Y6 3.136464 1_555
Ga47 Ru11 2.648647 1_555
Ga47 Ru9 2.648647 1_545
Ga47 Y11 3.036720 1_555
Ga47 Y7 3.136464 1_555
Ga48 Ru2 2.600328 1_545
Ga48 Ru7 2.600328 1_555
Ga48 Ga52 2.775214 1_556
Ga48 Ga57 2.775214 1_556
Ga48 Y11 3.030203 1_555
Ga48 Y4 3.117485 1_555
Ga49 Ru4 2.600328 1_565
Ga49 Ru6 2.600328 1_555
Ga49 Ga53 2.775216 1_554
Ga49 Ga55 2.775216 1_554
Ga49 Y10 3.030203 1_555
Ga49 Y5 3.117485 1_555
Ga50 Ru0 2.600328 1_565
Ga50 Ru5 2.600328 1_555
Ga50 Ga54 2.775214 1_555
Ga50 Ga59 2.775214 1_555
Ga50 Y9 3.030203 1_455
Ga50 Y6 3.117485 1_555
Ga51 Ru1 2.600328 1_545
Ga51 Ru3 2.600328 1_555
Ga51 Ga58 2.775216 1_555
Ga51 Ga56 2.775216 1_555
Ga51 Y8 3.030203 1_655
Ga51 Y7 3.117485 1_555
Ga52 Ru2 2.643680 1_544
Ga52 Ru4 2.652416 1_555
Ga52 Ru8 2.671276 1_555
Ga52 Ga53 2.863707 1_544
Ga52 Y11 3.015829 1_554
Ga52 Y0 3.021779 1_555
Ga52 Y10 3.108365 1_545
Ga53 Ru4 2.643680 1_566
Ga53 Ru2 2.652409 1_555
Ga53 Ru9 2.671283 1_555
Ga53 Y10 3.015822 1_556
Ga53 Y1 3.021779 1_555
Ga53 Y11 3.108365 1_565
Ga54 Ru0 2.643680 1_565
Ga54 Ru1 2.652416 1_455
Ga54 Ru10 2.671276 1_555
Ga54 Ga56 2.863707 1_465
Ga54 Y9 3.015829 1_455
Ga54 Y2 3.021779 1_555
Ga54 Y8 3.108365 1_565
Ga55 Ru6 2.643680 1_556
Ga55 Ru7 2.652409 1_555
Ga55 Ru11 2.671283 1_555
Ga55 Ga57 2.863707 1_556
Ga55 Y10 3.015822 1_556
Ga55 Y1 3.021779 1_555
Ga55 Y11 3.108365 1_555
Ga56 Ru1 2.643680 1_545
Ga56 Ru0 2.652409 1_655
Ga56 Ru12 2.671283 1_555
Ga56 Y8 3.015822 1_655
Ga56 Y3 3.021779 1_555
Ga56 Y9 3.108365 1_545
Ga57 Ru7 2.643680 1_554
Ga57 Ru6 2.652416 1_555
Ga57 Ru13 2.671276 1_555
Ga57 Y11 3.015829 1_554
Ga57 Y0 3.021779 1_555
Ga57 Y10 3.108365 1_555
Ga58 Ru3 2.643680 1_555
Ga58 Ru5 2.652409 1_655
Ga58 Ru14 2.671283 1_555
Ga58 Ga59 2.863707 1_655
Ga58 Y8 3.015822 1_655
Ga58 Y3 3.021779 1_555
Ga58 Y9 3.108365 1_555
Ga59 Ru5 2.643680 1_555
Ga59 Ru3 2.652416 1_455
Ga59 Ru15 2.671276 1_555
Ga59 Y9 3.015829 1_455
Ga59 Y2 3.021779 1_555
Ga59 Y8 3.108365 1_555
Ru0 Y3 3.396678 1_455
Ru1 Y2 3.396678 1_655
Ru2 Y1 3.396678 1_555
Ru3 Y2 3.396678 1_655
Ru4 Y0 3.396678 1_555
Ru5 Y3 3.396678 1_455
Ru6 Y0 3.396678 1_555
Ru7 Y1 3.396678 1_555
Ru8 Y0 3.375536 1_555
Ru9 Y1 3.375536 1_555
Ru10 Y2 3.375536 1_555
Ru11 Y1 3.375536 1_555
Ru12 Y3 3.375536 1_555
Ru13 Y0 3.375536 1_555
Ru14 Y3 3.375536 1_555
Ru15 Y2 3.375536 1_555
