# generated using pymatgen
data_Ag3Cl
_symmetry_space_group_name_H-M   'P 1'
_cell_length_a   6.27020268
_cell_length_b   6.27020268
_cell_length_c   4.77309800
_cell_angle_alpha   90.00000000
_cell_angle_beta   90.00000000
_cell_angle_gamma   120.00000714
_symmetry_Int_Tables_number   1
_chemical_formula_structural   Ag3Cl
_chemical_formula_sum   'Ag6 Cl2'
_cell_volume   162.51524612
_cell_formula_units_Z   2
loop_
 _symmetry_equiv_pos_site_id
 _symmetry_equiv_pos_as_xyz
  1  'x, y, z'
loop_
 _atom_site_type_symbol
 _atom_site_label
 _atom_site_symmetry_multiplicity
 _atom_site_fract_x
 _atom_site_fract_y
 _atom_site_fract_z
 _atom_site_occupancy
  Ag  Ag0  1  0.15470700  0.30941300  0.25000000  1
  Ag  Ag1  1  0.69058700  0.84529300  0.25000000  1
  Ag  Ag2  1  0.15470700  0.84529300  0.25000000  1
  Ag  Ag3  1  0.84529300  0.69058700  0.75000000  1
  Ag  Ag4  1  0.30941300  0.15470700  0.75000000  1
  Ag  Ag5  1  0.84529300  0.15470700  0.75000000  1
  Cl  Cl0  1  0.33333300  0.66666700  0.75000000  1
  Cl  Cl1  1  0.66666700  0.33333300  0.25000000  1
loop_
_geom_bond_atom_site_label_1
_geom_bond_atom_site_label_2
_geom_bond_distance
_geom_bond_site_symmetry_2
Ag0 Ag1 2.910126 1_445
Ag0 Ag2 2.910126 1_545
Ag0 Ag4 2.918653 1_555
Ag0 Ag4 2.918653 1_554
Ag0 Ag5 2.918659 1_455
Ag0 Ag5 2.918659 1_454
Ag0 Cl0 3.075549 1_554
Ag0 Cl0 3.075549 1_555
Ag0 Cl1 3.137791 1_555
Ag0 Cl1 3.137791 1_455
Ag0 Ag1 3.360076 1_555
Ag0 Ag2 3.360076 1_555
Ag1 Ag2 2.910126 1_655
Ag1 Ag3 2.918653 1_555
Ag1 Ag3 2.918653 1_554
Ag1 Ag5 2.918659 1_565
Ag1 Ag5 2.918659 1_564
Ag1 Cl0 3.075549 1_554
Ag1 Cl0 3.075549 1_555
Ag1 Cl1 3.137791 1_555
Ag1 Cl1 3.137791 1_565
Ag1 Ag2 3.360076 1_555
Ag2 Ag4 2.918659 1_565
Ag2 Ag3 2.918659 1_455
Ag2 Ag4 2.918659 1_564
Ag2 Ag3 2.918659 1_454
Ag2 Cl0 3.075542 1_554
Ag2 Cl0 3.075542 1_555
Ag2 Cl1 3.137791 1_455
Ag2 Cl1 3.137791 1_565
Ag3 Ag4 2.910126 1_665
Ag3 Ag5 2.910126 1_565
Ag3 Cl1 3.075549 1_556
Ag3 Cl1 3.075549 1_555
Ag3 Cl0 3.137791 1_555
Ag3 Cl0 3.137791 1_655
Ag3 Ag4 3.360076 1_555
Ag3 Ag5 3.360076 1_555
Ag4 Ag5 2.910126 1_455
Ag4 Cl1 3.075549 1_556
Ag4 Cl1 3.075549 1_555
Ag4 Cl0 3.137791 1_555
Ag4 Cl0 3.137791 1_545
Ag4 Ag5 3.360076 1_555
Ag5 Cl1 3.075542 1_556
Ag5 Cl1 3.075542 1_555
Ag5 Cl0 3.137791 1_545
Ag5 Cl0 3.137791 1_655
