# generated using pymatgen
data_Bi2PdPt
_symmetry_space_group_name_H-M   'P 1'
_cell_length_a   4.32899215
_cell_length_b   4.32899215
_cell_length_c   5.62591465
_cell_angle_alpha   90.00000000
_cell_angle_beta   90.00000000
_cell_angle_gamma   119.99998643
_symmetry_Int_Tables_number   1
_chemical_formula_structural   Bi2PdPt
_chemical_formula_sum   'Bi2 Pd1 Pt1'
_cell_volume   91.30560265
_cell_formula_units_Z   1
loop_
 _symmetry_equiv_pos_site_id
 _symmetry_equiv_pos_as_xyz
  1  'x, y, z'
loop_
 _atom_site_type_symbol
 _atom_site_label
 _atom_site_symmetry_multiplicity
 _atom_site_fract_x
 _atom_site_fract_y
 _atom_site_fract_z
 _atom_site_occupancy
  Bi  Bi0  1  0.33333300  0.66666700  0.24488112  1
  Bi  Bi1  1  0.66666700  0.33333300  0.75511888  1
  Pd  Pd0  1  -0.00000000  0.00000000  0.50000000  1
  Pt  Pt0  1  -0.00000000  0.00000000  0.00000000  1
loop_
_geom_bond_atom_site_label_1
_geom_bond_atom_site_label_2
_geom_bond_distance
_geom_bond_site_symmetry_2
Bi0 Pt0 2.853895 1_565
Bi0 Pt0 2.853898 1_665
Bi0 Pt0 2.853898 1_555
Bi0 Pd0 2.882140 1_565
Bi0 Pd0 2.882144 1_555
Bi0 Pd0 2.882144 1_665
Bi1 Pt0 2.853895 1_656
Bi1 Pt0 2.853898 1_556
Bi1 Pt0 2.853898 1_666
Bi1 Pd0 2.882140 1_655
Bi1 Pd0 2.882144 1_555
Bi1 Pd0 2.882144 1_665
Pd0 Pt0 2.812957 1_555
Pd0 Pt0 2.812957 1_556
