# generated using pymatgen
data_Sc3(NbSi2)2
_symmetry_space_group_name_H-M   'P 1'
_cell_length_a   6.73998400
_cell_length_b   6.98747800
_cell_length_c   13.16658100
_cell_angle_alpha   90.00000000
_cell_angle_beta   90.00000000
_cell_angle_gamma   90.00000000
_symmetry_Int_Tables_number   1
_chemical_formula_structural   Sc3(NbSi2)2
_chemical_formula_sum   'Sc12 Nb8 Si16'
_cell_volume   620.08658277
_cell_formula_units_Z   4
loop_
 _symmetry_equiv_pos_site_id
 _symmetry_equiv_pos_as_xyz
  1  'x, y, z'
loop_
 _atom_site_type_symbol
 _atom_site_label
 _atom_site_symmetry_multiplicity
 _atom_site_fract_x
 _atom_site_fract_y
 _atom_site_fract_z
 _atom_site_occupancy
  Sc  Sc0  1  0.15840800  0.50577400  0.75000000  1
  Sc  Sc1  1  0.84159200  0.49422600  0.25000000  1
  Sc  Sc2  1  0.34159200  0.00577400  0.25000000  1
  Sc  Sc3  1  0.65840800  0.99422600  0.75000000  1
  Sc  Sc4  1  0.33736300  0.17397700  0.62527100  1
  Sc  Sc5  1  0.66263700  0.82602300  0.37472900  1
  Sc  Sc6  1  0.16263700  0.67397700  0.37472900  1
  Sc  Sc7  1  0.66263700  0.82602300  0.12527100  1
  Sc  Sc8  1  0.83736300  0.32602300  0.62527100  1
  Sc  Sc9  1  0.33736300  0.17397700  0.87472900  1
  Sc  Sc10  1  0.83736300  0.32602300  0.87472900  1
  Sc  Sc11  1  0.16263700  0.67397700  0.12527100  1
  Nb  Nb0  1  0.00530600  0.18027100  0.09714100  1
  Nb  Nb1  1  0.99469400  0.81972900  0.90285900  1
  Nb  Nb2  1  0.49469400  0.68027100  0.90285900  1
  Nb  Nb3  1  0.99469400  0.81972900  0.59714100  1
  Nb  Nb4  1  0.50530600  0.31972900  0.09714100  1
  Nb  Nb5  1  0.00530600  0.18027100  0.40285900  1
  Nb  Nb6  1  0.50530600  0.31972900  0.40285900  1
  Nb  Nb7  1  0.49469400  0.68027100  0.59714100  1
  Si  Si0  1  0.03295400  0.09277900  0.75000000  1
  Si  Si1  1  0.96704600  0.90722100  0.25000000  1
  Si  Si2  1  0.46704600  0.59277900  0.25000000  1
  Si  Si3  1  0.53295400  0.40722100  0.75000000  1
  Si  Si4  1  0.28836700  0.85889700  0.75000000  1
  Si  Si5  1  0.71163300  0.14110300  0.25000000  1
  Si  Si6  1  0.21163300  0.35889700  0.25000000  1
  Si  Si7  1  0.78836700  0.64110300  0.75000000  1
  Si  Si8  1  0.17441000  0.46670100  0.53756300  1
  Si  Si9  1  0.82559000  0.53329900  0.46243700  1
  Si  Si10  1  0.32559000  0.96670100  0.46243700  1
  Si  Si11  1  0.82559000  0.53329900  0.03756300  1
  Si  Si12  1  0.67441000  0.03329900  0.53756300  1
  Si  Si13  1  0.17441000  0.46670100  0.96243700  1
  Si  Si14  1  0.67441000  0.03329900  0.96243700  1
  Si  Si15  1  0.32559000  0.96670100  0.03756300  1
loop_
_geom_bond_atom_site_label_1
_geom_bond_atom_site_label_2
_geom_bond_distance
_geom_bond_site_symmetry_2
Sc0 Si3 2.616675 1_555
Sc0 Si4 2.618300 1_555
Sc0 Si7 2.667314 1_455
Sc0 Si13 2.812431 1_555
Sc0 Si8 2.812431 1_555
Sc0 Si0 3.007120 1_555
Sc1 Si2 2.616675 1_555
Sc1 Si5 2.618300 1_555
Sc1 Si6 2.667314 1_655
Sc1 Si11 2.812431 1_555
Sc1 Si9 2.812431 1_555
Sc1 Si1 3.007120 1_555
Sc2 Si1 2.616675 1_445
Sc2 Si6 2.618300 1_555
Sc2 Si5 2.667314 1_555
Sc2 Si10 2.812431 1_545
Sc2 Si15 2.812431 1_545
Sc2 Si2 3.007120 1_545
Sc3 Si0 2.616675 1_665
Sc3 Si7 2.618300 1_555
Sc3 Si4 2.667314 1_555
Sc3 Si14 2.812431 1_565
Sc3 Si12 2.812431 1_565
Sc3 Si3 3.007120 1_565
Sc4 Si10 2.588546 1_545
Sc4 Si8 2.592977 1_555
Sc4 Si3 2.662906 1_555
Sc4 Si0 2.688574 1_555
Sc4 Si12 2.731380 1_555
Sc4 Si4 2.766434 1_545
Sc5 Si12 2.588546 1_565
Sc5 Si9 2.592977 1_555
Sc5 Si2 2.662906 1_555
Sc5 Si1 2.688574 1_555
Sc5 Si10 2.731380 1_555
Sc5 Si5 2.766434 1_565
Sc6 Si8 2.588546 1_555
Sc6 Si10 2.592977 1_555
Sc6 Si1 2.662906 1_455
Sc6 Si2 2.688574 1_555
Sc6 Si9 2.731380 1_455
Sc6 Si6 2.766434 1_555
Sc7 Si14 2.588546 1_564
Sc7 Si11 2.592977 1_555
Sc7 Si2 2.662906 1_555
Sc7 Si1 2.688574 1_555
Sc7 Si15 2.731380 1_555
Sc7 Si5 2.766434 1_565
Sc8 Si9 2.588546 1_555
Sc8 Si12 2.592977 1_555
Sc8 Si0 2.662906 1_655
Sc8 Si3 2.688574 1_555
Sc8 Si8 2.731380 1_655
Sc8 Si7 2.766434 1_555
Sc9 Si15 2.588546 1_546
Sc9 Si13 2.592977 1_555
Sc9 Si3 2.662906 1_555
Sc9 Si0 2.688574 1_555
Sc9 Si14 2.731380 1_555
Sc9 Si4 2.766434 1_545
Sc10 Si11 2.588546 1_556
Sc10 Si14 2.592977 1_555
Sc10 Si0 2.662906 1_655
Sc10 Si3 2.688574 1_555
Sc10 Si13 2.731380 1_655
Sc10 Si7 2.766434 1_555
Sc11 Si13 2.588546 1_554
Sc11 Si15 2.592977 1_555
Sc11 Si1 2.662906 1_455
Sc11 Si2 2.688574 1_555
Sc11 Si11 2.731380 1_455
Sc11 Si6 2.766434 1_555
Nb0 Si15 2.739046 1_545
Nb0 Si6 2.746348 1_555
Nb0 Si1 2.785207 1_445
Nb0 Si5 2.836092 1_455
Nb0 Si11 2.857889 1_455
Nb0 Si13 2.906952 1_554
Nb0 Si14 3.028898 1_454
Nb1 Si14 2.739046 1_565
Nb1 Si7 2.746348 1_555
Nb1 Si0 2.785207 1_665
Nb1 Si4 2.836092 1_655
Nb1 Si13 2.857889 1_655
Nb1 Si11 2.906952 1_556
Nb1 Si15 3.028898 1_656
Nb2 Si13 2.739046 1_555
Nb2 Si4 2.746348 1_555
Nb2 Si3 2.785207 1_555
Nb2 Si7 2.836092 1_555
Nb2 Si14 2.857889 1_565
Nb2 Si15 2.906952 1_556
Nb2 Si11 3.028898 1_556
Nb3 Si12 2.739046 1_565
Nb3 Si7 2.746348 1_555
Nb3 Si0 2.785207 1_665
Nb3 Si4 2.836092 1_655
Nb3 Si8 2.857889 1_655
Nb3 Si9 2.906952 1_555
Nb3 Si10 3.028898 1_655
Nb4 Si11 2.739046 1_555
Nb4 Si5 2.746348 1_555
Nb4 Si2 2.785207 1_555
Nb4 Si6 2.836092 1_555
Nb4 Si15 2.857889 1_545
Nb4 Si14 2.906952 1_554
Nb4 Si13 3.028898 1_554
Nb5 Si10 2.739046 1_545
Nb5 Si6 2.746348 1_555
Nb5 Si1 2.785207 1_445
Nb5 Si5 2.836092 1_455
Nb5 Si9 2.857889 1_455
Nb5 Si8 2.906952 1_555
Nb5 Si12 3.028898 1_455
Nb6 Si9 2.739046 1_555
Nb6 Si5 2.746348 1_555
Nb6 Si2 2.785207 1_555
Nb6 Si6 2.836092 1_555
Nb6 Si10 2.857889 1_545
Nb6 Si12 2.906952 1_555
Nb6 Si8 3.028898 1_555
Nb7 Si8 2.739046 1_555
Nb7 Si4 2.746348 1_555
Nb7 Si3 2.785207 1_555
Nb7 Si7 2.836092 1_555
Nb7 Si12 2.857889 1_565
Nb7 Si10 2.906952 1_555
Nb7 Si9 3.028898 1_555
Si0 Si4 2.373657 1_545
Si1 Si5 2.373657 1_565
Si2 Si6 2.373657 1_555
Si3 Si7 2.373657 1_555
Si8 Si9 2.592753 1_455
Si10 Si12 2.592753 1_565
Si11 Si13 2.592753 1_654
Si14 Si15 2.592753 1_546
