# generated using pymatgen
data_Na14Mg9(P2O7)8
_symmetry_space_group_name_H-M   'P 1'
_cell_length_a   9.85018100
_cell_length_b   11.03022392
_cell_length_c   12.93444365
_cell_angle_alpha   66.10424921
_cell_angle_beta   67.86207000
_cell_angle_gamma   72.36806625
_symmetry_Int_Tables_number   1
_chemical_formula_structural   Na14Mg9(P2O7)8
_chemical_formula_sum   'Na14 Mg9 P16 O56'
_cell_volume   1171.26228467
_cell_formula_units_Z   1
loop_
 _symmetry_equiv_pos_site_id
 _symmetry_equiv_pos_as_xyz
  1  'x, y, z'
loop_
 _atom_site_type_symbol
 _atom_site_label
 _atom_site_symmetry_multiplicity
 _atom_site_fract_x
 _atom_site_fract_y
 _atom_site_fract_z
 _atom_site_occupancy
  Na  Na0  1  0.87392000  0.87951500  0.60275400  1
  Na  Na1  1  0.37499100  0.89204900  0.08418900  1
  Na  Na2  1  0.12608000  0.12048500  0.39724600  1
  Na  Na3  1  0.62500900  0.10795100  0.91581100  1
  Na  Na4  1  0.04146800  0.65084200  0.94203400  1
  Na  Na5  1  0.53882600  0.65671800  0.44276400  1
  Na  Na6  1  0.95853200  0.34915800  0.05796600  1
  Na  Na7  1  0.46117400  0.34328200  0.55723600  1
  Na  Na8  1  0.12931000  0.52542200  0.66205200  1
  Na  Na9  1  0.63005300  0.52428700  0.16204900  1
  Na  Na10  1  0.87069000  0.47457800  0.33794800  1
  Na  Na11  1  0.36994700  0.47571300  0.83795100  1
  Na  Na12  1  0.65999300  0.96579700  0.39121500  1
  Na  Na13  1  0.34000700  0.03420300  0.60878500  1
  Mg  Mg0  1  0.80711600  0.21725400  0.58227900  1
  Mg  Mg1  1  0.30753400  0.21967800  0.07984400  1
  Mg  Mg2  1  0.19288400  0.78274600  0.41772100  1
  Mg  Mg3  1  0.69246600  0.78032200  0.92015600  1
  Mg  Mg4  1  0.93700800  0.26651400  0.79799800  1
  Mg  Mg5  1  0.44025600  0.26264500  0.29984900  1
  Mg  Mg6  1  0.06299200  0.73348600  0.20200200  1
  Mg  Mg7  1  0.55974400  0.73735500  0.70015100  1
  Mg  Mg8  1  0.00000000  0.00000000  0.00000000  1
  P  P0  1  0.71033700  0.45512400  0.63228300  1
  P  P1  1  0.20998800  0.45810900  0.13010300  1
  P  P2  1  0.28966300  0.54487600  0.36771700  1
  P  P3  1  0.79001200  0.54189100  0.86989700  1
  P  P4  1  0.87264500  0.68662000  0.48955100  1
  P  P5  1  0.36568900  0.69253700  0.98643100  1
  P  P6  1  0.12735500  0.31338000  0.51044900  1
  P  P7  1  0.63431100  0.30746300  0.01356900  1
  P  P8  1  0.76909700  0.21360400  0.34137700  1
  P  P9  1  0.26451900  0.19733000  0.84519900  1
  P  P10  1  0.23090300  0.78639600  0.65862300  1
  P  P11  1  0.73548100  0.80267000  0.15480100  1
  P  P12  1  0.97005300  0.95666900  0.77024800  1
  P  P13  1  0.46348100  0.96500400  0.26317000  1
  P  P14  1  0.02994700  0.04333100  0.22975200  1
  P  P15  1  0.53651900  0.03499600  0.73683000  1
  O  O0  1  0.90346300  0.70376900  0.36049800  1
  O  O1  1  0.39817000  0.69864800  0.86024900  1
  O  O2  1  0.09653700  0.29623100  0.63950200  1
  O  O3  1  0.60183000  0.30135200  0.13975100  1
  O  O4  1  0.80255900  0.35013400  0.25218700  1
  O  O5  1  0.28474800  0.33684300  0.75671400  1
  O  O6  1  0.19744100  0.64986600  0.74781300  1
  O  O7  1  0.71525200  0.66315700  0.24328600  1
  O  O8  1  0.92059400  0.04108200  0.65985400  1
  O  O9  1  0.41732500  0.03806300  0.15021300  1
  O  O10  1  0.07940600  0.95891800  0.34014600  1
  O  O11  1  0.58267500  0.96193700  0.84978700  1
  O  O12  1  0.07830300  0.54706100  0.18912100  1
  O  O13  1  0.58199000  0.54346600  0.69354600  1
  O  O14  1  0.92169700  0.45293900  0.81087900  1
  O  O15  1  0.41801000  0.45653400  0.30645400  1
  O  O16  1  0.14899200  0.90197100  0.72821800  1
  O  O17  1  0.64543500  0.91338900  0.22585400  1
  O  O18  1  0.85100800  0.09802900  0.27178200  1
  O  O19  1  0.35456500  0.08661100  0.77414600  1
  O  O20  1  0.00034900  0.70276300  0.52003900  1
  O  O21  1  0.49417300  0.71046300  0.01544500  1
  O  O22  1  0.99965100  0.29723700  0.47996100  1
  O  O23  1  0.50582700  0.28953700  0.98455500  1
  O  O24  1  0.85101200  0.53191400  0.56798500  1
  O  O25  1  0.34762600  0.53729700  0.06982300  1
  O  O26  1  0.14898800  0.46808600  0.43201500  1
  O  O27  1  0.65237400  0.46270300  0.93017700  1
  O  O28  1  0.72554200  0.77601500  0.53408200  1
  O  O29  1  0.21796300  0.78368000  0.02984000  1
  O  O30  1  0.27445800  0.22398500  0.46591800  1
  O  O31  1  0.78203700  0.21632000  0.97016000  1
  O  O32  1  0.67741900  0.43027900  0.53485400  1
  O  O33  1  0.18133600  0.43276300  0.03084300  1
  O  O34  1  0.32258100  0.56972100  0.46514600  1
  O  O35  1  0.81866400  0.56723700  0.96915700  1
  O  O36  1  0.84027500  0.16364500  0.44145600  1
  O  O37  1  0.33346200  0.15728800  0.94468100  1
  O  O38  1  0.15972500  0.83635500  0.55854400  1
  O  O39  1  0.66653800  0.84271200  0.05531900  1
  O  O40  1  0.95133600  0.04156000  0.84633800  1
  O  O41  1  0.44097300  0.05756800  0.33195400  1
  O  O42  1  0.04866400  0.95844000  0.15366200  1
  O  O43  1  0.55902700  0.94243200  0.66804600  1
  O  O44  1  0.77046900  0.31661700  0.71223700  1
  O  O45  1  0.26795100  0.31952700  0.21095500  1
  O  O46  1  0.22953100  0.68338300  0.28776300  1
  O  O47  1  0.73204900  0.68047300  0.78904500  1
  O  O48  1  0.10214800  0.17008500  0.89440500  1
  O  O49  1  0.60591300  0.19643100  0.38664000  1
  O  O50  1  0.89785200  0.82991500  0.10559500  1
  O  O51  1  0.39408700  0.80356900  0.61336000  1
  O  O52  1  0.89920900  0.83120800  0.83975100  1
  O  O53  1  0.39768200  0.83683800  0.33721100  1
  O  O54  1  0.10079100  0.16879200  0.16024900  1
  O  O55  1  0.60231800  0.16316200  0.66278900  1
loop_
_geom_bond_atom_site_label_1
_geom_bond_atom_site_label_2
_geom_bond_distance
_geom_bond_site_symmetry_2
Na0 O20 2.389838 1_655
Na0 O8 2.398199 1_565
Na0 O38 2.583503 1_655
Na0 O28 2.653140 1_555
Na0 O47 2.759357 1_555
Na0 O43 2.830590 1_555
Na0 O36 2.979813 1_565
Na0 O52 2.985736 1_555
Na1 O9 2.299266 1_565
Na1 O21 2.326411 1_555
Na1 O29 2.633582 1_555
Na1 O39 2.663160 1_555
Na1 O37 2.745392 1_564
Na1 O11 2.891149 1_554
Na1 O46 2.920319 1_555
Na1 O42 2.933626 1_555
Na2 O22 2.389838 1_455
Na2 O10 2.398199 1_545
Na2 O36 2.583503 1_455
Na2 O30 2.653140 1_555
Na2 O45 2.759357 1_555
Na2 O41 2.830590 1_555
Na2 O38 2.979813 1_545
Na2 O54 2.985736 1_555
Na3 O11 2.299266 1_545
Na3 O23 2.326411 1_555
Na3 O31 2.633582 1_555
Na3 O37 2.663160 1_555
Na3 O39 2.745392 1_546
Na3 O9 2.891149 1_556
Na3 O44 2.920319 1_555
Na3 O40 2.933626 1_555
Na4 O52 2.290823 1_455
Na4 O6 2.403001 1_555
Na4 O33 2.439345 1_556
Na4 O35 2.484696 1_455
Na5 O53 2.303007 1_555
Na5 O34 2.467833 1_555
Na5 O7 2.495828 1_555
Na5 O32 2.504102 1_555
Na5 O51 2.941246 1_555
Na6 O54 2.290823 1_655
Na6 O4 2.403001 1_555
Na6 O35 2.439345 1_554
Na6 O33 2.484696 1_655
Na7 O55 2.303007 1_555
Na7 O32 2.467833 1_555
Na7 O5 2.495828 1_555
Na7 O34 2.504102 1_555
Na7 O49 2.941246 1_555
Na8 O14 2.302958 1_455
Na8 O5 2.364386 1_555
Na8 O6 2.432631 1_555
Na8 O20 2.481206 1_555
Na8 O34 2.500126 1_555
Na8 O2 2.782613 1_555
Na9 O15 2.298739 1_555
Na9 O4 2.374436 1_555
Na9 O35 2.446013 1_554
Na9 O21 2.587908 1_555
Na9 O7 2.627167 1_555
Na9 O3 2.693769 1_555
Na10 O12 2.302958 1_655
Na10 O7 2.364386 1_555
Na10 O4 2.432631 1_555
Na10 O22 2.481206 1_555
Na10 O32 2.500126 1_555
Na10 O0 2.782613 1_555
Na11 O13 2.298739 1_555
Na11 O6 2.374436 1_555
Na11 O33 2.446013 1_556
Na11 O23 2.587908 1_555
Na11 O5 2.627167 1_555
Na11 O1 2.693769 1_555
Na12 O28 2.271619 1_555
Na12 O41 2.358234 1_565
Na12 O18 2.387555 1_565
Na12 O49 2.416561 1_565
Na12 O17 2.492483 1_555
Na13 O30 2.271619 1_555
Na13 O43 2.358234 1_545
Na13 O16 2.387555 1_545
Na13 O51 2.416561 1_545
Na13 O19 2.492483 1_555
Mg0 O8 1.995526 1_555
Mg0 O36 2.020218 1_555
Mg0 O55 2.037750 1_555
Mg0 O22 2.074266 1_555
Mg0 O44 2.225443 1_555
Mg0 O32 2.265818 1_555
Mg1 O9 1.990800 1_555
Mg1 O37 2.031484 1_554
Mg1 O54 2.041350 1_555
Mg1 O23 2.062986 1_554
Mg1 O45 2.235077 1_555
Mg1 O33 2.255698 1_555
Mg2 O10 1.995526 1_555
Mg2 O38 2.020218 1_555
Mg2 O53 2.037750 1_555
Mg2 O20 2.074266 1_555
Mg2 O46 2.225443 1_555
Mg2 O34 2.265818 1_555
Mg3 O11 1.990800 1_555
Mg3 O39 2.031484 1_556
Mg3 O52 2.041350 1_555
Mg3 O21 2.062986 1_556
Mg3 O47 2.235077 1_555
Mg3 O35 2.255698 1_555
Mg4 O2 2.029571 1_655
Mg4 O14 2.085583 1_555
Mg4 O31 2.132299 1_555
Mg4 O44 2.133668 1_555
Mg4 O48 2.176779 1_655
Mg4 O40 2.272695 1_555
Mg5 O3 2.053015 1_555
Mg5 O49 2.109649 1_555
Mg5 O15 2.116390 1_555
Mg5 O30 2.121052 1_555
Mg5 O41 2.126234 1_555
Mg5 O45 2.199435 1_555
Mg6 O0 2.029571 1_455
Mg6 O12 2.085583 1_555
Mg6 O29 2.132299 1_555
Mg6 O46 2.133668 1_555
Mg6 O50 2.176779 1_455
Mg6 O42 2.272695 1_555
Mg7 O1 2.053015 1_555
Mg7 O51 2.109649 1_555
Mg7 O13 2.116390 1_555
Mg7 O28 2.121052 1_555
Mg7 O43 2.126234 1_555
Mg7 O47 2.199435 1_555
Mg8 O40 2.058395 1_454
Mg8 O42 2.058395 1_545
Mg8 O48 2.104617 1_554
Mg8 O50 2.104617 1_445
Mg8 O29 2.688267 1_545
Mg8 O31 2.688267 1_454
O0 P4 1.520309 1_555
O1 P5 1.516913 1_555
O2 P6 1.520309 1_555
O3 P7 1.516913 1_555
O4 P8 1.521198 1_555
O5 P9 1.518126 1_555
O6 P10 1.521198 1_555
O7 P11 1.518126 1_555
O8 P12 1.521688 1_545
O9 P13 1.521695 1_545
O10 P14 1.521688 1_565
O11 P15 1.521695 1_565
O12 P1 1.522316 1_555
O13 P0 1.516560 1_555
O14 P3 1.522316 1_555
O15 P2 1.516560 1_555
O16 P12 1.632657 1_455
O16 P10 1.686905 1_555
O17 P13 1.649803 1_555
O17 P11 1.661779 1_555
O18 P14 1.632657 1_655
O18 P8 1.686905 1_555
O19 P15 1.649803 1_555
O19 P9 1.661779 1_555
O20 P4 1.528392 1_455
O21 P5 1.533402 1_554
O22 P6 1.528392 1_655
O23 P7 1.533402 1_556
O24 P0 1.612751 1_555
O24 P4 1.625239 1_555
O25 P1 1.605585 1_555
O25 P5 1.634254 1_554
O26 P2 1.612751 1_555
O26 P6 1.625239 1_555
O27 P3 1.605585 1_555
O27 P7 1.634254 1_556
O28 P4 1.539212 1_555
O29 P5 1.548758 1_554
O30 P6 1.539212 1_555
O31 P7 1.548758 1_556
O32 P0 1.552383 1_555
O33 P1 1.554935 1_555
O34 P2 1.552383 1_555
O35 P3 1.554935 1_555
O36 P8 1.530663 1_555
O37 P9 1.525916 1_555
O38 P10 1.530663 1_555
O39 P11 1.525916 1_555
O40 P12 1.544230 1_545
O41 P13 1.527499 1_545
O42 P14 1.544230 1_565
O43 P15 1.527499 1_565
O44 P0 1.545267 1_555
O45 P1 1.543515 1_555
O46 P2 1.545267 1_555
O47 P3 1.543515 1_555
O48 P9 1.556420 1_555
O49 P8 1.532222 1_555
O50 P11 1.556420 1_555
O51 P10 1.532222 1_555
O52 P12 1.521362 1_555
O53 P13 1.525189 1_555
O54 P14 1.521362 1_555
O55 P15 1.525189 1_555
