# generated using pymatgen
data_BaAlCuMoO5
_symmetry_space_group_name_H-M   'P 1'
_cell_length_a   3.83661900
_cell_length_b   3.83661900
_cell_length_c   8.27455000
_cell_angle_alpha   90.00000000
_cell_angle_beta   90.00000000
_cell_angle_gamma   90.00000000
_symmetry_Int_Tables_number   1
_chemical_formula_structural   BaAlCuMoO5
_chemical_formula_sum   'Ba1 Al1 Cu1 Mo1 O5'
_cell_volume   121.79844144
_cell_formula_units_Z   1
loop_
 _symmetry_equiv_pos_site_id
 _symmetry_equiv_pos_as_xyz
  1  'x, y, z'
loop_
 _atom_site_type_symbol
 _atom_site_label
 _atom_site_symmetry_multiplicity
 _atom_site_fract_x
 _atom_site_fract_y
 _atom_site_fract_z
 _atom_site_occupancy
  Ba  Ba0  1  0.50000000  0.50000000  0.02751500  1
  Al  Al0  1  0.50000000  0.50000000  0.44301200  1
  Cu  Cu0  1  0.00000000  0.00000000  0.28353300  1
  Mo  Mo0  1  0.00000000  0.00000000  0.69019800  1
  O  O0  1  0.50000000  0.00000000  0.60360500  1
  O  O1  1  0.00000000  0.50000000  0.60360500  1
  O  O2  1  0.50000000  0.00000000  0.30086600  1
  O  O3  1  0.00000000  0.50000000  0.30086600  1
  O  O4  1  0.00000000  0.00000000  0.93507300  1
loop_
_geom_bond_atom_site_label_1
_geom_bond_atom_site_label_2
_geom_bond_distance
_geom_bond_site_symmetry_2
Ba0 O4 2.818673 1_654
Ba0 O4 2.818673 1_564
Ba0 O4 2.818673 1_554
Ba0 O4 2.818673 1_664
Ba0 O3 2.965789 1_555
Ba0 O2 2.965789 1_555
Ba0 O2 2.965789 1_565
Ba0 O3 2.965789 1_655
Al0 O3 2.250188 1_555
Al0 O2 2.250188 1_555
Al0 O2 2.250188 1_565
Al0 O3 2.250188 1_655
Al0 O1 2.333605 1_655
Al0 O0 2.333605 1_555
Al0 O1 2.333605 1_555
Al0 O0 2.333605 1_565
Cu0 O3 1.923664 1_555
Cu0 O2 1.923664 1_555
Cu0 O2 1.923664 1_455
Cu0 O3 1.923664 1_545
Mo0 O4 2.026230 1_555
Mo0 O1 2.047757 1_545
Mo0 O0 2.047757 1_455
Mo0 O0 2.047757 1_555
Mo0 O1 2.047757 1_555
