# generated using pymatgen
data_NaZn(PO3)3
_symmetry_space_group_name_H-M   'P 1'
_cell_length_a   14.44226090
_cell_length_b   14.52646049
_cell_length_c   14.46966846
_cell_angle_alpha   90.00000000
_cell_angle_beta   90.00000000
_cell_angle_gamma   90.00000000
_symmetry_Int_Tables_number   1
_chemical_formula_structural   NaZn(PO3)3
_chemical_formula_sum   'Na16 Zn16 P48 O144'
_cell_volume   3035.66311569
_cell_formula_units_Z   16
loop_
 _symmetry_equiv_pos_site_id
 _symmetry_equiv_pos_as_xyz
  1  'x, y, z'
loop_
 _atom_site_type_symbol
 _atom_site_label
 _atom_site_symmetry_multiplicity
 _atom_site_fract_x
 _atom_site_fract_y
 _atom_site_fract_z
 _atom_site_occupancy
  Na  Na0  1  0.50000000  0.50000000  -0.00000000  1
  Na  Na1  1  -0.00000000  0.00000000  -0.00000000  1
  Na  Na2  1  -0.00000000  0.50000000  0.50000000  1
  Na  Na3  1  0.50000000  0.00000000  0.50000000  1
  Na  Na4  1  0.50000000  0.00000000  -0.00000000  1
  Na  Na5  1  -0.00000000  0.50000000  -0.00000000  1
  Na  Na6  1  -0.00000000  0.00000000  0.50000000  1
  Na  Na7  1  0.50000000  0.50000000  0.50000000  1
  Na  Na8  1  0.74177033  0.25661245  0.75313616  1
  Na  Na9  1  0.75822967  0.75661245  0.24686384  1
  Na  Na10  1  0.24177033  0.74338755  0.74686384  1
  Na  Na11  1  0.25822967  0.24338755  0.25313616  1
  Na  Na12  1  0.25822967  0.74338755  0.24686384  1
  Na  Na13  1  0.24177033  0.24338755  0.75313616  1
  Na  Na14  1  0.75822967  0.25661245  0.25313616  1
  Na  Na15  1  0.74177033  0.75661245  0.74686384  1
  Zn  Zn0  1  0.88418207  0.37272707  0.63094667  1
  Zn  Zn1  1  0.61581793  0.87272707  0.36905333  1
  Zn  Zn2  1  0.38418207  0.62727293  0.86905333  1
  Zn  Zn3  1  0.11581793  0.12727293  0.13094667  1
  Zn  Zn4  1  0.11581793  0.62727293  0.36905333  1
  Zn  Zn5  1  0.38418207  0.12727293  0.63094667  1
  Zn  Zn6  1  0.61581793  0.37272707  0.13094667  1
  Zn  Zn7  1  0.88418207  0.87272707  0.86905333  1
  Zn  Zn8  1  0.63274966  0.11956875  0.88412313  1
  Zn  Zn9  1  0.86725034  0.61956875  0.11587687  1
  Zn  Zn10  1  0.13274966  0.88043125  0.61587687  1
  Zn  Zn11  1  0.36725034  0.38043125  0.38412313  1
  Zn  Zn12  1  0.36725034  0.88043125  0.11587687  1
  Zn  Zn13  1  0.13274966  0.38043125  0.88412313  1
  Zn  Zn14  1  0.86725034  0.11956875  0.38412313  1
  Zn  Zn15  1  0.63274966  0.61956875  0.61587687  1
  P  P0  1  0.75481356  0.47429849  0.97655554  1
  P  P1  1  0.74518644  0.97429849  0.02344446  1
  P  P2  1  0.25481356  0.52570151  0.52344446  1
  P  P3  1  0.24518644  0.02570151  0.47655554  1
  P  P4  1  0.24518644  0.52570151  0.02344446  1
  P  P5  1  0.25481356  0.02570151  0.97655554  1
  P  P6  1  0.74518644  0.47429849  0.47655554  1
  P  P7  1  0.75481356  0.97429849  0.52344446  1
  P  P8  1  0.77377592  0.27288407  0.00092028  1
  P  P9  1  0.72622408  0.77288407  0.99907972  1
  P  P10  1  0.27377592  0.72711593  0.49907972  1
  P  P11  1  0.22622408  0.22711593  0.50092028  1
  P  P12  1  0.22622408  0.72711593  0.99907972  1
  P  P13  1  0.27377592  0.22711593  0.00092028  1
  P  P14  1  0.72622408  0.27288407  0.50092028  1
  P  P15  1  0.77377592  0.77288407  0.49907972  1
  P  P16  1  0.97818750  0.23935349  0.97931672  1
  P  P17  1  0.52181250  0.73935349  0.02068328  1
  P  P18  1  0.47818750  0.76064651  0.52068328  1
  P  P19  1  0.02181250  0.26064651  0.47931672  1
  P  P20  1  0.02181250  0.76064651  0.02068328  1
  P  P21  1  0.47818750  0.26064651  0.97931672  1
  P  P22  1  0.52181250  0.23935349  0.47931672  1
  P  P23  1  0.97818750  0.73935349  0.52068328  1
  P  P24  1  0.99930557  0.22701417  0.77836533  1
  P  P25  1  0.50069443  0.72701417  0.22163467  1
  P  P26  1  0.49930557  0.77298583  0.72163467  1
  P  P27  1  0.00069443  0.27298583  0.27836533  1
  P  P28  1  0.00069443  0.77298583  0.22163467  1
  P  P29  1  0.49930557  0.27298583  0.77836533  1
  P  P30  1  0.50069443  0.22701417  0.27836533  1
  P  P31  1  0.99930557  0.72701417  0.72163467  1
  P  P32  1  0.98083767  0.02504324  0.73589789  1
  P  P33  1  0.51916233  0.52504324  0.26410211  1
  P  P34  1  0.48083767  0.97495676  0.76410211  1
  P  P35  1  0.01916233  0.47495676  0.23589789  1
  P  P36  1  0.01916233  0.97495676  0.26410211  1
  P  P37  1  0.48083767  0.47495676  0.73589789  1
  P  P38  1  0.51916233  0.02504324  0.23589789  1
  P  P39  1  0.98083767  0.52504324  0.76410211  1
  P  P40  1  0.77832057  0.01262214  0.72561460  1
  P  P41  1  0.72167943  0.51262214  0.27438540  1
  P  P42  1  0.27832057  0.98737786  0.77438540  1
  P  P43  1  0.22167943  0.48737786  0.22561460  1
  P  P44  1  0.22167943  0.98737786  0.27438540  1
  P  P45  1  0.27832057  0.48737786  0.72561460  1
  P  P46  1  0.72167943  0.01262214  0.22561460  1
  P  P47  1  0.77832057  0.51262214  0.77438540  1
  O  O0  1  0.72879967  0.01075729  0.62556072  1
  O  O1  1  0.77120033  0.51075729  0.37443928  1
  O  O2  1  0.22879967  0.98924271  0.87443928  1
  O  O3  1  0.27120033  0.48924271  0.12556072  1
  O  O4  1  0.27120033  0.98924271  0.37443928  1
  O  O5  1  0.22879967  0.48924271  0.62556072  1
  O  O6  1  0.77120033  0.01075729  0.12556072  1
  O  O7  1  0.72879967  0.51075729  0.87443928  1
  O  O8  1  0.83366489  0.47234824  0.53062034  1
  O  O9  1  0.66633511  0.97234824  0.46937966  1
  O  O10  1  0.33366489  0.52765176  0.96937966  1
  O  O11  1  0.16633511  0.02765176  0.03062034  1
  O  O12  1  0.16633511  0.52765176  0.46937966  1
  O  O13  1  0.33366489  0.02765176  0.53062034  1
  O  O14  1  0.66633511  0.47234824  0.03062034  1
  O  O15  1  0.83366489  0.97234824  0.96937966  1
  O  O16  1  0.66273892  0.02571711  0.98686274  1
  O  O17  1  0.83726108  0.52571711  0.01313726  1
  O  O18  1  0.16273892  0.97428289  0.51313726  1
  O  O19  1  0.33726108  0.47428289  0.48686274  1
  O  O20  1  0.33726108  0.97428289  0.01313726  1
  O  O21  1  0.16273892  0.47428289  0.98686274  1
  O  O22  1  0.83726108  0.02571711  0.48686274  1
  O  O23  1  0.66273892  0.52571711  0.51313726  1
  O  O24  1  0.78992998  0.37151392  0.95165541  1
  O  O25  1  0.71007002  0.87151392  0.04834459  1
  O  O26  1  0.28992998  0.62848608  0.54834459  1
  O  O27  1  0.21007002  0.12848608  0.45165541  1
  O  O28  1  0.21007002  0.62848608  0.04834459  1
  O  O29  1  0.28992998  0.12848608  0.95165541  1
  O  O30  1  0.71007002  0.37151392  0.45165541  1
  O  O31  1  0.78992998  0.87151392  0.54834459  1
  O  O32  1  0.77584490  0.28291726  0.59157194  1
  O  O33  1  0.72415510  0.78291726  0.40842806  1
  O  O34  1  0.27584490  0.71708274  0.90842806  1
  O  O35  1  0.22415510  0.21708274  0.09157194  1
  O  O36  1  0.22415510  0.71708274  0.40842806  1
  O  O37  1  0.27584490  0.21708274  0.59157194  1
  O  O38  1  0.72415510  0.28291726  0.09157194  1
  O  O39  1  0.77584490  0.78291726  0.90842806  1
  O  O40  1  0.73763444  0.21062330  0.92682742  1
  O  O41  1  0.76236556  0.71062330  0.07317258  1
  O  O42  1  0.23763444  0.78937670  0.57317258  1
  O  O43  1  0.26236556  0.28937670  0.42682742  1
  O  O44  1  0.26236556  0.78937670  0.07317258  1
  O  O45  1  0.23763444  0.28937670  0.92682742  1
  O  O46  1  0.76236556  0.21062330  0.42682742  1
  O  O47  1  0.73763444  0.71062330  0.57317258  1
  O  O48  1  0.62162453  0.24500688  0.52831860  1
  O  O49  1  0.87837547  0.74500688  0.47168140  1
  O  O50  1  0.12162453  0.75499312  0.97168140  1
  O  O51  1  0.37837547  0.25499312  0.02831860  1
  O  O52  1  0.37837547  0.75499312  0.47168140  1
  O  O53  1  0.12162453  0.25499312  0.52831860  1
  O  O54  1  0.87837547  0.24500688  0.02831860  1
  O  O55  1  0.62162453  0.74500688  0.97168140  1
  O  O56  1  0.97305737  0.34077028  0.52324407  1
  O  O57  1  0.52694263  0.84077028  0.47675593  1
  O  O58  1  0.47305737  0.65922972  0.97675593  1
  O  O59  1  0.02694263  0.15922972  0.02324407  1
  O  O60  1  0.02694263  0.65922972  0.47675593  1
  O  O61  1  0.47305737  0.15922972  0.52324407  1
  O  O62  1  0.52694263  0.34077028  0.02324407  1
  O  O63  1  0.97305737  0.84077028  0.97675593  1
  O  O64  1  0.52323793  0.16760312  0.97675535  1
  O  O65  1  0.97676207  0.66760312  0.02324465  1
  O  O66  1  0.02323793  0.83239688  0.52324465  1
  O  O67  1  0.47676207  0.33239688  0.47675535  1
  O  O68  1  0.47676207  0.83239688  0.02324465  1
  O  O69  1  0.02323793  0.33239688  0.97675535  1
  O  O70  1  0.97676207  0.16760312  0.47675535  1
  O  O71  1  0.52323793  0.66760312  0.52324465  1
  O  O72  1  0.94878921  0.20732044  0.87604762  1
  O  O73  1  0.55121079  0.70732044  0.12395238  1
  O  O74  1  0.44878921  0.79267956  0.62395238  1
  O  O75  1  0.05121079  0.29267956  0.37604762  1
  O  O76  1  0.05121079  0.79267956  0.12395238  1
  O  O77  1  0.44878921  0.29267956  0.87604762  1
  O  O78  1  0.55121079  0.20732044  0.37604762  1
  O  O79  1  0.94878921  0.70732044  0.62395238  1
  O  O80  1  0.92667281  0.26620609  0.71601656  1
  O  O81  1  0.57332719  0.76620609  0.28398344  1
  O  O82  1  0.42667281  0.73379391  0.78398344  1
  O  O83  1  0.07332719  0.23379391  0.21601656  1
  O  O84  1  0.07332719  0.73379391  0.28398344  1
  O  O85  1  0.42667281  0.23379391  0.71601656  1
  O  O86  1  0.57332719  0.26620609  0.21601656  1
  O  O87  1  0.92667281  0.76620609  0.78398344  1
  O  O88  1  0.58980686  0.22388067  0.79199620  1
  O  O89  1  0.91019314  0.72388067  0.20800380  1
  O  O90  1  0.08980686  0.77611933  0.70800380  1
  O  O91  1  0.41019314  0.27611933  0.29199620  1
  O  O92  1  0.41019314  0.77611933  0.20800380  1
  O  O93  1  0.08980686  0.27611933  0.79199620  1
  O  O94  1  0.91019314  0.22388067  0.29199620  1
  O  O95  1  0.58980686  0.72388067  0.70800380  1
  O  O96  1  0.52862598  0.37508228  0.74552878  1
  O  O97  1  0.97137402  0.87508228  0.25447122  1
  O  O98  1  0.02862598  0.62491772  0.75447122  1
  O  O99  1  0.47137402  0.12491772  0.24552878  1
  O  O100  1  0.47137402  0.62491772  0.25447122  1
  O  O101  1  0.02862598  0.12491772  0.74552878  1
  O  O102  1  0.97137402  0.37508228  0.24552878  1
  O  O103  1  0.52862598  0.87508228  0.75447122  1
  O  O104  1  0.53039110  0.02322512  0.84105979  1
  O  O105  1  0.96960890  0.52322512  0.15894021  1
  O  O106  1  0.03039110  0.97677488  0.65894021  1
  O  O107  1  0.46960890  0.47677488  0.34105979  1
  O  O108  1  0.46960890  0.97677488  0.15894021  1
  O  O109  1  0.03039110  0.47677488  0.84105979  1
  O  O110  1  0.96960890  0.02322512  0.34105979  1
  O  O111  1  0.53039110  0.52322512  0.65894021  1
  O  O112  1  0.97442242  0.48027366  0.67047191  1
  O  O113  1  0.52557758  0.98027366  0.32952809  1
  O  O114  1  0.47442242  0.51972634  0.82952809  1
  O  O115  1  0.02557758  0.01972634  0.17047191  1
  O  O116  1  0.02557758  0.51972634  0.32952809  1
  O  O117  1  0.47442242  0.01972634  0.67047191  1
  O  O118  1  0.52557758  0.48027366  0.17047191  1
  O  O119  1  0.97442242  0.98027366  0.82952809  1
  O  O120  1  0.87914208  0.05378703  0.69868874  1
  O  O121  1  0.62085792  0.55378703  0.30131126  1
  O  O122  1  0.37914208  0.94621297  0.80131126  1
  O  O123  1  0.12085792  0.44621297  0.19868874  1
  O  O124  1  0.12085792  0.94621297  0.30131126  1
  O  O125  1  0.37914208  0.44621297  0.69868874  1
  O  O126  1  0.62085792  0.05378703  0.19868874  1
  O  O127  1  0.87914208  0.55378703  0.80131126  1
  O  O128  1  0.72797998  0.08446161  0.78025193  1
  O  O129  1  0.77202002  0.58446161  0.21974807  1
  O  O130  1  0.22797998  0.91553839  0.71974807  1
  O  O131  1  0.27202002  0.41553839  0.28025193  1
  O  O132  1  0.27202002  0.91553839  0.21974807  1
  O  O133  1  0.22797998  0.41553839  0.78025193  1
  O  O134  1  0.77202002  0.08446161  0.28025193  1
  O  O135  1  0.72797998  0.58446161  0.71974807  1
  O  O136  1  0.78914388  0.41614297  0.73785125  1
  O  O137  1  0.71085612  0.91614297  0.26214875  1
  O  O138  1  0.28914388  0.58385703  0.76214875  1
  O  O139  1  0.21085612  0.08385703  0.23785125  1
  O  O140  1  0.21085612  0.58385703  0.26214875  1
  O  O141  1  0.28914388  0.08385703  0.73785125  1
  O  O142  1  0.71085612  0.41614297  0.23785125  1
  O  O143  1  0.78914388  0.91614297  0.76214875  1
loop_
_geom_bond_atom_site_label_1
_geom_bond_atom_site_label_2
_geom_bond_distance
_geom_bond_site_symmetry_2
Na0 O58 2.369536 1_554
Na0 O62 2.369536 1_555
Na0 O10 2.475578 1_554
Na0 O14 2.475578 1_555
Na0 O114 2.510585 1_554
Na0 O118 2.510585 1_555
Na1 O59 2.369536 1_555
Na1 O63 2.369536 1_444
Na1 O15 2.475578 1_444
Na1 O11 2.475578 1_555
Na1 O119 2.510585 1_444
Na1 O115 2.510585 1_555
Na2 O56 2.369536 1_455
Na2 O60 2.369536 1_555
Na2 O8 2.475578 1_455
Na2 O12 2.475578 1_555
Na2 O112 2.510585 1_455
Na2 O116 2.510585 1_555
Na3 O61 2.369536 1_555
Na3 O57 2.369536 1_545
Na3 O9 2.475578 1_545
Na3 O13 2.475578 1_555
Na3 O117 2.510585 1_555
Na3 O113 2.510585 1_545
Na4 O108 2.365504 1_545
Na4 O104 2.365504 1_554
Na4 O16 2.387402 1_554
Na4 O20 2.387402 1_545
Na4 O64 2.480610 1_554
Na4 O68 2.480610 1_545
Na5 O105 2.365504 1_455
Na5 O109 2.365504 1_554
Na5 O17 2.387402 1_455
Na5 O21 2.387402 1_554
Na5 O65 2.480610 1_455
Na5 O69 2.480610 1_554
Na6 O110 2.365504 1_455
Na6 O106 2.365504 1_545
Na6 O18 2.387402 1_545
Na6 O22 2.387402 1_455
Na6 O66 2.480610 1_545
Na6 O70 2.480610 1_455
Na7 O111 2.365504 1_555
Na7 O107 2.365504 1_555
Na7 O19 2.387402 1_555
Na7 O23 2.387402 1_555
Na7 O67 2.480610 1_555
Na7 O71 2.480610 1_555
Na8 O88 2.314939 1_555
Na8 O32 2.419382 1_555
Na8 O136 2.426402 1_555
Na8 O128 2.539158 1_555
Na8 O40 2.601215 1_555
Na8 O80 2.727452 1_555
Na9 O89 2.314939 1_555
Na9 O33 2.419382 1_555
Na9 O137 2.426402 1_555
Na9 O129 2.539158 1_555
Na9 O41 2.601215 1_555
Na9 O81 2.727452 1_555
Na10 O90 2.314939 1_555
Na10 O34 2.419382 1_555
Na10 O138 2.426402 1_555
Na10 O130 2.539158 1_555
Na10 O42 2.601215 1_555
Na10 O82 2.727452 1_555
Na11 O91 2.314939 1_555
Na11 O35 2.419382 1_555
Na11 O139 2.426402 1_555
Na11 O131 2.539158 1_555
Na11 O43 2.601215 1_555
Na11 O83 2.727452 1_555
Na12 O92 2.314939 1_555
Na12 O36 2.419382 1_555
Na12 O140 2.426402 1_555
Na12 O132 2.539158 1_555
Na12 O44 2.601215 1_555
Na12 O84 2.727452 1_555
Na13 O93 2.314939 1_555
Na13 O37 2.419382 1_555
Na13 O141 2.426402 1_555
Na13 O133 2.539158 1_555
Na13 O45 2.601215 1_555
Na13 O85 2.727452 1_555
Na14 O94 2.314939 1_555
Na14 O38 2.419382 1_555
Na14 O142 2.426402 1_555
Na14 O134 2.539158 1_555
Na14 O46 2.601215 1_555
Na14 O86 2.727452 1_555
Na15 O95 2.314939 1_555
Na15 O39 2.419382 1_555
Na15 O143 2.426402 1_555
Na15 O135 2.539158 1_555
Na15 O47 2.601215 1_555
Na15 O87 2.727452 1_555
O0 P7 1.613974 1_545
O0 P40 1.614994 1_555
O1 P6 1.613974 1_555
O1 P41 1.614994 1_555
O2 P5 1.613974 1_565
O2 P42 1.614994 1_555
O3 P4 1.613974 1_555
O3 P43 1.614994 1_555
O4 P3 1.613974 1_565
O4 P44 1.614994 1_555
O5 P2 1.613974 1_555
O5 P45 1.614994 1_555
O6 P1 1.613974 1_545
O6 P46 1.614994 1_555
O7 P0 1.613974 1_555
O7 P47 1.614994 1_555
O8 P6 1.498547 1_555
O8 Zn0 2.175756 1_555
O9 P7 1.498547 1_555
O9 Zn1 2.175756 1_555
O10 P4 1.498547 1_556
O10 Zn2 2.175756 1_555
O11 P5 1.498547 1_554
O11 Zn3 2.175756 1_555
O12 P2 1.498547 1_555
O12 Zn4 2.175756 1_555
O13 P3 1.498547 1_555
O13 Zn5 2.175756 1_555
O14 P0 1.498547 1_554
O14 Zn6 2.175756 1_555
O15 P1 1.498547 1_556
O15 Zn7 2.175756 1_555
O16 P1 1.501974 1_546
O16 Zn8 2.063072 1_555
O17 P0 1.501974 1_554
O17 Zn9 2.063072 1_555
O18 P3 1.501974 1_565
O18 Zn10 2.063072 1_555
O19 P2 1.501974 1_555
O19 Zn11 2.063072 1_555
O20 P5 1.501974 1_564
O20 Zn12 2.063072 1_555
O21 P4 1.501974 1_556
O21 Zn13 2.063072 1_555
O22 P7 1.501974 1_545
O22 Zn14 2.063072 1_555
O23 P6 1.501974 1_555
O23 Zn15 2.063072 1_555
O24 P8 1.617198 1_556
O24 P0 1.617517 1_555
O25 P9 1.617198 1_554
O25 P1 1.617517 1_555
O26 P10 1.617198 1_555
O26 P2 1.617517 1_555
O27 P11 1.617198 1_555
O27 P3 1.617517 1_555
O28 P12 1.617198 1_554
O28 P4 1.617517 1_555
O29 P13 1.617198 1_556
O29 P5 1.617517 1_555
O30 P14 1.617198 1_555
O30 P6 1.617517 1_555
O31 P15 1.617198 1_555
O31 P7 1.617517 1_555
O32 P14 1.501788 1_555
O32 Zn0 2.115351 1_555
O33 P15 1.501788 1_555
O33 Zn1 2.115351 1_555
O34 P12 1.501788 1_555
O34 Zn2 2.115351 1_555
O35 P13 1.501788 1_555
O35 Zn3 2.115351 1_555
O36 P10 1.501788 1_555
O36 Zn4 2.115351 1_555
O37 P11 1.501788 1_555
O37 Zn5 2.115351 1_555
O38 P8 1.501788 1_555
O38 Zn6 2.115351 1_555
O39 P9 1.501788 1_555
O39 Zn7 2.115351 1_555
O40 P8 1.496608 1_556
O40 Zn8 2.103781 1_555
O41 P9 1.496608 1_554
O41 Zn9 2.103781 1_555
O42 P10 1.496608 1_555
O42 Zn10 2.103781 1_555
O43 P11 1.496608 1_555
O43 Zn11 2.103781 1_555
O44 P12 1.496608 1_554
O44 Zn12 2.103781 1_555
O45 P13 1.496608 1_556
O45 Zn13 2.103781 1_555
O46 P14 1.496608 1_555
O46 Zn14 2.103781 1_555
O47 P15 1.496608 1_555
O47 Zn15 2.103781 1_555
O48 P22 1.608552 1_555
O48 P14 1.613454 1_555
O49 P23 1.608552 1_555
O49 P15 1.613454 1_555
O50 P20 1.608552 1_556
O50 P12 1.613454 1_555
O51 P21 1.608552 1_554
O51 P13 1.613454 1_555
O52 P18 1.608552 1_555
O52 P10 1.613454 1_555
O53 P19 1.608552 1_555
O53 P11 1.613454 1_555
O54 P16 1.608552 1_554
O54 P8 1.613454 1_555
O55 P17 1.608552 1_556
O55 P9 1.613454 1_555
O56 P19 1.501502 1_655
O56 Zn0 2.071642 1_555
O57 P18 1.501502 1_555
O57 Zn1 2.071642 1_555
O58 P17 1.501502 1_556
O58 Zn2 2.071642 1_555
O59 P16 1.501502 1_454
O59 Zn3 2.071642 1_555
O60 P23 1.501502 1_455
O60 Zn4 2.071642 1_555
O61 P22 1.501502 1_555
O61 Zn5 2.071642 1_555
O62 P21 1.501502 1_554
O62 Zn6 2.071642 1_555
O63 P20 1.501502 1_656
O63 Zn7 2.071642 1_555
O64 P21 1.500497 1_555
O64 Zn8 2.187439 1_555
O65 P20 1.500497 1_655
O65 Zn9 2.187439 1_555
O66 P23 1.500497 1_455
O66 Zn10 2.187439 1_555
O67 P22 1.500497 1_555
O67 Zn11 2.187439 1_555
O68 P17 1.500497 1_555
O68 Zn12 2.187439 1_555
O69 P16 1.500497 1_455
O69 Zn13 2.187439 1_555
O70 P19 1.500497 1_655
O70 Zn14 2.187439 1_555
O71 P18 1.500497 1_555
O71 Zn15 2.187439 1_555
O72 P24 1.616137 1_555
O72 P16 1.621616 1_555
O73 P25 1.616137 1_555
O73 P17 1.621616 1_555
O74 P26 1.616137 1_555
O74 P18 1.621616 1_555
O75 P27 1.616137 1_555
O75 P19 1.621616 1_555
O76 P28 1.616137 1_555
O76 P20 1.621616 1_555
O77 P29 1.616137 1_555
O77 P21 1.621616 1_555
O78 P30 1.616137 1_555
O78 P22 1.621616 1_555
O79 P31 1.616137 1_555
O79 P23 1.621616 1_555
O80 P24 1.496125 1_555
O80 Zn0 2.070300 1_555
O81 P25 1.496125 1_555
O81 Zn1 2.070300 1_555
O82 P26 1.496125 1_555
O82 Zn2 2.070300 1_555
O83 P27 1.496125 1_555
O83 Zn3 2.070300 1_555
O84 P28 1.496125 1_555
O84 Zn4 2.070300 1_555
O85 P29 1.496125 1_555
O85 Zn5 2.070300 1_555
O86 P30 1.496125 1_555
O86 Zn6 2.070300 1_555
O87 P31 1.496125 1_555
O87 Zn7 2.070300 1_555
O88 P29 1.502030 1_555
O88 Zn8 2.111334 1_555
O89 P28 1.502030 1_655
O89 Zn9 2.111334 1_555
O90 P31 1.502030 1_455
O90 Zn10 2.111334 1_555
O91 P30 1.502030 1_555
O91 Zn11 2.111334 1_555
O92 P25 1.502030 1_555
O92 Zn12 2.111334 1_555
O93 P24 1.502030 1_455
O93 Zn13 2.111334 1_555
O94 P27 1.502030 1_655
O94 Zn14 2.111334 1_555
O95 P26 1.502030 1_555
O95 Zn15 2.111334 1_555
O96 P37 1.612651 1_555
O96 P29 1.613893 1_555
O97 P36 1.612651 1_655
O97 P28 1.613893 1_655
O98 P39 1.612651 1_455
O98 P31 1.613893 1_455
O99 P38 1.612651 1_555
O99 P30 1.613893 1_555
O100 P33 1.612651 1_555
O100 P25 1.613893 1_555
O101 P32 1.612651 1_455
O101 P24 1.613893 1_455
O102 P35 1.612651 1_655
O102 P27 1.613893 1_655
O103 P34 1.612651 1_555
O103 P26 1.613893 1_555
O104 P34 1.497935 1_545
O104 Zn8 2.128919 1_555
O105 P35 1.497935 1_655
O105 Zn9 2.128919 1_555
O106 P32 1.497935 1_465
O106 Zn10 2.128919 1_555
O107 P33 1.497935 1_555
O107 Zn11 2.128919 1_555
O108 P38 1.497935 1_565
O108 Zn12 2.128919 1_555
O109 P39 1.497935 1_455
O109 Zn13 2.128919 1_555
O110 P36 1.497935 1_645
O110 Zn14 2.128919 1_555
O111 P37 1.497935 1_555
O111 Zn15 2.128919 1_555
O112 P39 1.505659 1_555
O112 Zn0 2.113364 1_555
O113 P38 1.505659 1_565
O113 Zn1 2.113364 1_555
O114 P37 1.505659 1_555
O114 Zn2 2.113364 1_555
O115 P36 1.505659 1_545
O115 Zn3 2.113364 1_555
O116 P35 1.505659 1_555
O116 Zn4 2.113364 1_555
O117 P34 1.505659 1_545
O117 Zn5 2.113364 1_555
O118 P33 1.505659 1_555
O118 Zn6 2.113364 1_555
O119 P32 1.505659 1_565
O119 Zn7 2.113364 1_555
O120 P32 1.619057 1_555
O120 P40 1.621596 1_555
O121 P33 1.619057 1_555
O121 P41 1.621596 1_555
O122 P34 1.619057 1_555
O122 P42 1.621596 1_555
O123 P35 1.619057 1_555
O123 P43 1.621596 1_555
O124 P36 1.619057 1_555
O124 P44 1.621596 1_555
O125 P37 1.619057 1_555
O125 P45 1.621596 1_555
O126 P38 1.619057 1_555
O126 P46 1.621596 1_555
O127 P39 1.619057 1_555
O127 P47 1.621596 1_555
O128 P40 1.497546 1_555
O128 Zn8 2.100143 1_555
O129 P41 1.497546 1_555
O129 Zn9 2.100143 1_555
O130 P42 1.497546 1_555
O130 Zn10 2.100143 1_555
O131 P43 1.497546 1_555
O131 Zn11 2.100143 1_555
O132 P44 1.497546 1_555
O132 Zn12 2.100143 1_555
O133 P45 1.497546 1_555
O133 Zn13 2.100143 1_555
O134 P46 1.497546 1_555
O134 Zn14 2.100143 1_555
O135 P47 1.497546 1_555
O135 Zn15 2.100143 1_555
O136 P47 1.506020 1_555
O136 Zn0 2.162062 1_555
O137 P46 1.506020 1_565
O137 Zn1 2.162062 1_555
O138 P45 1.506020 1_555
O138 Zn2 2.162062 1_555
O139 P44 1.506020 1_545
O139 Zn3 2.162062 1_555
O140 P43 1.506020 1_555
O140 Zn4 2.162062 1_555
O141 P42 1.506020 1_545
O141 Zn5 2.162062 1_555
O142 P41 1.506020 1_555
O142 Zn6 2.162062 1_555
O143 P40 1.506020 1_565
O143 Zn7 2.162062 1_555
