# generated using pymatgen
data_SrMoO3
_symmetry_space_group_name_H-M   'P 1'
_cell_length_a   5.73803727
_cell_length_b   5.73803727
_cell_length_c   5.73803727
_cell_angle_alpha   119.53709822
_cell_angle_beta   119.53709822
_cell_angle_gamma   90.80365695
_symmetry_Int_Tables_number   1
_chemical_formula_structural   SrMoO3
_chemical_formula_sum   'Sr2 Mo2 O6'
_cell_volume   134.51072644
_cell_formula_units_Z   2
loop_
 _symmetry_equiv_pos_site_id
 _symmetry_equiv_pos_as_xyz
  1  'x, y, z'
loop_
 _atom_site_type_symbol
 _atom_site_label
 _atom_site_symmetry_multiplicity
 _atom_site_fract_x
 _atom_site_fract_y
 _atom_site_fract_z
 _atom_site_occupancy
  Sr  Sr0  1  0.25000000  0.75000000  0.50000000  1
  Sr  Sr1  1  0.75000000  0.25000000  0.50000000  1
  Mo  Mo0  1  0.00000000  0.00000000  0.00000000  1
  Mo  Mo1  1  0.50000000  0.50000000  0.00000000  1
  O  O0  1  0.19632300  0.30367700  0.50000000  1
  O  O1  1  0.30367700  0.80367700  0.10735400  1
  O  O2  1  0.69632300  0.19632300  0.89264600  1
  O  O3  1  0.80367700  0.69632300  0.50000000  1
  O  O4  1  0.25000000  0.25000000  0.00000000  1
  O  O5  1  0.75000000  0.75000000  0.00000000  1
loop_
_geom_bond_atom_site_label_1
_geom_bond_atom_site_label_2
_geom_bond_distance
_geom_bond_site_symmetry_2
Mo0 O5 2.014425 1_445
Mo0 O4 2.014425 1_555
Mo0 O2 2.089438 1_454
Mo0 O1 2.089438 1_545
Mo0 O0 2.089438 1_555
Mo0 O3 2.089438 1_444
Mo1 O5 2.014425 1_555
Mo1 O4 2.014425 1_555
Mo1 O2 2.089438 1_554
Mo1 O3 2.089438 1_555
Mo1 O0 2.089438 1_554
Mo1 O1 2.089438 1_555
O0 Sr0 2.575180 1_555
O0 Sr1 2.575180 1_455
O0 Sr1 3.196211 1_555
O0 Sr0 3.196211 1_545
O1 Sr0 2.575180 1_555
O1 Sr1 2.575180 1_565
O1 Sr1 3.196211 1_454
O1 Sr0 3.196211 1_554
O2 Sr0 2.575180 1_545
O2 Sr1 2.575180 1_555
O2 Sr0 3.196211 1_656
O2 Sr1 3.196211 1_556
O3 Sr0 2.575180 1_655
O3 Sr1 2.575180 1_555
O3 Sr1 3.196211 1_565
O3 Sr0 3.196211 1_555
O4 Sr0 2.889069 1_555
O4 Sr1 2.889069 1_454
O4 Sr0 2.889069 1_544
O4 Sr1 2.889069 1_555
O5 Sr0 2.889069 1_554
O5 Sr1 2.889069 1_554
O5 Sr1 2.889069 1_565
O5 Sr0 2.889069 1_655
