# generated using pymatgen
data_Cu2GeI6
_symmetry_space_group_name_H-M   'P 1'
_cell_length_a   7.73304987
_cell_length_b   7.73304987
_cell_length_c   7.73304987
_cell_angle_alpha   60.00000000
_cell_angle_beta   60.00000000
_cell_angle_gamma   60.00000000
_symmetry_Int_Tables_number   1
_chemical_formula_structural   Cu2GeI6
_chemical_formula_sum   'Cu2 Ge1 I6'
_cell_volume   326.99223100
_cell_formula_units_Z   1
loop_
 _symmetry_equiv_pos_site_id
 _symmetry_equiv_pos_as_xyz
  1  'x, y, z'
loop_
 _atom_site_type_symbol
 _atom_site_label
 _atom_site_symmetry_multiplicity
 _atom_site_fract_x
 _atom_site_fract_y
 _atom_site_fract_z
 _atom_site_occupancy
  Cu  Cu0  1  0.25000000  0.25000000  0.25000000  1
  Cu  Cu1  1  0.75000000  0.75000000  0.75000000  1
  Ge  Ge0  1  0.00000000  0.00000000  0.00000000  1
  I  I0  1  0.75061900  0.75061900  0.24938100  1
  I  I1  1  0.75061900  0.24938100  0.75061900  1
  I  I2  1  0.24938100  0.75061900  0.24938100  1
  I  I3  1  0.24938100  0.24938100  0.75061900  1
  I  I4  1  0.24938100  0.75061900  0.75061900  1
  I  I5  1  0.75061900  0.24938100  0.24938100  1
loop_
_geom_bond_atom_site_label_1
_geom_bond_atom_site_label_2
_geom_bond_distance
_geom_bond_site_symmetry_2
Ge0 I2 2.727277 1_545
Ge0 I5 2.727277 1_455
Ge0 I3 2.727277 1_554
Ge0 I0 2.727277 1_445
Ge0 I1 2.727277 1_454
Ge0 I4 2.727277 1_544
