# generated using pymatgen
data_Ga2NiO4
_symmetry_space_group_name_H-M   'P 1'
_cell_length_a   5.89066902
_cell_length_b   10.32226740
_cell_length_c   5.98224561
_cell_angle_alpha   75.08207296
_cell_angle_beta   60.51430236
_cell_angle_gamma   73.41855803
_symmetry_Int_Tables_number   1
_chemical_formula_structural   Ga2NiO4
_chemical_formula_sum   'Ga8 Ni4 O16'
_cell_volume   300.47241472
_cell_formula_units_Z   4
loop_
 _symmetry_equiv_pos_site_id
 _symmetry_equiv_pos_as_xyz
  1  'x, y, z'
loop_
 _atom_site_type_symbol
 _atom_site_label
 _atom_site_symmetry_multiplicity
 _atom_site_fract_x
 _atom_site_fract_y
 _atom_site_fract_z
 _atom_site_occupancy
  Ga  Ga0  1  0.56252800  0.81245800  0.06248600  1
  Ga  Ga1  1  0.06251900  0.31253100  0.56244400  1
  Ga  Ga2  1  0.06251600  0.31253000  0.06249500  1
  Ga  Ga3  1  0.56249200  0.81247600  0.56252000  1
  Ga  Ga4  1  0.06250000  0.81249600  0.56251800  1
  Ga  Ga5  1  0.56250900  0.31252200  0.06248000  1
  Ga  Ga6  1  0.31223200  0.06321300  0.31223900  1
  Ga  Ga7  1  0.81277800  0.56174700  0.81278200  1
  Ni  Ni0  1  0.49734700  0.50199700  0.50339800  1
  Ni  Ni1  1  0.62762600  0.12301400  0.62164100  1
  Ni  Ni2  1  0.99931200  0.00108700  0.99996500  1
  Ni  Ni3  1  0.12557100  0.62409100  0.12520000  1
  O  O0  1  0.68840000  0.91784400  0.70546800  1
  O  O1  1  0.18746900  0.42099600  0.20390000  1
  O  O2  1  0.93074800  0.69532100  0.91148500  1
  O  O3  1  0.42653900  0.19642000  0.41413600  1
  O  O4  1  0.19430900  0.92956700  0.21354400  1
  O  O5  1  0.69849000  0.42858100  0.71079800  1
  O  O6  1  0.96289600  0.19637900  0.41419100  1
  O  O7  1  0.46266000  0.69537000  0.91123400  1
  O  O8  1  0.43657800  0.70712600  0.41953900  1
  O  O9  1  0.93751800  0.20408300  0.92099300  1
  O  O10  1  0.42142600  0.18982600  0.96741200  1
  O  O11  1  0.92097200  0.68620400  0.47167100  1
  O  O12  1  0.20390800  0.93876500  0.65342500  1
  O  O13  1  0.70357400  0.43517900  0.15762300  1
  O  O14  1  0.66245900  0.92954700  0.21364900  1
  O  O15  1  0.16212300  0.42863100  0.71076400  1
loop_
_geom_bond_atom_site_label_1
_geom_bond_atom_site_label_2
_geom_bond_distance
_geom_bond_site_symmetry_2
Ga0 O8 1.999915 1_555
Ga0 O0 1.999967 1_554
Ga0 O14 2.029253 1_555
Ga0 O7 2.029388 1_554
Ga0 O4 2.029541 1_555
Ga0 O2 2.029638 1_554
Ga1 O5 2.007172 1_455
Ga1 O15 2.007244 1_555
Ga1 O3 2.007373 1_555
Ga1 O6 2.007450 1_455
Ga1 O9 2.018779 1_455
Ga1 O1 2.018824 1_555
Ga2 O13 2.013942 1_455
Ga2 O10 2.014052 1_554
Ga2 O1 2.020354 1_555
Ga2 O9 2.020827 1_454
Ga2 O15 2.023750 1_554
Ga2 O6 2.023800 1_455
Ga3 O0 2.006984 1_555
Ga3 O8 2.007017 1_555
Ga3 O7 2.014585 1_555
Ga3 O14 2.015090 1_555
Ga3 O11 2.029158 1_555
Ga3 O12 2.029649 1_555
Ga4 O8 2.006476 1_555
Ga4 O0 2.006490 1_455
Ga4 O4 2.015541 1_555
Ga4 O2 2.015972 1_455
Ga4 O12 2.029528 1_555
Ga4 O11 2.030009 1_455
Ga5 O13 2.013595 1_555
Ga5 O10 2.013712 1_554
Ga5 O9 2.021169 1_554
Ga5 O1 2.021420 1_555
Ga5 O5 2.023381 1_554
Ga5 O3 2.023464 1_555
Ga6 O12 2.014709 1_545
Ga6 O6 2.019344 1_455
Ga6 O3 2.019808 1_555
Ga6 O4 2.025901 1_545
Ga6 O14 2.025907 1_545
Ga6 O10 2.040258 1_554
Ga7 O11 2.014442 1_555
Ga7 O15 2.019129 1_655
Ga7 O5 2.019705 1_555
Ga7 O7 2.025292 1_555
Ga7 O2 2.025485 1_555
Ga7 O13 2.040098 1_556
Ni0 O5 1.992024 1_555
Ni0 O15 1.992533 1_555
Ni0 O13 2.003213 1_555
Ni0 O8 2.015053 1_555
Ni1 O3 1.992271 1_555
Ni1 O6 1.992761 1_555
Ni1 O10 2.003166 1_555
Ni1 O0 2.015437 1_545
Ni2 O12 1.987116 1_645
Ni2 O14 1.992513 1_546
Ni2 O9 1.992631 1_555
Ni2 O4 1.992990 1_646
Ni3 O11 1.985871 1_455
Ni3 O7 1.992383 1_554
Ni3 O2 1.992739 1_454
Ni3 O1 1.993498 1_555
