# generated using pymatgen
data_Co2SbAs
_symmetry_space_group_name_H-M   'P 1'
_cell_length_a   3.72624429
_cell_length_b   3.72667700
_cell_length_c   5.12864700
_cell_angle_alpha   90.00000000
_cell_angle_beta   90.00000000
_cell_angle_gamma   59.99614963
_symmetry_Int_Tables_number   1
_chemical_formula_structural   Co2SbAs
_chemical_formula_sum   'Co2 Sb1 As1'
_cell_volume   61.67507188
_cell_formula_units_Z   1
loop_
 _symmetry_equiv_pos_site_id
 _symmetry_equiv_pos_as_xyz
  1  'x, y, z'
loop_
 _atom_site_type_symbol
 _atom_site_label
 _atom_site_symmetry_multiplicity
 _atom_site_fract_x
 _atom_site_fract_y
 _atom_site_fract_z
 _atom_site_occupancy
  Co  Co0  1  0.99997900  0.00001100  0.51366400  1
  Co  Co1  1  0.99997900  0.00001100  0.98633600  1
  Sb  Sb0  1  0.66669500  0.66665300  0.25000000  1
  As  As0  1  0.33334800  0.33332600  0.75000000  1
loop_
_geom_bond_atom_site_label_1
_geom_bond_atom_site_label_2
_geom_bond_distance
_geom_bond_site_symmetry_2
Co0 Co1 2.424168 1_555
Co0 Sb0 2.541098 1_645
Co0 Sb0 2.541107 1_555
Co0 Sb0 2.541107 1_545
Co0 Co1 2.704479 1_554
Co1 Sb0 2.541098 1_646
Co1 Sb0 2.541107 1_556
Co1 Sb0 2.541107 1_546
As0 Co0 2.469128 1_555
As0 Co1 2.469128 1_555
As0 Co0 2.469495 1_455
As0 Co1 2.469495 1_455
As0 Co1 2.469497 1_465
As0 Co0 2.469497 1_465
