# generated using pymatgen
data_LiTiFeF6
_symmetry_space_group_name_H-M   'P 1'
_cell_length_a   8.98125389
_cell_length_b   8.98125389
_cell_length_c   4.59876200
_cell_angle_alpha   90.00000000
_cell_angle_beta   90.00000000
_cell_angle_gamma   119.99999922
_symmetry_Int_Tables_number   1
_chemical_formula_structural   LiTiFeF6
_chemical_formula_sum   'Li3 Ti3 Fe3 F18'
_cell_volume   321.25176083
_cell_formula_units_Z   3
loop_
 _symmetry_equiv_pos_site_id
 _symmetry_equiv_pos_as_xyz
  1  'x, y, z'
loop_
 _atom_site_type_symbol
 _atom_site_label
 _atom_site_symmetry_multiplicity
 _atom_site_fract_x
 _atom_site_fract_y
 _atom_site_fract_z
 _atom_site_occupancy
  Li  Li0  1  0.69408700  0.00000000  0.50000000  1
  Li  Li1  1  0.00000000  0.69408700  0.50000000  1
  Li  Li2  1  0.30591300  0.30591300  0.50000000  1
  Ti  Ti0  1  0.35205300  0.00000000  0.00000000  1
  Ti  Ti1  1  0.00000000  0.35205300  0.00000000  1
  Ti  Ti2  1  0.64794700  0.64794700  0.00000000  1
  Fe  Fe0  1  0.00000000  0.00000000  0.00000000  1
  Fe  Fe1  1  0.33333300  0.66666700  0.48952300  1
  Fe  Fe2  1  0.66666700  0.33333300  0.51047700  1
  F  F0  1  0.10445400  0.56367600  0.25706700  1
  F  F1  1  0.43632400  0.54077800  0.25706700  1
  F  F2  1  0.56367600  0.10445400  0.74293300  1
  F  F3  1  0.45922200  0.89554600  0.25706700  1
  F  F4  1  0.54077800  0.43632400  0.74293300  1
  F  F5  1  0.89554600  0.45922200  0.74293300  1
  F  F6  1  0.10548100  0.23287800  0.22830000  1
  F  F7  1  0.76712200  0.87260300  0.22830000  1
  F  F8  1  0.23287800  0.10548100  0.77170000  1
  F  F9  1  0.12739700  0.89451900  0.22830000  1
  F  F10  1  0.87260300  0.76712200  0.77170000  1
  F  F11  1  0.89451900  0.12739700  0.77170000  1
  F  F12  1  0.44110900  0.20079900  0.25724600  1
  F  F13  1  0.79920100  0.24031000  0.25724600  1
  F  F14  1  0.20079900  0.44110900  0.74275400  1
  F  F15  1  0.75969000  0.55889100  0.25724600  1
  F  F16  1  0.24031000  0.79920100  0.74275400  1
  F  F17  1  0.55889100  0.75969000  0.74275400  1
loop_
_geom_bond_atom_site_label_1
_geom_bond_atom_site_label_2
_geom_bond_distance
_geom_bond_site_symmetry_2
F0 Ti1 2.026585 1_555
F0 Fe1 2.079071 1_555
F0 Li1 2.144487 1_555
F1 Ti2 2.026585 1_555
F1 Fe1 2.079078 1_555
F1 Li2 2.144487 1_555
F2 Ti0 2.026585 1_556
F2 Fe2 2.079071 1_555
F2 Li0 2.144487 1_555
F3 Ti0 2.026585 1_565
F3 Fe1 2.079071 1_555
F3 Li0 2.144487 1_565
F4 Ti2 2.026585 1_556
F4 Fe2 2.079078 1_555
F4 Li2 2.144487 1_555
F5 Ti1 2.026585 1_656
F5 Fe2 2.079071 1_555
F5 Li1 2.144487 1_655
F6 Li2 2.012749 1_555
F6 Ti1 2.039455 1_555
F6 Fe0 2.095916 1_555
F7 Li0 2.012748 1_565
F7 Ti2 2.039455 1_555
F7 Fe0 2.095916 1_665
F8 Li2 2.012749 1_555
F8 Ti0 2.039455 1_556
F8 Fe0 2.095916 1_556
F9 Li1 2.012749 1_555
F9 Ti0 2.039455 1_565
F9 Fe0 2.095916 1_565
F10 Li1 2.012748 1_655
F10 Ti2 2.039455 1_556
F10 Fe0 2.095916 1_666
F11 Li0 2.012749 1_555
F11 Ti1 2.039455 1_656
F11 Fe0 2.095916 1_656
F12 Ti0 1.961928 1_555
F12 Fe2 2.113181 1_555
F12 Li2 2.181323 1_555
F13 Ti1 1.961928 1_655
F13 Fe2 2.113175 1_555
F13 Li0 2.181323 1_555
F14 Ti1 1.961928 1_556
F14 Fe1 2.113181 1_555
F14 Li2 2.181323 1_555
F15 Ti2 1.961928 1_555
F15 Fe2 2.113182 1_555
F15 Li1 2.181323 1_655
F16 Ti0 1.961928 1_566
F16 Fe1 2.113175 1_555
F16 Li1 2.181323 1_555
F17 Ti2 1.961928 1_556
F17 Fe1 2.113182 1_555
F17 Li0 2.181323 1_565
