# generated using pymatgen
data_TiZn(GeO3)2
_symmetry_space_group_name_H-M   'P 1'
_cell_length_a   8.52313700
_cell_length_b   5.35399900
_cell_length_c   12.14343324
_cell_angle_alpha   79.13821550
_cell_angle_beta   90.00000000
_cell_angle_gamma   90.00000000
_symmetry_Int_Tables_number   1
_chemical_formula_structural   TiZn(GeO3)2
_chemical_formula_sum   'Ti4 Zn4 Ge8 O24'
_cell_volume   544.21204997
_cell_formula_units_Z   4
loop_
 _symmetry_equiv_pos_site_id
 _symmetry_equiv_pos_as_xyz
  1  'x, y, z'
loop_
 _atom_site_type_symbol
 _atom_site_label
 _atom_site_symmetry_multiplicity
 _atom_site_fract_x
 _atom_site_fract_y
 _atom_site_fract_z
 _atom_site_occupancy
  Ti  Ti0  1  0.34357100  0.67234300  0.29055900  1
  Ti  Ti1  1  0.84357100  0.82765700  0.70944100  1
  Ti  Ti2  1  0.65642900  0.32765700  0.70944100  1
  Ti  Ti3  1  0.15642900  0.17234300  0.29055900  1
  Zn  Zn0  1  0.54852900  0.19441600  0.24638400  1
  Zn  Zn1  1  0.04852900  0.30558400  0.75361600  1
  Zn  Zn2  1  0.45147100  0.80558400  0.75361600  1
  Zn  Zn3  1  0.95147100  0.69441600  0.24638400  1
  Ge  Ge0  1  0.63477400  0.74562200  0.08196000  1
  Ge  Ge1  1  0.13477400  0.75437800  0.91804000  1
  Ge  Ge2  1  0.36522600  0.25437800  0.91804000  1
  Ge  Ge3  1  0.86522600  0.24562200  0.08196000  1
  Ge  Ge4  1  0.65285800  0.73003000  0.46749800  1
  Ge  Ge5  1  0.15285800  0.76997000  0.53250200  1
  Ge  Ge6  1  0.34714200  0.26997000  0.53250200  1
  Ge  Ge7  1  0.84714200  0.23003000  0.46749800  1
  O  O0  1  0.70939500  0.04934300  0.40095200  1
  O  O1  1  0.20939500  0.45065700  0.59904800  1
  O  O2  1  0.29060500  0.95065700  0.59904800  1
  O  O3  1  0.79060500  0.54934300  0.40095200  1
  O  O4  1  0.68589300  0.03955800  0.14797300  1
  O  O5  1  0.18589300  0.46044200  0.85202700  1
  O  O6  1  0.31410700  0.96044200  0.85202700  1
  O  O7  1  0.81410700  0.53955800  0.14797300  1
  O  O8  1  0.03817700  0.21594100  0.42086700  1
  O  O9  1  0.53817700  0.28405900  0.57913300  1
  O  O10  1  0.96182300  0.78405900  0.57913300  1
  O  O11  1  0.46182300  0.71594100  0.42086700  1
  O  O12  1  0.99637600  0.06557500  0.20576300  1
  O  O13  1  0.49637600  0.43442500  0.79423700  1
  O  O14  1  0.00362400  0.93442500  0.79423700  1
  O  O15  1  0.50362400  0.56557500  0.20576300  1
  O  O16  1  0.66128100  0.98153300  0.77456700  1
  O  O17  1  0.16128100  0.51846700  0.22543300  1
  O  O18  1  0.33871900  0.01846700  0.22543300  1
  O  O19  1  0.83871900  0.48153300  0.77456700  1
  O  O20  1  0.65913300  0.71034300  0.61359200  1
  O  O21  1  0.15913300  0.78965700  0.38640800  1
  O  O22  1  0.34086700  0.28965700  0.38640800  1
  O  O23  1  0.84086700  0.21034300  0.61359200  1
loop_
_geom_bond_atom_site_label_1
_geom_bond_atom_site_label_2
_geom_bond_distance
_geom_bond_site_symmetry_2
Ge0 O4 1.945384 1_565
Ge0 O7 1.965384 1_555
Ge0 O15 1.973004 1_555
Ge1 O5 1.945384 1_555
Ge1 O6 1.965384 1_555
Ge1 O14 1.973004 1_555
Ge2 O6 1.945384 1_545
Ge2 O5 1.965384 1_555
Ge2 O13 1.973004 1_555
Ge3 O7 1.945384 1_555
Ge3 O4 1.965384 1_555
Ge3 O12 1.973004 1_555
Ge4 O11 1.730182 1_555
Ge4 O20 1.758086 1_555
Ge4 O3 1.806064 1_555
Ge4 O0 1.813088 1_565
Ge5 O10 1.730182 1_455
Ge5 O21 1.758086 1_555
Ge5 O2 1.806064 1_555
Ge5 O1 1.813088 1_555
Ge6 O9 1.730182 1_555
Ge6 O22 1.758086 1_555
Ge6 O1 1.806064 1_555
Ge6 O2 1.813088 1_545
Ge7 O8 1.730182 1_655
Ge7 O23 1.758086 1_555
Ge7 O0 1.806064 1_555
Ge7 O3 1.813088 1_555
O0 Zn0 2.335977 1_555
O1 Zn1 2.335977 1_555
O2 Zn2 2.335977 1_555
O3 Zn3 2.335977 1_555
O4 Zn0 1.964610 1_555
O5 Zn1 1.964610 1_555
O6 Zn2 1.964610 1_555
O7 Zn3 1.964610 1_555
O8 Ti3 1.927034 1_555
O9 Ti2 1.927034 1_555
O10 Ti1 1.927034 1_555
O11 Ti0 1.927034 1_555
O12 Ti3 1.862749 1_655
O12 Zn3 1.992305 1_545
O13 Ti2 1.862749 1_555
O13 Zn2 1.992305 1_555
O14 Ti1 1.862749 1_455
O14 Zn1 1.992305 1_565
O15 Ti0 1.862749 1_555
O15 Zn0 1.992305 1_555
O16 Ti2 1.873225 1_565
O16 Ti1 1.990896 1_555
O16 Zn2 2.059193 1_555
O17 Ti3 1.873225 1_555
O17 Ti0 1.990896 1_555
O17 Zn3 2.059193 1_455
O18 Ti0 1.873225 1_545
O18 Ti3 1.990896 1_555
O18 Zn0 2.059193 1_555
O19 Ti1 1.873225 1_555
O19 Ti2 1.990896 1_555
O19 Zn1 2.059193 1_655
O20 Ti1 2.120362 1_555
O20 Ti2 2.157427 1_555
O21 Ti0 2.120362 1_555
O21 Ti3 2.157427 1_565
O22 Ti3 2.120362 1_555
O22 Ti0 2.157427 1_555
O23 Ti2 2.120362 1_555
O23 Ti1 2.157427 1_545
