# generated using pymatgen
data_VAg2HgO4
_symmetry_space_group_name_H-M   'P 1'
_cell_length_a   11.17030840
_cell_length_b   11.17030840
_cell_length_c   11.17030840
_cell_angle_alpha   108.94322421
_cell_angle_beta   108.94322421
_cell_angle_gamma   110.53245412
_symmetry_Int_Tables_number   1
_chemical_formula_structural   VAg2HgO4
_chemical_formula_sum   'V8 Ag16 Hg8 O32'
_cell_volume   1072.65881163
_cell_formula_units_Z   8
loop_
 _symmetry_equiv_pos_site_id
 _symmetry_equiv_pos_as_xyz
  1  'x, y, z'
loop_
 _atom_site_type_symbol
 _atom_site_label
 _atom_site_symmetry_multiplicity
 _atom_site_fract_x
 _atom_site_fract_y
 _atom_site_fract_z
 _atom_site_occupancy
  V  V0  1  0.37376300  0.12177600  0.45894100  1
  V  V1  1  0.66283400  0.91482200  0.54105900  1
  V  V2  1  0.08517800  0.62623700  0.74801300  1
  V  V3  1  0.87623700  0.83517800  0.24801300  1
  V  V4  1  0.87822400  0.33716600  0.25198700  1
  V  V5  1  0.58716600  0.62822400  0.75198700  1
  V  V6  1  0.16482200  0.41283400  0.04105900  1
  V  V7  1  0.37177600  0.12376300  0.95894100  1
  Ag  Ag0  1  0.18221200  0.14902300  0.15856500  1
  Ag  Ag1  1  0.99045800  0.02364800  0.84143500  1
  Ag  Ag2  1  0.97635200  0.81778800  0.96681000  1
  Ag  Ag3  1  0.06778800  0.72635200  0.46681000  1
  Ag  Ag4  1  0.85097700  0.00954200  0.03319000  1
  Ag  Ag5  1  0.25954200  0.60097700  0.53319000  1
  Ag  Ag6  1  0.27364800  0.74045800  0.34143500  1
  Ag  Ag7  1  0.39902300  0.93221200  0.65856500  1
  Ag  Ag8  1  0.46910500  0.52513400  0.36976300  1
  Ag  Ag9  1  0.15537100  0.09934300  0.63023700  1
  Ag  Ag10  1  0.90065700  0.53089500  0.05602800  1
  Ag  Ag11  1  0.78089500  0.65065700  0.55602800  1
  Ag  Ag12  1  0.47486600  0.84462900  0.94397200  1
  Ag  Ag13  1  0.09462900  0.22486600  0.44397200  1
  Ag  Ag14  1  0.34934300  0.90537100  0.13023700  1
  Ag  Ag15  1  0.77513400  0.21910500  0.86976300  1
  Hg  Hg0  1  0.59564400  0.34030000  0.36385200  1
  Hg  Hg1  1  0.97644800  0.23179200  0.63614800  1
  Hg  Hg2  1  0.76820800  0.40435600  0.74465600  1
  Hg  Hg3  1  0.65435600  0.51820800  0.24465600  1
  Hg  Hg4  1  0.65970000  0.02355200  0.25534400  1
  Hg  Hg5  1  0.27355200  0.40970000  0.75534400  1
  Hg  Hg6  1  0.48179200  0.72644800  0.13614800  1
  Hg  Hg7  1  0.59030000  0.34564400  0.86385200  1
  O  O0  1  0.51138600  0.75673300  0.37894100  1
  O  O1  1  0.37779200  0.13244500  0.62105900  1
  O  O2  1  0.86755500  0.48861400  0.24534700  1
  O  O3  1  0.73861400  0.61755500  0.74534700  1
  O  O4  1  0.24326700  0.62220800  0.75465300  1
  O  O5  1  0.87220800  0.99326700  0.25465300  1
  O  O6  1  0.38244500  0.12779200  0.12105900  1
  O  O7  1  0.00673300  0.26138600  0.87894100  1
  O  O8  1  0.23318000  0.36183900  0.16760300  1
  O  O9  1  0.19423600  0.06557700  0.83239700  1
  O  O10  1  0.93442300  0.76682000  0.12865900  1
  O  O11  1  0.01682000  0.68442300  0.62865900  1
  O  O12  1  0.63816100  0.80576400  0.87134100  1
  O  O13  1  0.05576400  0.38816100  0.37134100  1
  O  O14  1  0.31557700  0.94423600  0.33239700  1
  O  O15  1  0.61183900  0.98318000  0.66760300  1
  O  O16  1  0.25329400  0.17323500  0.37982600  1
  O  O17  1  0.79340900  0.87346800  0.62017400  1
  O  O18  1  0.12653200  0.74670600  0.91994100  1
  O  O19  1  0.99670600  0.87653200  0.41994100  1
  O  O20  1  0.82676500  0.20659100  0.08005900  1
  O  O21  1  0.45659100  0.57676500  0.58005900  1
  O  O22  1  0.12346800  0.54340900  0.12017400  1
  O  O23  1  0.42323500  0.00329400  0.87982600  1
  O  O24  1  0.55459500  0.24172400  0.49947400  1
  O  O25  1  0.74224900  0.05512000  0.50052600  1
  O  O26  1  0.94488000  0.44540500  0.68712900  1
  O  O27  1  0.69540500  0.69488000  0.18712900  1
  O  O28  1  0.75827600  0.25775100  0.31287100  1
  O  O29  1  0.50775100  0.50827600  0.81287100  1
  O  O30  1  0.30512000  0.49224900  0.00052600  1
  O  O31  1  0.49172400  0.30459500  0.99947400  1
loop_
_geom_bond_atom_site_label_1
_geom_bond_atom_site_label_2
_geom_bond_distance
_geom_bond_site_symmetry_2
Ag0 O8 2.200676 1_555
Ag0 O16 2.225625 1_555
Ag0 O6 2.480002 1_555
Ag1 O9 2.200677 1_655
Ag1 O17 2.225625 1_545
Ag1 O7 2.479991 1_655
Ag2 O10 2.200682 1_556
Ag2 O18 2.225631 1_655
Ag2 O3 2.479993 1_555
Ag3 O11 2.200682 1_555
Ag3 O19 2.225631 1_455
Ag3 O2 2.479993 1_455
Ag4 O12 2.200677 1_544
Ag4 O20 2.225625 1_555
Ag4 O5 2.479991 1_545
Ag5 O13 2.200677 1_555
Ag5 O21 2.225625 1_555
Ag5 O4 2.479991 1_555
Ag6 O14 2.200677 1_555
Ag6 O22 2.225625 1_555
Ag6 O0 2.479991 1_555
Ag7 O15 2.200676 1_555
Ag7 O23 2.225625 1_565
Ag7 O1 2.480002 1_565
Ag8 O21 2.293563 1_555
Ag8 O8 2.336981 1_555
Ag8 O0 2.421896 1_555
Ag9 O19 2.293568 1_445
Ag9 O9 2.336987 1_555
Ag9 O1 2.421898 1_555
Ag10 O22 2.293573 1_655
Ag10 O10 2.336977 1_555
Ag10 O2 2.421903 1_555
Ag11 O17 2.293573 1_555
Ag11 O11 2.336977 1_655
Ag11 O3 2.421903 1_555
Ag12 O23 2.293568 1_565
Ag12 O12 2.336987 1_555
Ag12 O4 2.421898 1_555
Ag13 O16 2.293568 1_555
Ag13 O13 2.336987 1_555
Ag13 O5 2.421898 1_445
Ag14 O18 2.293568 1_554
Ag14 O14 2.336987 1_555
Ag14 O6 2.421898 1_565
Ag15 O20 2.293563 1_556
Ag15 O15 2.336981 1_545
Ag15 O7 2.421896 1_655
Hg0 O24 2.213065 1_555
Hg0 O28 2.445525 1_555
Hg0 O6 2.514526 1_555
Hg1 O25 2.213075 1_555
Hg1 O26 2.445525 1_555
Hg1 O7 2.514526 1_655
Hg2 O26 2.213075 1_555
Hg2 O24 2.445531 1_555
Hg2 O3 2.514526 1_555
Hg3 O27 2.213075 1_555
Hg3 O31 2.445531 1_554
Hg3 O2 2.514526 1_555
Hg4 O28 2.213075 1_555
Hg4 O25 2.445535 1_555
Hg4 O5 2.514526 1_545
Hg5 O29 2.213075 1_555
Hg5 O30 2.445535 1_556
Hg5 O4 2.514526 1_555
Hg6 O30 2.213075 1_555
Hg6 O27 2.445525 1_555
Hg6 O0 2.514526 1_555
Hg7 O31 2.213065 1_555
Hg7 O29 2.445525 1_555
Hg7 O1 2.514526 1_555
O0 V1 1.760343 1_555
O1 V0 1.760346 1_555
O2 V4 1.760335 1_555
O3 V5 1.760335 1_555
O4 V2 1.760346 1_555
O5 V3 1.760346 1_555
O6 V7 1.760346 1_554
O7 V6 1.760343 1_556
O8 V6 1.741473 1_555
O9 V7 1.741482 1_555
O10 V3 1.741482 1_555
O11 V2 1.741482 1_555
O12 V5 1.741485 1_555
O13 V4 1.741485 1_455
O14 V0 1.741482 1_565
O15 V1 1.741473 1_555
O16 V0 1.738546 1_555
O17 V1 1.738555 1_555
O18 V2 1.738546 1_555
O19 V3 1.738546 1_555
O20 V4 1.738550 1_555
O21 V5 1.738550 1_555
O22 V6 1.738555 1_555
O23 V7 1.738546 1_555
O24 V0 1.787244 1_555
O25 V1 1.787235 1_545
O26 V2 1.787240 1_655
O27 V3 1.787240 1_555
O28 V4 1.787244 1_555
O29 V5 1.787244 1_555
O30 V6 1.787235 1_555
O31 V7 1.787244 1_555
