# generated using pymatgen
data_Ca2Si5Pt3
_symmetry_space_group_name_H-M   'P 1'
_cell_length_a   8.20953869
_cell_length_b   8.21335044
_cell_length_c   8.20858898
_cell_angle_alpha   137.58420219
_cell_angle_beta   104.51347893
_cell_angle_gamma   90.69142472
_symmetry_Int_Tables_number   1
_chemical_formula_structural   Ca2Si5Pt3
_chemical_formula_sum   'Ca4 Si10 Pt6'
_cell_volume   344.56220700
_cell_formula_units_Z   2
loop_
 _symmetry_equiv_pos_site_id
 _symmetry_equiv_pos_as_xyz
  1  'x, y, z'
loop_
 _atom_site_type_symbol
 _atom_site_label
 _atom_site_symmetry_multiplicity
 _atom_site_fract_x
 _atom_site_fract_y
 _atom_site_fract_z
 _atom_site_occupancy
  Ca  Ca0  1  0.63754290  0.37074937  0.26630467  1
  Ca  Ca1  1  0.36245748  0.62925069  0.73369543  1
  Ca  Ca2  1  0.10426425  0.87095181  0.23332661  1
  Ca  Ca3  1  0.89573577  0.12904822  0.76667295  1
  Si  Si0  1  0.46213556  0.11150918  0.35033909  1
  Si  Si1  1  0.53786466  0.88849097  0.64966097  1
  Si  Si2  1  0.76100661  0.61174305  0.14955999  1
  Si  Si3  1  0.23899258  0.38825721  0.85043945  1
  Si  Si4  1  0.26993648  0.51994845  0.25000748  1
  Si  Si5  1  0.73006374  0.48005212  0.74999302  1
  Si  Si6  1  0.72968194  0.97968994  0.24977037  1
  Si  Si7  1  0.27031863  0.02031019  0.75022970  1
  Si  Si8  1  0.00023879  0.25039630  0.25030161  1
  Si  Si9  1  0.99976226  0.74960454  0.74969890  1
  Pt  Pt0  1  0.49989509  0.24972393  0.74966559  1
  Pt  Pt1  1  0.50010025  0.75027476  0.25033218  1
  Pt  Pt2  1  0.25134266  0.13611110  0.11547188  1
  Pt  Pt3  1  0.74865861  0.86388980  0.88452864  1
  Pt  Pt4  1  0.02075874  0.63621586  0.38475661  1
  Pt  Pt5  1  0.97924199  0.36378550  0.61524388  1
loop_
_geom_bond_atom_site_label_1
_geom_bond_atom_site_label_2
_geom_bond_distance
_geom_bond_site_symmetry_2
Ca0 Si2 3.017080 1_555
Ca0 Pt2 3.108221 1_555
Ca0 Si0 3.110568 1_555
Ca0 Si9 3.146702 1_555
Ca0 Si8 3.152085 1_655
Ca0 Si1 3.197223 1_544
Ca0 Pt3 3.198683 1_555
Ca0 Pt3 3.200782 1_544
Ca0 Si1 3.204884 1_555
Ca0 Si5 3.218070 1_555
Ca0 Si6 3.220771 1_545
Ca0 Si7 3.271822 1_554
Ca0 Si4 3.279651 1_555
Ca0 Pt4 3.281441 1_655
Ca0 Pt0 3.405378 1_554
Ca0 Pt1 3.409006 1_555
Ca0 Pt5 3.506441 1_555
Ca1 Si3 3.017078 1_555
Ca1 Pt3 3.108229 1_555
Ca1 Si1 3.110568 1_555
Ca1 Si8 3.146697 1_555
Ca1 Si9 3.152082 1_455
Ca1 Si0 3.197223 1_566
Ca1 Pt2 3.198682 1_555
Ca1 Pt2 3.200782 1_566
Ca1 Si0 3.204883 1_555
Ca1 Si4 3.218070 1_555
Ca1 Si7 3.220772 1_565
Ca1 Si6 3.271823 1_556
Ca1 Si5 3.279649 1_555
Ca1 Pt5 3.281435 1_455
Ca1 Pt1 3.405366 1_556
Ca1 Pt0 3.408991 1_555
Ca1 Pt4 3.506444 1_555
Ca2 Si0 3.016835 1_565
Ca2 Pt4 3.109004 1_555
Ca2 Si2 3.109485 1_455
Ca2 Si9 3.149540 1_454
Ca2 Si8 3.153419 1_565
Ca2 Pt5 3.198081 1_454
Ca2 Si3 3.199262 1_565
Ca2 Pt5 3.200371 1_465
Ca2 Si3 3.204543 1_554
Ca2 Si5 3.214196 1_454
Ca2 Si6 3.220050 1_455
Ca2 Si7 3.277450 1_565
Ca2 Si4 3.280845 1_555
Ca2 Pt2 3.281732 1_565
Ca2 Pt0 3.402757 1_565
Ca2 Pt1 3.408322 1_555
Ca2 Pt3 3.504977 1_454
Ca3 Si1 3.016834 1_545
Ca3 Pt5 3.109009 1_555
Ca3 Si3 3.109481 1_655
Ca3 Si8 3.149543 1_656
Ca3 Si9 3.153420 1_545
Ca3 Pt4 3.198086 1_656
Ca3 Si2 3.199262 1_545
Ca3 Pt4 3.200368 1_645
Ca3 Si2 3.204548 1_556
Ca3 Si4 3.214200 1_656
Ca3 Si7 3.220054 1_655
Ca3 Si6 3.277446 1_545
Ca3 Si5 3.280843 1_555
Ca3 Pt3 3.281728 1_545
Ca3 Pt1 3.402786 1_545
Ca3 Pt0 3.408355 1_555
Ca3 Pt2 3.504984 1_656
Si0 Si5 2.514583 1_555
Si0 Si6 2.514857 1_545
Si1 Si4 2.514581 1_555
Si1 Si7 2.514854 1_565
Si2 Si5 2.515882 1_554
Si2 Si6 2.515940 1_555
Si3 Si4 2.515887 1_556
Si3 Si7 2.515946 1_555
Pt0 Si0 2.473323 1_555
Pt0 Si2 2.473693 1_556
Pt0 Si3 2.474617 1_555
Pt0 Si1 2.475505 1_545
Pt0 Si7 2.652196 1_555
Pt0 Si5 2.655742 1_555
Pt1 Si1 2.473326 1_555
Pt1 Si3 2.473670 1_554
Pt1 Si2 2.474642 1_555
Pt1 Si0 2.475497 1_565
Pt1 Si6 2.652222 1_555
Pt1 Si4 2.655719 1_555
Pt2 Si0 2.379885 1_555
Pt2 Si7 2.438210 1_554
Pt2 Si4 2.438228 1_555
Pt2 Si8 2.451912 1_555
Pt2 Si9 2.453213 1_444
Pt3 Si1 2.379888 1_555
Pt3 Si6 2.438212 1_556
Pt3 Si5 2.438230 1_555
Pt3 Si9 2.451910 1_555
Pt3 Si8 2.453212 1_666
Pt4 Si2 2.380807 1_455
Pt4 Si7 2.436981 1_565
Pt4 Si4 2.437543 1_555
Pt4 Si9 2.452420 1_455
Pt4 Si8 2.453175 1_555
Pt5 Si3 2.380798 1_655
Pt5 Si6 2.436986 1_545
Pt5 Si5 2.437547 1_555
Pt5 Si8 2.452419 1_655
Pt5 Si9 2.453171 1_555
