# generated using pymatgen
data_Pr3Tl5
_symmetry_space_group_name_H-M   'P 1'
_cell_length_a   6.67339843
_cell_length_b   6.67339843
_cell_length_c   10.65717454
_cell_angle_alpha   90.00000000
_cell_angle_beta   90.00000000
_cell_angle_gamma   101.84186147
_symmetry_Int_Tables_number   1
_chemical_formula_structural   Pr3Tl5
_chemical_formula_sum   'Pr6 Tl10'
_cell_volume   464.50847185
_cell_formula_units_Z   2
loop_
 _symmetry_equiv_pos_site_id
 _symmetry_equiv_pos_as_xyz
  1  'x, y, z'
loop_
 _atom_site_type_symbol
 _atom_site_label
 _atom_site_symmetry_multiplicity
 _atom_site_fract_x
 _atom_site_fract_y
 _atom_site_fract_z
 _atom_site_occupancy
  Pr  Pr0  1  0.62892108  0.62892108  0.25000000  1
  Pr  Pr1  1  0.37107892  0.37107892  0.75000000  1
  Pr  Pr2  1  0.79673201  0.20326799  0.50000000  1
  Pr  Pr3  1  0.79673201  0.20326799  -0.00000000  1
  Pr  Pr4  1  0.20326799  0.79673201  0.50000000  1
  Pr  Pr5  1  0.20326799  0.79673201  -0.00000000  1
  Tl  Tl0  1  0.00957541  0.00957541  0.25000000  1
  Tl  Tl1  1  0.99042459  0.99042459  0.75000000  1
  Tl  Tl2  1  0.30701330  0.30701330  0.04543482  1
  Tl  Tl3  1  0.69298670  0.69298670  0.95456518  1
  Tl  Tl4  1  0.30701330  0.30701330  0.45456518  1
  Tl  Tl5  1  0.69298670  0.69298670  0.54543482  1
  Tl  Tl6  1  0.07530193  0.50669970  0.25000000  1
  Tl  Tl7  1  0.49330030  0.92469807  0.75000000  1
  Tl  Tl8  1  0.92469807  0.49330030  0.75000000  1
  Tl  Tl9  1  0.50669970  0.07530193  0.25000000  1
loop_
_geom_bond_atom_site_label_1
_geom_bond_atom_site_label_2
_geom_bond_distance
_geom_bond_site_symmetry_2
Pr0 Tl5 3.194309 1_555
Pr0 Tl3 3.194309 1_554
Pr0 Tl0 3.202718 1_665
Pr0 Tl9 3.245944 1_565
Pr0 Tl6 3.245944 1_655
Pr0 Tl2 3.476842 1_555
Pr0 Tl4 3.476842 1_555
Pr0 Tl6 3.616350 1_555
Pr0 Tl9 3.616350 1_555
Pr1 Tl4 3.194309 1_555
Pr1 Tl2 3.194309 1_556
Pr1 Tl1 3.202718 1_445
Pr1 Tl7 3.245944 1_545
Pr1 Tl8 3.245944 1_455
Pr1 Tl5 3.476842 1_555
Pr1 Tl3 3.476842 1_555
Pr1 Tl7 3.616350 1_555
Pr1 Tl8 3.616350 1_555
Pr2 Tl8 3.300836 1_555
Pr2 Tl9 3.300836 1_555
Pr2 Tl4 3.367834 1_655
Pr2 Tl5 3.367834 1_545
Pr2 Tl1 3.397098 1_545
Pr2 Tl0 3.397098 1_655
Pr2 Tl5 3.510386 1_555
Pr2 Tl4 3.510386 1_555
Pr2 Tl6 3.620733 1_655
Pr2 Tl7 3.620733 1_545
Pr3 Tl8 3.300836 1_554
Pr3 Tl9 3.300836 1_555
Pr3 Tl2 3.367834 1_655
Pr3 Tl3 3.367834 1_544
Pr3 Tl0 3.397098 1_655
Pr3 Tl1 3.397098 1_544
Pr3 Tl2 3.510386 1_555
Pr3 Tl3 3.510386 1_554
Pr3 Tl6 3.620733 1_655
Pr3 Tl7 3.620733 1_544
Pr4 Tl7 3.300836 1_555
Pr4 Tl6 3.300836 1_555
Pr4 Tl4 3.367834 1_565
Pr4 Tl5 3.367834 1_455
Pr4 Tl1 3.397098 1_455
Pr4 Tl0 3.397098 1_565
Pr4 Tl5 3.510386 1_555
Pr4 Tl4 3.510386 1_555
Pr4 Tl8 3.620733 1_455
Pr4 Tl9 3.620733 1_565
Pr5 Tl7 3.300836 1_554
Pr5 Tl6 3.300836 1_555
Pr5 Tl2 3.367834 1_565
Pr5 Tl3 3.367834 1_454
Pr5 Tl1 3.397098 1_454
Pr5 Tl0 3.397098 1_565
Pr5 Tl2 3.510386 1_555
Pr5 Tl3 3.510386 1_554
Pr5 Tl8 3.620733 1_454
Pr5 Tl9 3.620733 1_565
Tl0 Tl9 3.255923 1_555
Tl0 Tl6 3.255923 1_555
Tl0 Tl2 3.318972 1_555
Tl0 Tl4 3.318972 1_555
Tl0 Tl6 3.472536 1_545
Tl0 Tl9 3.472536 1_455
Tl1 Tl8 3.255923 1_555
Tl1 Tl7 3.255923 1_555
Tl1 Tl5 3.318972 1_555
Tl1 Tl3 3.318972 1_555
Tl1 Tl7 3.472536 1_655
Tl1 Tl8 3.472536 1_565
Tl2 Tl9 3.124952 1_555
Tl2 Tl6 3.124952 1_555
Tl2 Tl3 3.388789 1_554
Tl3 Tl7 3.124952 1_555
Tl3 Tl8 3.124952 1_555
Tl4 Tl9 3.124952 1_555
Tl4 Tl6 3.124952 1_555
Tl4 Tl5 3.388789 1_555
Tl5 Tl7 3.124952 1_555
Tl5 Tl8 3.124952 1_555
