# generated using pymatgen
data_BaH6C2SNO5
_symmetry_space_group_name_H-M   'P 1'
_cell_length_a   6.96439500
_cell_length_b   6.98622704
_cell_length_c   10.13791154
_cell_angle_alpha   85.61120509
_cell_angle_beta   107.59387404
_cell_angle_gamma   112.66687829
_symmetry_Int_Tables_number   1
_chemical_formula_structural   BaH6C2SNO5
_chemical_formula_sum   'Ba2 H12 C4 S2 N2 O10'
_cell_volume   433.42072060
_cell_formula_units_Z   2
loop_
 _symmetry_equiv_pos_site_id
 _symmetry_equiv_pos_as_xyz
  1  'x, y, z'
loop_
 _atom_site_type_symbol
 _atom_site_label
 _atom_site_symmetry_multiplicity
 _atom_site_fract_x
 _atom_site_fract_y
 _atom_site_fract_z
 _atom_site_occupancy
  Ba  Ba0  1  0.80574700  0.69217300  0.49771400  1
  Ba  Ba1  1  0.19425300  0.30782700  0.50228600  1
  H  H0  1  0.59010900  0.64356100  0.77719200  1
  H  H1  1  0.40989100  0.35643900  0.22280800  1
  H  H2  1  0.66777600  0.45453200  0.79702700  1
  H  H3  1  0.33222400  0.54546800  0.20297300  1
  H  H4  1  0.93508500  0.95100500  0.20150200  1
  H  H5  1  0.06491500  0.04899500  0.79849800  1
  H  H6  1  0.75415900  0.02387200  0.21370800  1
  H  H7  1  0.24584100  0.97612800  0.78629200  1
  H  H8  1  0.75016600  0.34717700  0.25685600  1
  H  H9  1  0.24983400  0.65282300  0.74314400  1
  H  H10  1  0.95237400  0.54364100  0.24059500  1
  H  H11  1  0.04762600  0.45635900  0.75940500  1
  C  C0  1  0.60546200  0.10083300  0.50890100  1
  C  C1  1  0.39453800  0.89916700  0.49109900  1
  C  C2  1  0.66500400  0.02152800  0.86824700  1
  C  C3  1  0.33499600  0.97847200  0.13175300  1
  S  S0  1  0.87739000  0.23469800  0.92763100  1
  S  S1  1  0.12261000  0.76530200  0.07236900  1
  N  N0  1  0.51025500  0.86565500  0.82668400  1
  N  N1  1  0.48974500  0.13434500  0.17331600  1
  O  O0  1  0.58681200  0.27262700  0.51573600  1
  O  O1  1  0.41318800  0.72737300  0.48426400  1
  O  O2  1  0.77932400  0.07720700  0.51528100  1
  O  O3  1  0.22067600  0.92279300  0.48471900  1
  O  O4  1  0.60393500  0.53590900  0.72725600  1
  O  O5  1  0.39606500  0.46409100  0.27274400  1
  O  O6  1  0.87189300  0.98001500  0.26799400  1
  O  O7  1  0.12810700  0.01998500  0.73200600  1
  O  O8  1  0.88762500  0.45888600  0.30959500  1
  O  O9  1  0.11237500  0.54111400  0.69040500  1
loop_
_geom_bond_atom_site_label_1
_geom_bond_atom_site_label_2
_geom_bond_distance
_geom_bond_site_symmetry_2
Ba0 O3 2.751898 1_655
Ba0 O0 2.755207 1_555
Ba0 O2 2.788545 1_565
Ba0 O1 2.800208 1_555
Ba0 O9 2.896491 1_655
Ba0 O8 2.909983 1_555
Ba0 O6 2.982877 1_555
Ba0 O4 2.998056 1_555
Ba0 O5 2.999936 1_555
Ba0 O7 3.094003 1_665
Ba1 O2 2.751898 1_455
Ba1 O1 2.755207 1_555
Ba1 O3 2.788545 1_545
Ba1 O0 2.800208 1_555
Ba1 O8 2.896491 1_455
Ba1 O9 2.909983 1_555
Ba1 O7 2.982877 1_555
Ba1 O5 2.998056 1_555
Ba1 O4 2.999936 1_555
Ba1 O6 3.094003 1_445
H0 O4 0.987289 1_555
H1 O5 0.987289 1_555
H2 O4 0.982023 1_555
H3 O5 0.982023 1_555
H4 O6 0.978853 1_555
H5 O7 0.978853 1_555
H6 O6 0.981884 1_545
H7 O7 0.981884 1_565
H8 O8 0.994980 1_555
H9 O9 0.994980 1_555
H10 O8 0.982231 1_555
H11 O9 0.982231 1_555
C0 O0 1.265090 1_555
C0 O2 1.265950 1_555
C1 O1 1.265090 1_555
C1 O3 1.265950 1_555
C2 N0 1.189974 1_545
C2 S0 1.633784 1_555
C3 N1 1.189974 1_565
C3 S1 1.633784 1_555
