# generated using pymatgen
data_Te2MoWSe2
_symmetry_space_group_name_H-M   'P 1'
_cell_length_a   3.43761482
_cell_length_b   3.43761482
_cell_length_c   39.09831100
_cell_angle_alpha   90.00000000
_cell_angle_beta   90.00000000
_cell_angle_gamma   120.00001579
_symmetry_Int_Tables_number   1
_chemical_formula_structural   Te2MoWSe2
_chemical_formula_sum   'Te4 Mo2 W2 Se4'
_cell_volume   400.13172418
_cell_formula_units_Z   2
loop_
 _symmetry_equiv_pos_site_id
 _symmetry_equiv_pos_as_xyz
  1  'x, y, z'
loop_
 _atom_site_type_symbol
 _atom_site_label
 _atom_site_symmetry_multiplicity
 _atom_site_fract_x
 _atom_site_fract_y
 _atom_site_fract_z
 _atom_site_occupancy
  Te  Te0  1  0.00000000  0.00000000  0.32949700  1
  Te  Te1  1  0.00000000  0.00000000  0.70495800  1
  Te  Te2  1  0.00000000  0.00000000  0.23407200  1
  Te  Te3  1  0.00000000  0.00000000  0.61012000  1
  Mo  Mo0  1  0.00000000  0.00000000  0.09391700  1
  Mo  Mo1  1  0.33333300  0.66666700  0.65753600  1
  W  W0  1  0.00000000  0.00000000  0.46968500  1
  W  W1  1  0.33333300  0.66666700  0.28183100  1
  Se  Se0  1  0.33333300  0.66666700  0.05210500  1
  Se  Se1  1  0.33333300  0.66666700  0.42768800  1
  Se  Se2  1  0.33333300  0.66666700  0.13573200  1
  Se  Se3  1  0.33333300  0.66666700  0.51160700  1
loop_
_geom_bond_atom_site_label_1
_geom_bond_atom_site_label_2
_geom_bond_distance
_geom_bond_site_symmetry_2
Te0 W1 2.722552 1_545
Te0 W1 2.722553 1_555
Te0 W1 2.722553 1_445
Te2 W1 2.725042 1_545
Te2 W1 2.725044 1_445
Te2 W1 2.725044 1_555
Mo0 Se0 2.571295 1_545
Mo0 Se0 2.571297 1_445
Mo0 Se0 2.571297 1_555
Mo0 Se2 2.571370 1_545
Mo0 Se2 2.571372 1_445
Mo0 Se2 2.571372 1_555
Mo1 Te3 2.715870 1_565
Mo1 Te3 2.715872 1_665
Mo1 Te3 2.715872 1_555
Mo1 Te1 2.716030 1_565
Mo1 Te1 2.716032 1_665
Mo1 Te1 2.716032 1_555
Se1 W0 2.575900 1_565
Se1 W0 2.575902 1_665
Se1 W0 2.575902 1_555
Se3 W0 2.574032 1_565
Se3 W0 2.574034 1_665
Se3 W0 2.574034 1_555
