# generated using pymatgen
data_ZrAsOs
_symmetry_space_group_name_H-M   'P 1'
_cell_length_a   6.60728641
_cell_length_b   6.60728641
_cell_length_c   4.00826100
_cell_angle_alpha   90.00000000
_cell_angle_beta   90.00000000
_cell_angle_gamma   120.00000411
_symmetry_Int_Tables_number   1
_chemical_formula_structural   ZrAsOs
_chemical_formula_sum   'Zr3 As3 Os3'
_cell_volume   151.54195042
_cell_formula_units_Z   3
loop_
 _symmetry_equiv_pos_site_id
 _symmetry_equiv_pos_as_xyz
  1  'x, y, z'
loop_
 _atom_site_type_symbol
 _atom_site_label
 _atom_site_symmetry_multiplicity
 _atom_site_fract_x
 _atom_site_fract_y
 _atom_site_fract_z
 _atom_site_occupancy
  Zr  Zr0  1  0.00000000  0.41844200  0.50000000  1
  Zr  Zr1  1  0.58155800  0.58155800  0.50000000  1
  Zr  Zr2  1  0.41844200  0.00000000  0.50000000  1
  As  As0  1  0.33333300  0.66666700  0.00000000  1
  As  As1  1  0.66666700  0.33333300  0.00000000  1
  As  As2  1  0.00000000  0.00000000  0.50000000  1
  Os  Os0  1  0.00000000  0.75534500  0.00000000  1
  Os  Os1  1  0.24465500  0.24465500  0.00000000  1
  Os  Os2  1  0.75534500  0.00000000  0.00000000  1
loop_
_geom_bond_atom_site_label_1
_geom_bond_atom_site_label_2
_geom_bond_distance
_geom_bond_site_symmetry_2
As0 Os0 2.546455 1_555
As0 Os2 2.546459 1_565
As0 Os1 2.546462 1_555
As0 Zr2 2.818676 1_564
As0 Zr2 2.818676 1_565
As0 Zr0 2.818678 1_555
As0 Zr0 2.818678 1_554
As0 Zr1 2.818681 1_555
As0 Zr1 2.818681 1_554
As1 Os2 2.546455 1_555
As1 Os0 2.546459 1_655
As1 Os1 2.546462 1_555
As1 Zr0 2.818676 1_655
As1 Zr0 2.818676 1_654
As1 Zr2 2.818678 1_554
As1 Zr2 2.818678 1_555
As1 Zr1 2.818681 1_555
As1 Zr1 2.818681 1_554
As2 Os1 2.574807 1_555
As2 Os1 2.574807 1_556
As2 Os2 2.574807 1_456
As2 Os0 2.574807 1_546
As2 Os0 2.574807 1_545
As2 Os2 2.574807 1_455
As2 Zr1 2.764766 1_445
As2 Zr0 2.764766 1_555
As2 Zr2 2.764766 1_555
Os0 Os1 2.799870 1_565
Os0 Os2 2.799870 1_465
Os0 Zr0 2.995276 1_555
Os0 Zr0 2.995276 1_554
Os0 Zr2 3.131182 1_565
Os0 Zr2 3.131182 1_564
Os0 Zr1 3.131182 1_455
Os0 Zr1 3.131182 1_454
Os1 Os2 2.799870 1_455
Os1 Zr1 2.995276 1_555
Os1 Zr1 2.995276 1_554
Os1 Zr2 3.131182 1_554
Os1 Zr0 3.131182 1_555
Os1 Zr0 3.131182 1_554
Os1 Zr2 3.131182 1_555
Os2 Zr2 2.995276 1_554
Os2 Zr2 2.995276 1_555
Os2 Zr0 3.131182 1_655
Os2 Zr0 3.131182 1_654
Os2 Zr1 3.131182 1_544
Os2 Zr1 3.131182 1_545
