# generated using pymatgen
data_MgMn8O13F3
_symmetry_space_group_name_H-M   'P 1'
_cell_length_a   6.81775686
_cell_length_b   5.66451033
_cell_length_c   6.94125506
_cell_angle_alpha   88.21382131
_cell_angle_beta   94.77391569
_cell_angle_gamma   88.99887447
_symmetry_Int_Tables_number   1
_chemical_formula_structural   MgMn8O13F3
_chemical_formula_sum   'Mg1 Mn8 O13 F3'
_cell_volume   266.95214486
_cell_formula_units_Z   1
loop_
 _symmetry_equiv_pos_site_id
 _symmetry_equiv_pos_as_xyz
  1  'x, y, z'
loop_
 _atom_site_type_symbol
 _atom_site_label
 _atom_site_symmetry_multiplicity
 _atom_site_fract_x
 _atom_site_fract_y
 _atom_site_fract_z
 _atom_site_occupancy
  Mg  Mg0  1  0.38467000  0.87915900  0.11707700  1
  Mn  Mn0  1  0.36313000  0.35878100  0.10604500  1
  Mn  Mn1  1  0.12583000  0.66758000  0.37914900  1
  Mn  Mn2  1  0.86994500  0.14265600  0.11715400  1
  Mn  Mn3  1  0.38654700  0.13023900  0.62952900  1
  Mn  Mn4  1  0.10268000  0.84311500  0.84251400  1
  Mn  Mn5  1  0.65645500  0.86139000  0.40642000  1
  Mn  Mn6  1  0.61255100  0.60640700  0.85434100  1
  Mn  Mn7  1  0.88092600  0.34470100  0.63293800  1
  O  O0  1  0.15291300  0.10647800  0.05805600  1
  O  O1  1  0.17494700  0.62973200  0.09790600  1
  O  O2  1  0.56425600  0.59379700  0.12544600  1
  O  O3  1  0.07159500  0.61183100  0.64398600  1
  O  O4  1  0.37110300  0.87999900  0.42034800  1
  O  O5  1  0.09490800  0.10608500  0.65926400  1
  O  O6  1  0.59355900  0.10745300  0.17999700  1
  O  O7  1  0.40736100  0.86135800  0.82187000  1
  O  O8  1  0.66613200  0.11431000  0.58660500  1
  O  O9  1  0.90833700  0.88627300  0.31642600  1
  O  O10  1  0.42190000  0.36644300  0.82853900  1
  O  O11  1  0.67606600  0.59281100  0.59076400  1
  O  O12  1  0.82582900  0.37231200  0.89685700  1
  F  F0  1  0.32121300  0.37243700  0.40810500  1
  F  F1  1  0.92298200  0.37886900  0.35126500  1
  F  F2  1  0.81416700  0.85244900  0.90939600  1
loop_
_geom_bond_atom_site_label_1
_geom_bond_atom_site_label_2
_geom_bond_distance
_geom_bond_site_symmetry_2
Mg0 O6 1.971622 1_565
Mg0 O2 2.007107 1_555
Mg0 O1 2.027074 1_555
Mg0 O0 2.027499 1_565
Mg0 O7 2.073171 1_554
Mg0 O4 2.114938 1_555
Mn0 O2 1.927397 1_555
Mn0 O1 1.979543 1_555
Mn0 O10 1.999172 1_554
Mn0 O0 2.056543 1_555
Mn0 O6 2.121416 1_555
Mn1 O3 1.922714 1_555
Mn1 O9 1.928114 1_455
Mn1 O1 2.025215 1_555
Mn1 O4 2.082798 1_555
Mn2 O9 1.972842 1_545
Mn2 O12 1.976564 1_554
Mn2 O6 1.981230 1_555
Mn2 O0 2.013768 1_655
Mn3 O8 1.954607 1_555
Mn3 O10 1.956416 1_555
Mn3 O7 1.989099 1_545
Mn3 O5 2.022574 1_555
Mn3 O4 2.058317 1_545
Mn4 O5 1.925502 1_565
Mn4 O3 1.932335 1_555
Mn4 O7 2.098158 1_555
Mn4 O1 2.132270 1_556
Mn4 O0 2.157068 1_566
Mn5 O9 1.881654 1_555
Mn5 O8 1.929362 1_565
Mn5 O11 1.952644 1_555
Mn5 O4 1.957051 1_555
Mn5 O6 2.080173 1_565
Mn5 O2 2.551465 1_555
Mn6 O10 1.899314 1_555
Mn6 O11 1.918386 1_555
Mn6 O2 1.936568 1_556
Mn6 O12 1.948487 1_555
Mn6 O7 1.987482 1_555
Mn7 O12 1.910989 1_555
Mn7 O11 1.961974 1_555
Mn7 O5 1.964682 1_655
Mn7 O8 1.991395 1_555
Mn7 O3 2.011155 1_655
F0 Mn3 2.043551 1_555
F0 Mn1 2.113418 1_555
F0 Mn0 2.143076 1_555
F1 Mn7 2.003497 1_555
F1 Mn2 2.148588 1_555
F1 Mn1 2.163060 1_655
F2 Mn6 1.997652 1_555
F2 Mn4 2.058481 1_655
F2 Mn2 2.237177 1_566
