# generated using pymatgen
data_PrSi2Rh
_symmetry_space_group_name_H-M   'P 1'
_cell_length_a   8.67453432
_cell_length_b   8.67453432
_cell_length_c   4.18560204
_cell_angle_alpha   90.00000000
_cell_angle_beta   90.00000000
_cell_angle_gamma   151.33459717
_symmetry_Int_Tables_number   1
_chemical_formula_structural   PrSi2Rh
_chemical_formula_sum   'Pr2 Si4 Rh2'
_cell_volume   151.08256226
_cell_formula_units_Z   2
loop_
 _symmetry_equiv_pos_site_id
 _symmetry_equiv_pos_as_xyz
  1  'x, y, z'
loop_
 _atom_site_type_symbol
 _atom_site_label
 _atom_site_symmetry_multiplicity
 _atom_site_fract_x
 _atom_site_fract_y
 _atom_site_fract_z
 _atom_site_occupancy
  Pr  Pr0  1  0.89396606  0.10603394  0.75000000  1
  Pr  Pr1  1  0.10603394  0.89396606  0.25000000  1
  Si  Si0  1  0.54033967  0.45966033  0.75000000  1
  Si  Si1  1  0.45966033  0.54033967  0.25000000  1
  Si  Si2  1  0.24944876  0.75055124  0.75000000  1
  Si  Si3  1  0.75055124  0.24944876  0.25000000  1
  Rh  Rh0  1  0.68044352  0.31955648  0.75000000  1
  Rh  Rh1  1  0.31955648  0.68044352  0.25000000  1
loop_
_geom_bond_atom_site_label_1
_geom_bond_atom_site_label_2
_geom_bond_distance
_geom_bond_site_symmetry_2
Pr0 Si3 3.192357 1_556
Pr0 Si3 3.192357 1_555
Pr0 Si1 3.195391 1_656
Pr0 Si1 3.195391 1_655
Pr0 Si1 3.195391 1_545
Pr0 Si1 3.195391 1_546
Pr0 Si2 3.242274 1_545
Pr0 Si2 3.242274 1_655
Pr0 Rh1 3.248927 1_656
Pr0 Rh1 3.248927 1_655
Pr0 Rh1 3.248927 1_546
Pr0 Rh1 3.248927 1_545
Pr0 Si0 3.265718 1_655
Pr0 Si0 3.265718 1_545
Pr1 Si2 3.192357 1_555
Pr1 Si2 3.192357 1_554
Pr1 Si0 3.195391 1_455
Pr1 Si0 3.195391 1_454
Pr1 Si0 3.195391 1_565
Pr1 Si0 3.195391 1_564
Pr1 Si3 3.242274 1_455
Pr1 Si3 3.242274 1_565
Pr1 Rh0 3.248927 1_564
Pr1 Rh0 3.248927 1_455
Pr1 Rh0 3.248927 1_565
Pr1 Rh0 3.248927 1_454
Pr1 Si1 3.265718 1_565
Pr1 Si1 3.265718 1_455
Si0 Si1 2.493781 1_556
Si0 Si1 2.493781 1_555
Rh0 Si0 2.355016 1_555
Rh0 Si3 2.401781 1_556
Rh0 Si3 2.401781 1_555
Rh0 Si2 2.440640 1_655
Rh0 Si2 2.440640 1_545
Rh1 Si1 2.355016 1_555
Rh1 Si2 2.401781 1_555
Rh1 Si2 2.401781 1_554
Rh1 Si3 2.440640 1_565
Rh1 Si3 2.440640 1_455
