# generated using pymatgen
data_Al(BiCl)4
_symmetry_space_group_name_H-M   'P 1'
_cell_length_a   18.42966022
_cell_length_b   18.42966022
_cell_length_c   13.42008300
_cell_angle_alpha   90.00000000
_cell_angle_beta   90.00000000
_cell_angle_gamma   120.00000080
_symmetry_Int_Tables_number   1
_chemical_formula_structural   Al(BiCl)4
_chemical_formula_sum   'Al12 Bi48 Cl48'
_cell_volume   3947.48498659
_cell_formula_units_Z   12
loop_
 _symmetry_equiv_pos_site_id
 _symmetry_equiv_pos_as_xyz
  1  'x, y, z'
loop_
 _atom_site_type_symbol
 _atom_site_label
 _atom_site_symmetry_multiplicity
 _atom_site_fract_x
 _atom_site_fract_y
 _atom_site_fract_z
 _atom_site_occupancy
  Al  Al0  1  0.00000000  0.00000000  0.13026100  1
  Al  Al1  1  0.00000000  0.00000000  0.63026100  1
  Al  Al2  1  0.05483800  0.69391400  0.41254700  1
  Al  Al3  1  0.30608600  0.36092400  0.41254700  1
  Al  Al4  1  0.63907600  0.94516200  0.41254700  1
  Al  Al5  1  0.94516200  0.30608600  0.91254700  1
  Al  Al6  1  0.69391400  0.63907600  0.91254700  1
  Al  Al7  1  0.36092400  0.05483800  0.91254700  1
  Al  Al8  1  0.66666700  0.33333300  0.21897100  1
  Al  Al9  1  0.33333300  0.66666700  0.71897100  1
  Al  Al10  1  0.66666700  0.33333300  0.68766700  1
  Al  Al11  1  0.33333300  0.66666700  0.18766700  1
  Bi  Bi0  1  0.05110100  0.31566600  0.55046800  1
  Bi  Bi1  1  0.68433400  0.73543500  0.55046800  1
  Bi  Bi2  1  0.26456500  0.94889900  0.55046800  1
  Bi  Bi3  1  0.94889900  0.68433400  0.05046800  1
  Bi  Bi4  1  0.31566600  0.26456500  0.05046800  1
  Bi  Bi5  1  0.73543500  0.05110100  0.05046800  1
  Bi  Bi6  1  0.95825500  0.42413800  0.28158800  1
  Bi  Bi7  1  0.57586200  0.53411700  0.28158800  1
  Bi  Bi8  1  0.46588300  0.04174500  0.28158800  1
  Bi  Bi9  1  0.04174500  0.57586200  0.78158800  1
  Bi  Bi10  1  0.42413800  0.46588300  0.78158800  1
  Bi  Bi11  1  0.53411700  0.95825500  0.78158800  1
  Bi  Bi12  1  0.85787300  0.23116100  0.27285600  1
  Bi  Bi13  1  0.76883900  0.62671200  0.27285600  1
  Bi  Bi14  1  0.37328800  0.14212700  0.27285600  1
  Bi  Bi15  1  0.14212700  0.76883900  0.77285600  1
  Bi  Bi16  1  0.23116100  0.37328800  0.77285600  1
  Bi  Bi17  1  0.62671200  0.85787300  0.77285600  1
  Bi  Bi18  1  0.85608100  0.22387600  0.50251600  1
  Bi  Bi19  1  0.77612400  0.63220500  0.50251600  1
  Bi  Bi20  1  0.36779500  0.14391900  0.50251600  1
  Bi  Bi21  1  0.14391900  0.77612400  0.00251600  1
  Bi  Bi22  1  0.22387600  0.36779500  0.00251600  1
  Bi  Bi23  1  0.63220500  0.85608100  0.00251600  1
  Bi  Bi24  1  0.05398100  0.32626000  0.22992100  1
  Bi  Bi25  1  0.67374000  0.72772100  0.22992100  1
  Bi  Bi26  1  0.27227900  0.94601900  0.22992100  1
  Bi  Bi27  1  0.94601900  0.67374000  0.72992100  1
  Bi  Bi28  1  0.32626000  0.27227900  0.72992100  1
  Bi  Bi29  1  0.72772100  0.05398100  0.72992100  1
  Bi  Bi30  1  0.12468300  0.46016100  0.39583200  1
  Bi  Bi31  1  0.53983900  0.66452200  0.39583200  1
  Bi  Bi32  1  0.33547800  0.87531700  0.39583200  1
  Bi  Bi33  1  0.87531700  0.53983900  0.89583200  1
  Bi  Bi34  1  0.46016100  0.33547800  0.89583200  1
  Bi  Bi35  1  0.66452200  0.12468300  0.89583200  1
  Bi  Bi36  1  0.95713400  0.41688500  0.51229100  1
  Bi  Bi37  1  0.58311500  0.54024900  0.51229100  1
  Bi  Bi38  1  0.45975100  0.04286600  0.51229100  1
  Bi  Bi39  1  0.04286600  0.58311500  0.01229100  1
  Bi  Bi40  1  0.41688500  0.45975100  0.01229100  1
  Bi  Bi41  1  0.54024900  0.95713400  0.01229100  1
  Bi  Bi42  1  0.98059100  0.18219200  0.38409300  1
  Bi  Bi43  1  0.81780800  0.79840000  0.38409300  1
  Bi  Bi44  1  0.20160000  0.01940900  0.38409300  1
  Bi  Bi45  1  0.01940900  0.81780800  0.88409300  1
  Bi  Bi46  1  0.18219200  0.20160000  0.88409300  1
  Bi  Bi47  1  0.79840000  0.98059100  0.88409300  1
  Cl  Cl0  1  0.78063500  0.44227200  0.16590200  1
  Cl  Cl1  1  0.55772800  0.33836300  0.16590200  1
  Cl  Cl2  1  0.66163700  0.21936500  0.16590200  1
  Cl  Cl3  1  0.21936500  0.55772800  0.66590200  1
  Cl  Cl4  1  0.44227200  0.66163700  0.66590200  1
  Cl  Cl5  1  0.33836300  0.78063500  0.66590200  1
  Cl  Cl6  1  0.93025500  0.58376900  0.40418700  1
  Cl  Cl7  1  0.41623100  0.34648700  0.40418700  1
  Cl  Cl8  1  0.65351300  0.06974500  0.40418700  1
  Cl  Cl9  1  0.06974500  0.41623100  0.90418700  1
  Cl  Cl10  1  0.58376900  0.65351300  0.90418700  1
  Cl  Cl11  1  0.34648700  0.93025500  0.90418700  1
  Cl  Cl12  1  0.78138400  0.44110700  0.63488800  1
  Cl  Cl13  1  0.55889300  0.34027700  0.63488800  1
  Cl  Cl14  1  0.65972300  0.21861600  0.63488800  1
  Cl  Cl15  1  0.21861600  0.55889300  0.13488800  1
  Cl  Cl16  1  0.44110700  0.65972300  0.13488800  1
  Cl  Cl17  1  0.34027700  0.78138400  0.13488800  1
  Cl  Cl18  1  0.12976200  0.67607000  0.52269700  1
  Cl  Cl19  1  0.32393000  0.45369200  0.52269700  1
  Cl  Cl20  1  0.54630800  0.87023800  0.52269700  1
  Cl  Cl21  1  0.87023800  0.32393000  0.02269700  1
  Cl  Cl22  1  0.67607000  0.54630800  0.02269700  1
  Cl  Cl23  1  0.45369200  0.12976200  0.02269700  1
  Cl  Cl24  1  0.88377700  0.29004800  0.77029400  1
  Cl  Cl25  1  0.70995200  0.59372900  0.77029400  1
  Cl  Cl26  1  0.40627100  0.11622300  0.77029400  1
  Cl  Cl27  1  0.11622300  0.70995200  0.27029400  1
  Cl  Cl28  1  0.29004800  0.40627100  0.27029400  1
  Cl  Cl29  1  0.59372900  0.88377700  0.27029400  1
  Cl  Cl30  1  0.66666700  0.33333300  0.84865900  1
  Cl  Cl31  1  0.33333300  0.66666700  0.34865900  1
  Cl  Cl32  1  0.00000000  0.00000000  0.96848800  1
  Cl  Cl33  1  0.00000000  0.00000000  0.46848800  1
  Cl  Cl34  1  0.09841600  0.12001500  0.18365000  1
  Cl  Cl35  1  0.87998500  0.97840100  0.18365000  1
  Cl  Cl36  1  0.02159900  0.90158400  0.18365000  1
  Cl  Cl37  1  0.90158400  0.87998500  0.68365000  1
  Cl  Cl38  1  0.12001500  0.02159900  0.68365000  1
  Cl  Cl39  1  0.97840100  0.09841600  0.68365000  1
  Cl  Cl40  1  0.66666700  0.33333300  0.37854600  1
  Cl  Cl41  1  0.33333300  0.66666700  0.87854600  1
  Cl  Cl42  1  0.03909500  0.79824000  0.45259800  1
  Cl  Cl43  1  0.20176000  0.24085400  0.45259800  1
  Cl  Cl44  1  0.75914600  0.96090500  0.45259800  1
  Cl  Cl45  1  0.96090500  0.20176000  0.95259800  1
  Cl  Cl46  1  0.79824000  0.75914600  0.95259800  1
  Cl  Cl47  1  0.24085400  0.03909500  0.95259800  1
loop_
_geom_bond_atom_site_label_1
_geom_bond_atom_site_label_2
_geom_bond_distance
_geom_bond_site_symmetry_2
Al0 Cl34 2.164156 1_555
Al0 Cl35 2.164156 1_445
Al0 Cl36 2.164156 1_545
Al0 Cl32 2.171007 1_554
Al1 Cl37 2.164156 1_445
Al1 Cl38 2.164156 1_555
Al1 Cl39 2.164156 1_455
Al1 Cl33 2.171007 1_555
Al2 Cl42 2.151201 1_555
Al2 Cl18 2.157327 1_555
Al2 Cl27 2.162704 1_555
Al2 Cl6 2.178111 1_455
Al3 Cl43 2.151212 1_555
Al3 Cl19 2.157327 1_555
Al3 Cl28 2.162704 1_555
Al3 Cl7 2.178100 1_555
Al4 Cl44 2.151219 1_555
Al4 Cl20 2.157327 1_555
Al4 Cl29 2.162704 1_555
Al4 Cl8 2.178118 1_565
Al5 Cl45 2.151201 1_555
Al5 Cl21 2.157327 1_556
Al5 Cl24 2.162704 1_555
Al5 Cl9 2.178111 1_655
Al6 Cl46 2.151212 1_555
Al6 Cl22 2.157327 1_556
Al6 Cl25 2.162704 1_555
Al6 Cl10 2.178100 1_555
Al7 Cl47 2.151219 1_555
Al7 Cl23 2.157327 1_556
Al7 Cl26 2.162704 1_555
Al7 Cl11 2.178118 1_545
Al8 Cl40 2.141510 1_555
Al8 Cl2 2.175487 1_555
Al8 Cl0 2.175495 1_555
Al8 Cl1 2.175505 1_555
Al9 Cl41 2.141510 1_555
Al9 Cl5 2.175487 1_555
Al9 Cl3 2.175495 1_555
Al9 Cl4 2.175505 1_555
Al10 Cl30 2.160526 1_555
Al10 Cl14 2.171939 1_555
Al10 Cl12 2.171947 1_555
Al10 Cl13 2.171957 1_555
Al11 Cl31 2.160526 1_555
Al11 Cl17 2.171939 1_555
Al11 Cl15 2.171947 1_555
Al11 Cl16 2.171957 1_555
Bi0 Bi42 3.086801 1_455
Bi0 Bi30 3.102552 1_555
Bi0 Bi36 3.157832 1_455
Bi0 Bi18 3.180201 1_455
Bi1 Bi43 3.086800 1_555
Bi1 Bi31 3.102552 1_555
Bi1 Bi37 3.157832 1_555
Bi1 Bi19 3.180201 1_555
Bi2 Bi44 3.086812 1_565
Bi2 Bi32 3.102552 1_555
Bi2 Bi38 3.157832 1_565
Bi2 Bi20 3.180201 1_565
Bi3 Bi45 3.086801 1_654
Bi3 Bi33 3.102552 1_554
Bi3 Bi39 3.157832 1_655
Bi4 Bi46 3.086800 1_554
Bi4 Bi40 3.157832 1_555
Bi10 Bi16 3.083083 1_555
Bi10 Bi40 3.098561 1_556
Bi10 Bi28 3.166928 1_555
Bi10 Bi34 3.187920 1_555
Bi11 Bi17 3.083083 1_555
Bi11 Bi41 3.098561 1_556
Bi11 Bi29 3.166928 1_565
Bi11 Bi35 3.187920 1_565
Bi12 Bi6 3.083083 1_555
Bi12 Bi18 3.084437 1_555
Bi12 Bi24 3.183051 1_655
Bi12 Bi42 3.193606 1_555
Bi13 Bi7 3.083083 1_555
Bi13 Bi19 3.084437 1_555
Bi13 Bi25 3.183051 1_555
Bi13 Bi43 3.193622 1_555
Bi14 Bi8 3.083083 1_555
Bi14 Bi20 3.084437 1_555
Bi14 Bi26 3.183051 1_545
Bi14 Bi44 3.193618 1_555
Bi15 Bi9 3.083083 1_555
Bi15 Bi21 3.084437 1_556
Bi15 Bi27 3.183051 1_455
Bi15 Bi45 3.193606 1_555
Bi16 Bi22 3.084437 1_556
Bi16 Bi28 3.183051 1_555
Bi16 Bi46 3.193622 1_555
Bi17 Bi23 3.084437 1_556
Bi17 Bi29 3.183051 1_565
Bi17 Bi47 3.193618 1_555
Bi18 Bi36 3.084462 1_555
Bi18 Bi42 3.185001 1_555
Bi19 Bi37 3.084462 1_555
Bi19 Bi43 3.185017 1_555
Bi20 Bi38 3.084462 1_555
Bi20 Bi44 3.185012 1_555
Bi21 Bi39 3.084462 1_555
Bi21 Bi3 3.180201 1_455
Bi21 Bi45 3.185001 1_554
Bi22 Bi40 3.084462 1_555
Bi22 Bi4 3.180201 1_555
Bi22 Bi46 3.185017 1_554
Bi23 Bi41 3.084462 1_555
Bi23 Bi5 3.180201 1_565
Bi23 Bi47 3.185012 1_554
Bi24 Bi30 3.087005 1_555
Bi24 Bi42 3.093324 1_455
Bi24 Bi6 3.166928 1_455
Bi25 Bi31 3.087005 1_555
Bi25 Bi43 3.093324 1_555
Bi25 Bi7 3.166928 1_555
Bi26 Bi32 3.087005 1_555
Bi26 Bi44 3.093336 1_565
Bi26 Bi8 3.166928 1_565
Bi27 Bi33 3.087005 1_555
Bi27 Bi45 3.093324 1_655
Bi27 Bi9 3.166928 1_655
Bi28 Bi34 3.087005 1_555
Bi28 Bi46 3.093324 1_555
Bi29 Bi35 3.087005 1_555
Bi29 Bi47 3.093336 1_545
Bi30 Bi36 3.186049 1_455
Bi30 Bi6 3.187920 1_455
Bi31 Bi37 3.186049 1_555
Bi31 Bi7 3.187920 1_555
Bi32 Bi38 3.186049 1_565
Bi32 Bi8 3.187920 1_565
Bi33 Bi39 3.186049 1_656
Bi33 Bi9 3.187920 1_655
Bi34 Bi4 3.102552 1_556
Bi34 Bi40 3.186049 1_556
Bi35 Bi5 3.102552 1_556
Bi35 Bi41 3.186049 1_546
Bi36 Bi6 3.098561 1_555
Bi37 Bi7 3.098561 1_555
Bi38 Bi8 3.098561 1_555
Bi39 Bi9 3.098561 1_554
Bi41 Bi5 3.157832 1_565
Bi47 Bi5 3.086812 1_566
