# generated using pymatgen
data_Mg(BiO2)2
_symmetry_space_group_name_H-M   'P 1'
_cell_length_a   6.89065228
_cell_length_b   6.89065228
_cell_length_c   16.36261800
_cell_angle_alpha   90.00000000
_cell_angle_beta   90.00000000
_cell_angle_gamma   120.00000266
_symmetry_Int_Tables_number   1
_chemical_formula_structural   Mg(BiO2)2
_chemical_formula_sum   'Mg6 Bi12 O24'
_cell_volume   672.82803774
_cell_formula_units_Z   6
loop_
 _symmetry_equiv_pos_site_id
 _symmetry_equiv_pos_as_xyz
  1  'x, y, z'
loop_
 _atom_site_type_symbol
 _atom_site_label
 _atom_site_symmetry_multiplicity
 _atom_site_fract_x
 _atom_site_fract_y
 _atom_site_fract_z
 _atom_site_occupancy
  Mg  Mg0  1  0.00000000  0.00000000  0.95823400  1
  Mg  Mg1  1  0.66666700  0.33333300  0.62239300  1
  Mg  Mg2  1  0.33333300  0.66666700  0.66801500  1
  Mg  Mg3  1  0.33333300  0.66666700  0.29247000  1
  Mg  Mg4  1  0.66666700  0.33333300  0.99785100  1
  Mg  Mg5  1  0.66666700  0.33333300  0.37453700  1
  Bi  Bi0  1  0.99488300  0.49744200  0.83448100  1
  Bi  Bi1  1  0.50255800  0.49744200  0.83448100  1
  Bi  Bi2  1  0.65897000  0.82948500  0.50368500  1
  Bi  Bi3  1  0.50255800  0.00511700  0.83448100  1
  Bi  Bi4  1  0.17051500  0.82948500  0.50368500  1
  Bi  Bi5  1  0.00000000  0.00000000  0.33510500  1
  Bi  Bi6  1  0.00000000  0.00000000  0.71771300  1
  Bi  Bi7  1  0.33614900  0.16807500  0.16602200  1
  Bi  Bi8  1  0.17051500  0.34103000  0.50368500  1
  Bi  Bi9  1  0.83192500  0.16807500  0.16602200  1
  Bi  Bi10  1  0.83192500  0.66385100  0.16602200  1
  Bi  Bi11  1  0.33333300  0.66666700  0.04964400  1
  O  O0  1  0.34304900  0.17152400  0.91896000  1
  O  O1  1  0.66666700  0.33333300  0.74830000  1
  O  O2  1  0.82847600  0.17152400  0.91896000  1
  O  O3  1  0.82847600  0.65695100  0.91896000  1
  O  O4  1  0.01851400  0.50925700  0.58766000  1
  O  O5  1  0.18849800  0.37699600  0.74485200  1
  O  O6  1  0.33333300  0.66666700  0.42035900  1
  O  O7  1  0.18849800  0.81150200  0.74485200  1
  O  O8  1  0.33333300  0.66666700  0.91702500  1
  O  O9  1  0.49074300  0.50925700  0.58766000  1
  O  O10  1  0.49074300  0.98148600  0.58766000  1
  O  O11  1  0.62300400  0.81150200  0.74485200  1
  O  O12  1  0.65487700  0.82743900  0.24734000  1
  O  O13  1  0.83273300  0.66546700  0.41500700  1
  O  O14  1  0.83273300  0.16726700  0.41500700  1
  O  O15  1  0.00000000  0.00000000  0.08198600  1
  O  O16  1  0.00000000  0.00000000  0.58591000  1
  O  O17  1  0.17256100  0.82743900  0.24734000  1
  O  O18  1  0.17256100  0.34512300  0.24734000  1
  O  O19  1  0.33453300  0.16726700  0.41500700  1
  O  O20  1  0.52303400  0.04606900  0.07588900  1
  O  O21  1  0.52303400  0.47696600  0.07588900  1
  O  O22  1  0.66666700  0.33333300  0.24896200  1
  O  O23  1  0.95393100  0.47696600  0.07588900  1
loop_
_geom_bond_atom_site_label_1
_geom_bond_atom_site_label_2
_geom_bond_distance
_geom_bond_site_symmetry_2
Mg0 O15 2.024907 1_556
Mg0 O2 2.145627 1_455
Mg0 O0 2.145633 1_555
Mg0 O3 2.145633 1_445
Mg1 O1 2.060168 1_555
Mg1 O4 2.175196 1_655
Mg1 O10 2.175196 1_545
Mg1 O9 2.175202 1_555
Mg2 O7 2.137463 1_555
Mg2 O5 2.137467 1_555
Mg2 O11 2.137467 1_555
Mg2 O4 2.293070 1_555
Mg2 O10 2.293070 1_555
Mg2 O9 2.293075 1_555
Mg3 O18 2.055997 1_555
Mg3 O12 2.055997 1_555
Mg3 O17 2.055997 1_555
Mg3 O6 2.092599 1_555
Mg4 O20 2.137549 1_556
Mg4 O23 2.137549 1_556
Mg4 O21 2.137558 1_556
Mg4 O3 2.322886 1_555
Mg4 O0 2.322886 1_555
Mg4 O2 2.322886 1_555
Mg5 O22 2.054736 1_555
Mg5 O14 2.089687 1_555
Mg5 O19 2.089698 1_555
Mg5 O13 2.089698 1_555
Bi0 O3 2.386197 1_555
Bi0 O2 2.386207 1_555
Bi0 O7 2.393071 1_655
Bi0 O5 2.393076 1_655
Bi0 O1 2.413445 1_555
Bi0 O8 2.429687 1_655
Bi1 O3 2.386207 1_555
Bi1 O0 2.386207 1_555
Bi1 O11 2.393071 1_555
Bi1 O5 2.393071 1_555
Bi1 O1 2.413454 1_555
Bi1 O8 2.429687 1_555
Bi2 O9 2.354334 1_555
Bi2 O10 2.354334 1_555
Bi2 O6 2.373836 1_555
Bi2 O16 2.439618 1_665
Bi2 O13 2.483866 1_555
Bi2 O14 2.483871 1_565
Bi3 O0 2.386197 1_555
Bi3 O2 2.386207 1_555
Bi3 O7 2.393071 1_545
Bi3 O11 2.393076 1_545
Bi3 O1 2.413445 1_555
Bi3 O8 2.429687 1_545
Bi4 O10 2.354334 1_555
Bi4 O4 2.354334 1_555
Bi4 O6 2.373831 1_555
Bi4 O16 2.439618 1_565
Bi4 O13 2.483871 1_455
Bi4 O19 2.483871 1_565
Bi5 O13 2.386336 1_445
Bi5 O19 2.386336 1_555
Bi5 O14 2.386341 1_455
Bi5 O17 2.510749 1_545
Bi5 O12 2.510754 1_445
Bi5 O18 2.510754 1_555
Bi6 O16 2.156642 1_555
Bi6 O5 2.293124 1_555
Bi6 O11 2.293124 1_445
Bi6 O7 2.293124 1_545
Bi7 O21 2.371243 1_555
Bi7 O20 2.371243 1_555
Bi7 O22 2.394152 1_555
Bi7 O17 2.429940 1_545
Bi7 O18 2.429940 1_555
Bi7 O15 2.432004 1_555
Bi8 O9 2.354334 1_555
Bi8 O4 2.354334 1_555
Bi8 O6 2.373836 1_555
Bi8 O16 2.439618 1_555
Bi8 O19 2.483866 1_555
Bi8 O14 2.483871 1_455
Bi9 O23 2.371243 1_555
Bi9 O20 2.371243 1_555
Bi9 O22 2.394142 1_555
Bi9 O12 2.429940 1_545
Bi9 O18 2.429940 1_655
Bi9 O15 2.432009 1_655
Bi10 O21 2.371243 1_555
Bi10 O23 2.371243 1_555
Bi10 O22 2.394152 1_555
Bi10 O17 2.429940 1_655
Bi10 O12 2.429940 1_555
Bi10 O15 2.432004 1_665
Bi11 O8 2.169994 1_554
Bi11 O20 2.304441 1_565
Bi11 O23 2.304441 1_455
Bi11 O21 2.304441 1_555
