# generated using pymatgen
data_Zr3Au
_symmetry_space_group_name_H-M   'P 1'
_cell_length_a   5.50805882
_cell_length_b   5.50805882
_cell_length_c   5.50799449
_cell_angle_alpha   90.00000000
_cell_angle_beta   90.00000000
_cell_angle_gamma   90.00000000
_symmetry_Int_Tables_number   1
_chemical_formula_structural   Zr3Au
_chemical_formula_sum   'Zr6 Au2'
_cell_volume   167.10545833
_cell_formula_units_Z   2
loop_
 _symmetry_equiv_pos_site_id
 _symmetry_equiv_pos_as_xyz
  1  'x, y, z'
loop_
 _atom_site_type_symbol
 _atom_site_label
 _atom_site_symmetry_multiplicity
 _atom_site_fract_x
 _atom_site_fract_y
 _atom_site_fract_z
 _atom_site_occupancy
  Zr  Zr0  1  0.50000000  0.25002609  0.00000000  1
  Zr  Zr1  1  0.50000000  0.74997391  0.00000000  1
  Zr  Zr2  1  0.24997391  -0.00000000  0.50000000  1
  Zr  Zr3  1  0.75002609  -0.00000000  0.50000000  1
  Zr  Zr4  1  -0.00000000  0.50000000  0.25000000  1
  Zr  Zr5  1  -0.00000000  0.50000000  0.75000000  1
  Au  Au0  1  0.50000000  0.50000000  0.50000000  1
  Au  Au1  1  -0.00000000  -0.00000000  -0.00000000  1
loop_
_geom_bond_atom_site_label_1
_geom_bond_atom_site_label_2
_geom_bond_distance
_geom_bond_site_symmetry_2
Zr0 Zr1 2.753742 1_555
Zr0 Zr1 2.754317 1_545
Zr2 Zr3 2.753742 1_455
Zr2 Zr3 2.754317 1_555
Zr4 Zr5 2.753997 1_555
Zr4 Zr5 2.753997 1_554
Au0 Zr0 3.079005 1_555
Au0 Zr0 3.079005 1_556
Au0 Zr1 3.079005 1_555
Au0 Zr1 3.079005 1_556
Au0 Zr4 3.079091 1_655
Au0 Zr5 3.079091 1_655
Au0 Zr4 3.079091 1_555
Au0 Zr5 3.079091 1_555
Au0 Zr2 3.079163 1_565
Au0 Zr2 3.079163 1_555
Au0 Zr3 3.079163 1_555
Au0 Zr3 3.079163 1_565
Au1 Zr2 3.079005 1_555
Au1 Zr2 3.079005 1_554
Au1 Zr3 3.079005 1_455
Au1 Zr3 3.079005 1_454
Au1 Zr5 3.079091 1_544
Au1 Zr4 3.079091 1_545
Au1 Zr4 3.079091 1_555
Au1 Zr5 3.079091 1_554
Au1 Zr0 3.079163 1_455
Au1 Zr0 3.079163 1_555
Au1 Zr1 3.079163 1_445
Au1 Zr1 3.079163 1_545
