# generated using pymatgen
data_Li3AlF6
_symmetry_space_group_name_H-M   'P 1'
_cell_length_a   8.15539302
_cell_length_b   8.15539298
_cell_length_c   9.73804542
_cell_angle_alpha   85.66482015
_cell_angle_beta   85.66482098
_cell_angle_gamma   61.51340637
_symmetry_Int_Tables_number   1
_chemical_formula_structural   Li3AlF6
_chemical_formula_sum   'Li18 Al6 F36'
_cell_volume   567.05936497
_cell_formula_units_Z   6
loop_
 _symmetry_equiv_pos_site_id
 _symmetry_equiv_pos_as_xyz
  1  'x, y, z'
loop_
 _atom_site_type_symbol
 _atom_site_label
 _atom_site_symmetry_multiplicity
 _atom_site_fract_x
 _atom_site_fract_y
 _atom_site_fract_z
 _atom_site_occupancy
  Li  Li0  1  0.18669970  0.81330030  0.75000000  1
  Li  Li1  1  0.81330030  0.18669970  0.25000000  1
  Li  Li2  1  0.65667785  0.93853387  0.43236717  1
  Li  Li3  1  0.06146613  0.34332215  0.06763283  1
  Li  Li4  1  0.34332215  0.06146613  0.56763283  1
  Li  Li5  1  0.93853387  0.65667785  0.93236717  1
  Li  Li6  1  0.54080410  0.12384855  0.05186779  1
  Li  Li7  1  0.87615145  0.45919590  0.44813221  1
  Li  Li8  1  0.45919590  0.87615145  0.94813221  1
  Li  Li9  1  0.12384855  0.54080410  0.55186779  1
  Li  Li10  1  0.37063519  0.67323327  0.46299152  1
  Li  Li11  1  0.32676673  0.62936481  0.03700848  1
  Li  Li12  1  0.62936481  0.32676673  0.53700848  1
  Li  Li13  1  0.67323327  0.37063519  0.96299152  1
  Li  Li14  1  0.99337399  0.29017630  0.73155078  1
  Li  Li15  1  0.70982370  0.00662601  0.76844922  1
  Li  Li16  1  0.00662601  0.70982370  0.26844922  1
  Li  Li17  1  0.29017630  0.99337399  0.23155078  1
  Al  Al0  1  -0.00000000  0.00000000  -0.00000000  1
  Al  Al1  1  0.33505598  0.34052876  0.79554342  1
  Al  Al2  1  0.65947124  0.66494402  0.70445658  1
  Al  Al3  1  0.66494402  0.65947124  0.20445658  1
  Al  Al4  1  0.34052876  0.33505598  0.29554342  1
  Al  Al5  1  -0.00000000  0.00000000  0.50000000  1
  F  F0  1  0.56268038  0.24871958  0.20125325  1
  F  F1  1  0.06698213  0.07456918  0.33827125  1
  F  F2  1  0.92543082  0.93301787  0.16172875  1
  F  F3  1  0.93301787  0.92543082  0.66172875  1
  F  F4  1  0.07456918  0.06698213  0.83827125  1
  F  F5  1  0.11308778  0.41535508  0.89123690  1
  F  F6  1  0.43731962  0.75128042  0.79874675  1
  F  F7  1  0.24871958  0.56268038  0.70125325  1
  F  F8  1  0.23148309  0.91190031  0.56320971  1
  F  F9  1  0.75128042  0.43731962  0.29874675  1
  F  F10  1  0.57460017  0.88676784  0.11420408  1
  F  F11  1  0.11323216  0.42539983  0.38579592  1
  F  F12  1  0.42539983  0.11323216  0.88579692  1
  F  F13  1  0.88676784  0.57460017  0.61420308  1
  F  F14  1  0.44790845  0.75354506  0.30375990  1
  F  F15  1  0.24645494  0.55209155  0.19624010  1
  F  F16  1  0.55209155  0.24645494  0.69624010  1
  F  F17  1  0.75354506  0.44790845  0.80375990  1
  F  F18  1  0.27084027  0.23159689  0.16550399  1
  F  F19  1  0.76840311  0.72915973  0.33449601  1
  F  F20  1  0.72915973  0.76840311  0.83449601  1
  F  F21  1  0.88691222  0.58464492  0.10876310  1
  F  F22  1  0.23244115  0.91989856  0.06203571  1
  F  F23  1  0.08010144  0.76755885  0.43796429  1
  F  F24  1  0.76755885  0.08010144  0.93796429  1
  F  F25  1  0.91989856  0.23244115  0.56203571  1
  F  F26  1  0.08809969  0.76851691  0.93679029  1
  F  F27  1  0.23159689  0.27084027  0.66550399  1
  F  F28  1  0.91190031  0.23148309  0.06320971  1
  F  F29  1  0.76851691  0.08809969  0.43679029  1
  F  F30  1  0.41129567  0.42642352  0.43001460  1
  F  F31  1  0.57357648  0.58870433  0.06998540  1
  F  F32  1  0.58870433  0.57357648  0.56998540  1
  F  F33  1  0.42642352  0.41129567  0.93001460  1
  F  F34  1  0.41535508  0.11308778  0.39123690  1
  F  F35  1  0.58464492  0.88691222  0.60876310  1
loop_
_geom_bond_atom_site_label_1
_geom_bond_atom_site_label_2
_geom_bond_distance
_geom_bond_site_symmetry_2
Al0 F4 1.786239 1_554
Al0 F2 1.786239 1_445
Al0 F28 1.809416 1_455
Al0 F26 1.809416 1_544
Al0 F22 1.821366 1_545
Al0 F24 1.821366 1_454
Al1 F16 1.792957 1_555
Al1 F7 1.802950 1_555
Al1 F33 1.809712 1_555
Al1 F5 1.815190 1_555
Al1 F12 1.816661 1_555
Al1 F27 1.834743 1_555
Al2 F17 1.792957 1_555
Al2 F6 1.802950 1_555
Al2 F32 1.809712 1_555
Al2 F35 1.815190 1_555
Al2 F13 1.816661 1_555
Al2 F20 1.834743 1_555
Al3 F14 1.792957 1_555
Al3 F9 1.802950 1_555
Al3 F31 1.809712 1_555
Al3 F21 1.815190 1_555
Al3 F10 1.816656 1_555
Al3 F19 1.834743 1_555
Al4 F15 1.792957 1_555
Al4 F0 1.802950 1_555
Al4 F30 1.809712 1_555
Al4 F34 1.815190 1_555
Al4 F11 1.816656 1_555
Al4 F18 1.834743 1_555
Al5 F1 1.786239 1_555
Al5 F3 1.786239 1_445
Al5 F8 1.809416 1_545
Al5 F29 1.809416 1_455
Al5 F25 1.821366 1_455
Al5 F23 1.821366 1_545
F0 Li6 1.903063 1_555
F0 Li1 1.944980 1_555
F1 Li17 1.870846 1_545
F1 Li1 2.049560 1_455
F2 Li16 1.870846 1_655
F2 Li1 2.049560 1_565
F3 Li15 1.870846 1_565
F3 Li0 2.049560 1_655
F4 Li14 1.870846 1_455
F4 Li0 2.049560 1_545
F5 Li5 1.849518 1_455
F5 Li3 1.856621 1_556
F5 Li14 2.415325 1_455
F6 Li8 1.903063 1_555
F6 Li0 1.944980 1_555
F7 Li9 1.903063 1_555
F7 Li0 1.944980 1_555
F8 Li4 1.843025 1_565
F8 Li10 2.010359 1_555
F8 Li0 2.011777 1_555
F9 Li7 1.903063 1_555
F9 Li1 1.944980 1_555
F10 Li6 1.876788 1_565
F10 Li8 1.959001 1_554
F10 Li17 2.295199 1_555
F11 Li7 1.876789 1_455
F11 Li9 1.959001 1_555
F11 Li16 2.295199 1_555
F12 Li8 1.876786 1_545
F12 Li6 1.958993 1_556
F12 Li15 2.295204 1_555
F13 Li9 1.876786 1_655
F13 Li7 1.958993 1_555
F13 Li14 2.295203 1_555
F14 Li10 1.822902 1_555
F14 Li17 1.871772 1_555
F15 Li11 1.822902 1_555
F15 Li16 1.871772 1_555
F16 Li12 1.822902 1_555
F16 Li15 1.871772 1_555
F17 Li13 1.822902 1_555
F17 Li14 1.871772 1_555
F18 Li3 1.812414 1_555
F18 Li17 1.935765 1_545
F18 Li6 2.185685 1_555
F19 Li2 1.812414 1_555
F19 Li16 1.935765 1_655
F19 Li7 2.185685 1_555
F20 Li5 1.812414 1_555
F20 Li15 1.935765 1_565
F20 Li8 2.185685 1_555
F21 Li3 1.849518 1_655
F21 Li5 1.856621 1_554
F21 Li16 2.415325 1_655
F22 Li17 1.960081 1_555
F22 Li8 1.974280 1_554
F22 Li11 2.141394 1_555
F23 Li16 1.960081 1_555
F23 Li9 1.974280 1_555
F23 Li10 2.141394 1_555
F24 Li15 1.960081 1_555
F24 Li6 1.974280 1_556
F24 Li13 2.141394 1_555
F25 Li14 1.960081 1_555
F25 Li7 1.974280 1_555
F25 Li12 2.141394 1_555
F26 Li5 1.843025 1_455
F26 Li11 2.010359 1_556
F26 Li0 2.011777 1_555
F27 Li4 1.812414 1_555
F27 Li14 1.935765 1_455
F27 Li9 2.185685 1_555
F28 Li3 1.843025 1_655
F28 Li13 2.010359 1_554
F28 Li1 2.011777 1_555
F29 Li2 1.843025 1_545
F29 Li12 2.010359 1_555
F29 Li1 2.011777 1_555
F30 Li12 1.918933 1_555
F30 Li10 1.926006 1_555
F30 Li9 2.331205 1_555
F31 Li13 1.918933 1_554
F31 Li11 1.926006 1_555
F31 Li8 2.331205 1_554
F32 Li10 1.918933 1_555
F32 Li12 1.926006 1_555
F32 Li7 2.331205 1_555
F33 Li11 1.918933 1_556
F33 Li13 1.926006 1_555
F33 Li6 2.331205 1_556
F34 Li2 1.849518 1_545
F34 Li4 1.856621 1_555
F34 Li17 2.415325 1_545
F35 Li4 1.849518 1_565
F35 Li2 1.856621 1_555
F35 Li15 2.415325 1_565
