# generated using pymatgen
data_V3AgO8
_symmetry_space_group_name_H-M   'P 1'
_cell_length_a   3.57189022
_cell_length_b   7.19254485
_cell_length_c   12.14687408
_cell_angle_alpha   107.55655177
_cell_angle_beta   90.00000000
_cell_angle_gamma   90.00000000
_symmetry_Int_Tables_number   1
_chemical_formula_structural   V3AgO8
_chemical_formula_sum   'V6 Ag2 O16'
_cell_volume   297.52901541
_cell_formula_units_Z   2
loop_
 _symmetry_equiv_pos_site_id
 _symmetry_equiv_pos_as_xyz
  1  'x, y, z'
loop_
 _atom_site_type_symbol
 _atom_site_label
 _atom_site_symmetry_multiplicity
 _atom_site_fract_x
 _atom_site_fract_y
 _atom_site_fract_z
 _atom_site_occupancy
  V  V0  1  0.25000000  0.19574923  0.07626992  1
  V  V1  1  0.25000000  0.06654077  0.80739731  1
  V  V2  1  0.25000000  0.85790164  0.54244225  1
  V  V3  1  0.75000000  0.14209836  0.45755775  1
  V  V4  1  0.75000000  0.80425077  0.92373008  1
  V  V5  1  0.75000000  0.93345923  0.19260269  1
  Ag  Ag0  1  0.25000000  0.49375126  0.68487359  1
  Ag  Ag1  1  0.75000000  0.50624874  0.31512641  1
  O  O0  1  0.25000000  0.19549463  0.71838648  1
  O  O1  1  0.25000000  0.40192664  0.18055001  1
  O  O2  1  0.25000000  0.06108492  0.45857599  1
  O  O3  1  0.25000000  0.64139190  0.44599915  1
  O  O4  1  0.25000000  0.99769355  0.17376819  1
  O  O5  1  0.25000000  0.88364342  0.92934121  1
  O  O6  1  0.25000000  0.81594004  0.67578124  1
  O  O7  1  0.25000000  0.25982888  0.94775487  1
  O  O8  1  0.75000000  0.74017112  0.05224513  1
  O  O9  1  0.75000000  0.00230645  0.82623181  1
  O  O10  1  0.75000000  0.18405996  0.32421876  1
  O  O11  1  0.75000000  0.11635658  0.07065879  1
  O  O12  1  0.75000000  0.35860810  0.55400085  1
  O  O13  1  0.75000000  0.93891508  0.54142401  1
  O  O14  1  0.75000000  0.59807336  0.81944999  1
  O  O15  1  0.75000000  0.80450537  0.28161352  1
loop_
_geom_bond_atom_site_label_1
_geom_bond_atom_site_label_2
_geom_bond_distance
_geom_bond_site_symmetry_2
Ag0 O0 2.300986 1_555
Ag0 O6 2.353030 1_555
Ag0 O14 2.384285 1_455
Ag0 O14 2.384285 1_555
Ag0 O12 2.393603 1_555
Ag0 O12 2.393603 1_455
Ag1 O15 2.300986 1_555
Ag1 O10 2.353030 1_555
Ag1 O1 2.384285 1_555
Ag1 O1 2.384285 1_655
Ag1 O3 2.393603 1_655
Ag1 O3 2.393603 1_555
O0 V1 1.623042 1_555
O1 V0 1.634121 1_555
O2 V3 1.879796 1_555
O2 V3 1.879796 1_455
O2 V2 2.017829 1_545
O3 V2 1.642202 1_555
O4 V5 1.875942 1_555
O4 V5 1.875942 1_455
O4 V0 2.109414 1_565
O5 V4 1.869986 1_455
O5 V4 1.869986 1_555
O5 V1 2.258352 1_565
O5 V0 2.409872 1_566
O6 V2 1.734725 1_555
O6 V1 2.016507 1_565
O7 V0 1.755956 1_556
O7 V1 1.846487 1_555
O8 V4 1.755956 1_554
O8 V5 1.846487 1_555
O9 V1 1.875942 1_555
O9 V1 1.875942 1_655
O9 V4 2.109414 1_545
O10 V3 1.734725 1_555
O10 V5 2.016507 1_545
O11 V0 1.869986 1_555
O11 V0 1.869986 1_655
O11 V5 2.258352 1_545
O11 V4 2.409872 1_544
O12 V3 1.642202 1_555
O13 V2 1.879796 1_655
O13 V2 1.879796 1_555
O13 V3 2.017829 1_565
O14 V4 1.634121 1_555
O15 V5 1.623042 1_555
