# generated using pymatgen
data_K2LaPCO7
_symmetry_space_group_name_H-M   'P 1'
_cell_length_a   7.43009400
_cell_length_b   5.73874100
_cell_length_c   10.17711316
_cell_angle_alpha   87.26517209
_cell_angle_beta   90.00000000
_cell_angle_gamma   90.00000000
_symmetry_Int_Tables_number   1
_chemical_formula_structural   K2LaPCO7
_chemical_formula_sum   'K4 La2 P2 C2 O14'
_cell_volume   433.45160701
_cell_formula_units_Z   2
loop_
 _symmetry_equiv_pos_site_id
 _symmetry_equiv_pos_as_xyz
  1  'x, y, z'
loop_
 _atom_site_type_symbol
 _atom_site_label
 _atom_site_symmetry_multiplicity
 _atom_site_fract_x
 _atom_site_fract_y
 _atom_site_fract_z
 _atom_site_occupancy
  K  K0  1  0.48701200  0.24437700  0.78976000  1
  K  K1  1  0.01298800  0.24437700  0.78976000  1
  K  K2  1  0.51298800  0.75562300  0.21024000  1
  K  K3  1  0.98701200  0.75562300  0.21024000  1
  La  La0  1  0.75000000  0.78424800  0.61737200  1
  La  La1  1  0.25000000  0.21575200  0.38262800  1
  P  P0  1  0.25000000  0.70496000  0.57312800  1
  P  P1  1  0.75000000  0.29504000  0.42687200  1
  C  C0  1  0.75000000  0.73014800  0.90383900  1
  C  C1  1  0.25000000  0.26985200  0.09616100  1
  O  O0  1  0.25000000  0.30299600  0.97274700  1
  O  O1  1  0.75000000  0.93915000  0.84437700  1
  O  O2  1  0.75000000  0.55456700  0.82304200  1
  O  O3  1  0.07710900  0.79776600  0.63927900  1
  O  O4  1  0.42289100  0.79776600  0.63927900  1
  O  O5  1  0.75000000  0.21019000  0.57633100  1
  O  O6  1  0.25000000  0.43153900  0.58110000  1
  O  O7  1  0.75000000  0.56846100  0.41890000  1
  O  O8  1  0.25000000  0.78981000  0.42366900  1
  O  O9  1  0.57710900  0.20223400  0.36072100  1
  O  O10  1  0.92289100  0.20223400  0.36072100  1
  O  O11  1  0.25000000  0.44543300  0.17695800  1
  O  O12  1  0.25000000  0.06085000  0.15562300  1
  O  O13  1  0.75000000  0.69700400  0.02725300  1
loop_
_geom_bond_atom_site_label_1
_geom_bond_atom_site_label_2
_geom_bond_distance
_geom_bond_site_symmetry_2
K0 O0 2.596580 1_555
K0 O1 2.665039 1_545
K0 O2 2.675675 1_555
K0 O6 2.923468 1_555
K0 O5 2.935192 1_555
K0 O4 3.084771 1_545
K1 O0 2.596580 1_555
K1 O1 2.665039 1_445
K1 O2 2.675675 1_455
K1 O6 2.923468 1_555
K1 O5 2.935192 1_455
K1 O3 3.084771 1_545
K2 O13 2.596580 1_555
K2 O12 2.665039 1_565
K2 O11 2.675675 1_555
K2 O7 2.923468 1_555
K2 O8 2.935192 1_555
K2 O9 3.084771 1_565
K3 O13 2.596580 1_555
K3 O12 2.665039 1_665
K3 O11 2.675675 1_655
K3 O7 2.923468 1_555
K3 O8 2.935192 1_655
K3 O10 3.084771 1_565
La0 O7 2.419106 1_555
La0 O2 2.419760 1_555
La0 O3 2.442226 1_655
La0 O4 2.442226 1_555
La0 O5 2.460077 1_565
La0 O1 2.514652 1_555
La1 O6 2.419106 1_555
La1 O11 2.419760 1_555
La1 O9 2.442226 1_555
La1 O10 2.442226 1_455
La1 O8 2.460077 1_545
La1 O12 2.514652 1_555
C0 O13 1.261314 1_556
C0 O1 1.317393 1_555
C0 O2 1.330600 1_555
C1 O0 1.261314 1_554
C1 O12 1.317393 1_555
C1 O11 1.330600 1_555
O3 P0 1.556049 1_555
O4 P0 1.556049 1_555
O5 P1 1.574818 1_555
O6 P0 1.567318 1_555
O7 P1 1.567318 1_555
O8 P0 1.574818 1_555
O9 P1 1.556049 1_555
O10 P1 1.556049 1_555
