# generated using pymatgen
data_LiMn2TeO6
_symmetry_space_group_name_H-M   'P 1'
_cell_length_a   5.13968300
_cell_length_b   5.18357631
_cell_length_c   8.71334434
_cell_angle_alpha   89.99894898
_cell_angle_beta   92.19443819
_cell_angle_gamma   91.32943697
_symmetry_Int_Tables_number   1
_chemical_formula_structural   LiMn2TeO6
_chemical_formula_sum   'Li2 Mn4 Te2 O12'
_cell_volume   231.90761629
_cell_formula_units_Z   2
loop_
 _symmetry_equiv_pos_site_id
 _symmetry_equiv_pos_as_xyz
  1  'x, y, z'
loop_
 _atom_site_type_symbol
 _atom_site_label
 _atom_site_symmetry_multiplicity
 _atom_site_fract_x
 _atom_site_fract_y
 _atom_site_fract_z
 _atom_site_occupancy
  Li  Li0  1  0.50975000  0.50133100  0.90576500  1
  Li  Li1  1  0.56734200  0.89335900  0.18922700  1
  Mn  Mn0  1  0.51027800  0.99197000  0.68723400  1
  Mn  Mn1  1  0.01676600  0.01289500  0.39419900  1
  Mn  Mn2  1  0.01072500  0.46947000  0.76183000  1
  Mn  Mn3  1  0.01925100  0.50352000  0.18076400  1
  Te  Te0  1  0.51517100  0.50334400  0.49041900  1
  Te  Te1  1  0.01225400  0.99481000  0.99351600  1
  O  O0  1  0.20591600  0.82981000  0.17047100  1
  O  O1  1  0.26999700  0.35302000  0.33797200  1
  O  O2  1  0.69841500  0.67403800  0.67421600  1
  O  O3  1  0.29933200  0.80682900  0.52132000  1
  O  O4  1  0.21276500  0.30942000  0.98554200  1
  O  O5  1  0.76388100  0.15142300  0.84592700  1
  O  O6  1  0.78491000  0.69227700  0.02489800  1
  O  O7  1  0.31789800  0.31198800  0.65122500  1
  O  O8  1  0.83496000  0.16947800  0.16576500  1
  O  O9  1  0.21596500  0.81747900  0.84779500  1
  O  O10  1  0.73824700  0.68030800  0.34853100  1
  O  O11  1  0.74577700  0.22082900  0.51788400  1
loop_
_geom_bond_atom_site_label_1
_geom_bond_atom_site_label_2
_geom_bond_distance
_geom_bond_site_symmetry_2
Li0 O4 1.952816 1_555
Li0 O6 1.969755 1_556
Li0 O9 2.297193 1_555
Li0 O5 2.330188 1_555
Li0 O2 2.433471 1_555
Li0 O7 2.577276 1_555
Li1 O0 1.879977 1_555
Li1 O10 1.967112 1_555
Li1 O8 1.977994 1_565
Li1 O6 2.136316 1_555
Mn0 O2 1.935517 1_555
Mn0 O7 1.969820 1_565
Mn0 O3 2.004539 1_555
Mn0 O5 2.026359 1_565
Mn0 O11 2.262712 1_565
Mn0 O9 2.272022 1_555
Mn1 O3 2.103752 1_545
Mn1 O11 2.108967 1_455
Mn1 O1 2.232648 1_555
Mn1 O10 2.240884 1_445
Mn1 O8 2.320868 1_455
Mn1 O0 2.415374 1_545
Mn2 O7 2.064956 1_555
Mn2 O2 2.066138 1_455
Mn2 O9 2.186143 1_555
Mn2 O5 2.199680 1_455
Mn2 O4 2.334781 1_555
Mn3 O0 1.928844 1_555
Mn3 O8 1.956244 1_455
Mn3 O1 2.014270 1_555
Mn3 O6 2.044957 1_455
Mn3 O4 2.251915 1_554
Mn3 O10 2.299073 1_455
O0 Te1 2.005381 1_554
O1 Te0 1.945714 1_555
O2 Te0 2.020033 1_555
O3 Te0 1.970221 1_555
O4 Te1 1.911519 1_545
O5 Te1 1.965898 1_645
O6 Te1 1.959284 1_654
O7 Te0 2.009288 1_555
O8 Te1 2.011410 1_644
O9 Te1 1.923503 1_555
O10 Te0 1.934993 1_555
O11 Te0 1.914537 1_555
