# generated using pymatgen
data_Tb3Fe2Si3
_symmetry_space_group_name_H-M   'P 1'
_cell_length_a   5.69838455
_cell_length_b   5.69838455
_cell_length_c   13.66019300
_cell_angle_alpha   90.00000000
_cell_angle_beta   90.00000000
_cell_angle_gamma   137.95920845
_symmetry_Int_Tables_number   1
_chemical_formula_structural   Tb3Fe2Si3
_chemical_formula_sum   'Tb6 Fe4 Si6'
_cell_volume   297.03962480
_cell_formula_units_Z   2
loop_
 _symmetry_equiv_pos_site_id
 _symmetry_equiv_pos_as_xyz
  1  'x, y, z'
loop_
 _atom_site_type_symbol
 _atom_site_label
 _atom_site_symmetry_multiplicity
 _atom_site_fract_x
 _atom_site_fract_y
 _atom_site_fract_z
 _atom_site_occupancy
  Tb  Tb0  1  0.63682600  0.36317400  0.25000000  1
  Tb  Tb1  1  0.36317400  0.63682600  0.75000000  1
  Tb  Tb2  1  0.92120300  0.07879700  0.11280800  1
  Tb  Tb3  1  0.07879700  0.92120300  0.88719200  1
  Tb  Tb4  1  0.07879700  0.92120300  0.61280800  1
  Tb  Tb5  1  0.92120300  0.07879700  0.38719200  1
  Fe  Fe0  1  0.78471200  0.21528800  0.58008400  1
  Fe  Fe1  1  0.21528800  0.78471200  0.41991600  1
  Fe  Fe2  1  0.21528800  0.78471200  0.08008400  1
  Fe  Fe3  1  0.78471200  0.21528800  0.91991600  1
  Si  Si0  1  0.32569700  0.67430300  0.25000000  1
  Si  Si1  1  0.67430300  0.32569700  0.75000000  1
  Si  Si2  1  0.62619400  0.37380600  0.03939600  1
  Si  Si3  1  0.37380600  0.62619400  0.96060400  1
  Si  Si4  1  0.37380600  0.62619400  0.53939600  1
  Si  Si5  1  0.62619400  0.37380600  0.46060400  1
loop_
_geom_bond_atom_site_label_1
_geom_bond_atom_site_label_2
_geom_bond_distance
_geom_bond_site_symmetry_2
Fe0 Si4 2.320615 1_545
Fe0 Si4 2.320615 1_655
Fe0 Si5 2.346840 1_555
Fe0 Si1 2.601355 1_555
Fe0 Tb5 3.008544 1_555
Fe0 Tb4 3.029276 1_655
Fe0 Tb4 3.029276 1_545
Fe0 Tb4 3.160352 1_645
Fe0 Tb1 3.203460 1_655
Fe0 Tb1 3.203460 1_545
Fe1 Si5 2.320615 1_455
Fe1 Si5 2.320615 1_565
Fe1 Si4 2.346840 1_555
Fe1 Si0 2.601355 1_555
Fe1 Tb4 3.008544 1_555
Fe1 Tb5 3.029276 1_565
Fe1 Tb5 3.029276 1_455
Fe1 Tb5 3.160352 1_465
Fe1 Tb0 3.203460 1_565
Fe1 Tb0 3.203460 1_455
Fe2 Si2 2.320615 1_455
Fe2 Si2 2.320615 1_565
Fe2 Si3 2.346840 1_554
Fe2 Si0 2.601355 1_555
Fe2 Tb3 3.008544 1_554
Fe2 Tb2 3.029276 1_455
Fe2 Tb2 3.029276 1_565
Fe2 Tb2 3.160352 1_465
Fe2 Tb0 3.203460 1_565
Fe2 Tb0 3.203460 1_455
Fe3 Si3 2.320615 1_545
Fe3 Si3 2.320615 1_655
Fe3 Si2 2.346840 1_556
Fe3 Si1 2.601355 1_555
Fe3 Tb2 3.008544 1_556
Fe3 Tb3 3.029276 1_545
Fe3 Tb3 3.029276 1_655
Fe3 Tb3 3.160352 1_645
Fe3 Tb1 3.203460 1_655
Fe3 Tb1 3.203460 1_545
Si0 Tb0 2.866212 1_565
Si0 Tb0 2.866212 1_455
Si0 Tb5 2.953376 1_565
Si0 Tb2 2.953376 1_565
Si0 Tb5 2.953376 1_455
Si0 Tb2 2.953376 1_455
Si0 Tb0 3.309898 1_555
Si1 Tb1 2.866212 1_655
Si1 Tb1 2.866212 1_545
Si1 Tb3 2.953376 1_545
Si1 Tb3 2.953376 1_655
Si1 Tb4 2.953376 1_545
Si1 Tb4 2.953376 1_655
Si1 Tb1 3.309898 1_555
Si2 Tb0 2.879114 1_555
Si2 Tb3 2.958891 1_654
Si2 Tb3 2.958891 1_544
Si2 Tb2 3.152677 1_565
Si2 Tb2 3.152677 1_455
Si3 Tb1 2.879114 1_555
Si3 Tb2 2.958891 1_566
Si3 Tb2 2.958891 1_456
Si3 Tb3 3.152677 1_655
Si3 Tb3 3.152677 1_545
Si4 Tb1 2.879114 1_555
Si4 Tb5 2.958891 1_565
Si4 Tb5 2.958891 1_455
Si4 Tb4 3.152677 1_655
Si4 Tb4 3.152677 1_545
Si5 Tb0 2.879114 1_555
Si5 Tb4 2.958891 1_545
Si5 Tb4 2.958891 1_655
Si5 Tb5 3.152677 1_565
Si5 Tb5 3.152677 1_455
