# generated using pymatgen
data_AlV4(CuO4)3
_symmetry_space_group_name_H-M   'P 1'
_cell_length_a   6.41587692
_cell_length_b   6.34861892
_cell_length_c   6.57354370
_cell_angle_alpha   109.80168339
_cell_angle_beta   109.79368727
_cell_angle_gamma   107.94466064
_symmetry_Int_Tables_number   1
_chemical_formula_structural   AlV4(CuO4)3
_chemical_formula_sum   'Al1 V4 Cu3 O12'
_cell_volume   208.25486148
_cell_formula_units_Z   1
loop_
 _symmetry_equiv_pos_site_id
 _symmetry_equiv_pos_as_xyz
  1  'x, y, z'
loop_
 _atom_site_type_symbol
 _atom_site_label
 _atom_site_symmetry_multiplicity
 _atom_site_fract_x
 _atom_site_fract_y
 _atom_site_fract_z
 _atom_site_occupancy
  Al  Al0  1  0.01409900  0.95259500  0.83821000  1
  V  V0  1  0.51782500  0.01153500  0.01305200  1
  V  V1  1  0.99856800  0.00452600  0.45692600  1
  V  V2  1  0.99545200  0.49998900  0.01168000  1
  V  V3  1  0.49424400  0.48936600  0.49800000  1
  Cu  Cu0  1  0.51387200  0.00055000  0.52197100  1
  Cu  Cu1  1  0.49526400  0.49564500  0.00448800  1
  Cu  Cu2  1  0.99544900  0.50529800  0.50500000  1
  O  O0  1  0.81292900  0.31217900  0.13543500  1
  O  O1  1  0.15164800  0.74422600  0.89697900  1
  O  O2  1  0.81957800  0.70443400  0.51569300  1
  O  O3  1  0.30965800  0.48880000  0.19062500  1
  O  O4  1  0.49920100  0.19054500  0.33255600  1
  O  O5  1  0.13440700  0.83485500  0.32849800  1
  O  O6  1  0.70033500  0.87201500  0.19147400  1
  O  O7  1  0.51910200  0.81070700  0.70398000  1
  O  O8  1  0.16778300  0.30654500  0.49233800  1
  O  O9  1  0.68103700  0.50275500  0.81865000  1
  O  O10  1  0.89128400  0.15279800  0.72603600  1
  O  O11  1  0.28826700  0.12063400  0.81840600  1
loop_
_geom_bond_atom_site_label_1
_geom_bond_atom_site_label_2
_geom_bond_distance
_geom_bond_site_symmetry_2
Al0 O2 1.807708 1_455
Al0 O11 1.828136 1_565
Al0 O1 1.874220 1_555
Al0 O10 1.907539 1_465
Cu0 O7 1.964674 1_545
Cu0 O4 2.005565 1_555
Cu0 O5 2.017360 1_545
Cu0 O10 2.019022 1_555
Cu1 O9 1.976192 1_554
Cu1 O11 1.976498 1_554
Cu1 O3 1.976883 1_555
Cu1 O6 1.982148 1_555
Cu2 O8 1.916365 1_655
Cu2 O2 1.936228 1_555
Cu2 O0 1.986657 1_555
Cu2 O1 2.147285 1_655
O0 V0 1.891099 1_555
O0 V2 1.974035 1_555
O1 V2 2.079279 1_456
O1 V0 2.105579 1_566
O2 V3 2.050971 1_555
O2 V1 2.132752 1_565
O3 V3 1.963914 1_555
O3 V2 1.997861 1_455
O4 V3 1.856205 1_555
O4 V0 2.086488 1_555
O5 V1 1.758761 1_465
O5 V2 2.055861 1_455
O6 V1 1.779333 1_565
O6 V0 1.985993 1_565
O7 V3 1.949977 1_555
O7 V0 2.004019 1_566
O8 V1 1.775672 1_455
O8 V3 2.038510 1_555
O9 V2 1.995752 1_556
O9 V3 1.997833 1_555
O10 V2 2.066161 1_556
O10 V1 2.141251 1_555
O11 V0 2.058837 1_556
O11 V1 2.149925 1_455
