# generated using pymatgen
data_Cr2HgS4
_symmetry_space_group_name_H-M   'P 1'
_cell_length_a   6.55880229
_cell_length_b   7.71505985
_cell_length_c   12.37926160
_cell_angle_alpha   82.19514216
_cell_angle_beta   86.04299903
_cell_angle_gamma   90.35207311
_symmetry_Int_Tables_number   1
_chemical_formula_structural   Cr2HgS4
_chemical_formula_sum   'Cr8 Hg4 S16'
_cell_volume   619.05125044
_cell_formula_units_Z   4
loop_
 _symmetry_equiv_pos_site_id
 _symmetry_equiv_pos_as_xyz
  1  'x, y, z'
loop_
 _atom_site_type_symbol
 _atom_site_label
 _atom_site_symmetry_multiplicity
 _atom_site_fract_x
 _atom_site_fract_y
 _atom_site_fract_z
 _atom_site_occupancy
  Cr  Cr0  1  0.14447600  0.70286500  0.70008300  1
  Cr  Cr1  1  0.85552400  0.29713500  0.29991700  1
  Cr  Cr2  1  0.25064300  0.88777700  0.99923400  1
  Cr  Cr3  1  0.74935700  0.11222300  0.00076600  1
  Cr  Cr4  1  0.35963700  0.54346100  0.29908500  1
  Cr  Cr5  1  0.64036300  0.45653900  0.70091500  1
  Cr  Cr6  1  0.36646000  0.05427600  0.29512700  1
  Cr  Cr7  1  0.63354000  0.94572400  0.70487300  1
  Hg  Hg0  1  0.12983700  0.20150700  0.69819600  1
  Hg  Hg1  1  0.87016300  0.79849300  0.30180400  1
  Hg  Hg2  1  0.25071200  0.38011000  0.00157300  1
  Hg  Hg3  1  0.74928800  0.61989000  0.99842700  1
  S  S0  1  0.13052300  0.68961700  0.88002400  1
  S  S1  1  0.86947700  0.31038300  0.11997600  1
  S  S2  1  0.08430800  0.13534800  0.90582100  1
  S  S3  1  0.91569200  0.86465200  0.09417900  1
  S  S4  1  0.23786900  0.78678600  0.36828000  1
  S  S5  1  0.76213100  0.21321400  0.63172000  1
  S  S6  1  0.18007900  0.28407100  0.35681700  1
  S  S7  1  0.81992100  0.71592900  0.64318300  1
  S  S8  1  0.32711100  0.94300200  0.62855900  1
  S  S9  1  0.67288900  0.05699800  0.37144100  1
  S  S10  1  0.32480600  0.48849200  0.63074000  1
  S  S11  1  0.67519400  0.51150800  0.36926000  1
  S  S12  1  0.42218300  0.07045900  0.11173400  1
  S  S13  1  0.57781700  0.92954100  0.88826600  1
  S  S14  1  0.36952800  0.62304600  0.11430400  1
  S  S15  1  0.63047200  0.37695400  0.88569600  1
loop_
_geom_bond_atom_site_label_1
_geom_bond_atom_site_label_2
_geom_bond_distance
_geom_bond_site_symmetry_2
Cr0 S0 2.211483 1_555
Cr0 S8 2.243224 1_555
Cr0 S10 2.267305 1_555
Cr0 S7 2.286468 1_455
Cr1 S1 2.211483 1_555
Cr1 S9 2.243224 1_555
Cr1 S11 2.267305 1_555
Cr1 S6 2.286468 1_655
Cr2 S2 2.403216 1_565
Cr2 S3 2.412759 1_456
Cr2 S0 2.427794 1_555
Cr2 S12 2.433444 1_566
Cr2 S13 2.461723 1_555
Cr2 S14 2.488231 1_556
Cr3 S3 2.403216 1_545
Cr3 S2 2.412759 1_654
Cr3 S1 2.427794 1_555
Cr3 S13 2.433444 1_544
Cr3 S12 2.461723 1_555
Cr3 S15 2.488231 1_554
Cr4 S14 2.282808 1_555
Cr4 S4 2.292697 1_555
Cr4 S11 2.301141 1_555
Cr4 S6 2.317105 1_555
Cr5 S15 2.282808 1_555
Cr5 S5 2.292697 1_555
Cr5 S10 2.301141 1_555
Cr5 S7 2.317105 1_555
Cr6 S12 2.260802 1_555
Cr6 S4 2.270658 1_545
Cr6 S9 2.280167 1_555
Cr6 S6 2.342258 1_555
Cr7 S13 2.260802 1_555
Cr7 S5 2.270658 1_565
Cr7 S8 2.280167 1_555
Cr7 S7 2.342258 1_555
Hg0 S2 2.547890 1_555
Hg0 S10 2.559392 1_555
Hg0 S8 2.596064 1_545
Hg0 S5 2.599637 1_455
Hg1 S3 2.547890 1_555
Hg1 S11 2.559392 1_555
Hg1 S9 2.596064 1_565
Hg1 S4 2.599637 1_655
Hg2 S14 2.628725 1_555
Hg2 S2 2.631205 1_554
Hg2 S15 2.789149 1_554
Hg2 S0 2.792558 1_554
Hg2 S1 2.820195 1_455
Hg2 S12 2.862097 1_555
Hg3 S15 2.628725 1_555
Hg3 S3 2.631205 1_556
Hg3 S14 2.789149 1_556
Hg3 S1 2.792558 1_556
Hg3 S0 2.820195 1_655
Hg3 S13 2.862097 1_555
