# generated using pymatgen
data_Sm2(SO4)3
_symmetry_space_group_name_H-M   'P 1'
_cell_length_a   11.15307262
_cell_length_b   11.15307262
_cell_length_c   6.82299215
_cell_angle_alpha   73.70144094
_cell_angle_beta   73.70144094
_cell_angle_gamma   34.56478181
_symmetry_Int_Tables_number   1
_chemical_formula_structural   Sm2(SO4)3
_chemical_formula_sum   'Sm4 S6 O24'
_cell_volume   460.24315106
_cell_formula_units_Z   2
loop_
 _symmetry_equiv_pos_site_id
 _symmetry_equiv_pos_as_xyz
  1  'x, y, z'
loop_
 _atom_site_type_symbol
 _atom_site_label
 _atom_site_symmetry_multiplicity
 _atom_site_fract_x
 _atom_site_fract_y
 _atom_site_fract_z
 _atom_site_occupancy
  Sm  Sm0  1  0.72328583  0.01289659  0.13175682  1
  Sm  Sm1  1  0.27671417  0.98710341  0.86824318  1
  Sm  Sm2  1  0.98710341  0.27671417  0.36824318  1
  Sm  Sm3  1  0.01289659  0.72328583  0.63175682  1
  S  S0  1  0.50220537  0.86511880  0.32007955  1
  S  S1  1  0.49779463  0.13488120  0.67992045  1
  S  S2  1  0.13488120  0.49779463  0.17992045  1
  S  S3  1  0.86511880  0.50220537  0.82007955  1
  S  S4  1  0.83117731  0.16882269  0.25000000  1
  S  S5  1  0.16882269  0.83117731  0.75000000  1
  O  O0  1  0.34072009  0.96329993  0.19590615  1
  O  O1  1  0.65927991  0.03670007  0.80409385  1
  O  O2  1  0.03670007  0.65927991  0.30409385  1
  O  O3  1  0.96329993  0.34072009  0.69590615  1
  O  O4  1  0.62505375  0.01934874  0.49398699  1
  O  O5  1  0.37494625  0.98065126  0.50601301  1
  O  O6  1  0.98065126  0.37494625  0.00601301  1
  O  O7  1  0.01934874  0.62505375  0.99398699  1
  O  O8  1  0.35931021  0.34586769  0.12736246  1
  O  O9  1  0.64068979  0.65413231  0.87263754  1
  O  O10  1  0.65413231  0.64068979  0.37263754  1
  O  O11  1  0.34586769  0.35931021  0.62736246  1
  O  O12  1  0.60646453  0.89681151  0.20576302  1
  O  O13  1  0.39353547  0.10318849  0.79423698  1
  O  O14  1  0.10318849  0.39353547  0.29423698  1
  O  O15  1  0.89681151  0.60646453  0.70576302  1
  O  O16  1  0.90713216  0.98110862  0.36049863  1
  O  O17  1  0.09286784  0.01889138  0.63950137  1
  O  O18  1  0.01889138  0.09286784  0.13950137  1
  O  O19  1  0.98110862  0.90713216  0.86049863  1
  O  O20  1  0.68647757  0.26400179  0.10924490  1
  O  O21  1  0.31352243  0.73599821  0.89075510  1
  O  O22  1  0.73599821  0.31352243  0.39075510  1
  O  O23  1  0.26400179  0.68647757  0.60924490  1
loop_
_geom_bond_atom_site_label_1
_geom_bond_atom_site_label_2
_geom_bond_distance
_geom_bond_site_symmetry_2
O0 S0 1.499428 1_555
O0 Sm1 2.414268 1_554
O0 Sm2 2.480855 1_465
O1 S1 1.499428 1_555
O1 Sm0 2.414268 1_556
O1 Sm3 2.480855 1_645
O2 S2 1.499428 1_555
O2 Sm3 2.414268 1_555
O2 Sm0 2.480855 1_465
O3 S3 1.499428 1_555
O3 Sm2 2.414268 1_555
O3 Sm1 2.480855 1_645
O4 S1 1.476152 1_555
O4 Sm0 2.400820 1_555
O4 Sm3 2.741154 1_645
O5 S0 1.476152 1_555
O5 Sm1 2.400820 1_555
O5 Sm2 2.741154 1_465
O6 S3 1.476152 1_554
O6 Sm2 2.400820 1_555
O6 Sm1 2.741154 1_644
O7 S2 1.476152 1_556
O7 Sm3 2.400820 1_555
O7 Sm0 2.741154 1_466
O8 S2 1.454999 1_555
O8 Sm0 2.334168 1_555
O9 S3 1.454999 1_555
O9 Sm1 2.334168 1_555
O10 S0 1.454999 1_555
O10 Sm2 2.334168 1_555
O11 S1 1.454999 1_555
O11 Sm3 2.334168 1_555
O12 S0 1.448641 1_555
O12 Sm0 2.381359 1_565
O13 S1 1.448641 1_555
O13 Sm1 2.381359 1_545
O14 S2 1.448641 1_555
O14 Sm2 2.381359 1_455
O15 S3 1.448641 1_555
O15 Sm3 2.381359 1_655
O16 S4 1.490208 1_565
O16 Sm3 2.395261 1_655
O16 Sm0 2.655973 1_565
O17 S5 1.490208 1_545
O17 Sm2 2.395261 1_455
O17 Sm1 2.655973 1_545
O18 S4 1.490208 1_455
O18 Sm1 2.395261 1_544
O18 Sm2 2.655973 1_455
O19 S5 1.490208 1_655
O19 Sm0 2.395261 1_566
O19 Sm3 2.655973 1_655
O20 S4 1.459407 1_555
O20 Sm0 2.436361 1_555
O21 S5 1.459407 1_555
O21 Sm1 2.436361 1_555
O22 S4 1.459407 1_555
O22 Sm2 2.436361 1_555
O23 S5 1.459407 1_555
O23 Sm3 2.436361 1_555
