# generated using pymatgen
data_Zn2CuWO6
_symmetry_space_group_name_H-M   'P 1'
_cell_length_a   5.12147800
_cell_length_b   5.04858200
_cell_length_c   9.85707346
_cell_angle_alpha   60.04846626
_cell_angle_beta   90.00000000
_cell_angle_gamma   90.00000000
_symmetry_Int_Tables_number   1
_chemical_formula_structural   Zn2CuWO6
_chemical_formula_sum   'Zn4 Cu2 W2 O12'
_cell_volume   220.82856172
_cell_formula_units_Z   2
loop_
 _symmetry_equiv_pos_site_id
 _symmetry_equiv_pos_as_xyz
  1  'x, y, z'
loop_
 _atom_site_type_symbol
 _atom_site_label
 _atom_site_symmetry_multiplicity
 _atom_site_fract_x
 _atom_site_fract_y
 _atom_site_fract_z
 _atom_site_occupancy
  Zn  Zn0  1  0.47483700  0.24112900  0.76337500  1
  Zn  Zn1  1  0.97483700  0.75887100  0.73662500  1
  Zn  Zn2  1  0.52516300  0.75887100  0.23662500  1
  Zn  Zn3  1  0.02516300  0.24112900  0.26337500  1
  Cu  Cu0  1  0.50000000  0.00000000  0.50000000  1
  Cu  Cu1  1  0.00000000  0.00000000  0.00000000  1
  W  W0  1  0.50000000  0.50000000  0.00000000  1
  W  W1  1  0.00000000  0.50000000  0.50000000  1
  O  O0  1  0.19506200  0.42242100  0.90001200  1
  O  O1  1  0.69506200  0.57757900  0.59998800  1
  O  O2  1  0.80493800  0.57757900  0.09998800  1
  O  O3  1  0.30493800  0.42242100  0.40001200  1
  O  O4  1  0.31299100  0.77422000  0.04796700  1
  O  O5  1  0.81299100  0.22578000  0.45203300  1
  O  O6  1  0.68700900  0.22578000  0.95203300  1
  O  O7  1  0.18700900  0.77422000  0.54796700  1
  O  O8  1  0.11362100  0.16409700  0.70170900  1
  O  O9  1  0.61362100  0.83590300  0.79829100  1
  O  O10  1  0.38637900  0.16409700  0.20170900  1
  O  O11  1  0.88637900  0.83590300  0.29829100  1
loop_
_geom_bond_atom_site_label_1
_geom_bond_atom_site_label_2
_geom_bond_distance
_geom_bond_site_symmetry_2
Cu0 O7 1.885267 1_545
Cu0 O5 1.885267 1_555
Cu0 O3 2.102066 1_555
Cu0 O1 2.102066 1_545
Cu1 O4 1.885267 1_545
Cu1 O6 1.885267 1_454
Cu1 O0 2.102066 1_554
Cu1 O2 2.102066 1_445
O0 W0 1.987272 1_556
O0 Zn1 2.004867 1_455
O0 Zn0 2.436329 1_555
O1 W1 1.987272 1_655
O1 Zn0 2.004867 1_555
O1 Zn1 2.436329 1_555
O2 W0 1.987272 1_555
O2 Zn3 2.004867 1_655
O2 Zn2 2.436329 1_555
O3 W1 1.987272 1_555
O3 Zn2 2.004867 1_555
O3 Zn3 2.436329 1_555
O4 W0 1.926422 1_555
O4 Zn2 2.121570 1_555
O5 W1 1.926422 1_655
O5 Zn3 2.121570 1_655
O6 W0 1.926422 1_556
O6 Zn0 2.121570 1_555
O7 W1 1.926422 1_555
O7 Zn1 2.121570 1_455
O8 W1 1.949572 1_555
O8 Zn1 2.026314 1_445
O8 Zn0 2.044290 1_555
O9 W0 1.949572 1_556
O9 Zn0 2.026314 1_565
O9 Zn1 2.044290 1_555
O10 W0 1.949572 1_555
O10 Zn2 2.026314 1_545
O10 Zn3 2.044290 1_555
O11 W1 1.949572 1_655
O11 Zn3 2.026314 1_665
O11 Zn2 2.044290 1_555
