# generated using pymatgen
data_Al4SiC4
_symmetry_space_group_name_H-M   'P 1'
_cell_length_a   3.32584366
_cell_length_b   3.32584366
_cell_length_c   21.95585700
_cell_angle_alpha   90.00000000
_cell_angle_beta   90.00000000
_cell_angle_gamma   119.99999323
_symmetry_Int_Tables_number   1
_chemical_formula_structural   Al4SiC4
_chemical_formula_sum   'Al8 Si2 C8'
_cell_volume   210.32200594
_cell_formula_units_Z   2
loop_
 _symmetry_equiv_pos_site_id
 _symmetry_equiv_pos_as_xyz
  1  'x, y, z'
loop_
 _atom_site_type_symbol
 _atom_site_label
 _atom_site_symmetry_multiplicity
 _atom_site_fract_x
 _atom_site_fract_y
 _atom_site_fract_z
 _atom_site_occupancy
  Al  Al0  1  0.33333300  0.66666700  0.44857800  1
  Al  Al1  1  0.66666700  0.33333300  0.94857800  1
  Al  Al2  1  0.00000000  0.00000000  0.34223000  1
  Al  Al3  1  0.00000000  0.00000000  0.84223000  1
  Al  Al4  1  0.33333300  0.66666700  0.25393200  1
  Al  Al5  1  0.66666700  0.33333300  0.75393200  1
  Al  Al6  1  0.00000000  0.00000000  0.15464900  1
  Al  Al7  1  0.00000000  0.00000000  0.65464900  1
  Si  Si0  1  0.33333300  0.66666700  0.04700300  1
  Si  Si1  1  0.66666700  0.33333300  0.54700300  1
  C  C0  1  0.33333300  0.66666700  0.36322800  1
  C  C1  1  0.66666700  0.33333300  0.86322800  1
  C  C2  1  0.00000000  0.00000000  0.50363500  1
  C  C3  1  0.00000000  0.00000000  0.00363500  1
  C  C4  1  0.00000000  0.00000000  0.24690200  1
  C  C5  1  0.00000000  0.00000000  0.74690200  1
  C  C6  1  0.33333300  0.66666700  0.12684200  1
  C  C7  1  0.66666700  0.33333300  0.62684200  1
loop_
_geom_bond_atom_site_label_1
_geom_bond_atom_site_label_2
_geom_bond_distance
_geom_bond_site_symmetry_2
Al0 C0 1.873932 1_555
Al0 C2 2.268992 1_565
Al0 C2 2.268995 1_555
Al0 C2 2.268995 1_665
Al1 C1 1.873932 1_555
Al1 C3 2.268992 1_656
Al1 C3 2.268995 1_666
Al1 C3 2.268995 1_556
Al2 C0 1.974745 1_545
Al2 C0 1.974748 1_555
Al2 C0 1.974748 1_445
Al2 C4 2.093008 1_555
Al3 C1 1.974745 1_455
Al3 C1 1.974748 1_445
Al3 C1 1.974748 1_555
Al3 C5 2.093008 1_555
Al4 C4 1.926368 1_565
Al4 C4 1.926371 1_555
Al4 C4 1.926371 1_665
Al4 C0 2.399687 1_555
Al5 C5 1.926368 1_655
Al5 C5 1.926371 1_665
Al5 C5 1.926371 1_555
Al5 C1 2.399687 1_555
Al6 C6 2.014898 1_545
Al6 C6 2.014901 1_445
Al6 C6 2.014901 1_555
Al6 C4 2.025494 1_555
Al7 C7 2.014898 1_455
Al7 C7 2.014901 1_555
Al7 C7 2.014901 1_445
Al7 C5 2.025494 1_555
C2 Si1 2.143297 1_455
C2 Si1 2.143299 1_445
C2 Si1 2.143299 1_555
C3 Si0 2.143297 1_545
C3 Si0 2.143299 1_555
C3 Si0 2.143299 1_445
C6 Si0 1.752934 1_555
C7 Si1 1.752934 1_555
