# generated using pymatgen
data_Sr2La3FeCo4O15
_symmetry_space_group_name_H-M   'P 1'
_cell_length_a   11.57823828
_cell_length_b   11.57823828
_cell_length_c   11.57823858
_cell_angle_alpha   27.47617396
_cell_angle_beta   27.47617396
_cell_angle_gamma   27.47616924
_symmetry_Int_Tables_number   1
_chemical_formula_structural   Sr2La3FeCo4O15
_chemical_formula_sum   'Sr2 La3 Fe1 Co4 O15'
_cell_volume   291.61564151
_cell_formula_units_Z   1
loop_
 _symmetry_equiv_pos_site_id
 _symmetry_equiv_pos_as_xyz
  1  'x, y, z'
loop_
 _atom_site_type_symbol
 _atom_site_label
 _atom_site_symmetry_multiplicity
 _atom_site_fract_x
 _atom_site_fract_y
 _atom_site_fract_z
 _atom_site_occupancy
  Sr  Sr0  1  0.70016300  0.70016300  0.70016300  1
  Sr  Sr1  1  0.50010000  0.50010000  0.50010000  1
  La  La0  1  0.09981300  0.09981300  0.09981300  1
  La  La1  1  0.89956400  0.89956400  0.89956400  1
  La  La2  1  0.29925700  0.29925700  0.29925700  1
  Fe  Fe0  1  0.39962700  0.39962700  0.39962700  1
  Co  Co0  1  0.80007000  0.80007000  0.80007000  1
  Co  Co1  1  0.19848100  0.19848100  0.19848100  1
  Co  Co2  1  0.59996600  0.59996600  0.59996600  1
  Co  Co3  1  0.99980100  0.99980100  0.99980100  1
  O  O0  1  0.99759000  0.99759000  0.50627200  1
  O  O1  1  0.80451900  0.80451900  0.28687400  1
  O  O2  1  0.19574700  0.19574700  0.70628500  1
  O  O3  1  0.60339500  0.60339500  0.09554200  1
  O  O4  1  0.39837100  0.39837100  0.90894200  1
  O  O5  1  0.50627200  0.99759000  0.99759000  1
  O  O6  1  0.28687400  0.80451900  0.80451900  1
  O  O7  1  0.70628500  0.19574700  0.19574700  1
  O  O8  1  0.09554200  0.60339500  0.60339500  1
  O  O9  1  0.90894200  0.39837100  0.39837100  1
  O  O10  1  0.60339500  0.09554200  0.60339500  1
  O  O11  1  0.39837100  0.90894200  0.39837100  1
  O  O12  1  0.80451900  0.28687400  0.80451900  1
  O  O13  1  0.19574700  0.70628500  0.19574700  1
  O  O14  1  0.99759000  0.50627200  0.99759000  1
loop_
_geom_bond_atom_site_label_1
_geom_bond_atom_site_label_2
_geom_bond_distance
_geom_bond_site_symmetry_2
La0 O13 2.730701 1_545
La0 O7 2.730701 1_455
La0 O2 2.730701 1_554
La0 O3 2.749947 1_455
La0 O3 2.749947 1_545
La0 O10 2.749947 1_554
La0 O8 2.749947 1_554
La0 O10 2.749947 1_455
La0 O8 2.749947 1_545
La0 O14 2.769077 1_454
La0 O5 2.769077 1_544
La0 O0 2.769077 1_445
La1 O6 2.677226 1_655
La1 O12 2.677226 1_565
La1 O1 2.677226 1_556
La1 O5 2.693788 1_555
La1 O14 2.693788 1_555
La1 O0 2.693788 1_555
La1 O4 2.750952 1_565
La1 O4 2.750952 1_655
La1 O9 2.750952 1_556
La1 O11 2.750952 1_556
La1 O11 2.750952 1_655
La1 O9 2.750952 1_565
La2 O9 2.643690 1_455
La2 O11 2.643690 1_545
La2 O4 2.643690 1_554
La2 O1 2.750294 1_545
La2 O1 2.750294 1_455
La2 O12 2.750294 1_554
La2 O6 2.750294 1_554
La2 O6 2.750294 1_545
La2 O12 2.750294 1_455
La2 O7 2.754437 1_555
La2 O13 2.754437 1_555
La2 O2 2.754437 1_555
Fe0 O7 1.973514 1_555
Fe0 O13 1.973514 1_555
Fe0 O2 1.973514 1_555
Fe0 O8 1.981606 1_555
Fe0 O10 1.981606 1_555
Fe0 O3 1.981606 1_555
Co0 O10 1.905081 1_565
Co0 O8 1.905081 1_655
Co0 O3 1.905081 1_556
Co0 O14 1.924619 1_555
Co0 O5 1.924619 1_555
Co0 O0 1.924619 1_555
Co1 O5 1.924499 1_544
Co1 O14 1.924499 1_454
Co1 O0 1.924499 1_445
Co1 O9 1.980258 1_455
Co1 O11 1.980258 1_545
Co1 O4 1.980258 1_554
Co2 O9 1.930883 1_555
Co2 O11 1.930883 1_555
Co2 O4 1.930883 1_555
Co2 O6 1.960633 1_555
Co2 O12 1.960633 1_555
Co2 O1 1.960633 1_555
Co3 O13 1.901284 1_656
Co3 O7 1.901284 1_566
Co3 O2 1.901284 1_665
Co3 O12 1.916577 1_565
Co3 O6 1.916577 1_655
Co3 O1 1.916577 1_556
O0 Sr1 2.749813 1_655
O0 Sr1 2.749813 1_565
O1 Sr0 2.808872 1_555
O2 Sr0 2.750014 1_455
O2 Sr0 2.750014 1_545
O3 Sr1 2.731064 1_555
O3 Sr0 2.737234 1_554
O4 Sr1 2.803115 1_555
O5 Sr1 2.749814 1_565
O5 Sr1 2.749814 1_556
O6 Sr0 2.808872 1_555
O7 Sr0 2.750015 1_554
O7 Sr0 2.750015 1_545
O8 Sr1 2.731064 1_555
O8 Sr0 2.737234 1_455
O9 Sr1 2.803115 1_555
O10 Sr1 2.731064 1_555
O10 Sr0 2.737234 1_545
O11 Sr1 2.803115 1_555
O12 Sr0 2.808872 1_555
O13 Sr0 2.750015 1_554
O13 Sr0 2.750015 1_455
O14 Sr1 2.749814 1_655
O14 Sr1 2.749814 1_556
