# generated using pymatgen
data_HfMg6Mo
_symmetry_space_group_name_H-M   'P 1'
_cell_length_a   5.04477900
_cell_length_b   5.81542200
_cell_length_c   11.25485100
_cell_angle_alpha   90.00000000
_cell_angle_beta   90.00000000
_cell_angle_gamma   90.00000000
_symmetry_Int_Tables_number   1
_chemical_formula_structural   HfMg6Mo
_chemical_formula_sum   'Hf2 Mg12 Mo2'
_cell_volume   330.18940260
_cell_formula_units_Z   2
loop_
 _symmetry_equiv_pos_site_id
 _symmetry_equiv_pos_as_xyz
  1  'x, y, z'
loop_
 _atom_site_type_symbol
 _atom_site_label
 _atom_site_symmetry_multiplicity
 _atom_site_fract_x
 _atom_site_fract_y
 _atom_site_fract_z
 _atom_site_occupancy
  Hf  Hf0  1  0.50000000  0.50000000  0.17210400  1
  Hf  Hf1  1  0.50000000  0.00000000  0.67210400  1
  Mg  Mg0  1  0.50000000  0.25073300  0.42270300  1
  Mg  Mg1  1  0.50000000  0.74926700  0.42270300  1
  Mg  Mg2  1  0.00000000  0.75861100  0.08587800  1
  Mg  Mg3  1  0.00000000  0.24138900  0.08587800  1
  Mg  Mg4  1  0.00000000  0.00000000  0.31396100  1
  Mg  Mg5  1  0.00000000  0.50000000  0.32556700  1
  Mg  Mg6  1  0.50000000  0.75073300  0.92270300  1
  Mg  Mg7  1  0.50000000  0.24926700  0.92270300  1
  Mg  Mg8  1  0.00000000  0.25861100  0.58587800  1
  Mg  Mg9  1  0.00000000  0.74138900  0.58587800  1
  Mg  Mg10  1  0.00000000  0.50000000  0.81396100  1
  Mg  Mg11  1  0.00000000  0.00000000  0.82556700  1
  Mo  Mo0  1  0.50000000  0.00000000  0.17120200  1
  Mo  Mo1  1  0.50000000  0.50000000  0.67120200  1
loop_
_geom_bond_atom_site_label_1
_geom_bond_atom_site_label_2
_geom_bond_distance
_geom_bond_site_symmetry_2
Hf0 Mo0 2.907729 1_565
Hf0 Mo0 2.907729 1_555
Hf0 Mg5 3.057070 1_655
Hf0 Mg5 3.057070 1_555
Hf0 Mg2 3.092904 1_655
Hf0 Mg2 3.092904 1_555
Hf0 Mg3 3.092904 1_655
Hf0 Mg3 3.092904 1_555
Hf0 Mg6 3.163099 1_554
Hf0 Mg7 3.163099 1_554
Hf0 Mg1 3.171164 1_555
Hf0 Mg0 3.171164 1_555
Hf1 Mo1 2.907729 1_545
Hf1 Mo1 2.907729 1_555
Hf1 Mg11 3.057070 1_655
Hf1 Mg11 3.057070 1_555
Hf1 Mg8 3.092904 1_555
Hf1 Mg8 3.092904 1_655
Hf1 Mg9 3.092904 1_645
Hf1 Mg9 3.092904 1_545
Hf1 Mg0 3.163099 1_555
Hf1 Mg1 3.163099 1_545
Hf1 Mg6 3.171164 1_545
Hf1 Mg7 3.171164 1_555
Mg0 Mg1 2.899186 1_555
Mg0 Mg1 2.916236 1_545
Mg0 Mg5 3.107888 1_555
Mg0 Mg5 3.107888 1_655
Mg0 Mg8 3.120468 1_655
Mg0 Mg8 3.120468 1_555
Mg0 Mo1 3.150161 1_555
Mg0 Mg4 3.160131 1_555
Mg0 Mg4 3.160131 1_655
Mg0 Mo0 3.184092 1_555
Mg1 Mg5 3.107888 1_555
Mg1 Mg5 3.107888 1_655
Mg1 Mg9 3.120468 1_555
Mg1 Mg9 3.120468 1_655
Mg1 Mo1 3.150161 1_555
Mg1 Mg4 3.160131 1_565
Mg1 Mg4 3.160131 1_665
Mg1 Mo0 3.184092 1_565
Mg2 Mg3 2.807558 1_565
Mg2 Mg4 2.925797 1_565
Mg2 Mg3 3.007864 1_555
Mg2 Mo0 3.042242 1_565
Mg2 Mo0 3.042242 1_465
Mg2 Mg5 3.088560 1_555
Mg2 Mg6 3.120468 1_454
Mg2 Mg6 3.120468 1_554
Mg3 Mg4 2.925797 1_555
Mg3 Mo0 3.042242 1_455
Mg3 Mo0 3.042242 1_555
Mg3 Mg5 3.088560 1_555
Mg3 Mg7 3.120468 1_554
Mg3 Mg7 3.120468 1_454
Mg4 Mg5 2.910644 1_545
Mg4 Mg5 2.910644 1_555
Mg4 Mo0 2.990658 1_555
Mg4 Mo0 2.990658 1_455
Mg4 Mg9 3.409952 1_545
Mg4 Mg8 3.409952 1_555
Mg5 Mg9 3.248707 1_555
Mg5 Mg8 3.248707 1_555
Mg6 Mg7 2.899186 1_565
Mg6 Mg7 2.916236 1_555
Mg6 Mo0 3.150161 1_566
Mg6 Mo1 3.184092 1_555
Mg7 Mo0 3.150161 1_556
Mg7 Mo1 3.184092 1_555
Mg8 Mg9 2.807558 1_555
Mg8 Mg9 3.007864 1_545
Mg8 Mo1 3.042242 1_555
Mg8 Mo1 3.042242 1_455
Mg9 Mo1 3.042242 1_555
Mg9 Mo1 3.042242 1_455
Mg10 Mg11 2.910644 1_565
Mg10 Mg11 2.910644 1_555
Mg10 Mg9 2.925797 1_555
Mg10 Mg8 2.925797 1_555
Mg10 Mo1 2.990658 1_555
Mg10 Mo1 2.990658 1_455
Mg10 Mg7 3.160131 1_455
Mg10 Mg7 3.160131 1_555
Mg10 Mg6 3.160131 1_455
Mg10 Mg6 3.160131 1_555
Mg10 Mg2 3.409952 1_556
Mg10 Mg3 3.409952 1_556
Mg11 Mg9 3.088560 1_545
Mg11 Mg8 3.088560 1_555
Mg11 Mg7 3.107888 1_455
Mg11 Mg7 3.107888 1_555
Mg11 Mg6 3.107888 1_445
Mg11 Mg6 3.107888 1_545
Mg11 Mg3 3.248707 1_556
Mg11 Mg2 3.248707 1_546
