# generated using pymatgen
data_LiSc2Al2(CO)2
_symmetry_space_group_name_H-M   'P 1'
_cell_length_a   10.47756468
_cell_length_b   10.47756468
_cell_length_c   10.32009618
_cell_angle_alpha   18.99128048
_cell_angle_beta   18.99128048
_cell_angle_gamma   20.67960912
_symmetry_Int_Tables_number   1
_chemical_formula_structural   LiSc2Al2(CO)2
_chemical_formula_sum   'Li1 Sc2 Al2 C2 O2'
_cell_volume   110.39674860
_cell_formula_units_Z   1
loop_
 _symmetry_equiv_pos_site_id
 _symmetry_equiv_pos_as_xyz
  1  'x, y, z'
loop_
 _atom_site_type_symbol
 _atom_site_label
 _atom_site_symmetry_multiplicity
 _atom_site_fract_x
 _atom_site_fract_y
 _atom_site_fract_z
 _atom_site_occupancy
  Li  Li0  1  0.00000000  0.00000000  0.50000000  1
  Sc  Sc0  1  0.00000000  0.00000000  0.00000000  1
  Sc  Sc1  1  0.50000000  0.50000000  0.50000000  1
  Al  Al0  1  0.70552000  0.70552000  0.79444500  1
  Al  Al1  1  0.29448000  0.29448000  0.20555400  1
  C  C0  1  0.64543100  0.64543100  0.56728900  1
  C  C1  1  0.35456900  0.35456900  0.43271100  1
  O  O0  1  0.23221600  0.23221600  0.14996400  1
  O  O1  1  0.76778400  0.76778400  0.85003500  1
loop_
_geom_bond_atom_site_label_1
_geom_bond_atom_site_label_2
_geom_bond_distance
_geom_bond_site_symmetry_2
Li0 O0 1.650035 1_555
Li0 O1 1.650041 1_445
Li0 Sc1 1.880573 1_455
Li0 Sc1 1.880573 1_545
Al0 O1 1.841799 1_555
Al0 C1 2.029759 1_556
Al0 C1 2.205326 1_565
Al0 C1 2.205326 1_655
Al1 O0 1.841799 1_555
Al1 C0 2.029761 1_554
Al1 C0 2.205330 1_545
Al1 C0 2.205330 1_455
C0 Sc0 2.332254 1_665
C0 Sc0 2.594202 1_566
C0 Sc0 2.594202 1_656
C1 Sc0 2.332254 1_556
C1 Sc0 2.594202 1_655
C1 Sc0 2.594202 1_565
O0 Sc1 2.070016 1_554
O1 Sc1 2.070023 1_556
