# generated using pymatgen
data_Te2C4S3(O2F3)3
_symmetry_space_group_name_H-M   'P 1'
_cell_length_a   8.18879500
_cell_length_b   12.82874900
_cell_length_c   16.85204355
_cell_angle_alpha   90.00000000
_cell_angle_beta   108.64696722
_cell_angle_gamma   90.00000000
_symmetry_Int_Tables_number   1
_chemical_formula_structural   Te2C4S3(O2F3)3
_chemical_formula_sum   'Te8 C16 S12 O24 F36'
_cell_volume   1677.40965182
_cell_formula_units_Z   4
loop_
 _symmetry_equiv_pos_site_id
 _symmetry_equiv_pos_as_xyz
  1  'x, y, z'
loop_
 _atom_site_type_symbol
 _atom_site_label
 _atom_site_symmetry_multiplicity
 _atom_site_fract_x
 _atom_site_fract_y
 _atom_site_fract_z
 _atom_site_occupancy
  Te  Te0  1  0.97552800  0.12197500  0.92865800  1
  Te  Te1  1  0.97552800  0.37802500  0.42865800  1
  Te  Te2  1  0.02447200  0.87802500  0.07134200  1
  Te  Te3  1  0.02447200  0.62197500  0.57134200  1
  Te  Te4  1  0.22973100  0.98609900  0.00366400  1
  Te  Te5  1  0.22973100  0.51390100  0.50366400  1
  Te  Te6  1  0.77026900  0.01390100  0.99633600  1
  Te  Te7  1  0.77026900  0.48609900  0.49633600  1
  C  C0  1  0.38307700  0.59912300  0.25861200  1
  C  C1  1  0.38307700  0.90087700  0.75861200  1
  C  C2  1  0.61692300  0.40087700  0.74138800  1
  C  C3  1  0.61692300  0.09912300  0.24138800  1
  C  C4  1  0.63562300  0.74078100  0.22898000  1
  C  C5  1  0.63562300  0.75921900  0.72898000  1
  C  C6  1  0.36437700  0.25921900  0.77102000  1
  C  C7  1  0.36437700  0.24078100  0.27102000  1
  C  C8  1  0.59923400  0.63853300  0.06720900  1
  C  C9  1  0.59923400  0.86146700  0.56720900  1
  C  C10  1  0.40076600  0.36146700  0.93279100  1
  C  C11  1  0.40076600  0.13853300  0.43279100  1
  C  C12  1  0.95797900  0.83396000  0.33521700  1
  C  C13  1  0.95797900  0.66604000  0.83521700  1
  C  C14  1  0.04202100  0.16604000  0.66478300  1
  C  C15  1  0.04202100  0.33396000  0.16478300  1
  S  S0  1  0.56929200  0.76594600  0.12285900  1
  S  S1  1  0.56929200  0.73405400  0.62285900  1
  S  S2  1  0.43070800  0.23405400  0.87714100  1
  S  S3  1  0.43070800  0.26594600  0.37714100  1
  S  S4  1  0.85219800  0.71305700  0.27579700  1
  S  S5  1  0.85219800  0.78694300  0.77579700  1
  S  S6  1  0.14780200  0.28694300  0.72420300  1
  S  S7  1  0.14780200  0.21305700  0.22420300  1
  S  S8  1  0.48855200  0.73147600  0.28378100  1
  S  S9  1  0.48855200  0.76852400  0.78378100  1
  S  S10  1  0.51144800  0.26852400  0.71621900  1
  S  S11  1  0.51144800  0.23147600  0.21621900  1
  O  O0  1  0.92833600  0.70289000  0.20973000  1
  O  O1  1  0.92833600  0.79711000  0.70973000  1
  O  O2  1  0.07166400  0.29711000  0.79027000  1
  O  O3  1  0.07166400  0.20289000  0.29027000  1
  O  O4  1  0.67667100  0.84261000  0.09938100  1
  O  O5  1  0.67667100  0.65739000  0.59938100  1
  O  O6  1  0.32332900  0.15739000  0.90061900  1
  O  O7  1  0.32332900  0.34261000  0.40061900  1
  O  O8  1  0.38397300  0.78257300  0.09299400  1
  O  O9  1  0.38397300  0.71742700  0.59299400  1
  O  O10  1  0.61602700  0.21742700  0.90700600  1
  O  O11  1  0.61602700  0.28257300  0.40700600  1
  O  O12  1  0.58298400  0.72506100  0.37203600  1
  O  O13  1  0.58298400  0.77493900  0.87203600  1
  O  O14  1  0.41701600  0.27493900  0.62796400  1
  O  O15  1  0.41701600  0.22506100  0.12796400  1
  O  O16  1  0.34859800  0.80409900  0.25244700  1
  O  O17  1  0.34859800  0.69590100  0.75244700  1
  O  O18  1  0.65140200  0.19590100  0.74755300  1
  O  O19  1  0.65140200  0.30409900  0.24755300  1
  O  O20  1  0.88009900  0.63454000  0.34002700  1
  O  O21  1  0.88009900  0.86546000  0.84002700  1
  O  O22  1  0.11990100  0.36546000  0.65997300  1
  O  O23  1  0.11990100  0.13454000  0.15997300  1
  F  F0  1  0.61873200  0.55699800  0.11987800  1
  F  F1  1  0.61873200  0.94300200  0.61987800  1
  F  F2  1  0.38126800  0.44300200  0.88012200  1
  F  F3  1  0.38126800  0.05699800  0.38012200  1
  F  F4  1  0.50297200  0.52250100  0.27691100  1
  F  F5  1  0.50297200  0.97749900  0.77691100  1
  F  F6  1  0.49702800  0.47749900  0.72308900  1
  F  F7  1  0.49702800  0.02250100  0.22308900  1
  F  F8  1  0.27981200  0.58563100  0.30653300  1
  F  F9  1  0.27981200  0.91436900  0.80653300  1
  F  F10  1  0.72018800  0.41436900  0.69346700  1
  F  F11  1  0.72018800  0.08563100  0.19346700  1
  F  F12  1  0.45629900  0.62446100  0.00110200  1
  F  F13  1  0.45629900  0.87553900  0.50110200  1
  F  F14  1  0.54370100  0.37553900  0.99889800  1
  F  F15  1  0.54370100  0.12446100  0.49889800  1
  F  F16  1  0.73636800  0.64558800  0.04027800  1
  F  F17  1  0.73636800  0.85441200  0.54027800  1
  F  F18  1  0.26363200  0.35441200  0.95972200  1
  F  F19  1  0.26363200  0.14558800  0.45972200  1
  F  F20  1  0.95821200  0.91152400  0.28107900  1
  F  F21  1  0.95821200  0.58847600  0.78107900  1
  F  F22  1  0.04178800  0.08847600  0.71892100  1
  F  F23  1  0.04178800  0.41152400  0.21892100  1
  F  F24  1  0.28725800  0.59230500  0.17716100  1
  F  F25  1  0.28725800  0.90769500  0.67716100  1
  F  F26  1  0.71274200  0.40769500  0.82283900  1
  F  F27  1  0.71274200  0.09230500  0.32283900  1
  F  F28  1  0.12241200  0.80944600  0.37933700  1
  F  F29  1  0.12241200  0.69055400  0.87933700  1
  F  F30  1  0.87758800  0.19055400  0.62066300  1
  F  F31  1  0.87758800  0.30944600  0.12066300  1
  F  F32  1  0.87648500  0.86654800  0.38876800  1
  F  F33  1  0.87648500  0.63345200  0.88876800  1
  F  F34  1  0.12351500  0.13345200  0.61123200  1
  F  F35  1  0.12351500  0.36654800  0.11123200  1
loop_
_geom_bond_atom_site_label_1
_geom_bond_atom_site_label_2
_geom_bond_distance
_geom_bond_site_symmetry_2
Te0 Te6 2.697047 1_555
Te0 Te4 2.699395 1_646
Te1 Te7 2.697047 1_555
Te1 Te5 2.699395 1_655
Te2 Te4 2.697047 1_555
Te2 Te6 2.699395 1_464
Te3 Te5 2.697047 1_555
Te3 Te7 2.699395 1_455
C0 F24 1.348580 1_555
C0 F4 1.353377 1_555
C0 F8 1.354208 1_555
C1 F25 1.348580 1_555
C1 F5 1.353377 1_555
C1 F9 1.354208 1_555
C2 F26 1.348580 1_555
C2 F6 1.353377 1_555
C2 F10 1.354208 1_555
C3 F27 1.348580 1_555
C3 F7 1.353377 1_555
C3 F11 1.354208 1_555
C4 S0 1.725196 1_555
C4 S4 1.731895 1_555
C4 S8 1.740336 1_555
C5 S1 1.725196 1_555
C5 S5 1.731895 1_555
C5 S9 1.740336 1_555
C6 S2 1.725196 1_555
C6 S6 1.731895 1_555
C6 S10 1.740336 1_555
C7 S3 1.725196 1_555
C7 S7 1.731895 1_555
C7 S11 1.740336 1_555
C8 F16 1.342056 1_555
C8 F12 1.345297 1_555
C8 F0 1.347875 1_555
C9 F17 1.342056 1_555
C9 F13 1.345297 1_555
C9 F1 1.347875 1_555
C10 F18 1.342056 1_555
C10 F14 1.345297 1_555
C10 F2 1.347875 1_555
C11 F19 1.342056 1_555
C11 F15 1.345297 1_555
C11 F3 1.347875 1_555
C12 F32 1.348938 1_555
C12 F20 1.350406 1_555
C12 F28 1.350774 1_655
C13 F33 1.348938 1_555
C13 F21 1.350406 1_555
C13 F29 1.350774 1_655
C14 F34 1.348938 1_555
C14 F22 1.350406 1_555
C14 F30 1.350774 1_455
C15 F35 1.348938 1_555
C15 F23 1.350406 1_555
C15 F31 1.350774 1_455
O0 S4 1.445411 1_555
O1 S5 1.445411 1_555
O2 S6 1.445411 1_555
O3 S7 1.445411 1_555
O4 S0 1.455839 1_555
O5 S1 1.455839 1_555
O6 S2 1.455839 1_555
O7 S3 1.455839 1_555
O8 S0 1.453726 1_555
O9 S1 1.453726 1_555
O10 S2 1.453726 1_555
O11 S3 1.453726 1_555
O12 S8 1.442666 1_555
O13 S9 1.442666 1_555
O14 S10 1.442666 1_555
O15 S11 1.442666 1_555
O16 S8 1.439888 1_555
O17 S9 1.439888 1_555
O18 S10 1.439888 1_555
O19 S11 1.439888 1_555
O20 S4 1.442312 1_555
O21 S5 1.442312 1_555
O22 S6 1.442312 1_555
O23 S7 1.442312 1_555
