# generated using pymatgen
data_KNa7V6Cr2O24
_symmetry_space_group_name_H-M   'P 1'
_cell_length_a   7.55676445
_cell_length_b   7.55676445
_cell_length_c   7.58020600
_cell_angle_alpha   90.00000000
_cell_angle_beta   90.00000000
_cell_angle_gamma   90.03939634
_symmetry_Int_Tables_number   1
_chemical_formula_structural   KNa7V6Cr2O24
_chemical_formula_sum   'K1 Na7 V6 Cr2 O24'
_cell_volume   432.86520311
_cell_formula_units_Z   1
loop_
 _symmetry_equiv_pos_site_id
 _symmetry_equiv_pos_as_xyz
  1  'x, y, z'
loop_
 _atom_site_type_symbol
 _atom_site_label
 _atom_site_symmetry_multiplicity
 _atom_site_fract_x
 _atom_site_fract_y
 _atom_site_fract_z
 _atom_site_occupancy
  K  K0  1  0.24947100  0.75052900  0.25000000  1
  Na  Na0  1  0.24953000  0.24952800  0.25000000  1
  Na  Na1  1  0.24948000  0.24949300  0.75000000  1
  Na  Na2  1  0.24973700  0.75026300  0.75000000  1
  Na  Na3  1  0.75019900  0.24980100  0.25000000  1
  Na  Na4  1  0.75026400  0.24973600  0.75000000  1
  Na  Na5  1  0.75047200  0.75047000  0.25000000  1
  Na  Na6  1  0.75050700  0.75052000  0.75000000  1
  V  V0  1  0.99937000  0.49923700  0.99941100  1
  V  V1  1  0.99937000  0.49923700  0.50058900  1
  V  V2  1  0.50076300  0.00063000  0.99941100  1
  V  V3  1  0.50076300  0.00063000  0.50058900  1
  V  V4  1  0.50056000  0.49944000  0.99940400  1
  V  V5  1  0.50056000  0.49944000  0.50059600  1
  Cr  Cr0  1  0.99957600  0.00042400  0.99951200  1
  Cr  Cr1  1  0.99957600  0.00042400  0.50048800  1
  O  O0  1  0.25197900  0.00201400  0.99808400  1
  O  O1  1  0.25197900  0.00201400  0.50191600  1
  O  O2  1  0.25047500  0.49815000  0.99815800  1
  O  O3  1  0.25047500  0.49815000  0.50184200  1
  O  O4  1  0.74810000  0.00022700  0.99970100  1
  O  O5  1  0.74810000  0.00022700  0.50029900  1
  O  O6  1  0.74950700  0.49971600  0.99970300  1
  O  O7  1  0.74950700  0.49971600  0.50029700  1
  O  O8  1  0.99977300  0.25190000  0.99970100  1
  O  O9  1  0.99977300  0.25190000  0.50029900  1
  O  O10  1  0.99798600  0.74802100  0.99808400  1
  O  O11  1  0.99798600  0.74802100  0.50191600  1
  O  O12  1  0.50028400  0.25049300  0.99970300  1
  O  O13  1  0.50028400  0.25049300  0.50029700  1
  O  O14  1  0.50185000  0.74952500  0.99815800  1
  O  O15  1  0.50185000  0.74952500  0.50184200  1
  O  O16  1  0.99805700  0.00194300  0.25000000  1
  O  O17  1  0.99978000  0.00022000  0.75000000  1
  O  O18  1  0.99800800  0.49812100  0.25000000  1
  O  O19  1  0.99968700  0.49971500  0.75000000  1
  O  O20  1  0.50187900  0.00199200  0.25000000  1
  O  O21  1  0.50028500  0.00031300  0.75000000  1
  O  O22  1  0.50190700  0.49809300  0.25000000  1
  O  O23  1  0.50029000  0.49971000  0.75000000  1
loop_
_geom_bond_atom_site_label_1
_geom_bond_atom_site_label_2
_geom_bond_distance
_geom_bond_site_symmetry_2
K0 O16 2.687755 1_465
K0 O20 2.691483 1_565
K0 O18 2.691483 1_455
K0 O0 2.694134 1_564
K0 O1 2.694134 1_565
K0 O11 2.694134 1_455
K0 O10 2.694134 1_454
K0 O3 2.698463 1_555
K0 O2 2.698463 1_554
K0 O15 2.698463 1_555
K0 O14 2.698463 1_554
K0 O22 2.698680 1_555
Na0 O16 2.665850 1_455
Na0 O20 2.672147 1_555
Na0 O1 2.673066 1_555
Na0 O0 2.673066 1_554
Na0 O18 2.673299 1_455
Na0 O22 2.675910 1_555
Na0 O9 2.676246 1_455
Na0 O8 2.676246 1_454
Na0 O2 2.678465 1_554
Na0 O3 2.678465 1_555
Na0 O12 2.681491 1_554
Na0 O13 2.681491 1_555
Na1 O0 2.652210 1_555
Na1 O1 2.652210 1_555
Na1 O2 2.658822 1_555
Na1 O3 2.658822 1_555
Na1 O17 2.665316 1_455
Na1 O21 2.672572 1_555
Na1 O19 2.672719 1_455
Na1 O8 2.672769 1_455
Na1 O9 2.672769 1_455
Na1 O23 2.676289 1_555
Na1 O13 2.678575 1_555
Na1 O12 2.678575 1_555
Na2 O17 2.672178 1_465
Na2 O21 2.673997 1_565
Na2 O19 2.673997 1_455
Na2 O0 2.675040 1_565
Na2 O1 2.675040 1_565
Na2 O10 2.675040 1_455
Na2 O11 2.675040 1_455
Na2 O2 2.677344 1_555
Na2 O3 2.677344 1_555
Na2 O15 2.677344 1_555
Na2 O14 2.677344 1_555
Na2 O23 2.678550 1_555
Na3 O16 2.649739 1_555
Na3 O18 2.650125 1_555
Na3 O20 2.650125 1_555
Na3 O22 2.654379 1_555
Na3 O9 2.675241 1_555
Na3 O5 2.675241 1_555
Na3 O8 2.675241 1_554
Na3 O4 2.675241 1_554
Na3 O7 2.677016 1_555
Na3 O6 2.677016 1_554
Na3 O12 2.677016 1_554
Na3 O13 2.677016 1_555
Na4 O17 2.667464 1_555
Na4 O21 2.667608 1_555
Na4 O19 2.667608 1_555
Na4 O4 2.671684 1_555
Na4 O8 2.671684 1_555
Na4 O5 2.671684 1_555
Na4 O9 2.671684 1_555
Na4 O23 2.672360 1_555
Na4 O12 2.674175 1_555
Na4 O13 2.674175 1_555
Na4 O6 2.674175 1_555
Na4 O7 2.674175 1_555
Na5 O16 2.665850 1_565
Na5 O18 2.672147 1_555
Na5 O11 2.673066 1_555
Na5 O10 2.673066 1_554
Na5 O20 2.673299 1_565
Na5 O22 2.675910 1_555
Na5 O5 2.676246 1_565
Na5 O4 2.676246 1_564
Na5 O14 2.678465 1_554
Na5 O15 2.678465 1_555
Na5 O7 2.681491 1_555
Na5 O6 2.681491 1_554
Na6 O10 2.652210 1_555
Na6 O11 2.652210 1_555
Na6 O14 2.658822 1_555
Na6 O15 2.658822 1_555
Na6 O17 2.665316 1_565
Na6 O19 2.672572 1_555
Na6 O21 2.672719 1_565
Na6 O4 2.672769 1_565
Na6 O5 2.672769 1_565
Na6 O23 2.676289 1_555
Na6 O6 2.678575 1_555
Na6 O7 2.678575 1_555
Cr0 O17 1.891354 1_555
Cr0 O16 1.898820 1_556
Cr0 O4 1.900345 1_555
Cr0 O8 1.900345 1_555
Cr0 O0 1.907410 1_655
Cr0 O10 1.907410 1_545
Cr1 O17 1.891354 1_555
Cr1 O16 1.898820 1_555
Cr1 O5 1.900345 1_555
Cr1 O9 1.900345 1_555
Cr1 O1 1.907410 1_655
Cr1 O11 1.907410 1_545
O0 V2 1.880065 1_555
O1 V3 1.880065 1_555
O2 V4 1.889875 1_555
O2 V0 1.897589 1_455
O3 V5 1.889875 1_555
O3 V1 1.897589 1_455
O4 V2 1.869073 1_555
O5 V3 1.869073 1_555
O6 V4 1.881235 1_555
O6 V0 1.888163 1_555
O7 V5 1.881235 1_555
O7 V1 1.888163 1_555
O8 V0 1.869073 1_555
O9 V1 1.869073 1_555
O10 V0 1.880065 1_555
O11 V1 1.880065 1_555
O12 V4 1.881235 1_555
O12 V2 1.888163 1_555
O13 V5 1.881235 1_555
O13 V3 1.888163 1_555
O14 V4 1.889875 1_555
O14 V2 1.897589 1_565
O15 V5 1.889875 1_555
O15 V3 1.897589 1_565
O18 V1 1.899563 1_555
O18 V0 1.899563 1_554
O19 V0 1.890592 1_555
O19 V1 1.890592 1_555
O20 V3 1.899563 1_555
O20 V2 1.899563 1_554
O21 V2 1.890592 1_555
O21 V3 1.890592 1_555
O22 V5 1.899624 1_555
O22 V4 1.899624 1_554
O23 V4 1.890536 1_555
O23 V5 1.890536 1_555
