# generated using pymatgen
data_TeMoWSe2S
_symmetry_space_group_name_H-M   'P 1'
_cell_length_a   3.34190557
_cell_length_b   3.34190557
_cell_length_c   38.04295900
_cell_angle_alpha   90.00000000
_cell_angle_beta   90.00000000
_cell_angle_gamma   119.99999155
_symmetry_Int_Tables_number   1
_chemical_formula_structural   TeMoWSe2S
_chemical_formula_sum   'Te2 Mo2 W2 Se4 S2'
_cell_volume   367.95381237
_cell_formula_units_Z   2
loop_
 _symmetry_equiv_pos_site_id
 _symmetry_equiv_pos_as_xyz
  1  'x, y, z'
loop_
 _atom_site_type_symbol
 _atom_site_label
 _atom_site_symmetry_multiplicity
 _atom_site_fract_x
 _atom_site_fract_y
 _atom_site_fract_z
 _atom_site_occupancy
  Te  Te0  1  0.33333300  0.66666700  0.04404000  1
  Te  Te1  1  0.33333300  0.66666700  0.14375100  1
  Mo  Mo0  1  0.00000000  0.00000000  0.09387100  1
  Mo  Mo1  1  0.33333300  0.66666700  0.28182800  1
  W  W0  1  0.00000000  0.00000000  0.46965700  1
  W  W1  1  0.33333300  0.66666700  0.65754400  1
  Se  Se0  1  0.00000000  0.00000000  0.32565000  1
  Se  Se1  1  0.00000000  0.00000000  0.70155800  1
  Se  Se2  1  0.00000000  0.00000000  0.23801800  1
  Se  Se3  1  0.00000000  0.00000000  0.61350700  1
  S  S0  1  0.33333300  0.66666700  0.42964600  1
  S  S1  1  0.33333300  0.66666700  0.50967700  1
loop_
_geom_bond_atom_site_label_1
_geom_bond_atom_site_label_2
_geom_bond_distance
_geom_bond_site_symmetry_2
Mo0 Te0 2.704907 1_545
Mo0 Te0 2.704909 1_445
Mo0 Te0 2.704909 1_555
Mo0 Te1 2.706213 1_545
Mo0 Te1 2.706216 1_555
Mo0 Te1 2.706216 1_445
Mo1 Se2 2.549614 1_565
Mo1 Se2 2.549617 1_555
Mo1 Se2 2.549617 1_665
Mo1 Se0 2.549913 1_565
Mo1 Se0 2.549915 1_665
Mo1 Se0 2.549915 1_555
Se1 W1 2.554694 1_545
Se1 W1 2.554696 1_445
Se1 W1 2.554696 1_555
Se3 W1 2.555268 1_545
Se3 W1 2.555270 1_445
Se3 W1 2.555270 1_555
S0 W0 2.457574 1_565
S0 W0 2.457577 1_665
S0 W0 2.457577 1_555
S1 W0 2.457786 1_565
S1 W0 2.457789 1_665
S1 W0 2.457789 1_555
