# generated using pymatgen
data_LiCaMgSiN3
_symmetry_space_group_name_H-M   'P 1'
_cell_length_a   5.68208005
_cell_length_b   5.68208005
_cell_length_c   6.03614599
_cell_angle_alpha   86.44217211
_cell_angle_beta   86.44217211
_cell_angle_gamma   121.08631949
_symmetry_Int_Tables_number   1
_chemical_formula_structural   LiCaMgSiN3
_chemical_formula_sum   'Li2 Ca2 Mg2 Si2 N6'
_cell_volume   165.56197010
_cell_formula_units_Z   2
loop_
 _symmetry_equiv_pos_site_id
 _symmetry_equiv_pos_as_xyz
  1  'x, y, z'
loop_
 _atom_site_type_symbol
 _atom_site_label
 _atom_site_symmetry_multiplicity
 _atom_site_fract_x
 _atom_site_fract_y
 _atom_site_fract_z
 _atom_site_occupancy
  Li  Li0  1  0.67492500  0.67492500  0.09325700  1
  Li  Li1  1  0.32507500  0.32507500  0.90674300  1
  Ca  Ca0  1  0.67963000  0.32037000  0.50000000  1
  Ca  Ca1  1  0.32037000  0.67963000  0.50000000  1
  Mg  Mg0  1  0.76633400  0.23366600  0.00000000  1
  Mg  Mg1  1  0.23366600  0.76633400  0.00000000  1
  Si  Si0  1  0.13038900  0.13038900  0.32133900  1
  Si  Si1  1  0.86961100  0.86961100  0.67866100  1
  N  N0  1  0.80836500  0.80836500  0.39012900  1
  N  N1  1  0.19163500  0.19163500  0.60987100  1
  N  N2  1  0.89755800  0.60700500  0.80985500  1
  N  N3  1  0.60700500  0.89755800  0.80985500  1
  N  N4  1  0.10244200  0.39299500  0.19014500  1
  N  N5  1  0.39299500  0.10244200  0.19014500  1
loop_
_geom_bond_atom_site_label_1
_geom_bond_atom_site_label_2
_geom_bond_distance
_geom_bond_site_symmetry_2
Li0 N0 2.025959 1_555
Li0 N2 2.234516 1_554
Li0 N3 2.234516 1_554
Li1 N1 2.025959 1_555
Li1 N4 2.234516 1_556
Li1 N5 2.234516 1_556
Ca0 N5 2.503391 1_555
Ca0 N2 2.503391 1_555
Ca0 N0 2.506095 1_555
Ca0 N1 2.506095 1_555
Ca0 N4 2.786207 1_655
Ca0 N3 2.786207 1_545
Ca1 N4 2.503391 1_555
Ca1 N3 2.503391 1_555
Ca1 N0 2.506095 1_555
Ca1 N1 2.506095 1_555
Ca1 N5 2.786207 1_565
Ca1 N2 2.786207 1_455
Mg0 N5 2.081246 1_555
Mg0 N2 2.081246 1_554
Mg0 N4 2.097569 1_655
Mg0 N3 2.097569 1_544
Mg1 N3 2.081246 1_554
Mg1 N4 2.081246 1_555
Mg1 N5 2.097569 1_565
Mg1 N2 2.097569 1_454
N0 Si0 1.795139 1_665
N0 Si1 1.816822 1_555
N1 Si1 1.795139 1_445
N1 Si0 1.816822 1_555
N2 Si1 1.729878 1_555
N3 Si1 1.729878 1_555
N4 Si0 1.729878 1_555
N5 Si0 1.729878 1_555
