# generated using pymatgen
data_Mg2Si
_symmetry_space_group_name_H-M   'P 1'
_cell_length_a   5.86158000
_cell_length_b   5.87586663
_cell_length_c   7.92769431
_cell_angle_alpha   105.48533388
_cell_angle_beta   90.02447885
_cell_angle_gamma   118.49256355
_symmetry_Int_Tables_number   1
_chemical_formula_structural   Mg2Si
_chemical_formula_sum   'Mg8 Si4'
_cell_volume   228.61425294
_cell_formula_units_Z   4
loop_
 _symmetry_equiv_pos_site_id
 _symmetry_equiv_pos_as_xyz
  1  'x, y, z'
loop_
 _atom_site_type_symbol
 _atom_site_label
 _atom_site_symmetry_multiplicity
 _atom_site_fract_x
 _atom_site_fract_y
 _atom_site_fract_z
 _atom_site_occupancy
  Mg  Mg0  1  0.94162500  0.87937800  0.81804800  1
  Mg  Mg1  1  0.68652700  0.35892300  0.16493200  1
  Mg  Mg2  1  0.18525800  0.87718400  0.18316000  1
  Mg  Mg3  1  0.62614500  0.75858100  0.45581500  1
  Mg  Mg4  1  0.42272500  0.85544400  0.82339300  1
  Mg  Mg5  1  0.63843700  0.27935500  0.52858200  1
  Mg  Mg6  1  0.14154300  0.27692200  0.54374200  1
  Mg  Mg7  1  0.18138100  0.36705800  0.15465000  1
  Si  Si0  1  0.12868500  0.75337400  0.49021600  1
  Si  Si1  1  0.90448500  0.37458400  0.85793700  1
  Si  Si2  1  0.48150100  0.39573800  0.85812200  1
  Si  Si3  1  0.66204500  0.82381600  0.12187200  1
loop_
_geom_bond_atom_site_label_1
_geom_bond_atom_site_label_2
_geom_bond_distance
_geom_bond_site_symmetry_2
Mg0 Si0 2.873052 1_655
Mg0 Mg4 2.890582 1_655
Mg0 Si3 2.916586 1_556
Mg0 Si2 2.936169 1_555
Mg0 Si1 2.954185 1_565
Mg0 Si1 2.971531 1_555
Mg0 Mg4 2.977907 1_555
Mg0 Mg7 3.062439 1_666
Mg0 Si2 3.105569 1_665
Mg1 Si1 2.752082 1_554
Mg1 Si2 2.816668 1_554
Mg1 Mg7 2.879681 1_655
Mg1 Si3 2.910486 1_555
Mg1 Mg3 2.976530 1_555
Mg1 Mg7 2.985479 1_555
Mg1 Mg2 2.991677 1_545
Mg1 Si3 3.003257 1_545
Mg1 Mg2 3.018508 1_655
Mg1 Mg5 3.033789 1_555
Mg1 Si0 3.132180 1_655
Mg1 Mg4 3.135098 1_544
Mg2 Si0 2.698316 1_555
Mg2 Mg7 2.934186 1_555
Mg2 Si3 2.956317 1_455
Mg2 Mg7 2.957497 1_565
Mg2 Si3 2.983428 1_555
Mg2 Si1 3.061184 1_454
Mg2 Mg4 3.172835 1_554
Mg3 Si3 2.768631 1_555
Mg3 Si0 2.915101 1_555
Mg3 Si0 2.973565 1_655
Mg3 Mg7 3.021407 1_555
Mg3 Mg4 3.162617 1_555
Mg4 Si3 2.842924 1_556
Mg4 Si0 2.910474 1_555
Mg4 Si1 2.947709 1_565
Mg4 Si2 2.960210 1_565
Mg4 Si2 2.962388 1_555
Mg4 Si1 3.083978 1_455
Mg4 Mg6 3.132743 1_555
Mg5 Si2 2.790560 1_555
Mg5 Si1 2.818919 1_555
Mg5 Si0 2.987428 1_655
Mg5 Si0 3.042832 1_545
Mg6 Si2 2.899851 1_555
Mg6 Si1 2.909446 1_455
Mg6 Si0 2.954837 1_545
Mg6 Si0 2.976401 1_555
Mg6 Mg7 3.256499 1_555
Mg7 Si1 2.879250 1_454
Mg7 Si3 2.892607 1_555
Mg7 Si2 2.929422 1_554
Mg7 Si0 3.125727 1_555
Mg7 Si3 3.131905 1_445
Si1 Si2 2.540982 1_555
Si2 Si3 2.543384 1_556
