# generated using pymatgen
data_Lu3Al2
_symmetry_space_group_name_H-M   'P 1'
_cell_length_a   7.43284314
_cell_length_b   7.99708417
_cell_length_c   7.99708417
_cell_angle_alpha   89.99982948
_cell_angle_beta   90.00000000
_cell_angle_gamma   90.00000000
_symmetry_Int_Tables_number   1
_chemical_formula_structural   Lu3Al2
_chemical_formula_sum   'Lu12 Al8'
_cell_volume   475.35525764
_cell_formula_units_Z   4
loop_
 _symmetry_equiv_pos_site_id
 _symmetry_equiv_pos_as_xyz
  1  'x, y, z'
loop_
 _atom_site_type_symbol
 _atom_site_label
 _atom_site_symmetry_multiplicity
 _atom_site_fract_x
 _atom_site_fract_y
 _atom_site_fract_z
 _atom_site_occupancy
  Lu  Lu0  1  0.24999941  -0.00000000  0.50000000  1
  Lu  Lu1  1  0.75000059  -0.00000000  0.50000000  1
  Lu  Lu2  1  0.24999941  0.50000000  0.00000000  1
  Lu  Lu3  1  0.75000059  0.50000000  0.00000000  1
  Lu  Lu4  1  -0.00000000  0.34826758  0.34826758  1
  Lu  Lu5  1  0.50000000  0.15173152  0.84826848  1
  Lu  Lu6  1  0.50000000  0.84826848  0.15173152  1
  Lu  Lu7  1  -0.00000000  0.65173242  0.65173242  1
  Lu  Lu8  1  -0.00000000  0.20209485  0.79790515  1
  Lu  Lu9  1  0.50000000  0.70208602  0.70208602  1
  Lu  Lu10  1  0.50000000  0.29791398  0.29791398  1
  Lu  Lu11  1  -0.00000000  0.79790515  0.20209485  1
  Al  Al0  1  0.19896530  0.11917876  0.11917876  1
  Al  Al1  1  0.69901748  0.38084265  0.61915735  1
  Al  Al2  1  0.69901748  0.61915735  0.38084265  1
  Al  Al3  1  0.19896530  0.88082124  0.88082124  1
  Al  Al4  1  0.30098252  0.61915735  0.38084265  1
  Al  Al5  1  0.30098252  0.38084265  0.61915735  1
  Al  Al6  1  0.80103470  0.11917876  0.11917876  1
  Al  Al7  1  0.80103470  0.88082124  0.88082124  1
loop_
_geom_bond_atom_site_label_1
_geom_bond_atom_site_label_2
_geom_bond_distance
_geom_bond_site_symmetry_2
Al0 Al3 2.695729 1_544
Al0 Al6 2.957756 1_455
Al0 Lu4 2.983263 1_555
Al0 Lu10 3.015420 1_555
Al0 Lu11 3.037731 1_545
Al0 Lu8 3.037731 1_554
Al0 Lu5 3.125389 1_554
Al0 Lu6 3.125389 1_545
Al0 Lu0 3.213575 1_555
Al0 Lu2 3.213575 1_555
Al1 Al2 2.695236 1_555
Al1 Al5 2.958531 1_555
Al1 Lu5 2.983668 1_555
Al1 Lu8 3.015224 1_655
Al1 Lu9 3.037741 1_555
Al1 Lu10 3.037741 1_555
Al1 Lu7 3.125014 1_655
Al1 Lu4 3.125014 1_655
Al1 Lu1 3.213647 1_555
Al1 Lu3 3.213647 1_556
Al2 Al4 2.958531 1_555
Al2 Lu6 2.983668 1_555
Al2 Lu11 3.015224 1_655
Al2 Lu10 3.037741 1_555
Al2 Lu9 3.037741 1_555
Al2 Lu7 3.125014 1_655
Al2 Lu4 3.125014 1_655
Al2 Lu1 3.213647 1_565
Al2 Lu3 3.213647 1_555
Al3 Al7 2.957756 1_455
Al3 Lu7 2.983263 1_555
Al3 Lu9 3.015420 1_555
Al3 Lu8 3.037731 1_565
Al3 Lu11 3.037731 1_556
Al3 Lu6 3.125389 1_556
Al3 Lu5 3.125389 1_565
Al3 Lu0 3.213575 1_565
Al3 Lu2 3.213575 1_556
Al4 Al5 2.695236 1_555
Al4 Lu6 2.983668 1_555
Al4 Lu11 3.015224 1_555
Al4 Lu10 3.037741 1_555
Al4 Lu9 3.037741 1_555
Al4 Lu7 3.125014 1_555
Al4 Lu4 3.125014 1_555
Al4 Lu0 3.213647 1_565
Al4 Lu2 3.213647 1_555
Al5 Lu5 2.983668 1_555
Al5 Lu8 3.015224 1_555
Al5 Lu9 3.037741 1_555
Al5 Lu10 3.037741 1_555
Al5 Lu7 3.125014 1_555
Al5 Lu4 3.125014 1_555
Al5 Lu0 3.213647 1_555
Al5 Lu2 3.213647 1_556
Al6 Al7 2.695729 1_544
Al6 Lu4 2.983263 1_655
Al6 Lu10 3.015420 1_555
Al6 Lu11 3.037731 1_645
Al6 Lu8 3.037731 1_654
Al6 Lu6 3.125389 1_545
Al6 Lu5 3.125389 1_554
Al6 Lu3 3.213575 1_555
Al6 Lu1 3.213575 1_555
Al7 Lu7 2.983263 1_655
Al7 Lu9 3.015420 1_555
Al7 Lu8 3.037731 1_665
Al7 Lu11 3.037731 1_656
Al7 Lu6 3.125389 1_556
Al7 Lu5 3.125389 1_565
Al7 Lu3 3.213575 1_556
Al7 Lu1 3.213575 1_565
