# generated using pymatgen
data_Er13Zn58
_symmetry_space_group_name_H-M   'P 1'
_cell_length_a   13.89583307
_cell_length_b   14.21146153
_cell_length_c   14.21146153
_cell_angle_alpha   120.00002659
_cell_angle_beta   90.00000000
_cell_angle_gamma   90.00000000
_symmetry_Int_Tables_number   1
_chemical_formula_structural   Er13Zn58
_chemical_formula_sum   'Er26 Zn116'
_cell_volume   2430.48301987
_cell_formula_units_Z   2
loop_
 _symmetry_equiv_pos_site_id
 _symmetry_equiv_pos_as_xyz
  1  'x, y, z'
loop_
 _atom_site_type_symbol
 _atom_site_label
 _atom_site_symmetry_multiplicity
 _atom_site_fract_x
 _atom_site_fract_y
 _atom_site_fract_z
 _atom_site_occupancy
  Er  Er0  1  0.50000000  -0.00000000  0.00000000  1
  Er  Er1  1  -0.00000000  -0.00000000  0.00000000  1
  Er  Er2  1  0.75000000  0.45634751  0.91270059  1
  Er  Er3  1  0.75000000  0.45634539  0.54365461  1
  Er  Er4  1  0.75000000  0.08729941  0.54365249  1
  Er  Er5  1  0.25000000  0.54365249  0.08729941  1
  Er  Er6  1  0.25000000  0.54365461  0.45634539  1
  Er  Er7  1  0.25000000  0.91270059  0.45634751  1
  Er  Er8  1  0.75000000  0.12818156  0.25636066  1
  Er  Er9  1  0.75000000  0.12817651  0.87182349  1
  Er  Er10  1  0.75000000  0.74363934  0.87181844  1
  Er  Er11  1  0.25000000  0.87181844  0.74363934  1
  Er  Er12  1  0.25000000  0.87182349  0.12817651  1
  Er  Er13  1  0.25000000  0.25636066  0.12818156  1
  Er  Er14  1  0.55177165  0.79424226  0.58849361  1
  Er  Er15  1  0.55176818  0.79423889  0.20576111  1
  Er  Er16  1  0.55177165  0.41150639  0.20575774  1
  Er  Er17  1  0.44822835  0.20575774  0.41150639  1
  Er  Er18  1  0.44823182  0.20576111  0.79423889  1
  Er  Er19  1  0.44822835  0.58849361  0.79424226  1
  Er  Er20  1  0.05177165  0.20575774  0.41150639  1
  Er  Er21  1  0.05176818  0.20576111  0.79423889  1
  Er  Er22  1  0.05177165  0.58849361  0.79424226  1
  Er  Er23  1  0.94822835  0.79424226  0.58849361  1
  Er  Er24  1  0.94823182  0.79423889  0.20576111  1
  Er  Er25  1  0.94822835  0.41150639  0.20575774  1
  Zn  Zn0  1  0.75000000  0.00000089  0.99999911  1
  Zn  Zn1  1  0.25000000  0.99999911  0.00000089  1
  Zn  Zn2  1  0.25000000  0.66667903  0.33332097  1
  Zn  Zn3  1  0.75000000  0.33332097  0.66667903  1
  Zn  Zn4  1  0.59585311  0.66668019  0.33331981  1
  Zn  Zn5  1  0.40414689  0.33331981  0.66668019  1
  Zn  Zn6  1  0.09585311  0.33331981  0.66668019  1
  Zn  Zn7  1  0.90414689  0.66668019  0.33331981  1
  Zn  Zn8  1  0.50000000  0.50000000  0.00000000  1
  Zn  Zn9  1  0.50000000  0.50000000  0.50000000  1
  Zn  Zn10  1  0.50000000  -0.00000000  0.50000000  1
  Zn  Zn11  1  -0.00000000  0.50000000  0.00000000  1
  Zn  Zn12  1  -0.00000000  0.50000000  0.50000000  1
  Zn  Zn13  1  -0.00000000  -0.00000000  0.50000000  1
  Zn  Zn14  1  0.75000000  0.73025624  0.46051175  1
  Zn  Zn15  1  0.75000000  0.73026045  0.26973955  1
  Zn  Zn16  1  0.75000000  0.53948825  0.26974376  1
  Zn  Zn17  1  0.25000000  0.26974376  0.53948825  1
  Zn  Zn18  1  0.25000000  0.26973955  0.73026045  1
  Zn  Zn19  1  0.25000000  0.46051175  0.73025624  1
  Zn  Zn20  1  0.49999954  0.79889660  0.99999837  1
  Zn  Zn21  1  0.50000000  0.20110235  0.20110235  1
  Zn  Zn22  1  0.50000046  0.99999837  0.79889660  1
  Zn  Zn23  1  0.50000046  0.20110340  0.00000163  1
  Zn  Zn24  1  0.49999954  0.00000163  0.20110340  1
  Zn  Zn25  1  0.50000000  0.79889765  0.79889765  1
  Zn  Zn26  1  0.99999954  0.20110340  0.00000163  1
  Zn  Zn27  1  -0.00000000  0.79889765  0.79889765  1
  Zn  Zn28  1  0.00000046  0.00000163  0.20110340  1
  Zn  Zn29  1  0.00000046  0.79889660  0.99999837  1
  Zn  Zn30  1  0.99999954  0.99999837  0.79889660  1
  Zn  Zn31  1  -0.00000000  0.20110235  0.20110235  1
  Zn  Zn32  1  0.75000000  0.91552045  0.63389227  1
  Zn  Zn33  1  0.75000000  0.71837638  0.08447778  1
  Zn  Zn34  1  0.75000000  0.36610820  0.28162914  1
  Zn  Zn35  1  0.75000000  0.71837086  0.63389180  1
  Zn  Zn36  1  0.75000000  0.36610773  0.08447955  1
  Zn  Zn37  1  0.75000000  0.91552222  0.28162362  1
  Zn  Zn38  1  0.25000000  0.08447955  0.36610773  1
  Zn  Zn39  1  0.25000000  0.28162362  0.91552222  1
  Zn  Zn40  1  0.25000000  0.63389180  0.71837086  1
  Zn  Zn41  1  0.25000000  0.28162914  0.36610820  1
  Zn  Zn42  1  0.25000000  0.63389227  0.91552045  1
  Zn  Zn43  1  0.25000000  0.08447778  0.71837638  1
  Zn  Zn44  1  0.65693034  0.90502184  0.81004139  1
  Zn  Zn45  1  0.65692947  0.90502096  0.09497904  1
  Zn  Zn46  1  0.65693034  0.18995861  0.09497816  1
  Zn  Zn47  1  0.34306966  0.09497816  0.18995861  1
  Zn  Zn48  1  0.34307053  0.09497904  0.90502096  1
  Zn  Zn49  1  0.34306966  0.81004139  0.90502184  1
  Zn  Zn50  1  0.15693034  0.09497816  0.18995861  1
  Zn  Zn51  1  0.15692947  0.09497904  0.90502096  1
  Zn  Zn52  1  0.15693034  0.81004139  0.90502184  1
  Zn  Zn53  1  0.84306966  0.90502184  0.81004139  1
  Zn  Zn54  1  0.84307053  0.90502096  0.09497904  1
  Zn  Zn55  1  0.84306966  0.18995861  0.09497816  1
  Zn  Zn56  1  0.14175651  0.43666957  0.87333819  1
  Zn  Zn57  1  0.14175474  0.43666355  0.56333645  1
  Zn  Zn58  1  0.14175651  0.12666181  0.56333043  1
  Zn  Zn59  1  0.85824349  0.56333043  0.12666181  1
  Zn  Zn60  1  0.85824526  0.56333645  0.43666355  1
  Zn  Zn61  1  0.85824349  0.87333819  0.43666957  1
  Zn  Zn62  1  0.64175651  0.56333043  0.12666181  1
  Zn  Zn63  1  0.64175474  0.56333645  0.43666355  1
  Zn  Zn64  1  0.64175651  0.87333819  0.43666957  1
  Zn  Zn65  1  0.35824349  0.43666957  0.87333819  1
  Zn  Zn66  1  0.35824526  0.43666355  0.56333645  1
  Zn  Zn67  1  0.35824349  0.12666181  0.56333043  1
  Zn  Zn68  1  0.55091684  0.39878610  0.79757390  1
  Zn  Zn69  1  0.55090868  0.39878361  0.60121639  1
  Zn  Zn70  1  0.55091684  0.20242610  0.60121390  1
  Zn  Zn71  1  0.44908316  0.60121390  0.20242610  1
  Zn  Zn72  1  0.44909132  0.60121639  0.39878361  1
  Zn  Zn73  1  0.44908316  0.79757390  0.39878610  1
  Zn  Zn74  1  0.05091684  0.60121390  0.20242610  1
  Zn  Zn75  1  0.05090868  0.60121639  0.39878361  1
  Zn  Zn76  1  0.05091684  0.79757390  0.39878610  1
  Zn  Zn77  1  0.94908316  0.39878610  0.79757390  1
  Zn  Zn78  1  0.94909132  0.39878361  0.60121639  1
  Zn  Zn79  1  0.94908316  0.20242610  0.60121390  1
  Zn  Zn80  1  0.15729089  0.76389202  0.52778045  1
  Zn  Zn81  1  0.15728730  0.76389326  0.23610674  1
  Zn  Zn82  1  0.15729089  0.47221955  0.23610798  1
  Zn  Zn83  1  0.84270911  0.23610798  0.47221955  1
  Zn  Zn84  1  0.84271270  0.23610674  0.76389326  1
  Zn  Zn85  1  0.84270911  0.52778045  0.76389202  1
  Zn  Zn86  1  0.65729089  0.23610798  0.47221955  1
  Zn  Zn87  1  0.65728730  0.23610674  0.76389326  1
  Zn  Zn88  1  0.65729089  0.52778045  0.76389202  1
  Zn  Zn89  1  0.34270911  0.76389202  0.52778045  1
  Zn  Zn90  1  0.34271270  0.76389326  0.23610674  1
  Zn  Zn91  1  0.34270911  0.47221955  0.23610798  1
  Zn  Zn92  1  0.60253360  0.63413390  0.96394269  1
  Zn  Zn93  1  0.60253600  0.32980978  0.36586737  1
  Zn  Zn94  1  0.60253280  0.03605446  0.67018890  1
  Zn  Zn95  1  0.60253280  0.32981110  0.96394554  1
  Zn  Zn96  1  0.60253360  0.03605731  0.36586610  1
  Zn  Zn97  1  0.60253600  0.63413263  0.67019022  1
  Zn  Zn98  1  0.39746640  0.36586610  0.03605731  1
  Zn  Zn99  1  0.39746400  0.67019022  0.63413263  1
  Zn  Zn100  1  0.39746720  0.96394554  0.32981110  1
  Zn  Zn101  1  0.39746720  0.67018890  0.03605446  1
  Zn  Zn102  1  0.39746640  0.96394269  0.63413390  1
  Zn  Zn103  1  0.39746400  0.36586737  0.32980978  1
  Zn  Zn104  1  0.10253360  0.36586610  0.03605731  1
  Zn  Zn105  1  0.10253600  0.67019022  0.63413263  1
  Zn  Zn106  1  0.10253280  0.96394554  0.32981110  1
  Zn  Zn107  1  0.10253280  0.67018890  0.03605446  1
  Zn  Zn108  1  0.10253360  0.96394269  0.63413390  1
  Zn  Zn109  1  0.10253600  0.36586737  0.32980978  1
  Zn  Zn110  1  0.89746640  0.63413390  0.96394269  1
  Zn  Zn111  1  0.89746400  0.32980978  0.36586737  1
  Zn  Zn112  1  0.89746720  0.03605446  0.67018890  1
  Zn  Zn113  1  0.89746720  0.32981110  0.96394554  1
  Zn  Zn114  1  0.89746640  0.03605731  0.36586610  1
  Zn  Zn115  1  0.89746400  0.63413263  0.67019022  1
loop_
_geom_bond_atom_site_label_1
_geom_bond_atom_site_label_2
_geom_bond_distance
_geom_bond_site_symmetry_2
Er0 Zn25 2.857957 1_544
Er0 Zn21 2.857957 1_555
Er0 Zn23 2.857962 1_555
Er0 Zn24 2.857962 1_555
Er0 Zn20 2.857962 1_544
Er0 Zn22 2.857962 1_544
Er0 Zn45 3.197047 1_545
Er0 Zn48 3.197047 1_554
Er0 Zn46 3.197060 1_555
Er0 Zn44 3.197060 1_544
Er0 Zn47 3.197060 1_555
Er0 Zn49 3.197060 1_544
Er0 Zn1 3.473958 1_545
Er0 Zn0 3.473958 1_554
Er1 Zn27 2.857957 1_544
Er1 Zn31 2.857957 1_555
Er1 Zn26 2.857962 1_455
Er1 Zn28 2.857962 1_555
Er1 Zn30 2.857962 1_444
Er1 Zn29 2.857962 1_544
Er1 Zn51 3.197047 1_554
Er1 Zn54 3.197047 1_445
Er1 Zn55 3.197060 1_455
Er1 Zn53 3.197060 1_444
Er1 Zn50 3.197060 1_555
Er1 Zn52 3.197060 1_544
Er1 Zn1 3.473958 1_545
Er1 Zn0 3.473958 1_454
Er2 Zn3 3.027906 1_555
Er2 Zn62 3.032625 1_556
Er2 Zn59 3.032625 1_556
Er2 Zn113 3.045142 1_555
Er2 Zn95 3.045142 1_555
Er2 Zn110 3.045192 1_555
Er2 Zn92 3.045192 1_555
Er2 Zn88 3.051130 1_555
Er2 Zn85 3.051130 1_555
Er2 Zn84 3.051139 1_555
Er2 Zn87 3.051139 1_555
Er2 Zn68 3.108179 1_555
Er2 Zn77 3.108179 1_555
Er2 Zn36 3.276429 1_556
Er2 Zn33 3.276533 1_556
Er3 Zn3 3.028243 1_555
Er3 Zn63 3.032861 1_555
Er3 Zn60 3.032861 1_555
Er3 Zn115 3.045154 1_555
Er3 Zn97 3.045154 1_555
Er3 Zn93 3.045154 1_555
Er3 Zn111 3.045154 1_555
Er3 Zn88 3.051073 1_555
Er3 Zn85 3.051073 1_555
Er3 Zn83 3.051073 1_555
Er3 Zn86 3.051073 1_555
Er3 Zn69 3.108263 1_555
Er3 Zn78 3.108263 1_555
Er3 Zn35 3.276524 1_555
Er3 Zn34 3.276524 1_555
Er4 Zn3 3.027906 1_555
Er4 Zn61 3.032625 1_545
Er4 Zn64 3.032625 1_545
Er4 Zn112 3.045142 1_555
Er4 Zn94 3.045142 1_555
Er4 Zn114 3.045192 1_555
Er4 Zn96 3.045192 1_555
Er4 Zn83 3.051130 1_555
Er4 Zn86 3.051130 1_555
Er4 Zn84 3.051139 1_555
Er4 Zn87 3.051139 1_555
Er4 Zn79 3.108179 1_555
Er4 Zn70 3.108179 1_555
Er4 Zn32 3.276429 1_545
Er4 Zn37 3.276533 1_545
Er5 Zn2 3.027906 1_555
Er5 Zn65 3.032625 1_554
Er5 Zn56 3.032625 1_554
Er5 Zn101 3.045142 1_555
Er5 Zn107 3.045142 1_555
Er5 Zn104 3.045192 1_555
Er5 Zn98 3.045192 1_555
Er5 Zn91 3.051130 1_555
Er5 Zn82 3.051130 1_555
Er5 Zn81 3.051139 1_555
Er5 Zn90 3.051139 1_555
Er5 Zn71 3.108179 1_555
Er5 Zn74 3.108179 1_555
Er5 Zn42 3.276429 1_554
Er5 Zn39 3.276533 1_554
Er6 Zn2 3.028243 1_555
Er6 Zn57 3.032861 1_555
Er6 Zn66 3.032861 1_555
Er6 Zn99 3.045154 1_555
Er6 Zn105 3.045154 1_555
Er6 Zn109 3.045154 1_555
Er6 Zn103 3.045154 1_555
Er6 Zn80 3.051073 1_555
Er6 Zn89 3.051073 1_555
Er6 Zn91 3.051073 1_555
Er6 Zn82 3.051073 1_555
Er6 Zn75 3.108263 1_555
Er6 Zn72 3.108263 1_555
Er6 Zn41 3.276524 1_555
Er6 Zn40 3.276524 1_555
Er7 Zn2 3.027906 1_555
Er7 Zn58 3.032625 1_565
Er7 Zn67 3.032625 1_565
Er7 Zn100 3.045142 1_555
Er7 Zn106 3.045142 1_555
Er7 Zn102 3.045192 1_555
Er7 Zn108 3.045192 1_555
Er7 Zn89 3.051130 1_555
Er7 Zn80 3.051130 1_555
Er7 Zn81 3.051139 1_555
Er7 Zn90 3.051139 1_555
Er7 Zn73 3.108179 1_555
Er7 Zn76 3.108179 1_555
Er7 Zn38 3.276429 1_565
Er7 Zn43 3.276533 1_565
Er8 Zn83 2.952556 1_555
Er8 Zn86 2.952556 1_555
Er8 Zn46 3.117204 1_555
Er8 Zn55 3.117204 1_555
Er8 Zn54 3.117214 1_545
Er8 Zn45 3.117214 1_545
Er8 Zn0 3.155166 1_554
Er8 Zn37 3.216774 1_545
Er8 Zn34 3.216802 1_555
Er8 Zn111 3.220596 1_555
Er8 Zn93 3.220596 1_555
Er8 Zn96 3.220630 1_555
Er8 Zn114 3.220630 1_555
Er9 Zn84 2.952596 1_555
Er9 Zn87 2.952596 1_555
Er9 Zn46 3.117126 1_556
Er9 Zn55 3.117126 1_556
Er9 Zn53 3.117126 1_545
Er9 Zn44 3.117126 1_545
Er9 Zn0 3.155040 1_555
Er9 Zn36 3.216827 1_556
Er9 Zn32 3.216827 1_545
Er9 Zn113 3.220686 1_555
Er9 Zn94 3.220686 1_555
Er9 Zn112 3.220686 1_555
Er9 Zn95 3.220686 1_555
Er10 Zn88 2.952556 1_555
Er10 Zn85 2.952556 1_555
Er10 Zn53 3.117204 1_555
Er10 Zn44 3.117204 1_555
Er10 Zn45 3.117214 1_556
Er10 Zn54 3.117214 1_556
Er10 Zn0 3.155166 1_565
Er10 Zn33 3.216774 1_556
Er10 Zn35 3.216802 1_555
Er10 Zn97 3.220596 1_555
Er10 Zn115 3.220596 1_555
Er10 Zn110 3.220630 1_555
Er10 Zn92 3.220630 1_555
Er11 Zn80 2.952556 1_555
Er11 Zn89 2.952556 1_555
Er11 Zn52 3.117204 1_555
Er11 Zn49 3.117204 1_555
Er11 Zn51 3.117214 1_565
Er11 Zn48 3.117214 1_565
Er11 Zn1 3.155166 1_556
Er11 Zn43 3.216774 1_565
Er11 Zn40 3.216802 1_555
Er11 Zn99 3.220596 1_555
Er11 Zn105 3.220596 1_555
Er11 Zn108 3.220630 1_555
Er11 Zn102 3.220630 1_555
Er12 Zn90 2.952596 1_555
Er12 Zn81 2.952596 1_555
Er12 Zn47 3.117126 1_565
Er12 Zn50 3.117126 1_565
Er12 Zn52 3.117126 1_554
Er12 Zn49 3.117126 1_554
Er12 Zn1 3.155040 1_555
Er12 Zn38 3.216827 1_565
Er12 Zn42 3.216827 1_554
Er12 Zn107 3.220686 1_555
Er12 Zn101 3.220686 1_555
Er12 Zn100 3.220686 1_555
Er12 Zn106 3.220686 1_555
Er13 Zn91 2.952556 1_555
Er13 Zn82 2.952556 1_555
Er13 Zn50 3.117204 1_555
Er13 Zn47 3.117204 1_555
Er13 Zn51 3.117214 1_554
Er13 Zn48 3.117214 1_554
Er13 Zn1 3.155166 1_545
Er13 Zn39 3.216774 1_554
Er13 Zn41 3.216802 1_555
Er13 Zn109 3.220596 1_555
Er13 Zn103 3.220596 1_555
Er13 Zn104 3.220630 1_555
Er13 Zn98 3.220630 1_555
Er14 Zn89 2.999657 1_555
Er14 Zn25 3.043861 1_555
Er14 Zn22 3.043901 1_555
Er14 Zn99 3.044651 1_555
Er14 Zn102 3.044715 1_555
Er14 Zn72 3.071453 1_555
Er14 Zn73 3.071577 1_555
Er14 Zn44 3.093569 1_555
Er14 Zn97 3.108826 1_555
Er14 Zn94 3.108896 1_565
Er14 Zn35 3.140390 1_555
Er14 Zn32 3.140444 1_555
Er14 Zn63 3.147532 1_555
Er14 Zn64 3.147670 1_555
Er14 Zn14 3.173103 1_555
Er14 Zn4 3.199727 1_555
Er15 Zn90 2.999495 1_555
Er15 Zn20 3.044062 1_554
Er15 Zn24 3.044062 1_565
Er15 Zn101 3.044691 1_555
Er15 Zn100 3.044691 1_555
Er15 Zn73 3.071356 1_555
Er15 Zn71 3.071356 1_555
Er15 Zn45 3.093765 1_555
Er15 Zn96 3.108944 1_565
Er15 Zn92 3.108944 1_554
Er15 Zn33 3.140497 1_555
Er15 Zn37 3.140497 1_555
Er15 Zn64 3.147539 1_555
Er15 Zn62 3.147539 1_555
Er15 Zn15 3.172993 1_555
Er15 Zn4 3.199056 1_555
Er16 Zn91 2.999657 1_555
Er16 Zn21 3.043861 1_555
Er16 Zn23 3.043901 1_555
Er16 Zn103 3.044651 1_555
Er16 Zn98 3.044715 1_555
Er16 Zn72 3.071453 1_555
Er16 Zn71 3.071577 1_555
Er16 Zn46 3.093569 1_555
Er16 Zn93 3.108826 1_555
Er16 Zn95 3.108896 1_554
Er16 Zn34 3.140390 1_555
Er16 Zn36 3.140444 1_555
Er16 Zn63 3.147532 1_555
Er16 Zn62 3.147670 1_555
Er16 Zn16 3.173103 1_555
Er16 Zn4 3.199727 1_555
Er17 Zn86 2.999657 1_555
Er17 Zn21 3.043861 1_555
Er17 Zn24 3.043901 1_555
Er17 Zn93 3.044651 1_555
Er17 Zn96 3.044715 1_555
Er17 Zn69 3.071453 1_555
Er17 Zn70 3.071577 1_555
Er17 Zn47 3.093569 1_555
Er17 Zn103 3.108826 1_555
Er17 Zn100 3.108896 1_545
Er17 Zn41 3.140390 1_555
Er17 Zn38 3.140444 1_555
Er17 Zn66 3.147532 1_555
Er17 Zn67 3.147670 1_555
Er17 Zn17 3.173103 1_555
Er17 Zn5 3.199727 1_555
Er18 Zn87 2.999495 1_555
Er18 Zn22 3.044062 1_545
Er18 Zn23 3.044062 1_556
Er18 Zn95 3.044691 1_555
Er18 Zn94 3.044691 1_555
Er18 Zn68 3.071356 1_555
Er18 Zn70 3.071356 1_555
Er18 Zn48 3.093765 1_555
Er18 Zn98 3.108944 1_556
Er18 Zn102 3.108944 1_545
Er18 Zn39 3.140497 1_555
Er18 Zn43 3.140497 1_555
Er18 Zn67 3.147539 1_555
Er18 Zn65 3.147539 1_555
Er18 Zn18 3.172993 1_555
Er18 Zn5 3.199056 1_555
Er19 Zn88 2.999657 1_555
Er19 Zn25 3.043861 1_555
Er19 Zn20 3.043901 1_555
Er19 Zn97 3.044651 1_555
Er19 Zn92 3.044715 1_555
Er19 Zn69 3.071453 1_555
Er19 Zn68 3.071577 1_555
Er19 Zn49 3.093569 1_555
Er19 Zn99 3.108826 1_555
Er19 Zn101 3.108896 1_556
Er19 Zn40 3.140390 1_555
Er19 Zn42 3.140444 1_555
Er19 Zn66 3.147532 1_555
Er19 Zn65 3.147670 1_555
Er19 Zn19 3.173103 1_555
Er19 Zn5 3.199727 1_555
Er20 Zn83 2.999657 1_455
Er20 Zn31 3.043861 1_555
Er20 Zn28 3.043901 1_555
Er20 Zn111 3.044651 1_455
Er20 Zn114 3.044715 1_455
Er20 Zn78 3.071453 1_455
Er20 Zn79 3.071577 1_455
Er20 Zn50 3.093569 1_555
Er20 Zn109 3.108826 1_555
Er20 Zn106 3.108896 1_545
Er20 Zn41 3.140390 1_555
Er20 Zn38 3.140444 1_555
Er20 Zn57 3.147532 1_555
Er20 Zn58 3.147670 1_555
Er20 Zn17 3.173103 1_555
Er20 Zn6 3.199727 1_555
Er21 Zn84 2.999495 1_455
Er21 Zn30 3.044062 1_445
Er21 Zn26 3.044062 1_456
Er21 Zn112 3.044691 1_455
Er21 Zn113 3.044691 1_455
Er21 Zn77 3.071356 1_455
Er21 Zn79 3.071356 1_455
Er21 Zn51 3.093765 1_555
Er21 Zn104 3.108944 1_556
Er21 Zn108 3.108944 1_545
Er21 Zn39 3.140497 1_555
Er21 Zn43 3.140497 1_555
Er21 Zn58 3.147539 1_555
Er21 Zn56 3.147539 1_555
Er21 Zn18 3.172993 1_555
Er21 Zn6 3.199056 1_555
Er22 Zn85 2.999657 1_455
Er22 Zn27 3.043861 1_555
Er22 Zn29 3.043901 1_555
Er22 Zn115 3.044651 1_455
Er22 Zn110 3.044715 1_455
Er22 Zn78 3.071453 1_455
Er22 Zn77 3.071577 1_455
Er22 Zn52 3.093569 1_555
Er22 Zn105 3.108826 1_555
Er22 Zn107 3.108896 1_556
Er22 Zn40 3.140390 1_555
Er22 Zn42 3.140444 1_555
Er22 Zn57 3.147532 1_555
Er22 Zn56 3.147670 1_555
Er22 Zn19 3.173103 1_555
Er22 Zn6 3.199727 1_555
Er23 Zn80 2.999657 1_655
Er23 Zn27 3.043861 1_655
Er23 Zn30 3.043901 1_555
Er23 Zn105 3.044651 1_655
Er23 Zn108 3.044715 1_655
Er23 Zn75 3.071453 1_655
Er23 Zn76 3.071577 1_655
Er23 Zn53 3.093569 1_555
Er23 Zn115 3.108826 1_555
Er23 Zn112 3.108896 1_565
Er23 Zn35 3.140390 1_555
Er23 Zn32 3.140444 1_555
Er23 Zn60 3.147532 1_555
Er23 Zn61 3.147670 1_555
Er23 Zn14 3.173103 1_555
Er23 Zn7 3.199727 1_555
Er24 Zn81 2.999495 1_655
Er24 Zn29 3.044062 1_654
Er24 Zn28 3.044062 1_665
Er24 Zn106 3.044691 1_655
Er24 Zn107 3.044691 1_655
Er24 Zn76 3.071356 1_655
Er24 Zn74 3.071356 1_655
Er24 Zn54 3.093765 1_555
Er24 Zn114 3.108944 1_565
Er24 Zn110 3.108944 1_554
Er24 Zn33 3.140497 1_555
Er24 Zn37 3.140497 1_555
Er24 Zn59 3.147539 1_555
Er24 Zn61 3.147539 1_555
Er24 Zn15 3.172993 1_555
Er24 Zn7 3.199056 1_555
Er25 Zn82 2.999657 1_655
Er25 Zn31 3.043861 1_655
Er25 Zn26 3.043901 1_555
Er25 Zn109 3.044651 1_655
Er25 Zn104 3.044715 1_655
Er25 Zn75 3.071453 1_655
Er25 Zn74 3.071577 1_655
Er25 Zn55 3.093569 1_555
Er25 Zn111 3.108826 1_555
Er25 Zn113 3.108896 1_554
Er25 Zn34 3.140390 1_555
Er25 Zn36 3.140444 1_555
Er25 Zn60 3.147532 1_555
Er25 Zn59 3.147670 1_555
Er25 Zn16 3.173103 1_555
Er25 Zn7 3.199727 1_555
Zn0 Zn53 2.671771 1_545
Zn0 Zn44 2.671771 1_545
Zn0 Zn55 2.671771 1_556
Zn0 Zn46 2.671771 1_556
Zn0 Zn45 2.671800 1_546
Zn0 Zn54 2.671800 1_546
Zn1 Zn49 2.671771 1_554
Zn1 Zn52 2.671771 1_554
Zn1 Zn50 2.671771 1_565
Zn1 Zn47 2.671771 1_565
Zn1 Zn51 2.671800 1_564
Zn1 Zn48 2.671800 1_564
Zn2 Zn81 2.717695 1_555
Zn2 Zn90 2.717695 1_555
Zn2 Zn82 2.718006 1_555
Zn2 Zn80 2.718006 1_555
Zn2 Zn91 2.718006 1_555
Zn2 Zn89 2.718006 1_555
Zn3 Zn84 2.717695 1_555
Zn3 Zn87 2.717695 1_555
Zn3 Zn83 2.718006 1_555
Zn3 Zn86 2.718006 1_555
Zn3 Zn88 2.718006 1_555
Zn3 Zn85 2.718006 1_555
Zn4 Zn73 2.598991 1_555
Zn4 Zn71 2.598991 1_555
Zn4 Zn72 2.599161 1_555
Zn4 Zn62 2.622205 1_555
Zn4 Zn64 2.622205 1_555
Zn4 Zn63 2.622552 1_555
Zn5 Zn68 2.598991 1_555
Zn5 Zn70 2.598991 1_555
Zn5 Zn69 2.599161 1_555
Zn5 Zn65 2.622205 1_555
Zn5 Zn67 2.622205 1_555
Zn5 Zn66 2.622552 1_555
Zn6 Zn77 2.598991 1_455
Zn6 Zn79 2.598991 1_455
Zn6 Zn78 2.599161 1_455
Zn7 Zn76 2.598991 1_655
Zn7 Zn74 2.598991 1_655
Zn7 Zn75 2.599161 1_655
Zn8 Zn95 2.627364 1_554
Zn8 Zn98 2.627387 1_555
Zn8 Zn92 2.627387 1_554
Zn9 Zn97 2.627392 1_555
Zn9 Zn99 2.627392 1_555
Zn9 Zn93 2.627392 1_555
Zn10 Zn64 2.512039 1_545
Zn10 Zn67 2.512039 1_555
Zn10 Zn70 2.589876 1_555
Zn10 Zn73 2.589876 1_545
Zn10 Zn94 2.627364 1_555
Zn10 Zn100 2.627364 1_545
Zn10 Zn96 2.627387 1_555
Zn10 Zn102 2.627387 1_545
Zn11 Zn56 2.512039 1_554
Zn11 Zn59 2.512039 1_455
Zn11 Zn77 2.589876 1_454
Zn11 Zn74 2.589876 1_555
Zn11 Zn113 2.627364 1_454
Zn11 Zn110 2.627387 1_454
Zn12 Zn60 2.512105 1_455
Zn12 Zn57 2.512105 1_555
Zn12 Zn75 2.589925 1_555
Zn12 Zn78 2.589925 1_455
Zn13 Zn61 2.512039 1_445
Zn13 Zn58 2.512039 1_555
Zn13 Zn79 2.589876 1_455
Zn13 Zn76 2.589876 1_545
Zn14 Zn32 2.552625 1_555
Zn14 Zn35 2.552633 1_555
Zn14 Zn4 2.653051 1_555
Zn14 Zn7 2.653051 1_555
Zn14 Zn63 2.683392 1_555
Zn14 Zn60 2.683392 1_555
Zn14 Zn64 2.683456 1_555
Zn14 Zn61 2.683456 1_555
Zn14 Zn16 2.711091 1_555
Zn14 Zn15 2.711182 1_555
Zn15 Zn33 2.552589 1_555
Zn15 Zn37 2.552589 1_555
Zn15 Zn7 2.652823 1_555
Zn15 Zn4 2.652823 1_555
Zn15 Zn59 2.683479 1_555
Zn15 Zn62 2.683479 1_555
Zn15 Zn61 2.683479 1_555
Zn15 Zn64 2.683479 1_555
Zn15 Zn16 2.711182 1_555
Zn16 Zn36 2.552625 1_555
Zn16 Zn34 2.552633 1_555
Zn16 Zn7 2.653051 1_555
Zn16 Zn4 2.653051 1_555
Zn16 Zn63 2.683392 1_555
Zn16 Zn60 2.683392 1_555
Zn16 Zn59 2.683456 1_555
Zn16 Zn62 2.683456 1_555
Zn17 Zn38 2.552625 1_555
Zn17 Zn41 2.552633 1_555
Zn17 Zn6 2.653051 1_555
Zn17 Zn5 2.653051 1_555
Zn17 Zn57 2.683392 1_555
Zn17 Zn66 2.683392 1_555
Zn17 Zn67 2.683456 1_555
Zn17 Zn58 2.683456 1_555
Zn17 Zn19 2.711091 1_555
Zn17 Zn18 2.711182 1_555
Zn18 Zn43 2.552589 1_555
Zn18 Zn39 2.552589 1_555
Zn18 Zn6 2.652823 1_555
Zn18 Zn5 2.652823 1_555
Zn18 Zn58 2.683479 1_555
Zn18 Zn67 2.683479 1_555
Zn18 Zn56 2.683479 1_555
Zn18 Zn65 2.683479 1_555
Zn18 Zn19 2.711182 1_555
Zn19 Zn42 2.552625 1_555
Zn19 Zn40 2.552633 1_555
Zn19 Zn6 2.653051 1_555
Zn19 Zn5 2.653051 1_555
Zn19 Zn57 2.683392 1_555
Zn19 Zn66 2.683392 1_555
Zn19 Zn56 2.683456 1_555
Zn19 Zn65 2.683456 1_555
Zn20 Zn92 2.564275 1_555
Zn20 Zn49 2.610753 1_555
Zn20 Zn45 2.610781 1_556
Zn20 Zn25 2.857943 1_555
Zn20 Zn24 2.857995 1_566
Zn21 Zn93 2.564310 1_555
Zn21 Zn46 2.610784 1_555
Zn21 Zn47 2.610784 1_555
Zn21 Zn23 2.857943 1_555
Zn21 Zn24 2.857943 1_555
Zn22 Zn94 2.564273 1_565
Zn22 Zn44 2.610753 1_555
Zn22 Zn48 2.610781 1_565
Zn22 Zn25 2.857943 1_555
Zn22 Zn23 2.857995 1_566
Zn23 Zn95 2.564273 1_554
Zn23 Zn98 2.564275 1_555
Zn23 Zn46 2.610753 1_555
Zn23 Zn48 2.610781 1_554
Zn24 Zn96 2.564275 1_555
Zn24 Zn47 2.610753 1_555
Zn24 Zn45 2.610781 1_545
Zn25 Zn97 2.564310 1_555
Zn25 Zn99 2.564310 1_555
Zn25 Zn44 2.610784 1_555
Zn25 Zn49 2.610784 1_555
Zn26 Zn55 2.610753 1_555
Zn26 Zn51 2.610781 1_654
Zn26 Zn31 2.857943 1_655
Zn26 Zn30 2.857995 1_544
Zn27 Zn53 2.610784 1_455
Zn27 Zn52 2.610784 1_555
Zn27 Zn29 2.857943 1_555
Zn27 Zn30 2.857943 1_455
Zn28 Zn50 2.610753 1_555
Zn28 Zn54 2.610781 1_445
Zn28 Zn31 2.857943 1_555
Zn28 Zn29 2.857995 1_544
Zn29 Zn52 2.610753 1_555
Zn29 Zn54 2.610781 1_456
Zn30 Zn53 2.610753 1_555
Zn30 Zn51 2.610781 1_665
Zn31 Zn55 2.610784 1_455
Zn31 Zn50 2.610784 1_555
Zn32 Zn94 2.552620 1_565
Zn32 Zn35 2.801780 1_555
Zn32 Zn53 2.887045 1_555
Zn32 Zn44 2.887045 1_555
Zn32 Zn64 2.966039 1_555
Zn32 Zn61 2.966039 1_555
Zn33 Zn92 2.552627 1_554
Zn33 Zn37 2.801729 1_555
Zn33 Zn45 2.886995 1_555
Zn33 Zn54 2.886995 1_555
Zn33 Zn59 2.966120 1_555
Zn33 Zn62 2.966120 1_555
Zn34 Zn93 2.552602 1_555
Zn34 Zn36 2.801780 1_555
Zn34 Zn55 2.887069 1_555
Zn34 Zn46 2.887069 1_555
Zn34 Zn63 2.966073 1_555
Zn34 Zn60 2.966073 1_555
Zn35 Zn97 2.552602 1_555
Zn35 Zn53 2.887069 1_555
Zn35 Zn44 2.887069 1_555
Zn35 Zn63 2.966073 1_555
Zn35 Zn60 2.966073 1_555
Zn36 Zn95 2.552620 1_554
Zn36 Zn55 2.887045 1_555
Zn36 Zn46 2.887045 1_555
Zn36 Zn59 2.966039 1_555
Zn36 Zn62 2.966039 1_555
Zn37 Zn96 2.552627 1_565
Zn37 Zn45 2.886995 1_555
Zn37 Zn54 2.886995 1_555
Zn37 Zn61 2.966120 1_555
Zn37 Zn64 2.966120 1_555
Zn38 Zn41 2.801780 1_555
Zn38 Zn47 2.887045 1_555
Zn38 Zn50 2.887045 1_555
Zn38 Zn58 2.966039 1_555
Zn38 Zn67 2.966039 1_555
Zn39 Zn98 2.552627 1_556
Zn39 Zn43 2.801729 1_555
Zn39 Zn48 2.886995 1_555
Zn39 Zn51 2.886995 1_555
Zn39 Zn56 2.966120 1_555
Zn39 Zn65 2.966120 1_555
Zn40 Zn99 2.552602 1_555
Zn40 Zn42 2.801780 1_555
Zn40 Zn52 2.887069 1_555
Zn40 Zn49 2.887069 1_555
Zn40 Zn57 2.966073 1_555
Zn40 Zn66 2.966073 1_555
Zn41 Zn47 2.887069 1_555
Zn41 Zn50 2.887069 1_555
Zn41 Zn57 2.966073 1_555
Zn41 Zn66 2.966073 1_555
Zn42 Zn49 2.887045 1_555
Zn42 Zn52 2.887045 1_555
Zn42 Zn65 2.966039 1_555
Zn42 Zn56 2.966039 1_555
Zn43 Zn48 2.886995 1_555
Zn43 Zn51 2.886995 1_555
Zn43 Zn67 2.966120 1_555
Zn43 Zn58 2.966120 1_555
Zn44 Zn53 2.586561 1_555
Zn45 Zn54 2.586585 1_555
Zn46 Zn55 2.586561 1_555
Zn47 Zn50 2.586561 1_555
Zn48 Zn51 2.586585 1_555
Zn49 Zn52 2.586561 1_555
Zn56 Zn6 2.622205 1_555
Zn56 Zn77 2.835090 1_455
Zn56 Zn65 3.008267 1_555
Zn57 Zn6 2.622552 1_555
Zn57 Zn78 2.834942 1_455
Zn57 Zn66 3.008316 1_555
Zn58 Zn6 2.622205 1_555
Zn58 Zn79 2.835090 1_455
Zn58 Zn67 3.008267 1_555
Zn59 Zn7 2.622205 1_555
Zn59 Zn74 2.835090 1_655
Zn59 Zn62 3.008267 1_555
Zn60 Zn7 2.622552 1_555
Zn60 Zn75 2.834942 1_655
Zn60 Zn63 3.008316 1_555
Zn61 Zn7 2.622205 1_555
Zn61 Zn76 2.835090 1_655
Zn61 Zn64 3.008267 1_555
Zn62 Zn8 2.512039 1_555
Zn62 Zn71 2.835090 1_555
Zn62 Zn95 2.997283 1_554
Zn62 Zn92 2.997325 1_554
Zn63 Zn9 2.512105 1_555
Zn63 Zn72 2.834942 1_555
Zn63 Zn97 2.997390 1_555
Zn63 Zn93 2.997390 1_555
Zn64 Zn73 2.835090 1_555
Zn64 Zn94 2.997283 1_565
Zn64 Zn96 2.997325 1_565
Zn65 Zn8 2.512039 1_556
Zn65 Zn68 2.835090 1_555
Zn65 Zn98 2.997325 1_556
Zn66 Zn9 2.512105 1_555
Zn66 Zn69 2.834942 1_555
Zn66 Zn99 2.997390 1_555
Zn67 Zn70 2.835090 1_555
Zn68 Zn88 2.579182 1_555
Zn68 Zn87 2.579194 1_555
Zn68 Zn8 2.589876 1_556
Zn68 Zn69 2.790510 1_555
Zn68 Zn70 2.790561 1_555
Zn69 Zn88 2.579251 1_555
Zn69 Zn86 2.579251 1_555
Zn69 Zn9 2.589925 1_555
Zn69 Zn70 2.790510 1_555
Zn70 Zn86 2.579182 1_555
Zn70 Zn87 2.579194 1_555
Zn71 Zn91 2.579182 1_555
Zn71 Zn90 2.579194 1_555
Zn71 Zn8 2.589876 1_555
Zn71 Zn72 2.790510 1_555
Zn71 Zn73 2.790561 1_555
Zn72 Zn89 2.579251 1_555
Zn72 Zn91 2.579251 1_555
Zn72 Zn9 2.589925 1_555
Zn72 Zn73 2.790510 1_555
Zn73 Zn89 2.579182 1_555
Zn73 Zn90 2.579194 1_555
Zn74 Zn82 2.579182 1_555
Zn74 Zn81 2.579194 1_555
Zn74 Zn75 2.790510 1_555
Zn74 Zn76 2.790561 1_555
Zn75 Zn80 2.579251 1_555
Zn75 Zn82 2.579251 1_555
Zn75 Zn76 2.790510 1_555
Zn76 Zn80 2.579182 1_555
Zn76 Zn81 2.579194 1_555
Zn77 Zn85 2.579182 1_555
Zn77 Zn84 2.579194 1_555
Zn77 Zn78 2.790510 1_555
Zn77 Zn79 2.790561 1_555
Zn78 Zn85 2.579251 1_555
Zn78 Zn83 2.579251 1_555
Zn78 Zn79 2.790510 1_555
Zn79 Zn83 2.579182 1_555
Zn79 Zn84 2.579194 1_555
Zn80 Zn89 2.576541 1_555
Zn81 Zn90 2.576640 1_555
Zn82 Zn91 2.576541 1_555
Zn83 Zn86 2.576541 1_555
Zn84 Zn87 2.576640 1_555
Zn85 Zn88 2.576541 1_555
Zn86 Zn96 2.578583 1_555
Zn86 Zn93 2.578612 1_555
Zn87 Zn95 2.578587 1_555
Zn87 Zn94 2.578587 1_555
Zn88 Zn92 2.578583 1_555
Zn88 Zn97 2.578612 1_555
Zn89 Zn99 2.578612 1_555
Zn91 Zn98 2.578583 1_555
Zn100 Zn38 2.552620 1_565
Zn100 Zn24 2.564273 1_565
Zn100 Zn90 2.578587 1_555
Zn100 Zn67 2.997283 1_565
Zn101 Zn42 2.552620 1_554
Zn101 Zn20 2.564273 1_554
Zn101 Zn90 2.578587 1_555
Zn101 Zn8 2.627364 1_555
Zn101 Zn65 2.997283 1_554
Zn102 Zn43 2.552627 1_565
Zn102 Zn22 2.564275 1_555
Zn102 Zn89 2.578583 1_555
Zn102 Zn67 2.997325 1_565
Zn103 Zn41 2.552602 1_555
Zn103 Zn21 2.564310 1_555
Zn103 Zn91 2.578612 1_555
Zn103 Zn9 2.627392 1_555
Zn103 Zn66 2.997390 1_555
Zn104 Zn39 2.552627 1_554
Zn104 Zn26 2.564275 1_455
Zn104 Zn82 2.578583 1_555
Zn104 Zn11 2.627387 1_555
Zn104 Zn56 2.997325 1_554
Zn105 Zn40 2.552602 1_555
Zn105 Zn27 2.564310 1_555
Zn105 Zn80 2.578612 1_555
Zn105 Zn12 2.627392 1_555
Zn105 Zn57 2.997390 1_555
Zn106 Zn38 2.552620 1_565
Zn106 Zn28 2.564273 1_565
Zn106 Zn81 2.578587 1_555
Zn106 Zn13 2.627364 1_565
Zn106 Zn58 2.997283 1_565
Zn107 Zn42 2.552620 1_554
Zn107 Zn29 2.564273 1_554
Zn107 Zn81 2.578587 1_555
Zn107 Zn11 2.627364 1_555
Zn107 Zn56 2.997283 1_554
Zn108 Zn43 2.552627 1_565
Zn108 Zn30 2.564275 1_455
Zn108 Zn80 2.578583 1_555
Zn108 Zn13 2.627387 1_565
Zn108 Zn58 2.997325 1_565
Zn109 Zn41 2.552602 1_555
Zn109 Zn31 2.564310 1_555
Zn109 Zn82 2.578612 1_555
Zn109 Zn12 2.627392 1_555
Zn109 Zn57 2.997390 1_555
Zn110 Zn33 2.552627 1_556
Zn110 Zn29 2.564275 1_655
Zn110 Zn85 2.578583 1_555
Zn110 Zn59 2.997325 1_556
Zn111 Zn34 2.552602 1_555
Zn111 Zn31 2.564310 1_655
Zn111 Zn83 2.578612 1_555
Zn111 Zn12 2.627392 1_655
Zn111 Zn60 2.997390 1_555
Zn112 Zn32 2.552620 1_545
Zn112 Zn30 2.564273 1_545
Zn112 Zn84 2.578587 1_555
Zn112 Zn13 2.627364 1_655
Zn112 Zn61 2.997283 1_545
Zn113 Zn36 2.552620 1_556
Zn113 Zn26 2.564273 1_556
Zn113 Zn84 2.578587 1_555
Zn113 Zn59 2.997283 1_556
Zn114 Zn37 2.552627 1_545
Zn114 Zn28 2.564275 1_655
Zn114 Zn83 2.578583 1_555
Zn114 Zn13 2.627387 1_655
Zn114 Zn61 2.997325 1_545
Zn115 Zn35 2.552602 1_555
Zn115 Zn27 2.564310 1_655
Zn115 Zn85 2.578612 1_555
Zn115 Zn12 2.627392 1_655
Zn115 Zn60 2.997390 1_555
