# generated using pymatgen
data_Er2Si3
_symmetry_space_group_name_H-M   'P 1'
_cell_length_a   3.86688316
_cell_length_b   3.92287791
_cell_length_c   6.76286405
_cell_angle_alpha   90.00000000
_cell_angle_beta   90.00000000
_cell_angle_gamma   90.00000000
_symmetry_Int_Tables_number   1
_chemical_formula_structural   Er2Si3
_chemical_formula_sum   'Er2 Si3'
_cell_volume   102.58798484
_cell_formula_units_Z   1
loop_
 _symmetry_equiv_pos_site_id
 _symmetry_equiv_pos_as_xyz
  1  'x, y, z'
loop_
 _atom_site_type_symbol
 _atom_site_label
 _atom_site_symmetry_multiplicity
 _atom_site_fract_x
 _atom_site_fract_y
 _atom_site_fract_z
 _atom_site_occupancy
  Er  Er0  1  0.00000000  0.50000000  0.00345130  1
  Er  Er1  1  0.50000000  0.50000000  0.49502575  1
  Si  Si0  1  0.50000000  0.00000000  0.81419683  1
  Si  Si1  1  0.50000000  0.00000000  0.15643397  1
  Si  Si2  1  0.00000000  0.00000000  0.35889215  1
loop_
_geom_bond_atom_site_label_1
_geom_bond_atom_site_label_2
_geom_bond_distance
_geom_bond_site_symmetry_2
Er0 Si1 2.942081 1_565
Er0 Si1 2.942081 1_555
Er0 Si1 2.942081 1_455
Er0 Si1 2.942081 1_465
Er0 Si0 3.037036 1_454
Er0 Si0 3.037036 1_564
Er0 Si0 3.037036 1_464
Er0 Si0 3.037036 1_554
Er0 Si2 3.102497 1_555
Er0 Si2 3.102497 1_565
Er1 Si2 2.903970 1_655
Er1 Si2 2.903970 1_565
Er1 Si2 2.903970 1_555
Er1 Si2 2.903970 1_665
Er1 Si0 2.916575 1_565
Er1 Si0 2.916575 1_555
Er1 Si1 3.015072 1_565
Er1 Si1 3.015072 1_555
Si0 Si1 2.314503 1_556
Si1 Si2 2.369155 1_555
Si1 Si2 2.369155 1_655
