# generated using pymatgen
data_CeSe2
_symmetry_space_group_name_H-M   'P 1'
_cell_length_a   6.61203400
_cell_length_b   6.61203400
_cell_length_c   8.77614500
_cell_angle_alpha   90.00000000
_cell_angle_beta   90.00000000
_cell_angle_gamma   90.00000000
_symmetry_Int_Tables_number   1
_chemical_formula_structural   CeSe2
_chemical_formula_sum   'Ce4 Se8'
_cell_volume   383.68422724
_cell_formula_units_Z   4
loop_
 _symmetry_equiv_pos_site_id
 _symmetry_equiv_pos_as_xyz
  1  'x, y, z'
loop_
 _atom_site_type_symbol
 _atom_site_label
 _atom_site_symmetry_multiplicity
 _atom_site_fract_x
 _atom_site_fract_y
 _atom_site_fract_z
 _atom_site_occupancy
  Ce  Ce0  1  0.47523100  0.52476900  0.75000000  1
  Ce  Ce1  1  0.52476900  0.47523100  0.25000000  1
  Ce  Ce2  1  0.02476900  0.02476900  0.50000000  1
  Ce  Ce3  1  0.97523100  0.97523100  0.00000000  1
  Se  Se0  1  0.68017700  0.29291800  0.52051400  1
  Se  Se1  1  0.31982300  0.70708200  0.02051400  1
  Se  Se2  1  0.79291800  0.81982300  0.27051400  1
  Se  Se3  1  0.20708200  0.18017700  0.77051400  1
  Se  Se4  1  0.70708200  0.31982300  0.97948600  1
  Se  Se5  1  0.29291800  0.68017700  0.47948600  1
  Se  Se6  1  0.81982300  0.79291800  0.72948600  1
  Se  Se7  1  0.18017700  0.20708200  0.22948600  1
loop_
_geom_bond_atom_site_label_1
_geom_bond_atom_site_label_2
_geom_bond_distance
_geom_bond_site_symmetry_2
Ce0 Se1 2.853985 1_556
Ce0 Se5 2.853985 1_555
Ce0 Se0 2.871000 1_555
Ce0 Se4 2.871000 1_555
Ce0 Se3 2.892634 1_555
Ce0 Se6 2.892634 1_555
Ce1 Se0 2.853985 1_555
Ce1 Se4 2.853985 1_554
Ce1 Se5 2.871000 1_555
Ce1 Se1 2.871000 1_555
Ce1 Se7 2.892634 1_555
Ce1 Se2 2.892634 1_555
Ce2 Se3 2.853985 1_555
Ce2 Se7 2.853985 1_555
Ce2 Se6 2.871000 1_445
Ce2 Se2 2.871000 1_445
Ce2 Se0 2.892634 1_455
Ce2 Se5 2.892634 1_545
Ce3 Se2 2.853985 1_555
Ce3 Se6 2.853985 1_554
Ce3 Se7 2.871000 1_665
Ce3 Se3 2.871000 1_664
Ce3 Se1 2.892634 1_655
Ce3 Se4 2.892634 1_564
