# generated using pymatgen
data_CsMg14SbO16
_symmetry_space_group_name_H-M   'P 1'
_cell_length_a   8.87576422
_cell_length_b   9.01009682
_cell_length_c   4.56507114
_cell_angle_alpha   90.00000000
_cell_angle_beta   90.00000000
_cell_angle_gamma   90.00000000
_symmetry_Int_Tables_number   1
_chemical_formula_structural   CsMg14SbO16
_chemical_formula_sum   'Cs1 Mg14 Sb1 O16'
_cell_volume   365.07556373
_cell_formula_units_Z   1
loop_
 _symmetry_equiv_pos_site_id
 _symmetry_equiv_pos_as_xyz
  1  'x, y, z'
loop_
 _atom_site_type_symbol
 _atom_site_label
 _atom_site_symmetry_multiplicity
 _atom_site_fract_x
 _atom_site_fract_y
 _atom_site_fract_z
 _atom_site_occupancy
  Cs  Cs0  1  -0.00000000  0.00000000  0.00000000  1
  Mg  Mg0  1  0.50000000  0.00000000  0.00000000  1
  Mg  Mg1  1  0.50000000  0.50000000  0.00000000  1
  Mg  Mg2  1  -0.00000000  0.24511963  0.50000000  1
  Mg  Mg3  1  -0.00000000  0.75488037  0.50000000  1
  Mg  Mg4  1  0.50000000  0.24928502  0.50000000  1
  Mg  Mg5  1  0.50000000  0.75071498  0.50000000  1
  Mg  Mg6  1  0.26343557  0.00000000  0.50000000  1
  Mg  Mg7  1  0.26305392  0.50000000  0.50000000  1
  Mg  Mg8  1  0.73656443  0.00000000  0.50000000  1
  Mg  Mg9  1  0.73694608  0.50000000  0.50000000  1
  Mg  Mg10  1  0.26474717  0.24600309  -0.00000000  1
  Mg  Mg11  1  0.26474717  0.75399691  -0.00000000  1
  Mg  Mg12  1  0.73525283  0.24600309  0.00000000  1
  Mg  Mg13  1  0.73525283  0.75399691  0.00000000  1
  Sb  Sb0  1  -0.00000000  0.50000000  0.00000000  1
  O  O0  1  0.28808502  0.00000000  -0.00000000  1
  O  O1  1  0.26735487  0.50000000  -0.00000000  1
  O  O2  1  0.71191498  0.00000000  0.00000000  1
  O  O3  1  0.73264513  0.50000000  0.00000000  1
  O  O4  1  0.25075868  0.25071492  0.50000000  1
  O  O5  1  0.25075868  0.74928508  0.50000000  1
  O  O6  1  0.74924132  0.25071492  0.50000000  1
  O  O7  1  0.74924132  0.74928508  0.50000000  1
  O  O8  1  -0.00000000  0.00000000  0.50000000  1
  O  O9  1  -0.00000000  0.50000000  0.50000000  1
  O  O10  1  0.50000000  0.00000000  0.50000000  1
  O  O11  1  0.50000000  0.50000000  0.50000000  1
  O  O12  1  -0.00000000  0.27141881  0.00000000  1
  O  O13  1  -0.00000000  0.72858119  0.00000000  1
  O  O14  1  0.50000000  0.25834231  -0.00000000  1
  O  O15  1  0.50000000  0.74165769  0.00000000  1
loop_
_geom_bond_atom_site_label_1
_geom_bond_atom_site_label_2
_geom_bond_distance
_geom_bond_site_symmetry_2
Cs0 O8 2.282536 1_554
Cs0 O8 2.282536 1_555
Cs0 O13 2.445510 1_545
Cs0 O12 2.445510 1_555
Cs0 O0 2.556975 1_555
Cs0 O2 2.556975 1_455
Mg0 O0 1.880907 1_555
Mg0 O2 1.880907 1_555
Mg0 O10 2.282536 1_555
Mg0 O10 2.282536 1_554
Mg0 O15 2.327689 1_545
Mg0 O14 2.327689 1_555
Mg1 O3 2.064903 1_555
Mg1 O1 2.064903 1_555
Mg1 O14 2.177359 1_555
Mg1 O15 2.177359 1_555
Mg1 O11 2.282536 1_554
Mg1 O11 2.282536 1_555
Mg2 O8 2.208552 1_555
Mg2 O6 2.226246 1_455
Mg2 O4 2.226246 1_555
Mg2 O12 2.294802 1_556
Mg2 O12 2.294802 1_555
Mg2 O9 2.296497 1_555
Mg3 O8 2.208552 1_565
Mg3 O5 2.226246 1_555
Mg3 O7 2.226246 1_455
Mg3 O13 2.294802 1_555
Mg3 O13 2.294802 1_556
Mg3 O9 2.296497 1_555
Mg4 O4 2.212245 1_555
Mg4 O6 2.212245 1_555
Mg4 O10 2.246082 1_555
Mg4 O11 2.258966 1_555
Mg4 O14 2.283994 1_555
Mg4 O14 2.283994 1_556
Mg5 O5 2.212245 1_555
Mg5 O7 2.212245 1_555
Mg5 O10 2.246082 1_565
Mg5 O11 2.258966 1_555
Mg5 O15 2.283994 1_556
Mg5 O15 2.283994 1_555
Mg6 O10 2.099690 1_555
Mg6 O5 2.261766 1_545
Mg6 O4 2.261766 1_555
Mg6 O0 2.292997 1_555
Mg6 O0 2.292997 1_556
Mg6 O8 2.338192 1_555
Mg7 O11 2.103078 1_555
Mg7 O4 2.248732 1_555
Mg7 O5 2.248732 1_555
Mg7 O1 2.282855 1_556
Mg7 O1 2.282855 1_555
Mg7 O9 2.334805 1_555
Mg8 O10 2.099690 1_555
Mg8 O7 2.261766 1_545
Mg8 O6 2.261766 1_555
Mg8 O2 2.292997 1_555
Mg8 O2 2.292997 1_556
Mg8 O8 2.338192 1_655
Mg9 O11 2.103078 1_555
Mg9 O6 2.248732 1_555
Mg9 O7 2.248732 1_555
Mg9 O3 2.282855 1_556
Mg9 O3 2.282855 1_555
Mg9 O9 2.334805 1_655
Mg10 O14 2.091006 1_555
Mg10 O0 2.226170 1_555
Mg10 O4 2.286304 1_554
Mg10 O4 2.286304 1_555
Mg10 O1 2.288654 1_555
Mg10 O12 2.360965 1_555
Mg11 O15 2.091006 1_555
Mg11 O0 2.226170 1_565
Mg11 O5 2.286304 1_554
Mg11 O5 2.286304 1_555
Mg11 O1 2.288654 1_555
Mg11 O13 2.360965 1_555
Mg12 O14 2.091006 1_555
Mg12 O2 2.226170 1_555
Mg12 O6 2.286304 1_555
Mg12 O6 2.286304 1_554
Mg12 O3 2.288654 1_555
Mg12 O12 2.360965 1_655
Mg13 O15 2.091006 1_555
Mg13 O2 2.226170 1_565
Mg13 O7 2.286304 1_555
Mg13 O7 2.286304 1_554
Mg13 O3 2.288654 1_555
Mg13 O13 2.360965 1_655
O1 Sb0 2.372979 1_555
O3 Sb0 2.372979 1_655
O9 Sb0 2.282536 1_555
O9 Sb0 2.282536 1_556
O12 Sb0 2.059539 1_555
O13 Sb0 2.059539 1_555
