# generated using pymatgen
data_LaMg14Ti
_symmetry_space_group_name_H-M   'P 1'
_cell_length_a   6.57360070
_cell_length_b   6.57360013
_cell_length_c   10.25562483
_cell_angle_alpha   90.00000000
_cell_angle_beta   90.00000000
_cell_angle_gamma   120.00000288
_symmetry_Int_Tables_number   1
_chemical_formula_structural   LaMg14Ti
_chemical_formula_sum   'La1 Mg14 Ti1'
_cell_volume   383.79503035
_cell_formula_units_Z   1
loop_
 _symmetry_equiv_pos_site_id
 _symmetry_equiv_pos_as_xyz
  1  'x, y, z'
loop_
 _atom_site_type_symbol
 _atom_site_label
 _atom_site_symmetry_multiplicity
 _atom_site_fract_x
 _atom_site_fract_y
 _atom_site_fract_z
 _atom_site_occupancy
  La  La0  1  0.16666700  0.33333300  0.62500000  1
  Mg  Mg0  1  0.16690660  0.83345280  0.12500000  1
  Mg  Mg1  1  0.17637920  0.83818910  0.62500000  1
  Mg  Mg2  1  0.66654720  0.33309340  0.12500000  1
  Mg  Mg3  1  0.66181090  0.32362080  0.62500000  1
  Mg  Mg4  1  0.66654720  0.83345280  0.12500000  1
  Mg  Mg5  1  0.66181090  0.83818910  0.62500000  1
  Mg  Mg6  1  0.33424045  0.16575955  0.36494748  1
  Mg  Mg7  1  0.33424045  0.16575955  0.88505252  1
  Mg  Mg8  1  0.33424045  0.66848191  0.36494748  1
  Mg  Mg9  1  0.33424045  0.66848191  0.88505252  1
  Mg  Mg10  1  0.83151809  0.16575955  0.36494748  1
  Mg  Mg11  1  0.83151809  0.16575955  0.88505252  1
  Mg  Mg12  1  0.83333300  0.66666700  0.37932950  1
  Mg  Mg13  1  0.83333300  0.66666700  0.87067050  1
  Ti  Ti0  1  0.16666700  0.33333300  0.12500000  1
loop_
_geom_bond_atom_site_label_1
_geom_bond_atom_site_label_2
_geom_bond_distance
_geom_bond_site_symmetry_2
La0 Mg6 3.279208 1_555
La0 Mg7 3.279208 1_555
La0 Mg8 3.279214 1_555
La0 Mg9 3.279214 1_555
La0 Mg11 3.279215 1_455
La0 Mg10 3.279215 1_455
La0 Mg1 3.287265 1_555
La0 Mg5 3.287265 1_555
La0 Mg5 3.287265 1_445
La0 Mg1 3.287265 1_545
La0 Mg3 3.287265 1_455
La0 Mg3 3.287265 1_555
Mg0 Mg9 3.103946 1_554
Mg0 Mg8 3.103946 1_555
Mg0 Mg7 3.103953 1_564
Mg0 Mg6 3.103953 1_565
Mg0 Mg12 3.226373 1_455
Mg0 Mg13 3.226373 1_454
Mg0 Mg2 3.284438 1_565
Mg0 Mg4 3.284438 1_555
Mg0 Ti0 3.286800 1_555
Mg0 Ti0 3.286800 1_565
Mg0 Mg2 3.289163 1_455
Mg0 Mg4 3.289163 1_455
Mg1 Mg12 3.187764 1_455
Mg1 Mg13 3.187764 1_455
Mg1 Mg3 3.191034 1_565
Mg1 Mg5 3.191034 1_555
Mg1 Mg8 3.254528 1_555
Mg1 Mg9 3.254528 1_555
Mg1 Mg6 3.254534 1_565
Mg1 Mg7 3.254534 1_565
Mg1 Mg3 3.382566 1_455
Mg1 Mg5 3.382567 1_455
Mg2 Mg7 3.103953 1_554
Mg2 Mg6 3.103953 1_555
Mg2 Mg4 3.284438 1_545
Mg2 Ti0 3.286801 1_655
Mg2 Ti0 3.286801 1_555
Mg2 Mg4 3.289163 1_555
Mg3 Mg5 3.191034 1_545
Mg3 Mg6 3.254534 1_555
Mg3 Mg7 3.254534 1_555
Mg3 Mg5 3.382566 1_555
Mg4 Mg9 3.103953 1_554
Mg4 Mg8 3.103953 1_555
Mg4 Ti0 3.286800 1_555
Mg4 Ti0 3.286800 1_665
Mg5 Mg8 3.254534 1_555
Mg5 Mg9 3.254534 1_555
Mg6 Ti0 3.113824 1_555
Mg6 Mg8 3.268904 1_545
Mg6 Mg8 3.304696 1_555
Mg7 Ti0 3.113824 1_556
Mg7 Mg9 3.268904 1_545
Mg7 Mg9 3.304696 1_555
Mg8 Ti0 3.113831 1_555
Mg9 Ti0 3.113831 1_556
Mg10 Mg2 3.103946 1_555
Mg10 Mg4 3.103953 1_545
Mg10 Ti0 3.113831 1_655
Mg10 Mg3 3.254528 1_555
Mg10 Mg5 3.254534 1_545
Mg10 Mg8 3.268904 1_545
Mg10 Mg6 3.268905 1_555
Mg10 Mg12 3.290124 1_555
Mg10 Mg12 3.290124 1_545
Mg10 Mg8 3.304696 1_655
Mg10 Mg6 3.304696 1_655
Mg11 Mg2 3.103946 1_556
Mg11 Mg4 3.103953 1_546
Mg11 Ti0 3.113831 1_656
Mg11 Mg3 3.254528 1_555
Mg11 Mg5 3.254534 1_545
Mg11 Mg9 3.268904 1_545
Mg11 Mg7 3.268905 1_555
Mg11 Mg13 3.290124 1_555
Mg11 Mg13 3.290124 1_545
Mg11 Mg9 3.304696 1_655
Mg11 Mg7 3.304696 1_655
Mg12 Mg5 3.187757 1_555
Mg12 Mg3 3.187763 1_555
Mg12 Mg4 3.226366 1_555
Mg12 Mg2 3.226373 1_555
Mg12 Mg6 3.290124 1_555
Mg12 Mg6 3.290124 1_665
Mg12 Mg8 3.290124 1_655
Mg12 Mg8 3.290124 1_555
Mg13 Mg5 3.187757 1_555
Mg13 Mg3 3.187763 1_555
Mg13 Mg4 3.226366 1_556
Mg13 Mg2 3.226373 1_556
Mg13 Mg7 3.290124 1_555
Mg13 Mg7 3.290124 1_665
Mg13 Mg9 3.290124 1_655
Mg13 Mg9 3.290124 1_555
