# generated using pymatgen
data_Na2Nb4O11
_symmetry_space_group_name_H-M   'P 1'
_cell_length_a   6.33377690
_cell_length_b   6.33377690
_cell_length_c   12.96046860
_cell_angle_alpha   76.06362650
_cell_angle_beta   76.06362650
_cell_angle_gamma   59.13923866
_symmetry_Int_Tables_number   1
_chemical_formula_structural   Na2Nb4O11
_chemical_formula_sum   'Na4 Nb8 O22'
_cell_volume   428.86496554
_cell_formula_units_Z   2
loop_
 _symmetry_equiv_pos_site_id
 _symmetry_equiv_pos_as_xyz
  1  'x, y, z'
loop_
 _atom_site_type_symbol
 _atom_site_label
 _atom_site_symmetry_multiplicity
 _atom_site_fract_x
 _atom_site_fract_y
 _atom_site_fract_z
 _atom_site_occupancy
  Na  Na0  1  0.33365900  0.84809900  0.49675100  1
  Na  Na1  1  0.84809900  0.33365900  0.99675100  1
  Na  Na2  1  0.17719700  0.66781300  0.99556400  1
  Na  Na3  1  0.66781300  0.17719700  0.49556400  1
  Nb  Nb0  1  0.75273900  0.60912500  0.25342600  1
  Nb  Nb1  1  0.60912500  0.75273900  0.75342600  1
  Nb  Nb2  1  0.39167100  0.24780500  0.25304100  1
  Nb  Nb3  1  0.24780500  0.39167100  0.75304100  1
  Nb  Nb4  1  0.12502100  0.88483200  0.24111700  1
  Nb  Nb5  1  0.88483200  0.12502100  0.74111700  1
  Nb  Nb6  1  0.52490600  0.00015900  0.99791100  1
  Nb  Nb7  1  0.00015900  0.52490600  0.49791100  1
  O  O0  1  0.74704600  0.71897400  0.09360800  1
  O  O1  1  0.71897400  0.74704600  0.59360800  1
  O  O2  1  0.27679300  0.25720600  0.40777900  1
  O  O3  1  0.25720600  0.27679300  0.90777900  1
  O  O4  1  0.75143500  0.56480200  0.40913100  1
  O  O5  1  0.56480200  0.75143500  0.90913100  1
  O  O6  1  0.43696100  0.24267400  0.09367500  1
  O  O7  1  0.24267400  0.43696100  0.59367500  1
  O  O8  1  0.22102100  0.93933500  0.09165800  1
  O  O9  1  0.93933500  0.22102100  0.59165800  1
  O  O10  1  0.05448300  0.78493300  0.41021900  1
  O  O11  1  0.78493300  0.05448300  0.91021900  1
  O  O12  1  0.98856100  0.25082700  0.25116900  1
  O  O13  1  0.25082700  0.98856100  0.75116900  1
  O  O14  1  0.75113400  0.00275000  0.25064100  1
  O  O15  1  0.00275000  0.75113400  0.75064100  1
  O  O16  1  0.40302000  0.90728600  0.28368400  1
  O  O17  1  0.90728600  0.40302000  0.78368400  1
  O  O18  1  0.09455500  0.59213800  0.21814000  1
  O  O19  1  0.59213800  0.09455500  0.71814000  1
  O  O20  1  0.49404400  0.50697600  0.25104400  1
  O  O21  1  0.50697600  0.49404400  0.75104400  1
loop_
_geom_bond_atom_site_label_1
_geom_bond_atom_site_label_2
_geom_bond_distance
_geom_bond_site_symmetry_2
Na0 O2 2.444794 1_565
Na0 O4 2.484785 1_555
Na0 O10 2.538030 1_555
Na0 O16 2.654257 1_555
Na0 O9 2.682811 1_465
Na0 O1 2.725377 1_555
Na0 O7 2.882075 1_555
Na1 O3 2.444794 1_655
Na1 O5 2.484785 1_555
Na1 O11 2.538030 1_555
Na1 O17 2.654257 1_555
Na1 O8 2.682811 1_646
Na1 O0 2.725377 1_556
Na1 O6 2.882075 1_556
Na2 O8 2.504722 1_556
Na2 O6 2.527452 1_556
Na2 O0 2.601440 1_456
Na2 O11 2.677826 1_465
Na2 O5 2.699242 1_555
Na2 O3 2.734400 1_555
Na2 O18 2.772942 1_556
Na3 O9 2.504722 1_555
Na3 O7 2.527452 1_555
Na3 O1 2.601440 1_545
Na3 O10 2.677826 1_645
Na3 O4 2.699242 1_555
Na3 O2 2.734400 1_555
Na3 O19 2.772942 1_555
Nb0 O4 1.967919 1_555
Nb0 O12 1.978732 1_555
Nb0 O0 2.022818 1_555
Nb0 O18 2.053217 1_655
Nb0 O20 2.055684 1_555
Nb0 O16 2.067231 1_555
Nb0 O14 2.479505 1_565
Nb1 O5 1.967919 1_555
Nb1 O13 1.978732 1_555
Nb1 O1 2.022818 1_555
Nb1 O19 2.053217 1_565
Nb1 O21 2.055684 1_555
Nb1 O17 2.067231 1_555
Nb1 O15 2.479505 1_655
Nb2 O2 1.965984 1_555
Nb2 O14 1.989338 1_555
Nb2 O6 2.021592 1_555
Nb2 O20 2.044293 1_555
Nb2 O18 2.055911 1_555
Nb2 O16 2.063168 1_545
Nb3 O3 1.965984 1_555
Nb3 O15 1.989338 1_555
Nb3 O7 2.021592 1_555
Nb3 O21 2.044293 1_555
Nb3 O19 2.055911 1_555
Nb3 O17 2.063168 1_455
Nb4 O8 1.888645 1_555
Nb4 O12 2.042909 1_465
Nb4 O16 2.046352 1_555
Nb4 O18 2.055069 1_555
Nb4 O14 2.066432 1_465
Nb4 O10 2.133926 1_555
Nb4 O20 2.337750 1_555
Nb5 O9 1.888645 1_555
Nb5 O13 2.042909 1_645
Nb5 O17 2.046352 1_555
Nb5 O19 2.055069 1_555
Nb5 O15 2.066432 1_645
Nb5 O11 2.133926 1_555
Nb5 O21 2.337750 1_555
Nb6 O11 1.901027 1_555
Nb6 O0 1.973726 1_546
Nb6 O6 1.979305 1_556
Nb6 O5 2.047989 1_545
Nb6 O3 2.056652 1_555
Nb6 O8 2.176707 1_546
Nb7 O10 1.901027 1_555
Nb7 O1 1.973726 1_455
Nb7 O7 1.979305 1_555
Nb7 O4 2.047989 1_455
Nb7 O2 2.056652 1_555
Nb7 O9 2.176707 1_455
