# generated using pymatgen
data_Mg2Si3
_symmetry_space_group_name_H-M   'P 1'
_cell_length_a   17.95364538
_cell_length_b   3.52983013
_cell_length_c   6.09446780
_cell_angle_alpha   72.93462275
_cell_angle_beta   96.37899727
_cell_angle_gamma   95.63869248
_symmetry_Int_Tables_number   1
_chemical_formula_structural   Mg2Si3
_chemical_formula_sum   'Mg8 Si12'
_cell_volume   366.05822979
_cell_formula_units_Z   4
loop_
 _symmetry_equiv_pos_site_id
 _symmetry_equiv_pos_as_xyz
  1  'x, y, z'
loop_
 _atom_site_type_symbol
 _atom_site_label
 _atom_site_symmetry_multiplicity
 _atom_site_fract_x
 _atom_site_fract_y
 _atom_site_fract_z
 _atom_site_occupancy
  Mg  Mg0  1  0.20326900  0.58308100  0.13758800  1
  Mg  Mg1  1  0.80470100  0.08294700  0.73611000  1
  Mg  Mg2  1  0.05569100  0.66886300  0.81765700  1
  Mg  Mg3  1  0.94678600  0.99729700  0.06304900  1
  Mg  Mg4  1  0.70063000  0.71941500  0.35166100  1
  Mg  Mg5  1  0.29551700  0.92715300  0.53974100  1
  Mg  Mg6  1  0.54606100  0.53850300  0.56462000  1
  Mg  Mg7  1  0.44926000  0.84722200  0.86571100  1
  Si  Si0  1  0.05121700  0.42057700  0.31014300  1
  Si  Si1  1  0.95158200  0.24295200  0.57384500  1
  Si  Si2  1  0.14159100  0.89939400  0.44791200  1
  Si  Si3  1  0.85963700  0.77424400  0.41960000  1
  Si  Si4  1  0.68164700  0.40240200  0.96865100  1
  Si  Si5  1  0.31327900  0.24251500  0.92074300  1
  Si  Si6  1  0.54968300  0.26745500  0.11461200  1
  Si  Si7  1  0.44223500  0.08776800  0.36446600  1
  Si  Si8  1  0.65674000  0.02674100  0.70011400  1
  Si  Si9  1  0.35462900  0.61269400  0.21851100  1
  Si  Si10  1  0.18054400  0.26478200  0.75187000  1
  Si  Si11  1  0.81519100  0.39378400  0.13341600  1
loop_
_geom_bond_atom_site_label_1
_geom_bond_atom_site_label_2
_geom_bond_distance
_geom_bond_site_symmetry_2
Mg0 Si9 2.704699 1_555
Mg0 Si2 2.808644 1_545
Mg0 Si2 2.827973 1_555
Mg0 Si10 2.853509 1_564
Mg0 Si10 2.863874 1_554
Mg0 Si0 2.977147 1_555
Mg0 Si5 2.989429 1_564
Mg0 Si5 3.011913 1_554
Mg1 Si8 2.633750 1_555
Mg1 Si3 2.783647 1_545
Mg1 Si3 2.799149 1_555
Mg1 Si1 2.865304 1_555
Mg1 Si11 2.889241 1_546
Mg1 Si11 2.918854 1_556
Mg2 Si2 2.750963 1_555
Mg2 Si1 2.846673 1_455
Mg2 Si1 2.857955 1_465
Mg2 Si0 2.877329 1_556
Mg2 Si10 2.895418 1_555
Mg2 Si10 2.896238 1_565
Mg3 Si3 2.701694 1_555
Mg3 Si0 2.856241 1_665
Mg3 Si1 2.858898 1_564
Mg3 Si0 2.872386 1_655
Mg3 Si11 2.991940 1_565
Mg3 Si11 3.000650 1_555
Mg4 Si3 2.834489 1_555
Mg4 Si8 2.838064 1_555
Mg4 Si4 2.838788 1_564
Mg4 Si4 2.845760 1_554
Mg4 Si8 2.863478 1_565
Mg4 Si11 3.048026 1_555
Mg4 Si11 3.074629 1_565
Mg5 Si2 2.755943 1_555
Mg5 Si9 2.826865 1_565
Mg5 Si5 2.831137 1_565
Mg5 Si5 2.833196 1_555
Mg5 Si9 2.856511 1_555
Mg5 Si7 2.894379 1_565
Mg5 Si10 3.044544 1_555
Mg5 Si10 3.055038 1_565
Mg6 Si8 2.712725 1_555
Mg6 Si8 2.719965 1_565
Mg6 Si7 2.745637 1_565
Mg6 Si7 2.746826 1_555
Mg6 Si6 3.164097 1_565
Mg6 Si6 3.167516 1_555
Mg6 Si6 3.199445 1_556
Mg7 Si9 2.772276 1_556
Mg7 Si6 2.817696 1_566
Mg7 Si6 2.834625 1_556
Mg7 Si7 2.912361 1_565
Mg7 Si5 3.024174 1_565
Mg7 Si5 3.060487 1_555
Si0 Si1 2.450063 1_455
Si0 Si2 2.469682 1_545
Si0 Si2 2.487064 1_555
Si1 Si3 2.520810 1_555
Si1 Si3 2.525312 1_545
Si4 Si8 2.373034 1_555
Si4 Si8 2.376830 1_565
Si4 Si6 2.574748 1_556
Si5 Si9 2.538481 1_546
Si5 Si9 2.540384 1_556
Si6 Si7 2.507546 1_555
Si7 Si9 2.448014 1_555
Si7 Si9 2.474568 1_545
Si10 Si5 2.487730 1_555
Si10 Si2 2.553694 1_545
Si10 Si2 2.554030 1_555
Si11 Si4 2.493826 1_554
Si11 Si3 2.501236 1_545
Si11 Si3 2.517384 1_555
