# generated using pymatgen
data_SmNi3Sn2
_symmetry_space_group_name_H-M   'P 1'
_cell_length_a   4.26517900
_cell_length_b   9.33809724
_cell_length_c   9.33809738
_cell_angle_alpha   59.97377790
_cell_angle_beta   90.00000000
_cell_angle_gamma   90.00000000
_symmetry_Int_Tables_number   1
_chemical_formula_structural   SmNi3Sn2
_chemical_formula_sum   'Sm3 Ni9 Sn6'
_cell_volume   322.01037904
_cell_formula_units_Z   3
loop_
 _symmetry_equiv_pos_site_id
 _symmetry_equiv_pos_as_xyz
  1  'x, y, z'
loop_
 _atom_site_type_symbol
 _atom_site_label
 _atom_site_symmetry_multiplicity
 _atom_site_fract_x
 _atom_site_fract_y
 _atom_site_fract_z
 _atom_site_occupancy
  Sm  Sm0  1  0.50000000  0.33345500  0.33355800  1
  Sm  Sm1  1  0.50000000  0.66644200  0.66654500  1
  Sm  Sm2  1  0.00000000  0.99986500  0.00013500  1
  Ni  Ni0  1  0.00000000  0.20597700  0.16672000  1
  Ni  Ni1  1  0.00000000  0.16657900  0.62782900  1
  Ni  Ni2  1  0.00000000  0.62747400  0.20602300  1
  Ni  Ni3  1  0.00000000  0.83328000  0.79402300  1
  Ni  Ni4  1  0.00000000  0.37217100  0.83342100  1
  Ni  Ni5  1  0.00000000  0.79397700  0.37252600  1
  Ni  Ni6  1  0.50000000  0.29456200  0.70543800  1
  Ni  Ni7  1  0.50000000  0.70575400  0.99991500  1
  Ni  Ni8  1  0.50000000  0.00008500  0.29424600  1
  Sn  Sn0  1  0.50000000  0.74409500  0.25590500  1
  Sn  Sn1  1  0.50000000  0.25609800  0.99988000  1
  Sn  Sn2  1  0.50000000  0.00012000  0.74390200  1
  Sn  Sn3  1  0.00000000  0.47047900  0.52952100  1
  Sn  Sn4  1  0.00000000  0.52944200  0.99995500  1
  Sn  Sn5  1  0.00000000  0.00004500  0.47055800  1
loop_
_geom_bond_atom_site_label_1
_geom_bond_atom_site_label_2
_geom_bond_distance
_geom_bond_site_symmetry_2
Sm0 Sn3 3.446317 1_555
Sm0 Sn3 3.446317 1_655
Sm0 Sn5 3.448440 1_655
Sm0 Sn5 3.448440 1_555
Sm0 Sn4 3.449077 1_654
Sm0 Sn4 3.449077 1_554
Sm0 Sn2 3.526340 1_555
Sm0 Sn0 3.528052 1_555
Sm0 Sn1 3.533182 1_554
Sm1 Sn3 3.446317 1_555
Sm1 Sn3 3.446317 1_655
Sm1 Sn4 3.448440 1_655
Sm1 Sn4 3.448440 1_555
Sm1 Sn5 3.449077 1_565
Sm1 Sn5 3.449077 1_665
Sm1 Sn1 3.526340 1_555
Sm1 Sn0 3.528053 1_555
Sm1 Sn2 3.533182 1_565
Sm2 Sn0 3.201233 1_455
Sm2 Sn0 3.201233 1_555
Sm2 Sn1 3.204277 1_464
Sm2 Sn1 3.204277 1_564
Sm2 Sn2 3.204277 1_564
Sm2 Sn2 3.204277 1_464
Ni0 Sn5 2.507518 1_555
Ni0 Sn1 2.542538 1_454
Ni0 Sn1 2.542538 1_554
Ni0 Sn4 2.615580 1_554
Ni0 Ni4 2.694692 1_554
Ni0 Ni8 2.714998 1_555
Ni0 Ni8 2.714998 1_455
Ni0 Sm2 3.020050 1_545
Ni0 Sm0 3.201290 1_455
Ni0 Sm0 3.201290 1_555
Ni1 Sn3 2.507765 1_555
Ni1 Sn2 2.540238 1_455
Ni1 Sn2 2.540238 1_555
Ni1 Sn5 2.619323 1_555
Ni1 Ni3 2.694692 1_545
Ni1 Ni6 2.714457 1_455
Ni1 Ni6 2.714457 1_555
Ni1 Sm2 3.015605 1_546
Ni1 Sm0 3.200292 1_455
Ni1 Sm0 3.200292 1_555
Ni2 Sn4 2.510743 1_554
Ni2 Sn0 2.541366 1_555
Ni2 Sn0 2.541366 1_455
Ni2 Sn3 2.615844 1_555
Ni2 Ni5 2.693385 1_555
Ni2 Ni7 2.716352 1_454
Ni2 Ni7 2.716352 1_554
Ni2 Sm2 3.016268 1_555
Ni2 Sm0 3.198760 1_455
Ni2 Sm0 3.198760 1_555
Ni3 Sn4 2.507518 1_555
Ni3 Sn2 2.542538 1_565
Ni3 Sn2 2.542538 1_465
Ni3 Sn5 2.615581 1_565
Ni3 Ni7 2.714998 1_455
Ni3 Ni7 2.714998 1_555
Ni3 Sm2 3.020050 1_556
Ni3 Sm1 3.201290 1_555
Ni3 Sm1 3.201290 1_455
Ni4 Sn3 2.507765 1_555
Ni4 Sn1 2.540238 1_555
Ni4 Sn1 2.540238 1_455
Ni4 Sn4 2.619323 1_555
Ni4 Ni6 2.714457 1_455
Ni4 Ni6 2.714457 1_555
Ni4 Sm2 3.015605 1_546
Ni4 Sm1 3.200292 1_555
Ni4 Sm1 3.200292 1_455
Ni5 Sn5 2.510743 1_565
Ni5 Sn0 2.541366 1_455
Ni5 Sn0 2.541366 1_555
Ni5 Sn3 2.615844 1_555
Ni5 Ni8 2.716352 1_565
Ni5 Ni8 2.716352 1_465
Ni5 Sm2 3.016268 1_555
Ni5 Sm1 3.198760 1_455
Ni5 Sm1 3.198760 1_555
Ni6 Sn2 2.588543 1_555
Ni6 Sn1 2.588543 1_555
Ni6 Sn3 2.691535 1_555
Ni6 Sn3 2.691535 1_655
Ni6 Sm1 3.305903 1_555
Ni6 Sm0 3.305903 1_555
Ni6 Sm2 3.480652 1_546
Ni6 Sm2 3.480652 1_646
Ni7 Sn2 2.587390 1_565
Ni7 Sn0 2.588247 1_556
Ni7 Sn4 2.694071 1_655
Ni7 Sn4 2.694071 1_555
Ni7 Sm0 3.309572 1_556
Ni7 Sm1 3.312022 1_555
Ni7 Sm2 3.478003 1_656
Ni7 Sm2 3.478003 1_556
Ni8 Sn1 2.587390 1_554
Ni8 Sn0 2.588247 1_545
Ni8 Sn5 2.694071 1_555
Ni8 Sn5 2.694071 1_655
Ni8 Sm1 3.309572 1_545
Ni8 Sm0 3.312022 1_555
Ni8 Sm2 3.478003 1_645
Ni8 Sm2 3.478003 1_545
