# generated using pymatgen
data_Sr3Y(BO3)3
_symmetry_space_group_name_H-M   'P 1'
_cell_length_a   7.92929020
_cell_length_b   7.92929020
_cell_length_c   7.92928994
_cell_angle_alpha   105.02345659
_cell_angle_beta   105.02345659
_cell_angle_gamma   105.02346090
_symmetry_Int_Tables_number   1
_chemical_formula_structural   Sr3Y(BO3)3
_chemical_formula_sum   'Sr6 Y2 B6 O18'
_cell_volume   435.64507315
_cell_formula_units_Z   2
loop_
 _symmetry_equiv_pos_site_id
 _symmetry_equiv_pos_as_xyz
  1  'x, y, z'
loop_
 _atom_site_type_symbol
 _atom_site_label
 _atom_site_symmetry_multiplicity
 _atom_site_fract_x
 _atom_site_fract_y
 _atom_site_fract_z
 _atom_site_occupancy
  Sr  Sr0  1  0.36010900  0.73517700  0.86109200  1
  Sr  Sr1  1  0.86109200  0.36010900  0.73517700  1
  Sr  Sr2  1  0.73517700  0.86109200  0.36010900  1
  Sr  Sr3  1  0.63989100  0.26482300  0.13890800  1
  Sr  Sr4  1  0.13890800  0.63989100  0.26482300  1
  Sr  Sr5  1  0.26482300  0.13890800  0.63989100  1
  Y  Y0  1  0.50000000  0.50000000  0.50000000  1
  Y  Y1  1  0.00000000  0.00000000  0.00000000  1
  B  B0  1  0.70741300  0.61093800  0.95993300  1
  B  B1  1  0.95993300  0.70741300  0.61093800  1
  B  B2  1  0.61093800  0.95993300  0.70741300  1
  B  B3  1  0.04006700  0.29258700  0.38906200  1
  B  B4  1  0.38906200  0.04006700  0.29258700  1
  B  B5  1  0.29258700  0.38906200  0.04006700  1
  O  O0  1  0.04495600  0.81181900  0.52228100  1
  O  O1  1  0.52228100  0.04495600  0.81181900  1
  O  O2  1  0.44552800  0.49315200  0.20485500  1
  O  O3  1  0.49315200  0.20485500  0.44552800  1
  O  O4  1  0.20485500  0.44552800  0.49315200  1
  O  O5  1  0.79514500  0.55447200  0.50684800  1
  O  O6  1  0.55447200  0.50684800  0.79514500  1
  O  O7  1  0.50684800  0.79514500  0.55447200  1
  O  O8  1  0.25229900  0.19721200  0.96796100  1
  O  O9  1  0.19721200  0.96796100  0.25229900  1
  O  O10  1  0.96796100  0.25229900  0.19721200  1
  O  O11  1  0.74770100  0.80278800  0.03203900  1
  O  O12  1  0.80278800  0.03203900  0.74770100  1
  O  O13  1  0.03203900  0.74770100  0.80278800  1
  O  O14  1  0.18818100  0.47771900  0.95504400  1
  O  O15  1  0.47771900  0.95504400  0.18818100  1
  O  O16  1  0.95504400  0.18818100  0.47771900  1
  O  O17  1  0.81181900  0.52228100  0.04495600  1
loop_
_geom_bond_atom_site_label_1
_geom_bond_atom_site_label_2
_geom_bond_distance
_geom_bond_site_symmetry_2
B0 O17 1.375547 1_556
B0 O11 1.394834 1_556
B0 O6 1.399900 1_555
B1 O0 1.375547 1_655
B1 O13 1.394834 1_655
B1 O5 1.399900 1_555
B2 O1 1.375547 1_565
B2 O12 1.394834 1_565
B2 O7 1.399900 1_555
B3 O16 1.375547 1_455
B3 O10 1.394834 1_455
B3 O4 1.399900 1_555
B4 O15 1.375547 1_545
B4 O9 1.394834 1_545
B4 O3 1.399900 1_555
B5 O14 1.375547 1_554
B5 O8 1.394834 1_554
B5 O2 1.399900 1_555
O0 Sr5 2.488941 1_565
O0 Sr4 2.540311 1_555
O0 Sr2 2.638224 1_455
O1 Sr3 2.488941 1_556
O1 Sr5 2.540311 1_555
O1 Sr0 2.638224 1_545
O2 Y0 2.250419 1_555
O2 Sr3 2.701853 1_555
O2 Sr2 2.915578 1_555
O2 Sr4 3.044689 1_555
O3 Y0 2.250419 1_555
O3 Sr5 2.701853 1_555
O3 Sr1 2.915578 1_555
O3 Sr3 3.044688 1_555
O4 Y0 2.250419 1_555
O4 Sr4 2.701853 1_555
O4 Sr0 2.915578 1_555
O4 Sr5 3.044689 1_555
O5 Y0 2.250419 1_555
O5 Sr1 2.701853 1_555
O5 Sr3 2.915578 1_555
O5 Sr2 3.044689 1_555
O6 Y0 2.250419 1_555
O6 Sr0 2.701853 1_555
O6 Sr5 2.915578 1_555
O6 Sr1 3.044689 1_555
O7 Y0 2.250419 1_555
O7 Sr2 2.701853 1_555
O7 Sr4 2.915578 1_555
O7 Sr0 3.044688 1_555
O8 Y1 2.315095 1_556
O8 Sr5 2.554393 1_555
O8 Sr3 2.859981 1_556
O9 Y1 2.315095 1_565
O9 Sr4 2.554393 1_555
O9 Sr5 2.859981 1_565
O10 Y1 2.315096 1_655
O10 Sr3 2.554393 1_555
O10 Sr4 2.859981 1_655
O11 Y1 2.315095 1_665
O11 Sr2 2.554393 1_555
O11 Sr0 2.859981 1_554
O12 Y1 2.315095 1_656
O12 Sr1 2.554393 1_555
O12 Sr2 2.859981 1_545
O13 Y1 2.315096 1_566
O13 Sr0 2.554393 1_555
O13 Sr1 2.859981 1_455
O14 Sr1 2.488941 1_455
O14 Sr0 2.540311 1_555
O14 Sr4 2.638224 1_556
O15 Sr0 2.488941 1_554
O15 Sr2 2.540311 1_555
O15 Sr3 2.638224 1_565
O16 Sr2 2.488941 1_545
O16 Sr1 2.540311 1_555
O16 Sr5 2.638224 1_655
O17 Sr4 2.488941 1_655
O17 Sr3 2.540311 1_555
O17 Sr1 2.638224 1_554
