# generated using pymatgen
data_C41F14
_symmetry_space_group_name_H-M   'P 1'
_cell_length_a   10.22243171
_cell_length_b   10.42286140
_cell_length_c   27.40451770
_cell_angle_alpha   83.32703682
_cell_angle_beta   79.25082013
_cell_angle_gamma   60.63410421
_symmetry_Int_Tables_number   1
_chemical_formula_structural   C41F14
_chemical_formula_sum   'C164 F56'
_cell_volume   2498.98753497
_cell_formula_units_Z   4
loop_
 _symmetry_equiv_pos_site_id
 _symmetry_equiv_pos_as_xyz
  1  'x, y, z'
loop_
 _atom_site_type_symbol
 _atom_site_label
 _atom_site_symmetry_multiplicity
 _atom_site_fract_x
 _atom_site_fract_y
 _atom_site_fract_z
 _atom_site_occupancy
  C  C0  1  0.17642144  0.47209199  0.34852984  1
  C  C1  1  0.99704327  0.02790801  0.15147016  1
  C  C2  1  0.82357856  0.52790801  0.65147016  1
  C  C3  1  0.00295673  0.97209199  0.84852984  1
  C  C4  1  0.30427272  0.40252505  0.31068878  1
  C  C5  1  0.01748655  0.09747495  0.18931122  1
  C  C6  1  0.69572728  0.59747495  0.68931122  1
  C  C7  1  0.98251345  0.90252505  0.81068878  1
  C  C8  1  0.99681988  0.48925853  0.29647992  1
  C  C9  1  0.78255834  0.01074147  0.20352008  1
  C  C10  1  0.00318012  0.51074147  0.70352008  1
  C  C11  1  0.21744166  0.98925853  0.79647992  1
  C  C12  1  0.02729235  0.50917910  0.34254451  1
  C  C13  1  0.87901596  0.99082090  0.15745549  1
  C  C14  1  0.97270765  0.49082090  0.65745549  1
  C  C15  1  0.12098404  0.00917910  0.84254451  1
  C  C16  1  0.91122617  0.62862464  0.37964201  1
  C  C17  1  0.91949282  0.87137536  0.12035799  1
  C  C18  1  0.08877383  0.37137536  0.62035799  1
  C  C19  1  0.08050718  0.12862464  0.87964201  1
  C  C20  1  0.01245737  0.68026600  0.39721648  1
  C  C21  1  0.08993986  0.81973400  0.10278352  1
  C  C22  1  0.98754263  0.31973400  0.60278352  1
  C  C23  1  0.91006014  0.18026600  0.89721648  1
  C  C24  1  0.16835848  0.57572467  0.38154601  1
  C  C25  1  0.12562915  0.92427533  0.11845399  1
  C  C26  1  0.83164152  0.42427533  0.61845399  1
  C  C27  1  0.87437085  0.07572467  0.88154601  1
  C  C28  1  0.28254586  0.61506405  0.37481728  1
  C  C29  1  0.27242719  0.88493595  0.12518272  1
  C  C30  1  0.71745414  0.38493595  0.62518272  1
  C  C31  1  0.72757281  0.11506405  0.87481728  1
  C  C32  1  0.40686811  0.55495433  0.33403477  1
  C  C33  1  0.29585721  0.94504567  0.16596523  1
  C  C34  1  0.59313189  0.44504567  0.66596523  1
  C  C35  1  0.70414279  0.05495433  0.83403477  1
  C  C36  1  0.42306841  0.44604838  0.30311682  1
  C  C37  1  0.17223361  0.05395162  0.19688318  1
  C  C38  1  0.57693159  0.55395162  0.69688318  1
  C  C39  1  0.82776639  0.94604838  0.80311682  1
  C  C40  1  0.86363266  0.60693517  0.27566122  1
  C  C41  1  0.74622905  0.89306483  0.22433878  1
  C  C42  1  0.13636734  0.39306483  0.72433878  1
  C  C43  1  0.25377095  0.10693517  0.77566122  1
  C  C44  1  0.77367044  0.73779975  0.30231856  1
  C  C45  1  0.81378875  0.76220025  0.19768144  1
  C  C46  1  0.22632956  0.26220025  0.69768144  1
  C  C47  1  0.18621125  0.23779975  0.80231856  1
  C  C48  1  0.80005926  0.75686304  0.35088680  1
  C  C49  1  0.90780910  0.74313696  0.14911320  1
  C  C50  1  0.19994074  0.24313696  0.64911320  1
  C  C51  1  0.09219090  0.25686304  0.85088680  1
  C  C52  1  0.75849844  0.90208779  0.35599463  1
  C  C53  1  0.01658087  0.59791221  0.14400537  1
  C  C54  1  0.24150156  0.09791221  0.64400537  1
  C  C55  1  0.98341913  0.40208779  0.85599463  1
  C  C56  1  0.81886950  0.95723921  0.39087457  1
  C  C57  1  0.16698328  0.54276079  0.10912543  1
  C  C58  1  0.18113050  0.04276079  0.60912543  1
  C  C59  1  0.83301672  0.45723921  0.89087457  1
  C  C60  1  0.97190600  0.82550707  0.40260773  1
  C  C61  1  0.20002080  0.67449293  0.09739227  1
  C  C62  1  0.02809400  0.17449293  0.59739227  1
  C  C63  1  0.79997920  0.32550707  0.90260773  1
  C  C64  1  0.08795458  0.86989888  0.39280512  1
  C  C65  1  0.35065858  0.63010112  0.10719488  1
  C  C66  1  0.91204542  0.13010112  0.60719488  1
  C  C67  1  0.64934142  0.36989888  0.89280512  1
  C  C68  1  0.24194325  0.76573966  0.38053017  1
  C  C69  1  0.38821309  0.73426034  0.11946983  1
  C  C70  1  0.75805675  0.23426034  0.61946983  1
  C  C71  1  0.61178691  0.26573966  0.88053017  1
  C  C72  1  0.34046913  0.80009381  0.34246250  1
  C  C73  1  0.48302544  0.69990619  0.15753750  1
  C  C74  1  0.65953087  0.19990619  0.65753750  1
  C  C75  1  0.51697456  0.30009381  0.84246250  1
  C  C76  1  0.44303716  0.66916409  0.31416061  1
  C  C77  1  0.42636186  0.83083591  0.18583939  1
  C  C78  1  0.55696284  0.33083591  0.68583939  1
  C  C79  1  0.57363814  0.16916409  0.81416061  1
  C  C80  1  0.49709993  0.67736511  0.26263704  1
  C  C81  1  0.43710208  0.82263489  0.23736296  1
  C  C82  1  0.50290007  0.32263489  0.73736296  1
  C  C83  1  0.56289792  0.17736511  0.76263704  1
  C  C84  1  0.71422055  0.87866029  0.27686036  1
  C  C85  1  0.86974120  0.62133971  0.22313964  1
  C  C86  1  0.28577945  0.12133971  0.72313964  1
  C  C87  1  0.13025880  0.37866029  0.77686036  1
  C  C88  1  0.70739872  0.98063465  0.30986460  1
  C  C89  1  0.99789797  0.51936535  0.19013540  1
  C  C90  1  0.29260128  0.01936535  0.69013540  1
  C  C91  1  0.00210203  0.48063465  0.80986460  1
  C  C92  1  0.74067760  0.09115257  0.29053213  1
  C  C93  1  0.12236229  0.40884743  0.20946787  1
  C  C94  1  0.25932240  0.90884743  0.70946787  1
  C  C95  1  0.87763771  0.59115257  0.79053213  1
  C  C96  1  0.82786482  0.13108080  0.31661308  1
  C  C97  1  0.27555870  0.36891920  0.18338692  1
  C  C98  1  0.17213518  0.86891920  0.68338692  1
  C  C99  1  0.72444130  0.63108080  0.81661308  1
  C  C100  1  0.87644085  0.06077084  0.36116228  1
  C  C101  1  0.29837397  0.43922916  0.13883772  1
  C  C102  1  0.12355915  0.93922916  0.63883772  1
  C  C103  1  0.70162603  0.56077084  0.86116228  1
  C  C104  1  0.02931273  0.01320747  0.36781153  1
  C  C105  1  0.41033172  0.48679253  0.13218847  1
  C  C106  1  0.97068727  0.98679253  0.63218847  1
  C  C107  1  0.58966828  0.51320747  0.86781153  1
  C  C108  1  0.12672418  0.04678816  0.33147149  1
  C  C109  1  0.50498384  0.45321184  0.16852851  1
  C  C110  1  0.87327582  0.95321184  0.66852851  1
  C  C111  1  0.49501616  0.54678816  0.83147149  1
  C  C112  1  0.28433445  0.93771151  0.31855592  1
  C  C113  1  0.54060188  0.56228849  0.18144408  1
  C  C114  1  0.71566555  0.06228849  0.68144408  1
  C  C115  1  0.45939812  0.43771151  0.81855592  1
  C  C116  1  0.32905617  0.94869103  0.26536621  1
  C  C117  1  0.54311341  0.55130897  0.23463379  1
  C  C118  1  0.67094383  0.05130897  0.73463379  1
  C  C119  1  0.45688659  0.44869103  0.76536621  1
  C  C120  1  0.78477299  0.10270413  0.23756992  1
  C  C121  1  0.12504704  0.39729587  0.26243008  1
  C  C122  1  0.21522701  0.89729587  0.76243008  1
  C  C123  1  0.87495296  0.60270413  0.73756992  1
  C  C124  1  0.89964340  0.14715070  0.23031205  1
  C  C125  1  0.27710615  0.35284930  0.26968795  1
  C  C126  1  0.10035660  0.85284930  0.76968795  1
  C  C127  1  0.72289385  0.64715070  0.73031205  1
  C  C128  1  0.92701949  0.16360854  0.27877507  1
  C  C129  1  0.36940309  0.33639146  0.22122493  1
  C  C130  1  0.07298051  0.83639146  0.72122493  1
  C  C131  1  0.63059691  0.66360854  0.77877507  1
  C  C132  1  0.07383218  0.12267986  0.28607745  1
  C  C133  1  0.48258949  0.37732014  0.21392255  1
  C  C134  1  0.92616782  0.87732014  0.71392255  1
  C  C135  1  0.51741051  0.62267986  0.78607745  1
  C  C136  1  0.19820727  0.06266450  0.24533715  1
  C  C137  1  0.50620892  0.43733550  0.25466285  1
  C  C138  1  0.80179273  0.93733550  0.75466285  1
  C  C139  1  0.49379108  0.56266450  0.74533715  1
  C  C140  1  0.83355259  0.56810550  0.42496703  1
  C  C141  1  0.82662512  0.93189450  0.07503297  1
  C  C142  1  0.16644741  0.43189450  0.57503297  1
  C  C143  1  0.17337488  0.06810550  0.92496703  1
  C  C144  1  0.94264477  0.41244827  0.44545259  1
  C  C145  1  0.80054563  0.08755173  0.05454741  1
  C  C146  1  0.05735523  0.58755173  0.55454741  1
  C  C147  1  0.19945437  0.91244827  0.94545259  1
  C  C148  1  0.68875400  0.57009335  0.41396408  1
  C  C149  1  0.67281143  0.92990665  0.08603592  1
  C  C150  1  0.31124600  0.42990665  0.58603592  1
  C  C151  1  0.32718857  0.07009335  0.91396408  1
  C  C152  1  0.69656135  0.02991034  0.43814119  1
  C  C153  1  0.16461289  0.47008966  0.06185881  1
  C  C154  1  0.30343865  0.97008966  0.56185881  1
  C  C155  1  0.83538711  0.52991034  0.93814119  1
  C  C156  1  0.76631564  0.03806823  0.48293350  1
  C  C157  1  0.28731737  0.46193177  0.01706650  1
  C  C158  1  0.23368436  0.96193177  0.51706650  1
  C  C159  1  0.71268263  0.53806823  0.98293350  1
  C  C160  1  0.56409253  0.18414149  0.42652185  1
  C  C161  1  0.17475587  0.31585851  0.07347815  1
  C  C162  1  0.43590747  0.81585851  0.57347815  1
  C  C163  1  0.82524413  0.68414149  0.92652185  1
  F  F0  1  0.78513371  0.66123427  0.46434193  1
  F  F1  1  0.91070991  0.83876573  0.03565807  1
  F  F2  1  0.21486629  0.33876573  0.53565807  1
  F  F3  1  0.08929009  0.16123427  0.96434193  1
  F  F4  1  0.87938355  0.38369419  0.49048378  1
  F  F5  1  0.75356153  0.11630581  0.00951622  1
  F  F6  1  0.12061645  0.61630581  0.50951622  1
  F  F7  1  0.24643847  0.88369419  0.99048378  1
  F  F8  1  0.07538478  0.40387179  0.45152214  1
  F  F9  1  0.93077871  0.09612821  0.04847786  1
  F  F10  1  0.92461522  0.59612821  0.54847786  1
  F  F11  1  0.06922129  0.90387179  0.95152214  1
  F  F12  1  0.97459411  0.30503756  0.41423813  1
  F  F13  1  0.69386981  0.19496244  0.08576187  1
  F  F14  1  0.02540589  0.69496244  0.58576187  1
  F  F15  1  0.30613019  0.80503756  0.91423813  1
  F  F16  1  0.63060361  0.50833154  0.45184424  1
  F  F17  1  0.59077939  0.99166846  0.04815576  1
  F  F18  1  0.36939639  0.49166846  0.54815576  1
  F  F19  1  0.40922061  0.00833154  0.95184424  1
  F  F20  1  0.72081417  0.49531432  0.37195822  1
  F  F21  1  0.58808671  0.00468568  0.12804178  1
  F  F22  1  0.27918583  0.50468568  0.62804178  1
  F  F23  1  0.41191329  0.99531432  0.87195822  1
  F  F24  1  0.57897304  0.71051397  0.40746348  1
  F  F25  1  0.69695049  0.78948603  0.09253652  1
  F  F26  1  0.42102696  0.28948603  0.59253652  1
  F  F27  1  0.30304951  0.21051397  0.90746348  1
  F  F28  1  0.62788384  0.94302405  0.45488794  1
  F  F29  1  0.02579583  0.55697595  0.04511206  1
  F  F30  1  0.37211616  0.05697595  0.54511206  1
  F  F31  1  0.97420417  0.44302405  0.95488794  1
  F  F32  1  0.85464284  0.90035616  0.50061158  1
  F  F33  1  0.25561058  0.59964384  0.99938842  1
  F  F34  1  0.14535716  0.09964384  0.49938842  1
  F  F35  1  0.74438942  0.40035616  0.00061158  1
  F  F36  1  0.65738365  0.11286620  0.52097274  1
  F  F37  1  0.29122258  0.38713380  0.97902726  1
  F  F38  1  0.34261635  0.88713380  0.47902726  1
  F  F39  1  0.70877742  0.61286620  0.02097274  1
  F  F40  1  0.85290140  0.10583197  0.46949722  1
  F  F41  1  0.42823058  0.39416803  0.03050278  1
  F  F42  1  0.14709860  0.89416803  0.53050278  1
  F  F43  1  0.57176942  0.60583197  0.96949722  1
  F  F44  1  0.44631726  0.22778977  0.46401610  1
  F  F45  1  0.13812313  0.27221023  0.03598390  1
  F  F46  1  0.55368274  0.77221023  0.53598390  1
  F  F47  1  0.86187687  0.72778977  0.96401610  1
  F  F48  1  0.61028389  0.28775884  0.41860617  1
  F  F49  1  0.31664891  0.21224116  0.08139383  1
  F  F50  1  0.38971611  0.71224116  0.58139383  1
  F  F51  1  0.68335109  0.78775884  0.91860617  1
  F  F52  1  0.50993363  0.18056057  0.38519606  1
  F  F53  1  0.07569026  0.31943943  0.11480394  1
  F  F54  1  0.49006637  0.81943943  0.61480394  1
  F  F55  1  0.92430974  0.68056057  0.88519606  1
loop_
_geom_bond_atom_site_label_1
_geom_bond_atom_site_label_2
_geom_bond_distance
_geom_bond_site_symmetry_2
C0 C12 1.414530 1_555
C0 C4 1.431443 1_555
C0 C24 1.450572 1_555
C1 C13 1.414530 1_545
C1 C5 1.431443 1_655
C1 C25 1.450572 1_645
C2 C6 1.431443 1_555
C2 C26 1.450572 1_555
C3 C7 1.431443 1_455
C10 C14 1.415900 1_455
C10 C123 1.423728 1_455
C10 C42 1.474064 1_555
C11 C15 1.415900 1_565
C11 C122 1.423728 1_555
C11 C43 1.474064 1_565
C12 C8 1.415900 1_455
C12 C16 1.544898 1_455
C13 C9 1.415900 1_565
C13 C17 1.544898 1_555
C14 C2 1.414530 1_555
C14 C18 1.544898 1_655
C15 C3 1.414530 1_545
C15 C19 1.544898 1_555
C16 C48 1.516064 1_555
C16 C20 1.544340 1_655
C17 C49 1.516064 1_555
C17 C21 1.544340 1_655
C18 C50 1.516064 1_555
C18 C22 1.544340 1_455
C19 C51 1.516064 1_555
C19 C23 1.544340 1_455
C20 C60 1.378045 1_455
C20 C24 1.435920 1_555
C21 C61 1.378045 1_555
C21 C25 1.435920 1_555
C22 C62 1.378045 1_655
C22 C26 1.435920 1_555
C23 C63 1.378045 1_555
C23 C27 1.435920 1_555
C24 C28 1.391475 1_555
C25 C29 1.391475 1_555
C26 C30 1.391475 1_555
C27 C31 1.391475 1_555
C27 C3 1.450572 1_645
C28 C68 1.434142 1_555
C28 C32 1.452146 1_555
C29 C69 1.434142 1_555
C29 C33 1.452146 1_555
C30 C70 1.434142 1_555
C30 C34 1.452146 1_555
C31 C71 1.434142 1_555
C31 C35 1.452146 1_555
C32 C36 1.421485 1_555
C32 C76 1.433962 1_555
C33 C37 1.421485 1_565
C33 C77 1.433962 1_555
C34 C38 1.421485 1_555
C34 C78 1.433962 1_555
C35 C39 1.421485 1_545
C35 C79 1.433962 1_555
C36 C4 1.465601 1_555
C37 C5 1.465601 1_555
C38 C6 1.465601 1_555
C39 C7 1.465601 1_555
C40 C44 1.410880 1_555
C40 C85 1.422517 1_555
C40 C8 1.474064 1_555
C41 C45 1.410880 1_555
C41 C84 1.422517 1_555
C41 C9 1.474064 1_565
C42 C46 1.410880 1_555
C42 C87 1.422517 1_555
C43 C47 1.410880 1_555
C43 C86 1.422517 1_555
C44 C84 1.434091 1_555
C44 C48 1.460049 1_555
C45 C85 1.434091 1_555
C45 C49 1.460049 1_555
C46 C86 1.434091 1_555
C46 C50 1.460049 1_555
C47 C87 1.434091 1_555
C47 C51 1.460049 1_555
C48 C52 1.373898 1_555
C49 C53 1.373898 1_655
C50 C54 1.373898 1_555
C51 C55 1.373898 1_455
C52 C88 1.458632 1_555
C52 C56 1.523370 1_555
C53 C89 1.458632 1_455
C53 C57 1.523370 1_555
C54 C90 1.458632 1_555
C54 C58 1.523370 1_555
C55 C91 1.458632 1_655
C55 C59 1.523370 1_555
C56 C60 1.553809 1_555
C57 C61 1.553809 1_555
C58 C62 1.553809 1_555
C59 C63 1.553809 1_555
C60 C64 1.443649 1_655
C61 C65 1.443649 1_555
C62 C66 1.443649 1_455
C63 C67 1.443649 1_555
C64 C68 1.407462 1_555
C65 C69 1.407462 1_555
C66 C70 1.407462 1_555
C67 C71 1.407462 1_555
C68 C72 1.451167 1_555
C69 C73 1.451167 1_555
C70 C74 1.451167 1_555
C71 C75 1.451167 1_555
C72 C76 1.450004 1_555
C73 C77 1.450004 1_555
C74 C78 1.450004 1_555
C75 C79 1.450004 1_555
C76 C80 1.426049 1_555
C77 C81 1.426049 1_555
C78 C82 1.426049 1_555
C79 C83 1.426049 1_555
C80 C81 1.467111 1_555
C82 C83 1.467111 1_555
C84 C88 1.442150 1_555
C85 C89 1.442150 1_555
C86 C90 1.442150 1_555
C87 C91 1.442150 1_555
C88 C92 1.377894 1_565
C89 C93 1.377894 1_655
C90 C94 1.377894 1_545
C91 C95 1.377894 1_455
C92 C96 1.465922 1_555
C93 C97 1.465922 1_555
C94 C98 1.465922 1_555
C95 C99 1.465922 1_555
C100 C96 1.391187 1_555
C100 C104 1.430552 1_655
C100 C56 1.553611 1_545
C101 C97 1.391187 1_555
C101 C105 1.430552 1_555
C101 C57 1.553611 1_555
C102 C98 1.391187 1_555
C102 C106 1.430552 1_455
C102 C58 1.553611 1_565
C103 C99 1.391187 1_555
C103 C107 1.430552 1_555
C103 C59 1.553611 1_555
C104 C108 1.413071 1_555
C104 C64 1.448031 1_545
C105 C109 1.413071 1_555
C105 C65 1.448031 1_555
C106 C110 1.413071 1_555
C106 C66 1.448031 1_565
C107 C111 1.413071 1_555
C107 C67 1.448031 1_555
C108 C132 1.438166 1_555
C108 C112 1.448428 1_545
C109 C133 1.438166 1_555
C109 C113 1.448428 1_555
C110 C134 1.438166 1_555
C110 C114 1.448428 1_565
C111 C135 1.438166 1_555
C111 C115 1.448428 1_555
C112 C72 1.389424 1_555
C112 C116 1.452851 1_555
C113 C73 1.389424 1_555
C113 C117 1.452851 1_555
C114 C74 1.389424 1_555
C114 C118 1.452851 1_555
C115 C75 1.389424 1_555
C115 C119 1.452851 1_555
C116 C81 1.424773 1_555
C116 C136 1.437195 1_565
C117 C80 1.424773 1_555
C117 C137 1.437195 1_555
C118 C83 1.424773 1_555
C118 C138 1.437195 1_545
C119 C82 1.424773 1_555
C119 C139 1.437195 1_555
C120 C9 1.423728 1_555
C120 C124 1.434585 1_555
C120 C92 1.446661 1_555
C121 C8 1.423728 1_455
C121 C125 1.434585 1_555
C121 C93 1.446661 1_555
C122 C126 1.434585 1_555
C122 C94 1.446661 1_555
C123 C127 1.434585 1_555
C123 C95 1.446661 1_555
C124 C5 1.414326 1_655
C124 C128 1.452678 1_555
C125 C4 1.414326 1_555
C125 C129 1.452678 1_555
C126 C7 1.414326 1_455
C126 C130 1.452678 1_555
C127 C6 1.414326 1_555
C127 C131 1.452678 1_555
C128 C132 1.392356 1_655
C128 C96 1.442510 1_555
C129 C133 1.392356 1_555
C129 C97 1.442510 1_555
C130 C134 1.392356 1_455
C130 C98 1.442510 1_555
C131 C135 1.392356 1_555
C131 C99 1.442510 1_555
C132 C136 1.451578 1_555
C133 C137 1.451578 1_555
C134 C138 1.451578 1_555
C135 C139 1.451578 1_555
C136 C37 1.423073 1_555
C137 C36 1.423073 1_555
C138 C39 1.423073 1_555
C139 C38 1.423073 1_555
C140 F0 1.387272 1_555
C140 C16 1.585061 1_555
C141 F1 1.387272 1_555
C141 C17 1.585061 1_555
C142 F2 1.387272 1_555
C142 C18 1.585061 1_555
C143 F3 1.387272 1_555
C143 C19 1.585061 1_555
C144 F4 1.355493 1_555
C144 F8 1.355978 1_655
C144 F12 1.360695 1_555
C145 F5 1.355493 1_555
C145 F9 1.355978 1_555
C145 F13 1.360695 1_555
C146 F6 1.355493 1_555
C146 F10 1.355978 1_455
C146 F14 1.360695 1_555
C147 F7 1.355493 1_555
C147 F11 1.355978 1_555
C147 F15 1.360695 1_555
C148 F16 1.354693 1_555
C148 F24 1.355101 1_555
C148 F20 1.362828 1_555
C149 F17 1.354693 1_555
C149 F25 1.355101 1_555
C149 F21 1.362828 1_565
C150 F18 1.354693 1_555
C150 F26 1.355101 1_555
C150 F22 1.362828 1_555
C151 F19 1.354693 1_555
C151 F27 1.355101 1_555
C151 F23 1.362828 1_545
C152 F28 1.389386 1_545
C152 C56 1.584261 1_545
C153 F29 1.389386 1_555
C153 C57 1.584261 1_555
C154 F30 1.389386 1_565
C154 C58 1.584261 1_565
C155 F31 1.389386 1_555
C155 C59 1.584261 1_555
C156 F36 1.356063 1_555
C156 F32 1.356717 1_545
C156 F40 1.359772 1_555
C157 F37 1.356063 1_554
C157 F33 1.356717 1_554
C157 F41 1.359772 1_555
C158 F38 1.356063 1_555
C158 F34 1.356717 1_565
C158 F42 1.359772 1_555
C159 F39 1.356063 1_556
C159 F35 1.356717 1_556
C159 F43 1.359772 1_555
C160 F44 1.349904 1_555
C160 F48 1.357900 1_555
C160 F52 1.361787 1_555
C161 F45 1.349904 1_555
C161 F49 1.357900 1_555
C161 F53 1.361787 1_555
C162 F46 1.349904 1_555
C162 F50 1.357900 1_555
C162 F54 1.361787 1_555
C163 F47 1.349904 1_555
C163 F51 1.357900 1_555
C163 F55 1.361787 1_555
