# generated using pymatgen
data_FeAs2S4(O2F3)4
_symmetry_space_group_name_H-M   'P 1'
_cell_length_a   14.08372900
_cell_length_b   8.92779100
_cell_length_c   15.45991816
_cell_angle_alpha   80.79138388
_cell_angle_beta   90.00000000
_cell_angle_gamma   90.00000000
_symmetry_Int_Tables_number   1
_chemical_formula_structural   FeAs2S4(O2F3)4
_chemical_formula_sum   'Fe4 As8 S16 O32 F48'
_cell_volume   1918.82509479
_cell_formula_units_Z   4
loop_
 _symmetry_equiv_pos_site_id
 _symmetry_equiv_pos_as_xyz
  1  'x, y, z'
loop_
 _atom_site_type_symbol
 _atom_site_label
 _atom_site_symmetry_multiplicity
 _atom_site_fract_x
 _atom_site_fract_y
 _atom_site_fract_z
 _atom_site_occupancy
  Fe  Fe0  1  0.81099200  0.72490400  0.75613900  1
  Fe  Fe1  1  0.31099200  0.27509600  0.74386100  1
  Fe  Fe2  1  0.18900800  0.27509600  0.24386100  1
  Fe  Fe3  1  0.68900800  0.72490400  0.25613900  1
  As  As0  1  0.64564300  0.53397000  0.60827200  1
  As  As1  1  0.14564300  0.46603000  0.89172800  1
  As  As2  1  0.35435700  0.46603000  0.39172800  1
  As  As3  1  0.85435700  0.53397000  0.10827200  1
  As  As4  1  0.61202300  0.90980100  0.86829300  1
  As  As5  1  0.11202300  0.09019900  0.63170700  1
  As  As6  1  0.38797700  0.09019900  0.13170700  1
  As  As7  1  0.88797700  0.90980100  0.36829300  1
  S  S0  1  0.97488500  0.87531900  0.89285600  1
  S  S1  1  0.47488500  0.12468100  0.60714400  1
  S  S2  1  0.02511500  0.12468100  0.10714400  1
  S  S3  1  0.52511500  0.87531900  0.39285600  1
  S  S4  1  0.82820300  0.34097500  0.84285600  1
  S  S5  1  0.32820300  0.65902500  0.65714400  1
  S  S6  1  0.17179700  0.65902500  0.15714400  1
  S  S7  1  0.67179700  0.34097500  0.34285600  1
  S  S8  1  0.79890000  0.07889900  0.61044500  1
  S  S9  1  0.29890000  0.92110100  0.88955500  1
  S  S10  1  0.20110000  0.92110100  0.38955500  1
  S  S11  1  0.70110000  0.07889900  0.11044500  1
  S  S12  1  0.97057500  0.59330900  0.60442200  1
  S  S13  1  0.47057500  0.40669100  0.89557800  1
  S  S14  1  0.02942500  0.40669100  0.39557800  1
  S  S15  1  0.52942500  0.59330900  0.10442200  1
  O  O0  1  0.92226800  0.79115600  0.83443700  1
  O  O1  1  0.42226800  0.20884400  0.66556300  1
  O  O2  1  0.07773200  0.20884400  0.16556300  1
  O  O3  1  0.57773200  0.79115600  0.33443700  1
  O  O4  1  0.93399800  0.01582900  0.90906900  1
  O  O5  1  0.43399800  0.98417100  0.59093100  1
  O  O6  1  0.06600200  0.98417100  0.09093100  1
  O  O7  1  0.56600200  0.01582900  0.40906900  1
  O  O8  1  0.81045700  0.50402000  0.83821700  1
  O  O9  1  0.31045700  0.49598000  0.66178300  1
  O  O10  1  0.18954300  0.49598000  0.16178300  1
  O  O11  1  0.68954300  0.50402000  0.33821700  1
  O  O12  1  0.85761500  0.29026800  0.76333500  1
  O  O13  1  0.35761500  0.70973200  0.73666500  1
  O  O14  1  0.14238500  0.70973200  0.23666500  1
  O  O15  1  0.64238500  0.29026800  0.26333500  1
  O  O16  1  0.81184500  0.94626500  0.67837400  1
  O  O17  1  0.31184500  0.05373500  0.82162600  1
  O  O18  1  0.18815500  0.05373500  0.32162600  1
  O  O19  1  0.68815500  0.94626500  0.17837400  1
  O  O20  1  0.70887400  0.09421100  0.56586400  1
  O  O21  1  0.20887400  0.90578900  0.93413600  1
  O  O22  1  0.29112600  0.90578900  0.43413600  1
  O  O23  1  0.79112600  0.09421100  0.06586400  1
  O  O24  1  0.92211700  0.65366100  0.67520100  1
  O  O25  1  0.42211700  0.34633900  0.82479900  1
  O  O26  1  0.07788300  0.34633900  0.32479900  1
  O  O27  1  0.57788300  0.65366100  0.17520100  1
  O  O28  1  0.07077300  0.62268100  0.59508500  1
  O  O29  1  0.57077300  0.37731900  0.90491500  1
  O  O30  1  0.92922700  0.37731900  0.40491500  1
  O  O31  1  0.42922700  0.62268100  0.09508500  1
  F  F0  1  0.64137200  0.69864200  0.52849300  1
  F  F1  1  0.14137200  0.30135800  0.97150700  1
  F  F2  1  0.35862800  0.30135800  0.47150700  1
  F  F3  1  0.85862800  0.69864200  0.02849300  1
  F  F4  1  0.70388500  0.65323400  0.68284400  1
  F  F5  1  0.20388500  0.34676600  0.81715600  1
  F  F6  1  0.29611500  0.34676600  0.31715600  1
  F  F7  1  0.79611500  0.65323400  0.18284400  1
  F  F8  1  0.65326800  0.37919600  0.69428500  1
  F  F9  1  0.15326800  0.62080400  0.80571500  1
  F  F10  1  0.34673200  0.62080400  0.30571500  1
  F  F11  1  0.84673200  0.37919600  0.19428500  1
  F  F12  1  0.53586300  0.58432300  0.65009400  1
  F  F13  1  0.03586300  0.41567700  0.84990600  1
  F  F14  1  0.46413700  0.41567700  0.34990600  1
  F  F15  1  0.96413700  0.58432300  0.15009400  1
  F  F16  1  0.59210700  0.42284500  0.53808300  1
  F  F17  1  0.09210700  0.57715500  0.96191700  1
  F  F18  1  0.40789300  0.57715500  0.46191700  1
  F  F19  1  0.90789300  0.42284500  0.03808300  1
  F  F20  1  0.76031300  0.49286600  0.57317500  1
  F  F21  1  0.26031300  0.50713400  0.92682500  1
  F  F22  1  0.23968700  0.50713400  0.42682500  1
  F  F23  1  0.73968700  0.49286600  0.07317500  1
  F  F24  1  0.64060000  0.86259900  0.98092600  1
  F  F25  1  0.14060000  0.13740100  0.51907400  1
  F  F26  1  0.35940000  0.13740100  0.01907400  1
  F  F27  1  0.85940000  0.86259900  0.48092600  1
  F  F28  1  0.53579500  0.75071100  0.87904000  1
  F  F29  1  0.03579500  0.24928900  0.62096000  1
  F  F30  1  0.46420500  0.24928900  0.12096000  1
  F  F31  1  0.96420500  0.75071100  0.37904000  1
  F  F32  1  0.69462800  0.05970000  0.85793900  1
  F  F33  1  0.19462800  0.94030000  0.64206100  1
  F  F34  1  0.30537200  0.94030000  0.14206100  1
  F  F35  1  0.80537200  0.05970000  0.35793900  1
  F  F36  1  0.51883400  0.02836500  0.89053600  1
  F  F37  1  0.01883400  0.97163500  0.60946400  1
  F  F38  1  0.48116600  0.97163500  0.10946400  1
  F  F39  1  0.98116600  0.02836500  0.39053600  1
  F  F40  1  0.58921600  0.94794000  0.75441200  1
  F  F41  1  0.08921600  0.05206000  0.74558800  1
  F  F42  1  0.41078400  0.05206000  0.24558800  1
  F  F43  1  0.91078400  0.94794000  0.25441200  1
  F  F44  1  0.70937800  0.78413500  0.84513400  1
  F  F45  1  0.20937800  0.21586500  0.65486600  1
  F  F46  1  0.29062200  0.21586500  0.15486600  1
  F  F47  1  0.79062200  0.78413500  0.34513400  1
loop_
_geom_bond_atom_site_label_1
_geom_bond_atom_site_label_2
_geom_bond_distance
_geom_bond_site_symmetry_2
Fe0 O0 2.121398 1_555
Fe0 O16 2.142593 1_555
Fe0 O24 2.162039 1_555
Fe0 O8 2.167517 1_555
Fe1 O1 2.121398 1_555
Fe1 O17 2.142593 1_555
Fe1 O25 2.162039 1_555
Fe1 O9 2.167517 1_555
Fe2 O2 2.121398 1_555
Fe2 O18 2.142593 1_555
Fe2 O26 2.162039 1_555
Fe2 O10 2.167517 1_555
Fe3 O3 2.121398 1_555
Fe3 O19 2.142593 1_555
Fe3 O27 2.162039 1_555
Fe3 O11 2.167517 1_555
As0 F16 1.753509 1_555
As0 F20 1.760957 1_555
As0 F8 1.760975 1_555
As0 F12 1.761710 1_555
As0 F0 1.762342 1_555
As0 F4 1.878448 1_555
As1 F17 1.753509 1_555
As1 F21 1.760957 1_555
As1 F9 1.760975 1_555
As1 F13 1.761710 1_555
As1 F1 1.762342 1_555
As1 F5 1.878448 1_555
As2 F18 1.753509 1_555
As2 F22 1.760957 1_555
As2 F10 1.760975 1_555
As2 F14 1.761710 1_555
As2 F2 1.762342 1_555
As2 F6 1.878448 1_555
As3 F19 1.753509 1_555
As3 F23 1.760957 1_555
As3 F11 1.760975 1_555
As3 F15 1.761710 1_555
As3 F3 1.762342 1_555
As3 F7 1.878448 1_555
As4 F36 1.754345 1_565
As4 F32 1.761104 1_565
As4 F28 1.766905 1_555
As4 F40 1.768311 1_555
As4 F24 1.771108 1_555
As4 F44 1.842670 1_555
As5 F37 1.754345 1_545
As5 F33 1.761104 1_545
As5 F29 1.766905 1_555
As5 F41 1.768311 1_555
As5 F25 1.771108 1_555
As5 F45 1.842670 1_555
As6 F38 1.754345 1_545
As6 F34 1.761104 1_545
As6 F30 1.766905 1_555
As6 F42 1.768311 1_555
As6 F26 1.771108 1_555
As6 F46 1.842670 1_555
As7 F39 1.754345 1_565
As7 F35 1.761104 1_565
As7 F31 1.766905 1_555
As7 F43 1.768311 1_555
As7 F27 1.771108 1_555
As7 F47 1.842670 1_555
O0 S0 1.465133 1_555
O1 S1 1.465133 1_555
O2 S2 1.465133 1_555
O3 S3 1.465133 1_555
O4 S0 1.438292 1_545
O5 S1 1.438292 1_565
O6 S2 1.438292 1_565
O7 S3 1.438292 1_545
O8 S4 1.467331 1_555
O9 S5 1.467331 1_555
O10 S6 1.467331 1_555
O11 S7 1.467331 1_555
O12 S4 1.437376 1_555
O13 S5 1.437376 1_555
O14 S6 1.437376 1_555
O15 S7 1.437376 1_555
O16 S8 1.462964 1_565
O17 S9 1.462964 1_545
O18 S10 1.462964 1_545
O19 S11 1.462964 1_565
O20 S8 1.439142 1_555
O21 S9 1.439142 1_555
O22 S10 1.439142 1_555
O23 S11 1.439142 1_555
O24 S12 1.463605 1_555
O25 S13 1.463605 1_555
O26 S14 1.463605 1_555
O27 S15 1.463605 1_555
O28 S12 1.438354 1_455
O29 S13 1.438354 1_555
O30 S14 1.438354 1_655
O31 S15 1.438354 1_555
F4 Fe0 2.049618 1_555
F5 Fe1 2.049618 1_555
F6 Fe2 2.049618 1_555
F7 Fe3 2.049618 1_555
F44 Fe0 2.110339 1_555
F45 Fe1 2.110339 1_555
F46 Fe2 2.110339 1_555
F47 Fe3 2.110339 1_555
