# generated using pymatgen
data_Sr2LiTi6N2O11
_symmetry_space_group_name_H-M   'P 1'
_cell_length_a   3.88447390
_cell_length_b   7.79838274
_cell_length_c   9.80032682
_cell_angle_alpha   76.99660919
_cell_angle_beta   89.99927170
_cell_angle_gamma   75.56112949
_symmetry_Int_Tables_number   1
_chemical_formula_structural   Sr2LiTi6N2O11
_chemical_formula_sum   'Sr2 Li1 Ti6 N2 O11'
_cell_volume   279.63256043
_cell_formula_units_Z   1
loop_
 _symmetry_equiv_pos_site_id
 _symmetry_equiv_pos_as_xyz
  1  'x, y, z'
loop_
 _atom_site_type_symbol
 _atom_site_label
 _atom_site_symmetry_multiplicity
 _atom_site_fract_x
 _atom_site_fract_y
 _atom_site_fract_z
 _atom_site_occupancy
  Sr  Sr0  1  0.56895300  0.87835100  0.71383100  1
  Sr  Sr1  1  0.44143500  0.13561500  0.27870600  1
  Li  Li0  1  0.50522100  0.00707000  0.99590100  1
  Ti  Ti0  1  0.13927000  0.73742600  0.05015400  1
  Ti  Ti1  1  0.16824700  0.68091600  0.40748000  1
  Ti  Ti2  1  0.25174200  0.51242800  0.74395000  1
  Ti  Ti3  1  0.75682900  0.50355600  0.22730700  1
  Ti  Ti4  1  0.84604000  0.32393500  0.56461900  1
  Ti  Ti5  1  0.87576100  0.26505300  0.94401800  1
  N  N0  1  0.22887700  0.55923000  0.23685700  1
  N  N1  1  0.84116700  0.33527200  0.10759900  1
  O  O0  1  0.05426500  0.90982000  0.31691500  1
  O  O1  1  0.14315100  0.72887600  0.60510600  1
  O  O2  1  0.17000300  0.67455600  0.87829200  1
  O  O3  1  0.63428600  0.74788700  0.07257100  1
  O  O4  1  0.69990200  0.61717900  0.42310800  1
  O  O5  1  0.77513700  0.46575700  0.75374900  1
  O  O6  1  0.31423000  0.38774200  0.57611400  1
  O  O7  1  0.37483700  0.26672300  0.89670000  1
  O  O8  1  0.87157700  0.27455200  0.38969800  1
  O  O9  1  0.95671600  0.10174500  0.67353500  1
  O  O10  1  0.00634600  0.00465900  0.99848500  1
loop_
_geom_bond_atom_site_label_1
_geom_bond_atom_site_label_2
_geom_bond_distance
_geom_bond_site_symmetry_2
Li0 O3 1.926769 1_546
Li0 O10 1.942114 1_655
Li0 O10 1.942750 1_555
Li0 O7 1.975977 1_555
N0 Ti3 1.993708 1_455
N0 Ti3 1.994330 1_555
N0 Ti0 2.003693 1_555
N0 Ti1 2.086799 1_555
N1 Ti5 1.801765 1_554
N1 Ti3 1.919467 1_555
N1 Sr1 2.770905 1_555
N1 Sr1 2.772693 1_655
O0 Ti1 1.750197 1_555
O0 Sr1 2.553540 1_465
O0 Sr1 2.554710 1_565
O1 Ti2 1.868147 1_555
O1 Ti1 2.051433 1_555
O1 Sr0 2.594492 1_455
O1 Sr0 2.598155 1_555
O2 Ti0 1.853088 1_556
O2 Ti2 1.995416 1_555
O2 Sr0 2.751659 1_455
O2 Sr0 2.756924 1_555
O3 Ti0 1.957303 1_655
O3 Ti0 1.959255 1_555
O3 Ti3 2.098608 1_555
O4 Ti1 1.997349 1_555
O4 Ti1 1.999238 1_655
O4 Ti3 2.276774 1_555
O4 Ti4 2.323920 1_555
O5 Ti2 1.972186 1_655
O5 Ti2 1.972435 1_555
O5 Ti5 2.112144 1_555
O5 Ti4 2.346328 1_555
O6 Ti4 2.010081 1_555
O6 Ti4 2.011065 1_455
O6 Ti2 2.076520 1_555
O6 Ti1 2.435790 1_555
O7 Ti5 1.995851 1_455
O7 Ti5 1.996528 1_555
O7 Ti2 2.096037 1_555
O8 Ti4 1.837104 1_555
O8 Ti3 2.060297 1_555
O8 Sr1 2.565584 1_555
O8 Sr1 2.567376 1_655
O9 Ti4 1.767124 1_555
O9 Sr0 2.541397 1_545
O9 Sr0 2.543836 1_645
O10 Ti5 1.914241 1_455
O10 Ti0 1.963291 1_546
