# generated using pymatgen
data_VH10SO10
_symmetry_space_group_name_H-M   'P 1'
_cell_length_a   6.21286100
_cell_length_b   7.31600700
_cell_length_c   9.38288600
_cell_angle_alpha   90.00000000
_cell_angle_beta   90.00000000
_cell_angle_gamma   90.00000000
_symmetry_Int_Tables_number   1
_chemical_formula_structural   VH10SO10
_chemical_formula_sum   'V2 H20 S2 O20'
_cell_volume   426.48345655
_cell_formula_units_Z   2
loop_
 _symmetry_equiv_pos_site_id
 _symmetry_equiv_pos_as_xyz
  1  'x, y, z'
loop_
 _atom_site_type_symbol
 _atom_site_label
 _atom_site_symmetry_multiplicity
 _atom_site_fract_x
 _atom_site_fract_y
 _atom_site_fract_z
 _atom_site_occupancy
  V  V0  1  0.50052600  0.50000000  0.71641000  1
  V  V1  1  0.00052600  0.00000000  0.28359000  1
  H  H0  1  0.90402600  0.60920600  0.82465100  1
  H  H1  1  0.90402600  0.39079400  0.82465100  1
  H  H2  1  0.40402600  0.89079400  0.17534900  1
  H  H3  1  0.40402600  0.10920600  0.17534900  1
  H  H4  1  0.48129800  0.68281200  0.96612500  1
  H  H5  1  0.48129800  0.31718800  0.96612500  1
  H  H6  1  0.98129800  0.81718800  0.03387500  1
  H  H7  1  0.98129800  0.18281200  0.03387500  1
  H  H8  1  0.30574100  0.76441000  0.85642900  1
  H  H9  1  0.30574100  0.23559000  0.85642900  1
  H  H10  1  0.80574100  0.73559000  0.14357100  1
  H  H11  1  0.80574100  0.26441000  0.14357100  1
  H  H12  1  0.69027300  0.66131800  0.49358800  1
  H  H13  1  0.69027300  0.33868200  0.49358800  1
  H  H14  1  0.19027300  0.83868200  0.50641200  1
  H  H15  1  0.19027300  0.16131800  0.50641200  1
  H  H16  1  0.69959500  0.81285400  0.62444600  1
  H  H17  1  0.69959500  0.18714600  0.62444600  1
  H  H18  1  0.19959500  0.68714600  0.37555400  1
  H  H19  1  0.19959500  0.31285400  0.37555400  1
  S  S0  1  0.52025800  0.50000000  0.23755800  1
  S  S1  1  0.02025800  0.00000000  0.76244200  1
  O  O0  1  0.25338800  0.50000000  0.65869100  1
  O  O1  1  0.75338800  0.00000000  0.34130900  1
  O  O2  1  0.81202000  0.50000000  0.83563500  1
  O  O3  1  0.31202000  0.00000000  0.16436500  1
  O  O4  1  0.45084100  0.70631000  0.86366500  1
  O  O5  1  0.45084100  0.29369000  0.86366500  1
  O  O6  1  0.95084100  0.79369000  0.13633500  1
  O  O7  1  0.95084100  0.20631000  0.13633500  1
  O  O8  1  0.63584600  0.69502200  0.58885100  1
  O  O9  1  0.63584600  0.30497800  0.58885100  1
  O  O10  1  0.13584600  0.80497800  0.41114900  1
  O  O11  1  0.13584600  0.19502200  0.41114900  1
  O  O12  1  0.53910800  0.66719000  0.14440500  1
  O  O13  1  0.53910800  0.33281000  0.14440500  1
  O  O14  1  0.03910800  0.83281000  0.85559500  1
  O  O15  1  0.03910800  0.16719000  0.85559500  1
  O  O16  1  0.69868700  0.50000000  0.34192300  1
  O  O17  1  0.19868700  0.00000000  0.65807700  1
  O  O18  1  0.30616400  0.50000000  0.30851500  1
  O  O19  1  0.80616400  0.00000000  0.69148500  1
loop_
_geom_bond_atom_site_label_1
_geom_bond_atom_site_label_2
_geom_bond_distance
_geom_bond_site_symmetry_2
H0 O2 0.987773 1_555
H1 O2 0.987773 1_555
H2 O3 0.987773 1_565
H3 O3 0.987773 1_555
H4 O4 0.994783 1_555
H5 O5 0.994783 1_555
H6 O6 0.994783 1_555
H7 O7 0.994783 1_555
H8 O4 0.998981 1_555
H9 O5 0.998981 1_555
H10 O6 0.998981 1_555
H11 O7 0.998981 1_555
H12 O8 0.986964 1_555
H13 O9 0.986964 1_555
H14 O10 0.986964 1_555
H15 O11 0.986964 1_555
H16 O8 1.005763 1_555
H16 O19 1.645795 1_565
H17 O9 1.005763 1_555
H17 O19 1.645795 1_555
H18 O10 1.005763 1_555
H18 O18 1.645795 1_555
H19 O11 1.005763 1_555
H19 O18 1.645795 1_555
O0 V0 1.628145 1_555
O1 V1 1.628145 1_655
O2 V0 2.235330 1_555
O3 V1 2.235330 1_555
O4 V0 2.069421 1_555
O5 V0 2.069421 1_555
O6 V1 2.069421 1_665
O7 V1 2.069421 1_655
O8 V0 2.043288 1_555
O9 V0 2.043288 1_555
O10 V1 2.043288 1_565
O11 V1 2.043288 1_555
O12 S0 1.507911 1_555
O13 S0 1.507911 1_555
O14 S1 1.507911 1_565
O15 S1 1.507911 1_555
O16 S0 1.479126 1_555
O17 S1 1.479126 1_555
O18 S0 1.487457 1_555
O19 S1 1.487457 1_655
