# generated using pymatgen
data_Dy5Zr3(Ni4As3)4
_symmetry_space_group_name_H-M   'P 1'
_cell_length_a   3.90414000
_cell_length_b   12.71316624
_cell_length_c   12.71507329
_cell_angle_alpha   119.99503997
_cell_angle_beta   90.00000000
_cell_angle_gamma   90.00000000
_symmetry_Int_Tables_number   1
_chemical_formula_structural   Dy5Zr3(Ni4As3)4
_chemical_formula_sum   'Dy5 Zr3 Ni16 As12'
_cell_volume   546.57569077
_cell_formula_units_Z   1
loop_
 _symmetry_equiv_pos_site_id
 _symmetry_equiv_pos_as_xyz
  1  'x, y, z'
loop_
 _atom_site_type_symbol
 _atom_site_label
 _atom_site_symmetry_multiplicity
 _atom_site_fract_x
 _atom_site_fract_y
 _atom_site_fract_z
 _atom_site_occupancy
  Dy  Dy0  1  0.50000000  0.99998700  0.18262100  1
  Dy  Dy1  1  0.50000000  0.18250200  0.00000000  1
  Dy  Dy2  1  0.50000000  0.81736600  0.81737900  1
  Dy  Dy3  1  0.00000000  0.33337400  0.66664000  1
  Dy  Dy4  1  0.00000000  0.66673400  0.33336000  1
  Zr  Zr0  1  0.00000000  0.99991700  0.56228300  1
  Zr  Zr1  1  0.00000000  0.56246500  0.00000000  1
  Zr  Zr2  1  0.00000000  0.43763400  0.43771700  1
  Ni  Ni0  1  0.50000000  0.99997500  0.72337500  1
  Ni  Ni1  1  0.50000000  0.72337600  0.00000000  1
  Ni  Ni2  1  0.50000000  0.27660000  0.27662500  1
  Ni  Ni3  1  0.00000000  0.19265700  0.37520800  1
  Ni  Ni4  1  0.00000000  0.18255500  0.80731400  1
  Ni  Ni5  1  0.00000000  0.62476900  0.81753800  1
  Ni  Ni6  1  0.00000000  0.81744900  0.62479200  1
  Ni  Ni7  1  0.00000000  0.37524100  0.19268600  1
  Ni  Ni8  1  0.00000000  0.80723100  0.18246200  1
  Ni  Ni9  1  0.50000000  0.12099700  0.48178600  1
  Ni  Ni10  1  0.50000000  0.36084500  0.87905300  1
  Ni  Ni11  1  0.50000000  0.51820300  0.63910800  1
  Ni  Ni12  1  0.50000000  0.63921100  0.51821400  1
  Ni  Ni13  1  0.50000000  0.48179200  0.12094700  1
  Ni  Ni14  1  0.50000000  0.87909500  0.36089200  1
  Ni  Ni15  1  0.00000000  0.99997300  0.00000000  1
  As  As0  1  0.00000000  0.00000400  0.82198300  1
  As  As1  1  0.00000000  0.82197900  0.00000000  1
  As  As2  1  0.00000000  0.17802100  0.17801700  1
  As  As3  1  0.50000000  0.30740600  0.47958300  1
  As  As4  1  0.50000000  0.17216200  0.69264400  1
  As  As5  1  0.50000000  0.52043400  0.82777400  1
  As  As6  1  0.50000000  0.82782200  0.52041700  1
  As  As7  1  0.50000000  0.47951800  0.30735600  1
  As  As8  1  0.50000000  0.69266000  0.17222600  1
  As  As9  1  0.00000000  0.99995200  0.35481200  1
  As  As10  1  0.00000000  0.35485000  0.00000000  1
  As  As11  1  0.00000000  0.64514000  0.64518800  1
loop_
_geom_bond_atom_site_label_1
_geom_bond_atom_site_label_2
_geom_bond_distance
_geom_bond_site_symmetry_2
Dy0 Ni15 3.033485 1_655
Dy0 Ni15 3.033485 1_555
Dy0 Ni2 3.097200 1_565
Dy0 Ni1 3.097401 1_555
Dy0 Ni3 3.132024 1_565
Dy0 Ni3 3.132024 1_665
Dy0 Ni8 3.132215 1_655
Dy0 Ni8 3.132215 1_555
Dy0 Ni14 3.314128 1_555
Dy0 Ni9 3.314408 1_565
Dy1 Ni15 3.032391 1_545
Dy1 Ni15 3.032391 1_645
Dy1 Ni0 3.097657 1_544
Dy1 Ni2 3.097657 1_555
Dy1 Ni7 3.132860 1_655
Dy1 Ni7 3.132860 1_555
Dy1 Ni4 3.132860 1_654
Dy1 Ni4 3.132860 1_554
Dy1 Ni13 3.315404 1_555
Dy1 Ni10 3.315404 1_554
Dy2 Ni15 3.033485 1_656
Dy2 Ni15 3.033485 1_556
Dy2 Ni0 3.097200 1_555
Dy2 Ni1 3.097401 1_556
Dy2 Ni6 3.132024 1_655
Dy2 Ni6 3.132024 1_555
Dy2 Ni5 3.132215 1_555
Dy2 Ni5 3.132215 1_655
Dy2 Ni11 3.314128 1_555
Dy2 Ni12 3.314408 1_555
Dy3 Ni11 3.205771 1_455
Dy3 Ni11 3.205771 1_555
Dy3 Ni9 3.206220 1_455
Dy3 Ni9 3.206220 1_555
Dy3 Ni10 3.206869 1_555
Dy3 Ni10 3.206869 1_455
Dy3 Ni5 3.209090 1_555
Dy3 Ni3 3.209915 1_555
Dy3 Ni4 3.210113 1_555
Dy4 Ni14 3.205771 1_555
Dy4 Ni14 3.205771 1_455
Dy4 Ni12 3.206220 1_555
Dy4 Ni12 3.206220 1_455
Dy4 Ni13 3.206869 1_455
Dy4 Ni13 3.206869 1_555
Dy4 Ni8 3.209090 1_555
Dy4 Ni6 3.209915 1_555
Dy4 Ni7 3.210113 1_555
Ni0 Zr0 2.829238 1_655
Ni0 Zr0 2.829238 1_555
Ni1 Zr1 2.827617 1_655
Ni1 Zr1 2.827617 1_555
Ni2 Zr2 2.829238 1_555
Ni2 Zr2 2.829238 1_655
Ni3 Zr2 2.802929 1_555
Ni4 Zr0 2.804482 1_545
Ni5 Zr1 2.801293 1_556
Ni6 Zr0 2.802929 1_555
Ni7 Zr2 2.804482 1_555
Ni8 Zr1 2.801293 1_555
Ni9 Zr0 2.966975 1_545
Ni9 Zr0 2.966975 1_645
Ni10 Zr1 2.967226 1_556
Ni10 Zr1 2.967226 1_656
Ni11 Zr2 2.965541 1_655
Ni11 Zr2 2.965541 1_555
Ni12 Zr2 2.966975 1_555
Ni12 Zr2 2.966975 1_655
Ni13 Zr1 2.967226 1_655
Ni13 Zr1 2.967226 1_555
Ni14 Zr0 2.965541 1_555
Ni14 Zr0 2.965541 1_655
As0 Ni15 2.263696 1_546
As0 Ni0 2.319946 1_545
As0 Ni0 2.319946 1_445
As0 Ni4 2.419445 1_555
As0 Ni6 2.419649 1_545
As0 Dy1 3.011009 1_456
As0 Dy1 3.011009 1_556
As0 Dy2 3.011537 1_445
As0 Dy2 3.011537 1_545
As1 Ni15 2.262867 1_555
As1 Ni1 2.319910 1_455
As1 Ni1 2.319910 1_555
As1 Ni5 2.419206 1_554
As1 Ni8 2.419206 1_555
As1 Dy0 3.011599 1_455
As1 Dy0 3.011599 1_555
As1 Dy2 3.011599 1_454
As1 Dy2 3.011599 1_554
As2 Ni15 2.263696 1_545
As2 Ni2 2.319946 1_555
As2 Ni2 2.319946 1_455
As2 Ni7 2.419445 1_555
As2 Ni3 2.419649 1_555
As2 Dy1 3.011010 1_455
As2 Dy1 3.011010 1_555
As2 Dy0 3.011537 1_445
As2 Dy0 3.011537 1_545
As3 Ni9 2.383976 1_555
As3 Ni3 2.400888 1_555
As3 Ni3 2.400888 1_655
As3 Ni2 2.408834 1_555
As3 Ni11 2.420977 1_555
As3 Zr2 2.777804 1_655
As3 Zr2 2.777804 1_555
As3 Dy3 2.965041 1_655
As3 Dy3 2.965041 1_555
As4 Ni10 2.384788 1_555
As4 Ni4 2.400269 1_655
As4 Ni4 2.400269 1_555
As4 Ni0 2.408282 1_545
As4 Ni9 2.422308 1_555
As4 Zr0 2.779219 1_545
As4 Zr0 2.779219 1_645
As4 Dy3 2.966137 1_555
As4 Dy3 2.966137 1_655
As5 Ni11 2.384849 1_555
As5 Ni5 2.399904 1_555
As5 Ni5 2.399904 1_655
As5 Ni1 2.408944 1_556
As5 Ni10 2.421601 1_555
As5 Zr1 2.778785 1_656
As5 Zr1 2.778785 1_556
As5 Dy3 2.965151 1_655
As5 Dy3 2.965151 1_555
As6 Ni12 2.383963 1_555
As6 Ni6 2.400884 1_655
As6 Ni6 2.400884 1_555
As6 Ni0 2.408839 1_555
As6 Ni14 2.420986 1_555
As6 Zr0 2.777813 1_555
As6 Zr0 2.777813 1_655
As6 Dy4 2.965037 1_655
As6 Dy4 2.965037 1_555
As7 Ni13 2.384788 1_555
As7 Ni7 2.400269 1_555
As7 Ni7 2.400269 1_655
As7 Ni2 2.408282 1_555
As7 Ni12 2.422308 1_555
As7 Zr2 2.779219 1_555
As7 Zr2 2.779219 1_655
As7 Dy4 2.966137 1_555
As7 Dy4 2.966137 1_655
As8 Ni14 2.384849 1_555
As8 Ni8 2.399904 1_555
As8 Ni8 2.399904 1_655
As8 Ni1 2.408944 1_555
As8 Ni13 2.421601 1_555
As8 Zr1 2.778785 1_655
As8 Zr1 2.778785 1_555
As8 Dy4 2.965151 1_655
As8 Dy4 2.965151 1_555
As9 Ni3 2.331087 1_565
As9 Ni8 2.331726 1_555
As9 Ni14 2.509198 1_555
As9 Ni14 2.509198 1_455
As9 Ni9 2.510207 1_465
As9 Ni9 2.510207 1_565
As9 Zr0 2.638231 1_555
As9 Dy0 2.933448 1_555
As9 Dy0 2.933448 1_455
As10 Ni4 2.331255 1_554
As10 Ni7 2.331255 1_555
As10 Ni13 2.509693 1_455
As10 Ni13 2.509693 1_555
As10 Ni10 2.509693 1_454
As10 Ni10 2.509693 1_554
As10 Zr1 2.639444 1_555
As10 Dy1 2.934527 1_555
As10 Dy1 2.934527 1_455
As11 Ni6 2.331087 1_555
As11 Ni5 2.331726 1_555
As11 Ni11 2.509198 1_555
As11 Ni11 2.509198 1_455
As11 Ni12 2.510207 1_555
As11 Ni12 2.510207 1_455
As11 Zr2 2.638231 1_555
As11 Dy2 2.933448 1_555
As11 Dy2 2.933448 1_455
