# generated using pymatgen
data_Na2Y3Te4(ClO4)3
_symmetry_space_group_name_H-M   'P 1'
_cell_length_a   12.39251600
_cell_length_b   12.39251600
_cell_length_c   16.82496449
_cell_angle_alpha   47.50573819
_cell_angle_beta   47.50573819
_cell_angle_gamma   26.09571142
_symmetry_Int_Tables_number   1
_chemical_formula_structural   Na2Y3Te4(ClO4)3
_chemical_formula_sum   'Na4 Y6 Te8 Cl6 O24'
_cell_volume   818.94386476
_cell_formula_units_Z   2
loop_
 _symmetry_equiv_pos_site_id
 _symmetry_equiv_pos_as_xyz
  1  'x, y, z'
loop_
 _atom_site_type_symbol
 _atom_site_label
 _atom_site_symmetry_multiplicity
 _atom_site_fract_x
 _atom_site_fract_y
 _atom_site_fract_z
 _atom_site_occupancy
  Na  Na0  1  0.10837100  0.56037000  0.57411700  1
  Na  Na1  1  0.43963000  0.89162900  0.92588300  1
  Na  Na2  1  0.89162900  0.43963000  0.42588300  1
  Na  Na3  1  0.56037000  0.10837100  0.07411700  1
  Y  Y0  1  0.24937900  0.75062100  0.25000000  1
  Y  Y1  1  0.75062100  0.24937900  0.75000000  1
  Y  Y2  1  0.24955400  0.74835200  0.58593400  1
  Y  Y3  1  0.25164800  0.75044600  0.91406600  1
  Y  Y4  1  0.75044600  0.25164800  0.41406600  1
  Y  Y5  1  0.74835200  0.24955400  0.08593400  1
  Te  Te0  1  0.66529700  0.06393600  0.40355200  1
  Te  Te1  1  0.93606400  0.33470300  0.09644800  1
  Te  Te2  1  0.33470300  0.93606400  0.59644800  1
  Te  Te3  1  0.06393600  0.66529700  0.90355200  1
  Te  Te4  1  0.16263100  0.57207700  0.19667800  1
  Te  Te5  1  0.42792300  0.83736900  0.30332200  1
  Te  Te6  1  0.83736900  0.42792300  0.80332200  1
  Te  Te7  1  0.57207700  0.16263100  0.69667800  1
  Cl  Cl0  1  0.00000000  0.50000000  0.50000000  1
  Cl  Cl1  1  0.50000000  0.00000000  0.00000000  1
  Cl  Cl2  1  0.00340900  0.49694300  0.16872000  1
  Cl  Cl3  1  0.50305700  0.99659100  0.33128000  1
  Cl  Cl4  1  0.99659100  0.50305700  0.83128000  1
  Cl  Cl5  1  0.49694400  0.00340900  0.66872000  1
  O  O0  1  0.47822100  0.37548300  0.38477400  1
  O  O1  1  0.62451700  0.52177900  0.11522600  1
  O  O2  1  0.52177900  0.62451700  0.61522600  1
  O  O3  1  0.37548300  0.47822100  0.88477400  1
  O  O4  1  0.00335800  0.85407400  0.75703600  1
  O  O5  1  0.14592600  0.99664200  0.74296400  1
  O  O6  1  0.99664200  0.14592600  0.24296400  1
  O  O7  1  0.85407400  0.00335800  0.25703600  1
  O  O8  1  0.93076800  0.89690600  0.42661100  1
  O  O9  1  0.10309400  0.06923200  0.07338900  1
  O  O10  1  0.06923200  0.10309400  0.57338900  1
  O  O11  1  0.89690600  0.93076800  0.92661100  1
  O  O12  1  0.98313500  0.87848300  0.09043600  1
  O  O13  1  0.12151700  0.01686500  0.40956400  1
  O  O14  1  0.01686500  0.12151700  0.90956400  1
  O  O15  1  0.87848300  0.98313500  0.59043600  1
  O  O16  1  0.35322800  0.51378100  0.21104000  1
  O  O17  1  0.48621900  0.64677200  0.28896000  1
  O  O18  1  0.64677200  0.48621900  0.78896000  1
  O  O19  1  0.51378100  0.35322800  0.71104000  1
  O  O20  1  0.40000100  0.43118900  0.57671500  1
  O  O21  1  0.56881100  0.59999900  0.92328500  1
  O  O22  1  0.59999900  0.56881100  0.42328500  1
  O  O23  1  0.43118900  0.40000100  0.07671500  1
loop_
_geom_bond_atom_site_label_1
_geom_bond_atom_site_label_2
_geom_bond_distance
_geom_bond_site_symmetry_2
Na0 O8 2.303471 1_455
Na0 O20 2.313686 1_555
Na0 O0 2.770967 1_555
Na1 O9 2.303471 1_566
Na1 O21 2.313686 1_555
Na1 O1 2.770967 1_556
Na2 O10 2.303471 1_655
Na2 O22 2.313686 1_555
Na2 O2 2.770967 1_555
Na3 O11 2.303471 1_544
Na3 O23 2.313686 1_555
Na3 O3 2.770967 1_554
Cl0 Na2 3.040732 1_455
Cl0 Na0 3.040732 1_555
Cl1 Na1 3.040732 1_544
Cl1 Na3 3.040732 1_555
Cl2 Na3 3.029332 1_555
Cl2 Na2 3.265264 1_455
Cl2 Na3 3.298825 1_465
Cl3 Na2 3.029332 1_555
Cl3 Na3 3.265264 1_565
Cl3 Na2 3.298825 1_465
Cl4 Na1 3.029332 1_555
Cl4 Na0 3.265264 1_655
Cl4 Na1 3.298825 1_645
Cl5 Na0 3.029331 1_555
Cl5 Na1 3.265261 1_545
Cl5 Na0 3.298820 1_645
O0 Te0 1.909349 1_555
O0 Y0 2.358499 1_555
O0 Y4 2.429912 1_555
O1 Te1 1.909349 1_555
O1 Y0 2.358499 1_555
O1 Y5 2.429912 1_555
O2 Te2 1.909349 1_555
O2 Y1 2.358499 1_555
O2 Y2 2.429912 1_555
O3 Te3 1.909349 1_555
O3 Y1 2.358499 1_555
O3 Y3 2.429912 1_555
O4 Te3 1.915140 1_555
O4 Y2 2.315640 1_555
O4 Y1 2.445634 1_465
O5 Te2 1.915140 1_555
O5 Y3 2.315640 1_555
O5 Y1 2.445634 1_465
O6 Te1 1.915140 1_555
O6 Y4 2.315640 1_555
O6 Y0 2.445634 1_645
O7 Te0 1.915140 1_555
O7 Y5 2.315640 1_555
O7 Y0 2.445634 1_645
O8 Te0 1.914823 1_565
O8 Y4 2.470453 1_565
O8 Y0 2.505248 1_655
O9 Te1 1.914823 1_455
O9 Y5 2.470453 1_455
O9 Y0 2.505248 1_545
O10 Te2 1.914823 1_545
O10 Y2 2.470453 1_545
O10 Y1 2.505248 1_455
O11 Te3 1.914823 1_655
O11 Y3 2.470453 1_655
O11 Y1 2.505248 1_565
O12 Te4 1.895418 1_655
O12 Y5 2.326644 1_565
O12 Y3 2.435851 1_654
O13 Te5 1.895418 1_545
O13 Y4 2.326644 1_455
O13 Y2 2.435851 1_545
O14 Te6 1.895418 1_455
O14 Y3 2.326644 1_545
O14 Y5 2.435851 1_456
O15 Te7 1.895418 1_565
O15 Y2 2.326644 1_655
O15 Y4 2.435851 1_565
O16 Te4 1.905160 1_555
O16 Y0 2.318523 1_555
O16 Y5 2.391199 1_555
O17 Te5 1.905160 1_555
O17 Y0 2.318523 1_555
O17 Y4 2.391199 1_555
O18 Te6 1.905160 1_555
O18 Y1 2.318523 1_555
O18 Y3 2.391199 1_555
O19 Te7 1.905160 1_555
O19 Y1 2.318523 1_555
O19 Y2 2.391199 1_555
O20 Te7 1.920922 1_555
O20 Y4 2.472663 1_555
O20 Y2 2.493896 1_555
O21 Te6 1.920922 1_555
O21 Y5 2.472663 1_556
O21 Y3 2.493896 1_555
O22 Te5 1.920922 1_555
O22 Y2 2.472663 1_555
O22 Y4 2.493896 1_555
O23 Te4 1.920922 1_555
O23 Y3 2.472663 1_554
O23 Y5 2.493896 1_555
