# generated using pymatgen
data_Rb2SbF5
_symmetry_space_group_name_H-M   'P 1'
_cell_length_a   6.39212600
_cell_length_b   8.55599100
_cell_length_c   12.53693400
_cell_angle_alpha   90.00000000
_cell_angle_beta   90.00000000
_cell_angle_gamma   90.00000000
_symmetry_Int_Tables_number   1
_chemical_formula_structural   Rb2SbF5
_chemical_formula_sum   'Rb8 Sb4 F20'
_cell_volume   685.65711297
_cell_formula_units_Z   4
loop_
 _symmetry_equiv_pos_site_id
 _symmetry_equiv_pos_as_xyz
  1  'x, y, z'
loop_
 _atom_site_type_symbol
 _atom_site_label
 _atom_site_symmetry_multiplicity
 _atom_site_fract_x
 _atom_site_fract_y
 _atom_site_fract_z
 _atom_site_occupancy
  Rb  Rb0  1  0.75000000  0.48953400  0.27231100  1
  Rb  Rb1  1  0.25000000  0.51046600  0.72768900  1
  Rb  Rb2  1  0.25000000  0.01046600  0.77231100  1
  Rb  Rb3  1  0.75000000  0.98953400  0.22768900  1
  Rb  Rb4  1  0.75000000  0.84740000  0.57492600  1
  Rb  Rb5  1  0.25000000  0.15260000  0.42507400  1
  Rb  Rb6  1  0.25000000  0.65260000  0.07492600  1
  Rb  Rb7  1  0.75000000  0.34740000  0.92507400  1
  Sb  Sb0  1  0.75000000  0.82024500  0.93649900  1
  Sb  Sb1  1  0.25000000  0.17975500  0.06350100  1
  Sb  Sb2  1  0.25000000  0.67975500  0.43649900  1
  Sb  Sb3  1  0.75000000  0.32024500  0.56350100  1
  F  F0  1  0.75000000  0.69396800  0.09935800  1
  F  F1  1  0.25000000  0.30603200  0.90064200  1
  F  F2  1  0.25000000  0.80603200  0.59935800  1
  F  F3  1  0.75000000  0.19396800  0.40064200  1
  F  F4  1  0.98609600  0.66986400  0.88297900  1
  F  F5  1  0.01390400  0.33013600  0.11702100  1
  F  F6  1  0.01390400  0.83013600  0.38297900  1
  F  F7  1  0.48609600  0.33013600  0.11702100  1
  F  F8  1  0.98609600  0.16986400  0.61702100  1
  F  F9  1  0.51390400  0.66986400  0.88297900  1
  F  F10  1  0.51390400  0.16986400  0.61702100  1
  F  F11  1  0.48609600  0.83013600  0.38297900  1
  F  F12  1  0.00000000  0.00000000  0.00000000  1
  F  F13  1  0.00000000  0.50000000  0.50000000  1
  F  F14  1  0.50000000  0.00000000  0.00000000  1
  F  F15  1  0.50000000  0.50000000  0.50000000  1
  F  F16  1  0.75000000  0.93338600  0.78750900  1
  F  F17  1  0.25000000  0.06661400  0.21249100  1
  F  F18  1  0.25000000  0.56661400  0.28750900  1
  F  F19  1  0.75000000  0.43338600  0.71249100  1
loop_
_geom_bond_atom_site_label_1
_geom_bond_atom_site_label_2
_geom_bond_distance
_geom_bond_site_symmetry_2
F0 Sb0 2.309994 1_554
F0 Rb0 2.785857 1_555
F0 Rb3 2.997269 1_555
F0 Rb6 3.230157 1_655
F0 Rb6 3.230157 1_555
F1 Sb1 2.309994 1_556
F1 Rb1 2.785857 1_555
F1 Rb2 2.997269 1_555
F1 Rb7 3.230157 1_455
F1 Rb7 3.230157 1_555
F2 Sb2 2.309994 1_555
F2 Rb2 2.785857 1_565
F2 Rb1 2.997269 1_555
F2 Rb4 3.230157 1_455
F2 Rb4 3.230157 1_555
F3 Sb3 2.309994 1_555
F3 Rb3 2.785857 1_545
F3 Rb0 2.997269 1_555
F3 Rb5 3.230157 1_655
F3 Rb5 3.230157 1_555
F4 Sb0 2.093621 1_555
F4 Rb1 2.914772 1_655
F4 Rb6 2.942510 1_656
F4 Rb7 3.188752 1_555
F5 Sb1 2.093621 1_555
F5 Rb0 2.914772 1_455
F5 Rb7 2.942510 1_454
F5 Rb6 3.188752 1_555
F6 Sb2 2.093621 1_555
F6 Rb3 2.914772 1_455
F6 Rb4 2.942510 1_455
F6 Rb5 3.188752 1_565
F7 Sb1 2.093621 1_555
F7 Rb0 2.914772 1_555
F7 Rb7 2.942510 1_554
F7 Rb6 3.188752 1_555
F8 Sb3 2.093621 1_555
F8 Rb2 2.914772 1_655
F8 Rb5 2.942510 1_655
F8 Rb4 3.188752 1_545
F9 Sb0 2.093621 1_555
F9 Rb1 2.914772 1_555
F9 Rb6 2.942510 1_556
F9 Rb7 3.188752 1_555
F10 Sb3 2.093621 1_555
F10 Rb2 2.914772 1_555
F10 Rb5 2.942510 1_555
F10 Rb4 3.188752 1_545
F11 Sb2 2.093621 1_555
F11 Rb3 2.914772 1_555
F11 Rb4 2.942510 1_555
F11 Rb5 3.188752 1_565
F12 Sb1 2.356455 1_555
F12 Sb0 2.356455 1_444
F12 Rb3 3.272617 1_445
F12 Rb2 3.272617 1_554
F13 Sb2 2.356455 1_555
F13 Sb3 2.356455 1_455
F13 Rb0 3.272617 1_455
F13 Rb1 3.272617 1_555
F14 Sb1 2.356455 1_555
F14 Sb0 2.356455 1_544
F14 Rb3 3.272617 1_545
F14 Rb2 3.272617 1_554
F15 Sb2 2.356455 1_555
F15 Sb3 2.356455 1_555
F15 Rb0 3.272617 1_555
F15 Rb1 3.272617 1_555
F16 Sb0 2.103819 1_555
F16 Rb4 2.764817 1_555
F16 Rb2 3.268954 1_565
F16 Rb2 3.268954 1_665
F17 Sb1 2.103819 1_555
F17 Rb5 2.764817 1_555
F17 Rb3 3.268954 1_445
F17 Rb3 3.268954 1_545
F18 Sb2 2.103819 1_555
F18 Rb6 2.764817 1_555
F18 Rb0 3.268954 1_555
F18 Rb0 3.268954 1_455
F19 Sb3 2.103819 1_555
F19 Rb7 2.764817 1_555
F19 Rb1 3.268954 1_655
F19 Rb1 3.268954 1_555
