# generated using pymatgen
data_Ba3BiSb
_symmetry_space_group_name_H-M   'P 1'
_cell_length_a   6.53763100
_cell_length_b   6.53763100
_cell_length_c   6.53763100
_cell_angle_alpha   90.00000000
_cell_angle_beta   90.00000000
_cell_angle_gamma   90.00000000
_symmetry_Int_Tables_number   1
_chemical_formula_structural   Ba3BiSb
_chemical_formula_sum   'Ba3 Bi1 Sb1'
_cell_volume   279.42239634
_cell_formula_units_Z   1
loop_
 _symmetry_equiv_pos_site_id
 _symmetry_equiv_pos_as_xyz
  1  'x, y, z'
loop_
 _atom_site_type_symbol
 _atom_site_label
 _atom_site_symmetry_multiplicity
 _atom_site_fract_x
 _atom_site_fract_y
 _atom_site_fract_z
 _atom_site_occupancy
  Ba  Ba0  1  0.00000000  0.50000000  0.50000000  1
  Ba  Ba1  1  0.50000000  0.00000000  0.50000000  1
  Ba  Ba2  1  0.50000000  0.50000000  0.00000000  1
  Bi  Bi0  1  0.00000000  0.00000000  0.00000000  1
  Sb  Sb0  1  0.50000000  0.50000000  0.50000000  1
loop_
_geom_bond_atom_site_label_1
_geom_bond_atom_site_label_2
_geom_bond_distance
_geom_bond_site_symmetry_2
Ba0 Sb0 3.268816 1_455
Ba0 Sb0 3.268816 1_555
Ba1 Sb0 3.268816 1_555
Ba1 Sb0 3.268816 1_545
Ba2 Sb0 3.268816 1_554
Ba2 Sb0 3.268816 1_555
