# generated using pymatgen
data_Y4TiSn3O14
_symmetry_space_group_name_H-M   'P 1'
_cell_length_a   7.39578420
_cell_length_b   7.39578420
_cell_length_c   7.39578412
_cell_angle_alpha   59.66842964
_cell_angle_beta   59.66842964
_cell_angle_gamma   59.66843002
_symmetry_Int_Tables_number   1
_chemical_formula_structural   Y4TiSn3O14
_chemical_formula_sum   'Y4 Ti1 Sn3 O14'
_cell_volume   283.89238557
_cell_formula_units_Z   1
loop_
 _symmetry_equiv_pos_site_id
 _symmetry_equiv_pos_as_xyz
  1  'x, y, z'
loop_
 _atom_site_type_symbol
 _atom_site_label
 _atom_site_symmetry_multiplicity
 _atom_site_fract_x
 _atom_site_fract_y
 _atom_site_fract_z
 _atom_site_occupancy
  Y  Y0  1  0.50000000  0.50000000  0.50000000  1
  Y  Y1  1  0.50000000  0.00000000  0.50000000  1
  Y  Y2  1  0.00000000  0.50000000  0.50000000  1
  Y  Y3  1  0.50000000  0.50000000  0.00000000  1
  Ti  Ti0  1  0.00000000  0.00000000  0.00000000  1
  Sn  Sn0  1  0.00000000  0.50000000  0.00000000  1
  Sn  Sn1  1  0.50000000  0.00000000  0.00000000  1
  Sn  Sn2  1  0.00000000  0.00000000  0.50000000  1
  O  O0  1  0.91950900  0.91950900  0.32439700  1
  O  O1  1  0.32439700  0.91950900  0.91950900  1
  O  O2  1  0.91950900  0.32439700  0.91950900  1
  O  O3  1  0.34203300  0.34203300  0.91178300  1
  O  O4  1  0.91178300  0.34203300  0.34203300  1
  O  O5  1  0.34203300  0.91178300  0.34203300  1
  O  O6  1  0.08049100  0.08049100  0.67560300  1
  O  O7  1  0.67560300  0.08049100  0.08049100  1
  O  O8  1  0.08049100  0.67560300  0.08049100  1
  O  O9  1  0.65796700  0.65796700  0.08821700  1
  O  O10  1  0.08821700  0.65796700  0.65796700  1
  O  O11  1  0.65796700  0.08821700  0.65796700  1
  O  O12  1  0.62592900  0.62592900  0.62592900  1
  O  O13  1  0.37407100  0.37407100  0.37407100  1
loop_
_geom_bond_atom_site_label_1
_geom_bond_atom_site_label_2
_geom_bond_distance
_geom_bond_site_symmetry_2
O0 Ti0 1.984359 1_665
O0 Sn2 2.077273 1_665
O0 Y2 2.552029 1_655
O0 Y1 2.552029 1_565
O1 Ti0 1.984359 1_566
O1 Sn1 2.077273 1_566
O1 Y1 2.552029 1_565
O1 Y3 2.552029 1_556
O2 Ti0 1.984359 1_656
O2 Sn0 2.077273 1_656
O2 Y2 2.552029 1_655
O2 Y3 2.552029 1_556
O3 Sn1 2.075457 1_556
O3 Sn0 2.075457 1_556
O3 Y3 2.464498 1_556
O3 Y0 2.489180 1_555
O4 Sn0 2.075457 1_655
O4 Sn2 2.075457 1_655
O4 Y2 2.464498 1_655
O4 Y0 2.489180 1_555
O5 Sn1 2.075457 1_565
O5 Sn2 2.075457 1_565
O5 Y1 2.464498 1_565
O5 Y0 2.489180 1_555
O6 Ti0 1.984359 1_556
O6 Sn2 2.077273 1_555
O6 Y1 2.552029 1_555
O6 Y2 2.552029 1_555
O7 Ti0 1.984359 1_655
O7 Sn1 2.077273 1_555
O7 Y1 2.552029 1_555
O7 Y3 2.552029 1_555
O8 Ti0 1.984359 1_565
O8 Sn0 2.077273 1_555
O8 Y2 2.552029 1_555
O8 Y3 2.552029 1_555
O9 Sn0 2.075457 1_655
O9 Sn1 2.075457 1_565
O9 Y3 2.464498 1_555
O9 Y0 2.489180 1_555
O10 Sn0 2.075457 1_556
O10 Sn2 2.075457 1_565
O10 Y2 2.464498 1_555
O10 Y0 2.489180 1_555
O11 Sn1 2.075457 1_556
O11 Sn2 2.075457 1_655
O11 Y1 2.464498 1_555
O11 Y0 2.489180 1_555
O12 Y3 2.249420 1_556
O12 Y1 2.249420 1_565
O12 Y2 2.249420 1_655
O12 Y0 2.287017 1_555
O13 Y3 2.249420 1_555
O13 Y1 2.249420 1_555
O13 Y2 2.249420 1_555
O13 Y0 2.287017 1_555
