# generated using pymatgen
data_Mn2VHO5
_symmetry_space_group_name_H-M   'P 1'
_cell_length_a   6.23336900
_cell_length_b   9.29908900
_cell_length_c   15.09329200
_cell_angle_alpha   90.00000000
_cell_angle_beta   90.00000000
_cell_angle_gamma   90.00000000
_symmetry_Int_Tables_number   1
_chemical_formula_structural   Mn2VHO5
_chemical_formula_sum   'Mn16 V8 H8 O40'
_cell_volume   874.87743493
_cell_formula_units_Z   8
loop_
 _symmetry_equiv_pos_site_id
 _symmetry_equiv_pos_as_xyz
  1  'x, y, z'
loop_
 _atom_site_type_symbol
 _atom_site_label
 _atom_site_symmetry_multiplicity
 _atom_site_fract_x
 _atom_site_fract_y
 _atom_site_fract_z
 _atom_site_occupancy
  Mn  Mn0  1  0.25000000  0.41804400  0.57140600  1
  Mn  Mn1  1  0.25000000  0.08195600  0.07140600  1
  Mn  Mn2  1  0.75000000  0.58195600  0.42859400  1
  Mn  Mn3  1  0.75000000  0.91804400  0.92859400  1
  Mn  Mn4  1  0.25000000  0.34091100  0.78854500  1
  Mn  Mn5  1  0.25000000  0.15908900  0.28854500  1
  Mn  Mn6  1  0.75000000  0.65908900  0.21145500  1
  Mn  Mn7  1  0.75000000  0.84091100  0.71145500  1
  Mn  Mn8  1  0.00272800  0.62374100  0.86228800  1
  Mn  Mn9  1  0.49727200  0.87625900  0.36228800  1
  Mn  Mn10  1  0.50272800  0.37625900  0.13771200  1
  Mn  Mn11  1  0.99727200  0.12374100  0.63771200  1
  Mn  Mn12  1  0.99727200  0.37625900  0.13771200  1
  Mn  Mn13  1  0.50272800  0.12374100  0.63771200  1
  Mn  Mn14  1  0.49727200  0.62374100  0.86228800  1
  Mn  Mn15  1  0.00272800  0.87625900  0.36228800  1
  V  V0  1  0.75000000  0.31307400  0.92543500  1
  V  V1  1  0.75000000  0.18692600  0.42543500  1
  V  V2  1  0.25000000  0.68692600  0.07456500  1
  V  V3  1  0.25000000  0.81307400  0.57456500  1
  V  V4  1  0.75000000  0.47248500  0.66576200  1
  V  V5  1  0.75000000  0.02751500  0.16576200  1
  V  V6  1  0.25000000  0.52751500  0.33423800  1
  V  V7  1  0.25000000  0.97248500  0.83423800  1
  H  H0  1  0.25000000  0.60860200  0.71450000  1
  H  H1  1  0.25000000  0.89139800  0.21450000  1
  H  H2  1  0.75000000  0.39139800  0.28550000  1
  H  H3  1  0.75000000  0.10860200  0.78550000  1
  H  H4  1  0.25000000  0.15848700  0.49318600  1
  H  H5  1  0.25000000  0.34151300  0.99318600  1
  H  H6  1  0.75000000  0.84151300  0.50681400  1
  H  H7  1  0.75000000  0.65848700  0.00681400  1
  O  O0  1  0.51653800  0.38877500  0.87855600  1
  O  O1  1  0.98346200  0.11122500  0.37855600  1
  O  O2  1  0.01653800  0.61122500  0.12144400  1
  O  O3  1  0.48346200  0.88877500  0.62144400  1
  O  O4  1  0.48346200  0.61122500  0.12144400  1
  O  O5  1  0.01653800  0.88877500  0.62144400  1
  O  O6  1  0.98346200  0.38877500  0.87855600  1
  O  O7  1  0.51653800  0.11122500  0.37855600  1
  O  O8  1  0.25000000  0.63169700  0.59699500  1
  O  O9  1  0.25000000  0.86830300  0.09699500  1
  O  O10  1  0.75000000  0.36830300  0.40300500  1
  O  O11  1  0.75000000  0.13169700  0.90300500  1
  O  O12  1  0.25000000  0.65396700  0.96039300  1
  O  O13  1  0.25000000  0.84603300  0.46039300  1
  O  O14  1  0.75000000  0.34603300  0.03960700  1
  O  O15  1  0.75000000  0.15396700  0.53960700  1
  O  O16  1  0.98815600  0.36557200  0.67082300  1
  O  O17  1  0.51184400  0.13442800  0.17082300  1
  O  O18  1  0.48815600  0.63442800  0.32917700  1
  O  O19  1  0.01184400  0.86557200  0.82917700  1
  O  O20  1  0.01184400  0.63442800  0.32917700  1
  O  O21  1  0.48815600  0.86557200  0.82917700  1
  O  O22  1  0.51184400  0.36557200  0.67082300  1
  O  O23  1  0.98815600  0.13442800  0.17082300  1
  O  O24  1  0.25000000  0.44604600  0.43463100  1
  O  O25  1  0.25000000  0.05395400  0.93463100  1
  O  O26  1  0.75000000  0.55395400  0.56536900  1
  O  O27  1  0.75000000  0.94604600  0.06536900  1
  O  O28  1  0.25000000  0.11447500  0.75172800  1
  O  O29  1  0.25000000  0.38552500  0.25172800  1
  O  O30  1  0.75000000  0.88552500  0.24827200  1
  O  O31  1  0.75000000  0.61447500  0.74827200  1
  O  O32  1  0.25000000  0.57140400  0.77593600  1
  O  O33  1  0.25000000  0.92859600  0.27593600  1
  O  O34  1  0.75000000  0.42859600  0.22406400  1
  O  O35  1  0.75000000  0.07140400  0.72406400  1
  O  O36  1  0.25000000  0.19148300  0.55498000  1
  O  O37  1  0.25000000  0.30851700  0.05498000  1
  O  O38  1  0.75000000  0.80851700  0.44502000  1
  O  O39  1  0.75000000  0.69148300  0.94502000  1
loop_
_geom_bond_atom_site_label_1
_geom_bond_atom_site_label_2
_geom_bond_distance
_geom_bond_site_symmetry_2
Mn0 O8 2.023970 1_555
Mn0 O24 2.080743 1_555
Mn0 O36 2.121348 1_555
Mn0 O22 2.270167 1_555
Mn0 O16 2.270167 1_455
Mn1 O9 2.023970 1_545
Mn1 O25 2.080743 1_554
Mn1 O37 2.121348 1_555
Mn1 O17 2.270167 1_555
Mn1 O23 2.270167 1_455
Mn2 O10 2.023970 1_555
Mn2 O26 2.080743 1_555
Mn2 O38 2.121348 1_555
Mn2 O20 2.270167 1_655
Mn2 O18 2.270167 1_555
Mn3 O11 2.023970 1_565
Mn3 O27 2.080743 1_556
Mn3 O39 2.121348 1_555
Mn3 O19 2.270167 1_655
Mn3 O21 2.270167 1_555
Mn4 O32 2.151807 1_555
Mn4 O28 2.177739 1_555
Mn4 O0 2.191836 1_555
Mn4 O6 2.191836 1_455
Mn4 O22 2.423558 1_555
Mn4 O16 2.423558 1_455
Mn5 O33 2.151807 1_545
Mn5 O29 2.177739 1_555
Mn5 O7 2.191836 1_555
Mn5 O1 2.191836 1_455
Mn5 O17 2.423558 1_555
Mn5 O23 2.423558 1_455
Mn6 O34 2.151807 1_555
Mn6 O30 2.177739 1_555
Mn6 O2 2.191836 1_655
Mn6 O4 2.191836 1_555
Mn6 O20 2.423558 1_655
Mn6 O18 2.423558 1_555
Mn7 O35 2.151807 1_565
Mn7 O31 2.177739 1_555
Mn7 O5 2.191836 1_655
Mn7 O3 2.191836 1_555
Mn7 O19 2.423558 1_655
Mn7 O21 2.423558 1_555
Mn8 O32 2.076360 1_555
Mn8 O39 2.106606 1_455
Mn8 O12 2.155755 1_555
Mn8 O6 2.202000 1_455
Mn8 O19 2.304370 1_555
Mn8 O31 2.334643 1_455
Mn9 O33 2.076360 1_555
Mn9 O38 2.106606 1_555
Mn9 O13 2.155755 1_555
Mn9 O7 2.202000 1_565
Mn9 O18 2.304370 1_555
Mn9 O30 2.334643 1_555
Mn10 O34 2.076360 1_555
Mn10 O37 2.106606 1_555
Mn10 O14 2.155755 1_555
Mn10 O4 2.202000 1_555
Mn10 O17 2.304370 1_555
Mn10 O29 2.334643 1_555
Mn11 O35 2.076360 1_555
Mn11 O36 2.106606 1_655
Mn11 O15 2.155755 1_555
Mn11 O5 2.202000 1_645
Mn11 O16 2.304370 1_555
Mn11 O28 2.334643 1_655
Mn12 O34 2.076360 1_555
Mn12 O37 2.106606 1_655
Mn12 O14 2.155755 1_555
Mn12 O2 2.202000 1_655
Mn12 O23 2.304370 1_555
Mn12 O29 2.334643 1_655
Mn13 O35 2.076360 1_555
Mn13 O36 2.106606 1_555
Mn13 O15 2.155755 1_555
Mn13 O3 2.202000 1_545
Mn13 O22 2.304370 1_555
Mn13 O28 2.334643 1_555
Mn14 O32 2.076360 1_555
Mn14 O39 2.106606 1_555
Mn14 O12 2.155755 1_555
Mn14 O0 2.202000 1_555
Mn14 O21 2.304370 1_555
Mn14 O31 2.334643 1_555
Mn15 O33 2.076360 1_555
Mn15 O38 2.106606 1_455
Mn15 O13 2.155755 1_555
Mn15 O1 2.202000 1_465
Mn15 O20 2.304370 1_555
Mn15 O30 2.334643 1_455
H0 O32 0.989689 1_555
H1 O33 0.989689 1_555
H2 O34 0.989689 1_555
H3 O35 0.989689 1_555
H4 O36 0.981850 1_555
H5 O37 0.981850 1_556
H6 O38 0.981850 1_555
H7 O39 0.981850 1_554
O0 V0 1.764639 1_555
O1 V1 1.764639 1_555
O2 V2 1.764639 1_555
O3 V3 1.764639 1_555
O4 V2 1.764639 1_555
O5 V3 1.764639 1_555
O6 V0 1.764639 1_555
O7 V1 1.764639 1_555
O8 V3 1.720282 1_555
O9 V2 1.720282 1_555
O10 V1 1.720282 1_555
O11 V0 1.720282 1_555
O12 V2 1.750275 1_556
O13 V3 1.750275 1_555
O14 V0 1.750275 1_554
O15 V1 1.750275 1_555
O16 V4 1.788306 1_555
O17 V5 1.788306 1_555
O18 V6 1.788306 1_555
O19 V7 1.788306 1_555
O20 V6 1.788306 1_555
O21 V7 1.788306 1_555
O22 V4 1.788306 1_555
O23 V5 1.788306 1_555
O24 V6 1.694094 1_555
O25 V7 1.694094 1_545
O26 V4 1.694094 1_555
O27 V5 1.694094 1_565
O28 V7 1.815017 1_545
O29 V6 1.815017 1_555
O30 V5 1.815017 1_565
O31 V4 1.815017 1_555
