# generated using pymatgen
data_KAg3Te2
_symmetry_space_group_name_H-M   'P 1'
_cell_length_a   9.03027162
_cell_length_b   9.03027162
_cell_length_c   9.19732498
_cell_angle_alpha   66.97471718
_cell_angle_beta   66.97471718
_cell_angle_gamma   29.33437416
_symmetry_Int_Tables_number   1
_chemical_formula_structural   KAg3Te2
_chemical_formula_sum   'K2 Ag6 Te4'
_cell_volume   336.05984016
_cell_formula_units_Z   2
loop_
 _symmetry_equiv_pos_site_id
 _symmetry_equiv_pos_as_xyz
  1  'x, y, z'
loop_
 _atom_site_type_symbol
 _atom_site_label
 _atom_site_symmetry_multiplicity
 _atom_site_fract_x
 _atom_site_fract_y
 _atom_site_fract_z
 _atom_site_occupancy
  K  K0  1  0.13396107  0.13396107  0.95062645  1
  K  K1  1  0.86603893  0.86603893  0.04937355  1
  Ag  Ag0  1  0.58754714  0.58754714  0.37311620  1
  Ag  Ag1  1  0.41245286  0.41245286  0.62688380  1
  Ag  Ag2  1  0.69162487  0.69162487  0.54378433  1
  Ag  Ag3  1  0.30837513  0.30837513  0.45621567  1
  Ag  Ag4  1  0.06305788  0.06305788  0.58794934  1
  Ag  Ag5  1  0.93694212  0.93694212  0.41205066  1
  Te  Te0  1  0.20502328  0.20502328  0.29123802  1
  Te  Te1  1  0.79497672  0.79497672  0.70876198  1
  Te  Te2  1  0.51841602  0.51841602  0.78136195  1
  Te  Te3  1  0.48158398  0.48158398  0.21863805  1
loop_
_geom_bond_atom_site_label_1
_geom_bond_atom_site_label_2
_geom_bond_distance
_geom_bond_site_symmetry_2
K0 Te1 3.609778 1_455
K0 Te1 3.609778 1_545
K0 Te3 3.617399 1_546
K0 Te3 3.617399 1_456
K0 Te2 3.777379 1_545
K0 Te2 3.777379 1_455
K0 Te0 3.807976 1_556
K1 Te0 3.609778 1_655
K1 Te0 3.609778 1_565
K1 Te2 3.617399 1_564
K1 Te2 3.617399 1_654
K1 Te3 3.777379 1_565
K1 Te3 3.777379 1_655
K1 Te1 3.807976 1_554
Ag0 Te3 2.751963 1_555
Ag0 Te0 2.959432 1_565
Ag0 Te0 2.959432 1_655
Ag1 Te2 2.751963 1_555
Ag1 Te1 2.959432 1_545
Ag1 Te1 2.959432 1_455
Ag2 Te1 2.789043 1_555
Ag2 Te2 2.930168 1_555
Ag2 Te0 3.199745 1_565
Ag2 Te0 3.199745 1_655
Ag3 Te0 2.789043 1_555
Ag3 Te3 2.930168 1_555
Ag3 Te1 3.199745 1_455
Ag3 Te1 3.199745 1_545
Ag4 Te2 2.806938 1_455
Ag4 Te2 2.806938 1_545
Ag4 Te0 2.850634 1_555
Ag5 Te3 2.806938 1_565
Ag5 Te3 2.806938 1_655
Ag5 Te1 2.850634 1_555
