# generated using pymatgen
data_VH10C2S2(O2F)6
_symmetry_space_group_name_H-M   'P 1'
_cell_length_a   9.91822100
_cell_length_b   7.99281500
_cell_length_c   10.52513674
_cell_angle_alpha   90.00000000
_cell_angle_beta   101.19624804
_cell_angle_gamma   90.00000000
_symmetry_Int_Tables_number   1
_chemical_formula_structural   VH10C2S2(O2F)6
_chemical_formula_sum   'V2 H20 C4 S4 O24 F12'
_cell_volume   818.49508000
_cell_formula_units_Z   2
loop_
 _symmetry_equiv_pos_site_id
 _symmetry_equiv_pos_as_xyz
  1  'x, y, z'
loop_
 _atom_site_type_symbol
 _atom_site_label
 _atom_site_symmetry_multiplicity
 _atom_site_fract_x
 _atom_site_fract_y
 _atom_site_fract_z
 _atom_site_occupancy
  V  V0  1  0.18237100  0.25000000  0.04930600  1
  V  V1  1  0.81762900  0.75000000  0.95069400  1
  H  H0  1  0.20676000  0.54039800  0.18343900  1
  H  H1  1  0.79324000  0.04039800  0.81656100  1
  H  H2  1  0.79324000  0.45960200  0.81656100  1
  H  H3  1  0.20676000  0.95960200  0.18343900  1
  H  H4  1  0.08393500  0.43024000  0.22291000  1
  H  H5  1  0.91606500  0.93024000  0.77709000  1
  H  H6  1  0.91606500  0.56976000  0.77709000  1
  H  H7  1  0.08393500  0.06976000  0.22291000  1
  H  H8  1  0.18686700  0.48549800  0.86812700  1
  H  H9  1  0.81313300  0.98549800  0.13187300  1
  H  H10  1  0.81313300  0.51450200  0.13187300  1
  H  H11  1  0.18686700  0.01450200  0.86812700  1
  H  H12  1  0.34276800  0.42609600  0.91778700  1
  H  H13  1  0.65723200  0.92609600  0.08221300  1
  H  H14  1  0.65723200  0.57390400  0.08221300  1
  H  H15  1  0.34276800  0.07390400  0.91778700  1
  H  H16  1  0.45875900  0.15029300  0.16320300  1
  H  H17  1  0.54124100  0.65029300  0.83679700  1
  H  H18  1  0.54124100  0.84970700  0.83679700  1
  H  H19  1  0.45875900  0.34970700  0.16320300  1
  C  C0  1  0.54685600  0.75000000  0.36054000  1
  C  C1  1  0.45314400  0.25000000  0.63946000  1
  C  C2  1  0.11634800  0.75000000  0.52363700  1
  C  C3  1  0.88365200  0.25000000  0.47636300  1
  S  S0  1  0.45452000  0.75000000  0.18853500  1
  S  S1  1  0.54548000  0.25000000  0.81146500  1
  S  S2  1  0.14584800  0.75000000  0.70567200  1
  S  S3  1  0.85415200  0.25000000  0.29432800  1
  O  O0  1  0.02489700  0.25000000  0.96840500  1
  O  O1  1  0.97510300  0.75000000  0.03159500  1
  O  O2  1  0.17131900  0.42609000  0.19024200  1
  O  O3  1  0.82868100  0.92609000  0.80975800  1
  O  O4  1  0.82868100  0.57391000  0.80975800  1
  O  O5  1  0.17131900  0.07391000  0.19024200  1
  O  O6  1  0.25147000  0.43755600  0.94277000  1
  O  O7  1  0.74853000  0.93755600  0.05723000  1
  O  O8  1  0.74853000  0.56244400  0.05723000  1
  O  O9  1  0.25147000  0.06244400  0.94277000  1
  O  O10  1  0.40255400  0.25000000  0.13855800  1
  O  O11  1  0.59744600  0.75000000  0.86144200  1
  O  O12  1  0.50252400  0.90443300  0.13614800  1
  O  O13  1  0.49747600  0.40443300  0.86385200  1
  O  O14  1  0.49747600  0.09556700  0.86385200  1
  O  O15  1  0.50252400  0.59556700  0.13614800  1
  O  O16  1  0.30848100  0.75000000  0.19469100  1
  O  O17  1  0.69151900  0.25000000  0.80530900  1
  O  O18  1  0.07725500  0.90415300  0.73815000  1
  O  O19  1  0.92274500  0.40415300  0.26185000  1
  O  O20  1  0.92274500  0.09584700  0.26185000  1
  O  O21  1  0.07725500  0.59584700  0.73815000  1
  O  O22  1  0.29358100  0.75000000  0.74622300  1
  O  O23  1  0.70641900  0.25000000  0.25377700  1
  F  F0  1  0.51298600  0.88698300  0.42176200  1
  F  F1  1  0.48701400  0.38698300  0.57823800  1
  F  F2  1  0.48701400  0.11301700  0.57823800  1
  F  F3  1  0.51298600  0.61301700  0.42176200  1
  F  F4  1  0.68439500  0.75000000  0.36556200  1
  F  F5  1  0.31560500  0.25000000  0.63443800  1
  F  F6  1  0.17514600  0.88736100  0.48260200  1
  F  F7  1  0.82485400  0.38736100  0.51739800  1
  F  F8  1  0.82485400  0.11263900  0.51739800  1
  F  F9  1  0.17514600  0.61263900  0.48260200  1
  F  F10  1  0.98108300  0.75000000  0.47045500  1
  F  F11  1  0.01891700  0.25000000  0.52954500  1
loop_
_geom_bond_atom_site_label_1
_geom_bond_atom_site_label_2
_geom_bond_distance
_geom_bond_site_symmetry_2
H0 O2 0.986511 1_555
H1 O3 0.986511 1_545
H2 O4 0.986511 1_555
H3 O5 0.986511 1_565
H4 O2 0.993079 1_555
H5 O3 0.993079 1_555
H6 O4 0.993079 1_555
H7 O5 0.993079 1_555
H8 O6 0.989504 1_555
H9 O7 0.989504 1_555
H10 O8 0.989504 1_555
H11 O9 0.989504 1_555
H12 O6 0.994964 1_555
H13 O7 0.994964 1_555
H14 O8 0.994964 1_555
H15 O9 0.994964 1_555
H16 O10 0.978263 1_555
H17 O11 0.978263 1_555
H18 O11 0.978263 1_555
H19 O10 0.978263 1_555
C0 F3 1.345691 1_555
C0 F0 1.345691 1_555
C0 F4 1.354871 1_555
C1 F2 1.345691 1_555
C1 F1 1.345691 1_555
C1 F5 1.354871 1_555
C2 F10 1.349649 1_455
C2 F6 1.352710 1_555
C2 F9 1.352710 1_555
C3 F11 1.349649 1_655
C3 F8 1.352710 1_555
C3 F7 1.352710 1_555
O0 V0 1.627266 1_556
O1 V1 1.627266 1_554
O2 V0 2.063123 1_555
O3 V1 2.063123 1_555
O4 V1 2.063123 1_555
O5 V0 2.063123 1_555
O6 V0 2.067063 1_556
O7 V1 2.067063 1_554
O8 V1 2.067063 1_554
O9 V0 2.067063 1_556
O10 V0 2.203378 1_555
O11 V1 2.203378 1_555
O12 S0 1.468429 1_555
O13 S1 1.468429 1_555
O14 S1 1.468429 1_555
O15 S0 1.468429 1_555
O16 S0 1.462410 1_555
O17 S1 1.462410 1_555
O18 S2 1.479226 1_555
O19 S3 1.479226 1_555
O20 S3 1.479226 1_555
O21 S2 1.479226 1_555
O22 S2 1.444388 1_555
O23 S3 1.444388 1_555
