# generated using pymatgen
data_Pr2(Sn2Au)3
_symmetry_space_group_name_H-M   'P 1'
_cell_length_a   14.03070496
_cell_length_b   14.03070496
_cell_length_c   14.03070496
_cell_angle_alpha   161.21549186
_cell_angle_beta   161.21549186
_cell_angle_gamma   26.68707535
_symmetry_Int_Tables_number   1
_chemical_formula_structural   Pr2(Sn2Au)3
_chemical_formula_sum   'Pr2 Sn6 Au3'
_cell_volume   286.29504789
_cell_formula_units_Z   1
loop_
 _symmetry_equiv_pos_site_id
 _symmetry_equiv_pos_as_xyz
  1  'x, y, z'
loop_
 _atom_site_type_symbol
 _atom_site_label
 _atom_site_symmetry_multiplicity
 _atom_site_fract_x
 _atom_site_fract_y
 _atom_site_fract_z
 _atom_site_occupancy
  Pr  Pr0  1  0.99379700  0.99379700  0.00000000  1
  Pr  Pr1  1  0.68563400  0.68563400  0.00000000  1
  Sn  Sn0  1  0.79546900  0.29546900  0.50000000  1
  Sn  Sn1  1  0.29546900  0.79546900  0.50000000  1
  Sn  Sn2  1  0.90305200  0.40305200  0.50000000  1
  Sn  Sn3  1  0.40305200  0.90305200  0.50000000  1
  Sn  Sn4  1  0.14014100  0.14014100  0.00000000  1
  Sn  Sn5  1  0.51916300  0.51916300  0.00000000  1
  Au  Au0  1  0.58417600  0.08417600  0.50000000  1
  Au  Au1  1  0.08417600  0.58417600  0.50000000  1
  Au  Au2  1  0.23646900  0.23646900  0.00000000  1
loop_
_geom_bond_atom_site_label_1
_geom_bond_atom_site_label_2
_geom_bond_distance
_geom_bond_site_symmetry_2
Pr0 Sn5 3.311374 1_666
Pr0 Sn5 3.311374 1_565
Pr0 Sn5 3.311374 1_655
Pr0 Sn5 3.311374 1_554
Pr0 Sn2 3.373677 1_565
Pr0 Sn3 3.373677 1_655
Pr0 Sn3 3.373677 1_554
Pr0 Sn2 3.373677 1_554
Pr1 Sn4 3.468200 1_666
Pr1 Sn4 3.468200 1_655
Pr1 Sn4 3.468200 1_565
Pr1 Sn4 3.468200 1_554
Pr1 Sn1 3.773099 1_655
Pr1 Sn0 3.773099 1_554
Pr1 Sn0 3.773099 1_565
Pr1 Sn1 3.773099 1_554
Sn0 Sn2 2.937431 1_555
Sn0 Sn1 3.238135 1_656
Sn0 Sn1 3.238135 1_645
Sn0 Sn1 3.238135 1_544
Sn0 Sn1 3.238135 1_555
Sn1 Sn3 2.937431 1_555
Sn2 Sn3 3.238135 1_645
Sn2 Sn3 3.238135 1_656
Sn2 Sn3 3.238135 1_544
Sn2 Sn3 3.238135 1_555
Au0 Sn4 2.752767 1_555
Au0 Sn4 2.752767 1_656
Au0 Sn5 2.897198 1_545
Au0 Sn5 2.897198 1_556
Au0 Au1 3.238135 1_656
Au0 Au1 3.238135 1_645
Au0 Au1 3.238135 1_555
Au0 Au1 3.238135 1_544
Au0 Pr0 3.366345 1_445
Au0 Pr0 3.366345 1_546
Au0 Pr1 3.593986 1_556
Au0 Pr1 3.593986 1_545
Au1 Sn4 2.752767 1_555
Au1 Sn4 2.752767 1_566
Au1 Sn5 2.897198 1_556
Au1 Sn5 2.897198 1_455
Au1 Pr0 3.366345 1_445
Au1 Pr0 3.366345 1_456
Au1 Pr1 3.593986 1_455
Au1 Pr1 3.593986 1_556
Au2 Sn4 2.630126 1_555
Au2 Sn0 2.799615 1_555
Au2 Sn1 2.799615 1_544
Au2 Sn0 2.799615 1_454
Au2 Sn1 2.799615 1_555
Au2 Pr1 3.523072 1_455
Au2 Pr1 3.523072 1_556
Au2 Pr1 3.523072 1_444
Au2 Pr1 3.523072 1_545
