# generated using pymatgen
data_HgCI3N
_symmetry_space_group_name_H-M   'P 1'
_cell_length_a   7.77986600
_cell_length_b   6.50519090
_cell_length_c   17.66748232
_cell_angle_alpha   92.57592953
_cell_angle_beta   90.00000000
_cell_angle_gamma   90.00000000
_symmetry_Int_Tables_number   1
_chemical_formula_structural   HgCI3N
_chemical_formula_sum   'Hg4 C4 I12 N4'
_cell_volume   893.23918894
_cell_formula_units_Z   4
loop_
 _symmetry_equiv_pos_site_id
 _symmetry_equiv_pos_as_xyz
  1  'x, y, z'
loop_
 _atom_site_type_symbol
 _atom_site_label
 _atom_site_symmetry_multiplicity
 _atom_site_fract_x
 _atom_site_fract_y
 _atom_site_fract_z
 _atom_site_occupancy
  Hg  Hg0  1  0.38007800  0.89903100  0.67686400  1
  Hg  Hg1  1  0.11992200  0.39903100  0.17686400  1
  Hg  Hg2  1  0.61992200  0.10096900  0.32313600  1
  Hg  Hg3  1  0.88007800  0.60096900  0.82313600  1
  C  C0  1  0.24736400  0.42055400  0.55548300  1
  C  C1  1  0.25263600  0.92055400  0.05548300  1
  C  C2  1  0.75263600  0.57944600  0.44451700  1
  C  C3  1  0.74736400  0.07944600  0.94451700  1
  I  I0  1  0.27171600  0.12434400  0.80974900  1
  I  I1  1  0.22828400  0.62434400  0.30974900  1
  I  I2  1  0.72828400  0.87565600  0.19025100  1
  I  I3  1  0.77171600  0.37565600  0.69025100  1
  I  I4  1  0.25765300  0.81558900  0.53564500  1
  I  I5  1  0.24234700  0.31558900  0.03564500  1
  I  I6  1  0.74234700  0.18441100  0.46435500  1
  I  I7  1  0.75765300  0.68441100  0.96435500  1
  I  I8  1  0.26781500  0.61514800  0.81075400  1
  I  I9  1  0.23218500  0.11514800  0.31075400  1
  I  I10  1  0.73218500  0.38485200  0.18924600  1
  I  I11  1  0.76781500  0.88485200  0.68924600  1
  N  N0  1  0.24870800  0.23829000  0.55518700  1
  N  N1  1  0.25129200  0.73829000  0.05518700  1
  N  N2  1  0.75129200  0.76171000  0.44481300  1
  N  N3  1  0.74870800  0.26171000  0.94481300  1
loop_
_geom_bond_atom_site_label_1
_geom_bond_atom_site_label_2
_geom_bond_distance
_geom_bond_site_symmetry_2
Hg0 I4 2.702779 1_555
Hg0 I0 2.839295 1_565
Hg0 I11 3.026169 1_555
Hg0 I8 3.187696 1_555
Hg1 I5 2.702779 1_555
Hg1 I1 2.839295 1_555
Hg1 I10 3.026169 1_455
Hg1 I9 3.187696 1_555
Hg2 I6 2.702779 1_555
Hg2 I2 2.839295 1_545
Hg2 I9 3.026169 1_555
Hg2 I10 3.187696 1_555
Hg3 I7 2.702779 1_555
Hg3 I3 2.839295 1_555
Hg3 I8 3.026169 1_655
Hg3 I11 3.187696 1_555
C0 N0 1.185485 1_555
C0 I4 2.610358 1_555
C1 N1 1.185485 1_555
C1 I5 2.610358 1_565
C2 N2 1.185485 1_555
C2 I6 2.610358 1_555
C3 N3 1.185485 1_555
C3 I7 2.610358 1_545
I4 N0 2.756781 1_565
I5 N1 2.756781 1_555
I6 N2 2.756781 1_545
I7 N3 2.756781 1_555
