# generated using pymatgen
data_FeO
_symmetry_space_group_name_H-M   'P 1'
_cell_length_a   10.65905206
_cell_length_b   10.45738117
_cell_length_c   9.94488518
_cell_angle_alpha   93.70694760
_cell_angle_beta   87.57439992
_cell_angle_gamma   98.78090990
_symmetry_Int_Tables_number   1
_chemical_formula_structural   FeO
_chemical_formula_sum   'Fe40 O40'
_cell_volume   1092.63761928
_cell_formula_units_Z   40
loop_
 _symmetry_equiv_pos_site_id
 _symmetry_equiv_pos_as_xyz
  1  'x, y, z'
loop_
 _atom_site_type_symbol
 _atom_site_label
 _atom_site_symmetry_multiplicity
 _atom_site_fract_x
 _atom_site_fract_y
 _atom_site_fract_z
 _atom_site_occupancy
  Fe  Fe0  1  0.11498200  0.85573500  0.10637600  1
  Fe  Fe1  1  0.23832000  0.64573200  0.83440100  1
  Fe  Fe2  1  0.99791200  0.05763500  0.84262800  1
  Fe  Fe3  1  0.84001300  0.98093300  0.15054500  1
  Fe  Fe4  1  0.05996200  0.98369900  0.42788700  1
  Fe  Fe5  1  0.13686600  0.85429800  0.66849500  1
  Fe  Fe6  1  0.89498500  0.56650600  0.07016600  1
  Fe  Fe7  1  0.84553700  0.75434500  0.30804600  1
  Fe  Fe8  1  0.31621600  0.46835300  0.11715600  1
  Fe  Fe9  1  0.40327400  0.41631500  0.78899800  1
  Fe  Fe10  1  0.57007900  0.44835200  0.27807300  1
  Fe  Fe11  1  0.67780900  0.30414800  0.59362300  1
  Fe  Fe12  1  0.47522900  0.78978300  0.69967000  1
  Fe  Fe13  1  0.56472600  0.93818000  0.28779000  1
  Fe  Fe14  1  0.17304900  0.18352400  0.64178800  1
  Fe  Fe15  1  0.88198800  0.26962000  0.05115300  1
  Fe  Fe16  1  0.88761900  0.38419300  0.77498600  1
  Fe  Fe17  1  0.28245700  0.95105200  0.91988800  1
  Fe  Fe18  1  0.87339100  0.19761200  0.42302300  1
  Fe  Fe19  1  0.14032000  0.67041800  0.33063400  1
  Fe  Fe20  1  0.57602500  0.96379700  0.98997400  1
  Fe  Fe21  1  0.45787600  0.69279700  0.35642000  1
  Fe  Fe22  1  0.72917100  0.09647500  0.77307600  1
  Fe  Fe23  1  0.12469200  0.33532900  0.89845100  1
  Fe  Fe24  1  0.34734300  0.50692700  0.53679500  1
  Fe  Fe25  1  0.71545700  0.81288800  0.83814200  1
  Fe  Fe26  1  0.68544400  0.58032700  0.55906800  1
  Fe  Fe27  1  0.31729700  0.91118600  0.44576400  1
  Fe  Fe28  1  0.39862500  0.76776200  0.09202800  1
  Fe  Fe29  1  0.60152500  0.30879300  0.97205800  1
  Fe  Fe30  1  0.95742600  0.73763100  0.86480400  1
  Fe  Fe31  1  0.64971200  0.18930900  0.26461100  1
  Fe  Fe32  1  0.67697000  0.92027800  0.53834700  1
  Fe  Fe33  1  0.99769800  0.54090700  0.57486900  1
  Fe  Fe34  1  0.61916900  0.60744100  0.02807000  1
  Fe  Fe35  1  0.83550900  0.48192800  0.34147700  1
  Fe  Fe36  1  0.13448000  0.35648000  0.39618400  1
  Fe  Fe37  1  0.12110200  0.15485000  0.17633700  1
  Fe  Fe38  1  0.41628200  0.10571600  0.15576500  1
  Fe  Fe39  1  0.41824600  0.20840800  0.50680900  1
  O  O0  1  0.38863900  0.58554400  0.71831600  1
  O  O1  1  0.53613600  0.45908400  0.91913100  1
  O  O2  1  0.06412300  0.66059900  0.72929300  1
  O  O3  1  0.96340700  0.62212900  0.25711000  1
  O  O4  1  0.24521700  0.03855300  0.09765800  1
  O  O5  1  0.27742900  0.06402400  0.55503200  1
  O  O6  1  0.04089100  0.01734000  0.65119300  1
  O  O7  1  0.79353900  0.66502600  0.93703200  1
  O  O8  1  0.52414400  0.55262600  0.44647400  1
  O  O9  1  0.52634700  0.28296700  0.15227800  1
  O  O10  1  0.68974500  0.35079900  0.39497000  1
  O  O11  1  0.77838000  0.97305000  0.96255500  1
  O  O12  1  0.26255300  0.31696400  0.51709900  1
  O  O13  1  0.54938500  0.75490900  0.96621700  1
  O  O14  1  0.66902800  0.75969000  0.64902500  1
  O  O15  1  0.19532400  0.35022000  0.21424800  1
  O  O16  1  0.95968200  0.38706000  0.43766300  1
  O  O17  1  0.29996700  0.83079900  0.76620500  1
  O  O18  1  0.02950700  0.27315300  0.73522800  1
  O  O19  1  0.74720900  0.12234300  0.57012600  1
  O  O20  1  0.98549000  0.91190900  0.23698300  1
  O  O21  1  0.05933400  0.16309600  0.37688500  1
  O  O22  1  0.75665900  0.25698200  0.89297600  1
  O  O23  1  0.57850700  0.96795200  0.78732400  1
  O  O24  1  0.25568700  0.48691700  0.93584000  1
  O  O25  1  0.48814000  0.85006300  0.48342200  1
  O  O26  1  0.31663900  0.77563300  0.27631100  1
  O  O27  1  0.50490600  0.32817900  0.65288200  1
  O  O28  1  0.48446700  0.09627900  0.35250200  1
  O  O29  1  0.73057900  0.88664100  0.32503400  1
  O  O30  1  0.04278800  0.18707100  0.00042600  1
  O  O31  1  0.17919000  0.54257600  0.46527400  1
  O  O32  1  0.97385800  0.43141900  0.96204200  1
  O  O33  1  0.80393500  0.48157500  0.65043600  1
  O  O34  1  0.26787300  0.26012200  0.80260300  1
  O  O35  1  0.06615100  0.90101800  0.91014000  1
  O  O36  1  0.46695000  0.59055200  0.17150200  1
  O  O37  1  0.71973000  0.55348200  0.16946700  1
  O  O38  1  0.82811700  0.17574700  0.21584800  1
  O  O39  1  0.12673600  0.82573700  0.46430100  1
loop_
_geom_bond_atom_site_label_1
_geom_bond_atom_site_label_2
_geom_bond_distance
_geom_bond_site_symmetry_2
Fe0 O20 1.983535 1_455
Fe0 O35 2.141123 1_554
Fe0 O4 2.188722 1_565
Fe1 O24 2.033833 1_555
Fe1 O0 2.086509 1_555
Fe1 O17 2.093064 1_555
Fe1 O2 2.199509 1_555
Fe2 O6 1.973136 1_655
Fe2 O30 2.028492 1_656
Fe2 O35 2.051700 1_645
Fe2 O18 2.526401 1_655
Fe2 O11 2.636039 1_545
Fe3 O11 2.000263 1_554
Fe3 O20 2.049206 1_555
Fe3 O38 2.118731 1_565
Fe3 O29 2.245629 1_555
Fe4 O39 1.955639 1_555
Fe4 O21 1.975836 1_565
Fe4 O20 2.135278 1_455
Fe4 O6 2.231463 1_565
Fe5 O39 2.038342 1_555
Fe5 O17 2.081180 1_555
Fe5 O6 2.137406 1_565
Fe5 O2 2.170008 1_555
Fe5 O35 2.527683 1_555
Fe6 O32 1.987030 1_554
Fe6 O3 2.042558 1_555
Fe6 O37 2.065663 1_555
Fe6 O7 2.149736 1_554
Fe7 O29 1.978339 1_555
Fe7 O3 2.032904 1_555
Fe7 O20 2.179593 1_555
Fe7 O37 2.651748 1_555
Fe8 O15 1.918807 1_555
Fe8 O36 1.965668 1_555
Fe8 O24 1.971632 1_554
Fe9 O1 1.940968 1_555
Fe9 O27 1.968451 1_555
Fe9 O0 1.976023 1_555
Fe9 O34 2.015311 1_555
Fe9 O24 2.274459 1_555
Fe10 O8 2.022611 1_555
Fe10 O9 2.072904 1_555
Fe10 O37 2.095701 1_555
Fe10 O10 2.166861 1_555
Fe10 O36 2.311793 1_555
Fe11 O27 1.958918 1_555
Fe11 O10 2.059491 1_555
Fe11 O19 2.138623 1_555
Fe11 O33 2.176315 1_555
Fe12 O17 2.053048 1_555
Fe12 O23 2.165219 1_555
Fe12 O14 2.170205 1_555
Fe12 O0 2.209702 1_555
Fe12 O25 2.272659 1_555
Fe13 O29 1.981174 1_555
Fe13 O28 2.031518 1_565
Fe13 O25 2.273400 1_555
Fe14 O5 1.935902 1_555
Fe14 O34 1.986181 1_555
Fe14 O12 2.027856 1_555
Fe14 O6 2.067772 1_555
Fe14 O18 2.070712 1_555
Fe15 O38 1.982981 1_555
Fe15 O32 2.054673 1_554
Fe15 O30 2.063889 1_655
Fe15 O22 2.091326 1_554
Fe16 O33 1.975066 1_555
Fe16 O18 2.053830 1_655
Fe16 O32 2.106359 1_555
Fe16 O22 2.142743 1_555
Fe17 O17 1.936774 1_555
Fe17 O4 1.990639 1_566
Fe17 O35 2.289776 1_555
Fe18 O16 2.051771 1_555
Fe18 O19 2.056160 1_555
Fe18 O21 2.095011 1_655
Fe18 O38 2.125955 1_555
Fe19 O3 2.030721 1_455
Fe19 O31 2.049230 1_555
Fe19 O39 2.049990 1_555
Fe19 O26 2.096224 1_555
Fe20 O23 2.017574 1_555
Fe20 O11 2.150790 1_555
Fe20 O13 2.158173 1_555
Fe21 O8 1.997258 1_555
Fe21 O25 2.001970 1_555
Fe21 O26 2.059217 1_555
Fe21 O36 2.072853 1_555
Fe22 O23 1.936971 1_545
Fe22 O22 1.986347 1_555
Fe22 O19 2.050758 1_555
Fe22 O11 2.469139 1_545
Fe23 O18 1.971938 1_555
Fe23 O24 1.972995 1_555
Fe23 O30 1.977234 1_556
Fe23 O34 2.000679 1_555
Fe23 O32 2.078347 1_455
Fe24 O0 1.973140 1_555
Fe24 O31 2.050269 1_555
Fe24 O12 2.053765 1_555
Fe24 O8 2.055217 1_555
Fe25 O14 1.987723 1_555
Fe25 O11 2.060388 1_555
Fe25 O13 2.169039 1_555
Fe25 O7 2.170155 1_555
Fe25 O23 2.430408 1_555
Fe26 O33 2.025818 1_555
Fe26 O14 2.054034 1_555
Fe26 O8 2.064626 1_555
Fe27 O5 1.964594 1_565
Fe27 O25 2.075813 1_555
Fe27 O39 2.096111 1_555
Fe27 O26 2.130348 1_555
Fe27 O28 2.611709 1_565
Fe28 O26 1.999012 1_555
Fe28 O13 2.009935 1_554
Fe28 O36 2.288974 1_555
Fe29 O1 1.924938 1_555
Fe29 O22 1.937722 1_555
Fe29 O9 1.949932 1_556
Fe30 O7 1.924417 1_555
Fe30 O2 1.941156 1_655
Fe30 O35 1.950825 1_655
Fe31 O38 1.966434 1_555
Fe31 O10 2.063586 1_555
Fe31 O28 2.066223 1_555
Fe31 O9 2.143687 1_555
Fe32 O14 2.055853 1_555
Fe32 O25 2.116280 1_555
Fe32 O19 2.139191 1_565
Fe32 O29 2.193798 1_555
Fe32 O23 2.694629 1_555
Fe33 O2 1.999835 1_655
Fe33 O16 2.044091 1_555
Fe33 O31 2.178143 1_655
Fe33 O33 2.180135 1_555
Fe34 O1 1.951555 1_554
Fe34 O13 1.954848 1_554
Fe34 O37 1.964565 1_555
Fe34 O7 2.055024 1_554
Fe34 O36 2.108928 1_555
Fe35 O10 1.987778 1_555
Fe35 O3 2.040593 1_555
Fe35 O16 2.069253 1_555
Fe35 O37 2.373868 1_555
Fe36 O15 1.896549 1_555
Fe36 O16 1.960527 1_455
Fe36 O12 1.963611 1_555
Fe36 O31 2.014469 1_555
Fe36 O21 2.058237 1_555
Fe37 O4 2.030279 1_555
Fe37 O30 2.038750 1_555
Fe37 O21 2.074270 1_555
Fe37 O15 2.091479 1_555
Fe38 O4 1.948765 1_555
Fe38 O9 2.038203 1_555
Fe38 O28 2.129127 1_555
Fe39 O27 2.014284 1_555
Fe39 O5 2.025691 1_555
Fe39 O28 2.038723 1_555
Fe39 O12 2.144538 1_555
