# generated using pymatgen
data_Tm3Ni7B2
_symmetry_space_group_name_H-M   'P 1'
_cell_length_a   5.02827038
_cell_length_b   5.02827038
_cell_length_c   14.23462900
_cell_angle_alpha   90.00000000
_cell_angle_beta   90.00000000
_cell_angle_gamma   120.00000505
_symmetry_Int_Tables_number   1
_chemical_formula_structural   Tm3Ni7B2
_chemical_formula_sum   'Tm6 Ni14 B4'
_cell_volume   311.68364046
_cell_formula_units_Z   2
loop_
 _symmetry_equiv_pos_site_id
 _symmetry_equiv_pos_as_xyz
  1  'x, y, z'
loop_
 _atom_site_type_symbol
 _atom_site_label
 _atom_site_symmetry_multiplicity
 _atom_site_fract_x
 _atom_site_fract_y
 _atom_site_fract_z
 _atom_site_occupancy
  Tm  Tm0  1  0.33333300  0.66666700  0.53241800  1
  Tm  Tm1  1  0.66666700  0.33333300  0.03241800  1
  Tm  Tm2  1  0.66666700  0.33333300  0.46758200  1
  Tm  Tm3  1  0.33333300  0.66666700  0.96758200  1
  Tm  Tm4  1  0.33333300  0.66666700  0.75000000  1
  Tm  Tm5  1  0.66666700  0.33333300  0.25000000  1
  Ni  Ni0  1  0.00000000  0.00000000  0.00000000  1
  Ni  Ni1  1  0.00000000  0.00000000  0.50000000  1
  Ni  Ni2  1  0.16581600  0.33163200  0.14809900  1
  Ni  Ni3  1  0.83418400  0.66836800  0.64809900  1
  Ni  Ni4  1  0.66836800  0.83418400  0.14809900  1
  Ni  Ni5  1  0.16581600  0.83418400  0.14809900  1
  Ni  Ni6  1  0.83418400  0.16581600  0.64809900  1
  Ni  Ni7  1  0.33163200  0.16581600  0.64809900  1
  Ni  Ni8  1  0.83418400  0.66836800  0.85190100  1
  Ni  Ni9  1  0.83418400  0.16581600  0.85190100  1
  Ni  Ni10  1  0.33163200  0.16581600  0.85190100  1
  Ni  Ni11  1  0.66836800  0.83418400  0.35190100  1
  Ni  Ni12  1  0.16581600  0.83418400  0.35190100  1
  Ni  Ni13  1  0.16581600  0.33163200  0.35190100  1
  B  B0  1  0.33333300  0.66666700  0.25000000  1
  B  B1  1  0.66666700  0.33333300  0.75000000  1
  B  B2  1  0.00000000  0.00000000  0.25000000  1
  B  B3  1  0.00000000  0.00000000  0.75000000  1
loop_
_geom_bond_atom_site_label_1
_geom_bond_atom_site_label_2
_geom_bond_distance
_geom_bond_site_symmetry_2
Tm0 Tm4 3.097199 1_555
Tm1 Tm5 3.097199 1_555
Tm2 Tm5 3.097199 1_555
Tm3 Tm4 3.097199 1_555
Ni0 Ni8 2.555335 1_444
Ni0 Ni10 2.555335 1_554
Ni0 Ni2 2.555335 1_555
Ni0 Ni4 2.555335 1_445
Ni0 Ni9 2.555335 1_454
Ni0 Ni5 2.555335 1_545
Ni0 Tm3 2.939517 1_544
Ni0 Tm1 2.939517 1_455
Ni0 Tm3 2.939521 1_554
Ni0 Tm1 2.939521 1_555
Ni0 Tm3 2.939521 1_444
Ni0 Tm1 2.939521 1_445
Ni1 Ni11 2.555335 1_445
Ni1 Ni3 2.555335 1_445
Ni1 Ni13 2.555335 1_555
Ni1 Ni7 2.555335 1_555
Ni1 Ni6 2.555335 1_455
Ni1 Ni12 2.555335 1_545
Ni1 Tm0 2.939517 1_545
Ni1 Tm2 2.939517 1_455
Ni1 Tm0 2.939521 1_555
Ni1 Tm0 2.939521 1_445
Ni1 Tm2 2.939521 1_445
Ni1 Tm2 2.939521 1_555
Ni2 Tm5 2.902574 1_455
Ni2 Tm5 2.902578 1_555
Ni2 Tm3 2.954883 1_554
Ni2 Tm1 3.005405 1_455
Ni2 Tm1 3.005409 1_555
Ni3 Tm4 2.902574 1_655
Ni3 Tm4 2.902578 1_555
Ni3 Tm2 2.954883 1_555
Ni3 Tm0 3.005405 1_655
Ni3 Tm0 3.005409 1_555
Ni4 Tm5 2.902574 1_565
Ni4 Tm5 2.902578 1_555
Ni4 Tm3 2.954883 1_554
Ni4 Tm1 3.005405 1_565
Ni4 Tm1 3.005409 1_555
Ni5 Tm5 2.902576 1_455
Ni5 Tm5 2.902576 1_565
Ni5 Tm3 2.954880 1_554
Ni5 Tm1 3.005407 1_455
Ni5 Tm1 3.005407 1_565
Ni6 Tm4 2.902576 1_545
Ni6 Tm4 2.902576 1_655
Ni6 Tm2 2.954880 1_555
Ni6 Tm0 3.005407 1_655
Ni6 Tm0 3.005407 1_545
Ni7 Tm4 2.902574 1_545
Ni7 Tm4 2.902578 1_555
Ni7 Tm2 2.954883 1_555
Ni7 Tm0 3.005405 1_545
Ni7 Tm0 3.005409 1_555
Ni8 Tm4 2.902574 1_655
Ni8 Tm4 2.902578 1_555
Ni8 Tm1 2.954883 1_556
Ni8 Tm3 3.005405 1_655
Ni8 Tm3 3.005409 1_555
Ni9 Tm4 2.902576 1_545
Ni9 Tm4 2.902576 1_655
Ni9 Tm1 2.954880 1_556
Ni9 Tm3 3.005407 1_655
Ni9 Tm3 3.005407 1_545
Ni10 Tm4 2.902574 1_545
Ni10 Tm4 2.902578 1_555
Ni10 Tm1 2.954883 1_556
Ni10 Tm3 3.005405 1_545
Ni10 Tm3 3.005409 1_555
Ni11 Tm5 2.902574 1_565
Ni11 Tm5 2.902578 1_555
Ni11 Tm0 2.954883 1_555
Ni11 Tm2 3.005405 1_565
Ni11 Tm2 3.005409 1_555
Ni12 Tm5 2.902576 1_455
Ni12 Tm5 2.902576 1_565
Ni12 Tm0 2.954880 1_555
Ni12 Tm2 3.005407 1_455
Ni12 Tm2 3.005407 1_565
Ni13 Tm5 2.902574 1_455
Ni13 Tm5 2.902578 1_555
Ni13 Tm0 2.954883 1_555
Ni13 Tm2 3.005405 1_455
Ni13 Tm2 3.005409 1_555
B0 Ni5 2.057311 1_555
B0 Ni12 2.057311 1_555
B0 Ni4 2.057314 1_555
B0 Ni2 2.057314 1_555
B0 Ni13 2.057314 1_555
B0 Ni11 2.057314 1_555
B0 Tm5 2.903070 1_455
B0 Tm5 2.903070 1_565
B0 Tm5 2.903079 1_555
B1 Ni9 2.057311 1_555
B1 Ni6 2.057311 1_555
B1 Ni3 2.057314 1_555
B1 Ni7 2.057314 1_555
B1 Ni10 2.057314 1_555
B1 Ni8 2.057314 1_555
B1 Tm4 2.903070 1_545
B1 Tm4 2.903070 1_655
B1 Tm4 2.903079 1_555
B2 Ni4 2.046832 1_445
B2 Ni2 2.046832 1_555
B2 Ni13 2.046832 1_555
B2 Ni11 2.046832 1_445
B2 Ni5 2.046832 1_545
B2 Ni12 2.046832 1_545
B2 Tm5 2.903070 1_455
B2 Tm5 2.903075 1_555
B2 Tm5 2.903075 1_445
B3 Ni3 2.046832 1_445
B3 Ni7 2.046832 1_555
B3 Ni10 2.046832 1_555
B3 Ni8 2.046832 1_445
B3 Ni9 2.046832 1_455
B3 Ni6 2.046832 1_455
B3 Tm4 2.903070 1_545
B3 Tm4 2.903075 1_445
B3 Tm4 2.903075 1_555
