# generated using pymatgen
data_Yb6ReO12
_symmetry_space_group_name_H-M   'P 1'
_cell_length_a   9.81654902
_cell_length_b   8.60158415
_cell_length_c   8.69768063
_cell_angle_alpha   140.15903854
_cell_angle_beta   108.13953315
_cell_angle_gamma   59.14116326
_symmetry_Int_Tables_number   1
_chemical_formula_structural   Yb6ReO12
_chemical_formula_sum   'Yb6 Re1 O12'
_cell_volume   399.32951744
_cell_formula_units_Z   1
loop_
 _symmetry_equiv_pos_site_id
 _symmetry_equiv_pos_as_xyz
  1  'x, y, z'
loop_
 _atom_site_type_symbol
 _atom_site_label
 _atom_site_symmetry_multiplicity
 _atom_site_fract_x
 _atom_site_fract_y
 _atom_site_fract_z
 _atom_site_occupancy
  Yb  Yb0  1  0.07299700  0.85115900  0.24666700  1
  Yb  Yb1  1  0.92700300  0.14884100  0.75333300  1
  Yb  Yb2  1  0.67360100  0.94423400  0.14116700  1
  Yb  Yb3  1  0.32639900  0.05576600  0.85883300  1
  Yb  Yb4  1  0.84074100  0.59911500  0.63675500  1
  Yb  Yb5  1  0.15925900  0.40088500  0.36324500  1
  Re  Re0  1  0.00000000  0.00000000  0.00000000  1
  O  O0  1  0.96456300  0.79176300  0.66812900  1
  O  O1  1  0.03543700  0.20823700  0.33187100  1
  O  O2  1  0.15888600  0.68535900  0.90175400  1
  O  O3  1  0.84111400  0.31464100  0.09824600  1
  O  O4  1  0.84996700  0.95046200  0.03873500  1
  O  O5  1  0.15003300  0.04953800  0.96126500  1
  O  O6  1  0.58650600  0.77769900  0.78339500  1
  O  O7  1  0.41349400  0.22230100  0.21660500  1
  O  O8  1  0.82157500  0.48545000  0.79358000  1
  O  O9  1  0.17842500  0.51455000  0.20642000  1
  O  O10  1  0.83936100  0.98932200  0.40636500  1
  O  O11  1  0.16063900  0.01067800  0.59363500  1
loop_
_geom_bond_atom_site_label_1
_geom_bond_atom_site_label_2
_geom_bond_distance
_geom_bond_site_symmetry_2
O0 Re0 1.932752 1_666
O0 Yb5 2.204829 1_655
O0 Yb4 2.337337 1_555
O0 Yb1 2.373153 1_565
O1 Re0 1.932752 1_555
O1 Yb4 2.204829 1_455
O1 Yb5 2.337337 1_555
O1 Yb0 2.373153 1_545
O2 Re0 1.853553 1_566
O2 Yb0 2.348573 1_556
O3 Re0 1.853553 1_655
O3 Yb1 2.348573 1_554
O4 Re0 1.907207 1_665
O4 Yb2 2.218760 1_555
O4 Yb4 2.285406 1_554
O4 Yb0 2.604246 1_655
O5 Re0 1.907207 1_556
O5 Yb3 2.218760 1_555
O5 Yb5 2.285406 1_556
O5 Yb1 2.604246 1_455
O6 Yb3 2.244792 1_565
O6 Yb2 2.284891 1_556
O6 Yb4 2.292488 1_555
O7 Yb2 2.244792 1_545
O7 Yb3 2.284891 1_554
O7 Yb5 2.292488 1_555
O8 Yb1 2.274193 1_555
O8 Yb4 2.290909 1_555
O8 Yb2 2.314271 1_556
O9 Yb0 2.274193 1_555
O9 Yb5 2.290909 1_555
O9 Yb3 2.314271 1_554
O10 Yb1 2.228371 1_565
O10 Yb2 2.248377 1_555
O10 Yb0 2.292246 1_655
O11 Yb0 2.228371 1_545
O11 Yb3 2.248377 1_555
O11 Yb1 2.292246 1_455
