# generated using pymatgen
data_CaLaAu2
_symmetry_space_group_name_H-M   'P 1'
_cell_length_a   12.38003532
_cell_length_b   12.38003532
_cell_length_c   12.38003532
_cell_angle_alpha   126.45691278
_cell_angle_beta   118.21487328
_cell_angle_gamma   86.15844088
_symmetry_Int_Tables_number   1
_chemical_formula_structural   CaLaAu2
_chemical_formula_sum   'Ca1 La1 Au2'
_cell_volume   1282.04964408
_cell_formula_units_Z   1
loop_
 _symmetry_equiv_pos_site_id
 _symmetry_equiv_pos_as_xyz
  1  'x, y, z'
loop_
 _atom_site_type_symbol
 _atom_site_label
 _atom_site_symmetry_multiplicity
 _atom_site_fract_x
 _atom_site_fract_y
 _atom_site_fract_z
 _atom_site_occupancy
  Ca  Ca0  1  0.00000000  0.00000000  0.00000000  1
  La  La0  1  0.00000000  0.50000000  0.50000000  1
  Au  Au0  1  0.00000000  0.24999900  0.24999900  1
  Au  Au1  1  0.00000000  0.75000100  0.75000100  1
loop_
_geom_bond_atom_site_label_1
_geom_bond_atom_site_label_2
_geom_bond_distance
_geom_bond_site_symmetry_2
Au0 Ca0 2.788184 1_555
Au0 La0 2.788207 1_555
Au1 Ca0 2.788184 1_566
Au1 La0 2.788207 1_555
