# generated using pymatgen
data_PrP5O14
_symmetry_space_group_name_H-M   'P 1'
_cell_length_a   9.05397160
_cell_length_b   8.80617659
_cell_length_c   13.09275591
_cell_angle_alpha   89.64561029
_cell_angle_beta   90.00000000
_cell_angle_gamma   90.00000000
_symmetry_Int_Tables_number   1
_chemical_formula_structural   PrP5O14
_chemical_formula_sum   'Pr4 P20 O56'
_cell_volume   1043.87688632
_cell_formula_units_Z   4
loop_
 _symmetry_equiv_pos_site_id
 _symmetry_equiv_pos_as_xyz
  1  'x, y, z'
loop_
 _atom_site_type_symbol
 _atom_site_label
 _atom_site_symmetry_multiplicity
 _atom_site_fract_x
 _atom_site_fract_y
 _atom_site_fract_z
 _atom_site_occupancy
  Pr  Pr0  1  0.69116256  0.77706169  0.00089132  1
  Pr  Pr1  1  0.19116256  0.22293831  0.49910868  1
  Pr  Pr2  1  0.30883744  0.22293831  0.99910868  1
  Pr  Pr3  1  0.80883744  0.77706169  0.50089132  1
  P  P0  1  0.50150240  0.50431254  0.82484377  1
  P  P1  1  0.00150240  0.49568746  0.67515623  1
  P  P2  1  0.49849760  0.49568746  0.17515623  1
  P  P3  1  0.99849760  0.50431254  0.32484377  1
  P  P4  1  0.45043560  0.74130985  0.66409108  1
  P  P5  1  0.95043560  0.25869015  0.83590892  1
  P  P6  1  0.54956440  0.25869015  0.33590892  1
  P  P7  1  0.04956440  0.74130985  0.16409108  1
  P  P8  1  0.25396848  0.81322265  0.00001168  1
  P  P9  1  0.75396848  0.18677735  0.49998832  1
  P  P10  1  0.74603152  0.18677735  -0.00001168  1
  P  P11  1  0.24603152  0.81322265  0.50001168  1
  P  P12  1  0.55198540  0.27088181  0.66319415  1
  P  P13  1  0.05198540  0.72911819  0.83680585  1
  P  P14  1  0.44801460  0.72911819  0.33680585  1
  P  P15  1  0.94801460  0.27088181  0.16319415  1
  P  P16  1  0.50378807  0.00520832  0.79419867  1
  P  P17  1  0.00378807  0.99479168  0.70580133  1
  P  P18  1  0.49621193  0.99479168  0.20580133  1
  P  P19  1  0.99621193  0.00520832  0.29419867  1
  O  O0  1  0.38386204  0.41754780  0.87601985  1
  O  O1  1  0.88386204  0.58245220  0.62398015  1
  O  O2  1  0.61613796  0.58245220  0.12398015  1
  O  O3  1  0.11613796  0.41754780  0.37601985  1
  O  O4  1  0.62062556  0.57858927  0.88231878  1
  O  O5  1  0.12062556  0.42141073  0.61768122  1
  O  O6  1  0.37937444  0.42141073  0.11768122  1
  O  O7  1  0.87937444  0.57858927  0.38231878  1
  O  O8  1  0.41866954  0.62726747  0.75253139  1
  O  O9  1  0.91866954  0.37273253  0.74746861  1
  O  O10  1  0.58133046  0.37273253  0.24746861  1
  O  O11  1  0.08133046  0.62726747  0.25253139  1
  O  O12  1  0.59044498  0.71997426  0.61053516  1
  O  O13  1  0.09044498  0.28002574  0.88946484  1
  O  O14  1  0.40955502  0.28002574  0.38946484  1
  O  O15  1  0.90955502  0.71997426  0.11053516  1
  O  O16  1  0.30911342  0.71938397  0.59740575  1
  O  O17  1  0.80911342  0.28061603  0.90259425  1
  O  O18  1  0.69088658  0.28061603  0.40259425  1
  O  O19  1  0.41477514  0.78982123  0.99943602  1
  O  O20  1  0.19088658  0.71938397  0.09740575  1
  O  O21  1  0.68607535  0.03427589  0.50371690  1
  O  O22  1  0.81392465  0.03427589  0.00371690  1
  O  O23  1  0.31392465  0.96572411  0.49628310  1
  O  O24  1  0.88355815  0.91454294  0.34792465  1
  O  O25  1  0.38355815  0.08545706  0.15207535  1
  O  O26  1  0.11644185  0.08545706  0.65207535  1
  O  O27  1  0.61644185  0.91454294  0.84792465  1
  O  O28  1  0.88484315  0.91346807  0.65262048  1
  O  O29  1  0.38484315  0.08653193  0.84737952  1
  O  O30  1  0.11515685  0.08653193  0.34737952  1
  O  O31  1  0.61515685  0.91346807  0.15262048  1
  O  O32  1  0.90658629  0.12209817  0.22237437  1
  O  O33  1  0.40658629  0.87790183  0.27762563  1
  O  O34  1  0.09341371  0.87790183  0.77762563  1
  O  O35  1  0.59341371  0.12209817  0.72237437  1
  O  O36  1  0.07580722  0.90216293  0.20956810  1
  O  O37  1  0.57580722  0.09783707  0.29043190  1
  O  O38  1  0.92419278  0.09783707  0.79043190  1
  O  O39  1  0.42419278  0.90216293  0.70956810  1
  O  O40  1  0.09274198  0.27143232  0.11405939  1
  O  O41  1  0.59274198  0.72856768  0.38594061  1
  O  O42  1  0.90725802  0.72856768  0.88594061  1
  O  O43  1  0.40725802  0.27143232  0.61405939  1
  O  O44  1  0.81337461  0.29125535  0.08997217  1
  O  O45  1  0.31337461  0.70874465  0.41002783  1
  O  O46  1  0.18662539  0.70874465  0.91002783  1
  O  O47  1  0.68662539  0.29125535  0.58997217  1
  O  O48  1  0.91794452  0.40236602  0.23914825  1
  O  O49  1  0.41794452  0.59763398  0.26085175  1
  O  O50  1  0.08205548  0.59763398  0.76085175  1
  O  O51  1  0.58205548  0.40236602  0.73914825  1
  O  O52  1  0.08522486  0.78982123  0.49943602  1
  O  O53  1  0.58522486  0.21017877  0.00056398  1
  O  O54  1  0.91477514  0.21017877  0.50056398  1
  O  O55  1  0.18607535  0.96572411  0.99628310  1
loop_
_geom_bond_atom_site_label_1
_geom_bond_atom_site_label_2
_geom_bond_distance
_geom_bond_site_symmetry_2
O0 P0 1.469992 1_555
O0 Pr2 2.441598 1_555
O1 P1 1.469992 1_655
O1 Pr3 2.441598 1_555
O2 P2 1.469992 1_555
O2 Pr0 2.441598 1_555
O3 P3 1.469992 1_455
O3 Pr1 2.441598 1_555
O4 P0 1.470863 1_555
O4 Pr0 2.430277 1_556
O5 P1 1.470863 1_555
O5 Pr1 2.430277 1_555
O6 P2 1.470863 1_555
O6 Pr2 2.430277 1_554
O7 P3 1.470863 1_555
O7 Pr3 2.430277 1_555
O8 P4 1.554896 1_555
O8 P0 1.618182 1_555
O9 P5 1.554896 1_555
O9 P1 1.618182 1_655
O10 P6 1.554896 1_555
O10 P2 1.618182 1_555
O11 P7 1.554896 1_555
O11 P3 1.618182 1_455
O12 P4 1.461341 1_555
O12 Pr3 2.492863 1_555
O13 P5 1.461341 1_455
O13 Pr2 2.492863 1_555
O14 P6 1.461341 1_555
O14 Pr1 2.492863 1_555
O15 P7 1.461341 1_655
O15 Pr0 2.492863 1_555
O16 P4 1.561682 1_555
O16 P11 1.619279 1_555
O17 P5 1.561682 1_555
O17 P10 1.619279 1_556
O18 P6 1.561682 1_555
O18 P9 1.619279 1_555
O19 P8 1.470477 1_556
O19 Pr0 2.504992 1_556
O20 P7 1.561682 1_555
O20 P8 1.619279 1_555
O21 P9 1.477484 1_555
O21 Pr3 2.523561 1_545
O22 P10 1.477484 1_555
O22 Pr0 2.523561 1_545
O23 P11 1.477484 1_555
O23 Pr1 2.523561 1_565
O24 P19 1.471614 1_565
O24 Pr3 2.429911 1_555
O25 P18 1.471614 1_545
O25 Pr2 2.429911 1_554
O26 P17 1.471614 1_545
O26 Pr1 2.429911 1_555
O27 P16 1.471614 1_565
O27 Pr0 2.429911 1_556
O28 P17 1.470923 1_655
O28 Pr3 2.427425 1_555
O29 P16 1.470923 1_555
O29 Pr2 2.427425 1_555
O30 P19 1.470923 1_455
O30 Pr1 2.427425 1_555
O31 P18 1.470923 1_555
O31 Pr0 2.427425 1_555
O32 P15 1.563702 1_555
O32 P19 1.609467 1_555
O33 P14 1.563702 1_555
O33 P18 1.609467 1_555
O34 P13 1.563702 1_555
O34 P17 1.609467 1_555
O35 P12 1.563702 1_555
O35 P16 1.609467 1_555
O36 P7 1.558168 1_555
O36 P19 1.607168 1_465
O37 P6 1.558168 1_555
O37 P18 1.607168 1_545
O38 P5 1.558168 1_555
O38 P17 1.607168 1_645
O39 P4 1.558168 1_555
O39 P16 1.607168 1_565
O40 P15 1.459750 1_455
O40 Pr2 2.506669 1_554
O41 P14 1.459750 1_555
O41 Pr3 2.506669 1_555
O42 P13 1.459750 1_655
O42 Pr0 2.506669 1_556
O43 P12 1.459750 1_555
O43 Pr1 2.506669 1_555
O44 P15 1.560497 1_555
O44 P10 1.618540 1_555
O45 P14 1.560497 1_555
O45 P11 1.618540 1_555
O46 P13 1.560497 1_555
O46 P8 1.618540 1_556
O47 P12 1.560497 1_555
O47 P9 1.618540 1_555
O48 P15 1.554980 1_555
O48 P3 1.615305 1_555
O49 P14 1.554980 1_555
O49 P2 1.615305 1_555
O50 P13 1.554980 1_555
O50 P1 1.615305 1_555
O51 P12 1.554980 1_555
O51 P0 1.615305 1_555
O52 P11 1.470477 1_555
O52 Pr3 2.504992 1_455
O53 P10 1.470477 1_555
O53 Pr2 2.504992 1_554
O54 P9 1.470477 1_555
O54 Pr1 2.504992 1_655
O55 P8 1.477484 1_556
O55 Pr2 2.523561 1_565
