# generated using pymatgen
data_MgSi2WO6
_symmetry_space_group_name_H-M   'P 1'
_cell_length_a   6.78774087
_cell_length_b   6.78774087
_cell_length_c   4.88102177
_cell_angle_alpha   82.01819158
_cell_angle_beta   82.01819158
_cell_angle_gamma   81.64657953
_symmetry_Int_Tables_number   1
_chemical_formula_structural   MgSi2WO6
_chemical_formula_sum   'Mg2 Si4 W2 O12'
_cell_volume   218.72149131
_cell_formula_units_Z   2
loop_
 _symmetry_equiv_pos_site_id
 _symmetry_equiv_pos_as_xyz
  1  'x, y, z'
loop_
 _atom_site_type_symbol
 _atom_site_label
 _atom_site_symmetry_multiplicity
 _atom_site_fract_x
 _atom_site_fract_y
 _atom_site_fract_z
 _atom_site_occupancy
  Mg  Mg0  1  0.73175300  0.26824700  0.25000000  1
  Mg  Mg1  1  0.26824700  0.73175300  0.75000000  1
  Si  Si0  1  0.77818700  0.59343200  0.70163800  1
  Si  Si1  1  0.40656800  0.22181300  0.79836200  1
  Si  Si2  1  0.59343200  0.77818700  0.20163800  1
  Si  Si3  1  0.22181300  0.40656800  0.29836200  1
  W  W0  1  0.93341000  0.06659000  0.75000000  1
  W  W1  1  0.06659000  0.93341000  0.25000000  1
  O  O0  1  0.69521600  0.57249100  0.39821100  1
  O  O1  1  0.42750900  0.30478400  0.10178900  1
  O  O2  1  0.30478400  0.42750900  0.60178900  1
  O  O3  1  0.57249100  0.69521600  0.89821100  1
  O  O4  1  0.85035400  0.37890000  0.86440800  1
  O  O5  1  0.62110000  0.14964600  0.63559200  1
  O  O6  1  0.14964600  0.62110000  0.13559200  1
  O  O7  1  0.37890000  0.85035400  0.36440800  1
  O  O8  1  0.75041000  0.94427400  0.13747400  1
  O  O9  1  0.05572600  0.24959000  0.36252600  1
  O  O10  1  0.94427400  0.75041000  0.63747400  1
  O  O11  1  0.24959000  0.05572600  0.86252600  1
loop_
_geom_bond_atom_site_label_1
_geom_bond_atom_site_label_2
_geom_bond_distance
_geom_bond_site_symmetry_2
Mg0 O4 2.028981 1_554
Mg0 O5 2.028981 1_555
Mg0 O0 2.250747 1_555
Mg0 O1 2.250747 1_555
Mg0 O9 2.321357 1_655
Mg0 O8 2.321357 1_545
Mg1 O7 2.028981 1_555
Mg1 O6 2.028981 1_556
Mg1 O3 2.250747 1_555
Mg1 O2 2.250747 1_555
Mg1 O11 2.321357 1_565
Mg1 O10 2.321357 1_455
O0 Si0 1.686479 1_555
O0 Si2 1.696791 1_555
O1 Si1 1.686479 1_554
O1 Si3 1.696791 1_555
O2 Si3 1.686479 1_555
O2 Si1 1.696791 1_555
O3 Si2 1.686479 1_556
O3 Si0 1.696791 1_555
O4 Si0 1.603486 1_555
O4 W0 2.240009 1_555
O5 Si1 1.603486 1_555
O5 W0 2.240009 1_555
O6 Si3 1.603486 1_555
O6 W1 2.240009 1_555
O7 Si2 1.603486 1_555
O7 W1 2.240009 1_555
O8 Si2 1.631765 1_555
O8 W0 2.240605 1_564
O8 W1 2.276661 1_655
O9 Si3 1.631765 1_555
O9 W0 2.240605 1_455
O9 W1 2.276661 1_545
O10 Si0 1.631765 1_555
O10 W1 2.240605 1_655
O10 W0 2.276661 1_565
O11 Si1 1.631765 1_555
O11 W1 2.240605 1_546
O11 W0 2.276661 1_455
