# generated using pymatgen
data_Zr3Sc4N8
_symmetry_space_group_name_H-M   'P 1'
_cell_length_a   17.84225551
_cell_length_b   17.84225551
_cell_length_c   17.84225559
_cell_angle_alpha   11.35988182
_cell_angle_beta   11.35988182
_cell_angle_gamma   11.35988436
_symmetry_Int_Tables_number   1
_chemical_formula_structural   Zr3Sc4N8
_chemical_formula_sum   'Zr3 Sc4 N8'
_cell_volume   191.47164115
_cell_formula_units_Z   1
loop_
 _symmetry_equiv_pos_site_id
 _symmetry_equiv_pos_as_xyz
  1  'x, y, z'
loop_
 _atom_site_type_symbol
 _atom_site_label
 _atom_site_symmetry_multiplicity
 _atom_site_fract_x
 _atom_site_fract_y
 _atom_site_fract_z
 _atom_site_occupancy
  Zr  Zr0  1  0.11487800  0.11487800  0.11487800  1
  Zr  Zr1  1  0.50000000  0.50000000  0.50000000  1
  Zr  Zr2  1  0.88512200  0.88512200  0.88512200  1
  Sc  Sc0  1  0.35460700  0.35460700  0.35460700  1
  Sc  Sc1  1  0.73322900  0.73322900  0.73322900  1
  Sc  Sc2  1  0.26677100  0.26677100  0.26677100  1
  Sc  Sc3  1  0.64539300  0.64539300  0.64539300  1
  N  N0  1  0.68716500  0.68716500  0.68716500  1
  N  N1  1  0.06372000  0.06372000  0.06372000  1
  N  N2  1  0.43718200  0.43718200  0.43718200  1
  N  N3  1  0.81220900  0.81220900  0.81220900  1
  N  N4  1  0.18779100  0.18779100  0.18779100  1
  N  N5  1  0.56281800  0.56281800  0.56281800  1
  N  N6  1  0.93628000  0.93628000  0.93628000  1
  N  N7  1  0.31283500  0.31283500  0.31283500  1
loop_
_geom_bond_atom_site_label_1
_geom_bond_atom_site_label_2
_geom_bond_distance
_geom_bond_site_symmetry_2
N0 Sc0 2.039471 1_556
N0 Sc0 2.039471 1_565
N0 Sc0 2.039471 1_655
N0 Sc3 2.221271 1_555
N0 Sc1 2.449503 1_555
N1 Sc1 2.044648 1_445
N1 Sc1 2.044648 1_454
N1 Sc1 2.044648 1_544
N1 Zr0 2.720382 1_555
N2 Zr0 2.121726 1_556
N2 Zr0 2.121726 1_655
N2 Zr0 2.121726 1_565
N2 Sc1 2.844117 1_554
N2 Sc1 2.844117 1_455
N2 Sc1 2.844117 1_545
N3 Zr1 2.327996 1_556
N3 Zr1 2.327996 1_565
N3 Zr1 2.327996 1_655
N3 Zr0 2.610867 1_665
N3 Zr0 2.610867 1_566
N3 Zr0 2.610867 1_656
N4 Zr1 2.327996 1_554
N4 Zr1 2.327996 1_455
N4 Zr1 2.327996 1_545
N4 Zr2 2.610867 1_445
N4 Zr2 2.610867 1_454
N4 Zr2 2.610867 1_544
N5 Zr2 2.121726 1_554
N5 Zr2 2.121726 1_545
N5 Zr2 2.121726 1_455
N5 Sc2 2.844117 1_556
N5 Sc2 2.844117 1_565
N5 Sc2 2.844117 1_655
N6 Sc2 2.044648 1_665
N6 Sc2 2.044648 1_656
N6 Sc2 2.044648 1_566
N6 Zr2 2.720382 1_555
N7 Sc3 2.039471 1_554
N7 Sc3 2.039471 1_455
N7 Sc3 2.039471 1_545
N7 Sc0 2.221271 1_555
N7 Sc2 2.449503 1_555
