# generated using pymatgen
data_La2MgNi9
_symmetry_space_group_name_H-M   'P 1'
_cell_length_a   4.99298984
_cell_length_b   4.99298984
_cell_length_c   8.51645158
_cell_angle_alpha   89.99999930
_cell_angle_beta   107.04591294
_cell_angle_gamma   60.00000208
_symmetry_Int_Tables_number   1
_chemical_formula_structural   La2MgNi9
_chemical_formula_sum   'La2 Mg1 Ni9'
_cell_volume   173.01630675
_cell_formula_units_Z   1
loop_
 _symmetry_equiv_pos_site_id
 _symmetry_equiv_pos_as_xyz
  1  'x, y, z'
loop_
 _atom_site_type_symbol
 _atom_site_label
 _atom_site_symmetry_multiplicity
 _atom_site_fract_x
 _atom_site_fract_y
 _atom_site_fract_z
 _atom_site_occupancy
  La  La0  1  0.00828400  0.99585800  0.01242500  1
  La  La1  1  0.71410800  0.14294600  0.57116200  1
  Mg  Mg0  1  0.28192200  0.85903900  0.42288300  1
  Ni  Ni0  1  0.33242400  0.33378800  0.99863500  1
  Ni  Ni1  1  0.66540400  0.66729800  0.99810600  1
  Ni  Ni2  1  0.83062400  0.58468800  0.74962900  1
  Ni  Ni3  1  0.33431700  0.58468800  0.74962900  1
  Ni  Ni4  1  0.33431700  0.08099600  0.74962900  1
  Ni  Ni5  1  0.16520500  0.41739800  0.25065300  1
  Ni  Ni6  1  0.66805100  0.41739800  0.25065300  1
  Ni  Ni7  1  0.66805100  0.91455200  0.25065300  1
  Ni  Ni8  1  0.99729500  0.50135200  0.49594300  1
loop_
_geom_bond_atom_site_label_1
_geom_bond_atom_site_label_2
_geom_bond_distance
_geom_bond_site_symmetry_2
La0 Ni0 2.884821 1_564
La0 Ni0 2.884822 1_464
La0 Ni0 2.884822 1_554
La0 Ni1 2.884984 1_554
La0 Ni1 2.884988 1_454
La0 Ni1 2.884988 1_464
La0 Ni5 3.142800 1_555
La0 Ni6 3.142800 1_555
La0 Ni7 3.142802 1_455
La0 Ni7 3.142802 1_555
La0 Ni5 3.142804 1_565
La0 Ni6 3.142804 1_465
La0 Ni3 3.266149 1_554
La0 Ni4 3.266151 1_464
La0 Ni4 3.266151 1_564
La0 Ni2 3.266151 1_454
La0 Ni2 3.266151 1_464
La0 Ni3 3.266153 1_464
La0 Mg0 3.289302 1_555
La1 Ni4 2.877155 1_555
La1 Ni2 2.877158 1_545
La1 Ni2 2.877158 1_555
La1 Ni3 2.877158 1_645
La1 Ni3 2.877158 1_555
La1 Ni4 2.877160 1_655
La1 Ni8 2.945049 1_555
La1 Ni8 2.945054 1_455
La1 Ni8 2.945054 1_545
La1 Ni7 2.949283 1_545
La1 Ni5 2.949283 1_555
La1 Ni6 2.949285 1_555
La1 Mg0 3.118007 1_545
La1 Mg0 3.118007 1_645
La1 Mg0 3.118007 1_555
Mg0 Ni7 2.852632 1_455
Mg0 Ni5 2.852632 1_555
Mg0 Ni6 2.852634 1_555
Mg0 Ni6 2.852634 1_465
Mg0 Ni5 2.852636 1_565
Mg0 Ni7 2.852636 1_555
Mg0 Ni8 2.941558 1_555
Mg0 Ni8 2.941558 1_465
Mg0 Ni8 2.941563 1_455
Mg0 Ni3 2.983829 1_555
Mg0 Ni2 2.983829 1_555
Mg0 Ni4 2.983831 1_565
Ni0 Ni4 2.467828 1_555
Ni0 Ni3 2.467831 1_555
Ni0 Ni2 2.467833 1_455
Ni0 Ni7 2.485963 1_546
Ni0 Ni6 2.485966 1_556
Ni0 Ni5 2.485966 1_556
Ni1 Ni3 2.451920 1_555
Ni1 Ni2 2.451920 1_555
Ni1 Ni4 2.451923 1_565
Ni1 Ni6 2.479890 1_556
Ni1 Ni7 2.479892 1_556
Ni1 Ni5 2.479892 1_656
Ni2 Ni3 2.478056 1_555
Ni2 Ni4 2.478058 1_565
Ni2 Ni8 2.498254 1_555
Ni2 Ni4 2.514932 1_655
Ni2 Ni3 2.514934 1_655
Ni3 Ni4 2.478061 1_565
Ni3 Ni8 2.498256 1_455
Ni3 Ni4 2.514929 1_555
Ni4 Ni8 2.498251 1_455
Ni5 Ni8 2.432664 1_455
Ni5 Ni6 2.482285 1_455
Ni5 Ni7 2.482285 1_455
Ni5 Ni6 2.510705 1_555
Ni5 Ni7 2.510705 1_545
Ni6 Ni8 2.432659 1_555
Ni6 Ni7 2.482285 1_555
Ni6 Ni7 2.510705 1_545
Ni7 Ni8 2.432664 1_555
