# generated using pymatgen
data_Sc2MnB2Ir5
_symmetry_space_group_name_H-M   'P 1'
_cell_length_a   9.42529400
_cell_length_b   9.42529400
_cell_length_c   3.06262400
_cell_angle_alpha   90.00000000
_cell_angle_beta   90.00000000
_cell_angle_gamma   90.00000000
_symmetry_Int_Tables_number   1
_chemical_formula_structural   Sc2MnB2Ir5
_chemical_formula_sum   'Sc4 Mn2 B4 Ir10'
_cell_volume   272.07177708
_cell_formula_units_Z   2
loop_
 _symmetry_equiv_pos_site_id
 _symmetry_equiv_pos_as_xyz
  1  'x, y, z'
loop_
 _atom_site_type_symbol
 _atom_site_label
 _atom_site_symmetry_multiplicity
 _atom_site_fract_x
 _atom_site_fract_y
 _atom_site_fract_z
 _atom_site_occupancy
  Sc  Sc0  1  0.67561900  0.17561900  0.00000000  1
  Sc  Sc1  1  0.32438100  0.82438100  0.00000000  1
  Sc  Sc2  1  0.17561900  0.32438100  0.00000000  1
  Sc  Sc3  1  0.82438100  0.67561900  0.00000000  1
  Mn  Mn0  1  0.00000000  0.00000000  0.00000000  1
  Mn  Mn1  1  0.50000000  0.50000000  0.00000000  1
  B  B0  1  0.12528300  0.62528300  0.00000000  1
  B  B1  1  0.87471700  0.37471700  0.00000000  1
  B  B2  1  0.62528300  0.87471700  0.00000000  1
  B  B3  1  0.37471700  0.12528300  0.00000000  1
  Ir  Ir0  1  0.21637000  0.07076300  0.50000000  1
  Ir  Ir1  1  0.78363000  0.92923700  0.50000000  1
  Ir  Ir2  1  0.07076300  0.78363000  0.50000000  1
  Ir  Ir3  1  0.71637000  0.42923700  0.50000000  1
  Ir  Ir4  1  0.92923700  0.21637000  0.50000000  1
  Ir  Ir5  1  0.28363000  0.57076300  0.50000000  1
  Ir  Ir6  1  0.57076300  0.71637000  0.50000000  1
  Ir  Ir7  1  0.42923700  0.28363000  0.50000000  1
  Ir  Ir8  1  0.50000000  0.00000000  0.50000000  1
  Ir  Ir9  1  0.00000000  0.50000000  0.50000000  1
loop_
_geom_bond_atom_site_label_1
_geom_bond_atom_site_label_2
_geom_bond_distance
_geom_bond_site_symmetry_2
B0 Ir5 2.199189 1_555
B0 Ir2 2.199189 1_555
B0 Ir5 2.199189 1_554
B0 Ir2 2.199189 1_554
B0 Ir9 2.265752 1_554
B0 Ir9 2.265752 1_555
B0 Sc1 2.653853 1_555
B0 Sc3 2.875498 1_455
B0 Sc2 2.875498 1_555
B1 Ir3 2.199189 1_554
B1 Ir4 2.199189 1_555
B1 Ir4 2.199189 1_554
B1 Ir3 2.199189 1_555
B1 Ir9 2.265752 1_655
B1 Ir9 2.265752 1_654
B1 Sc0 2.653853 1_555
B1 Sc3 2.875498 1_555
B1 Sc2 2.875498 1_655
B2 Ir6 2.199189 1_555
B2 Ir6 2.199189 1_554
B2 Ir1 2.199189 1_555
B2 Ir1 2.199189 1_554
B2 Ir8 2.265752 1_565
B2 Ir8 2.265752 1_564
B2 Sc3 2.653853 1_555
B2 Sc0 2.875498 1_565
B2 Sc1 2.875498 1_555
B3 Ir0 2.199189 1_555
B3 Ir7 2.199189 1_554
B3 Ir0 2.199189 1_554
B3 Ir7 2.199189 1_555
B3 Ir8 2.265752 1_555
B3 Ir8 2.265752 1_554
B3 Sc2 2.653853 1_555
B3 Sc0 2.875498 1_555
B3 Sc1 2.875498 1_545
Ir0 Mn0 2.636040 1_555
Ir0 Mn0 2.636040 1_556
Ir0 Sc2 2.864711 1_555
Ir0 Sc2 2.864711 1_556
Ir0 Sc1 2.962099 1_546
Ir0 Sc1 2.962099 1_545
Ir1 Mn0 2.636040 1_665
Ir1 Mn0 2.636040 1_666
Ir1 Sc3 2.864711 1_555
Ir1 Sc3 2.864711 1_556
Ir1 Sc0 2.962099 1_565
Ir1 Sc0 2.962099 1_566
Ir2 Mn0 2.636040 1_565
Ir2 Mn0 2.636040 1_566
Ir2 Sc1 2.864711 1_555
Ir2 Sc1 2.864711 1_556
Ir2 Sc3 2.962099 1_455
Ir2 Sc3 2.962099 1_456
Ir3 Mn1 2.636040 1_555
Ir3 Mn1 2.636040 1_556
Ir3 Sc0 2.864711 1_555
Ir3 Sc0 2.864711 1_556
Ir3 Sc3 2.962099 1_556
Ir3 Sc3 2.962099 1_555
Ir4 Mn0 2.636040 1_655
Ir4 Mn0 2.636040 1_656
Ir4 Sc0 2.864711 1_555
Ir4 Sc0 2.864711 1_556
Ir4 Sc2 2.962099 1_655
Ir4 Sc2 2.962099 1_656
Ir5 Mn1 2.636040 1_555
Ir5 Mn1 2.636040 1_556
Ir5 Sc1 2.864711 1_556
Ir5 Sc1 2.864711 1_555
Ir5 Sc2 2.962099 1_555
Ir5 Sc2 2.962099 1_556
Ir6 Mn1 2.636040 1_555
Ir6 Mn1 2.636040 1_556
Ir6 Sc3 2.864711 1_556
Ir6 Sc3 2.864711 1_555
Ir6 Sc1 2.962099 1_556
Ir6 Sc1 2.962099 1_555
Ir7 Mn1 2.636040 1_555
Ir7 Mn1 2.636040 1_556
Ir7 Sc2 2.864711 1_555
Ir7 Sc2 2.864711 1_556
Ir7 Sc0 2.962099 1_555
Ir7 Sc0 2.962099 1_556
Ir8 Sc1 2.797265 1_545
Ir8 Sc0 2.797265 1_555
Ir8 Sc0 2.797265 1_556
Ir8 Sc1 2.797265 1_546
Ir9 Sc3 2.797265 1_456
Ir9 Sc3 2.797265 1_455
Ir9 Sc2 2.797265 1_556
Ir9 Sc2 2.797265 1_555
