# generated using pymatgen
data_CaPr(AgO3)2
_symmetry_space_group_name_H-M   'P 1'
_cell_length_a   5.64149100
_cell_length_b   5.93542000
_cell_length_c   7.99501900
_cell_angle_alpha   90.00000000
_cell_angle_beta   90.00000000
_cell_angle_gamma   90.00000000
_symmetry_Int_Tables_number   1
_chemical_formula_structural   CaPr(AgO3)2
_chemical_formula_sum   'Ca2 Pr2 Ag4 O12'
_cell_volume   267.71016120
_cell_formula_units_Z   2
loop_
 _symmetry_equiv_pos_site_id
 _symmetry_equiv_pos_as_xyz
  1  'x, y, z'
loop_
 _atom_site_type_symbol
 _atom_site_label
 _atom_site_symmetry_multiplicity
 _atom_site_fract_x
 _atom_site_fract_y
 _atom_site_fract_z
 _atom_site_occupancy
  Ca  Ca0  1  0.47942100  0.18415900  0.00000000  1
  Ca  Ca1  1  0.97942100  0.81584100  0.50000000  1
  Pr  Pr0  1  0.02172000  0.68537800  0.00000000  1
  Pr  Pr1  1  0.52172000  0.31462200  0.50000000  1
  Ag  Ag0  1  0.00086200  0.24721300  0.75093300  1
  Ag  Ag1  1  0.00086200  0.24721300  0.24906700  1
  Ag  Ag2  1  0.50086200  0.75278700  0.25093300  1
  Ag  Ag3  1  0.50086200  0.75278700  0.74906700  1
  O  O0  1  0.11257500  0.20268300  0.50000000  1
  O  O1  1  0.20170000  0.95250800  0.80894200  1
  O  O2  1  0.20170000  0.95250800  0.19105800  1
  O  O3  1  0.29819800  0.45243000  0.19060800  1
  O  O4  1  0.29819800  0.45243000  0.80939200  1
  O  O5  1  0.38260200  0.70492400  0.50000000  1
  O  O6  1  0.61257500  0.79731700  0.00000000  1
  O  O7  1  0.70170000  0.04749200  0.69105800  1
  O  O8  1  0.70170000  0.04749200  0.30894200  1
  O  O9  1  0.79819800  0.54757000  0.69060800  1
  O  O10  1  0.79819800  0.54757000  0.30939200  1
  O  O11  1  0.88260200  0.29507600  0.00000000  1
loop_
_geom_bond_atom_site_label_1
_geom_bond_atom_site_label_2
_geom_bond_distance
_geom_bond_site_symmetry_2
Ca0 O11 2.367900 1_555
Ca0 O6 2.415827 1_545
Ca0 O4 2.429604 1_554
Ca0 O3 2.429604 1_555
Ca0 O1 2.584281 1_544
Ca0 O2 2.584281 1_545
Ca0 O8 2.886411 1_555
Ca0 O7 2.886411 1_554
Ca1 O5 2.367900 1_655
Ca1 O0 2.415827 1_665
Ca1 O10 2.429604 1_555
Ca1 O9 2.429604 1_555
Ca1 O8 2.584281 1_565
Ca1 O7 2.584281 1_565
Ca1 O2 2.886411 1_655
Ca1 O1 2.886411 1_655
Ag0 O7 2.117261 1_455
Ag0 O11 2.119214 1_456
Ag0 O0 2.119419 1_555
Ag0 O4 2.125046 1_555
Ag0 O1 2.135073 1_545
Ag0 O9 2.172093 1_455
Ag1 O8 2.117261 1_455
Ag1 O11 2.119214 1_455
Ag1 O0 2.119419 1_555
Ag1 O3 2.125046 1_555
Ag1 O2 2.135073 1_545
Ag1 O10 2.172093 1_455
Ag2 O2 2.117261 1_555
Ag2 O5 2.119214 1_555
Ag2 O6 2.119419 1_555
Ag2 O10 2.125046 1_555
Ag2 O8 2.135073 1_565
Ag2 O3 2.172093 1_555
Ag3 O1 2.117261 1_555
Ag3 O5 2.119214 1_555
Ag3 O6 2.119419 1_556
Ag3 O9 2.125046 1_555
Ag3 O7 2.135073 1_565
Ag3 O4 2.172093 1_555
O0 Pr1 2.401909 1_555
O1 Pr0 2.424488 1_556
O2 Pr0 2.424488 1_555
O3 Pr0 2.582021 1_555
O3 Pr1 2.894447 1_555
O4 Pr0 2.582021 1_556
O4 Pr1 2.894447 1_555
O5 Pr1 2.445941 1_555
O6 Pr0 2.401909 1_655
O7 Pr1 2.424488 1_555
O8 Pr1 2.424488 1_555
O9 Pr1 2.582021 1_555
O9 Pr0 2.894447 1_656
O10 Pr1 2.582021 1_555
O10 Pr0 2.894447 1_655
O11 Pr0 2.445941 1_655
