# generated using pymatgen
data_ScMoN3
_symmetry_space_group_name_H-M   'P 1'
_cell_length_a   9.28047584
_cell_length_b   5.71612463
_cell_length_c   7.82068618
_cell_angle_alpha   106.05085368
_cell_angle_beta   102.89809038
_cell_angle_gamma   119.83916456
_symmetry_Int_Tables_number   1
_chemical_formula_structural   ScMoN3
_chemical_formula_sum   'Sc4 Mo4 N12'
_cell_volume   311.77395508
_cell_formula_units_Z   4
loop_
 _symmetry_equiv_pos_site_id
 _symmetry_equiv_pos_as_xyz
  1  'x, y, z'
loop_
 _atom_site_type_symbol
 _atom_site_label
 _atom_site_symmetry_multiplicity
 _atom_site_fract_x
 _atom_site_fract_y
 _atom_site_fract_z
 _atom_site_occupancy
  Sc  Sc0  1  0.67816800  0.60504600  0.32718100  1
  Sc  Sc1  1  0.32183200  0.39495400  0.67281900  1
  Sc  Sc2  1  0.76592000  0.78890900  0.89261500  1
  Sc  Sc3  1  0.23408000  0.21109100  0.10738500  1
  Mo  Mo0  1  0.98031500  0.73136700  0.68097500  1
  Mo  Mo1  1  0.01968500  0.26863300  0.31902500  1
  Mo  Mo2  1  0.59688600  0.98676500  0.17895300  1
  Mo  Mo3  1  0.40311400  0.01323500  0.82104700  1
  N  N0  1  0.81079700  0.81340000  0.63337700  1
  N  N1  1  0.18920300  0.18660000  0.36662300  1
  N  N2  1  0.81278000  0.37401500  0.38268400  1
  N  N3  1  0.18722000  0.62598500  0.61731600  1
  N  N4  1  0.97252300  0.70044700  0.89850400  1
  N  N5  1  0.02747700  0.29955300  0.10149600  1
  N  N6  1  0.54865100  0.85970600  0.88710500  1
  N  N7  1  0.45134900  0.14029400  0.11289500  1
  N  N8  1  0.78788300  0.86498600  0.18935500  1
  N  N9  1  0.21211700  0.13501400  0.81064500  1
  N  N10  1  0.52122200  0.29840600  0.74682500  1
  N  N11  1  0.47877800  0.70159400  0.25317500  1
loop_
_geom_bond_atom_site_label_1
_geom_bond_atom_site_label_2
_geom_bond_distance
_geom_bond_site_symmetry_2
Mo0 N4 1.771753 1_555
Mo0 N0 1.844618 1_555
Mo0 N9 1.942326 1_665
Mo0 N2 2.148770 1_555
Mo0 N3 2.389515 1_655
Mo1 N5 1.771753 1_555
Mo1 N1 1.844618 1_555
Mo1 N8 1.942326 1_445
Mo1 N3 2.148770 1_555
Mo1 N2 2.389515 1_455
Mo2 N11 1.795762 1_555
Mo2 N2 1.914139 1_565
Mo2 N7 1.995013 1_565
Mo2 N6 2.059395 1_554
Mo2 N8 2.197248 1_555
Mo3 N10 1.795762 1_555
Mo3 N3 1.914139 1_545
Mo3 N6 1.995013 1_545
Mo3 N7 2.059395 1_556
Mo3 N9 2.197248 1_555
N0 Sc0 2.077522 1_555
N0 Sc2 2.186177 1_555
N1 Sc1 2.077522 1_555
N1 Sc3 2.186177 1_555
N2 Sc0 2.282481 1_555
N3 Sc1 2.282481 1_555
N4 Sc2 2.207354 1_555
N4 Sc3 2.371272 1_666
N5 Sc3 2.207354 1_555
N5 Sc2 2.371272 1_444
N6 Sc1 2.166857 1_555
N6 Sc2 2.239242 1_555
N7 Sc0 2.166857 1_555
N7 Sc3 2.239242 1_555
N8 Sc0 2.067953 1_555
N8 Sc2 2.181491 1_554
N9 Sc1 2.067953 1_555
N9 Sc3 2.181491 1_556
N10 Sc1 2.185958 1_555
N10 Sc2 2.249080 1_555
N11 Sc0 2.185958 1_555
N11 Sc3 2.249080 1_555
