# generated using pymatgen
data_Fe2SiS4
_symmetry_space_group_name_H-M   'P 1'
_cell_length_a   6.98400600
_cell_length_b   6.98400600
_cell_length_c   6.98400600
_cell_angle_alpha   60.00000000
_cell_angle_beta   60.00000000
_cell_angle_gamma   60.00000000
_symmetry_Int_Tables_number   1
_chemical_formula_structural   Fe2SiS4
_chemical_formula_sum   'Fe4 Si2 S8'
_cell_volume   240.87892977
_cell_formula_units_Z   2
loop_
 _symmetry_equiv_pos_site_id
 _symmetry_equiv_pos_as_xyz
  1  'x, y, z'
loop_
 _atom_site_type_symbol
 _atom_site_label
 _atom_site_symmetry_multiplicity
 _atom_site_fract_x
 _atom_site_fract_y
 _atom_site_fract_z
 _atom_site_occupancy
  Fe  Fe0  1  0.12500000  0.62500000  0.12500000  1
  Fe  Fe1  1  0.62500000  0.12500000  0.12500000  1
  Fe  Fe2  1  0.12500000  0.12500000  0.12500000  1
  Fe  Fe3  1  0.12500000  0.12500000  0.62500000  1
  Si  Si0  1  0.50000000  0.50000000  0.50000000  1
  Si  Si1  1  0.75000000  0.75000000  0.75000000  1
  S  S0  1  0.37248600  0.88254100  0.37248600  1
  S  S1  1  0.88254100  0.37248600  0.37248600  1
  S  S2  1  0.37248600  0.37248600  0.37248600  1
  S  S3  1  0.37248600  0.37248600  0.88254100  1
  S  S4  1  0.87751400  0.36745900  0.87751400  1
  S  S5  1  0.36745900  0.87751400  0.87751400  1
  S  S6  1  0.87751400  0.87751400  0.87751400  1
  S  S7  1  0.87751400  0.87751400  0.36745900  1
loop_
_geom_bond_atom_site_label_1
_geom_bond_atom_site_label_2
_geom_bond_distance
_geom_bond_site_symmetry_2
Fe0 S6 2.444641 1_454
Fe0 S2 2.444641 1_555
Fe0 S1 2.444646 1_455
Fe0 S7 2.444646 1_455
Fe0 S5 2.444646 1_554
Fe0 S3 2.444646 1_554
Fe1 S6 2.444641 1_544
Fe1 S2 2.444641 1_555
Fe1 S4 2.444646 1_554
Fe1 S0 2.444646 1_545
Fe1 S7 2.444646 1_545
Fe1 S3 2.444646 1_554
Fe2 S4 2.444641 1_454
Fe2 S0 2.444641 1_545
Fe2 S7 2.444641 1_445
Fe2 S3 2.444641 1_554
Fe2 S5 2.444641 1_544
Fe2 S1 2.444641 1_455
Fe3 S6 2.444641 1_445
Fe3 S2 2.444641 1_555
Fe3 S5 2.444646 1_545
Fe3 S1 2.444646 1_455
Fe3 S4 2.444646 1_455
Fe3 S0 2.444646 1_545
S0 Si0 2.181408 1_555
S1 Si0 2.181408 1_555
S2 Si0 2.181414 1_555
S3 Si0 2.181408 1_555
S4 Si1 2.181408 1_555
S5 Si1 2.181408 1_555
S6 Si1 2.181414 1_555
S7 Si1 2.181408 1_555
