# generated using pymatgen
data_PrMgNi4
_symmetry_space_group_name_H-M   'P 1'
_cell_length_a   4.98410030
_cell_length_b   4.98408904
_cell_length_c   4.98409256
_cell_angle_alpha   60.00183093
_cell_angle_beta   60.00191059
_cell_angle_gamma   60.00187943
_symmetry_Int_Tables_number   1
_chemical_formula_structural   PrMgNi4
_chemical_formula_sum   'Pr1 Mg1 Ni4'
_cell_volume   87.55120255
_cell_formula_units_Z   1
loop_
 _symmetry_equiv_pos_site_id
 _symmetry_equiv_pos_as_xyz
  1  'x, y, z'
loop_
 _atom_site_type_symbol
 _atom_site_label
 _atom_site_symmetry_multiplicity
 _atom_site_fract_x
 _atom_site_fract_y
 _atom_site_fract_z
 _atom_site_occupancy
  Pr  Pr0  1  -0.00000075  -0.00000033  0.00000004  1
  Mg  Mg0  1  0.25000037  0.24999920  0.24999948  1
  Ni  Ni0  1  0.62326806  0.62326795  0.62326799  1
  Ni  Ni1  1  0.62327226  0.13018923  0.62327238  1
  Ni  Ni2  1  0.62327223  0.62327227  0.13018931  1
  Ni  Ni3  1  0.13018884  0.62327267  0.62327279  1
loop_
_geom_bond_atom_site_label_1
_geom_bond_atom_site_label_2
_geom_bond_distance
_geom_bond_site_symmetry_2
Mg0 Ni2 2.918591 1_555
Mg0 Ni1 2.918591 1_555
Mg0 Ni3 2.918594 1_555
Mg0 Ni3 2.918616 1_545
Mg0 Ni2 2.918616 1_545
Mg0 Ni3 2.918618 1_554
Mg0 Ni1 2.918619 1_554
Mg0 Ni2 2.918626 1_455
Mg0 Ni1 2.918626 1_455
Mg0 Ni0 2.918653 1_545
Mg0 Ni0 2.918656 1_554
Mg0 Ni0 2.918663 1_455
Mg0 Pr0 3.052079 1_555
Mg0 Pr0 3.052192 1_565
Mg0 Pr0 3.052194 1_655
Mg0 Pr0 3.052195 1_556
Ni0 Ni1 2.457527 1_555
Ni0 Ni2 2.457529 1_555
Ni0 Ni3 2.457533 1_555
Ni0 Ni1 2.526562 1_565
Ni0 Ni2 2.526564 1_556
Ni0 Ni3 2.526568 1_655
Ni0 Pr0 2.926015 1_656
Ni0 Pr0 2.926015 1_665
Ni0 Pr0 2.926022 1_566
Ni1 Ni2 2.457639 1_555
Ni1 Ni3 2.457644 1_555
Ni1 Ni2 2.526590 1_546
Ni1 Ni3 2.526592 1_645
Ni1 Pr0 2.925903 1_656
Ni1 Pr0 2.925993 1_655
Ni1 Pr0 2.925999 1_556
Ni2 Ni3 2.457646 1_555
Ni2 Ni3 2.526594 1_654
Ni2 Pr0 2.925902 1_665
Ni2 Pr0 2.925991 1_655
Ni2 Pr0 2.925997 1_565
Ni3 Pr0 2.925899 1_566
Ni3 Pr0 2.925992 1_556
Ni3 Pr0 2.925992 1_565
