# generated using pymatgen
data_Pu(AlGa)2
_symmetry_space_group_name_H-M   'P 1'
_cell_length_a   7.82232904
_cell_length_b   7.82232904
_cell_length_c   7.82232904
_cell_angle_alpha   148.00173555
_cell_angle_beta   132.58243406
_cell_angle_gamma   58.35098052
_symmetry_Int_Tables_number   1
_chemical_formula_structural   Pu(AlGa)2
_chemical_formula_sum   'Pu2 Al4 Ga4'
_cell_volume   185.26094767
_cell_formula_units_Z   2
loop_
 _symmetry_equiv_pos_site_id
 _symmetry_equiv_pos_as_xyz
  1  'x, y, z'
loop_
 _atom_site_type_symbol
 _atom_site_label
 _atom_site_symmetry_multiplicity
 _atom_site_fract_x
 _atom_site_fract_y
 _atom_site_fract_z
 _atom_site_occupancy
  Pu  Pu0  1  0.13413969  0.88413969  0.25000000  1
  Pu  Pu1  1  0.86586031  0.11586031  0.75000000  1
  Al  Al0  1  0.35726465  0.10726465  0.25000000  1
  Al  Al1  1  0.64273535  0.89273535  0.75000000  1
  Al  Al2  1  0.50000000  0.50000000  0.00000000  1
  Al  Al3  1  0.00000000  0.50000000  0.50000000  1
  Ga  Ga0  1  0.66010717  0.69786595  0.96224121  1
  Ga  Ga1  1  0.33989283  0.30213405  0.03775879  1
  Ga  Ga2  1  0.76437526  0.30213405  0.46224121  1
  Ga  Ga3  1  0.23562474  0.69786595  0.53775879  1
loop_
_geom_bond_atom_site_label_1
_geom_bond_atom_site_label_2
_geom_bond_distance
_geom_bond_site_symmetry_2
Al0 Ga3 2.821800 1_544
Al0 Ga3 2.821800 1_555
Al0 Ga0 2.821800 1_555
Al0 Ga0 2.821800 1_544
Al0 Ga1 2.977942 1_555
Al0 Ga2 2.977942 1_555
Al0 Al3 3.044409 1_544
Al0 Al2 3.044409 1_545
Al0 Al2 3.044409 1_556
Al0 Al3 3.044409 1_555
Al0 Pu0 3.047849 1_545
Al0 Pu1 3.147457 1_555
Al0 Pu1 3.147457 1_454
Al1 Ga2 2.821800 1_566
Al1 Ga2 2.821800 1_555
Al1 Ga1 2.821800 1_555
Al1 Ga1 2.821800 1_566
Al1 Ga0 2.977942 1_555
Al1 Ga3 2.977942 1_555
Al1 Al3 3.044409 1_666
Al1 Al3 3.044409 1_655
Al1 Al2 3.044409 1_555
Al1 Al2 3.044409 1_566
Al1 Pu1 3.047849 1_565
Al1 Pu0 3.147457 1_555
Al1 Pu0 3.147457 1_656
Al2 Ga1 2.713232 1_555
Al2 Ga0 2.713232 1_554
Al2 Pu1 3.102626 1_554
Al2 Pu0 3.102626 1_555
Al2 Pu0 3.102626 1_544
Al2 Pu1 3.102626 1_565
Al2 Al3 3.145266 1_554
Al2 Al3 3.145266 1_655
Al3 Ga3 2.713232 1_555
Al3 Ga2 2.713232 1_455
Al3 Pu0 3.102626 1_545
Al3 Pu0 3.102626 1_556
Al3 Pu1 3.102626 1_465
Al3 Pu1 3.102626 1_454
Ga0 Ga2 2.583984 1_555
Ga0 Ga2 2.583984 1_566
Ga0 Ga3 2.670220 1_555
Ga0 Pu1 3.029829 1_555
Ga0 Pu1 3.029829 1_566
Ga0 Pu0 3.122656 1_656
Ga1 Ga3 2.583984 1_555
Ga1 Ga3 2.583984 1_544
Ga1 Ga2 2.670220 1_555
Ga1 Pu0 3.029829 1_555
Ga1 Pu0 3.029829 1_544
Ga1 Pu1 3.122656 1_454
Ga2 Pu0 3.029829 1_645
Ga2 Pu0 3.029829 1_656
Ga2 Pu1 3.122656 1_555
Ga3 Pu1 3.029829 1_465
Ga3 Pu1 3.029829 1_454
Ga3 Pu0 3.122656 1_555
