# generated using pymatgen
data_BaAl4Se7
_symmetry_space_group_name_H-M   'P 1'
_cell_length_a   6.57916280
_cell_length_b   7.68530168
_cell_length_c   14.81562467
_cell_angle_alpha   58.93759710
_cell_angle_beta   90.00000000
_cell_angle_gamma   90.00000000
_symmetry_Int_Tables_number   1
_chemical_formula_structural   BaAl4Se7
_chemical_formula_sum   'Ba2 Al8 Se14'
_cell_volume   641.70076118
_cell_formula_units_Z   2
loop_
 _symmetry_equiv_pos_site_id
 _symmetry_equiv_pos_as_xyz
  1  'x, y, z'
loop_
 _atom_site_type_symbol
 _atom_site_label
 _atom_site_symmetry_multiplicity
 _atom_site_fract_x
 _atom_site_fract_y
 _atom_site_fract_z
 _atom_site_occupancy
  Ba  Ba0  1  0.64248253  0.43459533  0.54607866  1
  Ba  Ba1  1  0.35751747  0.43459533  0.04607866  1
  Al  Al0  1  0.83989648  0.99159698  0.24139536  1
  Al  Al1  1  0.16010352  0.99159698  0.74139536  1
  Al  Al2  1  0.98602466  0.99812586  0.50260770  1
  Al  Al3  1  0.01397534  0.99812586  0.00260770  1
  Al  Al4  1  0.84697894  0.50844748  0.22822879  1
  Al  Al5  1  0.15302106  0.50844748  0.72822879  1
  Al  Al6  1  0.63360041  0.76399510  0.72475673  1
  Al  Al7  1  0.36639959  0.76399510  0.22475673  1
  Se  Se0  1  0.85481740  0.20898941  0.05680264  1
  Se  Se1  1  0.14518260  0.20898941  0.55680264  1
  Se  Se2  1  0.63694044  0.99138028  0.54119777  1
  Se  Se3  1  0.36305956  0.99138028  0.04119777  1
  Se  Se4  1  0.89686612  0.67257257  0.04551476  1
  Se  Se5  1  0.10313388  0.67257257  0.54551476  1
  Se  Se6  1  0.97633170  0.67482470  0.80647540  1
  Se  Se7  1  0.02366830  0.67482470  0.30647540  1
  Se  Se8  1  0.48462977  0.90407888  0.81905846  1
  Se  Se9  1  0.51537023  0.90407888  0.31905846  1
  Se  Se10  1  0.49703341  0.43965137  0.77757459  1
  Se  Se11  1  0.50296659  0.43965137  0.27757459  1
  Se  Se12  1  0.97918091  0.18044205  0.80802515  1
  Se  Se13  1  0.02081909  0.18044205  0.30802515  1
loop_
_geom_bond_atom_site_label_1
_geom_bond_atom_site_label_2
_geom_bond_distance
_geom_bond_site_symmetry_2
Ba0 Se2 3.444303 1_545
Ba0 Se9 3.536570 1_555
Ba0 Se5 3.537573 1_655
Ba0 Se10 3.580222 1_555
Ba0 Se1 3.667695 1_555
Ba0 Se1 3.699424 1_655
Ba1 Se3 3.444303 1_545
Ba1 Se8 3.536570 1_554
Ba1 Se4 3.537573 1_455
Ba1 Se11 3.580222 1_555
Ba1 Se0 3.667695 1_555
Ba1 Se0 3.699424 1_455
Al0 Se9 2.352956 1_555
Al0 Se0 2.359079 1_565
Al0 Se7 2.428157 1_655
Al0 Se13 2.444622 1_665
Al1 Se8 2.352956 1_555
Al1 Se1 2.359079 1_565
Al1 Se6 2.428157 1_455
Al1 Se12 2.444622 1_465
Al2 Se2 2.360875 1_555
Al2 Se5 2.369880 1_655
Al2 Se1 2.389584 1_665
Al2 Se13 2.481566 1_665
Al3 Se3 2.360875 1_555
Al3 Se4 2.369880 1_455
Al3 Se0 2.389584 1_465
Al3 Se12 2.481566 1_464
Al4 Se4 2.345875 1_555
Al4 Se11 2.353239 1_555
Al4 Se7 2.420718 1_655
Al4 Se13 2.446410 1_655
Al5 Se5 2.345875 1_555
Al5 Se10 2.353239 1_555
Al5 Se6 2.420718 1_455
Al5 Se12 2.446410 1_455
Al6 Se2 2.354985 1_555
Al6 Se10 2.370695 1_555
Al6 Se8 2.371460 1_555
Al6 Se6 2.482693 1_555
Al7 Se3 2.354985 1_555
Al7 Se11 2.370695 1_555
Al7 Se9 2.371460 1_555
Al7 Se7 2.482693 1_555
