# generated using pymatgen
data_Mg5In
_symmetry_space_group_name_H-M   'P 1'
_cell_length_a   6.06202789
_cell_length_b   6.06202789
_cell_length_c   6.06202796
_cell_angle_alpha   53.71595020
_cell_angle_beta   53.71595020
_cell_angle_gamma   53.71595673
_symmetry_Int_Tables_number   1
_chemical_formula_structural   Mg5In
_chemical_formula_sum   'Mg5 In1'
_cell_volume   134.37641631
_cell_formula_units_Z   1
loop_
 _symmetry_equiv_pos_site_id
 _symmetry_equiv_pos_as_xyz
  1  'x, y, z'
loop_
 _atom_site_type_symbol
 _atom_site_label
 _atom_site_symmetry_multiplicity
 _atom_site_fract_x
 _atom_site_fract_y
 _atom_site_fract_z
 _atom_site_occupancy
  Mg  Mg0  1  0.50000000  0.16638943  0.83361057  1
  Mg  Mg1  1  0.16638943  0.83361057  0.50000000  1
  Mg  Mg2  1  0.83361057  0.50000000  0.16638943  1
  Mg  Mg3  1  0.33268671  0.33268671  0.33268671  1
  Mg  Mg4  1  0.66731329  0.66731329  0.66731329  1
  In  In0  1  -0.00000000  0.00000000  0.00000000  1
loop_
_geom_bond_atom_site_label_1
_geom_bond_atom_site_label_2
_geom_bond_distance
_geom_bond_site_symmetry_2
Mg0 Mg3 3.156878 1_556
Mg0 Mg4 3.156878 1_545
Mg0 Mg1 3.161071 1_546
Mg0 Mg1 3.161071 1_645
Mg0 Mg2 3.161071 1_546
Mg0 Mg2 3.161071 1_456
Mg0 Mg2 3.165015 1_555
Mg0 Mg1 3.165016 1_555
Mg0 Mg4 3.174582 1_555
Mg0 Mg3 3.174582 1_555
Mg1 Mg3 3.156878 1_565
Mg1 Mg4 3.156878 1_455
Mg1 Mg2 3.161071 1_456
Mg1 Mg2 3.161071 1_465
Mg1 Mg2 3.165016 1_555
Mg1 Mg3 3.174582 1_555
Mg1 Mg4 3.174582 1_555
Mg2 Mg4 3.156878 1_554
Mg2 Mg3 3.156878 1_655
Mg2 Mg3 3.174582 1_555
Mg2 Mg4 3.174582 1_555
Mg3 Mg4 3.162449 1_554
Mg3 Mg4 3.162449 1_545
Mg3 Mg4 3.162449 1_455
In0 Mg4 3.162401 1_445
In0 Mg3 3.162401 1_554
In0 Mg3 3.162401 1_545
In0 Mg4 3.162401 1_544
In0 Mg4 3.162401 1_454
In0 Mg3 3.162401 1_455
In0 Mg2 3.165069 1_445
In0 Mg0 3.165069 1_554
In0 Mg1 3.165070 1_544
In0 Mg1 3.165070 1_545
In0 Mg0 3.165070 1_454
In0 Mg2 3.165070 1_455
