# generated using pymatgen
data_Fe4IrN4
_symmetry_space_group_name_H-M   'P 1'
_cell_length_a   5.64608659
_cell_length_b   5.75338325
_cell_length_c   7.58775019
_cell_angle_alpha   57.59445630
_cell_angle_beta   67.19623710
_cell_angle_gamma   56.72039645
_symmetry_Int_Tables_number   1
_chemical_formula_structural   Fe4IrN4
_chemical_formula_sum   'Fe8 Ir2 N8'
_cell_volume   172.43714613
_cell_formula_units_Z   2
loop_
 _symmetry_equiv_pos_site_id
 _symmetry_equiv_pos_as_xyz
  1  'x, y, z'
loop_
 _atom_site_type_symbol
 _atom_site_label
 _atom_site_symmetry_multiplicity
 _atom_site_fract_x
 _atom_site_fract_y
 _atom_site_fract_z
 _atom_site_occupancy
  Fe  Fe0  1  0.74393900  0.59159300  0.21845100  1
  Fe  Fe1  1  0.25606100  0.40840700  0.78154900  1
  Fe  Fe2  1  0.68322400  0.19999500  0.02928300  1
  Fe  Fe3  1  0.31677600  0.80000500  0.97071700  1
  Fe  Fe4  1  0.75322900  0.51258600  0.57604100  1
  Fe  Fe5  1  0.24677100  0.48741400  0.42395900  1
  Fe  Fe6  1  0.28658200  0.94241800  0.59188200  1
  Fe  Fe7  1  0.71341800  0.05758200  0.40811800  1
  Ir  Ir0  1  0.79727000  0.93093200  0.77780900  1
  Ir  Ir1  1  0.20273000  0.06906800  0.22219100  1
  N  N0  1  0.94895700  0.66636800  0.61228400  1
  N  N1  1  0.05104300  0.33363200  0.38771600  1
  N  N2  1  0.94981100  0.81680600  0.01613700  1
  N  N3  1  0.05018900  0.18319400  0.98386300  1
  N  N4  1  0.46946400  0.54741900  0.80963700  1
  N  N5  1  0.53053600  0.45258100  0.19036300  1
  N  N6  1  0.57025500  0.89182300  0.33519100  1
  N  N7  1  0.42974500  0.10817700  0.66481000  1
loop_
_geom_bond_atom_site_label_1
_geom_bond_atom_site_label_2
_geom_bond_distance
_geom_bond_site_symmetry_2
Fe0 N2 1.877337 1_555
Fe0 N5 1.891076 1_555
Fe0 N1 1.928147 1_655
Fe0 N6 1.958989 1_555
Fe1 N3 1.877337 1_555
Fe1 N4 1.891076 1_555
Fe1 N0 1.928147 1_455
Fe1 N7 1.958983 1_555
Fe2 N4 1.889644 1_554
Fe2 N2 1.900920 1_545
Fe2 N3 1.919209 1_654
Fe2 N5 2.015193 1_555
Fe2 N6 2.149575 1_545
Fe3 N5 1.889644 1_556
Fe3 N3 1.900920 1_565
Fe3 N2 1.919209 1_456
Fe3 N4 2.015193 1_555
Fe3 N7 2.149571 1_565
Fe4 N4 1.890983 1_555
Fe4 N0 1.910255 1_555
Fe4 N1 1.934895 1_655
Fe4 N6 1.970697 1_555
Fe5 N5 1.890983 1_555
Fe5 N1 1.910255 1_555
Fe5 N0 1.934895 1_455
Fe5 N7 1.970701 1_555
Fe6 N7 1.904572 1_565
Fe6 N4 1.919228 1_555
Fe6 N1 1.951739 1_565
Fe6 N6 2.030139 1_555
Fe7 N6 1.904567 1_545
Fe7 N5 1.919228 1_555
Fe7 N0 1.951739 1_545
Fe7 N7 2.030145 1_555
Ir0 N2 1.938326 1_556
Ir0 N7 2.049564 1_565
Ir0 N0 2.100577 1_555
Ir1 N3 1.938326 1_554
Ir1 N6 2.049568 1_545
Ir1 N1 2.100577 1_555
