# generated using pymatgen
data_Ho3TlS6
_symmetry_space_group_name_H-M   'P 1'
_cell_length_a   11.03477113
_cell_length_b   11.03477113
_cell_length_c   34.58747800
_cell_angle_alpha   90.00000000
_cell_angle_beta   90.00000000
_cell_angle_gamma   113.27896881
_symmetry_Int_Tables_number   1
_chemical_formula_structural   Ho3TlS6
_chemical_formula_sum   'Ho3 Tl1 S6'
_cell_volume   3868.72609575
_cell_formula_units_Z   1
loop_
 _symmetry_equiv_pos_site_id
 _symmetry_equiv_pos_as_xyz
  1  'x, y, z'
loop_
 _atom_site_type_symbol
 _atom_site_label
 _atom_site_symmetry_multiplicity
 _atom_site_fract_x
 _atom_site_fract_y
 _atom_site_fract_z
 _atom_site_occupancy
  Ho  Ho0  1  0.00000000  0.00000000  0.50000000  1
  Ho  Ho1  1  0.50000000  0.00000000  0.00000000  1
  Ho  Ho2  1  0.00000000  0.50000000  0.00000000  1
  Tl  Tl0  1  0.00000000  0.00000000  0.00000000  1
  S  S0  1  0.00000000  0.00000000  0.23135700  1
  S  S1  1  0.00000000  0.00000000  0.76864300  1
  S  S2  1  0.27117200  0.97220900  0.00000000  1
  S  S3  1  0.72882800  0.02779100  0.00000000  1
  S  S4  1  0.97220900  0.27117200  0.00000000  1
  S  S5  1  0.02779100  0.72882800  0.00000000  1
loop_
_geom_bond_atom_site_label_1
_geom_bond_atom_site_label_2
_geom_bond_distance
_geom_bond_site_symmetry_2
Ho1 S2 2.420317 1_545
Ho1 S3 2.420317 1_555
Ho2 S4 2.420317 1_455
Ho2 S5 2.420317 1_555
S2 Tl0 3.126236 1_565
S3 Tl0 3.126236 1_655
S4 Tl0 3.126236 1_655
S5 Tl0 3.126236 1_565
