# generated using pymatgen
data_Ca3Hg
_symmetry_space_group_name_H-M   'P 1'
_cell_length_a   7.97064400
_cell_length_b   10.29176600
_cell_length_c   6.94829300
_cell_angle_alpha   90.00000000
_cell_angle_beta   90.00000000
_cell_angle_gamma   90.00000000
_symmetry_Int_Tables_number   1
_chemical_formula_structural   Ca3Hg
_chemical_formula_sum   'Ca12 Hg4'
_cell_volume   569.98239165
_cell_formula_units_Z   4
loop_
 _symmetry_equiv_pos_site_id
 _symmetry_equiv_pos_as_xyz
  1  'x, y, z'
loop_
 _atom_site_type_symbol
 _atom_site_label
 _atom_site_symmetry_multiplicity
 _atom_site_fract_x
 _atom_site_fract_y
 _atom_site_fract_z
 _atom_site_occupancy
  Ca  Ca0  1  0.67943300  0.05970600  0.33832600  1
  Ca  Ca1  1  0.17943300  0.44029400  0.16167400  1
  Ca  Ca2  1  0.32056700  0.55970600  0.66167400  1
  Ca  Ca3  1  0.82056700  0.94029400  0.83832600  1
  Ca  Ca4  1  0.32056700  0.94029400  0.66167400  1
  Ca  Ca5  1  0.82056700  0.55970600  0.83832600  1
  Ca  Ca6  1  0.67943300  0.44029400  0.33832600  1
  Ca  Ca7  1  0.17943300  0.05970600  0.16167400  1
  Ca  Ca8  1  0.52963000  0.25000000  0.86390000  1
  Ca  Ca9  1  0.02963000  0.25000000  0.63610000  1
  Ca  Ca10  1  0.47037000  0.75000000  0.13610000  1
  Ca  Ca11  1  0.97037000  0.75000000  0.36390000  1
  Hg  Hg0  1  0.88144800  0.25000000  0.05610600  1
  Hg  Hg1  1  0.38144800  0.25000000  0.44389400  1
  Hg  Hg2  1  0.11855200  0.75000000  0.94389400  1
  Hg  Hg3  1  0.61855200  0.75000000  0.55610600  1
loop_
_geom_bond_atom_site_label_1
_geom_bond_atom_site_label_2
_geom_bond_distance
_geom_bond_site_symmetry_2
Ca0 Hg1 3.164628 1_555
Ca0 Hg0 3.205245 1_555
Ca0 Hg3 3.561588 1_545
Ca1 Hg0 3.164628 1_455
Ca1 Hg1 3.205245 1_555
Ca1 Hg2 3.561588 1_554
Ca2 Hg3 3.164628 1_555
Ca2 Hg2 3.205245 1_555
Ca2 Hg1 3.561588 1_555
Ca3 Hg2 3.164628 1_655
Ca3 Hg3 3.205245 1_555
Ca3 Hg0 3.561588 1_566
Ca4 Hg3 3.164628 1_555
Ca4 Hg2 3.205245 1_555
Ca4 Hg1 3.561588 1_565
Ca5 Hg2 3.164628 1_655
Ca5 Hg3 3.205245 1_555
Ca5 Hg0 3.561588 1_556
Ca6 Hg1 3.164628 1_555
Ca6 Hg0 3.205245 1_555
Ca6 Hg3 3.561588 1_555
Ca7 Hg0 3.164628 1_455
Ca7 Hg1 3.205245 1_555
Ca7 Hg2 3.561588 1_544
Ca8 Hg0 3.105994 1_556
Ca8 Hg1 3.148274 1_555
Ca9 Hg1 3.105994 1_555
Ca9 Hg0 3.148274 1_456
Ca10 Hg2 3.105994 1_554
Ca10 Hg3 3.148274 1_555
Ca11 Hg3 3.105994 1_555
Ca11 Hg2 3.148274 1_654
