# generated using pymatgen
data_Sm5Sn4
_symmetry_space_group_name_H-M   'P 1'
_cell_length_a   8.18922000
_cell_length_b   8.36455600
_cell_length_c   15.88332200
_cell_angle_alpha   90.00000000
_cell_angle_beta   90.00000000
_cell_angle_gamma   90.00000000
_symmetry_Int_Tables_number   1
_chemical_formula_structural   Sm5Sn4
_chemical_formula_sum   'Sm20 Sn16'
_cell_volume   1087.99468017
_cell_formula_units_Z   4
loop_
 _symmetry_equiv_pos_site_id
 _symmetry_equiv_pos_as_xyz
  1  'x, y, z'
loop_
 _atom_site_type_symbol
 _atom_site_label
 _atom_site_symmetry_multiplicity
 _atom_site_fract_x
 _atom_site_fract_y
 _atom_site_fract_z
 _atom_site_occupancy
  Sm  Sm0  1  0.36725500  0.83427600  0.87912400  1
  Sm  Sm1  1  0.86725500  0.66572400  0.62087600  1
  Sm  Sm2  1  0.63274500  0.16572400  0.37912400  1
  Sm  Sm3  1  0.13274500  0.33427600  0.12087600  1
  Sm  Sm4  1  0.63274500  0.16572400  0.12087600  1
  Sm  Sm5  1  0.13274500  0.33427600  0.37912400  1
  Sm  Sm6  1  0.36725500  0.83427600  0.62087600  1
  Sm  Sm7  1  0.86725500  0.66572400  0.87912400  1
  Sm  Sm8  1  0.52038300  0.31946400  0.90049100  1
  Sm  Sm9  1  0.02038300  0.18053600  0.59950900  1
  Sm  Sm10  1  0.47961700  0.68053600  0.40049100  1
  Sm  Sm11  1  0.97961700  0.81946400  0.09950900  1
  Sm  Sm12  1  0.47961700  0.68053600  0.09950900  1
  Sm  Sm13  1  0.97961700  0.81946400  0.40049100  1
  Sm  Sm14  1  0.52038300  0.31946400  0.59950900  1
  Sm  Sm15  1  0.02038300  0.18053600  0.90049100  1
  Sm  Sm16  1  0.19721500  0.50204600  0.75000000  1
  Sm  Sm17  1  0.69721500  0.99795400  0.75000000  1
  Sm  Sm18  1  0.80278500  0.49795400  0.25000000  1
  Sm  Sm19  1  0.30278500  0.00204600  0.25000000  1
  Sn  Sn0  1  0.29329600  0.03335000  0.04139400  1
  Sn  Sn1  1  0.79329600  0.46665000  0.45860600  1
  Sn  Sn2  1  0.70670400  0.96665000  0.54139400  1
  Sn  Sn3  1  0.20670400  0.53335000  0.95860600  1
  Sn  Sn4  1  0.70670400  0.96665000  0.95860600  1
  Sn  Sn5  1  0.20670400  0.53335000  0.54139400  1
  Sn  Sn6  1  0.29329600  0.03335000  0.45860600  1
  Sn  Sn7  1  0.79329600  0.46665000  0.04139400  1
  Sn  Sn8  1  0.56603100  0.61891600  0.75000000  1
  Sn  Sn9  1  0.06603100  0.88108400  0.75000000  1
  Sn  Sn10  1  0.43396900  0.38108400  0.25000000  1
  Sn  Sn11  1  0.93396900  0.11891600  0.25000000  1
  Sn  Sn12  1  0.32570700  0.14430900  0.75000000  1
  Sn  Sn13  1  0.82570700  0.35569100  0.75000000  1
  Sn  Sn14  1  0.67429300  0.85569100  0.25000000  1
  Sn  Sn15  1  0.17429300  0.64430900  0.25000000  1
loop_
_geom_bond_atom_site_label_1
_geom_bond_atom_site_label_2
_geom_bond_distance
_geom_bond_site_symmetry_2
Sm0 Sn3 3.107776 1_555
Sm0 Sn0 3.127704 1_566
Sm0 Sn8 3.178219 1_555
Sm0 Sn9 3.231812 1_555
Sm0 Sn4 3.247640 1_555
Sm0 Sn12 3.323729 1_565
Sm1 Sn2 3.107776 1_555
Sm1 Sn1 3.127704 1_555
Sm1 Sn9 3.178219 1_655
Sm1 Sn8 3.231812 1_555
Sm1 Sn5 3.247640 1_655
Sm1 Sn13 3.323729 1_555
Sm2 Sn1 3.107776 1_555
Sm2 Sn2 3.127704 1_545
Sm2 Sn10 3.178219 1_555
Sm2 Sn11 3.231812 1_555
Sm2 Sn6 3.247640 1_555
Sm2 Sn14 3.323729 1_545
Sm3 Sn0 3.107776 1_555
Sm3 Sn3 3.127704 1_554
Sm3 Sn11 3.178219 1_455
Sm3 Sn10 3.231812 1_555
Sm3 Sn7 3.247640 1_455
Sm3 Sn15 3.323729 1_555
Sm4 Sn7 3.107776 1_555
Sm4 Sn4 3.127704 1_544
Sm4 Sn10 3.178219 1_555
Sm4 Sn11 3.231812 1_555
Sm4 Sn0 3.247640 1_555
Sm4 Sn14 3.323729 1_545
Sm5 Sn6 3.107776 1_555
Sm5 Sn5 3.127704 1_555
Sm5 Sn11 3.178219 1_455
Sm5 Sn10 3.231812 1_555
Sm5 Sn1 3.247640 1_455
Sm5 Sn15 3.323729 1_555
Sm6 Sn5 3.107776 1_555
Sm6 Sn6 3.127704 1_565
Sm6 Sn8 3.178219 1_555
Sm6 Sn9 3.231812 1_555
Sm6 Sn2 3.247640 1_555
Sm6 Sn12 3.323729 1_565
Sm7 Sn4 3.107776 1_555
Sm7 Sn7 3.127704 1_556
Sm7 Sn9 3.178219 1_655
Sm7 Sn8 3.231812 1_555
Sm7 Sn3 3.247640 1_655
Sm7 Sn13 3.323729 1_555
Sm8 Sn12 3.225157 1_555
Sm8 Sn3 3.263655 1_555
Sm8 Sn7 3.394021 1_556
Sm8 Sn4 3.448095 1_545
Sm8 Sn13 3.472344 1_555
Sm8 Sn8 3.482413 1_555
Sm8 Sn0 3.767561 1_556
Sm9 Sn13 3.225157 1_455
Sm9 Sn2 3.263655 1_445
Sm9 Sn6 3.394021 1_555
Sm9 Sn5 3.448095 1_555
Sm9 Sn12 3.472344 1_555
Sm9 Sn9 3.482413 1_545
Sm9 Sn1 3.767561 1_455
Sm10 Sn14 3.225157 1_555
Sm10 Sn1 3.263655 1_555
Sm10 Sn5 3.394021 1_555
Sm10 Sn6 3.448095 1_565
Sm10 Sn15 3.472344 1_555
Sm10 Sn10 3.482413 1_555
Sm10 Sn2 3.767561 1_555
Sm11 Sn15 3.225157 1_655
Sm11 Sn0 3.263655 1_665
Sm11 Sn4 3.394021 1_554
Sm11 Sn7 3.448095 1_555
Sm11 Sn14 3.472344 1_555
Sm11 Sn11 3.482413 1_565
Sm11 Sn3 3.767561 1_654
Sm12 Sn14 3.225157 1_555
Sm12 Sn7 3.263655 1_555
Sm12 Sn3 3.394021 1_554
Sm12 Sn0 3.448095 1_565
Sm12 Sn15 3.472344 1_555
Sm12 Sn10 3.482413 1_555
Sm12 Sn4 3.767561 1_554
Sm13 Sn15 3.225157 1_655
Sm13 Sn6 3.263655 1_665
Sm13 Sn2 3.394021 1_555
Sm13 Sn1 3.448095 1_555
Sm13 Sn14 3.472344 1_555
Sm13 Sn11 3.482413 1_565
Sm13 Sn5 3.767561 1_655
Sm14 Sn12 3.225157 1_555
Sm14 Sn5 3.263655 1_555
Sm14 Sn1 3.394021 1_555
Sm14 Sn2 3.448095 1_545
Sm14 Sn13 3.472344 1_555
Sm14 Sn8 3.482413 1_555
Sm14 Sn6 3.767561 1_555
Sm15 Sn13 3.225157 1_455
Sm15 Sn4 3.263655 1_445
Sm15 Sn0 3.394021 1_556
Sm15 Sn3 3.448095 1_555
Sm15 Sn12 3.472344 1_555
Sm15 Sn9 3.482413 1_545
Sm15 Sn7 3.767561 1_456
Sm16 Sn12 3.171932 1_555
Sm16 Sn8 3.174577 1_555
Sm16 Sn13 3.279422 1_455
Sm16 Sn3 3.324595 1_555
Sm16 Sn5 3.324595 1_555
Sm16 Sn9 3.347549 1_555
Sm17 Sn13 3.171932 1_565
Sm17 Sn9 3.174577 1_655
Sm17 Sn12 3.279422 1_565
Sm17 Sn4 3.324595 1_555
Sm17 Sn2 3.324595 1_555
Sm17 Sn8 3.347549 1_555
Sm18 Sn14 3.171932 1_555
Sm18 Sn10 3.174577 1_555
Sm18 Sn15 3.279422 1_655
Sm18 Sn1 3.324595 1_555
Sm18 Sn7 3.324595 1_555
Sm18 Sn11 3.347549 1_555
Sm19 Sn15 3.171932 1_545
Sm19 Sn11 3.174577 1_455
Sm19 Sn14 3.279422 1_545
Sm19 Sn6 3.324595 1_555
Sm19 Sn0 3.324595 1_555
Sm19 Sn10 3.347549 1_555
Sn10 Sn15 3.061035 1_555
Sn11 Sn14 3.061035 1_545
Sn12 Sn9 3.061035 1_545
Sn13 Sn8 3.061035 1_555
