# generated using pymatgen
data_CeMg6Si
_symmetry_space_group_name_H-M   'P 1'
_cell_length_a   4.89875700
_cell_length_b   5.86503000
_cell_length_c   12.97220600
_cell_angle_alpha   90.00000000
_cell_angle_beta   90.00000000
_cell_angle_gamma   90.00000000
_symmetry_Int_Tables_number   1
_chemical_formula_structural   CeMg6Si
_chemical_formula_sum   'Ce2 Mg12 Si2'
_cell_volume   372.70907865
_cell_formula_units_Z   2
loop_
 _symmetry_equiv_pos_site_id
 _symmetry_equiv_pos_as_xyz
  1  'x, y, z'
loop_
 _atom_site_type_symbol
 _atom_site_label
 _atom_site_symmetry_multiplicity
 _atom_site_fract_x
 _atom_site_fract_y
 _atom_site_fract_z
 _atom_site_occupancy
  Ce  Ce0  1  0.50000000  0.50000000  0.69459900  1
  Ce  Ce1  1  0.50000000  0.00000000  0.19459900  1
  Mg  Mg0  1  0.50000000  0.75303100  0.93833000  1
  Mg  Mg1  1  0.50000000  0.24696900  0.93833000  1
  Mg  Mg2  1  0.00000000  0.25077000  0.57383600  1
  Mg  Mg3  1  0.00000000  0.74923000  0.57383600  1
  Mg  Mg4  1  0.00000000  0.50000000  0.85512700  1
  Mg  Mg5  1  0.00000000  0.00000000  0.79138900  1
  Mg  Mg6  1  0.50000000  0.25303100  0.43833000  1
  Mg  Mg7  1  0.50000000  0.74696900  0.43833000  1
  Mg  Mg8  1  0.00000000  0.75077000  0.07383600  1
  Mg  Mg9  1  0.00000000  0.24923000  0.07383600  1
  Mg  Mg10  1  0.00000000  0.00000000  0.35512700  1
  Mg  Mg11  1  0.00000000  0.50000000  0.29138900  1
  Si  Si0  1  0.50000000  0.00000000  0.63454900  1
  Si  Si1  1  0.50000000  0.50000000  0.13454900  1
loop_
_geom_bond_atom_site_label_1
_geom_bond_atom_site_label_2
_geom_bond_distance
_geom_bond_site_symmetry_2
Ce0 Si0 3.034214 1_555
Ce0 Si0 3.034214 1_565
Ce0 Mg4 3.214942 1_655
Ce0 Mg4 3.214942 1_555
Ce0 Mg2 3.254268 1_555
Ce0 Mg3 3.254268 1_655
Ce0 Mg2 3.254268 1_655
Ce0 Mg3 3.254268 1_555
Ce1 Si1 3.034214 1_555
Ce1 Si1 3.034214 1_545
Ce1 Mg10 3.214942 1_555
Ce1 Mg10 3.214942 1_655
Ce1 Mg9 3.254268 1_655
Ce1 Mg8 3.254268 1_545
Ce1 Mg8 3.254268 1_645
Ce1 Mg9 3.254268 1_555
Mg0 Si1 2.946419 1_556
Mg0 Mg8 3.014885 1_656
Mg0 Mg8 3.014885 1_556
Mg0 Mg4 3.060516 1_555
Mg0 Mg4 3.060516 1_655
Mg0 Mg5 3.425048 1_665
Mg0 Mg5 3.425048 1_565
Mg1 Si1 2.946419 1_556
Mg1 Mg9 3.014885 1_556
Mg1 Mg9 3.014885 1_656
Mg1 Mg4 3.060516 1_555
Mg1 Mg4 3.060516 1_655
Mg1 Mg5 3.425048 1_555
Mg1 Mg5 3.425048 1_655
Mg2 Mg3 2.923483 1_555
Mg2 Mg3 2.941547 1_545
Mg2 Si0 2.963598 1_555
Mg2 Si0 2.963598 1_455
Mg2 Mg6 3.014885 1_455
Mg2 Mg6 3.014885 1_555
Mg2 Mg5 3.182399 1_555
Mg3 Si0 2.963598 1_465
Mg3 Si0 2.963598 1_565
Mg3 Mg7 3.014885 1_555
Mg3 Mg7 3.014885 1_455
Mg3 Mg5 3.182399 1_565
Mg4 Mg5 3.046847 1_565
Mg4 Mg5 3.046847 1_555
Mg4 Mg9 3.195705 1_556
Mg4 Mg8 3.195705 1_556
Mg5 Si0 3.184163 1_555
Mg5 Si0 3.184163 1_455
Mg6 Si0 2.946419 1_555
Mg7 Si0 2.946419 1_565
Mg8 Mg9 2.923483 1_565
Mg8 Mg9 2.941547 1_555
Mg8 Si1 2.963598 1_555
Mg8 Si1 2.963598 1_455
Mg9 Si1 2.963598 1_555
Mg9 Si1 2.963598 1_455
Mg10 Mg11 3.046847 1_545
Mg10 Mg11 3.046847 1_555
Mg10 Mg7 3.060516 1_545
Mg10 Mg7 3.060516 1_445
Mg10 Mg6 3.060516 1_455
Mg10 Mg6 3.060516 1_555
Mg10 Mg2 3.195705 1_555
Mg10 Mg3 3.195705 1_545
Mg11 Mg8 3.182399 1_555
Mg11 Mg9 3.182399 1_555
Mg11 Si1 3.184163 1_555
Mg11 Si1 3.184163 1_455
Mg11 Mg7 3.425048 1_555
Mg11 Mg7 3.425048 1_455
Mg11 Mg6 3.425048 1_455
Mg11 Mg6 3.425048 1_555
