# generated using pymatgen
data_Pr(P3Os)4
_symmetry_space_group_name_H-M   'P 1'
_cell_length_a   7.01432272
_cell_length_b   7.01432272
_cell_length_c   7.01432272
_cell_angle_alpha   109.47122063
_cell_angle_beta   109.47122063
_cell_angle_gamma   109.47122063
_symmetry_Int_Tables_number   1
_chemical_formula_structural   Pr(P3Os)4
_chemical_formula_sum   'Pr1 P12 Os4'
_cell_volume   265.66560986
_cell_formula_units_Z   1
loop_
 _symmetry_equiv_pos_site_id
 _symmetry_equiv_pos_as_xyz
  1  'x, y, z'
loop_
 _atom_site_type_symbol
 _atom_site_label
 _atom_site_symmetry_multiplicity
 _atom_site_fract_x
 _atom_site_fract_y
 _atom_site_fract_z
 _atom_site_occupancy
  Pr  Pr0  1  0.00000000  0.00000000  0.00000000  1
  P  P0  1  0.35744787  0.21434548  0.85689761  1
  P  P1  1  0.64255213  0.78565452  0.14310239  1
  P  P2  1  0.64255213  0.49944974  0.85689761  1
  P  P3  1  0.35744787  0.50055026  0.14310239  1
  P  P4  1  0.21434548  0.85689761  0.35744787  1
  P  P5  1  0.78565452  0.14310239  0.64255213  1
  P  P6  1  0.49944974  0.85689761  0.64255213  1
  P  P7  1  0.50055026  0.14310239  0.35744787  1
  P  P8  1  0.85689761  0.35744787  0.21434548  1
  P  P9  1  0.14310239  0.64255213  0.78565452  1
  P  P10  1  0.85689761  0.64255213  0.49944974  1
  P  P11  1  0.14310239  0.35744787  0.50055026  1
  Os  Os0  1  0.00000000  0.00000000  0.50000000  1
  Os  Os1  1  0.50000000  0.00000000  0.00000000  1
  Os  Os2  1  0.00000000  0.50000000  0.00000000  1
  Os  Os3  1  0.50000000  0.50000000  0.50000000  1
loop_
_geom_bond_atom_site_label_1
_geom_bond_atom_site_label_2
_geom_bond_distance
_geom_bond_site_symmetry_2
P0 P2 2.309185 1_555
P0 P3 2.318099 1_556
P0 Pr0 3.118520 1_556
P1 P3 2.309185 1_555
P1 P2 2.318099 1_554
P1 Pr0 3.118520 1_665
P2 Pr0 3.118520 1_666
P3 Pr0 3.118520 1_555
P4 P6 2.309185 1_555
P4 P7 2.318099 1_565
P4 Pr0 3.118520 1_565
P5 P7 2.309185 1_555
P5 P6 2.318099 1_545
P5 Pr0 3.118520 1_656
P6 Pr0 3.118520 1_666
P7 Pr0 3.118520 1_555
P8 Pr0 3.118520 1_655
P9 Pr0 3.118520 1_566
P10 P8 2.309185 1_555
P10 P9 2.318099 1_655
P10 Pr0 3.118520 1_666
P11 P9 2.309185 1_555
P11 P8 2.318099 1_455
P11 Pr0 3.118520 1_555
Os0 P4 2.367922 1_545
Os0 P10 2.367922 1_445
Os0 P1 2.367922 1_445
Os0 P5 2.367922 1_455
Os0 P0 2.367922 1_555
Os0 P11 2.367922 1_555
Os1 P6 2.367922 1_544
Os1 P9 2.367922 1_544
Os1 P7 2.367922 1_555
Os1 P0 2.367922 1_554
Os1 P1 2.367922 1_545
Os1 P8 2.367922 1_555
Os2 P3 2.367922 1_555
Os2 P8 2.367922 1_455
Os2 P5 2.367922 1_454
Os2 P4 2.367922 1_555
Os2 P2 2.367922 1_454
Os2 P9 2.367922 1_554
Os3 P2 2.367922 1_555
Os3 P6 2.367922 1_555
Os3 P3 2.367922 1_555
Os3 P10 2.367922 1_555
Os3 P7 2.367922 1_555
Os3 P11 2.367922 1_555
