# generated using pymatgen
data_Be3Tl2Ni2F12
_symmetry_space_group_name_H-M   'P 1'
_cell_length_a   10.11122000
_cell_length_b   10.11122000
_cell_length_c   10.11122000
_cell_angle_alpha   90.00000000
_cell_angle_beta   90.00000000
_cell_angle_gamma   90.00000000
_symmetry_Int_Tables_number   1
_chemical_formula_structural   Be3Tl2Ni2F12
_chemical_formula_sum   'Be12 Tl8 Ni8 F48'
_cell_volume   1033.73847243
_cell_formula_units_Z   4
loop_
 _symmetry_equiv_pos_site_id
 _symmetry_equiv_pos_as_xyz
  1  'x, y, z'
loop_
 _atom_site_type_symbol
 _atom_site_label
 _atom_site_symmetry_multiplicity
 _atom_site_fract_x
 _atom_site_fract_y
 _atom_site_fract_z
 _atom_site_occupancy
  Be  Be0  1  0.02045600  0.21327400  0.37572100  1
  Be  Be1  1  0.47954400  0.78672600  0.87572100  1
  Be  Be2  1  0.97954400  0.71327400  0.12427900  1
  Be  Be3  1  0.37572100  0.02045600  0.21327400  1
  Be  Be4  1  0.52045600  0.28672600  0.62427900  1
  Be  Be5  1  0.87572100  0.47954400  0.78672600  1
  Be  Be6  1  0.12427900  0.97954400  0.71327400  1
  Be  Be7  1  0.62427900  0.52045600  0.28672600  1
  Be  Be8  1  0.21327400  0.37572100  0.02045600  1
  Be  Be9  1  0.71327400  0.12427900  0.97954400  1
  Be  Be10  1  0.28672600  0.62427900  0.52045600  1
  Be  Be11  1  0.78672600  0.87572100  0.47954400  1
  Tl  Tl0  1  0.04877800  0.04877800  0.04877800  1
  Tl  Tl1  1  0.45122200  0.95122200  0.54877800  1
  Tl  Tl2  1  0.95122200  0.54877800  0.45122200  1
  Tl  Tl3  1  0.54877800  0.45122200  0.95122200  1
  Tl  Tl4  1  0.81668900  0.81668900  0.81668900  1
  Tl  Tl5  1  0.68331100  0.18331100  0.31668900  1
  Tl  Tl6  1  0.18331100  0.31668900  0.68331100  1
  Tl  Tl7  1  0.31668900  0.68331100  0.18331100  1
  Ni  Ni0  1  0.33578100  0.33578100  0.33578100  1
  Ni  Ni1  1  0.16421900  0.66421900  0.83578100  1
  Ni  Ni2  1  0.66421900  0.83578100  0.16421900  1
  Ni  Ni3  1  0.83578100  0.16421900  0.66421900  1
  Ni  Ni4  1  0.60025600  0.60025600  0.60025600  1
  Ni  Ni5  1  0.89974400  0.39974400  0.10025600  1
  Ni  Ni6  1  0.39974400  0.10025600  0.89974400  1
  Ni  Ni7  1  0.10025600  0.89974400  0.39974400  1
  F  F0  1  0.01258500  0.06607600  0.32894500  1
  F  F1  1  0.48741500  0.93392400  0.82894500  1
  F  F2  1  0.98741500  0.56607600  0.17105500  1
  F  F3  1  0.32894500  0.01258500  0.06607600  1
  F  F4  1  0.51258500  0.43392400  0.67105500  1
  F  F5  1  0.82894500  0.48741500  0.93392400  1
  F  F6  1  0.17105500  0.98741500  0.56607600  1
  F  F7  1  0.67105500  0.51258500  0.43392400  1
  F  F8  1  0.06607600  0.32894500  0.01258500  1
  F  F9  1  0.56607600  0.17105500  0.98741500  1
  F  F10  1  0.43392400  0.67105500  0.51258500  1
  F  F11  1  0.93392400  0.82894500  0.48741500  1
  F  F12  1  0.26695500  0.49591600  0.43590900  1
  F  F13  1  0.23304500  0.50408400  0.93590900  1
  F  F14  1  0.73304500  0.99591600  0.06409100  1
  F  F15  1  0.43590900  0.26695500  0.49591600  1
  F  F16  1  0.76695500  0.00408400  0.56409100  1
  F  F17  1  0.93590900  0.23304500  0.50408400  1
  F  F18  1  0.06409100  0.73304500  0.99591600  1
  F  F19  1  0.56409100  0.76695500  0.00408400  1
  F  F20  1  0.49591600  0.43590900  0.26695500  1
  F  F21  1  0.99591600  0.06409100  0.73304500  1
  F  F22  1  0.00408400  0.56409100  0.76695500  1
  F  F23  1  0.50408400  0.93590900  0.23304500  1
  F  F24  1  0.04595300  0.80572200  0.23064400  1
  F  F25  1  0.45404700  0.19427800  0.73064400  1
  F  F26  1  0.95404700  0.30572200  0.26935600  1
  F  F27  1  0.23064400  0.04595300  0.80572200  1
  F  F28  1  0.54595300  0.69427800  0.76935600  1
  F  F29  1  0.73064400  0.45404700  0.19427800  1
  F  F30  1  0.26935600  0.95404700  0.30572200  1
  F  F31  1  0.76935600  0.54595300  0.69427800  1
  F  F32  1  0.80572200  0.23064400  0.04595300  1
  F  F33  1  0.30572200  0.26935600  0.95404700  1
  F  F34  1  0.69427800  0.76935600  0.54595300  1
  F  F35  1  0.19427800  0.73064400  0.45404700  1
  F  F36  1  0.16575000  0.25441600  0.40247400  1
  F  F37  1  0.33425000  0.74558400  0.90247400  1
  F  F38  1  0.83425000  0.75441600  0.09752600  1
  F  F39  1  0.40247400  0.16575000  0.25441600  1
  F  F40  1  0.66575000  0.24558400  0.59752600  1
  F  F41  1  0.90247400  0.33425000  0.74558400  1
  F  F42  1  0.09752600  0.83425000  0.75441600  1
  F  F43  1  0.59752600  0.66575000  0.24558400  1
  F  F44  1  0.25441600  0.40247400  0.16575000  1
  F  F45  1  0.75441600  0.09752600  0.83425000  1
  F  F46  1  0.24558400  0.59752600  0.66575000  1
  F  F47  1  0.74558400  0.90247400  0.33425000  1
loop_
_geom_bond_atom_site_label_1
_geom_bond_atom_site_label_2
_geom_bond_distance
_geom_bond_site_symmetry_2
Be0 F36 1.550638 1_555
Be0 F0 1.563719 1_555
Be0 F17 1.566950 1_455
Be0 F26 1.575220 1_455
Be1 F37 1.550638 1_555
Be1 F1 1.563719 1_555
Be1 F19 1.566950 1_556
Be1 F28 1.575220 1_555
Be2 F38 1.550638 1_555
Be2 F2 1.563719 1_555
Be2 F18 1.566950 1_654
Be2 F24 1.575220 1_655
Be3 F39 1.550638 1_555
Be3 F3 1.563719 1_555
Be3 F23 1.566950 1_545
Be3 F30 1.575220 1_545
Be4 F40 1.550638 1_555
Be4 F4 1.563719 1_555
Be4 F15 1.566950 1_555
Be4 F25 1.575220 1_555
Be5 F41 1.550638 1_555
Be5 F5 1.563719 1_555
Be5 F22 1.566950 1_655
Be5 F31 1.575220 1_555
Be6 F42 1.550638 1_555
Be6 F6 1.563719 1_555
Be6 F21 1.566950 1_465
Be6 F27 1.575220 1_565
Be7 F43 1.550638 1_555
Be7 F7 1.563719 1_555
Be7 F20 1.566950 1_555
Be7 F29 1.575220 1_555
Be8 F44 1.550638 1_555
Be8 F8 1.563719 1_555
Be8 F13 1.566950 1_554
Be8 F33 1.575220 1_554
Be9 F45 1.550638 1_555
Be9 F9 1.563719 1_555
Be9 F14 1.566950 1_546
Be9 F32 1.575220 1_556
Be10 F46 1.550638 1_555
Be10 F10 1.563719 1_555
Be10 F12 1.566950 1_555
Be10 F35 1.575220 1_555
Be11 F47 1.550638 1_555
Be11 F11 1.563719 1_555
Be11 F16 1.566950 1_565
Be11 F34 1.575220 1_555
F0 Ni7 2.031450 1_545
F1 Ni6 2.031450 1_565
F2 Ni5 2.031450 1_555
F3 Ni6 2.031450 1_554
F4 Ni4 2.031450 1_555
F5 Ni5 2.031450 1_556
F6 Ni7 2.031450 1_555
F7 Ni4 2.031450 1_555
F8 Ni5 2.031450 1_455
F9 Ni6 2.031450 1_555
F10 Ni4 2.031450 1_555
F11 Ni7 2.031450 1_655
F12 Ni0 2.032477 1_555
F13 Ni1 2.032477 1_555
F14 Ni2 2.032477 1_555
F15 Ni0 2.032477 1_555
F16 Ni3 2.032477 1_555
F17 Ni3 2.032477 1_555
F18 Ni1 2.032477 1_555
F19 Ni2 2.032477 1_555
F20 Ni0 2.032477 1_555
F21 Ni3 2.032477 1_555
F22 Ni1 2.032477 1_555
F23 Ni2 2.032477 1_555
F24 Ni7 2.031922 1_555
F25 Ni6 2.031922 1_555
F26 Ni5 2.031922 1_555
F27 Ni6 2.031922 1_555
F28 Ni4 2.031922 1_555
F29 Ni5 2.031922 1_555
F30 Ni7 2.031922 1_555
F31 Ni4 2.031922 1_555
F32 Ni5 2.031922 1_555
F33 Ni6 2.031922 1_555
F34 Ni4 2.031922 1_555
F35 Ni7 2.031922 1_555
F36 Ni0 2.021707 1_555
F37 Ni1 2.021707 1_555
F38 Ni2 2.021707 1_555
F39 Ni0 2.021707 1_555
F40 Ni3 2.021707 1_555
F41 Ni3 2.021707 1_555
F42 Ni1 2.021707 1_555
F43 Ni2 2.021707 1_555
F44 Ni0 2.021707 1_555
F45 Ni3 2.021707 1_555
F46 Ni1 2.021707 1_555
F47 Ni2 2.021707 1_555
