# generated using pymatgen
data_Na3Eu2(GeS4)2
_symmetry_space_group_name_H-M   'P 1'
_cell_length_a   6.88557448
_cell_length_b   13.87617217
_cell_length_c   13.87695940
_cell_angle_alpha   117.47463417
_cell_angle_beta   99.51532987
_cell_angle_gamma   99.27880908
_symmetry_Int_Tables_number   1
_chemical_formula_structural   Na3Eu2(GeS4)2
_chemical_formula_sum   'Na9 Eu6 Ge6 S24'
_cell_volume   1116.60055892
_cell_formula_units_Z   3
loop_
 _symmetry_equiv_pos_site_id
 _symmetry_equiv_pos_as_xyz
  1  'x, y, z'
loop_
 _atom_site_type_symbol
 _atom_site_label
 _atom_site_symmetry_multiplicity
 _atom_site_fract_x
 _atom_site_fract_y
 _atom_site_fract_z
 _atom_site_occupancy
  Na  Na0  1  0.02564294  0.53580843  0.45454582  1
  Na  Na1  1  0.57487104  0.54593588  0.07830708  1
  Na  Na2  1  0.49372426  0.91572143  0.46554424  1
  Na  Na3  1  0.52806079  0.45885297  0.53122139  1
  Na  Na4  1  0.99277219  0.46664457  0.92159025  1
  Na  Na5  1  0.07376711  0.07489095  0.54493402  1
  Na  Na6  1  0.64462135  0.23292383  0.59105948  1
  Na  Na7  1  0.08830361  0.41560239  0.65188675  1
  Na  Na8  1  0.16407075  0.59438179  0.24199728  1
  Eu  Eu0  1  0.38032051  0.12354237  0.27666350  1
  Eu  Eu1  1  0.10454045  0.72275726  0.84618306  1
  Eu  Eu2  1  0.25887395  0.15431234  0.87150164  1
  Eu  Eu3  1  0.88154702  0.27974009  0.12362719  1
  Eu  Eu4  1  0.75785185  0.87151307  0.15693050  1
  Eu  Eu5  1  0.60278834  0.84311975  0.71434872  1
  Ge  Ge0  1  0.93698487  0.18846957  0.37167085  1
  Ge  Ge1  1  0.56542963  0.62509987  0.81710954  1
  Ge  Ge2  1  0.74619300  0.18354076  0.81004399  1
  Ge  Ge3  1  0.43903629  0.37356397  0.19138885  1
  Ge  Ge4  1  0.24602966  0.81064210  0.18221654  1
  Ge  Ge5  1  0.06141504  0.81669441  0.62454573  1
  S  S0  1  0.24762127  0.24937720  0.49239012  1
  S  S1  1  0.76200543  0.50780798  0.75467865  1
  S  S2  1  0.99546436  0.24478318  0.75003237  1
  S  S3  1  0.75076964  0.48630469  0.24497932  1
  S  S4  1  0.49669671  0.75254889  0.24231809  1
  S  S5  1  0.26061372  0.75611962  0.51116838  1
  S  S6  1  0.71934053  0.05689657  0.38193454  1
  S  S7  1  0.33886968  0.61778542  0.67488353  1
  S  S8  1  0.66777143  0.32357924  0.94807229  1
  S  S9  1  0.22003206  0.38138355  0.05642598  1
  S  S10  1  0.16835262  0.94932939  0.32332478  1
  S  S11  1  0.84624371  0.67685292  0.62490547  1
  S  S12  1  0.77957961  0.32441969  0.41616453  1
  S  S13  1  0.36333511  0.59259921  0.91293784  1
  S  S14  1  0.45465007  0.08476115  0.67541725  1
  S  S15  1  0.26899696  0.40570534  0.32006436  1
  S  S16  1  0.95405967  0.67643182  0.08413305  1
  S  S17  1  0.86925785  0.92102177  0.60088867  1
  S  S18  1  0.94841872  0.10407684  0.19158177  1
  S  S19  1  0.75624370  0.80578750  0.91219483  1
  S  S20  1  0.84842985  0.08764847  0.89394402  1
  S  S21  1  0.45031563  0.19183702  0.10504819  1
  S  S22  1  0.34769173  0.89557379  0.08679208  1
  S  S23  1  0.26023529  0.91251092  0.80620350  1
loop_
_geom_bond_atom_site_label_1
_geom_bond_atom_site_label_2
_geom_bond_distance
_geom_bond_site_symmetry_2
Na0 S5 2.889463 1_555
Na0 S12 2.900997 1_455
Na0 S11 2.901907 1_455
Na0 S3 2.903277 1_455
Na0 S15 2.906946 1_555
Na0 S7 3.018906 1_555
Na1 S16 2.893605 1_555
Na1 S13 2.894322 1_554
Na1 S4 2.927676 1_555
Na1 S9 2.931110 1_555
Na1 S3 2.943472 1_555
Na1 S8 3.011456 1_554
Na2 S14 2.866283 1_565
Na2 S4 2.878709 1_555
Na2 S5 2.892294 1_555
Na2 S17 2.902524 1_555
Na2 S10 2.975910 1_555
Na2 S6 3.051044 1_565
Na3 S15 2.857563 1_555
Na3 S12 2.869874 1_555
Na3 S7 2.874607 1_555
Na3 S1 2.953621 1_555
Na3 S0 2.978056 1_555
Na3 S11 2.988831 1_555
Na4 S16 2.832545 1_556
Na4 S2 2.901041 1_555
Na4 S13 2.904530 1_655
Na4 S1 2.917631 1_555
Na4 S8 2.931950 1_555
Na4 S9 3.003497 1_656
Na5 S17 2.840115 1_445
Na5 S14 2.874150 1_555
Na5 S6 2.931159 1_455
Na5 S2 2.945329 1_455
Na5 S0 2.968128 1_555
Na5 S10 3.000202 1_545
Na6 S2 2.916247 1_555
Na6 S0 2.941354 1_555
Na6 S6 3.001822 1_555
Na6 S14 3.027871 1_555
Na6 S1 3.281102 1_555
Na7 S0 2.886273 1_555
Na7 S7 2.894891 1_555
Na7 S1 3.003701 1_455
Na7 S12 3.136007 1_455
Na7 S2 3.264964 1_455
Na7 S13 3.280850 1_555
Na8 S4 2.903300 1_555
Na8 S3 3.011541 1_455
Na8 S9 3.031163 1_555
Na8 S16 3.157745 1_455
Na8 S5 3.223949 1_555
Eu0 S18 2.932031 1_455
Eu0 S22 2.980593 1_545
Eu0 S10 3.002058 1_545
Eu0 S21 3.019359 1_555
Eu0 S6 3.041993 1_555
Eu0 S0 3.072658 1_555
Eu0 S12 3.140898 1_555
Eu1 S19 2.926017 1_455
Eu1 S11 3.003686 1_455
Eu1 S23 3.004052 1_555
Eu1 S22 3.028379 1_556
Eu1 S7 3.034273 1_555
Eu1 S1 3.052552 1_455
Eu1 S13 3.054721 1_555
Eu2 S20 2.941690 1_455
Eu2 S8 3.024619 1_555
Eu2 S23 3.047401 1_545
Eu2 S21 3.053090 1_556
Eu2 S14 3.059723 1_555
Eu2 S2 3.063161 1_455
Eu2 S9 3.102054 1_556
Eu3 S21 2.942729 1_555
Eu3 S3 2.956755 1_555
Eu3 S8 2.990358 1_554
Eu3 S20 3.006717 1_554
Eu3 S9 3.027062 1_655
Eu3 S15 3.049365 1_655
Eu3 S18 3.063032 1_555
Eu4 S22 2.954646 1_555
Eu4 S4 2.985745 1_555
Eu4 S10 3.007372 1_655
Eu4 S16 3.046440 1_555
Eu4 S18 3.059603 1_565
Eu4 S19 3.080958 1_554
Eu4 S6 3.085337 1_565
Eu5 S5 2.950236 1_555
Eu5 S23 2.951132 1_555
Eu5 S17 2.983279 1_555
Eu5 S11 2.994393 1_555
Eu5 S19 3.074461 1_555
Eu5 S20 3.088368 1_565
Eu5 S7 3.104442 1_555
Ge0 S12 2.218221 1_555
Ge0 S18 2.239958 1_555
Ge0 S0 2.240884 1_655
Ge0 S6 2.242229 1_555
Ge1 S13 2.207023 1_555
Ge1 S1 2.242462 1_555
Ge1 S19 2.250672 1_555
Ge1 S7 2.255080 1_555
Ge2 S14 2.215565 1_555
Ge2 S8 2.232123 1_555
Ge2 S2 2.239837 1_555
Ge2 S20 2.254374 1_555
Ge3 S15 2.209742 1_555
Ge3 S3 2.218922 1_555
Ge3 S9 2.258301 1_555
Ge3 S21 2.259763 1_555
Ge4 S16 2.216199 1_455
Ge4 S4 2.217553 1_555
Ge4 S10 2.241653 1_555
Ge4 S22 2.261164 1_555
Ge5 S17 2.206065 1_455
Ge5 S5 2.219951 1_555
Ge5 S11 2.246058 1_455
Ge5 S23 2.275093 1_555
