# generated using pymatgen
data_Mg4Si3
_symmetry_space_group_name_H-M   'P 1'
_cell_length_a   5.60297300
_cell_length_b   7.29867737
_cell_length_c   7.59360071
_cell_angle_alpha   110.60298636
_cell_angle_beta   92.10532532
_cell_angle_gamma   108.90278193
_symmetry_Int_Tables_number   1
_chemical_formula_structural   Mg4Si3
_chemical_formula_sum   'Mg8 Si6'
_cell_volume   270.98427395
_cell_formula_units_Z   2
loop_
 _symmetry_equiv_pos_site_id
 _symmetry_equiv_pos_as_xyz
  1  'x, y, z'
loop_
 _atom_site_type_symbol
 _atom_site_label
 _atom_site_symmetry_multiplicity
 _atom_site_fract_x
 _atom_site_fract_y
 _atom_site_fract_z
 _atom_site_occupancy
  Mg  Mg0  1  0.15902300  0.82309000  0.75323200  1
  Mg  Mg1  1  0.22306100  0.10857600  0.18080300  1
  Mg  Mg2  1  0.59193100  0.34036100  0.61283200  1
  Mg  Mg3  1  0.96529100  0.02589800  0.51251200  1
  Mg  Mg4  1  0.37535700  0.82322500  0.37944300  1
  Mg  Mg5  1  0.72730200  0.52054100  0.28132000  1
  Mg  Mg6  1  0.78955800  0.16176200  0.91210700  1
  Mg  Mg7  1  0.59996500  0.73435800  0.99805400  1
  Si  Si0  1  0.73472000  0.14146900  0.26828500  1
  Si  Si1  1  0.11784200  0.42526400  0.77831900  1
  Si  Si2  1  0.35833400  0.27371400  0.91522500  1
  Si  Si3  1  0.05246400  0.67896000  0.05183300  1
  Si  Si4  1  0.16565100  0.44609500  0.47082900  1
  Si  Si5  1  0.63956000  0.74684600  0.63530500  1
loop_
_geom_bond_atom_site_label_1
_geom_bond_atom_site_label_2
_geom_bond_distance
_geom_bond_site_symmetry_2
Mg0 Si3 2.824123 1_556
Mg0 Si5 2.826866 1_455
Mg0 Si4 2.844381 1_555
Mg0 Si2 2.872191 1_565
Mg0 Si1 2.911850 1_555
Mg0 Si5 3.026219 1_555
Mg1 Si2 2.706533 1_554
Mg1 Si3 2.744627 1_545
Mg1 Si4 2.787391 1_555
Mg1 Si0 2.831862 1_555
Mg1 Si0 2.903865 1_455
Mg2 Si2 2.795865 1_555
Mg2 Si0 2.797491 1_555
Mg2 Si5 2.833657 1_555
Mg2 Si1 2.939859 1_655
Mg2 Si4 3.008923 1_555
Mg2 Si1 3.127756 1_555
Mg3 Si5 2.720599 1_545
Mg3 Si1 2.723840 1_655
Mg3 Si0 2.729628 1_555
Mg3 Si4 3.040518 1_655
Mg4 Si3 2.676217 1_555
Mg4 Si5 2.713425 1_555
Mg4 Si0 2.938764 1_565
Mg4 Si4 2.957596 1_555
Mg5 Si0 2.747428 1_555
Mg5 Si5 2.773781 1_555
Mg5 Si3 2.824774 1_655
Mg5 Si2 2.981200 1_554
Mg5 Si4 3.090894 1_655
Mg6 Si1 2.708227 1_655
Mg6 Si0 2.783003 1_556
Mg6 Si2 2.788490 1_555
Mg6 Si5 2.834890 1_545
Mg6 Si2 3.019570 1_655
Mg7 Si3 2.731765 1_656
Mg7 Si0 2.784117 1_566
Mg7 Si5 2.802442 1_555
Mg7 Si1 2.870852 1_555
Mg7 Si2 3.005353 1_555
Mg7 Si3 3.024108 1_556
Si0 Si4 2.642144 1_655
Si1 Si3 2.380190 1_556
Si1 Si2 2.406664 1_555
Si1 Si4 2.411702 1_555
Si4 Si5 2.734826 1_555
