# generated using pymatgen
data_Mn4P7O24
_symmetry_space_group_name_H-M   'P 1'
_cell_length_a   10.17251200
_cell_length_b   10.65087372
_cell_length_c   10.75467928
_cell_angle_alpha   112.06030304
_cell_angle_beta   108.40872436
_cell_angle_gamma   106.52876389
_symmetry_Int_Tables_number   1
_chemical_formula_structural   Mn4P7O24
_chemical_formula_sum   'Mn8 P14 O48'
_cell_volume   910.65965105
_cell_formula_units_Z   2
loop_
 _symmetry_equiv_pos_site_id
 _symmetry_equiv_pos_as_xyz
  1  'x, y, z'
loop_
 _atom_site_type_symbol
 _atom_site_label
 _atom_site_symmetry_multiplicity
 _atom_site_fract_x
 _atom_site_fract_y
 _atom_site_fract_z
 _atom_site_occupancy
  Mn  Mn0  1  0.49821500  0.11040300  0.74365900  1
  Mn  Mn1  1  0.98787300  0.61746200  0.07710600  1
  Mn  Mn2  1  0.48641500  0.33605400  0.89340500  1
  Mn  Mn3  1  0.00327200  0.17815200  0.41605100  1
  Mn  Mn4  1  0.99672800  0.82184800  0.58394900  1
  Mn  Mn5  1  0.51358500  0.66394600  0.10659500  1
  Mn  Mn6  1  0.01212700  0.38253800  0.92289400  1
  Mn  Mn7  1  0.50178500  0.88959700  0.25634100  1
  P  P0  1  0.22360700  0.20592200  0.76861800  1
  P  P1  1  0.80374100  0.38710100  0.43673600  1
  P  P2  1  0.80137600  0.06124900  0.26216300  1
  P  P3  1  0.77639300  0.79407800  0.23138200  1
  P  P4  1  0.73703800  0.98274500  0.75696700  1
  P  P5  1  0.74480000  0.60810600  0.52859100  1
  P  P6  1  0.26948000  0.81775600  0.11226700  1
  P  P7  1  0.24656300  0.44496000  0.05147900  1
  P  P8  1  0.75343700  0.55504000  0.94852100  1
  P  P9  1  0.73052000  0.18224400  0.88773300  1
  P  P10  1  0.25520000  0.39189400  0.47140900  1
  P  P11  1  0.26296200  0.01725500  0.24303300  1
  P  P12  1  0.19862400  0.93875100  0.73783700  1
  P  P13  1  0.19625900  0.61289900  0.56326400  1
  O  O0  1  0.12965700  0.79148700  0.87963800  1
  O  O1  1  0.38078300  0.02757100  0.66212500  1
  O  O2  1  0.88943200  0.76174000  0.13335300  1
  O  O3  1  0.36720700  0.93649900  0.94521000  1
  O  O4  1  0.62337300  0.28468200  0.54701200  1
  O  O5  1  0.82752200  0.44807800  0.27526400  1
  O  O6  1  0.33992300  0.41321700  0.92650100  1
  O  O7  1  0.84482500  0.53151900  0.46642100  1
  O  O8  1  0.35766800  0.19923100  0.80369600  1
  O  O9  1  0.63121100  0.02412400  0.69374900  1
  O  O10  1  0.68572200  0.66889400  0.40906300  1
  O  O11  1  0.86937400  0.95231900  0.21537600  1
  O  O12  1  0.84030600  0.07204600  0.38252100  1
  O  O13  1  0.12514400  0.48222300  0.00632600  1
  O  O14  1  0.59776900  0.49498100  0.67855300  1
  O  O15  1  0.90901400  0.32035100  0.46354800  1
  O  O16  1  0.13412300  0.67683800  0.15363300  1
  O  O17  1  0.65124800  0.83519000  0.90223200  1
  O  O18  1  0.81212300  0.11358600  0.79153000  1
  O  O19  1  0.87807400  0.99818300  0.62682400  1
  O  O20  1  0.85214100  0.74741900  0.51690100  1
  O  O21  1  0.61840800  0.22170600  0.82531600  1
  O  O22  1  0.15615300  0.29941900  0.20733900  1
  O  O23  1  0.64477600  0.42169300  0.95159100  1
  O  O24  1  0.35522400  0.57830700  0.04840900  1
  O  O25  1  0.84384700  0.70058100  0.79266100  1
  O  O26  1  0.38159200  0.77829400  0.17468400  1
  O  O27  1  0.14785900  0.25258100  0.48309900  1
  O  O28  1  0.12192600  0.00181700  0.37317600  1
  O  O29  1  0.18787700  0.88641400  0.20847000  1
  O  O30  1  0.34875200  0.16481000  0.09776800  1
  O  O31  1  0.86587700  0.32316200  0.84636700  1
  O  O32  1  0.09098600  0.67964900  0.53645200  1
  O  O33  1  0.40223100  0.50501900  0.32144700  1
  O  O34  1  0.87485600  0.51777700  0.99367400  1
  O  O35  1  0.15969400  0.92795400  0.61747900  1
  O  O36  1  0.13062600  0.04768100  0.78462400  1
  O  O37  1  0.31427800  0.33110600  0.59093700  1
  O  O38  1  0.36878900  0.97587600  0.30625100  1
  O  O39  1  0.64233200  0.80076900  0.19630400  1
  O  O40  1  0.15517500  0.46848100  0.53357900  1
  O  O41  1  0.66007700  0.58678300  0.07349900  1
  O  O42  1  0.17247800  0.55192200  0.72473600  1
  O  O43  1  0.37662700  0.71531800  0.45298800  1
  O  O44  1  0.63279300  0.06350100  0.05479000  1
  O  O45  1  0.11056800  0.23826000  0.86664700  1
  O  O46  1  0.61921700  0.97242900  0.33787500  1
  O  O47  1  0.87034300  0.20851300  0.12036200  1
loop_
_geom_bond_atom_site_label_1
_geom_bond_atom_site_label_2
_geom_bond_distance
_geom_bond_site_symmetry_2
Mn0 O1 1.063912 1_555
Mn0 O21 1.177533 1_555
Mn0 O9 1.938675 1_555
Mn1 O34 1.091992 1_554
Mn1 O16 1.261348 1_655
Mn1 O2 2.071239 1_555
Mn2 O8 1.352636 1_555
Mn2 O23 1.384615 1_555
Mn2 O6 1.958297 1_555
Mn3 O27 1.244596 1_555
Mn3 O12 1.551045 1_455
Mn3 O15 2.007150 1_455
Mn3 O28 2.487506 1_555
Mn4 O20 1.244596 1_555
Mn4 O35 1.551045 1_655
Mn4 O32 2.007150 1_655
Mn4 O19 2.487506 1_555
Mn5 O39 1.352636 1_555
Mn5 O24 1.384615 1_555
Mn5 O41 1.958297 1_555
Mn6 O13 1.091992 1_556
Mn6 O31 1.261348 1_455
Mn6 O45 2.071239 1_555
Mn7 O46 1.063912 1_555
Mn7 O26 1.177533 1_555
Mn7 O38 1.938675 1_555
O0 P6 2.315355 1_556
O2 P3 1.808487 1_555
O2 P8 1.988698 1_554
O3 P12 2.358689 1_555
O5 O7 1.832288 1_555
O5 P1 2.125829 1_555
O6 P7 1.862904 1_556
O6 P0 1.893790 1_555
O7 P1 1.350429 1_555
O7 P5 1.624815 1_555
O8 P0 1.325796 1_555
O9 P4 1.359472 1_545
O9 P9 1.808544 1_555
O10 O20 1.461570 1_555
O10 P5 1.670770 1_555
O11 P2 1.521726 1_565
O11 P3 1.782853 1_555
O12 P2 1.176466 1_555
O13 P7 1.401345 1_555
O15 P1 1.458616 1_555
O16 P6 2.014717 1_555
O18 P4 1.220465 1_545
O18 P9 1.616728 1_555
O19 P4 2.313286 1_555
O20 P5 1.647645 1_555
O21 P9 1.388911 1_555
O22 P10 2.361721 1_555
O23 P8 1.550825 1_555
O24 P7 1.550825 1_555
O25 P5 2.361721 1_555
O26 P6 1.388911 1_555
O27 O37 1.461570 1_555
O27 P10 1.647645 1_555
O28 P11 2.313286 1_555
O29 P11 1.220465 1_565
O29 P6 1.616728 1_555
O31 P9 2.014717 1_555
O32 P13 1.458616 1_555
O34 P8 1.401345 1_555
O35 P12 1.176466 1_555
O36 P12 1.521726 1_545
O36 P0 1.782853 1_555
O37 P10 1.670770 1_555
O38 P11 1.359472 1_565
O38 P6 1.808544 1_555
O39 P3 1.325796 1_555
O40 P13 1.350429 1_555
O40 P10 1.624815 1_555
O40 O42 1.832288 1_555
O41 P8 1.862904 1_554
O41 P3 1.893790 1_555
O42 P13 2.125829 1_555
O44 P2 2.358689 1_555
O45 P0 1.808487 1_555
O45 P7 1.988698 1_556
O47 P9 2.315355 1_554
