# generated using pymatgen
data_Na3Tc
_symmetry_space_group_name_H-M   'P 1'
_cell_length_a   6.68200518
_cell_length_b   6.68200518
_cell_length_c   5.48332400
_cell_angle_alpha   90.00000000
_cell_angle_beta   90.00000000
_cell_angle_gamma   119.99999190
_symmetry_Int_Tables_number   1
_chemical_formula_structural   Na3Tc
_chemical_formula_sum   'Na6 Tc2'
_cell_volume   212.02554671
_cell_formula_units_Z   2
loop_
 _symmetry_equiv_pos_site_id
 _symmetry_equiv_pos_as_xyz
  1  'x, y, z'
loop_
 _atom_site_type_symbol
 _atom_site_label
 _atom_site_symmetry_multiplicity
 _atom_site_fract_x
 _atom_site_fract_y
 _atom_site_fract_z
 _atom_site_occupancy
  Na  Na0  1  0.17562700  0.35125500  0.25000000  1
  Na  Na1  1  0.64874500  0.82437300  0.25000000  1
  Na  Na2  1  0.17562700  0.82437300  0.25000000  1
  Na  Na3  1  0.82437300  0.64874500  0.75000000  1
  Na  Na4  1  0.35125500  0.17562700  0.75000000  1
  Na  Na5  1  0.82437300  0.17562700  0.75000000  1
  Tc  Tc0  1  0.33333300  0.66666700  0.75000000  1
  Tc  Tc1  1  0.66666700  0.33333300  0.25000000  1
loop_
_geom_bond_atom_site_label_1
_geom_bond_atom_site_label_2
_geom_bond_distance
_geom_bond_site_symmetry_2
Na0 Na2 3.161377 1_555
Na0 Na1 3.161377 1_555
Na0 Tc0 3.293652 1_554
Na0 Tc0 3.293652 1_555
Na0 Tc1 3.342605 1_455
Na0 Tc1 3.342619 1_555
Na0 Na5 3.412961 1_455
Na0 Na5 3.412961 1_454
Na0 Na4 3.412968 1_555
Na0 Na4 3.412968 1_554
Na0 Na2 3.520628 1_545
Na0 Na1 3.520629 1_445
Na1 Na2 3.161377 1_555
Na1 Tc0 3.293652 1_554
Na1 Tc0 3.293652 1_555
Na1 Tc1 3.342605 1_565
Na1 Tc1 3.342619 1_555
Na1 Na5 3.412961 1_565
Na1 Na5 3.412961 1_564
Na1 Na3 3.412968 1_555
Na1 Na3 3.412968 1_554
Na1 Na2 3.520628 1_655
Na2 Tc0 3.293652 1_554
Na2 Tc0 3.293652 1_555
Na2 Tc1 3.342612 1_455
Na2 Tc1 3.342612 1_565
Na2 Na3 3.412961 1_455
Na2 Na3 3.412961 1_454
Na2 Na4 3.412961 1_564
Na2 Na4 3.412961 1_565
Na3 Na5 3.161377 1_555
Na3 Na4 3.161377 1_555
Na3 Tc1 3.293652 1_556
Na3 Tc1 3.293652 1_555
Na3 Tc0 3.342605 1_655
Na3 Tc0 3.342619 1_555
Na3 Na5 3.520628 1_565
Na3 Na4 3.520629 1_665
Na4 Na5 3.161377 1_555
Na4 Tc1 3.293652 1_556
Na4 Tc1 3.293652 1_555
Na4 Tc0 3.342605 1_545
Na4 Tc0 3.342619 1_555
Na4 Na5 3.520628 1_455
Na5 Tc1 3.293652 1_556
Na5 Tc1 3.293652 1_555
Na5 Tc0 3.342612 1_545
Na5 Tc0 3.342612 1_655
