# generated using pymatgen
data_Ce3Bi4Pt3
_symmetry_space_group_name_H-M   'P 1'
_cell_length_a   8.71346610
_cell_length_b   8.71346610
_cell_length_c   8.71346610
_cell_angle_alpha   109.47122063
_cell_angle_beta   109.47122063
_cell_angle_gamma   109.47122063
_symmetry_Int_Tables_number   1
_chemical_formula_structural   Ce3Bi4Pt3
_chemical_formula_sum   'Ce6 Bi8 Pt6'
_cell_volume   509.27334646
_cell_formula_units_Z   2
loop_
 _symmetry_equiv_pos_site_id
 _symmetry_equiv_pos_as_xyz
  1  'x, y, z'
loop_
 _atom_site_type_symbol
 _atom_site_label
 _atom_site_symmetry_multiplicity
 _atom_site_fract_x
 _atom_site_fract_y
 _atom_site_fract_z
 _atom_site_occupancy
  Ce  Ce0  1  0.62500000  0.37500000  0.25000000  1
  Ce  Ce1  1  0.87500000  0.12500000  0.75000000  1
  Ce  Ce2  1  0.37500000  0.25000000  0.62500000  1
  Ce  Ce3  1  0.12500000  0.75000000  0.87500000  1
  Ce  Ce4  1  0.25000000  0.62500000  0.37500000  1
  Ce  Ce5  1  0.75000000  0.87500000  0.12500000  1
  Bi  Bi0  1  0.17855400  0.17855400  0.17855400  1
  Bi  Bi1  1  0.32144600  0.50000000  0.00000000  1
  Bi  Bi2  1  0.00000000  0.32144600  0.50000000  1
  Bi  Bi3  1  0.67855400  0.67855400  0.67855400  1
  Bi  Bi4  1  0.50000000  0.00000000  0.32144600  1
  Bi  Bi5  1  0.82144600  0.50000000  0.00000000  1
  Bi  Bi6  1  0.50000000  0.00000000  0.82144600  1
  Bi  Bi7  1  0.00000000  0.82144600  0.50000000  1
  Pt  Pt0  1  0.12500000  0.87500000  0.25000000  1
  Pt  Pt1  1  0.37500000  0.62500000  0.75000000  1
  Pt  Pt2  1  0.87500000  0.25000000  0.12500000  1
  Pt  Pt3  1  0.62500000  0.75000000  0.37500000  1
  Pt  Pt4  1  0.25000000  0.12500000  0.87500000  1
  Pt  Pt5  1  0.75000000  0.37500000  0.62500000  1
loop_
_geom_bond_atom_site_label_1
_geom_bond_atom_site_label_2
_geom_bond_distance
_geom_bond_site_symmetry_2
Ce0 Pt3 3.080675 1_555
Ce0 Pt2 3.080675 1_555
Ce0 Pt4 3.080675 1_554
Ce0 Pt5 3.080675 1_555
Ce1 Pt5 3.080675 1_555
Ce1 Pt4 3.080675 1_655
Ce1 Pt2 3.080675 1_556
Ce1 Pt3 3.080675 1_545
Ce2 Pt1 3.080675 1_555
Ce2 Pt5 3.080675 1_555
Ce2 Pt0 3.080675 1_545
Ce2 Pt4 3.080675 1_555
Ce3 Pt1 3.080675 1_555
Ce3 Pt5 3.080675 1_455
Ce3 Pt0 3.080675 1_556
Ce3 Pt4 3.080675 1_565
Ce4 Pt0 3.080675 1_555
Ce4 Pt2 3.080675 1_455
Ce4 Pt3 3.080675 1_555
Ce4 Pt1 3.080675 1_555
Ce5 Pt0 3.080675 1_655
Ce5 Pt3 3.080675 1_555
Ce5 Pt1 3.080675 1_554
Ce5 Pt2 3.080675 1_565
Bi0 Pt4 2.840766 1_554
Bi0 Pt0 2.840766 1_545
Bi0 Pt2 2.840766 1_455
Bi0 Ce0 3.418521 1_555
Bi0 Ce2 3.418521 1_555
Bi0 Ce4 3.418521 1_555
Bi0 Ce3 3.548074 1_544
Bi0 Ce1 3.548074 1_454
Bi0 Ce5 3.548074 1_445
Bi1 Pt3 2.840766 1_555
Bi1 Pt4 2.840766 1_554
Bi1 Pt1 2.840766 1_554
Bi1 Ce3 3.418521 1_554
Bi1 Ce4 3.418521 1_555
Bi1 Ce1 3.418521 1_454
Bi1 Ce2 3.548074 1_554
Bi1 Ce5 3.548074 1_555
Bi1 Ce0 3.548074 1_555
Bi2 Pt1 2.840766 1_555
Bi2 Pt5 2.840766 1_455
Bi2 Pt2 2.840766 1_455
Bi2 Ce2 3.418521 1_555
Bi2 Ce1 3.418521 1_455
Bi2 Ce5 3.418521 1_445
Bi2 Ce0 3.548074 1_455
Bi2 Ce3 3.548074 1_555
Bi2 Ce4 3.548074 1_555
Bi3 Pt3 2.840766 1_555
Bi3 Pt1 2.840766 1_555
Bi3 Pt5 2.840766 1_555
Bi3 Ce1 3.418521 1_565
Bi3 Ce3 3.418521 1_655
Bi3 Ce5 3.418521 1_556
Bi3 Ce0 3.548074 1_555
Bi3 Ce2 3.548074 1_555
Bi3 Ce4 3.548074 1_555
Bi4 Pt0 2.840766 1_545
Bi4 Pt5 2.840766 1_555
Bi4 Pt3 2.840766 1_545
Bi4 Ce5 3.418521 1_545
Bi4 Ce3 3.418521 1_544
Bi4 Ce0 3.418521 1_555
Bi4 Ce1 3.548074 1_555
Bi4 Ce2 3.548074 1_555
Bi4 Ce4 3.548074 1_545
Bi5 Pt2 2.840766 1_555
Bi5 Pt0 2.840766 1_655
Bi5 Pt5 2.840766 1_554
Bi5 Ce0 3.418521 1_555
Bi5 Ce2 3.418521 1_554
Bi5 Ce5 3.418521 1_555
Bi5 Ce4 3.548074 1_655
Bi5 Ce1 3.548074 1_554
Bi5 Ce3 3.548074 1_654
Bi6 Pt1 2.840766 1_545
Bi6 Pt2 2.840766 1_556
Bi6 Pt4 2.840766 1_555
Bi6 Ce2 3.418521 1_555
Bi6 Ce1 3.418521 1_555
Bi6 Ce4 3.418521 1_545
Bi6 Ce0 3.548074 1_556
Bi6 Ce5 3.548074 1_546
Bi6 Ce3 3.548074 1_545
Bi7 Pt3 2.840766 1_455
Bi7 Pt0 2.840766 1_555
Bi7 Pt4 2.840766 1_565
Bi7 Ce0 3.418521 1_455
Bi7 Ce3 3.418521 1_555
Bi7 Ce4 3.418521 1_555
Bi7 Ce2 3.548074 1_565
Bi7 Ce1 3.548074 1_465
Bi7 Ce5 3.548074 1_455
