# generated using pymatgen
data_CeMg(NO4)6
_symmetry_space_group_name_H-M   'P 1'
_cell_length_a   12.50644915
_cell_length_b   12.50644915
_cell_length_c   12.50644915
_cell_angle_alpha   90.00000000
_cell_angle_beta   90.00000000
_cell_angle_gamma   90.00000000
_symmetry_Int_Tables_number   1
_chemical_formula_structural   CeMg(NO4)6
_chemical_formula_sum   'Ce4 Mg4 N24 O96'
_cell_volume   1956.14959901
_cell_formula_units_Z   4
loop_
 _symmetry_equiv_pos_site_id
 _symmetry_equiv_pos_as_xyz
  1  'x, y, z'
loop_
 _atom_site_type_symbol
 _atom_site_label
 _atom_site_symmetry_multiplicity
 _atom_site_fract_x
 _atom_site_fract_y
 _atom_site_fract_z
 _atom_site_occupancy
  Ce  Ce0  1  0.50000000  0.50000000  -0.00000000  1
  Ce  Ce1  1  0.50000000  0.00000000  0.50000000  1
  Ce  Ce2  1  0.00000000  0.50000000  0.50000000  1
  Ce  Ce3  1  0.00000000  0.00000000  -0.00000000  1
  Mg  Mg0  1  0.00000000  0.00000000  0.50000000  1
  Mg  Mg1  1  0.00000000  0.50000000  -0.00000000  1
  Mg  Mg2  1  0.50000000  0.00000000  -0.00000000  1
  Mg  Mg3  1  0.50000000  0.50000000  0.50000000  1
  N  N0  1  0.33156345  0.42683383  0.15615161  1
  N  N1  1  0.66843655  0.92683383  0.34384839  1
  N  N2  1  0.16843655  0.57316617  0.65615161  1
  N  N3  1  0.83156345  0.07316617  0.84384839  1
  N  N4  1  0.15615161  0.33156345  0.42683383  1
  N  N5  1  0.34384839  0.66843655  0.92683383  1
  N  N6  1  0.65615161  0.16843655  0.57316617  1
  N  N7  1  0.84384839  0.83156345  0.07316617  1
  N  N8  1  0.42683383  0.15615161  0.33156345  1
  N  N9  1  0.92683383  0.34384839  0.66843655  1
  N  N10  1  0.57316617  0.65615161  0.16843655  1
  N  N11  1  0.07316617  0.84384839  0.83156345  1
  N  N12  1  0.66843655  0.57316617  0.84384839  1
  N  N13  1  0.33156345  0.07316617  0.65615161  1
  N  N14  1  0.83156345  0.42683383  0.34384839  1
  N  N15  1  0.16843655  0.92683383  0.15615161  1
  N  N16  1  0.84384839  0.66843655  0.57316617  1
  N  N17  1  0.65615161  0.33156345  0.07316617  1
  N  N18  1  0.34384839  0.83156345  0.42683383  1
  N  N19  1  0.15615161  0.16843655  0.92683383  1
  N  N20  1  0.57316617  0.84384839  0.66843655  1
  N  N21  1  0.07316617  0.65615161  0.33156345  1
  N  N22  1  0.42683383  0.34384839  0.83156345  1
  N  N23  1  0.92683383  0.15615161  0.16843655  1
  O  O0  1  0.34327509  0.38793653  0.06224633  1
  O  O1  1  0.65672491  0.88793653  0.43775367  1
  O  O2  1  0.15672491  0.61206347  0.56224633  1
  O  O3  1  0.84327509  0.11206347  0.93775367  1
  O  O4  1  0.06224633  0.34327509  0.38793653  1
  O  O5  1  0.43775367  0.65672491  0.88793653  1
  O  O6  1  0.56224633  0.15672491  0.61206347  1
  O  O7  1  0.93775367  0.84327509  0.11206347  1
  O  O8  1  0.38793653  0.06224633  0.34327509  1
  O  O9  1  0.88793653  0.43775367  0.65672491  1
  O  O10  1  0.61206347  0.56224633  0.15672491  1
  O  O11  1  0.11206347  0.93775367  0.84327509  1
  O  O12  1  0.65672491  0.61206347  0.93775367  1
  O  O13  1  0.34327509  0.11206347  0.56224633  1
  O  O14  1  0.84327509  0.38793653  0.43775367  1
  O  O15  1  0.15672491  0.88793653  0.06224633  1
  O  O16  1  0.93775367  0.65672491  0.61206347  1
  O  O17  1  0.56224633  0.34327509  0.11206347  1
  O  O18  1  0.43775367  0.84327509  0.38793653  1
  O  O19  1  0.06224633  0.15672491  0.88793653  1
  O  O20  1  0.61206347  0.93775367  0.65672491  1
  O  O21  1  0.11206347  0.56224633  0.34327509  1
  O  O22  1  0.38793653  0.43775367  0.84327509  1
  O  O23  1  0.88793653  0.06224633  0.15672491  1
  O  O24  1  0.40509048  0.49331347  0.18435441  1
  O  O25  1  0.59490952  0.99331347  0.31564559  1
  O  O26  1  0.09490952  0.50668653  0.68435441  1
  O  O27  1  0.90509048  0.00668653  0.81564559  1
  O  O28  1  0.18435441  0.40509048  0.49331347  1
  O  O29  1  0.31564559  0.59490952  0.99331347  1
  O  O30  1  0.68435441  0.09490952  0.50668653  1
  O  O31  1  0.81564559  0.90509048  0.00668653  1
  O  O32  1  0.49331347  0.18435441  0.40509048  1
  O  O33  1  0.99331347  0.31564559  0.59490952  1
  O  O34  1  0.50668653  0.68435441  0.09490952  1
  O  O35  1  0.00668653  0.81564559  0.90509048  1
  O  O36  1  0.59490952  0.50668653  0.81564559  1
  O  O37  1  0.40509048  0.00668653  0.68435441  1
  O  O38  1  0.90509048  0.49331347  0.31564559  1
  O  O39  1  0.09490952  0.99331347  0.18435441  1
  O  O40  1  0.81564559  0.59490952  0.50668653  1
  O  O41  1  0.68435441  0.40509048  0.00668653  1
  O  O42  1  0.31564559  0.90509048  0.49331347  1
  O  O43  1  0.18435441  0.09490952  0.99331347  1
  O  O44  1  0.50668653  0.81564559  0.59490952  1
  O  O45  1  0.00668653  0.68435441  0.40509048  1
  O  O46  1  0.49331347  0.31564559  0.90509048  1
  O  O47  1  0.99331347  0.18435441  0.09490952  1
  O  O48  1  0.25644115  0.40364434  0.21402309  1
  O  O49  1  0.74355885  0.90364434  0.28597691  1
  O  O50  1  0.24355885  0.59635566  0.71402309  1
  O  O51  1  0.75644115  0.09635566  0.78597691  1
  O  O52  1  0.21402309  0.25644115  0.40364434  1
  O  O53  1  0.28597691  0.74355885  0.90364434  1
  O  O54  1  0.71402309  0.24355885  0.59635566  1
  O  O55  1  0.78597691  0.75644115  0.09635566  1
  O  O56  1  0.40364434  0.21402309  0.25644115  1
  O  O57  1  0.90364434  0.28597691  0.74355885  1
  O  O58  1  0.59635566  0.71402309  0.24355885  1
  O  O59  1  0.09635566  0.78597691  0.75644115  1
  O  O60  1  0.74355885  0.59635566  0.78597691  1
  O  O61  1  0.25644115  0.09635566  0.71402309  1
  O  O62  1  0.75644115  0.40364434  0.28597691  1
  O  O63  1  0.24355885  0.90364434  0.21402309  1
  O  O64  1  0.78597691  0.74355885  0.59635566  1
  O  O65  1  0.71402309  0.25644115  0.09635566  1
  O  O66  1  0.28597691  0.75644115  0.40364434  1
  O  O67  1  0.21402309  0.24355885  0.90364434  1
  O  O68  1  0.59635566  0.78597691  0.74355885  1
  O  O69  1  0.09635566  0.71402309  0.25644115  1
  O  O70  1  0.40364434  0.28597691  0.75644115  1
  O  O71  1  0.90364434  0.21402309  0.24355885  1
  O  O72  1  0.10904987  0.04219867  0.38938247  1
  O  O73  1  0.89095013  0.54219867  0.11061753  1
  O  O74  1  0.39095013  0.95780133  0.88938247  1
  O  O75  1  0.60904987  0.45780133  0.61061753  1
  O  O76  1  0.38938247  0.10904987  0.04219867  1
  O  O77  1  0.11061753  0.89095013  0.54219867  1
  O  O78  1  0.88938247  0.39095013  0.95780133  1
  O  O79  1  0.61061753  0.60904987  0.45780133  1
  O  O80  1  0.04219867  0.38938247  0.10904987  1
  O  O81  1  0.54219867  0.11061753  0.89095013  1
  O  O82  1  0.95780133  0.88938247  0.39095013  1
  O  O83  1  0.45780133  0.61061753  0.60904987  1
  O  O84  1  0.89095013  0.95780133  0.61061753  1
  O  O85  1  0.10904987  0.45780133  0.88938247  1
  O  O86  1  0.60904987  0.04219867  0.11061753  1
  O  O87  1  0.39095013  0.54219867  0.38938247  1
  O  O88  1  0.61061753  0.89095013  0.95780133  1
  O  O89  1  0.88938247  0.10904987  0.45780133  1
  O  O90  1  0.11061753  0.60904987  0.04219867  1
  O  O91  1  0.38938247  0.39095013  0.54219867  1
  O  O92  1  0.95780133  0.61061753  0.89095013  1
  O  O93  1  0.45780133  0.88938247  0.10904987  1
  O  O94  1  0.04219867  0.11061753  0.60904987  1
  O  O95  1  0.54219867  0.38938247  0.39095013  1
loop_
_geom_bond_atom_site_label_1
_geom_bond_atom_site_label_2
_geom_bond_distance
_geom_bond_site_symmetry_2
Ce0 O5 2.532225 1_554
Ce0 O17 2.532225 1_555
Ce0 O22 2.532225 1_554
Ce0 O0 2.532225 1_555
Ce0 O10 2.532225 1_555
Ce0 O12 2.532225 1_554
Ce0 O34 2.594571 1_555
Ce0 O24 2.594571 1_555
Ce0 O41 2.594571 1_555
Ce0 O29 2.594571 1_554
Ce0 O46 2.594571 1_554
Ce0 O36 2.594571 1_554
Ce1 O1 2.532225 1_545
Ce1 O8 2.532225 1_555
Ce1 O13 2.532225 1_555
Ce1 O18 2.532225 1_545
Ce1 O20 2.532225 1_545
Ce1 O6 2.532225 1_555
Ce1 O44 2.594571 1_545
Ce1 O25 2.594571 1_545
Ce1 O37 2.594571 1_555
Ce1 O42 2.594571 1_545
Ce1 O32 2.594571 1_555
Ce1 O30 2.594571 1_555
Ce2 O9 2.532225 1_455
Ce2 O21 2.532225 1_555
Ce2 O14 2.532225 1_455
Ce2 O4 2.532225 1_555
Ce2 O16 2.532225 1_455
Ce2 O2 2.532225 1_555
Ce2 O38 2.594571 1_455
Ce2 O28 2.594571 1_555
Ce2 O45 2.594571 1_555
Ce2 O33 2.594571 1_455
Ce2 O40 2.594571 1_455
Ce2 O26 2.594571 1_555
Ce3 O15 2.532225 1_545
Ce3 O23 2.532225 1_455
Ce3 O19 2.532225 1_554
Ce3 O3 2.532225 1_454
Ce3 O11 2.532225 1_544
Ce3 O7 2.532225 1_445
Ce3 O35 2.594571 1_544
Ce3 O43 2.594571 1_554
Ce3 O31 2.594571 1_445
Ce3 O27 2.594571 1_454
Ce3 O47 2.594571 1_455
Ce3 O39 2.594571 1_545
Mg0 O84 2.013066 1_445
Mg0 O82 2.013066 1_445
Mg0 O94 2.013066 1_555
Mg0 O77 2.013066 1_545
Mg0 O89 2.013066 1_455
Mg0 O72 2.013066 1_555
Mg1 O85 2.013066 1_554
Mg1 O92 2.013066 1_454
Mg1 O78 2.013066 1_454
Mg1 O90 2.013066 1_555
Mg1 O73 2.013066 1_455
Mg1 O80 2.013066 1_555
Mg2 O88 2.013066 1_544
Mg2 O74 2.013066 1_544
Mg2 O93 2.013066 1_545
Mg2 O81 2.013066 1_554
Mg2 O86 2.013066 1_555
Mg2 O76 2.013066 1_555
Mg3 O75 2.013066 1_555
Mg3 O79 2.013066 1_555
Mg3 O83 2.013066 1_555
Mg3 O87 2.013066 1_555
Mg3 O91 2.013066 1_555
Mg3 O95 2.013066 1_555
N0 O48 1.220915 1_555
N0 O0 1.279598 1_555
N0 O24 1.288903 1_555
N1 O49 1.220915 1_555
N1 O1 1.279598 1_555
N1 O25 1.288903 1_555
N2 O50 1.220915 1_555
N2 O2 1.279598 1_555
N2 O26 1.288903 1_555
N3 O51 1.220915 1_555
N3 O3 1.279598 1_555
N3 O27 1.288903 1_555
N4 O52 1.220915 1_555
N4 O4 1.279598 1_555
N4 O28 1.288903 1_555
N5 O53 1.220915 1_555
N5 O5 1.279598 1_555
N5 O29 1.288903 1_555
N6 O54 1.220915 1_555
N6 O6 1.279598 1_555
N6 O30 1.288903 1_555
N7 O55 1.220915 1_555
N7 O7 1.279598 1_555
N7 O31 1.288903 1_555
N8 O56 1.220915 1_555
N8 O8 1.279598 1_555
N8 O32 1.288903 1_555
N9 O57 1.220915 1_555
N9 O9 1.279598 1_555
N9 O33 1.288903 1_555
N10 O58 1.220915 1_555
N10 O10 1.279598 1_555
N10 O34 1.288903 1_555
N11 O59 1.220915 1_555
N11 O11 1.279598 1_555
N11 O35 1.288903 1_555
N12 O60 1.220915 1_555
N12 O12 1.279598 1_555
N12 O36 1.288903 1_555
N13 O61 1.220915 1_555
N13 O13 1.279598 1_555
N13 O37 1.288903 1_555
N14 O62 1.220915 1_555
N14 O14 1.279598 1_555
N14 O38 1.288903 1_555
N15 O63 1.220915 1_555
N15 O15 1.279598 1_555
N15 O39 1.288903 1_555
N16 O64 1.220915 1_555
N16 O16 1.279598 1_555
N16 O40 1.288903 1_555
N17 O65 1.220915 1_555
N17 O17 1.279598 1_555
N17 O41 1.288903 1_555
N18 O66 1.220915 1_555
N18 O18 1.279598 1_555
N18 O42 1.288903 1_555
N19 O67 1.220915 1_555
N19 O19 1.279598 1_555
N19 O43 1.288903 1_555
N20 O68 1.220915 1_555
N20 O20 1.279598 1_555
N20 O44 1.288903 1_555
N21 O69 1.220915 1_555
N21 O21 1.279598 1_555
N21 O45 1.288903 1_555
N22 O70 1.220915 1_555
N22 O22 1.279598 1_555
N22 O46 1.288903 1_555
N23 O71 1.220915 1_555
N23 O23 1.279598 1_555
N23 O47 1.288903 1_555
