# generated using pymatgen
data_Pr(As3Ru)4
_symmetry_space_group_name_H-M   'P 1'
_cell_length_a   7.39734843
_cell_length_b   7.39734843
_cell_length_c   7.39734843
_cell_angle_alpha   109.47181108
_cell_angle_beta   109.47181108
_cell_angle_gamma   109.47181108
_symmetry_Int_Tables_number   1
_chemical_formula_structural   Pr(As3Ru)4
_chemical_formula_sum   'Pr1 As12 Ru4'
_cell_volume   311.59956359
_cell_formula_units_Z   1
loop_
 _symmetry_equiv_pos_site_id
 _symmetry_equiv_pos_as_xyz
  1  'x, y, z'
loop_
 _atom_site_type_symbol
 _atom_site_label
 _atom_site_symmetry_multiplicity
 _atom_site_fract_x
 _atom_site_fract_y
 _atom_site_fract_z
 _atom_site_occupancy
  Pr  Pr0  1  0.00000000  -0.00000000  0.00000000  1
  As  As0  1  0.14980802  0.79988211  0.65007491  1
  As  As1  1  0.85019198  0.20011789  0.34992509  1
  As  As2  1  0.14978960  0.49973330  0.34993630  1
  As  As3  1  0.85021040  0.50026670  0.65006370  1
  As  As4  1  0.65007491  0.14980802  0.79988211  1
  As  As5  1  0.34992509  0.85019198  0.20011789  1
  As  As6  1  0.34993630  0.14978960  0.49973330  1
  As  As7  1  0.65006370  0.85021040  0.50026670  1
  As  As8  1  0.79988211  0.65007491  0.14980802  1
  As  As9  1  0.20011789  0.34992509  0.85019198  1
  As  As10  1  0.49973330  0.34993630  0.14978960  1
  As  As11  1  0.50026670  0.65006370  0.85021040  1
  Ru  Ru0  1  0.50000000  -0.00000000  0.00000000  1
  Ru  Ru1  1  0.00000000  -0.00000000  0.50000000  1
  Ru  Ru2  1  0.00000000  0.50000000  0.00000000  1
  Ru  Ru3  1  0.50000000  0.50000000  0.50000000  1
loop_
_geom_bond_atom_site_label_1
_geom_bond_atom_site_label_2
_geom_bond_distance
_geom_bond_site_symmetry_2
As0 Ru0 2.453714 1_566
As0 Ru1 2.453785 1_565
As0 As3 2.559089 1_455
As0 As2 2.563647 1_555
As0 Pr0 3.251361 1_566
As1 Ru0 2.453714 1_555
As1 Ru1 2.453785 1_655
As1 As2 2.559089 1_655
As1 As3 2.563647 1_555
As1 Pr0 3.251361 1_655
As2 Ru2 2.453821 1_555
As2 Ru3 2.453876 1_555
As2 Pr0 3.251375 1_555
As3 Ru2 2.453821 1_656
As3 Ru3 2.453876 1_555
As3 Pr0 3.251375 1_666
As4 Ru2 2.453714 1_656
As4 Ru0 2.453785 1_556
As4 As7 2.559089 1_545
As4 As6 2.563647 1_555
As4 Pr0 3.251361 1_656
As5 Ru2 2.453714 1_555
As5 Ru0 2.453785 1_565
As5 As6 2.559089 1_565
As5 As7 2.563647 1_555
As5 Pr0 3.251361 1_565
As6 Ru1 2.453821 1_555
As6 Ru3 2.453876 1_555
As6 Pr0 3.251375 1_555
As7 Ru1 2.453821 1_665
As7 Ru3 2.453876 1_555
As7 Pr0 3.251375 1_666
As8 Ru1 2.453714 1_665
As8 Ru2 2.453785 1_655
As8 Pr0 3.251361 1_665
As9 Ru1 2.453714 1_555
As9 Ru2 2.453785 1_556
As9 Pr0 3.251361 1_556
As10 Ru0 2.453821 1_555
As10 Ru3 2.453876 1_555
As10 As9 2.559089 1_554
As10 As8 2.563647 1_555
As10 Pr0 3.251375 1_555
As11 Ru0 2.453821 1_566
As11 Ru3 2.453876 1_555
As11 As8 2.559089 1_556
As11 As9 2.563647 1_555
As11 Pr0 3.251375 1_666
