# generated using pymatgen
data_Sc2ReB6
_symmetry_space_group_name_H-M   'P 1'
_cell_length_a   3.51757400
_cell_length_b   8.93209800
_cell_length_c   11.22111700
_cell_angle_alpha   90.00000000
_cell_angle_beta   90.00000000
_cell_angle_gamma   90.00000000
_symmetry_Int_Tables_number   1
_chemical_formula_structural   Sc2ReB6
_chemical_formula_sum   'Sc8 Re4 B24'
_cell_volume   352.55981742
_cell_formula_units_Z   4
loop_
 _symmetry_equiv_pos_site_id
 _symmetry_equiv_pos_as_xyz
  1  'x, y, z'
loop_
 _atom_site_type_symbol
 _atom_site_label
 _atom_site_symmetry_multiplicity
 _atom_site_fract_x
 _atom_site_fract_y
 _atom_site_fract_z
 _atom_site_occupancy
  Sc  Sc0  1  0.00000000  0.32234000  0.41313800  1
  Sc  Sc1  1  0.00000000  0.67766000  0.58686200  1
  Sc  Sc2  1  0.00000000  0.82234000  0.08686200  1
  Sc  Sc3  1  0.00000000  0.17766000  0.91313800  1
  Sc  Sc4  1  0.00000000  0.94475400  0.37125800  1
  Sc  Sc5  1  0.00000000  0.05524600  0.62874200  1
  Sc  Sc6  1  0.00000000  0.44475400  0.12874200  1
  Sc  Sc7  1  0.00000000  0.55524600  0.87125800  1
  Re  Re0  1  0.00000000  0.64029000  0.32034800  1
  Re  Re1  1  0.00000000  0.35971000  0.67965200  1
  Re  Re2  1  0.00000000  0.14029000  0.17965200  1
  Re  Re3  1  0.00000000  0.85971000  0.82034800  1
  B  B0  1  0.50000000  0.55337500  0.43493100  1
  B  B1  1  0.50000000  0.44662500  0.56506900  1
  B  B2  1  0.50000000  0.05337500  0.06506900  1
  B  B3  1  0.50000000  0.94662500  0.93493100  1
  B  B4  1  0.50000000  0.75409200  0.42224900  1
  B  B5  1  0.50000000  0.24590800  0.57775100  1
  B  B6  1  0.50000000  0.25409200  0.07775100  1
  B  B7  1  0.50000000  0.74590800  0.92224900  1
  B  B8  1  0.50000000  0.79625400  0.26452300  1
  B  B9  1  0.50000000  0.20374600  0.73547700  1
  B  B10  1  0.50000000  0.29625400  0.23547700  1
  B  B11  1  0.50000000  0.70374600  0.76452300  1
  B  B12  1  0.50000000  0.63091400  0.18243100  1
  B  B13  1  0.50000000  0.36908600  0.81756900  1
  B  B14  1  0.50000000  0.13091400  0.31756900  1
  B  B15  1  0.50000000  0.86908600  0.68243100  1
  B  B16  1  0.50000000  0.97995800  0.21252500  1
  B  B17  1  0.50000000  0.02004200  0.78747500  1
  B  B18  1  0.50000000  0.47995800  0.28747500  1
  B  B19  1  0.50000000  0.52004200  0.71252500  1
  B  B20  1  0.50000000  0.59740800  0.02725200  1
  B  B21  1  0.50000000  0.40259200  0.97274800  1
  B  B22  1  0.50000000  0.09740800  0.47274800  1
  B  B23  1  0.50000000  0.90259200  0.52725200  1
loop_
_geom_bond_atom_site_label_1
_geom_bond_atom_site_label_2
_geom_bond_distance
_geom_bond_site_symmetry_2
Re0 Sc6 2.770030 1_555
Re0 Sc4 2.778856 1_555
Re0 Sc1 3.009155 1_555
Re0 Sc0 3.024812 1_555
Re0 Sc2 3.083574 1_555
Re1 Sc7 2.770030 1_555
Re1 Sc5 2.778856 1_555
Re1 Sc0 3.009155 1_555
Re1 Sc1 3.024812 1_555
Re1 Sc3 3.083574 1_555
Re2 Sc4 2.770030 1_545
Re2 Sc6 2.778856 1_555
Re2 Sc3 3.009155 1_554
Re2 Sc2 3.024812 1_545
Re2 Sc0 3.083574 1_555
Re3 Sc5 2.770030 1_565
Re3 Sc7 2.778856 1_555
Re3 Sc2 3.009155 1_556
Re3 Sc3 3.024812 1_565
Re3 Sc1 3.083574 1_555
B0 B1 1.744025 1_555
B0 B18 1.779832 1_555
B0 B4 1.798463 1_555
B0 Re0 2.312829 1_555
B0 Re0 2.312829 1_655
B0 Sc1 2.689270 1_555
B0 Sc1 2.689270 1_655
B0 Sc0 2.722442 1_555
B0 Sc0 2.722442 1_655
B1 B19 1.779832 1_555
B1 B5 1.798463 1_555
B1 Re1 2.312829 1_555
B1 Re1 2.312829 1_655
B1 Sc0 2.689270 1_555
B1 Sc0 2.689270 1_655
B1 Sc1 2.722442 1_655
B1 Sc1 2.722442 1_555
B2 B3 1.744025 1_544
B2 B6 1.798463 1_555
B2 Re2 2.312829 1_655
B2 Re2 2.312829 1_555
B2 Sc3 2.689270 1_654
B2 Sc3 2.689270 1_554
B2 Sc2 2.722442 1_645
B2 Sc2 2.722442 1_545
B3 B7 1.798463 1_555
B3 Re3 2.312829 1_555
B3 Re3 2.312829 1_655
B3 Sc2 2.689270 1_556
B3 Sc2 2.689270 1_656
B3 Sc3 2.722442 1_665
B3 Sc3 2.722442 1_565
B4 B8 1.809485 1_555
B4 Re0 2.331104 1_655
B4 Re0 2.331104 1_555
B4 Sc4 2.514153 1_555
B4 Sc4 2.514153 1_655
B4 Sc1 2.640330 1_555
B4 Sc1 2.640330 1_655
B5 B9 1.809485 1_555
B5 Re1 2.331104 1_555
B5 Re1 2.331104 1_655
B5 Sc5 2.514153 1_655
B5 Sc5 2.514153 1_555
B5 Sc0 2.640330 1_555
B5 Sc0 2.640330 1_655
B6 Re2 2.331104 1_555
B6 Re2 2.331104 1_655
B6 Sc6 2.514153 1_655
B6 Sc6 2.514153 1_555
B6 Sc3 2.640330 1_654
B6 Sc3 2.640330 1_554
B7 Re3 2.331104 1_555
B7 Re3 2.331104 1_655
B7 Sc7 2.514153 1_655
B7 Sc7 2.514153 1_555
B7 Sc2 2.640330 1_556
B7 Sc2 2.640330 1_656
B8 Re0 2.329468 1_555
B8 Re0 2.329468 1_655
B8 Sc4 2.507422 1_555
B8 Sc4 2.507422 1_655
B8 Sc2 2.668686 1_555
B8 Sc2 2.668686 1_655
B9 Re1 2.329468 1_555
B9 Re1 2.329468 1_655
B9 Sc5 2.507422 1_555
B9 Sc5 2.507422 1_655
B9 Sc3 2.668686 1_655
B9 Sc3 2.668686 1_555
B10 B14 1.740569 1_555
B10 B18 1.741514 1_555
B10 B6 1.809485 1_555
B10 Re2 2.329468 1_655
B10 Re2 2.329468 1_555
B10 Sc6 2.507422 1_655
B10 Sc6 2.507422 1_555
B10 Sc0 2.668686 1_655
B10 Sc0 2.668686 1_555
B11 B15 1.740569 1_555
B11 B19 1.741514 1_555
B11 B7 1.809485 1_555
B11 Re3 2.329468 1_655
B11 Re3 2.329468 1_555
B11 Sc7 2.507422 1_655
B11 Sc7 2.507422 1_555
B11 Sc1 2.668686 1_655
B11 Sc1 2.668686 1_555
B12 B8 1.740569 1_555
B12 B20 1.766813 1_555
B12 B18 1.790926 1_555
B12 Re0 2.344218 1_655
B12 Re0 2.344218 1_555
B12 Sc6 2.494229 1_555
B12 Sc6 2.494229 1_655
B12 Sc2 2.677105 1_655
B12 Sc2 2.677105 1_555
B13 B9 1.740569 1_555
B13 B21 1.766813 1_555
B13 B19 1.790926 1_555
B13 Re1 2.344218 1_655
B13 Re1 2.344218 1_555
B13 Sc7 2.494229 1_655
B13 Sc7 2.494229 1_555
B13 Sc3 2.677105 1_555
B13 Sc3 2.677105 1_655
B14 B22 1.766813 1_555
B14 B16 1.790926 1_545
B14 Re2 2.344218 1_655
B14 Re2 2.344218 1_555
B14 Sc4 2.494229 1_645
B14 Sc4 2.494229 1_545
B14 Sc0 2.677105 1_655
B14 Sc0 2.677105 1_555
B15 B23 1.766813 1_555
B15 B17 1.790926 1_565
B15 Re3 2.344218 1_655
B15 Re3 2.344218 1_555
B15 Sc5 2.494229 1_565
B15 Sc5 2.494229 1_665
B15 Sc1 2.677105 1_555
B15 Sc1 2.677105 1_655
B16 B8 1.741514 1_555
B16 B2 1.779832 1_565
B16 Re2 2.297893 1_565
B16 Re2 2.297893 1_665
B16 Sc4 2.522844 1_555
B16 Sc4 2.522844 1_655
B16 Sc2 2.657767 1_555
B16 Sc2 2.657767 1_655
B17 B9 1.741514 1_555
B17 B3 1.779832 1_545
B17 Re3 2.297893 1_645
B17 Re3 2.297893 1_545
B17 Sc5 2.522844 1_555
B17 Sc5 2.522844 1_655
B17 Sc3 2.657767 1_555
B17 Sc3 2.657767 1_655
B18 Re0 2.297893 1_655
B18 Re0 2.297893 1_555
B18 Sc6 2.522844 1_655
B18 Sc6 2.522844 1_555
B18 Sc0 2.657767 1_555
B18 Sc0 2.657767 1_655
B19 Re1 2.297893 1_655
B19 Re1 2.297893 1_555
B19 Sc7 2.522844 1_655
B19 Sc7 2.522844 1_555
B19 Sc1 2.657767 1_555
B19 Sc1 2.657767 1_655
B20 B7 1.774164 1_554
B20 B21 1.844465 1_554
B20 Sc6 2.499891 1_655
B20 Sc6 2.499891 1_555
B20 Sc7 2.509811 1_654
B20 Sc7 2.509811 1_554
B20 Sc2 2.752687 1_555
B20 Sc2 2.752687 1_655
B21 B6 1.774164 1_556
B21 Sc7 2.499891 1_655
B21 Sc7 2.499891 1_555
B21 Sc6 2.509811 1_556
B21 Sc6 2.509811 1_656
B21 Sc3 2.752687 1_555
B21 Sc3 2.752687 1_655
B22 B5 1.774164 1_555
B22 B23 1.844465 1_545
B22 Sc4 2.499891 1_645
B22 Sc4 2.499891 1_545
B22 Sc5 2.509811 1_555
B22 Sc5 2.509811 1_655
B22 Sc0 2.752687 1_655
B22 Sc0 2.752687 1_555
B23 B4 1.774164 1_555
B23 Sc5 2.499891 1_665
B23 Sc5 2.499891 1_565
B23 Sc4 2.509811 1_655
B23 Sc4 2.509811 1_555
B23 Sc1 2.752687 1_655
B23 Sc1 2.752687 1_555
