# generated using pymatgen
data_Hg3(SCl)2
_symmetry_space_group_name_H-M   'P 1'
_cell_length_a   4.69087500
_cell_length_b   9.07935800
_cell_length_c   9.65382400
_cell_angle_alpha   90.00000000
_cell_angle_beta   90.00000000
_cell_angle_gamma   90.00000000
_symmetry_Int_Tables_number   1
_chemical_formula_structural   Hg3(SCl)2
_chemical_formula_sum   'Hg6 S4 Cl4'
_cell_volume   411.15765254
_cell_formula_units_Z   2
loop_
 _symmetry_equiv_pos_site_id
 _symmetry_equiv_pos_as_xyz
  1  'x, y, z'
loop_
 _atom_site_type_symbol
 _atom_site_label
 _atom_site_symmetry_multiplicity
 _atom_site_fract_x
 _atom_site_fract_y
 _atom_site_fract_z
 _atom_site_occupancy
  Hg  Hg0  1  0.00000000  0.77318300  0.21695900  1
  Hg  Hg1  1  0.00000000  0.27318300  0.78304100  1
  Hg  Hg2  1  0.00000000  0.52444300  0.51791500  1
  Hg  Hg3  1  0.00000000  0.02444300  0.48208500  1
  Hg  Hg4  1  0.50000000  0.35083400  0.22002100  1
  Hg  Hg5  1  0.50000000  0.85083400  0.77997900  1
  S  S0  1  0.00000000  0.50880400  0.26454700  1
  S  S1  1  0.00000000  0.53181900  0.76296400  1
  S  S2  1  0.00000000  0.03181900  0.23703600  1
  S  S3  1  0.00000000  0.00880400  0.73545300  1
  Cl  Cl0  1  0.50000000  0.73182600  0.00718400  1
  Cl  Cl1  1  0.50000000  0.23182600  0.99281600  1
  Cl  Cl2  1  0.50000000  0.77629100  0.52566000  1
  Cl  Cl3  1  0.50000000  0.27629100  0.47434000  1
loop_
_geom_bond_atom_site_label_1
_geom_bond_atom_site_label_2
_geom_bond_distance
_geom_bond_site_symmetry_2
Hg0 S2 2.356234 1_565
Hg0 S0 2.443959 1_555
Hg1 S1 2.356234 1_555
Hg1 S3 2.443959 1_555
Hg2 S1 2.366608 1_555
Hg2 S0 2.450088 1_555
Hg3 S2 2.366608 1_555
Hg3 S3 2.450088 1_555
Hg4 S0 2.782618 1_655
Hg4 S0 2.782618 1_555
Hg5 S3 2.782618 1_565
Hg5 S3 2.782618 1_665
Cl0 Hg5 2.445098 1_554
Cl1 Hg4 2.445098 1_556
Cl2 Hg5 2.546729 1_555
Cl3 Hg4 2.546729 1_555
