# generated using pymatgen
data_K2YAuI6
_symmetry_space_group_name_H-M   'P 1'
_cell_length_a   8.53492027
_cell_length_b   8.53492027
_cell_length_c   8.53492027
_cell_angle_alpha   60.00000000
_cell_angle_beta   60.00000000
_cell_angle_gamma   60.00000000
_symmetry_Int_Tables_number   1
_chemical_formula_structural   K2YAuI6
_chemical_formula_sum   'K2 Y1 Au1 I6'
_cell_volume   439.62603885
_cell_formula_units_Z   1
loop_
 _symmetry_equiv_pos_site_id
 _symmetry_equiv_pos_as_xyz
  1  'x, y, z'
loop_
 _atom_site_type_symbol
 _atom_site_label
 _atom_site_symmetry_multiplicity
 _atom_site_fract_x
 _atom_site_fract_y
 _atom_site_fract_z
 _atom_site_occupancy
  K  K0  1  0.75000000  0.75000000  0.75000000  1
  K  K1  1  0.25000000  0.25000000  0.25000000  1
  Y  Y0  1  0.00000000  0.00000000  0.00000000  1
  Au  Au0  1  0.50000000  0.50000000  0.50000000  1
  I  I0  1  0.74924200  0.25075800  0.25075800  1
  I  I1  1  0.25075800  0.25075800  0.74924200  1
  I  I2  1  0.25075800  0.74924200  0.74924200  1
  I  I3  1  0.25075800  0.74924200  0.25075800  1
  I  I4  1  0.74924200  0.25075800  0.74924200  1
  I  I5  1  0.74924200  0.74924200  0.25075800  1
loop_
_geom_bond_atom_site_label_1
_geom_bond_atom_site_label_2
_geom_bond_distance
_geom_bond_site_symmetry_2
Au0 I4 3.008401 1_555
Au0 I5 3.008401 1_555
Au0 I2 3.008401 1_555
Au0 I1 3.008401 1_555
Au0 I3 3.008401 1_555
Au0 I0 3.008401 1_555
I0 Y0 3.026699 1_655
I1 Y0 3.026699 1_556
I2 Y0 3.026699 1_566
I3 Y0 3.026699 1_565
I4 Y0 3.026699 1_656
I5 Y0 3.026699 1_665
