# generated using pymatgen
data_Mg6VCr
_symmetry_space_group_name_H-M   'P 1'
_cell_length_a   4.95202400
_cell_length_b   6.25797100
_cell_length_c   10.67951800
_cell_angle_alpha   90.00000000
_cell_angle_beta   90.00000000
_cell_angle_gamma   90.00000000
_symmetry_Int_Tables_number   1
_chemical_formula_structural   Mg6VCr
_chemical_formula_sum   'Mg12 V2 Cr2'
_cell_volume   330.95423219
_cell_formula_units_Z   2
loop_
 _symmetry_equiv_pos_site_id
 _symmetry_equiv_pos_as_xyz
  1  'x, y, z'
loop_
 _atom_site_type_symbol
 _atom_site_label
 _atom_site_symmetry_multiplicity
 _atom_site_fract_x
 _atom_site_fract_y
 _atom_site_fract_z
 _atom_site_occupancy
  Mg  Mg0  1  0.50000000  0.24903000  0.58175100  1
  Mg  Mg1  1  0.50000000  0.75097000  0.58175100  1
  Mg  Mg2  1  0.00000000  0.25145000  0.41233400  1
  Mg  Mg3  1  0.00000000  0.74855000  0.41233400  1
  Mg  Mg4  1  0.00000000  0.00000000  0.67236500  1
  Mg  Mg5  1  0.00000000  0.00000000  0.17150500  1
  Mg  Mg6  1  0.50000000  0.74903000  0.08175100  1
  Mg  Mg7  1  0.50000000  0.25097000  0.08175100  1
  Mg  Mg8  1  0.00000000  0.75145000  0.91233400  1
  Mg  Mg9  1  0.00000000  0.24855000  0.91233400  1
  Mg  Mg10  1  0.00000000  0.50000000  0.17236500  1
  Mg  Mg11  1  0.00000000  0.50000000  0.67150500  1
  V  V0  1  0.50000000  0.00000000  0.83347600  1
  V  V1  1  0.50000000  0.50000000  0.33347600  1
  Cr  Cr0  1  0.50000000  0.00000000  0.33448900  1
  Cr  Cr1  1  0.50000000  0.50000000  0.83448900  1
loop_
_geom_bond_atom_site_label_1
_geom_bond_atom_site_label_2
_geom_bond_distance
_geom_bond_site_symmetry_2
Mg0 Mg2 3.066660 1_555
Mg0 Mg2 3.066660 1_655
Mg0 Mg4 3.081523 1_655
Mg0 Mg4 3.081523 1_555
Mg0 V1 3.081703 1_555
Mg0 Mg11 3.084815 1_555
Mg0 Mg11 3.084815 1_655
Mg0 V0 3.107354 1_555
Mg0 Mg1 3.116845 1_545
Mg0 Mg1 3.141126 1_555
Mg1 Mg3 3.066660 1_555
Mg1 Mg3 3.066660 1_655
Mg1 Mg4 3.081523 1_665
Mg1 Mg4 3.081523 1_565
Mg1 V1 3.081703 1_555
Mg1 Mg11 3.084815 1_555
Mg1 Mg11 3.084815 1_655
Mg1 V0 3.107354 1_565
Mg2 Mg5 3.015124 1_555
Mg2 V1 3.042894 1_455
Mg2 V1 3.042894 1_555
Mg2 Mg3 3.110837 1_555
Mg2 Mg3 3.147134 1_545
Mg2 Mg4 3.191845 1_555
Mg3 Mg5 3.015124 1_565
Mg3 V1 3.042894 1_455
Mg3 V1 3.042894 1_555
Mg3 Mg4 3.191845 1_565
Mg4 Mg9 2.997838 1_555
Mg4 Mg8 2.997838 1_545
Mg4 V0 3.015138 1_455
Mg4 V0 3.015138 1_555
Mg5 Mg6 3.084815 1_445
Mg5 Mg7 3.084815 1_455
Mg5 Mg6 3.084815 1_545
Mg5 Mg7 3.084815 1_555
Mg5 Mg9 3.174927 1_554
Mg5 Mg8 3.174927 1_544
Mg6 Mg8 3.066660 1_554
Mg6 Mg8 3.066660 1_654
Mg6 V0 3.081703 1_564
Mg6 V1 3.107354 1_555
Mg6 Mg7 3.116845 1_555
Mg6 Mg7 3.141126 1_565
Mg7 Mg9 3.066660 1_654
Mg7 Mg9 3.066660 1_554
Mg7 V0 3.081703 1_554
Mg7 V1 3.107354 1_555
Mg8 V0 3.042894 1_565
Mg8 V0 3.042894 1_465
Mg8 Mg9 3.110837 1_565
Mg8 Mg9 3.147134 1_555
Mg9 V0 3.042894 1_455
Mg9 V0 3.042894 1_555
Mg10 Mg2 2.997838 1_555
Mg10 Mg3 2.997838 1_555
Mg10 V1 3.015138 1_555
Mg10 V1 3.015138 1_455
Mg10 Mg6 3.081523 1_555
Mg10 Mg7 3.081523 1_455
Mg10 Mg7 3.081523 1_555
Mg10 Mg6 3.081523 1_455
Mg10 Mg5 3.128999 1_565
Mg10 Mg5 3.128999 1_555
Mg10 Mg8 3.191845 1_554
Mg10 Mg9 3.191845 1_554
Mg11 Mg8 3.015124 1_555
Mg11 Mg9 3.015124 1_555
Mg11 Mg4 3.128999 1_565
Mg11 Mg4 3.128999 1_555
Mg11 Mg3 3.174927 1_555
Mg11 Mg2 3.174927 1_555
Cr0 Mg5 3.026597 1_555
Cr0 Mg5 3.026597 1_655
Cr0 Mg2 3.049243 1_555
Cr0 Mg3 3.049243 1_645
Cr0 Mg2 3.049243 1_655
Cr0 Mg3 3.049243 1_545
Cr0 Mg0 3.066212 1_555
Cr0 Mg1 3.066212 1_545
Cr0 Mg6 3.122806 1_545
Cr0 Mg7 3.122806 1_555
Cr0 V1 3.129004 1_545
Cr0 V1 3.129004 1_555
Cr1 Mg11 3.026597 1_655
Cr1 Mg11 3.026597 1_555
Cr1 Mg8 3.049243 1_555
Cr1 Mg9 3.049243 1_555
Cr1 Mg8 3.049243 1_655
Cr1 Mg9 3.049243 1_655
Cr1 Mg6 3.066212 1_556
Cr1 Mg7 3.066212 1_556
Cr1 Mg1 3.122806 1_555
Cr1 Mg0 3.122806 1_555
Cr1 V0 3.129004 1_555
Cr1 V0 3.129004 1_565
