# generated using pymatgen
data_K3TbGe3(HO5)2
_symmetry_space_group_name_H-M   'P 1'
_cell_length_a   6.11396400
_cell_length_b   13.76150600
_cell_length_c   14.08787500
_cell_angle_alpha   90.00000000
_cell_angle_beta   90.00000000
_cell_angle_gamma   90.00000000
_symmetry_Int_Tables_number   1
_chemical_formula_structural   K3TbGe3(HO5)2
_chemical_formula_sum   'K12 Tb4 Ge12 H8 O40'
_cell_volume   1185.31650161
_cell_formula_units_Z   4
loop_
 _symmetry_equiv_pos_site_id
 _symmetry_equiv_pos_as_xyz
  1  'x, y, z'
loop_
 _atom_site_type_symbol
 _atom_site_label
 _atom_site_symmetry_multiplicity
 _atom_site_fract_x
 _atom_site_fract_y
 _atom_site_fract_z
 _atom_site_occupancy
  K  K0  1  0.41952800  0.63127600  0.25000000  1
  K  K1  1  0.08047200  0.13127600  0.25000000  1
  K  K2  1  0.58047200  0.36872400  0.75000000  1
  K  K3  1  0.91952800  0.86872400  0.75000000  1
  K  K4  1  0.08974700  0.63521000  0.01520200  1
  K  K5  1  0.41025300  0.13521000  0.48479800  1
  K  K6  1  0.91025300  0.36479000  0.51520200  1
  K  K7  1  0.58974700  0.86479000  0.98479800  1
  K  K8  1  0.91025300  0.36479000  0.98479800  1
  K  K9  1  0.58974700  0.86479000  0.51520200  1
  K  K10  1  0.08974700  0.63521000  0.48479800  1
  K  K11  1  0.41025300  0.13521000  0.01520200  1
  Tb  Tb0  1  0.58955100  0.95911900  0.25000000  1
  Tb  Tb1  1  0.91044900  0.45911900  0.25000000  1
  Tb  Tb2  1  0.41044900  0.04088100  0.75000000  1
  Tb  Tb3  1  0.08955100  0.54088100  0.75000000  1
  Ge  Ge0  1  0.91269300  0.74451500  0.25000000  1
  Ge  Ge1  1  0.58730700  0.24451500  0.25000000  1
  Ge  Ge2  1  0.08730700  0.25548500  0.75000000  1
  Ge  Ge3  1  0.41269300  0.75548500  0.75000000  1
  Ge  Ge4  1  0.09117600  0.90112800  0.10351200  1
  Ge  Ge5  1  0.40882400  0.40112800  0.39648800  1
  Ge  Ge6  1  0.90882400  0.09887200  0.60351200  1
  Ge  Ge7  1  0.59117600  0.59887200  0.89648800  1
  Ge  Ge8  1  0.90882400  0.09887200  0.89648800  1
  Ge  Ge9  1  0.59117600  0.59887200  0.60351200  1
  Ge  Ge10  1  0.09117600  0.90112800  0.39648800  1
  Ge  Ge11  1  0.40882400  0.40112800  0.10351200  1
  H  H0  1  0.11621300  0.92489000  0.93760400  1
  H  H1  1  0.38378700  0.42489000  0.56239600  1
  H  H2  1  0.88378700  0.07511000  0.43760400  1
  H  H3  1  0.61621300  0.57511000  0.06239600  1
  H  H4  1  0.88378700  0.07511000  0.06239600  1
  H  H5  1  0.61621300  0.57511000  0.43760400  1
  H  H6  1  0.11621300  0.92489000  0.56239600  1
  H  H7  1  0.38378700  0.42489000  0.93760400  1
  O  O0  1  0.65634600  0.79743700  0.25000000  1
  O  O1  1  0.84365400  0.29743700  0.25000000  1
  O  O2  1  0.34365400  0.20256300  0.75000000  1
  O  O3  1  0.15634600  0.70256300  0.75000000  1
  O  O4  1  0.92363000  0.61929200  0.25000000  1
  O  O5  1  0.57637000  0.11929200  0.25000000  1
  O  O6  1  0.07637000  0.38070800  0.75000000  1
  O  O7  1  0.42363000  0.88070800  0.75000000  1
  O  O8  1  0.08681600  0.86618800  0.97877500  1
  O  O9  1  0.41318400  0.36618800  0.52122500  1
  O  O10  1  0.91318400  0.13381200  0.47877500  1
  O  O11  1  0.58681600  0.63381200  0.02122500  1
  O  O12  1  0.91318400  0.13381200  0.02122500  1
  O  O13  1  0.58681600  0.63381200  0.47877500  1
  O  O14  1  0.08681600  0.86618800  0.52122500  1
  O  O15  1  0.41318400  0.36618800  0.97877500  1
  O  O16  1  0.33841200  0.95786200  0.12997100  1
  O  O17  1  0.16158800  0.45786300  0.37002900  1
  O  O18  1  0.66158800  0.04213800  0.62997100  1
  O  O19  1  0.83841200  0.54213800  0.87002900  1
  O  O20  1  0.66158800  0.04213800  0.87002900  1
  O  O21  1  0.83841200  0.54213800  0.62997100  1
  O  O22  1  0.33841200  0.95786200  0.37002900  1
  O  O23  1  0.16158800  0.45786300  0.12997100  1
  O  O24  1  0.07880800  0.77896500  0.14898300  1
  O  O25  1  0.42119200  0.27896500  0.35101700  1
  O  O26  1  0.92119200  0.22103500  0.64898300  1
  O  O27  1  0.57880800  0.72103500  0.85101700  1
  O  O28  1  0.92119200  0.22103500  0.85101700  1
  O  O29  1  0.57880800  0.72103500  0.64898300  1
  O  O30  1  0.07880800  0.77896500  0.35101700  1
  O  O31  1  0.42119200  0.27896500  0.14898300  1
  O  O32  1  0.86025100  0.97125200  0.13157600  1
  O  O33  1  0.63974900  0.47125200  0.36842400  1
  O  O34  1  0.13974900  0.02874800  0.63157600  1
  O  O35  1  0.36025100  0.52874800  0.86842400  1
  O  O36  1  0.13974900  0.02874800  0.86842400  1
  O  O37  1  0.36025100  0.52874800  0.63157600  1
  O  O38  1  0.86025100  0.97125200  0.36842400  1
  O  O39  1  0.63974900  0.47125200  0.13157600  1
loop_
_geom_bond_atom_site_label_1
_geom_bond_atom_site_label_2
_geom_bond_distance
_geom_bond_site_symmetry_2
K0 O0 2.706485 1_555
K0 O4 3.036384 1_455
K0 O33 3.073399 1_555
K0 O39 3.073399 1_555
K0 O4 3.086471 1_555
K0 O24 3.239678 1_555
K0 O30 3.239678 1_555
K0 O23 3.322858 1_555
K0 O17 3.322858 1_555
K1 O1 2.706485 1_455
K1 O5 3.036384 1_555
K1 O38 3.073399 1_445
K1 O32 3.073399 1_445
K1 O5 3.086471 1_455
K1 O31 3.239678 1_555
K1 O25 3.239678 1_555
K1 O22 3.322868 1_545
K1 O16 3.322868 1_545
K2 O2 2.706485 1_555
K2 O6 3.036384 1_655
K2 O37 3.073399 1_555
K2 O35 3.073399 1_555
K2 O6 3.086471 1_555
K2 O28 3.239678 1_555
K2 O26 3.239678 1_555
K2 O19 3.322868 1_555
K2 O21 3.322868 1_555
K3 O3 2.706485 1_655
K3 O7 3.036384 1_555
K3 O36 3.073399 1_665
K3 O34 3.073399 1_665
K3 O7 3.086471 1_655
K3 O29 3.239678 1_555
K3 O27 3.239678 1_555
K3 O20 3.322868 1_565
K3 O18 3.322868 1_565
K4 O24 2.733156 1_555
K4 O19 2.860863 1_454
K4 O23 2.960317 1_555
K4 O35 3.026125 1_554
K4 O11 3.040307 1_555
K4 O11 3.076133 1_455
K4 O8 3.219814 1_554
K5 O25 2.733156 1_555
K5 O18 2.860863 1_555
K5 O22 2.960328 1_545
K5 O34 3.026125 1_555
K5 O10 3.040307 1_455
K5 O10 3.076133 1_555
K5 O9 3.219814 1_555
K6 O26 2.733156 1_555
K6 O17 2.860869 1_655
K6 O21 2.960328 1_555
K6 O33 3.026125 1_555
K6 O9 3.040307 1_555
K6 O9 3.076133 1_655
K6 O10 3.219814 1_555
K7 O27 2.733156 1_555
K7 O16 2.860863 1_556
K7 O20 2.960328 1_565
K7 O32 3.026125 1_556
K7 O8 3.040307 1_655
K7 O8 3.076133 1_555
K7 O11 3.219814 1_556
K8 O28 2.733156 1_555
K8 O23 2.860869 1_656
K8 O19 2.960328 1_555
K8 O39 3.026125 1_556
K8 O15 3.040307 1_555
K8 O15 3.076133 1_655
K8 O12 3.219814 1_556
K9 O29 2.733156 1_555
K9 O22 2.860863 1_555
K9 O18 2.960328 1_565
K9 O38 3.026125 1_555
K9 O14 3.040307 1_655
K9 O14 3.076133 1_555
K9 O13 3.219814 1_555
K10 O30 2.733156 1_555
K10 O21 2.860863 1_455
K10 O17 2.960317 1_555
K10 O37 3.026125 1_555
K10 O13 3.040307 1_555
K10 O13 3.076133 1_455
K10 O14 3.219814 1_555
K11 O31 2.733156 1_555
K11 O20 2.860863 1_554
K11 O16 2.960328 1_545
K11 O36 3.026125 1_554
K11 O12 3.040307 1_455
K11 O12 3.076133 1_555
K11 O15 3.219814 1_554
Ge0 O4 1.724554 1_555
Ge0 O0 1.728242 1_555
Ge0 O24 1.811490 1_655
Ge0 O30 1.811490 1_655
Ge1 O5 1.724554 1_555
Ge1 O1 1.728242 1_555
Ge1 O31 1.811490 1_555
Ge1 O25 1.811490 1_555
Ge2 O6 1.724554 1_555
Ge2 O2 1.728242 1_555
Ge2 O28 1.811490 1_455
Ge2 O26 1.811490 1_455
Ge3 O7 1.724554 1_555
Ge3 O3 1.728242 1_555
Ge3 O27 1.811490 1_555
Ge3 O29 1.811490 1_555
Ge4 O16 1.741671 1_555
Ge4 O32 1.755257 1_455
Ge4 O24 1.800647 1_555
Ge4 O8 1.822069 1_554
Ge5 O17 1.741677 1_555
Ge5 O33 1.755257 1_555
Ge5 O25 1.800647 1_555
Ge5 O9 1.822069 1_555
Ge6 O18 1.741671 1_555
Ge6 O34 1.755257 1_655
Ge6 O26 1.800647 1_555
Ge6 O10 1.822069 1_555
Ge7 O19 1.741671 1_555
Ge7 O35 1.755257 1_555
Ge7 O27 1.800647 1_555
Ge7 O11 1.822069 1_556
Ge8 O20 1.741671 1_555
Ge8 O36 1.755257 1_655
Ge8 O28 1.800647 1_555
Ge8 O12 1.822069 1_556
Ge9 O21 1.741671 1_555
Ge9 O37 1.755257 1_555
Ge9 O29 1.800647 1_555
Ge9 O13 1.822069 1_555
Ge10 O22 1.741671 1_555
Ge10 O38 1.755257 1_455
Ge10 O30 1.800647 1_555
Ge10 O14 1.822069 1_555
Ge11 O23 1.741677 1_555
Ge11 O39 1.755257 1_555
Ge11 O31 1.800647 1_555
Ge11 O15 1.822069 1_554
H0 O8 1.010596 1_555
H0 O36 1.735881 1_565
H0 K3 3.004767 1_455
H1 O9 1.010596 1_555
H1 O37 1.735881 1_555
H1 K2 3.004767 1_555
H2 O10 1.010596 1_555
H2 O38 1.735881 1_545
H2 K1 3.004767 1_655
H3 O11 1.010596 1_555
H3 O39 1.735881 1_555
H3 K0 3.004767 1_555
H4 O12 1.010596 1_555
H4 O32 1.735881 1_545
H4 K1 3.004767 1_655
H5 O13 1.010596 1_555
H5 O33 1.735881 1_555
H5 K0 3.004767 1_555
H6 O14 1.010596 1_555
H6 O34 1.735881 1_565
H6 K3 3.004767 1_455
H7 O15 1.010596 1_555
H7 O35 1.735881 1_555
H7 K2 3.004767 1_555
O0 Tb0 2.262155 1_555
O1 Tb1 2.262155 1_555
O2 Tb2 2.262155 1_555
O3 Tb3 2.262155 1_555
O4 Tb1 2.205694 1_555
O5 Tb0 2.205694 1_545
O6 Tb3 2.205694 1_555
O7 Tb2 2.205694 1_565
O16 Tb0 2.284129 1_555
O17 Tb1 2.284129 1_455
O18 Tb2 2.284129 1_555
O19 Tb3 2.284129 1_655
O20 Tb2 2.284129 1_555
O21 Tb3 2.284129 1_655
O22 Tb0 2.284129 1_555
O23 Tb1 2.284129 1_455
O32 Tb0 2.355936 1_555
O33 Tb1 2.355936 1_555
O34 Tb2 2.355936 1_555
O35 Tb3 2.355936 1_555
O36 Tb2 2.355936 1_555
O37 Tb3 2.355936 1_555
O38 Tb0 2.355936 1_555
O39 Tb1 2.355936 1_555
