# generated using pymatgen
data_Mn2OF4
_symmetry_space_group_name_H-M   'P 1'
_cell_length_a   3.03049497
_cell_length_b   5.40462093
_cell_length_c   12.34317817
_cell_angle_alpha   90.01002775
_cell_angle_beta   90.01196630
_cell_angle_gamma   108.60903306
_symmetry_Int_Tables_number   1
_chemical_formula_structural   Mn2OF4
_chemical_formula_sum   'Mn4 O2 F8'
_cell_volume   191.59534852
_cell_formula_units_Z   2
loop_
 _symmetry_equiv_pos_site_id
 _symmetry_equiv_pos_as_xyz
  1  'x, y, z'
loop_
 _atom_site_type_symbol
 _atom_site_label
 _atom_site_symmetry_multiplicity
 _atom_site_fract_x
 _atom_site_fract_y
 _atom_site_fract_z
 _atom_site_occupancy
  Mn  Mn0  1  0.08495100  0.18435400  0.19813000  1
  Mn  Mn1  1  0.24990700  0.50407800  0.90761900  1
  Mn  Mn2  1  0.75025300  0.49581000  0.40761500  1
  Mn  Mn3  1  0.91464900  0.81576600  0.69818000  1
  O  O0  1  0.31105900  0.63027700  0.75905200  1
  O  O1  1  0.68913900  0.36973700  0.25905800  1
  F  F0  1  0.18844000  0.37561900  0.05216300  1
  F  F1  1  0.16214100  0.24821800  0.43765500  1
  F  F2  1  0.45841300  0.96268600  0.15289700  1
  F  F3  1  0.33331700  0.73988200  0.36965000  1
  F  F4  1  0.66660300  0.25993300  0.86965000  1
  F  F5  1  0.54106100  0.03757300  0.65313200  1
  F  F6  1  0.81178700  0.62448800  0.55213700  1
  F  F7  1  0.83828100  0.75158000  0.93770900  1
loop_
_geom_bond_atom_site_label_1
_geom_bond_atom_site_label_2
_geom_bond_distance
_geom_bond_site_symmetry_2
Mn0 O1 1.936566 1_555
Mn0 O1 1.943032 1_455
Mn1 O0 1.944798 1_555
Mn2 O1 1.944167 1_555
Mn3 O0 1.935441 1_555
Mn3 O0 1.944532 1_655
F0 Mn1 1.902071 1_554
F0 Mn0 2.051101 1_555
F1 Mn2 1.892866 1_555
F1 Mn2 2.133580 1_455
F2 Mn0 1.973146 1_565
F2 Mn0 1.974764 1_665
F3 Mn2 1.896004 1_455
F3 Mn2 2.149386 1_555
F4 Mn1 1.896394 1_655
F4 Mn1 2.149157 1_555
F5 Mn3 1.973373 1_545
F5 Mn3 1.974394 1_445
F6 Mn2 1.901907 1_555
F6 Mn3 2.051541 1_555
F7 Mn1 1.893120 1_555
F7 Mn1 2.132678 1_655
