# generated using pymatgen
data_Tm2(SO4)3
_symmetry_space_group_name_H-M   'P 1'
_cell_length_a   9.21353600
_cell_length_b   9.33182200
_cell_length_c   12.80209100
_cell_angle_alpha   90.00000000
_cell_angle_beta   90.00000000
_cell_angle_gamma   90.00000000
_symmetry_Int_Tables_number   1
_chemical_formula_structural   Tm2(SO4)3
_chemical_formula_sum   'Tm8 S12 O48'
_cell_volume   1100.71197992
_cell_formula_units_Z   4
loop_
 _symmetry_equiv_pos_site_id
 _symmetry_equiv_pos_as_xyz
  1  'x, y, z'
loop_
 _atom_site_type_symbol
 _atom_site_label
 _atom_site_symmetry_multiplicity
 _atom_site_fract_x
 _atom_site_fract_y
 _atom_site_fract_z
 _atom_site_occupancy
  Tm  Tm0  1  0.25130800  0.46594400  0.11685800  1
  Tm  Tm1  1  0.74869200  0.53405600  0.88314200  1
  Tm  Tm2  1  0.24869200  0.96594400  0.38314200  1
  Tm  Tm3  1  0.25130800  0.03405600  0.88314200  1
  Tm  Tm4  1  0.75130800  0.03405600  0.61685800  1
  Tm  Tm5  1  0.74869200  0.96594400  0.11685800  1
  Tm  Tm6  1  0.24869200  0.53405600  0.61685800  1
  Tm  Tm7  1  0.75130800  0.46594400  0.38314200  1
  S  S0  1  0.52871500  0.25000000  0.00000000  1
  S  S1  1  0.47128500  0.75000000  0.00000000  1
  S  S2  1  0.97128500  0.75000000  0.50000000  1
  S  S3  1  0.02871500  0.25000000  0.50000000  1
  S  S4  1  0.10517000  0.11774700  0.14453500  1
  S  S5  1  0.89483000  0.88225300  0.85546500  1
  S  S6  1  0.39483000  0.61774700  0.35546500  1
  S  S7  1  0.10517000  0.38225300  0.85546500  1
  S  S8  1  0.60517000  0.38225300  0.64453500  1
  S  S9  1  0.89483000  0.61774700  0.14453500  1
  S  S10  1  0.39483000  0.88225300  0.64453500  1
  S  S11  1  0.60517000  0.11774700  0.35546500  1
  O  O0  1  0.16723400  0.07916100  0.04171700  1
  O  O1  1  0.83276600  0.92083900  0.95828300  1
  O  O2  1  0.33276600  0.57916100  0.45828300  1
  O  O3  1  0.16723400  0.42083900  0.95828300  1
  O  O4  1  0.66723400  0.42083900  0.54171700  1
  O  O5  1  0.83276600  0.57916100  0.04171700  1
  O  O6  1  0.33276600  0.92083900  0.54171700  1
  O  O7  1  0.66723400  0.07916100  0.45828300  1
  O  O8  1  0.17010500  0.02495200  0.22603100  1
  O  O9  1  0.82989500  0.97504800  0.77396900  1
  O  O10  1  0.32989500  0.52495200  0.27396900  1
  O  O11  1  0.17010500  0.47504800  0.77396900  1
  O  O12  1  0.67010500  0.47504800  0.72603100  1
  O  O13  1  0.82989500  0.52495200  0.22603100  1
  O  O14  1  0.32989500  0.97504800  0.72603100  1
  O  O15  1  0.67010500  0.02495200  0.27396900  1
  O  O16  1  0.12208500  0.14510700  0.44557600  1
  O  O17  1  0.87791500  0.85489300  0.55442400  1
  O  O18  1  0.37791500  0.64510700  0.05442400  1
  O  O19  1  0.12208500  0.35489300  0.55442400  1
  O  O20  1  0.62208500  0.35489300  0.94557600  1
  O  O21  1  0.87791500  0.64510700  0.44557600  1
  O  O22  1  0.37791500  0.85489300  0.94557600  1
  O  O23  1  0.62208500  0.14510700  0.05442400  1
  O  O24  1  0.13636100  0.27014700  0.16902600  1
  O  O25  1  0.86363900  0.72985300  0.83097400  1
  O  O26  1  0.36363900  0.77014700  0.33097400  1
  O  O27  1  0.13636100  0.22985300  0.83097400  1
  O  O28  1  0.63636100  0.22985300  0.66902600  1
  O  O29  1  0.86363900  0.77014700  0.16902600  1
  O  O30  1  0.36363900  0.72985300  0.66902600  1
  O  O31  1  0.63636100  0.27014700  0.33097400  1
  O  O32  1  0.43639600  0.32353000  0.07817600  1
  O  O33  1  0.56360400  0.67647000  0.92182400  1
  O  O34  1  0.06360400  0.82353000  0.42182400  1
  O  O35  1  0.43639600  0.17647000  0.92182400  1
  O  O36  1  0.93639600  0.17647000  0.57817600  1
  O  O37  1  0.56360400  0.82353000  0.07817600  1
  O  O38  1  0.06360400  0.67647000  0.57817600  1
  O  O39  1  0.93639600  0.32353000  0.42182400  1
  O  O40  1  0.44589500  0.09663300  0.35758700  1
  O  O41  1  0.55410500  0.90336700  0.64241300  1
  O  O42  1  0.05410500  0.59663300  0.14241300  1
  O  O43  1  0.44589500  0.40336700  0.64241300  1
  O  O44  1  0.94589500  0.40336700  0.85758700  1
  O  O45  1  0.55410500  0.59663300  0.35758700  1
  O  O46  1  0.05410500  0.90336700  0.85758700  1
  O  O47  1  0.94589500  0.09663300  0.14241300  1
loop_
_geom_bond_atom_site_label_1
_geom_bond_atom_site_label_2
_geom_bond_distance
_geom_bond_site_symmetry_2
O0 S4 1.479612 1_555
O0 Tm3 2.213249 1_554
O1 S5 1.479612 1_555
O1 Tm5 2.213249 1_556
O2 S6 1.479612 1_555
O2 Tm6 2.213249 1_555
O3 S7 1.479612 1_555
O3 Tm0 2.213249 1_556
O4 S8 1.479612 1_555
O4 Tm7 2.213249 1_555
O5 S9 1.479612 1_555
O5 Tm1 2.213249 1_554
O6 S10 1.479612 1_555
O6 Tm2 2.213249 1_555
O7 S11 1.479612 1_555
O7 Tm4 2.213249 1_555
O8 S4 1.481998 1_555
O8 Tm2 2.207490 1_545
O9 S5 1.481998 1_555
O9 Tm4 2.207490 1_565
O10 S6 1.481998 1_555
O10 Tm0 2.207490 1_555
O11 S7 1.481998 1_555
O11 Tm6 2.207490 1_555
O12 S8 1.481998 1_555
O12 Tm1 2.207490 1_555
O13 S9 1.481998 1_555
O13 Tm7 2.207490 1_555
O14 S10 1.481998 1_555
O14 Tm3 2.207490 1_565
O15 S11 1.481998 1_555
O15 Tm5 2.207490 1_545
O16 S3 1.477715 1_555
O16 Tm2 2.189722 1_545
O17 S2 1.477715 1_555
O17 Tm4 2.189722 1_565
O18 S1 1.477715 1_555
O18 Tm0 2.189722 1_555
O19 S3 1.477715 1_555
O19 Tm6 2.189722 1_555
O20 S0 1.477715 1_556
O20 Tm1 2.189722 1_555
O21 S2 1.477715 1_555
O21 Tm7 2.189722 1_555
O22 S1 1.477715 1_556
O22 Tm3 2.189722 1_565
O23 S0 1.477715 1_555
O23 Tm5 2.189722 1_545
O24 S4 1.484405 1_555
O24 Tm0 2.214975 1_555
O25 S5 1.484405 1_555
O25 Tm1 2.214975 1_555
O26 S6 1.484405 1_555
O26 Tm2 2.214975 1_555
O27 S7 1.484405 1_555
O27 Tm3 2.214975 1_555
O28 S8 1.484405 1_555
O28 Tm4 2.214975 1_555
O29 S9 1.484405 1_555
O29 Tm5 2.214975 1_555
O30 S10 1.484405 1_555
O30 Tm6 2.214975 1_555
O31 S11 1.484405 1_555
O31 Tm7 2.214975 1_555
O32 S0 1.481875 1_555
O32 Tm0 2.218000 1_555
O33 S1 1.481875 1_556
O33 Tm1 2.218000 1_555
O34 S2 1.481875 1_455
O34 Tm2 2.218000 1_555
O35 S0 1.481875 1_556
O35 Tm3 2.218000 1_555
O36 S3 1.481875 1_655
O36 Tm4 2.218000 1_555
O37 S1 1.481875 1_555
O37 Tm5 2.218000 1_555
O38 S2 1.481875 1_455
O38 Tm6 2.218000 1_555
O39 S3 1.481875 1_655
O39 Tm7 2.218000 1_555
O40 S11 1.480903 1_555
O40 Tm2 2.212608 1_545
O41 S10 1.480903 1_555
O41 Tm4 2.212608 1_565
O42 S9 1.480903 1_455
O42 Tm0 2.212608 1_555
O43 S8 1.480903 1_555
O43 Tm6 2.212608 1_555
O44 S7 1.480903 1_655
O44 Tm1 2.212608 1_555
O45 S6 1.480903 1_555
O45 Tm7 2.212608 1_555
O46 S5 1.480903 1_455
O46 Tm3 2.212608 1_565
O47 S4 1.480903 1_655
O47 Tm5 2.212608 1_545
