# generated using pymatgen
data_SiO2
_symmetry_space_group_name_H-M   'P 1'
_cell_length_a   8.19486749
_cell_length_b   8.19486749
_cell_length_c   14.16873600
_cell_angle_alpha   90.00000000
_cell_angle_beta   90.00000000
_cell_angle_gamma   101.97162579
_symmetry_Int_Tables_number   1
_chemical_formula_structural   SiO2
_chemical_formula_sum   'Si16 O32'
_cell_volume   930.81855770
_cell_formula_units_Z   16
loop_
 _symmetry_equiv_pos_site_id
 _symmetry_equiv_pos_as_xyz
  1  'x, y, z'
loop_
 _atom_site_type_symbol
 _atom_site_label
 _atom_site_symmetry_multiplicity
 _atom_site_fract_x
 _atom_site_fract_y
 _atom_site_fract_z
 _atom_site_occupancy
  Si  Si0  1  0.18675800  0.58863300  0.31728700  1
  Si  Si1  1  0.58863300  0.18675800  0.68271300  1
  Si  Si2  1  0.81324200  0.41136700  0.31728700  1
  Si  Si3  1  0.41136700  0.81324200  0.68271300  1
  Si  Si4  1  0.31325300  0.90929900  0.18458900  1
  Si  Si5  1  0.90929900  0.31325300  0.81541100  1
  Si  Si6  1  0.68674700  0.09070100  0.18458900  1
  Si  Si7  1  0.09070100  0.68674700  0.81541100  1
  Si  Si8  1  0.33744100  0.66255900  0.50000000  1
  Si  Si9  1  0.66255900  0.33744100  0.50000000  1
  Si  Si10  1  0.50000000  0.50000000  0.36445000  1
  Si  Si11  1  0.50000000  0.50000000  0.63555000  1
  Si  Si12  1  0.00000000  0.00000000  0.13891100  1
  Si  Si13  1  0.00000000  0.00000000  0.86108900  1
  Si  Si14  1  0.16070500  0.83929500  0.00000000  1
  Si  Si15  1  0.83929500  0.16070500  0.00000000  1
  O  O0  1  0.00000000  0.50000000  0.28433800  1
  O  O1  1  0.50000000  0.00000000  0.71566200  1
  O  O2  1  0.25304000  0.74797600  0.25049600  1
  O  O3  1  0.74797600  0.25304000  0.74950400  1
  O  O4  1  0.74696000  0.25202400  0.25049600  1
  O  O5  1  0.25202400  0.74696000  0.74950400  1
  O  O6  1  0.17703200  0.64262200  0.42938800  1
  O  O7  1  0.64262200  0.17703200  0.57061200  1
  O  O8  1  0.82296800  0.35737800  0.42938800  1
  O  O9  1  0.35737800  0.82296800  0.57061200  1
  O  O10  1  0.32349100  0.46706200  0.30572300  1
  O  O11  1  0.46706200  0.32349100  0.69427700  1
  O  O12  1  0.67650900  0.53293800  0.30572300  1
  O  O13  1  0.53293800  0.67650900  0.69427700  1
  O  O14  1  0.32040200  0.85862700  0.07156600  1
  O  O15  1  0.85862700  0.32040200  0.92843400  1
  O  O16  1  0.67959800  0.14137300  0.07156600  1
  O  O17  1  0.14137300  0.67959800  0.92843400  1
  O  O18  1  0.17465700  0.02831900  0.19926600  1
  O  O19  1  0.02831900  0.17465700  0.80073400  1
  O  O20  1  0.82534300  0.97168100  0.19926600  1
  O  O21  1  0.97168100  0.82534300  0.80073400  1
  O  O22  1  0.49929300  0.66772600  0.42946100  1
  O  O23  1  0.66772600  0.49929300  0.57053900  1
  O  O24  1  0.50070700  0.33227400  0.42946100  1
  O  O25  1  0.33227400  0.50070700  0.57053900  1
  O  O26  1  0.50000000  0.00000000  0.21675800  1
  O  O27  1  0.00000000  0.50000000  0.78324200  1
  O  O28  1  0.99953000  0.16564300  0.07197200  1
  O  O29  1  0.16564300  0.99953000  0.92802800  1
  O  O30  1  0.00047000  0.83435700  0.07197200  1
  O  O31  1  0.83435700  0.00047000  0.92802800  1
loop_
_geom_bond_atom_site_label_1
_geom_bond_atom_site_label_2
_geom_bond_distance
_geom_bond_site_symmetry_2
O0 Si0 1.620693 1_555
O0 Si2 1.620693 1_455
O1 Si3 1.620693 1_545
O1 Si1 1.620693 1_555
O2 Si4 1.610159 1_555
O2 Si0 1.612904 1_555
O3 Si5 1.610159 1_555
O3 Si1 1.612904 1_555
O4 Si6 1.610159 1_555
O4 Si2 1.612904 1_555
O5 Si7 1.610159 1_555
O5 Si3 1.612904 1_555
O6 Si8 1.632958 1_555
O6 Si0 1.655149 1_555
O7 Si9 1.632958 1_555
O7 Si1 1.655149 1_555
O8 Si9 1.632958 1_555
O8 Si2 1.655149 1_555
O9 Si8 1.632958 1_555
O9 Si3 1.655149 1_555
O10 Si10 1.641805 1_555
O10 Si0 1.654698 1_555
O11 Si11 1.641805 1_555
O11 Si1 1.654698 1_555
O12 Si10 1.641805 1_555
O12 Si2 1.654698 1_555
O13 Si11 1.641805 1_555
O13 Si3 1.654698 1_555
O14 Si14 1.637061 1_555
O14 Si4 1.658438 1_555
O15 Si15 1.637061 1_556
O15 Si5 1.658438 1_555
O16 Si15 1.637061 1_555
O16 Si6 1.658438 1_555
O17 Si14 1.637061 1_556
O17 Si7 1.658438 1_555
O18 Si12 1.641932 1_555
O18 Si4 1.656537 1_545
O19 Si13 1.641932 1_555
O19 Si5 1.656537 1_455
O20 Si12 1.641932 1_665
O20 Si6 1.656537 1_565
O21 Si13 1.641932 1_665
O21 Si7 1.656537 1_655
O22 Si8 1.654270 1_555
O22 Si10 1.655607 1_555
O23 Si9 1.654270 1_555
O23 Si11 1.655607 1_555
O24 Si9 1.654270 1_555
O24 Si10 1.655607 1_555
O25 Si8 1.654270 1_555
O25 Si11 1.655607 1_555
O26 Si4 1.621834 1_545
O26 Si6 1.621834 1_555
O27 Si7 1.621834 1_555
O27 Si5 1.621834 1_455
O28 Si15 1.656421 1_555
O28 Si12 1.656599 1_655
O29 Si14 1.656421 1_556
O29 Si13 1.656599 1_565
O30 Si14 1.656421 1_555
O30 Si12 1.656599 1_565
O31 Si15 1.656421 1_556
O31 Si13 1.656599 1_655
