# generated using pymatgen
data_Bi2(Br3N)3
_symmetry_space_group_name_H-M   'P 1'
_cell_length_a   9.41373555
_cell_length_b   9.41373555
_cell_length_c   21.28373700
_cell_angle_alpha   90.00000000
_cell_angle_beta   90.00000000
_cell_angle_gamma   119.99999683
_symmetry_Int_Tables_number   1
_chemical_formula_structural   Bi2(Br3N)3
_chemical_formula_sum   'Bi4 Br18 N6'
_cell_volume   1633.43748280
_cell_formula_units_Z   2
loop_
 _symmetry_equiv_pos_site_id
 _symmetry_equiv_pos_as_xyz
  1  'x, y, z'
loop_
 _atom_site_type_symbol
 _atom_site_label
 _atom_site_symmetry_multiplicity
 _atom_site_fract_x
 _atom_site_fract_y
 _atom_site_fract_z
 _atom_site_occupancy
  Bi  Bi0  1  0.33333300  0.66666700  0.34145400  1
  Bi  Bi1  1  0.66666700  0.33333300  0.65854600  1
  Bi  Bi2  1  0.66666700  0.33333300  0.84145400  1
  Bi  Bi3  1  0.33333300  0.66666700  0.15854600  1
  Br  Br0  1  0.46567900  0.53432100  0.25000000  1
  Br  Br1  1  0.46567900  0.93135700  0.25000000  1
  Br  Br2  1  0.06864300  0.53432100  0.25000000  1
  Br  Br3  1  0.53432100  0.46567900  0.75000000  1
  Br  Br4  1  0.53432100  0.06864300  0.75000000  1
  Br  Br5  1  0.93135700  0.46567900  0.75000000  1
  Br  Br6  1  0.19360200  0.80639800  0.40259000  1
  Br  Br7  1  0.19360200  0.38720300  0.40259000  1
  Br  Br8  1  0.61279700  0.80639800  0.40259000  1
  Br  Br9  1  0.80639800  0.19360200  0.59741000  1
  Br  Br10  1  0.80639800  0.61279700  0.59741000  1
  Br  Br11  1  0.38720300  0.19360200  0.59741000  1
  Br  Br12  1  0.80639800  0.19360200  0.90259000  1
  Br  Br13  1  0.80639800  0.61279700  0.90259000  1
  Br  Br14  1  0.38720300  0.19360200  0.90259000  1
  Br  Br15  1  0.19360200  0.80639800  0.09741000  1
  Br  Br16  1  0.19360200  0.38720300  0.09741000  1
  Br  Br17  1  0.61279700  0.80639800  0.09741000  1
  N  N0  1  0.00000000  0.00000000  0.25000000  1
  N  N1  1  0.00000000  0.00000000  0.75000000  1
  N  N2  1  0.66666700  0.33333300  0.40837900  1
  N  N3  1  0.33333300  0.66666700  0.59162100  1
  N  N4  1  0.33333300  0.66666700  0.90837900  1
  N  N5  1  0.66666700  0.33333300  0.09162100  1
loop_
_geom_bond_atom_site_label_1
_geom_bond_atom_site_label_2
_geom_bond_distance
_geom_bond_site_symmetry_2
Bi0 Br6 2.623716 1_555
Bi0 Br8 2.623730 1_555
Bi0 Br7 2.623730 1_555
Bi0 Br2 2.906080 1_555
Bi0 Br1 2.906080 1_555
Bi0 Br0 2.906092 1_555
Bi1 Br9 2.623716 1_555
Bi1 Br10 2.623730 1_555
Bi1 Br11 2.623730 1_555
Bi1 Br5 2.906080 1_555
Bi1 Br4 2.906080 1_555
Bi1 Br3 2.906092 1_555
Bi2 Br12 2.623716 1_555
Bi2 Br13 2.623730 1_555
Bi2 Br14 2.623730 1_555
Bi2 Br5 2.906080 1_555
Bi2 Br4 2.906080 1_555
Bi2 Br3 2.906092 1_555
Bi3 Br15 2.623716 1_555
Bi3 Br17 2.623730 1_555
Bi3 Br16 2.623730 1_555
Bi3 Br2 2.906080 1_555
Bi3 Br1 2.906080 1_555
Bi3 Br0 2.906092 1_555
