# generated using pymatgen
data_NdMgCu4
_symmetry_space_group_name_H-M   'P 1'
_cell_length_a   5.13489081
_cell_length_b   5.13489081
_cell_length_c   5.13489081
_cell_angle_alpha   60.00000000
_cell_angle_beta   60.00000000
_cell_angle_gamma   60.00000000
_symmetry_Int_Tables_number   1
_chemical_formula_structural   NdMgCu4
_chemical_formula_sum   'Nd1 Mg1 Cu4'
_cell_volume   95.73674122
_cell_formula_units_Z   1
loop_
 _symmetry_equiv_pos_site_id
 _symmetry_equiv_pos_as_xyz
  1  'x, y, z'
loop_
 _atom_site_type_symbol
 _atom_site_label
 _atom_site_symmetry_multiplicity
 _atom_site_fract_x
 _atom_site_fract_y
 _atom_site_fract_z
 _atom_site_occupancy
  Nd  Nd0  1  -0.00000000  -0.00000000  -0.00000000  1
  Mg  Mg0  1  0.25000000  0.25000000  0.25000000  1
  Cu  Cu0  1  0.62286927  0.62286927  0.13139020  1
  Cu  Cu1  1  0.62286927  0.13139020  0.62286927  1
  Cu  Cu2  1  0.13139020  0.62286927  0.62286927  1
  Cu  Cu3  1  0.62286927  0.62286927  0.62286927  1
loop_
_geom_bond_atom_site_label_1
_geom_bond_atom_site_label_2
_geom_bond_distance
_geom_bond_site_symmetry_2
Mg0 Nd0 3.144466 1_555
Mg0 Nd0 3.144466 1_556
Mg0 Nd0 3.144466 1_655
Mg0 Nd0 3.144466 1_565
Cu0 Cu1 2.523691 1_555
Cu0 Cu2 2.523691 1_555
Cu0 Cu3 2.523691 1_555
Cu0 Cu1 2.611199 1_564
Cu0 Cu3 2.611199 1_554
Cu0 Cu2 2.611199 1_654
Cu0 Mg0 3.006043 1_555
Cu0 Mg0 3.006051 1_655
Cu0 Mg0 3.006051 1_565
Cu0 Nd0 3.015373 1_655
Cu0 Nd0 3.015373 1_565
Cu0 Nd0 3.015382 1_665
Cu1 Cu2 2.523691 1_555
Cu1 Cu3 2.523691 1_555
Cu1 Cu2 2.611199 1_645
Cu1 Cu3 2.611199 1_545
Cu1 Mg0 3.006043 1_555
Cu1 Mg0 3.006051 1_655
Cu1 Mg0 3.006051 1_556
Cu1 Nd0 3.015373 1_655
Cu1 Nd0 3.015373 1_556
Cu1 Nd0 3.015382 1_656
Cu2 Cu3 2.523691 1_555
Cu2 Cu3 2.611199 1_455
Cu2 Mg0 3.006043 1_555
Cu2 Mg0 3.006051 1_565
Cu2 Mg0 3.006051 1_556
Cu2 Nd0 3.015373 1_565
Cu2 Nd0 3.015373 1_556
Cu2 Nd0 3.015382 1_566
Cu3 Mg0 3.006047 1_556
Cu3 Mg0 3.006047 1_655
Cu3 Mg0 3.006047 1_565
Cu3 Nd0 3.015377 1_656
Cu3 Nd0 3.015377 1_566
Cu3 Nd0 3.015377 1_665
