# generated using pymatgen
data_Nb(SBr)2
_symmetry_space_group_name_H-M   'P 1'
_cell_length_a   6.62431852
_cell_length_b   6.62431852
_cell_length_c   7.15349789
_cell_angle_alpha   99.67714096
_cell_angle_beta   99.67714096
_cell_angle_gamma   119.59967471
_symmetry_Int_Tables_number   1
_chemical_formula_structural   Nb(SBr)2
_chemical_formula_sum   'Nb2 S4 Br4'
_cell_volume   257.25049903
_cell_formula_units_Z   2
loop_
 _symmetry_equiv_pos_site_id
 _symmetry_equiv_pos_as_xyz
  1  'x, y, z'
loop_
 _atom_site_type_symbol
 _atom_site_label
 _atom_site_symmetry_multiplicity
 _atom_site_fract_x
 _atom_site_fract_y
 _atom_site_fract_z
 _atom_site_occupancy
  Nb  Nb0  1  0.87425685  0.12574315  0.00000000  1
  Nb  Nb1  1  0.12574315  0.87425685  0.00000000  1
  S  S0  1  0.13861087  0.13861087  0.30203293  1
  S  S1  1  0.86138913  0.86138913  0.69796707  1
  S  S2  1  0.67848373  0.67848373  0.87097565  1
  S  S3  1  0.32151627  0.32151627  0.12902435  1
  Br  Br0  1  0.02667246  0.43510825  0.77022555  1
  Br  Br1  1  0.43510825  0.02667246  0.77022555  1
  Br  Br2  1  0.97332754  0.56489175  0.22977445  1
  Br  Br3  1  0.56489175  0.97332754  0.22977445  1
loop_
_geom_bond_atom_site_label_1
_geom_bond_atom_site_label_2
_geom_bond_distance
_geom_bond_site_symmetry_2
Nb0 S2 2.488847 1_544
Nb0 S3 2.488847 1_655
Nb0 S0 2.502124 1_655
Nb0 S1 2.502124 1_544
Nb1 S3 2.488847 1_565
Nb1 S2 2.488847 1_454
Nb1 S0 2.502124 1_565
Nb1 S1 2.502124 1_454
S0 S3 2.006436 1_555
S1 S2 2.006436 1_555
Br0 Nb0 2.750862 1_456
Br0 Nb1 2.781881 1_556
Br1 Nb1 2.750862 1_546
Br1 Nb0 2.781881 1_556
Br2 Nb1 2.750862 1_655
Br2 Nb0 2.781881 1_555
Br3 Nb0 2.750862 1_565
Br3 Nb1 2.781881 1_555
