# generated using pymatgen
data_Nb2AlB6
_symmetry_space_group_name_H-M   'P 1'
_cell_length_a   3.03184828
_cell_length_b   3.03184828
_cell_length_c   10.27018502
_cell_angle_alpha   90.00000000
_cell_angle_beta   90.00000000
_cell_angle_gamma   120.00001963
_symmetry_Int_Tables_number   1
_chemical_formula_structural   Nb2AlB6
_chemical_formula_sum   'Nb2 Al1 B6'
_cell_volume   81.75677319
_cell_formula_units_Z   1
loop_
 _symmetry_equiv_pos_site_id
 _symmetry_equiv_pos_as_xyz
  1  'x, y, z'
loop_
 _atom_site_type_symbol
 _atom_site_label
 _atom_site_symmetry_multiplicity
 _atom_site_fract_x
 _atom_site_fract_y
 _atom_site_fract_z
 _atom_site_occupancy
  Nb  Nb0  1  -0.00000000  0.00000000  0.66566533  1
  Nb  Nb1  1  0.00000000  -0.00000000  0.33433467  1
  Al  Al0  1  0.00000000  -0.00000000  0.00000000  1
  B  B0  1  0.66666700  0.33333300  0.84332598  1
  B  B1  1  0.66666700  0.33333300  0.50000000  1
  B  B2  1  0.66666700  0.33333300  0.15667402  1
  B  B3  1  0.33333300  0.66666700  0.84332598  1
  B  B4  1  0.33333300  0.66666700  0.50000000  1
  B  B5  1  0.33333300  0.66666700  0.15667402  1
loop_
_geom_bond_atom_site_label_1
_geom_bond_atom_site_label_2
_geom_bond_distance
_geom_bond_site_symmetry_2
Al0 B0 2.377633 1_454
Al0 B3 2.377633 1_544
Al0 B2 2.377633 1_455
Al0 B5 2.377633 1_545
Al0 B0 2.377635 1_554
Al0 B3 2.377635 1_554
Al0 B3 2.377635 1_444
Al0 B0 2.377635 1_444
Al0 B5 2.377635 1_555
Al0 B2 2.377635 1_555
Al0 B2 2.377635 1_445
Al0 B5 2.377635 1_445
B0 B3 1.750436 1_545
B0 B3 1.750436 1_655
B0 B3 1.750442 1_555
B0 Nb0 2.528482 1_655
B0 Nb0 2.528484 1_665
B0 Nb0 2.528484 1_555
B1 B4 1.750436 1_545
B1 B4 1.750436 1_655
B1 B4 1.750442 1_555
B1 Nb0 2.441073 1_655
B1 Nb1 2.441073 1_655
B1 Nb1 2.441075 1_665
B1 Nb0 2.441075 1_555
B1 Nb1 2.441075 1_555
B1 Nb0 2.441075 1_665
B2 B5 1.750436 1_545
B2 B5 1.750436 1_655
B2 B5 1.750442 1_555
B2 Nb1 2.528482 1_655
B2 Nb1 2.528484 1_555
B2 Nb1 2.528484 1_665
B3 Nb0 2.528482 1_565
B3 Nb0 2.528484 1_665
B3 Nb0 2.528484 1_555
B4 Nb0 2.441073 1_565
B4 Nb1 2.441073 1_565
B4 Nb1 2.441075 1_665
B4 Nb0 2.441075 1_555
B4 Nb1 2.441075 1_555
B4 Nb0 2.441075 1_665
B5 Nb1 2.528482 1_565
B5 Nb1 2.528484 1_555
B5 Nb1 2.528484 1_665
