# generated using pymatgen
data_RbGa2Au3
_symmetry_space_group_name_H-M   'P 1'
_cell_length_a   5.69349700
_cell_length_b   7.19478400
_cell_length_c   13.63553400
_cell_angle_alpha   90.00000000
_cell_angle_beta   90.00000000
_cell_angle_gamma   90.00000000
_symmetry_Int_Tables_number   1
_chemical_formula_structural   RbGa2Au3
_chemical_formula_sum   'Rb4 Ga8 Au12'
_cell_volume   558.55893957
_cell_formula_units_Z   4
loop_
 _symmetry_equiv_pos_site_id
 _symmetry_equiv_pos_as_xyz
  1  'x, y, z'
loop_
 _atom_site_type_symbol
 _atom_site_label
 _atom_site_symmetry_multiplicity
 _atom_site_fract_x
 _atom_site_fract_y
 _atom_site_fract_z
 _atom_site_occupancy
  Rb  Rb0  1  0.25000000  0.10023000  0.07340800  1
  Rb  Rb1  1  0.25000000  0.39977000  0.57340800  1
  Rb  Rb2  1  0.75000000  0.89977000  0.92659200  1
  Rb  Rb3  1  0.75000000  0.60023000  0.42659200  1
  Ga  Ga0  1  0.99802800  0.89519800  0.65475100  1
  Ga  Ga1  1  0.50197200  0.60480200  0.15475100  1
  Ga  Ga2  1  0.49802800  0.10480200  0.34524900  1
  Ga  Ga3  1  0.00197200  0.39519800  0.84524900  1
  Ga  Ga4  1  0.00197200  0.10480200  0.34524900  1
  Ga  Ga5  1  0.49802800  0.39519800  0.84524900  1
  Ga  Ga6  1  0.50197200  0.89519800  0.65475100  1
  Ga  Ga7  1  0.99802800  0.60480200  0.15475100  1
  Au  Au0  1  0.25000000  0.10962600  0.78485100  1
  Au  Au1  1  0.25000000  0.39037400  0.28485100  1
  Au  Au2  1  0.75000000  0.89037400  0.21514900  1
  Au  Au3  1  0.75000000  0.60962600  0.71514900  1
  Au  Au4  1  0.25000000  0.69920900  0.78937300  1
  Au  Au5  1  0.25000000  0.80079100  0.28937300  1
  Au  Au6  1  0.75000000  0.30079100  0.21062700  1
  Au  Au7  1  0.75000000  0.19920900  0.71062700  1
  Au  Au8  1  0.25000000  0.57915400  0.99329700  1
  Au  Au9  1  0.25000000  0.92084600  0.49329700  1
  Au  Au10  1  0.75000000  0.42084600  0.00670300  1
  Au  Au11  1  0.75000000  0.07915400  0.50670300  1
loop_
_geom_bond_atom_site_label_1
_geom_bond_atom_site_label_2
_geom_bond_distance
_geom_bond_site_symmetry_2
Rb0 Rb2 3.767197 1_544
Rb0 Rb2 3.767197 1_444
Rb1 Rb3 3.767197 1_555
Rb1 Rb3 3.767197 1_455
Ga0 Ga6 2.824293 1_555
Ga0 Ga6 2.869204 1_655
Ga1 Ga7 2.824293 1_555
Ga1 Ga7 2.869204 1_455
Ga2 Ga4 2.824293 1_555
Ga2 Ga4 2.869204 1_655
Ga3 Ga5 2.824293 1_555
Ga3 Ga5 2.869204 1_455
Au0 Ga5 2.625625 1_555
Au0 Ga3 2.625625 1_555
Au0 Ga6 2.754127 1_545
Au0 Ga0 2.754127 1_445
Au0 Au4 2.953505 1_545
Au0 Au7 3.089290 1_455
Au0 Au7 3.089290 1_555
Au0 Rb1 3.559528 1_555
Au0 Rb2 3.757534 1_545
Au0 Rb2 3.757534 1_445
Au0 Rb0 3.935209 1_556
Au1 Ga2 2.625625 1_555
Au1 Ga4 2.625625 1_555
Au1 Ga1 2.754127 1_555
Au1 Ga7 2.754127 1_455
Au1 Au5 2.953505 1_555
Au1 Au6 3.089290 1_555
Au1 Au6 3.089290 1_455
Au1 Rb0 3.559528 1_555
Au1 Rb3 3.757534 1_555
Au1 Rb3 3.757534 1_455
Au1 Rb1 3.935209 1_555
Au2 Ga7 2.625625 1_555
Au2 Ga1 2.625625 1_555
Au2 Ga4 2.754127 1_665
Au2 Ga2 2.754127 1_565
Au2 Au6 2.953505 1_565
Au2 Au5 3.089290 1_655
Au2 Au5 3.089290 1_555
Au2 Rb3 3.559528 1_555
Au2 Rb0 3.757534 1_565
Au2 Rb0 3.757534 1_665
Au2 Rb2 3.935209 1_554
Au3 Ga0 2.625625 1_555
Au3 Ga6 2.625625 1_555
Au3 Ga3 2.754127 1_655
Au3 Ga5 2.754127 1_555
Au3 Au7 2.953505 1_555
Au3 Au4 3.089290 1_555
Au3 Au4 3.089290 1_655
Au3 Rb2 3.559528 1_555
Au3 Rb1 3.757534 1_655
Au3 Rb1 3.757534 1_555
Au3 Rb3 3.935209 1_555
Au4 Ga5 2.712729 1_555
Au4 Ga3 2.712729 1_555
Au4 Ga6 2.723242 1_555
Au4 Ga0 2.723242 1_455
Au4 Au8 2.911684 1_555
Au4 Rb1 3.648735 1_555
Au4 Rb2 3.699601 1_555
Au4 Rb2 3.699601 1_455
Au5 Ga2 2.712729 1_565
Au5 Ga4 2.712729 1_565
Au5 Ga1 2.723242 1_555
Au5 Ga7 2.723242 1_455
Au5 Au9 2.911684 1_555
Au5 Rb0 3.648735 1_565
Au5 Rb3 3.699601 1_555
Au5 Rb3 3.699601 1_455
Au6 Ga7 2.712729 1_555
Au6 Ga1 2.712729 1_555
Au6 Ga4 2.723242 1_655
Au6 Ga2 2.723242 1_555
Au6 Rb3 3.648735 1_555
Au6 Rb0 3.699601 1_555
Au6 Rb0 3.699601 1_655
Au7 Ga0 2.712729 1_545
Au7 Ga6 2.712729 1_545
Au7 Ga3 2.723242 1_655
Au7 Ga5 2.723242 1_555
Au7 Rb2 3.648735 1_545
Au7 Rb1 3.699601 1_655
Au7 Rb1 3.699601 1_555
Au8 Ga1 2.634158 1_556
Au8 Ga7 2.634158 1_456
Au8 Ga5 2.796619 1_555
Au8 Ga3 2.796619 1_555
Au8 Rb0 3.614757 1_556
Au8 Rb2 3.775239 1_555
Au8 Rb2 3.775239 1_455
Au8 Rb0 3.904928 1_566
Au9 Ga6 2.634158 1_555
Au9 Ga0 2.634158 1_455
Au9 Ga2 2.796619 1_565
Au9 Ga4 2.796619 1_565
Au9 Rb1 3.614757 1_565
Au9 Rb3 3.775239 1_555
Au9 Rb3 3.775239 1_455
Au9 Rb1 3.904928 1_555
Au10 Ga3 2.634158 1_654
Au10 Ga5 2.634158 1_554
Au10 Ga7 2.796619 1_555
Au10 Ga1 2.796619 1_555
Au10 Au6 2.911684 1_555
Au10 Au8 3.071595 1_654
Au10 Au8 3.071595 1_554
Au10 Rb2 3.614757 1_554
Au10 Rb0 3.775239 1_655
Au10 Rb0 3.775239 1_555
Au10 Rb2 3.904928 1_544
Au11 Ga4 2.634158 1_655
Au11 Ga2 2.634158 1_555
Au11 Ga0 2.796619 1_545
Au11 Ga6 2.796619 1_545
Au11 Au7 2.911684 1_555
Au11 Au9 3.071595 1_545
Au11 Au9 3.071595 1_645
Au11 Rb3 3.614757 1_545
Au11 Rb1 3.775239 1_555
Au11 Rb1 3.775239 1_655
Au11 Rb3 3.904928 1_555
