# generated using pymatgen
data_Na2Be4B4O11
_symmetry_space_group_name_H-M   'P 1'
_cell_length_a   8.90609600
_cell_length_b   12.86670594
_cell_length_c   15.36536062
_cell_angle_alpha   90.03535587
_cell_angle_beta   90.01968110
_cell_angle_gamma   110.17089585
_symmetry_Int_Tables_number   1
_chemical_formula_structural   Na2Be4B4O11
_chemical_formula_sum   'Na16 Be32 B32 O88'
_cell_volume   1652.75887560
_cell_formula_units_Z   8
loop_
 _symmetry_equiv_pos_site_id
 _symmetry_equiv_pos_as_xyz
  1  'x, y, z'
loop_
 _atom_site_type_symbol
 _atom_site_label
 _atom_site_symmetry_multiplicity
 _atom_site_fract_x
 _atom_site_fract_y
 _atom_site_fract_z
 _atom_site_occupancy
  Na  Na0  1  0.75807900  0.78230400  0.10317400  1
  Na  Na1  1  0.60750900  0.27053400  0.20955100  1
  Na  Na2  1  0.31946400  0.39502300  0.71156300  1
  Na  Na3  1  0.75636600  0.31117600  0.97073800  1
  Na  Na4  1  0.77550600  0.84759400  0.56752100  1
  Na  Na5  1  0.17209600  0.90045300  0.60476000  1
  Na  Na6  1  0.63753100  0.80843000  0.34667400  1
  Na  Na7  1  0.28353400  0.85887400  0.84047300  1
  Na  Na8  1  0.80525600  0.37488200  0.51081400  1
  Na  Na9  1  0.12649300  0.30470700  0.00566300  1
  Na  Na10  1  0.25509900  0.32482100  0.24573200  1
  Na  Na11  1  0.66866400  0.34390700  0.74400800  1
  Na  Na12  1  0.16844100  0.37294800  0.46763500  1
  Na  Na13  1  0.65333200  0.84609500  0.81902300  1
  Na  Na14  1  0.15639100  0.82765500  0.06976600  1
  Na  Na15  1  0.26897300  0.82048000  0.31149600  1
  Be  Be0  1  0.49691800  0.66353400  0.69557400  1
  Be  Be1  1  0.25409700  0.15928900  0.60989200  1
  Be  Be2  1  0.97548600  0.13385400  0.86788800  1
  Be  Be3  1  0.98748200  0.14158500  0.35939000  1
  Be  Be4  1  0.49196800  0.15216900  0.86903500  1
  Be  Be5  1  0.00449500  0.66012200  0.70409400  1
  Be  Be6  1  0.96285600  0.54627300  0.36822600  1
  Be  Be7  1  0.75463400  0.15588300  0.61994300  1
  Be  Be8  1  0.75173300  0.63400700  0.44423400  1
  Be  Be9  1  0.44970400  0.53115800  0.36980500  1
  Be  Be10  1  0.97695000  0.62341000  0.19694300  1
  Be  Be11  1  0.26216800  0.64492600  0.44625300  1
  Be  Be12  1  0.73861800  0.11483700  0.11271000  1
  Be  Be13  1  0.48104400  0.61989000  0.20260500  1
  Be  Be14  1  0.46105900  0.07030400  0.70009400  1
  Be  Be15  1  0.47318500  0.12464700  0.36263200  1
  Be  Be16  1  0.23817500  0.62220100  0.95469200  1
  Be  Be17  1  0.93544100  0.02250500  0.20414400  1
  Be  Be18  1  0.43703000  0.01832300  0.19438200  1
  Be  Be19  1  0.94666300  0.53869500  0.85910300  1
  Be  Be20  1  0.23080700  0.11167600  0.11588000  1
  Be  Be21  1  0.95814900  0.05567900  0.69697700  1
  Be  Be22  1  0.74965700  0.62986800  0.95250300  1
  Be  Be23  1  0.46263400  0.55616600  0.86313000  1
  Be  Be24  1  0.17842800  0.04016400  0.45282700  1
  Be  Be25  1  0.18435700  0.03347400  0.94378400  1
  Be  Be26  1  0.67053100  0.02594600  0.94560400  1
  Be  Be27  1  0.19394300  0.55745700  0.61363200  1
  Be  Be28  1  0.17830500  0.51816000  0.11885700  1
  Be  Be29  1  0.67582600  0.51372300  0.11325300  1
  Be  Be30  1  0.69940300  0.55737400  0.61615300  1
  Be  Be31  1  0.69313900  0.04780500  0.45449400  1
  B  B0  1  0.95371300  0.83286000  0.91401800  1
  B  B1  1  0.47080500  0.81844800  0.15843200  1
  B  B2  1  0.48618300  0.35199400  0.56805600  1
  B  B3  1  0.96515500  0.85344800  0.74486500  1
  B  B4  1  0.48213400  0.60481000  0.53148400  1
  B  B5  1  0.43147900  0.32218500  0.07113000  1
  B  B6  1  0.98882000  0.61544800  0.53303500  1
  B  B7  1  0.44917800  0.86234800  0.66010000  1
  B  B8  1  0.97413400  0.33898900  0.82453900  1
  B  B9  1  0.96213900  0.82570000  0.24490100  1
  B  B10  1  0.95037400  0.34089200  0.32355300  1
  B  B11  1  0.97061800  0.83936400  0.41478900  1
  B  B12  1  0.46550200  0.84757300  0.49037400  1
  B  B13  1  0.93485700  0.32196900  0.15511000  1
  B  B14  1  0.47238500  0.10245200  0.53172500  1
  B  B15  1  0.46580900  0.08538700  0.03176900  1
  B  B16  1  0.22338900  0.10452300  0.78215000  1
  B  B17  1  0.98035800  0.11699300  0.53054400  1
  B  B18  1  0.45455300  0.35170000  0.90052300  1
  B  B19  1  0.72785700  0.60654400  0.78183900  1
  B  B20  1  0.71295800  0.56409800  0.28193200  1
  B  B21  1  0.47457700  0.32864100  0.39990100  1
  B  B22  1  0.71741900  0.09081900  0.78141400  1
  B  B23  1  0.98639800  0.35512600  0.65846300  1
  B  B24  1  0.22425000  0.59166600  0.78199700  1
  B  B25  1  0.20549300  0.06484200  0.28329700  1
  B  B26  1  0.45674200  0.82437100  0.98980900  1
  B  B27  1  0.70790300  0.07218200  0.28261900  1
  B  B28  1  0.95344300  0.06625800  0.03166200  1
  B  B29  1  0.46587800  0.58025000  0.03377300  1
  B  B30  1  0.96241800  0.57249500  0.03166000  1
  B  B31  1  0.21677400  0.57457200  0.28292200  1
  O  O0  1  0.41260500  0.93879800  0.70966900  1
  O  O1  1  0.57148300  0.62740300  0.60707100  1
  O  O2  1  0.07296100  0.63198300  0.61012700  1
  O  O3  1  0.93289600  0.92544800  0.68819500  1
  O  O4  1  0.55761200  0.11956100  0.60902300  1
  O  O5  1  0.61793600  0.91597400  0.47070700  1
  O  O6  1  0.93860900  0.41824100  0.38148100  1
  O  O7  1  0.37507100  0.77146500  0.43148400  1
  O  O8  1  0.38999900  0.88777700  0.18215400  1
  O  O9  1  0.39633100  0.39985400  0.37675600  1
  O  O10  1  0.83126700  0.24533600  0.10122900  1
  O  O11  1  0.49354700  0.25195200  0.34396500  1
  O  O12  1  0.89108600  0.40739000  0.84636000  1
  O  O13  1  0.06329300  0.91523400  0.47211300  1
  O  O14  1  0.50771300  0.74973600  0.21586400  1
  O  O15  1  0.88129800  0.33275800  0.24001000  1
  O  O16  1  0.82386900  0.76541700  0.43770300  1
  O  O17  1  0.08269400  0.42911000  0.60026300  1
  O  O18  1  0.03085300  0.27126800  0.34511600  1
  O  O19  1  0.87913400  0.89215300  0.21959100  1
  O  O20  1  0.54196600  0.08605100  0.11017100  1
  O  O21  1  0.05368000  0.79016600  0.72096100  1
  O  O22  1  0.07609900  0.60264600  0.78205500  1
  O  O23  1  0.05768200  0.11903500  0.60886600  1
  O  O24  1  0.04857300  0.35077200  0.74213300  1
  O  O25  1  0.59066900  0.42807200  0.62240300  1
  O  O26  1  0.58572900  0.62896900  0.78248800  1
  O  O27  1  0.30218000  0.55733000  0.03338300  1
  O  O28  1  0.06013900  0.11800700  0.45332100  1
  O  O29  1  0.89919600  0.84179600  0.82898800  1
  O  O30  1  0.54739700  0.09949200  0.45399400  1
  O  O31  1  0.80141100  0.55835800  0.03101000  1
  O  O32  1  0.54020500  0.33624100  0.48461300  1
  O  O33  1  0.33574200  0.28908700  0.59457400  1
  O  O34  1  0.43334900  0.42874300  0.84601500  1
  O  O35  1  0.40029200  0.85390300  0.57230900  1
  O  O36  1  0.55682800  0.10700900  0.95664500  1
  O  O37  1  0.08182100  0.38827100  0.12647600  1
  O  O38  1  0.07054900  0.10801500  0.78317700  1
  O  O39  1  0.03141700  0.06370400  0.10904400  1
  O  O40  1  0.83512200  0.28674600  0.63675900  1
  O  O41  1  0.06558900  0.08834400  0.28076400  1
  O  O42  1  0.04316200  0.09088500  0.95578600  1
  O  O43  1  0.54506500  0.90324100  0.93309600  1
  O  O44  1  0.99006300  0.75136900  0.18893200  1
  O  O45  1  0.31777100  0.24399700  0.11985000  1
  O  O46  1  0.58557200  0.12481500  0.78274400  1
  O  O47  1  0.57626400  0.38447000  0.10493300  1
  O  O48  1  0.51960800  0.79202500  0.69378700  1
  O  O49  1  0.54939800  0.58610400  0.11131500  1
  O  O50  1  0.07624000  0.59788300  0.28183400  1
  O  O51  1  0.10221600  0.90224200  0.93853800  1
  O  O52  1  0.53140600  0.28174100  0.87426100  1
  O  O53  1  0.98615100  0.26008600  0.88050700  1
  O  O54  1  0.04719500  0.58483900  0.10888000  1
  O  O55  1  0.39062200  0.34145100  0.98558400  1
  O  O56  1  0.30772900  0.75359700  0.96792400  1
  O  O57  1  0.32124100  0.59096200  0.53170900  1
  O  O58  1  0.78089700  0.54902500  0.20462800  1
  O  O59  1  0.82342000  0.11337700  0.53108000  1
  O  O60  1  0.56469900  0.57682400  0.28360500  1
  O  O61  1  0.78815200  0.07625600  0.35990300  1
  O  O62  1  0.04109400  0.57443400  0.95418500  1
  O  O63  1  0.55226800  0.59975600  0.95699200  1
  O  O64  1  0.02716200  0.83586300  0.32938100  1
  O  O65  1  0.55229800  0.07299800  0.28135800  1
  O  O66  1  0.79194100  0.05023100  0.03075200  1
  O  O67  1  0.27628500  0.05381000  0.20489800  1
  O  O68  1  0.79422500  0.58625200  0.85827200  1
  O  O69  1  0.52139700  0.81633400  0.07210900  1
  O  O70  1  0.30289400  0.06363000  0.03068300  1
  O  O71  1  0.77800900  0.06121900  0.85673900  1
  O  O72  1  0.29170600  0.57248000  0.36138300  1
  O  O73  1  0.79481400  0.57138400  0.35930800  1
  O  O74  1  0.27735600  0.05575200  0.36105700  1
  O  O75  1  0.82416000  0.59079400  0.53208900  1
  O  O76  1  0.29538800  0.08687900  0.85804900  1
  O  O77  1  0.79205500  0.08654800  0.70355900  1
  O  O78  1  0.55536100  0.59532000  0.45452300  1
  O  O79  1  0.06603400  0.61695200  0.45461600  1
  O  O80  1  0.78223100  0.06637800  0.20487000  1
  O  O81  1  0.28535900  0.55475300  0.20738300  1
  O  O82  1  0.30697100  0.11550200  0.70479500  1
  O  O83  1  0.30977300  0.08609800  0.53413900  1
  O  O84  1  0.29970000  0.58832400  0.85957700  1
  O  O85  1  0.85372400  0.75785800  0.96928800  1
  O  O86  1  0.30135200  0.58646200  0.70392700  1
  O  O87  1  0.80428500  0.60086400  0.70434500  1
loop_
_geom_bond_atom_site_label_1
_geom_bond_atom_site_label_2
_geom_bond_distance
_geom_bond_site_symmetry_2
Na0 O85 2.289502 1_554
Na0 O19 2.303144 1_555
Na0 O69 2.344980 1_555
Na0 O49 2.570512 1_555
Na0 O44 2.594096 1_555
Na0 O14 2.739501 1_555
Na1 O47 2.257101 1_555
Na1 O11 2.277618 1_555
Na1 O15 2.336278 1_555
Na1 O65 2.657256 1_555
Na1 O10 2.700713 1_555
Na1 O20 2.710396 1_555
Na1 O45 2.839763 1_555
Na2 O34 2.275723 1_555
Na2 O33 2.289899 1_555
Na2 O24 2.327907 1_555
Na2 O86 2.526153 1_555
Na2 O25 2.680740 1_555
Na2 O17 2.863544 1_555
Na3 O10 2.360876 1_556
Na3 O12 2.367409 1_555
Na3 O52 2.414333 1_555
Na3 O36 2.624007 1_555
Na3 O53 2.733315 1_555
Na3 O47 2.959207 1_556
Na4 O3 2.331077 1_555
Na4 O16 2.365250 1_555
Na4 O5 2.409982 1_555
Na4 O13 2.818085 1_655
Na4 O1 2.854864 1_555
Na4 O48 2.889696 1_555
Na5 O13 2.292487 1_555
Na5 O21 2.299157 1_555
Na5 O35 2.361683 1_555
Na5 O83 2.524044 1_565
Na5 O0 2.588015 1_555
Na5 O3 2.599841 1_455
Na6 O14 2.311126 1_555
Na6 O16 2.376864 1_555
Na6 O5 2.395999 1_555
Na6 O7 2.573791 1_555
Na6 O19 2.830248 1_555
Na7 O0 2.367977 1_555
Na7 O51 2.410722 1_555
Na7 O56 2.433234 1_555
Na7 O43 2.618461 1_555
Na7 O21 2.663019 1_555
Na7 O76 2.911345 1_565
Na8 O32 2.274042 1_555
Na8 O6 2.284068 1_555
Na8 O40 2.304797 1_555
Na9 O37 2.247968 1_555
Na9 O55 2.255215 1_554
Na9 O53 2.256580 1_454
Na10 O45 2.352190 1_555
Na10 O9 2.392838 1_555
Na10 O18 2.418619 1_555
Na10 O37 2.697139 1_555
Na11 O52 2.338591 1_555
Na11 O25 2.380531 1_555
Na11 O12 2.438219 1_555
Na11 O40 2.491277 1_555
Na11 O46 2.722554 1_555
Na12 O17 2.374477 1_555
Na12 O18 2.376325 1_555
Na12 O9 2.388942 1_555
Na12 O6 2.665260 1_455
Na12 O57 2.837775 1_555
Na12 O33 2.880632 1_555
Na12 O72 2.919657 1_555
Na13 O29 2.214622 1_555
Na13 O48 2.242915 1_555
Na13 O43 2.243015 1_555
Na13 O71 2.666131 1_565
Na13 O26 2.705589 1_555
Na14 O44 2.347721 1_455
Na14 O51 2.353843 1_554
Na14 O56 2.461440 1_554
Na14 O8 2.606742 1_555
Na15 O64 2.246544 1_555
Na15 O7 2.258517 1_555
Na15 O8 2.284998 1_555
Be0 O48 1.595150 1_555
Be0 O1 1.648985 1_555
Be0 O86 1.686014 1_555
Be0 O26 1.688040 1_555
Be1 O33 1.592604 1_555
Be1 O23 1.644282 1_555
Be1 O83 1.675898 1_555
Be1 O82 1.687919 1_555
Be2 O53 1.605558 1_555
Be2 O38 1.647991 1_655
Be2 O42 1.650211 1_655
Be2 O71 1.691749 1_555
Be3 O18 1.592962 1_655
Be3 O28 1.652002 1_655
Be3 O41 1.655570 1_655
Be3 O61 1.681980 1_555
Be4 O52 1.582793 1_555
Be4 O36 1.647836 1_555
Be4 O46 1.667141 1_555
Be4 O76 1.668740 1_555
Be5 O21 1.597713 1_555
Be5 O22 1.647527 1_555
Be5 O2 1.655226 1_555
Be5 O87 1.680233 1_455
Be6 O6 1.599058 1_555
Be6 O73 1.642060 1_555
Be6 O50 1.662030 1_655
Be6 O79 1.689618 1_655
Be7 O40 1.607065 1_555
Be7 O4 1.661230 1_555
Be7 O77 1.662464 1_555
Be7 O59 1.664174 1_555
Be8 O16 1.591472 1_555
Be8 O73 1.646667 1_555
Be8 O78 1.652683 1_555
Be8 O75 1.671881 1_555
Be9 O9 1.593118 1_555
Be9 O78 1.650326 1_555
Be9 O60 1.653877 1_555
Be9 O72 1.671945 1_555
Be10 O44 1.614657 1_555
Be10 O54 1.637830 1_655
Be10 O50 1.670715 1_655
Be10 O58 1.681221 1_555
Be11 O7 1.607791 1_555
Be11 O57 1.653967 1_555
Be11 O79 1.662512 1_555
Be11 O72 1.675263 1_555
Be12 O10 1.605086 1_555
Be12 O80 1.647005 1_555
Be12 O20 1.660929 1_555
Be12 O66 1.665465 1_555
Be13 O14 1.617099 1_555
Be13 O60 1.641972 1_555
Be13 O49 1.646054 1_555
Be13 O81 1.654680 1_555
Be14 O0 1.602400 1_545
Be14 O4 1.650860 1_555
Be14 O82 1.666460 1_555
Be14 O46 1.672111 1_555
Be15 O11 1.610574 1_555
Be15 O30 1.630869 1_555
Be15 O74 1.661897 1_555
Be15 O65 1.679310 1_555
Be16 O56 1.600172 1_555
Be16 O62 1.647612 1_555
Be16 O84 1.670519 1_555
Be16 O27 1.677046 1_556
Be17 O19 1.594160 1_545
Be17 O80 1.646774 1_555
Be17 O41 1.663685 1_655
Be17 O39 1.684103 1_655
Be18 O8 1.595769 1_545
Be18 O67 1.653775 1_555
Be18 O20 1.657603 1_555
Be18 O65 1.683637 1_555
Be19 O12 1.600137 1_555
Be19 O22 1.659962 1_655
Be19 O62 1.668774 1_655
Be19 O68 1.670523 1_555
Be20 O45 1.610177 1_555
Be20 O70 1.667733 1_555
Be20 O39 1.670126 1_555
Be20 O67 1.672754 1_555
Be21 O3 1.617521 1_545
Be21 O38 1.656181 1_655
Be21 O77 1.661746 1_555
Be21 O23 1.669456 1_655
Be22 O85 1.607549 1_555
Be22 O68 1.649817 1_555
Be22 O63 1.666045 1_555
Be22 O31 1.675598 1_556
Be23 O34 1.590507 1_555
Be23 O84 1.641323 1_555
Be23 O63 1.649629 1_555
Be23 O26 1.705530 1_555
Be24 O13 1.608478 1_545
Be24 O74 1.638339 1_555
Be24 O83 1.673300 1_555
Be24 O28 1.685454 1_555
Be25 O51 1.593955 1_545
Be25 O76 1.648884 1_555
Be25 O70 1.662470 1_556
Be25 O42 1.673789 1_555
Be26 O43 1.600315 1_545
Be26 O71 1.639733 1_555
Be26 O66 1.656522 1_556
Be26 O36 1.694233 1_555
Be27 O17 1.619275 1_555
Be27 O57 1.649331 1_555
Be27 O86 1.652731 1_555
Be27 O2 1.672099 1_555
Be28 O37 1.598458 1_555
Be28 O81 1.633918 1_555
Be28 O54 1.677485 1_555
Be28 O27 1.677607 1_555
Be29 O47 1.597198 1_555
Be29 O31 1.654269 1_555
Be29 O58 1.660846 1_555
Be29 O49 1.690928 1_555
Be30 O25 1.613707 1_555
Be30 O87 1.630849 1_555
Be30 O75 1.661337 1_555
Be30 O1 1.684419 1_555
Be31 O5 1.613999 1_545
Be31 O30 1.649980 1_555
Be31 O61 1.658424 1_555
Be31 O59 1.663015 1_555
B0 O85 1.361756 1_555
B0 O51 1.368613 1_655
B0 O29 1.412160 1_555
B1 O14 1.367332 1_555
B1 O8 1.374414 1_555
B1 O69 1.404234 1_555
B2 O33 1.367193 1_555
B2 O25 1.375400 1_555
B2 O32 1.408468 1_555
B3 O21 1.364557 1_655
B3 O3 1.372354 1_555
B3 O29 1.406537 1_555
B4 O78 1.376185 1_555
B4 O1 1.380595 1_555
B4 O57 1.381655 1_555
B5 O47 1.364225 1_555
B5 O45 1.377273 1_555
B5 O55 1.408510 1_554
B6 O2 1.378077 1_655
B6 O79 1.384400 1_655
B6 O75 1.389446 1_555
B7 O48 1.368156 1_555
B7 O0 1.368939 1_555
B7 O35 1.409892 1_555
B8 O53 1.362946 1_555
B8 O12 1.372141 1_555
B8 O24 1.413243 1_655
B9 O19 1.365626 1_555
B9 O44 1.370867 1_555
B9 O64 1.408717 1_655
B10 O6 1.365501 1_555
B10 O18 1.367129 1_655
B10 O15 1.411423 1_555
B11 O13 1.361173 1_655
B11 O16 1.371321 1_555
B11 O64 1.412038 1_655
B12 O7 1.371450 1_555
B12 O5 1.373157 1_555
B12 O35 1.400679 1_555
B13 O37 1.365761 1_655
B13 O10 1.371100 1_555
B13 O15 1.412247 1_555
B14 O30 1.375611 1_555
B14 O4 1.385310 1_555
B14 O83 1.390299 1_555
B15 O70 1.379755 1_555
B15 O20 1.380863 1_555
B15 O36 1.382912 1_554
B16 O38 1.377442 1_555
B16 O82 1.383874 1_555
B16 O76 1.386715 1_555
B17 O28 1.381000 1_655
B17 O23 1.382075 1_655
B17 O59 1.382379 1_555
B18 O34 1.360073 1_555
B18 O52 1.366094 1_555
B18 O55 1.413772 1_555
B19 O68 1.379543 1_555
B19 O87 1.386087 1_555
B19 O26 1.391941 1_555
B20 O58 1.376858 1_555
B20 O73 1.380542 1_555
B20 O60 1.385668 1_555
B21 O11 1.361951 1_555
B21 O9 1.375589 1_555
B21 O32 1.416099 1_555
B22 O77 1.378980 1_555
B22 O71 1.384794 1_555
B22 O46 1.387380 1_555
B23 O17 1.371113 1_655
B23 O40 1.371975 1_555
B23 O24 1.408394 1_655
B24 O22 1.374574 1_555
B24 O84 1.376153 1_555
B24 O86 1.395408 1_555
B25 O74 1.379183 1_555
B25 O41 1.380324 1_555
B25 O67 1.389537 1_555
B26 O43 1.363448 1_555
B26 O56 1.367279 1_555
B26 O69 1.407881 1_556
B27 O61 1.377390 1_555
B27 O80 1.380391 1_555
B27 O65 1.389617 1_555
B28 O66 1.380944 1_555
B28 O39 1.382851 1_655
B28 O42 1.387299 1_654
B29 O63 1.383702 1_554
B29 O27 1.384193 1_555
B29 O49 1.392547 1_555
B30 O62 1.377417 1_654
B30 O31 1.381843 1_555
B30 O54 1.385483 1_655
B31 O81 1.375814 1_555
B31 O72 1.382529 1_555
B31 O50 1.384071 1_555
