# generated using pymatgen
data_Li3Co2NiO6
_symmetry_space_group_name_H-M   'P 1'
_cell_length_a   2.98959818
_cell_length_b   9.82713643
_cell_length_c   7.67419144
_cell_angle_alpha   91.33236047
_cell_angle_beta   78.03743377
_cell_angle_gamma   80.32735729
_symmetry_Int_Tables_number   1
_chemical_formula_structural   Li3Co2NiO6
_chemical_formula_sum   'Li6 Co4 Ni2 O12'
_cell_volume   217.03498087
_cell_formula_units_Z   2
loop_
 _symmetry_equiv_pos_site_id
 _symmetry_equiv_pos_as_xyz
  1  'x, y, z'
loop_
 _atom_site_type_symbol
 _atom_site_label
 _atom_site_symmetry_multiplicity
 _atom_site_fract_x
 _atom_site_fract_y
 _atom_site_fract_z
 _atom_site_occupancy
  Li  Li0  1  0.08613600  0.24746500  0.59021900  1
  Li  Li1  1  0.58545600  0.74777900  0.08617600  1
  Li  Li2  1  0.24598800  0.74857100  0.74155900  1
  Li  Li3  1  0.75052500  0.24805100  0.23761800  1
  Li  Li4  1  0.92019300  0.75060300  0.41467600  1
  Li  Li5  1  0.41333600  0.25178000  0.91599900  1
  Co  Co0  1  0.16304900  0.49681100  0.16295900  1
  Co  Co1  1  0.99638800  0.00455000  0.00808500  1
  Co  Co2  1  0.49929100  0.50545000  0.50777400  1
  Co  Co3  1  0.66757200  0.99653900  0.66530000  1
  Ni  Ni0  1  0.33139100  0.99739400  0.33040700  1
  Ni  Ni1  1  0.83439700  0.49655600  0.82950200  1
  O  O0  1  0.87878800  0.62024700  0.61811600  1
  O  O1  1  0.37868900  0.12144200  0.11851600  1
  O  O2  1  0.24147600  0.88320900  0.55040200  1
  O  O3  1  0.74882000  0.38396500  0.04850800  1
  O  O4  1  0.69360400  0.10696900  0.47593400  1
  O  O5  1  0.20126000  0.60933500  0.97686200  1
  O  O6  1  0.96537900  0.88334800  0.19475000  1
  O  O7  1  0.46672500  0.38196600  0.69246100  1
  O  O8  1  0.08430500  0.11097500  0.78944100  1
  O  O9  1  0.57979800  0.61032500  0.28930000  1
  O  O10  1  0.62695100  0.88936200  0.86072900  1
  O  O11  1  0.13231400  0.39292400  0.35787500  1
loop_
_geom_bond_atom_site_label_1
_geom_bond_atom_site_label_2
_geom_bond_distance
_geom_bond_site_symmetry_2
Li0 O8 2.056923 1_555
Li0 O7 2.078166 1_455
Li0 O4 2.101059 1_555
Li0 O7 2.117668 1_555
Li0 O4 2.228768 1_455
Li0 O11 2.307476 1_555
Li1 O9 2.085534 1_555
Li1 O6 2.093756 1_455
Li1 O5 2.099775 1_654
Li1 O6 2.146724 1_555
Li1 O5 2.178409 1_554
Li1 O10 2.241776 1_554
Li2 O2 1.998819 1_555
Li2 O0 2.113408 1_555
Li2 O0 2.129217 1_455
Li2 O10 2.134182 1_455
Li2 O10 2.224918 1_555
Li2 O5 2.286298 1_555
Li3 O3 1.995262 1_555
Li3 O1 2.088198 1_655
Li3 O1 2.110046 1_555
Li3 O11 2.154544 1_555
Li3 O11 2.258980 1_655
Li3 O4 2.316063 1_555
Li4 O0 2.039606 1_555
Li4 O2 2.116097 1_655
Li4 O6 2.153040 1_555
Li4 O9 2.162712 1_555
Li4 O9 2.225535 1_655
Li4 O2 2.252218 1_555
Li5 O1 2.033991 1_556
Li5 O3 2.127580 1_556
Li5 O8 2.148600 1_555
Li5 O7 2.159224 1_555
Li5 O3 2.214073 1_456
Li5 O8 2.253631 1_655
Co0 O5 1.823094 1_554
Co0 O11 1.825856 1_555
Co0 O3 1.931963 1_555
Co0 O9 1.954511 1_455
Co0 O3 2.098067 1_455
Co0 O9 2.157369 1_555
Co1 O6 1.881675 1_545
Co1 O8 1.992348 1_654
Co1 O1 2.010242 1_555
Co1 O1 2.035059 1_655
Co1 O10 2.110342 1_644
Co1 O10 2.158320 1_544
Co2 O7 1.885029 1_555
Co2 O9 1.981808 1_555
Co2 O0 2.008009 1_455
Co2 O0 2.015151 1_555
Co2 O11 2.112524 1_655
Co2 O11 2.149766 1_555
Co3 O4 1.830425 1_565
Co3 O10 1.847778 1_555
Co3 O2 1.909627 1_655
Co3 O8 1.953319 1_565
Co3 O2 2.130079 1_555
Co3 O8 2.153480 1_665
Ni0 O2 2.045244 1_555
Ni0 O1 2.050612 1_565
Ni0 O6 2.084764 1_555
Ni0 O6 2.089804 1_455
Ni0 O4 2.100893 1_465
Ni0 O4 2.101574 1_565
Ni1 O3 2.029227 1_556
Ni1 O0 2.045329 1_555
Ni1 O7 2.086425 1_655
Ni1 O7 2.102954 1_555
Ni1 O5 2.106987 1_555
Ni1 O5 2.138794 1_655
