# generated using pymatgen
data_HfMg14Sn
_symmetry_space_group_name_H-M   'P 1'
_cell_length_a   6.36095458
_cell_length_b   6.36095407
_cell_length_c   10.39674798
_cell_angle_alpha   90.00000000
_cell_angle_beta   90.00000000
_cell_angle_gamma   120.00000265
_symmetry_Int_Tables_number   1
_chemical_formula_structural   HfMg14Sn
_chemical_formula_sum   'Hf1 Mg14 Sn1'
_cell_volume   364.31134102
_cell_formula_units_Z   1
loop_
 _symmetry_equiv_pos_site_id
 _symmetry_equiv_pos_as_xyz
  1  'x, y, z'
loop_
 _atom_site_type_symbol
 _atom_site_label
 _atom_site_symmetry_multiplicity
 _atom_site_fract_x
 _atom_site_fract_y
 _atom_site_fract_z
 _atom_site_occupancy
  Hf  Hf0  1  0.16666700  0.33333300  0.62500000  1
  Mg  Mg0  1  0.16453366  0.83226633  0.12500000  1
  Mg  Mg1  1  0.17164138  0.83582019  0.62500000  1
  Mg  Mg2  1  0.66773367  0.33546634  0.12500000  1
  Mg  Mg3  1  0.66417981  0.32835862  0.62500000  1
  Mg  Mg4  1  0.66773367  0.83226633  0.12500000  1
  Mg  Mg5  1  0.66417981  0.83582019  0.62500000  1
  Mg  Mg6  1  0.32946409  0.17053591  0.37907308  1
  Mg  Mg7  1  0.32946409  0.17053591  0.87092692  1
  Mg  Mg8  1  0.32946409  0.65892919  0.37907308  1
  Mg  Mg9  1  0.32946409  0.65892919  0.87092692  1
  Mg  Mg10  1  0.84107081  0.17053591  0.37907308  1
  Mg  Mg11  1  0.84107081  0.17053591  0.87092692  1
  Mg  Mg12  1  0.83333300  0.66666700  0.38197996  1
  Mg  Mg13  1  0.83333300  0.66666700  0.86802004  1
  Sn  Sn0  1  0.16666700  0.33333300  0.12500000  1
loop_
_geom_bond_atom_site_label_1
_geom_bond_atom_site_label_2
_geom_bond_distance
_geom_bond_site_symmetry_2
Hf0 Mg6 3.123218 1_555
Hf0 Mg7 3.123218 1_555
Hf0 Mg8 3.123224 1_555
Hf0 Mg9 3.123224 1_555
Hf0 Mg10 3.123224 1_455
Hf0 Mg11 3.123224 1_455
Hf0 Mg1 3.180595 1_555
Hf0 Mg5 3.180595 1_555
Hf0 Mg5 3.180595 1_445
Hf0 Mg1 3.180595 1_545
Hf0 Mg3 3.180595 1_455
Hf0 Mg3 3.180595 1_555
Mg0 Mg2 3.160122 1_455
Mg0 Mg4 3.160122 1_455
Mg0 Sn0 3.180499 1_565
Mg0 Sn0 3.180499 1_555
Mg0 Mg2 3.200832 1_565
Mg0 Mg4 3.200832 1_555
Mg0 Mg9 3.232768 1_554
Mg0 Mg8 3.232768 1_555
Mg0 Mg7 3.232775 1_564
Mg0 Mg6 3.232775 1_565
Mg0 Mg12 3.235287 1_455
Mg0 Mg13 3.235287 1_454
Mg1 Mg3 3.133014 1_565
Mg1 Mg5 3.133015 1_555
Mg1 Mg12 3.139588 1_455
Mg1 Mg13 3.139588 1_455
Mg1 Mg8 3.152920 1_555
Mg1 Mg9 3.152920 1_555
Mg1 Mg6 3.152927 1_565
Mg1 Mg7 3.152927 1_565
Mg1 Mg3 3.227940 1_455
Mg1 Mg5 3.227940 1_455
Mg2 Mg4 3.160122 1_555
Mg2 Sn0 3.180499 1_655
Mg2 Sn0 3.180499 1_555
Mg2 Mg4 3.200832 1_545
Mg2 Mg7 3.232775 1_554
Mg2 Mg6 3.232775 1_555
Mg3 Mg5 3.133014 1_545
Mg3 Mg6 3.152927 1_555
Mg3 Mg7 3.152927 1_555
Mg3 Mg5 3.227940 1_555
Mg4 Sn0 3.180499 1_665
Mg4 Sn0 3.180499 1_555
Mg4 Mg9 3.232775 1_554
Mg4 Mg8 3.232775 1_555
Mg5 Mg8 3.152927 1_555
Mg5 Mg9 3.152927 1_555
Mg6 Mg8 3.106647 1_555
Mg6 Sn0 3.192923 1_555
Mg6 Mg8 3.254307 1_545
Mg7 Mg9 3.106647 1_555
Mg7 Sn0 3.192923 1_556
Mg7 Mg9 3.254307 1_545
Mg8 Sn0 3.192930 1_555
Mg9 Sn0 3.192930 1_556
Mg10 Mg8 3.106647 1_655
Mg10 Mg6 3.106647 1_655
Mg10 Mg3 3.152920 1_555
Mg10 Mg5 3.152926 1_545
Mg10 Mg12 3.180906 1_555
Mg10 Mg12 3.180906 1_545
Mg10 Sn0 3.192930 1_655
Mg10 Mg2 3.232768 1_555
Mg10 Mg4 3.232774 1_545
Mg10 Mg8 3.254307 1_545
Mg10 Mg6 3.254307 1_555
Mg11 Mg9 3.106647 1_655
Mg11 Mg7 3.106647 1_655
Mg11 Mg3 3.152920 1_555
Mg11 Mg5 3.152926 1_545
Mg11 Mg13 3.180906 1_555
Mg11 Mg13 3.180906 1_545
Mg11 Sn0 3.192930 1_656
Mg11 Mg2 3.232768 1_556
Mg11 Mg4 3.232774 1_546
Mg11 Mg9 3.254307 1_545
Mg11 Mg7 3.254307 1_555
Mg12 Mg5 3.139581 1_555
Mg12 Mg3 3.139588 1_555
Mg12 Mg6 3.180906 1_665
Mg12 Mg6 3.180906 1_555
Mg12 Mg8 3.180906 1_655
Mg12 Mg8 3.180907 1_555
Mg12 Mg4 3.235281 1_555
Mg12 Mg2 3.235287 1_555
Mg13 Mg5 3.139581 1_555
Mg13 Mg3 3.139588 1_555
Mg13 Mg7 3.180906 1_665
Mg13 Mg7 3.180906 1_555
Mg13 Mg9 3.180906 1_655
Mg13 Mg9 3.180907 1_555
Mg13 Mg4 3.235281 1_556
Mg13 Mg2 3.235287 1_556
