# generated using pymatgen
data_NdBi3(Ru2O7)2
_symmetry_space_group_name_H-M   'P 1'
_cell_length_a   7.38241875
_cell_length_b   7.38241875
_cell_length_c   7.38241897
_cell_angle_alpha   59.53047031
_cell_angle_beta   59.53047031
_cell_angle_gamma   59.53046718
_symmetry_Int_Tables_number   1
_chemical_formula_structural   NdBi3(Ru2O7)2
_chemical_formula_sum   'Nd1 Bi3 Ru4 O14'
_cell_volume   281.46176467
_cell_formula_units_Z   1
loop_
 _symmetry_equiv_pos_site_id
 _symmetry_equiv_pos_as_xyz
  1  'x, y, z'
loop_
 _atom_site_type_symbol
 _atom_site_label
 _atom_site_symmetry_multiplicity
 _atom_site_fract_x
 _atom_site_fract_y
 _atom_site_fract_z
 _atom_site_occupancy
  Nd  Nd0  1  0.50000000  0.50000000  0.50000000  1
  Bi  Bi0  1  0.50000000  0.00000000  0.50000000  1
  Bi  Bi1  1  0.00000000  0.50000000  0.50000000  1
  Bi  Bi2  1  0.50000000  0.50000000  0.00000000  1
  Ru  Ru0  1  0.00000000  0.00000000  0.00000000  1
  Ru  Ru1  1  0.00000000  0.50000000  0.00000000  1
  Ru  Ru2  1  0.50000000  0.00000000  0.00000000  1
  Ru  Ru3  1  0.00000000  0.00000000  0.50000000  1
  O  O0  1  0.62452100  0.62452100  0.62452100  1
  O  O1  1  0.37547900  0.37547900  0.37547900  1
  O  O2  1  0.92184900  0.92184900  0.32790500  1
  O  O3  1  0.32790500  0.92184900  0.92184900  1
  O  O4  1  0.92184900  0.32790500  0.92184900  1
  O  O5  1  0.32839100  0.32839100  0.92445500  1
  O  O6  1  0.92445500  0.32839100  0.32839100  1
  O  O7  1  0.32839100  0.92445500  0.32839100  1
  O  O8  1  0.07815100  0.07815100  0.67209500  1
  O  O9  1  0.67209500  0.07815100  0.07815100  1
  O  O10  1  0.07815100  0.67209500  0.07815100  1
  O  O11  1  0.67160900  0.67160900  0.07554500  1
  O  O12  1  0.07554500  0.67160900  0.67160900  1
  O  O13  1  0.67160900  0.07554500  0.67160900  1
loop_
_geom_bond_atom_site_label_1
_geom_bond_atom_site_label_2
_geom_bond_distance
_geom_bond_site_symmetry_2
Nd0 O0 2.259690 1_555
Nd0 O1 2.259690 1_555
Nd0 O13 2.569936 1_555
Nd0 O7 2.569936 1_555
Nd0 O6 2.569936 1_555
Nd0 O12 2.569936 1_555
Nd0 O11 2.569936 1_555
Nd0 O5 2.569936 1_555
Bi0 O1 2.249959 1_555
Bi0 O0 2.249959 1_545
Bi0 O2 2.560112 1_545
Bi0 O8 2.560112 1_555
Bi0 O9 2.560112 1_555
Bi0 O3 2.560112 1_545
Bi0 O7 2.565521 1_545
Bi0 O13 2.565521 1_555
Bi1 O0 2.249959 1_455
Bi1 O1 2.249959 1_555
Bi1 O2 2.560112 1_455
Bi1 O8 2.560112 1_555
Bi1 O4 2.560112 1_455
Bi1 O10 2.560112 1_555
Bi1 O6 2.565521 1_455
Bi1 O12 2.565521 1_555
Bi2 O0 2.249959 1_554
Bi2 O1 2.249959 1_555
Bi2 O10 2.560112 1_555
Bi2 O3 2.560112 1_554
Bi2 O9 2.560112 1_555
Bi2 O4 2.560112 1_554
Bi2 O11 2.565521 1_555
Bi2 O5 2.565521 1_554
O2 Ru0 2.007597 1_665
O2 Ru3 2.025873 1_665
O3 Ru0 2.007597 1_566
O3 Ru2 2.025873 1_566
O4 Ru0 2.007597 1_656
O4 Ru1 2.025873 1_656
O5 Ru2 2.005963 1_556
O5 Ru1 2.005963 1_556
O6 Ru3 2.005963 1_655
O6 Ru1 2.005964 1_655
O7 Ru3 2.005963 1_565
O7 Ru2 2.005964 1_565
O8 Ru0 2.007597 1_556
O8 Ru3 2.025873 1_555
O9 Ru0 2.007597 1_655
O9 Ru2 2.025873 1_555
O10 Ru0 2.007597 1_565
O10 Ru1 2.025873 1_555
O11 Ru2 2.005963 1_565
O11 Ru1 2.005963 1_655
O12 Ru3 2.005963 1_565
O12 Ru1 2.005964 1_556
O13 Ru3 2.005963 1_655
O13 Ru2 2.005964 1_556
