# generated using pymatgen
data_Fe3S
_symmetry_space_group_name_H-M   'P 1'
_cell_length_a   5.16715569
_cell_length_b   5.16715569
_cell_length_c   4.25474700
_cell_angle_alpha   90.00000000
_cell_angle_beta   90.00000000
_cell_angle_gamma   119.99999599
_symmetry_Int_Tables_number   1
_chemical_formula_structural   Fe3S
_chemical_formula_sum   'Fe6 S2'
_cell_volume   98.38015085
_cell_formula_units_Z   2
loop_
 _symmetry_equiv_pos_site_id
 _symmetry_equiv_pos_as_xyz
  1  'x, y, z'
loop_
 _atom_site_type_symbol
 _atom_site_label
 _atom_site_symmetry_multiplicity
 _atom_site_fract_x
 _atom_site_fract_y
 _atom_site_fract_z
 _atom_site_occupancy
  Fe  Fe0  1  0.16177000  0.32353900  0.25000000  1
  Fe  Fe1  1  0.67646100  0.83823000  0.25000000  1
  Fe  Fe2  1  0.16177000  0.83823000  0.25000000  1
  Fe  Fe3  1  0.83823000  0.67646100  0.75000000  1
  Fe  Fe4  1  0.32353900  0.16177000  0.75000000  1
  Fe  Fe5  1  0.83823000  0.16177000  0.75000000  1
  S  S0  1  0.33333300  0.66666700  0.75000000  1
  S  S1  1  0.66666700  0.33333300  0.25000000  1
loop_
_geom_bond_atom_site_label_1
_geom_bond_atom_site_label_2
_geom_bond_distance
_geom_bond_site_symmetry_2
Fe0 Fe2 2.507667 1_545
Fe0 Fe1 2.507667 1_445
Fe0 Fe4 2.573292 1_555
Fe0 Fe4 2.573292 1_554
Fe0 Fe5 2.573297 1_454
Fe0 Fe5 2.573297 1_455
Fe0 S1 2.583950 1_455
Fe0 S1 2.583950 1_555
Fe0 S0 2.623615 1_554
Fe0 S0 2.623615 1_555
Fe0 Fe2 2.659489 1_555
Fe0 Fe1 2.659489 1_555
Fe1 Fe2 2.507667 1_655
Fe1 Fe3 2.573292 1_554
Fe1 Fe3 2.573292 1_555
Fe1 Fe5 2.573297 1_564
Fe1 Fe5 2.573297 1_565
Fe1 S1 2.583950 1_565
Fe1 S1 2.583950 1_555
Fe1 S0 2.623615 1_554
Fe1 S0 2.623615 1_555
Fe1 Fe2 2.659489 1_555
Fe2 Fe4 2.573297 1_564
Fe2 Fe4 2.573297 1_565
Fe2 Fe3 2.573297 1_455
Fe2 Fe3 2.573297 1_454
Fe2 S1 2.583950 1_565
Fe2 S1 2.583950 1_455
Fe2 S0 2.623609 1_554
Fe2 S0 2.623609 1_555
Fe3 Fe5 2.507667 1_565
Fe3 Fe4 2.507667 1_665
Fe3 S0 2.583950 1_655
Fe3 S0 2.583950 1_555
Fe3 S1 2.623615 1_556
Fe3 S1 2.623615 1_555
Fe3 Fe5 2.659489 1_555
Fe3 Fe4 2.659489 1_555
Fe4 Fe5 2.507667 1_455
Fe4 S0 2.583950 1_545
Fe4 S0 2.583950 1_555
Fe4 S1 2.623615 1_556
Fe4 S1 2.623615 1_555
Fe4 Fe5 2.659489 1_555
Fe5 S0 2.583950 1_545
Fe5 S0 2.583950 1_655
Fe5 S1 2.623609 1_555
Fe5 S1 2.623609 1_556
