# generated using pymatgen
data_PH9PtC3Cl2
_symmetry_space_group_name_H-M   'P 1'
_cell_length_a   10.99686900
_cell_length_b   6.74907200
_cell_length_c   12.01484187
_cell_angle_alpha   72.40873704
_cell_angle_beta   90.00000000
_cell_angle_gamma   90.00000000
_symmetry_Int_Tables_number   1
_chemical_formula_structural   PH9PtC3Cl2
_chemical_formula_sum   'P4 H36 Pt4 C12 Cl8'
_cell_volume   850.02550408
_cell_formula_units_Z   4
loop_
 _symmetry_equiv_pos_site_id
 _symmetry_equiv_pos_as_xyz
  1  'x, y, z'
loop_
 _atom_site_type_symbol
 _atom_site_label
 _atom_site_symmetry_multiplicity
 _atom_site_fract_x
 _atom_site_fract_y
 _atom_site_fract_z
 _atom_site_occupancy
  P  P0  1  0.66033700  0.79763400  0.78982800  1
  P  P1  1  0.83966300  0.79763400  0.28982800  1
  P  P2  1  0.33966300  0.20236600  0.21017200  1
  P  P3  1  0.16033700  0.20236600  0.71017200  1
  H  H0  1  0.87363200  0.88637000  0.77611900  1
  H  H1  1  0.62636800  0.88637000  0.27611900  1
  H  H2  1  0.12636800  0.11363000  0.22388100  1
  H  H3  1  0.37363200  0.11363000  0.72388100  1
  H  H4  1  0.84536800  0.65001100  0.89062000  1
  H  H5  1  0.65463200  0.65001100  0.39062000  1
  H  H6  1  0.15463200  0.34998900  0.10938000  1
  H  H7  1  0.34536800  0.34998900  0.60938000  1
  H  H8  1  0.84568400  0.64901900  0.74188800  1
  H  H9  1  0.65431600  0.64901900  0.24188800  1
  H  H10  1  0.15431600  0.35098100  0.25811200  1
  H  H11  1  0.34568400  0.35098100  0.75811200  1
  H  H12  1  0.48633800  0.56937200  0.84029600  1
  H  H13  1  0.01366200  0.56937200  0.34029600  1
  H  H14  1  0.51366200  0.43062800  0.15970400  1
  H  H15  1  0.98633800  0.43062800  0.65970400  1
  H  H16  1  0.60448300  0.45834400  0.77427300  1
  H  H17  1  0.89551700  0.45834400  0.27427300  1
  H  H18  1  0.39551700  0.54165600  0.22572700  1
  H  H19  1  0.10448300  0.54165600  0.72572700  1
  H  H20  1  0.61938600  0.45856700  0.92302400  1
  H  H21  1  0.88061400  0.45856700  0.42302400  1
  H  H22  1  0.38061400  0.54143300  0.07697600  1
  H  H23  1  0.11938600  0.54143300  0.57697600  1
  H  H24  1  0.69196100  0.03419600  0.90494400  1
  H  H25  1  0.80803900  0.03419600  0.40494400  1
  H  H26  1  0.30803900  0.96580400  0.09505600  1
  H  H27  1  0.19196100  0.96580400  0.59505600  1
  H  H28  1  0.53421300  0.97041800  0.89793400  1
  H  H29  1  0.96578700  0.97041800  0.39793400  1
  H  H30  1  0.46578700  0.02958200  0.10206600  1
  H  H31  1  0.03421300  0.02958200  0.60206600  1
  H  H32  1  0.63601800  0.78675300  0.99142600  1
  H  H33  1  0.86398200  0.78675300  0.49142600  1
  H  H34  1  0.36398200  0.21324700  0.00857400  1
  H  H35  1  0.13601800  0.21324700  0.50857400  1
  Pt  Pt0  1  0.60529900  0.00286400  0.61461200  1
  Pt  Pt1  1  0.89470100  0.00286400  0.11461200  1
  Pt  Pt2  1  0.39470100  0.99713600  0.38538800  1
  Pt  Pt3  1  0.10529900  0.99713600  0.88538800  1
  C  C0  1  0.82198800  0.74021600  0.80055200  1
  C  C1  1  0.67801200  0.74021600  0.30055200  1
  C  C2  1  0.17801200  0.25978400  0.19944800  1
  C  C3  1  0.32198800  0.25978400  0.69944800  1
  C  C4  1  0.58495300  0.54599800  0.83588100  1
  C  C5  1  0.91504700  0.54599800  0.33588100  1
  C  C6  1  0.41504700  0.45400200  0.16411900  1
  C  C7  1  0.08495300  0.45400200  0.66411900  1
  C  C8  1  0.62737400  0.90906600  0.90715200  1
  C  C9  1  0.87262600  0.90906600  0.40715200  1
  C  C10  1  0.37262600  0.09093400  0.09284800  1
  C  C11  1  0.12737400  0.09093400  0.59284800  1
  Cl  Cl0  1  0.46165400  0.77466300  0.57858900  1
  Cl  Cl1  1  0.03834600  0.77466300  0.07858900  1
  Cl  Cl2  1  0.53834600  0.22533700  0.42141100  1
  Cl  Cl3  1  0.96165400  0.22533700  0.92141100  1
  Cl  Cl4  1  0.74381000  0.25015600  0.63108400  1
  Cl  Cl5  1  0.75619000  0.25015600  0.13108400  1
  Cl  Cl6  1  0.25619000  0.74984400  0.36891600  1
  Cl  Cl7  1  0.24381000  0.74984400  0.86891600  1
loop_
_geom_bond_atom_site_label_1
_geom_bond_atom_site_label_2
_geom_bond_distance
_geom_bond_site_symmetry_2
P0 Pt0 2.225795 1_565
P1 Pt1 2.225795 1_565
P2 Pt2 2.225795 1_545
P3 Pt3 2.225795 1_545
C0 H8 1.098071 1_555
C0 H0 1.098488 1_555
C0 H4 1.099807 1_555
C0 P0 1.815667 1_555
C1 H9 1.098071 1_555
C1 H1 1.098488 1_555
C1 H5 1.099807 1_555
C1 P1 1.815667 1_555
C2 H10 1.098071 1_555
C2 H2 1.098488 1_555
C2 H6 1.099807 1_555
C2 P2 1.815667 1_555
C3 H11 1.098071 1_555
C3 H3 1.098488 1_555
C3 H7 1.099807 1_555
C3 P3 1.815667 1_555
C4 H16 1.099406 1_555
C4 H12 1.099456 1_555
C4 H20 1.101981 1_555
C4 P0 1.819240 1_555
C5 H17 1.099406 1_555
C5 H13 1.099456 1_655
C5 H21 1.101981 1_555
C5 P1 1.819240 1_555
C6 H18 1.099406 1_555
C6 H14 1.099456 1_555
C6 H22 1.101981 1_555
C6 P2 1.819240 1_555
C7 H19 1.099406 1_555
C7 H15 1.099456 1_455
C7 H23 1.101981 1_555
C7 P3 1.819240 1_555
C8 H24 1.097644 1_565
C8 H28 1.097979 1_555
C8 H32 1.100223 1_555
C8 P0 1.823416 1_555
C9 H25 1.097644 1_565
C9 H29 1.097979 1_555
C9 H33 1.100223 1_555
C9 P1 1.823416 1_555
C10 H26 1.097644 1_545
C10 H30 1.097979 1_555
C10 H34 1.100223 1_555
C10 P2 1.823416 1_555
C11 H27 1.097644 1_545
C11 H31 1.097979 1_555
C11 H35 1.100223 1_555
C11 P3 1.823416 1_555
Cl0 Pt0 2.336144 1_565
Cl0 Pt2 2.465394 1_555
Cl1 Pt1 2.336144 1_465
Cl1 Pt3 2.465394 1_554
Cl2 Pt2 2.336144 1_545
Cl2 Pt0 2.465394 1_555
Cl3 Pt3 2.336144 1_645
Cl3 Pt1 2.465394 1_556
Cl4 Pt0 2.311808 1_555
Cl5 Pt1 2.311808 1_555
Cl6 Pt2 2.311808 1_555
Cl7 Pt3 2.311808 1_555
