# generated using pymatgen
data_Fe(RhSe2)2
_symmetry_space_group_name_H-M   'P 1'
_cell_length_a   6.53223186
_cell_length_b   6.53223186
_cell_length_c   6.48217254
_cell_angle_alpha   60.82829865
_cell_angle_beta   60.82829865
_cell_angle_gamma   33.26706483
_symmetry_Int_Tables_number   1
_chemical_formula_structural   Fe(RhSe2)2
_chemical_formula_sum   'Fe1 Rh2 Se4'
_cell_volume   130.62432854
_cell_formula_units_Z   1
loop_
 _symmetry_equiv_pos_site_id
 _symmetry_equiv_pos_as_xyz
  1  'x, y, z'
loop_
 _atom_site_type_symbol
 _atom_site_label
 _atom_site_symmetry_multiplicity
 _atom_site_fract_x
 _atom_site_fract_y
 _atom_site_fract_z
 _atom_site_occupancy
  Fe  Fe0  1  0.00000000  0.00000000  0.00000000  1
  Rh  Rh0  1  0.26274300  0.26274300  0.71987000  1
  Rh  Rh1  1  0.73725700  0.73725700  0.28013000  1
  Se  Se0  1  0.36654300  0.36654300  0.97528000  1
  Se  Se1  1  0.63345700  0.63345700  0.02472000  1
  Se  Se2  1  0.11880800  0.11880800  0.55420900  1
  Se  Se3  1  0.88119200  0.88119200  0.44579100  1
loop_
_geom_bond_atom_site_label_1
_geom_bond_atom_site_label_2
_geom_bond_distance
_geom_bond_site_symmetry_2
Fe0 Se3 2.487897 1_445
Fe0 Se2 2.487897 1_554
Fe0 Se1 2.566168 1_455
Fe0 Se1 2.566168 1_545
Fe0 Se0 2.566168 1_544
Fe0 Se0 2.566168 1_454
Fe0 Rh0 2.835174 1_554
Fe0 Rh1 2.835174 1_445
Rh0 Se3 2.484155 1_455
Rh0 Se3 2.484155 1_545
Rh0 Se2 2.523480 1_555
Rh0 Se0 2.572559 1_555
Rh0 Se1 2.601268 1_546
Rh0 Se1 2.601268 1_456
Rh1 Se2 2.484155 1_565
Rh1 Se2 2.484155 1_655
Rh1 Se3 2.523480 1_555
Rh1 Se1 2.572559 1_555
Rh1 Se0 2.601268 1_564
Rh1 Se0 2.601268 1_654
