# generated using pymatgen
data_MgGa
_symmetry_space_group_name_H-M   'P 1'
_cell_length_a   9.61453029
_cell_length_b   9.61453029
_cell_length_c   9.61453048
_cell_angle_alpha   38.25885418
_cell_angle_beta   38.25885418
_cell_angle_gamma   38.25884506
_symmetry_Int_Tables_number   1
_chemical_formula_structural   MgGa
_chemical_formula_sum   'Mg8 Ga8'
_cell_volume   306.04086501
_cell_formula_units_Z   8
loop_
 _symmetry_equiv_pos_site_id
 _symmetry_equiv_pos_as_xyz
  1  'x, y, z'
loop_
 _atom_site_type_symbol
 _atom_site_label
 _atom_site_symmetry_multiplicity
 _atom_site_fract_x
 _atom_site_fract_y
 _atom_site_fract_z
 _atom_site_occupancy
  Mg  Mg0_0  1  0.25000000  0.25000000  0.25000000  1
  Mg  Mg0_1  1  0.25000000  0.25000000  0.75000000  1
  Mg  Mg0_2  1  0.25000000  0.75000000  0.25000000  1
  Mg  Mg0_3  1  0.25000000  0.75000000  0.75000000  1
  Mg  Mg0_4  1  0.75000000  0.25000000  0.25000000  1
  Mg  Mg0_5  1  0.75000000  0.25000000  0.75000000  1
  Mg  Mg0_6  1  0.75000000  0.75000000  0.25000000  1
  Mg  Mg0_7  1  0.75000000  0.75000000  0.75000000  1
  Ga  Ga0_0  1  0.00000000  0.00000000  0.00000000  1
  Ga  Ga0_1  1  0.00000000  0.00000000  0.50000000  1
  Ga  Ga0_2  1  0.00000000  0.50000000  0.00000000  1
  Ga  Ga0_3  1  1.00000000  0.50000000  0.50000000  1
  Ga  Ga0_4  1  0.50000000  0.00000000  0.00000000  1
  Ga  Ga0_5  1  0.50000000  1.00000000  0.50000000  1
  Ga  Ga0_6  1  0.50000000  0.50000000  0.00000000  1
  Ga  Ga0_7  1  0.50000000  0.50000000  0.50000000  1
loop_
_geom_bond_atom_site_label_1
_geom_bond_atom_site_label_2
_geom_bond_distance
_geom_bond_site_symmetry_2
Mg0_0 Mg0_6 3.150711 1_455
Mg0_0 Mg0_6 3.150711 1_545
Mg0_0 Mg0_5 3.150712 1_554
Mg0_0 Mg0_3 3.150712 1_554
Mg0_0 Mg0_3 3.150712 1_545
Mg0_0 Mg0_5 3.150712 1_455
Mg0_1 Mg0_7 3.150711 1_455
Mg0_1 Mg0_7 3.150711 1_545
Mg0_1 Mg0_2 3.150712 1_555
Mg0_1 Mg0_4 3.150712 1_555
Mg0_1 Mg0_4 3.150712 1_456
Mg0_1 Mg0_2 3.150712 1_546
Mg0_2 Mg0_4 3.150711 1_555
Mg0_2 Mg0_4 3.150711 1_465
Mg0_2 Mg0_7 3.150712 1_554
Mg0_2 Mg0_7 3.150712 1_455
Mg0_3 Mg0_5 3.150711 1_555
Mg0_3 Mg0_5 3.150711 1_465
Mg0_3 Mg0_6 3.150712 1_555
Mg0_3 Mg0_6 3.150712 1_456
Mg0_4 Mg0_7 3.150712 1_554
Mg0_4 Mg0_7 3.150712 1_545
Mg0_5 Mg0_6 3.150712 1_555
Mg0_5 Mg0_6 3.150712 1_546
Ga0_0 Mg0_2 2.873882 1_545
Ga0_0 Mg0_4 2.873882 1_455
Ga0_0 Mg0_5 2.873882 1_454
Ga0_0 Mg0_3 2.873882 1_544
Ga0_0 Mg0_1 2.873882 1_554
Ga0_0 Mg0_6 2.873882 1_445
Ga0_1 Mg0_3 2.873882 1_545
Ga0_1 Mg0_5 2.873882 1_455
Ga0_1 Mg0_2 2.873882 1_545
Ga0_1 Mg0_4 2.873882 1_455
Ga0_1 Mg0_0 2.873882 1_555
Ga0_1 Mg0_7 2.873882 1_445
Ga0_2 Mg0_6 2.873882 1_455
Ga0_2 Mg0_1 2.873882 1_554
Ga0_2 Mg0_0 2.873882 1_555
Ga0_2 Mg0_7 2.873882 1_454
Ga0_2 Mg0_3 2.873882 1_554
Ga0_2 Mg0_4 2.873882 1_455
Ga0_3 Mg0_0 2.873882 1_655
Ga0_3 Mg0_7 2.873882 1_555
Ga0_3 Mg0_1 2.873882 1_655
Ga0_3 Mg0_6 2.873882 1_555
Ga0_3 Mg0_2 2.873882 1_655
Ga0_3 Mg0_5 2.873882 1_555
Ga0_4 Mg0_6 2.873882 1_545
Ga0_4 Mg0_1 2.873882 1_554
Ga0_4 Mg0_0 2.873882 1_555
Ga0_4 Mg0_7 2.873882 1_544
Ga0_4 Mg0_5 2.873882 1_554
Ga0_4 Mg0_2 2.873882 1_545
Ga0_5 Mg0_0 2.873882 1_565
Ga0_5 Mg0_7 2.873882 1_555
Ga0_5 Mg0_1 2.873882 1_565
Ga0_5 Mg0_6 2.873882 1_555
Ga0_5 Mg0_4 2.873882 1_565
Ga0_5 Mg0_3 2.873882 1_555
Ga0_6 Mg0_2 2.873882 1_555
Ga0_6 Mg0_4 2.873882 1_555
Ga0_6 Mg0_3 2.873882 1_554
Ga0_6 Mg0_5 2.873882 1_554
Ga0_6 Mg0_0 2.873882 1_555
Ga0_6 Mg0_7 2.873882 1_554
Ga0_7 Mg0_3 2.873882 1_555
Ga0_7 Mg0_2 2.873882 1_555
Ga0_7 Mg0_5 2.873882 1_555
Ga0_7 Mg0_4 2.873882 1_555
Ga0_7 Mg0_1 2.873882 1_555
Ga0_7 Mg0_6 2.873882 1_555
