# generated using pymatgen
data_TaV(Cu3S4)2
_symmetry_space_group_name_H-M   'P 1'
_cell_length_a   7.76443800
_cell_length_b   7.76443800
_cell_length_c   5.49987100
_cell_angle_alpha   90.00000000
_cell_angle_beta   90.00000000
_cell_angle_gamma   90.00000000
_symmetry_Int_Tables_number   1
_chemical_formula_structural   TaV(Cu3S4)2
_chemical_formula_sum   'Ta1 V1 Cu6 S8'
_cell_volume   331.56795905
_cell_formula_units_Z   1
loop_
 _symmetry_equiv_pos_site_id
 _symmetry_equiv_pos_as_xyz
  1  'x, y, z'
loop_
 _atom_site_type_symbol
 _atom_site_label
 _atom_site_symmetry_multiplicity
 _atom_site_fract_x
 _atom_site_fract_y
 _atom_site_fract_z
 _atom_site_occupancy
  Ta  Ta0  1  0.00000000  0.00000000  0.00000000  1
  V  V0  1  0.50000000  0.50000000  0.00000000  1
  Cu  Cu0  1  0.25383200  0.74616800  0.00000000  1
  Cu  Cu1  1  0.74616800  0.25383200  0.00000000  1
  Cu  Cu2  1  0.25383200  0.25383200  0.00000000  1
  Cu  Cu3  1  0.74616800  0.74616800  0.00000000  1
  Cu  Cu4  1  0.00000000  0.00000000  0.50000000  1
  Cu  Cu5  1  0.50000000  0.50000000  0.50000000  1
  S  S0  1  0.50000000  0.26722500  0.76585800  1
  S  S1  1  0.00000000  0.75573700  0.75665000  1
  S  S2  1  0.50000000  0.73277500  0.76585800  1
  S  S3  1  0.00000000  0.24426300  0.75665000  1
  S  S4  1  0.75573700  0.00000000  0.24335000  1
  S  S5  1  0.26722500  0.50000000  0.23414200  1
  S  S6  1  0.24426300  0.00000000  0.24335000  1
  S  S7  1  0.73277500  0.50000000  0.23414200  1
loop_
_geom_bond_atom_site_label_1
_geom_bond_atom_site_label_2
_geom_bond_distance
_geom_bond_site_symmetry_2
Cu0 S5 2.307032 1_555
Cu0 S2 2.307032 1_554
Cu0 S6 2.383510 1_565
Cu0 S1 2.383510 1_554
Cu1 S7 2.307032 1_555
Cu1 S0 2.307032 1_554
Cu1 S3 2.383510 1_654
Cu1 S4 2.383510 1_555
Cu2 S0 2.307032 1_554
Cu2 S5 2.307032 1_555
Cu2 S6 2.383510 1_555
Cu2 S3 2.383510 1_554
Cu3 S7 2.307032 1_555
Cu3 S2 2.307032 1_554
Cu3 S4 2.383510 1_565
Cu3 S1 2.383510 1_654
Cu4 S1 2.364193 1_545
Cu4 S6 2.364193 1_555
Cu4 S4 2.364193 1_455
Cu4 S3 2.364193 1_555
Cu5 S7 2.324771 1_555
Cu5 S2 2.324771 1_555
Cu5 S5 2.324771 1_555
Cu5 S0 2.324771 1_555
S0 V0 2.219207 1_556
S1 Ta0 2.321262 1_566
S2 V0 2.219207 1_556
S3 Ta0 2.321262 1_556
S4 Ta0 2.321262 1_655
S5 V0 2.219207 1_555
S6 Ta0 2.321262 1_555
S7 V0 2.219207 1_555
