# generated using pymatgen
data_LiCrPO4
_symmetry_space_group_name_H-M   'P 1'
_cell_length_a   4.80284023
_cell_length_b   6.36322281
_cell_length_c   10.30200401
_cell_angle_alpha   89.99919341
_cell_angle_beta   89.99720063
_cell_angle_gamma   90.27865344
_symmetry_Int_Tables_number   1
_chemical_formula_structural   LiCrPO4
_chemical_formula_sum   'Li4 Cr4 P4 O16'
_cell_volume   314.84140910
_cell_formula_units_Z   4
loop_
 _symmetry_equiv_pos_site_id
 _symmetry_equiv_pos_as_xyz
  1  'x, y, z'
loop_
 _atom_site_type_symbol
 _atom_site_label
 _atom_site_symmetry_multiplicity
 _atom_site_fract_x
 _atom_site_fract_y
 _atom_site_fract_z
 _atom_site_occupancy
  Li  Li0  1  0.22359500  0.28206500  0.30822100  1
  Li  Li1  1  0.77613200  0.71795400  0.80821600  1
  Li  Li2  1  0.71206000  0.22421500  0.78209700  1
  Li  Li3  1  0.28785300  0.77553100  0.28208300  1
  Cr  Cr0  1  0.79706200  0.49236900  0.07938600  1
  Cr  Cr1  1  0.20273200  0.50741100  0.57940800  1
  Cr  Cr2  1  0.30427200  0.99555900  0.01332400  1
  Cr  Cr3  1  0.69598800  0.00432100  0.51325200  1
  P  P0  1  0.85365900  0.01717400  0.20547400  1
  P  P1  1  0.14637200  0.98285700  0.70553500  1
  P  P2  1  0.34332100  0.48191700  0.88979600  1
  P  P3  1  0.65669100  0.51799800  0.38977400  1
  O  O0  1  0.94915400  0.01952800  0.35036500  1
  O  O1  1  0.05114100  0.98141800  0.85040500  1
  O  O2  1  0.53376300  0.00579700  0.18994700  1
  O  O3  1  0.46641800  0.99397100  0.68995400  1
  O  O4  1  0.00030700  0.17328400  0.63795600  1
  O  O5  1  0.99987900  0.82670500  0.13812200  1
  O  O6  1  0.98437200  0.22062600  0.14558400  1
  O  O7  1  0.01553400  0.77941100  0.64566700  1
  O  O8  1  0.47181000  0.27497100  0.94384300  1
  O  O9  1  0.52814500  0.72497100  0.44379100  1
  O  O10  1  0.55442200  0.50312500  0.24607200  1
  O  O11  1  0.44537800  0.49676400  0.74606200  1
  O  O12  1  0.02306000  0.49070500  0.90169200  1
  O  O13  1  0.97697400  0.50931500  0.40166700  1
  O  O14  1  0.50980000  0.33368100  0.46512100  1
  O  O15  1  0.49010500  0.66635500  0.96502400  1
loop_
_geom_bond_atom_site_label_1
_geom_bond_atom_site_label_2
_geom_bond_distance
_geom_bond_site_symmetry_2
Li0 O6 2.067854 1_455
Li0 O13 2.106508 1_455
Li0 O14 2.146143 1_555
Li0 O0 2.166847 1_455
Li0 O10 2.211645 1_555
Li0 O2 2.611431 1_555
Li1 O7 2.067519 1_655
Li1 O12 2.107514 1_655
Li1 O15 2.144758 1_555
Li1 O1 2.173156 1_655
Li1 O11 2.211989 1_555
Li1 O3 2.609088 1_555
Li2 O8 2.053239 1_555
Li2 O4 2.056899 1_655
Li2 O3 2.103047 1_545
Li2 O11 2.192656 1_555
Li2 O1 2.357728 1_645
Li2 O12 2.569086 1_655
Li3 O9 2.052920 1_555
Li3 O5 2.055017 1_455
Li3 O2 2.103759 1_565
Li3 O10 2.191559 1_555
Li3 O0 2.361380 1_465
Li3 O13 2.567457 1_455
Cr0 O6 2.068709 1_555
Cr0 O10 2.076562 1_555
Cr0 O12 2.128217 1_654
Cr0 O15 2.191625 1_554
Cr0 O5 2.412677 1_555
Cr0 O8 2.506592 1_554
Cr1 O7 2.070038 1_555
Cr1 O11 2.076374 1_555
Cr1 O13 2.128148 1_455
Cr1 O14 2.190681 1_555
Cr1 O4 2.410231 1_555
Cr1 O9 2.507956 1_555
Cr2 O1 2.074194 1_554
Cr2 O8 2.075325 1_564
Cr2 O2 2.128250 1_565
Cr2 O5 2.220180 1_455
Cr2 O15 2.334641 1_554
Cr2 O6 2.507877 1_465
Cr3 O0 2.074213 1_555
Cr3 O9 2.075523 1_545
Cr3 O3 2.129068 1_545
Cr3 O4 2.219820 1_655
Cr3 O14 2.335829 1_555
Cr3 O7 2.507186 1_645
O0 P0 1.561614 1_555
O1 P1 1.560956 1_555
O2 P0 1.546067 1_555
O3 P1 1.546756 1_555
O4 P1 1.566338 1_545
O5 P0 1.565828 1_565
O6 P0 1.562961 1_555
O7 P1 1.563118 1_555
O8 P2 1.559756 1_555
O9 P3 1.559892 1_555
O10 P3 1.562523 1_555
O11 P2 1.562458 1_555
O12 P2 1.544315 1_555
O13 P3 1.544402 1_555
O14 P3 1.570891 1_555
O15 P2 1.570680 1_555
