# generated using pymatgen
data_SiC
_symmetry_space_group_name_H-M   'P 1'
_cell_length_a   12.70859458
_cell_length_b   12.70859458
_cell_length_c   12.70859462
_cell_angle_alpha   13.90390777
_cell_angle_beta   13.90390777
_cell_angle_gamma   13.90390438
_symmetry_Int_Tables_number   1
_chemical_formula_structural   SiC
_chemical_formula_sum   'Si5 C5'
_cell_volume   103.14205479
_cell_formula_units_Z   5
loop_
 _symmetry_equiv_pos_site_id
 _symmetry_equiv_pos_as_xyz
  1  'x, y, z'
loop_
 _atom_site_type_symbol
 _atom_site_label
 _atom_site_symmetry_multiplicity
 _atom_site_fract_x
 _atom_site_fract_y
 _atom_site_fract_z
 _atom_site_occupancy
  Si  Si0  1  0.91665089  0.91665089  0.91665089  1
  Si  Si1  1  0.65000395  0.65000395  0.65000395  1
  Si  Si2  1  0.45003967  0.45003967  0.45003967  1
  Si  Si3  1  0.18340235  0.18340235  0.18340235  1
  Si  Si4  1  0.05003657  0.05003657  0.05003657  1
  C  C0  1  0.86664990  0.86664990  0.86664990  1
  C  C1  1  0.59985551  0.59985551  0.59985551  1
  C  C2  1  0.39989731  0.39989731  0.39989731  1
  C  C3  1  0.13340954  0.13340954  0.13340954  1
  C  C4  1  0.00005432  0.00005432  0.00005432  1
loop_
_geom_bond_atom_site_label_1
_geom_bond_atom_site_label_2
_geom_bond_distance
_geom_bond_site_symmetry_2
C0 Si3 1.883243 1_656
C0 Si3 1.883243 1_566
C0 Si3 1.883244 1_665
C0 Si0 1.887617 1_555
C1 Si0 1.882705 1_455
C1 Si0 1.882705 1_545
C1 Si0 1.882706 1_554
C1 Si1 1.893183 1_555
C2 Si4 1.882573 1_565
C2 Si4 1.882573 1_655
C2 Si4 1.882574 1_556
C2 Si2 1.892954 1_555
C3 Si2 1.884783 1_545
C3 Si2 1.884783 1_455
C3 Si2 1.884783 1_554
C3 Si3 1.887308 1_555
C4 Si1 1.884958 1_544
C4 Si1 1.884958 1_454
C4 Si1 1.884958 1_445
C4 Si4 1.886909 1_555
