# generated using pymatgen
data_CeIn3(CuSe2)4
_symmetry_space_group_name_H-M   'P 1'
_cell_length_a   5.90953400
_cell_length_b   5.90953400
_cell_length_c   12.00382600
_cell_angle_alpha   90.00000000
_cell_angle_beta   90.00000000
_cell_angle_gamma   90.00000000
_symmetry_Int_Tables_number   1
_chemical_formula_structural   CeIn3(CuSe2)4
_chemical_formula_sum   'Ce1 In3 Cu4 Se8'
_cell_volume   419.20471900
_cell_formula_units_Z   1
loop_
 _symmetry_equiv_pos_site_id
 _symmetry_equiv_pos_as_xyz
  1  'x, y, z'
loop_
 _atom_site_type_symbol
 _atom_site_label
 _atom_site_symmetry_multiplicity
 _atom_site_fract_x
 _atom_site_fract_y
 _atom_site_fract_z
 _atom_site_occupancy
  Ce  Ce0  1  0.00000000  0.00000000  0.50000000  1
  In  In0  1  0.50000000  0.00000000  0.24351800  1
  In  In1  1  0.00000000  0.50000000  0.75648200  1
  In  In2  1  0.50000000  0.50000000  0.00000000  1
  Cu  Cu0  1  0.00000000  0.50000000  0.24708300  1
  Cu  Cu1  1  0.50000000  0.00000000  0.75291700  1
  Cu  Cu2  1  0.00000000  0.00000000  0.00000000  1
  Cu  Cu3  1  0.50000000  0.50000000  0.50000000  1
  Se  Se0  1  0.73450900  0.29243300  0.36523400  1
  Se  Se1  1  0.24939100  0.78344500  0.87780200  1
  Se  Se2  1  0.26549100  0.70756700  0.36523400  1
  Se  Se3  1  0.75060900  0.21655500  0.87780200  1
  Se  Se4  1  0.21655500  0.24939100  0.12219800  1
  Se  Se5  1  0.70756700  0.73450900  0.63476600  1
  Se  Se6  1  0.78344500  0.75060900  0.12219800  1
  Se  Se7  1  0.29243300  0.26549100  0.63476600  1
loop_
_geom_bond_atom_site_label_1
_geom_bond_atom_site_label_2
_geom_bond_distance
_geom_bond_site_symmetry_2
Ce0 Se7 2.839893 1_555
Ce0 Se5 2.839893 1_445
Ce0 Se2 2.839893 1_545
Ce0 Se0 2.839893 1_455
In0 Se0 2.653623 1_555
In0 Se2 2.653623 1_545
In0 Se4 2.664316 1_555
In0 Se6 2.664316 1_545
In1 Se5 2.653623 1_455
In1 Se7 2.653623 1_555
In1 Se1 2.664316 1_555
In1 Se3 2.664316 1_455
In2 Se6 2.674071 1_555
In2 Se4 2.674071 1_555
In2 Se1 2.674071 1_554
In2 Se3 2.674071 1_554
Cu0 Se2 2.444916 1_555
Cu0 Se0 2.444916 1_455
Cu0 Se4 2.465428 1_555
Cu0 Se6 2.465428 1_455
Cu1 Se5 2.444916 1_545
Cu1 Se7 2.444916 1_555
Cu1 Se3 2.465428 1_555
Cu1 Se1 2.465428 1_545
Cu2 Se4 2.441598 1_555
Cu2 Se3 2.441598 1_454
Cu2 Se1 2.441598 1_544
Cu2 Se6 2.441598 1_445
Cu3 Se5 2.458075 1_555
Cu3 Se7 2.458075 1_555
Cu3 Se0 2.458075 1_555
Cu3 Se2 2.458075 1_555
