# generated using pymatgen
data_Mg5Si9
_symmetry_space_group_name_H-M   'P 1'
_cell_length_a   6.74798100
_cell_length_b   7.18423171
_cell_length_c   12.34813095
_cell_angle_alpha   87.71478912
_cell_angle_beta   100.13013069
_cell_angle_gamma   114.94724394
_symmetry_Int_Tables_number   1
_chemical_formula_structural   Mg5Si9
_chemical_formula_sum   'Mg10 Si18'
_cell_volume   533.91561216
_cell_formula_units_Z   2
loop_
 _symmetry_equiv_pos_site_id
 _symmetry_equiv_pos_as_xyz
  1  'x, y, z'
loop_
 _atom_site_type_symbol
 _atom_site_label
 _atom_site_symmetry_multiplicity
 _atom_site_fract_x
 _atom_site_fract_y
 _atom_site_fract_z
 _atom_site_occupancy
  Mg  Mg0  1  0.47763700  0.99085800  0.27670300  1
  Mg  Mg1  1  0.23837800  0.05442800  0.56741800  1
  Mg  Mg2  1  0.51524800  0.69547400  0.47133000  1
  Mg  Mg3  1  0.64136400  0.42832200  0.66594300  1
  Mg  Mg4  1  0.96087800  0.63078200  0.47263300  1
  Mg  Mg5  1  0.77717500  0.15701600  0.51875500  1
  Mg  Mg6  1  0.46636600  0.11952900  0.87955500  1
  Mg  Mg7  1  0.83079200  0.20260500  0.10763600  1
  Mg  Mg8  1  0.61299900  0.71802300  0.86622400  1
  Mg  Mg9  1  0.45530700  0.40919700  0.05664400  1
  Si  Si0  1  0.93024100  0.24199200  0.84362000  1
  Si  Si1  1  0.14462100  0.65730600  0.09936200  1
  Si  Si2  1  0.86164300  0.84319500  0.66895700  1
  Si  Si3  1  0.17143800  0.22090500  0.30001000  1
  Si  Si4  1  0.25702200  0.38041100  0.75704800  1
  Si  Si5  1  0.74041200  0.75970000  0.20581300  1
  Si  Si6  1  0.23864500  0.71006700  0.70039700  1
  Si  Si7  1  0.73159000  0.42412000  0.25368000  1
  Si  Si8  1  0.04619300  0.78360900  0.84241900  1
  Si  Si9  1  0.88372000  0.95156200  0.37855100  1
  Si  Si10  1  0.08322600  0.95749500  0.14775800  1
  Si  Si11  1  0.09826300  0.06481400  0.96500200  1
  Si  Si12  1  0.61146200  0.00893300  0.70557000  1
  Si  Si13  1  0.13286500  0.53803000  0.28178500  1
  Si  Si14  1  0.50029600  0.81039800  0.05191400  1
  Si  Si15  1  0.85770000  0.48599400  0.94385300  1
  Si  Si16  1  0.53387500  0.33811400  0.40843100  1
  Si  Si17  1  0.20070500  0.41689100  0.56316800  1
loop_
_geom_bond_atom_site_label_1
_geom_bond_atom_site_label_2
_geom_bond_distance
_geom_bond_site_symmetry_2
Mg0 Si10 2.770871 1_555
Mg0 Si7 2.882234 1_565
Mg0 Si16 2.884704 1_565
Mg0 Si9 2.929549 1_555
Mg0 Si13 3.106518 1_555
Mg0 Si1 3.119677 1_555
Mg0 Si5 3.132798 1_555
Mg0 Si14 3.164230 1_555
Mg0 Mg2 3.190073 1_555
Mg0 Si3 3.195521 1_565
Mg0 Mg5 3.250840 1_565
Mg0 Mg7 3.284853 1_565
Mg1 Si17 2.718663 1_555
Mg1 Si2 2.837762 1_445
Mg1 Si9 2.897370 1_445
Mg1 Si12 2.914451 1_555
Mg1 Si6 2.914719 1_545
Mg1 Si16 3.100593 1_555
Mg2 Si17 2.622780 1_555
Mg2 Si16 2.770549 1_555
Mg2 Si9 2.802636 1_555
Mg2 Si2 2.941527 1_555
Mg2 Si13 3.006681 1_555
Mg3 Si2 2.710457 1_555
Mg3 Si4 2.890133 1_555
Mg3 Si12 2.960161 1_555
Mg3 Si17 2.989014 1_555
Mg3 Si16 3.164438 1_555
Mg4 Si9 2.741827 1_555
Mg4 Si17 2.748543 1_655
Mg4 Si16 2.751472 1_555
Mg4 Si7 2.969652 1_555
Mg4 Si13 3.014011 1_655
Mg4 Si6 3.019996 1_655
Mg4 Si2 3.222137 1_555
Mg5 Si17 2.642656 1_655
Mg5 Si16 2.667924 1_555
Mg5 Si9 2.688803 1_545
Mg5 Si12 2.722460 1_555
Mg5 Si2 3.037532 1_545
Mg6 Si11 2.739158 1_555
Mg6 Si12 2.781700 1_555
Mg6 Si8 2.816417 1_545
Mg6 Si15 2.845976 1_555
Mg6 Si0 2.983878 1_555
Mg6 Si4 3.008711 1_555
Mg6 Si14 3.065122 1_546
Mg7 Si14 2.774969 1_545
Mg7 Si15 2.785160 1_554
Mg7 Si7 2.790170 1_555
Mg7 Si10 2.900324 1_645
Mg7 Si3 2.965326 1_655
Mg7 Si13 3.051880 1_655
Mg7 Si1 3.062698 1_655
Mg7 Si11 3.178694 1_654
Mg7 Si5 3.206518 1_545
Mg8 Si14 2.727057 1_556
Mg8 Si4 2.770799 1_555
Mg8 Si8 2.825376 1_655
Mg8 Si12 2.825569 1_565
Mg8 Si15 2.839348 1_555
Mg8 Si6 2.940316 1_555
Mg8 Si2 3.089911 1_555
Mg8 Si11 3.220700 1_665
Mg9 Si11 2.728079 1_554
Mg9 Si14 2.767312 1_555
Mg9 Si7 2.768300 1_555
Mg9 Si5 2.910598 1_555
Mg9 Si15 3.102019 1_554
Si0 Si11 2.370610 1_655
Si0 Si4 2.426688 1_655
Si0 Si15 2.440161 1_555
Si0 Si12 2.497203 1_555
Si1 Si14 2.351561 1_555
Si1 Si13 2.380398 1_555
Si1 Si15 2.412720 1_454
Si1 Si10 2.474547 1_555
Si2 Si8 2.400055 1_655
Si3 Si9 2.407883 1_445
Si4 Si6 2.489739 1_555
Si5 Si9 2.401915 1_555
Si5 Si7 2.437814 1_555
Si6 Si8 2.548528 1_555
Si10 Si11 2.360766 1_564
Si10 Si5 2.369315 1_455
Si10 Si3 2.531763 1_565
Si11 Si8 2.440084 1_545
Si12 Si6 2.518140 1_545
Si12 Si2 2.545459 1_545
Si13 Si3 2.397457 1_555
Si13 Si7 2.438256 1_455
Si14 Si5 2.393512 1_555
Si15 Si8 2.410594 1_655
Si16 Si3 2.384073 1_555
Si16 Si7 2.433217 1_555
Si17 Si4 2.378770 1_555
Si17 Si6 2.655249 1_555
