# generated using pymatgen
data_KSmTiO4
_symmetry_space_group_name_H-M   'P 1'
_cell_length_a   5.42156100
_cell_length_b   5.50518200
_cell_length_c   13.23762200
_cell_angle_alpha   90.00000000
_cell_angle_beta   90.00000000
_cell_angle_gamma   90.00000000
_symmetry_Int_Tables_number   1
_chemical_formula_structural   KSmTiO4
_chemical_formula_sum   'K4 Sm4 Ti4 O16'
_cell_volume   395.09906818
_cell_formula_units_Z   4
loop_
 _symmetry_equiv_pos_site_id
 _symmetry_equiv_pos_as_xyz
  1  'x, y, z'
loop_
 _atom_site_type_symbol
 _atom_site_label
 _atom_site_symmetry_multiplicity
 _atom_site_fract_x
 _atom_site_fract_y
 _atom_site_fract_z
 _atom_site_occupancy
  K  K0  1  0.25000000  0.48366100  0.59333000  1
  K  K1  1  0.75000000  0.51633900  0.40667000  1
  K  K2  1  0.25000000  0.98366100  0.40667000  1
  K  K3  1  0.75000000  0.01633900  0.59333000  1
  Sm  Sm0  1  0.25000000  0.97780900  0.10344500  1
  Sm  Sm1  1  0.75000000  0.02219100  0.89655500  1
  Sm  Sm2  1  0.25000000  0.47780900  0.89655500  1
  Sm  Sm3  1  0.75000000  0.52219100  0.10344500  1
  Ti  Ti0  1  0.25000000  0.49399600  0.25154000  1
  Ti  Ti1  1  0.75000000  0.50600400  0.74846000  1
  Ti  Ti2  1  0.25000000  0.99399600  0.74846000  1
  Ti  Ti3  1  0.75000000  0.00600400  0.25154000  1
  O  O0  1  0.25000000  0.56064100  0.06401100  1
  O  O1  1  0.75000000  0.43935900  0.93598900  1
  O  O2  1  0.25000000  0.06064100  0.93598900  1
  O  O3  1  0.75000000  0.93935900  0.06401100  1
  O  O4  1  0.25000000  0.97240300  0.61586200  1
  O  O5  1  0.75000000  0.02759700  0.38413800  1
  O  O6  1  0.25000000  0.47240300  0.38413800  1
  O  O7  1  0.75000000  0.52759700  0.61586200  1
  O  O8  1  0.00000000  0.75000000  0.23064300  1
  O  O9  1  0.00000000  0.25000000  0.76935700  1
  O  O10  1  0.50000000  0.25000000  0.76935700  1
  O  O11  1  0.50000000  0.75000000  0.23064300  1
  O  O12  1  0.00000000  0.75000000  0.79026900  1
  O  O13  1  0.00000000  0.25000000  0.20973100  1
  O  O14  1  0.50000000  0.25000000  0.20973100  1
  O  O15  1  0.50000000  0.75000000  0.79026900  1
loop_
_geom_bond_atom_site_label_1
_geom_bond_atom_site_label_2
_geom_bond_distance
_geom_bond_site_symmetry_2
K0 O4 2.707096 1_555
K0 O7 2.737846 1_455
K0 O7 2.737846 1_555
K0 O6 2.769898 1_555
K0 O4 2.830329 1_545
K0 O9 2.986889 1_555
K0 O10 2.986889 1_555
K1 O5 2.707096 1_555
K1 O6 2.737846 1_655
K1 O6 2.737846 1_555
K1 O7 2.769898 1_555
K1 O5 2.830329 1_565
K1 O8 2.986889 1_655
K1 O11 2.986889 1_555
K2 O6 2.707096 1_565
K2 O5 2.737846 1_565
K2 O5 2.737846 1_465
K2 O4 2.769898 1_555
K2 O6 2.830329 1_555
K2 O8 2.986889 1_555
K2 O11 2.986889 1_555
K3 O7 2.707096 1_545
K3 O4 2.737846 1_545
K3 O4 2.737846 1_645
K3 O5 2.769898 1_555
K3 O7 2.830329 1_555
K3 O10 2.986889 1_555
K3 O9 2.986889 1_655
O0 Sm2 2.263136 1_554
O0 Sm0 2.355165 1_555
O0 Ti0 2.509404 1_555
O0 Sm3 2.768688 1_455
O0 Sm3 2.768688 1_555
O1 Sm3 2.263136 1_556
O1 Sm1 2.355165 1_555
O1 Ti1 2.509404 1_555
O1 Sm2 2.768688 1_555
O1 Sm2 2.768688 1_655
O2 Sm0 2.263136 1_546
O2 Sm2 2.355165 1_555
O2 Ti2 2.509404 1_545
O2 Sm1 2.768688 1_455
O2 Sm1 2.768688 1_555
O3 Sm1 2.263136 1_564
O3 Sm3 2.355165 1_555
O3 Ti3 2.509404 1_565
O3 Sm0 2.768688 1_655
O3 Sm0 2.768688 1_555
O4 Ti2 1.759303 1_555
O5 Ti3 1.759303 1_555
O6 Ti0 1.759303 1_555
O7 Ti1 1.759303 1_555
O8 Ti3 1.974808 1_465
O8 Ti0 1.974808 1_555
O8 Sm0 2.499021 1_555
O8 Sm3 2.499021 1_455
O9 Ti2 1.974808 1_545
O9 Ti1 1.974808 1_455
O9 Sm2 2.499021 1_555
O9 Sm1 2.499021 1_455
O10 Ti2 1.974808 1_545
O10 Ti1 1.974808 1_555
O10 Sm1 2.499021 1_555
O10 Sm2 2.499021 1_555
O11 Ti3 1.974808 1_565
O11 Ti0 1.974808 1_555
O11 Sm0 2.499021 1_555
O11 Sm3 2.499021 1_555
O12 Ti2 1.986880 1_555
O12 Ti1 1.986880 1_455
O12 Sm2 2.462122 1_555
O12 Sm1 2.462122 1_465
O13 Ti3 1.986880 1_455
O13 Ti0 1.986880 1_555
O13 Sm3 2.462122 1_455
O13 Sm0 2.462122 1_545
O14 Ti0 1.986880 1_555
O14 Ti3 1.986880 1_555
O14 Sm3 2.462122 1_555
O14 Sm0 2.462122 1_545
O15 Ti2 1.986880 1_555
O15 Ti1 1.986880 1_555
O15 Sm1 2.462122 1_565
O15 Sm2 2.462122 1_555
