# generated using pymatgen
data_Hf9NiW4
_symmetry_space_group_name_H-M   'P 1'
_cell_length_a   8.72175400
_cell_length_b   8.72175354
_cell_length_c   8.48196500
_cell_angle_alpha   90.00000000
_cell_angle_beta   90.00000000
_cell_angle_gamma   120.00000174
_symmetry_Int_Tables_number   1
_chemical_formula_structural   Hf9NiW4
_chemical_formula_sum   'Hf18 Ni2 W8'
_cell_volume   558.77213887
_cell_formula_units_Z   2
loop_
 _symmetry_equiv_pos_site_id
 _symmetry_equiv_pos_as_xyz
  1  'x, y, z'
loop_
 _atom_site_type_symbol
 _atom_site_label
 _atom_site_symmetry_multiplicity
 _atom_site_fract_x
 _atom_site_fract_y
 _atom_site_fract_z
 _atom_site_occupancy
  Hf  Hf0  1  0.19928400  0.80071600  0.44127800  1
  Hf  Hf1  1  0.19928400  0.39856900  0.44127800  1
  Hf  Hf2  1  0.60143100  0.80071600  0.44127800  1
  Hf  Hf3  1  0.80071600  0.19928400  0.55872200  1
  Hf  Hf4  1  0.80071600  0.60143100  0.55872200  1
  Hf  Hf5  1  0.39856900  0.19928400  0.55872200  1
  Hf  Hf6  1  0.80071600  0.19928400  0.94127800  1
  Hf  Hf7  1  0.80071600  0.60143100  0.94127800  1
  Hf  Hf8  1  0.39856900  0.19928400  0.94127800  1
  Hf  Hf9  1  0.19928400  0.80071600  0.05872200  1
  Hf  Hf10  1  0.19928400  0.39856900  0.05872200  1
  Hf  Hf11  1  0.60143100  0.80071600  0.05872200  1
  Hf  Hf12  1  0.54110400  0.45889600  0.25000000  1
  Hf  Hf13  1  0.54110400  0.08220700  0.25000000  1
  Hf  Hf14  1  0.91779300  0.45889600  0.25000000  1
  Hf  Hf15  1  0.45889600  0.54110400  0.75000000  1
  Hf  Hf16  1  0.45889600  0.91779300  0.75000000  1
  Hf  Hf17  1  0.08220700  0.54110400  0.75000000  1
  Ni  Ni0  1  0.33333300  0.66666700  0.25000000  1
  Ni  Ni1  1  0.66666700  0.33333300  0.75000000  1
  W  W0  1  0.88826800  0.11173200  0.25000000  1
  W  W1  1  0.88826800  0.77653600  0.25000000  1
  W  W2  1  0.22346400  0.11173200  0.25000000  1
  W  W3  1  0.11173200  0.88826800  0.75000000  1
  W  W4  1  0.11173200  0.22346400  0.75000000  1
  W  W5  1  0.77653600  0.88826800  0.75000000  1
  W  W6  1  0.00000000  0.00000000  0.50000000  1
  W  W7  1  0.00000000  0.00000000  0.00000000  1
loop_
_geom_bond_atom_site_label_1
_geom_bond_atom_site_label_2
_geom_bond_distance
_geom_bond_site_symmetry_2
Hf0 Ni0 2.594785 1_555
Hf0 W3 2.933631 1_555
Hf0 W6 3.051413 1_565
Hf0 W2 3.076176 1_565
Hf0 W1 3.076176 1_455
Hf0 Hf5 3.171019 1_565
Hf0 Hf4 3.171019 1_455
Hf0 Hf14 3.198185 1_455
Hf0 Hf13 3.198185 1_565
Hf0 Hf9 3.244827 1_555
Hf0 Hf17 3.273290 1_555
Hf0 Hf16 3.273290 1_555
Hf0 Hf1 3.507427 1_555
Hf0 Hf2 3.507427 1_555
Hf1 Ni0 2.594784 1_555
Hf1 W4 2.933634 1_555
Hf1 W6 3.051420 1_555
Hf1 W0 3.076179 1_455
Hf1 W2 3.076183 1_555
Hf1 Hf3 3.171019 1_455
Hf1 Hf5 3.171034 1_555
Hf1 Hf14 3.198175 1_455
Hf1 Hf12 3.198190 1_555
Hf1 Hf10 3.244827 1_555
Hf1 Hf15 3.273290 1_555
Hf1 Hf17 3.273290 1_555
Hf1 Hf2 3.507427 1_555
Hf2 Ni0 2.594785 1_555
Hf2 W5 2.933635 1_555
Hf2 W6 3.051420 1_665
Hf2 W0 3.076179 1_565
Hf2 W1 3.076184 1_555
Hf2 Hf3 3.171019 1_565
Hf2 Hf4 3.171034 1_555
Hf3 Ni1 2.594785 1_555
Hf3 W0 2.933631 1_555
Hf3 W6 3.051413 1_655
Hf3 W5 3.076176 1_545
Hf3 W4 3.076176 1_655
Hf3 Hf6 3.244827 1_555
Hf3 Hf4 3.507427 1_555
Hf3 Hf5 3.507427 1_555
Hf4 Ni1 2.594784 1_555
Hf4 W1 2.933634 1_555
Hf4 W6 3.051420 1_665
Hf4 W3 3.076179 1_655
Hf4 W5 3.076183 1_555
Hf4 Hf7 3.244827 1_555
Hf4 Hf5 3.507427 1_555
Hf5 Ni1 2.594785 1_555
Hf5 W2 2.933635 1_555
Hf5 W6 3.051420 1_555
Hf5 W3 3.076179 1_545
Hf5 W4 3.076184 1_555
Hf5 Hf8 3.244827 1_555
Hf6 Ni1 2.594785 1_555
Hf6 W0 2.933631 1_556
Hf6 W7 3.051413 1_656
Hf6 W5 3.076176 1_545
Hf6 W4 3.076176 1_655
Hf6 Hf7 3.507427 1_555
Hf6 Hf8 3.507427 1_555
Hf7 Ni1 2.594784 1_555
Hf7 W1 2.933634 1_556
Hf7 W7 3.051420 1_666
Hf7 W3 3.076179 1_655
Hf7 W5 3.076183 1_555
Hf7 Hf9 3.171019 1_656
Hf7 Hf8 3.507427 1_555
Hf8 Ni1 2.594785 1_555
Hf8 W2 2.933635 1_556
Hf8 W7 3.051420 1_556
Hf8 W3 3.076179 1_545
Hf8 W4 3.076184 1_555
Hf8 Hf9 3.171019 1_546
Hf9 Ni0 2.594785 1_555
Hf9 W3 2.933631 1_554
Hf9 W7 3.051413 1_565
Hf9 W2 3.076176 1_565
Hf9 W1 3.076176 1_455
Hf10 Ni0 2.594784 1_555
Hf10 W4 2.933634 1_554
Hf10 W7 3.051420 1_555
Hf10 W0 3.076179 1_455
Hf10 W2 3.076183 1_555
Hf10 Hf6 3.171019 1_454
Hf10 Hf8 3.171034 1_554
Hf10 Hf14 3.198175 1_455
Hf10 Hf12 3.198190 1_555
Hf10 Hf15 3.273290 1_554
Hf10 Hf17 3.273290 1_554
Hf10 Hf11 3.507427 1_555
Hf10 Hf9 3.507427 1_555
Hf11 Ni0 2.594785 1_555
Hf11 W5 2.933635 1_554
Hf11 W7 3.051420 1_665
Hf11 W0 3.076179 1_565
Hf11 W1 3.076184 1_555
Hf11 Hf6 3.171019 1_564
Hf11 Hf7 3.171034 1_554
Hf11 Hf13 3.198175 1_565
Hf11 Hf12 3.198190 1_555
Hf11 Hf2 3.244827 1_555
Hf11 Hf15 3.273290 1_554
Hf11 Hf16 3.273290 1_554
Hf11 Hf9 3.507427 1_555
Hf12 W2 2.907692 1_555
Hf12 W1 2.907692 1_555
Hf12 Ni0 3.138697 1_555
Hf12 Hf2 3.198190 1_555
Hf12 Hf5 3.273290 1_555
Hf12 Hf8 3.273290 1_554
Hf12 Hf4 3.273290 1_555
Hf12 Hf7 3.273290 1_554
Hf12 Hf13 3.285389 1_555
Hf12 Hf14 3.285389 1_555
Hf13 W0 2.907689 1_555
Hf13 W2 2.907697 1_555
Hf13 Ni0 3.138682 1_545
Hf13 Hf2 3.198175 1_545
Hf13 Hf9 3.198185 1_545
Hf13 Hf5 3.273290 1_555
Hf13 Hf3 3.273290 1_555
Hf13 Hf6 3.273290 1_554
Hf13 Hf8 3.273290 1_554
Hf13 Hf14 3.285389 1_555
Hf14 W0 2.907689 1_555
Hf14 W1 2.907697 1_555
Hf14 Ni0 3.138682 1_655
Hf14 Hf9 3.198185 1_655
Hf14 Hf3 3.273290 1_555
Hf14 Hf6 3.273290 1_554
Hf14 Hf4 3.273290 1_555
Hf14 Hf7 3.273290 1_554
Hf15 W5 2.907692 1_555
Hf15 W4 2.907692 1_555
Hf15 Ni1 3.138697 1_555
Hf15 Hf8 3.198190 1_555
Hf15 Hf5 3.198190 1_555
Hf15 Hf7 3.198190 1_555
Hf15 Hf4 3.198190 1_555
Hf15 Hf2 3.273290 1_555
Hf15 Hf16 3.285389 1_555
Hf15 Hf17 3.285389 1_555
Hf16 W3 2.907689 1_555
Hf16 W5 2.907697 1_555
Hf16 Ni1 3.138682 1_565
Hf16 Hf8 3.198175 1_565
Hf16 Hf5 3.198175 1_565
Hf16 Hf6 3.198185 1_565
Hf16 Hf3 3.198185 1_565
Hf16 Hf9 3.273290 1_556
Hf16 Hf2 3.273290 1_555
Hf16 Hf17 3.285389 1_555
Hf17 W3 2.907689 1_555
Hf17 W4 2.907697 1_555
Hf17 Ni1 3.138682 1_455
Hf17 Hf7 3.198175 1_455
Hf17 Hf4 3.198175 1_455
Hf17 Hf6 3.198185 1_455
Hf17 Hf3 3.198185 1_455
Hf17 Hf9 3.273290 1_556
W0 W7 2.710245 1_655
W0 W6 2.710245 1_655
W0 W1 2.923497 1_545
W0 W2 2.923497 1_655
W1 W7 2.710245 1_665
W1 W6 2.710245 1_665
W1 W2 2.923497 1_665
W2 W6 2.710245 1_555
W2 W7 2.710245 1_555
W3 W6 2.710245 1_565
W3 W7 2.710245 1_566
W3 W4 2.923497 1_565
W3 W5 2.923497 1_455
W4 W6 2.710245 1_555
W4 W7 2.710245 1_556
W4 W5 2.923497 1_445
W5 W7 2.710245 1_666
W5 W6 2.710245 1_665
