# generated using pymatgen
data_Ba2SbN3
_symmetry_space_group_name_H-M   'P 1'
_cell_length_a   6.85177650
_cell_length_b   12.22632282
_cell_length_c   13.22388924
_cell_angle_alpha   89.99999907
_cell_angle_beta   90.01445208
_cell_angle_gamma   153.15112188
_symmetry_Int_Tables_number   1
_chemical_formula_structural   Ba2SbN3
_chemical_formula_sum   'Ba8 Sb4 N12'
_cell_volume   500.32183132
_cell_formula_units_Z   4
loop_
 _symmetry_equiv_pos_site_id
 _symmetry_equiv_pos_as_xyz
  1  'x, y, z'
loop_
 _atom_site_type_symbol
 _atom_site_label
 _atom_site_symmetry_multiplicity
 _atom_site_fract_x
 _atom_site_fract_y
 _atom_site_fract_z
 _atom_site_occupancy
  Ba  Ba0  1  0.49985900  0.04646900  0.85715000  1
  Ba  Ba1  1  0.50014100  0.54661100  0.64285000  1
  Ba  Ba2  1  0.50014100  0.95353100  0.14285000  1
  Ba  Ba3  1  0.49985900  0.45338900  0.35715000  1
  Ba  Ba4  1  0.50038100  0.86547800  0.57657200  1
  Ba  Ba5  1  0.49961900  0.36509700  0.92342800  1
  Ba  Ba6  1  0.49961900  0.13452200  0.42342800  1
  Ba  Ba7  1  0.50038100  0.63490300  0.07657200  1
  Sb  Sb0  1  0.50054600  0.24610200  0.66333100  1
  Sb  Sb1  1  0.49945400  0.74555700  0.83666900  1
  Sb  Sb2  1  0.49945400  0.75389800  0.33666900  1
  Sb  Sb3  1  0.50054600  0.25444300  0.16333100  1
  N  N0  1  0.00000000  0.55592100  0.75000000  1
  N  N1  1  0.00000000  0.44407900  0.25000000  1
  N  N2  1  0.50205200  0.08409800  0.64195100  1
  N  N3  1  0.49794800  0.58204600  0.85804900  1
  N  N4  1  0.49794800  0.91590200  0.35804900  1
  N  N5  1  0.50205200  0.41795400  0.14195100  1
  N  N6  1  0.49937600  0.15431900  0.04221500  1
  N  N7  1  0.50062400  0.65494300  0.45778500  1
  N  N8  1  0.50062400  0.84568100  0.95778500  1
  N  N9  1  0.49937600  0.34505700  0.54221500  1
  N  N10  1  0.00000000  0.05498000  0.75000000  1
  N  N11  1  0.00000000  0.94502000  0.25000000  1
loop_
_geom_bond_atom_site_label_1
_geom_bond_atom_site_label_2
_geom_bond_distance
_geom_bond_site_symmetry_2
Ba0 N6 2.781314 1_556
Ba0 N8 2.796517 1_545
Ba0 N2 2.880619 1_555
Ba0 N3 3.120760 1_655
Ba0 N3 3.132479 1_445
Ba1 N7 2.781308 1_555
Ba1 N9 2.796527 1_555
Ba1 N3 2.880617 1_555
Ba1 N2 3.120758 1_455
Ba1 N2 3.132478 1_665
Ba2 N8 2.781314 1_554
Ba2 N6 2.796517 1_565
Ba2 N4 2.880619 1_555
Ba2 N5 3.120760 1_455
Ba2 N5 3.132479 1_665
Ba3 N9 2.781308 1_555
Ba3 N7 2.796527 1_555
Ba3 N5 2.880617 1_555
Ba3 N4 3.120758 1_655
Ba3 N4 3.132478 1_445
Ba4 N2 2.799551 1_565
Ba4 N0 2.861490 1_555
Ba4 N10 2.861772 1_665
Ba4 N4 2.957899 1_555
Ba4 N7 3.016783 1_555
Ba4 N9 3.134352 1_665
Ba4 N9 3.139987 1_455
Ba5 N3 2.799551 1_555
Ba5 N0 2.861490 1_655
Ba5 N10 2.861772 1_555
Ba5 N5 2.957899 1_556
Ba5 N6 3.016783 1_556
Ba5 N8 3.134352 1_445
Ba5 N8 3.139987 1_655
Ba6 N4 2.799551 1_545
Ba6 N1 2.861490 1_655
Ba6 N11 2.861772 1_545
Ba6 N2 2.957899 1_555
Ba6 N9 3.016783 1_555
Ba6 N7 3.134352 1_445
Ba6 N7 3.139987 1_655
Ba7 N5 2.799551 1_555
Ba7 N1 2.861490 1_555
Ba7 N11 2.861772 1_655
Ba7 N3 2.957899 1_554
Ba7 N8 3.016783 1_554
Ba7 N6 3.134352 1_665
Ba7 N6 3.139987 1_455
N0 Sb1 2.059161 1_555
N0 Sb0 2.059165 1_455
N1 Sb3 2.059161 1_455
N1 Sb2 2.059165 1_555
N2 Sb0 2.009910 1_555
N3 Sb1 2.009922 1_555
N4 Sb2 2.009910 1_555
N5 Sb3 2.009922 1_555
N6 Sb3 2.011538 1_555
N7 Sb2 2.011546 1_555
N8 Sb1 2.011538 1_555
N9 Sb0 2.011546 1_555
N10 Sb1 2.058589 1_445
N10 Sb0 2.058593 1_555
N11 Sb3 2.058589 1_565
N11 Sb2 2.058593 1_455
