# generated using pymatgen
data_Lu4Fe
_symmetry_space_group_name_H-M   'P 1'
_cell_length_a   7.24330630
_cell_length_b   7.24330630
_cell_length_c   7.24330630
_cell_angle_alpha   60.00000000
_cell_angle_beta   60.00000000
_cell_angle_gamma   60.00000000
_symmetry_Int_Tables_number   1
_chemical_formula_structural   Lu4Fe
_chemical_formula_sum   'Lu8 Fe2'
_cell_volume   268.71725449
_cell_formula_units_Z   2
loop_
 _symmetry_equiv_pos_site_id
 _symmetry_equiv_pos_as_xyz
  1  'x, y, z'
loop_
 _atom_site_type_symbol
 _atom_site_label
 _atom_site_symmetry_multiplicity
 _atom_site_fract_x
 _atom_site_fract_y
 _atom_site_fract_z
 _atom_site_occupancy
  Lu  Lu0  1  0.38482900  0.38482900  0.38482900  1
  Lu  Lu1  1  0.38482900  0.38482900  0.84551400  1
  Lu  Lu2  1  0.38482900  0.84551400  0.38482900  1
  Lu  Lu3  1  0.86517100  0.86517100  0.40448600  1
  Lu  Lu4  1  0.86517100  0.86517100  0.86517100  1
  Lu  Lu5  1  0.84551400  0.38482900  0.38482900  1
  Lu  Lu6  1  0.86517100  0.40448600  0.86517100  1
  Lu  Lu7  1  0.40448600  0.86517100  0.86517100  1
  Fe  Fe0  1  0.00000000  0.00000000  0.00000000  1
  Fe  Fe1  1  0.25000000  0.25000000  0.25000000  1
loop_
_geom_bond_atom_site_label_1
_geom_bond_atom_site_label_2
_geom_bond_distance
_geom_bond_site_symmetry_2
Fe0 Lu7 2.392185 1_544
Fe0 Lu3 2.392185 1_445
Fe0 Lu6 2.392185 1_454
Fe0 Lu4 2.392191 1_444
Fe1 Lu5 2.392185 1_455
Fe1 Lu2 2.392185 1_545
Fe1 Lu1 2.392185 1_554
Fe1 Lu0 2.392191 1_555
