# generated using pymatgen
data_Li2OsN2
_symmetry_space_group_name_H-M   'P 1'
_cell_length_a   3.27687523
_cell_length_b   2.97654201
_cell_length_c   5.23446510
_cell_angle_alpha   90.00000942
_cell_angle_beta   88.86059615
_cell_angle_gamma   117.01178650
_symmetry_Int_Tables_number   1
_chemical_formula_structural   Li2OsN2
_chemical_formula_sum   'Li2 Os1 N2'
_cell_volume   45.47486081
_cell_formula_units_Z   1
loop_
 _symmetry_equiv_pos_site_id
 _symmetry_equiv_pos_as_xyz
  1  'x, y, z'
loop_
 _atom_site_type_symbol
 _atom_site_label
 _atom_site_symmetry_multiplicity
 _atom_site_fract_x
 _atom_site_fract_y
 _atom_site_fract_z
 _atom_site_occupancy
  Li  Li0  1  0.69123800  0.34561800  0.36445200  1
  Li  Li1  1  0.30876200  0.65438200  0.63554800  1
  Os  Os0  1  0.00000000  0.00000000  0.00000000  1
  N  N0  1  0.64587500  0.32293700  0.79036100  1
  N  N1  1  0.35412500  0.67706300  0.20963900  1
loop_
_geom_bond_atom_site_label_1
_geom_bond_atom_site_label_2
_geom_bond_distance
_geom_bond_site_symmetry_2
Li0 N1 1.968710 1_545
Li0 N1 1.968717 1_555
Li0 N1 2.081306 1_655
Li0 N0 2.230383 1_555
Li1 N0 1.968710 1_565
Li1 N0 1.968717 1_555
Li1 N0 2.081306 1_455
Li1 N1 2.230383 1_555
N0 Os0 2.130394 1_656
N0 Os0 2.130396 1_666
N0 Os0 2.160370 1_556
N1 Os0 2.130394 1_565
N1 Os0 2.130396 1_555
N1 Os0 2.160370 1_665
