# generated using pymatgen
data_BaSiPt
_symmetry_space_group_name_H-M   'P 1'
_cell_length_a   6.69172236
_cell_length_b   6.69172236
_cell_length_c   6.69172236
_cell_angle_alpha   90.00000000
_cell_angle_beta   90.00000000
_cell_angle_gamma   90.00000000
_symmetry_Int_Tables_number   1
_chemical_formula_structural   BaSiPt
_chemical_formula_sum   'Ba4 Si4 Pt4'
_cell_volume   299.64962689
_cell_formula_units_Z   4
loop_
 _symmetry_equiv_pos_site_id
 _symmetry_equiv_pos_as_xyz
  1  'x, y, z'
loop_
 _atom_site_type_symbol
 _atom_site_label
 _atom_site_symmetry_multiplicity
 _atom_site_fract_x
 _atom_site_fract_y
 _atom_site_fract_z
 _atom_site_occupancy
  Ba  Ba0  1  0.88483149  0.88483149  0.88483149  1
  Ba  Ba1  1  0.61516851  0.11516851  0.38483149  1
  Ba  Ba2  1  0.11516851  0.38483149  0.61516851  1
  Ba  Ba3  1  0.38483149  0.61516851  0.11516851  1
  Si  Si0  1  0.59724824  0.59724824  0.59724824  1
  Si  Si1  1  0.90275176  0.40275176  0.09724824  1
  Si  Si2  1  0.40275176  0.09724824  0.90275176  1
  Si  Si3  1  0.09724824  0.90275176  0.40275176  1
  Pt  Pt0  1  0.15551610  0.15551610  0.15551610  1
  Pt  Pt1  1  0.34448390  0.84448390  0.65551610  1
  Pt  Pt2  1  0.84448390  0.65551610  0.34448390  1
  Pt  Pt3  1  0.65551610  0.34448390  0.84448390  1
loop_
_geom_bond_atom_site_label_1
_geom_bond_atom_site_label_2
_geom_bond_distance
_geom_bond_site_symmetry_2
Ba0 Pt0 3.137344 1_666
Ba0 Si0 3.333206 1_555
Ba0 Pt3 3.447983 1_565
Ba0 Pt2 3.447983 1_556
Ba0 Pt1 3.447983 1_655
Ba0 Si3 3.527261 1_655
Ba0 Si2 3.527261 1_565
Ba0 Si1 3.527261 1_556
Ba1 Pt1 3.137344 1_545
Ba1 Si1 3.333206 1_555
Ba1 Pt3 3.447983 1_555
Ba1 Pt2 3.447983 1_545
Ba1 Pt0 3.447983 1_555
Ba1 Si2 3.527261 1_554
Ba1 Si0 3.527261 1_555
Ba1 Si3 3.527261 1_645
Ba2 Pt2 3.137344 1_455
Ba2 Si2 3.333206 1_555
Ba2 Pt1 3.447983 1_555
Ba2 Pt3 3.447983 1_455
Ba2 Pt0 3.447983 1_555
Ba2 Si0 3.527261 1_555
Ba2 Si3 3.527261 1_545
Ba2 Si1 3.527261 1_456
Ba3 Pt3 3.137344 1_554
Ba3 Si3 3.333206 1_555
Ba3 Pt2 3.447983 1_555
Ba3 Pt1 3.447983 1_554
Ba3 Pt0 3.447983 1_555
Ba3 Si1 3.527261 1_455
Ba3 Si0 3.527261 1_555
Ba3 Si2 3.527261 1_564
Pt0 Si1 2.397939 1_455
Pt0 Si2 2.397939 1_554
Pt0 Si3 2.397939 1_545
Pt1 Si0 2.397939 1_555
Pt1 Si3 2.397939 1_555
Pt1 Si2 2.397939 1_565
Pt2 Si0 2.397939 1_555
Pt2 Si1 2.397939 1_555
Pt2 Si3 2.397939 1_655
Pt3 Si0 2.397939 1_555
Pt3 Si2 2.397939 1_555
Pt3 Si1 2.397939 1_556
