# generated using pymatgen
data_CeZnNi4
_symmetry_space_group_name_H-M   'P 1'
_cell_length_a   4.99016192
_cell_length_b   4.99016192
_cell_length_c   3.89318069
_cell_angle_alpha   90.00000000
_cell_angle_beta   90.00000000
_cell_angle_gamma   119.99997426
_symmetry_Int_Tables_number   1
_chemical_formula_structural   CeZnNi4
_chemical_formula_sum   'Ce1 Zn1 Ni4'
_cell_volume   83.95848248
_cell_formula_units_Z   1
loop_
 _symmetry_equiv_pos_site_id
 _symmetry_equiv_pos_as_xyz
  1  'x, y, z'
loop_
 _atom_site_type_symbol
 _atom_site_label
 _atom_site_symmetry_multiplicity
 _atom_site_fract_x
 _atom_site_fract_y
 _atom_site_fract_z
 _atom_site_occupancy
  Ce  Ce0  1  0.00000000  0.00000000  -0.00000000  1
  Zn  Zn0  1  0.33333300  0.66666700  -0.00000000  1
  Ni  Ni0  1  0.66666700  0.33333300  -0.00000000  1
  Ni  Ni1  1  0.99425774  0.49712887  0.50000000  1
  Ni  Ni2  1  0.50287113  0.49712887  0.50000000  1
  Ni  Ni3  1  0.50287113  0.00574226  0.50000000  1
loop_
_geom_bond_atom_site_label_1
_geom_bond_atom_site_label_2
_geom_bond_distance
_geom_bond_site_symmetry_2
Ce0 Ni0 2.881068 1_455
Ce0 Zn0 2.881068 1_545
Ce0 Zn0 2.881074 1_445
Ce0 Ni0 2.881074 1_555
Ce0 Zn0 2.881074 1_555
Ce0 Ni0 2.881074 1_445
Ce0 Ni1 3.164689 1_455
Ce0 Ni3 3.164689 1_454
Ce0 Ni3 3.164689 1_455
Ce0 Ni1 3.164689 1_454
Ce0 Ni1 3.164689 1_444
Ce0 Ni1 3.164689 1_445
Ce0 Ni3 3.164689 1_554
Ce0 Ni3 3.164689 1_555
Ce0 Ni2 3.164690 1_445
Ce0 Ni2 3.164690 1_444
Ce0 Ni2 3.164690 1_555
Ce0 Ni2 3.164690 1_554
Ni0 Ni1 2.406964 1_554
Ni0 Ni3 2.406964 1_555
Ni0 Ni1 2.406964 1_555
Ni0 Ni3 2.406964 1_554
Ni0 Ni2 2.406966 1_555
Ni0 Ni2 2.406966 1_554
Ni0 Zn0 2.881069 1_545
Ni0 Zn0 2.881069 1_655
Ni0 Zn0 2.881077 1_555
Ni1 Zn0 2.436486 1_656
Ni1 Zn0 2.436486 1_655
Ni1 Ni2 2.452099 1_555
Ni1 Ni3 2.452100 1_555
Ni1 Ni2 2.538063 1_655
Ni1 Ni3 2.538064 1_665
Ni2 Zn0 2.436489 1_555
Ni2 Zn0 2.436489 1_556
Ni2 Ni3 2.452099 1_555
Ni2 Ni3 2.538063 1_565
Ni3 Zn0 2.436486 1_545
Ni3 Zn0 2.436486 1_546
