# generated using pymatgen
data_Li9Mn2Co5O16
_symmetry_space_group_name_H-M   'P 1'
_cell_length_a   5.10716900
_cell_length_b   5.82253220
_cell_length_c   10.08279499
_cell_angle_alpha   90.64527960
_cell_angle_beta   99.27287295
_cell_angle_gamma   105.98714920
_symmetry_Int_Tables_number   1
_chemical_formula_structural   Li9Mn2Co5O16
_chemical_formula_sum   'Li9 Mn2 Co5 O16'
_cell_volume   283.97606092
_cell_formula_units_Z   1
loop_
 _symmetry_equiv_pos_site_id
 _symmetry_equiv_pos_as_xyz
  1  'x, y, z'
loop_
 _atom_site_type_symbol
 _atom_site_label
 _atom_site_symmetry_multiplicity
 _atom_site_fract_x
 _atom_site_fract_y
 _atom_site_fract_z
 _atom_site_occupancy
  Li  Li0  1  0.50510800  0.12500000  0.87482000  1
  Li  Li1  1  0.49887900  0.62478300  0.87199100  1
  Li  Li2  1  0.49804500  0.37602000  0.62261400  1
  Li  Li3  1  0.50062500  0.87431800  0.62271900  1
  Li  Li4  1  0.50063700  0.62052600  0.37454700  1
  Li  Li5  1  0.49854200  0.13351400  0.37446900  1
  Li  Li6  1  0.49732600  0.87666500  0.12891900  1
  Li  Li7  1  0.49898900  0.36791400  0.13199800  1
  Li  Li8  1  0.00046700  0.25530100  0.24913700  1
  Mn  Mn0  1  0.99862600  0.00367100  0.00385300  1
  Mn  Mn1  1  0.00337700  0.74647400  0.24900300  1
  Co  Co0  1  0.99920700  0.49643800  0.00263900  1
  Co  Co1  1  0.99790900  0.24986800  0.74902400  1
  Co  Co2  1  0.99906300  0.74465400  0.74667100  1
  Co  Co3  1  0.00334000  0.49238600  0.49272200  1
  Co  Co4  1  0.99382400  0.00726300  0.49236800  1
  O  O0  1  0.21318800  0.80147000  0.93839000  1
  O  O1  1  0.22206300  0.30066100  0.94672900  1
  O  O2  1  0.22573100  0.06306700  0.68598900  1
  O  O3  1  0.23724600  0.55919600  0.68984100  1
  O  O4  1  0.23843500  0.31949000  0.44414300  1
  O  O5  1  0.23251800  0.81034700  0.42376200  1
  O  O6  1  0.22148200  0.57038000  0.17924400  1
  O  O7  1  0.22260700  0.04223300  0.17969000  1
  O  O8  1  0.77743400  0.43414700  0.82134100  1
  O  O9  1  0.77270200  0.93765400  0.82356400  1
  O  O10  1  0.77821300  0.69020300  0.56814300  1
  O  O11  1  0.76203200  0.19430200  0.56377500  1
  O  O12  1  0.77693300  0.93066000  0.31785900  1
  O  O13  1  0.76784300  0.46234300  0.30961700  1
  O  O14  1  0.77598000  0.19151400  0.05513900  1
  O  O15  1  0.78163200  0.69753900  0.06528000  1
loop_
_geom_bond_atom_site_label_1
_geom_bond_atom_site_label_2
_geom_bond_distance
_geom_bond_site_symmetry_2
Li0 O14 2.061009 1_556
Li0 O8 2.085595 1_555
Li0 O9 2.088259 1_545
Li0 O2 2.148604 1_555
Li0 O1 2.190188 1_555
Li0 O0 2.229410 1_545
Li1 O3 2.053425 1_555
Li1 O9 2.085542 1_555
Li1 O8 2.146613 1_555
Li1 O0 2.182108 1_555
Li1 O15 2.190986 1_556
Li1 O1 2.243614 1_555
Li2 O4 2.020343 1_555
Li2 O11 2.078118 1_555
Li2 O3 2.104343 1_555
Li2 O10 2.128272 1_555
Li2 O2 2.139983 1_555
Li2 O8 2.227726 1_555
Li3 O11 2.125390 1_565
Li3 O10 2.130060 1_555
Li3 O3 2.143769 1_555
Li3 O2 2.169914 1_565
Li3 O5 2.203372 1_555
Li3 O9 2.227516 1_555
Li4 O13 2.026301 1_555
Li4 O5 2.093597 1_555
Li4 O4 2.096549 1_555
Li4 O12 2.111452 1_555
Li4 O10 2.181303 1_555
Li4 O6 2.201948 1_555
Li5 O5 2.112811 1_545
Li5 O11 2.115196 1_555
Li5 O4 2.122911 1_555
Li5 O7 2.190296 1_555
Li5 O13 2.202829 1_555
Li5 O12 2.216693 1_545
Li6 O7 2.031087 1_565
Li6 O6 2.071070 1_555
Li6 O12 2.151677 1_555
Li6 O0 2.172707 1_554
Li6 O15 2.174208 1_555
Li6 O14 2.207758 1_565
Li7 O13 2.040697 1_555
Li7 O1 2.114275 1_554
Li7 O7 2.141126 1_555
Li7 O6 2.179585 1_555
Li7 O14 2.189158 1_555
Li7 O15 2.244038 1_555
Li8 O13 2.059714 1_455
Li8 O6 2.069089 1_555
Li8 O14 2.074811 1_455
Li8 O7 2.080440 1_555
Li8 O4 2.108516 1_555
Li8 O12 2.110014 1_445
Mn0 O14 1.902215 1_555
Mn0 O7 1.923065 1_655
Mn0 O1 1.942022 1_654
Mn0 O9 1.961515 1_544
Mn0 O15 1.986678 1_545
Mn0 O0 1.987155 1_644
Mn1 O6 1.911054 1_555
Mn1 O5 1.921881 1_555
Mn1 O13 1.928968 1_455
Mn1 O12 1.973508 1_455
Mn1 O7 1.981094 1_565
Mn1 O15 1.982305 1_455
Co0 O6 1.925328 1_655
Co0 O1 1.954378 1_654
Co0 O14 1.957751 1_555
Co0 O8 1.961501 1_554
Co0 O15 1.982660 1_555
Co0 O0 1.988277 1_654
Co1 O2 1.964837 1_655
Co1 O8 1.965529 1_555
Co1 O11 2.022676 1_555
Co1 O3 2.034855 1_655
Co1 O9 2.085675 1_545
Co1 O1 2.106303 1_655
Co2 O10 1.936177 1_555
Co2 O3 1.976959 1_655
Co2 O0 2.036449 1_655
Co2 O9 2.045781 1_555
Co2 O2 2.055056 1_665
Co2 O8 2.072368 1_555
Co3 O4 1.881272 1_555
Co3 O13 2.011683 1_455
Co3 O11 2.044185 1_455
Co3 O10 2.053875 1_455
Co3 O5 2.092489 1_555
Co3 O3 2.118968 1_555
Co4 O12 1.898410 1_545
Co4 O4 2.016607 1_655
Co4 O11 2.018152 1_555
Co4 O5 2.074362 1_645
Co4 O2 2.085224 1_655
Co4 O10 2.094628 1_545
