# generated using pymatgen
data_CaSmTi4O12
_symmetry_space_group_name_H-M   'P 1'
_cell_length_a   5.44628342
_cell_length_b   5.44628342
_cell_length_c   7.74312288
_cell_angle_alpha   90.00000000
_cell_angle_beta   90.00000000
_cell_angle_gamma   89.99922621
_symmetry_Int_Tables_number   1
_chemical_formula_structural   CaSmTi4O12
_chemical_formula_sum   'Ca1 Sm1 Ti4 O12'
_cell_volume   229.67653437
_cell_formula_units_Z   1
loop_
 _symmetry_equiv_pos_site_id
 _symmetry_equiv_pos_as_xyz
  1  'x, y, z'
loop_
 _atom_site_type_symbol
 _atom_site_label
 _atom_site_symmetry_multiplicity
 _atom_site_fract_x
 _atom_site_fract_y
 _atom_site_fract_z
 _atom_site_occupancy
  Ca  Ca0  1  0.48319593  0.48319593  0.50000000  1
  Sm  Sm0  1  0.02220144  0.02220144  -0.00000000  1
  Ti  Ti0  1  0.50976709  0.99329242  0.74583546  1
  Ti  Ti1  1  0.50976709  0.99329242  0.25416454  1
  Ti  Ti2  1  0.99329242  0.50976709  0.25416454  1
  Ti  Ti3  1  0.99329242  0.50976709  0.74583546  1
  O  O0  1  0.78238033  0.21791265  0.76602333  1
  O  O1  1  0.21791265  0.78238033  0.76602333  1
  O  O2  1  0.21791265  0.78238033  0.23397667  1
  O  O3  1  0.78238033  0.21791265  0.23397667  1
  O  O4  1  0.70912326  0.70912326  0.71056664  1
  O  O5  1  0.26163859  0.26163859  0.78113179  1
  O  O6  1  0.26163859  0.26163859  0.21886821  1
  O  O7  1  0.70912326  0.70912326  0.28943336  1
  O  O8  1  0.54520014  0.97139316  0.00000000  1
  O  O9  1  0.48537535  0.04650531  0.50000000  1
  O  O10  1  0.97139316  0.54520014  0.00000000  1
  O  O11  1  0.04650531  0.48537535  0.50000000  1
loop_
_geom_bond_atom_site_label_1
_geom_bond_atom_site_label_2
_geom_bond_distance
_geom_bond_site_symmetry_2
Ca0 O11 2.378370 1_555
Ca0 O9 2.378370 1_555
Ca0 O7 2.384632 1_555
Ca0 O4 2.384632 1_555
Ca0 O6 2.765997 1_555
Ca0 O5 2.765997 1_555
O0 Ti0 1.930150 1_545
O0 Ti3 1.967370 1_555
O0 Sm0 2.474749 1_656
O1 Ti3 1.930150 1_455
O1 Ti0 1.967370 1_555
O1 Sm0 2.474749 1_566
O2 Ti2 1.930150 1_455
O2 Ti1 1.967370 1_555
O2 Sm0 2.474749 1_565
O3 Ti1 1.930150 1_545
O3 Ti2 1.967370 1_555
O3 Sm0 2.474749 1_655
O4 Ti3 1.910146 1_555
O4 Ti0 1.910146 1_555
O5 Ti0 2.009183 1_545
O5 Ti3 2.009183 1_455
O5 Sm0 2.504633 1_556
O6 Ti2 2.009183 1_455
O6 Ti1 2.009183 1_545
O6 Sm0 2.504633 1_555
O7 Ti1 1.910146 1_555
O7 Ti2 1.910146 1_555
O8 Ti0 1.981059 1_554
O8 Ti1 1.981059 1_555
O8 Sm0 2.612584 1_665
O8 Sm0 2.861805 1_565
O9 Ti1 1.930047 1_545
O9 Ti0 1.930047 1_545
O10 Ti2 1.981059 1_555
O10 Ti3 1.981059 1_554
O10 Sm0 2.612584 1_665
O10 Sm0 2.861805 1_655
O11 Ti2 1.930047 1_455
O11 Ti3 1.930047 1_455
