# generated using pymatgen
data_Ag3Te(AsO7)2
_symmetry_space_group_name_H-M   'P 1'
_cell_length_a   10.15520800
_cell_length_b   7.55220800
_cell_length_c   8.65042554
_cell_angle_alpha   64.12787566
_cell_angle_beta   90.00000000
_cell_angle_gamma   90.00000000
_symmetry_Int_Tables_number   1
_chemical_formula_structural   Ag3Te(AsO7)2
_chemical_formula_sum   'Ag6 Te2 As4 O28'
_cell_volume   596.94158827
_cell_formula_units_Z   2
loop_
 _symmetry_equiv_pos_site_id
 _symmetry_equiv_pos_as_xyz
  1  'x, y, z'
loop_
 _atom_site_type_symbol
 _atom_site_label
 _atom_site_symmetry_multiplicity
 _atom_site_fract_x
 _atom_site_fract_y
 _atom_site_fract_z
 _atom_site_occupancy
  Ag  Ag0  1  0.75430700  0.06920300  0.45109800  1
  Ag  Ag1  1  0.75022800  0.49346900  0.01692900  1
  Ag  Ag2  1  0.25430700  0.93079700  0.54890200  1
  Ag  Ag3  1  0.25022800  0.50653100  0.98307100  1
  Ag  Ag4  1  0.74658700  0.47018600  0.45650900  1
  Ag  Ag5  1  0.24658700  0.52981400  0.54349100  1
  Te  Te0  1  0.74975700  0.99798300  0.00714800  1
  Te  Te1  1  0.24975700  0.00201700  0.99285200  1
  As  As0  1  0.94412000  0.65940800  0.65882500  1
  As  As1  1  0.44412000  0.34059200  0.34117500  1
  As  As2  1  0.05582800  0.32125700  0.34093700  1
  As  As3  1  0.55582800  0.67874300  0.65906300  1
  O  O0  1  0.37952900  0.67780500  0.64653500  1
  O  O1  1  0.87952900  0.32219500  0.35346500  1
  O  O2  1  0.62021400  0.32423200  0.35237700  1
  O  O3  1  0.12021400  0.67576800  0.64762300  1
  O  O4  1  0.85827700  0.14822400  0.81032100  1
  O  O5  1  0.85486300  0.01719600  0.18732300  1
  O  O6  1  0.35827700  0.85177600  0.18967900  1
  O  O7  1  0.13801300  0.19595100  0.81873100  1
  O  O8  1  0.82080300  0.73421500  0.05324400  1
  O  O9  1  0.35486300  0.98280400  0.81267700  1
  O  O10  1  0.17840700  0.78205700  0.94992600  1
  O  O11  1  0.63801300  0.80404900  0.18126900  1
  O  O12  1  0.32080300  0.26578500  0.94675600  1
  O  O13  1  0.67840700  0.21794300  0.05007400  1
  O  O14  1  0.14969600  0.95259700  0.19639100  1
  O  O15  1  0.64969600  0.04740300  0.80360900  1
  O  O16  1  0.91521600  0.47066500  0.85565200  1
  O  O17  1  0.90200200  0.62404500  0.48165100  1
  O  O18  1  0.41521600  0.52933500  0.14434800  1
  O  O19  1  0.09746500  0.11047200  0.51964800  1
  O  O20  1  0.87378400  0.87044300  0.64824600  1
  O  O21  1  0.40200200  0.37595500  0.51834900  1
  O  O22  1  0.12614400  0.52295700  0.35047000  1
  O  O23  1  0.59746500  0.88952800  0.48035200  1
  O  O24  1  0.37378400  0.12955700  0.35175400  1
  O  O25  1  0.62614400  0.47704300  0.64953000  1
  O  O26  1  0.08392800  0.32913500  0.14406500  1
  O  O27  1  0.58392800  0.67086500  0.85593500  1
loop_
_geom_bond_atom_site_label_1
_geom_bond_atom_site_label_2
_geom_bond_distance
_geom_bond_site_symmetry_2
Ag0 O23 2.035324 1_545
Ag0 O20 2.097535 1_545
Ag0 O1 2.138383 1_555
Ag0 O2 2.204034 1_555
Ag0 O5 2.680606 1_555
Ag1 O8 2.101555 1_555
Ag1 O13 2.103174 1_555
Ag1 O27 2.226690 1_554
Ag1 O16 2.234491 1_554
Ag2 O19 2.035324 1_565
Ag2 O24 2.097535 1_565
Ag2 O0 2.138383 1_555
Ag2 O3 2.204034 1_555
Ag2 O9 2.680606 1_555
Ag3 O12 2.101555 1_555
Ag3 O10 2.103174 1_555
Ag3 O26 2.226690 1_556
Ag3 O18 2.234491 1_556
Ag4 O17 2.027062 1_555
Ag4 O25 2.088569 1_555
Ag4 O2 2.130714 1_555
Ag4 O1 2.176192 1_555
Ag5 O21 2.027062 1_555
Ag5 O22 2.088569 1_555
Ag5 O3 2.130714 1_555
Ag5 O0 2.176192 1_555
As0 O16 1.702608 1_555
As0 O20 1.712137 1_555
As0 O17 1.720595 1_555
As0 O3 1.792239 1_655
As1 O18 1.702608 1_555
As1 O24 1.712137 1_555
As1 O21 1.720595 1_555
As1 O2 1.792239 1_555
As2 O26 1.702011 1_555
As2 O22 1.716599 1_555
As2 O19 1.719028 1_555
As2 O1 1.793831 1_455
As3 O27 1.702011 1_555
As3 O25 1.716599 1_555
As3 O23 1.719028 1_555
As3 O0 1.793831 1_555
O4 Te0 1.927403 1_546
O5 Te0 1.945999 1_545
O6 Te1 1.927403 1_564
O7 Te1 1.943267 1_555
O8 Te0 1.988594 1_555
O9 Te1 1.945999 1_565
O10 Te1 1.990166 1_565
O11 Te0 1.943267 1_555
O12 Te1 1.988594 1_555
O13 Te0 1.990166 1_545
O14 Te1 1.923121 1_564
O15 Te0 1.923121 1_546
