# generated using pymatgen
data_Y4Fe29Si5
_symmetry_space_group_name_H-M   'P 1'
_cell_length_a   6.38889539
_cell_length_b   6.38041345
_cell_length_c   12.76629487
_cell_angle_alpha   81.52048576
_cell_angle_beta   82.45154706
_cell_angle_gamma   82.43027496
_symmetry_Int_Tables_number   1
_chemical_formula_structural   Y4Fe29Si5
_chemical_formula_sum   'Y4 Fe29 Si5'
_cell_volume   506.89194331
_cell_formula_units_Z   1
loop_
 _symmetry_equiv_pos_site_id
 _symmetry_equiv_pos_as_xyz
  1  'x, y, z'
loop_
 _atom_site_type_symbol
 _atom_site_label
 _atom_site_symmetry_multiplicity
 _atom_site_fract_x
 _atom_site_fract_y
 _atom_site_fract_z
 _atom_site_occupancy
  Y  Y0  1  0.65368400  0.65497900  0.32622000  1
  Y  Y1  1  0.65947700  0.65037300  0.82664000  1
  Y  Y2  1  0.34052300  0.34962700  0.17336000  1
  Y  Y3  1  0.34631600  0.34502100  0.67378000  1
  Fe  Fe0  1  0.30951800  0.69439300  0.99896700  1
  Fe  Fe1  1  0.30004100  0.70012600  0.49976700  1
  Fe  Fe2  1  0.69053800  0.00317900  0.15175100  1
  Fe  Fe3  1  0.69972700  0.99981300  0.65122300  1
  Fe  Fe4  1  0.99895100  0.29653700  0.35144600  1
  Fe  Fe5  1  0.00084900  0.28999900  0.85521900  1
  Fe  Fe6  1  0.30027300  0.00018700  0.34877700  1
  Fe  Fe7  1  0.30946200  0.99682100  0.84824900  1
  Fe  Fe8  1  0.99915100  0.71000100  0.14478100  1
  Fe  Fe9  1  0.00104900  0.70346300  0.64855400  1
  Fe  Fe10  1  0.69995900  0.29987400  0.50023300  1
  Fe  Fe11  1  0.69048200  0.30560700  0.00103300  1
  Fe  Fe12  1  0.33924700  0.33909500  0.42183100  1
  Fe  Fe13  1  0.33624300  0.33530100  0.92496000  1
  Fe  Fe14  1  0.33553000  0.84950100  0.16754000  1
  Fe  Fe15  1  0.34029300  0.84479300  0.66951800  1
  Fe  Fe16  1  0.83591400  0.34440900  0.17109000  1
  Fe  Fe17  1  0.84480700  0.33934500  0.67070300  1
  Fe  Fe18  1  0.66375700  0.66469900  0.07504000  1
  Fe  Fe19  1  0.66075300  0.66090500  0.57816900  1
  Fe  Fe20  1  0.65970700  0.15520700  0.33048200  1
  Fe  Fe21  1  0.66447000  0.15049900  0.83246000  1
  Fe  Fe22  1  0.15519300  0.66065500  0.32929700  1
  Fe  Fe23  1  0.16408600  0.65559100  0.82891000  1
  Fe  Fe24  1  0.99820000  0.00136600  0.24968500  1
  Fe  Fe25  1  0.00180000  0.99863400  0.75031500  1
  Fe  Fe26  1  0.00000000  0.50000000  0.00000000  1
  Fe  Fe27  1  0.00000000  0.50000000  0.50000000  1
  Fe  Fe28  1  0.50000000  0.00000000  0.50000000  1
  Si  Si0  1  0.50000000  0.00000000  0.00000000  1
  Si  Si1  1  0.89884400  0.89851700  0.44934400  1
  Si  Si2  1  0.92437100  0.88920700  0.94471700  1
  Si  Si3  1  0.07562900  0.11079300  0.05528300  1
  Si  Si4  1  0.10115600  0.10148300  0.55065600  1
loop_
_geom_bond_atom_site_label_1
_geom_bond_atom_site_label_2
_geom_bond_distance
_geom_bond_site_symmetry_2
Fe0 Si0 2.433165 1_566
Fe0 Fe26 2.466471 1_556
Fe0 Fe7 2.516082 1_555
Fe0 Fe23 2.527238 1_555
Fe0 Fe14 2.530564 1_556
Fe0 Fe8 2.537692 1_456
Fe0 Fe18 2.551736 1_556
Fe0 Fe13 2.581496 1_555
Fe0 Si2 2.732688 1_455
Fe0 Y2 2.896816 1_556
Fe0 Y1 2.939775 1_555
Fe0 Si3 3.007240 1_566
Fe1 Fe28 2.437113 1_565
Fe1 Fe27 2.438716 1_555
Fe1 Fe6 2.508505 1_565
Fe1 Fe9 2.511035 1_555
Fe1 Fe22 2.531430 1_555
Fe1 Fe15 2.532446 1_555
Fe1 Fe19 2.599153 1_555
Fe1 Fe12 2.611001 1_555
Fe1 Si1 2.815147 1_455
Fe1 Si4 2.830354 1_565
Fe1 Y3 2.944086 1_555
Fe1 Y0 2.966152 1_555
Fe2 Si0 2.423451 1_555
Fe2 Fe24 2.462182 1_555
Fe2 Fe8 2.534937 1_545
Fe2 Fe20 2.582694 1_555
Fe2 Si3 2.727797 1_655
Fe2 Y0 2.914256 1_545
Fe2 Y2 2.945910 1_555
Fe2 Si2 2.998265 1_544
Fe3 Fe9 2.514999 1_655
Fe3 Si4 2.823892 1_665
Fe3 Si1 2.844553 1_555
Fe3 Y1 2.929064 1_555
Fe3 Y3 2.956068 1_565
Fe4 Fe6 2.514999 1_655
Fe4 Si1 2.775277 1_545
Fe4 Si4 2.780600 1_655
Fe4 Y2 2.951266 1_655
Fe4 Y0 2.973263 1_555
Fe5 Fe7 2.534937 1_545
Fe5 Si3 2.715578 1_556
Fe5 Si2 2.721103 1_445
Fe5 Y1 2.969377 1_455
Fe5 Y3 2.996861 1_555
Fe6 Si1 2.823892 1_445
Fe6 Si4 2.844553 1_555
Fe6 Y2 2.929064 1_555
Fe6 Y0 2.956068 1_545
Fe7 Si0 2.423451 1_566
Fe7 Si2 2.727797 1_455
Fe7 Y3 2.914256 1_565
Fe7 Y1 2.945910 1_555
Fe7 Si3 2.998265 1_566
Fe8 Si2 2.715578 1_554
Fe8 Si3 2.721103 1_665
Fe8 Y2 2.969377 1_655
Fe8 Y0 2.996861 1_555
Fe9 Si4 2.775277 1_565
Fe9 Si1 2.780600 1_455
Fe9 Y1 2.951266 1_455
Fe9 Y3 2.973263 1_555
Fe10 Fe28 2.437113 1_555
Fe10 Fe27 2.438716 1_655
Fe10 Fe3 2.508505 1_545
Fe10 Fe4 2.511035 1_555
Fe10 Fe17 2.531430 1_555
Fe10 Fe20 2.532446 1_555
Fe10 Fe12 2.599153 1_555
Fe10 Fe19 2.611001 1_555
Fe10 Si4 2.815147 1_655
Fe10 Si1 2.830354 1_545
Fe10 Y0 2.944086 1_555
Fe10 Y3 2.966152 1_555
Fe11 Si0 2.433165 1_555
Fe11 Fe26 2.466471 1_655
Fe11 Fe2 2.516082 1_555
Fe11 Fe16 2.527238 1_555
Fe11 Fe21 2.530564 1_554
Fe11 Fe5 2.537692 1_654
Fe11 Fe13 2.551736 1_554
Fe11 Fe18 2.581496 1_555
Fe11 Si3 2.732688 1_655
Fe11 Y1 2.896816 1_554
Fe11 Y2 2.939775 1_555
Fe11 Si2 3.007240 1_544
Fe12 Fe28 2.403909 1_555
Fe12 Fe27 2.427995 1_555
Fe12 Fe22 2.449943 1_555
Fe12 Fe20 2.464082 1_555
Fe12 Fe4 2.519656 1_455
Fe12 Fe6 2.530864 1_555
Fe12 Si4 2.555794 1_555
Fe12 Y0 3.047079 1_555
Fe12 Y2 3.161803 1_555
Fe12 Y3 3.228550 1_555
Fe13 Si0 2.378737 1_556
Fe13 Fe26 2.407967 1_556
Fe13 Fe23 2.431606 1_555
Fe13 Fe5 2.491613 1_555
Fe13 Fe21 2.508150 1_555
Fe13 Fe7 2.533278 1_545
Fe13 Si3 2.605770 1_556
Fe13 Y1 3.090311 1_555
Fe13 Y2 3.189703 1_556
Fe13 Y3 3.190407 1_555
Fe14 Si0 2.381306 1_565
Fe14 Fe24 2.416415 1_465
Fe14 Fe22 2.459781 1_555
Fe14 Fe8 2.497901 1_455
Fe14 Fe18 2.508150 1_555
Fe14 Fe2 2.560062 1_565
Fe14 Si3 2.604157 1_565
Fe14 Fe6 2.605854 1_565
Fe14 Y0 3.074322 1_555
Fe14 Y2 3.175336 1_555
Fe14 Y2 3.207250 1_565
Fe15 Fe28 2.399839 1_565
Fe15 Fe25 2.420229 1_555
Fe15 Fe23 2.428378 1_555
Fe15 Fe19 2.464082 1_555
Fe15 Fe9 2.514133 1_555
Fe15 Si4 2.556579 1_565
Fe15 Fe7 2.582694 1_555
Fe15 Fe3 2.587590 1_555
Fe15 Y1 3.065152 1_555
Fe15 Y3 3.176419 1_555
Fe15 Y3 3.205506 1_565
Fe16 Fe26 2.426588 1_655
Fe16 Fe20 2.428378 1_555
Fe16 Fe24 2.429027 1_555
Fe16 Fe18 2.431606 1_555
Fe16 Si3 2.491313 1_655
Fe16 Fe2 2.532843 1_555
Fe16 Fe4 2.611239 1_555
Fe16 Fe8 2.638080 1_555
Fe16 Y0 3.024555 1_555
Fe16 Y2 3.157152 1_555
Fe16 Y2 3.232422 1_655
Fe17 Fe25 2.409672 1_645
Fe17 Fe27 2.413342 1_655
Fe17 Fe19 2.449943 1_555
Fe17 Fe21 2.459781 1_555
Fe17 Fe3 2.522412 1_545
Fe17 Si4 2.589589 1_655
Fe17 Fe9 2.610911 1_655
Fe17 Fe5 2.637681 1_655
Fe17 Y1 3.038079 1_555
Fe17 Y3 3.175376 1_555
Fe17 Y3 3.214513 1_655
Fe18 Si0 2.378737 1_565
Fe18 Fe26 2.407967 1_655
Fe18 Fe8 2.491613 1_555
Fe18 Fe2 2.533278 1_565
Fe18 Si2 2.605770 1_554
Fe18 Y2 3.090311 1_555
Fe18 Y1 3.189703 1_554
Fe18 Y0 3.190407 1_555
Fe19 Fe28 2.403909 1_565
Fe19 Fe27 2.427995 1_655
Fe19 Fe9 2.519656 1_655
Fe19 Fe3 2.530864 1_555
Fe19 Si1 2.555794 1_555
Fe19 Y3 3.047079 1_555
Fe19 Y1 3.161803 1_555
Fe19 Y0 3.228550 1_555
Fe20 Fe28 2.399839 1_555
Fe20 Fe24 2.420229 1_555
Fe20 Fe4 2.514133 1_555
Fe20 Si1 2.556579 1_545
Fe20 Fe6 2.587590 1_555
Fe20 Y2 3.065152 1_555
Fe20 Y0 3.176419 1_555
Fe20 Y0 3.205506 1_545
Fe21 Si0 2.381306 1_556
Fe21 Fe25 2.416415 1_645
Fe21 Fe5 2.497901 1_655
Fe21 Fe7 2.560062 1_545
Fe21 Si2 2.604157 1_545
Fe21 Fe3 2.605854 1_545
Fe21 Y3 3.074322 1_555
Fe21 Y1 3.175336 1_555
Fe21 Y1 3.207250 1_545
Fe22 Fe24 2.409672 1_465
Fe22 Fe27 2.413342 1_555
Fe22 Fe6 2.522412 1_565
Fe22 Si1 2.589589 1_455
Fe22 Fe4 2.610911 1_455
Fe22 Fe8 2.637681 1_455
Fe22 Y2 3.038079 1_555
Fe22 Y0 3.175376 1_555
Fe22 Y0 3.214513 1_455
Fe23 Fe26 2.426588 1_556
Fe23 Fe25 2.429027 1_555
Fe23 Si2 2.491313 1_455
Fe23 Fe7 2.532843 1_555
Fe23 Fe9 2.611239 1_555
Fe23 Fe5 2.638080 1_555
Fe23 Y3 3.024555 1_555
Fe23 Y1 3.157152 1_555
Fe23 Y1 3.232422 1_455
Fe24 Fe6 2.441258 1_655
Fe24 Fe4 2.441340 1_555
Fe24 Fe8 2.445138 1_545
Fe24 Si3 2.479700 1_655
Fe24 Si1 2.553793 1_545
Fe24 Y2 3.279048 1_655
Fe24 Y0 3.280807 1_545
Fe25 Fe3 2.441258 1_455
Fe25 Fe9 2.441340 1_555
Fe25 Fe5 2.445138 1_565
Fe25 Fe7 2.462182 1_555
Fe25 Si2 2.479700 1_455
Fe25 Si4 2.553793 1_565
Fe25 Y1 3.279048 1_455
Fe25 Y3 3.280807 1_565
Fe26 Fe8 2.436685 1_455
Fe26 Fe5 2.436685 1_554
Fe26 Si3 2.480917 1_555
Fe26 Si2 2.480917 1_454
Fe26 Y1 3.261989 1_454
Fe26 Y2 3.261989 1_555
Fe27 Fe9 2.452276 1_555
Fe27 Fe4 2.452276 1_455
Fe27 Si4 2.548164 1_555
Fe27 Si1 2.548164 1_455
Fe27 Y0 3.295664 1_455
Fe27 Y3 3.295664 1_555
Fe28 Fe6 2.449788 1_555
Fe28 Fe3 2.449788 1_545
Fe28 Si1 2.566416 1_545
Fe28 Si4 2.566416 1_555
Fe28 Y3 3.321221 1_555
Fe28 Y0 3.321221 1_545
Si0 Si3 2.736457 1_555
Si0 Si2 2.736457 1_544
Si0 Y2 3.343240 1_555
Si0 Y1 3.343240 1_544
Si1 Si4 2.528782 1_665
Si1 Y0 3.057263 1_555
Si2 Si3 2.496395 1_666
Si2 Y1 3.079889 1_555
Si3 Y2 3.079889 1_555
Si4 Y3 3.057263 1_555
