# generated using pymatgen
data_Mg6MnCu
_symmetry_space_group_name_H-M   'P 1'
_cell_length_a   4.84000300
_cell_length_b   6.16920000
_cell_length_c   10.57726300
_cell_angle_alpha   90.00000000
_cell_angle_beta   90.00000000
_cell_angle_gamma   90.00000000
_symmetry_Int_Tables_number   1
_chemical_formula_structural   Mg6MnCu
_chemical_formula_sum   'Mg12 Mn2 Cu2'
_cell_volume   315.82593011
_cell_formula_units_Z   2
loop_
 _symmetry_equiv_pos_site_id
 _symmetry_equiv_pos_as_xyz
  1  'x, y, z'
loop_
 _atom_site_type_symbol
 _atom_site_label
 _atom_site_symmetry_multiplicity
 _atom_site_fract_x
 _atom_site_fract_y
 _atom_site_fract_z
 _atom_site_occupancy
  Mg  Mg0  1  0.50000000  0.24822000  0.58336500  1
  Mg  Mg1  1  0.50000000  0.75178000  0.58336500  1
  Mg  Mg2  1  0.00000000  0.24819900  0.41170000  1
  Mg  Mg3  1  0.00000000  0.75180100  0.41170000  1
  Mg  Mg4  1  0.00000000  0.00000000  0.67109500  1
  Mg  Mg5  1  0.00000000  0.00000000  0.17236600  1
  Mg  Mg6  1  0.50000000  0.74822000  0.08336500  1
  Mg  Mg7  1  0.50000000  0.25178000  0.08336500  1
  Mg  Mg8  1  0.00000000  0.74819900  0.91170000  1
  Mg  Mg9  1  0.00000000  0.25180100  0.91170000  1
  Mg  Mg10  1  0.00000000  0.50000000  0.17109500  1
  Mg  Mg11  1  0.00000000  0.50000000  0.67236600  1
  Mn  Mn0  1  0.50000000  0.00000000  0.83252500  1
  Mn  Mn1  1  0.50000000  0.50000000  0.33252500  1
  Cu  Cu0  1  0.50000000  0.00000000  0.33388700  1
  Cu  Cu1  1  0.50000000  0.50000000  0.83388700  1
loop_
_geom_bond_atom_site_label_1
_geom_bond_atom_site_label_2
_geom_bond_distance
_geom_bond_site_symmetry_2
Mg0 Mg4 3.010386 1_555
Mg0 Mg4 3.010386 1_655
Mg0 Mg2 3.025449 1_655
Mg0 Mg2 3.025449 1_555
Mg0 Mg11 3.025772 1_655
Mg0 Mg11 3.025772 1_555
Mg0 Mn0 3.048021 1_555
Mg0 Mg1 3.062638 1_545
Mg0 Mn1 3.074436 1_555
Mg0 Mg1 3.106562 1_555
Mg1 Mg4 3.010386 1_665
Mg1 Mg4 3.010386 1_565
Mg1 Mg3 3.025449 1_555
Mg1 Mg3 3.025449 1_655
Mg1 Mg11 3.025772 1_555
Mg1 Mg11 3.025772 1_655
Mg1 Mn0 3.048021 1_565
Mg1 Mn1 3.074436 1_555
Mg2 Mg5 2.958551 1_555
Mg2 Mn1 2.995133 1_455
Mg2 Mn1 2.995133 1_555
Mg2 Mg3 3.062379 1_545
Mg2 Mg3 3.106821 1_555
Mg2 Mg4 3.142033 1_555
Mg3 Mg5 2.958551 1_565
Mg3 Mn1 2.995133 1_455
Mg3 Mn1 2.995133 1_555
Mg3 Mg4 3.142033 1_565
Mg4 Mn0 2.961743 1_455
Mg4 Mn0 2.961743 1_555
Mg4 Mg8 2.981580 1_545
Mg4 Mg9 2.981580 1_555
Mg5 Mg6 3.025772 1_545
Mg5 Mg6 3.025772 1_445
Mg5 Mg7 3.025772 1_455
Mg5 Mg7 3.025772 1_555
Mg5 Mg8 3.164627 1_544
Mg5 Mg9 3.164627 1_554
Mg6 Mg8 3.025449 1_654
Mg6 Mg8 3.025449 1_554
Mg6 Mn1 3.048021 1_555
Mg6 Mg7 3.062638 1_555
Mg6 Mn0 3.074436 1_564
Mg6 Mg7 3.106562 1_565
Mg7 Mg9 3.025449 1_554
Mg7 Mg9 3.025449 1_654
Mg7 Mn1 3.048021 1_555
Mg7 Mn0 3.074436 1_554
Mg8 Mn0 2.995133 1_565
Mg8 Mn0 2.995133 1_465
Mg8 Mg9 3.062379 1_555
Mg8 Mg9 3.106821 1_565
Mg9 Mn0 2.995133 1_455
Mg9 Mn0 2.995133 1_555
Mg10 Mn1 2.961743 1_455
Mg10 Mn1 2.961743 1_555
Mg10 Mg3 2.981580 1_555
Mg10 Mg2 2.981580 1_555
Mg10 Mg7 3.010386 1_455
Mg10 Mg7 3.010386 1_555
Mg10 Mg6 3.010386 1_455
Mg10 Mg6 3.010386 1_555
Mg10 Mg5 3.084629 1_555
Mg10 Mg5 3.084629 1_565
Mg10 Mg8 3.142033 1_554
Mg10 Mg9 3.142033 1_554
Mg11 Mg8 2.958551 1_555
Mg11 Mg9 2.958551 1_555
Mg11 Mg4 3.084629 1_565
Mg11 Mg4 3.084629 1_555
Mg11 Mg3 3.164627 1_555
Mg11 Mg2 3.164627 1_555
Cu0 Mg5 2.962298 1_655
Cu0 Mg5 2.962298 1_555
Cu0 Mg2 2.979657 1_555
Cu0 Mg2 2.979657 1_655
Cu0 Mg3 2.979657 1_645
Cu0 Mg3 2.979657 1_545
Cu0 Mg1 3.050930 1_545
Cu0 Mg0 3.050930 1_555
Cu0 Mg6 3.071534 1_545
Cu0 Mg7 3.071534 1_555
Cu0 Mn1 3.084634 1_545
Cu0 Mn1 3.084634 1_555
Cu1 Mg11 2.962298 1_555
Cu1 Mg11 2.962298 1_655
Cu1 Mg8 2.979657 1_555
Cu1 Mg8 2.979657 1_655
Cu1 Mg9 2.979657 1_555
Cu1 Mg9 2.979657 1_655
Cu1 Mg7 3.050930 1_556
Cu1 Mg6 3.050930 1_556
Cu1 Mg1 3.071534 1_555
Cu1 Mg0 3.071534 1_555
Cu1 Mn0 3.084634 1_555
Cu1 Mn0 3.084634 1_565
