# generated using pymatgen
data_LaSbPd
_symmetry_space_group_name_H-M   'P 1'
_cell_length_a   4.62465602
_cell_length_b   4.62465602
_cell_length_c   8.24875354
_cell_angle_alpha   90.00000000
_cell_angle_beta   90.00000000
_cell_angle_gamma   119.99999536
_symmetry_Int_Tables_number   1
_chemical_formula_structural   LaSbPd
_chemical_formula_sum   'La2 Sb2 Pd2'
_cell_volume   152.78399094
_cell_formula_units_Z   2
loop_
 _symmetry_equiv_pos_site_id
 _symmetry_equiv_pos_as_xyz
  1  'x, y, z'
loop_
 _atom_site_type_symbol
 _atom_site_label
 _atom_site_symmetry_multiplicity
 _atom_site_fract_x
 _atom_site_fract_y
 _atom_site_fract_z
 _atom_site_occupancy
  La  La0  1  -0.00000000  0.00000000  0.99760266  1
  La  La1  1  -0.00000000  0.00000000  0.49760266  1
  Sb  Sb0  1  0.66666700  0.33333300  0.73727710  1
  Sb  Sb1  1  0.33333300  0.66666700  0.23727710  1
  Pd  Pd0  1  0.66666700  0.33333300  0.27411924  1
  Pd  Pd1  1  0.33333300  0.66666700  0.77411924  1
loop_
_geom_bond_atom_site_label_1
_geom_bond_atom_site_label_2
_geom_bond_distance
_geom_bond_site_symmetry_2
La0 Pd1 3.244607 1_545
La0 Pd1 3.244611 1_445
La0 Pd1 3.244611 1_555
La0 Sb1 3.322307 1_546
La0 Sb1 3.322310 1_446
La0 Sb1 3.322310 1_556
La0 Sb0 3.426411 1_455
La0 Sb0 3.426415 1_555
La0 Sb0 3.426415 1_445
La0 Pd0 3.511654 1_456
La0 Pd0 3.511658 1_446
La0 Pd0 3.511658 1_556
La1 Pd0 3.244607 1_455
La1 Pd0 3.244611 1_555
La1 Pd0 3.244611 1_445
La1 Sb0 3.322307 1_455
La1 Sb0 3.322310 1_445
La1 Sb0 3.322310 1_555
La1 Sb1 3.426411 1_545
La1 Sb1 3.426415 1_445
La1 Sb1 3.426415 1_555
La1 Pd1 3.511654 1_545
La1 Pd1 3.511658 1_555
La1 Pd1 3.511658 1_445
Pd0 Sb1 2.687283 1_545
Pd0 Sb1 2.687283 1_655
Pd0 Sb1 2.687291 1_555
Pd1 Sb0 2.687283 1_455
Pd1 Sb0 2.687283 1_565
Pd1 Sb0 2.687291 1_555
