# generated using pymatgen
data_Mg5Si6
_symmetry_space_group_name_H-M   'P 1'
_cell_length_a   3.76229000
_cell_length_b   7.46223400
_cell_length_c   15.16293852
_cell_angle_alpha   86.00713684
_cell_angle_beta   90.00000000
_cell_angle_gamma   90.00000000
_symmetry_Int_Tables_number   1
_chemical_formula_structural   Mg5Si6
_chemical_formula_sum   'Mg10 Si12'
_cell_volume   424.66754853
_cell_formula_units_Z   2
loop_
 _symmetry_equiv_pos_site_id
 _symmetry_equiv_pos_as_xyz
  1  'x, y, z'
loop_
 _atom_site_type_symbol
 _atom_site_label
 _atom_site_symmetry_multiplicity
 _atom_site_fract_x
 _atom_site_fract_y
 _atom_site_fract_z
 _atom_site_occupancy
  Mg  Mg0  1  0.50000000  0.94710900  0.98032500  1
  Mg  Mg1  1  0.50000000  0.48217400  0.51225800  1
  Mg  Mg2  1  0.50000000  0.91790900  0.33231900  1
  Mg  Mg3  1  0.00000000  0.16252600  0.61168100  1
  Mg  Mg4  1  0.00000000  0.23482500  0.82537100  1
  Mg  Mg5  1  0.00000000  0.77100000  0.14204200  1
  Mg  Mg6  1  0.00000000  0.25633100  0.38105500  1
  Mg  Mg7  1  0.50000000  0.79468300  0.63316400  1
  Mg  Mg8  1  0.00000000  0.61736900  0.94420800  1
  Mg  Mg9  1  0.00000000  0.22906600  0.05849800  1
  Si  Si0  1  0.50000000  0.51726800  0.07500400  1
  Si  Si1  1  0.50000000  0.33765100  0.93928000  1
  Si  Si2  1  0.50000000  0.07204600  0.48844400  1
  Si  Si3  1  0.00000000  0.83843000  0.48835700  1
  Si  Si4  1  0.00000000  0.09822300  0.22584600  1
  Si  Si5  1  0.50000000  0.79170700  0.82360500  1
  Si  Si6  1  0.00000000  0.49582600  0.66889800  1
  Si  Si7  1  0.00000000  0.61902800  0.37438500  1
  Si  Si8  1  0.50000000  0.58631700  0.27032300  1
  Si  Si9  1  0.50000000  0.49618200  0.77007600  1
  Si  Si10  1  0.00000000  0.93082000  0.75242400  1
  Si  Si11  1  0.50000000  0.29988300  0.20606600  1
loop_
_geom_bond_atom_site_label_1
_geom_bond_atom_site_label_2
_geom_bond_distance
_geom_bond_site_symmetry_2
Mg0 Si5 2.715791 1_555
Mg0 Si1 2.937342 1_565
Mg1 Si7 2.941895 1_655
Mg1 Si7 2.941895 1_555
Mg1 Si6 3.037102 1_655
Mg1 Si6 3.037102 1_555
Mg1 Si2 3.106569 1_555
Mg1 Si3 3.256273 1_655
Mg1 Si3 3.256273 1_555
Mg2 Si2 2.703026 1_565
Mg2 Si8 2.707463 1_555
Mg2 Si4 2.766424 1_665
Mg2 Si4 2.766424 1_565
Mg2 Si7 2.953263 1_655
Mg2 Si7 2.953263 1_555
Mg2 Si3 3.048437 1_555
Mg2 Si3 3.048437 1_655
Mg3 Si10 2.651416 1_545
Mg3 Si6 2.690571 1_555
Mg3 Si2 2.768046 1_455
Mg3 Si2 2.768046 1_555
Mg3 Si3 3.158416 1_545
Mg4 Si10 2.592148 1_545
Mg4 Si1 2.700971 1_555
Mg4 Si1 2.700971 1_455
Mg4 Si9 2.796006 1_555
Mg4 Si9 2.796006 1_455
Mg4 Si6 2.962936 1_555
Mg5 Si4 2.830069 1_565
Mg5 Si0 2.902583 1_555
Mg5 Si0 2.902583 1_455
Mg5 Si8 2.974585 1_455
Mg5 Si8 2.974585 1_555
Mg6 Si7 2.701372 1_555
Mg6 Si4 2.705054 1_555
Mg6 Si2 2.787372 1_455
Mg6 Si2 2.787372 1_555
Mg7 Si10 2.845458 1_655
Mg7 Si10 2.845458 1_555
Mg7 Si5 2.886184 1_555
Mg7 Si3 2.892499 1_555
Mg7 Si3 2.892499 1_655
Mg7 Si2 2.909750 1_565
Mg7 Si9 2.937247 1_555
Mg7 Si6 2.938968 1_655
Mg7 Si6 2.938968 1_555
Mg8 Si0 2.797080 1_456
Mg8 Si0 2.797080 1_556
Mg8 Si1 2.814768 1_555
Mg8 Si1 2.814768 1_455
Mg8 Si5 2.871235 1_455
Mg8 Si5 2.871235 1_555
Mg9 Si4 2.654643 1_555
Mg9 Si1 2.694262 1_554
Mg9 Si1 2.694262 1_454
Mg9 Si0 2.881236 1_455
Mg9 Si0 2.881236 1_555
Mg9 Si11 2.998222 1_555
Mg9 Si11 2.998222 1_455
Si0 Si11 2.476250 1_555
Si0 Si1 2.532968 1_554
Si1 Si9 2.749409 1_555
Si2 Si3 2.564783 1_645
Si2 Si3 2.564783 1_545
Si3 Si7 2.461921 1_555
Si5 Si9 2.402354 1_555
Si6 Si9 2.427533 1_555
Si6 Si9 2.427533 1_455
Si7 Si8 2.478236 1_455
Si7 Si8 2.478236 1_555
Si10 Si5 2.371756 1_455
Si10 Si5 2.371756 1_555
Si11 Si8 2.409974 1_555
Si11 Si4 2.414608 1_555
Si11 Si4 2.414608 1_655
