# generated using pymatgen
data_MgFe4Si2Sn7O16
_symmetry_space_group_name_H-M   'P 1'
_cell_length_a   7.03751410
_cell_length_b   7.03090487
_cell_length_c   10.02845394
_cell_angle_alpha   89.89941398
_cell_angle_beta   90.14695614
_cell_angle_gamma   119.82428751
_symmetry_Int_Tables_number   1
_chemical_formula_structural   MgFe4Si2Sn7O16
_chemical_formula_sum   'Mg1 Fe4 Si2 Sn7 O16'
_cell_volume   430.48682106
_cell_formula_units_Z   1
loop_
 _symmetry_equiv_pos_site_id
 _symmetry_equiv_pos_as_xyz
  1  'x, y, z'
loop_
 _atom_site_type_symbol
 _atom_site_label
 _atom_site_symmetry_multiplicity
 _atom_site_fract_x
 _atom_site_fract_y
 _atom_site_fract_z
 _atom_site_occupancy
  Mg  Mg0  1  0.00000175  0.50005356  0.00000231  1
  Fe  Fe0  1  0.50003860  0.99998431  0.50004493  1
  Fe  Fe1  1  0.00000488  0.00003453  0.00000727  1
  Fe  Fe2  1  0.00003052  0.49995216  0.50001045  1
  Fe  Fe3  1  0.49998627  0.49993284  0.49997387  1
  Si  Si0  1  0.33832390  0.66843355  0.25364113  1
  Si  Si1  1  0.66167954  0.33158537  0.74635114  1
  Sn  Sn0  1  0.18092808  0.31891168  0.80877107  1
  Sn  Sn1  1  0.99997219  0.99995384  0.49998637  1
  Sn  Sn2  1  0.17993640  0.86192651  0.80820235  1
  Sn  Sn3  1  0.66189947  0.83134476  0.82401935  1
  Sn  Sn4  1  0.33809955  0.16865796  0.17599113  1
  Sn  Sn5  1  0.82006327  0.13810583  0.19178946  1
  Sn  Sn6  1  0.81905328  0.68109805  0.19122097  1
  O  O0  1  0.46978137  0.92760375  0.20998738  1
  O  O1  1  0.46836024  0.54051623  0.20708338  1
  O  O2  1  0.31401582  0.65738370  0.86049664  1
  O  O3  1  0.53022085  0.07241082  0.79001756  1
  O  O4  1  0.09596814  0.54899452  0.18701336  1
  O  O5  1  0.84225144  0.15725204  0.40014264  1
  O  O6  1  0.90404818  0.45105340  0.81299426  1
  O  O7  1  0.15975537  0.31371252  0.60038135  1
  O  O8  1  0.53162587  0.45950522  0.79288858  1
  O  O9  1  0.67528353  0.34035512  0.58148690  1
  O  O10  1  0.84020403  0.68623564  0.39961411  1
  O  O11  1  0.68598028  0.34263739  0.13950417  1
  O  O12  1  0.30738420  0.15057070  0.39127029  1
  O  O13  1  0.32475249  0.65962320  0.41852007  1
  O  O14  1  0.15774781  0.84271734  0.59985419  1
  O  O15  1  0.69260368  0.84945446  0.60873834  1
loop_
_geom_bond_atom_site_label_1
_geom_bond_atom_site_label_2
_geom_bond_distance
_geom_bond_site_symmetry_2
Mg0 O6 1.963717 1_454
Mg0 O4 1.963766 1_555
Mg0 O2 2.375578 1_554
Mg0 O11 2.375593 1_455
Fe0 O9 2.231825 1_565
Fe0 O13 2.232081 1_555
Fe0 O5 2.320797 1_565
Fe0 O14 2.320833 1_555
Fe0 O15 2.357926 1_555
Fe0 O12 2.359093 1_565
Fe1 Sn4 2.713202 1_555
Fe1 Sn3 2.713279 1_444
Fe1 Sn0 2.735628 1_554
Fe1 Sn6 2.735727 1_445
Fe1 Sn5 2.736210 1_455
Fe1 Sn2 2.736476 1_544
Fe2 O13 2.145921 1_555
Fe2 O9 2.146013 1_455
Fe2 O5 2.320168 1_455
Fe2 O14 2.320447 1_555
Fe2 O7 2.333440 1_555
Fe2 O10 2.334340 1_455
Fe3 O9 2.194845 1_555
Fe3 O13 2.194887 1_555
Fe3 O10 2.312903 1_555
Fe3 O7 2.313153 1_555
Fe3 O12 2.397765 1_555
Fe3 O15 2.398883 1_555
O0 Si0 1.640244 1_555
O0 Sn5 2.161687 1_565
O0 Sn4 2.325101 1_565
O1 Si0 1.639109 1_555
O1 Sn6 2.160635 1_555
O1 Sn4 2.321765 1_555
O2 Sn2 2.139664 1_555
O2 Sn0 2.143450 1_555
O2 Sn3 2.155958 1_555
O3 Si1 1.640303 1_555
O3 Sn2 2.161675 1_545
O3 Sn3 2.325169 1_545
O4 Si0 1.622382 1_555
O5 Sn5 2.094458 1_555
O5 Sn1 2.160820 1_545
O6 Si1 1.622516 1_555
O7 Sn0 2.093840 1_555
O7 Sn1 2.163134 1_445
O8 Si1 1.639166 1_555
O8 Sn0 2.160672 1_555
O8 Sn3 2.321679 1_555
O9 Si1 1.655615 1_555
O10 Sn6 2.093872 1_555
O10 Sn1 2.162810 1_555
O11 Sn5 2.139591 1_555
O11 Sn6 2.143369 1_555
O11 Sn4 2.155958 1_555
O12 Sn4 2.167466 1_555
O12 Sn1 2.172481 1_445
O13 Si0 1.655755 1_555
O14 Sn2 2.094421 1_555
O14 Sn1 2.160895 1_455
O15 Sn3 2.167480 1_555
O15 Sn1 2.172439 1_555
