# generated using pymatgen
data_Bi3Au
_symmetry_space_group_name_H-M   'P 1'
_cell_length_a   6.60173000
_cell_length_b   6.60173000
_cell_length_c   23.46076800
_cell_angle_alpha   90.00000000
_cell_angle_beta   90.00000000
_cell_angle_gamma   90.00000000
_symmetry_Int_Tables_number   1
_chemical_formula_structural   Bi3Au
_chemical_formula_sum   'Bi24 Au8'
_cell_volume   1022.48687439
_cell_formula_units_Z   8
loop_
 _symmetry_equiv_pos_site_id
 _symmetry_equiv_pos_as_xyz
  1  'x, y, z'
loop_
 _atom_site_type_symbol
 _atom_site_label
 _atom_site_symmetry_multiplicity
 _atom_site_fract_x
 _atom_site_fract_y
 _atom_site_fract_z
 _atom_site_occupancy
  Bi  Bi0_0  1  0.00000000  0.00000000  0.11606900  1
  Bi  Bi0_1  1  0.00000000  0.00000000  0.61606900  1
  Bi  Bi0_2  1  0.00000000  0.50000000  0.11606900  1
  Bi  Bi0_3  1  0.00000000  0.50000000  0.61606900  1
  Bi  Bi0_4  1  0.50000000  0.00000000  0.11606900  1
  Bi  Bi0_5  1  0.50000000  0.00000000  0.61606900  1
  Bi  Bi0_6  1  0.50000000  0.50000000  0.11606900  1
  Bi  Bi0_7  1  0.50000000  0.50000000  0.61606900  1
  Bi  Bi1_0  1  0.00000000  0.00000000  0.25000000  1
  Bi  Bi1_1  1  0.00000000  0.00000000  0.75000000  1
  Bi  Bi1_2  1  0.00000000  0.50000000  0.25000000  1
  Bi  Bi1_3  1  0.00000000  0.50000000  0.75000000  1
  Bi  Bi1_4  1  0.50000000  0.00000000  0.25000000  1
  Bi  Bi1_5  1  0.50000000  0.00000000  0.75000000  1
  Bi  Bi1_6  1  0.50000000  0.50000000  0.25000000  1
  Bi  Bi1_7  1  0.50000000  0.50000000  0.75000000  1
  Bi  Bi2_0  1  0.00000000  0.00000000  0.38393100  1
  Bi  Bi2_1  1  0.00000000  0.00000000  0.88393100  1
  Bi  Bi2_2  1  0.00000000  0.50000000  0.38393100  1
  Bi  Bi2_3  1  0.00000000  0.50000000  0.88393100  1
  Bi  Bi2_4  1  0.50000000  0.00000000  0.38393100  1
  Bi  Bi2_5  1  0.50000000  0.00000000  0.88393100  1
  Bi  Bi2_6  1  0.50000000  0.50000000  0.38393100  1
  Bi  Bi2_7  1  0.50000000  0.50000000  0.88393100  1
  Au  Au0_0  1  0.00000000  0.00000000  0.00000000  1
  Au  Au0_1  1  0.00000000  0.00000000  0.50000000  1
  Au  Au0_2  1  0.00000000  0.50000000  0.00000000  1
  Au  Au0_3  1  0.00000000  0.50000000  0.50000000  1
  Au  Au0_4  1  0.50000000  0.00000000  0.00000000  1
  Au  Au0_5  1  0.50000000  0.00000000  0.50000000  1
  Au  Au0_6  1  0.50000000  0.50000000  0.00000000  1
  Au  Au0_7  1  0.50000000  0.50000000  0.50000000  1
loop_
_geom_bond_atom_site_label_1
_geom_bond_atom_site_label_2
_geom_bond_distance
_geom_bond_site_symmetry_2
Bi0_0 Bi1_0 3.142124 1_555
Bi0_1 Bi1_1 3.142124 1_555
Bi0_2 Bi1_2 3.142124 1_555
Bi0_3 Bi1_3 3.142124 1_555
Bi0_4 Bi1_4 3.142124 1_555
Bi0_5 Bi1_5 3.142124 1_555
Bi0_6 Bi1_6 3.142124 1_555
Bi0_7 Bi1_7 3.142124 1_555
Bi1_0 Bi2_0 3.142124 1_555
Bi1_0 Bi1_4 3.300865 1_555
Bi1_0 Bi1_2 3.300865 1_545
Bi1_0 Bi1_2 3.300865 1_555
Bi1_0 Bi1_4 3.300865 1_455
Bi1_1 Bi2_1 3.142124 1_555
Bi1_1 Bi1_5 3.300865 1_455
Bi1_1 Bi1_3 3.300865 1_545
Bi1_1 Bi1_3 3.300865 1_555
Bi1_1 Bi1_5 3.300865 1_555
Bi1_2 Bi2_2 3.142124 1_555
Bi1_2 Bi1_6 3.300865 1_455
Bi1_2 Bi1_6 3.300865 1_555
Bi1_3 Bi2_3 3.142124 1_555
Bi1_3 Bi1_7 3.300865 1_555
Bi1_3 Bi1_7 3.300865 1_455
Bi1_4 Bi2_4 3.142124 1_555
Bi1_4 Bi1_6 3.300865 1_545
Bi1_4 Bi1_6 3.300865 1_555
Bi1_5 Bi2_5 3.142124 1_555
Bi1_5 Bi1_7 3.300865 1_555
Bi1_5 Bi1_7 3.300865 1_545
Bi1_6 Bi2_6 3.142124 1_555
Bi1_7 Bi2_7 3.142124 1_555
Au0_0 Bi0_0 2.723068 1_555
Au0_0 Bi2_1 2.723068 1_554
Au0_1 Bi0_1 2.723068 1_555
Au0_1 Bi2_0 2.723068 1_555
Au0_2 Bi0_2 2.723068 1_555
Au0_2 Bi2_3 2.723068 1_554
Au0_3 Bi0_3 2.723068 1_555
Au0_3 Bi2_2 2.723068 1_555
Au0_4 Bi0_4 2.723068 1_555
Au0_4 Bi2_5 2.723068 1_554
Au0_5 Bi0_5 2.723068 1_555
Au0_5 Bi2_4 2.723068 1_555
Au0_6 Bi0_6 2.723068 1_555
Au0_6 Bi2_7 2.723068 1_554
Au0_7 Bi0_7 2.723068 1_555
Au0_7 Bi2_6 2.723068 1_555
