# generated using pymatgen
data_Ti4O3
_symmetry_space_group_name_H-M   'P 1'
_cell_length_a   5.09627156
_cell_length_b   5.09627156
_cell_length_c   5.09627156
_cell_angle_alpha   130.47814200
_cell_angle_beta   130.47814200
_cell_angle_gamma   72.64352450
_symmetry_Int_Tables_number   1
_chemical_formula_structural   Ti4O3
_chemical_formula_sum   'Ti4 O3'
_cell_volume   74.82979348
_cell_formula_units_Z   1
loop_
 _symmetry_equiv_pos_site_id
 _symmetry_equiv_pos_as_xyz
  1  'x, y, z'
loop_
 _atom_site_type_symbol
 _atom_site_label
 _atom_site_symmetry_multiplicity
 _atom_site_fract_x
 _atom_site_fract_y
 _atom_site_fract_z
 _atom_site_occupancy
  Ti  Ti0  1  -0.00000000  0.50000000  0.50000000  1
  Ti  Ti1  1  0.27258871  0.27258871  -0.00000000  1
  Ti  Ti2  1  0.50000000  -0.00000000  0.50000000  1
  Ti  Ti3  1  0.72741129  0.72741129  0.00000000  1
  O  O0  1  0.75000000  0.25000000  0.50000000  1
  O  O1  1  -0.00000000  -0.00000000  -0.00000000  1
  O  O2  1  0.25000000  0.75000000  0.50000000  1
loop_
_geom_bond_atom_site_label_1
_geom_bond_atom_site_label_2
_geom_bond_distance
_geom_bond_site_symmetry_2
O0 Ti0 2.053042 1_655
O0 Ti2 2.053042 1_555
O0 Ti3 2.142532 1_545
O0 Ti3 2.142532 1_556
O0 Ti1 2.142532 1_656
O0 Ti1 2.142532 1_555
O1 Ti0 2.134486 1_544
O1 Ti0 2.134486 1_555
O1 Ti2 2.134486 1_454
O1 Ti2 2.134486 1_555
O1 Ti3 2.238544 1_445
O1 Ti1 2.238544 1_555
O2 Ti2 2.053042 1_565
O2 Ti0 2.053042 1_555
O2 Ti1 2.142532 1_566
O2 Ti3 2.142532 1_455
O2 Ti3 2.142532 1_556
O2 Ti1 2.142532 1_555
