# generated using pymatgen
data_Ba2PrNb(CuO4)2
_symmetry_space_group_name_H-M   'P 1'
_cell_length_a   12.89135970
_cell_length_b   12.89135970
_cell_length_c   12.89135970
_cell_angle_alpha   154.67247582
_cell_angle_beta   154.67247582
_cell_angle_gamma   36.12290323
_symmetry_Int_Tables_number   1
_chemical_formula_structural   Ba2PrNb(CuO4)2
_chemical_formula_sum   'Ba4 Pr2 Nb2 Cu4 O16'
_cell_volume   391.56830070
_cell_formula_units_Z   2
loop_
 _symmetry_equiv_pos_site_id
 _symmetry_equiv_pos_as_xyz
  1  'x, y, z'
loop_
 _atom_site_type_symbol
 _atom_site_label
 _atom_site_symmetry_multiplicity
 _atom_site_fract_x
 _atom_site_fract_y
 _atom_site_fract_z
 _atom_site_occupancy
  Ba  Ba0  1  0.90150400  0.40150400  0.50000000  1
  Ba  Ba1  1  0.40150400  0.90150400  0.50000000  1
  Ba  Ba2  1  0.09849600  0.59849600  0.50000000  1
  Ba  Ba3  1  0.59849600  0.09849600  0.50000000  1
  Pr  Pr0  1  0.75000000  0.25000000  0.50000000  1
  Pr  Pr1  1  0.25000000  0.75000000  0.50000000  1
  Nb  Nb0  1  0.50000000  0.50000000  0.00000000  1
  Nb  Nb1  1  0.00000000  0.00000000  0.00000000  1
  Cu  Cu0  1  0.32059900  0.32059900  0.00000000  1
  Cu  Cu1  1  0.82059900  0.82059900  0.00000000  1
  Cu  Cu2  1  0.67940100  0.67940100  0.00000000  1
  Cu  Cu3  1  0.17940100  0.17940100  0.00000000  1
  O  O0  1  0.29060900  0.79060900  0.08121700  1
  O  O1  1  0.70939100  0.20939100  0.91878300  1
  O  O2  1  0.79060900  0.70939100  0.50000000  1
  O  O3  1  0.20939100  0.29060900  0.50000000  1
  O  O4  1  0.41840400  0.41840400  0.00000000  1
  O  O5  1  0.91840400  0.91840400  0.00000000  1
  O  O6  1  0.58159600  0.58159600  0.00000000  1
  O  O7  1  0.08159600  0.08159600  0.00000000  1
  O  O8  1  0.06167100  0.56167100  0.99681400  1
  O  O9  1  0.56485600  0.06485600  0.00318600  1
  O  O10  1  0.56167100  0.56485600  0.50000000  1
  O  O11  1  0.06485600  0.06167100  0.50000000  1
  O  O12  1  0.93832900  0.43832900  0.00318600  1
  O  O13  1  0.43514400  0.93514400  0.99681400  1
  O  O14  1  0.43832900  0.43514400  0.50000000  1
  O  O15  1  0.93514400  0.93832900  0.50000000  1
loop_
_geom_bond_atom_site_label_1
_geom_bond_atom_site_label_2
_geom_bond_distance
_geom_bond_site_symmetry_2
Ba0 O5 2.856361 1_556
Ba0 O4 2.856361 1_656
Ba0 O5 2.856361 1_545
Ba0 O4 2.856361 1_555
Ba0 O8 2.936200 1_655
Ba0 O9 2.936218 1_555
Ba0 O2 2.937804 1_555
Ba0 O3 2.937804 1_655
Ba0 O10 2.953489 1_555
Ba0 O11 2.953489 1_655
Ba1 O5 2.856361 1_556
Ba1 O4 2.856361 1_566
Ba1 O5 2.856361 1_455
Ba1 O4 2.856361 1_555
Ba1 O10 2.936211 1_555
Ba1 O11 2.936211 1_565
Ba1 O1 2.937797 1_565
Ba1 O0 2.937817 1_555
Ba1 O8 2.953482 1_554
Ba1 O9 2.953500 1_566
Ba2 O7 2.856361 1_566
Ba2 O7 2.856361 1_555
Ba2 O6 2.856361 1_455
Ba2 O6 2.856361 1_556
Ba2 O12 2.936200 1_455
Ba2 O13 2.936218 1_555
Ba2 O3 2.937804 1_555
Ba2 O2 2.937804 1_455
Ba2 O15 2.953489 1_455
Ba2 O14 2.953489 1_555
Ba3 O6 2.856361 1_545
Ba3 O7 2.856361 1_656
Ba3 O6 2.856361 1_556
Ba3 O7 2.856361 1_555
Ba3 O15 2.936211 1_545
Ba3 O14 2.936211 1_555
Ba3 O0 2.937797 1_545
Ba3 O1 2.937817 1_555
Ba3 O12 2.953482 1_556
Ba3 O13 2.953500 1_544
Nb0 O4 2.000103 1_555
Nb0 O6 2.000103 1_555
Nb0 O1 2.024590 1_554
Nb0 O0 2.024590 1_555
Nb0 O3 2.024591 1_554
Nb0 O2 2.024591 1_555
Nb1 O5 2.000103 1_445
Nb1 O7 2.000103 1_555
Nb1 O1 2.024590 1_454
Nb1 O0 2.024590 1_545
Nb1 O3 2.024591 1_555
Nb1 O2 2.024591 1_444
Cu0 O8 2.006511 1_554
Cu0 O10 2.006512 1_555
Cu0 O11 2.006512 1_554
Cu0 O9 2.006513 1_555
Cu0 O4 2.397422 1_555
Cu1 O8 2.006511 1_654
Cu1 O11 2.006512 1_665
Cu1 O10 2.006512 1_554
Cu1 O9 2.006513 1_565
Cu1 O5 2.397422 1_555
Cu2 O12 2.006511 1_555
Cu2 O15 2.006512 1_555
Cu2 O14 2.006512 1_554
Cu2 O13 2.006513 1_554
Cu2 O6 2.397422 1_555
Cu3 O12 2.006511 1_455
Cu3 O15 2.006512 1_444
Cu3 O14 2.006512 1_555
Cu3 O13 2.006513 1_544
Cu3 O7 2.397422 1_555
O8 Pr0 2.519458 1_455
O8 Pr1 2.539578 1_556
O9 Pr0 2.519443 1_555
O9 Pr1 2.539564 1_544
O10 Pr1 2.519454 1_555
O10 Pr0 2.539568 1_555
O11 Pr1 2.519454 1_545
O11 Pr0 2.539568 1_455
O12 Pr1 2.519458 1_655
O12 Pr0 2.539578 1_554
O13 Pr1 2.519443 1_555
O13 Pr0 2.539564 1_566
O14 Pr0 2.519454 1_555
O14 Pr1 2.539568 1_555
O15 Pr0 2.519454 1_565
O15 Pr1 2.539568 1_655
