# generated using pymatgen
data_Li9Mn2Co5O16
_symmetry_space_group_name_H-M   'P 1'
_cell_length_a   5.75164700
_cell_length_b   6.68080252
_cell_length_c   7.75413315
_cell_angle_alpha   85.22408213
_cell_angle_beta   79.65438931
_cell_angle_gamma   77.68324238
_symmetry_Int_Tables_number   1
_chemical_formula_structural   Li9Mn2Co5O16
_chemical_formula_sum   'Li9 Mn2 Co5 O16'
_cell_volume   286.05338580
_cell_formula_units_Z   1
loop_
 _symmetry_equiv_pos_site_id
 _symmetry_equiv_pos_as_xyz
  1  'x, y, z'
loop_
 _atom_site_type_symbol
 _atom_site_label
 _atom_site_symmetry_multiplicity
 _atom_site_fract_x
 _atom_site_fract_y
 _atom_site_fract_z
 _atom_site_occupancy
  Li  Li0  1  0.81148100  0.61600000  0.13793500  1
  Li  Li1  1  0.93983600  0.88008500  0.37725600  1
  Li  Li2  1  0.68885600  0.36995200  0.87211200  1
  Li  Li3  1  0.56343300  0.13132900  0.61571300  1
  Li  Li4  1  0.43279300  0.87546100  0.37996700  1
  Li  Li5  1  0.31163900  0.62166700  0.13423800  1
  Li  Li6  1  0.18858900  0.37412700  0.87539400  1
  Li  Li7  1  0.06586600  0.13225100  0.60731800  1
  Li  Li8  1  0.12492100  0.25024200  0.25236100  1
  Mn  Mn0  1  0.99922200  0.00421900  0.00314600  1
  Mn  Mn1  1  0.49607600  0.00257500  0.00361600  1
  Co  Co0  1  0.25405000  0.49302400  0.49456700  1
  Co  Co1  1  0.37473400  0.75005200  0.74737000  1
  Co  Co2  1  0.62462000  0.24801500  0.25193600  1
  Co  Co3  1  0.75479400  0.49214000  0.49507300  1
  Co  Co4  1  0.87395300  0.74633900  0.74315900  1
  O  O0  1  0.72800400  0.92972700  0.16339300  1
  O  O1  1  0.82727900  0.20099800  0.42827400  1
  O  O2  1  0.57745300  0.71210000  0.92600400  1
  O  O3  1  0.47061900  0.44787300  0.67530100  1
  O  O4  1  0.35901700  0.20215100  0.42693100  1
  O  O5  1  0.22289600  0.94008300  0.16580700  1
  O  O6  1  0.09409600  0.71246600  0.92389800  1
  O  O7  1  0.96862600  0.44847700  0.68756000  1
  O  O8  1  0.89780900  0.28160100  0.07039800  1
  O  O9  1  0.02449400  0.56729300  0.33321000  1
  O  O10  1  0.77817700  0.04847300  0.83176700  1
  O  O11  1  0.65076600  0.80858000  0.57972200  1
  O  O12  1  0.53228900  0.55927100  0.31432900  1
  O  O13  1  0.42554300  0.28084000  0.06885000  1
  O  O14  1  0.27371300  0.06430200  0.83718700  1
  O  O15  1  0.16435600  0.80828800  0.57621000  1
loop_
_geom_bond_atom_site_label_1
_geom_bond_atom_site_label_2
_geom_bond_distance
_geom_bond_site_symmetry_2
Li0 O12 1.994379 1_555
Li0 O0 2.065917 1_555
Li0 O9 2.076990 1_655
Li0 O6 2.260965 1_654
Li0 O8 2.267148 1_555
Li0 O2 2.274800 1_554
Li1 O9 2.084611 1_655
Li1 O15 2.146093 1_655
Li1 O1 2.151570 1_565
Li1 O5 2.170200 1_655
Li1 O11 2.175713 1_555
Li1 O0 2.192305 1_555
Li2 O7 2.078577 1_555
Li2 O8 2.089671 1_556
Li2 O13 2.092593 1_556
Li2 O3 2.110099 1_555
Li2 O10 2.134946 1_555
Li2 O2 2.290896 1_555
Li3 O4 2.003630 1_555
Li3 O1 2.007122 1_555
Li3 O3 2.136163 1_555
Li3 O11 2.137116 1_545
Li3 O10 2.221650 1_555
Li3 O14 2.255881 1_555
Li4 O15 2.058832 1_555
Li4 O11 2.124578 1_555
Li4 O12 2.146500 1_555
Li4 O4 2.181270 1_565
Li4 O5 2.186285 1_555
Li4 O0 2.229743 1_555
Li5 O12 2.012053 1_555
Li5 O5 2.103412 1_555
Li5 O9 2.118354 1_555
Li5 O2 2.157452 1_554
Li5 O6 2.199578 1_554
Li5 O13 2.303804 1_555
Li6 O14 2.056585 1_555
Li6 O7 2.059601 1_455
Li6 O3 2.142678 1_555
Li6 O13 2.170793 1_556
Li6 O8 2.200627 1_456
Li6 O6 2.256140 1_555
Li7 O1 2.081042 1_455
Li7 O4 2.097041 1_555
Li7 O15 2.139674 1_545
Li7 O7 2.180139 1_455
Li7 O14 2.282838 1_555
Li7 O10 2.297571 1_455
Li8 O4 2.036198 1_555
Li8 O1 2.055825 1_455
Li8 O8 2.058412 1_455
Li8 O13 2.067599 1_555
Li8 O5 2.158520 1_545
Li8 O9 2.186853 1_555
Mn0 O8 1.907037 1_555
Mn0 O5 1.920200 1_645
Mn0 O0 1.938336 1_545
Mn0 O14 1.940185 1_654
Mn0 O10 1.962346 1_554
Mn0 O6 2.024791 1_644
Mn1 O13 1.907243 1_555
Mn1 O5 1.925475 1_545
Mn1 O14 1.936591 1_554
Mn1 O0 1.941005 1_545
Mn1 O10 1.967231 1_554
Mn1 O2 2.013205 1_544
Co0 O9 1.940459 1_555
Co0 O4 1.992808 1_555
Co0 O3 2.000725 1_555
Co0 O12 2.026339 1_555
Co0 O7 2.067607 1_455
Co0 O15 2.178125 1_555
Co1 O15 1.914927 1_555
Co1 O2 1.933361 1_555
Co1 O11 1.949954 1_555
Co1 O6 1.965771 1_555
Co1 O3 2.072235 1_555
Co1 O14 2.192718 1_565
Co2 O4 1.911758 1_555
Co2 O1 1.916171 1_555
Co2 O13 1.949235 1_555
Co2 O8 1.950439 1_555
Co2 O12 2.108144 1_555
Co2 O0 2.214419 1_545
Co3 O9 1.939515 1_655
Co3 O1 1.992388 1_555
Co3 O3 2.007235 1_555
Co3 O12 2.024319 1_555
Co3 O7 2.063793 1_555
Co3 O11 2.192828 1_555
Co4 O11 1.922417 1_555
Co4 O7 2.009615 1_555
Co4 O15 2.016458 1_655
Co4 O6 2.020115 1_655
Co4 O2 2.052986 1_555
Co4 O10 2.114350 1_565
