# generated using pymatgen
data_RbSNO
_symmetry_space_group_name_H-M   'P 1'
_cell_length_a   6.68618100
_cell_length_b   7.62374500
_cell_length_c   8.37001400
_cell_angle_alpha   90.00000000
_cell_angle_beta   90.00000000
_cell_angle_gamma   90.00000000
_symmetry_Int_Tables_number   1
_chemical_formula_structural   RbSNO
_chemical_formula_sum   'Rb4 S4 N4 O4'
_cell_volume   426.65090879
_cell_formula_units_Z   4
loop_
 _symmetry_equiv_pos_site_id
 _symmetry_equiv_pos_as_xyz
  1  'x, y, z'
loop_
 _atom_site_type_symbol
 _atom_site_label
 _atom_site_symmetry_multiplicity
 _atom_site_fract_x
 _atom_site_fract_y
 _atom_site_fract_z
 _atom_site_occupancy
  Rb  Rb0  1  0.24915500  0.35699100  0.64215600  1
  Rb  Rb1  1  0.25084500  0.14300900  0.14215600  1
  Rb  Rb2  1  0.74915500  0.64300900  0.35784400  1
  Rb  Rb3  1  0.75084500  0.85699100  0.85784400  1
  S  S0  1  0.24769900  0.83708600  0.60885700  1
  S  S1  1  0.25230100  0.66291400  0.10885700  1
  S  S2  1  0.74769900  0.16291400  0.39114300  1
  S  S3  1  0.75230100  0.33708600  0.89114300  1
  N  N0  1  0.05648200  0.73969600  0.60924000  1
  N  N1  1  0.44351800  0.76030400  0.10924000  1
  N  N2  1  0.55648200  0.26030400  0.39076000  1
  N  N3  1  0.94351800  0.23969600  0.89076000  1
  O  O0  1  0.94647800  0.26005200  0.39003000  1
  O  O1  1  0.55352200  0.23994800  0.89003000  1
  O  O2  1  0.44647800  0.73994800  0.60997000  1
  O  O3  1  0.05352200  0.76005200  0.10997000  1
loop_
_geom_bond_atom_site_label_1
_geom_bond_atom_site_label_2
_geom_bond_distance
_geom_bond_site_symmetry_2
N0 S0 1.478470 1_555
N0 Rb2 3.032051 1_455
N0 Rb3 3.050496 1_455
N0 Rb0 3.201271 1_555
N1 S1 1.478470 1_555
N1 Rb3 3.032051 1_554
N1 Rb2 3.050496 1_555
N1 Rb1 3.201271 1_565
N2 S2 1.478470 1_555
N2 Rb0 3.032051 1_555
N2 Rb1 3.050496 1_555
N2 Rb2 3.201271 1_555
N3 S3 1.478470 1_555
N3 Rb1 3.032051 1_656
N3 Rb0 3.050496 1_655
N3 Rb3 3.201271 1_545
O0 S2 1.521493 1_555
O0 Rb0 3.015810 1_655
O0 Rb1 3.040077 1_655
O0 Rb2 3.215135 1_555
O1 S3 1.521493 1_555
O1 Rb1 3.015810 1_556
O1 Rb0 3.040077 1_555
O1 Rb3 3.215135 1_545
O2 S0 1.521493 1_555
O2 Rb2 3.015810 1_555
O2 Rb3 3.040077 1_555
O2 Rb0 3.215135 1_555
O3 S1 1.521493 1_555
O3 Rb3 3.015810 1_454
O3 Rb2 3.040077 1_455
O3 Rb1 3.215135 1_565
