# generated using pymatgen
data_Mg(NiS2)4
_symmetry_space_group_name_H-M   'P 1'
_cell_length_a   6.84465757
_cell_length_b   6.84465757
_cell_length_c   6.84465761
_cell_angle_alpha   60.08018775
_cell_angle_beta   60.08018775
_cell_angle_gamma   60.08018900
_symmetry_Int_Tables_number   1
_chemical_formula_structural   Mg(NiS2)4
_chemical_formula_sum   'Mg1 Ni4 S8'
_cell_volume   227.15831663
_cell_formula_units_Z   1
loop_
 _symmetry_equiv_pos_site_id
 _symmetry_equiv_pos_as_xyz
  1  'x, y, z'
loop_
 _atom_site_type_symbol
 _atom_site_label
 _atom_site_symmetry_multiplicity
 _atom_site_fract_x
 _atom_site_fract_y
 _atom_site_fract_z
 _atom_site_occupancy
  Mg  Mg0  1  0.00000000  0.00000000  0.00000000  1
  Ni  Ni0  1  0.50000000  0.50000000  0.50000000  1
  Ni  Ni1  1  0.50000000  0.50000000  0.00000000  1
  Ni  Ni2  1  0.50000000  0.00000000  0.50000000  1
  Ni  Ni3  1  0.00000000  0.50000000  0.50000000  1
  S  S0  1  0.73885500  0.29134400  0.73885500  1
  S  S1  1  0.73885500  0.73885500  0.29134400  1
  S  S2  1  0.29134400  0.73885500  0.73885500  1
  S  S3  1  0.73613300  0.73613300  0.73613300  1
  S  S4  1  0.26386700  0.26386700  0.26386700  1
  S  S5  1  0.26114500  0.26114500  0.70865600  1
  S  S6  1  0.70865600  0.26114500  0.26114500  1
  S  S7  1  0.26114500  0.70865600  0.26114500  1
loop_
_geom_bond_atom_site_label_1
_geom_bond_atom_site_label_2
_geom_bond_distance
_geom_bond_site_symmetry_2
Mg0 S5 2.538150 1_554
Mg0 S1 2.538150 1_445
Mg0 S7 2.538150 1_545
Mg0 S6 2.538150 1_455
Mg0 S2 2.538150 1_544
Mg0 S0 2.538150 1_454
Ni0 S1 2.322335 1_555
Ni0 S5 2.322335 1_555
Ni0 S0 2.322335 1_555
Ni0 S2 2.322335 1_555
Ni0 S6 2.322335 1_555
Ni0 S7 2.322335 1_555
Ni1 S6 2.282474 1_555
Ni1 S7 2.282474 1_555
Ni1 S2 2.282474 1_554
Ni1 S0 2.282474 1_554
Ni1 S3 2.295296 1_554
Ni1 S4 2.295296 1_555
Ni2 S6 2.282474 1_555
Ni2 S2 2.282474 1_545
Ni2 S5 2.282474 1_555
Ni2 S1 2.282474 1_545
Ni2 S3 2.295296 1_545
Ni2 S4 2.295296 1_555
Ni3 S7 2.282474 1_555
Ni3 S0 2.282474 1_455
Ni3 S5 2.282474 1_555
Ni3 S1 2.282474 1_455
Ni3 S3 2.295296 1_455
Ni3 S4 2.295296 1_555
