# generated using pymatgen
data_Er3(In2Co)2
_symmetry_space_group_name_H-M   'P 1'
_cell_length_a   7.81628213
_cell_length_b   7.81628073
_cell_length_c   3.58335848
_cell_angle_alpha   90.00000000
_cell_angle_beta   90.00000000
_cell_angle_gamma   120.00008331
_symmetry_Int_Tables_number   1
_chemical_formula_structural   Er3(In2Co)2
_chemical_formula_sum   'Er3 In4 Co2'
_cell_volume   189.59238974
_cell_formula_units_Z   1
loop_
 _symmetry_equiv_pos_site_id
 _symmetry_equiv_pos_as_xyz
  1  'x, y, z'
loop_
 _atom_site_type_symbol
 _atom_site_label
 _atom_site_symmetry_multiplicity
 _atom_site_fract_x
 _atom_site_fract_y
 _atom_site_fract_z
 _atom_site_occupancy
  Er  Er0  1  0.70484206  0.95433532  0.50000000  1
  Er  Er1  1  0.24949326  0.29515794  0.50000000  1
  Er  Er2  1  0.04566568  0.75050674  0.50000000  1
  In  In0  1  0.92297178  0.33472547  -0.00000000  1
  In  In1  1  0.41175369  0.07702722  -0.00000000  1
  In  In2  1  0.66527453  0.58824631  0.00000000  1
  In  In3  1  0.33333300  0.66666700  0.00000000  1
  Co  Co0  1  0.66666700  0.33333300  0.50000000  1
  Co  Co1  1  -0.00000000  0.99999900  -0.00000000  1
loop_
_geom_bond_atom_site_label_1
_geom_bond_atom_site_label_2
_geom_bond_distance
_geom_bond_site_symmetry_2
Er0 In0 3.144499 1_565
Er0 In0 3.144499 1_566
Er0 In3 3.188852 1_556
Er0 In3 3.188852 1_555
Er0 In2 3.257103 1_556
Er0 In2 3.257103 1_555
Er0 In1 3.402170 1_566
Er0 In1 3.402170 1_565
Er1 In1 3.144508 1_555
Er1 In1 3.144508 1_556
Er1 In3 3.188855 1_556
Er1 In3 3.188855 1_555
Er1 In0 3.257104 1_455
Er1 In0 3.257104 1_456
Er1 In2 3.402171 1_556
Er1 In2 3.402171 1_555
Er2 In2 3.144506 1_456
Er2 In2 3.144506 1_455
Er2 In3 3.188844 1_556
Er2 In3 3.188844 1_555
Er2 In1 3.257094 1_566
Er2 In1 3.257094 1_565
Er2 In0 3.402171 1_455
Er2 In0 3.402171 1_456
In0 In3 2.949186 1_655
In1 In3 2.949178 1_545
In2 In3 2.949195 1_555
Co0 In0 2.683625 1_555
Co0 In0 2.683625 1_556
Co0 In1 2.683629 1_555
Co0 In1 2.683629 1_556
Co0 In2 2.683630 1_556
Co0 In2 2.683630 1_555
Co0 Er0 3.122258 1_545
Co0 Er2 3.122262 1_655
Co0 Er1 3.122266 1_555
Co1 Er2 2.799371 1_555
Co1 Er2 2.799371 1_554
Co1 Er1 2.799374 1_564
Co1 Er1 2.799374 1_565
Co1 Er0 2.799375 1_455
Co1 Er0 2.799375 1_454
Co1 In2 2.963566 1_455
Co1 In1 2.963574 1_565
Co1 In0 2.963583 1_465
