# generated using pymatgen
data_Mg8P8Ir23
_symmetry_space_group_name_H-M   'P 1'
_cell_length_a   3.99531000
_cell_length_b   8.61288700
_cell_length_c   17.05325325
_cell_angle_alpha   89.95505911
_cell_angle_beta   90.00000000
_cell_angle_gamma   90.00000000
_symmetry_Int_Tables_number   1
_chemical_formula_structural   Mg8P8Ir23
_chemical_formula_sum   'Mg8 P8 Ir23'
_cell_volume   586.82193562
_cell_formula_units_Z   1
loop_
 _symmetry_equiv_pos_site_id
 _symmetry_equiv_pos_as_xyz
  1  'x, y, z'
loop_
 _atom_site_type_symbol
 _atom_site_label
 _atom_site_symmetry_multiplicity
 _atom_site_fract_x
 _atom_site_fract_y
 _atom_site_fract_z
 _atom_site_occupancy
  Mg  Mg0  1  0.50000000  0.70912300  0.29428000  1
  Mg  Mg1  1  0.50000000  0.29087700  0.70572000  1
  Mg  Mg2  1  0.50000000  0.21025100  0.20945600  1
  Mg  Mg3  1  0.50000000  0.78974900  0.79054400  1
  Mg  Mg4  1  0.50000000  0.09324200  0.39300300  1
  Mg  Mg5  1  0.50000000  0.90675800  0.60699700  1
  Mg  Mg6  1  0.50000000  0.59303800  0.10929100  1
  Mg  Mg7  1  0.50000000  0.40696200  0.89070900  1
  P  P0  1  0.00000000  0.25846900  0.31495800  1
  P  P1  1  0.00000000  0.74153100  0.68504200  1
  P  P2  1  0.00000000  0.75666200  0.18727700  1
  P  P3  1  0.00000000  0.24333800  0.81272300  1
  P  P4  1  0.00000000  0.86691400  0.38022500  1
  P  P5  1  0.00000000  0.13308600  0.61977500  1
  P  P6  1  0.00000000  0.36788100  0.12183100  1
  P  P7  1  0.00000000  0.63211900  0.87816900  1
  Ir  Ir0  1  0.50000000  0.40178300  0.34762400  1
  Ir  Ir1  1  0.50000000  0.59821700  0.65237600  1
  Ir  Ir2  1  0.50000000  0.90326000  0.15285100  1
  Ir  Ir3  1  0.50000000  0.09674000  0.84714900  1
  Ir  Ir4  1  0.00000000  0.30931100  0.45129000  1
  Ir  Ir5  1  0.00000000  0.69068900  0.54871000  1
  Ir  Ir6  1  0.00000000  0.80373500  0.05076900  1
  Ir  Ir7  1  0.00000000  0.19626500  0.94923100  1
  Ir  Ir8  1  0.00000000  0.59467600  0.39641000  1
  Ir  Ir9  1  0.00000000  0.40532400  0.60359000  1
  Ir  Ir10  1  0.00000000  0.10098300  0.10396800  1
  Ir  Ir11  1  0.00000000  0.89901700  0.89603200  1
  Ir  Ir12  1  0.50000000  0.78705700  0.45336000  1
  Ir  Ir13  1  0.50000000  0.21294300  0.54664000  1
  Ir  Ir14  1  0.50000000  0.29571200  0.04755900  1
  Ir  Ir15  1  0.50000000  0.70428800  0.95244100  1
  Ir  Ir16  1  0.00000000  0.49946500  0.23844200  1
  Ir  Ir17  1  0.00000000  0.50053500  0.76155800  1
  Ir  Ir18  1  0.00000000  0.99956900  0.26252500  1
  Ir  Ir19  1  0.00000000  0.00043100  0.73747500  1
  Ir  Ir20  1  0.00000000  0.00000000  0.50000000  1
  Ir  Ir21  1  0.00000000  0.50000000  0.00000000  1
  Ir  Ir22  1  0.50000000  0.00000000  0.00000000  1
loop_
_geom_bond_atom_site_label_1
_geom_bond_atom_site_label_2
_geom_bond_distance
_geom_bond_site_symmetry_2
Mg0 P2 2.736204 1_655
Mg0 P2 2.736204 1_555
Mg0 P4 2.826453 1_655
Mg0 P4 2.826453 1_555
Mg1 P3 2.736204 1_555
Mg1 P3 2.736204 1_655
Mg1 P5 2.826453 1_555
Mg1 P5 2.826453 1_655
Mg2 P0 2.720518 1_555
Mg2 P0 2.720518 1_655
Mg2 P6 2.839641 1_655
Mg2 P6 2.839641 1_555
Mg3 P1 2.720518 1_555
Mg3 P1 2.720518 1_655
Mg3 P7 2.839641 1_655
Mg3 P7 2.839641 1_555
Mg4 P0 2.790012 1_555
Mg4 P0 2.790012 1_655
Mg4 P4 2.799766 1_645
Mg4 P4 2.799766 1_545
Mg5 P1 2.790012 1_555
Mg5 P1 2.790012 1_655
Mg5 P5 2.799766 1_565
Mg5 P5 2.799766 1_665
Mg6 P2 2.783576 1_555
Mg6 P2 2.783576 1_655
Mg6 P6 2.792204 1_655
Mg6 P6 2.792204 1_555
Mg7 P3 2.783576 1_555
Mg7 P3 2.783576 1_655
Mg7 P7 2.792204 1_655
Mg7 P7 2.792204 1_555
Ir0 P0 2.413635 1_555
Ir0 P0 2.413635 1_655
Ir0 Ir8 2.728569 1_555
Ir0 Ir8 2.728569 1_655
Ir0 Mg4 2.767230 1_555
Ir0 Ir4 2.783526 1_555
Ir0 Ir4 2.783526 1_655
Ir0 Mg0 2.798359 1_555
Ir0 Ir16 2.857043 1_655
Ir0 Ir16 2.857043 1_555
Ir0 Mg2 2.877354 1_555
Ir1 P1 2.413635 1_655
Ir1 P1 2.413635 1_555
Ir1 Ir9 2.728569 1_555
Ir1 Ir9 2.728569 1_655
Ir1 Mg5 2.767230 1_555
Ir1 Ir5 2.783526 1_555
Ir1 Ir5 2.783526 1_655
Ir1 Mg1 2.798359 1_555
Ir1 Ir17 2.857043 1_555
Ir1 Ir17 2.857043 1_655
Ir1 Mg3 2.877354 1_555
Ir2 P2 2.434822 1_655
Ir2 P2 2.434822 1_555
Ir2 Ir22 2.735915 1_565
Ir2 Mg6 2.773808 1_555
Ir2 Ir6 2.785362 1_655
Ir2 Ir6 2.785362 1_555
Ir2 Mg2 2.815486 1_565
Ir2 Mg0 2.933671 1_555
Ir3 P3 2.434822 1_555
Ir3 P3 2.434822 1_655
Ir3 Mg7 2.773808 1_555
Ir3 Ir7 2.785362 1_655
Ir3 Ir7 2.785362 1_555
Ir3 Mg3 2.815486 1_545
Ir3 Mg1 2.933671 1_555
Ir4 P0 2.366121 1_555
Ir4 Ir8 2.629283 1_555
Ir4 Ir9 2.726301 1_555
Ir4 Mg4 2.905988 1_455
Ir4 Mg4 2.905988 1_555
Ir5 P1 2.366121 1_555
Ir5 Ir9 2.629283 1_555
Ir5 Ir8 2.726301 1_555
Ir5 Mg5 2.905988 1_455
Ir5 Mg5 2.905988 1_555
Ir6 P2 2.362634 1_555
Ir6 Mg6 2.876967 1_455
Ir6 Mg6 2.876967 1_555
Ir7 P3 2.362634 1_555
Ir7 Mg7 2.876967 1_555
Ir7 Mg7 2.876967 1_455
Ir8 P4 2.360729 1_555
Ir8 Mg0 2.827174 1_455
Ir8 Mg0 2.827174 1_555
Ir9 P5 2.360729 1_555
Ir9 Mg1 2.827174 1_455
Ir9 Mg1 2.827174 1_555
Ir10 P6 2.319095 1_555
Ir10 Ir6 2.716822 1_545
Ir10 Ir2 2.753798 1_545
Ir10 Ir2 2.753798 1_445
Ir10 Ir7 2.762821 1_554
Ir10 Ir14 2.779638 1_555
Ir10 Ir14 2.779638 1_455
Ir10 Ir22 2.809452 1_455
Ir10 Ir22 2.809452 1_555
Ir10 Ir18 2.840842 1_545
Ir10 Mg2 2.848695 1_455
Ir10 Mg2 2.848695 1_555
Ir11 P7 2.319095 1_555
Ir11 Ir7 2.716822 1_565
Ir11 Ir3 2.753798 1_465
Ir11 Ir3 2.753798 1_565
Ir11 Ir6 2.762821 1_556
Ir11 Ir15 2.779638 1_455
Ir11 Ir15 2.779638 1_555
Ir11 Ir22 2.809452 1_566
Ir11 Ir22 2.809452 1_466
Ir11 Ir19 2.840842 1_565
Ir11 Mg3 2.848695 1_455
Ir11 Mg3 2.848695 1_555
Ir12 P4 2.453127 1_555
Ir12 P4 2.453127 1_655
Ir12 Ir5 2.705806 1_555
Ir12 Ir5 2.705806 1_655
Ir12 Ir8 2.771615 1_555
Ir12 Ir8 2.771615 1_655
Ir12 Mg0 2.795151 1_555
Ir12 Mg5 2.816309 1_555
Ir12 Ir20 2.826530 1_665
Ir12 Ir20 2.826530 1_565
Ir12 Mg4 2.830134 1_565
Ir13 P5 2.453127 1_555
Ir13 P5 2.453127 1_655
Ir13 Ir4 2.705806 1_555
Ir13 Ir4 2.705806 1_655
Ir13 Ir9 2.771615 1_655
Ir13 Ir9 2.771615 1_555
Ir13 Mg1 2.795151 1_555
Ir13 Mg4 2.816309 1_555
Ir13 Ir20 2.826530 1_555
Ir13 Ir20 2.826530 1_655
Ir13 Mg5 2.830134 1_545
Ir14 P6 2.445905 1_655
Ir14 P6 2.445905 1_555
Ir14 Ir22 2.673554 1_555
Ir14 Ir7 2.745581 1_654
Ir14 Ir7 2.745581 1_554
Ir14 Mg6 2.769540 1_555
Ir14 Ir21 2.782452 1_655
Ir14 Ir21 2.782452 1_555
Ir14 Mg7 2.840540 1_554
Ir14 Mg2 2.856748 1_555
Ir15 P7 2.445905 1_555
Ir15 P7 2.445905 1_655
Ir15 Ir22 2.673554 1_566
Ir15 Ir6 2.745581 1_556
Ir15 Ir6 2.745581 1_656
Ir15 Mg7 2.769540 1_555
Ir15 Ir21 2.782452 1_556
Ir15 Ir21 2.782452 1_656
Ir15 Mg6 2.840540 1_556
Ir15 Mg3 2.856748 1_555
Ir16 P6 2.289643 1_555
Ir16 P2 2.380215 1_555
Ir16 P0 2.450875 1_555
Ir16 Ir8 2.816533 1_555
Ir16 Mg0 2.856714 1_455
Ir16 Mg0 2.856714 1_555
Ir16 Mg6 3.080281 1_455
Ir16 Mg6 3.080281 1_555
Ir16 Mg2 3.231380 1_555
Ir16 Mg2 3.231380 1_455
Ir17 P7 2.289643 1_555
Ir17 P3 2.380215 1_555
Ir17 P1 2.450875 1_555
Ir17 Ir9 2.816533 1_555
Ir17 Mg1 2.856714 1_455
Ir17 Mg1 2.856714 1_555
Ir17 Mg7 3.080281 1_555
Ir17 Mg7 3.080281 1_455
Ir17 Mg3 3.231380 1_555
Ir17 Mg3 3.231380 1_455
Ir18 P4 2.308794 1_555
Ir18 P0 2.403120 1_565
Ir18 P2 2.455175 1_555
Ir18 Mg2 2.846010 1_565
Ir18 Mg2 2.846010 1_465
Ir18 Ir2 2.859920 1_555
Ir18 Ir2 2.859920 1_455
Ir18 Mg4 3.097631 1_465
Ir18 Mg4 3.097631 1_565
Ir18 Mg0 3.246482 1_455
Ir18 Mg0 3.246482 1_555
Ir19 P5 2.308794 1_555
Ir19 P1 2.403120 1_545
Ir19 P3 2.455175 1_555
Ir19 Mg3 2.846010 1_545
Ir19 Mg3 2.846010 1_445
Ir19 Ir3 2.859920 1_555
Ir19 Ir3 2.859920 1_455
Ir19 Mg5 3.097631 1_445
Ir19 Mg5 3.097631 1_545
Ir19 Mg1 3.246482 1_455
Ir19 Mg1 3.246482 1_555
Ir20 P5 2.342989 1_555
Ir20 P4 2.342989 1_545
Ir20 Ir5 2.789937 1_545
Ir20 Ir4 2.789937 1_555
Ir20 Mg5 2.821809 1_445
Ir20 Mg4 2.821809 1_455
Ir20 Mg4 2.821809 1_555
Ir20 Mg5 2.821809 1_545
Ir21 P6 2.368048 1_555
Ir21 P7 2.368048 1_554
Ir21 Ir6 2.756223 1_555
Ir21 Ir7 2.756223 1_554
Ir21 Mg6 2.847581 1_555
Ir21 Mg6 2.847581 1_455
Ir21 Mg7 2.847581 1_554
Ir21 Mg7 2.847581 1_454
Ir22 Ir3 2.735915 1_554
Ir22 Ir7 2.755971 1_554
Ir22 Ir7 2.755971 1_654
Ir22 Ir6 2.755971 1_645
Ir22 Ir6 2.755971 1_545
