# generated using pymatgen
data_NdTa7O19
_symmetry_space_group_name_H-M   'P 1'
_cell_length_a   6.31078687
_cell_length_b   6.31078687
_cell_length_c   20.21671900
_cell_angle_alpha   90.00000000
_cell_angle_beta   90.00000000
_cell_angle_gamma   120.00000913
_symmetry_Int_Tables_number   1
_chemical_formula_structural   NdTa7O19
_chemical_formula_sum   'Nd2 Ta14 O38'
_cell_volume   697.28174140
_cell_formula_units_Z   2
loop_
 _symmetry_equiv_pos_site_id
 _symmetry_equiv_pos_as_xyz
  1  'x, y, z'
loop_
 _atom_site_type_symbol
 _atom_site_label
 _atom_site_symmetry_multiplicity
 _atom_site_fract_x
 _atom_site_fract_y
 _atom_site_fract_z
 _atom_site_occupancy
  Nd  Nd0  1  0.33333300  0.66666700  0.75000000  1
  Nd  Nd1  1  0.66666700  0.33333300  0.25000000  1
  Ta  Ta0  1  0.35854000  0.35496100  0.59440500  1
  Ta  Ta1  1  0.64503900  0.00357900  0.59440500  1
  Ta  Ta2  1  0.99642100  0.64146000  0.59440500  1
  Ta  Ta3  1  0.64503900  0.64146000  0.90559500  1
  Ta  Ta4  1  0.35854000  0.00357900  0.90559500  1
  Ta  Ta5  1  0.99642100  0.35496100  0.90559500  1
  Ta  Ta6  1  0.64146000  0.64503900  0.09440500  1
  Ta  Ta7  1  0.35496100  0.99642100  0.09440500  1
  Ta  Ta8  1  0.00357900  0.35854000  0.09440500  1
  Ta  Ta9  1  0.35496100  0.35854000  0.40559500  1
  Ta  Ta10  1  0.64146000  0.99642100  0.40559500  1
  Ta  Ta11  1  0.00357900  0.64503900  0.40559500  1
  Ta  Ta12  1  0.66666700  0.33333300  0.75000000  1
  Ta  Ta13  1  0.33333300  0.66666700  0.25000000  1
  O  O0  1  0.33333300  0.66666700  0.61326200  1
  O  O1  1  0.66666700  0.33333300  0.58938900  1
  O  O2  1  0.66666700  0.33333300  0.91061100  1
  O  O3  1  0.33333300  0.66666700  0.88673800  1
  O  O4  1  0.66666700  0.33333300  0.11326200  1
  O  O5  1  0.33333300  0.66666700  0.08938900  1
  O  O6  1  0.33333300  0.66666700  0.41061100  1
  O  O7  1  0.66666700  0.33333300  0.38673800  1
  O  O8  1  0.38269600  0.43175800  0.30643800  1
  O  O9  1  0.56824200  0.95093800  0.30643800  1
  O  O10  1  0.04906200  0.61730400  0.30643800  1
  O  O11  1  0.56824200  0.61730400  0.19356200  1
  O  O12  1  0.38269600  0.95093800  0.19356200  1
  O  O13  1  0.04906200  0.43175800  0.19356200  1
  O  O14  1  0.61730400  0.56824200  0.80643800  1
  O  O15  1  0.43175800  0.04906200  0.80643800  1
  O  O16  1  0.95093800  0.38269600  0.80643800  1
  O  O17  1  0.43175800  0.38269600  0.69356200  1
  O  O18  1  0.61730400  0.04906200  0.69356200  1
  O  O19  1  0.95093800  0.56824200  0.69356200  1
  O  O20  1  0.00251000  0.24370900  0.59709400  1
  O  O21  1  0.75629100  0.75880100  0.59709400  1
  O  O22  1  0.24119900  0.99749000  0.59709400  1
  O  O23  1  0.00251000  0.75880100  0.90290600  1
  O  O24  1  0.24119900  0.24370900  0.90290600  1
  O  O25  1  0.75629100  0.99749000  0.90290600  1
  O  O26  1  0.99749000  0.75629100  0.09709400  1
  O  O27  1  0.24370900  0.24119900  0.09709400  1
  O  O28  1  0.75880100  0.00251000  0.09709400  1
  O  O29  1  0.99749000  0.24119900  0.40290600  1
  O  O30  1  0.75880100  0.75629100  0.40290600  1
  O  O31  1  0.24370900  0.00251000  0.40290600  1
  O  O32  1  0.39379900  0.39379900  0.50000000  1
  O  O33  1  0.60620100  0.00000000  0.50000000  1
  O  O34  1  0.00000000  0.60620100  0.50000000  1
  O  O35  1  0.60620100  0.60620100  0.00000000  1
  O  O36  1  0.39379900  0.00000000  0.00000000  1
  O  O37  1  0.00000000  0.39379900  0.00000000  1
loop_
_geom_bond_atom_site_label_1
_geom_bond_atom_site_label_2
_geom_bond_distance
_geom_bond_site_symmetry_2
Nd0 O15 2.452006 1_565
Nd0 O19 2.452006 1_455
Nd0 O18 2.452007 1_565
Nd0 O16 2.452007 1_455
Nd0 O14 2.452011 1_555
Nd0 O17 2.452011 1_555
Nd0 O0 2.764394 1_555
Nd0 O3 2.764394 1_555
Nd1 O13 2.452006 1_655
Nd1 O9 2.452006 1_545
Nd1 O10 2.452007 1_655
Nd1 O12 2.452007 1_545
Nd1 O11 2.452011 1_555
Nd1 O8 2.452011 1_555
Nd1 O4 2.764394 1_555
Nd1 O7 2.764394 1_555
O0 Ta2 2.086398 1_455
O0 Ta1 2.086400 1_565
O0 Ta0 2.086404 1_555
O1 Ta1 2.018779 1_555
O1 Ta2 2.018781 1_555
O1 Ta0 2.018785 1_555
O2 Ta5 2.018779 1_555
O2 Ta4 2.018781 1_555
O2 Ta3 2.018785 1_555
O3 Ta4 2.086398 1_565
O3 Ta5 2.086400 1_455
O3 Ta3 2.086404 1_555
O4 Ta8 2.086398 1_655
O4 Ta7 2.086400 1_545
O4 Ta6 2.086404 1_555
O5 Ta7 2.018779 1_555
O5 Ta8 2.018781 1_555
O5 Ta6 2.018785 1_555
O6 Ta11 2.018779 1_555
O6 Ta10 2.018781 1_555
O6 Ta9 2.018785 1_555
O7 Ta10 2.086398 1_545
O7 Ta11 2.086400 1_655
O7 Ta9 2.086404 1_555
O8 Ta13 2.014550 1_555
O8 Ta9 2.044945 1_555
O9 Ta13 2.014546 1_555
O9 Ta10 2.044945 1_555
O10 Ta13 2.014544 1_555
O10 Ta11 2.044945 1_555
O11 Ta13 2.014550 1_555
O11 Ta6 2.044945 1_555
O12 Ta13 2.014544 1_555
O12 Ta7 2.044945 1_555
O13 Ta13 2.014546 1_555
O13 Ta8 2.044945 1_555
O14 Ta12 2.014550 1_555
O14 Ta3 2.044945 1_555
O15 Ta12 2.014546 1_555
O15 Ta4 2.044945 1_555
O16 Ta12 2.014544 1_555
O16 Ta5 2.044945 1_555
O17 Ta12 2.014550 1_555
O17 Ta0 2.044945 1_555
O18 Ta12 2.014544 1_555
O18 Ta1 2.044945 1_555
O19 Ta12 2.014546 1_555
O19 Ta2 2.044945 1_555
O20 Ta0 1.991646 1_555
O20 Ta1 1.992476 1_455
O21 Ta1 1.991646 1_565
O21 Ta2 1.992477 1_555
O22 Ta2 1.991646 1_455
O22 Ta0 1.992477 1_565
O23 Ta4 1.991646 1_565
O23 Ta3 1.992477 1_455
O24 Ta5 1.991646 1_455
O24 Ta4 1.992477 1_555
O25 Ta3 1.991646 1_555
O25 Ta5 1.992476 1_565
O26 Ta6 1.991646 1_555
O26 Ta7 1.992476 1_655
O27 Ta7 1.991646 1_545
O27 Ta8 1.992477 1_555
O28 Ta8 1.991646 1_655
O28 Ta6 1.992477 1_545
O29 Ta10 1.991646 1_545
O29 Ta9 1.992477 1_655
O30 Ta11 1.991646 1_655
O30 Ta10 1.992477 1_555
O31 Ta9 1.991646 1_555
O31 Ta11 1.992476 1_545
O32 Ta0 1.922926 1_555
O32 Ta9 1.922926 1_555
O33 Ta1 1.922926 1_555
O33 Ta10 1.922926 1_545
O34 Ta11 1.922926 1_555
O34 Ta2 1.922926 1_455
O35 Ta3 1.922926 1_554
O35 Ta6 1.922926 1_555
O36 Ta7 1.922926 1_545
O36 Ta4 1.922926 1_554
O37 Ta5 1.922926 1_454
O37 Ta8 1.922926 1_555
