# generated using pymatgen
data_HoAsSe
_symmetry_space_group_name_H-M   'P 1'
_cell_length_a   3.89924600
_cell_length_b   3.91757900
_cell_length_c   17.52312400
_cell_angle_alpha   90.00000000
_cell_angle_beta   90.00000000
_cell_angle_gamma   90.00000000
_symmetry_Int_Tables_number   1
_chemical_formula_structural   HoAsSe
_chemical_formula_sum   'Ho4 As4 Se4'
_cell_volume   267.67630737
_cell_formula_units_Z   4
loop_
 _symmetry_equiv_pos_site_id
 _symmetry_equiv_pos_as_xyz
  1  'x, y, z'
loop_
 _atom_site_type_symbol
 _atom_site_label
 _atom_site_symmetry_multiplicity
 _atom_site_fract_x
 _atom_site_fract_y
 _atom_site_fract_z
 _atom_site_occupancy
  Ho  Ho0  1  0.75000000  0.24052900  0.86085000  1
  Ho  Ho1  1  0.75000000  0.25947100  0.36085000  1
  Ho  Ho2  1  0.25000000  0.75947100  0.13915000  1
  Ho  Ho3  1  0.25000000  0.74052900  0.63915000  1
  As  As0  1  0.25000000  0.21946900  0.50102300  1
  As  As1  1  0.25000000  0.28053100  0.00102300  1
  As  As2  1  0.75000000  0.78053100  0.49897700  1
  As  As3  1  0.75000000  0.71946900  0.99897700  1
  Se  Se0  1  0.75000000  0.24241300  0.68782700  1
  Se  Se1  1  0.75000000  0.25758700  0.18782700  1
  Se  Se2  1  0.25000000  0.75758700  0.31217300  1
  Se  Se3  1  0.25000000  0.74241300  0.81217300  1
loop_
_geom_bond_atom_site_label_1
_geom_bond_atom_site_label_2
_geom_bond_distance
_geom_bond_site_symmetry_2
Ho0 Se3 2.887315 1_645
Ho0 Se3 2.887315 1_545
Ho0 Se3 2.897312 1_555
Ho0 Se3 2.897312 1_655
Ho0 Se0 3.031912 1_555
Ho1 Se2 2.887315 1_655
Ho1 Se2 2.887315 1_555
Ho1 Se2 2.897312 1_545
Ho1 Se2 2.897312 1_645
Ho1 Se1 3.031912 1_555
Ho2 Se1 2.887315 1_465
Ho2 Se1 2.887315 1_565
Ho2 Se1 2.897312 1_455
Ho2 Se1 2.897312 1_555
Ho2 Se2 3.031912 1_555
Ho3 Se0 2.887315 1_455
Ho3 Se0 2.887315 1_555
Ho3 Se0 2.897312 1_565
Ho3 Se0 2.897312 1_465
Ho3 Se3 3.031912 1_555
As0 As2 2.599856 1_445
As0 As2 2.599856 1_545
As0 As2 2.938289 1_555
As0 As2 2.938289 1_455
As0 Ho3 3.062493 1_545
As0 Ho1 3.139880 1_555
As0 Ho1 3.139880 1_455
As0 Ho3 3.166275 1_555
As1 As3 2.599856 1_554
As1 As3 2.599856 1_454
As1 As3 2.938289 1_444
As1 As3 2.938289 1_544
As1 Ho2 3.062493 1_555
As1 Ho0 3.139880 1_454
As1 Ho0 3.139880 1_554
As1 Ho2 3.166275 1_545
As2 Ho1 3.062493 1_565
As2 Ho3 3.139880 1_655
As2 Ho3 3.139880 1_555
As2 Ho1 3.166275 1_555
As3 Ho0 3.062493 1_555
As3 Ho2 3.139880 1_656
As3 Ho2 3.139880 1_556
As3 Ho0 3.166275 1_565
