# generated using pymatgen
data_ScBi3(MoO6)2
_symmetry_space_group_name_H-M   'P 1'
_cell_length_a   10.41490676
_cell_length_b   10.41490676
_cell_length_c   5.38536672
_cell_angle_alpha   77.98470581
_cell_angle_beta   77.98470581
_cell_angle_gamma   68.71095232
_symmetry_Int_Tables_number   1
_chemical_formula_structural   ScBi3(MoO6)2
_chemical_formula_sum   'Sc2 Bi6 Mo4 O24'
_cell_volume   526.70138683
_cell_formula_units_Z   2
loop_
 _symmetry_equiv_pos_site_id
 _symmetry_equiv_pos_as_xyz
  1  'x, y, z'
loop_
 _atom_site_type_symbol
 _atom_site_label
 _atom_site_symmetry_multiplicity
 _atom_site_fract_x
 _atom_site_fract_y
 _atom_site_fract_z
 _atom_site_occupancy
  Sc  Sc0  1  0.09032600  0.90967400  0.75000000  1
  Sc  Sc1  1  0.90967400  0.09032600  0.25000000  1
  Bi  Bi0  1  0.72842400  0.96301300  0.93077200  1
  Bi  Bi1  1  0.27157600  0.03698700  0.06922800  1
  Bi  Bi2  1  0.03698700  0.27157600  0.56922800  1
  Bi  Bi3  1  0.96301300  0.72842400  0.43077200  1
  Bi  Bi4  1  0.66318400  0.33681600  0.75000000  1
  Bi  Bi5  1  0.33681600  0.66318400  0.25000000  1
  Mo  Mo0  1  0.53997200  0.79742800  0.57267900  1
  Mo  Mo1  1  0.46002800  0.20257200  0.42732100  1
  Mo  Mo2  1  0.20257200  0.46002800  0.92732100  1
  Mo  Mo3  1  0.79742800  0.53997200  0.07267900  1
  O  O0  1  0.55076400  0.63825200  0.77880400  1
  O  O1  1  0.44923600  0.36174800  0.22119600  1
  O  O2  1  0.36174800  0.44923600  0.72119600  1
  O  O3  1  0.63825200  0.55076400  0.27880400  1
  O  O4  1  0.89492900  0.94161500  0.58356300  1
  O  O5  1  0.10507100  0.05838500  0.41643700  1
  O  O6  1  0.05838500  0.10507100  0.91643700  1
  O  O7  1  0.94161500  0.89492900  0.08356300  1
  O  O8  1  0.60180100  0.16643700  0.62033400  1
  O  O9  1  0.39819900  0.83356300  0.37966600  1
  O  O10  1  0.83356300  0.39819900  0.87966600  1
  O  O11  1  0.16643700  0.60180100  0.12033400  1
  O  O12  1  0.29752800  0.20756700  0.63290600  1
  O  O13  1  0.70247200  0.79243300  0.36709400  1
  O  O14  1  0.79243300  0.70247200  0.86709400  1
  O  O15  1  0.20756700  0.29752800  0.13290600  1
  O  O16  1  0.74624800  0.15502200  0.03060700  1
  O  O17  1  0.25375200  0.84497800  0.96939300  1
  O  O18  1  0.84497800  0.25375200  0.46939300  1
  O  O19  1  0.15502200  0.74624800  0.53060700  1
  O  O20  1  0.50361400  0.92928100  0.76882600  1
  O  O21  1  0.49638600  0.07071900  0.23117400  1
  O  O22  1  0.07071900  0.49638600  0.73117400  1
  O  O23  1  0.92928100  0.50361400  0.26882600  1
loop_
_geom_bond_atom_site_label_1
_geom_bond_atom_site_label_2
_geom_bond_distance
_geom_bond_site_symmetry_2
Bi0 O16 2.254176 1_566
Bi0 O4 2.257444 1_555
Bi0 O7 2.341869 1_556
Bi0 O8 2.537159 1_565
Bi0 O21 2.622032 1_566
Bi0 O14 2.627515 1_555
Bi0 O13 2.663989 1_556
Bi0 O20 2.818001 1_555
Bi1 O17 2.254176 1_544
Bi1 O5 2.257444 1_555
Bi1 O6 2.341869 1_554
Bi1 O9 2.537159 1_545
Bi1 O20 2.622032 1_544
Bi1 O15 2.627515 1_555
Bi1 O12 2.663989 1_554
Bi1 O21 2.818001 1_555
Bi2 O18 2.254176 1_455
Bi2 O6 2.257444 1_555
Bi2 O5 2.341869 1_555
Bi2 O10 2.537159 1_455
Bi2 O23 2.622032 1_455
Bi2 O12 2.627515 1_555
Bi2 O15 2.663989 1_555
Bi2 O22 2.818001 1_555
Bi3 O19 2.254176 1_655
Bi3 O7 2.257444 1_555
Bi3 O4 2.341869 1_555
Bi3 O11 2.537159 1_655
Bi3 O22 2.622032 1_655
Bi3 O13 2.627515 1_555
Bi3 O14 2.663989 1_555
Bi3 O23 2.818001 1_555
Bi4 O16 2.186443 1_556
Bi4 O18 2.186443 1_555
Bi4 O8 2.360219 1_555
Bi4 O10 2.360219 1_555
Bi5 O19 2.186443 1_555
Bi5 O17 2.186443 1_554
Bi5 O11 2.360219 1_555
Bi5 O9 2.360219 1_555
Mo0 O0 1.773029 1_555
Mo0 O20 1.790196 1_555
Mo0 O13 1.809059 1_555
Mo0 O9 1.864112 1_555
Mo1 O1 1.773029 1_555
Mo1 O21 1.790196 1_555
Mo1 O12 1.809059 1_555
Mo1 O8 1.864112 1_555
Mo2 O2 1.773029 1_555
Mo2 O22 1.790196 1_555
Mo2 O15 1.809059 1_556
Mo2 O11 1.864112 1_556
Mo3 O3 1.773029 1_555
Mo3 O23 1.790196 1_555
Mo3 O14 1.809059 1_554
Mo3 O10 1.864112 1_554
O4 Sc1 2.132791 1_565
O4 Sc0 2.280167 1_655
O5 Sc0 2.132791 1_545
O5 Sc1 2.280167 1_455
O6 Sc1 2.132791 1_456
O6 Sc0 2.280167 1_545
O7 Sc0 2.132791 1_654
O7 Sc1 2.280167 1_565
O16 Sc1 2.102390 1_555
O17 Sc0 2.102390 1_555
O18 Sc1 2.102390 1_555
O19 Sc0 2.102390 1_555
