# generated using pymatgen
data_Mg6SnSb
_symmetry_space_group_name_H-M   'P 1'
_cell_length_a   5.26180100
_cell_length_b   6.52249200
_cell_length_c   11.00013000
_cell_angle_alpha   90.00000000
_cell_angle_beta   90.00000000
_cell_angle_gamma   90.00000000
_symmetry_Int_Tables_number   1
_chemical_formula_structural   Mg6SnSb
_chemical_formula_sum   'Mg12 Sn2 Sb2'
_cell_volume   377.52506582
_cell_formula_units_Z   2
loop_
 _symmetry_equiv_pos_site_id
 _symmetry_equiv_pos_as_xyz
  1  'x, y, z'
loop_
 _atom_site_type_symbol
 _atom_site_label
 _atom_site_symmetry_multiplicity
 _atom_site_fract_x
 _atom_site_fract_y
 _atom_site_fract_z
 _atom_site_occupancy
  Mg  Mg0  1  0.00000000  0.74969700  0.08371900  1
  Mg  Mg1  1  0.00000000  0.25030300  0.08371900  1
  Mg  Mg2  1  0.50000000  0.74958300  0.91726900  1
  Mg  Mg3  1  0.50000000  0.25041700  0.91726900  1
  Mg  Mg4  1  0.50000000  0.50000000  0.16610000  1
  Mg  Mg5  1  0.50000000  0.50000000  0.66636500  1
  Mg  Mg6  1  0.00000000  0.24969700  0.58371900  1
  Mg  Mg7  1  0.00000000  0.75030300  0.58371900  1
  Mg  Mg8  1  0.50000000  0.24958300  0.41726900  1
  Mg  Mg9  1  0.50000000  0.75041700  0.41726900  1
  Mg  Mg10  1  0.50000000  0.00000000  0.66610000  1
  Mg  Mg11  1  0.50000000  0.00000000  0.16636500  1
  Sn  Sn0  1  0.00000000  0.50000000  0.33277400  1
  Sn  Sn1  1  0.00000000  0.00000000  0.83277400  1
  Sb  Sb0  1  0.00000000  0.50000000  0.83278900  1
  Sb  Sb1  1  0.00000000  0.00000000  0.33278900  1
loop_
_geom_bond_atom_site_label_1
_geom_bond_atom_site_label_2
_geom_bond_distance
_geom_bond_site_symmetry_2
Mg0 Sn0 3.187178 1_555
Mg0 Sb1 3.189341 1_565
Mg0 Sb0 3.204924 1_554
Mg0 Mg2 3.205323 1_554
Mg0 Mg2 3.205323 1_454
Mg0 Sn1 3.207077 1_564
Mg0 Mg4 3.224179 1_455
Mg0 Mg4 3.224179 1_555
Mg1 Sn0 3.187178 1_555
Mg1 Sb1 3.189341 1_555
Mg1 Sb0 3.204924 1_554
Mg1 Mg3 3.205323 1_554
Mg1 Mg3 3.205323 1_454
Mg1 Sn1 3.207077 1_554
Mg1 Mg4 3.224179 1_455
Mg1 Mg4 3.224179 1_555
Mg2 Mg4 3.184680 1_556
Mg2 Mg5 3.204300 1_555
Mg2 Sb0 3.230370 1_555
Mg2 Sb0 3.230370 1_655
Mg2 Sn1 3.233162 1_565
Mg2 Sn1 3.233162 1_665
Mg2 Mg3 3.255806 1_555
Mg2 Mg3 3.266686 1_565
Mg3 Mg4 3.184680 1_556
Mg3 Mg5 3.204300 1_555
Mg3 Sb0 3.230370 1_555
Mg3 Sb0 3.230370 1_655
Mg3 Sn1 3.233162 1_555
Mg3 Sn1 3.233162 1_655
Mg4 Sn0 3.206731 1_655
Mg4 Sn0 3.206731 1_555
Mg4 Mg8 3.209576 1_555
Mg4 Mg9 3.209576 1_555
Mg5 Mg8 3.189968 1_555
Mg5 Mg9 3.189968 1_555
Mg5 Sb0 3.205159 1_555
Mg5 Sb0 3.205159 1_655
Mg6 Sn1 3.187178 1_555
Mg6 Sb0 3.189341 1_555
Mg6 Sb1 3.204924 1_555
Mg6 Mg8 3.205323 1_555
Mg6 Mg8 3.205323 1_455
Mg6 Sn0 3.207077 1_555
Mg7 Sn1 3.187178 1_565
Mg7 Sb0 3.189341 1_555
Mg7 Sb1 3.204924 1_565
Mg7 Mg9 3.205323 1_455
Mg7 Mg9 3.205323 1_555
Mg7 Sn0 3.207077 1_555
Mg8 Sb1 3.230370 1_655
Mg8 Sb1 3.230370 1_555
Mg8 Sn0 3.233162 1_655
Mg8 Sn0 3.233162 1_555
Mg8 Mg9 3.255806 1_545
Mg8 Mg9 3.266686 1_555
Mg9 Sb1 3.230370 1_665
Mg9 Sb1 3.230370 1_565
Mg9 Sn0 3.233162 1_655
Mg9 Sn0 3.233162 1_555
Mg10 Mg9 3.184680 1_545
Mg10 Mg8 3.184680 1_555
Mg10 Sn1 3.206731 1_555
Mg10 Sn1 3.206731 1_655
Mg10 Mg2 3.209576 1_545
Mg10 Mg3 3.209576 1_555
Mg10 Mg7 3.224179 1_645
Mg10 Mg7 3.224179 1_545
Mg10 Mg6 3.224179 1_655
Mg10 Mg6 3.224179 1_555
Mg10 Mg5 3.261247 1_545
Mg10 Mg5 3.261247 1_555
Mg11 Mg3 3.189968 1_554
Mg11 Mg2 3.189968 1_544
Mg11 Mg9 3.204300 1_545
Mg11 Mg8 3.204300 1_555
Mg11 Sb1 3.205159 1_655
Mg11 Sb1 3.205159 1_555
Mg11 Mg4 3.261247 1_555
Mg11 Mg4 3.261247 1_545
Sb0 Sn1 3.261246 1_565
Sb0 Sn1 3.261246 1_555
Sb1 Sn0 3.261246 1_545
Sb1 Sn0 3.261246 1_555
