# generated using pymatgen
data_Zn2Mo3O8
_symmetry_space_group_name_H-M   'P 1'
_cell_length_a   6.28729818
_cell_length_b   6.28729818
_cell_length_c   9.55770800
_cell_angle_alpha   90.00000000
_cell_angle_beta   90.00000000
_cell_angle_gamma   120.00000192
_symmetry_Int_Tables_number   1
_chemical_formula_structural   Zn2Mo3O8
_chemical_formula_sum   'Zn4 Mo6 O16'
_cell_volume   327.19939876
_cell_formula_units_Z   2
loop_
 _symmetry_equiv_pos_site_id
 _symmetry_equiv_pos_as_xyz
  1  'x, y, z'
loop_
 _atom_site_type_symbol
 _atom_site_label
 _atom_site_symmetry_multiplicity
 _atom_site_fract_x
 _atom_site_fract_y
 _atom_site_fract_z
 _atom_site_occupancy
  Zn  Zn0  1  0.33333300  0.66666700  0.78770300  1
  Zn  Zn1  1  0.66666700  0.33333300  0.28770300  1
  Zn  Zn2  1  0.66666700  0.33333300  0.90512400  1
  Zn  Zn3  1  0.33333300  0.66666700  0.40512400  1
  Mo  Mo0  1  0.16402000  0.32803900  0.07864700  1
  Mo  Mo1  1  0.32803900  0.16402000  0.57864700  1
  Mo  Mo2  1  0.16402000  0.83598000  0.07864700  1
  Mo  Mo3  1  0.83598000  0.16402000  0.57864700  1
  Mo  Mo4  1  0.83598000  0.67196100  0.57864700  1
  Mo  Mo5  1  0.67196100  0.83598000  0.07864700  1
  O  O0  1  0.00000000  0.00000000  0.46667700  1
  O  O1  1  0.00000000  0.00000000  0.96667700  1
  O  O2  1  0.66666700  0.33333300  0.69580500  1
  O  O3  1  0.33333300  0.66666700  0.19580500  1
  O  O4  1  0.51826000  0.03652000  0.45390000  1
  O  O5  1  0.48174000  0.51826000  0.95390000  1
  O  O6  1  0.03652000  0.51826000  0.95390000  1
  O  O7  1  0.96348000  0.48174000  0.45390000  1
  O  O8  1  0.51826000  0.48174000  0.45390000  1
  O  O9  1  0.48174000  0.96348000  0.95390000  1
  O  O10  1  0.83301100  0.16698900  0.17484000  1
  O  O11  1  0.66602200  0.83301100  0.67484000  1
  O  O12  1  0.16698900  0.33397800  0.67484000  1
  O  O13  1  0.16698900  0.83301100  0.67484000  1
  O  O14  1  0.33397800  0.16698900  0.17484000  1
  O  O15  1  0.83301100  0.66602200  0.17484000  1
loop_
_geom_bond_atom_site_label_1
_geom_bond_atom_site_label_2
_geom_bond_distance
_geom_bond_site_symmetry_2
Mo0 O14 2.023469 1_555
Mo0 O10 2.023474 1_455
Mo0 O1 2.082221 1_554
Mo0 O5 2.110273 1_554
Mo0 O6 2.110277 1_554
Mo0 O3 2.157203 1_555
Mo1 O12 2.023469 1_555
Mo1 O13 2.023474 1_545
Mo1 O0 2.082221 1_555
Mo1 O8 2.110273 1_555
Mo1 O4 2.110277 1_555
Mo1 O2 2.157203 1_555
Mo2 O15 2.023474 1_455
Mo2 O14 2.023474 1_565
Mo2 O1 2.082225 1_564
Mo2 O9 2.110272 1_554
Mo2 O6 2.110272 1_554
Mo2 O3 2.157194 1_555
Mo3 O11 2.023474 1_545
Mo3 O12 2.023474 1_655
Mo3 O0 2.082225 1_655
Mo3 O4 2.110272 1_555
Mo3 O7 2.110272 1_555
Mo3 O2 2.157194 1_555
Mo4 O11 2.023469 1_555
Mo4 O13 2.023474 1_655
Mo4 O0 2.082221 1_665
Mo4 O8 2.110273 1_555
Mo4 O7 2.110277 1_555
Mo4 O2 2.157203 1_555
Mo5 O15 2.023469 1_555
Mo5 O10 2.023474 1_565
Mo5 O1 2.082221 1_664
Mo5 O5 2.110273 1_554
Mo5 O9 2.110277 1_554
Mo5 O3 2.157203 1_555
O2 Zn2 2.000610 1_555
O3 Zn3 2.000610 1_555
O4 Zn3 2.067090 1_545
O4 Zn1 2.266077 1_555
O5 Zn2 2.067095 1_555
O5 Zn0 2.266081 1_555
O6 Zn2 2.067090 1_455
O6 Zn0 2.266077 1_555
O7 Zn3 2.067090 1_655
O7 Zn1 2.266077 1_555
O8 Zn3 2.067095 1_555
O8 Zn1 2.266081 1_555
O9 Zn2 2.067090 1_565
O9 Zn0 2.266077 1_555
O10 Zn1 2.108329 1_555
O11 Zn0 2.108334 1_555
O12 Zn0 2.108334 1_555
O13 Zn0 2.108329 1_555
O14 Zn1 2.108334 1_555
O15 Zn1 2.108334 1_555
