# generated using pymatgen
data_Li12Ge7
_symmetry_space_group_name_H-M   'P 1'
_cell_length_a   8.80761884
_cell_length_b   14.65374768
_cell_length_c   20.12935861
_cell_angle_alpha   90.00000000
_cell_angle_beta   90.00000000
_cell_angle_gamma   90.00000000
_symmetry_Int_Tables_number   1
_chemical_formula_structural   Li12Ge7
_chemical_formula_sum   'Li96 Ge56'
_cell_volume   2597.98810324
_cell_formula_units_Z   8
loop_
 _symmetry_equiv_pos_site_id
 _symmetry_equiv_pos_as_xyz
  1  'x, y, z'
loop_
 _atom_site_type_symbol
 _atom_site_label
 _atom_site_symmetry_multiplicity
 _atom_site_fract_x
 _atom_site_fract_y
 _atom_site_fract_z
 _atom_site_occupancy
  Li  Li0  1  0.87857587  0.34071998  0.83496206  1
  Li  Li1  1  0.12142413  0.65928002  0.16503794  1
  Li  Li2  1  0.62142413  0.84071998  0.16503794  1
  Li  Li3  1  0.12142413  0.65928002  0.33496206  1
  Li  Li4  1  0.37857587  0.15928002  0.83496206  1
  Li  Li5  1  0.87857587  0.34071998  0.66503794  1
  Li  Li6  1  0.37857587  0.15928002  0.66503794  1
  Li  Li7  1  0.62142413  0.84071998  0.33496206  1
  Li  Li8  1  0.62615530  0.64031297  0.35394936  1
  Li  Li9  1  0.37384470  0.35968703  0.64605064  1
  Li  Li10  1  0.87384470  0.14031297  0.64605064  1
  Li  Li11  1  0.37384470  0.35968703  0.85394936  1
  Li  Li12  1  0.12615530  0.85968703  0.35394936  1
  Li  Li13  1  0.62615530  0.64031297  0.14605064  1
  Li  Li14  1  0.12615530  0.85968703  0.14605064  1
  Li  Li15  1  0.87384470  0.14031297  0.85394936  1
  Li  Li16  1  0.88897292  0.65589217  0.81327012  1
  Li  Li17  1  0.11102708  0.34410783  0.18672988  1
  Li  Li18  1  0.61102708  0.15589217  0.18672988  1
  Li  Li19  1  0.11102708  0.34410783  0.31327012  1
  Li  Li20  1  0.38897292  0.84410783  0.81327012  1
  Li  Li21  1  0.88897292  0.65589217  0.68672988  1
  Li  Li22  1  0.38897292  0.84410783  0.68672988  1
  Li  Li23  1  0.61102708  0.15589217  0.31327012  1
  Li  Li24  1  0.62939256  0.73605428  0.88725629  1
  Li  Li25  1  0.37060744  0.26394572  0.11274371  1
  Li  Li26  1  0.87060744  0.23605428  0.11274371  1
  Li  Li27  1  0.37060744  0.26394572  0.38725629  1
  Li  Li28  1  0.12939256  0.76394572  0.88725629  1
  Li  Li29  1  0.62939256  0.73605428  0.61274371  1
  Li  Li30  1  0.12939256  0.76394572  0.61274371  1
  Li  Li31  1  0.87060744  0.23605428  0.38725629  1
  Li  Li32  1  0.62935417  0.93296138  0.97271212  1
  Li  Li33  1  0.37064583  0.06703862  0.02728788  1
  Li  Li34  1  0.87064583  0.43296138  0.02728788  1
  Li  Li35  1  0.37064583  0.06703862  0.47271212  1
  Li  Li36  1  0.12935417  0.56703862  0.97271212  1
  Li  Li37  1  0.62935417  0.93296138  0.52728788  1
  Li  Li38  1  0.12935417  0.56703862  0.52728788  1
  Li  Li39  1  0.87064583  0.43296138  0.47271212  1
  Li  Li40  1  0.66149191  0.16871143  0.75000000  1
  Li  Li41  1  0.33850809  0.83128857  0.25000000  1
  Li  Li42  1  0.83850809  0.66871143  0.25000000  1
  Li  Li43  1  0.16149191  0.33128857  0.75000000  1
  Li  Li44  1  0.83877343  0.50550207  0.88688405  1
  Li  Li45  1  0.16122657  0.49449793  0.11311595  1
  Li  Li46  1  0.66122657  0.00550207  0.11311595  1
  Li  Li47  1  0.16122657  0.49449793  0.38688405  1
  Li  Li48  1  0.33877343  0.99449793  0.88688405  1
  Li  Li49  1  0.83877343  0.50550207  0.61311595  1
  Li  Li50  1  0.33877343  0.99449793  0.61311595  1
  Li  Li51  1  0.66122657  0.00550207  0.38688405  1
  Li  Li52  1  0.62793701  0.75730201  0.46858725  1
  Li  Li53  1  0.37206299  0.24269799  0.53141275  1
  Li  Li54  1  0.87206299  0.25730201  0.53141275  1
  Li  Li55  1  0.37206299  0.24269799  0.96858725  1
  Li  Li56  1  0.12793701  0.74269799  0.46858725  1
  Li  Li57  1  0.62793701  0.75730201  0.03141275  1
  Li  Li58  1  0.12793701  0.74269799  0.03141275  1
  Li  Li59  1  0.87206299  0.25730201  0.96858725  1
  Li  Li60  1  0.63682021  0.97764176  0.82776916  1
  Li  Li61  1  0.36317979  0.02235824  0.17223084  1
  Li  Li62  1  0.86317979  0.47764176  0.17223084  1
  Li  Li63  1  0.36317979  0.02235824  0.32776916  1
  Li  Li64  1  0.13682021  0.52235824  0.82776916  1
  Li  Li65  1  0.63682021  0.97764176  0.67223084  1
  Li  Li66  1  0.13682021  0.52235824  0.67223084  1
  Li  Li67  1  0.86317979  0.47764176  0.32776916  1
  Li  Li68  1  0.99157402  0.97379405  0.87442612  1
  Li  Li69  1  0.00842598  0.02620595  0.12557388  1
  Li  Li70  1  0.50842598  0.47379405  0.12557388  1
  Li  Li71  1  0.00842598  0.02620595  0.37442612  1
  Li  Li72  1  0.49157402  0.52620595  0.87442612  1
  Li  Li73  1  0.99157402  0.97379405  0.62557388  1
  Li  Li74  1  0.49157402  0.52620595  0.62557388  1
  Li  Li75  1  0.50842598  0.47379405  0.37442612  1
  Li  Li76  1  0.86241331  0.83920246  0.81168710  1
  Li  Li77  1  0.13758669  0.16079754  0.18831290  1
  Li  Li78  1  0.63758669  0.33920246  0.18831290  1
  Li  Li79  1  0.13758669  0.16079754  0.31168710  1
  Li  Li80  1  0.36241331  0.66079754  0.81168710  1
  Li  Li81  1  0.86241331  0.83920246  0.68831290  1
  Li  Li82  1  0.36241331  0.66079754  0.68831290  1
  Li  Li83  1  0.63758669  0.33920246  0.31168710  1
  Li  Li84  1  0.61422031  0.36974525  0.75000000  1
  Li  Li85  1  0.38577969  0.63025475  0.25000000  1
  Li  Li86  1  0.88577969  0.86974525  0.25000000  1
  Li  Li87  1  0.11422031  0.13025475  0.75000000  1
  Li  Li88  1  0.63190551  0.56788186  0.99542845  1
  Li  Li89  1  0.36809449  0.43211814  0.00457155  1
  Li  Li90  1  0.86809449  0.06788186  0.00457155  1
  Li  Li91  1  0.36809449  0.43211814  0.49542845  1
  Li  Li92  1  0.13190551  0.93211814  0.99542845  1
  Li  Li93  1  0.63190551  0.56788186  0.50457155  1
  Li  Li94  1  0.13190551  0.93211814  0.50457155  1
  Li  Li95  1  0.86809449  0.06788186  0.49542845  1
  Ge  Ge0  1  0.88132521  0.66360229  0.94686314  1
  Ge  Ge1  1  0.11867479  0.33639771  0.05313686  1
  Ge  Ge2  1  0.61867479  0.16360229  0.05313686  1
  Ge  Ge3  1  0.11867479  0.33639771  0.44686314  1
  Ge  Ge4  1  0.38132521  0.83639771  0.94686314  1
  Ge  Ge5  1  0.88132521  0.66360229  0.55313686  1
  Ge  Ge6  1  0.38132521  0.83639771  0.55313686  1
  Ge  Ge7  1  0.61867479  0.16360229  0.44686314  1
  Ge  Ge8  1  0.88464953  0.48637860  0.75000000  1
  Ge  Ge9  1  0.11535047  0.51362140  0.25000000  1
  Ge  Ge10  1  0.61535047  0.98637860  0.25000000  1
  Ge  Ge11  1  0.38464953  0.01362140  0.75000000  1
  Ge  Ge12  1  0.87423244  0.75224713  0.36415135  1
  Ge  Ge13  1  0.12576756  0.24775287  0.63584865  1
  Ge  Ge14  1  0.62576756  0.25224713  0.63584865  1
  Ge  Ge15  1  0.12576756  0.24775287  0.86415135  1
  Ge  Ge16  1  0.37423244  0.74775287  0.36415135  1
  Ge  Ge17  1  0.87423244  0.75224713  0.13584865  1
  Ge  Ge18  1  0.37423244  0.74775287  0.13584865  1
  Ge  Ge19  1  0.62576756  0.25224713  0.86415135  1
  Ge  Ge20  1  0.86974613  0.88987165  0.43799324  1
  Ge  Ge21  1  0.13025387  0.11012835  0.56200676  1
  Ge  Ge22  1  0.63025387  0.38987165  0.56200676  1
  Ge  Ge23  1  0.13025387  0.11012835  0.93799324  1
  Ge  Ge24  1  0.36974613  0.61012835  0.43799324  1
  Ge  Ge25  1  0.86974613  0.88987165  0.06200676  1
  Ge  Ge26  1  0.36974613  0.61012835  0.06200676  1
  Ge  Ge27  1  0.63025387  0.38987165  0.93799324  1
  Ge  Ge28  1  0.88046529  0.83471480  0.94419368  1
  Ge  Ge29  1  0.11953471  0.16528520  0.05580632  1
  Ge  Ge30  1  0.61953471  0.33471480  0.05580632  1
  Ge  Ge31  1  0.11953471  0.16528520  0.44419368  1
  Ge  Ge32  1  0.38046529  0.66528520  0.94419368  1
  Ge  Ge33  1  0.88046529  0.83471480  0.55580632  1
  Ge  Ge34  1  0.38046529  0.66528520  0.55580632  1
  Ge  Ge35  1  0.61953471  0.33471480  0.44419368  1
  Ge  Ge36  1  0.62690446  0.74456826  0.75000000  1
  Ge  Ge37  1  0.37309554  0.25543174  0.25000000  1
  Ge  Ge38  1  0.87309554  0.24456826  0.25000000  1
  Ge  Ge39  1  0.12690446  0.75543174  0.75000000  1
  Ge  Ge40  1  0.63203617  0.57066562  0.75000000  1
  Ge  Ge41  1  0.36796383  0.42933438  0.25000000  1
  Ge  Ge42  1  0.86796383  0.07066562  0.25000000  1
  Ge  Ge43  1  0.13203617  0.92933438  0.75000000  1
  Ge  Ge44  1  0.89172904  0.61005623  0.43354027  1
  Ge  Ge45  1  0.10827096  0.38994377  0.56645973  1
  Ge  Ge46  1  0.60827096  0.11005623  0.56645973  1
  Ge  Ge47  1  0.10827096  0.38994377  0.93354027  1
  Ge  Ge48  1  0.39172904  0.88994377  0.43354027  1
  Ge  Ge49  1  0.89172904  0.61005623  0.06645973  1
  Ge  Ge50  1  0.39172904  0.88994377  0.06645973  1
  Ge  Ge51  1  0.60827096  0.11005623  0.93354027  1
  Ge  Ge52  1  0.37657937  0.48978010  0.75000000  1
  Ge  Ge53  1  0.62342063  0.51021990  0.25000000  1
  Ge  Ge54  1  0.12342063  0.98978010  0.25000000  1
  Ge  Ge55  1  0.87657937  0.01021990  0.75000000  1
loop_
_geom_bond_atom_site_label_1
_geom_bond_atom_site_label_2
_geom_bond_distance
_geom_bond_site_symmetry_2
Li0 Li59 2.955078 1_555
Li1 Li58 2.955078 1_555
Li2 Li57 2.955078 1_555
Li3 Li56 2.955078 1_555
Li4 Li55 2.955078 1_555
Li5 Li54 2.955078 1_555
Li10 Li54 2.874739 1_555
Li11 Li55 2.874739 1_555
Li12 Li56 2.874739 1_555
Li13 Li57 2.874739 1_555
Li14 Li58 2.874739 1_555
Li15 Li59 2.874739 1_555
Li16 Li21 2.547174 1_555
Li16 Li44 2.692185 1_555
Li16 Li76 2.696538 1_555
Li16 Li64 2.946080 1_655
Li16 Li24 2.970683 1_555
Li16 Li28 3.034638 1_655
Li17 Li19 2.547174 1_555
Li17 Li45 2.692185 1_555
Li17 Li77 2.696538 1_555
Li17 Li62 2.946080 1_455
Li17 Li25 2.970683 1_555
Li17 Li26 3.034638 1_455
Li18 Li23 2.547174 1_555
Li18 Li46 2.692185 1_555
Li18 Li78 2.696538 1_555
Li18 Li61 2.946080 1_555
Li18 Li26 2.970683 1_555
Li18 Li25 3.034638 1_555
Li19 Li47 2.692185 1_555
Li19 Li79 2.696538 1_555
Li19 Li67 2.946080 1_455
Li19 Li27 2.970683 1_555
Li19 Li31 3.034638 1_455
Li20 Li22 2.547174 1_555
Li20 Li48 2.692185 1_555
Li20 Li80 2.696538 1_555
Li20 Li60 2.946080 1_555
Li20 Li28 2.970683 1_555
Li20 Li24 3.034638 1_555
Li21 Li49 2.692185 1_555
Li21 Li81 2.696538 1_555
Li21 Li66 2.946080 1_655
Li21 Li29 2.970683 1_555
Li21 Li30 3.034638 1_655
Li22 Li50 2.692185 1_555
Li22 Li82 2.696538 1_555
Li22 Li65 2.946080 1_555
Li22 Li30 2.970683 1_555
Li22 Li29 3.034638 1_555
Li23 Li51 2.692185 1_555
Li23 Li83 2.696538 1_555
Li23 Li63 2.946080 1_555
Li23 Li31 2.970683 1_555
Li23 Li27 3.034638 1_555
Li24 Li57 2.918462 1_556
Li24 Li76 2.968291 1_555
Li24 Li80 3.009884 1_555
Li25 Li55 2.918462 1_554
Li25 Li77 2.968291 1_555
Li25 Li78 3.009884 1_555
Li26 Li59 2.918462 1_554
Li26 Li78 2.968291 1_555
Li26 Li77 3.009884 1_655
Li27 Li53 2.918462 1_555
Li27 Li79 2.968291 1_555
Li27 Li83 3.009884 1_555
Li28 Li58 2.918462 1_556
Li28 Li80 2.968291 1_555
Li28 Li76 3.009884 1_455
Li29 Li52 2.918462 1_555
Li29 Li81 2.968291 1_555
Li29 Li82 3.009884 1_555
Li30 Li56 2.918462 1_555
Li30 Li82 2.968291 1_555
Li30 Li81 3.009884 1_455
Li31 Li54 2.918462 1_555
Li31 Li83 2.968291 1_555
Li31 Li79 3.009884 1_655
Li32 Li57 2.832344 1_556
Li33 Li55 2.832344 1_554
Li34 Li59 2.832344 1_554
Li35 Li53 2.832344 1_555
Li36 Li58 2.832344 1_556
Li37 Li52 2.832344 1_555
Li38 Li56 2.832344 1_555
Li39 Li54 2.832344 1_555
Li52 Li93 2.868882 1_555
Li52 Li8 2.874739 1_555
Li52 Li7 2.955078 1_555
Li53 Li91 2.868882 1_555
Li53 Li9 2.874739 1_555
Li53 Li6 2.955078 1_555
Li54 Li95 2.868882 1_555
Li55 Li89 2.868882 1_556
Li56 Li94 2.868882 1_555
Li57 Li88 2.868882 1_554
Li58 Li92 2.868882 1_554
Li59 Li90 2.868882 1_556
Li60 Li76 2.857999 1_555
Li61 Li77 2.857999 1_555
Li62 Li78 2.857999 1_555
Li63 Li79 2.857999 1_555
Li64 Li80 2.857999 1_555
Li65 Li81 2.857999 1_555
Li66 Li82 2.857999 1_555
Li67 Li83 2.857999 1_555
Li68 Li76 2.603630 1_555
Li69 Li77 2.603630 1_555
Li70 Li78 2.603630 1_555
Li71 Li79 2.603630 1_555
Li72 Li80 2.603630 1_555
Li73 Li81 2.603630 1_555
Li74 Li82 2.603630 1_555
Li75 Li83 2.603630 1_555
Li76 Li81 2.483444 1_555
Li77 Li79 2.483444 1_555
Li78 Li83 2.483444 1_555
Li80 Li82 2.483444 1_555
Ge0 Ge28 2.508027 1_555
Ge0 Ge49 2.533705 1_556
Ge0 Li44 2.639226 1_555
Ge0 Li36 2.654289 1_655
Ge0 Li16 2.692357 1_555
Ge0 Li24 2.736871 1_555
Ge0 Li88 2.783711 1_555
Ge0 Li28 2.894036 1_655
Ge0 Li58 2.992961 1_656
Ge0 Li57 3.124505 1_556
Ge1 Ge29 2.508027 1_555
Ge1 Ge47 2.533705 1_554
Ge1 Li45 2.639226 1_555
Ge1 Li34 2.654289 1_455
Ge1 Li17 2.692357 1_555
Ge1 Li25 2.736871 1_555
Ge1 Li89 2.783711 1_555
Ge1 Li26 2.894036 1_455
Ge1 Li59 2.992961 1_454
Ge1 Li55 3.124505 1_554
Ge2 Ge30 2.508027 1_555
Ge2 Ge51 2.533705 1_554
Ge2 Li46 2.639226 1_555
Ge2 Li33 2.654289 1_555
Ge2 Li18 2.692357 1_555
Ge2 Li26 2.736871 1_555
Ge2 Li90 2.783711 1_555
Ge2 Li25 2.894036 1_555
Ge2 Li55 2.992961 1_554
Ge2 Li59 3.124505 1_554
Ge3 Ge31 2.508027 1_555
Ge3 Ge45 2.533705 1_555
Ge3 Li47 2.639226 1_555
Ge3 Li39 2.654289 1_455
Ge3 Li19 2.692357 1_555
Ge3 Li27 2.736871 1_555
Ge3 Li91 2.783711 1_555
Ge3 Li31 2.894036 1_455
Ge3 Li54 2.992961 1_455
Ge3 Li53 3.124505 1_555
Ge4 Ge50 2.533705 1_556
Ge4 Li48 2.639226 1_555
Ge4 Li32 2.654289 1_555
Ge4 Li20 2.692357 1_555
Ge4 Li28 2.736871 1_555
Ge4 Li92 2.783711 1_555
Ge4 Li24 2.894036 1_555
Ge4 Li57 2.992961 1_556
Ge4 Li58 3.124505 1_556
Ge5 Li49 2.639226 1_555
Ge5 Li38 2.654289 1_655
Ge5 Li21 2.692357 1_555
Ge5 Li29 2.736871 1_555
Ge5 Li93 2.783711 1_555
Ge5 Li30 2.894036 1_655
Ge5 Li56 2.992961 1_655
Ge5 Li52 3.124505 1_555
Ge6 Li50 2.639226 1_555
Ge6 Li37 2.654289 1_555
Ge6 Li22 2.692357 1_555
Ge6 Li30 2.736871 1_555
Ge6 Li94 2.783711 1_555
Ge6 Li29 2.894036 1_555
Ge6 Li52 2.992961 1_555
Ge6 Li56 3.124505 1_555
Ge7 Li51 2.639226 1_555
Ge7 Li35 2.654289 1_555
Ge7 Li23 2.692357 1_555
Ge7 Li31 2.736871 1_555
Ge7 Li95 2.783711 1_555
Ge7 Li27 2.894036 1_555
Ge7 Li53 2.992961 1_555
Ge7 Li54 3.124505 1_555
Ge8 Li5 2.735618 1_555
Ge8 Li0 2.735618 1_555
Ge8 Li64 2.767948 1_655
Ge8 Li66 2.767948 1_655
Ge8 Li16 2.791733 1_555
Ge8 Li21 2.791733 1_555
Ge8 Li44 2.798921 1_555
Ge8 Li49 2.798921 1_555
Ge8 Li84 2.931591 1_555
Ge9 Li1 2.735618 1_555
Ge9 Li3 2.735618 1_555
Ge9 Li67 2.767948 1_455
Ge9 Li62 2.767948 1_455
Ge9 Li19 2.791733 1_555
Ge9 Li17 2.791733 1_555
Ge9 Li45 2.798921 1_555
Ge9 Li47 2.798921 1_555
Ge9 Li85 2.931591 1_555
Ge10 Ge42 2.544760 1_565
Ge10 Li7 2.735618 1_555
Ge10 Li2 2.735618 1_555
Ge10 Li63 2.767948 1_565
Ge10 Li61 2.767948 1_565
Ge10 Li23 2.791733 1_565
Ge10 Li18 2.791733 1_565
Ge10 Li46 2.798921 1_565
Ge10 Li51 2.798921 1_565
Ge10 Li86 2.931591 1_555
Ge11 Ge43 2.544760 1_545
Ge11 Li6 2.735618 1_555
Ge11 Li4 2.735618 1_555
Ge11 Li65 2.767948 1_545
Ge11 Li60 2.767948 1_545
Ge11 Li20 2.791733 1_545
Ge11 Li22 2.791733 1_545
Ge11 Li50 2.798921 1_545
Ge11 Li48 2.798921 1_545
Ge11 Li87 2.931591 1_555
Ge12 Ge20 2.505605 1_555
Ge12 Ge44 2.513202 1_555
Ge12 Li42 2.622462 1_555
Ge12 Li3 2.634617 1_655
Ge12 Li7 2.642718 1_555
Ge12 Li12 2.728397 1_655
Ge12 Li8 2.739835 1_555
Ge12 Li86 2.873108 1_555
Ge12 Li52 3.021690 1_555
Ge12 Li56 3.071169 1_655
Ge13 Ge21 2.505605 1_555
Ge13 Ge45 2.513202 1_555
Ge13 Li43 2.622462 1_555
Ge13 Li5 2.634617 1_455
Ge13 Li6 2.642718 1_555
Ge13 Li10 2.728397 1_455
Ge13 Li9 2.739835 1_555
Ge13 Li87 2.873108 1_555
Ge13 Li53 3.021690 1_555
Ge13 Li54 3.071169 1_455
Ge14 Ge22 2.505605 1_555
Ge14 Ge46 2.513202 1_555
Ge14 Li40 2.622462 1_555
Ge14 Li6 2.634617 1_555
Ge14 Li5 2.642718 1_555
Ge14 Li9 2.728397 1_555
Ge14 Li10 2.739835 1_555
Ge14 Li84 2.873108 1_555
Ge14 Li54 3.021690 1_555
Ge14 Li53 3.071169 1_555
Ge15 Ge23 2.505605 1_555
Ge15 Ge47 2.513202 1_555
Ge15 Li43 2.622462 1_555
Ge15 Li0 2.634617 1_455
Ge15 Li4 2.642718 1_555
Ge15 Li15 2.728397 1_455
Ge15 Li11 2.739835 1_555
Ge15 Li87 2.873108 1_555
Ge15 Li55 3.021690 1_555
Ge15 Li59 3.071169 1_455
Ge16 Ge24 2.505605 1_555
Ge16 Ge48 2.513202 1_555
Ge16 Li41 2.622462 1_555
Ge16 Li7 2.634617 1_555
Ge16 Li3 2.642718 1_555
Ge16 Li8 2.728397 1_555
Ge16 Li12 2.739835 1_555
Ge16 Li85 2.873108 1_555
Ge16 Li56 3.021690 1_555
Ge16 Li52 3.071169 1_555
Ge17 Ge25 2.505605 1_555
Ge17 Ge49 2.513202 1_555
Ge17 Li42 2.622462 1_555
Ge17 Li1 2.634617 1_655
Ge17 Li2 2.642718 1_555
Ge17 Li14 2.728397 1_655
Ge17 Li13 2.739835 1_555
Ge17 Li86 2.873108 1_555
Ge17 Li57 3.021690 1_555
Ge17 Li58 3.071169 1_655
Ge18 Ge26 2.505605 1_555
Ge18 Ge50 2.513202 1_555
Ge18 Li41 2.622462 1_555
Ge18 Li2 2.634617 1_555
Ge18 Li1 2.642718 1_555
Ge18 Li13 2.728397 1_555
Ge18 Li14 2.739835 1_555
Ge18 Li85 2.873108 1_555
Ge18 Li58 3.021690 1_555
Ge18 Li57 3.071169 1_555
Ge19 Ge27 2.505605 1_555
Ge19 Ge51 2.513202 1_555
Ge19 Li40 2.622462 1_555
Ge19 Li4 2.634617 1_555
Ge19 Li0 2.642718 1_555
Ge19 Li11 2.728397 1_555
Ge19 Li15 2.739835 1_555
Ge19 Li84 2.873108 1_555
Ge19 Li59 3.021690 1_555
Ge19 Li55 3.071169 1_555
Ge20 Ge33 2.507231 1_555
Ge20 Li71 2.668415 1_665
Ge20 Li51 2.702301 1_565
Ge20 Li94 2.740585 1_655
Ge20 Li37 2.848224 1_555
Ge20 Li95 2.853282 1_565
Ge20 Li12 2.856191 1_655
Ge20 Li52 2.947711 1_555
Ge20 Li7 3.098961 1_555
Ge20 Li56 3.194005 1_655
Ge21 Ge31 2.507231 1_555
Ge21 Li73 2.668415 1_445
Ge21 Li50 2.702301 1_545
Ge21 Li95 2.740585 1_455
Ge21 Li35 2.848224 1_555
Ge21 Li94 2.853282 1_545
Ge21 Li10 2.856191 1_455
Ge21 Li53 2.947711 1_555
Ge21 Li6 3.098961 1_555
Ge21 Li54 3.194005 1_455
Ge22 Ge35 2.507231 1_555
Ge22 Li74 2.668415 1_555
Ge22 Li49 2.702301 1_555
Ge22 Li91 2.740585 1_555
Ge22 Li39 2.848224 1_555
Ge22 Li93 2.853282 1_555
Ge22 Li9 2.856191 1_555
Ge22 Li54 2.947711 1_555
Ge22 Li5 3.098961 1_555
Ge22 Li53 3.194005 1_555
Ge23 Ge29 2.507231 1_556
Ge23 Li68 2.668415 1_445
Ge23 Li48 2.702301 1_545
Ge23 Li90 2.740585 1_456
Ge23 Li33 2.848224 1_556
Ge23 Li92 2.853282 1_545
Ge23 Li15 2.856191 1_455
Ge23 Li55 2.947711 1_555
Ge23 Li4 3.098961 1_555
Ge23 Li59 3.194005 1_455
Ge24 Ge34 2.507231 1_555
Ge24 Li75 2.668415 1_555
Ge24 Li47 2.702301 1_555
Ge24 Li93 2.740585 1_555
Ge24 Li38 2.848224 1_555
Ge24 Li91 2.853282 1_555
Ge24 Li8 2.856191 1_555
Ge24 Li56 2.947711 1_555
Ge24 Li3 3.098961 1_555
Ge24 Li52 3.194005 1_555
Ge25 Ge28 2.507231 1_554
Ge25 Li69 2.668415 1_665
Ge25 Li46 2.702301 1_565
Ge25 Li92 2.740585 1_654
Ge25 Li32 2.848224 1_554
Ge25 Li90 2.853282 1_565
Ge25 Li14 2.856191 1_655
Ge25 Li57 2.947711 1_555
Ge25 Li2 3.098961 1_555
Ge25 Li58 3.194005 1_655
Ge26 Ge32 2.507231 1_554
Ge26 Li70 2.668415 1_555
Ge26 Li45 2.702301 1_555
Ge26 Li88 2.740585 1_554
Ge26 Li36 2.848224 1_554
Ge26 Li89 2.853282 1_555
Ge26 Li13 2.856191 1_555
Ge26 Li58 2.947711 1_555
Ge26 Li1 3.098961 1_555
Ge26 Li57 3.194005 1_555
Ge27 Ge30 2.507231 1_556
Ge27 Li72 2.668415 1_555
Ge27 Li44 2.702301 1_555
Ge27 Li89 2.740585 1_556
Ge27 Li34 2.848224 1_556
Ge27 Li88 2.853282 1_555
Ge27 Li11 2.856191 1_555
Ge27 Li59 2.947711 1_555
Ge27 Li0 3.098961 1_555
Ge27 Li55 3.194005 1_555
Ge28 Li68 2.661487 1_555
Ge28 Li76 2.672816 1_555
Ge28 Li28 2.682513 1_655
Ge28 Li32 2.700704 1_555
Ge28 Li92 2.829362 1_655
Ge28 Li24 2.879903 1_555
Ge28 Li57 3.052235 1_556
Ge28 Li58 3.106659 1_656
Ge29 Li69 2.661487 1_555
Ge29 Li77 2.672816 1_555
Ge29 Li26 2.682513 1_455
Ge29 Li33 2.700704 1_555
Ge29 Li90 2.829362 1_455
Ge29 Li25 2.879903 1_555
Ge29 Li55 3.052235 1_554
Ge29 Li59 3.106659 1_454
Ge30 Li70 2.661487 1_555
Ge30 Li78 2.672816 1_555
Ge30 Li25 2.682513 1_555
Ge30 Li34 2.700704 1_555
Ge30 Li89 2.829362 1_555
Ge30 Li26 2.879903 1_555
Ge30 Li59 3.052235 1_554
Ge30 Li55 3.106659 1_554
Ge31 Li71 2.661487 1_555
Ge31 Li79 2.672816 1_555
Ge31 Li31 2.682513 1_455
Ge31 Li35 2.700704 1_555
Ge31 Li95 2.829362 1_455
Ge31 Li27 2.879903 1_555
Ge31 Li53 3.052235 1_555
Ge31 Li54 3.106659 1_455
Ge32 Ge4 2.508027 1_555
Ge32 Li72 2.661487 1_555
Ge32 Li80 2.672816 1_555
Ge32 Li24 2.682513 1_555
Ge32 Li36 2.700704 1_555
Ge32 Li88 2.829362 1_555
Ge32 Li28 2.879903 1_555
Ge32 Li58 3.052235 1_556
Ge32 Li57 3.106659 1_556
Ge33 Ge5 2.508027 1_555
Ge33 Li73 2.661487 1_555
Ge33 Li81 2.672816 1_555
Ge33 Li30 2.682513 1_655
Ge33 Li37 2.700704 1_555
Ge33 Li94 2.829362 1_655
Ge33 Li29 2.879903 1_555
Ge33 Li52 3.052235 1_555
Ge33 Li56 3.106659 1_655
Ge34 Ge6 2.508027 1_555
Ge34 Li74 2.661487 1_555
Ge34 Li82 2.672816 1_555
Ge34 Li29 2.682513 1_555
Ge34 Li38 2.700704 1_555
Ge34 Li93 2.829362 1_555
Ge34 Li30 2.879903 1_555
Ge34 Li56 3.052235 1_555
Ge34 Li52 3.106659 1_555
Ge35 Ge7 2.508027 1_555
Ge35 Li75 2.661487 1_555
Ge35 Li83 2.672816 1_555
Ge35 Li27 2.682513 1_555
Ge35 Li39 2.700704 1_555
Ge35 Li91 2.829362 1_555
Ge35 Li31 2.879903 1_555
Ge35 Li54 3.052235 1_555
Ge35 Li53 3.106659 1_555
Ge36 Ge40 2.548726 1_555
Ge36 Li29 2.765783 1_555
Ge36 Li24 2.765783 1_555
Ge36 Li81 2.787031 1_555
Ge36 Li76 2.787031 1_555
Ge36 Li22 2.853279 1_555
Ge36 Li20 2.853279 1_555
Ge36 Li80 2.911273 1_555
Ge36 Li82 2.911273 1_555
Ge36 Li21 2.939106 1_555
Ge36 Li16 2.939106 1_555
Ge37 Ge41 2.548726 1_555
Ge37 Li27 2.765783 1_555
Ge37 Li25 2.765783 1_555
Ge37 Li77 2.787031 1_555
Ge37 Li79 2.787031 1_555
Ge37 Li18 2.853279 1_555
Ge37 Li23 2.853279 1_555
Ge37 Li78 2.911273 1_555
Ge37 Li83 2.911273 1_555
Ge37 Li19 2.939106 1_555
Ge37 Li17 2.939106 1_555
Ge38 Ge42 2.548726 1_555
Ge38 Li26 2.765783 1_555
Ge38 Li31 2.765783 1_555
Ge38 Li83 2.787031 1_555
Ge38 Li78 2.787031 1_555
Ge38 Li19 2.853279 1_655
Ge38 Li17 2.853279 1_655
Ge38 Li79 2.911273 1_655
Ge38 Li77 2.911273 1_655
Ge38 Li23 2.939106 1_555
Ge38 Li18 2.939106 1_555
Ge39 Ge43 2.548726 1_555
Ge39 Li30 2.765783 1_555
Ge39 Li28 2.765783 1_555
Ge39 Li80 2.787031 1_555
Ge39 Li82 2.787031 1_555
Ge39 Li21 2.853279 1_455
Ge39 Li16 2.853279 1_455
Ge39 Li81 2.911273 1_455
Ge39 Li76 2.911273 1_455
Ge39 Li22 2.939106 1_555
Ge39 Li20 2.939106 1_555
Ge40 Ge52 2.543074 1_555
Ge40 Ge8 2.544760 1_555
Ge40 Li72 2.868462 1_555
Ge40 Li74 2.868462 1_555
Ge40 Li16 2.881479 1_555
Ge40 Li21 2.881479 1_555
Ge40 Li84 2.948415 1_555
Ge40 Li82 2.987587 1_555
Ge40 Li80 2.987587 1_555
Ge41 Ge53 2.543074 1_555
Ge41 Ge9 2.544760 1_555
Ge41 Li70 2.868462 1_555
Ge41 Li75 2.868462 1_555
Ge41 Li17 2.881479 1_555
Ge41 Li19 2.881479 1_555
Ge41 Li85 2.948415 1_555
Ge41 Li78 2.987587 1_555
Ge41 Li83 2.987587 1_555
Ge42 Ge54 2.543074 1_645
Ge42 Li69 2.868462 1_655
Ge42 Li71 2.868462 1_655
Ge42 Li23 2.881479 1_555
Ge42 Li18 2.881479 1_555
Ge42 Li86 2.948415 1_545
Ge42 Li77 2.987587 1_655
Ge42 Li79 2.987587 1_655
Ge43 Ge55 2.543074 1_465
Ge43 Li68 2.868462 1_455
Ge43 Li73 2.868462 1_455
Ge43 Li20 2.881479 1_555
Ge43 Li22 2.881479 1_555
Ge43 Li87 2.948415 1_565
Ge43 Li81 2.987587 1_455
Ge43 Li76 2.987587 1_455
Ge44 Ge5 2.533705 1_555
Ge44 Li39 2.718599 1_555
Ge44 Li93 2.768249 1_555
Ge44 Li8 2.869601 1_555
Ge44 Li38 2.887683 1_655
Ge44 Li67 2.891599 1_555
Ge44 Li3 2.924141 1_655
Ge44 Li56 2.933231 1_655
Ge44 Li47 3.063270 1_655
Ge44 Li52 3.248302 1_555
Ge45 Li38 2.718599 1_555
Ge45 Li91 2.768249 1_555
Ge45 Li9 2.869601 1_555
Ge45 Li39 2.887683 1_455
Ge45 Li66 2.891599 1_555
Ge45 Li5 2.924141 1_455
Ge45 Li54 2.933231 1_455
Ge45 Li49 3.063270 1_455
Ge45 Li53 3.248302 1_555
Ge46 Ge7 2.533705 1_555
Ge46 Li37 2.718599 1_545
Ge46 Li95 2.768249 1_555
Ge46 Li10 2.869601 1_555
Ge46 Li35 2.887683 1_555
Ge46 Li65 2.891599 1_545
Ge46 Li6 2.924141 1_555
Ge46 Li53 2.933231 1_555
Ge46 Li50 3.063270 1_545
Ge46 Li54 3.248302 1_555
Ge47 Li36 2.718599 1_555
Ge47 Li89 2.768249 1_556
Ge47 Li11 2.869601 1_555
Ge47 Li34 2.887683 1_456
Ge47 Li64 2.891599 1_555
Ge47 Li0 2.924141 1_455
Ge47 Li59 2.933231 1_455
Ge47 Li44 3.063270 1_455
Ge47 Li55 3.248302 1_555
Ge48 Ge6 2.533705 1_555
Ge48 Li35 2.718599 1_565
Ge48 Li94 2.768249 1_555
Ge48 Li12 2.869601 1_555
Ge48 Li37 2.887683 1_555
Ge48 Li63 2.891599 1_565
Ge48 Li7 2.924141 1_555
Ge48 Li52 2.933231 1_555
Ge48 Li51 3.063270 1_565
Ge48 Li56 3.248302 1_555
Ge49 Li34 2.718599 1_555
Ge49 Li88 2.768249 1_554
Ge49 Li13 2.869601 1_555
Ge49 Li36 2.887683 1_654
Ge49 Li62 2.891599 1_555
Ge49 Li1 2.924141 1_655
Ge49 Li58 2.933231 1_655
Ge49 Li45 3.063270 1_655
Ge49 Li57 3.248302 1_555
Ge50 Li33 2.718599 1_565
Ge50 Li92 2.768249 1_554
Ge50 Li14 2.869601 1_555
Ge50 Li32 2.887683 1_554
Ge50 Li61 2.891599 1_565
Ge50 Li2 2.924141 1_555
Ge50 Li57 2.933231 1_555
Ge50 Li46 3.063270 1_565
Ge50 Li58 3.248302 1_555
Ge51 Li32 2.718599 1_545
Ge51 Li90 2.768249 1_556
Ge51 Li15 2.869601 1_555
Ge51 Li33 2.887683 1_556
Ge51 Li60 2.891599 1_545
Ge51 Li4 2.924141 1_555
Ge51 Li55 2.933231 1_555
Ge51 Li48 3.063270 1_545
Ge51 Li59 3.248302 1_555
Ge52 Li64 2.671671 1_555
Ge52 Li66 2.671671 1_555
Ge52 Li84 2.734009 1_555
Ge52 Li72 2.753879 1_555
Ge52 Li74 2.753879 1_555
Ge52 Li82 2.799591 1_555
Ge52 Li80 2.799591 1_555
Ge52 Li9 2.830730 1_555
Ge52 Li11 2.830730 1_555
Ge52 Li43 2.997126 1_555
Ge53 Li67 2.671671 1_555
Ge53 Li62 2.671671 1_555
Ge53 Li85 2.734009 1_555
Ge53 Li70 2.753879 1_555
Ge53 Li75 2.753879 1_555
Ge53 Li78 2.799591 1_555
Ge53 Li83 2.799591 1_555
Ge53 Li13 2.830730 1_555
Ge53 Li8 2.830730 1_555
Ge53 Li42 2.997126 1_555
Ge54 Li61 2.671671 1_565
Ge54 Li63 2.671671 1_565
Ge54 Li86 2.734009 1_455
Ge54 Li69 2.753879 1_565
Ge54 Li71 2.753879 1_565
Ge54 Li77 2.799591 1_565
Ge54 Li79 2.799591 1_565
Ge54 Li14 2.830730 1_555
Ge54 Li12 2.830730 1_555
Ge54 Li41 2.997126 1_555
Ge55 Li65 2.671671 1_545
Ge55 Li60 2.671671 1_545
Ge55 Li87 2.734009 1_655
Ge55 Li73 2.753879 1_545
Ge55 Li68 2.753879 1_545
Ge55 Li81 2.799591 1_545
Ge55 Li76 2.799591 1_545
Ge55 Li15 2.830730 1_555
Ge55 Li10 2.830730 1_555
Ge55 Li40 2.997126 1_555
