# generated using pymatgen
data_Dy5Sc5(Si5Ir2)4
_symmetry_space_group_name_H-M   'P 1'
_cell_length_a   12.53304507
_cell_length_b   12.53304507
_cell_length_c   4.18519100
_cell_angle_alpha   90.00000000
_cell_angle_beta   90.00000000
_cell_angle_gamma   90.08876055
_symmetry_Int_Tables_number   1
_chemical_formula_structural   Dy5Sc5(Si5Ir2)4
_chemical_formula_sum   'Dy5 Sc5 Si20 Ir8'
_cell_volume   657.39737337
_cell_formula_units_Z   1
loop_
 _symmetry_equiv_pos_site_id
 _symmetry_equiv_pos_as_xyz
  1  'x, y, z'
loop_
 _atom_site_type_symbol
 _atom_site_label
 _atom_site_symmetry_multiplicity
 _atom_site_fract_x
 _atom_site_fract_y
 _atom_site_fract_z
 _atom_site_occupancy
  Dy  Dy0  1  0.38487700  0.61512300  0.50000000  1
  Dy  Dy1  1  0.88485300  0.88479500  0.50000000  1
  Dy  Dy2  1  0.11520500  0.11514700  0.50000000  1
  Dy  Dy3  1  0.50003100  0.00024100  0.00000000  1
  Dy  Dy4  1  0.99975900  0.49996900  0.00000000  1
  Sc  Sc0  1  0.82574400  0.17425600  0.50000000  1
  Sc  Sc1  1  0.17389800  0.82610200  0.50000000  1
  Sc  Sc2  1  0.67389300  0.67321500  0.50000000  1
  Sc  Sc3  1  0.32678500  0.32610700  0.50000000  1
  Sc  Sc4  1  0.61521800  0.38478200  0.50000000  1
  Si  Si0  1  0.93294600  0.06705400  0.00000000  1
  Si  Si1  1  0.06697900  0.93302100  0.00000000  1
  Si  Si2  1  0.56721100  0.56575500  0.00000000  1
  Si  Si3  1  0.43424500  0.43278900  0.00000000  1
  Si  Si4  1  0.30038500  0.16619600  0.00000000  1
  Si  Si5  1  0.69995900  0.83400100  0.00000000  1
  Si  Si6  1  0.20004300  0.66578300  0.00000000  1
  Si  Si7  1  0.79879100  0.33460500  0.00000000  1
  Si  Si8  1  0.33421700  0.79995700  0.00000000  1
  Si  Si9  1  0.66539500  0.20120900  0.00000000  1
  Si  Si10  1  0.83380400  0.69961500  0.00000000  1
  Si  Si11  1  0.16599900  0.30004100  0.00000000  1
  Si  Si12  1  0.49581600  0.15779200  0.50000000  1
  Si  Si13  1  0.50475100  0.84325200  0.50000000  1
  Si  Si14  1  0.00482600  0.65671700  0.50000000  1
  Si  Si15  1  0.99519600  0.34334600  0.50000000  1
  Si  Si16  1  0.34328300  0.99517400  0.50000000  1
  Si  Si17  1  0.65665400  0.00480400  0.50000000  1
  Si  Si18  1  0.84220800  0.50418400  0.50000000  1
  Si  Si19  1  0.15674800  0.49524900  0.50000000  1
  Ir  Ir0  1  0.48073400  0.24748500  0.00000000  1
  Ir  Ir1  1  0.52071400  0.75325300  0.00000000  1
  Ir  Ir2  1  0.02044300  0.74599600  0.00000000  1
  Ir  Ir3  1  0.97916800  0.25404600  0.00000000  1
  Ir  Ir4  1  0.25400400  0.97955700  0.00000000  1
  Ir  Ir5  1  0.74595400  0.02083200  0.00000000  1
  Ir  Ir6  1  0.75251500  0.51926600  0.00000000  1
  Ir  Ir7  1  0.24674700  0.47928600  0.00000000  1
loop_
_geom_bond_atom_site_label_1
_geom_bond_atom_site_label_2
_geom_bond_distance
_geom_bond_site_symmetry_2
Dy0 Si3 3.160428 1_556
Dy0 Si2 3.160428 1_556
Dy0 Si2 3.160428 1_555
Dy0 Si3 3.160428 1_555
Dy0 Si6 3.186372 1_555
Dy0 Si6 3.186372 1_556
Dy0 Si8 3.186372 1_556
Dy0 Si8 3.186372 1_555
Dy0 Ir1 3.203932 1_556
Dy0 Ir1 3.203932 1_555
Dy0 Ir7 3.203932 1_556
Dy0 Ir7 3.203932 1_555
Dy0 Si13 3.227786 1_555
Dy0 Si19 3.227786 1_555
Dy1 Si1 3.154399 1_655
Dy1 Si1 3.154399 1_656
Dy1 Si0 3.155288 1_566
Dy1 Si0 3.155288 1_565
Dy1 Si5 3.185821 1_556
Dy1 Si5 3.185821 1_555
Dy1 Si10 3.189065 1_555
Dy1 Si10 3.189065 1_556
Dy1 Ir2 3.209680 1_656
Dy1 Ir2 3.209680 1_655
Dy1 Ir5 3.213334 1_565
Dy1 Ir5 3.213334 1_566
Dy1 Si14 3.231919 1_655
Dy1 Si17 3.233472 1_565
Dy2 Si1 3.154399 1_546
Dy2 Si1 3.154399 1_545
Dy2 Si0 3.155288 1_456
Dy2 Si0 3.155288 1_455
Dy2 Si11 3.185821 1_556
Dy2 Si11 3.185821 1_555
Dy2 Si4 3.189065 1_555
Dy2 Si4 3.189065 1_556
Dy2 Ir4 3.209680 1_546
Dy2 Ir4 3.209680 1_545
Dy2 Ir3 3.213334 1_455
Dy2 Ir3 3.213334 1_456
Dy2 Si16 3.231919 1_545
Dy2 Si15 3.233472 1_455
Dy3 Si17 2.869687 1_555
Dy3 Si17 2.869687 1_554
Dy3 Si16 2.870885 1_544
Dy3 Si16 2.870885 1_545
Dy3 Si13 2.872990 1_545
Dy3 Si13 2.872990 1_544
Dy3 Si12 2.877688 1_554
Dy3 Si12 2.877688 1_555
Dy3 Ir5 3.092551 1_555
Dy3 Ir4 3.093945 1_545
Dy3 Ir1 3.106747 1_545
Dy3 Ir0 3.108517 1_555
Dy3 Si4 3.256235 1_555
Dy3 Si8 3.256303 1_545
Dy3 Si9 3.259325 1_555
Dy3 Si5 3.261240 1_545
Dy4 Si15 2.869687 1_555
Dy4 Si15 2.869687 1_554
Dy4 Si14 2.870885 1_655
Dy4 Si14 2.870885 1_654
Dy4 Si19 2.872990 1_654
Dy4 Si19 2.872990 1_655
Dy4 Si18 2.877688 1_555
Dy4 Si18 2.877688 1_554
Dy4 Ir3 3.092551 1_555
Dy4 Ir2 3.093945 1_655
Dy4 Ir7 3.106747 1_655
Dy4 Ir6 3.108517 1_555
Dy4 Si10 3.256235 1_555
Dy4 Si6 3.256303 1_655
Dy4 Si7 3.259325 1_555
Dy4 Si11 3.261240 1_655
Sc0 Si0 2.827525 1_556
Sc0 Si0 2.827525 1_555
Sc0 Si7 2.921285 1_555
Sc0 Si7 2.921285 1_556
Sc0 Si9 2.921285 1_555
Sc0 Si9 2.921285 1_556
Sc0 Si15 2.997904 1_555
Sc0 Si17 2.997904 1_555
Sc1 Si1 2.824151 1_555
Sc1 Si1 2.824151 1_556
Sc1 Si6 2.919862 1_555
Sc1 Si6 2.919862 1_556
Sc1 Si8 2.919862 1_556
Sc1 Si8 2.919862 1_555
Sc1 Si16 2.997151 1_555
Sc1 Si14 2.997151 1_555
Sc2 Si2 2.823996 1_556
Sc2 Si2 2.823996 1_555
Sc2 Si10 2.916005 1_556
Sc2 Si10 2.916005 1_555
Sc2 Si5 2.923084 1_555
Sc2 Si5 2.923084 1_556
Sc2 Si18 2.991950 1_555
Sc2 Si13 3.008210 1_555
Sc3 Si3 2.823996 1_555
Sc3 Si3 2.823996 1_556
Sc3 Si4 2.916005 1_556
Sc3 Si4 2.916005 1_555
Sc3 Si11 2.923084 1_556
Sc3 Si11 2.923084 1_555
Sc3 Si12 2.991950 1_555
Sc3 Si19 3.008210 1_555
Sc4 Si2 3.144784 1_556
Sc4 Si2 3.144784 1_555
Sc4 Si3 3.144784 1_556
Sc4 Si3 3.144784 1_555
Sc4 Si7 3.173684 1_555
Sc4 Si9 3.173684 1_555
Sc4 Si7 3.173684 1_556
Sc4 Si9 3.173684 1_556
Sc4 Si18 3.212406 1_555
Sc4 Si12 3.212406 1_555
Si0 Si1 2.377494 1_645
Si2 Si3 2.354917 1_555
Si6 Si8 2.376311 1_555
Si10 Si5 2.378962 1_555
Si11 Si4 2.378962 1_555
Si12 Si17 2.784210 1_555
Si12 Si16 2.792200 1_545
Si13 Si17 2.777068 1_565
Si13 Si16 2.780761 1_555
Si14 Si19 2.780761 1_555
Si14 Si18 2.792200 1_455
Si15 Si19 2.777068 1_655
Si15 Si18 2.784210 1_555
Ir0 Si12 2.383066 1_554
Ir0 Si12 2.383066 1_555
Ir0 Si9 2.386801 1_555
Ir0 Si3 2.395271 1_555
Ir0 Si4 2.477877 1_555
Ir0 Sc3 3.013069 1_554
Ir0 Sc3 3.013069 1_555
Ir0 Sc4 3.189332 1_555
Ir0 Sc4 3.189332 1_554
Ir1 Si13 2.385787 1_554
Ir1 Si13 2.385787 1_555
Ir1 Si8 2.410433 1_555
Ir1 Si2 2.421976 1_555
Ir1 Si5 2.462486 1_555
Ir1 Sc2 3.012773 1_555
Ir1 Sc2 3.012773 1_554
Ir2 Si14 2.380884 1_554
Ir2 Si14 2.380884 1_555
Ir2 Si10 2.409427 1_455
Ir2 Si1 2.414587 1_555
Ir2 Si6 2.466652 1_555
Ir2 Sc1 3.013280 1_554
Ir2 Sc1 3.013280 1_555
Ir3 Si15 2.381433 1_555
Ir3 Si15 2.381433 1_554
Ir3 Si11 2.410608 1_655
Ir3 Si0 2.413244 1_555
Ir3 Si7 2.477318 1_555
Ir3 Sc0 3.011719 1_555
Ir3 Sc0 3.011719 1_554
Ir4 Si16 2.380884 1_555
Ir4 Si16 2.380884 1_554
Ir4 Si4 2.409427 1_565
Ir4 Si1 2.414587 1_555
Ir4 Si8 2.466652 1_555
Ir4 Sc1 3.013280 1_554
Ir4 Sc1 3.013280 1_555
Ir5 Si17 2.381433 1_554
Ir5 Si17 2.381433 1_555
Ir5 Si5 2.410608 1_545
Ir5 Si0 2.413244 1_555
Ir5 Si9 2.477318 1_555
Ir5 Sc0 3.011719 1_555
Ir5 Sc0 3.011719 1_554
Ir6 Si18 2.383066 1_554
Ir6 Si18 2.383066 1_555
Ir6 Si7 2.386801 1_555
Ir6 Si2 2.395271 1_555
Ir6 Si10 2.477877 1_555
Ir6 Sc2 3.013069 1_554
Ir6 Sc2 3.013069 1_555
Ir6 Sc4 3.189332 1_555
Ir6 Sc4 3.189332 1_554
Ir7 Si19 2.385787 1_554
Ir7 Si19 2.385787 1_555
Ir7 Si6 2.410433 1_555
Ir7 Si3 2.421976 1_555
Ir7 Si11 2.462486 1_555
Ir7 Sc3 3.012773 1_554
Ir7 Sc3 3.012773 1_555
