# generated using pymatgen
data_CrSiO5
_symmetry_space_group_name_H-M   'P 1'
_cell_length_a   5.16322002
_cell_length_b   8.35876523
_cell_length_c   7.64760736
_cell_angle_alpha   90.15458698
_cell_angle_beta   42.18524223
_cell_angle_gamma   69.67537668
_symmetry_Int_Tables_number   1
_chemical_formula_structural   CrSiO5
_chemical_formula_sum   'Cr2 Si2 O10'
_cell_volume   189.29022472
_cell_formula_units_Z   2
loop_
 _symmetry_equiv_pos_site_id
 _symmetry_equiv_pos_as_xyz
  1  'x, y, z'
loop_
 _atom_site_type_symbol
 _atom_site_label
 _atom_site_symmetry_multiplicity
 _atom_site_fract_x
 _atom_site_fract_y
 _atom_site_fract_z
 _atom_site_occupancy
  Cr  Cr0  1  0.49986300  0.52793900  0.02176400  1
  Cr  Cr1  1  0.50078500  0.02785500  0.96903700  1
  Si  Si0  1  0.49053600  0.23813800  0.31871000  1
  Si  Si1  1  0.48666800  0.73759400  0.68387100  1
  O  O0  1  0.34006500  0.11807100  0.27076200  1
  O  O1  1  0.65403900  0.35495900  0.11772900  1
  O  O2  1  0.64831200  0.85556700  0.72135500  1
  O  O3  1  0.33570700  0.61817700  0.88295500  1
  O  O4  1  0.91934800  0.59066000  0.34572000  1
  O  O5  1  0.07503900  0.87693100  0.76154200  1
  O  O6  1  0.07360000  0.38024800  0.65390300  1
  O  O7  1  0.91746600  0.09306100  0.22861200  1
  O  O8  1  0.52036600  0.69248100  0.10452600  1
  O  O9  1  0.52606300  0.19053700  0.86340000  1
loop_
_geom_bond_atom_site_label_1
_geom_bond_atom_site_label_2
_geom_bond_distance
_geom_bond_site_symmetry_2
Cr0 O8 1.580882 1_555
Cr0 O4 1.814767 1_455
Cr0 O6 1.817780 1_654
Cr0 O3 1.818740 1_554
Cr0 O1 1.826161 1_555
Cr1 O9 1.578532 1_555
Cr1 O0 1.816575 1_556
Cr1 O7 1.817206 1_456
Cr1 O5 1.821806 1_645
Cr1 O2 1.824032 1_545
O0 Si0 1.645341 1_555
O1 Si0 1.639043 1_555
O2 Si1 1.635820 1_555
O3 Si1 1.646805 1_555
O4 Si1 1.643796 1_555
O5 Si1 1.622399 1_555
O6 Si0 1.626537 1_555
O7 Si0 1.640751 1_555
