# generated using pymatgen
data_Zr2CrCo3
_symmetry_space_group_name_H-M   'P 1'
_cell_length_a   4.96106144
_cell_length_b   4.96105945
_cell_length_c   4.96106362
_cell_angle_alpha   60.24709745
_cell_angle_beta   60.24711294
_cell_angle_gamma   60.24705838
_symmetry_Int_Tables_number   1
_chemical_formula_structural   Zr2CrCo3
_chemical_formula_sum   'Zr2 Cr1 Co3'
_cell_volume   86.82228796
_cell_formula_units_Z   1
loop_
 _symmetry_equiv_pos_site_id
 _symmetry_equiv_pos_as_xyz
  1  'x, y, z'
loop_
 _atom_site_type_symbol
 _atom_site_label
 _atom_site_symmetry_multiplicity
 _atom_site_fract_x
 _atom_site_fract_y
 _atom_site_fract_z
 _atom_site_occupancy
  Zr  Zr0  1  0.62556928  0.62556928  0.62556928  1
  Zr  Zr1  1  0.37443072  0.37443072  0.37443072  1
  Cr  Cr0  1  -0.00000000  -0.00000000  -0.00000000  1
  Co  Co0  1  -0.00000000  0.50000000  -0.00000000  1
  Co  Co1  1  0.50000000  -0.00000000  -0.00000000  1
  Co  Co2  1  -0.00000000  -0.00000000  0.50000000  1
loop_
_geom_bond_atom_site_label_1
_geom_bond_atom_site_label_2
_geom_bond_distance
_geom_bond_site_symmetry_2
Zr0 Zr1 3.042915 1_565
Zr0 Zr1 3.042917 1_655
Zr0 Zr1 3.042919 1_556
Zr0 Zr1 3.046142 1_555
Cr0 Zr0 2.917855 1_454
Cr0 Zr1 2.917855 1_545
Cr0 Zr1 2.917856 1_455
Cr0 Zr0 2.917856 1_544
Cr0 Zr0 2.917858 1_445
Cr0 Zr1 2.917858 1_554
Co0 Cr0 2.480530 1_555
Co0 Cr0 2.480530 1_565
Co0 Co1 2.489787 1_555
Co0 Co1 2.489787 1_465
Co0 Co2 2.489789 1_564
Co0 Co2 2.489789 1_555
Co0 Zr0 2.901197 1_454
Co0 Zr1 2.901197 1_555
Co0 Zr1 2.918698 1_455
Co0 Zr0 2.918698 1_554
Co0 Zr0 2.918699 1_455
Co0 Zr1 2.918699 1_554
Co1 Cr0 2.480531 1_555
Co1 Cr0 2.480531 1_655
Co1 Co2 2.489791 1_654
Co1 Co2 2.489791 1_555
Co1 Zr1 2.901197 1_555
Co1 Zr0 2.901197 1_544
Co1 Zr0 2.918697 1_554
Co1 Zr1 2.918697 1_545
Co1 Zr0 2.918698 1_545
Co1 Zr1 2.918698 1_554
Co2 Cr0 2.480532 1_556
Co2 Cr0 2.480532 1_555
Co2 Zr1 2.901197 1_555
Co2 Zr0 2.901197 1_445
Co2 Zr0 2.918696 1_455
Co2 Zr1 2.918696 1_545
Co2 Zr0 2.918696 1_545
Co2 Zr1 2.918696 1_455
