# generated using pymatgen
data_La2Al3Sn
_symmetry_space_group_name_H-M   'P 1'
_cell_length_a   4.48875461
_cell_length_b   4.49475620
_cell_length_c   7.80038015
_cell_angle_alpha   90.00000000
_cell_angle_beta   90.00000000
_cell_angle_gamma   90.00000000
_symmetry_Int_Tables_number   1
_chemical_formula_structural   La2Al3Sn
_chemical_formula_sum   'La2 Al3 Sn1'
_cell_volume   157.37935924
_cell_formula_units_Z   1
loop_
 _symmetry_equiv_pos_site_id
 _symmetry_equiv_pos_as_xyz
  1  'x, y, z'
loop_
 _atom_site_type_symbol
 _atom_site_label
 _atom_site_symmetry_multiplicity
 _atom_site_fract_x
 _atom_site_fract_y
 _atom_site_fract_z
 _atom_site_occupancy
  La  La0  1  0.00000000  0.50000000  0.99761892  1
  La  La1  1  0.00000000  0.00000000  0.50366974  1
  Al  Al0  1  0.50000000  0.00000000  0.82981206  1
  Al  Al1  1  0.50000000  0.00000000  0.15490602  1
  Al  Al2  1  0.50000000  0.50000000  0.67741391  1
  Sn  Sn0  1  0.50000000  0.50000000  0.33657934  1
loop_
_geom_bond_atom_site_label_1
_geom_bond_atom_site_label_2
_geom_bond_distance
_geom_bond_site_symmetry_2
La0 Sn0 3.468151 1_556
La0 Sn0 3.468151 1_456
La1 Sn0 3.433177 1_545
La1 Sn0 3.433177 1_445
La1 Sn0 3.433177 1_555
La1 Sn0 3.433177 1_455
Al0 Al1 2.535856 1_556
Al0 Al2 2.542414 1_555
Al0 Al2 2.542414 1_545
Al0 La1 3.392542 1_555
Al0 La1 3.392542 1_655
Al0 La0 3.435303 1_655
Al0 La0 3.435303 1_645
Al0 La0 3.435303 1_545
Al0 La0 3.435303 1_555
Al1 Sn0 2.656867 1_545
Al1 Sn0 2.656867 1_555
Al1 La0 3.404882 1_544
Al1 La0 3.404882 1_654
Al1 La0 3.404882 1_554
Al1 La0 3.404882 1_644
Al1 La1 3.526796 1_555
Al1 La1 3.526796 1_655
Al2 Sn0 2.658639 1_555
Al2 La0 3.357952 1_555
Al2 La0 3.357952 1_655
Al2 La1 3.453215 1_555
Al2 La1 3.453215 1_655
Al2 La1 3.453215 1_665
Al2 La1 3.453215 1_565
