# generated using pymatgen
data_LuNi5
_symmetry_space_group_name_H-M   'P 1'
_cell_length_a   4.77515008
_cell_length_b   4.77513353
_cell_length_c   3.90311511
_cell_angle_alpha   90.00000000
_cell_angle_beta   90.00000000
_cell_angle_gamma   119.99567256
_symmetry_Int_Tables_number   1
_chemical_formula_structural   LuNi5
_chemical_formula_sum   'Lu1 Ni5'
_cell_volume   77.07853902
_cell_formula_units_Z   1
loop_
 _symmetry_equiv_pos_site_id
 _symmetry_equiv_pos_as_xyz
  1  'x, y, z'
loop_
 _atom_site_type_symbol
 _atom_site_label
 _atom_site_symmetry_multiplicity
 _atom_site_fract_x
 _atom_site_fract_y
 _atom_site_fract_z
 _atom_site_occupancy
  Lu  Lu0  1  0.00000000  0.00000000  0.00000000  1
  Ni  Ni0  1  0.00000000  0.50000000  0.50000000  1
  Ni  Ni1  1  0.33331028  0.66667221  -0.00000000  1
  Ni  Ni2  1  0.66668972  0.33332779  -0.00000000  1
  Ni  Ni3  1  0.50000000  0.00000000  0.50000000  1
  Ni  Ni4  1  0.50000000  0.50000000  0.50000000  1
loop_
_geom_bond_atom_site_label_1
_geom_bond_atom_site_label_2
_geom_bond_distance
_geom_bond_site_symmetry_2
Lu0 Ni2 2.756751 1_455
Lu0 Ni1 2.756751 1_545
Lu0 Ni2 2.757068 1_445
Lu0 Ni1 2.757068 1_555
Lu0 Ni1 2.757150 1_445
Lu0 Ni2 2.757150 1_555
Lu0 Ni0 3.083675 1_544
Lu0 Ni0 3.083675 1_554
Lu0 Ni0 3.083675 1_545
Lu0 Ni0 3.083675 1_555
Lu0 Ni3 3.083681 1_554
Lu0 Ni3 3.083681 1_455
Lu0 Ni3 3.083681 1_454
Lu0 Ni3 3.083681 1_555
Lu0 Ni4 3.083799 1_444
Lu0 Ni4 3.083799 1_445
Lu0 Ni4 3.083799 1_555
Lu0 Ni4 3.083799 1_554
Ni0 Ni4 2.387575 1_455
Ni0 Ni4 2.387575 1_555
Ni0 Ni3 2.387727 1_455
Ni0 Ni3 2.387727 1_565
Ni0 Ni2 2.389278 1_455
Ni0 Ni1 2.389278 1_556
Ni0 Ni2 2.389278 1_456
Ni0 Ni1 2.389278 1_555
Ni1 Ni3 2.389317 1_565
Ni1 Ni3 2.389317 1_564
Ni1 Ni4 2.389348 1_554
Ni1 Ni4 2.389348 1_555
Ni1 Ni2 2.756864 1_455
Ni1 Ni2 2.756999 1_565
Ni1 Ni2 2.757106 1_555
Ni2 Ni3 2.389317 1_555
Ni2 Ni3 2.389317 1_554
Ni2 Ni4 2.389348 1_554
Ni2 Ni4 2.389348 1_555
Ni3 Ni4 2.387567 1_555
Ni3 Ni4 2.387567 1_545
