# generated using pymatgen
data_Ca3(NbN2)2
_symmetry_space_group_name_H-M   'P 1'
_cell_length_a   5.88186600
_cell_length_b   10.63543600
_cell_length_c   9.38746500
_cell_angle_alpha   90.00000000
_cell_angle_beta   90.00000000
_cell_angle_gamma   90.00000000
_symmetry_Int_Tables_number   1
_chemical_formula_structural   Ca3(NbN2)2
_chemical_formula_sum   'Ca12 Nb8 N16'
_cell_volume   587.24422631
_cell_formula_units_Z   4
loop_
 _symmetry_equiv_pos_site_id
 _symmetry_equiv_pos_as_xyz
  1  'x, y, z'
loop_
 _atom_site_type_symbol
 _atom_site_label
 _atom_site_symmetry_multiplicity
 _atom_site_fract_x
 _atom_site_fract_y
 _atom_site_fract_z
 _atom_site_occupancy
  Ca  Ca0  1  0.61492600  0.15588100  0.41971400  1
  Ca  Ca1  1  0.88507400  0.84411900  0.41971400  1
  Ca  Ca2  1  0.61492600  0.34411900  0.08028600  1
  Ca  Ca3  1  0.88507400  0.65588100  0.08028600  1
  Ca  Ca4  1  0.38507400  0.84411900  0.58028600  1
  Ca  Ca5  1  0.11492600  0.15588100  0.58028600  1
  Ca  Ca6  1  0.38507400  0.65588100  0.91971400  1
  Ca  Ca7  1  0.11492600  0.34411900  0.91971400  1
  Ca  Ca8  1  0.75000000  0.50000000  0.40032900  1
  Ca  Ca9  1  0.75000000  0.00000000  0.09967100  1
  Ca  Ca10  1  0.25000000  0.50000000  0.59967100  1
  Ca  Ca11  1  0.25000000  0.00000000  0.90032900  1
  Nb  Nb0  1  0.75000000  0.50000000  0.73682100  1
  Nb  Nb1  1  0.75000000  0.00000000  0.76317900  1
  Nb  Nb2  1  0.25000000  0.50000000  0.26317900  1
  Nb  Nb3  1  0.25000000  0.00000000  0.23682100  1
  Nb  Nb4  1  0.62296800  0.25000000  0.75000000  1
  Nb  Nb5  1  0.87703200  0.75000000  0.75000000  1
  Nb  Nb6  1  0.37703200  0.75000000  0.25000000  1
  Nb  Nb7  1  0.12296800  0.25000000  0.25000000  1
  N  N0  1  0.84342600  0.34823000  0.61601400  1
  N  N1  1  0.65657400  0.65177100  0.61601400  1
  N  N2  1  0.84342600  0.15177100  0.88398600  1
  N  N3  1  0.65657400  0.84822900  0.88398600  1
  N  N4  1  0.15657400  0.65177100  0.38398600  1
  N  N5  1  0.34342600  0.34823000  0.38398600  1
  N  N6  1  0.15657400  0.84822900  0.11601400  1
  N  N7  1  0.34342600  0.15177100  0.11601400  1
  N  N8  1  0.48523900  0.41765500  0.84073600  1
  N  N9  1  0.01476100  0.58234500  0.84073600  1
  N  N10  1  0.48523900  0.08234500  0.65926400  1
  N  N11  1  0.01476100  0.91765500  0.65926400  1
  N  N12  1  0.51476100  0.58234500  0.15926400  1
  N  N13  1  0.98523900  0.41765500  0.15926400  1
  N  N14  1  0.51476100  0.91765500  0.34073600  1
  N  N15  1  0.98523900  0.08234500  0.34073600  1
loop_
_geom_bond_atom_site_label_1
_geom_bond_atom_site_label_2
_geom_bond_distance
_geom_bond_site_symmetry_2
Ca0 N15 2.430143 1_555
Ca0 N10 2.500096 1_555
Ca0 N5 2.616795 1_555
Ca0 N14 2.704830 1_545
Ca0 N0 3.063832 1_555
Ca1 N14 2.430143 1_555
Ca1 N11 2.500096 1_655
Ca1 N4 2.616787 1_655
Ca1 N15 2.704830 1_565
Ca1 N1 3.063825 1_555
Ca2 N13 2.430143 1_555
Ca2 N8 2.500096 1_554
Ca2 N7 2.616787 1_555
Ca2 N12 2.704830 1_555
Ca2 N2 3.063825 1_554
Ca3 N12 2.430143 1_555
Ca3 N9 2.500096 1_654
Ca3 N6 2.616787 1_655
Ca3 N13 2.704830 1_555
Ca3 N3 3.063825 1_554
Ca4 N11 2.430143 1_555
Ca4 N14 2.500096 1_555
Ca4 N1 2.616787 1_555
Ca4 N10 2.704830 1_565
Ca4 N4 3.063825 1_555
Ca5 N10 2.430143 1_555
Ca5 N15 2.500096 1_455
Ca5 N0 2.616795 1_455
Ca5 N11 2.704830 1_545
Ca5 N5 3.063832 1_555
Ca6 N9 2.430143 1_555
Ca6 N12 2.500096 1_556
Ca6 N3 2.616787 1_555
Ca6 N8 2.704830 1_555
Ca6 N6 3.063825 1_556
Ca7 N8 2.430143 1_555
Ca7 N13 2.500096 1_456
Ca7 N2 2.616787 1_455
Ca7 N9 2.704830 1_555
Ca7 N7 3.063825 1_556
Ca8 N0 2.647069 1_555
Ca8 N1 2.647075 1_555
Ca8 N12 2.793309 1_555
Ca8 N13 2.793309 1_555
Ca8 N5 2.889264 1_555
Ca8 N4 2.889270 1_655
Ca9 N3 2.647075 1_544
Ca9 N2 2.647075 1_554
Ca9 N14 2.793309 1_545
Ca9 N15 2.793309 1_555
Ca9 N7 2.889270 1_555
Ca9 N6 2.889270 1_645
Ca10 N5 2.647069 1_555
Ca10 N4 2.647075 1_555
Ca10 N8 2.793309 1_555
Ca10 N9 2.793309 1_555
Ca10 N0 2.889264 1_455
Ca10 N1 2.889270 1_555
Ca11 N7 2.647075 1_556
Ca11 N6 2.647075 1_546
Ca11 N10 2.793309 1_555
Ca11 N11 2.793309 1_545
Ca11 N2 2.889270 1_455
Ca11 N3 2.889270 1_545
N0 Nb0 2.047813 1_555
N0 Nb4 2.086843 1_555
N1 Nb0 2.047821 1_555
N1 Nb5 2.086837 1_555
N2 Nb1 2.047821 1_555
N2 Nb4 2.086837 1_555
N3 Nb1 2.047821 1_565
N3 Nb5 2.086837 1_555
N4 Nb2 2.047821 1_555
N4 Nb6 2.086837 1_555
N5 Nb2 2.047813 1_555
N5 Nb7 2.086843 1_555
N6 Nb3 2.047821 1_565
N6 Nb6 2.086837 1_555
N7 Nb3 2.047821 1_555
N7 Nb7 2.086837 1_555
N8 Nb0 2.035615 1_555
N8 Nb4 2.135694 1_555
N9 Nb0 2.035615 1_455
N9 Nb5 2.135694 1_455
N10 Nb1 2.035615 1_555
N10 Nb4 2.135694 1_555
N11 Nb1 2.035615 1_465
N11 Nb5 2.135694 1_455
N12 Nb2 2.035615 1_555
N12 Nb6 2.135694 1_555
N13 Nb2 2.035615 1_655
N13 Nb7 2.135694 1_655
N14 Nb3 2.035615 1_565
N14 Nb6 2.135694 1_555
N15 Nb3 2.035615 1_655
N15 Nb7 2.135694 1_655
