# generated using pymatgen
data_Co3Re25B12
_symmetry_space_group_name_H-M   'P 1'
_cell_length_a   7.43824200
_cell_length_b   4.94401200
_cell_length_c   12.91651845
_cell_angle_alpha   89.87973506
_cell_angle_beta   90.00000000
_cell_angle_gamma   90.00000000
_symmetry_Int_Tables_number   1
_chemical_formula_structural   Co3Re25B12
_chemical_formula_sum   'Co3 Re25 B12'
_cell_volume   475.00079017
_cell_formula_units_Z   1
loop_
 _symmetry_equiv_pos_site_id
 _symmetry_equiv_pos_as_xyz
  1  'x, y, z'
loop_
 _atom_site_type_symbol
 _atom_site_label
 _atom_site_symmetry_multiplicity
 _atom_site_fract_x
 _atom_site_fract_y
 _atom_site_fract_z
 _atom_site_occupancy
  Co  Co0  1  0.50000000  0.42957400  0.33463300  1
  Co  Co1  1  0.00000000  0.43269500  0.83381400  1
  Co  Co2  1  0.00000000  0.92751000  0.16640000  1
  Re  Re0  1  0.81816100  0.45867100  0.22706000  1
  Re  Re1  1  0.31392400  0.45739800  0.72814900  1
  Re  Re2  1  0.18183900  0.45867100  0.22706000  1
  Re  Re3  1  0.68607600  0.45739800  0.72814900  1
  Re  Re4  1  0.00000000  0.45571500  0.04508700  1
  Re  Re5  1  0.50000000  0.45053000  0.54257900  1
  Re  Re6  1  0.68355700  0.95801800  0.27112400  1
  Re  Re7  1  0.17903100  0.95248400  0.77536100  1
  Re  Re8  1  0.31644300  0.95801800  0.27112400  1
  Re  Re9  1  0.82096900  0.95248400  0.77536100  1
  Re  Re10  1  0.50000000  0.95200300  0.45000300  1
  Re  Re11  1  0.00000000  0.95624600  0.95702200  1
  Re  Re12  1  0.50000000  0.91219400  0.66601400  1
  Re  Re13  1  0.18523200  0.24873300  0.43687400  1
  Re  Re14  1  0.68538200  0.24810800  0.93864800  1
  Re  Re15  1  0.81476800  0.24873300  0.43687400  1
  Re  Re16  1  0.31461800  0.24810800  0.93864800  1
  Re  Re17  1  0.50000000  0.25174700  0.12405800  1
  Re  Re18  1  0.00000000  0.24786700  0.62465800  1
  Re  Re19  1  0.31371800  0.74851900  0.06337500  1
  Re  Re20  1  0.81616200  0.74919000  0.56042600  1
  Re  Re21  1  0.68628200  0.74851900  0.06337500  1
  Re  Re22  1  0.18383800  0.74919000  0.56042600  1
  Re  Re23  1  0.00000000  0.74973500  0.37432500  1
  Re  Re24  1  0.50000000  0.74862000  0.87926800  1
  B  B0  1  0.20827100  0.14810400  0.09758100  1
  B  B1  1  0.71474000  0.15815900  0.59497900  1
  B  B2  1  0.79172900  0.14810400  0.09758100  1
  B  B3  1  0.28526000  0.15815900  0.59497900  1
  B  B4  1  0.00000000  0.14607800  0.30418900  1
  B  B5  1  0.50000000  0.15616200  0.80931800  1
  B  B6  1  0.29076400  0.64649200  0.40151600  1
  B  B7  1  0.79236400  0.64716400  0.90450600  1
  B  B8  1  0.70923600  0.64649200  0.40151600  1
  B  B9  1  0.20763600  0.64716400  0.90450600  1
  B  B10  1  0.50000000  0.64675300  0.19478600  1
  B  B11  1  0.00000000  0.64642100  0.69461300  1
loop_
_geom_bond_atom_site_label_1
_geom_bond_atom_site_label_2
_geom_bond_distance
_geom_bond_site_symmetry_2
B0 Co2 2.091759 1_545
B0 Re19 2.171836 1_545
B0 Re16 2.253922 1_554
B0 Re17 2.255869 1_555
B0 Re4 2.273383 1_555
B0 Re2 2.281231 1_555
B0 Re8 2.558592 1_545
B0 Re11 2.569642 1_544
B1 Re18 2.201489 1_655
B1 Re20 2.204625 1_545
B1 Re12 2.206192 1_545
B1 Re15 2.218268 1_555
B1 Re5 2.257154 1_555
B1 Re3 2.281142 1_555
B2 Co2 2.091759 1_645
B2 Re21 2.171836 1_545
B2 Re14 2.253922 1_554
B2 Re17 2.255869 1_555
B2 Re4 2.273383 1_655
B2 Re0 2.281231 1_555
B2 Re6 2.558592 1_545
B2 Re11 2.569642 1_644
B3 Re18 2.201489 1_555
B3 Re22 2.204625 1_545
B3 Re12 2.206192 1_545
B3 Re13 2.218268 1_555
B3 Re5 2.257154 1_555
B3 Re1 2.281142 1_555
B4 Co2 2.084059 1_545
B4 Re23 2.157073 1_545
B4 Re13 2.257604 1_555
B4 Re15 2.257604 1_455
B4 Re2 2.281208 1_555
B4 Re0 2.281208 1_455
B4 Re8 2.566870 1_545
B4 Re6 2.566870 1_445
B5 Re24 2.206463 1_545
B5 Re12 2.211426 1_545
B5 Re14 2.213999 1_555
B5 Re16 2.213999 1_555
B5 Re1 2.286124 1_555
B5 Re3 2.286124 1_555
B5 Re9 2.628335 1_545
B5 Re7 2.628335 1_545
B6 Co0 2.079077 1_555
B6 Re13 2.165228 1_555
B6 Re23 2.249606 1_555
B6 Re10 2.258291 1_555
B6 Re22 2.260036 1_555
B6 Re8 2.287868 1_555
B6 Re2 2.570049 1_555
B6 Re5 2.583272 1_555
B7 Co1 2.085051 1_655
B7 Re14 2.171759 1_555
B7 Re24 2.255303 1_555
B7 Re21 2.255856 1_556
B7 Re9 2.257405 1_555
B7 Re11 2.277037 1_655
B7 Re4 2.563436 1_656
B7 Re3 2.589045 1_555
B8 Co0 2.079077 1_555
B8 Re15 2.165228 1_555
B8 Re23 2.249606 1_655
B8 Re10 2.258291 1_555
B8 Re20 2.260036 1_555
B8 Re6 2.287868 1_555
B8 Re0 2.570049 1_555
B8 Re5 2.583272 1_555
B9 Co1 2.085051 1_555
B9 Re16 2.171759 1_555
B9 Re24 2.255303 1_555
B9 Re19 2.255856 1_556
B9 Re7 2.257405 1_555
B9 Re11 2.277037 1_555
B9 Re4 2.563436 1_556
B9 Re1 2.589045 1_555
B10 Co0 2.099433 1_555
B10 Re17 2.157766 1_555
B10 Re21 2.247342 1_555
B10 Re19 2.247342 1_555
B10 Re6 2.282755 1_555
B10 Re8 2.282755 1_555
B10 Re0 2.576320 1_555
B10 Re2 2.576320 1_555
B11 Co1 2.083588 1_555
B11 Re18 2.169474 1_555
B11 Re22 2.264600 1_555
B11 Re20 2.264600 1_455
B11 Re7 2.271015 1_555
B11 Re9 2.271015 1_455
B11 Re1 2.551805 1_555
B11 Re3 2.551805 1_455
