# generated using pymatgen
data_Sc2CoGe2
_symmetry_space_group_name_H-M   'P 1'
_cell_length_a   5.38942719
_cell_length_b   5.38942719
_cell_length_c   9.60306932
_cell_angle_alpha   63.76453350
_cell_angle_beta   63.76453350
_cell_angle_gamma   43.58429381
_symmetry_Int_Tables_number   1
_chemical_formula_structural   Sc2CoGe2
_chemical_formula_sum   'Sc4 Co2 Ge4'
_cell_volume   169.10881470
_cell_formula_units_Z   2
loop_
 _symmetry_equiv_pos_site_id
 _symmetry_equiv_pos_as_xyz
  1  'x, y, z'
loop_
 _atom_site_type_symbol
 _atom_site_label
 _atom_site_symmetry_multiplicity
 _atom_site_fract_x
 _atom_site_fract_y
 _atom_site_fract_z
 _atom_site_occupancy
  Sc  Sc0  1  0.99446970  0.99446970  0.33293189  1
  Sc  Sc1  1  0.00553030  0.00553030  0.66706811  1
  Sc  Sc2  1  0.81947407  0.81947407  0.10652310  1
  Sc  Sc3  1  0.18052593  0.18052593  0.89347690  1
  Co  Co0  1  0.72170762  0.72170762  0.62900330  1
  Co  Co1  1  0.27829238  0.27829238  0.37099670  1
  Ge  Ge0  1  0.64824820  0.64824820  0.42549320  1
  Ge  Ge1  1  0.35175180  0.35175180  0.57450680  1
  Ge  Ge2  1  0.52007048  0.52007048  0.12611360  1
  Ge  Ge3  1  0.47992952  0.47992952  0.87388640  1
loop_
_geom_bond_atom_site_label_1
_geom_bond_atom_site_label_2
_geom_bond_distance
_geom_bond_site_symmetry_2
Co0 Ge1 2.307044 1_565
Co0 Ge1 2.307044 1_655
Co0 Ge0 2.393336 1_555
Co0 Ge3 2.442835 1_555
Co0 Sc1 2.839881 1_655
Co0 Sc1 2.839881 1_565
Co0 Sc0 2.854100 1_555
Co0 Sc1 3.031774 1_665
Co0 Sc3 3.102678 1_655
Co0 Sc3 3.102678 1_565
Co1 Ge0 2.307044 1_545
Co1 Ge0 2.307044 1_455
Co1 Ge1 2.393336 1_555
Co1 Ge2 2.442835 1_555
Co1 Sc0 2.839881 1_545
Co1 Sc0 2.839881 1_455
Co1 Sc1 2.854100 1_555
Co1 Sc0 3.031774 1_445
Co1 Sc2 3.102678 1_545
Co1 Sc2 3.102678 1_455
Ge0 Ge1 2.609685 1_555
Ge0 Sc2 2.705767 1_555
Ge0 Sc1 2.875759 1_565
Ge0 Sc1 2.875759 1_655
Ge0 Sc0 2.909408 1_545
Ge0 Sc0 2.909408 1_455
Ge0 Sc0 3.140826 1_555
Ge1 Sc3 2.705767 1_555
Ge1 Sc0 2.875759 1_455
Ge1 Sc0 2.875759 1_545
Ge1 Sc1 2.909408 1_655
Ge1 Sc1 2.909408 1_565
Ge1 Sc1 3.140826 1_555
Ge2 Ge3 2.637196 1_554
Ge2 Sc0 2.743858 1_455
Ge2 Sc0 2.743858 1_545
Ge2 Sc3 2.856028 1_564
Ge2 Sc3 2.856028 1_654
Ge2 Sc2 2.903259 1_545
Ge2 Sc2 2.903259 1_455
Ge2 Sc2 2.911738 1_555
Ge3 Sc1 2.743858 1_565
Ge3 Sc1 2.743858 1_655
Ge3 Sc2 2.856028 1_546
Ge3 Sc2 2.856028 1_456
Ge3 Sc3 2.903259 1_565
Ge3 Sc3 2.903259 1_655
Ge3 Sc3 2.911738 1_555
