# generated using pymatgen
data_AlV2O4
_symmetry_space_group_name_H-M   'P 1'
_cell_length_a   5.90758603
_cell_length_b   5.96036862
_cell_length_c   5.88146275
_cell_angle_alpha   60.89190383
_cell_angle_beta   60.58295468
_cell_angle_gamma   59.64935863
_symmetry_Int_Tables_number   1
_chemical_formula_structural   AlV2O4
_chemical_formula_sum   'Al2 V4 O8'
_cell_volume   147.64208941
_cell_formula_units_Z   2
loop_
 _symmetry_equiv_pos_site_id
 _symmetry_equiv_pos_as_xyz
  1  'x, y, z'
loop_
 _atom_site_type_symbol
 _atom_site_label
 _atom_site_symmetry_multiplicity
 _atom_site_fract_x
 _atom_site_fract_y
 _atom_site_fract_z
 _atom_site_occupancy
  Al  Al0  1  0.62898500  0.62103300  0.62222400  1
  Al  Al1  1  0.37099100  0.37895600  0.37779500  1
  V  V0  1  0.99999800  0.00000500  0.00000400  1
  V  V1  1  0.99999800  0.00000600  0.49999100  1
  V  V2  1  0.99996700  0.50003000  0.00000100  1
  V  V3  1  0.50002600  0.99997300  0.00000000  1
  O  O0  1  0.25368900  0.74746100  0.74449400  1
  O  O1  1  0.24437300  0.25809500  0.74741800  1
  O  O2  1  0.24991900  0.74654000  0.25692100  1
  O  O3  1  0.24396400  0.25726800  0.25197700  1
  O  O4  1  0.75565000  0.74189600  0.25260700  1
  O  O5  1  0.74629200  0.25255600  0.25550600  1
  O  O6  1  0.75009100  0.25345600  0.74307500  1
  O  O7  1  0.75605600  0.74272400  0.74798700  1
loop_
_geom_bond_atom_site_label_1
_geom_bond_atom_site_label_2
_geom_bond_distance
_geom_bond_site_symmetry_2
Al0 O6 1.793740 1_555
Al0 O4 1.796628 1_555
Al0 O7 1.803994 1_555
Al0 O0 1.809184 1_555
Al1 O2 1.793779 1_555
Al1 O1 1.796649 1_555
Al1 O3 1.804028 1_555
Al1 O5 1.809209 1_555
O0 V1 2.076332 1_465
O0 V0 2.116322 1_466
O0 V2 2.131891 1_456
O1 V2 2.060120 1_456
O1 V3 2.118253 1_546
O1 V0 2.138144 1_456
O2 V1 2.068756 1_465
O2 V0 2.112319 1_465
O2 V3 2.142376 1_555
O3 V2 2.066900 1_455
O3 V3 2.121564 1_545
O3 V1 2.132665 1_455
O4 V2 2.059934 1_555
O4 V3 2.118231 1_555
O4 V0 2.138116 1_565
O5 V1 2.076321 1_555
O5 V0 2.116318 1_555
O5 V2 2.131875 1_555
O6 V1 2.068745 1_555
O6 V0 2.112311 1_556
O6 V3 2.142415 1_546
O7 V2 2.066707 1_556
O7 V3 2.121519 1_556
O7 V1 2.132652 1_565
