# generated using pymatgen
data_Pm2MgS4
_symmetry_space_group_name_H-M   'P 1'
_cell_length_a   7.33073012
_cell_length_b   7.33073012
_cell_length_c   7.33073012
_cell_angle_alpha   110.88375015
_cell_angle_beta   110.88375015
_cell_angle_gamma   106.68166140
_symmetry_Int_Tables_number   1
_chemical_formula_structural   Pm2MgS4
_chemical_formula_sum   'Pm4 Mg2 S8'
_cell_volume   302.72743534
_cell_formula_units_Z   2
loop_
 _symmetry_equiv_pos_site_id
 _symmetry_equiv_pos_as_xyz
  1  'x, y, z'
loop_
 _atom_site_type_symbol
 _atom_site_label
 _atom_site_symmetry_multiplicity
 _atom_site_fract_x
 _atom_site_fract_y
 _atom_site_fract_z
 _atom_site_occupancy
  Pm  Pm0  1  0.87500000  0.75738700  0.38238700  1
  Pm  Pm1  1  0.50738700  0.12500000  0.88238700  1
  Pm  Pm2  1  0.37500000  0.49261300  0.61761300  1
  Pm  Pm3  1  0.24261300  0.62500000  0.11761300  1
  Mg  Mg0  1  0.00000000  0.00000000  0.00000000  1
  Mg  Mg1  1  0.75000000  0.25000000  0.50000000  1
  S  S0  1  0.50665900  0.37704600  0.26628700  1
  S  S1  1  0.75962800  0.49334100  0.87038800  1
  S  S2  1  0.11076000  0.24037200  0.73371300  1
  S  S3  1  0.62295400  0.88924000  0.12961200  1
  S  S4  1  0.24334100  0.00962800  0.37038800  1
  S  S5  1  0.99037200  0.36076000  0.23371300  1
  S  S6  1  0.63924000  0.87295400  0.62961200  1
  S  S7  1  0.12704600  0.75665900  0.76628700  1
loop_
_geom_bond_atom_site_label_1
_geom_bond_atom_site_label_2
_geom_bond_distance
_geom_bond_site_symmetry_2
Pm0 S3 2.764632 1_555
Pm0 S7 2.764633 1_655
Pm0 S4 2.852518 1_665
Pm0 S0 2.852522 1_555
Pm0 S2 2.994724 1_665
Pm0 S6 2.994726 1_555
Pm0 S1 3.188544 1_554
Pm0 S5 3.188544 1_555
Pm1 S6 2.764632 1_545
Pm1 S0 2.764633 1_556
Pm1 S1 2.852518 1_555
Pm1 S7 2.852522 1_545
Pm1 S5 2.994724 1_556
Pm1 S3 2.994726 1_546
Pm1 S4 3.188544 1_555
Pm1 S2 3.188544 1_555
Pm2 S5 2.764636 1_455
Pm2 S1 2.764636 1_555
Pm2 S2 2.852518 1_555
Pm2 S6 2.852523 1_555
Pm2 S4 2.994724 1_555
Pm2 S0 2.994724 1_555
Pm2 S3 3.188543 1_556
Pm2 S7 3.188550 1_555
Pm3 S4 2.764636 1_565
Pm3 S2 2.764636 1_554
Pm3 S5 2.852518 1_455
Pm3 S3 2.852523 1_555
Pm3 S1 2.994724 1_454
Pm3 S7 2.994724 1_554
Pm3 S6 3.188543 1_555
Pm3 S0 3.188550 1_555
Mg0 S7 2.626290 1_544
Mg0 S5 2.626295 1_455
Mg0 S4 2.626295 1_555
Mg0 S6 2.626298 1_444
Mg1 S0 2.626290 1_555
Mg1 S2 2.626295 1_655
Mg1 S1 2.626295 1_555
Mg1 S3 2.626298 1_545
