# generated using pymatgen
data_Y2Pt2S7
_symmetry_space_group_name_H-M   'P 1'
_cell_length_a   8.65749299
_cell_length_b   8.65749299
_cell_length_c   8.65749299
_cell_angle_alpha   60.00000000
_cell_angle_beta   60.00000000
_cell_angle_gamma   60.00000000
_symmetry_Int_Tables_number   1
_chemical_formula_structural   Y2Pt2S7
_chemical_formula_sum   'Y4 Pt4 S14'
_cell_volume   458.84018649
_cell_formula_units_Z   2
loop_
 _symmetry_equiv_pos_site_id
 _symmetry_equiv_pos_as_xyz
  1  'x, y, z'
loop_
 _atom_site_type_symbol
 _atom_site_label
 _atom_site_symmetry_multiplicity
 _atom_site_fract_x
 _atom_site_fract_y
 _atom_site_fract_z
 _atom_site_occupancy
  Y  Y0  1  0.50000000  0.00000000  0.50000000  1
  Y  Y1  1  0.50000000  0.50000000  0.00000000  1
  Y  Y2  1  0.00000000  0.50000000  0.50000000  1
  Y  Y3  1  0.50000000  0.50000000  0.50000000  1
  Pt  Pt0  1  0.00000000  0.00000000  0.00000000  1
  Pt  Pt1  1  0.50000000  0.00000000  0.00000000  1
  Pt  Pt2  1  0.00000000  0.00000000  0.50000000  1
  Pt  Pt3  1  0.00000000  0.50000000  0.00000000  1
  S  S0  1  0.66246400  0.08753600  0.08753600  1
  S  S1  1  0.91246400  0.33753600  0.33753600  1
  S  S2  1  0.08753600  0.08753600  0.66246400  1
  S  S3  1  0.66246400  0.66246400  0.08753600  1
  S  S4  1  0.37500000  0.37500000  0.37500000  1
  S  S5  1  0.66246400  0.08753600  0.66246400  1
  S  S6  1  0.08753600  0.66246400  0.08753600  1
  S  S7  1  0.33753600  0.91246400  0.33753600  1
  S  S8  1  0.91246400  0.91246400  0.33753600  1
  S  S9  1  0.33753600  0.33753600  0.91246400  1
  S  S10  1  0.62500000  0.62500000  0.62500000  1
  S  S11  1  0.91246400  0.33753600  0.91246400  1
  S  S12  1  0.08753600  0.66246400  0.66246400  1
  S  S13  1  0.33753600  0.91246400  0.91246400  1
loop_
_geom_bond_atom_site_label_1
_geom_bond_atom_site_label_2
_geom_bond_distance
_geom_bond_site_symmetry_2
Pt0 S0 2.415194 1_455
Pt0 S6 2.415194 1_545
Pt0 S13 2.415194 1_544
Pt0 S2 2.415194 1_554
Pt0 S8 2.415194 1_445
Pt0 S11 2.415194 1_454
Pt1 S13 2.415194 1_544
Pt1 S3 2.415194 1_545
Pt1 S5 2.415194 1_554
Pt1 S9 2.415194 1_554
Pt1 S7 2.415194 1_545
Pt1 S0 2.415194 1_555
Pt2 S8 2.415194 1_445
Pt2 S5 2.415194 1_455
Pt2 S7 2.415194 1_545
Pt2 S12 2.415194 1_545
Pt2 S1 2.415194 1_455
Pt2 S2 2.415194 1_555
Pt3 S11 2.415194 1_454
Pt3 S3 2.415194 1_455
Pt3 S12 2.415194 1_554
Pt3 S9 2.415194 1_554
Pt3 S6 2.415194 1_555
Pt3 S1 2.415194 1_455
S0 Y0 2.939587 1_555
S0 Y1 2.939587 1_555
S1 Y2 2.939587 1_655
S1 Y3 2.939587 1_555
S2 Y0 2.939587 1_555
S2 Y2 2.939587 1_555
S3 Y3 2.939587 1_555
S3 Y1 2.939587 1_555
S4 Y3 2.650805 1_555
S4 Y0 2.650805 1_555
S4 Y1 2.650805 1_555
S4 Y2 2.650805 1_555
S5 Y3 2.939587 1_555
S5 Y0 2.939587 1_555
S6 Y2 2.939587 1_555
S6 Y1 2.939587 1_555
S7 Y0 2.939587 1_565
S7 Y3 2.939587 1_555
S8 Y0 2.939587 1_565
S8 Y2 2.939587 1_655
S9 Y3 2.939587 1_555
S9 Y1 2.939587 1_556
S10 Y3 2.650805 1_555
S10 Y1 2.650805 1_556
S10 Y0 2.650805 1_565
S10 Y2 2.650805 1_655
S11 Y2 2.939587 1_655
S11 Y1 2.939587 1_556
S12 Y3 2.939587 1_555
S12 Y2 2.939587 1_555
S13 Y1 2.939587 1_556
S13 Y0 2.939587 1_565
