# generated using pymatgen
data_SrNdAl3O7
_symmetry_space_group_name_H-M   'P 1'
_cell_length_a   7.91829880
_cell_length_b   7.91829880
_cell_length_c   5.24102500
_cell_angle_alpha   90.00000000
_cell_angle_beta   90.00000000
_cell_angle_gamma   90.23993486
_symmetry_Int_Tables_number   1
_chemical_formula_structural   SrNdAl3O7
_chemical_formula_sum   'Sr2 Nd2 Al6 O14'
_cell_volume   328.60653407
_cell_formula_units_Z   2
loop_
 _symmetry_equiv_pos_site_id
 _symmetry_equiv_pos_as_xyz
  1  'x, y, z'
loop_
 _atom_site_type_symbol
 _atom_site_label
 _atom_site_symmetry_multiplicity
 _atom_site_fract_x
 _atom_site_fract_y
 _atom_site_fract_z
 _atom_site_occupancy
  Sr  Sr0  1  0.16170600  0.83829400  0.48968100  1
  Sr  Sr1  1  0.83829400  0.16170600  0.48968100  1
  Nd  Nd0  1  0.66237200  0.66237200  0.51289800  1
  Nd  Nd1  1  0.33762800  0.33762800  0.51289800  1
  Al  Al0  1  0.35910400  0.64089600  0.03983300  1
  Al  Al1  1  0.85498600  0.85498600  0.96100200  1
  Al  Al2  1  0.64089600  0.35910400  0.03983300  1
  Al  Al3  1  0.14501400  0.14501400  0.96100200  1
  Al  Al4  1  0.50000000  0.00000000  0.99777700  1
  Al  Al5  1  0.00000000  0.50000000  0.99777700  1
  O  O0  1  0.37012400  0.62987600  0.70610100  1
  O  O1  1  0.84695500  0.84695500  0.29273500  1
  O  O2  1  0.62987600  0.37012400  0.70610100  1
  O  O3  1  0.15304500  0.15304500  0.29273500  1
  O  O4  1  0.00000000  0.00000000  0.83570900  1
  O  O5  1  0.50000000  0.50000000  0.19491100  1
  O  O6  1  0.41882500  0.83363900  0.18820100  1
  O  O7  1  0.90715100  0.66033000  0.80413000  1
  O  O8  1  0.58117500  0.16636100  0.18820100  1
  O  O9  1  0.09284900  0.33967000  0.80413000  1
  O  O10  1  0.33967000  0.09284900  0.80413000  1
  O  O11  1  0.83363900  0.41882500  0.18820100  1
  O  O12  1  0.66033000  0.90715100  0.80413000  1
  O  O13  1  0.16636100  0.58117500  0.18820100  1
loop_
_geom_bond_atom_site_label_1
_geom_bond_atom_site_label_2
_geom_bond_distance
_geom_bond_site_symmetry_2
Nd0 O1 2.363472 1_555
Nd0 O5 2.463684 1_555
Nd0 O7 2.467191 1_555
Nd0 O12 2.467191 1_555
Nd0 O2 2.538038 1_555
Nd0 O0 2.538038 1_555
Nd0 O11 2.911356 1_555
Nd0 O6 2.911356 1_555
Nd1 O3 2.363472 1_555
Nd1 O5 2.463684 1_555
Nd1 O9 2.467191 1_555
Nd1 O10 2.467191 1_555
Nd1 O2 2.538038 1_555
Nd1 O0 2.538038 1_555
Nd1 O13 2.911356 1_555
Nd1 O8 2.911356 1_555
Al0 O0 1.753464 1_554
Al0 O13 1.775251 1_555
Al0 O6 1.775251 1_555
Al0 O5 1.777750 1_555
Al1 O1 1.740936 1_556
Al1 O4 1.748481 1_665
Al1 O7 1.796568 1_555
Al1 O12 1.796568 1_555
Al2 O2 1.753464 1_554
Al2 O8 1.775251 1_555
Al2 O11 1.775251 1_555
Al2 O5 1.777750 1_555
Al3 O3 1.740936 1_556
Al3 O4 1.748481 1_555
Al3 O10 1.796568 1_555
Al3 O9 1.796568 1_555
Al4 O6 1.771261 1_546
Al4 O8 1.771261 1_556
Al4 O12 1.786090 1_545
Al4 O10 1.786090 1_555
Al5 O11 1.771261 1_456
Al5 O13 1.771261 1_556
Al5 O7 1.786090 1_455
Al5 O9 1.786090 1_555
O0 Sr0 2.599317 1_555
O1 Sr1 2.698720 1_565
O1 Sr0 2.698720 1_655
O2 Sr1 2.599317 1_555
O3 Sr0 2.698720 1_545
O3 Sr1 2.698720 1_455
O4 Sr0 2.565482 1_545
O4 Sr1 2.565482 1_455
O6 Sr0 2.577530 1_555
O7 Sr0 2.956486 1_655
O8 Sr1 2.577530 1_555
O9 Sr1 2.956486 1_455
O10 Sr0 2.956486 1_545
O11 Sr1 2.577530 1_555
O12 Sr1 2.956486 1_565
O13 Sr0 2.577530 1_555
