# generated using pymatgen
data_BaMg14SiO16
_symmetry_space_group_name_H-M   'P 1'
_cell_length_a   8.90021031
_cell_length_b   8.64418017
_cell_length_c   4.56140037
_cell_angle_alpha   90.00000000
_cell_angle_beta   90.00000000
_cell_angle_gamma   90.00000000
_symmetry_Int_Tables_number   1
_chemical_formula_structural   BaMg14SiO16
_chemical_formula_sum   'Ba1 Mg14 Si1 O16'
_cell_volume   350.93143540
_cell_formula_units_Z   1
loop_
 _symmetry_equiv_pos_site_id
 _symmetry_equiv_pos_as_xyz
  1  'x, y, z'
loop_
 _atom_site_type_symbol
 _atom_site_label
 _atom_site_symmetry_multiplicity
 _atom_site_fract_x
 _atom_site_fract_y
 _atom_site_fract_z
 _atom_site_occupancy
  Ba  Ba0  1  -0.00000000  0.50000000  -0.00000000  1
  Mg  Mg0  1  0.50000000  -0.00000000  -0.00000000  1
  Mg  Mg1  1  0.50000000  0.50000000  -0.00000000  1
  Mg  Mg2  1  -0.00000000  0.23688637  0.50000000  1
  Mg  Mg3  1  -0.00000000  0.76311363  0.50000000  1
  Mg  Mg4  1  0.50000000  0.24766990  0.50000000  1
  Mg  Mg5  1  0.50000000  0.75233010  0.50000000  1
  Mg  Mg6  1  0.25518699  -0.00000000  0.50000000  1
  Mg  Mg7  1  0.26599659  0.50000000  0.50000000  1
  Mg  Mg8  1  0.74481301  -0.00000000  0.50000000  1
  Mg  Mg9  1  0.73400341  0.50000000  0.50000000  1
  Mg  Mg10  1  0.26537827  0.24236335  0.00000000  1
  Mg  Mg11  1  0.26537827  0.75763665  -0.00000000  1
  Mg  Mg12  1  0.73462173  0.24236335  0.00000000  1
  Mg  Mg13  1  0.73462173  0.75763665  -0.00000000  1
  Si  Si0  1  -0.00000000  -0.00000000  -0.00000000  1
  O  O0  1  0.26970307  -0.00000000  -0.00000000  1
  O  O1  1  0.28025403  0.50000000  -0.00000000  1
  O  O2  1  0.73029693  -0.00000000  0.00000000  1
  O  O3  1  0.71974597  0.50000000  0.00000000  1
  O  O4  1  0.25020003  0.24972991  0.50000000  1
  O  O5  1  0.25020003  0.75027009  0.50000000  1
  O  O6  1  0.74979997  0.24972991  0.50000000  1
  O  O7  1  0.74979997  0.75027009  0.50000000  1
  O  O8  1  -0.00000000  -0.00000000  0.50000000  1
  O  O9  1  -0.00000000  0.50000000  0.50000000  1
  O  O10  1  0.50000000  -0.00000000  0.50000000  1
  O  O11  1  0.50000000  0.50000000  0.50000000  1
  O  O12  1  -0.00000000  0.21523662  0.00000000  1
  O  O13  1  -0.00000000  0.78476338  -0.00000000  1
  O  O14  1  0.50000000  0.24666521  0.00000000  1
  O  O15  1  0.50000000  0.75333479  -0.00000000  1
loop_
_geom_bond_atom_site_label_1
_geom_bond_atom_site_label_2
_geom_bond_distance
_geom_bond_site_symmetry_2
Ba0 O9 2.280700 1_555
Ba0 O9 2.280700 1_554
Ba0 O12 2.461546 1_555
Ba0 O13 2.461546 1_555
Ba0 O1 2.494320 1_555
Ba0 O3 2.494320 1_455
Mg0 O2 2.049691 1_555
Mg0 O0 2.049691 1_555
Mg0 O15 2.132219 1_545
Mg0 O14 2.132219 1_555
Mg0 O10 2.280700 1_555
Mg0 O10 2.280700 1_554
Mg1 O3 1.955785 1_555
Mg1 O1 1.955785 1_555
Mg1 O14 2.189872 1_555
Mg1 O15 2.189872 1_555
Mg1 O11 2.280700 1_554
Mg1 O11 2.280700 1_555
Mg2 O8 2.047688 1_555
Mg2 O4 2.229599 1_555
Mg2 O6 2.229599 1_455
Mg2 O9 2.274402 1_555
Mg2 O12 2.288365 1_556
Mg2 O12 2.288365 1_555
Mg3 O8 2.047688 1_565
Mg3 O7 2.229599 1_455
Mg3 O5 2.229599 1_555
Mg3 O9 2.274402 1_555
Mg3 O13 2.288365 1_555
Mg3 O13 2.288365 1_556
Mg4 O10 2.140903 1_555
Mg4 O11 2.181187 1_555
Mg4 O4 2.223344 1_555
Mg4 O6 2.223344 1_555
Mg4 O14 2.280717 1_556
Mg4 O14 2.280717 1_555
Mg5 O10 2.140903 1_565
Mg5 O11 2.181187 1_555
Mg5 O5 2.223344 1_555
Mg5 O7 2.223344 1_555
Mg5 O15 2.280717 1_556
Mg5 O15 2.280717 1_555
Mg6 O4 2.159167 1_555
Mg6 O5 2.159167 1_545
Mg6 O10 2.178887 1_555
Mg6 O8 2.271218 1_555
Mg6 O0 2.284357 1_555
Mg6 O0 2.284357 1_556
Mg7 O11 2.082680 1_555
Mg7 O4 2.167943 1_555
Mg7 O5 2.167943 1_555
Mg7 O1 2.284228 1_556
Mg7 O1 2.284228 1_555
Mg7 O9 2.367426 1_555
Mg8 O6 2.159167 1_555
Mg8 O7 2.159167 1_545
Mg8 O10 2.178887 1_555
Mg8 O8 2.271218 1_655
Mg8 O2 2.284357 1_556
Mg8 O2 2.284357 1_555
Mg9 O11 2.082680 1_555
Mg9 O6 2.167943 1_555
Mg9 O7 2.167943 1_555
Mg9 O3 2.284228 1_556
Mg9 O3 2.284228 1_555
Mg9 O9 2.367426 1_655
Mg10 O14 2.088514 1_555
Mg10 O0 2.095386 1_555
Mg10 O1 2.230990 1_555
Mg10 O4 2.285585 1_554
Mg10 O4 2.285585 1_555
Mg10 O12 2.373534 1_555
Mg11 O15 2.088514 1_555
Mg11 O0 2.095386 1_565
Mg11 O1 2.230990 1_555
Mg11 O5 2.285585 1_554
Mg11 O5 2.285585 1_555
Mg11 O13 2.373534 1_555
Mg12 O14 2.088514 1_555
Mg12 O2 2.095386 1_555
Mg12 O3 2.230990 1_555
Mg12 O6 2.285585 1_554
Mg12 O6 2.285585 1_555
Mg12 O12 2.373534 1_655
Mg13 O15 2.088514 1_555
Mg13 O2 2.095386 1_565
Mg13 O3 2.230990 1_555
Mg13 O7 2.285585 1_554
Mg13 O7 2.285585 1_555
Mg13 O13 2.373534 1_655
O0 Si0 2.400414 1_555
O2 Si0 2.400414 1_655
O8 Si0 2.280700 1_555
O8 Si0 2.280700 1_556
O12 Si0 1.860544 1_555
O13 Si0 1.860544 1_565
