# generated using pymatgen
data_Mg14FeNi
_symmetry_space_group_name_H-M   'P 1'
_cell_length_a   6.26773131
_cell_length_b   6.33770043
_cell_length_c   9.71760825
_cell_angle_alpha   90.00000000
_cell_angle_beta   90.00000000
_cell_angle_gamma   120.36997934
_symmetry_Int_Tables_number   1
_chemical_formula_structural   Mg14FeNi
_chemical_formula_sum   'Mg14 Fe1 Ni1'
_cell_volume   333.04343379
_cell_formula_units_Z   1
loop_
 _symmetry_equiv_pos_site_id
 _symmetry_equiv_pos_as_xyz
  1  'x, y, z'
loop_
 _atom_site_type_symbol
 _atom_site_label
 _atom_site_symmetry_multiplicity
 _atom_site_fract_x
 _atom_site_fract_y
 _atom_site_fract_z
 _atom_site_occupancy
  Mg  Mg0  1  0.17630198  0.33815049  0.62500000  1
  Mg  Mg1  1  0.17436045  0.83717972  0.62500000  1
  Mg  Mg2  1  0.71870780  0.35990281  0.12500000  1
  Mg  Mg3  1  0.66353783  0.33176118  0.62500000  1
  Mg  Mg4  1  0.71870780  0.85880399  0.12500000  1
  Mg  Mg5  1  0.66353783  0.83177566  0.62500000  1
  Mg  Mg6  1  0.31456230  0.15390191  0.34043019  1
  Mg  Mg7  1  0.31456230  0.15390191  0.90956981  1
  Mg  Mg8  1  0.31456230  0.66066139  0.34043019  1
  Mg  Mg9  1  0.31456230  0.66066139  0.90956981  1
  Mg  Mg10  1  0.83647589  0.16823845  0.37440507  1
  Mg  Mg11  1  0.83647589  0.16823845  0.87559493  1
  Mg  Mg12  1  0.83356321  0.66678210  0.37289674  1
  Mg  Mg13  1  0.83356321  0.66678210  0.87710326  1
  Fe  Fe0  1  0.14889661  0.32444781  0.12500000  1
  Ni  Ni0  1  0.13762231  0.81881065  0.12500000  1
loop_
_geom_bond_atom_site_label_1
_geom_bond_atom_site_label_2
_geom_bond_distance
_geom_bond_site_symmetry_2
Mg0 Mg10 3.050759 1_455
Mg0 Mg11 3.050759 1_455
Mg0 Mg5 3.074534 1_555
Mg0 Mg3 3.074535 1_555
Mg0 Mg1 3.168868 1_555
Mg0 Mg1 3.168868 1_545
Mg0 Mg5 3.193586 1_445
Mg0 Mg3 3.193586 1_455
Mg0 Mg6 3.284024 1_555
Mg0 Mg7 3.284024 1_555
Mg0 Mg8 3.284030 1_555
Mg0 Mg9 3.284030 1_555
Mg1 Mg12 3.065626 1_455
Mg1 Mg13 3.065626 1_455
Mg1 Mg3 3.083490 1_565
Mg1 Mg5 3.083490 1_555
Mg1 Mg3 3.184520 1_455
Mg1 Mg5 3.184520 1_455
Mg1 Mg9 3.265712 1_555
Mg1 Mg8 3.265712 1_555
Mg1 Mg6 3.265718 1_565
Mg1 Mg7 3.265718 1_565
Mg2 Ni0 2.762461 1_655
Mg3 Mg5 3.168758 1_545
Mg3 Mg5 3.168942 1_555
Mg3 Mg6 3.347963 1_555
Mg3 Mg7 3.347963 1_555
Mg4 Ni0 2.762461 1_655
Mg5 Mg8 3.347963 1_555
Mg5 Mg9 3.347963 1_555
Mg6 Ni0 2.782289 1_545
Mg7 Ni0 2.782289 1_546
Mg8 Ni0 2.782282 1_555
Mg9 Ni0 2.782282 1_556
Mg10 Mg2 2.966639 1_555
Mg10 Mg4 2.966645 1_545
Mg10 Mg3 3.052038 1_555
Mg10 Mg5 3.052045 1_545
Mg10 Mg8 3.061319 1_655
Mg10 Mg6 3.061320 1_655
Mg10 Mg12 3.168923 1_555
Mg10 Mg12 3.168923 1_545
Mg10 Mg8 3.243078 1_545
Mg10 Mg6 3.243078 1_555
Mg11 Mg2 2.966639 1_556
Mg11 Mg4 2.966645 1_546
Mg11 Mg3 3.052038 1_555
Mg11 Mg5 3.052045 1_545
Mg11 Mg9 3.061319 1_655
Mg11 Mg7 3.061320 1_655
Mg11 Mg13 3.168923 1_555
Mg11 Mg13 3.168923 1_545
Mg11 Mg9 3.243078 1_545
Mg11 Mg7 3.243078 1_555
Mg12 Ni0 2.916618 1_655
Mg12 Mg5 3.059023 1_555
Mg12 Mg3 3.059029 1_555
Mg13 Ni0 2.916618 1_656
Mg13 Mg5 3.059023 1_555
Mg13 Mg3 3.059029 1_555
Fe0 Mg7 2.786376 1_554
Fe0 Mg6 2.786376 1_555
Fe0 Mg9 2.786383 1_554
Fe0 Mg8 2.786383 1_555
Fe0 Mg4 2.816594 1_445
Fe0 Mg2 2.816594 1_455
Fe0 Mg11 2.954359 1_454
Fe0 Mg10 2.954359 1_455
