# generated using pymatgen
data_In5(Mo9O14)2
_symmetry_space_group_name_H-M   'P 1'
_cell_length_a   10.05397300
_cell_length_b   10.43259700
_cell_length_c   14.75929179
_cell_angle_alpha   79.22783472
_cell_angle_beta   90.00000000
_cell_angle_gamma   90.00000000
_symmetry_Int_Tables_number   1
_chemical_formula_structural   In5(Mo9O14)2
_chemical_formula_sum   'In10 Mo36 O56'
_cell_volume   1520.80792218
_cell_formula_units_Z   2
loop_
 _symmetry_equiv_pos_site_id
 _symmetry_equiv_pos_as_xyz
  1  'x, y, z'
loop_
 _atom_site_type_symbol
 _atom_site_label
 _atom_site_symmetry_multiplicity
 _atom_site_fract_x
 _atom_site_fract_y
 _atom_site_fract_z
 _atom_site_occupancy
  In  In0  1  0.55195400  0.94678200  0.89921300  1
  In  In1  1  0.05195400  0.55321800  0.10078700  1
  In  In2  1  0.44804600  0.05321800  0.10078700  1
  In  In3  1  0.94804600  0.44678200  0.89921300  1
  In  In4  1  0.47619700  0.91882700  0.70701500  1
  In  In5  1  0.97619700  0.58117300  0.29298500  1
  In  In6  1  0.52380300  0.08117300  0.29298500  1
  In  In7  1  0.02380300  0.41882700  0.70701500  1
  In  In8  1  0.50000000  0.00000000  0.50000000  1
  In  In9  1  0.00000000  0.50000000  0.50000000  1
  Mo  Mo0  1  0.62355200  0.28376900  0.95016600  1
  Mo  Mo1  1  0.12355200  0.21623100  0.04983400  1
  Mo  Mo2  1  0.37644800  0.71623100  0.04983400  1
  Mo  Mo3  1  0.87644800  0.78376900  0.95016600  1
  Mo  Mo4  1  0.36109300  0.47276100  0.94368000  1
  Mo  Mo5  1  0.86109300  0.02723900  0.05632000  1
  Mo  Mo6  1  0.63890700  0.52723900  0.05632000  1
  Mo  Mo7  1  0.13890700  0.97276100  0.94368000  1
  Mo  Mo8  1  0.63286800  0.59215300  0.83344500  1
  Mo  Mo9  1  0.13286800  0.90784700  0.16655500  1
  Mo  Mo10  1  0.36713200  0.40784700  0.16655500  1
  Mo  Mo11  1  0.86713200  0.09215300  0.83344500  1
  Mo  Mo12  1  0.35510200  0.24151600  0.83930700  1
  Mo  Mo13  1  0.85510200  0.25848400  0.16069300  1
  Mo  Mo14  1  0.64489800  0.75848400  0.16069300  1
  Mo  Mo15  1  0.14489800  0.74151600  0.83930700  1
  Mo  Mo16  1  0.62500800  0.33989500  0.72496100  1
  Mo  Mo17  1  0.12500800  0.16010500  0.27503900  1
  Mo  Mo18  1  0.37499200  0.66010500  0.27503900  1
  Mo  Mo19  1  0.87499200  0.83989500  0.72496100  1
  Mo  Mo20  1  0.37155100  0.54329700  0.72182700  1
  Mo  Mo21  1  0.87155100  0.95670300  0.27817300  1
  Mo  Mo22  1  0.62844900  0.45670300  0.27817300  1
  Mo  Mo23  1  0.12844900  0.04329700  0.72182700  1
  Mo  Mo24  1  0.64451600  0.64054100  0.61102300  1
  Mo  Mo25  1  0.14451600  0.85945900  0.38897700  1
  Mo  Mo26  1  0.35548400  0.35945900  0.38897700  1
  Mo  Mo27  1  0.85548400  0.14054100  0.61102300  1
  Mo  Mo28  1  0.35370600  0.30474100  0.61256300  1
  Mo  Mo29  1  0.85370600  0.19525900  0.38743700  1
  Mo  Mo30  1  0.64629400  0.69525900  0.38743700  1
  Mo  Mo31  1  0.14629400  0.80474100  0.61256300  1
  Mo  Mo32  1  0.62594400  0.39611500  0.50156000  1
  Mo  Mo33  1  0.12594400  0.10388500  0.49844000  1
  Mo  Mo34  1  0.37405600  0.60388500  0.49844000  1
  Mo  Mo35  1  0.87405600  0.89611500  0.50156000  1
  O  O0  1  0.53004700  0.74521100  0.49779000  1
  O  O1  1  0.03004700  0.75478900  0.50221000  1
  O  O2  1  0.46995300  0.25478900  0.50221000  1
  O  O3  1  0.96995300  0.24521100  0.49779000  1
  O  O4  1  0.74325900  0.56678400  0.50216600  1
  O  O5  1  0.24325900  0.93321600  0.49783400  1
  O  O6  1  0.25674100  0.43321600  0.49783400  1
  O  O7  1  0.75674100  0.06678400  0.50216600  1
  O  O8  1  0.51929400  0.69584600  0.71995200  1
  O  O9  1  0.01929400  0.80415400  0.28004800  1
  O  O10  1  0.48070600  0.30415400  0.28004800  1
  O  O11  1  0.98070600  0.19584600  0.71995200  1
  O  O12  1  0.46904400  0.20325200  0.72691000  1
  O  O13  1  0.96904400  0.29674800  0.27309000  1
  O  O14  1  0.53095600  0.79674800  0.27309000  1
  O  O15  1  0.03095600  0.70325200  0.72691000  1
  O  O16  1  0.48482100  0.13087200  0.94615800  1
  O  O17  1  0.98482100  0.36912800  0.05384200  1
  O  O18  1  0.51517900  0.86912800  0.05384200  1
  O  O19  1  0.01517900  0.63087200  0.94615800  1
  O  O20  1  0.26876900  0.64497100  0.61114800  1
  O  O21  1  0.76876900  0.85502900  0.38885200  1
  O  O22  1  0.73123100  0.35502900  0.38885200  1
  O  O23  1  0.23123100  0.14497100  0.61114800  1
  O  O24  1  0.50424500  0.62327600  0.95427600  1
  O  O25  1  0.00424500  0.87672400  0.04572400  1
  O  O26  1  0.49575500  0.37672400  0.04572400  1
  O  O27  1  0.99575500  0.12327600  0.95427600  1
  O  O28  1  0.25128300  0.37158500  0.72781700  1
  O  O29  1  0.75128300  0.12841500  0.27218300  1
  O  O30  1  0.74871700  0.62841500  0.27218300  1
  O  O31  1  0.24871700  0.87158500  0.72781700  1
  O  O32  1  0.25333800  0.31441600  0.94761600  1
  O  O33  1  0.75333800  0.18558400  0.05238400  1
  O  O34  1  0.74666200  0.68558400  0.05238400  1
  O  O35  1  0.24666200  0.81441600  0.94761600  1
  O  O36  1  0.72535900  0.29289200  0.61487900  1
  O  O37  1  0.22535900  0.20710800  0.38512100  1
  O  O38  1  0.27464100  0.70710800  0.38512100  1
  O  O39  1  0.77464100  0.79289200  0.61487900  1
  O  O40  1  0.73494400  0.46396000  0.94488200  1
  O  O41  1  0.23494400  0.03604000  0.05511800  1
  O  O42  1  0.26505600  0.53604000  0.05511800  1
  O  O43  1  0.76505600  0.96396000  0.94488200  1
  O  O44  1  0.27614700  0.58769500  0.83860500  1
  O  O45  1  0.77614700  0.91230500  0.16139500  1
  O  O46  1  0.72385300  0.41230500  0.16139500  1
  O  O47  1  0.22385300  0.08769500  0.83860500  1
  O  O48  1  0.73377400  0.24323400  0.83849800  1
  O  O49  1  0.23377400  0.25676600  0.16150200  1
  O  O50  1  0.26622600  0.75676600  0.16150200  1
  O  O51  1  0.76622600  0.74323400  0.83849800  1
  O  O52  1  0.72839800  0.51564400  0.72810700  1
  O  O53  1  0.22839800  0.98435600  0.27189300  1
  O  O54  1  0.27160200  0.48435600  0.27189300  1
  O  O55  1  0.77160200  0.01564400  0.72810700  1
loop_
_geom_bond_atom_site_label_1
_geom_bond_atom_site_label_2
_geom_bond_distance
_geom_bond_site_symmetry_2
In0 O16 2.263078 1_565
In0 O43 2.263184 1_555
In0 O18 2.304428 1_556
In1 O17 2.263078 1_455
In1 O42 2.263184 1_555
In1 O19 2.304428 1_554
In2 O18 2.263078 1_545
In2 O41 2.263184 1_555
In2 O16 2.304428 1_554
In3 O19 2.263078 1_655
In3 O40 2.263184 1_555
In3 O17 2.304428 1_556
In4 O8 2.338739 1_555
In4 O31 2.347623 1_555
In5 O9 2.338739 1_655
In5 O30 2.347623 1_555
In6 O10 2.338739 1_555
In6 O29 2.347623 1_555
In7 O11 2.338739 1_455
In7 O28 2.347623 1_555
In8 O5 2.675392 1_545
In8 O7 2.675392 1_555
In8 O0 2.681471 1_545
In8 O2 2.681471 1_555
In9 O4 2.675392 1_455
In9 O6 2.675392 1_555
In9 O3 2.681471 1_455
In9 O1 2.681471 1_555
Mo0 O48 2.093746 1_555
Mo0 O33 2.109577 1_556
Mo0 O16 2.128055 1_555
Mo0 O40 2.177017 1_555
Mo0 O26 2.256486 1_556
Mo1 O49 2.093746 1_555
Mo1 O32 2.109577 1_554
Mo1 O17 2.128055 1_455
Mo1 O41 2.177017 1_555
Mo1 O27 2.256486 1_454
Mo2 O50 2.093746 1_555
Mo2 O35 2.109577 1_554
Mo2 O18 2.128055 1_555
Mo2 O42 2.177017 1_555
Mo2 O24 2.256486 1_554
Mo3 O51 2.093746 1_555
Mo3 O34 2.109577 1_556
Mo3 O19 2.128055 1_655
Mo3 O43 2.177017 1_555
Mo3 O25 2.256486 1_656
Mo4 O32 1.967262 1_555
Mo4 O44 1.969037 1_555
Mo4 O42 2.116408 1_556
Mo4 O26 2.130987 1_556
Mo4 O24 2.157176 1_555
Mo5 O33 1.967262 1_555
Mo5 O45 1.969037 1_545
Mo5 O43 2.116408 1_544
Mo5 O27 2.130987 1_554
Mo5 O25 2.157176 1_645
Mo6 O34 1.967262 1_555
Mo6 O46 1.969037 1_555
Mo6 O40 2.116408 1_554
Mo6 O24 2.130987 1_554
Mo6 O26 2.157176 1_555
Mo7 O35 1.967262 1_555
Mo7 O47 1.969037 1_565
Mo7 O41 2.116408 1_566
Mo7 O25 2.130987 1_556
Mo7 O27 2.157176 1_465
Mo8 O51 2.081223 1_555
Mo8 O52 2.107272 1_555
Mo8 O8 2.145377 1_555
Mo8 O40 2.173644 1_555
Mo8 O24 2.274779 1_555
Mo9 O50 2.081223 1_555
Mo9 O53 2.107272 1_555
Mo9 O9 2.145377 1_555
Mo9 O41 2.173644 1_565
Mo9 O25 2.274779 1_555
Mo10 O49 2.081223 1_555
Mo10 O54 2.107272 1_555
Mo10 O10 2.145377 1_555
Mo10 O42 2.173644 1_555
Mo10 O26 2.274779 1_555
Mo11 O48 2.081223 1_555
Mo11 O55 2.107272 1_555
Mo11 O11 2.145377 1_555
Mo11 O43 2.173644 1_545
Mo11 O27 2.274779 1_555
Mo12 O47 2.079141 1_555
Mo12 O12 2.114516 1_555
Mo12 O32 2.152925 1_555
Mo12 O28 2.191775 1_555
Mo12 O16 2.199984 1_555
Mo13 O46 2.079141 1_555
Mo13 O13 2.114516 1_555
Mo13 O33 2.152925 1_555
Mo13 O29 2.191775 1_555
Mo13 O17 2.199984 1_555
Mo14 O45 2.079141 1_555
Mo14 O14 2.114516 1_555
Mo14 O34 2.152925 1_555
Mo14 O30 2.191775 1_555
Mo14 O18 2.199984 1_555
Mo15 O44 2.079141 1_555
Mo15 O15 2.114516 1_555
Mo15 O35 2.152925 1_555
Mo15 O31 2.191775 1_555
Mo15 O19 2.199984 1_555
Mo16 O36 2.048404 1_555
Mo16 O48 2.095020 1_555
Mo16 O52 2.115724 1_555
Mo16 O12 2.115768 1_555
Mo17 O37 2.048404 1_555
Mo17 O49 2.095020 1_555
Mo17 O53 2.115724 1_545
Mo17 O13 2.115768 1_455
Mo18 O38 2.048404 1_555
Mo18 O50 2.095020 1_555
Mo18 O54 2.115724 1_555
Mo18 O14 2.115768 1_555
Mo19 O39 2.048404 1_555
Mo19 O51 2.095020 1_555
Mo19 O55 2.115724 1_565
Mo19 O15 2.115768 1_655
Mo20 O20 2.052739 1_555
Mo20 O44 2.098492 1_555
Mo20 O28 2.149379 1_555
Mo20 O8 2.173371 1_555
Mo21 O21 2.052739 1_555
Mo21 O45 2.098492 1_555
Mo21 O29 2.149379 1_565
Mo21 O9 2.173371 1_655
Mo22 O22 2.052739 1_555
Mo22 O46 2.098492 1_555
Mo22 O30 2.149379 1_555
Mo22 O10 2.173371 1_555
Mo23 O23 2.052739 1_555
Mo23 O47 2.098492 1_555
Mo23 O31 2.149379 1_545
Mo23 O11 2.173371 1_455
Mo24 O39 2.067577 1_555
Mo24 O52 2.133916 1_555
Mo24 O4 2.149681 1_555
Mo24 O0 2.151226 1_555
Mo24 O8 2.202140 1_555
Mo25 O38 2.067577 1_555
Mo25 O53 2.133916 1_555
Mo25 O5 2.149681 1_555
Mo25 O1 2.151226 1_555
Mo25 O9 2.202140 1_555
Mo26 O37 2.067577 1_555
Mo26 O54 2.133916 1_555
Mo26 O6 2.149681 1_555
Mo26 O2 2.151226 1_555
Mo26 O10 2.202140 1_555
Mo27 O36 2.067577 1_555
Mo27 O55 2.133916 1_555
Mo27 O7 2.149681 1_555
Mo27 O3 2.151226 1_555
Mo27 O11 2.202140 1_555
Mo28 O23 2.075566 1_555
Mo28 O2 2.146529 1_555
Mo28 O12 2.155466 1_555
Mo28 O6 2.183073 1_555
Mo28 O28 2.209925 1_555
Mo29 O22 2.075566 1_555
Mo29 O3 2.146529 1_555
Mo29 O13 2.155466 1_555
Mo29 O7 2.183073 1_555
Mo29 O29 2.209925 1_555
Mo30 O21 2.075566 1_555
Mo30 O0 2.146529 1_555
Mo30 O14 2.155466 1_555
Mo30 O4 2.183073 1_555
Mo30 O30 2.209925 1_555
Mo31 O20 2.075566 1_555
Mo31 O1 2.146529 1_555
Mo31 O15 2.155466 1_555
Mo31 O5 2.183073 1_555
Mo31 O31 2.209925 1_555
Mo32 O36 2.069476 1_555
Mo32 O22 2.082786 1_555
Mo32 O4 2.137163 1_555
Mo32 O2 2.151350 1_555
Mo33 O37 2.069476 1_555
Mo33 O23 2.082786 1_555
Mo33 O5 2.137163 1_545
Mo33 O3 2.151350 1_455
Mo34 O38 2.069476 1_555
Mo34 O20 2.082786 1_555
Mo34 O6 2.137163 1_555
Mo34 O0 2.151350 1_555
Mo35 O39 2.069476 1_555
Mo35 O21 2.082786 1_555
Mo35 O7 2.137163 1_565
Mo35 O1 2.151350 1_655
