# generated using pymatgen
data_V2Cu3NiO6
_symmetry_space_group_name_H-M   'P 1'
_cell_length_a   5.29907491
_cell_length_b   7.39270614
_cell_length_c   7.39270690
_cell_angle_alpha   104.25592445
_cell_angle_beta   82.89131642
_cell_angle_gamma   97.10842453
_symmetry_Int_Tables_number   1
_chemical_formula_structural   V2Cu3NiO6
_chemical_formula_sum   'V4 Cu6 Ni2 O12'
_cell_volume   277.21680554
_cell_formula_units_Z   2
loop_
 _symmetry_equiv_pos_site_id
 _symmetry_equiv_pos_as_xyz
  1  'x, y, z'
loop_
 _atom_site_type_symbol
 _atom_site_label
 _atom_site_symmetry_multiplicity
 _atom_site_fract_x
 _atom_site_fract_y
 _atom_site_fract_z
 _atom_site_occupancy
  V  V0  1  0.75001100  0.25025300  0.75025100  1
  V  V1  1  0.25000500  0.74828200  0.24827600  1
  V  V2  1  0.75000200  0.58305600  0.08306600  1
  V  V3  1  0.25000700  0.08504500  0.58503800  1
  Cu  Cu0  1  0.49789900  0.16635200  0.16700900  1
  Cu  Cu1  1  0.00213200  0.66702200  0.66634400  1
  Cu  Cu2  1  0.00550100  0.33606500  0.33786700  1
  Cu  Cu3  1  0.49449800  0.83786200  0.83606900  1
  Cu  Cu4  1  0.00542900  0.99556000  0.99729700  1
  Cu  Cu5  1  0.49450600  0.49725300  0.49549500  1
  Ni  Ni0  1  0.75000100  0.91663000  0.41663100  1
  Ni  Ni1  1  0.25000300  0.41665100  0.91666600  1
  O  O0  1  0.94187800  0.50701900  0.82632900  1
  O  O1  1  0.43117000  0.00561700  0.32774000  1
  O  O2  1  0.55810800  0.32632700  0.00702100  1
  O  O3  1  0.06884500  0.82774000  0.50561800  1
  O  O4  1  0.96056800  0.83609300  0.15846700  1
  O  O5  1  0.44421000  0.33063300  0.64859100  1
  O  O6  1  0.44420100  0.68478400  0.00270200  1
  O  O7  1  0.96055100  0.17480400  0.49719900  1
  O  O8  1  0.05579200  0.50270200  0.18479100  1
  O  O9  1  0.53945800  0.99719900  0.67480700  1
  O  O10  1  0.53944100  0.65846500  0.33609600  1
  O  O11  1  0.05578800  0.14858500  0.83063300  1
loop_
_geom_bond_atom_site_label_1
_geom_bond_atom_site_label_2
_geom_bond_distance
_geom_bond_site_symmetry_2
Cu0 O2 1.844304 1_555
Cu0 O1 1.853734 1_555
Cu1 O0 1.844451 1_455
Cu1 O3 1.853605 1_555
Cu2 O8 1.843885 1_555
Cu2 O7 1.848589 1_455
Cu3 O6 1.843873 1_556
Cu3 O9 1.848622 1_555
Cu4 O11 1.843754 1_565
Cu4 O4 1.848853 1_456
Cu5 O5 1.843897 1_555
Cu5 O10 1.848693 1_555
Ni0 O10 2.078384 1_555
Ni0 O4 2.078392 1_555
Ni0 O9 2.078433 1_555
Ni0 O7 2.078443 1_565
Ni0 O1 2.117035 1_565
Ni0 O3 2.117092 1_655
Ni1 O2 2.077759 1_556
Ni1 O0 2.077947 1_455
Ni1 O11 2.104145 1_555
Ni1 O5 2.104161 1_555
Ni1 O8 2.104500 1_556
Ni1 O6 2.104511 1_556
O0 V2 2.022497 1_556
O0 V0 2.022688 1_555
O1 V3 2.005481 1_555
O1 V1 2.005745 1_545
O2 V2 2.022501 1_555
O2 V0 2.022784 1_554
O3 V3 2.005519 1_565
O3 V1 2.005767 1_555
O4 V1 1.981242 1_655
O4 V2 2.044209 1_555
O5 V3 1.952736 1_555
O5 V0 2.074489 1_555
O6 V1 1.952600 1_555
O6 V2 2.074699 1_555
O7 V3 1.981244 1_655
O7 V0 2.044267 1_555
O8 V1 1.952673 1_555
O8 V2 2.074603 1_455
O9 V3 1.981285 1_565
O9 V0 2.044312 1_565
O10 V1 1.981302 1_555
O10 V2 2.044158 1_555
O11 V3 1.952803 1_555
O11 V0 2.074417 1_455
