# generated using pymatgen
data_BeAsO5
_symmetry_space_group_name_H-M   'P 1'
_cell_length_a   4.82611200
_cell_length_b   8.88331300
_cell_length_c   9.22132700
_cell_angle_alpha   90.00000000
_cell_angle_beta   90.00000000
_cell_angle_gamma   90.00000000
_symmetry_Int_Tables_number   1
_chemical_formula_structural   BeAsO5
_chemical_formula_sum   'Be4 As4 O20'
_cell_volume   395.33547215
_cell_formula_units_Z   4
loop_
 _symmetry_equiv_pos_site_id
 _symmetry_equiv_pos_as_xyz
  1  'x, y, z'
loop_
 _atom_site_type_symbol
 _atom_site_label
 _atom_site_symmetry_multiplicity
 _atom_site_fract_x
 _atom_site_fract_y
 _atom_site_fract_z
 _atom_site_occupancy
  Be  Be0  1  0.62075100  0.29297100  0.45931000  1
  Be  Be1  1  0.37924900  0.79297100  0.54069000  1
  Be  Be2  1  0.62075100  0.79297100  0.04069000  1
  Be  Be3  1  0.37924900  0.29297100  0.95931000  1
  As  As0  1  0.89334900  0.97201900  0.45682500  1
  As  As1  1  0.10665100  0.47201900  0.54317500  1
  As  As2  1  0.89334900  0.47201900  0.04317500  1
  As  As3  1  0.10665100  0.97201900  0.95682500  1
  O  O0  1  0.50568200  0.19369900  0.32208600  1
  O  O1  1  0.49431800  0.69369900  0.67791400  1
  O  O2  1  0.50568200  0.69369900  0.17791400  1
  O  O3  1  0.49431800  0.19369900  0.82208600  1
  O  O4  1  0.64956700  0.83346200  0.44900000  1
  O  O5  1  0.35043300  0.33346200  0.55100000  1
  O  O6  1  0.64956700  0.33346200  0.05100000  1
  O  O7  1  0.35043300  0.83346200  0.94900000  1
  O  O8  1  0.06227100  0.98905700  0.29170100  1
  O  O9  1  0.93772900  0.48905700  0.70829900  1
  O  O10  1  0.06227100  0.48905700  0.20829900  1
  O  O11  1  0.93772900  0.98905700  0.79170100  1
  O  O12  1  0.16707200  0.92903100  0.57036200  1
  O  O13  1  0.83292800  0.42903100  0.42963800  1
  O  O14  1  0.16707200  0.42903100  0.92963800  1
  O  O15  1  0.83292800  0.92903100  0.07036200  1
  O  O16  1  0.76097300  0.13966000  0.52033900  1
  O  O17  1  0.23902700  0.63966000  0.47966100  1
  O  O18  1  0.76097300  0.63966000  0.97966100  1
  O  O19  1  0.23902700  0.13966000  0.02033900  1
loop_
_geom_bond_atom_site_label_1
_geom_bond_atom_site_label_2
_geom_bond_distance
_geom_bond_site_symmetry_2
Be0 O5 1.595681 1_555
Be0 O13 1.607572 1_555
Be0 O16 1.621563 1_555
Be0 O0 1.639295 1_555
Be1 O4 1.595681 1_555
Be1 O12 1.607572 1_555
Be1 O17 1.621563 1_555
Be1 O1 1.639295 1_555
Be2 O7 1.595681 1_554
Be2 O15 1.607572 1_555
Be2 O18 1.621563 1_554
Be2 O2 1.639295 1_555
Be3 O6 1.595681 1_556
Be3 O14 1.607572 1_555
Be3 O19 1.621563 1_556
Be3 O3 1.639295 1_555
As0 O4 1.704225 1_555
As0 O16 1.723052 1_565
As0 O12 1.728307 1_655
As0 O8 1.733788 1_655
As1 O5 1.704225 1_555
As1 O17 1.723052 1_555
As1 O13 1.728307 1_455
As1 O9 1.733788 1_455
As2 O6 1.704225 1_555
As2 O18 1.723052 1_554
As2 O14 1.728307 1_654
As2 O10 1.733788 1_655
As3 O7 1.704225 1_555
As3 O19 1.723052 1_566
As3 O15 1.728307 1_456
As3 O11 1.733788 1_455
