# generated using pymatgen
data_KSrSb
_symmetry_space_group_name_H-M   'P 1'
_cell_length_a   5.56254637
_cell_length_b   5.56254757
_cell_length_c   5.56254700
_cell_angle_alpha   59.99999744
_cell_angle_beta   59.99999033
_cell_angle_gamma   59.99999723
_symmetry_Int_Tables_number   1
_chemical_formula_structural   KSrSb
_chemical_formula_sum   'K1 Sr1 Sb1'
_cell_volume   121.70432979
_cell_formula_units_Z   1
loop_
 _symmetry_equiv_pos_site_id
 _symmetry_equiv_pos_as_xyz
  1  'x, y, z'
loop_
 _atom_site_type_symbol
 _atom_site_label
 _atom_site_symmetry_multiplicity
 _atom_site_fract_x
 _atom_site_fract_y
 _atom_site_fract_z
 _atom_site_occupancy
  K  K0  1  0.00000000  0.00000000  0.00000000  1
  Sr  Sr0  1  0.25000000  0.25000000  0.25000000  1
  Sb  Sb0  1  0.50000000  0.50000000  0.50000000  1
loop_
_geom_bond_atom_site_label_1
_geom_bond_atom_site_label_2
_geom_bond_distance
_geom_bond_site_symmetry_2
K0 Sr0 3.406350 1_455
K0 Sr0 3.406350 1_554
K0 Sr0 3.406351 1_555
K0 Sr0 3.406351 1_545
K0 Sb0 3.933314 1_445
K0 Sb0 3.933314 1_554
K0 Sb0 3.933315 1_454
K0 Sb0 3.933315 1_455
K0 Sb0 3.933315 1_545
K0 Sb0 3.933315 1_544
Sb0 Sr0 3.406350 1_655
Sb0 Sr0 3.406350 1_556
Sb0 Sr0 3.406351 1_555
Sb0 Sr0 3.406351 1_565
