# generated using pymatgen
data_HoCuPbS3
_symmetry_space_group_name_H-M   'P 1'
_cell_length_a   6.85098304
_cell_length_b   6.85098304
_cell_length_c   10.22844800
_cell_angle_alpha   90.00000000
_cell_angle_beta   90.00000000
_cell_angle_gamma   146.49012632
_symmetry_Int_Tables_number   1
_chemical_formula_structural   HoCuPbS3
_chemical_formula_sum   'Ho2 Cu2 Pb2 S6'
_cell_volume   265.04405950
_cell_formula_units_Z   2
loop_
 _symmetry_equiv_pos_site_id
 _symmetry_equiv_pos_as_xyz
  1  'x, y, z'
loop_
 _atom_site_type_symbol
 _atom_site_label
 _atom_site_symmetry_multiplicity
 _atom_site_fract_x
 _atom_site_fract_y
 _atom_site_fract_z
 _atom_site_occupancy
  Ho  Ho0  1  0.99714300  0.00285700  0.49864400  1
  Ho  Ho1  1  0.00285700  0.99714300  0.99864400  1
  Cu  Cu0  1  0.46616000  0.53384000  0.24958500  1
  Cu  Cu1  1  0.53384000  0.46616000  0.74958500  1
  Pb  Pb0  1  0.74827500  0.25172500  0.22658100  1
  Pb  Pb1  1  0.25172500  0.74827500  0.72658100  1
  S  S0  1  0.07326200  0.92673800  0.25029600  1
  S  S1  1  0.92673800  0.07326200  0.75029600  1
  S  S2  1  0.36256800  0.63743200  0.43490400  1
  S  S3  1  0.63681600  0.36318400  0.56479000  1
  S  S4  1  0.36318400  0.63681600  0.06479000  1
  S  S5  1  0.63743200  0.36256800  0.93490400  1
loop_
_geom_bond_atom_site_label_1
_geom_bond_atom_site_label_2
_geom_bond_distance
_geom_bond_site_symmetry_2
Ho0 S2 2.728224 1_545
Ho0 S2 2.728224 1_655
Ho0 S0 2.729486 1_645
Ho0 S1 2.734741 1_555
Ho0 S3 2.777873 1_655
Ho0 S3 2.777873 1_545
Ho1 S5 2.728224 1_455
Ho1 S5 2.728224 1_565
Ho1 S1 2.729486 1_465
Ho1 S0 2.734741 1_556
Ho1 S4 2.777873 1_456
Ho1 S4 2.777873 1_566
Cu0 S4 2.323387 1_555
Cu0 S2 2.332449 1_555
Cu0 S0 2.423893 1_655
Cu0 S0 2.423893 1_545
Cu1 S3 2.323387 1_555
Cu1 S5 2.332449 1_555
Cu1 S1 2.423893 1_565
Cu1 S1 2.423893 1_455
Pb0 S4 2.985325 1_655
Pb0 S4 2.985325 1_545
Pb0 S0 3.038429 1_655
Pb0 S0 3.038429 1_545
Pb1 S3 2.985325 1_455
Pb1 S3 2.985325 1_565
Pb1 S1 3.038429 1_455
Pb1 S1 3.038429 1_565
