# generated using pymatgen
data_YbCrB4
_symmetry_space_group_name_H-M   'P 1'
_cell_length_a   3.37851400
_cell_length_b   5.95358900
_cell_length_c   11.54256700
_cell_angle_alpha   90.00000000
_cell_angle_beta   90.00000000
_cell_angle_gamma   90.00000000
_symmetry_Int_Tables_number   1
_chemical_formula_structural   YbCrB4
_chemical_formula_sum   'Yb4 Cr4 B16'
_cell_volume   232.17046827
_cell_formula_units_Z   4
loop_
 _symmetry_equiv_pos_site_id
 _symmetry_equiv_pos_as_xyz
  1  'x, y, z'
loop_
 _atom_site_type_symbol
 _atom_site_label
 _atom_site_symmetry_multiplicity
 _atom_site_fract_x
 _atom_site_fract_y
 _atom_site_fract_z
 _atom_site_occupancy
  Yb  Yb0  1  0.50000000  0.37780700  0.15156100  1
  Yb  Yb1  1  0.50000000  0.62219300  0.84843900  1
  Yb  Yb2  1  0.50000000  0.12219300  0.65156100  1
  Yb  Yb3  1  0.50000000  0.87780700  0.34843900  1
  Cr  Cr0  1  0.50000000  0.37972800  0.42049600  1
  Cr  Cr1  1  0.50000000  0.62027200  0.57950400  1
  Cr  Cr2  1  0.50000000  0.12027200  0.92049600  1
  Cr  Cr3  1  0.50000000  0.87972800  0.07950400  1
  B  B0  1  0.00000000  0.11427200  0.04700900  1
  B  B1  1  0.00000000  0.88572800  0.95299100  1
  B  B2  1  0.00000000  0.38572800  0.54700900  1
  B  B3  1  0.00000000  0.61427200  0.45299100  1
  B  B4  1  0.00000000  0.13762000  0.46593900  1
  B  B5  1  0.00000000  0.86238000  0.53406100  1
  B  B6  1  0.00000000  0.36238000  0.96593900  1
  B  B7  1  0.00000000  0.63762000  0.03406100  1
  B  B8  1  0.00000000  0.02139400  0.19154300  1
  B  B9  1  0.00000000  0.97860600  0.80845700  1
  B  B10  1  0.00000000  0.47860600  0.69154300  1
  B  B11  1  0.00000000  0.52139400  0.30845700  1
  B  B12  1  0.00000000  0.21766000  0.31587200  1
  B  B13  1  0.00000000  0.78234000  0.68412800  1
  B  B14  1  0.00000000  0.28234000  0.81587200  1
  B  B15  1  0.00000000  0.71766000  0.18412800  1
loop_
_geom_bond_atom_site_label_1
_geom_bond_atom_site_label_2
_geom_bond_distance
_geom_bond_site_symmetry_2
B0 B1 1.740421 1_544
B0 B6 1.748588 1_554
B0 B8 1.757545 1_555
B0 Cr3 2.223543 1_545
B0 Cr3 2.223543 1_445
B0 Cr2 2.233226 1_454
B0 Cr2 2.233226 1_554
B0 Yb0 2.602239 1_455
B0 Yb0 2.602239 1_555
B1 B7 1.748588 1_556
B1 B9 1.757545 1_555
B1 Cr2 2.223543 1_565
B1 Cr2 2.223543 1_465
B1 Cr3 2.233226 1_456
B1 Cr3 2.233226 1_556
B1 Yb1 2.602239 1_455
B1 Yb1 2.602239 1_555
B2 B3 1.740421 1_555
B2 B4 1.748588 1_555
B2 Cr1 2.223543 1_555
B2 Cr1 2.223543 1_455
B2 Cr0 2.233226 1_455
B2 Cr0 2.233226 1_555
B2 Yb2 2.602239 1_555
B2 Yb2 2.602239 1_455
B3 B5 1.748588 1_555
B3 Cr0 2.223543 1_555
B3 Cr0 2.223543 1_455
B3 Cr1 2.233226 1_455
B3 Cr1 2.233226 1_555
B3 Yb3 2.602239 1_555
B3 Yb3 2.602239 1_455
B4 B5 1.817553 1_545
B4 Cr0 2.281751 1_455
B4 Cr0 2.281751 1_555
B4 Yb3 2.661890 1_445
B4 Yb3 2.661890 1_545
B4 Yb2 2.729938 1_455
B4 Yb2 2.729938 1_555
B5 Cr1 2.281751 1_555
B5 Cr1 2.281751 1_455
B5 Yb2 2.661890 1_565
B5 Yb2 2.661890 1_465
B5 Yb3 2.729938 1_555
B5 Yb3 2.729938 1_455
B6 B7 1.817553 1_556
B6 Cr2 2.281751 1_555
B6 Cr2 2.281751 1_455
B6 Yb1 2.661890 1_555
B6 Yb1 2.661890 1_455
B6 Yb0 2.729938 1_456
B6 Yb0 2.729938 1_556
B7 Cr3 2.281751 1_455
B7 Cr3 2.281751 1_555
B7 Yb0 2.661890 1_455
B7 Yb0 2.661890 1_555
B7 Yb1 2.729938 1_454
B7 Yb1 2.729938 1_554
B8 Cr3 2.288528 1_545
B8 Cr3 2.288528 1_445
B8 Yb3 2.619929 1_545
B8 Yb3 2.619929 1_445
B8 Yb0 2.751215 1_555
B8 Yb0 2.751215 1_455
B9 Cr2 2.288528 1_565
B9 Cr2 2.288528 1_465
B9 Yb2 2.619929 1_465
B9 Yb2 2.619929 1_565
B9 Yb1 2.751215 1_555
B9 Yb1 2.751215 1_455
B10 B2 1.757545 1_555
B10 B13 1.810332 1_555
B10 B14 1.850623 1_555
B10 Cr1 2.288528 1_555
B10 Cr1 2.288528 1_455
B10 Yb1 2.619929 1_455
B10 Yb1 2.619929 1_555
B10 Yb2 2.751215 1_455
B10 Yb2 2.751215 1_555
B11 B3 1.757545 1_555
B11 B12 1.810332 1_555
B11 B15 1.850623 1_555
B11 Cr0 2.288528 1_455
B11 Cr0 2.288528 1_555
B11 Yb0 2.619929 1_555
B11 Yb0 2.619929 1_455
B11 Yb3 2.751215 1_555
B11 Yb3 2.751215 1_455
B12 B4 1.796510 1_555
B12 B8 1.850623 1_555
B12 Cr0 2.289752 1_455
B12 Cr0 2.289752 1_555
B12 Yb3 2.662484 1_545
B12 Yb3 2.662484 1_445
B12 Yb0 2.712865 1_455
B12 Yb0 2.712865 1_555
B13 B5 1.796510 1_555
B13 B9 1.850623 1_555
B13 Cr1 2.289752 1_455
B13 Cr1 2.289752 1_555
B13 Yb2 2.662484 1_465
B13 Yb2 2.662484 1_565
B13 Yb1 2.712865 1_555
B13 Yb1 2.712865 1_455
B14 B6 1.796510 1_555
B14 B9 1.810332 1_545
B14 Cr2 2.289752 1_555
B14 Cr2 2.289752 1_455
B14 Yb1 2.662484 1_455
B14 Yb1 2.662484 1_555
B14 Yb2 2.712865 1_455
B14 Yb2 2.712865 1_555
B15 B7 1.796510 1_555
B15 B8 1.810332 1_565
B15 Cr3 2.289752 1_555
B15 Cr3 2.289752 1_455
B15 Yb0 2.662484 1_455
B15 Yb0 2.662484 1_555
B15 Yb3 2.712865 1_455
B15 Yb3 2.712865 1_555
