# generated using pymatgen
data_CaMg14W
_symmetry_space_group_name_H-M   'P 1'
_cell_length_a   6.41038919
_cell_length_b   6.41038865
_cell_length_c   10.17249783
_cell_angle_alpha   90.00000000
_cell_angle_beta   90.00000000
_cell_angle_gamma   120.00000272
_symmetry_Int_Tables_number   1
_chemical_formula_structural   CaMg14W
_chemical_formula_sum   'Ca1 Mg14 W1'
_cell_volume   362.01534867
_cell_formula_units_Z   1
loop_
 _symmetry_equiv_pos_site_id
 _symmetry_equiv_pos_as_xyz
  1  'x, y, z'
loop_
 _atom_site_type_symbol
 _atom_site_label
 _atom_site_symmetry_multiplicity
 _atom_site_fract_x
 _atom_site_fract_y
 _atom_site_fract_z
 _atom_site_occupancy
  Ca  Ca0  1  0.16666700  0.33333300  0.12500000  1
  Mg  Mg0  1  0.17550151  0.83775026  0.12500000  1
  Mg  Mg1  1  0.16347400  0.83173650  0.62500000  1
  Mg  Mg2  1  0.66224974  0.32449849  0.12500000  1
  Mg  Mg3  1  0.66826350  0.33652600  0.62500000  1
  Mg  Mg4  1  0.66224974  0.83775026  0.12500000  1
  Mg  Mg5  1  0.66826350  0.83173650  0.62500000  1
  Mg  Mg6  1  0.32979881  0.17020119  0.39264425  1
  Mg  Mg7  1  0.32979881  0.17020119  0.85735575  1
  Mg  Mg8  1  0.32979881  0.65959862  0.39264425  1
  Mg  Mg9  1  0.32979881  0.65959862  0.85735575  1
  Mg  Mg10  1  0.84040138  0.17020119  0.39264425  1
  Mg  Mg11  1  0.84040138  0.17020119  0.85735575  1
  Mg  Mg12  1  0.83333300  0.66666700  0.36887683  1
  Mg  Mg13  1  0.83333300  0.66666700  0.88112317  1
  W  W0  1  0.16666700  0.33333300  0.62500000  1
loop_
_geom_bond_atom_site_label_1
_geom_bond_atom_site_label_2
_geom_bond_distance
_geom_bond_site_symmetry_2
Ca0 Mg0 3.205570 1_545
Ca0 Mg4 3.205570 1_555
Ca0 Mg4 3.205570 1_445
Ca0 Mg0 3.205570 1_555
Ca0 Mg2 3.205570 1_555
Ca0 Mg2 3.205570 1_455
Ca0 Mg6 3.270063 1_555
Ca0 Mg7 3.270063 1_554
Ca0 Mg8 3.270069 1_555
Ca0 Mg9 3.270069 1_554
Ca0 Mg10 3.270070 1_455
Ca0 Mg11 3.270070 1_454
Mg0 Mg2 3.120245 1_565
Mg0 Mg4 3.120246 1_555
Mg0 Mg12 3.124566 1_455
Mg0 Mg13 3.124566 1_454
Mg0 Mg8 3.290096 1_555
Mg0 Mg9 3.290096 1_554
Mg0 Mg6 3.290102 1_565
Mg0 Mg7 3.290102 1_564
Mg0 Mg2 3.290143 1_455
Mg0 Mg4 3.290144 1_455
Mg1 Mg9 3.019563 1_555
Mg1 Mg8 3.019563 1_555
Mg1 Mg7 3.019570 1_565
Mg1 Mg6 3.019570 1_565
Mg1 Mg3 3.174492 1_455
Mg1 Mg5 3.174492 1_455
Mg1 Mg13 3.185486 1_455
Mg1 Mg12 3.185486 1_455
Mg1 W0 3.205243 1_565
Mg1 W0 3.205243 1_555
Mg1 Mg3 3.235897 1_565
Mg1 Mg5 3.235897 1_555
Mg2 Mg4 3.120245 1_545
Mg2 Mg6 3.290102 1_555
Mg2 Mg7 3.290102 1_554
Mg2 Mg4 3.290143 1_555
Mg3 Mg6 3.019570 1_555
Mg3 Mg7 3.019570 1_555
Mg3 Mg5 3.174492 1_555
Mg3 W0 3.205244 1_655
Mg3 W0 3.205244 1_555
Mg3 Mg5 3.235897 1_545
Mg4 Mg8 3.290102 1_555
Mg4 Mg9 3.290102 1_554
Mg5 Mg9 3.019570 1_555
Mg5 Mg8 3.019570 1_555
Mg5 W0 3.205243 1_665
Mg5 W0 3.205243 1_555
Mg6 W0 2.977834 1_555
Mg7 W0 2.977834 1_555
Mg8 W0 2.977840 1_555
Mg9 W0 2.977840 1_555
Mg10 W0 2.977840 1_655
Mg10 Mg3 3.019563 1_555
Mg10 Mg5 3.019569 1_545
Mg10 Mg12 3.214540 1_545
Mg10 Mg12 3.214540 1_555
Mg10 Mg2 3.290096 1_555
Mg10 Mg4 3.290102 1_545
Mg11 W0 2.977840 1_655
Mg11 Mg3 3.019563 1_555
Mg11 Mg5 3.019569 1_545
Mg11 Mg13 3.214540 1_545
Mg11 Mg13 3.214540 1_555
Mg11 Mg2 3.290096 1_556
Mg11 Mg4 3.290102 1_546
Mg12 Mg4 3.124559 1_555
Mg12 Mg2 3.124566 1_555
Mg12 Mg5 3.185479 1_555
Mg12 Mg3 3.185486 1_555
Mg12 Mg6 3.214540 1_665
Mg12 Mg6 3.214540 1_555
Mg12 Mg8 3.214540 1_655
Mg12 Mg8 3.214540 1_555
Mg13 Mg4 3.124559 1_556
Mg13 Mg2 3.124566 1_556
Mg13 Mg5 3.185479 1_555
Mg13 Mg3 3.185486 1_555
Mg13 Mg7 3.214540 1_665
Mg13 Mg7 3.214540 1_555
Mg13 Mg9 3.214540 1_655
Mg13 Mg9 3.214540 1_555
