# generated using pymatgen
data_Na5TbO6
_symmetry_space_group_name_H-M   'P 1'
_cell_length_a   5.98208211
_cell_length_b   5.98208211
_cell_length_c   11.19107895
_cell_angle_alpha   84.79990510
_cell_angle_beta   84.79990510
_cell_angle_gamma   119.73002939
_symmetry_Int_Tables_number   1
_chemical_formula_structural   Na5TbO6
_chemical_formula_sum   'Na10 Tb2 O12'
_cell_volume   342.04813727
_cell_formula_units_Z   2
loop_
 _symmetry_equiv_pos_site_id
 _symmetry_equiv_pos_as_xyz
  1  'x, y, z'
loop_
 _atom_site_type_symbol
 _atom_site_label
 _atom_site_symmetry_multiplicity
 _atom_site_fract_x
 _atom_site_fract_y
 _atom_site_fract_z
 _atom_site_occupancy
  Na  Na0  1  0.58416800  0.41583200  0.75000000  1
  Na  Na1  1  0.41583200  0.58416800  0.25000000  1
  Na  Na2  1  0.25171000  0.74829000  0.75000000  1
  Na  Na3  1  0.74829000  0.25171000  0.25000000  1
  Na  Na4  1  0.50000000  0.00000000  0.00000000  1
  Na  Na5  1  0.00000000  0.50000000  0.50000000  1
  Na  Na6  1  0.64347900  0.82135200  0.50071600  1
  Na  Na7  1  0.35652100  0.17864800  0.49928400  1
  Na  Na8  1  0.17864800  0.35652100  0.99928400  1
  Na  Na9  1  0.82135200  0.64347900  0.00071600  1
  Tb  Tb0  1  0.91604300  0.08395700  0.75000000  1
  Tb  Tb1  1  0.08395700  0.91604300  0.25000000  1
  O  O0  1  0.64747900  0.12248300  0.63076300  1
  O  O1  1  0.35252100  0.87751700  0.36923700  1
  O  O2  1  0.87751700  0.35252100  0.86923700  1
  O  O3  1  0.12248300  0.64747900  0.13076300  1
  O  O4  1  0.57065000  0.73355800  0.86812900  1
  O  O5  1  0.42935000  0.26644200  0.13187100  1
  O  O6  1  0.26644200  0.42935000  0.63187100  1
  O  O7  1  0.73355800  0.57065000  0.36812900  1
  O  O8  1  0.81410600  0.95667100  0.13303800  1
  O  O9  1  0.18589400  0.04332900  0.86696200  1
  O  O10  1  0.04332900  0.18589400  0.36696200  1
  O  O11  1  0.95667100  0.81410600  0.63303800  1
loop_
_geom_bond_atom_site_label_1
_geom_bond_atom_site_label_2
_geom_bond_distance
_geom_bond_site_symmetry_2
Na0 O4 2.440338 1_555
Na0 O6 2.440338 1_555
Na0 O11 2.448570 1_555
Na0 O9 2.448570 1_555
Na0 O2 2.448577 1_555
Na0 O0 2.448577 1_555
Na1 O7 2.440338 1_555
Na1 O5 2.440338 1_555
Na1 O8 2.448570 1_555
Na1 O10 2.448570 1_555
Na1 O3 2.448577 1_555
Na1 O1 2.448577 1_555
Na2 O9 2.449064 1_565
Na2 O11 2.449064 1_455
Na2 O4 2.449176 1_555
Na2 O6 2.449176 1_555
Na2 O2 2.454801 1_455
Na2 O0 2.454801 1_565
Na3 O10 2.449064 1_655
Na3 O8 2.449064 1_545
Na3 O5 2.449176 1_555
Na3 O7 2.449176 1_555
Na3 O3 2.454801 1_655
Na3 O1 2.454801 1_545
Na4 O3 2.409712 1_545
Na4 O2 2.409712 1_554
Na4 O5 2.424548 1_555
Na4 O4 2.424548 1_544
Na4 O9 2.595131 1_554
Na4 O8 2.595131 1_545
Na5 O1 2.409712 1_555
Na5 O0 2.409712 1_455
Na5 O6 2.424548 1_555
Na5 O7 2.424548 1_455
Na5 O10 2.595131 1_555
Na5 O11 2.595131 1_455
Na6 O7 2.408555 1_555
Na6 O0 2.408830 1_565
Na6 O1 2.502393 1_555
Na6 O6 2.504121 1_555
Na6 O11 2.505334 1_555
Na6 O10 2.510625 1_665
Na7 O6 2.408555 1_555
Na7 O1 2.408830 1_545
Na7 O0 2.502393 1_555
Na7 O7 2.504121 1_555
Na7 O10 2.505334 1_555
Na7 O11 2.510625 1_445
Na8 O5 2.408555 1_556
Na8 O2 2.408830 1_455
Na8 O3 2.502393 1_556
Na8 O4 2.504121 1_555
Na8 O9 2.505334 1_555
Na8 O8 2.510625 1_446
Na9 O4 2.408555 1_554
Na9 O3 2.408830 1_655
Na9 O2 2.502393 1_554
Na9 O5 2.504121 1_555
Na9 O8 2.505334 1_555
Na9 O9 2.510625 1_664
O0 Tb0 2.261609 1_555
O1 Tb1 2.261609 1_555
O2 Tb0 2.261609 1_555
O3 Tb1 2.261609 1_555
O4 Tb0 2.262178 1_565
O5 Tb1 2.262178 1_545
O6 Tb0 2.262178 1_455
O7 Tb1 2.262178 1_655
O8 Tb1 2.256704 1_655
O9 Tb0 2.256704 1_455
O10 Tb1 2.256704 1_545
O11 Tb0 2.256704 1_565
