# generated using pymatgen
data_Al2Si2H4O9
_symmetry_space_group_name_H-M   'P 1'
_cell_length_a   5.22679576
_cell_length_b   5.22679576
_cell_length_c   14.90323481
_cell_angle_alpha   82.03448181
_cell_angle_beta   82.03448181
_cell_angle_gamma   60.07449521
_symmetry_Int_Tables_number   1
_chemical_formula_structural   Al2Si2H4O9
_chemical_formula_sum   'Al4 Si4 H8 O18'
_cell_volume   348.31408035
_cell_formula_units_Z   2
loop_
 _symmetry_equiv_pos_site_id
 _symmetry_equiv_pos_as_xyz
  1  'x, y, z'
loop_
 _atom_site_type_symbol
 _atom_site_label
 _atom_site_symmetry_multiplicity
 _atom_site_fract_x
 _atom_site_fract_y
 _atom_site_fract_z
 _atom_site_occupancy
  Al  Al0  1  0.39876100  0.26686300  0.49799600  1
  Al  Al1  1  0.26686300  0.39876100  0.99799600  1
  Al  Al2  1  0.73722000  0.59951500  0.49785200  1
  Al  Al3  1  0.59951500  0.73722000  0.99785200  1
  Si  Si0  1  0.78316200  0.34557200  0.31145300  1
  Si  Si1  1  0.34557200  0.78316200  0.81145300  1
  Si  Si2  1  0.46977200  0.00225800  0.31042800  1
  Si  Si3  1  0.00225800  0.46977200  0.81042800  1
  H  H0  1  0.09761700  0.74380300  0.41143700  1
  H  H1  1  0.74380300  0.09761700  0.91143700  1
  H  H2  1  0.18682000  0.02854500  0.11616800  1
  H  H3  1  0.02854500  0.18682000  0.61616800  1
  H  H4  1  0.89229000  0.68683700  0.12692200  1
  H  H5  1  0.68683700  0.89229000  0.62692200  1
  H  H6  1  0.58118700  0.34679600  0.12173700  1
  H  H7  1  0.34679600  0.58118700  0.62173700  1
  O  O0  1  0.13412100  0.13806300  0.28010700  1
  O  O1  1  0.13806300  0.13412100  0.78010700  1
  O  O2  1  0.67550700  0.68373100  0.26487500  1
  O  O3  1  0.68373100  0.67550700  0.76487500  1
  O  O4  1  0.60773600  0.21650100  0.26387700  1
  O  O5  1  0.21650100  0.60773600  0.76387700  1
  O  O6  1  0.70439200  0.34200100  0.42061900  1
  O  O7  1  0.34200100  0.70439200  0.92061900  1
  O  O8  1  0.47989600  0.95559300  0.42020600  1
  O  O9  1  0.95559300  0.47989600  0.92020600  1
  O  O10  1  0.08940600  0.56046000  0.42343600  1
  O  O11  1  0.56046000  0.08940600  0.92343600  1
  O  O12  1  0.04927700  0.30628600  0.56318100  1
  O  O13  1  0.30628600  0.04927700  0.06318100  1
  O  O14  1  0.66166000  0.91770600  0.56222200  1
  O  O15  1  0.91770600  0.66166000  0.06222200  1
  O  O16  1  0.44077600  0.52726800  0.56118300  1
  O  O17  1  0.52726800  0.44077600  0.06118300  1
loop_
_geom_bond_atom_site_label_1
_geom_bond_atom_site_label_2
_geom_bond_distance
_geom_bond_site_symmetry_2
Al0 O16 1.870383 1_555
Al0 O12 1.873786 1_555
Al0 O14 1.874361 1_545
Al0 O10 1.937466 1_555
Al0 O8 1.966957 1_545
Al0 O6 2.006447 1_555
Al1 O17 1.870383 1_556
Al1 O13 1.873786 1_556
Al1 O15 1.874361 1_456
Al1 O11 1.937466 1_555
Al1 O9 1.966957 1_455
Al1 O7 2.006447 1_555
Al2 O12 1.868056 1_655
Al2 O16 1.874544 1_555
Al2 O14 1.877252 1_555
Al2 O10 1.944789 1_655
Al2 O6 1.969894 1_555
Al2 O8 1.987156 1_555
Al3 O13 1.868056 1_566
Al3 O17 1.874544 1_556
Al3 O15 1.877252 1_556
Al3 O11 1.944789 1_565
Al3 O7 1.969894 1_555
Al3 O9 1.987156 1_555
H0 O10 0.971373 1_555
H1 O11 0.971373 1_555
H2 O13 0.965594 1_555
H3 O12 0.965594 1_555
H4 O15 0.973112 1_555
H5 O14 0.973112 1_555
H6 O17 0.971924 1_555
H7 O16 0.971924 1_555
O0 Si2 1.635304 1_555
O0 Si0 1.636279 1_455
O1 Si3 1.635304 1_555
O1 Si1 1.636279 1_545
O2 Si0 1.642680 1_555
O2 Si2 1.647332 1_565
O3 Si1 1.642680 1_555
O3 Si3 1.647332 1_655
O4 Si2 1.645290 1_555
O4 Si0 1.651827 1_555
O5 Si3 1.645290 1_555
O5 Si1 1.651827 1_555
O6 Si0 1.621836 1_555
O7 Si1 1.621836 1_555
O8 Si2 1.624642 1_565
O9 Si3 1.624642 1_655
