# generated using pymatgen
data_K3AsF6
_symmetry_space_group_name_H-M   'P 1'
_cell_length_a   6.68417306
_cell_length_b   8.29723009
_cell_length_c   6.68281023
_cell_angle_alpha   128.36571550
_cell_angle_beta   76.64754079
_cell_angle_gamma   111.76993187
_symmetry_Int_Tables_number   1
_chemical_formula_structural   K3AsF6
_chemical_formula_sum   'K3 As1 F6'
_cell_volume   269.87220384
_cell_formula_units_Z   1
loop_
 _symmetry_equiv_pos_site_id
 _symmetry_equiv_pos_as_xyz
  1  'x, y, z'
loop_
 _atom_site_type_symbol
 _atom_site_label
 _atom_site_symmetry_multiplicity
 _atom_site_fract_x
 _atom_site_fract_y
 _atom_site_fract_z
 _atom_site_occupancy
  K  K0  1  0.50000000  -0.00000000  0.00000000  1
  K  K1  1  0.00000000  0.50000000  0.50000000  1
  K  K2  1  0.00000000  -0.00000000  0.50000000  1
  As  As0  1  0.00000000  -0.00000000  0.00000000  1
  F  F0  1  0.77572062  0.06542308  0.28940557  1
  F  F1  1  0.22427938  0.93457692  0.71059443  1
  F  F2  1  0.77704067  0.77604678  0.70946464  1
  F  F3  1  0.22295933  0.22395322  0.29053536  1
  F  F4  1  0.06679142  0.77666949  0.99990189  1
  F  F5  1  0.93320858  0.22333051  0.00009811  1
loop_
_geom_bond_atom_site_label_1
_geom_bond_atom_site_label_2
_geom_bond_distance
_geom_bond_site_symmetry_2
As0 F1 2.060040 1_544
As0 F0 2.060040 1_455
As0 F5 2.060342 1_455
As0 F4 2.060342 1_544
As0 F3 2.060913 1_555
As0 F2 2.060913 1_444
F0 K0 2.651924 1_555
F0 K2 2.655024 1_655
F0 K1 2.809831 1_655
F1 K0 2.651924 1_566
F1 K2 2.655024 1_565
F1 K1 2.809831 1_555
F2 K1 2.648566 1_655
F2 K0 2.657982 1_566
F2 K2 2.800818 1_665
F3 K1 2.648566 1_555
F3 K0 2.657982 1_555
F3 K2 2.800818 1_555
F4 K1 2.652994 1_555
F4 K2 2.653158 1_566
F4 K0 2.799597 1_566
F5 K1 2.652994 1_655
F5 K2 2.653158 1_654
F5 K0 2.799597 1_555
