# generated using pymatgen
data_Li6Zn3(PS4)4
_symmetry_space_group_name_H-M   'P 1'
_cell_length_a   9.30843922
_cell_length_b   11.58476783
_cell_length_c   23.13710956
_cell_angle_alpha   89.89211178
_cell_angle_beta   89.91121234
_cell_angle_gamma   89.96546791
_symmetry_Int_Tables_number   1
_chemical_formula_structural   Li6Zn3(PS4)4
_chemical_formula_sum   'Li24 Zn12 P16 S64'
_cell_volume   2495.00796031
_cell_formula_units_Z   4
loop_
 _symmetry_equiv_pos_site_id
 _symmetry_equiv_pos_as_xyz
  1  'x, y, z'
loop_
 _atom_site_type_symbol
 _atom_site_label
 _atom_site_symmetry_multiplicity
 _atom_site_fract_x
 _atom_site_fract_y
 _atom_site_fract_z
 _atom_site_occupancy
  Li  Li0  1  0.74466799  0.50444916  0.87958011  1
  Li  Li1  1  0.74649305  0.99725266  0.87655704  1
  Li  Li2  1  0.24915784  0.75699445  0.75179457  1
  Li  Li3  1  0.24546044  0.75129002  0.00001578  1
  Li  Li4  1  0.50390238  0.49866957  0.25021830  1
  Li  Li5  1  0.50328582  0.99898002  0.25060844  1
  Li  Li6  1  0.50086884  0.50060245  0.49926566  1
  Li  Li7  1  0.50346098  0.00199091  0.49891907  1
  Li  Li8  1  0.00132057  0.75074800  0.37449903  1
  Li  Li9  1  0.00079298  0.25033353  0.37454100  1
  Li  Li10  1  0.49879987  0.49854194  0.74823207  1
  Li  Li11  1  0.50212386  0.00343082  0.74878480  1
  Li  Li12  1  0.99871550  0.75178153  0.62320236  1
  Li  Li13  1  0.00086368  0.25041456  0.62383195  1
  Li  Li14  1  0.49724952  0.49703058  0.00143913  1
  Li  Li15  1  0.49832229  0.00023360  0.00215117  1
  Li  Li16  1  0.99444997  0.74972866  0.87603077  1
  Li  Li17  1  0.99778099  0.75027730  0.12657960  1
  Li  Li18  1  0.00279204  0.24890072  0.12486200  1
  Li  Li19  1  0.48869360  0.25006093  0.87565870  1
  Li  Li20  1  0.49581988  0.75178344  0.87518524  1
  Li  Li21  1  0.99840278  0.00162978  0.74913228  1
  Li  Li22  1  0.99768007  0.50065518  0.00175970  1
  Li  Li23  1  0.00069401  0.00275517  0.00107750  1
  Zn  Zn0  1  0.01102188  0.24723544  0.87615101  1
  Zn  Zn1  1  0.50121762  0.24886668  0.12375013  1
  Zn  Zn2  1  0.50525544  0.74837873  0.12592733  1
  Zn  Zn3  1  0.49948568  0.24950714  0.37455987  1
  Zn  Zn4  1  0.49912625  0.74955539  0.37458444  1
  Zn  Zn5  1  -0.00000431  0.49966551  0.24973872  1
  Zn  Zn6  1  0.99982369  0.99929118  0.24941953  1
  Zn  Zn7  1  0.50137709  0.24906605  0.62617533  1
  Zn  Zn8  1  0.50605758  0.75180779  0.62323147  1
  Zn  Zn9  1  0.99880839  0.49917904  0.49918439  1
  Zn  Zn10  1  0.00016982  0.99963311  0.49961387  1
  Zn  Zn11  1  0.00111204  0.49886664  0.74927352  1
  P  P0  1  0.75038695  0.24972123  0.24981499  1
  P  P1  1  0.75054035  0.74988012  0.25040731  1
  P  P2  1  0.74987754  0.25058060  0.50013252  1
  P  P3  1  0.75040868  0.75007074  0.49965537  1
  P  P4  1  0.24997673  0.50014616  0.37508415  1
  P  P5  1  0.24978344  0.00020131  0.37500206  1
  P  P6  1  0.74980822  0.24299941  0.74854408  1
  P  P7  1  0.74934514  0.74385389  0.75205653  1
  P  P8  1  0.24754025  0.50056047  0.62521886  1
  P  P9  1  0.25339793  0.99546454  0.62435064  1
  P  P10  1  0.74943927  0.25896984  0.99924664  1
  P  P11  1  0.74976716  0.75417989  0.99966149  1
  P  P12  1  0.25097315  0.49726244  0.87240825  1
  P  P13  1  0.25005751  0.99831453  0.87686079  1
  P  P14  1  0.25375490  0.50461932  0.12579288  1
  P  P15  1  0.24812067  0.00365402  0.12553985  1
  S  S0  1  0.86922410  0.35704556  0.05184507  1
  S  S1  1  0.87129447  0.85475771  0.05128170  1
  S  S2  1  0.86414923  0.36143466  0.30214309  1
  S  S3  1  0.86442036  0.86145154  0.30256740  1
  S  S4  1  0.37092780  0.61158774  0.17904292  1
  S  S5  1  0.37388754  0.10755039  0.17727641  1
  S  S6  1  0.86371101  0.36234211  0.55235147  1
  S  S7  1  0.86242376  0.86225684  0.55204701  1
  S  S8  1  0.36359450  0.61172438  0.42745126  1
  S  S9  1  0.36359418  0.11175926  0.42732858  1
  S  S10  1  0.86998318  0.35740167  0.80378884  1
  S  S11  1  0.86856704  0.85419681  0.80207941  1
  S  S12  1  0.36806339  0.61308157  0.67673233  1
  S  S13  1  0.36381071  0.10910007  0.67693634  1
  S  S14  1  0.36344807  0.60436429  0.92663841  1
  S  S15  1  0.36984380  0.10074792  0.92794533  1
  S  S16  1  0.63614963  0.64535257  0.30640780  1
  S  S17  1  0.63680730  0.14537103  0.30628739  1
  S  S18  1  0.63852258  0.64381298  0.55574837  1
  S  S19  1  0.63575136  0.14634495  0.55624832  1
  S  S20  1  0.13589615  0.89518598  0.43097316  1
  S  S21  1  0.13657364  0.39499073  0.43123712  1
  S  S22  1  0.62575200  0.64006257  0.80403970  1
  S  S23  1  0.63149054  0.14525911  0.80465285  1
  S  S24  1  0.13296114  0.89328801  0.67850029  1
  S  S25  1  0.13714100  0.39457175  0.68124614  1
  S  S26  1  0.62646392  0.64728848  0.05216063  1
  S  S27  1  0.63343421  0.14769061  0.05131385  1
  S  S28  1  0.12531247  0.89228429  0.92805497  1
  S  S29  1  0.12637708  0.39559288  0.92610830  1
  S  S30  1  0.13788457  0.89564461  0.18151489  1
  S  S31  1  0.13617051  0.39907910  0.18025391  1
  S  S32  1  0.86468549  0.13830911  0.19776984  1
  S  S33  1  0.86326112  0.63778377  0.19824353  1
  S  S34  1  0.86450769  0.13910296  0.44809040  1
  S  S35  1  0.86551746  0.63920333  0.44752475  1
  S  S36  1  0.36428817  0.38878835  0.32290964  1
  S  S37  1  0.36421128  0.88863297  0.32293033  1
  S  S38  1  0.87023552  0.14372661  0.69674703  1
  S  S39  1  0.86920632  0.63903295  0.69786830  1
  S  S40  1  0.36727470  0.39130765  0.57444831  1
  S  S41  1  0.37134883  0.88856798  0.57107572  1
  S  S42  1  0.86799596  0.14639351  0.94464784  1
  S  S43  1  0.86639662  0.64273513  0.94752014  1
  S  S44  1  0.36697035  0.39496311  0.82002851  1
  S  S45  1  0.36743647  0.89573188  0.82046047  1
  S  S46  1  0.36385777  0.39019996  0.07350445  1
  S  S47  1  0.36874018  0.88837949  0.07418900  1
  S  S48  1  0.63599652  0.35324782  0.19388583  1
  S  S49  1  0.63791552  0.85480580  0.19453499  1
  S  S50  1  0.63502541  0.35417875  0.44428368  1
  S  S51  1  0.63513075  0.85357258  0.44407431  1
  S  S52  1  0.13500681  0.60404255  0.31953989  1
  S  S53  1  0.13506389  0.10395366  0.31929630  1
  S  S54  1  0.63395411  0.35418500  0.69662406  1
  S  S55  1  0.63333288  0.84955601  0.69677752  1
  S  S56  1  0.13424005  0.60433966  0.56946340  1
  S  S57  1  0.13630565  0.10052965  0.56975068  1
  S  S58  1  0.62672325  0.35897782  0.94482072  1
  S  S59  1  0.62585661  0.85792060  0.94653918  1
  S  S60  1  0.12560059  0.60713434  0.81946357  1
  S  S61  1  0.12905821  0.10491224  0.82279926  1
  S  S62  1  0.13404662  0.60721957  0.07171134  1
  S  S63  1  0.13874392  0.10588082  0.07096039  1
loop_
_geom_bond_atom_site_label_1
_geom_bond_atom_site_label_2
_geom_bond_distance
_geom_bond_site_symmetry_2
Li0 S58 2.512262 1_555
Li0 S43 2.517645 1_555
Li0 S22 2.596496 1_555
Li0 S10 2.709288 1_555
Li1 S59 2.544576 1_555
Li1 S42 2.600850 1_565
Li1 S23 2.616523 1_565
Li1 S11 2.647562 1_555
Li2 S45 2.517268 1_555
Li2 S24 2.555824 1_555
Li2 S60 2.602827 1_555
Li2 S12 2.650196 1_555
Li3 S62 2.568896 1_555
Li3 S28 2.585379 1_554
Li3 S47 2.608222 1_555
Li3 S14 2.643584 1_554
Li4 S4 2.439569 1_555
Li4 S48 2.459595 1_555
Li4 S16 2.471628 1_555
Li4 S36 2.474908 1_555
Li5 S5 2.430640 1_565
Li5 S49 2.458440 1_555
Li5 S17 2.469040 1_565
Li5 S37 2.469270 1_555
Li6 S8 2.459142 1_555
Li6 S50 2.460854 1_555
Li6 S18 2.473476 1_555
Li6 S40 2.482411 1_555
Li7 S41 2.452220 1_545
Li7 S9 2.460189 1_555
Li7 S51 2.463654 1_545
Li7 S19 2.467453 1_555
Li8 S3 2.456640 1_455
Li8 S52 2.460622 1_555
Li8 S20 2.468250 1_555
Li8 S35 2.471782 1_455
Li9 S53 2.464193 1_555
Li9 S2 2.465118 1_455
Li9 S21 2.478423 1_555
Li9 S34 2.480457 1_455
Li10 S44 2.386022 1_555
Li10 S22 2.401393 1_555
Li10 S54 2.409479 1_555
Li10 S12 2.444259 1_555
Li11 S23 2.415739 1_555
Li11 S45 2.422054 1_545
Li11 S13 2.432424 1_555
Li11 S55 2.473500 1_545
Li12 S24 2.429236 1_655
Li12 S7 2.440175 1_555
Li12 S56 2.460786 1_655
Li12 S39 2.476037 1_555
Li13 S38 2.416573 1_455
Li13 S6 2.458234 1_455
Li13 S57 2.484127 1_555
Li13 S25 2.485746 1_555
Li14 S58 2.393122 1_554
Li14 S46 2.416867 1_555
Li14 S26 2.422508 1_555
Li14 S14 2.467650 1_554
Li15 S15 2.393971 1_554
Li15 S59 2.404974 1_544
Li15 S27 2.410001 1_555
Li15 S47 2.428911 1_545
Li16 S28 2.382125 1_655
Li16 S43 2.383487 1_555
Li16 S11 2.400423 1_555
Li16 S60 2.435762 1_655
Li17 S1 2.425520 1_555
Li17 S62 2.442849 1_655
Li17 S33 2.450095 1_555
Li17 S30 2.483588 1_655
Li18 S63 2.429473 1_555
Li18 S0 2.442569 1_455
Li18 S32 2.475227 1_455
Li18 S31 2.495341 1_555
Li19 S15 2.381128 1_555
Li19 S44 2.398432 1_555
Li19 S58 2.412363 1_555
Li19 S23 2.436942 1_555
Li20 S59 2.391275 1_555
Li20 S45 2.409687 1_555
Li20 S14 2.417119 1_555
Li20 S22 2.418168 1_555
Li21 S38 2.365761 1_555
Li21 S24 2.411286 1_645
Li21 S61 2.414899 1_655
Li21 S11 2.422514 1_545
Li22 S0 2.351879 1_555
Li22 S62 2.402203 1_655
Li22 S43 2.402504 1_554
Li22 S29 2.445409 1_654
Li23 S63 2.389240 1_555
Li23 S1 2.393810 1_445
Li23 S28 2.416244 1_544
Li23 S42 2.448199 1_454
P0 S48 2.060003 1_555
P0 S32 2.061091 1_555
P0 S2 2.067276 1_555
P0 S17 2.068257 1_555
P1 S33 2.060173 1_555
P1 S49 2.060214 1_555
P1 S3 2.064525 1_555
P1 S16 2.066476 1_555
P2 S50 2.061546 1_555
P2 S34 2.063117 1_555
P2 S19 2.064903 1_555
P2 S6 2.066484 1_555
P3 S51 2.059087 1_555
P3 S35 2.062199 1_555
P3 S7 2.063292 1_555
P3 S18 2.067773 1_555
P4 S52 2.059721 1_555
P4 S36 2.062510 1_555
P4 S8 2.066134 1_555
P4 S21 2.068241 1_555
P5 S53 2.059872 1_555
P5 S37 2.063206 1_545
P5 S9 2.066357 1_555
P5 S20 2.066959 1_545
P6 S38 2.003736 1_555
P6 S23 2.042529 1_555
P6 S54 2.064382 1_555
P6 S10 2.157370 1_555
P7 S22 2.051301 1_555
P7 S11 2.053396 1_555
P7 S39 2.071496 1_555
P7 S55 2.073228 1_555
P8 S56 2.053949 1_555
P8 S40 2.055199 1_555
P8 S25 2.058032 1_555
P8 S12 2.095264 1_555
P9 S24 2.054088 1_555
P9 S41 2.063570 1_555
P9 S57 2.064514 1_565
P9 S13 2.069102 1_565
P10 S0 2.006522 1_556
P10 S58 2.056750 1_555
P10 S27 2.066635 1_556
P10 S42 2.124786 1_555
P11 S1 2.018607 1_556
P11 S59 2.069433 1_555
P11 S43 2.073878 1_555
P11 S26 2.077966 1_556
P12 S44 2.009705 1_555
P12 S14 2.054615 1_555
P12 S29 2.065857 1_555
P12 S60 2.116465 1_555
P13 S15 2.014800 1_565
P13 S28 2.062070 1_555
P13 S45 2.075769 1_555
P13 S61 2.086871 1_565
P14 S62 2.053602 1_555
P14 S4 2.062703 1_555
P14 S46 2.066780 1_555
P14 S31 2.066930 1_555
P15 S63 2.007655 1_555
P15 S5 2.064842 1_555
P15 S30 2.070557 1_545
P15 S47 2.110839 1_545
S2 Zn5 2.371476 1_655
S3 Zn6 2.375048 1_555
S4 Zn2 2.361205 1_555
S5 Zn1 2.368301 1_555
S6 Zn9 2.365977 1_555
S7 Zn10 2.374642 1_655
S8 Zn4 2.372269 1_555
S9 Zn3 2.372239 1_555
S10 Zn11 2.399264 1_655
S10 Zn0 2.480374 1_655
S12 Zn8 2.398985 1_555
S13 Zn7 2.374650 1_555
S16 Zn4 2.360378 1_555
S17 Zn3 2.362962 1_555
S18 Zn8 2.350110 1_555
S19 Zn7 2.365893 1_555
S20 Zn10 2.362553 1_555
S21 Zn9 2.360483 1_455
S25 Zn11 2.353638 1_555
S26 Zn2 2.357419 1_555
S27 Zn1 2.386765 1_555
S29 Zn0 2.335907 1_555
S30 Zn6 2.358112 1_455
S31 Zn5 2.355459 1_555
S32 Zn6 2.366244 1_545
S33 Zn5 2.365337 1_655
S34 Zn10 2.370929 1_645
S35 Zn9 2.365223 1_555
S36 Zn3 2.368617 1_555
S37 Zn4 2.365660 1_555
S39 Zn11 2.356637 1_655
S40 Zn7 2.387606 1_555
S41 Zn8 2.352393 1_555
S42 Zn0 2.374292 1_655
S46 Zn1 2.379504 1_555
S47 Zn2 2.381844 1_555
S48 Zn1 2.384328 1_555
S49 Zn2 2.362216 1_555
S50 Zn3 2.383305 1_555
S51 Zn4 2.378075 1_555
S52 Zn5 2.380172 1_555
S53 Zn6 2.384177 1_445
S54 Zn7 2.382920 1_555
S55 Zn8 2.365717 1_555
S56 Zn9 2.394396 1_455
S57 Zn10 2.370808 1_545
S60 Zn11 2.359783 1_555
S61 Zn0 2.334680 1_555
