# generated using pymatgen
data_HfInCu2
_symmetry_space_group_name_H-M   'P 1'
_cell_length_a   3.20483000
_cell_length_b   3.20483000
_cell_length_c   6.59279800
_cell_angle_alpha   90.00000000
_cell_angle_beta   90.00000000
_cell_angle_gamma   90.00000000
_symmetry_Int_Tables_number   1
_chemical_formula_structural   HfInCu2
_chemical_formula_sum   'Hf1 In1 Cu2'
_cell_volume   67.71420189
_cell_formula_units_Z   1
loop_
 _symmetry_equiv_pos_site_id
 _symmetry_equiv_pos_as_xyz
  1  'x, y, z'
loop_
 _atom_site_type_symbol
 _atom_site_label
 _atom_site_symmetry_multiplicity
 _atom_site_fract_x
 _atom_site_fract_y
 _atom_site_fract_z
 _atom_site_occupancy
  Hf  Hf0  1  0.50000000  0.50000000  0.00000000  1
  In  In0  1  0.50000000  0.50000000  0.50000000  1
  Cu  Cu0  1  0.00000000  0.00000000  0.75299000  1
  Cu  Cu1  1  0.00000000  0.00000000  0.24701000  1
loop_
_geom_bond_atom_site_label_1
_geom_bond_atom_site_label_2
_geom_bond_distance
_geom_bond_site_symmetry_2
Cu0 Hf0 2.790598 1_456
Cu0 Hf0 2.790598 1_446
Cu0 Hf0 2.790598 1_556
Cu0 Hf0 2.790598 1_546
Cu0 In0 2.813787 1_545
Cu0 In0 2.813787 1_455
Cu0 In0 2.813787 1_445
Cu0 In0 2.813787 1_555
Cu1 Hf0 2.790598 1_555
Cu1 Hf0 2.790598 1_545
Cu1 Hf0 2.790598 1_445
Cu1 Hf0 2.790598 1_455
Cu1 In0 2.813787 1_445
Cu1 In0 2.813787 1_455
Cu1 In0 2.813787 1_555
Cu1 In0 2.813787 1_545
