# generated using pymatgen
data_VZnPO5
_symmetry_space_group_name_H-M   'P 1'
_cell_length_a   5.50676139
_cell_length_b   7.20518756
_cell_length_c   10.78812080
_cell_angle_alpha   100.78047257
_cell_angle_beta   101.22159960
_cell_angle_gamma   108.26176747
_symmetry_Int_Tables_number   1
_chemical_formula_structural   VZnPO5
_chemical_formula_sum   'V4 Zn4 P4 O20'
_cell_volume   384.31881490
_cell_formula_units_Z   4
loop_
 _symmetry_equiv_pos_site_id
 _symmetry_equiv_pos_as_xyz
  1  'x, y, z'
loop_
 _atom_site_type_symbol
 _atom_site_label
 _atom_site_symmetry_multiplicity
 _atom_site_fract_x
 _atom_site_fract_y
 _atom_site_fract_z
 _atom_site_occupancy
  V  V0  1  0.74849500  0.25162300  0.74962400  1
  V  V1  1  0.74840600  0.75150800  0.74948100  1
  V  V2  1  0.24842600  0.75152300  0.24960100  1
  V  V3  1  0.24840500  0.25150400  0.24939600  1
  Zn  Zn0  1  0.27790200  0.84221900  0.59103900  1
  Zn  Zn1  1  0.77794800  0.34240100  0.09103700  1
  Zn  Zn2  1  0.22014000  0.66645700  0.90701700  1
  Zn  Zn3  1  0.72008900  0.16630400  0.40701800  1
  P  P0  1  0.28279600  0.17879300  0.92816400  1
  P  P1  1  0.78288200  0.67881900  0.42806400  1
  P  P2  1  0.21379600  0.32400100  0.57123400  1
  P  P3  1  0.71372900  0.82396600  0.07133600  1
  O  O0  1  0.87900200  0.54506200  0.79372400  1
  O  O1  1  0.37904000  0.04507300  0.29367700  1
  O  O2  1  0.61793200  0.95795300  0.70549200  1
  O  O3  1  0.11789000  0.45791400  0.20553200  1
  O  O4  1  0.13851100  0.94898700  0.86492000  1
  O  O5  1  0.63859900  0.44904400  0.36474300  1
  O  O6  1  0.11251700  0.30139400  0.88696500  1
  O  O7  1  0.61271600  0.80148300  0.38683900  1
  O  O8  1  0.35929700  0.55322400  0.63496100  1
  O  O9  1  0.85920600  0.05314400  0.13514100  1
  O  O10  1  0.38237700  0.19975200  0.61220700  1
  O  O11  1  0.88220800  0.69965700  0.11232400  1
  O  O12  1  0.93233800  0.24710600  0.59878400  1
  O  O13  1  0.43223300  0.74700800  0.09879800  1
  O  O14  1  0.61539400  0.77555500  0.91701200  1
  O  O15  1  0.11532600  0.27548500  0.41693100  1
  O  O16  1  0.56362000  0.25612000  0.89994200  1
  O  O17  1  0.06374100  0.75617500  0.39992700  1
  O  O18  1  0.88256100  0.72810800  0.58234700  1
  O  O19  1  0.38262300  0.22818000  0.08242800  1
loop_
_geom_bond_atom_site_label_1
_geom_bond_atom_site_label_2
_geom_bond_distance
_geom_bond_site_symmetry_2
O0 Zn2 1.861330 1_655
O0 V0 1.936847 1_555
O0 V1 1.939080 1_555
O1 Zn3 1.861127 1_555
O1 V2 1.937587 1_545
O1 V3 1.939231 1_555
O2 Zn0 1.860768 1_555
O2 V1 1.937827 1_555
O2 V0 1.938377 1_565
O3 Zn1 1.860572 1_455
O3 V3 1.937294 1_555
O3 V2 1.937992 1_555
O4 P0 1.542837 1_565
O4 V1 2.137883 1_455
O4 Zn2 2.322109 1_555
O5 P1 1.542768 1_555
O5 V3 2.138063 1_555
O5 Zn3 2.323872 1_555
O6 P0 1.536528 1_555
O6 V0 2.130015 1_455
O6 Zn2 2.465161 1_555
O7 P1 1.536522 1_555
O7 V2 2.130244 1_555
O7 Zn3 2.463397 1_565
O8 P2 1.540742 1_555
O8 V1 2.132974 1_555
O8 Zn0 2.373312 1_555
O9 P3 1.540583 1_545
O9 V3 2.132710 1_655
O9 Zn1 2.375473 1_555
O10 P2 1.538771 1_555
O10 V0 2.135268 1_555
O10 Zn0 2.412331 1_545
O11 P3 1.538763 1_555
O11 V2 2.134972 1_655
O11 Zn1 2.410326 1_555
O12 P2 1.581225 1_655
O12 Zn3 2.041279 1_555
O12 V0 2.077508 1_555
O13 P3 1.581029 1_555
O13 Zn2 2.041322 1_554
O13 V2 2.077031 1_555
O14 P3 1.581193 1_556
O14 Zn2 2.042464 1_555
O14 V1 2.076211 1_555
O15 P2 1.580967 1_555
O15 Zn3 2.042602 1_455
O15 V3 2.076438 1_555
O16 P0 1.581548 1_555
O16 Zn1 2.035485 1_556
O16 V0 2.076252 1_555
O17 P1 1.581329 1_455
O17 Zn0 2.035488 1_555
O17 V2 2.075676 1_555
O18 P1 1.580774 1_555
O18 Zn0 2.047985 1_655
O18 V1 2.075572 1_555
O19 P0 1.580582 1_554
O19 Zn1 2.048163 1_555
O19 V3 2.074094 1_555
