# generated using pymatgen
data_La3Al(FeO3)4
_symmetry_space_group_name_H-M   'P 1'
_cell_length_a   7.97933100
_cell_length_b   5.46614700
_cell_length_c   5.56575530
_cell_angle_alpha   86.55266205
_cell_angle_beta   90.00000000
_cell_angle_gamma   90.00000000
_symmetry_Int_Tables_number   1
_chemical_formula_structural   La3Al(FeO3)4
_chemical_formula_sum   'La3 Al1 Fe4 O12'
_cell_volume   242.31780341
_cell_formula_units_Z   1
loop_
 _symmetry_equiv_pos_site_id
 _symmetry_equiv_pos_as_xyz
  1  'x, y, z'
loop_
 _atom_site_type_symbol
 _atom_site_label
 _atom_site_symmetry_multiplicity
 _atom_site_fract_x
 _atom_site_fract_y
 _atom_site_fract_z
 _atom_site_occupancy
  La  La0  1  0.00000000  0.01232900  0.95068100  1
  La  La1  1  0.50000000  0.50971300  0.54628900  1
  La  La2  1  0.50000000  0.98796000  0.03324700  1
  Al  Al0  1  0.00000000  0.51284900  0.48213300  1
  Fe  Fe0  1  0.24537200  0.51023100  0.02483200  1
  Fe  Fe1  1  0.75822200  0.00141000  0.49033600  1
  Fe  Fe2  1  0.75462800  0.51023100  0.02483200  1
  Fe  Fe3  1  0.24177800  0.00141000  0.49033600  1
  O  O0  1  0.22589300  0.17642900  0.16764400  1
  O  O1  1  0.83357600  0.32816800  0.64525500  1
  O  O2  1  0.72723000  0.80429500  0.80248000  1
  O  O3  1  0.30900700  0.71212100  0.29160200  1
  O  O4  1  0.27277000  0.80429500  0.80248000  1
  O  O5  1  0.69099300  0.71212100  0.29160200  1
  O  O6  1  0.77410700  0.17642900  0.16764400  1
  O  O7  1  0.16642400  0.32816800  0.64525500  1
  O  O8  1  0.00000000  0.55170300  0.13907800  1
  O  O9  1  0.00000000  0.84723800  0.51974400  1
  O  O10  1  0.50000000  0.43223600  0.97202100  1
  O  O11  1  0.50000000  0.08066100  0.51250900  1
loop_
_geom_bond_atom_site_label_1
_geom_bond_atom_site_label_2
_geom_bond_distance
_geom_bond_site_symmetry_2
La0 O6 2.375287 1_456
La0 O0 2.375287 1_556
La0 O2 2.612188 1_445
La0 O4 2.612188 1_545
La0 O9 2.612929 1_545
La0 O8 2.668625 1_546
La0 O1 2.698295 1_455
La0 O7 2.698295 1_555
La1 O5 2.316772 1_555
La1 O3 2.316772 1_555
La1 O11 2.364028 1_555
La1 O10 2.381868 1_555
La1 O2 2.861753 1_555
La1 O4 2.861753 1_555
La1 O7 2.882212 1_555
La1 O1 2.882212 1_555
La2 O10 2.431893 1_564
La2 O4 2.469842 1_554
La2 O2 2.469842 1_554
La2 O5 2.530393 1_555
La2 O3 2.530393 1_555
La2 O6 2.548985 1_565
La2 O0 2.548985 1_565
La2 O11 2.744928 1_565
La2 O11 2.912093 1_564
La2 O10 3.077019 1_554
Al0 O9 1.852231 1_555
Al0 O1 1.869917 1_455
Al0 O7 1.869917 1_555
Al0 O8 1.908401 1_555
Fe0 O0 1.952112 1_555
Fe0 O3 1.969083 1_555
Fe0 O4 1.980867 1_554
Fe0 O8 2.075196 1_555
Fe0 O10 2.100305 1_554
Fe0 O7 2.470484 1_554
Fe1 O6 1.987554 1_555
Fe1 O2 2.003803 1_545
Fe1 O5 2.054771 1_545
Fe1 O9 2.107678 1_645
Fe1 O11 2.110623 1_555
Fe1 O1 2.116691 1_555
Fe2 O6 1.952112 1_555
Fe2 O5 1.969083 1_555
Fe2 O2 1.980867 1_554
Fe2 O8 2.075196 1_655
Fe2 O10 2.100305 1_554
Fe2 O1 2.470484 1_554
Fe3 O0 1.987554 1_555
Fe3 O4 2.003803 1_545
Fe3 O3 2.054771 1_545
Fe3 O9 2.107678 1_545
Fe3 O11 2.110623 1_555
Fe3 O7 2.116691 1_555
