# generated using pymatgen
data_Ti3(BiO3)4
_symmetry_space_group_name_H-M   'P 1'
_cell_length_a   3.86469438
_cell_length_b   3.86469438
_cell_length_c   16.97887473
_cell_angle_alpha   84.22256089
_cell_angle_beta   84.22256089
_cell_angle_gamma   88.83345503
_symmetry_Int_Tables_number   1
_chemical_formula_structural   Ti3(BiO3)4
_chemical_formula_sum   'Ti3 Bi4 O12'
_cell_volume   251.01098852
_cell_formula_units_Z   1
loop_
 _symmetry_equiv_pos_site_id
 _symmetry_equiv_pos_as_xyz
  1  'x, y, z'
loop_
 _atom_site_type_symbol
 _atom_site_label
 _atom_site_symmetry_multiplicity
 _atom_site_fract_x
 _atom_site_fract_y
 _atom_site_fract_z
 _atom_site_occupancy
  Ti  Ti0  1  0.36472200  0.36472200  0.25703500  1
  Ti  Ti1  1  0.63527800  0.63527800  0.74296500  1
  Ti  Ti2  1  0.50000000  0.50000000  0.00000000  1
  Bi  Bi0  1  0.86044400  0.86044400  0.13246100  1
  Bi  Bi1  1  0.22224400  0.22224400  0.57650600  1
  Bi  Bi2  1  0.77775600  0.77775600  0.42349400  1
  Bi  Bi3  1  0.13955600  0.13955600  0.86753900  1
  O  O0  1  0.46500800  0.46500800  0.11847700  1
  O  O1  1  0.53499200  0.53499200  0.88152300  1
  O  O2  1  0.58914100  0.10669100  0.76737900  1
  O  O3  1  0.24973300  0.75026700  0.50000000  1
  O  O4  1  0.41085900  0.89330900  0.23262100  1
  O  O5  1  0.75026700  0.24973300  0.50000000  1
  O  O6  1  0.10669100  0.58914100  0.76737900  1
  O  O7  1  0.00000000  0.50000000  0.00000000  1
  O  O8  1  0.67707500  0.67707500  0.63673200  1
  O  O9  1  0.32292500  0.32292500  0.36326800  1
  O  O10  1  0.89330900  0.41085900  0.23262100  1
  O  O11  1  0.50000000  0.00000000  0.00000000  1
loop_
_geom_bond_atom_site_label_1
_geom_bond_atom_site_label_2
_geom_bond_distance
_geom_bond_site_symmetry_2
Bi0 O0 2.229037 1_555
Bi0 O4 2.316621 1_555
Bi0 O10 2.316621 1_555
Bi0 O0 2.768915 1_655
Bi0 O0 2.768915 1_565
Bi1 O5 2.304400 1_555
Bi1 O3 2.304400 1_555
Bi1 O3 2.338195 1_545
Bi1 O5 2.338195 1_455
Bi2 O3 2.304400 1_555
Bi2 O5 2.304400 1_555
Bi2 O5 2.338195 1_565
Bi2 O3 2.338195 1_655
Bi3 O1 2.229037 1_555
Bi3 O6 2.316621 1_555
Bi3 O2 2.316621 1_555
Bi3 O1 2.768915 1_545
Bi3 O1 2.768915 1_455
O0 Ti2 1.993575 1_555
O0 Ti0 2.339645 1_555
O1 Ti2 1.993575 1_556
O1 Ti1 2.339645 1_555
O2 Ti1 1.909649 1_545
O2 Ti1 2.050910 1_555
O4 Ti0 1.909649 1_565
O4 Ti0 2.050910 1_555
O6 Ti1 1.909649 1_455
O6 Ti1 2.050910 1_555
O7 Ti2 1.932347 1_555
O7 Ti2 1.932347 1_455
O8 Ti1 1.785868 1_555
O9 Ti0 1.785868 1_555
O10 Ti0 1.909649 1_655
O10 Ti0 2.050910 1_555
O11 Ti2 1.932347 1_545
O11 Ti2 1.932347 1_555
