# generated using pymatgen
data_Sb2H18C3(IN)9
_symmetry_space_group_name_H-M   'P 1'
_cell_length_a   9.56691679
_cell_length_b   9.56691679
_cell_length_c   22.07705000
_cell_angle_alpha   90.00000000
_cell_angle_beta   90.00000000
_cell_angle_gamma   113.88885570
_symmetry_Int_Tables_number   1
_chemical_formula_structural   Sb2H18C3(IN)9
_chemical_formula_sum   'Sb4 H36 C6 I18 N18'
_cell_volume   1847.52066983
_cell_formula_units_Z   2
loop_
 _symmetry_equiv_pos_site_id
 _symmetry_equiv_pos_as_xyz
  1  'x, y, z'
loop_
 _atom_site_type_symbol
 _atom_site_label
 _atom_site_symmetry_multiplicity
 _atom_site_fract_x
 _atom_site_fract_y
 _atom_site_fract_z
 _atom_site_occupancy
  Sb  Sb0  1  0.72774500  0.27225500  0.34481500  1
  Sb  Sb1  1  0.27225500  0.72774500  0.65518500  1
  Sb  Sb2  1  0.72774500  0.27225500  0.15518500  1
  Sb  Sb3  1  0.27225500  0.72774500  0.84481500  1
  H  H0  1  0.66354200  0.16935900  0.56969800  1
  H  H1  1  0.16935900  0.66354200  0.43030200  1
  H  H2  1  0.66354200  0.16935900  0.93030200  1
  H  H3  1  0.16935900  0.66354200  0.06969800  1
  H  H4  1  0.33645800  0.83064100  0.43030200  1
  H  H5  1  0.83064100  0.33645800  0.56969800  1
  H  H6  1  0.33645800  0.83064100  0.06969800  1
  H  H7  1  0.83064100  0.33645800  0.93030200  1
  H  H8  1  0.64985900  0.57728300  0.61688100  1
  H  H9  1  0.57728300  0.64985900  0.38311900  1
  H  H10  1  0.64985900  0.57728300  0.88311900  1
  H  H11  1  0.57728300  0.64985900  0.11688100  1
  H  H12  1  0.35014100  0.42271700  0.38311900  1
  H  H13  1  0.42271700  0.35014100  0.61688100  1
  H  H14  1  0.35014100  0.42271700  0.11688100  1
  H  H15  1  0.42271700  0.35014100  0.88311900  1
  H  H16  1  0.81994000  0.57187100  0.59229000  1
  H  H17  1  0.57187100  0.81994000  0.40771000  1
  H  H18  1  0.81994000  0.57187100  0.90771000  1
  H  H19  1  0.57187100  0.81994000  0.09229000  1
  H  H20  1  0.18006000  0.42812900  0.40771000  1
  H  H21  1  0.42812900  0.18006000  0.59229000  1
  H  H22  1  0.18006000  0.42812900  0.09229000  1
  H  H23  1  0.42812900  0.18006000  0.90771000  1
  H  H24  1  0.28178300  0.88567600  0.25000000  1
  H  H25  1  0.88567600  0.28178300  0.75000000  1
  H  H26  1  0.71821700  0.11432400  0.75000000  1
  H  H27  1  0.11432400  0.71821700  0.25000000  1
  H  H28  1  0.09305000  0.13842400  0.25000000  1
  H  H29  1  0.13842400  0.09305000  0.75000000  1
  H  H30  1  0.90695000  0.86157600  0.75000000  1
  H  H31  1  0.86157600  0.90695000  0.25000000  1
  H  H32  1  0.26800600  0.12341000  0.25000000  1
  H  H33  1  0.12341000  0.26800600  0.75000000  1
  H  H34  1  0.73199400  0.87659000  0.75000000  1
  H  H35  1  0.87659000  0.73199400  0.25000000  1
  C  C0  1  0.63566200  0.36433800  0.59226200  1
  C  C1  1  0.36433800  0.63566200  0.40773800  1
  C  C2  1  0.63566200  0.36433800  0.90773800  1
  C  C3  1  0.36433800  0.63566200  0.09226200  1
  C  C4  1  0.08196500  0.91803500  0.25000000  1
  C  C5  1  0.91803500  0.08196500  0.75000000  1
  I  I0  1  0.60312900  0.98977900  0.25000000  1
  I  I1  1  0.98977900  0.60312900  0.75000000  1
  I  I2  1  0.39687100  0.01022100  0.75000000  1
  I  I3  1  0.01022100  0.39687100  0.25000000  1
  I  I4  1  0.87803700  0.12196300  0.41785400  1
  I  I5  1  0.12196300  0.87803700  0.58214600  1
  I  I6  1  0.87803700  0.12196300  0.08214600  1
  I  I7  1  0.12196300  0.87803700  0.91785400  1
  I  I8  1  0.57062600  0.42937400  0.25000000  1
  I  I9  1  0.42937400  0.57062600  0.75000000  1
  I  I10  1  0.85175800  0.55611700  0.41464500  1
  I  I11  1  0.55611700  0.85175800  0.58535500  1
  I  I12  1  0.85175800  0.55611700  0.08535500  1
  I  I13  1  0.55611700  0.85175800  0.91464500  1
  I  I14  1  0.14824200  0.44388300  0.58535500  1
  I  I15  1  0.44388300  0.14824200  0.41464500  1
  I  I16  1  0.14824200  0.44388300  0.91464500  1
  I  I17  1  0.44388300  0.14824200  0.08535500  1
  N  N0  1  0.71440200  0.28559800  0.57275800  1
  N  N1  1  0.28559800  0.71440200  0.42724200  1
  N  N2  1  0.71440200  0.28559800  0.92724200  1
  N  N3  1  0.28559800  0.71440200  0.07275800  1
  N  N4  1  0.70744500  0.51469500  0.60247000  1
  N  N5  1  0.51469500  0.70744500  0.39753000  1
  N  N6  1  0.70744500  0.51469500  0.89753000  1
  N  N7  1  0.51469500  0.70744500  0.10247000  1
  N  N8  1  0.29255500  0.48530500  0.39753000  1
  N  N9  1  0.48530500  0.29255500  0.60247000  1
  N  N10  1  0.29255500  0.48530500  0.10247000  1
  N  N11  1  0.48530500  0.29255500  0.89753000  1
  N  N12  1  0.16531800  0.83468200  0.25000000  1
  N  N13  1  0.83468200  0.16531800  0.75000000  1
  N  N14  1  0.15206800  0.07066000  0.25000000  1
  N  N15  1  0.07066000  0.15206800  0.75000000  1
  N  N16  1  0.84793200  0.92934000  0.75000000  1
  N  N17  1  0.92934000  0.84793200  0.25000000  1
loop_
_geom_bond_atom_site_label_1
_geom_bond_atom_site_label_2
_geom_bond_distance
_geom_bond_site_symmetry_2
H0 N0 1.019668 1_555
H1 N1 1.019668 1_555
H2 N2 1.019668 1_555
H3 N3 1.019668 1_555
H4 N1 1.019668 1_555
H5 N0 1.019668 1_555
H6 N3 1.019668 1_555
H7 N2 1.019668 1_555
H8 N4 1.015107 1_555
H9 N5 1.015107 1_555
H10 N6 1.015107 1_555
H11 N7 1.015107 1_555
H12 N8 1.015107 1_555
H13 N9 1.015107 1_555
H14 N10 1.015107 1_555
H15 N11 1.015107 1_555
H16 N4 1.015474 1_555
H17 N5 1.015474 1_555
H18 N6 1.015474 1_555
H19 N7 1.015474 1_555
H20 N8 1.015474 1_555
H21 N9 1.015474 1_555
H22 N10 1.015474 1_555
H23 N11 1.015474 1_555
H24 N12 1.019418 1_555
H25 N13 1.019418 1_555
H26 N13 1.019418 1_555
H27 N12 1.019418 1_555
H28 N14 1.017617 1_555
H29 N15 1.017617 1_555
H30 N16 1.017617 1_555
H31 N17 1.017617 1_555
H32 N14 1.015666 1_555
H33 N15 1.015666 1_555
H34 N16 1.015666 1_555
H35 N17 1.015666 1_555
C0 N0 1.334140 1_555
C0 N9 1.338457 1_555
C0 N4 1.338457 1_555
C1 N1 1.334140 1_555
C1 N8 1.338457 1_555
C1 N5 1.338457 1_555
C2 N2 1.334140 1_555
C2 N11 1.338457 1_555
C2 N6 1.338457 1_555
C3 N3 1.334140 1_555
C3 N10 1.338457 1_555
C3 N7 1.338457 1_555
C4 N12 1.336721 1_555
C4 N17 1.337420 1_455
C4 N14 1.337420 1_565
C5 N13 1.336721 1_555
C5 N16 1.337420 1_545
C5 N15 1.337420 1_655
I0 Sb0 3.239849 1_565
I0 Sb2 3.239849 1_565
I1 Sb3 3.239849 1_655
I1 Sb1 3.239849 1_655
I2 Sb3 3.239849 1_545
I2 Sb1 3.239849 1_545
I3 Sb0 3.239849 1_455
I3 Sb2 3.239849 1_455
I4 Sb0 2.899868 1_555
I5 Sb1 2.899868 1_555
I6 Sb2 2.899868 1_555
I7 Sb3 2.899868 1_555
I8 Sb0 3.275745 1_555
I8 Sb2 3.275745 1_555
I9 Sb1 3.275745 1_555
I9 Sb3 3.275745 1_555
I10 Sb0 2.923978 1_555
I11 Sb1 2.923978 1_555
I12 Sb2 2.923978 1_555
I13 Sb3 2.923978 1_555
I14 Sb1 2.923978 1_555
I15 Sb0 2.923978 1_555
I16 Sb3 2.923978 1_555
I17 Sb2 2.923978 1_555
