# generated using pymatgen
data_Li2Cr3SnO8
_symmetry_space_group_name_H-M   'P 1'
_cell_length_a   6.00685000
_cell_length_b   5.95377330
_cell_length_c   10.70908360
_cell_angle_alpha   89.75065234
_cell_angle_beta   106.30108373
_cell_angle_gamma   120.28630794
_symmetry_Int_Tables_number   1
_chemical_formula_structural   Li2Cr3SnO8
_chemical_formula_sum   'Li4 Cr6 Sn2 O16'
_cell_volume   313.04632678
_cell_formula_units_Z   2
loop_
 _symmetry_equiv_pos_site_id
 _symmetry_equiv_pos_as_xyz
  1  'x, y, z'
loop_
 _atom_site_type_symbol
 _atom_site_label
 _atom_site_symmetry_multiplicity
 _atom_site_fract_x
 _atom_site_fract_y
 _atom_site_fract_z
 _atom_site_occupancy
  Li  Li0  1  0.12392800  0.06553600  0.18129100  1
  Li  Li1  1  0.12296600  0.56560000  0.68125200  1
  Li  Li2  1  0.87705000  0.43442300  0.31878100  1
  Li  Li3  1  0.87611000  0.93437900  0.81874700  1
  Cr  Cr0  1  0.50007900  0.00003300  0.99995800  1
  Cr  Cr1  1  0.00008500  0.00025000  0.49999200  1
  Cr  Cr2  1  0.99999700  0.49996900  0.00001100  1
  Cr  Cr3  1  0.50006500  0.99990600  0.50006200  1
  Cr  Cr4  1  0.49984900  0.50000000  0.00003300  1
  Cr  Cr5  1  0.49988500  0.49996900  0.49987000  1
  Sn  Sn0  1  0.50432300  0.25005200  0.75001900  1
  Sn  Sn1  1  0.49572500  0.75003900  0.24997200  1
  O  O0  1  0.27647900  0.14872900  0.39970800  1
  O  O1  1  0.27182400  0.64876700  0.89966400  1
  O  O2  1  0.72811500  0.35118200  0.10032000  1
  O  O3  1  0.72354900  0.85117900  0.60027200  1
  O  O4  1  0.71782400  0.36255100  0.61402000  1
  O  O5  1  0.71356000  0.86612100  0.11295300  1
  O  O6  1  0.25694300  0.90115700  0.61545000  1
  O  O7  1  0.25971800  0.40106900  0.11549500  1
  O  O8  1  0.26553400  0.36617600  0.61295700  1
  O  O9  1  0.25876500  0.86258500  0.11401100  1
  O  O10  1  0.74130600  0.13739200  0.88599300  1
  O  O11  1  0.73453200  0.63397300  0.38702900  1
  O  O12  1  0.74018100  0.59886800  0.88458700  1
  O  O13  1  0.74302800  0.09890800  0.38454100  1
  O  O14  1  0.28645600  0.13385700  0.88706400  1
  O  O15  1  0.28212600  0.63732900  0.38595100  1
loop_
_geom_bond_atom_site_label_1
_geom_bond_atom_site_label_2
_geom_bond_distance
_geom_bond_site_symmetry_2
Li0 O7 1.954330 1_555
Li0 O9 1.989347 1_545
Li0 O5 2.016044 1_445
Li0 O0 2.214773 1_555
Li1 O6 1.954473 1_555
Li1 O4 1.989693 1_455
Li1 O8 2.015641 1_555
Li1 O1 2.214729 1_555
Li2 O13 1.954057 1_555
Li2 O15 1.989363 1_655
Li2 O11 2.015754 1_555
Li2 O2 2.215233 1_555
Li3 O12 1.954449 1_555
Li3 O10 1.989312 1_565
Li3 O14 2.015920 1_665
Li3 O3 2.215358 1_555
Cr0 O2 1.925338 1_556
Cr0 O1 1.925592 1_545
Cr0 O14 1.973587 1_555
Cr0 O5 1.973851 1_546
Cr0 O10 2.011665 1_555
Cr0 O9 2.012805 1_546
Cr1 O13 2.023536 1_455
Cr1 O6 2.024426 1_545
Cr1 O8 2.046614 1_555
Cr1 O11 2.048063 1_445
Cr1 O0 2.050269 1_555
Cr1 O3 2.050943 1_445
Cr2 O2 2.030566 1_555
Cr2 O1 2.030632 1_654
Cr2 O10 2.034684 1_554
Cr2 O9 2.034794 1_655
Cr2 O7 2.036481 1_655
Cr2 O12 2.036649 1_554
Cr3 O3 2.029744 1_555
Cr3 O0 2.031158 1_565
Cr3 O4 2.034762 1_565
Cr3 O15 2.035092 1_555
Cr3 O6 2.036191 1_555
Cr3 O13 2.036520 1_565
Cr4 O7 2.023462 1_555
Cr4 O12 2.024240 1_554
Cr4 O5 2.047158 1_555
Cr4 O14 2.047622 1_554
Cr4 O1 2.050574 1_554
Cr4 O2 2.051583 1_555
Cr5 O0 1.924954 1_555
Cr5 O3 1.925755 1_555
Cr5 O11 1.974081 1_555
Cr5 O8 1.974954 1_555
Cr5 O15 2.010620 1_555
Cr5 O4 2.012660 1_555
O4 Sn0 2.094792 1_555
O5 Sn1 2.121275 1_555
O6 Sn0 2.076140 1_565
O7 Sn1 2.075944 1_555
O8 Sn0 2.121181 1_555
O9 Sn1 2.094064 1_555
O10 Sn0 2.094671 1_555
O11 Sn1 2.120995 1_555
O12 Sn0 2.075848 1_555
O13 Sn1 2.076033 1_545
O14 Sn0 2.121647 1_555
O15 Sn1 2.094998 1_555
