# generated using pymatgen
data_CaY5(MoO6)2
_symmetry_space_group_name_H-M   'P 1'
_cell_length_a   5.98727255
_cell_length_b   7.04658940
_cell_length_c   7.59209949
_cell_angle_alpha   105.07860466
_cell_angle_beta   89.82714925
_cell_angle_gamma   115.84119576
_symmetry_Int_Tables_number   1
_chemical_formula_structural   CaY5(MoO6)2
_chemical_formula_sum   'Ca1 Y5 Mo2 O12'
_cell_volume   276.10056361
_cell_formula_units_Z   1
loop_
 _symmetry_equiv_pos_site_id
 _symmetry_equiv_pos_as_xyz
  1  'x, y, z'
loop_
 _atom_site_type_symbol
 _atom_site_label
 _atom_site_symmetry_multiplicity
 _atom_site_fract_x
 _atom_site_fract_y
 _atom_site_fract_z
 _atom_site_occupancy
  Ca  Ca0  1  0.65616200  0.33129600  0.84396700  1
  Y  Y0  1  0.50123300  0.97956000  0.47707500  1
  Y  Y1  1  0.19501300  0.40227700  0.83933300  1
  Y  Y2  1  0.82821000  0.65078900  0.19844900  1
  Y  Y3  1  0.82945700  0.64588600  0.63440600  1
  Y  Y4  1  0.19824500  0.38316800  0.36121100  1
  Mo  Mo0  1  0.73635100  0.99245700  0.99993600  1
  Mo  Mo1  1  0.25131000  0.99563800  0.00049600  1
  O  O0  1  0.99670200  0.01303600  0.80881400  1
  O  O1  1  0.99869300  0.00947800  0.20527400  1
  O  O2  1  0.49788200  0.97523200  0.18939000  1
  O  O3  1  0.48756900  0.97451700  0.78647800  1
  O  O4  1  0.60075100  0.69472900  0.42856900  1
  O  O5  1  0.90054100  0.31347200  0.58414800  1
  O  O6  1  0.41719100  0.31570800  0.58487500  1
  O  O7  1  0.42068100  0.35191800  0.08672500  1
  O  O8  1  0.04173300  0.64804500  0.91128400  1
  O  O9  1  0.60230900  0.66298300  0.90562600  1
  O  O10  1  0.91573200  0.33066900  0.07978900  1
  O  O11  1  0.10131700  0.69025300  0.42237100  1
loop_
_geom_bond_atom_site_label_1
_geom_bond_atom_site_label_2
_geom_bond_distance
_geom_bond_site_symmetry_2
Ca0 O3 2.179322 1_545
Ca0 O7 2.330084 1_556
Ca0 O8 2.343943 1_655
Ca0 O10 2.376481 1_556
Ca0 O6 2.386643 1_555
Ca0 O9 2.423363 1_555
Ca0 O5 2.462021 1_555
Mo0 O2 2.012340 1_556
Mo0 O9 2.015234 1_555
Mo0 O10 2.054678 1_566
Mo0 O0 2.110708 1_565
Mo0 O3 2.145884 1_555
Mo0 O1 2.159884 1_566
Mo1 O8 2.120203 1_554
Mo1 O2 2.135858 1_555
Mo1 O7 2.165482 1_565
Mo1 O3 2.169576 1_554
Mo1 O0 2.173887 1_464
Mo1 O1 2.179385 1_465
O0 Y3 2.327361 1_545
O0 Y1 2.412161 1_655
O1 Y2 2.261882 1_545
O1 Y4 2.325281 1_655
O2 Y0 2.176429 1_555
O3 Y0 2.359148 1_555
O4 Y2 2.252699 1_555
O4 Y3 2.266992 1_555
O4 Y0 2.275015 1_555
O4 Y4 2.387499 1_555
O5 Y1 2.383604 1_655
O5 Y4 2.436020 1_655
O5 Y0 2.454700 1_545
O5 Y3 2.493304 1_555
O6 Y4 2.409257 1_555
O6 Y1 2.439782 1_555
O6 Y3 2.488234 1_555
O6 Y0 2.561573 1_545
O7 Y2 2.389924 1_555
O7 Y4 2.482950 1_555
O7 Y1 2.501856 1_554
O8 Y1 2.242798 1_555
O8 Y3 2.452946 1_455
O8 Y2 2.524032 1_456
O9 Y1 2.279449 1_555
O9 Y3 2.470018 1_555
O9 Y2 2.645359 1_556
O10 Y1 2.471567 1_654
O10 Y2 2.478893 1_555
O10 Y4 2.574496 1_655
O11 Y2 2.239560 1_455
O11 Y3 2.267377 1_455
O11 Y0 2.317725 1_555
O11 Y4 2.409400 1_555
