# generated using pymatgen
data_UCuBi2
_symmetry_space_group_name_H-M   'P 1'
_cell_length_a   4.57125100
_cell_length_b   4.57125100
_cell_length_c   9.25699000
_cell_angle_alpha   90.00000000
_cell_angle_beta   90.00000000
_cell_angle_gamma   90.00000000
_symmetry_Int_Tables_number   1
_chemical_formula_structural   UCuBi2
_chemical_formula_sum   'U2 Cu2 Bi4'
_cell_volume   193.43717066
_cell_formula_units_Z   2
loop_
 _symmetry_equiv_pos_site_id
 _symmetry_equiv_pos_as_xyz
  1  'x, y, z'
loop_
 _atom_site_type_symbol
 _atom_site_label
 _atom_site_symmetry_multiplicity
 _atom_site_fract_x
 _atom_site_fract_y
 _atom_site_fract_z
 _atom_site_occupancy
  U  U0  1  0.00000000  0.50000000  0.72539700  1
  U  U1  1  0.50000000  0.00000000  0.27460300  1
  Cu  Cu0  1  0.50000000  0.50000000  0.50000000  1
  Cu  Cu1  1  0.00000000  0.00000000  0.50000000  1
  Bi  Bi0  1  0.50000000  0.50000000  0.00000000  1
  Bi  Bi1  1  0.00000000  0.00000000  0.00000000  1
  Bi  Bi2  1  0.00000000  0.50000000  0.32046700  1
  Bi  Bi3  1  0.50000000  0.00000000  0.67953300  1
loop_
_geom_bond_atom_site_label_1
_geom_bond_atom_site_label_2
_geom_bond_distance
_geom_bond_site_symmetry_2
Cu0 U0 3.094763 1_655
Cu0 U0 3.094763 1_555
Cu0 U1 3.094763 1_565
Cu0 U1 3.094763 1_555
Cu0 Cu1 3.232363 1_565
Cu0 Cu1 3.232363 1_655
Cu0 Cu1 3.232363 1_555
Cu0 Cu1 3.232363 1_665
Cu1 U0 3.094763 1_545
Cu1 U0 3.094763 1_555
Cu1 U1 3.094763 1_555
Cu1 U1 3.094763 1_455
Bi0 Bi1 3.232363 1_655
Bi0 Bi1 3.232363 1_565
Bi0 Bi1 3.232363 1_665
Bi0 Bi1 3.232363 1_555
Bi0 U1 3.418455 1_565
Bi0 U1 3.418455 1_555
Bi0 U0 3.418455 1_654
Bi0 U0 3.418455 1_554
Bi1 U1 3.418455 1_455
Bi1 U1 3.418455 1_555
Bi1 U0 3.418455 1_544
Bi1 U0 3.418455 1_554
Bi2 Cu1 2.825971 1_565
Bi2 Cu0 2.825971 1_555
Bi2 Cu1 2.825971 1_555
Bi2 Cu0 2.825971 1_455
Bi2 U1 3.260126 1_455
Bi2 U1 3.260126 1_555
Bi2 U1 3.260126 1_565
Bi2 U1 3.260126 1_465
Bi3 Cu0 2.825971 1_545
Bi3 Cu0 2.825971 1_555
Bi3 Cu1 2.825971 1_655
Bi3 Cu1 2.825971 1_555
Bi3 U0 3.260126 1_655
Bi3 U0 3.260126 1_645
Bi3 U0 3.260126 1_545
Bi3 U0 3.260126 1_555
