# generated using pymatgen
data_La5SbPb3
_symmetry_space_group_name_H-M   'P 1'
_cell_length_a   9.92328174
_cell_length_b   9.92328174
_cell_length_c   7.19640100
_cell_angle_alpha   90.00000000
_cell_angle_beta   90.00000000
_cell_angle_gamma   119.99999826
_symmetry_Int_Tables_number   1
_chemical_formula_structural   La5SbPb3
_chemical_formula_sum   'La10 Sb2 Pb6'
_cell_volume   613.70072785
_cell_formula_units_Z   2
loop_
 _symmetry_equiv_pos_site_id
 _symmetry_equiv_pos_as_xyz
  1  'x, y, z'
loop_
 _atom_site_type_symbol
 _atom_site_label
 _atom_site_symmetry_multiplicity
 _atom_site_fract_x
 _atom_site_fract_y
 _atom_site_fract_z
 _atom_site_occupancy
  La  La0  1  0.26051500  0.00000000  0.25000000  1
  La  La1  1  0.73948500  0.00000000  0.75000000  1
  La  La2  1  0.00000000  0.26051500  0.25000000  1
  La  La3  1  0.00000000  0.73948500  0.75000000  1
  La  La4  1  0.73948500  0.73948500  0.25000000  1
  La  La5  1  0.26051500  0.26051500  0.75000000  1
  La  La6  1  0.33333300  0.66666700  0.00000000  1
  La  La7  1  0.66666700  0.33333300  0.00000000  1
  La  La8  1  0.66666700  0.33333300  0.50000000  1
  La  La9  1  0.33333300  0.66666700  0.50000000  1
  Sb  Sb0  1  0.00000000  0.00000000  0.00000000  1
  Sb  Sb1  1  0.00000000  0.00000000  0.50000000  1
  Pb  Pb0  1  0.60963100  0.00000000  0.25000000  1
  Pb  Pb1  1  0.39036900  0.00000000  0.75000000  1
  Pb  Pb2  1  0.00000000  0.60963100  0.25000000  1
  Pb  Pb3  1  0.00000000  0.39036900  0.75000000  1
  Pb  Pb4  1  0.39036900  0.39036900  0.25000000  1
  Pb  Pb5  1  0.60963100  0.60963100  0.75000000  1
loop_
_geom_bond_atom_site_label_1
_geom_bond_atom_site_label_2
_geom_bond_distance
_geom_bond_site_symmetry_2
La0 Sb1 3.149577 1_555
La0 Sb0 3.149577 1_555
La0 Pb4 3.416824 1_555
La0 Pb2 3.416824 1_545
La0 Pb0 3.464376 1_555
La0 Pb1 3.821973 1_554
La0 Pb1 3.821973 1_555
La1 Sb1 3.149577 1_655
La1 Sb0 3.149577 1_656
La1 Pb5 3.416824 1_545
La1 Pb3 3.416824 1_655
La1 Pb1 3.464376 1_555
La1 Pb0 3.821973 1_555
La1 Pb0 3.821973 1_556
La2 Sb1 3.149577 1_555
La2 Sb0 3.149577 1_555
La2 Pb4 3.416824 1_555
La2 Pb0 3.416824 1_455
La2 Pb2 3.464376 1_555
La2 Pb3 3.821973 1_555
La2 Pb3 3.821973 1_554
La3 Sb1 3.149577 1_565
La3 Sb0 3.149577 1_566
La3 Pb5 3.416824 1_455
La3 Pb1 3.416824 1_565
La3 Pb3 3.464376 1_555
La3 Pb2 3.821973 1_555
La3 Pb2 3.821973 1_556
La4 Sb0 3.149577 1_665
La4 Sb1 3.149577 1_665
La4 Pb0 3.416824 1_565
La4 Pb2 3.416824 1_655
La4 Pb4 3.464377 1_555
La4 Pb5 3.821973 1_555
La4 Pb5 3.821973 1_554
La5 Sb1 3.149577 1_555
La5 Sb0 3.149577 1_556
La5 Pb3 3.416824 1_555
La5 Pb1 3.416824 1_555
La5 Pb5 3.464377 1_555
La5 Pb4 3.821973 1_555
La5 Pb4 3.821973 1_556
La6 Pb2 3.553339 1_555
La6 Pb1 3.553339 1_564
La6 Pb3 3.553342 1_554
La6 Pb0 3.553342 1_565
La6 Pb4 3.553348 1_555
La6 Pb5 3.553348 1_554
La7 Pb0 3.553339 1_555
La7 Pb3 3.553339 1_654
La7 Pb1 3.553342 1_554
La7 Pb2 3.553342 1_655
La7 Pb4 3.553348 1_555
La7 Pb5 3.553348 1_554
La8 Pb0 3.553339 1_555
La8 Pb3 3.553339 1_655
La8 Pb1 3.553342 1_555
La8 Pb2 3.553342 1_655
La8 Pb4 3.553348 1_555
La8 Pb5 3.553348 1_555
La9 Pb1 3.553339 1_565
La9 Pb2 3.553339 1_555
La9 Pb3 3.553342 1_555
La9 Pb0 3.553342 1_565
La9 Pb4 3.553348 1_555
La9 Pb5 3.553348 1_555
