# generated using pymatgen
data_LaTi6Bi7O24
_symmetry_space_group_name_H-M   'P 1'
_cell_length_a   5.47316900
_cell_length_b   5.52127527
_cell_length_c   16.91672847
_cell_angle_alpha   99.36612577
_cell_angle_beta   90.04265839
_cell_angle_gamma   90.66891344
_symmetry_Int_Tables_number   1
_chemical_formula_structural   LaTi6Bi7O24
_chemical_formula_sum   'La1 Ti6 Bi7 O24'
_cell_volume   504.35318133
_cell_formula_units_Z   1
loop_
 _symmetry_equiv_pos_site_id
 _symmetry_equiv_pos_as_xyz
  1  'x, y, z'
loop_
 _atom_site_type_symbol
 _atom_site_label
 _atom_site_symmetry_multiplicity
 _atom_site_fract_x
 _atom_site_fract_y
 _atom_site_fract_z
 _atom_site_occupancy
  La  La0  1  0.48456600  0.85581600  0.62730700  1
  Ti  Ti0  1  0.47724700  0.30569900  0.50280500  1
  Ti  Ti1  1  0.97804300  0.80300700  0.49968500  1
  Ti  Ti2  1  0.48678500  0.44260000  0.75616100  1
  Ti  Ti3  1  0.98672400  0.67683500  0.24281400  1
  Ti  Ti4  1  0.49266800  0.17755300  0.24387700  1
  Ti  Ti5  1  0.98826900  0.92771800  0.75622600  1
  Bi  Bi0  1  0.02807300  0.03694500  0.07766300  1
  Bi  Bi1  1  0.52490100  0.96049900  0.92173700  1
  Bi  Bi2  1  0.97638400  0.45935200  0.92325700  1
  Bi  Bi3  1  0.48095200  0.54127900  0.07438100  1
  Bi  Bi4  1  0.98543100  0.32797000  0.63608100  1
  Bi  Bi5  1  0.49050500  0.68545600  0.36781200  1
  Bi  Bi6  1  0.99625900  0.19000500  0.36498200  1
  O  O0  1  0.54517000  0.49830600  0.86100100  1
  O  O1  1  0.03829500  0.63963100  0.13870400  1
  O  O2  1  0.73930500  0.27276300  0.00203100  1
  O  O3  1  0.24030200  0.27005600  0.99753800  1
  O  O4  1  0.22987500  0.58686600  0.48614700  1
  O  O5  1  0.70957100  0.08488600  0.52422100  1
  O  O6  1  0.20428200  0.43947700  0.27670800  1
  O  O7  1  0.71162000  0.16609100  0.72032700  1
  O  O8  1  0.40714900  0.39613600  0.61633300  1
  O  O9  1  0.90489100  0.79229600  0.38352600  1
  O  O10  1  0.43101900  0.12808500  0.13948300  1
  O  O11  1  0.92672100  0.00304200  0.86113100  1
  O  O12  1  0.75287100  0.66511800  0.72176800  1
  O  O13  1  0.25439600  0.94234500  0.28009200  1
  O  O14  1  0.26452400  0.72683400  0.74974100  1
  O  O15  1  0.77730500  0.99319700  0.25198000  1
  O  O16  1  0.53838300  0.29021600  0.38338400  1
  O  O17  1  0.04196800  0.90859900  0.61650400  1
  O  O18  1  0.68623300  0.49440300  0.25330800  1
  O  O19  1  0.20096100  0.22463900  0.74368200  1
  O  O20  1  0.25304900  0.76821200  0.99834200  1
  O  O21  1  0.75226100  0.76968300  0.00094700  1
  O  O22  1  0.71406800  0.59619700  0.51609800  1
  O  O23  1  0.20637300  0.08698800  0.48221400  1
loop_
_geom_bond_atom_site_label_1
_geom_bond_atom_site_label_2
_geom_bond_distance
_geom_bond_site_symmetry_2
La0 O17 2.453483 1_555
La0 O7 2.454634 1_565
La0 O22 2.517856 1_555
La0 O12 2.529578 1_555
La0 O8 2.544987 1_555
La0 O14 2.590584 1_555
La0 O5 2.615723 1_565
Bi0 O20 2.217057 1_544
Bi0 O3 2.319117 1_554
Bi0 O21 2.337148 1_445
Bi0 O10 2.451534 1_555
Bi0 O2 2.533255 1_455
Bi0 O1 2.573272 1_545
Bi1 O21 2.222971 1_556
Bi1 O2 2.320063 1_566
Bi1 O20 2.331123 1_555
Bi1 O11 2.452062 1_565
Bi1 O3 2.518647 1_565
Bi1 O0 2.594900 1_555
Bi2 O2 2.222398 1_556
Bi2 O3 2.284267 1_655
Bi2 O21 2.342290 1_556
Bi2 O20 2.458896 1_655
Bi2 O11 2.578297 1_555
Bi2 O0 2.609100 1_555
Bi3 O3 2.232692 1_554
Bi3 O2 2.270747 1_555
Bi3 O20 2.310657 1_554
Bi3 O21 2.409867 1_555
Bi3 O1 2.681583 1_555
Bi3 O10 2.701081 1_555
Bi4 O17 2.309564 1_645
Bi4 O19 2.319674 1_655
Bi4 O7 2.337154 1_555
Bi4 O8 2.366965 1_655
Bi4 O12 2.523142 1_555
Bi4 O5 2.604518 1_555
Bi5 O16 2.258438 1_555
Bi5 O18 2.318796 1_555
Bi5 O9 2.340792 1_555
Bi5 O6 2.437057 1_555
Bi5 O13 2.570748 1_555
Bi5 O4 2.584434 1_555
Bi6 O13 2.310220 1_645
Bi6 O9 2.317130 1_545
Bi6 O15 2.358229 1_545
Bi6 O23 2.440907 1_655
Bi6 O6 2.461482 1_655
Bi6 O16 2.580836 1_555
O0 Ti2 1.778062 1_555
O1 Ti3 1.762961 1_455
O4 Ti1 1.823807 1_455
O4 Ti0 2.124458 1_555
O5 Ti0 1.847630 1_555
O5 Ti1 2.144204 1_545
O6 Ti3 1.934956 1_455
O6 Ti4 2.164325 1_555
O7 Ti2 1.989034 1_555
O7 Ti5 2.167703 1_545
O8 Ti0 1.943802 1_555
O8 Ti2 2.376846 1_555
O9 Ti1 1.996395 1_555
O9 Ti3 2.405738 1_555
O10 Ti4 1.774031 1_555
O11 Ti5 1.788786 1_545
O12 Ti5 1.944748 1_555
O12 Ti2 2.039848 1_555
O13 Ti4 1.995771 1_565
O13 Ti3 2.083399 1_455
O14 Ti5 1.878332 1_455
O14 Ti2 2.013520 1_555
O15 Ti4 1.887840 1_565
O15 Ti3 2.085108 1_555
O16 Ti0 2.036171 1_555
O16 Ti4 2.353044 1_555
O17 Ti1 1.996712 1_455
O17 Ti5 2.367459 1_455
O18 Ti3 1.941873 1_555
O18 Ti4 2.018390 1_555
O19 Ti2 1.952661 1_555
O19 Ti5 2.038816 1_445
O22 Ti1 1.879783 1_555
O22 Ti0 2.033910 1_555
O23 Ti0 1.896836 1_555
O23 Ti1 2.052591 1_445
