# generated using pymatgen
data_TeMo2Se2S
_symmetry_space_group_name_H-M   'P 1'
_cell_length_a   3.34499059
_cell_length_b   3.34499059
_cell_length_c   38.03378300
_cell_angle_alpha   90.00000000
_cell_angle_beta   90.00000000
_cell_angle_gamma   120.00001173
_symmetry_Int_Tables_number   1
_chemical_formula_structural   TeMo2Se2S
_chemical_formula_sum   'Te2 Mo4 Se4 S2'
_cell_volume   368.54447608
_cell_formula_units_Z   2
loop_
 _symmetry_equiv_pos_site_id
 _symmetry_equiv_pos_as_xyz
  1  'x, y, z'
loop_
 _atom_site_type_symbol
 _atom_site_label
 _atom_site_symmetry_multiplicity
 _atom_site_fract_x
 _atom_site_fract_y
 _atom_site_fract_z
 _atom_site_occupancy
  Te  Te0  1  0.33333300  0.66666700  0.70743100  1
  Te  Te1  1  0.33333300  0.66666700  0.60771100  1
  Mo  Mo0  1  0.33333300  0.66666700  0.09392500  1
  Mo  Mo1  1  0.33333300  0.66666700  0.46963100  1
  Mo  Mo2  1  0.66666700  0.33333300  0.28180500  1
  Mo  Mo3  1  0.66666700  0.33333300  0.65759600  1
  Se  Se0  1  0.33333300  0.66666700  0.32564500  1
  Se  Se1  1  0.66666700  0.33333300  0.42576200  1
  Se  Se2  1  0.66666700  0.33333300  0.51349000  1
  Se  Se3  1  0.33333300  0.66666700  0.23790600  1
  S  S0  1  0.66666700  0.33333300  0.05405100  1
  S  S1  1  0.66666700  0.33333300  0.13379400  1
loop_
_geom_bond_atom_site_label_1
_geom_bond_atom_site_label_2
_geom_bond_distance
_geom_bond_site_symmetry_2
Mo0 S1 2.455406 1_455
Mo0 S1 2.455406 1_565
Mo0 S1 2.455411 1_555
Mo0 S0 2.455524 1_455
Mo0 S0 2.455524 1_565
Mo0 S0 2.455529 1_555
Mo1 Se2 2.551917 1_455
Mo1 Se2 2.551917 1_565
Mo1 Se2 2.551922 1_555
Mo1 Se1 2.552166 1_455
Mo1 Se1 2.552166 1_565
Mo1 Se1 2.552171 1_555
Mo2 Se0 2.551445 1_545
Mo2 Se0 2.551445 1_655
Mo2 Se0 2.551450 1_555
Mo2 Se3 2.552912 1_545
Mo2 Se3 2.552912 1_655
Mo2 Se3 2.552917 1_555
Mo3 Te0 2.705963 1_545
Mo3 Te0 2.705963 1_655
Mo3 Te0 2.705968 1_555
Mo3 Te1 2.707296 1_545
Mo3 Te1 2.707296 1_655
Mo3 Te1 2.707300 1_555
