# generated using pymatgen
data_Li5Co3O8
_symmetry_space_group_name_H-M   'P 1'
_cell_length_a   5.03055800
_cell_length_b   5.74988146
_cell_length_c   5.78959798
_cell_angle_alpha   60.48251474
_cell_angle_beta   74.37976426
_cell_angle_gamma   73.75431424
_symmetry_Int_Tables_number   1
_chemical_formula_structural   Li5Co3O8
_chemical_formula_sum   'Li5 Co3 O8'
_cell_volume   138.16792751
_cell_formula_units_Z   1
loop_
 _symmetry_equiv_pos_site_id
 _symmetry_equiv_pos_as_xyz
  1  'x, y, z'
loop_
 _atom_site_type_symbol
 _atom_site_label
 _atom_site_symmetry_multiplicity
 _atom_site_fract_x
 _atom_site_fract_y
 _atom_site_fract_z
 _atom_site_occupancy
  Li  Li0  1  0.49630300  0.75604700  0.24833500  1
  Li  Li1  1  0.49708800  0.75593300  0.74715300  1
  Li  Li2  1  0.50369700  0.24395300  0.75166500  1
  Li  Li3  1  0.50291200  0.24406700  0.25284700  1
  Li  Li4  1  0.00000000  0.00000000  0.50000000  1
  Co  Co0  1  0.00000000  0.00000000  0.00000000  1
  Co  Co1  1  0.00000000  0.50000000  0.50000000  1
  Co  Co2  1  0.00000000  0.50000000  0.00000000  1
  O  O0  1  0.77800800  0.86684700  0.88798900  1
  O  O1  1  0.78324600  0.86694700  0.35071000  1
  O  O2  1  0.77998000  0.39133500  0.37709000  1
  O  O3  1  0.76208000  0.35645400  0.88486800  1
  O  O4  1  0.22002000  0.60866500  0.62291000  1
  O  O5  1  0.23792000  0.64354600  0.11513200  1
  O  O6  1  0.22199200  0.13315300  0.11201100  1
  O  O7  1  0.21675400  0.13305300  0.64929000  1
loop_
_geom_bond_atom_site_label_1
_geom_bond_atom_site_label_2
_geom_bond_distance
_geom_bond_site_symmetry_2
Li0 O1 2.046883 1_555
Li0 O5 2.050488 1_555
Li0 O2 2.085158 1_555
Li0 O0 2.090440 1_554
Li0 O6 2.110636 1_565
Li0 O4 2.139576 1_555
Li1 O5 2.067658 1_556
Li1 O7 2.126130 1_565
Li1 O0 2.169297 1_555
Li1 O3 2.177913 1_555
Li1 O4 2.231055 1_555
Li1 O1 2.244771 1_555
Li2 O7 2.046883 1_555
Li2 O3 2.050488 1_555
Li2 O4 2.085158 1_555
Li2 O6 2.090440 1_556
Li2 O0 2.110636 1_545
Li2 O2 2.139576 1_555
Li3 O3 2.067658 1_554
Li3 O1 2.126130 1_545
Li3 O6 2.169297 1_555
Li3 O5 2.177913 1_555
Li3 O2 2.231055 1_555
Li3 O7 2.244771 1_555
Li4 O1 2.036458 1_445
Li4 O7 2.036458 1_555
Li4 O2 2.060926 1_455
Li4 O4 2.060926 1_545
Li4 O0 2.076530 1_445
Li4 O6 2.076530 1_555
Co0 O0 1.900382 1_444
Co0 O6 1.900382 1_555
Co0 O7 1.908096 1_554
Co0 O1 1.908096 1_445
Co0 O3 1.946393 1_454
Co0 O5 1.946393 1_545
Co1 O4 1.836032 1_555
Co1 O2 1.836032 1_455
Co1 O1 1.952185 1_455
Co1 O7 1.952185 1_555
Co1 O5 2.093577 1_555
Co1 O3 2.093577 1_455
Co2 O0 1.959861 1_454
Co2 O6 1.959861 1_555
Co2 O5 2.020526 1_555
Co2 O3 2.020526 1_454
Co2 O4 2.030594 1_554
Co2 O2 2.030594 1_455
