# generated using pymatgen
data_MgGa
_symmetry_space_group_name_H-M   'P 1'
_cell_length_a   15.45075880
_cell_length_b   15.45075880
_cell_length_c   10.04819600
_cell_angle_alpha   90.00000000
_cell_angle_beta   90.00000000
_cell_angle_gamma   156.20811854
_symmetry_Int_Tables_number   1
_chemical_formula_structural   MgGa
_chemical_formula_sum   'Mg24 Ga24'
_cell_volume   967.69937918
_cell_formula_units_Z   24
loop_
 _symmetry_equiv_pos_site_id
 _symmetry_equiv_pos_as_xyz
  1  'x, y, z'
loop_
 _atom_site_type_symbol
 _atom_site_label
 _atom_site_symmetry_multiplicity
 _atom_site_fract_x
 _atom_site_fract_y
 _atom_site_fract_z
 _atom_site_occupancy
  Mg  Mg0_0  1  0.49480600  0.00519400  0.00000000  1
  Mg  Mg0_1  1  0.49480600  0.00519400  0.50000000  1
  Mg  Mg0_2  1  0.49480600  0.50519400  0.00000000  1
  Mg  Mg0_3  1  0.49480600  0.50519400  0.50000000  1
  Mg  Mg0_4  1  0.99480600  0.00519400  0.00000000  1
  Mg  Mg0_5  1  0.99480600  0.00519400  0.50000000  1
  Mg  Mg0_6  1  0.99480600  0.50519400  0.00000000  1
  Mg  Mg0_7  1  0.99480600  0.50519400  0.50000000  1
  Mg  Mg1_0  1  0.33785050  0.16214950  0.00000000  1
  Mg  Mg1_1  1  0.33785050  0.16214950  0.50000000  1
  Mg  Mg1_2  1  0.33785050  0.66214950  0.00000000  1
  Mg  Mg1_3  1  0.33785050  0.66214950  0.50000000  1
  Mg  Mg1_4  1  0.83785050  0.16214950  0.00000000  1
  Mg  Mg1_5  1  0.83785050  0.16214950  0.50000000  1
  Mg  Mg1_6  1  0.83785050  0.66214950  0.00000000  1
  Mg  Mg1_7  1  0.83785050  0.66214950  0.50000000  1
  Mg  Mg2_0  1  0.05543250  0.44456750  0.25000000  1
  Mg  Mg2_1  1  0.05543250  0.44456750  0.75000000  1
  Mg  Mg2_2  1  0.05543250  0.94456750  0.25000000  1
  Mg  Mg2_3  1  0.05543250  0.94456750  0.75000000  1
  Mg  Mg2_4  1  0.55543250  0.44456750  0.25000000  1
  Mg  Mg2_5  1  0.55543250  0.44456750  0.75000000  1
  Mg  Mg2_6  1  0.55543250  0.94456750  0.25000000  1
  Mg  Mg2_7  1  0.55543250  0.94456750  0.75000000  1
  Ga  Ga0_0  1  0.16552050  0.33447950  0.00000000  1
  Ga  Ga0_1  1  0.16552050  0.33447950  0.50000000  1
  Ga  Ga0_2  1  0.16552050  0.83447950  0.00000000  1
  Ga  Ga0_3  1  0.16552050  0.83447950  0.50000000  1
  Ga  Ga0_4  1  0.66552050  0.33447950  0.00000000  1
  Ga  Ga0_5  1  0.66552050  0.33447950  0.50000000  1
  Ga  Ga0_6  1  0.66552050  0.83447950  0.00000000  1
  Ga  Ga0_7  1  0.66552050  0.83447950  0.50000000  1
  Ga  Ga1_0  1  0.22096250  0.27903750  0.25000000  1
  Ga  Ga1_1  1  0.22096250  0.27903750  0.75000000  1
  Ga  Ga1_2  1  0.22096250  0.77903750  0.25000000  1
  Ga  Ga1_3  1  0.22096250  0.77903750  0.75000000  1
  Ga  Ga1_4  1  0.72096250  0.27903750  0.25000000  1
  Ga  Ga1_5  1  0.72096250  0.27903750  0.75000000  1
  Ga  Ga1_6  1  0.72096250  0.77903750  0.25000000  1
  Ga  Ga1_7  1  0.72096250  0.77903750  0.75000000  1
  Ga  Ga2_0  1  0.39209450  0.10790550  0.25000000  1
  Ga  Ga2_1  1  0.39209450  0.10790550  0.75000000  1
  Ga  Ga2_2  1  0.39209450  0.60790550  0.25000000  1
  Ga  Ga2_3  1  0.39209450  0.60790550  0.75000000  1
  Ga  Ga2_4  1  0.89209450  0.10790550  0.25000000  1
  Ga  Ga2_5  1  0.89209450  0.10790550  0.75000000  1
  Ga  Ga2_6  1  0.89209450  0.60790550  0.25000000  1
  Ga  Ga2_7  1  0.89209450  0.60790550  0.75000000  1
loop_
_geom_bond_atom_site_label_1
_geom_bond_atom_site_label_2
_geom_bond_distance
_geom_bond_site_symmetry_2
Mg0_0 Mg2_6 3.109834 1_545
Mg0_0 Mg2_7 3.109834 1_544
Mg0_0 Mg0_6 3.184940 1_555
Mg0_0 Mg0_6 3.184940 1_445
Mg0_0 Mg1_2 3.232887 1_545
Mg0_0 Mg1_4 3.232887 1_555
Mg0_1 Mg2_7 3.109834 1_545
Mg0_1 Mg2_6 3.109834 1_545
Mg0_1 Mg0_7 3.184940 1_555
Mg0_1 Mg0_7 3.184940 1_445
Mg0_1 Mg1_3 3.232887 1_545
Mg0_1 Mg1_5 3.232887 1_555
Mg0_2 Mg2_5 3.109834 1_554
Mg0_2 Mg2_4 3.109834 1_555
Mg0_2 Mg0_4 3.184940 1_455
Mg0_2 Mg0_4 3.184940 1_565
Mg0_2 Mg1_0 3.232887 1_555
Mg0_2 Mg1_6 3.232887 1_555
Mg0_3 Mg2_4 3.109834 1_555
Mg0_3 Mg2_5 3.109834 1_555
Mg0_3 Mg0_5 3.184940 1_455
Mg0_3 Mg0_5 3.184940 1_565
Mg0_3 Mg1_1 3.232887 1_555
Mg0_3 Mg1_7 3.232887 1_555
Mg0_4 Mg2_2 3.109834 1_645
Mg0_4 Mg2_3 3.109834 1_644
Mg0_4 Mg1_6 3.232887 1_545
Mg0_4 Mg1_0 3.232887 1_655
Mg0_5 Mg2_3 3.109834 1_645
Mg0_5 Mg2_2 3.109834 1_645
Mg0_5 Mg1_7 3.232887 1_545
Mg0_5 Mg1_1 3.232887 1_655
Mg0_6 Mg2_1 3.109834 1_654
Mg0_6 Mg2_0 3.109834 1_655
Mg0_6 Mg1_4 3.232887 1_555
Mg0_6 Mg1_2 3.232887 1_655
Mg0_7 Mg2_1 3.109834 1_655
Mg0_7 Mg2_0 3.109834 1_655
Mg0_7 Mg1_5 3.232887 1_555
Mg0_7 Mg1_3 3.232887 1_655
Mg1_0 Mg2_5 3.131652 1_554
Mg1_0 Mg2_4 3.131652 1_555
Mg1_0 Mg2_2 3.131652 1_545
Mg1_0 Mg2_3 3.131652 1_544
Mg1_0 Mg1_6 3.184940 1_555
Mg1_0 Mg1_6 3.184940 1_445
Mg1_1 Mg2_4 3.131652 1_555
Mg1_1 Mg2_5 3.131652 1_555
Mg1_1 Mg2_3 3.131652 1_545
Mg1_1 Mg2_2 3.131652 1_545
Mg1_1 Mg1_7 3.184940 1_555
Mg1_1 Mg1_7 3.184940 1_445
Mg1_2 Mg2_6 3.131652 1_555
Mg1_2 Mg2_7 3.131652 1_554
Mg1_2 Mg2_1 3.131652 1_554
Mg1_2 Mg2_0 3.131652 1_555
Mg1_2 Mg1_4 3.184940 1_455
Mg1_2 Mg1_4 3.184940 1_565
Mg1_3 Mg2_6 3.131652 1_555
Mg1_3 Mg2_7 3.131652 1_555
Mg1_3 Mg2_0 3.131652 1_555
Mg1_3 Mg2_1 3.131652 1_555
Mg1_3 Mg1_5 3.184940 1_455
Mg1_3 Mg1_5 3.184940 1_565
Mg1_4 Mg2_0 3.131652 1_655
Mg1_4 Mg2_1 3.131652 1_654
Mg1_4 Mg2_6 3.131652 1_545
Mg1_4 Mg2_7 3.131652 1_544
Mg1_5 Mg2_0 3.131652 1_655
Mg1_5 Mg2_1 3.131652 1_655
Mg1_5 Mg2_6 3.131652 1_545
Mg1_5 Mg2_7 3.131652 1_545
Mg1_6 Mg2_2 3.131652 1_655
Mg1_6 Mg2_3 3.131652 1_654
Mg1_6 Mg2_4 3.131652 1_555
Mg1_6 Mg2_5 3.131652 1_554
Mg1_7 Mg2_2 3.131652 1_655
Mg1_7 Mg2_3 3.131652 1_655
Mg1_7 Mg2_5 3.131652 1_555
Mg1_7 Mg2_4 3.131652 1_555
Mg2_0 Mg2_6 3.184940 1_445
Mg2_0 Mg2_6 3.184940 1_555
Mg2_1 Mg2_7 3.184940 1_445
Mg2_1 Mg2_7 3.184940 1_555
Mg2_2 Mg2_4 3.184940 1_565
Mg2_2 Mg2_4 3.184940 1_455
Mg2_3 Mg2_5 3.184940 1_565
Mg2_3 Mg2_5 3.184940 1_455
Ga0_0 Mg1_2 2.837563 1_555
Ga0_0 Mg1_4 2.837563 1_455
Ga0_0 Mg0_4 2.878125 1_455
Ga0_0 Mg0_2 2.878125 1_555
Ga0_0 Ga1_0 3.020077 1_555
Ga0_0 Ga1_1 3.020077 1_554
Ga0_0 Ga2_3 3.057469 1_554
Ga0_0 Ga2_2 3.057469 1_555
Ga0_0 Ga2_5 3.057469 1_454
Ga0_0 Ga2_4 3.057469 1_455
Ga0_1 Mg1_3 2.837563 1_555
Ga0_1 Mg1_5 2.837563 1_455
Ga0_1 Mg0_3 2.878125 1_555
Ga0_1 Mg0_5 2.878125 1_455
Ga0_1 Ga1_0 3.020077 1_555
Ga0_1 Ga1_1 3.020077 1_555
Ga0_1 Ga2_3 3.057469 1_555
Ga0_1 Ga2_2 3.057469 1_555
Ga0_1 Ga2_4 3.057469 1_455
Ga0_1 Ga2_5 3.057469 1_455
Ga0_2 Mg1_0 2.837563 1_565
Ga0_2 Mg1_6 2.837563 1_455
Ga0_2 Mg0_0 2.878125 1_565
Ga0_2 Mg0_6 2.878125 1_455
Ga0_2 Ga1_3 3.020077 1_554
Ga0_2 Ga1_2 3.020077 1_555
Ga0_2 Ga2_1 3.057469 1_564
Ga0_2 Ga2_0 3.057469 1_565
Ga0_2 Ga2_7 3.057469 1_454
Ga0_2 Ga2_6 3.057469 1_455
Ga0_3 Mg1_1 2.837563 1_565
Ga0_3 Mg1_7 2.837563 1_455
Ga0_3 Mg0_1 2.878125 1_565
Ga0_3 Mg0_7 2.878125 1_455
Ga0_3 Ga1_3 3.020077 1_555
Ga0_3 Ga1_2 3.020077 1_555
Ga0_3 Ga2_1 3.057469 1_565
Ga0_3 Ga2_0 3.057469 1_565
Ga0_3 Ga2_7 3.057469 1_455
Ga0_3 Ga2_6 3.057469 1_455
Ga0_4 Mg1_0 2.837563 1_555
Ga0_4 Mg1_6 2.837563 1_555
Ga0_4 Mg0_6 2.878125 1_555
Ga0_4 Mg0_0 2.878125 1_555
Ga0_4 Ga1_5 3.020077 1_554
Ga0_4 Ga1_4 3.020077 1_555
Ga0_4 Ga2_7 3.057469 1_554
Ga0_4 Ga2_6 3.057469 1_555
Ga0_4 Ga2_0 3.057469 1_555
Ga0_4 Ga2_1 3.057469 1_554
Ga0_5 Mg1_1 2.837563 1_555
Ga0_5 Mg1_7 2.837563 1_555
Ga0_5 Mg0_7 2.878125 1_555
Ga0_5 Mg0_1 2.878125 1_555
Ga0_5 Ga1_4 3.020077 1_555
Ga0_5 Ga1_5 3.020077 1_555
Ga0_5 Ga2_7 3.057469 1_555
Ga0_5 Ga2_6 3.057469 1_555
Ga0_5 Ga2_1 3.057469 1_555
Ga0_5 Ga2_0 3.057469 1_555
Ga0_6 Mg1_2 2.837563 1_555
Ga0_6 Mg1_4 2.837563 1_565
Ga0_6 Mg0_4 2.878125 1_565
Ga0_6 Mg0_2 2.878125 1_555
Ga0_6 Ga1_7 3.020077 1_554
Ga0_6 Ga1_6 3.020077 1_555
Ga0_6 Ga2_5 3.057469 1_564
Ga0_6 Ga2_4 3.057469 1_565
Ga0_6 Ga2_3 3.057469 1_554
Ga0_6 Ga2_2 3.057469 1_555
Ga0_7 Mg1_3 2.837563 1_555
Ga0_7 Mg1_5 2.837563 1_565
Ga0_7 Mg0_5 2.878125 1_565
Ga0_7 Mg0_3 2.878125 1_555
Ga0_7 Ga1_7 3.020077 1_555
Ga0_7 Ga1_6 3.020077 1_555
Ga0_7 Ga2_4 3.057469 1_565
Ga0_7 Ga2_5 3.057469 1_565
Ga0_7 Ga2_2 3.057469 1_555
Ga0_7 Ga2_3 3.057469 1_555
Ga1_0 Ga2_2 2.867618 1_555
Ga1_0 Ga2_4 2.867618 1_455
Ga1_0 Mg2_4 3.009960 1_555
Ga1_0 Mg2_2 3.009960 1_545
Ga1_0 Mg0_2 3.060418 1_555
Ga1_0 Mg0_5 3.060418 1_455
Ga1_0 Mg0_4 3.060418 1_455
Ga1_0 Mg0_3 3.060418 1_555
Ga1_1 Ga2_3 2.867618 1_555
Ga1_1 Ga2_5 2.867618 1_455
Ga1_1 Mg2_5 3.009960 1_555
Ga1_1 Mg2_3 3.009960 1_545
Ga1_1 Mg0_4 3.060418 1_456
Ga1_1 Mg0_3 3.060418 1_555
Ga1_1 Mg0_2 3.060418 1_556
Ga1_1 Mg0_5 3.060418 1_455
Ga1_2 Ga2_6 2.867618 1_455
Ga1_2 Ga2_0 2.867618 1_565
Ga1_2 Mg2_0 3.009960 1_555
Ga1_2 Mg2_6 3.009960 1_555
Ga1_2 Mg0_7 3.060418 1_455
Ga1_2 Mg0_6 3.060418 1_455
Ga1_2 Mg0_1 3.060418 1_565
Ga1_2 Mg0_0 3.060418 1_565
Ga1_3 Ga2_1 2.867618 1_565
Ga1_3 Ga2_7 2.867618 1_455
Ga1_3 Mg2_1 3.009960 1_555
Ga1_3 Mg2_7 3.009960 1_555
Ga1_3 Mg0_7 3.060418 1_455
Ga1_3 Mg0_6 3.060418 1_456
Ga1_3 Mg0_1 3.060418 1_565
Ga1_3 Mg0_0 3.060418 1_566
Ga1_4 Ga2_0 2.867618 1_555
Ga1_4 Ga2_6 2.867618 1_555
Ga1_4 Mg2_6 3.009960 1_545
Ga1_4 Mg2_0 3.009960 1_655
Ga1_4 Mg0_1 3.060418 1_555
Ga1_4 Mg0_0 3.060418 1_555
Ga1_4 Mg0_6 3.060418 1_555
Ga1_4 Mg0_7 3.060418 1_555
Ga1_5 Ga2_1 2.867618 1_555
Ga1_5 Ga2_7 2.867618 1_555
Ga1_5 Mg2_7 3.009960 1_545
Ga1_5 Mg2_1 3.009960 1_655
Ga1_5 Mg0_1 3.060418 1_555
Ga1_5 Mg0_0 3.060418 1_556
Ga1_5 Mg0_6 3.060418 1_556
Ga1_5 Mg0_7 3.060418 1_555
Ga1_6 Ga2_2 2.867618 1_555
Ga1_6 Ga2_4 2.867618 1_565
Ga1_6 Mg2_4 3.009960 1_555
Ga1_6 Mg2_2 3.009960 1_655
Ga1_6 Mg0_5 3.060418 1_565
Ga1_6 Mg0_4 3.060418 1_565
Ga1_6 Mg0_3 3.060418 1_555
Ga1_6 Mg0_2 3.060418 1_555
Ga1_7 Ga2_3 2.867618 1_555
Ga1_7 Ga2_5 2.867618 1_565
Ga1_7 Mg2_5 3.009960 1_555
Ga1_7 Mg2_3 3.009960 1_655
Ga1_7 Mg0_5 3.060418 1_565
Ga1_7 Mg0_4 3.060418 1_566
Ga1_7 Mg0_2 3.060418 1_556
Ga1_7 Mg0_3 3.060418 1_555
Ga2_0 Mg1_0 3.000120 1_555
Ga2_0 Mg1_1 3.000120 1_555
Ga2_0 Mg2_2 3.066406 1_545
Ga2_0 Mg2_4 3.066406 1_555
Ga2_1 Mg1_0 3.000120 1_556
Ga2_1 Mg1_1 3.000120 1_555
Ga2_1 Mg2_3 3.066406 1_545
Ga2_1 Mg2_5 3.066406 1_555
Ga2_2 Mg1_3 3.000120 1_555
Ga2_2 Mg1_2 3.000120 1_555
Ga2_2 Mg2_6 3.066406 1_555
Ga2_2 Mg2_0 3.066406 1_555
Ga2_3 Mg1_3 3.000120 1_555
Ga2_3 Mg1_2 3.000120 1_556
Ga2_3 Mg2_7 3.066406 1_555
Ga2_3 Mg2_1 3.066406 1_555
Ga2_4 Mg1_4 3.000120 1_555
Ga2_4 Mg1_5 3.000120 1_555
Ga2_4 Mg2_6 3.066406 1_545
Ga2_4 Mg2_0 3.066406 1_655
Ga2_5 Mg1_4 3.000120 1_556
Ga2_5 Mg1_5 3.000120 1_555
Ga2_5 Mg2_7 3.066406 1_545
Ga2_5 Mg2_1 3.066406 1_655
Ga2_6 Mg1_7 3.000120 1_555
Ga2_6 Mg1_6 3.000120 1_555
Ga2_6 Mg2_2 3.066406 1_655
Ga2_6 Mg2_4 3.066406 1_555
Ga2_7 Mg1_7 3.000120 1_555
Ga2_7 Mg1_6 3.000120 1_556
Ga2_7 Mg2_3 3.066406 1_655
Ga2_7 Mg2_5 3.066406 1_555
