# generated using pymatgen
data_KAl(SiO3)2
_symmetry_space_group_name_H-M   'P 1'
_cell_length_a   7.51776701
_cell_length_b   7.51776701
_cell_length_c   10.28342500
_cell_angle_alpha   90.00000000
_cell_angle_beta   90.00000000
_cell_angle_gamma   91.94666945
_symmetry_Int_Tables_number   1
_chemical_formula_structural   KAl(SiO3)2
_chemical_formula_sum   'K4 Al4 Si8 O24'
_cell_volume   580.85107241
_cell_formula_units_Z   4
loop_
 _symmetry_equiv_pos_site_id
 _symmetry_equiv_pos_as_xyz
  1  'x, y, z'
loop_
 _atom_site_type_symbol
 _atom_site_label
 _atom_site_symmetry_multiplicity
 _atom_site_fract_x
 _atom_site_fract_y
 _atom_site_fract_z
 _atom_site_occupancy
  K  K0  1  0.29647900  0.70352100  0.25000000  1
  K  K1  1  0.70352100  0.29647900  0.75000000  1
  K  K2  1  0.20369600  0.20369600  0.50000000  1
  K  K3  1  0.79630400  0.79630400  0.00000000  1
  Al  Al0  1  0.85710400  0.35803600  0.06451600  1
  Al  Al1  1  0.14289600  0.64196400  0.56451600  1
  Al  Al2  1  0.64196400  0.14289600  0.43548400  1
  Al  Al3  1  0.35803600  0.85710400  0.93548400  1
  Si  Si0  1  0.86291000  0.64140200  0.31451700  1
  Si  Si1  1  0.13709000  0.35859800  0.81451700  1
  Si  Si2  1  0.64140200  0.86291000  0.68548300  1
  Si  Si3  1  0.35859800  0.13709000  0.18548300  1
  Si  Si4  1  0.94443200  0.05556800  0.25000000  1
  Si  Si5  1  0.05556800  0.94443200  0.75000000  1
  Si  Si6  1  0.55773400  0.55773400  0.50000000  1
  Si  Si7  1  0.44226600  0.44226600  0.00000000  1
  O  O0  1  0.86426200  0.13518700  0.11657100  1
  O  O1  1  0.13573800  0.86481300  0.61657100  1
  O  O2  1  0.65391200  0.64032700  0.36639200  1
  O  O3  1  0.34608800  0.35967300  0.86639200  1
  O  O4  1  0.86481300  0.13573800  0.38342900  1
  O  O5  1  0.13518700  0.86426200  0.88342900  1
  O  O6  1  0.64032700  0.65391200  0.63360800  1
  O  O7  1  0.35967300  0.34608800  0.13360800  1
  O  O8  1  0.00473600  0.39373700  0.93408300  1
  O  O9  1  0.99526400  0.60626200  0.43408300  1
  O  O10  1  0.89085800  0.50746000  0.19319000  1
  O  O11  1  0.10914200  0.49254000  0.69319000  1
  O  O12  1  0.60626200  0.99526400  0.56591700  1
  O  O13  1  0.39373800  0.00473600  0.06591700  1
  O  O14  1  0.50746000  0.89085800  0.80681000  1
  O  O15  1  0.49254000  0.10914200  0.30681000  1
  O  O16  1  0.65278300  0.40670000  0.98905900  1
  O  O17  1  0.34721700  0.59330000  0.48905900  1
  O  O18  1  0.90898000  0.83789300  0.24674300  1
  O  O19  1  0.09102000  0.16210700  0.74674300  1
  O  O20  1  0.59330000  0.34721700  0.51094100  1
  O  O21  1  0.40670000  0.65278300  0.01094100  1
  O  O22  1  0.83789300  0.90898000  0.75325700  1
  O  O23  1  0.16210700  0.09102000  0.25325700  1
loop_
_geom_bond_atom_site_label_1
_geom_bond_atom_site_label_2
_geom_bond_distance
_geom_bond_site_symmetry_2
K0 O17 2.626220 1_555
K0 O21 2.626220 1_555
K0 O7 2.994247 1_555
K0 O2 2.994247 1_555
K0 O9 3.022149 1_455
K0 O13 3.022149 1_565
K0 O18 3.115737 1_455
K0 O23 3.115737 1_565
K1 O20 2.626220 1_555
K1 O16 2.626220 1_555
K1 O3 2.994247 1_555
K1 O6 2.994247 1_555
K1 O8 3.022147 1_655
K1 O12 3.022149 1_545
K1 O22 3.115737 1_545
K1 O19 3.115737 1_655
K2 O23 2.689889 1_555
K2 O19 2.689889 1_555
K2 O1 2.846062 1_545
K2 O4 2.846062 1_455
K2 O11 3.045028 1_555
K2 O15 3.045028 1_555
K2 O17 3.088830 1_555
K2 O20 3.088830 1_555
K3 O18 2.689889 1_555
K3 O22 2.689889 1_554
K3 O0 2.846062 1_565
K3 O5 2.846062 1_654
K3 O14 3.045028 1_554
K3 O10 3.045028 1_555
K3 O16 3.088830 1_554
K3 O21 3.088830 1_555
Al0 O10 1.748654 1_555
Al0 O8 1.755754 1_654
Al0 O0 1.761332 1_555
Al0 O16 1.770181 1_554
Al1 O11 1.748654 1_555
Al1 O9 1.755755 1_455
Al1 O1 1.761332 1_555
Al1 O17 1.770181 1_555
Al2 O15 1.748654 1_555
Al2 O12 1.755755 1_545
Al2 O4 1.761332 1_555
Al2 O20 1.770181 1_555
Al3 O14 1.748654 1_555
Al3 O13 1.755755 1_566
Al3 O5 1.761332 1_555
Al3 O21 1.770181 1_556
O0 Si4 1.621328 1_555
O1 Si5 1.621328 1_555
O2 Si0 1.659047 1_555
O2 Si6 1.662997 1_555
O3 Si1 1.659047 1_555
O3 Si7 1.662997 1_556
O4 Si4 1.621328 1_555
O5 Si5 1.621328 1_555
O6 Si2 1.659047 1_555
O6 Si6 1.662997 1_555
O7 Si3 1.659047 1_555
O7 Si7 1.662997 1_555
O8 Si1 1.609182 1_555
O9 Si0 1.609184 1_555
O10 Si0 1.621451 1_555
O11 Si1 1.621451 1_555
O12 Si2 1.609184 1_555
O13 Si3 1.609184 1_555
O14 Si2 1.621451 1_555
O15 Si3 1.621451 1_555
O16 Si7 1.617893 1_556
O17 Si6 1.617893 1_555
O18 Si4 1.649372 1_565
O18 Si0 1.659209 1_555
O19 Si5 1.649372 1_545
O19 Si1 1.659209 1_555
O20 Si6 1.617893 1_555
O21 Si7 1.617893 1_555
O22 Si5 1.649372 1_655
O22 Si2 1.659209 1_555
O23 Si4 1.649372 1_455
O23 Si3 1.659209 1_555
