# generated using pymatgen
data_CoBi6(SO8)2
_symmetry_space_group_name_H-M   'P 1'
_cell_length_a   5.66492239
_cell_length_b   11.74040291
_cell_length_c   22.78899840
_cell_angle_alpha   84.84409772
_cell_angle_beta   90.04502114
_cell_angle_gamma   90.00284846
_symmetry_Int_Tables_number   1
_chemical_formula_structural   CoBi6(SO8)2
_chemical_formula_sum   'Co4 Bi24 S8 O64'
_cell_volume   1509.52839874
_cell_formula_units_Z   4
loop_
 _symmetry_equiv_pos_site_id
 _symmetry_equiv_pos_as_xyz
  1  'x, y, z'
loop_
 _atom_site_type_symbol
 _atom_site_label
 _atom_site_symmetry_multiplicity
 _atom_site_fract_x
 _atom_site_fract_y
 _atom_site_fract_z
 _atom_site_occupancy
  Co  Co0  1  0.10816300  0.00010800  0.50008800  1
  Co  Co1  1  0.60445100  0.50004900  0.74998400  1
  Co  Co2  1  0.10686900  0.99976500  0.99989500  1
  Co  Co3  1  0.65186200  0.50075400  0.24993500  1
  Bi  Bi0  1  0.12367900  0.65395700  0.49717300  1
  Bi  Bi1  1  0.62500400  0.15395500  0.74693100  1
  Bi  Bi2  1  0.12353700  0.65382300  0.99630100  1
  Bi  Bi3  1  0.62342400  0.15440400  0.24713200  1
  Bi  Bi4  1  0.12325000  0.34636900  0.50372900  1
  Bi  Bi5  1  0.62521500  0.84606200  0.75327200  1
  Bi  Bi6  1  0.12444400  0.34608300  0.00283500  1
  Bi  Bi7  1  0.62384300  0.84593600  0.25281700  1
  Bi  Bi8  1  0.62719000  0.52101300  0.58536900  1
  Bi  Bi9  1  0.12841700  0.02142500  0.83553500  1
  Bi  Bi10  1  0.62584300  0.52173900  0.08569700  1
  Bi  Bi11  1  0.12708200  0.02057200  0.33557800  1
  Bi  Bi12  1  0.62527900  0.47803900  0.41398100  1
  Bi  Bi13  1  0.12806000  0.97840000  0.66452500  1
  Bi  Bi14  1  0.62743700  0.47890500  0.91447800  1
  Bi  Bi15  1  0.12628700  0.97950300  0.16456900  1
  Bi  Bi16  1  0.04866800  0.33804300  0.33574800  1
  Bi  Bi17  1  0.54721300  0.83906000  0.58462600  1
  Bi  Bi18  1  0.04694000  0.33969600  0.83427400  1
  Bi  Bi19  1  0.54652800  0.83965400  0.08443700  1
  Bi  Bi20  1  0.04664400  0.66023600  0.66576600  1
  Bi  Bi21  1  0.54763700  0.16072700  0.91554000  1
  Bi  Bi22  1  0.05019100  0.66208300  0.16410300  1
  Bi  Bi23  1  0.54687500  0.16073600  0.41545700  1
  S  S0  1  0.67536800  0.84907600  0.43316000  1
  S  S1  1  0.17660800  0.34809300  0.68288400  1
  S  S2  1  0.67639100  0.84892700  0.93303100  1
  S  S3  1  0.18050100  0.35420700  0.18535100  1
  S  S4  1  0.67675500  0.15085300  0.56672400  1
  S  S5  1  0.17668600  0.65187600  0.81721000  1
  S  S6  1  0.67667600  0.15143600  0.06679300  1
  S  S7  1  0.17798800  0.64554800  0.31482700  1
  O  O0  1  0.87876000  0.50034800  0.50020300  1
  O  O1  1  0.37982400  0.00006200  0.75008800  1
  O  O2  1  0.87915900  0.49977600  0.99979600  1
  O  O3  1  0.37884100  0.00001800  0.24994600  1
  O  O4  1  0.35939000  0.50012300  0.50016800  1
  O  O5  1  0.86090500  0.00005300  0.75003800  1
  O  O6  1  0.36005100  0.50009900  0.99992100  1
  O  O7  1  0.85904200  0.00000100  0.24982000  1
  O  O8  1  0.90039600  0.87835200  0.46423100  1
  O  O9  1  0.40208100  0.37651000  0.71412100  1
  O  O10  1  0.90287600  0.87701400  0.96386200  1
  O  O11  1  0.40363100  0.38200000  0.21683400  1
  O  O12  1  0.90320300  0.12270400  0.53602400  1
  O  O13  1  0.40208100  0.62335700  0.78607200  1
  O  O14  1  0.90118600  0.12291500  0.03529800  1
  O  O15  1  0.40224700  0.61762700  0.28393800  1
  O  O16  1  0.47121400  0.86518300  0.47383500  1
  O  O17  1  0.97266700  0.36483500  0.72349100  1
  O  O18  1  0.47348700  0.86629800  0.97387500  1
  O  O19  1  0.97181200  0.37387000  0.22491900  1
  O  O20  1  0.47365900  0.13296700  0.52592800  1
  O  O21  1  0.97266100  0.63514300  0.77659100  1
  O  O22  1  0.47165000  0.13501500  0.02637500  1
  O  O23  1  0.97066600  0.62549900  0.27472500  1
  O  O24  1  0.69036600  0.72905400  0.41968800  1
  O  O25  1  0.19011100  0.22806100  0.66936200  1
  O  O26  1  0.68827700  0.72872300  0.91968100  1
  O  O27  1  0.18734400  0.23298700  0.17326400  1
  O  O28  1  0.68824200  0.27124300  0.57976200  1
  O  O29  1  0.19023700  0.77189600  0.83076000  1
  O  O30  1  0.69106200  0.27140800  0.08040000  1
  O  O31  1  0.18358700  0.76685800  0.32666700  1
  O  O32  1  0.14964500  0.42936300  0.62868400  1
  O  O33  1  0.64881100  0.92995700  0.87875600  1
  O  O34  1  0.15509600  0.43333600  0.13015600  1
  O  O35  1  0.64670100  0.93010900  0.37887900  1
  O  O36  1  0.15117600  0.56666300  0.37002200  1
  O  O37  1  0.64941600  0.07022700  0.62114300  1
  O  O38  1  0.14976800  0.57061300  0.87144800  1
  O  O39  1  0.65026400  0.07006200  0.12097600  1
  O  O40  1  0.69986100  0.58509500  0.67740100  1
  O  O41  1  0.20085700  0.08546900  0.92724600  1
  O  O42  1  0.69853400  0.58846000  0.17612400  1
  O  O43  1  0.19988300  0.08528400  0.42704600  1
  O  O44  1  0.69625900  0.41085600  0.32390500  1
  O  O45  1  0.19999400  0.91407900  0.57290800  1
  O  O46  1  0.70005200  0.41491100  0.82262500  1
  O  O47  1  0.19900300  0.91453600  0.07285300  1
  O  O48  1  0.88915900  0.66568300  0.57455200  1
  O  O49  1  0.39003500  0.16598800  0.82429400  1
  O  O50  1  0.88780400  0.66633200  0.07350900  1
  O  O51  1  0.38822800  0.16518000  0.32431100  1
  O  O52  1  0.88723600  0.33363800  0.42653900  1
  O  O53  1  0.39005600  0.83406600  0.67589300  1
  O  O54  1  0.88963300  0.33437100  0.92547500  1
  O  O55  1  0.38856000  0.83488800  0.17557800  1
  O  O56  1  0.38415800  0.67131300  0.57386700  1
  O  O57  1  0.88474700  0.17174200  0.82371900  1
  O  O58  1  0.38243500  0.67188600  0.07344500  1
  O  O59  1  0.88444900  0.17052200  0.32371200  1
  O  O60  1  0.38162300  0.32819700  0.42655900  1
  O  O61  1  0.88463400  0.82820800  0.67648800  1
  O  O62  1  0.38452300  0.32860400  0.92620900  1
  O  O63  1  0.88453900  0.82925200  0.17624000  1
loop_
_geom_bond_atom_site_label_1
_geom_bond_atom_site_label_2
_geom_bond_distance
_geom_bond_site_symmetry_2
Co0 O45 1.934456 1_545
Co0 O43 1.934643 1_555
Co0 O12 2.074599 1_455
Co0 O8 2.074765 1_445
Co1 O40 1.931222 1_555
Co1 O46 1.932371 1_555
Co1 O9 2.072987 1_555
Co1 O13 2.074136 1_555
Co2 O47 1.933314 1_556
Co2 O41 1.933611 1_565
Co2 O10 2.073080 1_455
Co2 O14 2.076124 1_466
Co3 O42 1.910223 1_555
Co3 O44 1.923119 1_555
Co3 O15 2.162353 1_555
Co3 O11 2.162745 1_555
Co3 O23 2.423336 1_555
Co3 O19 2.446175 1_555
Bi0 O48 2.222800 1_455
Bi0 O4 2.242205 1_555
Bi0 O0 2.271489 1_455
Bi0 O56 2.309449 1_555
Bi1 O49 2.224515 1_555
Bi1 O5 2.243380 1_555
Bi1 O1 2.274915 1_555
Bi1 O57 2.309226 1_555
Bi2 O50 2.225052 1_456
Bi2 O6 2.243324 1_555
Bi2 O2 2.273287 1_455
Bi2 O58 2.312922 1_556
Bi3 O51 2.219998 1_555
Bi3 O7 2.247567 1_555
Bi3 O3 2.277761 1_555
Bi3 O59 2.307218 1_555
Bi4 O52 2.224371 1_455
Bi4 O4 2.242360 1_555
Bi4 O0 2.273048 1_455
Bi4 O60 2.313462 1_555
Bi5 O53 2.223724 1_555
Bi5 O5 2.243352 1_565
Bi5 O1 2.276655 1_565
Bi5 O61 2.309877 1_555
Bi6 O54 2.221753 1_454
Bi6 O6 2.243605 1_554
Bi6 O2 2.273571 1_454
Bi6 O62 2.308810 1_554
Bi7 O55 2.220129 1_555
Bi7 O7 2.242614 1_565
Bi7 O3 2.276369 1_565
Bi7 O63 2.308746 1_555
Bi8 O56 2.234829 1_555
Bi8 O48 2.252342 1_555
Bi8 O40 2.327329 1_555
Bi8 O0 2.438390 1_555
Bi8 O4 2.492499 1_555
Bi9 O57 2.237552 1_455
Bi9 O49 2.250526 1_555
Bi9 O41 2.320115 1_555
Bi9 O1 2.444426 1_555
Bi9 O5 2.497783 1_455
Bi10 O58 2.235594 1_555
Bi10 O50 2.253175 1_555
Bi10 O42 2.306208 1_555
Bi10 O2 2.460310 1_554
Bi10 O6 2.497457 1_554
Bi11 O59 2.230634 1_455
Bi11 O51 2.249187 1_555
Bi11 O43 2.318521 1_555
Bi11 O3 2.447353 1_555
Bi11 O7 2.502702 1_455
Bi12 O60 2.234261 1_555
Bi12 O52 2.251792 1_555
Bi12 O44 2.299978 1_555
Bi12 O0 2.465657 1_555
Bi12 O4 2.507977 1_555
Bi13 O61 2.235881 1_455
Bi13 O53 2.249919 1_555
Bi13 O45 2.319529 1_555
Bi13 O1 2.446550 1_565
Bi13 O5 2.499281 1_465
Bi14 O62 2.234823 1_555
Bi14 O54 2.252030 1_555
Bi14 O46 2.323657 1_555
Bi14 O2 2.440299 1_555
Bi14 O6 2.497895 1_555
Bi15 O63 2.230236 1_455
Bi15 O55 2.253037 1_555
Bi15 O47 2.325501 1_555
Bi15 O3 2.443421 1_565
Bi15 O7 2.492585 1_465
Bi16 O44 2.178753 1_455
Bi16 O59 2.214770 1_455
Bi16 O52 2.259122 1_455
Bi16 O19 2.559864 1_455
Bi16 O60 2.793683 1_555
Bi17 O45 2.161730 1_555
Bi17 O56 2.208661 1_555
Bi17 O53 2.258969 1_555
Bi17 O16 2.552105 1_555
Bi18 O46 2.160803 1_455
Bi18 O57 2.207935 1_455
Bi18 O54 2.257706 1_455
Bi18 O17 2.549968 1_455
Bi19 O47 2.162410 1_555
Bi19 O58 2.212366 1_555
Bi19 O55 2.258305 1_555
Bi19 O18 2.544434 1_554
Bi20 O40 2.160189 1_455
Bi20 O61 2.208657 1_455
Bi20 O48 2.257010 1_455
Bi20 O21 2.551269 1_455
Bi21 O41 2.160860 1_555
Bi21 O62 2.210028 1_555
Bi21 O49 2.258061 1_555
Bi21 O22 2.553593 1_556
Bi22 O42 2.179174 1_455
Bi22 O63 2.215217 1_455
Bi22 O50 2.256011 1_455
Bi22 O23 2.559267 1_455
Bi22 O58 2.790594 1_555
Bi23 O43 2.162628 1_555
Bi23 O60 2.212627 1_555
Bi23 O51 2.258865 1_555
Bi23 O20 2.543689 1_555
O8 S0 1.512223 1_555
O9 S1 1.513515 1_555
O10 S2 1.512851 1_555
O11 S3 1.503187 1_555
O12 S4 1.512382 1_555
O13 S5 1.513324 1_555
O14 S6 1.513110 1_555
O15 S7 1.503274 1_555
O16 S0 1.505232 1_555
O17 S1 1.504700 1_655
O18 S2 1.504990 1_555
O19 S3 1.517601 1_655
O20 S4 1.505166 1_555
O21 S5 1.504085 1_655
O22 S6 1.504912 1_555
O23 S7 1.518849 1_655
O24 S0 1.471348 1_555
O25 S1 1.471333 1_555
O26 S2 1.471703 1_555
O27 S3 1.474202 1_555
O28 S4 1.471643 1_555
O29 S5 1.471365 1_555
O30 S6 1.471453 1_555
O31 S7 1.473529 1_555
O32 S1 1.499082 1_555
O33 S2 1.499170 1_555
O34 S3 1.501875 1_555
O35 S0 1.499945 1_555
O36 S7 1.501292 1_555
O37 S4 1.499094 1_555
O38 S5 1.499862 1_555
O39 S6 1.499344 1_555
