# generated using pymatgen
data_K2AlInF6
_symmetry_space_group_name_H-M   'P 1'
_cell_length_a   6.27783401
_cell_length_b   6.27783401
_cell_length_c   6.27783401
_cell_angle_alpha   60.00000000
_cell_angle_beta   60.00000000
_cell_angle_gamma   60.00000000
_symmetry_Int_Tables_number   1
_chemical_formula_structural   K2AlInF6
_chemical_formula_sum   'K2 Al1 In1 F6'
_cell_volume   174.95021790
_cell_formula_units_Z   1
loop_
 _symmetry_equiv_pos_site_id
 _symmetry_equiv_pos_as_xyz
  1  'x, y, z'
loop_
 _atom_site_type_symbol
 _atom_site_label
 _atom_site_symmetry_multiplicity
 _atom_site_fract_x
 _atom_site_fract_y
 _atom_site_fract_z
 _atom_site_occupancy
  K  K0  1  0.75000000  0.75000000  0.75000000  1
  K  K1  1  0.25000000  0.25000000  0.25000000  1
  Al  Al0  1  0.00000000  0.00000000  0.00000000  1
  In  In0  1  0.50000000  0.50000000  0.50000000  1
  F  F0  1  0.79294000  0.20706000  0.20706000  1
  F  F1  1  0.20706000  0.20706000  0.79294000  1
  F  F2  1  0.20706000  0.79294000  0.79294000  1
  F  F3  1  0.20706000  0.79294000  0.20706000  1
  F  F4  1  0.79294000  0.20706000  0.79294000  1
  F  F5  1  0.79294000  0.79294000  0.20706000  1
loop_
_geom_bond_atom_site_label_1
_geom_bond_atom_site_label_2
_geom_bond_distance
_geom_bond_site_symmetry_2
Al0 F2 1.838320 1_544
Al0 F5 1.838320 1_445
Al0 F4 1.838320 1_454
Al0 F1 1.838320 1_554
Al0 F3 1.838320 1_545
Al0 F0 1.838320 1_455
F0 In0 2.600779 1_555
F0 K1 3.161983 1_655
F0 K0 3.161983 1_545
F0 K0 3.161983 1_554
F0 K1 3.161983 1_555
F1 In0 2.600779 1_555
F1 K1 3.161983 1_556
F1 K0 3.161983 1_545
F1 K0 3.161983 1_455
F1 K1 3.161983 1_555
F2 In0 2.600779 1_555
F2 K0 3.161983 1_555
F2 K1 3.161983 1_556
F2 K1 3.161983 1_565
F2 K0 3.161983 1_455
F3 In0 2.600779 1_555
F3 K1 3.161983 1_565
F3 K0 3.161983 1_554
F3 K0 3.161983 1_455
F3 K1 3.161983 1_555
F4 In0 2.600779 1_555
F4 K0 3.161983 1_555
F4 K1 3.161983 1_655
F4 K1 3.161983 1_556
F4 K0 3.161983 1_545
F5 In0 2.600779 1_555
F5 K0 3.161983 1_555
F5 K1 3.161983 1_655
F5 K1 3.161983 1_565
F5 K0 3.161983 1_554
