# generated using pymatgen
data_MgV2CoO7
_symmetry_space_group_name_H-M   'P 1'
_cell_length_a   14.17250700
_cell_length_b   6.59104800
_cell_length_c   11.83939754
_cell_angle_alpha   78.99053204
_cell_angle_beta   90.00000000
_cell_angle_gamma   90.00000000
_symmetry_Int_Tables_number   1
_chemical_formula_structural   MgV2CoO7
_chemical_formula_sum   'Mg8 V16 Co8 O56'
_cell_volume   1085.58386184
_cell_formula_units_Z   8
loop_
 _symmetry_equiv_pos_site_id
 _symmetry_equiv_pos_as_xyz
  1  'x, y, z'
loop_
 _atom_site_type_symbol
 _atom_site_label
 _atom_site_symmetry_multiplicity
 _atom_site_fract_x
 _atom_site_fract_y
 _atom_site_fract_z
 _atom_site_occupancy
  Mg  Mg0  1  0.50628600  0.96490100  0.73545600  1
  Mg  Mg1  1  0.87051600  0.69687200  0.92625000  1
  Mg  Mg2  1  0.37051600  0.30312800  0.57375000  1
  Mg  Mg3  1  0.12948400  0.30312800  0.07375000  1
  Mg  Mg4  1  0.62948400  0.69687200  0.42625000  1
  Mg  Mg5  1  0.99371400  0.96490100  0.23545600  1
  Mg  Mg6  1  0.49371400  0.03509900  0.26454400  1
  Mg  Mg7  1  0.00628600  0.03509900  0.76454400  1
  V  V0  1  0.89803400  0.17789600  0.98444600  1
  V  V1  1  0.01373100  0.56450400  0.68440400  1
  V  V2  1  0.48626900  0.56450400  0.18440400  1
  V  V3  1  0.98626900  0.43549600  0.31559600  1
  V  V4  1  0.70991700  0.50013900  0.78794200  1
  V  V5  1  0.20991700  0.49986100  0.71205800  1
  V  V6  1  0.29008300  0.49986100  0.21205800  1
  V  V7  1  0.79008300  0.50013900  0.28794200  1
  V  V8  1  0.51373100  0.43549600  0.81559600  1
  V  V9  1  0.13992900  0.12994100  0.49610400  1
  V  V10  1  0.63992900  0.87005900  0.00389600  1
  V  V11  1  0.86007100  0.87005900  0.50389600  1
  V  V12  1  0.39803400  0.82210400  0.51555400  1
  V  V13  1  0.60196600  0.17789600  0.48444600  1
  V  V14  1  0.10196600  0.82210400  0.01555400  1
  V  V15  1  0.36007100  0.12994100  0.99610400  1
  Co  Co0  1  0.69128900  0.36807800  0.05927000  1
  Co  Co1  1  0.19128900  0.63192200  0.44073000  1
  Co  Co2  1  0.30871100  0.63192200  0.94073000  1
  Co  Co3  1  0.80871100  0.36807800  0.55927000  1
  Co  Co4  1  0.76480200  0.01064200  0.22681000  1
  Co  Co5  1  0.26480200  0.98935800  0.27319000  1
  Co  Co6  1  0.23519800  0.98935800  0.77319000  1
  Co  Co7  1  0.73519800  0.01064200  0.72681000  1
  O  O0  1  0.00708000  0.27956200  0.98080300  1
  O  O1  1  0.50708000  0.72043800  0.51919700  1
  O  O2  1  0.99292000  0.72043800  0.01919700  1
  O  O3  1  0.49292000  0.27956200  0.48080300  1
  O  O4  1  0.88873500  0.01933900  0.87935100  1
  O  O5  1  0.38873500  0.98066100  0.62064900  1
  O  O6  1  0.11126500  0.98066100  0.12064900  1
  O  O7  1  0.61126500  0.01933900  0.37935100  1
  O  O8  1  0.88076100  0.03282700  0.12454600  1
  O  O9  1  0.38076100  0.96717300  0.37545400  1
  O  O10  1  0.11923900  0.96717300  0.87545400  1
  O  O11  1  0.61923900  0.03282700  0.62454600  1
  O  O12  1  0.26904800  0.30745500  0.97490400  1
  O  O13  1  0.76904800  0.69254500  0.52509600  1
  O  O14  1  0.73095200  0.69254500  0.02509600  1
  O  O15  1  0.23095200  0.30745500  0.47490400  1
  O  O16  1  0.37645900  0.02963400  0.14242200  1
  O  O17  1  0.87645900  0.97036600  0.35757800  1
  O  O18  1  0.62354100  0.97036600  0.85757800  1
  O  O19  1  0.12354100  0.02963400  0.64242200  1
  O  O20  1  0.33252700  0.94485200  0.91054400  1
  O  O21  1  0.45582500  0.66195500  0.81231400  1
  O  O22  1  0.83252700  0.05514800  0.58945600  1
  O  O23  1  0.16747300  0.94485200  0.41054400  1
  O  O24  1  0.47168500  0.28425500  0.72274000  1
  O  O25  1  0.97168500  0.71574500  0.77726000  1
  O  O26  1  0.52831500  0.71574500  0.27726000  1
  O  O27  1  0.02831500  0.28425500  0.22274000  1
  O  O28  1  0.46393200  0.26629400  0.94818200  1
  O  O29  1  0.96393200  0.73370600  0.55181800  1
  O  O30  1  0.53606800  0.73370600  0.05181800  1
  O  O31  1  0.03606800  0.26629400  0.44818200  1
  O  O32  1  0.88954700  0.57008100  0.20544800  1
  O  O33  1  0.38954700  0.42991900  0.29455200  1
  O  O34  1  0.11045300  0.42991900  0.79455200  1
  O  O35  1  0.61045300  0.57008100  0.70544800  1
  O  O36  1  0.73955100  0.31176400  0.22119600  1
  O  O37  1  0.23955100  0.68823600  0.27880400  1
  O  O38  1  0.26044900  0.68823600  0.77880400  1
  O  O39  1  0.76044900  0.31176400  0.72119600  1
  O  O40  1  0.68321700  0.38893600  0.45384700  1
  O  O41  1  0.18321700  0.61106400  0.04615300  1
  O  O42  1  0.31678300  0.61106400  0.54615300  1
  O  O43  1  0.81678300  0.38893600  0.95384700  1
  O  O44  1  0.72485500  0.72354100  0.28668000  1
  O  O45  1  0.22485500  0.27645900  0.21332000  1
  O  O46  1  0.27514500  0.27645900  0.71332000  1
  O  O47  1  0.77514500  0.72354100  0.78668000  1
  O  O48  1  0.87056100  0.40664400  0.40601300  1
  O  O49  1  0.37056100  0.59335600  0.09398700  1
  O  O50  1  0.12943900  0.59335600  0.59398700  1
  O  O51  1  0.62943900  0.40664400  0.90601300  1
  O  O52  1  0.04417500  0.66195500  0.31231400  1
  O  O53  1  0.54417500  0.33804500  0.18768600  1
  O  O54  1  0.95582500  0.33804500  0.68768600  1
  O  O55  1  0.66747300  0.05514800  0.08945600  1
loop_
_geom_bond_atom_site_label_1
_geom_bond_atom_site_label_2
_geom_bond_distance
_geom_bond_site_symmetry_2
Mg0 O11 2.064655 1_565
Mg0 O24 2.138368 1_565
Mg0 O5 2.140080 1_555
Mg0 O21 2.152310 1_555
Mg0 O18 2.207543 1_555
Mg1 O2 2.076006 1_556
Mg1 O4 2.107497 1_565
Mg1 O47 2.115990 1_555
Mg1 O43 2.133720 1_555
Mg1 O25 2.258103 1_555
Mg1 O14 2.295645 1_556
Mg2 O3 2.076006 1_555
Mg2 O5 2.107497 1_545
Mg2 O46 2.115990 1_555
Mg2 O42 2.133720 1_555
Mg2 O24 2.258103 1_555
Mg2 O15 2.295645 1_555
Mg3 O0 2.076006 1_554
Mg3 O6 2.107497 1_545
Mg3 O45 2.115990 1_555
Mg3 O41 2.133720 1_555
Mg3 O27 2.258103 1_555
Mg3 O12 2.295645 1_554
Mg4 O1 2.076006 1_555
Mg4 O7 2.107497 1_565
Mg4 O44 2.115990 1_555
Mg4 O40 2.133720 1_555
Mg4 O26 2.258103 1_555
Mg4 O13 2.295645 1_555
Mg5 O8 2.064655 1_565
Mg5 O27 2.138368 1_665
Mg5 O6 2.140080 1_655
Mg5 O52 2.152310 1_655
Mg5 O17 2.207543 1_555
Mg6 O9 2.064655 1_545
Mg6 O26 2.138368 1_545
Mg6 O7 2.140080 1_555
Mg6 O53 2.152310 1_555
Mg6 O16 2.207543 1_555
Mg7 O10 2.064655 1_545
Mg7 O25 2.138368 1_445
Mg7 O4 2.140080 1_455
Mg7 O54 2.152310 1_455
Mg7 O19 2.207543 1_555
Co0 O51 1.987242 1_554
Co0 O36 2.002281 1_555
Co0 O55 2.052845 1_555
Co0 O43 2.162064 1_554
Co0 O14 2.173181 1_555
Co0 O53 2.565711 1_555
Co1 O50 1.987242 1_555
Co1 O37 2.002281 1_555
Co1 O23 2.052845 1_555
Co1 O42 2.162064 1_555
Co1 O15 2.173181 1_555
Co1 O52 2.565711 1_555
Co2 O49 1.987242 1_556
Co2 O38 2.002281 1_555
Co2 O20 2.052845 1_555
Co2 O41 2.162064 1_556
Co2 O12 2.173181 1_555
Co2 O21 2.565711 1_555
Co3 O48 1.987242 1_555
Co3 O39 2.002281 1_555
Co3 O22 2.052845 1_555
Co3 O40 2.162064 1_555
Co3 O13 2.173181 1_555
Co3 O54 2.565711 1_555
Co4 O44 1.972674 1_545
Co4 O36 2.005287 1_555
Co4 O8 2.029908 1_555
Co4 O55 2.109757 1_555
Co4 O17 2.194229 1_545
Co5 O45 1.972674 1_565
Co5 O37 2.005287 1_555
Co5 O9 2.029908 1_555
Co5 O23 2.109757 1_555
Co5 O16 2.194229 1_565
Co6 O46 1.972674 1_565
Co6 O38 2.005287 1_555
Co6 O10 2.029908 1_555
Co6 O20 2.109757 1_555
Co6 O19 2.194229 1_565
Co7 O47 1.972674 1_545
Co7 O39 2.005287 1_555
Co7 O11 2.029908 1_555
Co7 O22 2.109757 1_555
Co7 O18 2.194229 1_545
O0 V0 1.681746 1_455
O1 V12 1.681746 1_555
O2 V14 1.681746 1_655
O3 V13 1.681746 1_555
O4 V0 1.776048 1_555
O5 V12 1.776048 1_555
O6 V14 1.776048 1_555
O7 V13 1.776048 1_555
O8 V0 1.766266 1_554
O9 V12 1.766266 1_555
O10 V14 1.766266 1_556
O11 V13 1.766266 1_555
O12 V15 1.727398 1_555
O13 V11 1.727398 1_555
O14 V10 1.727398 1_555
O15 V9 1.727398 1_555
O16 V15 1.747720 1_554
O17 V11 1.747720 1_555
O18 V10 1.747720 1_556
O19 V9 1.747720 1_555
O20 V15 1.771647 1_565
O21 V8 1.697269 1_555
O22 V11 1.771647 1_545
O23 V9 1.771647 1_565
O24 V8 1.725089 1_555
O25 V1 1.725089 1_655
O26 V2 1.725089 1_555
O27 V3 1.725089 1_455
O28 V15 1.761116 1_555
O28 V8 1.880767 1_555
O29 V11 1.761116 1_555
O29 V1 1.880767 1_655
O30 V10 1.761116 1_555
O30 V2 1.880767 1_555
O31 V9 1.761116 1_555
O31 V3 1.880767 1_455
O32 V7 1.726724 1_555
O32 V3 1.981099 1_555
O33 V6 1.726724 1_555
O33 V2 1.981099 1_555
O34 V5 1.726724 1_555
O34 V1 1.981099 1_555
O35 V4 1.726724 1_555
O35 V8 1.981099 1_555
O36 V7 1.747467 1_555
O37 V6 1.747467 1_555
O38 V5 1.747467 1_555
O39 V4 1.747467 1_555
O40 V13 1.788745 1_555
O40 V7 2.477775 1_555
O41 V14 1.788745 1_555
O41 V6 2.477775 1_555
O42 V12 1.788745 1_555
O42 V5 2.477775 1_555
O43 V0 1.788745 1_555
O43 V4 2.477775 1_555
O44 V7 1.736242 1_555
O45 V6 1.736242 1_555
O46 V5 1.736242 1_555
O47 V4 1.736242 1_555
O48 V7 1.818167 1_555
O48 V3 1.947698 1_555
O49 V6 1.818167 1_555
O49 V2 1.947698 1_555
O50 V5 1.818167 1_555
O50 V1 1.947698 1_555
O51 V4 1.818167 1_555
O51 V8 1.947698 1_555
O52 V3 1.697269 1_455
O53 V2 1.697269 1_555
O54 V1 1.697269 1_655
O55 V10 1.771647 1_545
