# generated using pymatgen
data_Nb3SnH2
_symmetry_space_group_name_H-M   'P 1'
_cell_length_a   5.44376329
_cell_length_b   5.44376329
_cell_length_c   5.45749355
_cell_angle_alpha   90.00000000
_cell_angle_beta   90.00000000
_cell_angle_gamma   90.19640399
_symmetry_Int_Tables_number   1
_chemical_formula_structural   Nb3SnH2
_chemical_formula_sum   'Nb6 Sn2 H4'
_cell_volume   161.72946319
_cell_formula_units_Z   2
loop_
 _symmetry_equiv_pos_site_id
 _symmetry_equiv_pos_as_xyz
  1  'x, y, z'
loop_
 _atom_site_type_symbol
 _atom_site_label
 _atom_site_symmetry_multiplicity
 _atom_site_fract_x
 _atom_site_fract_y
 _atom_site_fract_z
 _atom_site_occupancy
  Nb  Nb0  1  0.74549940  0.99091412  0.75000000  1
  Nb  Nb1  1  0.99091412  0.74549940  0.25000000  1
  Nb  Nb2  1  0.50819451  0.50819451  0.50000000  1
  Nb  Nb3  1  0.25273349  0.99313711  0.75000000  1
  Nb  Nb4  1  0.99313711  0.25273349  0.25000000  1
  Nb  Nb5  1  0.50819451  0.50819451  0.00000000  1
  Sn  Sn0  1  0.49850442  0.00241088  0.25000000  1
  Sn  Sn1  1  0.00241088  0.49850442  0.75000000  1
  H  H0  1  0.99867663  0.99867663  0.50000000  1
  H  H1  1  0.25197285  0.50108344  0.25000000  1
  H  H2  1  0.50108344  0.25197285  0.75000000  1
  H  H3  1  0.99867663  0.99867663  -0.00000000  1
loop_
_geom_bond_atom_site_label_1
_geom_bond_atom_site_label_2
_geom_bond_distance
_geom_bond_site_symmetry_2
Nb0 Sn1 3.027722 1_655
Nb0 Sn0 3.042771 1_565
Nb0 Sn0 3.042771 1_566
Nb0 Sn1 3.092697 1_665
Nb1 Sn0 3.027722 1_565
Nb1 Sn1 3.042771 1_654
Nb1 Sn1 3.042771 1_655
Nb1 Sn0 3.092697 1_665
Nb2 Sn1 3.017202 1_655
Nb2 Sn0 3.017202 1_565
Nb2 Sn0 3.073163 1_555
Nb2 Sn1 3.073163 1_555
Nb3 Sn1 3.013673 1_555
Nb3 Sn0 3.039436 1_565
Nb3 Sn0 3.039436 1_566
Nb3 Sn1 3.074280 1_565
Nb4 Sn0 3.013673 1_555
Nb4 Sn1 3.039436 1_655
Nb4 Sn1 3.039436 1_654
Nb4 Sn0 3.074280 1_655
Nb5 Sn1 3.017202 1_654
Nb5 Sn0 3.017202 1_565
Nb5 Sn0 3.073163 1_555
Nb5 Sn1 3.073163 1_554
H0 Nb0 1.939701 1_555
H0 Nb1 1.939701 1_555
H0 Nb3 1.943057 1_655
H0 Nb4 1.943057 1_565
H1 Nb4 1.949391 1_455
H1 Nb1 1.950116 1_455
H1 Nb5 1.951445 1_555
H1 Nb2 1.951445 1_555
H2 Nb3 1.949391 1_545
H2 Nb0 1.950116 1_545
H2 Nb5 1.951445 1_556
H2 Nb2 1.951445 1_555
H3 Nb0 1.939701 1_554
H3 Nb1 1.939701 1_555
H3 Nb3 1.943057 1_654
H3 Nb4 1.943057 1_565
