# generated using pymatgen
data_Th6Cd23
_symmetry_space_group_name_H-M   'P 1'
_cell_length_a   9.92344681
_cell_length_b   9.92344681
_cell_length_c   9.92345352
_cell_angle_alpha   59.99997763
_cell_angle_beta   59.99997763
_cell_angle_gamma   59.99981148
_symmetry_Int_Tables_number   1
_chemical_formula_structural   Th6Cd23
_chemical_formula_sum   'Th6 Cd23'
_cell_volume   690.99064767
_cell_formula_units_Z   1
loop_
 _symmetry_equiv_pos_site_id
 _symmetry_equiv_pos_as_xyz
  1  'x, y, z'
loop_
 _atom_site_type_symbol
 _atom_site_label
 _atom_site_symmetry_multiplicity
 _atom_site_fract_x
 _atom_site_fract_y
 _atom_site_fract_z
 _atom_site_occupancy
  Th  Th0  1  0.69348824  0.69348824  0.30651176  1
  Th  Th1  1  0.30650397  0.69349603  0.30651598  1
  Th  Th2  1  0.69349603  0.30650397  0.30651598  1
  Th  Th3  1  0.30651176  0.30651176  0.69348824  1
  Th  Th4  1  0.69349603  0.30650397  0.69348402  1
  Th  Th5  1  0.30650397  0.69349603  0.69348402  1
  Cd  Cd0  1  -0.00000000  0.00000000  -0.00000000  1
  Cd  Cd1  1  0.00000000  0.00000000  0.50000000  1
  Cd  Cd2  1  0.50000000  -0.00000000  0.50000000  1
  Cd  Cd3  1  0.00000000  0.50000000  0.50000000  1
  Cd  Cd4  1  0.50000000  0.50000000  -0.00000000  1
  Cd  Cd5  1  -0.00000000  0.50000000  -0.00000000  1
  Cd  Cd6  1  0.50000000  0.00000000  -0.00000000  1
  Cd  Cd7  1  0.87979276  0.87979276  0.36059260  1
  Cd  Cd8  1  0.87980706  0.36059727  0.87979834  1
  Cd  Cd9  1  0.36059727  0.87980706  0.87979834  1
  Cd  Cd10  1  0.87979276  0.87979276  0.87982287  1
  Cd  Cd11  1  0.12020724  0.12020724  0.63940740  1
  Cd  Cd12  1  0.12019294  0.63940273  0.12020166  1
  Cd  Cd13  1  0.63940273  0.12019294  0.12020166  1
  Cd  Cd14  1  0.12020724  0.12020724  0.12017713  1
  Cd  Cd15  1  0.66807927  0.66807927  0.99576527  1
  Cd  Cd16  1  0.66806108  0.99575926  0.66808933  1
  Cd  Cd17  1  0.99575926  0.66806108  0.66808933  1
  Cd  Cd18  1  0.66807927  0.66807927  0.66807619  1
  Cd  Cd19  1  0.33192073  0.33192073  0.00423473  1
  Cd  Cd20  1  0.33193892  0.00424074  0.33191067  1
  Cd  Cd21  1  0.00424074  0.33193892  0.33191067  1
  Cd  Cd22  1  0.33192073  0.33192073  0.33192381  1
loop_
_geom_bond_atom_site_label_1
_geom_bond_atom_site_label_2
_geom_bond_distance
_geom_bond_site_symmetry_2
Th0 Th2 3.840158 1_555
Th0 Th1 3.840158 1_555
Th0 Th5 3.840158 1_555
Th0 Th4 3.840158 1_555
Th1 Th5 3.840059 1_555
Th1 Th3 3.840158 1_555
Th1 Th2 3.840284 1_555
Th2 Th4 3.840059 1_555
Th2 Th3 3.840158 1_555
Th3 Th4 3.840158 1_555
Th3 Th5 3.840158 1_555
Th4 Th5 3.840284 1_555
Cd0 Cd10 2.921682 1_444
Cd0 Cd14 2.921682 1_555
Cd0 Cd7 2.921690 1_445
Cd0 Cd11 2.921690 1_554
Cd0 Cd13 2.921721 1_455
Cd0 Cd12 2.921721 1_545
Cd0 Cd8 2.921721 1_454
Cd0 Cd9 2.921721 1_544
Cd1 Cd16 2.865023 1_445
Cd1 Cd20 2.865023 1_555
Cd1 Cd21 2.865023 1_555
Cd1 Cd17 2.865023 1_445
Cd1 Cd7 3.079460 1_445
Cd1 Cd11 3.079460 1_555
Cd1 Cd14 3.079468 1_555
Cd1 Cd10 3.079468 1_445
Cd1 Th2 3.596894 1_455
Cd1 Th5 3.596894 1_545
Cd1 Th4 3.596894 1_455
Cd1 Th1 3.596894 1_545
Cd2 Cd20 2.864773 1_555
Cd2 Cd22 2.864844 1_555
Cd2 Cd7 3.079220 1_545
Cd2 Cd9 3.079270 1_545
Cd2 Th3 3.596985 1_555
Cd2 Th0 3.596985 1_545
Cd2 Th5 3.596986 1_545
Cd2 Th2 3.596986 1_555
Cd3 Cd7 3.079220 1_455
Cd3 Cd8 3.079270 1_455
Cd3 Th0 3.596985 1_455
Cd3 Th3 3.596985 1_555
Cd3 Th4 3.596986 1_455
Cd3 Th1 3.596986 1_555
Cd4 Cd8 3.079332 1_554
Cd4 Cd9 3.079332 1_554
Cd4 Th4 3.597064 1_554
Cd4 Th5 3.597064 1_554
Cd4 Th2 3.597064 1_555
Cd4 Th1 3.597064 1_555
Cd5 Cd8 3.079262 1_454
Cd5 Th0 3.596985 1_455
Cd5 Th3 3.596985 1_554
Cd5 Th2 3.596986 1_455
Cd5 Th5 3.596986 1_554
Cd6 Cd9 3.079262 1_544
Cd6 Th3 3.596985 1_554
Cd6 Th0 3.596985 1_545
Cd6 Th1 3.596986 1_545
Cd6 Th4 3.596986 1_554
Cd7 Th0 3.539265 1_555
Cd7 Th1 3.539445 1_655
Cd7 Th2 3.539445 1_565
Cd8 Th3 3.539377 1_655
Cd8 Th2 3.539478 1_556
Cd8 Th4 3.539487 1_555
Cd9 Th3 3.539377 1_565
Cd9 Th1 3.539478 1_556
Cd9 Th5 3.539487 1_555
Cd10 Cd5 3.079220 1_656
Cd10 Cd6 3.079220 1_566
Cd10 Cd15 3.119461 1_555
Cd10 Cd16 3.119697 1_555
Cd10 Cd17 3.119697 1_555
Cd10 Cd12 3.373592 1_656
Cd10 Cd13 3.373592 1_566
Cd10 Cd11 3.373950 1_665
Cd10 Th0 3.539259 1_556
Cd10 Th4 3.539447 1_565
Cd10 Th5 3.539447 1_655
Cd11 Cd2 3.079220 1_555
Cd11 Cd3 3.079220 1_555
Cd11 Cd22 3.119458 1_555
Cd11 Cd20 3.119681 1_555
Cd11 Cd21 3.119681 1_555
Cd11 Cd8 3.373606 1_455
Cd11 Cd9 3.373606 1_545
Cd11 Th3 3.539265 1_555
Cd11 Th5 3.539445 1_545
Cd11 Th4 3.539445 1_455
Cd12 Cd5 3.079262 1_555
Cd12 Cd3 3.079270 1_555
Cd12 Cd4 3.079332 1_555
Cd12 Cd21 3.119340 1_555
Cd12 Cd19 3.119558 1_555
Cd12 Cd22 3.119563 1_555
Cd12 Cd7 3.373606 1_455
Cd12 Cd9 3.373808 1_554
Cd12 Th0 3.539377 1_455
Cd12 Th5 3.539478 1_554
Cd12 Th1 3.539487 1_555
Cd13 Cd6 3.079262 1_555
Cd13 Cd2 3.079270 1_555
Cd13 Cd4 3.079332 1_555
Cd13 Cd20 3.119340 1_555
Cd13 Cd19 3.119558 1_555
Cd13 Cd22 3.119563 1_555
Cd13 Cd7 3.373606 1_545
Cd13 Cd8 3.373808 1_554
Cd13 Th0 3.539377 1_545
Cd13 Th4 3.539478 1_554
Cd13 Th2 3.539487 1_555
Cd14 Cd6 3.079220 1_555
Cd14 Cd5 3.079220 1_555
Cd14 Cd19 3.119461 1_555
Cd14 Cd20 3.119697 1_555
Cd14 Cd21 3.119697 1_555
Cd14 Cd8 3.373592 1_454
Cd14 Cd9 3.373592 1_544
Cd14 Cd7 3.373950 1_445
Cd14 Th3 3.539259 1_554
Cd14 Th1 3.539447 1_545
Cd14 Th2 3.539447 1_455
Cd15 Cd5 2.864844 1_656
Cd15 Cd6 2.864844 1_566
Cd15 Cd4 2.864878 1_556
Cd15 Cd8 3.119558 1_555
Cd15 Cd9 3.119558 1_555
Cd15 Cd17 3.251695 1_555
Cd15 Cd16 3.251695 1_555
Cd15 Cd18 3.251807 1_555
Cd15 Th0 3.354828 1_556
Cd15 Th1 3.354904 1_556
Cd15 Th2 3.354904 1_556
Cd16 Cd2 2.864773 1_565
Cd16 Cd6 2.864782 1_566
Cd16 Cd9 3.119340 1_555
Cd16 Cd7 3.119681 1_555
Cd16 Cd18 3.251690 1_555
Cd16 Cd17 3.251886 1_555
Cd16 Th3 3.354755 1_565
Cd16 Th2 3.354870 1_565
Cd16 Th4 3.354875 1_565
Cd17 Cd3 2.864773 1_655
Cd17 Cd5 2.864782 1_656
Cd17 Cd8 3.119340 1_555
Cd17 Cd7 3.119681 1_555
Cd17 Cd18 3.251690 1_555
Cd17 Th3 3.354755 1_655
Cd17 Th1 3.354870 1_655
Cd17 Th5 3.354875 1_655
Cd18 Cd3 2.864844 1_655
Cd18 Cd2 2.864844 1_565
Cd18 Cd4 2.864878 1_556
Cd18 Cd7 3.119458 1_555
Cd18 Cd8 3.119563 1_555
Cd18 Cd9 3.119563 1_555
Cd18 Th0 3.354828 1_555
Cd18 Th5 3.354904 1_555
Cd18 Th4 3.354904 1_555
Cd19 Cd5 2.864844 1_555
Cd19 Cd6 2.864844 1_555
Cd19 Cd4 2.864878 1_555
Cd19 Cd20 3.251695 1_555
Cd19 Cd21 3.251695 1_555
Cd19 Cd22 3.251807 1_555
Cd19 Th3 3.354828 1_554
Cd19 Th5 3.354904 1_554
Cd19 Th4 3.354904 1_554
Cd20 Cd6 2.864782 1_555
Cd20 Cd22 3.251690 1_555
Cd20 Cd21 3.251886 1_555
Cd20 Th0 3.354755 1_545
Cd20 Th5 3.354870 1_545
Cd20 Th1 3.354875 1_545
Cd21 Cd3 2.864773 1_555
Cd21 Cd5 2.864782 1_555
Cd21 Cd22 3.251690 1_555
Cd21 Th0 3.354755 1_455
Cd21 Th4 3.354870 1_455
Cd21 Th2 3.354875 1_455
Cd22 Cd3 2.864844 1_555
Cd22 Cd4 2.864878 1_555
Cd22 Th3 3.354828 1_555
Cd22 Th1 3.354904 1_555
Cd22 Th2 3.354904 1_555
