# generated using pymatgen
data_Na2V(PO4)2
_symmetry_space_group_name_H-M   'P 1'
_cell_length_a   8.35114200
_cell_length_b   8.35114200
_cell_length_c   5.02380800
_cell_angle_alpha   90.00000000
_cell_angle_beta   90.00000000
_cell_angle_gamma   90.00000000
_symmetry_Int_Tables_number   1
_chemical_formula_structural   Na2V(PO4)2
_chemical_formula_sum   'Na4 V2 P4 O16'
_cell_volume   350.36827088
_cell_formula_units_Z   2
loop_
 _symmetry_equiv_pos_site_id
 _symmetry_equiv_pos_as_xyz
  1  'x, y, z'
loop_
 _atom_site_type_symbol
 _atom_site_label
 _atom_site_symmetry_multiplicity
 _atom_site_fract_x
 _atom_site_fract_y
 _atom_site_fract_z
 _atom_site_occupancy
  Na  Na0  1  0.17594500  0.32405500  0.51072200  1
  Na  Na1  1  0.32405500  0.82405500  0.51072200  1
  Na  Na2  1  0.82405500  0.67594500  0.51072200  1
  Na  Na3  1  0.67594500  0.17594500  0.51072200  1
  V  V0  1  0.50000000  0.50000000  0.95829100  1
  V  V1  1  0.00000000  0.00000000  0.95829100  1
  P  P0  1  0.87092200  0.37092200  0.97452600  1
  P  P1  1  0.37092200  0.12907800  0.97452600  1
  P  P2  1  0.62907800  0.87092200  0.97452600  1
  P  P3  1  0.12907800  0.62907800  0.97452600  1
  O  O0  1  0.50000000  0.00000000  0.85538000  1
  O  O1  1  0.00000000  0.50000000  0.85538000  1
  O  O2  1  0.21396000  0.07672200  0.83819000  1
  O  O3  1  0.78604000  0.92327800  0.83819000  1
  O  O4  1  0.92327800  0.21396000  0.83819000  1
  O  O5  1  0.07672200  0.78604000  0.83819000  1
  O  O6  1  0.42327800  0.28604000  0.83819000  1
  O  O7  1  0.28604000  0.57672200  0.83819000  1
  O  O8  1  0.71396000  0.42327800  0.83819000  1
  O  O9  1  0.57672200  0.71396000  0.83819000  1
  O  O10  1  0.50000000  0.50000000  0.28326400  1
  O  O11  1  0.00000000  0.00000000  0.28326400  1
  O  O12  1  0.12896500  0.62896500  0.27340500  1
  O  O13  1  0.62896500  0.87103500  0.27340500  1
  O  O14  1  0.37103500  0.12896500  0.27340500  1
  O  O15  1  0.87103500  0.37103500  0.27340500  1
loop_
_geom_bond_atom_site_label_1
_geom_bond_atom_site_label_2
_geom_bond_distance
_geom_bond_site_symmetry_2
Na0 O14 2.594257 1_555
Na0 O2 2.659625 1_555
Na0 O6 2.659625 1_555
Na0 O1 2.704812 1_555
Na0 O7 2.829161 1_555
Na0 O4 2.829161 1_455
Na0 O15 2.838879 1_455
Na0 O12 2.838879 1_555
Na1 O12 2.594257 1_555
Na1 O7 2.659625 1_555
Na1 O5 2.659625 1_555
Na1 O0 2.704812 1_565
Na1 O2 2.829161 1_565
Na1 O9 2.829161 1_555
Na1 O13 2.838879 1_555
Na1 O14 2.838879 1_565
Na2 O13 2.594257 1_555
Na2 O9 2.659625 1_555
Na2 O3 2.659625 1_555
Na2 O1 2.704812 1_655
Na2 O8 2.829161 1_555
Na2 O5 2.829161 1_655
Na2 O12 2.838879 1_655
Na2 O15 2.838879 1_555
Na3 O15 2.594257 1_555
Na3 O8 2.659625 1_555
Na3 O4 2.659625 1_555
Na3 O0 2.704812 1_555
Na3 O3 2.829161 1_545
Na3 O6 2.829161 1_555
Na3 O14 2.838879 1_555
Na3 O13 2.838879 1_545
O0 P1 1.637751 1_555
O0 P2 1.637751 1_545
O1 P3 1.637751 1_555
O1 P0 1.637751 1_455
O2 P1 1.542246 1_555
O2 V1 1.991797 1_555
O3 P2 1.542246 1_555
O3 V1 1.991797 1_665
O4 P0 1.542246 1_555
O4 V1 1.991797 1_655
O5 P3 1.542246 1_555
O5 V1 1.991797 1_565
O6 P1 1.542246 1_555
O6 V0 1.991797 1_555
O7 P3 1.542246 1_555
O7 V0 1.991797 1_555
O8 P0 1.542246 1_555
O8 V0 1.991797 1_555
O9 P2 1.542246 1_555
O9 V0 1.991797 1_555
O10 V0 1.632602 1_554
O11 V1 1.632602 1_554
O12 P3 1.501511 1_554
O13 P2 1.501511 1_554
O14 P1 1.501511 1_554
O15 P0 1.501511 1_554
