# generated using pymatgen
data_BaGeN2
_symmetry_space_group_name_H-M   'P 1'
_cell_length_a   5.59308400
_cell_length_b   11.22342400
_cell_length_c   16.66279800
_cell_angle_alpha   90.00000000
_cell_angle_beta   90.00000000
_cell_angle_gamma   90.00000000
_symmetry_Int_Tables_number   1
_chemical_formula_structural   BaGeN2
_chemical_formula_sum   'Ba16 Ge16 N32'
_cell_volume   1045.98303671
_cell_formula_units_Z   16
loop_
 _symmetry_equiv_pos_site_id
 _symmetry_equiv_pos_as_xyz
  1  'x, y, z'
loop_
 _atom_site_type_symbol
 _atom_site_label
 _atom_site_symmetry_multiplicity
 _atom_site_fract_x
 _atom_site_fract_y
 _atom_site_fract_z
 _atom_site_occupancy
  Ba  Ba0  1  0.75495100  0.01979800  0.43393700  1
  Ba  Ba1  1  0.25495100  0.48020200  0.56606300  1
  Ba  Ba2  1  0.24504900  0.51979800  0.06606300  1
  Ba  Ba3  1  0.74504900  0.98020200  0.93393700  1
  Ba  Ba4  1  0.24504900  0.98020200  0.56606300  1
  Ba  Ba5  1  0.74504900  0.51979800  0.43393700  1
  Ba  Ba6  1  0.75495100  0.48020200  0.93393700  1
  Ba  Ba7  1  0.25495100  0.01979800  0.06606300  1
  Ba  Ba8  1  0.83694100  0.26733700  0.31412000  1
  Ba  Ba9  1  0.33694100  0.23266300  0.68588000  1
  Ba  Ba10  1  0.16305900  0.76733700  0.18588000  1
  Ba  Ba11  1  0.66305900  0.73266300  0.81412000  1
  Ba  Ba12  1  0.16305900  0.73266300  0.68588000  1
  Ba  Ba13  1  0.66305900  0.76733700  0.31412000  1
  Ba  Ba14  1  0.83694100  0.23266300  0.81412000  1
  Ba  Ba15  1  0.33694100  0.26733700  0.18588000  1
  Ge  Ge0  1  0.75509400  0.00924000  0.18795100  1
  Ge  Ge1  1  0.25509400  0.49076000  0.81204900  1
  Ge  Ge2  1  0.24490600  0.50924000  0.31204900  1
  Ge  Ge3  1  0.74490600  0.99076000  0.68795100  1
  Ge  Ge4  1  0.24490600  0.99076000  0.81204900  1
  Ge  Ge5  1  0.74490600  0.50924000  0.18795100  1
  Ge  Ge6  1  0.75509400  0.49076000  0.68795100  1
  Ge  Ge7  1  0.25509400  0.00924000  0.31204900  1
  Ge  Ge8  1  0.80597600  0.26254200  0.06278500  1
  Ge  Ge9  1  0.30597600  0.23745800  0.93721500  1
  Ge  Ge10  1  0.19402400  0.76254200  0.43721500  1
  Ge  Ge11  1  0.69402400  0.73745800  0.56278500  1
  Ge  Ge12  1  0.19402400  0.73745800  0.93721500  1
  Ge  Ge13  1  0.69402400  0.76254200  0.06278500  1
  Ge  Ge14  1  0.80597600  0.23745800  0.56278500  1
  Ge  Ge15  1  0.30597600  0.26254200  0.43721500  1
  N  N0  1  0.56408700  0.47469800  0.28128600  1
  N  N1  1  0.06408700  0.02530200  0.71871400  1
  N  N2  1  0.43591300  0.97469800  0.21871400  1
  N  N3  1  0.93591300  0.52530200  0.78128600  1
  N  N4  1  0.43591300  0.52530200  0.71871400  1
  N  N5  1  0.93591300  0.97469800  0.28128600  1
  N  N6  1  0.56408700  0.02530200  0.78128600  1
  N  N7  1  0.06408700  0.47469800  0.21871400  1
  N  N8  1  0.62037000  0.29166400  0.47506400  1
  N  N9  1  0.12037000  0.20833600  0.52493600  1
  N  N10  1  0.37963000  0.79166400  0.02493600  1
  N  N11  1  0.87963000  0.70833600  0.97506400  1
  N  N12  1  0.37963000  0.70833600  0.52493600  1
  N  N13  1  0.87963000  0.79166400  0.47506400  1
  N  N14  1  0.62037000  0.20833600  0.97506400  1
  N  N15  1  0.12037000  0.29166400  0.02493600  1
  N  N16  1  0.67786100  0.41289600  0.09655300  1
  N  N17  1  0.17786100  0.08710400  0.90344700  1
  N  N18  1  0.32213900  0.91289600  0.40344700  1
  N  N19  1  0.82213900  0.58710400  0.59655300  1
  N  N20  1  0.32213900  0.58710400  0.90344700  1
  N  N21  1  0.82213900  0.91289600  0.09655300  1
  N  N22  1  0.67786100  0.08710400  0.59655300  1
  N  N23  1  0.17786100  0.41289600  0.40344700  1
  N  N24  1  0.82576900  0.16835900  0.15742100  1
  N  N25  1  0.32576900  0.33164100  0.84257900  1
  N  N26  1  0.17423100  0.66835900  0.34257900  1
  N  N27  1  0.67423100  0.83164100  0.65742100  1
  N  N28  1  0.17423100  0.83164100  0.84257900  1
  N  N29  1  0.67423100  0.66835900  0.15742100  1
  N  N30  1  0.82576900  0.33164100  0.65742100  1
  N  N31  1  0.32576900  0.16835900  0.34257900  1
loop_
_geom_bond_atom_site_label_1
_geom_bond_atom_site_label_2
_geom_bond_distance
_geom_bond_site_symmetry_2
Ba0 N13 2.740763 1_545
Ba0 N18 2.749127 1_545
Ba0 N5 2.783972 1_545
Ba0 N22 2.845818 1_555
Ba0 N8 3.216589 1_555
Ba0 N9 3.309681 1_655
Ba1 N12 2.740763 1_555
Ba1 N19 2.749127 1_455
Ba1 N4 2.783972 1_555
Ba1 N23 2.845818 1_555
Ba1 N9 3.216589 1_555
Ba1 N8 3.309681 1_555
Ba2 N15 2.740763 1_555
Ba2 N16 2.749127 1_555
Ba2 N7 2.783972 1_555
Ba2 N20 2.845818 1_554
Ba2 N10 3.216589 1_555
Ba2 N11 3.309681 1_454
Ba3 N14 2.740763 1_565
Ba3 N17 2.749127 1_665
Ba3 N6 2.783972 1_565
Ba3 N21 2.845818 1_556
Ba3 N11 3.216589 1_555
Ba3 N10 3.309681 1_556
Ba4 N9 2.740763 1_565
Ba4 N22 2.749127 1_565
Ba4 N1 2.783972 1_565
Ba4 N18 2.845818 1_555
Ba4 N12 3.216589 1_555
Ba4 N13 3.309681 1_455
Ba5 N8 2.740763 1_555
Ba5 N23 2.749127 1_655
Ba5 N0 2.783972 1_555
Ba5 N19 2.845818 1_555
Ba5 N13 3.216589 1_555
Ba5 N12 3.309681 1_555
Ba6 N11 2.740763 1_555
Ba6 N20 2.749127 1_555
Ba6 N3 2.783972 1_555
Ba6 N16 2.845818 1_556
Ba6 N14 3.216589 1_555
Ba6 N15 3.309681 1_656
Ba7 N10 2.740763 1_545
Ba7 N21 2.749127 1_445
Ba7 N2 2.783972 1_545
Ba7 N17 2.845818 1_554
Ba7 N15 3.216589 1_555
Ba7 N14 3.309681 1_554
Ba8 N0 2.836304 1_555
Ba8 N24 2.838220 1_555
Ba8 N23 2.918936 1_655
Ba8 N8 2.955287 1_555
Ba8 N31 2.988975 1_655
Ba8 N7 3.091538 1_655
Ba8 N31 3.103699 1_555
Ba8 N5 3.375368 1_545
Ba9 N1 2.836304 1_555
Ba9 N25 2.838220 1_555
Ba9 N22 2.918936 1_555
Ba9 N9 2.955287 1_555
Ba9 N30 2.988975 1_555
Ba9 N6 3.091538 1_555
Ba9 N30 3.103699 1_455
Ba9 N4 3.375368 1_555
Ba10 N2 2.836304 1_555
Ba10 N26 2.838220 1_555
Ba10 N21 2.918936 1_455
Ba10 N10 2.955287 1_555
Ba10 N29 2.988975 1_455
Ba10 N5 3.091538 1_455
Ba10 N29 3.103699 1_555
Ba10 N7 3.375368 1_555
Ba11 N3 2.836304 1_555
Ba11 N27 2.838220 1_555
Ba11 N20 2.918936 1_555
Ba11 N11 2.955287 1_555
Ba11 N28 2.988975 1_555
Ba11 N4 3.091538 1_555
Ba11 N28 3.103699 1_655
Ba11 N6 3.375368 1_565
Ba12 N4 2.836304 1_555
Ba12 N28 2.838220 1_555
Ba12 N19 2.918936 1_455
Ba12 N12 2.955287 1_555
Ba12 N27 2.988975 1_455
Ba12 N3 3.091538 1_455
Ba12 N27 3.103699 1_555
Ba12 N1 3.375368 1_565
Ba13 N5 2.836304 1_555
Ba13 N29 2.838220 1_555
Ba13 N18 2.918936 1_555
Ba13 N13 2.955287 1_555
Ba13 N26 2.988975 1_555
Ba13 N2 3.091538 1_555
Ba13 N26 3.103699 1_655
Ba13 N0 3.375368 1_555
Ba14 N6 2.836304 1_555
Ba14 N30 2.838220 1_555
Ba14 N17 2.918936 1_655
Ba14 N14 2.955287 1_555
Ba14 N25 2.988975 1_655
Ba14 N1 3.091538 1_655
Ba14 N25 3.103699 1_555
Ba14 N3 3.375368 1_555
Ba15 N7 2.836304 1_555
Ba15 N31 2.838220 1_555
Ba15 N16 2.918936 1_555
Ba15 N15 2.955287 1_555
Ba15 N24 2.988975 1_555
Ba15 N0 3.091538 1_555
Ba15 N24 3.103699 1_455
Ba15 N2 3.375368 1_545
Ge0 N5 1.895208 1_545
Ge0 N2 1.897370 1_545
Ge0 N24 1.898511 1_555
Ge0 N21 1.905049 1_545
Ge1 N4 1.895208 1_555
Ge1 N3 1.897370 1_455
Ge1 N25 1.898511 1_555
Ge1 N20 1.905049 1_555
Ge2 N7 1.895208 1_555
Ge2 N0 1.897370 1_555
Ge2 N26 1.898511 1_555
Ge2 N23 1.905049 1_555
Ge3 N6 1.895208 1_565
Ge3 N1 1.897370 1_665
Ge3 N27 1.898511 1_555
Ge3 N22 1.905049 1_565
Ge4 N1 1.895208 1_565
Ge4 N6 1.897370 1_565
Ge4 N28 1.898511 1_555
Ge4 N17 1.905049 1_565
Ge5 N0 1.895208 1_555
Ge5 N7 1.897370 1_655
Ge5 N29 1.898511 1_555
Ge5 N16 1.905049 1_555
Ge6 N3 1.895208 1_555
Ge6 N4 1.897370 1_555
Ge6 N30 1.898511 1_555
Ge6 N19 1.905049 1_555
Ge7 N2 1.895208 1_545
Ge7 N5 1.897370 1_445
Ge7 N31 1.898511 1_555
Ge7 N18 1.905049 1_545
Ge8 N14 1.893224 1_554
Ge8 N15 1.896486 1_655
Ge8 N24 1.901641 1_555
Ge8 N16 1.917724 1_555
Ge9 N15 1.893224 1_556
Ge9 N14 1.896486 1_555
Ge9 N25 1.901641 1_555
Ge9 N17 1.917724 1_555
Ge10 N12 1.893224 1_555
Ge10 N13 1.896486 1_455
Ge10 N26 1.901641 1_555
Ge10 N18 1.917724 1_555
Ge11 N13 1.893224 1_555
Ge11 N12 1.896486 1_555
Ge11 N27 1.901641 1_555
Ge11 N19 1.917724 1_555
Ge12 N10 1.893224 1_556
Ge12 N11 1.896486 1_455
Ge12 N28 1.901641 1_555
Ge12 N20 1.917724 1_555
Ge13 N11 1.893224 1_554
Ge13 N10 1.896486 1_555
Ge13 N29 1.901641 1_555
Ge13 N21 1.917724 1_555
Ge14 N8 1.893224 1_555
Ge14 N9 1.896486 1_655
Ge14 N30 1.901641 1_555
Ge14 N22 1.917724 1_555
Ge15 N9 1.893224 1_555
Ge15 N8 1.896486 1_555
Ge15 N31 1.901641 1_555
Ge15 N23 1.917724 1_555
