# generated using pymatgen
data_Mg7Si4
_symmetry_space_group_name_H-M   'P 1'
_cell_length_a   4.64827500
_cell_length_b   6.08611008
_cell_length_c   15.14596221
_cell_angle_alpha   91.86298579
_cell_angle_beta   91.58721986
_cell_angle_gamma   90.03416409
_symmetry_Int_Tables_number   1
_chemical_formula_structural   Mg7Si4
_chemical_formula_sum   'Mg14 Si8'
_cell_volume   428.08668342
_cell_formula_units_Z   2
loop_
 _symmetry_equiv_pos_site_id
 _symmetry_equiv_pos_as_xyz
  1  'x, y, z'
loop_
 _atom_site_type_symbol
 _atom_site_label
 _atom_site_symmetry_multiplicity
 _atom_site_fract_x
 _atom_site_fract_y
 _atom_site_fract_z
 _atom_site_occupancy
  Mg  Mg0  1  0.03651200  0.04196000  0.82675200  1
  Mg  Mg1  1  0.51311400  0.69745700  0.75861400  1
  Mg  Mg2  1  0.00168600  0.91194200  0.63325900  1
  Mg  Mg3  1  0.00710700  0.40697200  0.68376800  1
  Mg  Mg4  1  0.05888000  0.28359800  0.01522900  1
  Mg  Mg5  1  0.45960800  0.84876000  0.43423700  1
  Mg  Mg6  1  0.94819800  0.28372000  0.22724700  1
  Mg  Mg7  1  0.46258800  0.35338600  0.37291200  1
  Mg  Mg8  1  0.54270500  0.34520900  0.88840300  1
  Mg  Mg9  1  0.54496500  0.82643500  0.94790200  1
  Mg  Mg10  1  0.05350100  0.78576600  0.09370600  1
  Mg  Mg11  1  0.94032900  0.77510600  0.30171700  1
  Mg  Mg12  1  0.96236500  0.11573000  0.45496400  1
  Mg  Mg13  1  0.96943600  0.57775400  0.48514000  1
  Si  Si0  1  0.55542500  0.09726800  0.09084700  1
  Si  Si1  1  0.52866300  0.12763200  0.72477200  1
  Si  Si2  1  0.03470500  0.60434500  0.86575000  1
  Si  Si3  1  0.42828700  0.60501200  0.22922100  1
  Si  Si4  1  0.56964200  0.49586900  0.07879900  1
  Si  Si5  1  0.46660900  0.20225600  0.56163000  1
  Si  Si6  1  0.47726100  0.60070900  0.58276900  1
  Si  Si7  1  0.44202600  0.00568600  0.24603200  1
loop_
_geom_bond_atom_site_label_1
_geom_bond_atom_site_label_2
_geom_bond_distance
_geom_bond_site_symmetry_2
Mg0 Si2 2.746824 1_545
Mg0 Si1 2.842884 1_455
Mg0 Si1 2.852657 1_555
Mg0 Mg2 3.010613 1_545
Mg1 Si1 2.685412 1_565
Mg1 Si6 2.709465 1_555
Mg1 Si2 2.856149 1_555
Mg1 Si2 2.945488 1_655
Mg1 Mg2 3.295872 1_655
Mg1 Mg2 3.297718 1_555
Mg2 Si1 2.921093 1_465
Mg2 Si6 3.010650 1_555
Mg2 Si5 3.036303 1_565
Mg2 Si1 3.055217 1_565
Mg2 Mg3 3.084131 1_565
Mg2 Si6 3.148344 1_455
Mg2 Mg3 3.191074 1_555
Mg2 Si5 3.235019 1_465
Mg3 Si1 2.891812 1_455
Mg3 Si6 2.967448 1_555
Mg3 Si2 2.970105 1_555
Mg3 Si1 3.023835 1_555
Mg3 Si5 3.099787 1_555
Mg3 Si6 3.115784 1_455
Mg4 Si4 2.794919 1_455
Mg4 Si0 2.804655 1_555
Mg4 Si4 2.832232 1_555
Mg4 Si0 2.881671 1_455
Mg4 Si2 3.036867 1_554
Mg5 Si6 2.749097 1_555
Mg5 Si5 2.842378 1_565
Mg5 Si7 3.034575 1_565
Mg6 Si7 2.865859 1_655
Mg6 Si0 2.919774 1_555
Mg6 Si7 2.922967 1_555
Mg6 Si3 2.965102 1_655
Mg6 Si3 3.109788 1_555
Mg6 Si4 3.129049 1_555
Mg7 Si3 2.702758 1_555
Mg7 Si7 2.811649 1_555
Mg7 Si5 3.030567 1_555
Mg8 Si1 2.770835 1_555
Mg8 Si2 2.812393 1_655
Mg8 Si2 2.859309 1_555
Mg8 Si4 2.996712 1_556
Mg9 Si0 2.677454 1_566
Mg9 Si4 2.870245 1_556
Mg9 Si2 2.934049 1_655
Mg9 Si2 2.953661 1_555
Mg10 Si4 2.857205 1_455
Mg10 Si3 2.899815 1_555
Mg10 Si4 2.988150 1_555
Mg10 Si0 2.993528 1_465
Mg10 Si0 3.007489 1_565
Mg10 Si7 3.152989 1_565
Mg11 Si3 2.736556 1_655
Mg11 Si3 2.778601 1_555
Mg11 Si7 2.831660 1_565
Mg11 Si7 2.881151 1_665
Mg12 Si5 2.848594 1_655
Mg12 Si5 2.889641 1_555
Mg12 Mg2 3.009122 1_645
Mg13 Si6 2.751518 1_655
Mg13 Si6 2.759393 1_555
Mg13 Mg2 2.979335 1_655
Si0 Si4 2.439684 1_555
Si0 Si7 2.503294 1_555
Si1 Si5 2.535482 1_555
Si3 Si7 2.444168 1_565
Si3 Si4 2.459390 1_555
Si5 Si6 2.436026 1_555
