# generated using pymatgen
data_SiAg2S3
_symmetry_space_group_name_H-M   'P 1'
_cell_length_a   6.71874600
_cell_length_b   6.74292100
_cell_length_c   13.43725111
_cell_angle_alpha   61.37740352
_cell_angle_beta   90.00000000
_cell_angle_gamma   90.00000000
_symmetry_Int_Tables_number   1
_chemical_formula_structural   SiAg2S3
_chemical_formula_sum   'Si4 Ag8 S12'
_cell_volume   534.36670995
_cell_formula_units_Z   4
loop_
 _symmetry_equiv_pos_site_id
 _symmetry_equiv_pos_as_xyz
  1  'x, y, z'
loop_
 _atom_site_type_symbol
 _atom_site_label
 _atom_site_symmetry_multiplicity
 _atom_site_fract_x
 _atom_site_fract_y
 _atom_site_fract_z
 _atom_site_occupancy
  Si  Si0  1  0.15267500  0.16041500  0.99488600  1
  Si  Si1  1  0.65267500  0.83958500  0.50511400  1
  Si  Si2  1  0.84732500  0.83958500  0.00511400  1
  Si  Si3  1  0.34732500  0.16041500  0.49488600  1
  Ag  Ag0  1  0.52049100  0.77353600  0.25172600  1
  Ag  Ag1  1  0.02049100  0.22646400  0.24827400  1
  Ag  Ag2  1  0.47950900  0.22646400  0.74827400  1
  Ag  Ag3  1  0.97950900  0.77353600  0.75172600  1
  Ag  Ag4  1  0.39388300  0.51292900  0.11314500  1
  Ag  Ag5  1  0.89388300  0.48707100  0.38685500  1
  Ag  Ag6  1  0.60611700  0.48707100  0.88685500  1
  Ag  Ag7  1  0.10611700  0.51292900  0.61314500  1
  S  S0  1  0.29638900  0.12508900  0.14266100  1
  S  S1  1  0.79638900  0.87491100  0.35733900  1
  S  S2  1  0.70361100  0.87491100  0.85733900  1
  S  S3  1  0.20361100  0.12508900  0.64266100  1
  S  S4  1  0.82897900  0.15200700  0.01732500  1
  S  S5  1  0.32897900  0.84799300  0.48267500  1
  S  S6  1  0.17102100  0.84799300  0.98267500  1
  S  S7  1  0.67102100  0.15200700  0.51732500  1
  S  S8  1  0.24782100  0.44096400  0.84200400  1
  S  S9  1  0.74782100  0.55903600  0.65799600  1
  S  S10  1  0.75217900  0.55903600  0.15799600  1
  S  S11  1  0.25217900  0.44096400  0.34200400  1
loop_
_geom_bond_atom_site_label_1
_geom_bond_atom_site_label_2
_geom_bond_distance
_geom_bond_site_symmetry_2
Ag0 S0 2.589541 1_565
Ag0 S1 2.616641 1_555
Ag0 S11 2.672809 1_555
Ag0 S10 2.801190 1_555
Ag1 S1 2.589541 1_445
Ag1 S0 2.616641 1_555
Ag1 S10 2.672809 1_455
Ag1 S11 2.801190 1_555
Ag2 S2 2.589541 1_545
Ag2 S3 2.616641 1_555
Ag2 S9 2.672809 1_555
Ag2 S8 2.801190 1_555
Ag3 S3 2.589541 1_665
Ag3 S2 2.616641 1_555
Ag3 S8 2.672809 1_655
Ag3 S9 2.801190 1_555
Ag4 S0 2.536096 1_555
Ag4 S10 2.536627 1_555
Ag4 S6 2.573954 1_554
Ag4 S11 3.028082 1_555
Ag5 S1 2.536096 1_555
Ag5 S11 2.536627 1_655
Ag5 S7 2.573954 1_555
Ag5 S10 3.028082 1_555
Ag6 S2 2.536096 1_555
Ag6 S8 2.536627 1_555
Ag6 S4 2.573954 1_556
Ag6 S9 3.028082 1_555
Ag7 S3 2.536096 1_555
Ag7 S9 2.536627 1_455
Ag7 S5 2.573954 1_555
Ag7 S8 3.028082 1_555
S0 Si0 2.116337 1_554
S1 Si1 2.116337 1_555
S2 Si2 2.116337 1_556
S3 Si3 2.116337 1_555
S4 Si0 2.192633 1_654
S4 Si2 2.193446 1_545
S5 Si1 2.192633 1_555
S5 Si3 2.193446 1_565
S6 Si2 2.192633 1_456
S6 Si0 2.193446 1_565
S7 Si3 2.192633 1_555
S7 Si1 2.193446 1_545
S8 Si0 2.117594 1_555
S9 Si1 2.117594 1_555
S10 Si2 2.117594 1_555
S11 Si3 2.117594 1_555
