# generated using pymatgen
data_Tm3Co4Ge13
_symmetry_space_group_name_H-M   'P 1'
_cell_length_a   8.75200800
_cell_length_b   8.75200800
_cell_length_c   8.75200800
_cell_angle_alpha   90.00000000
_cell_angle_beta   90.00000000
_cell_angle_gamma   90.00000000
_symmetry_Int_Tables_number   1
_chemical_formula_structural   Tm3Co4Ge13
_chemical_formula_sum   'Tm6 Co8 Ge26'
_cell_volume   670.38319335
_cell_formula_units_Z   2
loop_
 _symmetry_equiv_pos_site_id
 _symmetry_equiv_pos_as_xyz
  1  'x, y, z'
loop_
 _atom_site_type_symbol
 _atom_site_label
 _atom_site_symmetry_multiplicity
 _atom_site_fract_x
 _atom_site_fract_y
 _atom_site_fract_z
 _atom_site_occupancy
  Tm  Tm0  1  0.00000000  0.50000000  0.75000000  1
  Tm  Tm1  1  0.50000000  0.25000000  0.00000000  1
  Tm  Tm2  1  0.75000000  0.00000000  0.50000000  1
  Tm  Tm3  1  0.00000000  0.50000000  0.25000000  1
  Tm  Tm4  1  0.50000000  0.75000000  0.00000000  1
  Tm  Tm5  1  0.25000000  0.00000000  0.50000000  1
  Co  Co0  1  0.75000000  0.25000000  0.75000000  1
  Co  Co1  1  0.25000000  0.75000000  0.25000000  1
  Co  Co2  1  0.75000000  0.75000000  0.25000000  1
  Co  Co3  1  0.25000000  0.25000000  0.75000000  1
  Co  Co4  1  0.25000000  0.75000000  0.75000000  1
  Co  Co5  1  0.75000000  0.25000000  0.25000000  1
  Co  Co6  1  0.25000000  0.25000000  0.25000000  1
  Co  Co7  1  0.75000000  0.75000000  0.75000000  1
  Ge  Ge0  1  0.50000000  0.50000000  0.50000000  1
  Ge  Ge1  1  0.00000000  0.00000000  0.00000000  1
  Ge  Ge2  1  0.80572500  0.34657200  0.50000000  1
  Ge  Ge3  1  0.65342800  0.50000000  0.80572500  1
  Ge  Ge4  1  0.50000000  0.19427500  0.65342800  1
  Ge  Ge5  1  0.19427500  0.65342800  0.50000000  1
  Ge  Ge6  1  0.34657200  0.50000000  0.19427500  1
  Ge  Ge7  1  0.50000000  0.80572500  0.34657200  1
  Ge  Ge8  1  0.80572500  0.65342800  0.50000000  1
  Ge  Ge9  1  0.65342800  0.50000000  0.19427500  1
  Ge  Ge10  1  0.19427500  0.34657200  0.50000000  1
  Ge  Ge11  1  0.34657200  0.50000000  0.80572500  1
  Ge  Ge12  1  0.50000000  0.80572500  0.65342800  1
  Ge  Ge13  1  0.50000000  0.19427500  0.34657200  1
  Ge  Ge14  1  0.30572500  0.00000000  0.84657200  1
  Ge  Ge15  1  0.15342800  0.30572500  0.00000000  1
  Ge  Ge16  1  0.00000000  0.15342800  0.69427500  1
  Ge  Ge17  1  0.69427500  0.00000000  0.15342800  1
  Ge  Ge18  1  0.84657200  0.69427500  0.00000000  1
  Ge  Ge19  1  0.00000000  0.84657200  0.30572500  1
  Ge  Ge20  1  0.30572500  0.00000000  0.15342800  1
  Ge  Ge21  1  0.15342800  0.69427500  0.00000000  1
  Ge  Ge22  1  0.69427500  0.00000000  0.84657200  1
  Ge  Ge23  1  0.84657200  0.30572500  0.00000000  1
  Ge  Ge24  1  0.00000000  0.15342800  0.30572500  1
  Ge  Ge25  1  0.00000000  0.84657200  0.69427500  1
loop_
_geom_bond_atom_site_label_1
_geom_bond_atom_site_label_2
_geom_bond_distance
_geom_bond_site_symmetry_2
Co0 Ge23 2.395740 1_556
Co0 Ge4 2.395740 1_555
Co0 Ge16 2.395740 1_655
Co0 Ge2 2.395740 1_555
Co0 Ge3 2.395740 1_555
Co0 Ge22 2.395740 1_555
Co0 Tm1 3.094302 1_556
Co0 Tm2 3.094302 1_555
Co0 Tm0 3.094302 1_655
Co1 Ge6 2.395740 1_555
Co1 Ge21 2.395740 1_555
Co1 Ge5 2.395740 1_555
Co1 Ge19 2.395740 1_555
Co1 Ge7 2.395740 1_555
Co1 Ge20 2.395740 1_565
Co1 Tm5 3.094302 1_565
Co1 Tm4 3.094302 1_555
Co1 Tm3 3.094302 1_555
Co2 Ge19 2.395740 1_655
Co2 Ge18 2.395740 1_555
Co2 Ge8 2.395740 1_555
Co2 Ge9 2.395740 1_555
Co2 Ge7 2.395740 1_555
Co2 Ge17 2.395740 1_565
Co2 Tm2 3.094302 1_565
Co2 Tm4 3.094302 1_555
Co2 Tm3 3.094302 1_655
Co3 Ge4 2.395740 1_555
Co3 Ge15 2.395740 1_556
Co3 Ge16 2.395740 1_555
Co3 Ge10 2.395740 1_555
Co3 Ge11 2.395740 1_555
Co3 Ge14 2.395740 1_555
Co3 Tm1 3.094302 1_556
Co3 Tm5 3.094302 1_555
Co3 Tm0 3.094302 1_555
Co4 Ge21 2.395740 1_556
Co4 Ge12 2.395740 1_555
Co4 Ge5 2.395740 1_555
Co4 Ge25 2.395740 1_555
Co4 Ge11 2.395740 1_555
Co4 Ge14 2.395740 1_565
Co4 Tm5 3.094302 1_565
Co4 Tm0 3.094302 1_555
Co4 Tm4 3.094302 1_556
Co5 Ge23 2.395740 1_555
Co5 Ge13 2.395740 1_555
Co5 Ge2 2.395740 1_555
Co5 Ge24 2.395740 1_655
Co5 Ge9 2.395740 1_555
Co5 Ge17 2.395740 1_555
Co5 Tm1 3.094302 1_555
Co5 Tm2 3.094302 1_555
Co5 Tm3 3.094302 1_655
Co6 Ge13 2.395740 1_555
Co6 Ge6 2.395740 1_555
Co6 Ge24 2.395740 1_555
Co6 Ge15 2.395740 1_555
Co6 Ge10 2.395740 1_555
Co6 Ge20 2.395740 1_555
Co6 Tm5 3.094302 1_555
Co6 Tm1 3.094302 1_555
Co6 Tm3 3.094302 1_555
Co7 Ge8 2.395740 1_555
Co7 Ge12 2.395740 1_555
Co7 Ge18 2.395740 1_556
Co7 Ge3 2.395740 1_555
Co7 Ge25 2.395740 1_655
Co7 Ge22 2.395740 1_565
Co7 Tm2 3.094302 1_565
Co7 Tm0 3.094302 1_655
Co7 Tm4 3.094302 1_556
Ge0 Ge3 2.993749 1_555
Ge0 Ge9 2.993749 1_555
Ge0 Ge10 2.993749 1_555
Ge0 Ge7 2.993749 1_555
Ge0 Ge11 2.993749 1_555
Ge0 Ge4 2.993749 1_555
Ge0 Ge8 2.993749 1_555
Ge0 Ge13 2.993749 1_555
Ge0 Ge12 2.993749 1_555
Ge0 Ge6 2.993749 1_555
Ge0 Ge5 2.993749 1_555
Ge0 Ge2 2.993749 1_555
Ge1 Ge15 2.993749 1_555
Ge1 Ge18 2.993749 1_445
Ge1 Ge21 2.993749 1_545
Ge1 Ge16 2.993749 1_554
Ge1 Ge20 2.993749 1_555
Ge1 Ge23 2.993749 1_455
Ge1 Ge17 2.993749 1_455
Ge1 Ge19 2.993749 1_545
Ge1 Ge14 2.993749 1_554
Ge1 Ge25 2.993749 1_544
Ge1 Ge22 2.993749 1_454
Ge1 Ge24 2.993749 1_555
Ge2 Ge8 2.685606 1_555
Ge2 Ge24 2.939296 1_655
Ge2 Tm2 3.072160 1_555
Ge2 Tm3 3.079201 1_655
Ge2 Tm0 3.079201 1_655
Ge3 Tm0 3.072160 1_655
Ge3 Tm4 3.079201 1_556
Ge3 Tm1 3.079201 1_556
Ge4 Tm1 3.072160 1_556
Ge4 Tm5 3.079201 1_555
Ge4 Tm2 3.079201 1_555
Ge5 Tm5 3.072160 1_565
Ge5 Tm3 3.079201 1_555
Ge5 Tm0 3.079201 1_555
Ge6 Ge9 2.685606 1_555
Ge6 Tm3 3.072160 1_555
Ge6 Tm1 3.079201 1_555
Ge6 Tm4 3.079201 1_555
Ge7 Tm4 3.072160 1_555
Ge7 Tm5 3.079201 1_565
Ge7 Tm2 3.079201 1_565
Ge8 Tm2 3.072160 1_565
Ge8 Tm0 3.079201 1_655
Ge8 Tm3 3.079201 1_655
Ge9 Tm3 3.072160 1_655
Ge9 Tm1 3.079201 1_555
Ge9 Tm4 3.079201 1_555
Ge10 Ge5 2.685606 1_555
Ge10 Ge16 2.939296 1_555
Ge10 Ge24 2.939296 1_555
Ge10 Tm5 3.072160 1_555
Ge10 Tm3 3.079201 1_555
Ge10 Tm0 3.079201 1_555
Ge11 Ge3 2.685606 1_555
Ge11 Ge15 2.939296 1_556
Ge11 Ge21 2.939296 1_556
Ge11 Tm0 3.072160 1_555
Ge11 Tm4 3.079201 1_556
Ge11 Tm1 3.079201 1_556
Ge12 Ge7 2.685606 1_555
Ge12 Ge22 2.939296 1_565
Ge12 Ge14 2.939296 1_565
Ge12 Tm4 3.072160 1_556
Ge12 Tm5 3.079201 1_565
Ge12 Tm2 3.079201 1_565
Ge13 Ge4 2.685606 1_555
Ge13 Ge17 2.939296 1_555
Ge13 Ge20 2.939296 1_555
Ge13 Tm1 3.072160 1_555
Ge13 Tm5 3.079201 1_555
Ge13 Tm2 3.079201 1_555
Ge14 Ge20 2.685606 1_556
Ge14 Ge4 2.939296 1_555
Ge14 Tm5 3.072160 1_555
Ge14 Tm1 3.079201 1_556
Ge14 Tm4 3.079201 1_546
Ge15 Ge23 2.685606 1_455
Ge15 Ge6 2.939296 1_555
Ge15 Tm1 3.072160 1_555
Ge15 Tm3 3.079201 1_555
Ge15 Tm0 3.079201 1_554
Ge16 Ge25 2.685606 1_545
Ge16 Ge2 2.939296 1_455
Ge16 Tm0 3.072160 1_555
Ge16 Tm5 3.079201 1_555
Ge16 Tm2 3.079201 1_455
Ge17 Ge22 2.685606 1_554
Ge17 Ge7 2.939296 1_545
Ge17 Tm2 3.072160 1_555
Ge17 Tm4 3.079201 1_545
Ge17 Tm1 3.079201 1_555
Ge18 Ge21 2.685606 1_655
Ge18 Ge3 2.939296 1_554
Ge18 Ge9 2.939296 1_555
Ge18 Tm4 3.072160 1_555
Ge18 Tm0 3.079201 1_654
Ge18 Tm3 3.079201 1_655
Ge19 Ge24 2.685606 1_565
Ge19 Ge8 2.939296 1_455
Ge19 Ge5 2.939296 1_555
Ge19 Tm3 3.072160 1_555
Ge19 Tm2 3.079201 1_465
Ge19 Tm5 3.079201 1_565
Ge20 Ge7 2.939296 1_545
Ge20 Tm5 3.072160 1_555
Ge20 Tm4 3.079201 1_545
Ge20 Tm1 3.079201 1_555
Ge21 Ge6 2.939296 1_555
Ge21 Tm4 3.072160 1_555
Ge21 Tm3 3.079201 1_555
Ge21 Tm0 3.079201 1_554
Ge22 Ge4 2.939296 1_555
Ge22 Tm2 3.072160 1_555
Ge22 Tm1 3.079201 1_556
Ge22 Tm4 3.079201 1_546
Ge23 Ge3 2.939296 1_554
Ge23 Ge9 2.939296 1_555
Ge23 Tm1 3.072160 1_555
Ge23 Tm0 3.079201 1_654
Ge23 Tm3 3.079201 1_655
Ge24 Tm3 3.072160 1_555
Ge24 Tm5 3.079201 1_555
Ge24 Tm2 3.079201 1_455
Ge25 Ge8 2.939296 1_455
Ge25 Ge5 2.939296 1_555
Ge25 Tm0 3.072160 1_555
Ge25 Tm2 3.079201 1_465
Ge25 Tm5 3.079201 1_565
