# generated using pymatgen
data_Ba4Y2Cu5PdO14
_symmetry_space_group_name_H-M   'P 1'
_cell_length_a   12.54879076
_cell_length_b   12.52254419
_cell_length_c   5.51586578
_cell_angle_alpha   77.55665917
_cell_angle_beta   77.02474696
_cell_angle_gamma   25.41859388
_symmetry_Int_Tables_number   1
_chemical_formula_structural   Ba4Y2Cu5PdO14
_chemical_formula_sum   'Ba4 Y2 Cu5 Pd1 O14'
_cell_volume   362.37982967
_cell_formula_units_Z   1
loop_
 _symmetry_equiv_pos_site_id
 _symmetry_equiv_pos_as_xyz
  1  'x, y, z'
loop_
 _atom_site_type_symbol
 _atom_site_label
 _atom_site_symmetry_multiplicity
 _atom_site_fract_x
 _atom_site_fract_y
 _atom_site_fract_z
 _atom_site_occupancy
  Ba  Ba0  1  0.09218600  0.09218600  0.40781400  1
  Ba  Ba1  1  0.59218600  0.59218600  0.90781400  1
  Ba  Ba2  1  0.40781400  0.40781400  0.09218600  1
  Ba  Ba3  1  0.90781400  0.90781400  0.59218600  1
  Y  Y0  1  0.25000000  0.25000000  0.25000000  1
  Y  Y1  1  0.75000000  0.75000000  0.75000000  1
  Cu  Cu0  1  0.67847300  0.67847300  0.32152700  1
  Cu  Cu1  1  0.17830400  0.17830400  0.82169600  1
  Cu  Cu2  1  0.82169600  0.82169600  0.17830400  1
  Cu  Cu3  1  0.32152700  0.32152700  0.67847300  1
  Cu  Cu4  1  0.00000000  0.00000000  0.00000000  1
  Pd  Pd0  1  0.50000000  0.50000000  0.50000000  1
  O  O0  1  0.58478600  0.58478600  0.41521400  1
  O  O1  1  0.08011600  0.08011600  0.91988400  1
  O  O2  1  0.91988400  0.91988400  0.08011600  1
  O  O3  1  0.41521400  0.41521400  0.58478600  1
  O  O4  1  0.24032200  0.75967800  0.24032200  1
  O  O5  1  0.75967800  0.24032200  0.75967800  1
  O  O6  1  0.43931000  0.94073000  0.56069000  1
  O  O7  1  0.94073000  0.43931000  0.05927000  1
  O  O8  1  0.56069000  0.05927000  0.43931000  1
  O  O9  1  0.05927000  0.56069000  0.94073000  1
  O  O10  1  0.94042900  0.43915300  0.56084700  1
  O  O11  1  0.43915300  0.94042900  0.05957100  1
  O  O12  1  0.05957100  0.56084700  0.43915300  1
  O  O13  1  0.56084700  0.05957100  0.94042900  1
loop_
_geom_bond_atom_site_label_1
_geom_bond_atom_site_label_2
_geom_bond_distance
_geom_bond_site_symmetry_2
Ba0 O0 2.763563 1_545
Ba0 O0 2.763563 1_455
Ba0 O1 2.772887 1_554
Ba0 O1 2.772887 1_555
Ba0 O4 2.924264 1_545
Ba0 O5 2.924264 1_455
Ba0 O10 3.021492 1_455
Ba0 O11 3.021492 1_545
Ba0 O6 3.052759 1_545
Ba0 O7 3.052759 1_455
Ba1 O0 2.763563 1_555
Ba1 O0 2.763563 1_556
Ba1 O1 2.772887 1_655
Ba1 O1 2.772887 1_565
Ba1 O4 2.924264 1_556
Ba1 O5 2.924264 1_555
Ba1 O10 3.021492 1_555
Ba1 O11 3.021492 1_556
Ba1 O6 3.052759 1_555
Ba1 O7 3.052759 1_556
Ba2 O3 2.763563 1_554
Ba2 O3 2.763563 1_555
Ba2 O2 2.772887 1_545
Ba2 O2 2.772887 1_455
Ba2 O4 2.924264 1_555
Ba2 O5 2.924264 1_554
Ba2 O12 3.021492 1_555
Ba2 O13 3.021492 1_554
Ba2 O9 3.052759 1_554
Ba2 O8 3.052759 1_555
Ba3 O3 2.763563 1_655
Ba3 O3 2.763563 1_565
Ba3 O2 2.772887 1_555
Ba3 O2 2.772887 1_556
Ba3 O4 2.924264 1_655
Ba3 O5 2.924264 1_565
Ba3 O12 3.021492 1_655
Ba3 O13 3.021492 1_565
Ba3 O8 3.052759 1_565
Ba3 O9 3.052759 1_655
Cu0 O6 1.953894 1_555
Cu0 O7 1.953894 1_555
Cu0 O10 1.994475 1_555
Cu0 O11 1.994475 1_555
Cu0 O0 2.232274 1_555
Cu1 O7 1.943622 1_456
Cu1 O6 1.943622 1_545
Cu1 O11 1.985059 1_546
Cu1 O10 1.985059 1_455
Cu1 O1 2.339519 1_555
Cu2 O8 1.943622 1_565
Cu2 O9 1.943622 1_654
Cu2 O12 1.985059 1_655
Cu2 O13 1.985059 1_564
Cu2 O2 2.339519 1_555
Cu3 O9 1.953894 1_555
Cu3 O8 1.953894 1_555
Cu3 O13 1.994475 1_555
Cu3 O12 1.994475 1_555
Cu3 O3 2.232274 1_555
Cu4 O4 1.894823 1_545
Cu4 O5 1.894823 1_454
Cu4 O2 1.908919 1_445
Cu4 O1 1.908919 1_554
O0 Pd0 2.020191 1_555
O3 Pd0 2.020191 1_555
O4 Pd0 2.047436 1_555
O5 Pd0 2.047436 1_555
O6 Y0 2.434712 1_565
O6 Y1 2.434712 1_555
O7 Y1 2.434712 1_554
O7 Y0 2.434712 1_655
O8 Y1 2.434712 1_545
O8 Y0 2.434712 1_555
O9 Y1 2.434712 1_455
O9 Y0 2.434712 1_556
O10 Y0 2.403941 1_655
O10 Y1 2.403941 1_555
O11 Y1 2.403941 1_554
O11 Y0 2.403941 1_565
O12 Y1 2.403941 1_455
O12 Y0 2.403941 1_555
O13 Y1 2.403941 1_545
O13 Y0 2.403941 1_556
