# generated using pymatgen
data_Sr3Co3N5
_symmetry_space_group_name_H-M   'P 1'
_cell_length_a   5.62619786
_cell_length_b   7.52727898
_cell_length_c   8.42669912
_cell_angle_alpha   110.67846110
_cell_angle_beta   103.91522837
_cell_angle_gamma   99.66487610
_symmetry_Int_Tables_number   1
_chemical_formula_structural   Sr3Co3N5
_chemical_formula_sum   'Sr6 Co6 N10'
_cell_volume   311.27017009
_cell_formula_units_Z   2
loop_
 _symmetry_equiv_pos_site_id
 _symmetry_equiv_pos_as_xyz
  1  'x, y, z'
loop_
 _atom_site_type_symbol
 _atom_site_label
 _atom_site_symmetry_multiplicity
 _atom_site_fract_x
 _atom_site_fract_y
 _atom_site_fract_z
 _atom_site_occupancy
  Sr  Sr0  1  0.77196100  0.42697900  0.59609500  1
  Sr  Sr1  1  0.22803900  0.57302100  0.40390500  1
  Sr  Sr2  1  0.66648300  0.85499300  0.88541100  1
  Sr  Sr3  1  0.33351700  0.14500700  0.11458900  1
  Sr  Sr4  1  0.69838000  0.68591900  0.22855500  1
  Sr  Sr5  1  0.30162000  0.31408100  0.77144500  1
  Co  Co0  1  0.90587400  0.32273800  0.98631100  1
  Co  Co1  1  0.09412600  0.67726200  0.01368900  1
  Co  Co2  1  0.67580900  0.97668100  0.58807100  1
  Co  Co3  1  0.32419100  0.02331900  0.41192900  1
  Co  Co4  1  0.08317000  0.87765900  0.69721500  1
  Co  Co5  1  0.91683000  0.12234100  0.30278500  1
  N  N0  1  0.93459900  0.09744300  0.80933300  1
  N  N1  1  0.06540100  0.90255700  0.19066700  1
  N  N2  1  0.73203100  0.72716100  0.55400600  1
  N  N3  1  0.26796900  0.27283900  0.44599400  1
  N  N4  1  0.75871600  0.50550700  0.91229100  1
  N  N5  1  0.24128400  0.49449300  0.08770900  1
  N  N6  1  0.33591300  0.95237200  0.60542900  1
  N  N7  1  0.66408700  0.04762800  0.39457100  1
  N  N8  1  0.18144600  0.74901400  0.84360400  1
  N  N9  1  0.81855400  0.25098600  0.15639600  1
loop_
_geom_bond_atom_site_label_1
_geom_bond_atom_site_label_2
_geom_bond_distance
_geom_bond_site_symmetry_2
Co0 N9 1.839445 1_556
Co0 N0 1.883595 1_555
Co0 N5 1.894133 1_656
Co0 N4 1.925449 1_555
Co1 N8 1.839445 1_554
Co1 N1 1.883595 1_555
Co1 N4 1.894133 1_454
Co1 N5 1.925449 1_555
Co2 N0 1.864281 1_565
Co2 N7 1.877068 1_565
Co2 N2 1.890106 1_555
Co2 N6 1.935923 1_555
Co3 N1 1.864281 1_545
Co3 N6 1.877068 1_545
Co3 N3 1.890106 1_555
Co3 N7 1.935923 1_555
Co4 N8 1.860236 1_555
Co4 N6 1.871955 1_555
Co4 N2 1.943942 1_455
Co4 N0 2.017071 1_465
Co5 N9 1.860236 1_555
Co5 N7 1.871955 1_555
Co5 N3 1.943942 1_655
Co5 N1 2.017071 1_645
N0 Sr2 2.526684 1_545
N0 Sr5 2.564996 1_655
N0 Sr3 2.843450 1_656
N1 Sr3 2.526684 1_565
N1 Sr4 2.564996 1_455
N1 Sr2 2.843450 1_454
N2 Sr0 2.445393 1_555
N2 Sr4 2.604353 1_555
N2 Sr1 2.668384 1_555
N2 Sr2 2.752722 1_555
N3 Sr1 2.445393 1_555
N3 Sr5 2.604353 1_555
N3 Sr0 2.668384 1_555
N3 Sr3 2.752722 1_555
N4 Sr5 2.485658 1_555
N4 Sr0 2.540161 1_555
N4 Sr4 2.663806 1_556
N4 Sr2 2.839669 1_555
N5 Sr4 2.485658 1_555
N5 Sr1 2.540161 1_555
N5 Sr5 2.663806 1_554
N5 Sr3 2.839669 1_555
N6 Sr1 2.627478 1_555
N6 Sr5 2.650188 1_565
N6 Sr2 3.021814 1_555
N7 Sr0 2.627478 1_555
N7 Sr4 2.650188 1_545
N7 Sr3 3.021814 1_555
N8 Sr2 2.610676 1_555
N8 Sr0 2.788705 1_455
N8 Sr3 2.868483 1_566
N9 Sr3 2.610676 1_555
N9 Sr1 2.788705 1_655
N9 Sr2 2.868483 1_544
