# generated using pymatgen
data_Yb5As3
_symmetry_space_group_name_H-M   'P 1'
_cell_length_a   8.49148772
_cell_length_b   8.49148772
_cell_length_c   6.67274900
_cell_angle_alpha   90.00000000
_cell_angle_beta   90.00000000
_cell_angle_gamma   119.99999781
_symmetry_Int_Tables_number   1
_chemical_formula_structural   Yb5As3
_chemical_formula_sum   'Yb10 As6'
_cell_volume   416.68033231
_cell_formula_units_Z   2
loop_
 _symmetry_equiv_pos_site_id
 _symmetry_equiv_pos_as_xyz
  1  'x, y, z'
loop_
 _atom_site_type_symbol
 _atom_site_label
 _atom_site_symmetry_multiplicity
 _atom_site_fract_x
 _atom_site_fract_y
 _atom_site_fract_z
 _atom_site_occupancy
  Yb  Yb0  1  0.33333300  0.66666700  0.00000000  1
  Yb  Yb1  1  0.66666700  0.33333300  0.00000000  1
  Yb  Yb2  1  0.66666700  0.33333300  0.50000000  1
  Yb  Yb3  1  0.33333300  0.66666700  0.50000000  1
  Yb  Yb4  1  0.25568600  0.00000000  0.25000000  1
  Yb  Yb5  1  0.74431400  0.00000000  0.75000000  1
  Yb  Yb6  1  0.00000000  0.25568600  0.25000000  1
  Yb  Yb7  1  0.00000000  0.74431400  0.75000000  1
  Yb  Yb8  1  0.74431400  0.74431400  0.25000000  1
  Yb  Yb9  1  0.25568600  0.25568600  0.75000000  1
  As  As0  1  0.61003400  0.00000000  0.25000000  1
  As  As1  1  0.38996600  0.00000000  0.75000000  1
  As  As2  1  0.00000000  0.61003400  0.25000000  1
  As  As3  1  0.00000000  0.38996600  0.75000000  1
  As  As4  1  0.38996600  0.38996600  0.25000000  1
  As  As5  1  0.61003400  0.61003400  0.75000000  1
loop_
_geom_bond_atom_site_label_1
_geom_bond_atom_site_label_2
_geom_bond_distance
_geom_bond_site_symmetry_2
As0 Yb8 2.913706 1_545
As0 Yb6 2.913706 1_655
As0 Yb4 3.008942 1_555
As0 Yb1 3.108798 1_555
As0 Yb2 3.108798 1_555
As0 Yb0 3.108800 1_545
As0 Yb3 3.108800 1_545
As0 Yb5 3.525838 1_554
As0 Yb5 3.525838 1_555
As1 Yb9 2.913706 1_555
As1 Yb7 2.913706 1_545
As1 Yb5 3.008942 1_555
As1 Yb3 3.108798 1_545
As1 Yb0 3.108798 1_546
As1 Yb1 3.108800 1_556
As1 Yb2 3.108800 1_555
As1 Yb4 3.525838 1_555
As1 Yb4 3.525838 1_556
As2 Yb8 2.913706 1_455
As2 Yb4 2.913706 1_565
As2 Yb6 3.008942 1_555
As2 Yb3 3.108798 1_555
As2 Yb0 3.108798 1_555
As2 Yb2 3.108800 1_455
As2 Yb1 3.108800 1_455
As2 Yb7 3.525838 1_554
As2 Yb7 3.525838 1_555
As3 Yb9 2.913706 1_555
As3 Yb5 2.913706 1_455
As3 Yb7 3.008942 1_555
As3 Yb1 3.108798 1_456
As3 Yb2 3.108798 1_455
As3 Yb3 3.108800 1_555
As3 Yb0 3.108800 1_556
As3 Yb6 3.525838 1_555
As3 Yb6 3.525838 1_556
As4 Yb6 2.913706 1_555
As4 Yb4 2.913706 1_555
As4 Yb8 3.008942 1_555
As4 Yb2 3.108805 1_555
As4 Yb3 3.108805 1_555
As4 Yb0 3.108805 1_555
As4 Yb1 3.108805 1_555
As4 Yb9 3.525838 1_554
As4 Yb9 3.525838 1_555
As5 Yb5 2.913706 1_565
As5 Yb7 2.913706 1_655
As5 Yb9 3.008942 1_555
As5 Yb2 3.108805 1_555
As5 Yb3 3.108805 1_555
As5 Yb0 3.108805 1_556
As5 Yb1 3.108805 1_556
As5 Yb8 3.525838 1_555
As5 Yb8 3.525838 1_556
