# generated using pymatgen
data_Mn2CrAs3
_symmetry_space_group_name_H-M   'P 1'
_cell_length_a   3.43451400
_cell_length_b   5.57286800
_cell_length_c   18.27033749
_cell_angle_alpha   89.88239051
_cell_angle_beta   90.00000000
_cell_angle_gamma   90.00000000
_symmetry_Int_Tables_number   1
_chemical_formula_structural   Mn2CrAs3
_chemical_formula_sum   'Mn8 Cr4 As12'
_cell_volume   349.69522503
_cell_formula_units_Z   4
loop_
 _symmetry_equiv_pos_site_id
 _symmetry_equiv_pos_as_xyz
  1  'x, y, z'
loop_
 _atom_site_type_symbol
 _atom_site_label
 _atom_site_symmetry_multiplicity
 _atom_site_fract_x
 _atom_site_fract_y
 _atom_site_fract_z
 _atom_site_occupancy
  Mn  Mn0  1  0.50000000  0.00266000  0.39661800  1
  Mn  Mn1  1  0.50000000  0.00233400  0.06439300  1
  Mn  Mn2  1  0.00000000  0.49637700  0.89873600  1
  Mn  Mn3  1  0.00000000  0.49772200  0.56437400  1
  Mn  Mn4  1  0.00000000  0.49761500  0.23072500  1
  Mn  Mn5  1  0.00000000  0.99621900  0.93696900  1
  Mn  Mn6  1  0.00000000  0.99688900  0.60037100  1
  Mn  Mn7  1  0.00000000  0.99689100  0.26897400  1
  Cr  Cr0  1  0.50000000  0.50378800  0.76851200  1
  Cr  Cr1  1  0.50000000  0.50324300  0.43477500  1
  Cr  Cr2  1  0.50000000  0.50361500  0.10243400  1
  Cr  Cr3  1  0.50000000  0.00440800  0.73162400  1
  As  As0  1  0.50000000  0.69798500  0.97384400  1
  As  As1  1  0.50000000  0.70079300  0.63921600  1
  As  As2  1  0.50000000  0.69828500  0.30602400  1
  As  As3  1  0.50000000  0.20005100  0.86062400  1
  As  As4  1  0.50000000  0.19848400  0.52654000  1
  As  As5  1  0.50000000  0.19929600  0.19396000  1
  As  As6  1  0.00000000  0.29943400  0.69262600  1
  As  As7  1  0.00000000  0.29923400  0.35977900  1
  As  As8  1  0.00000000  0.29970100  0.02785500  1
  As  As9  1  0.00000000  0.79828000  0.80723700  1
  As  As10  1  0.00000000  0.80375100  0.47322000  1
  As  As11  1  0.00000000  0.80294500  0.14056900  1
loop_
_geom_bond_atom_site_label_1
_geom_bond_atom_site_label_2
_geom_bond_distance
_geom_bond_site_symmetry_2
As0 Mn1 2.371745 1_566
As0 Mn2 2.469959 1_655
As0 Mn2 2.469959 1_555
As0 Mn5 2.482051 1_555
As0 Mn5 2.482051 1_655
As0 Cr2 2.585047 1_556
As1 Cr3 2.392709 1_565
As1 Mn3 2.470990 1_555
As1 Mn3 2.470990 1_655
As1 Mn6 2.484089 1_555
As1 Mn6 2.484089 1_655
As1 Cr0 2.602897 1_555
As2 Mn0 2.372423 1_565
As2 Mn4 2.469525 1_655
As2 Mn4 2.469525 1_555
As2 Mn7 2.484304 1_655
As2 Mn7 2.484304 1_555
As2 Cr1 2.589281 1_555
As3 Cr0 2.384471 1_555
As3 Mn2 2.483068 1_555
As3 Mn2 2.483068 1_655
As3 Mn5 2.485640 1_645
As3 Mn5 2.485640 1_545
As3 Cr3 2.598873 1_555
As4 Cr1 2.384056 1_555
As4 Mn6 2.454485 1_545
As4 Mn6 2.454485 1_645
As4 Mn3 2.492479 1_655
As4 Mn3 2.492479 1_555
As4 Mn0 2.614596 1_555
As5 Cr2 2.379249 1_555
As5 Mn7 2.468463 1_545
As5 Mn7 2.468463 1_645
As5 Mn4 2.483673 1_555
As5 Mn4 2.483673 1_655
As5 Mn1 2.611375 1_555
As6 Mn6 2.386508 1_545
As6 Cr3 2.480933 1_455
As6 Cr3 2.480933 1_555
As6 Cr0 2.484891 1_455
As6 Cr0 2.484891 1_555
As6 Mn3 2.588646 1_555
As7 Mn7 2.367030 1_545
As7 Cr1 2.474954 1_455
As7 Cr1 2.474954 1_555
As7 Mn0 2.475693 1_455
As7 Mn0 2.475693 1_555
As7 Mn4 2.602123 1_555
As8 Mn5 2.372599 1_544
As8 Cr2 2.470493 1_455
As8 Cr2 2.470493 1_555
As8 Mn1 2.477163 1_555
As8 Mn1 2.477163 1_455
As8 Mn2 2.599195 1_554
As9 Mn2 2.369342 1_555
As9 Cr0 2.479464 1_455
As9 Cr0 2.479464 1_555
As9 Cr3 2.484049 1_565
As9 Cr3 2.484049 1_465
As9 Mn5 2.616412 1_555
As10 Mn3 2.381289 1_555
As10 Mn0 2.475901 1_565
As10 Mn0 2.475901 1_465
As10 Cr1 2.500352 1_455
As10 Cr1 2.500352 1_555
As10 Mn6 2.562325 1_555
As11 Mn4 2.365801 1_555
As11 Mn1 2.472715 1_465
As11 Mn1 2.472715 1_565
As11 Cr2 2.494361 1_455
As11 Cr2 2.494361 1_555
As11 Mn7 2.585023 1_555
