# generated using pymatgen
data_BMoW
_symmetry_space_group_name_H-M   'P 1'
_cell_length_a   5.57767352
_cell_length_b   4.62099275
_cell_length_c   4.60017522
_cell_angle_alpha   74.43961560
_cell_angle_beta   52.95048158
_cell_angle_gamma   52.60990282
_symmetry_Int_Tables_number   1
_chemical_formula_structural   BMoW
_chemical_formula_sum   'B2 Mo2 W2'
_cell_volume   74.28920106
_cell_formula_units_Z   2
loop_
 _symmetry_equiv_pos_site_id
 _symmetry_equiv_pos_as_xyz
  1  'x, y, z'
loop_
 _atom_site_type_symbol
 _atom_site_label
 _atom_site_symmetry_multiplicity
 _atom_site_fract_x
 _atom_site_fract_y
 _atom_site_fract_z
 _atom_site_occupancy
  B  B0  1  0.75000000  0.75000000  0.75000000  1
  B  B1  1  0.25000000  0.25000000  0.25000000  1
  Mo  Mo0  1  0.33064300  0.66935700  0.33064300  1
  Mo  Mo1  1  0.66935700  0.33064300  0.66935700  1
  W  W0  1  0.16872500  0.16872500  0.83127500  1
  W  W1  1  0.83127500  0.83127500  0.16872500  1
loop_
_geom_bond_atom_site_label_1
_geom_bond_atom_site_label_2
_geom_bond_distance
_geom_bond_site_symmetry_2
B0 W0 2.388294 1_655
B0 W1 2.388294 1_556
B0 W0 2.388294 1_565
B0 W1 2.388294 1_555
B0 Mo1 2.395942 1_555
B0 Mo0 2.395942 1_556
B0 Mo1 2.395942 1_565
B0 Mo0 2.395942 1_655
B1 W0 2.388294 1_555
B1 W0 2.388294 1_554
B1 W1 2.388294 1_545
B1 W1 2.388294 1_455
B1 Mo1 2.395942 1_554
B1 Mo0 2.395942 1_545
B1 Mo0 2.395942 1_555
B1 Mo1 2.395942 1_455
Mo0 Mo1 2.663528 1_555
Mo0 Mo1 2.703876 1_554
Mo0 Mo1 2.703876 1_465
Mo0 W1 2.922765 1_455
Mo0 W0 2.922765 1_564
Mo0 W1 2.940075 1_555
Mo0 W0 2.940075 1_555
Mo0 W1 3.042730 1_545
Mo0 W1 3.042730 1_456
Mo0 W0 3.042730 1_565
Mo0 W0 3.042730 1_654
Mo1 W1 2.922765 1_546
Mo1 W0 2.922765 1_655
Mo1 W1 2.940075 1_555
Mo1 W0 2.940075 1_555
Mo1 W1 3.042730 1_545
Mo1 W1 3.042730 1_456
Mo1 W0 3.042730 1_565
Mo1 W0 3.042730 1_654
