# generated using pymatgen
data_ScSb3
_symmetry_space_group_name_H-M   'P 1'
_cell_length_a   6.49341358
_cell_length_b   6.49341358
_cell_length_c   5.66455000
_cell_angle_alpha   90.00000000
_cell_angle_beta   90.00000000
_cell_angle_gamma   119.99999575
_symmetry_Int_Tables_number   1
_chemical_formula_structural   ScSb3
_chemical_formula_sum   'Sc2 Sb6'
_cell_volume   206.84365113
_cell_formula_units_Z   2
loop_
 _symmetry_equiv_pos_site_id
 _symmetry_equiv_pos_as_xyz
  1  'x, y, z'
loop_
 _atom_site_type_symbol
 _atom_site_label
 _atom_site_symmetry_multiplicity
 _atom_site_fract_x
 _atom_site_fract_y
 _atom_site_fract_z
 _atom_site_occupancy
  Sc  Sc0  1  0.33333300  0.66666700  0.75000000  1
  Sc  Sc1  1  0.66666700  0.33333300  0.25000000  1
  Sb  Sb0  1  0.17633900  0.35267800  0.25000000  1
  Sb  Sb1  1  0.64732200  0.82366100  0.25000000  1
  Sb  Sb2  1  0.17633900  0.82366100  0.25000000  1
  Sb  Sb3  1  0.82366100  0.64732200  0.75000000  1
  Sb  Sb4  1  0.35267800  0.17633900  0.75000000  1
  Sb  Sb5  1  0.82366100  0.17633900  0.75000000  1
loop_
_geom_bond_atom_site_label_1
_geom_bond_atom_site_label_2
_geom_bond_distance
_geom_bond_site_symmetry_2
Sb0 Sc1 3.248526 1_455
Sb0 Sc1 3.248532 1_555
Sb0 Sc0 3.337588 1_554
Sb0 Sc0 3.337588 1_555
Sb1 Sc1 3.248526 1_565
Sb1 Sc1 3.248532 1_555
Sb1 Sc0 3.337588 1_555
Sb1 Sc0 3.337588 1_554
Sb2 Sc1 3.248529 1_455
Sb2 Sc1 3.248529 1_565
Sb2 Sc0 3.337585 1_555
Sb2 Sc0 3.337585 1_554
Sb3 Sc0 3.248526 1_655
Sb3 Sc0 3.248532 1_555
Sb3 Sc1 3.337588 1_555
Sb3 Sc1 3.337588 1_556
Sb4 Sc0 3.248526 1_545
Sb4 Sc0 3.248532 1_555
Sb4 Sc1 3.337588 1_555
Sb4 Sc1 3.337588 1_556
Sb5 Sc0 3.248529 1_545
Sb5 Sc0 3.248529 1_655
Sb5 Sc1 3.337585 1_555
Sb5 Sc1 3.337585 1_556
