# generated using pymatgen
data_BaFe4Sn2O11
_symmetry_space_group_name_H-M   'P 1'
_cell_length_a   6.06210212
_cell_length_b   6.06210212
_cell_length_c   13.76946600
_cell_angle_alpha   90.00000000
_cell_angle_beta   90.00000000
_cell_angle_gamma   119.20123501
_symmetry_Int_Tables_number   1
_chemical_formula_structural   BaFe4Sn2O11
_chemical_formula_sum   'Ba2 Fe8 Sn4 O22'
_cell_volume   441.70654963
_cell_formula_units_Z   2
loop_
 _symmetry_equiv_pos_site_id
 _symmetry_equiv_pos_as_xyz
  1  'x, y, z'
loop_
 _atom_site_type_symbol
 _atom_site_label
 _atom_site_symmetry_multiplicity
 _atom_site_fract_x
 _atom_site_fract_y
 _atom_site_fract_z
 _atom_site_occupancy
  Ba  Ba0  1  0.66386800  0.33613200  0.75000000  1
  Ba  Ba1  1  0.33613200  0.66386800  0.25000000  1
  Fe  Fe0  1  0.50000000  0.50000000  0.00000000  1
  Fe  Fe1  1  0.50000000  0.50000000  0.50000000  1
  Fe  Fe2  1  0.66408000  0.33592000  0.25000000  1
  Fe  Fe3  1  0.33592000  0.66408000  0.75000000  1
  Fe  Fe4  1  0.00214500  0.99785500  0.85119300  1
  Fe  Fe5  1  0.99785500  0.00214500  0.14880700  1
  Fe  Fe6  1  0.00214500  0.99785500  0.64880700  1
  Fe  Fe7  1  0.99785500  0.00214500  0.35119300  1
  Sn  Sn0  1  0.50000000  0.00000000  0.00000000  1
  Sn  Sn1  1  0.00000000  0.50000000  0.00000000  1
  Sn  Sn2  1  0.50000000  0.00000000  0.50000000  1
  Sn  Sn3  1  0.00000000  0.50000000  0.50000000  1
  O  O0  1  0.84822600  0.15177400  0.25000000  1
  O  O1  1  0.15177400  0.84822600  0.75000000  1
  O  O2  1  0.65465700  0.82311400  0.08137100  1
  O  O3  1  0.82311400  0.65465700  0.91862900  1
  O  O4  1  0.65465700  0.82311400  0.41862900  1
  O  O5  1  0.82311400  0.65465700  0.58137100  1
  O  O6  1  0.34534300  0.17688600  0.91862900  1
  O  O7  1  0.17688600  0.34534300  0.08137100  1
  O  O8  1  0.34534300  0.17688600  0.58137100  1
  O  O9  1  0.17688600  0.34534300  0.41862900  1
  O  O10  1  0.66480300  0.33519700  0.41580200  1
  O  O11  1  0.33519700  0.66480300  0.58419800  1
  O  O12  1  0.66480300  0.33519700  0.08419800  1
  O  O13  1  0.33519700  0.66480300  0.91580200  1
  O  O14  1  0.82683000  0.17317000  0.58333300  1
  O  O15  1  0.17317000  0.82683000  0.41666700  1
  O  O16  1  0.82683000  0.17317000  0.91666700  1
  O  O17  1  0.17317000  0.82683000  0.08333300  1
  O  O18  1  0.69914100  0.85252100  0.75000000  1
  O  O19  1  0.85252100  0.69914100  0.25000000  1
  O  O20  1  0.30085900  0.14747900  0.25000000  1
  O  O21  1  0.14747900  0.30085900  0.75000000  1
loop_
_geom_bond_atom_site_label_1
_geom_bond_atom_site_label_2
_geom_bond_distance
_geom_bond_site_symmetry_2
Ba0 O16 2.858456 1_555
Ba0 O14 2.858456 1_555
Ba0 O6 2.869308 1_555
Ba0 O8 2.869308 1_555
Ba0 O5 2.869308 1_555
Ba0 O3 2.869308 1_555
Ba0 O21 3.031832 1_555
Ba0 O18 3.031832 1_555
Ba0 O21 3.041754 1_655
Ba0 O18 3.041754 1_545
Ba0 O1 3.070178 1_655
Ba0 O1 3.070178 1_545
Ba1 O17 2.858456 1_555
Ba1 O15 2.858456 1_555
Ba1 O9 2.869308 1_555
Ba1 O7 2.869308 1_555
Ba1 O4 2.869308 1_555
Ba1 O2 2.869308 1_555
Ba1 O20 3.031832 1_555
Ba1 O19 3.031832 1_555
Ba1 O20 3.041754 1_565
Ba1 O19 3.041754 1_455
Ba1 O0 3.070178 1_565
Ba1 O0 3.070178 1_455
Fe0 O6 2.044302 1_554
Fe0 O7 2.044302 1_555
Fe0 O2 2.044302 1_555
Fe0 O3 2.044302 1_554
Fe0 O12 2.077075 1_555
Fe0 O13 2.077075 1_554
Fe1 O8 2.044302 1_555
Fe1 O5 2.044302 1_555
Fe1 O9 2.044302 1_555
Fe1 O4 2.044302 1_555
Fe1 O10 2.077075 1_555
Fe1 O11 2.077075 1_555
Fe2 O19 1.923255 1_555
Fe2 O20 1.923255 1_555
Fe2 O0 1.925681 1_555
Fe2 O10 2.283018 1_555
Fe2 O12 2.283018 1_555
Fe3 O18 1.923255 1_555
Fe3 O21 1.923255 1_555
Fe3 O1 1.925681 1_555
Fe3 O11 2.283018 1_555
Fe3 O13 2.283018 1_555
Fe4 O6 2.040920 1_565
Fe4 O3 2.040920 1_455
Fe4 O16 2.043008 1_465
Fe4 O1 2.095197 1_555
Fe4 O18 2.124290 1_455
Fe4 O21 2.124290 1_565
Fe5 O2 2.040920 1_545
Fe5 O7 2.040920 1_655
Fe5 O17 2.043008 1_645
Fe5 O0 2.095197 1_555
Fe5 O20 2.124290 1_655
Fe5 O19 2.124290 1_545
Fe6 O8 2.040920 1_565
Fe6 O5 2.040920 1_455
Fe6 O14 2.043008 1_465
Fe6 O1 2.095197 1_555
Fe6 O18 2.124290 1_455
Fe6 O21 2.124290 1_565
Fe7 O9 2.040920 1_655
Fe7 O4 2.040920 1_545
Fe7 O15 2.043008 1_645
Fe7 O0 2.095197 1_555
Fe7 O19 2.124290 1_545
Fe7 O20 2.124290 1_655
O2 Sn0 2.065226 1_565
O3 Sn1 2.065226 1_656
O4 Sn2 2.065226 1_565
O5 Sn3 2.065226 1_655
O6 Sn0 2.065226 1_556
O7 Sn1 2.065226 1_555
O8 Sn2 2.065226 1_555
O9 Sn3 2.065226 1_555
O10 Sn3 2.119053 1_655
O10 Sn2 2.119053 1_555
O11 Sn2 2.119053 1_565
O11 Sn3 2.119053 1_555
O12 Sn1 2.119053 1_655
O12 Sn0 2.119053 1_555
O13 Sn0 2.119053 1_566
O13 Sn1 2.119053 1_556
O14 Sn2 2.077175 1_555
O14 Sn3 2.077175 1_655
O15 Sn3 2.077175 1_555
O15 Sn2 2.077175 1_565
O16 Sn0 2.077175 1_556
O16 Sn1 2.077175 1_656
O17 Sn1 2.077175 1_555
O17 Sn0 2.077175 1_565
