# generated using pymatgen
data_LaPO4
_symmetry_space_group_name_H-M   'P 1'
_cell_length_a   6.05286187
_cell_length_b   6.05286187
_cell_length_c   6.05286187
_cell_angle_alpha   105.94203473
_cell_angle_beta   105.94203473
_cell_angle_gamma   116.78671440
_symmetry_Int_Tables_number   1
_chemical_formula_structural   LaPO4
_chemical_formula_sum   'La2 P2 O8'
_cell_volume   168.59804228
_cell_formula_units_Z   2
loop_
 _symmetry_equiv_pos_site_id
 _symmetry_equiv_pos_as_xyz
  1  'x, y, z'
loop_
 _atom_site_type_symbol
 _atom_site_label
 _atom_site_symmetry_multiplicity
 _atom_site_fract_x
 _atom_site_fract_y
 _atom_site_fract_z
 _atom_site_occupancy
  La  La0  1  0.25000000  0.75000000  0.50000000  1
  La  La1  1  0.00000000  0.00000000  0.00000000  1
  P  P0  1  0.50000000  0.50000000  0.00000000  1
  P  P1  1  0.75000000  0.25000000  0.50000000  1
  O  O0  1  0.48225000  0.65084100  0.83141000  1
  O  O1  1  0.90084100  0.23225000  0.33141000  1
  O  O2  1  0.90084100  0.56943100  0.66859000  1
  O  O3  1  0.81943100  0.65084100  0.16859000  1
  O  O4  1  0.76775000  0.09915900  0.66859000  1
  O  O5  1  0.34915900  0.51775000  0.16859000  1
  O  O6  1  0.34915900  0.18056900  0.83141000  1
  O  O7  1  0.43056900  0.09915900  0.33141000  1
loop_
_geom_bond_atom_site_label_1
_geom_bond_atom_site_label_2
_geom_bond_distance
_geom_bond_site_symmetry_2
La0 O5 2.496636 1_555
La0 O0 2.496636 1_555
La0 O6 2.496638 1_565
La0 O3 2.496638 1_455
La0 O7 2.533334 1_565
La0 O2 2.533334 1_455
La0 O1 2.533339 1_455
La0 O4 2.533339 1_565
La1 O4 2.496636 1_454
La1 O1 2.496636 1_455
La1 O2 2.496638 1_444
La1 O7 2.496638 1_555
La1 O6 2.533334 1_554
La1 O3 2.533334 1_445
La1 O0 2.533339 1_444
La1 O5 2.533339 1_555
O0 P0 1.557712 1_556
O1 P1 1.557712 1_555
O2 P1 1.557711 1_555
O3 P0 1.557711 1_555
O4 P1 1.557712 1_555
O5 P0 1.557712 1_555
O6 P0 1.557711 1_556
O7 P1 1.557711 1_555
