# generated using pymatgen
data_Re3Cl9O5
_symmetry_space_group_name_H-M   'P 1'
_cell_length_a   10.12288648
_cell_length_b   10.12288648
_cell_length_c   15.53441000
_cell_angle_alpha   90.00000000
_cell_angle_beta   90.00000000
_cell_angle_gamma   120.67559586
_symmetry_Int_Tables_number   1
_chemical_formula_structural   Re3Cl9O5
_chemical_formula_sum   'Re6 Cl18 O10'
_cell_volume   1369.10614442
_cell_formula_units_Z   2
loop_
 _symmetry_equiv_pos_site_id
 _symmetry_equiv_pos_as_xyz
  1  'x, y, z'
loop_
 _atom_site_type_symbol
 _atom_site_label
 _atom_site_symmetry_multiplicity
 _atom_site_fract_x
 _atom_site_fract_y
 _atom_site_fract_z
 _atom_site_occupancy
  Re  Re0  1  0.39188900  0.45689500  0.25000000  1
  Re  Re1  1  0.06325300  0.60294600  0.25000000  1
  Re  Re2  1  0.53961800  0.93460400  0.25000000  1
  Re  Re3  1  0.45689500  0.39188900  0.75000000  1
  Re  Re4  1  0.60294600  0.06325300  0.75000000  1
  Re  Re5  1  0.93460400  0.53961800  0.75000000  1
  Cl  Cl0  1  0.50278100  0.39221500  0.60694800  1
  Cl  Cl1  1  0.88858500  0.49936700  0.60568500  1
  Cl  Cl2  1  0.61130000  0.11240000  0.60686100  1
  Cl  Cl3  1  0.50278100  0.39221500  0.89305200  1
  Cl  Cl4  1  0.88858500  0.49936700  0.89431500  1
  Cl  Cl5  1  0.61130000  0.11240000  0.89313900  1
  Cl  Cl6  1  0.39221500  0.50278100  0.10694800  1
  Cl  Cl7  1  0.49936700  0.88858500  0.10568500  1
  Cl  Cl8  1  0.11240000  0.61130000  0.10686100  1
  Cl  Cl9  1  0.39221500  0.50278100  0.39305200  1
  Cl  Cl10  1  0.49936700  0.88858500  0.39431500  1
  Cl  Cl11  1  0.11240000  0.61130000  0.39313900  1
  Cl  Cl12  1  0.73762500  0.60531300  0.75000000  1
  Cl  Cl13  1  0.87286900  0.27016500  0.75000000  1
  Cl  Cl14  1  0.39471100  0.12732300  0.75000000  1
  Cl  Cl15  1  0.60531300  0.73762500  0.25000000  1
  Cl  Cl16  1  0.27016500  0.87286900  0.25000000  1
  Cl  Cl17  1  0.12732300  0.39471100  0.25000000  1
  O  O0  1  0.30791800  0.42197400  0.75000000  1
  O  O1  1  0.11752500  0.68741600  0.75000000  1
  O  O2  1  0.56450800  0.88033500  0.75000000  1
  O  O3  1  0.42197400  0.30791800  0.25000000  1
  O  O4  1  0.68741600  0.11752500  0.25000000  1
  O  O5  1  0.88033500  0.56450800  0.25000000  1
  O  O6  1  0.33439500  0.67061500  0.62350300  1
  O  O7  1  0.33439500  0.67061500  0.87649700  1
  O  O8  1  0.67061500  0.33439500  0.12350300  1
  O  O9  1  0.67061500  0.33439500  0.37649700  1
loop_
_geom_bond_atom_site_label_1
_geom_bond_atom_site_label_2
_geom_bond_distance
_geom_bond_site_symmetry_2
Cl0 Re3 2.269913 1_555
Cl1 Re5 2.283690 1_555
Cl2 Re4 2.270693 1_555
Cl3 Re3 2.269913 1_555
Cl4 Re5 2.283690 1_555
Cl5 Re4 2.270693 1_555
Cl6 Re0 2.269913 1_555
Cl7 Re2 2.283690 1_555
Cl8 Re1 2.270693 1_555
Cl9 Re0 2.269913 1_555
Cl10 Re2 2.283690 1_555
Cl11 Re1 2.270693 1_555
Cl12 Re5 2.402357 1_555
Cl12 Re3 2.545361 1_555
Cl13 Re4 2.452246 1_555
Cl13 Re5 2.468052 1_555
Cl14 Re3 2.418404 1_555
Cl14 Re4 2.501806 1_555
Cl15 Re2 2.402357 1_555
Cl15 Re0 2.545361 1_555
Cl16 Re1 2.452246 1_555
Cl16 Re2 2.468052 1_555
Cl17 Re0 2.418404 1_555
Cl17 Re1 2.501806 1_555
O0 Re3 1.683946 1_555
O1 Re5 1.685353 1_455
O2 Re4 1.686680 1_565
O3 Re0 1.683946 1_555
O4 Re2 1.685353 1_545
O5 Re1 1.686680 1_655
