# generated using pymatgen
data_RbGaAgF6
_symmetry_space_group_name_H-M   'P 1'
_cell_length_a   7.25865700
_cell_length_b   7.66434200
_cell_length_c   10.60061800
_cell_angle_alpha   90.00000000
_cell_angle_beta   90.00000000
_cell_angle_gamma   90.00000000
_symmetry_Int_Tables_number   1
_chemical_formula_structural   RbGaAgF6
_chemical_formula_sum   'Rb4 Ga4 Ag4 F24'
_cell_volume   589.74237600
_cell_formula_units_Z   4
loop_
 _symmetry_equiv_pos_site_id
 _symmetry_equiv_pos_as_xyz
  1  'x, y, z'
loop_
 _atom_site_type_symbol
 _atom_site_label
 _atom_site_symmetry_multiplicity
 _atom_site_fract_x
 _atom_site_fract_y
 _atom_site_fract_z
 _atom_site_occupancy
  Rb  Rb0  1  0.01628500  0.25000000  0.63398900  1
  Rb  Rb1  1  0.98371500  0.75000000  0.36601100  1
  Rb  Rb2  1  0.48371500  0.75000000  0.13398900  1
  Rb  Rb3  1  0.51628500  0.25000000  0.86601100  1
  Ga  Ga0  1  0.00000000  0.00000000  0.00000000  1
  Ga  Ga1  1  0.50000000  0.00000000  0.50000000  1
  Ga  Ga2  1  0.00000000  0.50000000  0.00000000  1
  Ga  Ga3  1  0.50000000  0.50000000  0.50000000  1
  Ag  Ag0  1  0.21189800  0.25000000  0.25167700  1
  Ag  Ag1  1  0.78810200  0.75000000  0.74832300  1
  Ag  Ag2  1  0.28810200  0.75000000  0.75167700  1
  Ag  Ag3  1  0.71189800  0.25000000  0.24832300  1
  F  F0  1  0.28152000  0.03469400  0.40559700  1
  F  F1  1  0.71848000  0.96530600  0.59440300  1
  F  F2  1  0.21848000  0.96530600  0.90559700  1
  F  F3  1  0.71848000  0.53469400  0.59440300  1
  F  F4  1  0.78152000  0.03469400  0.09440300  1
  F  F5  1  0.28152000  0.46530600  0.40559700  1
  F  F6  1  0.78152000  0.46530600  0.09440300  1
  F  F7  1  0.21848000  0.53469400  0.90559700  1
  F  F8  1  0.55214900  0.25000000  0.50456300  1
  F  F9  1  0.44785100  0.75000000  0.49543700  1
  F  F10  1  0.94785100  0.75000000  0.00456300  1
  F  F11  1  0.05214900  0.25000000  0.99543700  1
  F  F12  1  0.14066700  0.51729900  0.15291400  1
  F  F13  1  0.85933300  0.48270100  0.84708600  1
  F  F14  1  0.35933300  0.48270100  0.65291400  1
  F  F15  1  0.85933300  0.01729900  0.84708600  1
  F  F16  1  0.64066700  0.51729900  0.34708600  1
  F  F17  1  0.14066700  0.98270100  0.15291400  1
  F  F18  1  0.64066700  0.98270100  0.34708600  1
  F  F19  1  0.35933300  0.01729900  0.65291400  1
  F  F20  1  0.45992400  0.25000000  0.15088300  1
  F  F21  1  0.54007600  0.75000000  0.84911700  1
  F  F22  1  0.04007600  0.75000000  0.65088300  1
  F  F23  1  0.95992400  0.25000000  0.34911700  1
loop_
_geom_bond_atom_site_label_1
_geom_bond_atom_site_label_2
_geom_bond_distance
_geom_bond_site_symmetry_2
Ag0 F20 2.093527 1_555
Ag0 F23 2.100511 1_455
Ag0 F17 2.358068 1_545
Ag0 F12 2.358068 1_555
Ag0 F5 2.375027 1_555
Ag0 F0 2.375027 1_555
Ag1 F21 2.093527 1_555
Ag1 F22 2.100511 1_655
Ag1 F15 2.358068 1_565
Ag1 F13 2.358068 1_555
Ag1 F1 2.375027 1_555
Ag1 F3 2.375027 1_555
Ag2 F22 2.093527 1_555
Ag2 F21 2.100511 1_555
Ag2 F19 2.358068 1_565
Ag2 F14 2.358068 1_555
Ag2 F7 2.375027 1_555
Ag2 F2 2.375027 1_555
Ag3 F23 2.093527 1_555
Ag3 F20 2.100511 1_555
Ag3 F16 2.358068 1_555
Ag3 F18 2.358068 1_545
Ag3 F6 2.375027 1_555
Ag3 F4 2.375027 1_555
F0 Ga1 1.893979 1_555
F0 Rb1 3.099996 1_445
F1 Ga1 1.893979 1_565
F1 Rb0 3.099996 1_665
F2 Ga0 1.893979 1_566
F2 Rb3 3.099996 1_565
F3 Ga3 1.893979 1_555
F3 Rb0 3.099996 1_655
F4 Ga0 1.893979 1_655
F4 Rb2 3.099996 1_545
F5 Ga3 1.893979 1_555
F5 Rb1 3.099996 1_455
F6 Ga2 1.893979 1_655
F6 Rb2 3.099996 1_555
F7 Ga2 1.893979 1_556
F7 Rb3 3.099996 1_555
F8 Ga3 1.953717 1_555
F8 Ga1 1.953717 1_555
F9 Ga3 1.953717 1_555
F9 Ga1 1.953717 1_565
F10 Ga0 1.953717 1_665
F10 Ga2 1.953717 1_655
F11 Ga0 1.953717 1_556
F11 Ga2 1.953717 1_556
F12 Ga2 1.920342 1_555
F12 Rb2 3.069455 1_555
F12 Rb1 3.095430 1_455
F13 Ga2 1.920342 1_656
F13 Rb3 3.069455 1_555
F13 Rb0 3.095430 1_655
F14 Ga3 1.920342 1_555
F14 Rb0 3.069455 1_555
F14 Rb3 3.095430 1_555
F15 Ga0 1.920342 1_656
F15 Rb3 3.069455 1_555
F15 Rb0 3.095430 1_655
F16 Ga3 1.920342 1_555
F16 Rb1 3.069455 1_555
F16 Rb2 3.095430 1_555
F17 Ga0 1.920342 1_565
F17 Rb2 3.069455 1_555
F17 Rb1 3.095430 1_455
F18 Ga1 1.920342 1_565
F18 Rb1 3.069455 1_555
F18 Rb2 3.095430 1_555
F19 Ga1 1.920342 1_555
F19 Rb0 3.069455 1_555
F19 Rb3 3.095430 1_555
F20 Rb3 3.047405 1_554
F21 Rb2 3.047405 1_556
F22 Rb1 3.047405 1_455
F23 Rb0 3.047405 1_655
