# generated using pymatgen
data_ZrSiIr
_symmetry_space_group_name_H-M   'P 1'
_cell_length_a   3.96514459
_cell_length_b   6.56922790
_cell_length_c   7.39564063
_cell_angle_alpha   90.00002766
_cell_angle_beta   90.00000000
_cell_angle_gamma   90.00000000
_symmetry_Int_Tables_number   1
_chemical_formula_structural   ZrSiIr
_chemical_formula_sum   'Zr4 Si4 Ir4'
_cell_volume   192.64119206
_cell_formula_units_Z   4
loop_
 _symmetry_equiv_pos_site_id
 _symmetry_equiv_pos_as_xyz
  1  'x, y, z'
loop_
 _atom_site_type_symbol
 _atom_site_label
 _atom_site_symmetry_multiplicity
 _atom_site_fract_x
 _atom_site_fract_y
 _atom_site_fract_z
 _atom_site_occupancy
  Zr  Zr0  1  0.25000000  0.01678878  0.31744185  1
  Zr  Zr1  1  0.25000000  0.51679467  0.18264320  1
  Zr  Zr2  1  0.75000000  0.98321141  0.68255836  1
  Zr  Zr3  1  0.75000000  0.48321185  0.81735225  1
  Si  Si0  1  0.25000000  0.27936219  0.61724802  1
  Si  Si1  1  0.25000000  0.77938114  0.88273684  1
  Si  Si2  1  0.75000000  0.72063489  0.38275532  1
  Si  Si3  1  0.75000000  0.22061820  0.11725988  1
  Ir  Ir0  1  0.25000000  0.15134146  0.93338837  1
  Ir  Ir1  1  0.25000000  0.65132870  0.56660004  1
  Ir  Ir2  1  0.75000000  0.84865870  0.06660296  1
  Ir  Ir3  1  0.75000000  0.34866901  0.43341292  1
loop_
_geom_bond_atom_site_label_1
_geom_bond_atom_site_label_2
_geom_bond_distance
_geom_bond_site_symmetry_2
Si0 Zr0 2.809186 1_555
Si0 Zr3 2.813179 1_555
Si0 Zr3 2.813179 1_455
Si0 Zr2 2.819361 1_445
Si0 Zr2 2.819361 1_545
Si1 Zr1 2.809825 1_556
Si1 Zr2 2.813408 1_555
Si1 Zr2 2.813408 1_455
Si1 Zr3 2.819538 1_455
Si1 Zr3 2.819538 1_555
Si2 Zr2 2.809181 1_555
Si2 Zr1 2.813180 1_555
Si2 Zr1 2.813180 1_655
Si2 Zr0 2.819379 1_565
Si2 Zr0 2.819379 1_665
Si3 Zr3 2.809862 1_554
Si3 Zr0 2.813419 1_655
Si3 Zr0 2.813419 1_555
Si3 Zr1 2.819569 1_655
Si3 Zr1 2.819569 1_555
Ir0 Si3 2.446812 1_556
Ir0 Si3 2.446812 1_456
Ir0 Si1 2.472039 1_545
Ir0 Si0 2.484714 1_555
Ir0 Zr2 2.931157 1_545
Ir0 Zr2 2.931157 1_445
Ir0 Zr0 2.974680 1_556
Ir0 Zr1 3.026829 1_556
Ir0 Zr3 3.069204 1_555
Ir0 Zr3 3.069204 1_455
Ir1 Si2 2.446738 1_455
Ir1 Si2 2.446738 1_555
Ir1 Si0 2.472076 1_555
Ir1 Si1 2.484759 1_555
Ir1 Zr3 2.930761 1_455
Ir1 Zr3 2.930761 1_555
Ir1 Zr1 2.973960 1_555
Ir1 Zr0 3.026431 1_565
Ir1 Zr2 3.069100 1_455
Ir1 Zr2 3.069100 1_555
Ir2 Si1 2.446791 1_654
Ir2 Si1 2.446791 1_554
Ir2 Si3 2.472040 1_565
Ir2 Si2 2.484805 1_555
Ir2 Zr0 2.931199 1_565
Ir2 Zr0 2.931199 1_665
Ir2 Zr2 2.974617 1_554
Ir2 Zr3 3.026777 1_554
Ir2 Zr1 3.069183 1_655
Ir2 Zr1 3.069183 1_555
Ir3 Si0 2.446699 1_555
Ir3 Si0 2.446699 1_655
Ir3 Si2 2.472083 1_555
Ir3 Si3 2.484869 1_555
Ir3 Zr1 2.930865 1_555
Ir3 Zr1 2.930865 1_655
Ir3 Zr3 2.973854 1_555
Ir3 Zr2 3.026361 1_545
Ir3 Zr0 3.069115 1_555
Ir3 Zr0 3.069115 1_655
