# generated using pymatgen
data_Cr2NiO4
_symmetry_space_group_name_H-M   'P 1'
_cell_length_a   5.84841080
_cell_length_b   6.01276628
_cell_length_c   5.87476175
_cell_angle_alpha   60.74422480
_cell_angle_beta   90.00158908
_cell_angle_gamma   118.88815003
_symmetry_Int_Tables_number   1
_chemical_formula_structural   Cr2NiO4
_chemical_formula_sum   'Cr4 Ni2 O8'
_cell_volume   150.08346513
_cell_formula_units_Z   2
loop_
 _symmetry_equiv_pos_site_id
 _symmetry_equiv_pos_as_xyz
  1  'x, y, z'
loop_
 _atom_site_type_symbol
 _atom_site_label
 _atom_site_symmetry_multiplicity
 _atom_site_fract_x
 _atom_site_fract_y
 _atom_site_fract_z
 _atom_site_occupancy
  Cr  Cr0  1  0.99999200  0.00000300  0.99999800  1
  Cr  Cr1  1  0.50000000  0.99999500  0.00000500  1
  Cr  Cr2  1  0.99999600  0.49999400  0.50000800  1
  Cr  Cr3  1  0.00000100  0.50000400  0.99999700  1
  Ni  Ni0  1  0.37483100  0.24978100  0.37508700  1
  Ni  Ni1  1  0.62516600  0.75021500  0.62491700  1
  O  O0  1  0.74497800  0.46201100  0.76894700  1
  O  O1  1  0.76803700  0.03723600  0.74425300  1
  O  O2  1  0.76797700  0.03710900  0.21859200  1
  O  O3  1  0.25502600  0.53800900  0.23103900  1
  O  O4  1  0.78173900  0.53634800  0.23186700  1
  O  O5  1  0.23197400  0.96277200  0.25573900  1
  O  O6  1  0.21825700  0.46364000  0.76813400  1
  O  O7  1  0.23202700  0.96288200  0.78141700  1
loop_
_geom_bond_atom_site_label_1
_geom_bond_atom_site_label_2
_geom_bond_distance
_geom_bond_site_symmetry_2
Cr0 O6 2.026486 1_655
Cr0 O4 2.026569 1_546
Cr0 O1 2.027877 1_555
Cr0 O5 2.027974 1_646
Cr0 O2 2.028003 1_556
Cr0 O7 2.028102 1_645
Cr1 O3 2.020098 1_555
Cr1 O0 2.020226 1_564
Cr1 O5 2.024071 1_555
Cr1 O1 2.024122 1_564
Cr1 O7 2.024125 1_554
Cr1 O2 2.024138 1_565
Cr2 O0 2.022663 1_555
Cr2 O6 2.022697 1_655
Cr2 O3 2.022719 1_655
Cr2 O4 2.022745 1_555
Cr2 O1 2.022863 1_555
Cr2 O5 2.022953 1_655
Cr3 O3 2.023071 1_556
Cr3 O0 2.023091 1_455
Cr3 O4 2.023185 1_456
Cr3 O6 2.023220 1_555
Cr3 O7 2.023421 1_555
Cr3 O2 2.023493 1_456
Ni0 O3 1.987530 1_555
Ni0 O7 1.988654 1_545
Ni0 O5 1.989289 1_545
Ni0 O4 1.990313 1_555
Ni1 O0 1.987441 1_555
Ni1 O2 1.988629 1_565
Ni1 O1 1.989295 1_565
Ni1 O6 1.990322 1_555
