# generated using pymatgen
data_CeMgS3
_symmetry_space_group_name_H-M   'P 1'
_cell_length_a   6.84561000
_cell_length_b   6.84560986
_cell_length_c   17.55469100
_cell_angle_alpha   90.00000000
_cell_angle_beta   90.00000000
_cell_angle_gamma   120.00000069
_symmetry_Int_Tables_number   1
_chemical_formula_structural   CeMgS3
_chemical_formula_sum   'Ce6 Mg6 S18'
_cell_volume   712.43970608
_cell_formula_units_Z   6
loop_
 _symmetry_equiv_pos_site_id
 _symmetry_equiv_pos_as_xyz
  1  'x, y, z'
loop_
 _atom_site_type_symbol
 _atom_site_label
 _atom_site_symmetry_multiplicity
 _atom_site_fract_x
 _atom_site_fract_y
 _atom_site_fract_z
 _atom_site_occupancy
  Ce  Ce0  1  0.00000000  0.00000000  0.35385200  1
  Ce  Ce1  1  0.00000000  0.00000000  0.64614800  1
  Ce  Ce2  1  0.66666700  0.33333300  0.68718500  1
  Ce  Ce3  1  0.66666700  0.33333300  0.97948100  1
  Ce  Ce4  1  0.33333300  0.66666700  0.02051900  1
  Ce  Ce5  1  0.33333300  0.66666700  0.31281500  1
  Mg  Mg0  1  0.00000000  0.00000000  0.15402600  1
  Mg  Mg1  1  0.00000000  0.00000000  0.84597400  1
  Mg  Mg2  1  0.66666700  0.33333300  0.48735900  1
  Mg  Mg3  1  0.66666700  0.33333300  0.17930700  1
  Mg  Mg4  1  0.33333300  0.66666700  0.82069300  1
  Mg  Mg5  1  0.33333300  0.66666700  0.51264100  1
  S  S0  1  0.97568700  0.35008200  0.58327900  1
  S  S1  1  0.02431300  0.64991800  0.41672100  1
  S  S2  1  0.64991800  0.62560500  0.58327900  1
  S  S3  1  0.35008200  0.37439500  0.41672100  1
  S  S4  1  0.37439500  0.02431300  0.58327900  1
  S  S5  1  0.62560500  0.97568700  0.41672100  1
  S  S6  1  0.64235400  0.68341500  0.91661200  1
  S  S7  1  0.69098000  0.98325100  0.75005400  1
  S  S8  1  0.31658500  0.95893800  0.91661200  1
  S  S9  1  0.01674900  0.70772800  0.75005400  1
  S  S10  1  0.04106200  0.35764600  0.91661200  1
  S  S11  1  0.29227200  0.30902000  0.75005400  1
  S  S12  1  0.30902000  0.01674900  0.24994600  1
  S  S13  1  0.35764600  0.31658500  0.08338800  1
  S  S14  1  0.98325100  0.29227200  0.24994600  1
  S  S15  1  0.68341500  0.04106200  0.08338800  1
  S  S16  1  0.70772800  0.69098000  0.24994600  1
  S  S17  1  0.95893800  0.64235400  0.08338800  1
loop_
_geom_bond_atom_site_label_1
_geom_bond_atom_site_label_2
_geom_bond_distance
_geom_bond_site_symmetry_2
Ce0 S3 2.718076 1_555
Ce0 S1 2.718076 1_545
Ce0 S5 2.718076 1_445
Ce0 S12 2.751864 1_555
Ce0 S16 2.751866 1_445
Ce0 S14 2.751869 1_455
Ce1 S2 2.718076 1_445
Ce1 S0 2.718076 1_455
Ce1 S4 2.718076 1_555
Ce1 S7 2.751864 1_445
Ce1 S11 2.751866 1_555
Ce1 S9 2.751869 1_545
Ce2 S9 2.718076 1_655
Ce2 S7 2.718076 1_545
Ce2 S11 2.718076 1_555
Ce2 S0 2.751864 1_555
Ce2 S4 2.751866 1_555
Ce2 S2 2.751869 1_555
Ce3 S8 2.718076 1_545
Ce3 S6 2.718076 1_555
Ce3 S10 2.718076 1_655
Ce3 S15 2.751873 1_556
Ce3 S17 2.751879 1_556
Ce3 S13 2.751883 1_556
Ce4 S15 2.718076 1_565
Ce4 S13 2.718076 1_555
Ce4 S17 2.718076 1_455
Ce4 S8 2.751873 1_554
Ce4 S10 2.751879 1_554
Ce4 S6 2.751883 1_554
Ce5 S14 2.718076 1_455
Ce5 S12 2.718076 1_565
Ce5 S16 2.718076 1_555
Ce5 S1 2.751864 1_555
Ce5 S5 2.751866 1_555
Ce5 S3 2.751869 1_555
Mg0 S17 2.631098 1_445
Mg0 S13 2.631100 1_555
Mg0 S15 2.631104 1_455
Mg0 S12 2.661011 1_555
Mg0 S16 2.661013 1_445
Mg0 S14 2.661016 1_455
Mg1 S10 2.631098 1_555
Mg1 S6 2.631100 1_445
Mg1 S8 2.631104 1_545
Mg1 S7 2.661011 1_445
Mg1 S11 2.661013 1_555
Mg1 S9 2.661016 1_545
Mg2 S5 2.631098 1_545
Mg2 S1 2.631100 1_655
Mg2 S3 2.631104 1_555
Mg2 S0 2.661011 1_555
Mg2 S4 2.661013 1_555
Mg2 S2 2.661016 1_555
Mg3 S14 2.631103 1_555
Mg3 S12 2.631110 1_555
Mg3 S16 2.631115 1_555
Mg3 S15 2.660997 1_555
Mg3 S17 2.661003 1_555
Mg3 S13 2.661008 1_555
Mg4 S9 2.631103 1_555
Mg4 S7 2.631110 1_555
Mg4 S11 2.631115 1_555
Mg4 S8 2.660997 1_555
Mg4 S10 2.661003 1_555
Mg4 S6 2.661008 1_555
Mg5 S4 2.631098 1_565
Mg5 S0 2.631100 1_455
Mg5 S2 2.631104 1_555
Mg5 S1 2.661011 1_555
Mg5 S5 2.661013 1_555
Mg5 S3 2.661016 1_555
