# generated using pymatgen
data_K2WO4
_symmetry_space_group_name_H-M   'P 1'
_cell_length_a   6.10050713
_cell_length_b   6.90053940
_cell_length_c   7.53814173
_cell_angle_alpha   112.94772080
_cell_angle_beta   90.00000000
_cell_angle_gamma   116.23354563
_symmetry_Int_Tables_number   1
_chemical_formula_structural   K2WO4
_chemical_formula_sum   'K4 W2 O8'
_cell_volume   256.35077697
_cell_formula_units_Z   2
loop_
 _symmetry_equiv_pos_site_id
 _symmetry_equiv_pos_as_xyz
  1  'x, y, z'
loop_
 _atom_site_type_symbol
 _atom_site_label
 _atom_site_symmetry_multiplicity
 _atom_site_fract_x
 _atom_site_fract_y
 _atom_site_fract_z
 _atom_site_occupancy
  K  K0  1  0.50750610  0.01501521  0.23292515  1
  K  K1  1  0.49249390  0.98498479  0.76707485  1
  K  K2  1  0.15539605  0.31079411  0.74877537  1
  K  K3  1  0.84460395  0.68920589  0.25122463  1
  W  W0  1  0.17580893  0.35161885  0.22760296  1
  W  W1  1  0.82419107  0.64838115  0.77239704  1
  O  O0  1  0.38152896  0.28480166  0.07548823  1
  O  O1  1  0.09672630  0.71519834  0.92451177  1
  O  O2  1  0.61847104  0.71519834  0.92451177  1
  O  O3  1  0.90327370  0.28480166  0.07548823  1
  O  O4  1  0.91292590  0.82584980  0.63747797  1
  O  O5  1  0.08707410  0.17415020  0.36252203  1
  O  O6  1  0.33368080  0.66736059  0.38629327  1
  O  O7  1  0.66631920  0.33263941  0.61370673  1
loop_
_geom_bond_atom_site_label_1
_geom_bond_atom_site_label_2
_geom_bond_distance
_geom_bond_site_symmetry_2
K0 O7 2.683014 1_555
K0 O1 2.762429 1_544
K0 O2 2.762436 1_544
K0 O6 2.851321 1_545
K0 O0 2.907338 1_555
K0 O3 2.907352 1_555
K0 O5 3.223681 1_555
K0 O5 3.223687 1_655
K1 O6 2.683014 1_555
K1 O3 2.762429 1_566
K1 O0 2.762436 1_566
K1 O7 2.851321 1_565
K1 O2 2.907338 1_555
K1 O1 2.907352 1_555
K1 O4 3.223681 1_555
K1 O4 3.223687 1_455
K2 O5 2.655586 1_555
K2 O4 2.743140 1_445
K2 O1 2.769621 1_555
K2 O2 2.769625 1_555
K2 O3 2.926403 1_456
K2 O0 2.926412 1_556
K2 O7 3.237076 1_455
K2 O7 3.237081 1_555
K3 O4 2.655586 1_555
K3 O5 2.743140 1_665
K3 O3 2.769621 1_555
K3 O0 2.769625 1_555
K3 O1 2.926403 1_654
K3 O2 2.926412 1_554
K3 O6 3.237076 1_655
K3 O6 3.237081 1_555
O0 W0 1.789339 1_555
O1 W1 1.789329 1_455
O2 W1 1.789339 1_555
O3 W0 1.789329 1_655
O4 W1 1.792280 1_555
O5 W0 1.792280 1_555
O6 W0 1.793925 1_555
O7 W1 1.793925 1_555
