# generated using pymatgen
data_SrLaCoO4
_symmetry_space_group_name_H-M   'P 1'
_cell_length_a   5.45315953
_cell_length_b   6.94756368
_cell_length_c   5.45336037
_cell_angle_alpha   66.90730363
_cell_angle_beta   89.88116033
_cell_angle_gamma   89.94764269
_symmetry_Int_Tables_number   1
_chemical_formula_structural   SrLaCoO4
_chemical_formula_sum   'Sr2 La2 Co2 O8'
_cell_volume   190.05144037
_cell_formula_units_Z   2
loop_
 _symmetry_equiv_pos_site_id
 _symmetry_equiv_pos_as_xyz
  1  'x, y, z'
loop_
 _atom_site_type_symbol
 _atom_site_label
 _atom_site_symmetry_multiplicity
 _atom_site_fract_x
 _atom_site_fract_y
 _atom_site_fract_z
 _atom_site_occupancy
  Sr  Sr0  1  0.99999800  0.28473500  0.35762200  1
  Sr  Sr1  1  0.49999600  0.28468200  0.85766800  1
  La  La0  1  0.49998800  0.71412200  0.14295300  1
  La  La1  1  0.00001300  0.71443600  0.64278100  1
  Co  Co0  1  0.49999600  0.00756900  0.49623600  1
  Co  Co1  1  0.99999800  0.00722900  0.99639700  1
  O  O0  1  0.00002700  0.66640700  0.16678800  1
  O  O1  1  0.49999300  0.66660600  0.66666100  1
  O  O2  1  0.50001100  0.34758600  0.32622000  1
  O  O3  1  0.99997700  0.34778500  0.82609100  1
  O  O4  1  0.74237000  0.98978200  0.74675200  1
  O  O5  1  0.25766000  0.98979200  0.26345100  1
  O  O6  1  0.75805700  0.98963800  0.24738500  1
  O  O7  1  0.24191600  0.98963300  0.76299500  1
loop_
_geom_bond_atom_site_label_1
_geom_bond_atom_site_label_2
_geom_bond_distance
_geom_bond_site_symmetry_2
La0 O2 2.342482 1_555
La0 O5 2.612506 1_555
La0 O4 2.613424 1_554
La0 O6 2.613852 1_555
La0 O7 2.614143 1_554
La0 O1 2.743347 1_555
La0 O0 2.743401 1_555
La0 O1 2.743728 1_554
La0 O0 2.743757 1_655
La1 O3 2.343217 1_455
La1 O4 2.607210 1_455
La1 O5 2.607968 1_555
La1 O7 2.610913 1_555
La1 O6 2.611343 1_455
La1 O1 2.743519 1_555
La1 O1 2.743803 1_455
La1 O0 2.743862 1_555
La1 O0 2.743944 1_556
Co0 O4 1.871713 1_545
Co0 O5 1.871733 1_545
Co0 O6 1.990450 1_545
Co0 O7 1.990488 1_545
Co0 O2 2.173003 1_555
Co0 O1 2.179049 1_545
Co1 O7 1.868198 1_645
Co1 O6 1.868315 1_546
Co1 O4 1.994872 1_545
Co1 O5 1.994897 1_646
Co1 O3 2.176448 1_555
Co1 O0 2.178148 1_646
O0 Sr0 2.439215 1_455
O1 Sr1 2.440825 1_555
O2 Sr0 2.755894 1_555
O2 Sr1 2.756072 1_554
O2 Sr0 2.756121 1_455
O2 Sr1 2.756241 1_555
O3 Sr0 2.756153 1_555
O3 Sr1 2.756183 1_555
O3 Sr1 2.756302 1_655
O3 Sr0 2.756432 1_556
O4 Sr0 2.694036 1_565
O4 Sr1 2.697102 1_565
O5 Sr0 2.693353 1_465
O5 Sr1 2.697603 1_564
O6 Sr0 2.698233 1_565
O6 Sr1 2.699759 1_564
O7 Sr0 2.698623 1_465
O7 Sr1 2.699563 1_565
