# generated using pymatgen
data_Sr2NiOsO6
_symmetry_space_group_name_H-M   'P 1'
_cell_length_a   5.84973217
_cell_length_b   5.84973217
_cell_length_c   5.84973217
_cell_angle_alpha   125.98106598
_cell_angle_beta   125.98106598
_cell_angle_gamma   79.91926184
_symmetry_Int_Tables_number   1
_chemical_formula_structural   Sr2NiOsO6
_chemical_formula_sum   'Sr2 Ni1 Os1 O6'
_cell_volume   126.57665655
_cell_formula_units_Z   1
loop_
 _symmetry_equiv_pos_site_id
 _symmetry_equiv_pos_as_xyz
  1  'x, y, z'
loop_
 _atom_site_type_symbol
 _atom_site_label
 _atom_site_symmetry_multiplicity
 _atom_site_fract_x
 _atom_site_fract_y
 _atom_site_fract_z
 _atom_site_occupancy
  Sr  Sr0  1  0.75000000  0.25000000  0.50000000  1
  Sr  Sr1  1  0.25000000  0.75000000  0.50000000  1
  Ni  Ni0  1  0.00000000  0.00000000  0.00000000  1
  Os  Os0  1  0.50000000  0.50000000  0.00000000  1
  O  O0  1  0.69344600  0.80767700  0.50112300  1
  O  O1  1  0.80767700  0.30655400  0.11423100  1
  O  O2  1  0.19232300  0.69344600  0.88576900  1
  O  O3  1  0.30655400  0.19232300  0.49887700  1
  O  O4  1  0.28078300  0.28078300  0.00000000  1
  O  O5  1  0.71921700  0.71921700  0.00000000  1
loop_
_geom_bond_atom_site_label_1
_geom_bond_atom_site_label_2
_geom_bond_distance
_geom_bond_site_symmetry_2
Ni0 O3 1.922776 1_555
Ni0 O2 1.922776 1_544
Ni0 O0 1.922776 1_444
Ni0 O1 1.922776 1_455
Ni0 O4 2.517951 1_555
Ni0 O5 2.517951 1_445
O0 Os0 1.931002 1_555
O0 Sr1 2.669585 1_555
O0 Sr0 2.669585 1_565
O1 Os0 1.931002 1_555
O1 Sr1 2.669585 1_655
O1 Sr0 2.669585 1_555
O2 Os0 1.931002 1_556
O2 Sr0 2.669585 1_455
O2 Sr1 2.669585 1_555
O3 Os0 1.931002 1_556
O3 Sr1 2.669585 1_545
O3 Sr0 2.669585 1_555
O4 Os0 1.965852 1_555
O4 Sr1 2.670888 1_555
O4 Sr1 2.670888 1_544
O4 Sr0 2.670888 1_555
O4 Sr0 2.670888 1_454
O5 Os0 1.965852 1_555
O5 Sr0 2.670888 1_554
O5 Sr1 2.670888 1_655
O5 Sr1 2.670888 1_554
O5 Sr0 2.670888 1_565
