# generated using pymatgen
data_U(Mn2P)2
_symmetry_space_group_name_H-M   'P 1'
_cell_length_a   7.56751816
_cell_length_b   7.56739994
_cell_length_c   3.68029676
_cell_angle_alpha   90.00000000
_cell_angle_beta   90.00000000
_cell_angle_gamma   89.97276105
_symmetry_Int_Tables_number   1
_chemical_formula_structural   U(Mn2P)2
_chemical_formula_sum   'U2 Mn8 P4'
_cell_volume   210.75745671
_cell_formula_units_Z   2
loop_
 _symmetry_equiv_pos_site_id
 _symmetry_equiv_pos_as_xyz
  1  'x, y, z'
loop_
 _atom_site_type_symbol
 _atom_site_label
 _atom_site_symmetry_multiplicity
 _atom_site_fract_x
 _atom_site_fract_y
 _atom_site_fract_z
 _atom_site_occupancy
  U  U0  1  0.50000606  0.50000888  0.00000000  1
  U  U1  1  0.00000390  0.00000489  0.50000000  1
  Mn  Mn0  1  0.57820447  0.16603013  0.50000000  1
  Mn  Mn1  1  0.42182796  0.83406160  0.50000000  1
  Mn  Mn2  1  0.07820309  0.33385235  0.00000000  1
  Mn  Mn3  1  0.92175968  0.66606060  0.00000000  1
  Mn  Mn4  1  0.16620405  0.57831316  0.50000000  1
  Mn  Mn5  1  0.83375130  0.42161597  0.50000000  1
  Mn  Mn6  1  0.33411950  0.07800186  -0.00000000  1
  Mn  Mn7  1  0.66592512  0.92202802  -0.00000000  1
  P  P0  1  0.71779282  0.71767376  0.50000000  1
  P  P1  1  0.28221665  0.28232861  0.50000000  1
  P  P2  1  0.21745742  0.78239566  0.00000000  1
  P  P3  1  0.78252798  0.21762451  0.00000000  1
loop_
_geom_bond_atom_site_label_1
_geom_bond_atom_site_label_2
_geom_bond_distance
_geom_bond_site_symmetry_2
Mn0 P1 2.406197 1_555
Mn0 P3 2.435151 1_555
Mn0 P3 2.435151 1_556
Mn1 P0 2.406282 1_555
Mn1 P2 2.435464 1_556
Mn1 P2 2.435464 1_555
Mn2 P3 2.404577 1_455
Mn2 P1 2.433341 1_555
Mn2 P1 2.433341 1_554
Mn3 P2 2.405034 1_655
Mn3 P0 2.433226 1_554
Mn3 P0 2.433226 1_555
Mn4 P1 2.405357 1_555
Mn4 P2 2.433566 1_556
Mn4 P2 2.433566 1_555
Mn5 P0 2.405723 1_555
Mn5 P3 2.433092 1_556
Mn5 P3 2.433092 1_555
Mn6 P2 2.405270 1_545
Mn6 P1 2.435291 1_554
Mn6 P1 2.435291 1_555
Mn7 P3 2.405037 1_565
Mn7 P0 2.435381 1_555
Mn7 P0 2.435381 1_554
P0 U0 2.969529 1_555
P0 U0 2.969529 1_556
P0 U1 3.021584 1_665
P1 U0 2.969605 1_555
P1 U0 2.969605 1_556
P1 U1 3.021554 1_555
P2 U1 2.967028 1_564
P2 U1 2.967028 1_565
P2 U0 3.022252 1_555
P3 U1 2.967165 1_655
P3 U1 2.967165 1_654
P3 U0 3.022096 1_555
