# generated using pymatgen
data_Cs3Ag(AsSe2)4
_symmetry_space_group_name_H-M   'P 1'
_cell_length_a   13.65517199
_cell_length_b   13.65517199
_cell_length_c   23.17133860
_cell_angle_alpha   64.22628105
_cell_angle_beta   64.22628105
_cell_angle_gamma   38.27199755
_symmetry_Int_Tables_number   1
_chemical_formula_structural   Cs3Ag(AsSe2)4
_chemical_formula_sum   'Cs12 Ag4 As16 Se32'
_cell_volume   2375.87382415
_cell_formula_units_Z   4
loop_
 _symmetry_equiv_pos_site_id
 _symmetry_equiv_pos_as_xyz
  1  'x, y, z'
loop_
 _atom_site_type_symbol
 _atom_site_label
 _atom_site_symmetry_multiplicity
 _atom_site_fract_x
 _atom_site_fract_y
 _atom_site_fract_z
 _atom_site_occupancy
  Cs  Cs0  1  0.00000000  0.50000000  0.50000000  1
  Cs  Cs1  1  0.50000000  0.00000000  0.00000000  1
  Cs  Cs2  1  0.44610300  0.15966100  0.22986100  1
  Cs  Cs3  1  0.84033900  0.55389700  0.27013900  1
  Cs  Cs4  1  0.55389700  0.84033900  0.77013900  1
  Cs  Cs5  1  0.15966100  0.44610300  0.72986100  1
  Cs  Cs6  1  0.74893400  0.39201200  0.50545100  1
  Cs  Cs7  1  0.60798800  0.25106600  0.99454900  1
  Cs  Cs8  1  0.25106600  0.60798800  0.49454900  1
  Cs  Cs9  1  0.39201200  0.74893400  0.00545100  1
  Cs  Cs10  1  0.71132900  0.28867100  0.25000000  1
  Cs  Cs11  1  0.28867100  0.71132900  0.75000000  1
  Ag  Ag0  1  0.41072800  0.09580300  0.41207400  1
  Ag  Ag1  1  0.90419700  0.58927200  0.08792600  1
  Ag  Ag2  1  0.58927200  0.90419700  0.58792600  1
  Ag  Ag3  1  0.09580300  0.41072800  0.91207400  1
  As  As0  1  0.03888300  0.69055900  0.11646300  1
  As  As1  1  0.30944100  0.96111700  0.38353700  1
  As  As2  1  0.96111700  0.30944100  0.88353700  1
  As  As3  1  0.69055900  0.03888300  0.61646300  1
  As  As4  1  0.82104800  0.87328700  0.31799400  1
  As  As5  1  0.12671300  0.17895200  0.18200600  1
  As  As6  1  0.17895200  0.12671300  0.68200600  1
  As  As7  1  0.87328700  0.82104800  0.81799400  1
  As  As8  1  0.63451000  0.05201900  0.46804000  1
  As  As9  1  0.94798100  0.36549000  0.03196000  1
  As  As10  1  0.36549000  0.94798100  0.53196000  1
  As  As11  1  0.05201900  0.63451000  0.96804000  1
  As  As12  1  0.19917000  0.70267900  0.20073400  1
  As  As13  1  0.29732100  0.80083000  0.29926600  1
  As  As14  1  0.80083000  0.29732100  0.79926600  1
  As  As15  1  0.70267900  0.19917000  0.70073400  1
  Se  Se0  1  0.01043700  0.88771900  0.12231700  1
  Se  Se1  1  0.11228100  0.98956300  0.37768300  1
  Se  Se2  1  0.98956300  0.11228100  0.87768300  1
  Se  Se3  1  0.88771900  0.01043700  0.62231700  1
  Se  Se4  1  0.15115200  0.23116400  0.38296400  1
  Se  Se5  1  0.76883600  0.84884800  0.11703600  1
  Se  Se6  1  0.84884800  0.76883600  0.61703600  1
  Se  Se7  1  0.23116400  0.15115200  0.88296400  1
  Se  Se8  1  0.16045400  0.68217800  0.00009100  1
  Se  Se9  1  0.31782200  0.83954600  0.49990900  1
  Se  Se10  1  0.83954600  0.31782200  0.99990900  1
  Se  Se11  1  0.68217800  0.16045400  0.50009100  1
  Se  Se12  1  0.43533000  0.27498700  0.40120600  1
  Se  Se13  1  0.72501300  0.56467000  0.09879400  1
  Se  Se14  1  0.56467000  0.72501300  0.59879400  1
  Se  Se15  1  0.27498700  0.43533000  0.90120600  1
  Se  Se16  1  0.89619600  0.88869200  0.39161800  1
  Se  Se17  1  0.11130800  0.10380400  0.10838200  1
  Se  Se18  1  0.10380400  0.11130800  0.60838200  1
  Se  Se19  1  0.88869200  0.89619600  0.89161800  1
  Se  Se20  1  0.69107200  0.79829800  0.38288600  1
  Se  Se21  1  0.20170200  0.30892800  0.11711400  1
  Se  Se22  1  0.30892800  0.20170200  0.61711400  1
  Se  Se23  1  0.79829800  0.69107200  0.88288600  1
  Se  Se24  1  0.08413900  0.61165000  0.28906700  1
  Se  Se25  1  0.38835000  0.91586100  0.21093300  1
  Se  Se26  1  0.91586100  0.38835000  0.71093300  1
  Se  Se27  1  0.61165000  0.08413900  0.78906700  1
  Se  Se28  1  0.42805100  0.47111800  0.15371900  1
  Se  Se29  1  0.52888200  0.57194900  0.34628100  1
  Se  Se30  1  0.57194900  0.52888200  0.84628100  1
  Se  Se31  1  0.47111800  0.42805100  0.65371900  1
loop_
_geom_bond_atom_site_label_1
_geom_bond_atom_site_label_2
_geom_bond_distance
_geom_bond_site_symmetry_2
Cs0 Se20 3.887640 1_455
Cs0 Se22 3.887640 1_555
Cs0 Se14 3.952475 1_455
Cs0 Se12 3.952475 1_555
Cs0 Se18 4.022231 1_555
Cs0 Se16 4.022231 1_455
Cs0 Se4 4.121102 1_555
Cs0 Se6 4.121102 1_455
Cs1 Se21 3.887640 1_555
Cs1 Se23 3.887640 1_544
Cs1 Se13 3.952475 1_545
Cs1 Se15 3.952475 1_554
Cs1 Se17 4.022231 1_555
Cs1 Se19 4.022231 1_544
Cs1 Se7 4.121102 1_554
Cs1 Se5 4.121102 1_545
Cs2 Se28 3.669910 1_555
Cs2 Se4 3.764623 1_555
Cs2 Se21 3.793162 1_555
Cs2 Se5 3.811934 1_545
Cs2 Se20 4.158478 1_545
Cs2 Se25 4.194082 1_545
Cs2 Se24 4.239420 1_555
Cs3 Se29 3.669910 1_555
Cs3 Se5 3.764623 1_555
Cs3 Se20 3.793162 1_555
Cs3 Se4 3.811934 1_655
Cs3 Se21 4.158478 1_655
Cs3 Se24 4.194082 1_655
Cs3 Se25 4.239420 1_555
Cs4 Se30 3.669910 1_555
Cs4 Se6 3.764623 1_555
Cs4 Se23 3.793162 1_555
Cs4 Se7 3.811934 1_565
Cs4 Se22 4.158478 1_565
Cs4 Se27 4.194082 1_565
Cs4 Se26 4.239420 1_555
Cs5 Se31 3.669910 1_555
Cs5 Se7 3.764623 1_555
Cs5 Se22 3.793162 1_555
Cs5 Se6 3.811934 1_455
Cs5 Se23 4.158478 1_455
Cs5 Se26 4.194082 1_455
Cs5 Se27 4.239420 1_555
Cs6 Se31 3.693462 1_555
Cs6 Se3 3.842075 1_555
Cs6 Se9 3.937719 1_555
Cs6 Se11 3.976190 1_555
Cs6 Se4 3.996114 1_655
Cs6 Se18 4.098621 1_655
Cs6 Se14 4.188239 1_555
Cs7 Se30 3.693462 1_555
Cs7 Se2 3.842075 1_555
Cs7 Se8 3.937719 1_556
Cs7 Se10 3.976190 1_555
Cs7 Se5 3.996114 1_546
Cs7 Se19 4.098621 1_545
Cs7 Se15 4.188239 1_555
Cs8 Se29 3.693462 1_555
Cs8 Se1 3.842075 1_555
Cs8 Se11 3.937719 1_555
Cs8 Se9 3.976190 1_555
Cs8 Se6 3.996114 1_455
Cs8 Se16 4.098621 1_455
Cs8 Se12 4.188239 1_555
Cs9 Se28 3.693462 1_555
Cs9 Se0 3.842075 1_555
Cs9 Se10 3.937719 1_554
Cs9 Se8 3.976190 1_555
Cs9 Se7 3.996114 1_564
Cs9 Se17 4.098621 1_565
Cs9 Se13 4.188239 1_555
Cs10 Se28 3.699544 1_555
Cs10 Se29 3.699544 1_555
Cs10 Se13 3.945584 1_555
Cs10 Se12 3.945584 1_555
Cs10 Se17 4.115881 1_655
Cs10 Se16 4.115881 1_545
Cs11 Se31 3.699544 1_555
Cs11 Se30 3.699544 1_555
Cs11 Se14 3.945584 1_555
Cs11 Se15 3.945584 1_555
Cs11 Se18 4.115881 1_565
Cs11 Se19 4.115881 1_455
Ag0 Se12 2.616158 1_555
Ag0 Se4 2.672663 1_555
Ag0 Se20 2.708312 1_545
Ag0 As10 2.786059 1_545
Ag0 Cs2 3.808681 1_555
Ag1 Se13 2.616158 1_555
Ag1 Se5 2.672663 1_555
Ag1 Se21 2.708312 1_655
Ag1 As11 2.786059 1_654
Ag1 Cs3 3.808681 1_555
Ag2 Se14 2.616158 1_555
Ag2 Se6 2.672663 1_555
Ag2 Se22 2.708312 1_565
Ag2 As8 2.786059 1_565
Ag2 Cs4 3.808681 1_555
Ag3 Se15 2.616158 1_555
Ag3 Se7 2.672663 1_555
Ag3 Se23 2.708312 1_455
Ag3 As9 2.786059 1_456
Ag3 Cs5 3.808681 1_555
As0 Se5 2.395309 1_455
As0 Se0 2.459117 1_555
As0 Se8 2.473311 1_555
As0 Cs3 4.157209 1_455
As1 Se4 2.395309 1_565
As1 Se1 2.459117 1_555
As1 Se9 2.473311 1_555
As1 Cs2 4.157209 1_565
As2 Se7 2.395309 1_655
As2 Se2 2.459117 1_555
As2 Se10 2.473311 1_555
As2 Cs5 4.157209 1_655
As3 Se6 2.395309 1_545
As3 Se3 2.459117 1_555
As3 Se11 2.473311 1_555
As3 Cs4 4.157209 1_545
As4 Se20 2.377684 1_555
As4 Se24 2.440319 1_655
As4 Se16 2.486156 1_555
As4 Cs2 4.048105 1_565
As4 Cs10 4.223488 1_565
As5 Se21 2.377684 1_555
As5 Se25 2.440319 1_545
As5 Se17 2.486156 1_555
As5 Cs3 4.048105 1_455
As5 Cs10 4.223488 1_455
As6 Se22 2.377684 1_555
As6 Se26 2.440319 1_455
As6 Se18 2.486156 1_555
As6 Cs4 4.048105 1_545
As6 Cs11 4.223488 1_545
As7 Se23 2.377684 1_555
As7 Se27 2.440319 1_565
As7 Se19 2.486156 1_555
As7 Cs5 4.048105 1_655
As7 Cs11 4.223488 1_655
As8 Se12 2.371884 1_555
As8 Se11 2.461247 1_555
As8 Se16 2.509380 1_545
As9 Se13 2.371884 1_555
As9 Se10 2.461247 1_554
As9 Se17 2.509380 1_655
As10 Se14 2.371884 1_555
As10 Se9 2.461247 1_555
As10 Se18 2.509380 1_565
As11 Se15 2.371884 1_555
As11 Se8 2.461247 1_556
As11 Se19 2.509380 1_455
As12 Se28 2.338961 1_555
As12 Se0 2.486544 1_555
As12 Se24 2.501809 1_555
As13 Se29 2.338961 1_555
As13 Se1 2.486544 1_555
As13 Se25 2.501809 1_555
As14 Se30 2.338961 1_555
As14 Se2 2.486544 1_555
As14 Se26 2.501809 1_555
As15 Se31 2.338961 1_555
As15 Se3 2.486544 1_555
As15 Se27 2.501809 1_555
