# generated using pymatgen
data_CsBe4(BO3)3
_symmetry_space_group_name_H-M   'P 1'
_cell_length_a   6.52948900
_cell_length_b   8.45744900
_cell_length_c   13.47130700
_cell_angle_alpha   90.00000000
_cell_angle_beta   90.00000000
_cell_angle_gamma   90.00000000
_symmetry_Int_Tables_number   1
_chemical_formula_structural   CsBe4(BO3)3
_chemical_formula_sum   'Cs4 Be16 B12 O36'
_cell_volume   743.92356450
_cell_formula_units_Z   4
loop_
 _symmetry_equiv_pos_site_id
 _symmetry_equiv_pos_as_xyz
  1  'x, y, z'
loop_
 _atom_site_type_symbol
 _atom_site_label
 _atom_site_symmetry_multiplicity
 _atom_site_fract_x
 _atom_site_fract_y
 _atom_site_fract_z
 _atom_site_occupancy
  Cs  Cs0  1  0.34035400  0.91698000  0.75000000  1
  Cs  Cs1  1  0.15964600  0.41698000  0.75000000  1
  Cs  Cs2  1  0.65964600  0.08302000  0.25000000  1
  Cs  Cs3  1  0.84035400  0.58302000  0.25000000  1
  Be  Be0  1  0.91184800  0.06229800  0.55843100  1
  Be  Be1  1  0.58815200  0.56229800  0.94156900  1
  Be  Be2  1  0.08815200  0.93770200  0.05843100  1
  Be  Be3  1  0.41184800  0.43770200  0.44156900  1
  Be  Be4  1  0.08815200  0.93770200  0.44156900  1
  Be  Be5  1  0.41184800  0.43770200  0.05843100  1
  Be  Be6  1  0.91184800  0.06229800  0.94156900  1
  Be  Be7  1  0.58815200  0.56229800  0.55843100  1
  Be  Be8  1  0.64274400  0.27421900  0.64210700  1
  Be  Be9  1  0.85725600  0.77421900  0.85789300  1
  Be  Be10  1  0.35725600  0.72578100  0.14210700  1
  Be  Be11  1  0.14274400  0.22578100  0.35789300  1
  Be  Be12  1  0.35725600  0.72578100  0.35789300  1
  Be  Be13  1  0.14274400  0.22578100  0.14210700  1
  Be  Be14  1  0.64274400  0.27421900  0.85789300  1
  Be  Be15  1  0.85725600  0.77421900  0.64210700  1
  B  B0  1  0.81427700  0.04671000  0.75000000  1
  B  B1  1  0.68572300  0.54671000  0.75000000  1
  B  B2  1  0.18572300  0.95329000  0.25000000  1
  B  B3  1  0.31427700  0.45329000  0.25000000  1
  B  B4  1  0.30803200  0.17395100  0.53127700  1
  B  B5  1  0.19196800  0.67395100  0.96872300  1
  B  B6  1  0.69196800  0.82604900  0.03127700  1
  B  B7  1  0.80803200  0.32604900  0.46872300  1
  B  B8  1  0.69196800  0.82604900  0.46872300  1
  B  B9  1  0.80803200  0.32604900  0.03127700  1
  B  B10  1  0.30803200  0.17395100  0.96872300  1
  B  B11  1  0.19196800  0.67395100  0.53127700  1
  O  O0  1  0.85844600  0.97111300  0.66197700  1
  O  O1  1  0.64155400  0.47111300  0.83802300  1
  O  O2  1  0.14155400  0.02888700  0.16197700  1
  O  O3  1  0.35844600  0.52888700  0.33802300  1
  O  O4  1  0.14155400  0.02888700  0.33802300  1
  O  O5  1  0.35844600  0.52888700  0.16197700  1
  O  O6  1  0.85844600  0.97111300  0.83802300  1
  O  O7  1  0.64155400  0.47111300  0.66197700  1
  O  O8  1  0.81979000  0.23880000  0.55742500  1
  O  O9  1  0.68021000  0.73880000  0.94257500  1
  O  O10  1  0.18021000  0.76120000  0.05742500  1
  O  O11  1  0.31979000  0.26120000  0.44257500  1
  O  O12  1  0.18021000  0.76120000  0.44257500  1
  O  O13  1  0.31979000  0.26120000  0.05742500  1
  O  O14  1  0.81979000  0.23880000  0.94257500  1
  O  O15  1  0.68021000  0.73880000  0.55742500  1
  O  O16  1  0.15927600  0.05417600  0.53355200  1
  O  O17  1  0.34072400  0.55417600  0.96644800  1
  O  O18  1  0.84072400  0.94582400  0.03355200  1
  O  O19  1  0.65927600  0.44582400  0.46644800  1
  O  O20  1  0.84072400  0.94582400  0.46644800  1
  O  O21  1  0.65927600  0.44582400  0.03355200  1
  O  O22  1  0.15927600  0.05417600  0.96644800  1
  O  O23  1  0.34072400  0.55417600  0.53355200  1
  O  O24  1  0.42706500  0.20229300  0.61113300  1
  O  O25  1  0.07293500  0.70229300  0.88886700  1
  O  O26  1  0.57293500  0.79770700  0.11113300  1
  O  O27  1  0.92706500  0.29770700  0.38886700  1
  O  O28  1  0.57293500  0.79770700  0.38886700  1
  O  O29  1  0.92706500  0.29770700  0.11113300  1
  O  O30  1  0.42706500  0.20229300  0.88886700  1
  O  O31  1  0.07293500  0.70229300  0.61113300  1
  O  O32  1  0.72658700  0.19565000  0.75000000  1
  O  O33  1  0.77341300  0.69565000  0.75000000  1
  O  O34  1  0.27341300  0.80435000  0.25000000  1
  O  O35  1  0.22658700  0.30435000  0.25000000  1
loop_
_geom_bond_atom_site_label_1
_geom_bond_atom_site_label_2
_geom_bond_distance
_geom_bond_site_symmetry_2
Cs0 O30 3.105289 1_565
Cs0 O24 3.105289 1_565
Cs0 O31 3.137718 1_555
Cs0 O25 3.137718 1_555
Cs1 O25 3.105289 1_555
Cs1 O31 3.105289 1_555
Cs1 O24 3.137718 1_555
Cs1 O30 3.137718 1_555
Cs2 O26 3.105289 1_545
Cs2 O28 3.105289 1_545
Cs2 O27 3.137718 1_555
Cs2 O29 3.137718 1_555
Cs3 O27 3.105289 1_555
Cs3 O29 3.105289 1_555
Cs3 O26 3.137718 1_555
Cs3 O28 3.137718 1_555
Be0 O8 1.609291 1_555
Be0 O0 1.631584 1_545
Be0 O20 1.649693 1_545
Be0 O16 1.651405 1_655
Be1 O9 1.609291 1_555
Be1 O1 1.631584 1_555
Be1 O21 1.649693 1_556
Be1 O17 1.651405 1_555
Be2 O10 1.609291 1_555
Be2 O2 1.631584 1_565
Be2 O22 1.649693 1_564
Be2 O18 1.651405 1_455
Be3 O11 1.609291 1_555
Be3 O3 1.631584 1_555
Be3 O23 1.649693 1_555
Be3 O19 1.651405 1_555
Be4 O12 1.609291 1_555
Be4 O4 1.631584 1_565
Be4 O16 1.649693 1_565
Be4 O20 1.651405 1_455
Be5 O13 1.609291 1_555
Be5 O5 1.631584 1_555
Be5 O17 1.649693 1_554
Be5 O21 1.651405 1_555
Be6 O14 1.609291 1_555
Be6 O6 1.631584 1_545
Be6 O18 1.649693 1_546
Be6 O22 1.651405 1_655
Be7 O15 1.609291 1_555
Be7 O7 1.631584 1_555
Be7 O19 1.649693 1_555
Be7 O23 1.651405 1_555
Be8 O24 1.589774 1_555
Be8 O8 1.651511 1_555
Be8 O7 1.686615 1_555
Be8 O32 1.689319 1_555
Be9 O25 1.589774 1_655
Be9 O9 1.651511 1_555
Be9 O6 1.686615 1_555
Be9 O33 1.689319 1_555
Be10 O26 1.589774 1_555
Be10 O10 1.651511 1_555
Be10 O5 1.686615 1_555
Be10 O34 1.689319 1_555
Be11 O27 1.589774 1_455
Be11 O11 1.651511 1_555
Be11 O4 1.686615 1_555
Be11 O35 1.689319 1_555
Be12 O28 1.589774 1_555
Be12 O12 1.651511 1_555
Be12 O3 1.686615 1_555
Be12 O34 1.689319 1_555
Be13 O29 1.589774 1_455
Be13 O13 1.651511 1_555
Be13 O2 1.686615 1_555
Be13 O35 1.689319 1_555
Be14 O30 1.589774 1_555
Be14 O14 1.651511 1_555
Be14 O1 1.686615 1_555
Be14 O32 1.689319 1_555
Be15 O31 1.589774 1_655
Be15 O15 1.651511 1_555
Be15 O0 1.686615 1_555
Be15 O33 1.689319 1_555
B0 O0 1.377693 1_545
B0 O6 1.377693 1_545
B0 O32 1.383677 1_555
B1 O7 1.377693 1_555
B1 O1 1.377693 1_555
B1 O33 1.383677 1_555
B2 O2 1.377693 1_565
B2 O4 1.377693 1_565
B2 O34 1.383677 1_555
B3 O5 1.377693 1_555
B3 O3 1.377693 1_555
B3 O35 1.383677 1_555
B4 O24 1.348631 1_555
B4 O16 1.403750 1_555
B4 O11 1.406506 1_555
B5 O25 1.348631 1_555
B5 O17 1.403750 1_555
B5 O10 1.406506 1_556
B6 O26 1.348631 1_555
B6 O18 1.403750 1_555
B6 O9 1.406506 1_554
B7 O27 1.348631 1_555
B7 O19 1.403750 1_555
B7 O8 1.406506 1_555
B8 O28 1.348631 1_555
B8 O20 1.403750 1_555
B8 O15 1.406506 1_555
B9 O29 1.348631 1_555
B9 O21 1.403750 1_555
B9 O14 1.406506 1_554
B10 O30 1.348631 1_555
B10 O22 1.403750 1_555
B10 O13 1.406506 1_556
B11 O31 1.348631 1_555
B11 O23 1.403750 1_555
B11 O12 1.406506 1_555
