# generated using pymatgen
data_KMn3O6
_symmetry_space_group_name_H-M   'P 1'
_cell_length_a   7.14033910
_cell_length_b   7.14033910
_cell_length_c   15.53458799
_cell_angle_alpha   88.07852345
_cell_angle_beta   88.07852345
_cell_angle_gamma   46.79645442
_symmetry_Int_Tables_number   1
_chemical_formula_structural   KMn3O6
_chemical_formula_sum   'K4 Mn12 O24'
_cell_volume   576.94044260
_cell_formula_units_Z   4
loop_
 _symmetry_equiv_pos_site_id
 _symmetry_equiv_pos_as_xyz
  1  'x, y, z'
loop_
 _atom_site_type_symbol
 _atom_site_label
 _atom_site_symmetry_multiplicity
 _atom_site_fract_x
 _atom_site_fract_y
 _atom_site_fract_z
 _atom_site_occupancy
  K  K0  1  0.65509651  0.32521708  0.59940791  1
  K  K1  1  0.32521708  0.65509651  0.09940791  1
  K  K2  1  0.67478292  0.34490349  0.90059209  1
  K  K3  1  0.34490349  0.67478292  0.40059209  1
  Mn  Mn0  1  0.37589267  0.12669332  0.25015697  1
  Mn  Mn1  1  0.87330668  0.62410733  0.24984303  1
  Mn  Mn2  1  0.36369226  0.11198186  0.58048028  1
  Mn  Mn3  1  0.86871214  0.61814047  0.58100979  1
  Mn  Mn4  1  0.88801814  0.63630774  0.91951972  1
  Mn  Mn5  1  0.38185953  0.13128786  0.91899021  1
  Mn  Mn6  1  0.62410733  0.87330668  0.74984303  1
  Mn  Mn7  1  0.12669332  0.37589267  0.75015697  1
  Mn  Mn8  1  0.11198186  0.36369226  0.08048028  1
  Mn  Mn9  1  0.61814047  0.86871214  0.08100979  1
  Mn  Mn10  1  0.63630774  0.88801814  0.41951972  1
  Mn  Mn11  1  0.13128786  0.38185953  0.41899021  1
  O  O0  1  0.81374199  0.56064170  0.81601315  1
  O  O1  1  0.30951402  0.06132180  0.81524564  1
  O  O2  1  0.43935830  0.18625801  0.68398685  1
  O  O3  1  0.93867820  0.69048598  0.68475436  1
  O  O4  1  0.06132180  0.30951402  0.31524564  1
  O  O5  1  0.56064170  0.81374199  0.31601315  1
  O  O6  1  0.18625801  0.43935830  0.18398685  1
  O  O7  1  0.69048598  0.93867820  0.18475436  1
  O  O8  1  0.71038567  0.96357224  0.87394120  1
  O  O9  1  0.21786993  0.45926936  0.87482806  1
  O  O10  1  0.03642776  0.28961433  0.62605880  1
  O  O11  1  0.54073064  0.78213007  0.62517194  1
  O  O12  1  0.45926936  0.21786993  0.37482806  1
  O  O13  1  0.96357224  0.71038567  0.37394120  1
  O  O14  1  0.78213007  0.54073064  0.12517194  1
  O  O15  1  0.28961433  0.03642776  0.12605880  1
  O  O16  1  0.55633780  0.79932775  0.97132901  1
  O  O17  1  0.04999255  0.30439918  0.97037239  1
  O  O18  1  0.20067225  0.44366220  0.52867099  1
  O  O19  1  0.69560082  0.95000745  0.52962761  1
  O  O20  1  0.30439918  0.04999255  0.47037239  1
  O  O21  1  0.79932775  0.55633780  0.47132901  1
  O  O22  1  0.95000745  0.69560082  0.02962761  1
  O  O23  1  0.44366220  0.20067225  0.02867099  1
loop_
_geom_bond_atom_site_label_1
_geom_bond_atom_site_label_2
_geom_bond_distance
_geom_bond_site_symmetry_2
K0 O10 2.602050 1_655
K0 O2 2.636924 1_555
K0 O19 2.747590 1_545
K0 O11 2.808718 1_555
K0 O18 2.978356 1_555
K0 O21 3.116435 1_555
K1 O15 2.602050 1_565
K1 O6 2.636924 1_555
K1 O22 2.747590 1_455
K1 O14 2.808718 1_555
K1 O23 2.978356 1_555
K1 O16 3.116435 1_554
K2 O8 2.602050 1_545
K2 O0 2.636924 1_555
K2 O17 2.747590 1_655
K2 O9 2.808718 1_555
K2 O16 2.978356 1_555
K2 O23 3.116435 1_556
K3 O13 2.602050 1_455
K3 O5 2.636924 1_555
K3 O20 2.747590 1_565
K3 O12 2.808718 1_555
K3 O21 2.978356 1_555
K3 O18 3.116435 1_555
Mn0 O6 1.916961 1_555
Mn0 O5 1.918674 1_545
Mn0 O7 1.920904 1_545
Mn0 O4 1.921772 1_555
Mn0 O15 2.284300 1_555
Mn0 O12 2.285099 1_555
Mn1 O5 1.916961 1_555
Mn1 O6 1.918674 1_655
Mn1 O4 1.920904 1_655
Mn1 O7 1.921772 1_555
Mn1 O13 2.284300 1_555
Mn1 O14 2.285099 1_555
Mn2 O10 1.860586 1_555
Mn2 O11 1.870808 1_545
Mn2 O20 1.912281 1_555
Mn2 O2 1.914785 1_555
Mn2 O19 1.939363 1_545
Mn2 O18 1.942186 1_555
Mn3 O11 1.875570 1_555
Mn3 O10 1.877871 1_655
Mn3 O3 1.891280 1_555
Mn3 O19 1.925907 1_555
Mn3 O18 1.930545 1_655
Mn3 O21 1.936401 1_555
Mn4 O8 1.860586 1_555
Mn4 O9 1.870808 1_655
Mn4 O22 1.912281 1_556
Mn4 O0 1.914785 1_555
Mn4 O17 1.939363 1_655
Mn4 O16 1.942186 1_555
Mn5 O9 1.875570 1_555
Mn5 O8 1.877871 1_545
Mn5 O1 1.891280 1_555
Mn5 O17 1.925907 1_555
Mn5 O16 1.930545 1_545
Mn5 O23 1.936401 1_556
Mn6 O0 1.916961 1_555
Mn6 O2 1.918674 1_565
Mn6 O1 1.920904 1_565
Mn6 O3 1.921772 1_555
Mn6 O8 2.284300 1_555
Mn6 O11 2.285099 1_555
Mn7 O2 1.916961 1_555
Mn7 O0 1.918674 1_455
Mn7 O3 1.920904 1_455
Mn7 O1 1.921772 1_555
Mn7 O10 2.284300 1_555
Mn7 O9 2.285099 1_555
Mn8 O15 1.860586 1_555
Mn8 O14 1.870808 1_455
Mn8 O17 1.912281 1_554
Mn8 O6 1.914785 1_555
Mn8 O22 1.939363 1_455
Mn8 O23 1.942186 1_555
Mn9 O14 1.875570 1_555
Mn9 O15 1.877871 1_565
Mn9 O7 1.891280 1_555
Mn9 O22 1.925907 1_555
Mn9 O23 1.930545 1_565
Mn9 O16 1.936401 1_554
Mn10 O13 1.860586 1_555
Mn10 O12 1.870808 1_565
Mn10 O19 1.912281 1_555
Mn10 O5 1.914785 1_555
Mn10 O20 1.939363 1_565
Mn10 O21 1.942186 1_555
Mn11 O12 1.875570 1_555
Mn11 O13 1.877871 1_455
Mn11 O4 1.891280 1_555
Mn11 O20 1.925907 1_555
Mn11 O21 1.930545 1_455
Mn11 O18 1.936401 1_555
