# generated using pymatgen
data_NdNiSb2
_symmetry_space_group_name_H-M   'P 1'
_cell_length_a   4.39200553
_cell_length_b   4.39200553
_cell_length_c   9.78763043
_cell_angle_alpha   90.00000000
_cell_angle_beta   90.00000000
_cell_angle_gamma   90.00000000
_symmetry_Int_Tables_number   1
_chemical_formula_structural   NdNiSb2
_chemical_formula_sum   'Nd2 Ni2 Sb4'
_cell_volume   188.80057779
_cell_formula_units_Z   2
loop_
 _symmetry_equiv_pos_site_id
 _symmetry_equiv_pos_as_xyz
  1  'x, y, z'
loop_
 _atom_site_type_symbol
 _atom_site_label
 _atom_site_symmetry_multiplicity
 _atom_site_fract_x
 _atom_site_fract_y
 _atom_site_fract_z
 _atom_site_occupancy
  Nd  Nd0  1  0.75000000  0.75000000  0.74222348  1
  Nd  Nd1  1  0.25000000  0.25000000  0.25777652  1
  Ni  Ni0  1  0.25000000  0.75000000  0.50000000  1
  Ni  Ni1  1  0.75000000  0.25000000  0.50000000  1
  Sb  Sb0  1  0.25000000  0.75000000  -0.00000000  1
  Sb  Sb1  1  0.75000000  0.25000000  -0.00000000  1
  Sb  Sb2  1  0.75000000  0.75000000  0.37106350  1
  Sb  Sb3  1  0.25000000  0.25000000  0.62893650  1
loop_
_geom_bond_atom_site_label_1
_geom_bond_atom_site_label_2
_geom_bond_distance
_geom_bond_site_symmetry_2
Nd0 Ni0 3.231577 1_555
Nd0 Ni1 3.231577 1_555
Nd0 Ni1 3.231577 1_565
Nd0 Ni0 3.231577 1_655
Nd0 Sb3 3.297623 1_555
Nd0 Sb3 3.297623 1_665
Nd0 Sb3 3.297623 1_565
Nd0 Sb3 3.297623 1_655
Nd0 Sb0 3.344856 1_656
Nd0 Sb1 3.344856 1_566
Nd0 Sb0 3.344856 1_556
Nd0 Sb1 3.344856 1_556
Nd1 Ni0 3.231577 1_555
Nd1 Ni1 3.231577 1_455
Nd1 Ni1 3.231577 1_555
Nd1 Ni0 3.231577 1_545
Nd1 Sb2 3.297623 1_445
Nd1 Sb2 3.297623 1_455
Nd1 Sb2 3.297623 1_545
Nd1 Sb2 3.297623 1_555
Nd1 Sb0 3.344856 1_555
Nd1 Sb1 3.344856 1_455
Nd1 Sb0 3.344856 1_545
Nd1 Sb1 3.344856 1_555
Ni0 Sb3 2.532791 1_555
Ni0 Sb3 2.532791 1_565
Ni0 Sb2 2.532791 1_455
Ni0 Sb2 2.532791 1_555
Ni1 Sb3 2.532791 1_555
Ni1 Sb3 2.532791 1_655
Ni1 Sb2 2.532791 1_545
Ni1 Sb2 2.532791 1_555
Sb0 Sb1 3.105617 1_465
Sb0 Sb1 3.105617 1_455
Sb0 Sb1 3.105617 1_565
Sb0 Sb1 3.105617 1_555
