# generated using pymatgen
data_Nb2ZnO6
_symmetry_space_group_name_H-M   'P 1'
_cell_length_a   5.05574439
_cell_length_b   5.76456888
_cell_length_c   14.28526660
_cell_angle_alpha   90.00000000
_cell_angle_beta   90.00000000
_cell_angle_gamma   90.00000000
_symmetry_Int_Tables_number   1
_chemical_formula_structural   Nb2ZnO6
_chemical_formula_sum   'Nb8 Zn4 O24'
_cell_volume   416.33247793
_cell_formula_units_Z   4
loop_
 _symmetry_equiv_pos_site_id
 _symmetry_equiv_pos_as_xyz
  1  'x, y, z'
loop_
 _atom_site_type_symbol
 _atom_site_label
 _atom_site_symmetry_multiplicity
 _atom_site_fract_x
 _atom_site_fract_y
 _atom_site_fract_z
 _atom_site_occupancy
  Nb  Nb0  1  0.74817366  0.68470984  0.65947081  1
  Nb  Nb1  1  0.24817366  0.81529016  0.84052919  1
  Nb  Nb2  1  0.75182634  0.68470984  0.34052919  1
  Nb  Nb3  1  0.25182634  0.81529016  0.15947081  1
  Nb  Nb4  1  0.74817366  0.18470984  0.84052919  1
  Nb  Nb5  1  0.24817366  0.31529016  0.65947081  1
  Nb  Nb6  1  0.75182634  0.18470984  0.15947081  1
  Nb  Nb7  1  0.25182634  0.31529016  0.34052919  1
  Zn  Zn0  1  0.75000000  0.67032413  -0.00000000  1
  Zn  Zn1  1  0.25000000  0.82967587  0.50000000  1
  Zn  Zn2  1  0.25000000  0.32967587  -0.00000000  1
  Zn  Zn3  1  0.75000000  0.17032413  0.50000000  1
  O  O0  1  0.92034368  0.37802033  0.74433692  1
  O  O1  1  0.42034368  0.12197967  0.75566308  1
  O  O2  1  0.57965632  0.37802033  0.25566308  1
  O  O3  1  0.07965632  0.12197967  0.24433692  1
  O  O4  1  0.07965632  0.62197967  0.25566308  1
  O  O5  1  0.57965632  0.87802033  0.24433692  1
  O  O6  1  0.42034368  0.62197967  0.74433692  1
  O  O7  1  0.92034368  0.87802033  0.75566308  1
  O  O8  1  0.91478382  0.38562102  0.07889633  1
  O  O9  1  0.41478382  0.11437898  0.42110367  1
  O  O10  1  0.58521618  0.38562102  0.92110367  1
  O  O11  1  0.08521618  0.11437898  0.57889633  1
  O  O12  1  0.92618566  0.89483235  0.09492969  1
  O  O13  1  0.42618566  0.60516765  0.40507031  1
  O  O14  1  0.57381434  0.89483235  0.90507031  1
  O  O15  1  0.07381434  0.60516765  0.59492969  1
  O  O16  1  0.07381434  0.10516765  0.90507031  1
  O  O17  1  0.57381434  0.39483235  0.59492969  1
  O  O18  1  0.42618566  0.10516765  0.09492969  1
  O  O19  1  0.92618566  0.39483235  0.40507031  1
  O  O20  1  0.91478382  0.88562102  0.42110367  1
  O  O21  1  0.41478382  0.61437898  0.07889633  1
  O  O22  1  0.58521618  0.88562102  0.57889633  1
  O  O23  1  0.08521618  0.61437898  0.92110367  1
loop_
_geom_bond_atom_site_label_1
_geom_bond_atom_site_label_2
_geom_bond_distance
_geom_bond_site_symmetry_2
Nb0 O22 1.828928 1_555
Nb0 O15 1.941853 1_655
Nb0 O7 1.971725 1_555
Nb0 O6 2.085084 1_555
Nb0 O17 2.102245 1_555
Nb0 O0 2.313660 1_555
Nb1 O23 1.828928 1_555
Nb1 O14 1.941853 1_555
Nb1 O6 1.971725 1_555
Nb1 O7 2.085084 1_455
Nb1 O16 2.102245 1_565
Nb1 O1 2.313660 1_565
Nb2 O20 1.828928 1_555
Nb2 O13 1.941853 1_555
Nb2 O5 1.971725 1_555
Nb2 O4 2.085084 1_655
Nb2 O19 2.102245 1_555
Nb2 O2 2.313660 1_555
Nb3 O21 1.828928 1_555
Nb3 O12 1.941853 1_455
Nb3 O4 1.971725 1_555
Nb3 O5 2.085084 1_555
Nb3 O18 2.102245 1_565
Nb3 O3 2.313660 1_565
Nb4 O10 1.828928 1_555
Nb4 O16 1.941853 1_655
Nb4 O0 1.971725 1_555
Nb4 O1 2.085084 1_555
Nb4 O14 2.102245 1_545
Nb4 O7 2.313660 1_545
Nb5 O11 1.828928 1_555
Nb5 O17 1.941853 1_555
Nb5 O1 1.971725 1_555
Nb5 O0 2.085084 1_455
Nb5 O15 2.102245 1_555
Nb5 O6 2.313660 1_555
Nb6 O8 1.828928 1_555
Nb6 O18 1.941853 1_555
Nb6 O2 1.971725 1_555
Nb6 O3 2.085084 1_655
Nb6 O12 2.102245 1_545
Nb6 O5 2.313660 1_545
Nb7 O9 1.828928 1_555
Nb7 O19 1.941853 1_455
Nb7 O3 1.971725 1_555
Nb7 O2 2.085084 1_555
Nb7 O13 2.102245 1_555
Nb7 O4 2.313660 1_555
O8 Zn2 2.060703 1_655
O8 Zn0 2.158199 1_555
O9 Zn3 2.060703 1_555
O9 Zn1 2.158199 1_545
O10 Zn2 2.060703 1_556
O10 Zn0 2.158199 1_556
O11 Zn3 2.060703 1_455
O11 Zn1 2.158199 1_545
O12 Zn0 2.075420 1_555
O13 Zn1 2.075420 1_555
O14 Zn0 2.075420 1_556
O15 Zn1 2.075420 1_555
O16 Zn2 2.075420 1_556
O17 Zn3 2.075420 1_555
O18 Zn2 2.075420 1_555
O19 Zn3 2.075420 1_555
O20 Zn1 2.060703 1_655
O20 Zn3 2.158199 1_565
O21 Zn0 2.060703 1_555
O21 Zn2 2.158199 1_555
O22 Zn1 2.060703 1_555
O22 Zn3 2.158199 1_565
O23 Zn0 2.060703 1_456
O23 Zn2 2.158199 1_556
