# generated using pymatgen
data_Yb2WO6
_symmetry_space_group_name_H-M   'P 1'
_cell_length_a   5.63634200
_cell_length_b   7.64408000
_cell_length_c   11.16999467
_cell_angle_alpha   79.44651202
_cell_angle_beta   90.00000000
_cell_angle_gamma   90.00000000
_symmetry_Int_Tables_number   1
_chemical_formula_structural   Yb2WO6
_chemical_formula_sum   'Yb8 W4 O24'
_cell_volume   473.11455735
_cell_formula_units_Z   4
loop_
 _symmetry_equiv_pos_site_id
 _symmetry_equiv_pos_as_xyz
  1  'x, y, z'
loop_
 _atom_site_type_symbol
 _atom_site_label
 _atom_site_symmetry_multiplicity
 _atom_site_fract_x
 _atom_site_fract_y
 _atom_site_fract_z
 _atom_site_occupancy
  Yb  Yb0  1  0.18779100  0.19902500  0.41575100  1
  Yb  Yb1  1  0.18779100  0.80097500  0.08424900  1
  Yb  Yb2  1  0.81220900  0.80097500  0.58424900  1
  Yb  Yb3  1  0.81220900  0.19902500  0.91575100  1
  Yb  Yb4  1  0.66887500  0.50000000  0.25000000  1
  Yb  Yb5  1  0.33112500  0.50000000  0.75000000  1
  Yb  Yb6  1  0.73627700  0.00000000  0.25000000  1
  Yb  Yb7  1  0.26372300  0.00000000  0.75000000  1
  W  W0  1  0.25050200  0.29046300  0.09973400  1
  W  W1  1  0.25050200  0.70953700  0.40026600  1
  W  W2  1  0.74949800  0.70953700  0.90026600  1
  W  W3  1  0.74949800  0.29046300  0.59973400  1
  O  O0  1  0.45760800  0.21659400  0.25133700  1
  O  O1  1  0.45760800  0.78340600  0.24866300  1
  O  O2  1  0.54239200  0.78340600  0.74866300  1
  O  O3  1  0.54239200  0.21659400  0.75133700  1
  O  O4  1  0.02900100  0.07550300  0.10349100  1
  O  O5  1  0.02900100  0.92449700  0.39650900  1
  O  O6  1  0.97099900  0.92449700  0.89650900  1
  O  O7  1  0.97099900  0.07550300  0.60349100  1
  O  O8  1  0.98361100  0.28863200  0.21214400  1
  O  O9  1  0.98361100  0.71136800  0.28785600  1
  O  O10  1  0.01638900  0.71136800  0.78785600  1
  O  O11  1  0.01638900  0.28863200  0.71214400  1
  O  O12  1  0.83545900  0.34843200  0.43678300  1
  O  O13  1  0.83545900  0.65156800  0.06321700  1
  O  O14  1  0.16454100  0.65156800  0.56321700  1
  O  O15  1  0.16454100  0.34843200  0.93678300  1
  O  O16  1  0.65943300  0.51970700  0.61047700  1
  O  O17  1  0.65943300  0.48029300  0.88952300  1
  O  O18  1  0.34056700  0.48029300  0.38952300  1
  O  O19  1  0.34056700  0.51970700  0.11047700  1
  O  O20  1  0.48319300  0.14519000  0.56784300  1
  O  O21  1  0.48319300  0.85481000  0.93215700  1
  O  O22  1  0.51680700  0.85481000  0.43215700  1
  O  O23  1  0.51680700  0.14519000  0.06784300  1
loop_
_geom_bond_atom_site_label_1
_geom_bond_atom_site_label_2
_geom_bond_distance
_geom_bond_site_symmetry_2
O0 W0 2.049106 1_555
O0 Yb6 2.284188 1_555
O0 Yb0 2.369221 1_555
O0 Yb4 2.469718 1_555
O1 W1 2.049106 1_555
O1 Yb6 2.284188 1_565
O1 Yb1 2.369221 1_555
O1 Yb4 2.469718 1_555
O2 W2 2.049106 1_555
O2 Yb7 2.284188 1_565
O2 Yb2 2.369221 1_555
O2 Yb5 2.469718 1_555
O3 W3 2.049106 1_555
O3 Yb7 2.284188 1_555
O3 Yb3 2.369221 1_555
O3 Yb5 2.469718 1_555
O4 W0 2.057949 1_555
O4 Yb6 2.321081 1_455
O4 Yb1 2.327271 1_545
O4 Yb3 2.461085 1_454
O5 W1 2.057949 1_555
O5 Yb6 2.321081 1_465
O5 Yb0 2.327271 1_565
O5 Yb2 2.461085 1_455
O6 W2 2.057949 1_555
O6 Yb7 2.321081 1_665
O6 Yb3 2.327271 1_565
O6 Yb1 2.461085 1_656
O7 W3 2.057949 1_555
O7 Yb7 2.321081 1_655
O7 Yb2 2.327271 1_545
O7 Yb0 2.461085 1_655
O8 W0 1.957862 1_655
O8 Yb4 2.487274 1_555
O8 Yb0 2.528900 1_655
O8 Yb6 2.578436 1_555
O9 W1 1.957862 1_655
O9 Yb4 2.487274 1_555
O9 Yb1 2.528900 1_655
O9 Yb6 2.578436 1_565
O10 W2 1.957862 1_455
O10 Yb5 2.487274 1_555
O10 Yb2 2.528900 1_455
O10 Yb7 2.578436 1_565
O11 W3 1.957862 1_455
O11 Yb5 2.487274 1_555
O11 Yb3 2.528900 1_455
O11 Yb7 2.578436 1_555
O12 W3 1.857053 1_555
O12 Yb0 2.324107 1_655
O12 Yb4 2.385663 1_555
O13 W2 1.857053 1_554
O13 Yb1 2.324107 1_655
O13 Yb4 2.385663 1_555
O14 W1 1.857053 1_555
O14 Yb2 2.324107 1_455
O14 Yb5 2.385663 1_555
O15 W0 1.857053 1_556
O15 Yb3 2.324107 1_455
O15 Yb5 2.385663 1_555
O16 W3 1.849294 1_555
O16 Yb2 2.284565 1_555
O16 Yb5 2.406183 1_555
O17 W2 1.849294 1_555
O17 Yb3 2.284565 1_555
O17 Yb5 2.406183 1_555
O18 W1 1.849294 1_555
O18 Yb0 2.284565 1_555
O18 Yb4 2.406183 1_555
O19 W0 1.849294 1_555
O19 Yb1 2.284565 1_555
O19 Yb4 2.406183 1_555
O20 W3 1.938535 1_555
O20 Yb0 2.360421 1_555
O20 Yb7 2.464696 1_555
O21 W2 1.938535 1_555
O21 Yb1 2.360421 1_556
O21 Yb7 2.464696 1_565
O22 W1 1.938535 1_555
O22 Yb2 2.360421 1_555
O22 Yb6 2.464696 1_565
O23 W0 1.938535 1_555
O23 Yb3 2.360421 1_554
O23 Yb6 2.464696 1_555
