# generated using pymatgen
data_Sr5Pb4
_symmetry_space_group_name_H-M   'P 1'
_cell_length_a   8.61590700
_cell_length_b   9.02643000
_cell_length_c   17.70751600
_cell_angle_alpha   90.00000000
_cell_angle_beta   90.00000000
_cell_angle_gamma   90.00000000
_symmetry_Int_Tables_number   1
_chemical_formula_structural   Sr5Pb4
_chemical_formula_sum   'Sr20 Pb16'
_cell_volume   1377.12912711
_cell_formula_units_Z   4
loop_
 _symmetry_equiv_pos_site_id
 _symmetry_equiv_pos_as_xyz
  1  'x, y, z'
loop_
 _atom_site_type_symbol
 _atom_site_label
 _atom_site_symmetry_multiplicity
 _atom_site_fract_x
 _atom_site_fract_y
 _atom_site_fract_z
 _atom_site_occupancy
  Sr  Sr0  1  0.65743800  0.17644000  0.62360500  1
  Sr  Sr1  1  0.15743800  0.32356000  0.87639500  1
  Sr  Sr2  1  0.34256200  0.82356000  0.12360500  1
  Sr  Sr3  1  0.84256200  0.67644000  0.37639500  1
  Sr  Sr4  1  0.34256200  0.82356000  0.37639500  1
  Sr  Sr5  1  0.84256200  0.67644000  0.12360500  1
  Sr  Sr6  1  0.65743800  0.17644000  0.87639500  1
  Sr  Sr7  1  0.15743800  0.32356000  0.62360500  1
  Sr  Sr8  1  0.49559600  0.67833200  0.59745500  1
  Sr  Sr9  1  0.99559600  0.82166800  0.90254500  1
  Sr  Sr10  1  0.50440400  0.32166800  0.09745500  1
  Sr  Sr11  1  0.00440400  0.17833200  0.40254500  1
  Sr  Sr12  1  0.50440400  0.32166800  0.40254500  1
  Sr  Sr13  1  0.00440400  0.17833200  0.09745500  1
  Sr  Sr14  1  0.49559600  0.67833200  0.90254500  1
  Sr  Sr15  1  0.99559600  0.82166800  0.59745500  1
  Sr  Sr16  1  0.82691100  0.50452500  0.75000000  1
  Sr  Sr17  1  0.32691100  0.99547500  0.75000000  1
  Sr  Sr18  1  0.17308900  0.49547500  0.25000000  1
  Sr  Sr19  1  0.67308900  0.00452500  0.25000000  1
  Pb  Pb0  1  0.67227800  0.97522300  0.46216700  1
  Pb  Pb1  1  0.17227800  0.52477700  0.03783300  1
  Pb  Pb2  1  0.32772200  0.02477700  0.96216700  1
  Pb  Pb3  1  0.82772200  0.47522300  0.53783300  1
  Pb  Pb4  1  0.32772200  0.02477700  0.53783300  1
  Pb  Pb5  1  0.82772200  0.47522300  0.96216700  1
  Pb  Pb6  1  0.67227800  0.97522300  0.03783300  1
  Pb  Pb7  1  0.17227800  0.52477700  0.46216700  1
  Pb  Pb8  1  0.45371900  0.39270300  0.75000000  1
  Pb  Pb9  1  0.95371900  0.10729700  0.75000000  1
  Pb  Pb10  1  0.54628100  0.60729700  0.25000000  1
  Pb  Pb11  1  0.04628100  0.89270300  0.25000000  1
  Pb  Pb12  1  0.70225400  0.86367200  0.75000000  1
  Pb  Pb13  1  0.20225400  0.63632800  0.75000000  1
  Pb  Pb14  1  0.29774600  0.13632800  0.25000000  1
  Pb  Pb15  1  0.79774600  0.36367200  0.25000000  1
loop_
_geom_bond_atom_site_label_1
_geom_bond_atom_site_label_2
_geom_bond_distance
_geom_bond_site_symmetry_2
Pb0 Pb4 3.287590 1_565
Pb0 Sr0 3.389271 1_565
Pb0 Sr3 3.425320 1_555
Pb0 Sr4 3.500148 1_555
Pb0 Sr11 3.558702 1_665
Pb0 Sr12 3.603581 1_565
Pb0 Sr19 3.766256 1_565
Pb0 Sr8 3.903585 1_555
Pb0 Sr15 3.926845 1_555
Pb1 Pb5 3.287590 1_454
Pb1 Sr1 3.389271 1_554
Pb1 Sr2 3.425320 1_555
Pb1 Sr5 3.500148 1_455
Pb1 Sr10 3.558702 1_555
Pb1 Sr13 3.603581 1_555
Pb1 Sr18 3.766256 1_555
Pb1 Sr9 3.903585 1_454
Pb1 Sr14 3.926845 1_554
Pb2 Pb6 3.287590 1_546
Pb2 Sr2 3.389271 1_546
Pb2 Sr1 3.425320 1_555
Pb2 Sr6 3.500148 1_555
Pb2 Sr9 3.558702 1_445
Pb2 Sr14 3.603581 1_545
Pb2 Sr17 3.766256 1_545
Pb2 Sr10 3.903585 1_556
Pb2 Sr13 3.926845 1_556
Pb3 Pb7 3.287590 1_655
Pb3 Sr3 3.389271 1_555
Pb3 Sr0 3.425320 1_555
Pb3 Sr7 3.500148 1_655
Pb3 Sr8 3.558702 1_555
Pb3 Sr15 3.603581 1_555
Pb3 Sr16 3.766256 1_555
Pb3 Sr11 3.903585 1_655
Pb3 Sr12 3.926845 1_555
Pb4 Sr4 3.389271 1_545
Pb4 Sr7 3.425320 1_555
Pb4 Sr0 3.500148 1_555
Pb4 Sr15 3.558702 1_445
Pb4 Sr8 3.603581 1_545
Pb4 Sr17 3.766256 1_545
Pb4 Sr12 3.903585 1_555
Pb4 Sr11 3.926845 1_555
Pb5 Sr5 3.389271 1_556
Pb5 Sr6 3.425320 1_555
Pb5 Sr1 3.500148 1_655
Pb5 Sr14 3.558702 1_555
Pb5 Sr9 3.603581 1_555
Pb5 Sr16 3.766256 1_555
Pb5 Sr13 3.903585 1_656
Pb5 Sr10 3.926845 1_556
Pb6 Sr6 3.389271 1_564
Pb6 Sr5 3.425320 1_555
Pb6 Sr2 3.500148 1_555
Pb6 Sr13 3.558702 1_665
Pb6 Sr10 3.603581 1_565
Pb6 Sr19 3.766256 1_565
Pb6 Sr14 3.903585 1_554
Pb6 Sr9 3.926845 1_554
Pb7 Sr7 3.389271 1_555
Pb7 Sr4 3.425320 1_555
Pb7 Sr3 3.500148 1_455
Pb7 Sr12 3.558702 1_555
Pb7 Sr11 3.603581 1_555
Pb7 Sr18 3.766256 1_555
Pb7 Sr15 3.903585 1_455
Pb7 Sr8 3.926845 1_555
Pb8 Sr16 3.370091 1_555
Pb8 Sr0 3.449741 1_555
Pb8 Sr6 3.449741 1_555
Pb8 Sr7 3.451844 1_555
Pb8 Sr1 3.451844 1_555
Pb8 Sr17 3.748316 1_545
Pb8 Sr14 3.751506 1_555
Pb8 Sr8 3.751506 1_555
Pb9 Sr17 3.370091 1_645
Pb9 Sr7 3.449741 1_655
Pb9 Sr1 3.449741 1_655
Pb9 Sr0 3.451844 1_555
Pb9 Sr6 3.451844 1_555
Pb9 Sr16 3.748316 1_555
Pb9 Sr9 3.751506 1_545
Pb9 Sr15 3.751506 1_545
Pb10 Pb15 3.087075 1_555
Pb10 Sr18 3.370091 1_555
Pb10 Sr2 3.449741 1_555
Pb10 Sr4 3.449741 1_555
Pb10 Sr5 3.451844 1_555
Pb10 Sr3 3.451844 1_555
Pb10 Sr19 3.748316 1_565
Pb10 Sr12 3.751506 1_555
Pb10 Sr10 3.751506 1_555
Pb11 Pb14 3.087075 1_565
Pb11 Sr19 3.370091 1_465
Pb11 Sr3 3.449741 1_455
Pb11 Sr5 3.449741 1_455
Pb11 Sr2 3.451844 1_555
Pb11 Sr4 3.451844 1_555
Pb11 Sr18 3.748316 1_555
Pb11 Sr13 3.751506 1_565
Pb11 Sr11 3.751506 1_565
Pb12 Pb9 3.087075 1_565
Pb12 Sr16 3.415101 1_555
Pb12 Sr17 3.445817 1_555
Pb12 Sr0 3.623356 1_565
Pb12 Sr6 3.623356 1_565
Pb12 Sr14 3.642194 1_555
Pb12 Sr8 3.642194 1_555
Pb12 Sr15 3.718600 1_555
Pb12 Sr9 3.718600 1_555
Pb13 Pb8 3.087075 1_555
Pb13 Sr17 3.415101 1_555
Pb13 Sr16 3.445817 1_455
Pb13 Sr1 3.623356 1_555
Pb13 Sr7 3.623356 1_555
Pb13 Sr15 3.642194 1_455
Pb13 Sr9 3.642194 1_455
Pb13 Sr14 3.718600 1_555
Pb13 Sr8 3.718600 1_555
Pb14 Sr18 3.415101 1_555
Pb14 Sr19 3.445817 1_555
Pb14 Sr2 3.623356 1_545
Pb14 Sr4 3.623356 1_545
Pb14 Sr12 3.642194 1_555
Pb14 Sr10 3.642194 1_555
Pb14 Sr11 3.718600 1_555
Pb14 Sr13 3.718600 1_555
Pb15 Sr19 3.415101 1_555
Pb15 Sr18 3.445817 1_655
Pb15 Sr5 3.623356 1_555
Pb15 Sr3 3.623356 1_555
Pb15 Sr11 3.642194 1_655
Pb15 Sr13 3.642194 1_655
Pb15 Sr10 3.718600 1_555
Pb15 Sr12 3.718600 1_555
