# generated using pymatgen
data_Cs3Pb4Au
_symmetry_space_group_name_H-M   'P 1'
_cell_length_a   6.93488664
_cell_length_b   7.52765984
_cell_length_c   14.05494218
_cell_angle_alpha   90.00000000
_cell_angle_beta   90.00000000
_cell_angle_gamma   90.00000000
_symmetry_Int_Tables_number   1
_chemical_formula_structural   Cs3Pb4Au
_chemical_formula_sum   'Cs6 Pb8 Au2'
_cell_volume   733.71671948
_cell_formula_units_Z   2
loop_
 _symmetry_equiv_pos_site_id
 _symmetry_equiv_pos_as_xyz
  1  'x, y, z'
loop_
 _atom_site_type_symbol
 _atom_site_label
 _atom_site_symmetry_multiplicity
 _atom_site_fract_x
 _atom_site_fract_y
 _atom_site_fract_z
 _atom_site_occupancy
  Cs  Cs0  1  0.16646072  -0.00000000  0.75311169  1
  Cs  Cs1  1  0.16646072  -0.00000000  0.24688831  1
  Cs  Cs2  1  0.43890586  0.50000000  0.50000000  1
  Cs  Cs3  1  0.56109414  -0.00000000  -0.00000000  1
  Cs  Cs4  1  0.83353928  0.50000000  0.25311169  1
  Cs  Cs5  1  0.83353928  0.50000000  0.74688831  1
  Pb  Pb0  1  0.04796113  0.28337992  -0.00000000  1
  Pb  Pb1  1  0.04796113  0.71662008  -0.00000000  1
  Pb  Pb2  1  0.34522580  0.50000000  0.88507316  1
  Pb  Pb3  1  0.34522580  0.50000000  0.11492684  1
  Pb  Pb4  1  0.65477420  -0.00000000  0.38507316  1
  Pb  Pb5  1  0.65477420  -0.00000000  0.61492684  1
  Pb  Pb6  1  0.95203887  0.78337992  0.50000000  1
  Pb  Pb7  1  0.95203887  0.21662008  0.50000000  1
  Au  Au0  1  0.30244693  -0.00000000  0.50000000  1
  Au  Au1  1  0.69755307  0.50000000  -0.00000000  1
loop_
_geom_bond_atom_site_label_1
_geom_bond_atom_site_label_2
_geom_bond_distance
_geom_bond_site_symmetry_2
Cs0 Pb5 3.903813 1_555
Cs0 Pb5 4.045223 1_455
Cs0 Pb0 4.155324 1_556
Cs0 Pb1 4.155324 1_546
Cs0 Pb7 4.186374 1_455
Cs0 Pb6 4.186374 1_445
Cs0 Pb2 4.375301 1_555
Cs0 Pb2 4.375301 1_545
Cs0 Cs5 4.416390 1_455
Cs0 Cs5 4.416390 1_445
Cs0 Cs3 4.419349 1_556
Cs1 Pb4 3.903813 1_555
Cs1 Pb4 4.045223 1_455
Cs1 Pb0 4.155324 1_555
Cs1 Pb1 4.155324 1_545
Cs1 Pb7 4.186374 1_455
Cs1 Pb6 4.186374 1_445
Cs1 Pb3 4.375301 1_555
Cs1 Pb3 4.375301 1_545
Cs1 Cs4 4.416390 1_445
Cs1 Cs4 4.416390 1_455
Cs1 Cs3 4.419349 1_555
Cs2 Pb6 3.993788 1_455
Cs2 Pb7 3.993788 1_455
Cs2 Pb7 4.148921 1_555
Cs2 Pb6 4.148921 1_555
Cs2 Pb5 4.360809 1_565
Cs2 Pb5 4.360809 1_555
Cs2 Pb4 4.360809 1_555
Cs2 Pb4 4.360809 1_565
Cs2 Cs4 4.419349 1_555
Cs2 Cs5 4.419349 1_555
Cs3 Pb0 3.993788 1_655
Cs3 Pb1 3.993788 1_645
Cs3 Pb1 4.148921 1_545
Cs3 Pb0 4.148921 1_555
Cs3 Pb2 4.360809 1_544
Cs3 Pb3 4.360809 1_545
Cs3 Pb3 4.360809 1_555
Cs3 Pb2 4.360809 1_554
Cs4 Pb3 3.903813 1_555
Cs4 Pb3 4.045223 1_655
Cs4 Pb6 4.155324 1_555
Cs4 Pb7 4.155324 1_555
Cs4 Pb0 4.186374 1_655
Cs4 Pb1 4.186374 1_655
Cs4 Pb4 4.375301 1_565
Cs4 Pb4 4.375301 1_555
Cs5 Pb2 3.903813 1_555
Cs5 Pb2 4.045223 1_655
Cs5 Pb6 4.155324 1_555
Cs5 Pb7 4.155324 1_555
Cs5 Pb0 4.186374 1_656
Cs5 Pb1 4.186374 1_656
Cs5 Pb5 4.375301 1_555
Cs5 Pb5 4.375301 1_565
Pb0 Pb2 3.085114 1_554
Pb0 Pb3 3.085114 1_555
Pb0 Pb1 3.261285 1_555
Pb1 Pb2 3.085114 1_554
Pb1 Pb3 3.085114 1_555
Pb4 Pb6 3.085114 1_545
Pb4 Pb7 3.085114 1_555
Pb5 Pb6 3.085114 1_545
Pb5 Pb7 3.085114 1_555
Pb6 Pb7 3.261285 1_565
Au0 Pb7 2.926447 1_455
Au0 Pb6 2.926447 1_445
Au0 Pb4 2.929013 1_555
Au0 Pb5 2.929013 1_555
Au0 Cs1 3.680344 1_555
Au0 Cs0 3.680344 1_555
Au0 Cs2 3.880973 1_545
Au0 Cs2 3.880973 1_555
Au1 Pb1 2.926447 1_655
Au1 Pb0 2.926447 1_655
Au1 Pb2 2.929013 1_554
Au1 Pb3 2.929013 1_555
Au1 Cs4 3.680344 1_555
Au1 Cs5 3.680344 1_554
Au1 Cs3 3.880973 1_555
Au1 Cs3 3.880973 1_565
