# generated using pymatgen
data_Cs3EuCl6
_symmetry_space_group_name_H-M   'P 1'
_cell_length_a   8.47202385
_cell_length_b   14.38725766
_cell_length_c   13.65568198
_cell_angle_alpha   107.76953614
_cell_angle_beta   90.00000000
_cell_angle_gamma   90.00000000
_symmetry_Int_Tables_number   1
_chemical_formula_structural   Cs3EuCl6
_chemical_formula_sum   'Cs12 Eu4 Cl24'
_cell_volume   1585.07066123
_cell_formula_units_Z   4
loop_
 _symmetry_equiv_pos_site_id
 _symmetry_equiv_pos_as_xyz
  1  'x, y, z'
loop_
 _atom_site_type_symbol
 _atom_site_label
 _atom_site_symmetry_multiplicity
 _atom_site_fract_x
 _atom_site_fract_y
 _atom_site_fract_z
 _atom_site_occupancy
  Cs  Cs0  1  0.43205932  0.68596608  0.73648948  1
  Cs  Cs1  1  0.56794068  0.31403392  0.26351052  1
  Cs  Cs2  1  0.93205932  0.31403392  0.76351052  1
  Cs  Cs3  1  0.06794068  0.68596608  0.23648948  1
  Cs  Cs4  1  0.96818837  0.90102256  0.63930523  1
  Cs  Cs5  1  0.03181163  0.09897744  0.36069477  1
  Cs  Cs6  1  0.46818837  0.09897744  0.86069477  1
  Cs  Cs7  1  0.53181163  0.90102256  0.13930523  1
  Cs  Cs8  1  0.93467130  0.67895214  0.88651114  1
  Cs  Cs9  1  0.06532870  0.32104786  0.11348886  1
  Cs  Cs10  1  0.43467130  0.32104786  0.61348886  1
  Cs  Cs11  1  0.56532870  0.67895214  0.38651114  1
  Eu  Eu0  1  0.00000000  0.50000000  0.50000000  1
  Eu  Eu1  1  0.50000000  0.50000000  -0.00000000  1
  Eu  Eu2  1  0.00000000  0.00000000  -0.00000000  1
  Eu  Eu3  1  0.50000000  0.00000000  0.50000000  1
  Cl  Cl0  1  0.49444049  0.88578065  0.62362943  1
  Cl  Cl1  1  0.50555951  0.11421935  0.37637057  1
  Cl  Cl2  1  0.99444049  0.11421935  0.87637057  1
  Cl  Cl3  1  0.00555951  0.88578065  0.12362943  1
  Cl  Cl4  1  0.30247647  0.64702527  0.99427107  1
  Cl  Cl5  1  0.69752353  0.35297473  0.00572893  1
  Cl  Cl6  1  0.80247647  0.35297473  0.50572893  1
  Cl  Cl7  1  0.19752353  0.64702527  0.49427107  1
  Cl  Cl8  1  0.79532680  0.64422973  0.60311387  1
  Cl  Cl9  1  0.20467320  0.35577027  0.39688613  1
  Cl  Cl10  1  0.29532680  0.35577027  0.89688613  1
  Cl  Cl11  1  0.70467320  0.64422973  0.10311387  1
  Cl  Cl12  1  0.63583963  0.49943132  0.81760595  1
  Cl  Cl13  1  0.36416037  0.50056868  0.18239405  1
  Cl  Cl14  1  0.13583963  0.50056868  0.68239405  1
  Cl  Cl15  1  0.86416037  0.49943132  0.31760595  1
  Cl  Cl16  1  0.17994210  0.87087017  0.85631200  1
  Cl  Cl17  1  0.82005790  0.12912983  0.14368800  1
  Cl  Cl18  1  0.67994210  0.12912983  0.64368800  1
  Cl  Cl19  1  0.32005790  0.87087017  0.35631200  1
  Cl  Cl20  1  0.73330917  0.90695815  0.90423164  1
  Cl  Cl21  1  0.26669083  0.09304185  0.09576836  1
  Cl  Cl22  1  0.23330917  0.09304185  0.59576836  1
  Cl  Cl23  1  0.76669083  0.90695815  0.40423164  1
loop_
_geom_bond_atom_site_label_1
_geom_bond_atom_site_label_2
_geom_bond_distance
_geom_bond_site_symmetry_2
Cl0 Eu3 2.691877 1_565
Cl0 Cs0 3.690968 1_555
Cl0 Cs11 3.717387 1_555
Cl0 Cs6 3.725186 1_565
Cl0 Cs4 4.021725 1_555
Cl1 Eu3 2.691877 1_555
Cl1 Cs1 3.690968 1_555
Cl1 Cs10 3.717387 1_555
Cl1 Cs7 3.725186 1_545
Cl1 Cs5 4.021725 1_555
Cl2 Eu2 2.691877 1_656
Cl2 Cs2 3.690968 1_555
Cl2 Cs9 3.717387 1_656
Cl2 Cs4 3.725186 1_545
Cl2 Cs6 4.021725 1_655
Cl3 Eu2 2.691877 1_565
Cl3 Cs3 3.690968 1_555
Cl3 Cs8 3.717387 1_454
Cl3 Cs5 3.725186 1_565
Cl3 Cs7 4.021725 1_455
Cl4 Eu1 2.716971 1_556
Cl4 Cs8 3.535361 1_455
Cl4 Cs3 3.751202 1_556
Cl4 Cs0 3.887748 1_555
Cl4 Cs7 4.078478 1_556
Cl5 Eu1 2.716971 1_555
Cl5 Cs9 3.535361 1_655
Cl5 Cs2 3.751202 1_554
Cl5 Cs1 3.887748 1_555
Cl5 Cs6 4.078478 1_554
Cl6 Eu0 2.716971 1_655
Cl6 Cs10 3.535361 1_555
Cl6 Cs1 3.751202 1_555
Cl6 Cs2 3.887748 1_555
Cl6 Cs5 4.078478 1_655
Cl7 Eu0 2.716971 1_555
Cl7 Cs11 3.535361 1_555
Cl7 Cs0 3.751202 1_555
Cl7 Cs3 3.887748 1_555
Cl7 Cs4 4.078478 1_455
Cl8 Eu0 2.740789 1_655
Cl8 Cs0 3.532983 1_555
Cl8 Cs11 3.700978 1_555
Cl8 Cs4 3.863177 1_555
Cl8 Cs8 3.929369 1_555
Cl9 Eu0 2.740789 1_555
Cl9 Cs1 3.532983 1_555
Cl9 Cs10 3.700978 1_555
Cl9 Cs5 3.863177 1_555
Cl9 Cs9 3.929369 1_555
Cl10 Eu1 2.740789 1_556
Cl10 Cs2 3.532983 1_455
Cl10 Cs9 3.700978 1_556
Cl10 Cs6 3.863177 1_555
Cl10 Cs10 3.929369 1_555
Cl11 Eu1 2.740789 1_555
Cl11 Cs3 3.532983 1_655
Cl11 Cs8 3.700978 1_554
Cl11 Cs7 3.863177 1_555
Cl11 Cs11 3.929369 1_555
Cl12 Eu1 2.741480 1_556
Cl12 Cs8 3.533052 1_555
Cl12 Cs2 3.571527 1_555
Cl12 Cs10 3.590859 1_555
Cl12 Cs0 3.636544 1_555
Cl13 Eu1 2.741480 1_555
Cl13 Cs9 3.533052 1_555
Cl13 Cs3 3.571527 1_555
Cl13 Cs11 3.590859 1_555
Cl13 Cs1 3.636544 1_555
Cl14 Eu0 2.741480 1_555
Cl14 Cs10 3.533052 1_555
Cl14 Cs0 3.571527 1_555
Cl14 Cs8 3.590859 1_455
Cl14 Cs2 3.636544 1_455
Cl15 Eu0 2.741480 1_655
Cl15 Cs11 3.533052 1_555
Cl15 Cs1 3.571527 1_555
Cl15 Cs9 3.590859 1_655
Cl15 Cs3 3.636544 1_655
Cl16 Eu2 2.720396 1_566
Cl16 Cs0 3.414629 1_555
Cl16 Cs8 3.578688 1_455
Cl16 Cs4 3.601781 1_455
Cl16 Cs6 4.076477 1_565
Cl17 Eu2 2.720396 1_655
Cl17 Cs1 3.414629 1_555
Cl17 Cs9 3.578688 1_655
Cl17 Cs5 3.601781 1_655
Cl17 Cs7 4.076477 1_545
Cl18 Eu3 2.720396 1_555
Cl18 Cs2 3.414629 1_555
Cl18 Cs10 3.578688 1_555
Cl18 Cs6 3.601781 1_555
Cl18 Cs4 4.076477 1_545
Cl19 Eu3 2.720396 1_565
Cl19 Cs3 3.414629 1_555
Cl19 Cs11 3.578688 1_555
Cl19 Cs7 3.601781 1_555
Cl19 Cs5 4.076477 1_565
Cl20 Eu2 2.745649 1_666
Cl20 Cs8 3.639393 1_555
Cl20 Cs7 3.659707 1_556
Cl20 Cs6 3.746080 1_565
Cl20 Cs4 4.106891 1_555
Cl20 Cs0 4.174249 1_555
Cl21 Eu2 2.745649 1_555
Cl21 Cs9 3.639393 1_555
Cl21 Cs6 3.659707 1_554
Cl21 Cs7 3.746080 1_545
Cl21 Cs5 4.106891 1_555
Cl21 Cs1 4.174249 1_555
Cl22 Eu3 2.745649 1_555
Cl22 Cs10 3.639393 1_555
Cl22 Cs5 3.659707 1_555
Cl22 Cs4 3.746080 1_445
Cl22 Cs6 4.106891 1_555
Cl22 Cs2 4.174249 1_455
Cl23 Eu3 2.745649 1_565
Cl23 Cs11 3.639393 1_555
Cl23 Cs4 3.659707 1_555
Cl23 Cs5 3.746080 1_665
Cl23 Cs7 4.106891 1_555
Cl23 Cs3 4.174249 1_655
