# generated using pymatgen
data_Yb6Ni20P13
_symmetry_space_group_name_H-M   'P 1'
_cell_length_a   12.63078280
_cell_length_b   12.63078280
_cell_length_c   3.73497500
_cell_angle_alpha   90.00000000
_cell_angle_beta   90.00000000
_cell_angle_gamma   120.00000417
_symmetry_Int_Tables_number   1
_chemical_formula_structural   Yb6Ni20P13
_chemical_formula_sum   'Yb6 Ni20 P13'
_cell_volume   516.03462910
_cell_formula_units_Z   1
loop_
 _symmetry_equiv_pos_site_id
 _symmetry_equiv_pos_as_xyz
  1  'x, y, z'
loop_
 _atom_site_type_symbol
 _atom_site_label
 _atom_site_symmetry_multiplicity
 _atom_site_fract_x
 _atom_site_fract_y
 _atom_site_fract_z
 _atom_site_occupancy
  Yb  Yb0  1  0.18966000  0.46985300  0.00000000  1
  Yb  Yb1  1  0.53014700  0.71980700  0.00000000  1
  Yb  Yb2  1  0.28019300  0.81034000  0.00000000  1
  Yb  Yb3  1  0.71890100  0.18845900  0.50000000  1
  Yb  Yb4  1  0.81154100  0.53044200  0.50000000  1
  Yb  Yb5  1  0.46955800  0.28109900  0.50000000  1
  Ni  Ni0  1  0.09104700  0.19610600  0.00000000  1
  Ni  Ni1  1  0.80389400  0.89494200  0.00000000  1
  Ni  Ni2  1  0.10505800  0.90895300  0.00000000  1
  Ni  Ni3  1  0.33333300  0.66666700  0.50000000  1
  Ni  Ni4  1  0.91486400  0.07350700  0.50000000  1
  Ni  Ni5  1  0.92649300  0.84135600  0.50000000  1
  Ni  Ni6  1  0.15864400  0.08513600  0.50000000  1
  Ni  Ni7  1  0.66666700  0.33333300  0.00000000  1
  Ni  Ni8  1  0.41791500  0.43882500  0.00000000  1
  Ni  Ni9  1  0.56117500  0.97909000  0.00000000  1
  Ni  Ni10  1  0.02091000  0.58208500  0.00000000  1
  Ni  Ni11  1  0.24865600  0.31786700  0.50000000  1
  Ni  Ni12  1  0.68213300  0.93079000  0.50000000  1
  Ni  Ni13  1  0.06921000  0.75134400  0.50000000  1
  Ni  Ni14  1  0.43603500  0.02179700  0.50000000  1
  Ni  Ni15  1  0.97820300  0.41423800  0.50000000  1
  Ni  Ni16  1  0.58576200  0.56396500  0.50000000  1
  Ni  Ni17  1  0.92306200  0.24242800  0.00000000  1
  Ni  Ni18  1  0.75757200  0.68063300  0.00000000  1
  Ni  Ni19  1  0.31936700  0.07693800  0.00000000  1
  P  P0  1  0.38671600  0.52279800  0.50000000  1
  P  P1  1  0.47720200  0.86391800  0.50000000  1
  P  P2  1  0.13608200  0.61328400  0.50000000  1
  P  P3  1  0.04542500  0.27774800  0.50000000  1
  P  P4  1  0.72225200  0.76767700  0.50000000  1
  P  P5  1  0.23232300  0.95457500  0.50000000  1
  P  P6  1  0.52117900  0.13756000  0.00000000  1
  P  P7  1  0.86244000  0.38362000  0.00000000  1
  P  P8  1  0.61638000  0.47882100  0.00000000  1
  P  P9  1  0.76622700  0.04764500  0.00000000  1
  P  P10  1  0.95235500  0.71858300  0.00000000  1
  P  P11  1  0.28141700  0.23377300  0.00000000  1
  P  P12  1  0.00000000  0.00000000  0.00000000  1
loop_
_geom_bond_atom_site_label_1
_geom_bond_atom_site_label_2
_geom_bond_distance
_geom_bond_site_symmetry_2
Ni0 P12 2.146945 1_555
Ni0 P11 2.205469 1_555
Ni0 P3 2.340334 1_554
Ni0 P3 2.340334 1_555
Ni0 Yb0 3.033148 1_555
Ni1 P12 2.146945 1_665
Ni1 P9 2.205469 1_565
Ni1 P4 2.340340 1_555
Ni1 P4 2.340340 1_554
Ni1 Yb1 3.033150 1_555
Ni2 P12 2.146934 1_565
Ni2 P10 2.205469 1_455
Ni2 P5 2.340341 1_555
Ni2 P5 2.340341 1_554
Ni2 Yb2 3.033160 1_555
Ni3 P2 2.232037 1_555
Ni3 P1 2.232040 1_555
Ni3 P0 2.232049 1_555
Ni3 Yb2 2.906749 1_556
Ni3 Yb2 2.906749 1_555
Ni3 Yb0 2.906756 1_555
Ni3 Yb0 2.906756 1_556
Ni3 Yb1 2.906759 1_556
Ni3 Yb1 2.906759 1_555
Ni4 P3 2.262802 1_655
Ni4 P12 2.550347 1_656
Ni4 P12 2.550347 1_655
Ni4 P9 2.550605 1_555
Ni4 P9 2.550605 1_556
Ni5 P4 2.262804 1_555
Ni5 P12 2.550355 1_665
Ni5 P12 2.550355 1_666
Ni5 P10 2.550588 1_555
Ni5 P10 2.550588 1_556
Ni6 P5 2.262792 1_545
Ni6 P12 2.550354 1_555
Ni6 P12 2.550354 1_556
Ni6 P11 2.550599 1_556
Ni6 P11 2.550599 1_555
Ni7 P7 2.224274 1_555
Ni7 P6 2.224280 1_555
Ni7 P8 2.224298 1_555
Ni7 Yb3 2.911785 1_555
Ni7 Yb3 2.911785 1_554
Ni7 Yb4 2.911791 1_554
Ni7 Yb4 2.911791 1_555
Ni7 Yb5 2.911794 1_554
Ni7 Yb5 2.911794 1_555
Ni8 P0 2.277220 1_554
Ni8 P0 2.277220 1_555
Ni8 P11 2.283652 1_555
Ni8 P8 2.296241 1_555
Ni8 Yb5 3.030076 1_554
Ni8 Yb5 3.030076 1_555
Ni8 Yb1 3.094200 1_555
Ni8 Yb0 3.097643 1_555
Ni9 P1 2.277220 1_554
Ni9 P1 2.277220 1_555
Ni9 P9 2.283650 1_565
Ni9 P6 2.296254 1_565
Ni9 Yb3 3.030076 1_565
Ni9 Yb3 3.030076 1_564
Ni9 Yb2 3.094200 1_555
Ni9 Yb1 3.097643 1_555
Ni10 P2 2.277220 1_555
Ni10 P2 2.277220 1_554
Ni10 P10 2.283662 1_455
Ni10 P7 2.296245 1_455
Ni10 Yb4 3.030076 1_455
Ni10 Yb4 3.030076 1_454
Ni10 Yb0 3.094200 1_555
Ni10 Yb2 3.097643 1_555
Ni11 P11 2.286148 1_555
Ni11 P11 2.286148 1_556
Ni11 P0 2.286294 1_555
Ni11 P3 2.354852 1_555
Ni11 Yb0 3.026307 1_556
Ni11 Yb0 3.026307 1_555
Ni11 Yb5 3.049012 1_555
Ni12 P9 2.286148 1_565
Ni12 P9 2.286148 1_566
Ni12 P1 2.286291 1_555
Ni12 P4 2.354864 1_555
Ni12 Yb1 3.026314 1_555
Ni12 Yb1 3.026314 1_556
Ni12 Yb3 3.048999 1_565
Ni13 P10 2.286148 1_455
Ni13 P10 2.286148 1_456
Ni13 P2 2.286303 1_555
Ni13 P5 2.354856 1_555
Ni13 Yb2 3.026317 1_556
Ni13 Yb2 3.026317 1_555
Ni13 Yb4 3.049004 1_455
Ni14 P5 2.270853 1_545
Ni14 P6 2.282445 1_556
Ni14 P6 2.282445 1_555
Ni14 P1 2.298660 1_545
Ni14 Yb2 3.039459 1_546
Ni14 Yb2 3.039459 1_545
Ni14 Yb5 3.085345 1_555
Ni14 Yb3 3.110518 1_555
Ni15 P3 2.270853 1_655
Ni15 P7 2.282447 1_556
Ni15 P7 2.282447 1_555
Ni15 P2 2.298660 1_655
Ni15 Yb0 3.039459 1_655
Ni15 Yb0 3.039459 1_656
Ni15 Yb3 3.085345 1_555
Ni15 Yb4 3.110518 1_555
Ni16 P4 2.270853 1_555
Ni16 P8 2.282440 1_555
Ni16 P8 2.282440 1_556
Ni16 P0 2.298660 1_555
Ni16 Yb1 3.039459 1_556
Ni16 Yb1 3.039459 1_555
Ni16 Yb4 3.085345 1_555
Ni16 Yb5 3.110518 1_555
Ni17 P9 2.259069 1_555
Ni17 P7 2.265441 1_555
Ni17 P3 2.320718 1_655
Ni17 P3 2.320718 1_654
Ni17 Yb3 2.973905 1_555
Ni17 Yb3 2.973905 1_554
Ni17 Yb0 3.149236 1_655
Ni18 P10 2.259061 1_555
Ni18 P8 2.265422 1_555
Ni18 P4 2.320725 1_555
Ni18 P4 2.320725 1_554
Ni18 Yb4 2.973896 1_554
Ni18 Yb4 2.973896 1_555
Ni18 Yb1 3.149244 1_555
Ni19 P11 2.259086 1_555
Ni19 P6 2.265417 1_555
Ni19 P5 2.320720 1_544
Ni19 P5 2.320720 1_545
Ni19 Yb5 2.973903 1_554
Ni19 Yb5 2.973903 1_555
Ni19 Yb2 3.149231 1_545
P0 Yb1 2.907496 1_556
P0 Yb1 2.907496 1_555
P0 Yb0 2.909507 1_555
P0 Yb0 2.909507 1_556
P1 Yb2 2.907496 1_556
P1 Yb2 2.907496 1_555
P1 Yb1 2.909507 1_556
P1 Yb1 2.909507 1_555
P2 Yb0 2.907496 1_555
P2 Yb0 2.907496 1_556
P2 Yb2 2.909507 1_556
P2 Yb2 2.909507 1_555
P3 Yb0 2.876383 1_555
P3 Yb0 2.876383 1_556
P4 Yb1 2.876383 1_556
P4 Yb1 2.876383 1_555
P5 Yb2 2.876383 1_556
P5 Yb2 2.876383 1_555
P6 Yb5 2.895124 1_555
P6 Yb5 2.895124 1_554
P6 Yb3 2.920992 1_555
P6 Yb3 2.920992 1_554
P7 Yb3 2.895131 1_555
P7 Yb3 2.895131 1_554
P7 Yb4 2.920983 1_554
P7 Yb4 2.920983 1_555
P8 Yb4 2.895133 1_555
P8 Yb4 2.895133 1_554
P8 Yb5 2.920989 1_554
P8 Yb5 2.920989 1_555
P9 Yb3 2.841020 1_555
P9 Yb3 2.841020 1_554
P10 Yb4 2.841027 1_555
P10 Yb4 2.841027 1_554
P11 Yb5 2.841030 1_554
P11 Yb5 2.841030 1_555
