# generated using pymatgen
data_Ba(RuN2)2
_symmetry_space_group_name_H-M   'P 1'
_cell_length_a   11.16467192
_cell_length_b   11.16467192
_cell_length_c   11.16467192
_cell_angle_alpha   90.00000000
_cell_angle_beta   90.00000000
_cell_angle_gamma   90.00000000
_symmetry_Int_Tables_number   1
_chemical_formula_structural   Ba(RuN2)2
_chemical_formula_sum   'Ba12 Ru24 N48'
_cell_volume   1391.67522810
_cell_formula_units_Z   12
loop_
 _symmetry_equiv_pos_site_id
 _symmetry_equiv_pos_as_xyz
  1  'x, y, z'
loop_
 _atom_site_type_symbol
 _atom_site_label
 _atom_site_symmetry_multiplicity
 _atom_site_fract_x
 _atom_site_fract_y
 _atom_site_fract_z
 _atom_site_occupancy
  Ba  Ba0  1  0.50000000  0.50000000  -0.00000000  1
  Ba  Ba1  1  0.50000000  0.00000000  0.50000000  1
  Ba  Ba2  1  -0.00000000  0.50000000  0.50000000  1
  Ba  Ba3  1  -0.00000000  -0.00000000  -0.00000000  1
  Ba  Ba4  1  0.12371777  0.87628223  0.37628223  1
  Ba  Ba5  1  0.87628223  0.37628223  0.12371777  1
  Ba  Ba6  1  0.37628223  0.12371777  0.87628223  1
  Ba  Ba7  1  0.62371777  0.62371777  0.62371777  1
  Ba  Ba8  1  0.87628223  0.12371777  0.62371777  1
  Ba  Ba9  1  0.12371777  0.62371777  0.87628223  1
  Ba  Ba10  1  0.62371777  0.87628223  0.12371777  1
  Ba  Ba11  1  0.37628223  0.37628223  0.37628223  1
  Ru  Ru0  1  0.38635204  0.69712794  0.35217035  1
  Ru  Ru1  1  0.61364796  0.19712794  0.14782965  1
  Ru  Ru2  1  0.11364796  0.30287206  0.85217035  1
  Ru  Ru3  1  0.88635204  0.80287206  0.64782965  1
  Ru  Ru4  1  0.35217035  0.38635204  0.69712794  1
  Ru  Ru5  1  0.14782965  0.61364796  0.19712794  1
  Ru  Ru6  1  0.85217035  0.11364796  0.30287206  1
  Ru  Ru7  1  0.64782965  0.88635204  0.80287206  1
  Ru  Ru8  1  0.69712794  0.35217035  0.38635204  1
  Ru  Ru9  1  0.19712794  0.14782965  0.61364796  1
  Ru  Ru10  1  0.30287206  0.85217035  0.11364796  1
  Ru  Ru11  1  0.80287206  0.64782965  0.88635204  1
  Ru  Ru12  1  0.61364796  0.30287206  0.64782965  1
  Ru  Ru13  1  0.38635204  0.80287206  0.85217035  1
  Ru  Ru14  1  0.88635204  0.69712794  0.14782965  1
  Ru  Ru15  1  0.11364796  0.19712794  0.35217035  1
  Ru  Ru16  1  0.64782965  0.61364796  0.30287206  1
  Ru  Ru17  1  0.85217035  0.38635204  0.80287206  1
  Ru  Ru18  1  0.14782965  0.88635204  0.69712794  1
  Ru  Ru19  1  0.35217035  0.11364796  0.19712794  1
  Ru  Ru20  1  0.30287206  0.64782965  0.61364796  1
  Ru  Ru21  1  0.80287206  0.85217035  0.38635204  1
  Ru  Ru22  1  0.69712794  0.14782965  0.88635204  1
  Ru  Ru23  1  0.19712794  0.35217035  0.11364796  1
  N  N0  1  0.36956050  0.83902647  0.27084421  1
  N  N1  1  0.63043950  0.33902647  0.22915579  1
  N  N2  1  0.13043950  0.16097353  0.77084421  1
  N  N3  1  0.86956050  0.66097353  0.72915579  1
  N  N4  1  0.27084421  0.36956050  0.83902647  1
  N  N5  1  0.22915579  0.63043950  0.33902647  1
  N  N6  1  0.77084421  0.13043950  0.16097353  1
  N  N7  1  0.72915579  0.86956050  0.66097353  1
  N  N8  1  0.83902647  0.27084421  0.36956050  1
  N  N9  1  0.33902647  0.22915579  0.63043950  1
  N  N10  1  0.16097353  0.77084421  0.13043950  1
  N  N11  1  0.66097353  0.72915579  0.86956050  1
  N  N12  1  0.63043950  0.16097353  0.72915579  1
  N  N13  1  0.36956050  0.66097353  0.77084421  1
  N  N14  1  0.86956050  0.83902647  0.22915579  1
  N  N15  1  0.13043950  0.33902647  0.27084421  1
  N  N16  1  0.72915579  0.63043950  0.16097353  1
  N  N17  1  0.77084421  0.36956050  0.66097353  1
  N  N18  1  0.22915579  0.86956050  0.83902647  1
  N  N19  1  0.27084421  0.13043950  0.33902647  1
  N  N20  1  0.16097353  0.72915579  0.63043950  1
  N  N21  1  0.66097353  0.77084421  0.36956050  1
  N  N22  1  0.83902647  0.22915579  0.86956050  1
  N  N23  1  0.33902647  0.27084421  0.13043950  1
  N  N24  1  0.42204332  0.72206185  0.51609488  1
  N  N25  1  0.57795668  0.22206185  0.98390512  1
  N  N26  1  0.07795668  0.27793815  0.01609488  1
  N  N27  1  0.92204332  0.77793815  0.48390512  1
  N  N28  1  0.51609488  0.42204332  0.72206185  1
  N  N29  1  0.98390512  0.57795668  0.22206185  1
  N  N30  1  0.01609488  0.07795668  0.27793815  1
  N  N31  1  0.48390512  0.92204332  0.77793815  1
  N  N32  1  0.72206185  0.51609488  0.42204332  1
  N  N33  1  0.22206185  0.98390512  0.57795668  1
  N  N34  1  0.27793815  0.01609488  0.07795668  1
  N  N35  1  0.77793815  0.48390512  0.92204332  1
  N  N36  1  0.57795668  0.27793815  0.48390512  1
  N  N37  1  0.42204332  0.77793815  0.01609488  1
  N  N38  1  0.92204332  0.72206185  0.98390512  1
  N  N39  1  0.07795668  0.22206185  0.51609488  1
  N  N40  1  0.48390512  0.57795668  0.27793815  1
  N  N41  1  0.01609488  0.42204332  0.77793815  1
  N  N42  1  0.98390512  0.92204332  0.72206185  1
  N  N43  1  0.51609488  0.07795668  0.22206185  1
  N  N44  1  0.27793815  0.48390512  0.57795668  1
  N  N45  1  0.77793815  0.01609488  0.42204332  1
  N  N46  1  0.72206185  0.98390512  0.92204332  1
  N  N47  1  0.22206185  0.51609488  0.07795668  1
loop_
_geom_bond_atom_site_label_1
_geom_bond_atom_site_label_2
_geom_bond_distance
_geom_bond_site_symmetry_2
Ba0 N40 3.227844 1_555
Ba0 N47 3.227844 1_555
Ba0 N28 3.227844 1_554
Ba0 N25 3.227844 1_554
Ba0 N37 3.227844 1_555
Ba0 N35 3.227844 1_554
Ba0 N23 3.449130 1_555
Ba0 N1 3.449130 1_555
Ba0 N16 3.449130 1_555
Ba0 N11 3.449130 1_554
Ba0 N13 3.449130 1_554
Ba0 N4 3.449130 1_554
Ba1 N24 3.227844 1_545
Ba1 N36 3.227844 1_555
Ba1 N31 3.227844 1_545
Ba1 N43 3.227844 1_555
Ba1 N45 3.227844 1_555
Ba1 N33 3.227844 1_545
Ba1 N19 3.449130 1_555
Ba1 N9 3.449130 1_555
Ba1 N12 3.449130 1_555
Ba1 N7 3.449130 1_545
Ba1 N21 3.449130 1_545
Ba1 N0 3.449130 1_545
Ba2 N32 3.227844 1_455
Ba2 N44 3.227844 1_555
Ba2 N41 3.227844 1_555
Ba2 N39 3.227844 1_555
Ba2 N27 3.227844 1_455
Ba2 N29 3.227844 1_455
Ba2 N15 3.449130 1_555
Ba2 N20 3.449130 1_555
Ba2 N5 3.449130 1_555
Ba2 N3 3.449130 1_455
Ba2 N17 3.449130 1_455
Ba2 N8 3.449130 1_455
Ba3 N46 3.227844 1_444
Ba3 N38 3.227844 1_444
Ba3 N26 3.227844 1_555
Ba3 N30 3.227844 1_555
Ba3 N34 3.227844 1_555
Ba3 N42 3.227844 1_444
Ba3 N2 3.449130 1_554
Ba3 N10 3.449130 1_545
Ba3 N6 3.449130 1_455
Ba3 N14 3.449130 1_445
Ba3 N22 3.449130 1_454
Ba3 N18 3.449130 1_544
Ba4 N33 2.778340 1_555
Ba4 N30 2.778340 1_565
Ba4 N27 2.778340 1_455
Ba4 N0 3.015367 1_555
Ba4 N5 3.015367 1_555
Ba4 N10 3.015367 1_555
Ba4 N19 3.305009 1_565
Ba4 N20 3.305009 1_555
Ba4 N14 3.305009 1_455
Ba5 N29 2.778340 1_555
Ba5 N26 2.778340 1_655
Ba5 N35 2.778340 1_554
Ba5 N8 3.015367 1_555
Ba5 N1 3.015367 1_555
Ba5 N6 3.015367 1_555
Ba5 N15 3.305009 1_655
Ba5 N16 3.305009 1_555
Ba5 N22 3.305009 1_554
Ba6 N25 2.778340 1_555
Ba6 N34 2.778340 1_556
Ba6 N31 2.778340 1_545
Ba6 N4 3.015367 1_555
Ba6 N9 3.015367 1_555
Ba6 N2 3.015367 1_555
Ba6 N23 3.305009 1_556
Ba6 N12 3.305009 1_555
Ba6 N18 3.305009 1_545
Ba7 N24 2.778340 1_555
Ba7 N28 2.778340 1_555
Ba7 N32 2.778340 1_555
Ba7 N3 3.015367 1_555
Ba7 N11 3.015367 1_555
Ba7 N7 3.015367 1_555
Ba7 N13 3.305009 1_555
Ba7 N21 3.305009 1_555
Ba7 N17 3.305009 1_555
Ba8 N42 2.778340 1_545
Ba8 N39 2.778340 1_655
Ba8 N45 2.778340 1_555
Ba8 N17 3.015367 1_555
Ba8 N22 3.015367 1_555
Ba8 N12 3.015367 1_555
Ba8 N2 3.305009 1_655
Ba8 N7 3.305009 1_545
Ba8 N8 3.305009 1_555
Ba9 N38 2.778340 1_455
Ba9 N47 2.778340 1_556
Ba9 N41 2.778340 1_555
Ba9 N13 3.015367 1_555
Ba9 N18 3.015367 1_555
Ba9 N20 3.015367 1_555
Ba9 N10 3.305009 1_556
Ba9 N3 3.305009 1_455
Ba9 N4 3.305009 1_555
Ba10 N46 2.778340 1_554
Ba10 N43 2.778340 1_565
Ba10 N37 2.778340 1_555
Ba10 N21 3.015367 1_555
Ba10 N14 3.015367 1_555
Ba10 N16 3.015367 1_555
Ba10 N6 3.305009 1_565
Ba10 N11 3.305009 1_554
Ba10 N0 3.305009 1_555
Ba11 N44 2.778340 1_555
Ba11 N40 2.778340 1_555
Ba11 N36 2.778340 1_555
Ba11 N15 3.015367 1_555
Ba11 N19 3.015367 1_555
Ba11 N23 3.015367 1_555
Ba11 N1 3.305009 1_555
Ba11 N5 3.305009 1_555
Ba11 N9 3.305009 1_555
N0 Ru0 1.835599 1_555
N0 Ru10 1.912087 1_555
N1 Ru1 1.835599 1_555
N1 Ru8 1.912087 1_555
N2 Ru2 1.835599 1_555
N2 Ru9 1.912087 1_555
N3 Ru3 1.835599 1_555
N3 Ru11 1.912087 1_555
N4 Ru4 1.835599 1_555
N4 Ru2 1.912087 1_555
N5 Ru5 1.835599 1_555
N5 Ru0 1.912087 1_555
N6 Ru6 1.835599 1_555
N6 Ru1 1.912087 1_555
N7 Ru7 1.835599 1_555
N7 Ru3 1.912087 1_555
N8 Ru8 1.835599 1_555
N8 Ru6 1.912087 1_555
N9 Ru9 1.835599 1_555
N9 Ru4 1.912087 1_555
N10 Ru10 1.835599 1_555
N10 Ru5 1.912087 1_555
N11 Ru11 1.835599 1_555
N11 Ru7 1.912087 1_555
N12 Ru12 1.835599 1_555
N12 Ru22 1.912087 1_555
N13 Ru13 1.835599 1_555
N13 Ru20 1.912087 1_555
N14 Ru14 1.835599 1_555
N14 Ru21 1.912087 1_555
N15 Ru15 1.835599 1_555
N15 Ru23 1.912087 1_555
N16 Ru16 1.835599 1_555
N16 Ru14 1.912087 1_555
N17 Ru17 1.835599 1_555
N17 Ru12 1.912087 1_555
N18 Ru18 1.835599 1_555
N18 Ru13 1.912087 1_555
N19 Ru19 1.835599 1_555
N19 Ru15 1.912087 1_555
N20 Ru20 1.835599 1_555
N20 Ru18 1.912087 1_555
N21 Ru21 1.835599 1_555
N21 Ru16 1.912087 1_555
N22 Ru22 1.835599 1_555
N22 Ru17 1.912087 1_555
N23 Ru23 1.835599 1_555
N23 Ru19 1.912087 1_555
N24 Ru0 1.893616 1_555
N24 Ru20 1.908761 1_555
N25 Ru1 1.893616 1_556
N25 Ru22 1.908761 1_555
N26 Ru2 1.893616 1_554
N26 Ru23 1.908761 1_555
N27 Ru3 1.893616 1_555
N27 Ru21 1.908761 1_555
N28 Ru4 1.893616 1_555
N28 Ru12 1.908761 1_555
N29 Ru5 1.893616 1_655
N29 Ru14 1.908761 1_555
N30 Ru6 1.893616 1_455
N30 Ru15 1.908761 1_555
N31 Ru7 1.893616 1_555
N31 Ru13 1.908761 1_555
N32 Ru8 1.893616 1_555
N32 Ru16 1.908761 1_555
N33 Ru9 1.893616 1_565
N33 Ru18 1.908761 1_555
N34 Ru10 1.893616 1_545
N34 Ru19 1.908761 1_555
N35 Ru11 1.893616 1_555
N35 Ru17 1.908761 1_555
N36 Ru12 1.893616 1_555
N36 Ru8 1.908761 1_555
N37 Ru13 1.893616 1_554
N37 Ru10 1.908761 1_555
N38 Ru14 1.893616 1_556
N38 Ru11 1.908761 1_555
N39 Ru15 1.893616 1_555
N39 Ru9 1.908761 1_555
N40 Ru16 1.893616 1_555
N40 Ru0 1.908761 1_555
N41 Ru17 1.893616 1_455
N41 Ru2 1.908761 1_555
N42 Ru18 1.893616 1_655
N42 Ru3 1.908761 1_555
N43 Ru19 1.893616 1_555
N43 Ru1 1.908761 1_555
N44 Ru20 1.893616 1_555
N44 Ru4 1.908761 1_555
N45 Ru21 1.893616 1_545
N45 Ru6 1.908761 1_555
N46 Ru22 1.893616 1_565
N46 Ru7 1.908761 1_555
N47 Ru23 1.893616 1_555
N47 Ru5 1.908761 1_555
