# generated using pymatgen
data_CaTiO3
_symmetry_space_group_name_H-M   'P 1'
_cell_length_a   5.41136137
_cell_length_b   5.41136137
_cell_length_c   7.68509595
_cell_angle_alpha   90.00000000
_cell_angle_beta   90.00000000
_cell_angle_gamma   90.60100907
_symmetry_Int_Tables_number   1
_chemical_formula_structural   CaTiO3
_chemical_formula_sum   'Ca4 Ti4 O12'
_cell_volume   225.02899171
_cell_formula_units_Z   4
loop_
 _symmetry_equiv_pos_site_id
 _symmetry_equiv_pos_as_xyz
  1  'x, y, z'
loop_
 _atom_site_type_symbol
 _atom_site_label
 _atom_site_symmetry_multiplicity
 _atom_site_fract_x
 _atom_site_fract_y
 _atom_site_fract_z
 _atom_site_occupancy
  Ca  Ca0  1  0.51440365  0.48559635  0.25000000  1
  Ca  Ca1  1  0.48559635  0.51440365  0.75000000  1
  Ca  Ca2  1  0.01091858  0.98908142  0.25000000  1
  Ca  Ca3  1  0.98908142  0.01091858  0.75000000  1
  Ti  Ti0  1  -0.00000000  0.50000000  0.50000000  1
  Ti  Ti1  1  -0.00000000  0.50000000  0.00000000  1
  Ti  Ti2  1  0.50000000  -0.00000000  0.50000000  1
  Ti  Ti3  1  0.50000000  -0.00000000  0.00000000  1
  O  O0  1  0.94976066  0.46008287  0.25000000  1
  O  O1  1  0.05023934  0.53991713  0.75000000  1
  O  O2  1  0.53991713  0.05023934  0.25000000  1
  O  O3  1  0.46008287  0.94976066  0.75000000  1
  O  O4  1  0.29119500  0.70880500  0.04402455  1
  O  O5  1  0.70880500  0.29119500  0.54402455  1
  O  O6  1  0.70880500  0.29119500  0.95597545  1
  O  O7  1  0.29119500  0.70880500  0.45597545  1
  O  O8  1  0.20575031  0.20575031  0.00000000  1
  O  O9  1  0.79424969  0.79424969  0.50000000  1
  O  O10  1  0.79424969  0.79424969  0.00000000  1
  O  O11  1  0.20575031  0.20575031  0.50000000  1
loop_
_geom_bond_atom_site_label_1
_geom_bond_atom_site_label_2
_geom_bond_distance
_geom_bond_site_symmetry_2
Ca0 O7 2.335417 1_555
Ca0 O4 2.335417 1_555
Ca0 O2 2.361361 1_555
Ca0 O0 2.361361 1_555
Ca0 O6 2.709676 1_554
Ca0 O5 2.709676 1_555
Ca1 O5 2.335417 1_555
Ca1 O6 2.335417 1_555
Ca1 O3 2.361361 1_555
Ca1 O1 2.361361 1_555
Ca1 O7 2.709676 1_555
Ca1 O4 2.709676 1_556
Ca2 O9 2.480245 1_455
Ca2 O8 2.480245 1_565
Ca2 O10 2.480245 1_455
Ca2 O11 2.480245 1_565
Ca2 O0 2.573596 1_465
Ca2 O2 2.573596 1_465
Ca2 O7 2.674804 1_555
Ca2 O4 2.674804 1_555
Ca2 O2 2.878219 1_565
Ca2 O0 2.878219 1_455
Ca3 O9 2.480245 1_545
Ca3 O10 2.480245 1_546
Ca3 O11 2.480245 1_655
Ca3 O8 2.480245 1_656
Ca3 O3 2.573596 1_645
Ca3 O1 2.573596 1_645
Ca3 O5 2.674804 1_555
Ca3 O6 2.674804 1_555
Ca3 O1 2.878219 1_655
Ca3 O3 2.878219 1_545
O0 Ti1 1.952083 1_655
O0 Ti0 1.952083 1_655
O1 Ti0 1.952083 1_555
O1 Ti1 1.952083 1_556
O2 Ti3 1.952083 1_555
O2 Ti2 1.952083 1_555
O3 Ti3 1.952083 1_566
O3 Ti2 1.952083 1_565
O4 Ti3 1.958790 1_565
O4 Ti1 1.958790 1_555
O5 Ti2 1.958790 1_555
O5 Ti0 1.958790 1_655
O6 Ti3 1.958790 1_556
O6 Ti1 1.958790 1_656
O7 Ti0 1.958790 1_555
O7 Ti2 1.958790 1_565
O8 Ti1 1.952491 1_555
O8 Ti3 1.952491 1_555
O9 Ti0 1.952491 1_655
O9 Ti2 1.952491 1_565
O10 Ti1 1.952491 1_655
O10 Ti3 1.952491 1_565
O11 Ti2 1.952491 1_555
O11 Ti0 1.952491 1_555
