# generated using pymatgen
data_AlB6H6(CCl3)2
_symmetry_space_group_name_H-M   'P 1'
_cell_length_a   10.88039300
_cell_length_b   9.30490600
_cell_length_c   14.65827998
_cell_angle_alpha   83.80473694
_cell_angle_beta   90.00000000
_cell_angle_gamma   90.00000000
_symmetry_Int_Tables_number   1
_chemical_formula_structural   AlB6H6(CCl3)2
_chemical_formula_sum   'Al4 B24 H24 C8 Cl24'
_cell_volume   1475.35258548
_cell_formula_units_Z   4
loop_
 _symmetry_equiv_pos_site_id
 _symmetry_equiv_pos_as_xyz
  1  'x, y, z'
loop_
 _atom_site_type_symbol
 _atom_site_label
 _atom_site_symmetry_multiplicity
 _atom_site_fract_x
 _atom_site_fract_y
 _atom_site_fract_z
 _atom_site_occupancy
  Al  Al0  1  0.21967200  0.15635800  0.65679300  1
  Al  Al1  1  0.71967200  0.84364200  0.84320700  1
  Al  Al2  1  0.78032800  0.84364200  0.34320700  1
  Al  Al3  1  0.28032800  0.15635800  0.15679300  1
  B  B0  1  0.45196800  0.32881700  0.51767400  1
  B  B1  1  0.95196800  0.67118300  0.98232600  1
  B  B2  1  0.54803200  0.67118300  0.48232600  1
  B  B3  1  0.04803200  0.32881700  0.01767400  1
  B  B4  1  0.38423100  0.46617800  0.57365200  1
  B  B5  1  0.88423100  0.53382200  0.92634800  1
  B  B6  1  0.61576900  0.53382200  0.42634800  1
  B  B7  1  0.11576900  0.46617800  0.07365200  1
  B  B8  1  0.53687200  0.40824300  0.60433300  1
  B  B9  1  0.03687200  0.59175700  0.89566700  1
  B  B10  1  0.46312800  0.59175700  0.39566700  1
  B  B11  1  0.96312800  0.40824300  0.10433300  1
  B  B12  1  0.38898200  0.63159200  0.50018600  1
  B  B13  1  0.88898200  0.36840800  0.99981400  1
  B  B14  1  0.61101800  0.36840800  0.49981400  1
  B  B15  1  0.11101800  0.63159200  0.00018600  1
  B  B16  1  0.49802400  0.59748100  0.59355000  1
  B  B17  1  0.99802400  0.40251900  0.90645000  1
  B  B18  1  0.50197600  0.40251900  0.40645000  1
  B  B19  1  0.00197600  0.59748100  0.09355000  1
  B  B20  1  0.36029900  0.46343700  0.45302500  1
  B  B21  1  0.86029900  0.53656300  0.04697500  1
  B  B22  1  0.63970100  0.53656300  0.54697500  1
  B  B23  1  0.13970100  0.46343700  0.95302500  1
  H  H0  1  0.03954800  0.01581000  0.59695600  1
  H  H1  1  0.53954800  0.98419000  0.90304400  1
  H  H2  1  0.96045200  0.98419000  0.40304400  1
  H  H3  1  0.46045200  0.01581000  0.09695600  1
  H  H4  1  0.08778700  0.15601100  0.51265500  1
  H  H5  1  0.58778700  0.84398900  0.98734500  1
  H  H6  1  0.91221300  0.84398900  0.48734500  1
  H  H7  1  0.41221300  0.15601100  0.01265500  1
  H  H8  1  0.99535200  0.19717500  0.60587500  1
  H  H9  1  0.49535200  0.80282500  0.89412500  1
  H  H10  1  0.00464800  0.80282500  0.39412500  1
  H  H11  1  0.50464800  0.19717500  0.10587500  1
  H  H12  1  0.20980800  0.04291500  0.82381400  1
  H  H13  1  0.70980800  0.95708500  0.67618600  1
  H  H14  1  0.79019200  0.95708500  0.17618600  1
  H  H15  1  0.29019200  0.04291500  0.32381400  1
  H  H16  1  0.35665600  0.12164000  0.79953700  1
  H  H17  1  0.85665600  0.87836000  0.70046300  1
  H  H18  1  0.64334400  0.87836000  0.20046300  1
  H  H19  1  0.14334400  0.12164000  0.29953700  1
  H  H20  1  0.31876200  0.95206700  0.76096900  1
  H  H21  1  0.81876200  0.04793300  0.73903100  1
  H  H22  1  0.68123800  0.04793300  0.23903100  1
  H  H23  1  0.18123800  0.95206700  0.26096900  1
  C  C0  1  0.07142100  0.12888000  0.58620300  1
  C  C1  1  0.57142100  0.87112000  0.91379700  1
  C  C2  1  0.92857900  0.87112000  0.41379700  1
  C  C3  1  0.42857900  0.12888000  0.08620300  1
  C  C4  1  0.28267800  0.05969700  0.77162600  1
  C  C5  1  0.78267800  0.94030300  0.72837400  1
  C  C6  1  0.71732200  0.94030300  0.22837400  1
  C  C7  1  0.21732200  0.05969700  0.27162600  1
  Cl  Cl0  1  0.39167600  0.14537700  0.54284600  1
  Cl  Cl1  1  0.89167600  0.85462300  0.95715400  1
  Cl  Cl2  1  0.60832400  0.85462300  0.45715400  1
  Cl  Cl3  1  0.10832400  0.14537700  0.04284600  1
  Cl  Cl4  1  0.25636400  0.41848800  0.65237500  1
  Cl  Cl5  1  0.75636400  0.58151200  0.84762500  1
  Cl  Cl6  1  0.74363600  0.58151200  0.34762500  1
  Cl  Cl7  1  0.24363600  0.41848800  0.15237500  1
  Cl  Cl8  1  0.57082700  0.31114700  0.71262200  1
  Cl  Cl9  1  0.07082700  0.68885300  0.78737800  1
  Cl  Cl10  1  0.42917300  0.68885300  0.28737800  1
  Cl  Cl11  1  0.92917300  0.31114700  0.21262200  1
  Cl  Cl12  1  0.27362500  0.76680200  0.50245500  1
  Cl  Cl13  1  0.77362500  0.23319800  0.99754500  1
  Cl  Cl14  1  0.72637500  0.23319800  0.49754500  1
  Cl  Cl15  1  0.22637500  0.76680200  0.00245500  1
  Cl  Cl16  1  0.49155500  0.69974500  0.68992600  1
  Cl  Cl17  1  0.99155500  0.30025500  0.81007400  1
  Cl  Cl18  1  0.50844500  0.30025500  0.31007400  1
  Cl  Cl19  1  0.00844500  0.69974500  0.18992600  1
  Cl  Cl20  1  0.21377000  0.42353700  0.40837800  1
  Cl  Cl21  1  0.71377000  0.57646300  0.09162200  1
  Cl  Cl22  1  0.78623000  0.57646300  0.59162200  1
  Cl  Cl23  1  0.28623000  0.42353700  0.90837800  1
loop_
_geom_bond_atom_site_label_1
_geom_bond_atom_site_label_2
_geom_bond_distance
_geom_bond_site_symmetry_2
Al0 C4 1.945634 1_555
Al0 C0 1.948076 1_555
Al0 Cl4 2.465495 1_555
Al0 Cl0 2.517831 1_555
Al1 C5 1.945634 1_555
Al1 C1 1.948076 1_555
Al1 Cl5 2.465495 1_555
Al1 Cl1 2.517831 1_555
Al2 C6 1.945634 1_555
Al2 C2 1.948076 1_555
Al2 Cl6 2.465495 1_555
Al2 Cl2 2.517831 1_555
Al3 C7 1.945634 1_555
Al3 C3 1.948076 1_555
Al3 Cl7 2.465495 1_555
Al3 Cl3 2.517831 1_555
B0 Cl0 1.828668 1_555
B1 Cl1 1.828668 1_555
B2 Cl2 1.828668 1_555
B3 Cl3 1.828668 1_555
B4 Cl4 1.831267 1_555
B5 Cl5 1.831267 1_555
B6 Cl6 1.831267 1_555
B7 Cl7 1.831267 1_555
B8 Cl8 1.778436 1_555
B9 Cl9 1.778436 1_555
B10 Cl10 1.778436 1_555
B11 Cl11 1.778436 1_555
B12 Cl12 1.779984 1_555
B13 Cl13 1.779984 1_555
B14 Cl14 1.779984 1_555
B15 Cl15 1.779984 1_555
B16 Cl16 1.787818 1_555
B17 Cl17 1.787818 1_555
B18 Cl18 1.787818 1_555
B19 Cl19 1.787818 1_555
B20 Cl20 1.777738 1_555
B21 Cl21 1.777738 1_555
B22 Cl22 1.777738 1_555
B23 Cl23 1.777738 1_555
C0 H4 1.094975 1_555
C0 H8 1.100707 1_455
C0 H0 1.102834 1_555
C1 H5 1.094975 1_555
C1 H9 1.100707 1_555
C1 H1 1.102834 1_555
C2 H6 1.094975 1_555
C2 H10 1.100707 1_655
C2 H2 1.102834 1_555
C3 H7 1.094975 1_555
C3 H11 1.100707 1_555
C3 H3 1.102834 1_555
C4 H16 1.094700 1_555
C4 H12 1.101101 1_555
C4 H20 1.102400 1_545
C5 H17 1.094700 1_555
C5 H13 1.101101 1_555
C5 H21 1.102400 1_565
C6 H18 1.094700 1_555
C6 H14 1.101101 1_555
C6 H22 1.102400 1_565
C7 H19 1.094700 1_555
C7 H15 1.101101 1_555
C7 H23 1.102400 1_545
