# generated using pymatgen
data_TcF4
_symmetry_space_group_name_H-M   'P 1'
_cell_length_a   5.38166790
_cell_length_b   9.33728238
_cell_length_c   11.21256405
_cell_angle_alpha   90.00000000
_cell_angle_beta   90.00000000
_cell_angle_gamma   90.00000000
_symmetry_Int_Tables_number   1
_chemical_formula_structural   TcF4
_chemical_formula_sum   'Tc8 F32'
_cell_volume   563.43305744
_cell_formula_units_Z   8
loop_
 _symmetry_equiv_pos_site_id
 _symmetry_equiv_pos_as_xyz
  1  'x, y, z'
loop_
 _atom_site_type_symbol
 _atom_site_label
 _atom_site_symmetry_multiplicity
 _atom_site_fract_x
 _atom_site_fract_y
 _atom_site_fract_z
 _atom_site_occupancy
  Tc  Tc0  1  0.59350248  0.62843366  0.17258778  1
  Tc  Tc1  1  0.40649752  0.12843366  0.32741222  1
  Tc  Tc2  1  0.90649752  0.37156634  0.67258778  1
  Tc  Tc3  1  0.09350248  0.87156634  0.82741222  1
  Tc  Tc4  1  0.40649752  0.37156634  0.82741222  1
  Tc  Tc5  1  0.59350248  0.87156634  0.67258778  1
  Tc  Tc6  1  0.09350248  0.62843366  0.32741222  1
  Tc  Tc7  1  0.90649752  0.12843366  0.17258778  1
  F  F0  1  0.40799844  0.73949708  0.30731058  1
  F  F1  1  0.59200156  0.23949708  0.19268942  1
  F  F2  1  0.09200156  0.26050292  0.80731058  1
  F  F3  1  0.90799844  0.76050292  0.69268942  1
  F  F4  1  0.59200156  0.26050292  0.69268942  1
  F  F5  1  0.40799844  0.76050292  0.80731058  1
  F  F6  1  0.90799844  0.73949708  0.19268942  1
  F  F7  1  0.09200156  0.23949708  0.30731058  1
  F  F8  1  0.28129873  0.51655530  0.19410274  1
  F  F9  1  0.71870127  0.01655530  0.30589726  1
  F  F10  1  0.21870127  0.48344470  0.69410274  1
  F  F11  1  0.78129873  0.98344470  0.80589726  1
  F  F12  1  0.71870127  0.48344470  0.80589726  1
  F  F13  1  0.28129873  0.98344470  0.69410274  1
  F  F14  1  0.78129873  0.51655530  0.30589726  1
  F  F15  1  0.21870127  0.01655530  0.19410274  1
  F  F16  1  0.44073236  0.74815762  0.06508593  1
  F  F17  1  0.55926764  0.24815762  0.43491407  1
  F  F18  1  0.05926764  0.25184238  0.56508593  1
  F  F19  1  0.94073236  0.75184238  0.93491407  1
  F  F20  1  0.55926764  0.25184238  0.93491407  1
  F  F21  1  0.44073236  0.75184238  0.56508593  1
  F  F22  1  0.94073236  0.74815762  0.43491407  1
  F  F23  1  0.05926764  0.24815762  0.06508593  1
  F  F24  1  0.74038306  0.50738658  0.06414292  1
  F  F25  1  0.25961694  0.00738658  0.43585708  1
  F  F26  1  0.75961694  0.49261342  0.56414292  1
  F  F27  1  0.24038306  0.99261342  0.93585708  1
  F  F28  1  0.25961694  0.49261342  0.93585708  1
  F  F29  1  0.74038306  0.99261342  0.56414292  1
  F  F30  1  0.24038306  0.50738658  0.43585708  1
  F  F31  1  0.75961694  0.00738658  0.06414292  1
loop_
_geom_bond_atom_site_label_1
_geom_bond_atom_site_label_2
_geom_bond_distance
_geom_bond_site_symmetry_2
F0 Tc6 1.997707 1_555
F0 Tc0 2.086613 1_555
F1 Tc7 1.997707 1_555
F1 Tc1 2.086613 1_555
F2 Tc4 1.997707 1_555
F2 Tc2 2.086613 1_455
F3 Tc5 1.997707 1_555
F3 Tc3 2.086613 1_655
F4 Tc2 1.997707 1_555
F4 Tc4 2.086613 1_555
F5 Tc3 1.997707 1_555
F5 Tc5 2.086613 1_555
F6 Tc0 1.997707 1_555
F6 Tc6 2.086613 1_655
F7 Tc1 1.997707 1_555
F7 Tc7 2.086613 1_455
F8 Tc0 1.993104 1_555
F8 Tc6 2.084934 1_555
F9 Tc1 1.993104 1_555
F9 Tc7 2.084934 1_555
F10 Tc2 1.993104 1_455
F10 Tc4 2.084934 1_555
F11 Tc3 1.993104 1_655
F11 Tc5 2.084934 1_555
F12 Tc4 1.993104 1_555
F12 Tc2 2.084934 1_555
F13 Tc5 1.993104 1_555
F13 Tc3 2.084934 1_555
F14 Tc6 1.993104 1_655
F14 Tc0 2.084934 1_555
F15 Tc7 1.993104 1_455
F15 Tc1 2.084934 1_555
F16 Tc0 1.838085 1_555
F17 Tc1 1.838085 1_555
F18 Tc2 1.838085 1_455
F19 Tc3 1.838085 1_655
F20 Tc4 1.838085 1_555
F21 Tc5 1.838085 1_555
F22 Tc6 1.838085 1_655
F23 Tc7 1.838085 1_455
F24 Tc0 1.838701 1_555
F25 Tc1 1.838701 1_555
F26 Tc2 1.838701 1_555
F27 Tc3 1.838701 1_555
F28 Tc4 1.838701 1_555
F29 Tc5 1.838701 1_555
F30 Tc6 1.838701 1_555
F31 Tc7 1.838701 1_555
