# generated using pymatgen
data_ErAgTe2
_symmetry_space_group_name_H-M   'P 1'
_cell_length_a   4.62398843
_cell_length_b   7.11318330
_cell_length_c   7.11318330
_cell_angle_alpha   90.00000000
_cell_angle_beta   90.00000000
_cell_angle_gamma   90.00000000
_symmetry_Int_Tables_number   1
_chemical_formula_structural   ErAgTe2
_chemical_formula_sum   'Er2 Ag2 Te4'
_cell_volume   233.96168426
_cell_formula_units_Z   2
loop_
 _symmetry_equiv_pos_site_id
 _symmetry_equiv_pos_as_xyz
  1  'x, y, z'
loop_
 _atom_site_type_symbol
 _atom_site_label
 _atom_site_symmetry_multiplicity
 _atom_site_fract_x
 _atom_site_fract_y
 _atom_site_fract_z
 _atom_site_occupancy
  Er  Er0  1  0.20239210  0.50000000  0.00000000  1
  Er  Er1  1  0.79760790  -0.00000000  0.50000000  1
  Ag  Ag0  1  0.00000000  -0.00000000  0.00000000  1
  Ag  Ag1  1  0.00000000  0.50000000  0.50000000  1
  Te  Te0  1  0.28487898  0.20195291  0.70195291  1
  Te  Te1  1  0.71512102  0.70195291  0.79804709  1
  Te  Te2  1  0.28487898  0.79804709  0.29804709  1
  Te  Te3  1  0.71512102  0.29804709  0.20195291  1
loop_
_geom_bond_atom_site_label_1
_geom_bond_atom_site_label_2
_geom_bond_distance
_geom_bond_site_symmetry_2
Er0 Te0 3.022386 1_554
Er0 Te2 3.022386 1_555
Er0 Te3 3.033784 1_455
Er0 Te1 3.033784 1_454
Er0 Te3 3.122206 1_555
Er0 Te1 3.122206 1_554
Er1 Te3 3.022386 1_555
Er1 Te1 3.022386 1_545
Er1 Te2 3.033784 1_645
Er1 Te0 3.033784 1_655
Er1 Te2 3.122206 1_545
Er1 Te0 3.122206 1_555
Ag0 Te1 2.879844 1_444
Ag0 Te0 2.879844 1_554
Ag0 Te3 2.879844 1_455
Ag0 Te2 2.879844 1_545
Ag1 Te3 2.879844 1_455
Ag1 Te0 2.879844 1_555
Ag1 Te1 2.879844 1_455
Ag1 Te2 2.879844 1_555
