# generated using pymatgen
data_Cu5(AsO6)2
_symmetry_space_group_name_H-M   'P 1'
_cell_length_a   6.03838984
_cell_length_b   5.97187066
_cell_length_c   7.03657413
_cell_angle_alpha   97.79623643
_cell_angle_beta   111.01146090
_cell_angle_gamma   106.26289175
_symmetry_Int_Tables_number   1
_chemical_formula_structural   Cu5(AsO6)2
_chemical_formula_sum   'Cu5 As2 O12'
_cell_volume   219.36169618
_cell_formula_units_Z   1
loop_
 _symmetry_equiv_pos_site_id
 _symmetry_equiv_pos_as_xyz
  1  'x, y, z'
loop_
 _atom_site_type_symbol
 _atom_site_label
 _atom_site_symmetry_multiplicity
 _atom_site_fract_x
 _atom_site_fract_y
 _atom_site_fract_z
 _atom_site_occupancy
  Cu  Cu0  1  -0.00000000  -0.00000000  0.00000000  1
  Cu  Cu1  1  0.00316509  0.67450212  0.65842528  1
  Cu  Cu2  1  0.99683491  0.32549788  0.34157472  1
  Cu  Cu3  1  0.50114664  0.66877927  0.68163350  1
  Cu  Cu4  1  0.49885336  0.33122073  0.31836650  1
  As  As0  1  0.53591348  0.81603997  0.18787546  1
  As  As1  1  0.46408652  0.18396003  0.81212454  1
  O  O0  1  0.17103055  0.31268827  0.17547393  1
  O  O1  1  0.82896945  0.68731173  0.82452607  1
  O  O2  1  0.16352585  0.01039678  0.78355985  1
  O  O3  1  0.83647415  0.98960322  0.21644015  1
  O  O4  1  0.38098477  0.99518753  0.25254600  1
  O  O5  1  0.61901523  0.00481247  0.74745400  1
  O  O6  1  0.18040005  0.64603248  0.49773282  1
  O  O7  1  0.81959995  0.35396752  0.50226718  1
  O  O8  1  0.60525072  0.66595280  0.38212697  1
  O  O9  1  0.39474928  0.33404720  0.61787303  1
  O  O10  1  0.64152817  0.34868930  0.05964139  1
  O  O11  1  0.35847183  0.65131070  0.94035861  1
loop_
_geom_bond_atom_site_label_1
_geom_bond_atom_site_label_2
_geom_bond_distance
_geom_bond_site_symmetry_2
Cu0 O1 1.859566 1_444
Cu0 O0 1.859566 1_555
Cu0 O3 2.090011 1_445
Cu0 O2 2.090011 1_554
Cu0 O4 2.360177 1_545
Cu0 O5 2.360177 1_454
Cu1 O6 1.835849 1_555
Cu1 O1 1.838677 1_455
Cu1 O7 1.862183 1_455
Cu1 O2 1.886308 1_565
Cu1 O11 2.397216 1_555
Cu1 O8 2.471880 1_455
Cu2 O7 1.835849 1_555
Cu2 O0 1.838677 1_655
Cu2 O6 1.862183 1_655
Cu2 O3 1.886308 1_545
Cu2 O10 2.397216 1_555
Cu2 O9 2.471880 1_655
Cu3 O1 1.833449 1_555
Cu3 O9 1.854894 1_555
Cu3 O6 1.857907 1_555
Cu3 O5 1.860001 1_565
Cu3 O11 2.278904 1_555
Cu3 O8 2.404857 1_555
Cu4 O0 1.833449 1_555
Cu4 O8 1.854894 1_555
Cu4 O7 1.857907 1_555
Cu4 O4 1.860001 1_545
Cu4 O10 2.278904 1_555
Cu4 O9 2.404857 1_555
As0 O11 1.660054 1_554
As0 O4 1.720647 1_555
As0 O8 1.726019 1_555
As0 O3 1.742663 1_555
As1 O10 1.660054 1_556
As1 O5 1.720647 1_555
As1 O9 1.726019 1_555
As1 O2 1.742663 1_555
