# generated using pymatgen
data_Li7Mn2(CoO4)3
_symmetry_space_group_name_H-M   'P 1'
_cell_length_a   2.93962400
_cell_length_b   8.26147683
_cell_length_c   9.82470534
_cell_angle_alpha   114.49878318
_cell_angle_beta   92.64745072
_cell_angle_gamma   89.56160879
_symmetry_Int_Tables_number   1
_chemical_formula_structural   Li7Mn2(CoO4)3
_chemical_formula_sum   'Li7 Mn2 Co3 O12'
_cell_volume   216.86904006
_cell_formula_units_Z   1
loop_
 _symmetry_equiv_pos_site_id
 _symmetry_equiv_pos_as_xyz
  1  'x, y, z'
loop_
 _atom_site_type_symbol
 _atom_site_label
 _atom_site_symmetry_multiplicity
 _atom_site_fract_x
 _atom_site_fract_y
 _atom_site_fract_z
 _atom_site_occupancy
  Li  Li0  1  0.99370100  0.82718300  0.66435700  1
  Li  Li1  1  0.48752100  0.34062700  0.17721200  1
  Li  Li2  1  0.50833000  0.00822400  0.49758900  1
  Li  Li3  1  0.01337600  0.49880100  0.99158200  1
  Li  Li4  1  0.99298900  0.17292400  0.33503700  1
  Li  Li5  1  0.50457600  0.64736400  0.82654800  1
  Li  Li6  1  0.98664100  0.34283600  0.67382400  1
  Mn  Mn0  1  0.00431000  0.99756400  0.99817000  1
  Mn  Mn1  1  0.50550500  0.17342100  0.82725300  1
  Co  Co0  1  0.49713800  0.48967000  0.50528300  1
  Co  Co1  1  0.99457800  0.66380600  0.33444900  1
  Co  Co2  1  0.50289400  0.83396000  0.17052400  1
  O  O0  1  0.52478200  0.93404700  0.84237300  1
  O  O1  1  0.02597200  0.42721200  0.34404900  1
  O  O2  1  0.98666500  0.09242800  0.68456000  1
  O  O3  1  0.50603200  0.59241700  0.18003900  1
  O  O4  1  0.49957100  0.27370000  0.49621800  1
  O  O5  1  0.01337700  0.76364100  0.00778100  1
  O  O6  1  0.48920500  0.72478800  0.49129800  1
  O  O7  1  0.02347500  0.23115900  0.97880700  1
  O  O8  1  0.99069500  0.90962900  0.33073600  1
  O  O9  1  0.49770600  0.39892800  0.83538700  1
  O  O10  1  0.48408900  0.07716000  0.15330900  1
  O  O11  1  0.96687200  0.57851100  0.65361500  1
loop_
_geom_bond_atom_site_label_1
_geom_bond_atom_site_label_2
_geom_bond_distance
_geom_bond_site_symmetry_2
Li0 O11 2.014896 1_555
Li0 O6 2.097438 1_555
Li0 O2 2.116754 1_565
Li0 O0 2.159145 1_555
Li0 O6 2.178352 1_655
Li0 O0 2.182621 1_655
Li1 O1 2.063359 1_555
Li1 O3 2.069895 1_555
Li1 O10 2.090250 1_555
Li1 O1 2.123451 1_655
Li1 O7 2.188510 1_554
Li1 O7 2.428915 1_654
Li2 O8 2.085013 1_445
Li2 O8 2.109746 1_545
Li2 O2 2.133543 1_555
Li2 O4 2.198790 1_555
Li2 O6 2.317700 1_545
Li2 O2 2.322497 1_455
Li3 O9 2.021811 1_455
Li3 O9 2.048540 1_555
Li3 O5 2.126910 1_556
Li3 O7 2.162142 1_555
Li3 O3 2.169216 1_556
Li3 O3 2.302269 1_456
Li4 O4 2.031283 1_655
Li4 O1 2.068487 1_655
Li4 O4 2.098795 1_555
Li4 O10 2.156729 1_555
Li4 O8 2.158082 1_545
Li4 O10 2.224170 1_655
Li5 O9 2.090241 1_555
Li5 O11 2.111157 1_555
Li5 O11 2.161669 1_455
Li5 O5 2.165102 1_656
Li5 O5 2.230670 1_556
Li5 O0 2.309338 1_555
Li6 O11 2.037525 1_555
Li6 O9 2.042457 1_655
Li6 O4 2.091938 1_555
Li6 O9 2.095378 1_555
Li6 O2 2.114658 1_555
Li6 O4 2.246740 1_655
Mn0 O10 1.931085 1_566
Mn0 O0 1.936800 1_455
Mn0 O5 1.973498 1_556
Mn0 O7 2.017616 1_565
Mn0 O10 2.112558 1_466
Mn0 O0 2.120631 1_555
Mn1 O9 1.831338 1_555
Mn1 O2 1.944076 1_455
Mn1 O2 1.950496 1_555
Mn1 O7 1.993898 1_655
Mn1 O7 2.011952 1_555
Mn1 O0 2.043834 1_545
Co0 O4 1.749154 1_555
Co0 O11 1.873959 1_555
Co0 O1 1.955576 1_555
Co0 O6 2.003192 1_555
Co0 O11 2.097032 1_455
Co0 O1 2.174759 1_655
Co1 O3 1.944581 1_555
Co1 O6 1.975601 1_655
Co1 O1 1.996814 1_655
Co1 O8 2.046193 1_555
Co1 O3 2.089209 1_655
Co1 O6 2.095632 1_555
Co2 O8 1.978317 1_555
Co2 O5 1.998644 1_555
Co2 O3 2.035976 1_555
Co2 O10 2.085132 1_565
Co2 O8 2.126947 1_455
Co2 O5 2.140987 1_655
