# generated using pymatgen
data_Fe5Sb4
_symmetry_space_group_name_H-M   'P 1'
_cell_length_a   4.11401587
_cell_length_b   6.55235565
_cell_length_c   6.55235565
_cell_angle_alpha   78.21552907
_cell_angle_beta   71.68215593
_cell_angle_gamma   108.31784407
_symmetry_Int_Tables_number   1
_chemical_formula_structural   Fe5Sb4
_chemical_formula_sum   'Fe5 Sb4'
_cell_volume   149.91478465
_cell_formula_units_Z   1
loop_
 _symmetry_equiv_pos_site_id
 _symmetry_equiv_pos_as_xyz
  1  'x, y, z'
loop_
 _atom_site_type_symbol
 _atom_site_label
 _atom_site_symmetry_multiplicity
 _atom_site_fract_x
 _atom_site_fract_y
 _atom_site_fract_z
 _atom_site_occupancy
  Fe  Fe0  1  0.00163000  0.24657200  0.24342700  1
  Fe  Fe1  1  0.99753000  0.75161800  0.75665700  1
  Fe  Fe2  1  0.00163000  0.00657300  0.00342800  1
  Fe  Fe3  1  0.99753000  0.49334300  0.49838200  1
  Fe  Fe4  1  0.65939800  0.28476700  0.96523300  1
  Sb  Sb0  1  0.66808100  0.54986000  0.21372400  1
  Sb  Sb1  1  0.66808100  0.03627600  0.70014000  1
  Sb  Sb2  1  0.36561000  0.49042900  0.75957100  1
  Sb  Sb3  1  0.30720700  0.93221400  0.31778600  1
loop_
_geom_bond_atom_site_label_1
_geom_bond_atom_site_label_2
_geom_bond_distance
_geom_bond_site_symmetry_2
Fe0 Fe2 2.440488 1_555
Fe0 Fe3 2.551130 1_455
Fe0 Fe4 2.644906 1_554
Fe0 Fe4 2.648773 1_454
Fe0 Sb1 2.698700 1_455
Fe0 Sb0 2.754302 1_555
Fe0 Sb0 2.755729 1_455
Fe0 Sb3 2.767319 1_445
Fe0 Sb3 2.768264 1_545
Fe0 Sb2 2.879154 1_554
Fe1 Fe2 2.551130 1_666
Fe1 Sb3 2.579200 1_655
Fe1 Sb2 2.616611 1_555
Fe1 Sb2 2.618425 1_655
Fe1 Fe3 2.626332 1_555
Fe1 Sb1 2.658511 1_665
Fe1 Sb1 2.659967 1_565
Fe1 Sb0 2.694248 1_556
Fe1 Fe4 2.753690 1_555
Fe2 Fe4 2.644906 1_554
Fe2 Fe4 2.648773 1_454
Fe2 Sb0 2.698700 1_445
Fe2 Sb1 2.754302 1_554
Fe2 Sb1 2.755729 1_454
Fe2 Sb3 2.767319 1_445
Fe2 Sb3 2.768264 1_545
Fe2 Sb2 2.879154 1_554
Fe3 Sb3 2.579200 1_655
Fe3 Sb2 2.616611 1_555
Fe3 Sb2 2.618425 1_655
Fe3 Sb0 2.658511 1_655
Fe3 Sb0 2.659967 1_555
Fe3 Sb1 2.694248 1_555
Fe3 Fe4 2.753690 1_555
Fe4 Sb3 2.526771 1_546
Fe4 Sb2 2.529536 1_555
Fe4 Sb2 2.531664 1_655
Fe4 Sb0 2.611930 1_556
Fe4 Sb1 2.611930 1_555
