# generated using pymatgen
data_MgTi
_symmetry_space_group_name_H-M   'P 1'
_cell_length_a   4.80072400
_cell_length_b   6.22445800
_cell_length_c   8.09326625
_cell_angle_alpha   79.03005065
_cell_angle_beta   90.00000000
_cell_angle_gamma   90.00000000
_symmetry_Int_Tables_number   1
_chemical_formula_structural   MgTi
_chemical_formula_sum   'Mg6 Ti6'
_cell_volume   237.42305973
_cell_formula_units_Z   6
loop_
 _symmetry_equiv_pos_site_id
 _symmetry_equiv_pos_as_xyz
  1  'x, y, z'
loop_
 _atom_site_type_symbol
 _atom_site_label
 _atom_site_symmetry_multiplicity
 _atom_site_fract_x
 _atom_site_fract_y
 _atom_site_fract_z
 _atom_site_occupancy
  Mg  Mg0  1  0.25000000  0.47197200  0.61286100  1
  Mg  Mg1  1  0.75000000  0.52802800  0.38713900  1
  Mg  Mg2  1  0.75000000  0.86526700  0.06168500  1
  Mg  Mg3  1  0.75000000  0.35712300  0.05714100  1
  Mg  Mg4  1  0.25000000  0.64287700  0.94285900  1
  Mg  Mg5  1  0.25000000  0.13473300  0.93831500  1
  Ti  Ti0  1  0.25000000  0.97451400  0.59879800  1
  Ti  Ti1  1  0.75000000  0.02548600  0.40120200  1
  Ti  Ti2  1  0.25000000  0.82790600  0.30343000  1
  Ti  Ti3  1  0.25000000  0.26792000  0.29787500  1
  Ti  Ti4  1  0.75000000  0.73208000  0.70212500  1
  Ti  Ti5  1  0.75000000  0.17209400  0.69657000  1
loop_
_geom_bond_atom_site_label_1
_geom_bond_atom_site_label_2
_geom_bond_distance
_geom_bond_site_symmetry_2
Mg0 Mg1 2.996363 1_555
Mg0 Mg1 2.996363 1_455
Mg0 Ti2 3.011373 1_555
Mg0 Ti5 3.037030 1_455
Mg0 Ti5 3.037030 1_555
Mg0 Mg5 3.039725 1_555
Mg0 Ti3 3.056834 1_555
Mg0 Mg4 3.057110 1_555
Mg0 Ti4 3.057788 1_455
Mg0 Ti4 3.057788 1_555
Mg0 Ti0 3.108402 1_555
Mg0 Ti0 3.120066 1_545
Mg1 Ti5 3.011373 1_555
Mg1 Ti2 3.037030 1_655
Mg1 Ti2 3.037030 1_555
Mg1 Mg2 3.039725 1_555
Mg1 Ti4 3.056834 1_555
Mg1 Mg3 3.057110 1_555
Mg1 Ti3 3.057788 1_655
Mg1 Ti3 3.057788 1_555
Mg1 Ti1 3.108402 1_555
Mg1 Ti1 3.120066 1_565
Mg2 Mg5 2.989074 1_664
Mg2 Mg5 2.989074 1_564
Mg2 Mg4 3.018179 1_554
Mg2 Mg4 3.018179 1_654
Mg2 Mg3 3.054752 1_565
Mg2 Ti2 3.077430 1_655
Mg2 Ti2 3.077430 1_555
Mg2 Ti1 3.096434 1_565
Mg2 Mg3 3.170125 1_555
Mg2 Ti4 3.173894 1_554
Mg2 Ti5 3.198667 1_564
Mg3 Mg5 3.018179 1_554
Mg3 Mg5 3.018179 1_654
Mg3 Mg4 3.025680 1_654
Mg3 Mg4 3.025680 1_554
Mg3 Ti3 3.074782 1_655
Mg3 Ti3 3.074782 1_555
Mg3 Ti1 3.134866 1_555
Mg3 Ti5 3.334879 1_554
Mg3 Ti4 3.339227 1_554
Mg4 Mg5 3.054752 1_565
Mg4 Ti4 3.074782 1_455
Mg4 Ti4 3.074782 1_555
Mg4 Ti0 3.134866 1_555
Mg4 Mg5 3.170125 1_555
Mg4 Ti2 3.334879 1_556
Mg4 Ti3 3.339227 1_556
Mg5 Ti5 3.077430 1_455
Mg5 Ti5 3.077430 1_555
Mg5 Ti0 3.096434 1_545
Mg5 Ti3 3.173894 1_556
Mg5 Ti2 3.198667 1_546
Ti0 Ti2 2.716145 1_555
Ti0 Ti3 2.752084 1_565
Ti0 Ti1 2.868227 1_465
Ti0 Ti1 2.868227 1_565
Ti0 Ti4 2.873661 1_555
Ti0 Ti4 2.873661 1_455
Ti0 Ti5 2.875889 1_465
Ti0 Ti5 2.875889 1_565
Ti1 Ti5 2.716145 1_555
Ti1 Ti4 2.752084 1_545
Ti1 Ti3 2.873661 1_555
Ti1 Ti3 2.873661 1_655
Ti1 Ti2 2.875889 1_645
Ti1 Ti2 2.875889 1_545
Ti2 Ti3 2.730650 1_565
Ti4 Ti5 2.730650 1_565
