# generated using pymatgen
data_Rb3Ce(Cl3O)2
_symmetry_space_group_name_H-M   'P 1'
_cell_length_a   12.09677323
_cell_length_b   12.09677322
_cell_length_c   17.00693613
_cell_angle_alpha   90.00000000
_cell_angle_beta   90.00000000
_cell_angle_gamma   119.99999948
_symmetry_Int_Tables_number   1
_chemical_formula_structural   Rb3Ce(Cl3O)2
_chemical_formula_sum   'Rb18 Ce6 Cl36 O12'
_cell_volume   2155.24076546
_cell_formula_units_Z   6
loop_
 _symmetry_equiv_pos_site_id
 _symmetry_equiv_pos_as_xyz
  1  'x, y, z'
loop_
 _atom_site_type_symbol
 _atom_site_label
 _atom_site_symmetry_multiplicity
 _atom_site_fract_x
 _atom_site_fract_y
 _atom_site_fract_z
 _atom_site_occupancy
  Rb  Rb0  1  0.66666700  0.33333300  0.88651951  1
  Rb  Rb1  1  0.33333300  0.66666700  0.11348049  1
  Rb  Rb2  1  0.33333300  0.66666700  0.38651951  1
  Rb  Rb3  1  0.66666700  0.33333300  0.61348049  1
  Rb  Rb4  1  0.53845283  0.91288017  0.88506664  1
  Rb  Rb5  1  0.46154717  0.08711983  0.11493336  1
  Rb  Rb6  1  0.37442734  0.46154717  0.88506664  1
  Rb  Rb7  1  0.46154717  0.08711983  0.38506664  1
  Rb  Rb8  1  0.62557266  0.53845283  0.11493336  1
  Rb  Rb9  1  0.53845283  0.91288017  0.61493336  1
  Rb  Rb10  1  0.08711983  0.62557266  0.88506664  1
  Rb  Rb11  1  0.62557266  0.53845283  0.38506664  1
  Rb  Rb12  1  0.91288017  0.37442734  0.11493336  1
  Rb  Rb13  1  0.37442734  0.46154717  0.61493336  1
  Rb  Rb14  1  0.91288017  0.37442734  0.38506664  1
  Rb  Rb15  1  0.08711983  0.62557266  0.61493336  1
  Rb  Rb16  1  0.00000000  -0.00000000  0.00000000  1
  Rb  Rb17  1  0.00000000  -0.00000000  0.50000000  1
  Ce  Ce0  1  0.95388259  0.20151388  0.75000000  1
  Ce  Ce1  1  0.04611741  0.79848612  0.25000000  1
  Ce  Ce2  1  0.24763128  0.04611741  0.75000000  1
  Ce  Ce3  1  0.75236872  0.95388259  0.25000000  1
  Ce  Ce4  1  0.79848612  0.75236872  0.75000000  1
  Ce  Ce5  1  0.20151388  0.24763128  0.25000000  1
  Cl  Cl0  1  0.82104209  0.96325524  0.84196431  1
  Cl  Cl1  1  0.17895791  0.03674476  0.15803569  1
  Cl  Cl2  1  0.14221315  0.17895791  0.84196431  1
  Cl  Cl3  1  0.17895791  0.03674476  0.34196431  1
  Cl  Cl4  1  0.85778685  0.82104209  0.15803569  1
  Cl  Cl5  1  0.82104209  0.96325524  0.65803569  1
  Cl  Cl6  1  0.03674476  0.85778685  0.84196431  1
  Cl  Cl7  1  0.85778685  0.82104209  0.34196431  1
  Cl  Cl8  1  0.96325524  0.14221315  0.15803569  1
  Cl  Cl9  1  0.14221315  0.17895791  0.65803569  1
  Cl  Cl10  1  0.96325524  0.14221315  0.34196431  1
  Cl  Cl11  1  0.03674476  0.85778685  0.65803569  1
  Cl  Cl12  1  0.56594055  0.70657147  0.99221323  1
  Cl  Cl13  1  0.43405945  0.29342853  0.00778677  1
  Cl  Cl14  1  0.14063091  0.43405945  0.99221323  1
  Cl  Cl15  1  0.43405945  0.29342853  0.49221323  1
  Cl  Cl16  1  0.85936909  0.56594055  0.00778677  1
  Cl  Cl17  1  0.56594055  0.70657147  0.50778677  1
  Cl  Cl18  1  0.29342853  0.85936909  0.99221323  1
  Cl  Cl19  1  0.85936909  0.56594055  0.49221323  1
  Cl  Cl20  1  0.70657147  0.14063091  0.00778677  1
  Cl  Cl21  1  0.14063091  0.43405945  0.50778677  1
  Cl  Cl22  1  0.70657147  0.14063091  0.49221323  1
  Cl  Cl23  1  0.29342853  0.85936909  0.50778677  1
  Cl  Cl24  1  0.70111380  0.15286722  0.75000000  1
  Cl  Cl25  1  0.29888620  0.84713278  0.25000000  1
  Cl  Cl26  1  0.45175342  0.29888620  0.75000000  1
  Cl  Cl27  1  0.54824658  0.70111380  0.25000000  1
  Cl  Cl28  1  0.84713278  0.54824658  0.75000000  1
  Cl  Cl29  1  0.15286722  0.45175342  0.25000000  1
  Cl  Cl30  1  0.54501620  0.69362369  0.75000000  1
  Cl  Cl31  1  0.45498380  0.30637631  0.25000000  1
  Cl  Cl32  1  0.14860749  0.45498380  0.75000000  1
  Cl  Cl33  1  0.85139251  0.54501620  0.25000000  1
  Cl  Cl34  1  0.30637631  0.85139251  0.75000000  1
  Cl  Cl35  1  0.69362369  0.14860749  0.25000000  1
  O  O0  1  0.93291162  0.26466804  0.85873153  1
  O  O1  1  0.06708838  0.73533196  0.14126847  1
  O  O2  1  0.33175642  0.06708838  0.85873153  1
  O  O3  1  0.06708838  0.73533196  0.35873153  1
  O  O4  1  0.66824358  0.93291162  0.14126847  1
  O  O5  1  0.93291162  0.26466804  0.64126847  1
  O  O6  1  0.73533196  0.66824358  0.85873153  1
  O  O7  1  0.66824358  0.93291162  0.35873153  1
  O  O8  1  0.26466804  0.33175642  0.14126847  1
  O  O9  1  0.33175642  0.06708838  0.64126847  1
  O  O10  1  0.26466804  0.33175642  0.35873153  1
  O  O11  1  0.73533196  0.66824358  0.64126847  1
loop_
_geom_bond_atom_site_label_1
_geom_bond_atom_site_label_2
_geom_bond_distance
_geom_bond_site_symmetry_2
Ce0 O5 2.064291 1_555
Ce0 O0 2.064291 1_555
Ce0 Cl32 2.779834 1_655
Ce0 Cl24 2.810052 1_555
Ce0 Cl9 2.886593 1_655
Ce0 Cl2 2.886593 1_655
Ce0 Cl5 2.950227 1_545
Ce0 Cl0 2.950227 1_545
Ce1 O1 2.064291 1_555
Ce1 O3 2.064291 1_555
Ce1 Cl33 2.779834 1_455
Ce1 Cl25 2.810052 1_555
Ce1 Cl7 2.886593 1_455
Ce1 Cl4 2.886593 1_455
Ce1 Cl1 2.950227 1_565
Ce1 Cl3 2.950227 1_565
Ce2 O2 2.064291 1_555
Ce2 O9 2.064291 1_555
Ce2 Cl34 2.779834 1_545
Ce2 Cl26 2.810052 1_555
Ce2 Cl11 2.886593 1_545
Ce2 Cl6 2.886593 1_545
Ce2 Cl9 2.950227 1_555
Ce2 Cl2 2.950227 1_555
Ce3 O4 2.064291 1_555
Ce3 O7 2.064291 1_555
Ce3 Cl35 2.779834 1_565
Ce3 Cl27 2.810052 1_555
Ce3 Cl8 2.886593 1_565
Ce3 Cl10 2.886593 1_565
Ce3 Cl7 2.950227 1_555
Ce3 Cl4 2.950227 1_555
Ce4 O11 2.064291 1_555
Ce4 O6 2.064291 1_555
Ce4 Cl30 2.779834 1_555
Ce4 Cl28 2.810052 1_555
Ce4 Cl5 2.886593 1_555
Ce4 Cl0 2.886593 1_555
Ce4 Cl11 2.950227 1_655
Ce4 Cl6 2.950227 1_655
Ce5 O8 2.064291 1_555
Ce5 O10 2.064291 1_555
Ce5 Cl31 2.779834 1_555
Ce5 Cl29 2.810052 1_555
Ce5 Cl1 2.886593 1_555
Ce5 Cl3 2.886593 1_555
Ce5 Cl10 2.950227 1_455
Ce5 Cl8 2.950227 1_455
Cl0 Rb4 3.242093 1_555
Cl0 Rb16 3.338487 1_666
Cl1 Rb5 3.242093 1_555
Cl1 Rb16 3.338487 1_555
Cl2 Rb6 3.242093 1_555
Cl2 Rb16 3.338487 1_556
Cl3 Rb7 3.242093 1_555
Cl3 Rb17 3.338487 1_555
Cl4 Rb8 3.242093 1_555
Cl4 Rb16 3.338487 1_665
Cl5 Rb9 3.242093 1_555
Cl5 Rb17 3.338487 1_665
Cl6 Rb10 3.242093 1_555
Cl6 Rb16 3.338487 1_566
Cl7 Rb11 3.242093 1_555
Cl7 Rb17 3.338487 1_665
Cl8 Rb12 3.242093 1_555
Cl8 Rb16 3.338487 1_655
Cl9 Rb13 3.242093 1_555
Cl9 Rb17 3.338487 1_555
Cl10 Rb14 3.242093 1_555
Cl10 Rb17 3.338487 1_655
Cl11 Rb15 3.242093 1_555
Cl11 Rb17 3.338487 1_565
Cl12 Rb8 3.237165 1_556
Cl12 Rb4 3.238721 1_555
Cl12 Rb6 3.256722 1_555
Cl12 Rb1 3.323500 1_556
Cl13 Rb6 3.237165 1_554
Cl13 Rb5 3.238721 1_555
Cl13 Rb8 3.256722 1_555
Cl13 Rb0 3.323500 1_554
Cl14 Rb12 3.237165 1_456
Cl14 Rb6 3.238721 1_555
Cl14 Rb10 3.256722 1_555
Cl14 Rb1 3.323497 1_556
Cl15 Rb13 3.237165 1_555
Cl15 Rb7 3.238721 1_555
Cl15 Rb11 3.256722 1_555
Cl15 Rb3 3.323500 1_555
Cl16 Rb10 3.237165 1_654
Cl16 Rb8 3.238721 1_555
Cl16 Rb12 3.256722 1_555
Cl16 Rb0 3.323497 1_554
Cl17 Rb11 3.237165 1_555
Cl17 Rb9 3.238721 1_555
Cl17 Rb13 3.256722 1_555
Cl17 Rb2 3.323500 1_555
Cl18 Rb5 3.237165 1_566
Cl18 Rb10 3.238721 1_555
Cl18 Rb4 3.256722 1_555
Cl18 Rb1 3.323491 1_556
Cl19 Rb15 3.237165 1_655
Cl19 Rb11 3.238721 1_555
Cl19 Rb14 3.256722 1_555
Cl19 Rb3 3.323497 1_555
Cl20 Rb4 3.237165 1_544
Cl20 Rb12 3.238721 1_555
Cl20 Rb5 3.256722 1_555
Cl20 Rb0 3.323491 1_554
Cl21 Rb14 3.237165 1_455
Cl21 Rb13 3.238721 1_555
Cl21 Rb15 3.256722 1_555
Cl21 Rb2 3.323497 1_555
Cl22 Rb9 3.237165 1_545
Cl22 Rb14 3.238721 1_555
Cl22 Rb7 3.256722 1_555
Cl22 Rb3 3.323491 1_555
Cl23 Rb7 3.237165 1_565
Cl23 Rb15 3.238721 1_555
Cl23 Rb9 3.256722 1_555
Cl23 Rb2 3.323491 1_555
Cl24 Rb3 3.352563 1_555
Cl24 Rb0 3.352563 1_555
Cl24 Rb9 3.444385 1_545
Cl24 Rb4 3.444385 1_545
Cl25 Rb2 3.352563 1_555
Cl25 Rb1 3.352563 1_555
Cl25 Rb7 3.444385 1_565
Cl25 Rb5 3.444385 1_565
Cl26 Rb3 3.352572 1_555
Cl26 Rb0 3.352572 1_555
Cl26 Rb13 3.444385 1_555
Cl26 Rb6 3.444385 1_555
Cl27 Rb1 3.352572 1_555
Cl27 Rb2 3.352572 1_555
Cl27 Rb11 3.444385 1_555
Cl27 Rb8 3.444385 1_555
Cl28 Rb3 3.352569 1_555
Cl28 Rb0 3.352569 1_555
Cl28 Rb15 3.444385 1_655
Cl28 Rb10 3.444385 1_655
Cl29 Rb1 3.352569 1_555
Cl29 Rb2 3.352569 1_555
Cl29 Rb12 3.444385 1_455
Cl29 Rb14 3.444385 1_455
Cl30 Rb13 3.409253 1_555
Cl30 Rb6 3.409253 1_555
Cl30 Rb9 3.539504 1_555
Cl30 Rb4 3.539504 1_555
Cl31 Rb11 3.409253 1_555
Cl31 Rb8 3.409253 1_555
Cl31 Rb5 3.539504 1_555
Cl31 Rb7 3.539504 1_555
Cl32 Rb15 3.409253 1_555
Cl32 Rb10 3.409253 1_555
Cl32 Rb13 3.539504 1_555
Cl32 Rb6 3.539504 1_555
Cl33 Rb14 3.409253 1_555
Cl33 Rb12 3.409253 1_555
Cl33 Rb8 3.539504 1_555
Cl33 Rb11 3.539504 1_555
Cl34 Rb9 3.409253 1_555
Cl34 Rb4 3.409253 1_555
Cl34 Rb10 3.539504 1_555
Cl34 Rb15 3.539504 1_555
Cl35 Rb7 3.409253 1_555
Cl35 Rb5 3.409253 1_555
Cl35 Rb14 3.539504 1_555
Cl35 Rb12 3.539504 1_555
