# generated using pymatgen
data_Sc2AlCo3
_symmetry_space_group_name_H-M   'P 1'
_cell_length_a   4.80680066
_cell_length_b   4.80680066
_cell_length_c   4.80680078
_cell_angle_alpha   64.04218949
_cell_angle_beta   64.04218949
_cell_angle_gamma   64.04219192
_symmetry_Int_Tables_number   1
_chemical_formula_structural   Sc2AlCo3
_chemical_formula_sum   'Sc2 Al1 Co3'
_cell_volume   85.52211157
_cell_formula_units_Z   1
loop_
 _symmetry_equiv_pos_site_id
 _symmetry_equiv_pos_as_xyz
  1  'x, y, z'
loop_
 _atom_site_type_symbol
 _atom_site_label
 _atom_site_symmetry_multiplicity
 _atom_site_fract_x
 _atom_site_fract_y
 _atom_site_fract_z
 _atom_site_occupancy
  Sc  Sc0  1  0.62707000  0.62707000  0.62707000  1
  Sc  Sc1  1  0.37293000  0.37293000  0.37293000  1
  Al  Al0  1  0.00000000  0.00000000  0.00000000  1
  Co  Co0  1  0.00000000  0.50000000  0.00000000  1
  Co  Co1  1  0.50000000  0.00000000  0.00000000  1
  Co  Co2  1  0.00000000  0.00000000  0.50000000  1
loop_
_geom_bond_atom_site_label_1
_geom_bond_atom_site_label_2
_geom_bond_distance
_geom_bond_site_symmetry_2
Sc0 Sc1 2.897603 1_555
Sc0 Sc1 3.078402 1_655
Sc0 Sc1 3.078402 1_565
Sc0 Sc1 3.078402 1_556
Al0 Co1 2.403400 1_555
Al0 Co0 2.403400 1_545
Al0 Co1 2.403400 1_455
Al0 Co0 2.403400 1_555
Al0 Co2 2.403400 1_554
Al0 Co2 2.403400 1_555
Al0 Sc0 2.977431 1_445
Al0 Sc1 2.977431 1_554
Al0 Sc1 2.977432 1_545
Al0 Sc0 2.977432 1_454
Al0 Sc1 2.977432 1_455
Al0 Sc0 2.977432 1_544
Co0 Co2 2.548717 1_564
Co0 Co2 2.548717 1_555
Co0 Co1 2.548717 1_465
Co0 Co1 2.548717 1_555
Co0 Sc0 2.774160 1_454
Co0 Sc1 2.774160 1_555
Co0 Sc0 2.931720 1_554
Co0 Sc1 2.931720 1_455
Co0 Sc1 2.931720 1_554
Co0 Sc0 2.931720 1_455
Co1 Co2 2.548717 1_654
Co1 Co2 2.548717 1_555
Co1 Sc0 2.774160 1_544
Co1 Sc1 2.774160 1_555
Co1 Sc1 2.931720 1_545
Co1 Sc0 2.931720 1_554
Co1 Sc1 2.931720 1_554
Co1 Sc0 2.931720 1_545
Co2 Sc0 2.774160 1_445
Co2 Sc1 2.774160 1_555
Co2 Sc1 2.931720 1_455
Co2 Sc1 2.931720 1_545
Co2 Sc0 2.931720 1_455
Co2 Sc0 2.931720 1_545
