# generated using pymatgen
data_Fe4Ni5P3
_symmetry_space_group_name_H-M   'P 1'
_cell_length_a   4.40596000
_cell_length_b   6.68822446
_cell_length_c   19.13452980
_cell_angle_alpha   87.90306955
_cell_angle_beta   96.54824242
_cell_angle_gamma   109.02664937
_symmetry_Int_Tables_number   1
_chemical_formula_structural   Fe4Ni5P3
_chemical_formula_sum   'Fe16 Ni20 P12'
_cell_volume   529.57444649
_cell_formula_units_Z   4
loop_
 _symmetry_equiv_pos_site_id
 _symmetry_equiv_pos_as_xyz
  1  'x, y, z'
loop_
 _atom_site_type_symbol
 _atom_site_label
 _atom_site_symmetry_multiplicity
 _atom_site_fract_x
 _atom_site_fract_y
 _atom_site_fract_z
 _atom_site_occupancy
  Fe  Fe0  1  0.14359700  0.81570000  0.00905700  1
  Fe  Fe1  1  0.81254200  0.81624800  0.34251000  1
  Fe  Fe2  1  0.47909100  0.81646500  0.67551800  1
  Fe  Fe3  1  0.98370900  0.18456200  0.32330200  1
  Fe  Fe4  1  0.65192000  0.18438800  0.65670600  1
  Fe  Fe5  1  0.32046900  0.18476300  0.99069000  1
  Fe  Fe6  1  0.81699600  0.03244900  0.06125900  1
  Fe  Fe7  1  0.47956900  0.02828100  0.39412500  1
  Fe  Fe8  1  0.14577500  0.02873700  0.72738500  1
  Fe  Fe9  1  0.39003000  0.96789200  0.27189100  1
  Fe  Fe10  1  0.05768000  0.96814100  0.60517100  1
  Fe  Fe11  1  0.72384700  0.96793900  0.93862800  1
  Fe  Fe12  1  0.38979400  0.60387100  0.22364800  1
  Fe  Fe13  1  0.06110300  0.60637300  0.55752800  1
  Fe  Fe14  1  0.72787700  0.60636600  0.89075700  1
  Fe  Fe15  1  0.22995700  0.39610200  0.10979500  1
  Ni  Ni0  1  0.56111000  0.61077200  0.01728200  1
  Ni  Ni1  1  0.23082300  0.61106400  0.35093200  1
  Ni  Ni2  1  0.89680500  0.61111800  0.68429300  1
  Ni  Ni3  1  0.59916900  0.38796600  0.31629000  1
  Ni  Ni4  1  0.26618300  0.38772600  0.64996600  1
  Ni  Ni5  1  0.93364700  0.38891300  0.98324400  1
  Ni  Ni6  1  0.34190700  0.05061800  0.12957700  1
  Ni  Ni7  1  0.00809900  0.05211900  0.46284800  1
  Ni  Ni8  1  0.67456100  0.05189600  0.79625400  1
  Ni  Ni9  1  0.82921800  0.94939400  0.20372300  1
  Ni  Ni10  1  0.49738600  0.95056300  0.53707200  1
  Ni  Ni11  1  0.16388400  0.95039200  0.87038600  1
  Ni  Ni12  1  0.89422200  0.39538100  0.44308300  1
  Ni  Ni13  1  0.56137700  0.39538700  0.77637400  1
  Ni  Ni14  1  0.92271300  0.66888600  0.13149300  1
  Ni  Ni15  1  0.58960000  0.66893200  0.46492500  1
  Ni  Ni16  1  0.25596800  0.66891400  0.79817900  1
  Ni  Ni17  1  0.78784400  0.33153700  0.20172700  1
  Ni  Ni18  1  0.45444500  0.33234800  0.53486500  1
  Ni  Ni19  1  0.12173900  0.33192500  0.86810600  1
  P  P0  1  0.94050600  0.66145600  0.25324200  1
  P  P1  1  0.60715500  0.66041200  0.58645000  1
  P  P2  1  0.27289300  0.66066900  0.91946000  1
  P  P3  1  0.69157800  0.33803000  0.08062800  1
  P  P4  1  0.35517500  0.33610500  0.41324900  1
  P  P5  1  0.02176900  0.33603400  0.74671800  1
  P  P6  1  0.45399900  0.75868500  0.11365000  1
  P  P7  1  0.11976900  0.75824500  0.44725900  1
  P  P8  1  0.78626700  0.75833500  0.78042400  1
  P  P9  1  0.24812400  0.24173500  0.21983800  1
  P  P10  1  0.91557200  0.24320100  0.55364300  1
  P  P11  1  0.58253900  0.24296300  0.88685300  1
loop_
_geom_bond_atom_site_label_1
_geom_bond_atom_site_label_2
_geom_bond_distance
_geom_bond_site_symmetry_2
Fe0 P2 2.253172 1_554
Fe0 P6 2.383498 1_555
Fe0 Ni0 2.504527 1_455
Fe0 Ni0 2.617128 1_555
Fe0 Ni6 2.731412 1_565
Fe0 Ni5 2.743148 1_454
Fe0 Ni11 2.772498 1_554
Fe1 P0 2.244312 1_555
Fe1 P7 2.380504 1_655
Fe1 Ni1 2.502607 1_555
Fe1 Ni1 2.621200 1_655
Fe1 Ni7 2.731330 1_665
Fe1 Ni3 2.753607 1_555
Fe1 Ni9 2.771196 1_555
Fe2 P1 2.246274 1_555
Fe2 P8 2.382973 1_555
Fe2 Ni2 2.506065 1_455
Fe2 Ni2 2.619608 1_555
Fe2 Ni8 2.736145 1_565
Fe2 Ni4 2.754218 1_555
Fe2 Ni10 2.767004 1_555
Fe3 P4 2.252048 1_655
Fe3 P9 2.367062 1_655
Fe3 Ni3 2.485336 1_555
Fe3 Ni3 2.624180 1_655
Fe3 Ni9 2.717100 1_545
Fe3 Ni1 2.748817 1_655
Fe3 Ni7 2.783778 1_655
Fe4 P5 2.249582 1_655
Fe4 P10 2.358168 1_555
Fe4 Ni4 2.489737 1_555
Fe4 Ni4 2.618737 1_655
Fe4 Ni10 2.713242 1_545
Fe4 Ni2 2.749728 1_555
Fe4 Ni8 2.783668 1_555
Fe5 P3 2.253964 1_556
Fe5 P11 2.367709 1_555
Fe5 Ni5 2.497400 1_455
Fe5 Ni5 2.617604 1_555
Fe5 Ni11 2.725592 1_545
Fe5 Ni0 2.741276 1_556
Fe5 Ni6 2.774869 1_556
Fe6 P6 2.288541 1_545
Fe6 P3 2.336304 1_555
Fe6 Ni6 2.492230 1_655
Fe6 Ni6 2.628076 1_555
Fe6 Ni5 2.700396 1_554
Fe6 Ni9 2.760010 1_545
Fe6 Ni0 2.795928 1_545
Fe7 P7 2.274871 1_545
Fe7 P4 2.347238 1_555
Fe7 Ni7 2.500441 1_655
Fe7 Ni7 2.631346 1_555
Fe7 Ni3 2.715371 1_555
Fe7 Ni10 2.762496 1_545
Fe7 Ni1 2.763862 1_545
Fe8 P8 2.274688 1_445
Fe8 P5 2.343802 1_555
Fe8 Ni8 2.503586 1_555
Fe8 Ni8 2.630502 1_455
Fe8 Ni4 2.707242 1_555
Fe8 Ni11 2.764159 1_545
Fe8 Ni2 2.765731 1_445
Fe9 P9 2.282222 1_565
Fe9 P0 2.344396 1_455
Fe9 Ni9 2.490912 1_555
Fe9 Ni9 2.626687 1_455
Fe9 Ni1 2.713181 1_555
Fe9 Ni6 2.756985 1_565
Fe9 Ni3 2.787925 1_565
Fe10 P10 2.286045 1_465
Fe10 P1 2.352138 1_455
Fe10 Ni10 2.490073 1_555
Fe10 Ni10 2.625680 1_455
Fe10 Ni2 2.715320 1_455
Fe10 Ni7 2.758957 1_565
Fe10 Ni4 2.787353 1_565
Fe11 P11 2.285877 1_565
Fe11 P2 2.352074 1_555
Fe11 Ni11 2.492930 1_655
Fe11 Ni11 2.625535 1_555
Fe11 Ni0 2.711426 1_556
Fe11 Ni8 2.759834 1_565
Fe11 Ni5 2.794577 1_565
Fe12 P0 2.270752 1_455
Fe12 P9 2.297401 1_555
Fe12 P6 2.316784 1_555
Fe12 P0 2.334469 1_555
Fe12 Ni3 2.527209 1_555
Fe12 Ni9 2.533940 1_555
Fe12 Ni1 2.616158 1_555
Fe13 P1 2.274997 1_455
Fe13 P10 2.302920 1_455
Fe13 P7 2.312315 1_555
Fe13 P1 2.317147 1_555
Fe13 Ni10 2.523489 1_555
Fe13 Ni4 2.528080 1_555
Fe13 Ni2 2.613349 1_455
Fe14 P2 2.278718 1_555
Fe14 P11 2.304484 1_555
Fe14 P2 2.311932 1_655
Fe14 P8 2.313580 1_555
Fe14 Ni11 2.521842 1_655
Fe14 Ni5 2.524759 1_555
Fe14 Ni0 2.612860 1_556
Fe15 P3 2.280851 1_455
Fe15 P6 2.301377 1_555
Fe15 P9 2.315672 1_555
Fe15 P3 2.321385 1_555
Fe15 Ni0 2.522108 1_555
Fe15 Ni6 2.522364 1_555
Fe15 Ni5 2.610921 1_454
Ni0 P2 2.217200 1_554
Ni0 P6 2.288653 1_555
Ni0 P3 2.343107 1_555
Ni0 Ni14 2.515855 1_555
Ni0 Ni5 2.687506 1_554
Ni0 Ni5 2.693366 1_454
Ni1 P0 2.221149 1_455
Ni1 P7 2.293081 1_555
Ni1 P4 2.334815 1_555
Ni1 Ni15 2.506531 1_555
Ni1 Ni12 2.530782 1_455
Ni1 Ni3 2.682603 1_555
Ni1 Ni3 2.712044 1_455
Ni2 P1 2.219601 1_555
Ni2 P8 2.289033 1_555
Ni2 P5 2.337631 1_655
Ni2 Ni4 2.685787 1_655
Ni2 Ni4 2.707881 1_555
Ni3 P4 2.209679 1_555
Ni3 P9 2.291205 1_555
Ni3 P0 2.349824 1_555
Ni4 P5 2.207179 1_555
Ni4 P10 2.285844 1_455
Ni4 P1 2.351164 1_555
Ni5 P3 2.212647 1_556
Ni5 P11 2.290016 1_555
Ni5 P2 2.347262 1_655
Ni6 P6 2.203566 1_545
Ni6 P3 2.283057 1_555
Ni6 P9 2.335851 1_555
Ni6 Ni9 2.690223 1_445
Ni6 Ni9 2.695147 1_545
Ni7 P7 2.213851 1_545
Ni7 P4 2.269813 1_555
Ni7 P10 2.341256 1_455
Ni8 P8 2.212807 1_545
Ni8 P5 2.270126 1_655
Ni8 P11 2.337290 1_555
Ni9 P9 2.210418 1_665
Ni9 P0 2.285408 1_555
Ni9 P6 2.338071 1_555
Ni10 P10 2.210653 1_565
Ni10 P1 2.294789 1_555
Ni10 P7 2.343124 1_555
Ni10 Ni15 2.536936 1_555
Ni10 Ni18 2.619740 1_565
Ni10 Ni7 2.683938 1_665
Ni10 Ni7 2.704004 1_565
Ni11 P11 2.211309 1_565
Ni11 P2 2.288671 1_555
Ni11 P8 2.344442 1_455
Ni11 Ni16 2.536514 1_555
Ni11 Ni19 2.616660 1_565
Ni11 Ni8 2.682739 1_565
Ni11 Ni8 2.703214 1_465
Ni12 P4 2.284114 1_555
Ni12 P7 2.303786 1_655
Ni12 P10 2.319409 1_555
Ni12 P4 2.326747 1_655
Ni12 Ni7 2.511925 1_655
Ni12 Ni3 2.612649 1_555
Ni13 P5 2.285928 1_555
Ni13 P8 2.304001 1_555
Ni13 P11 2.318646 1_555
Ni13 P5 2.323427 1_655
Ni13 Ni8 2.512159 1_555
Ni13 Ni2 2.527425 1_555
Ni13 Ni4 2.606284 1_555
Ni14 P6 2.281963 1_655
Ni14 P3 2.311545 1_555
Ni14 P6 2.318394 1_555
Ni14 P0 2.321231 1_555
Ni14 Ni9 2.534386 1_555
Ni14 Ni6 2.620110 1_665
Ni15 P7 2.276634 1_655
Ni15 P1 2.317006 1_555
Ni15 P7 2.321226 1_555
Ni15 P4 2.329966 1_555
Ni15 Ni7 2.626358 1_665
Ni16 P8 2.277563 1_555
Ni16 P2 2.312550 1_555
Ni16 P8 2.321128 1_455
Ni16 P5 2.328497 1_555
Ni16 Ni2 2.505714 1_455
Ni16 Ni8 2.625324 1_565
Ni17 P9 2.283018 1_655
Ni17 P3 2.309017 1_555
Ni17 P0 2.309384 1_555
Ni17 P9 2.318863 1_555
Ni17 Ni3 2.513874 1_555
Ni17 Ni6 2.541770 1_555
Ni17 Ni9 2.619571 1_545
Ni18 P10 2.284752 1_555
Ni18 P1 2.299084 1_555
Ni18 P10 2.318958 1_455
Ni18 P4 2.319032 1_555
Ni18 Ni4 2.520410 1_555
Ni18 Ni7 2.539057 1_555
Ni19 P11 2.282672 1_555
Ni19 P2 2.301640 1_555
Ni19 P5 2.315079 1_555
Ni19 P11 2.320285 1_455
Ni19 Ni5 2.523803 1_455
Ni19 Ni8 2.538597 1_455
