# generated using pymatgen
data_Mg4Si3
_symmetry_space_group_name_H-M   'P 1'
_cell_length_a   5.48171800
_cell_length_b   7.51860536
_cell_length_c   7.77085835
_cell_angle_alpha   104.44555208
_cell_angle_beta   110.26157172
_cell_angle_gamma   104.95518322
_symmetry_Int_Tables_number   1
_chemical_formula_structural   Mg4Si3
_chemical_formula_sum   'Mg8 Si6'
_cell_volume   269.23236107
_cell_formula_units_Z   2
loop_
 _symmetry_equiv_pos_site_id
 _symmetry_equiv_pos_as_xyz
  1  'x, y, z'
loop_
 _atom_site_type_symbol
 _atom_site_label
 _atom_site_symmetry_multiplicity
 _atom_site_fract_x
 _atom_site_fract_y
 _atom_site_fract_z
 _atom_site_occupancy
  Mg  Mg0  1  0.29227200  0.75866900  0.31662800  1
  Mg  Mg1  1  0.03730800  0.96334500  0.03173200  1
  Mg  Mg2  1  0.47931000  0.59610500  0.67620600  1
  Mg  Mg3  1  0.94656000  0.38830800  0.88447200  1
  Mg  Mg4  1  0.57343300  0.49568800  0.05318200  1
  Mg  Mg5  1  0.38068200  0.02625600  0.75242300  1
  Mg  Mg6  1  0.89813200  0.59765100  0.52901400  1
  Mg  Mg7  1  0.72217300  0.19673300  0.20168300  1
  Si  Si0  1  0.05181000  0.23412100  0.56778800  1
  Si  Si1  1  0.49016100  0.22269700  0.49474700  1
  Si  Si2  1  0.42427300  0.79653700  0.00169800  1
  Si  Si3  1  0.29244100  0.37496100  0.25849900  1
  Si  Si4  1  0.80577200  0.95877500  0.65348200  1
  Si  Si5  1  0.85557400  0.89008200  0.32829500  1
loop_
_geom_bond_atom_site_label_1
_geom_bond_atom_site_label_2
_geom_bond_distance
_geom_bond_site_symmetry_2
Mg0 Si4 2.790162 1_555
Mg0 Si3 2.806861 1_555
Mg0 Si5 2.835732 1_455
Mg0 Si2 2.839298 1_555
Mg0 Si5 2.950607 1_555
Mg0 Si1 3.140385 1_565
Mg1 Si4 2.755893 1_454
Mg1 Si2 2.774342 1_555
Mg1 Si3 2.824382 1_565
Mg1 Si5 2.923533 1_455
Mg1 Si2 3.171077 1_455
Mg2 Si2 2.760630 1_556
Mg2 Si0 2.793814 1_555
Mg2 Si1 2.836042 1_555
Mg2 Si3 2.911239 1_555
Mg2 Si4 2.934208 1_555
Mg3 Si0 2.763710 1_655
Mg3 Si1 2.871307 1_555
Mg3 Si3 2.911982 1_656
Mg3 Si4 3.018136 1_545
Mg3 Si2 3.148402 1_656
Mg4 Si2 2.669197 1_555
Mg4 Si3 2.728581 1_555
Mg4 Si5 2.816995 1_555
Mg5 Si4 2.816907 1_545
Mg5 Si4 2.842948 1_445
Mg5 Si2 2.890350 1_546
Mg5 Si1 2.898512 1_555
Mg5 Si0 2.921052 1_555
Mg6 Si4 2.881373 1_555
Mg6 Si3 2.964263 1_555
Mg6 Si1 2.996467 1_555
Mg6 Si5 3.007514 1_555
Mg6 Si0 3.113604 1_655
Mg7 Si0 2.686299 1_655
Mg7 Si2 2.740197 1_545
Mg7 Si5 2.884813 1_545
Mg7 Si3 2.889571 1_655
Mg7 Si1 2.958789 1_555
Mg7 Si3 3.097449 1_555
Si0 Si5 2.467219 1_445
Si0 Si4 2.533187 1_445
Si0 Si1 2.670278 1_555
Si1 Si3 2.483245 1_555
Si2 Si5 2.573096 1_555
Si4 Si5 2.574169 1_555
