# generated using pymatgen
data_Mg3Fe4(BiO4)6
_symmetry_space_group_name_H-M   'P 1'
_cell_length_a   6.60186400
_cell_length_b   7.99928582
_cell_length_c   11.27690625
_cell_angle_alpha   103.98846543
_cell_angle_beta   97.90294300
_cell_angle_gamma   109.57345967
_symmetry_Int_Tables_number   1
_chemical_formula_structural   Mg3Fe4(BiO4)6
_chemical_formula_sum   'Mg3 Fe4 Bi6 O24'
_cell_volume   528.70646764
_cell_formula_units_Z   1
loop_
 _symmetry_equiv_pos_site_id
 _symmetry_equiv_pos_as_xyz
  1  'x, y, z'
loop_
 _atom_site_type_symbol
 _atom_site_label
 _atom_site_symmetry_multiplicity
 _atom_site_fract_x
 _atom_site_fract_y
 _atom_site_fract_z
 _atom_site_occupancy
  Mg  Mg0  1  0.50000000  0.00000000  0.50000000  1
  Mg  Mg1  1  0.48319300  0.52151700  0.79943000  1
  Mg  Mg2  1  0.51680700  0.47848300  0.20057000  1
  Fe  Fe0  1  0.22983600  0.63024200  0.58903600  1
  Fe  Fe1  1  0.77016400  0.36975800  0.41096400  1
  Fe  Fe2  1  0.97096100  0.78181500  0.98320200  1
  Fe  Fe3  1  0.02903900  0.21818500  0.01679800  1
  Bi  Bi0  1  0.86331900  0.33559200  0.73216900  1
  Bi  Bi1  1  0.13668100  0.66440800  0.26783100  1
  Bi  Bi2  1  0.86310800  0.81215000  0.68657400  1
  Bi  Bi3  1  0.39457600  0.08921000  0.89105700  1
  Bi  Bi4  1  0.13689200  0.18785000  0.31342600  1
  Bi  Bi5  1  0.60542400  0.91079000  0.10894300  1
  O  O0  1  0.78628200  0.02918400  0.63128500  1
  O  O1  1  0.21371800  0.97081600  0.36871500  1
  O  O2  1  0.53581800  0.27886700  0.79094300  1
  O  O3  1  0.46418200  0.72113300  0.20905700  1
  O  O4  1  0.66054200  0.27301500  0.54952700  1
  O  O5  1  0.33945800  0.72698500  0.45047300  1
  O  O6  1  0.91955500  0.62780600  0.53906600  1
  O  O7  1  0.08044500  0.37219400  0.46093400  1
  O  O8  1  0.35971100  0.28723800  0.03359900  1
  O  O9  1  0.64028900  0.71276200  0.96640100  1
  O  O10  1  0.82221400  0.51542000  0.28924500  1
  O  O11  1  0.17778600  0.48458000  0.71075500  1
  O  O12  1  0.52686200  0.67282900  0.67347300  1
  O  O13  1  0.98618400  0.01562500  0.11923300  1
  O  O14  1  0.01381600  0.98437500  0.88076700  1
  O  O15  1  0.76318300  0.10887800  0.29413400  1
  O  O16  1  0.23681700  0.89112200  0.70586600  1
  O  O17  1  0.96366300  0.64591100  0.09738100  1
  O  O18  1  0.03633700  0.35408900  0.90261900  1
  O  O19  1  0.84858400  0.61093200  0.80253700  1
  O  O20  1  0.15141600  0.38906800  0.19746300  1
  O  O21  1  0.70046500  0.11703800  0.00166000  1
  O  O22  1  0.29953500  0.88296200  0.99834000  1
  O  O23  1  0.47313800  0.32717100  0.32652700  1
loop_
_geom_bond_atom_site_label_1
_geom_bond_atom_site_label_2
_geom_bond_distance
_geom_bond_site_symmetry_2
Mg0 O5 1.975200 1_545
Mg0 O4 1.975200 1_555
Mg0 O0 2.141552 1_555
Mg0 O1 2.141552 1_545
Mg1 O9 1.992153 1_555
Mg1 O11 2.013976 1_555
Mg1 O2 2.066064 1_555
Mg1 O12 2.067771 1_555
Mg1 O19 2.267247 1_555
Mg2 O8 1.992153 1_555
Mg2 O10 2.013976 1_555
Mg2 O3 2.066064 1_555
Mg2 O23 2.067771 1_555
Mg2 O20 2.267247 1_555
Fe0 O12 1.936511 1_555
Fe0 O11 1.998616 1_555
Fe0 O5 2.021028 1_555
Fe0 O7 2.030515 1_555
Fe0 O6 2.040716 1_455
Fe0 O16 2.163908 1_555
Fe1 O23 1.936511 1_555
Fe1 O10 1.998616 1_555
Fe1 O4 2.021028 1_555
Fe1 O6 2.030515 1_555
Fe1 O7 2.040716 1_655
Fe1 O15 2.163908 1_555
Fe2 O17 1.871030 1_556
Fe2 O22 2.011129 1_655
Fe2 O19 2.032988 1_555
Fe2 O9 2.033330 1_555
Fe2 O13 2.075079 1_566
Fe2 O14 2.174283 1_655
Fe3 O18 1.871030 1_554
Fe3 O21 2.011129 1_455
Fe3 O20 2.032988 1_555
Fe3 O8 2.033330 1_555
Fe3 O14 2.075079 1_544
Fe3 O13 2.174283 1_455
Bi0 O18 2.041266 1_655
Bi0 O11 2.099507 1_655
Bi0 O4 2.139896 1_555
Bi0 O19 2.193191 1_555
Bi0 O2 2.280800 1_555
Bi0 O0 2.284319 1_555
Bi1 O17 2.041266 1_455
Bi1 O10 2.099507 1_455
Bi1 O5 2.139896 1_555
Bi1 O20 2.193191 1_555
Bi1 O3 2.280800 1_555
Bi1 O1 2.284319 1_555
Bi2 O12 2.089065 1_555
Bi2 O6 2.105510 1_555
Bi2 O0 2.164818 1_565
Bi2 O14 2.169659 1_655
Bi2 O19 2.293203 1_555
Bi2 O16 2.296743 1_655
Bi3 O8 2.064259 1_556
Bi3 O21 2.134308 1_556
Bi3 O2 2.148350 1_555
Bi3 O16 2.157125 1_545
Bi3 O22 2.249318 1_545
Bi3 O14 2.344322 1_545
Bi4 O23 2.089065 1_555
Bi4 O7 2.105510 1_555
Bi4 O1 2.164818 1_545
Bi4 O13 2.169659 1_455
Bi4 O20 2.293203 1_555
Bi4 O15 2.296743 1_455
Bi5 O9 2.064259 1_554
Bi5 O22 2.134308 1_554
Bi5 O3 2.148350 1_555
Bi5 O15 2.157125 1_565
Bi5 O21 2.249318 1_565
Bi5 O13 2.344322 1_565
