# generated using pymatgen
data_Ca4Al6SO16
_symmetry_space_group_name_H-M   'P 1'
_cell_length_a   8.07786318
_cell_length_b   8.07786318
_cell_length_c   8.07786318
_cell_angle_alpha   109.51686423
_cell_angle_beta   109.51686423
_cell_angle_gamma   109.37997197
_symmetry_Int_Tables_number   1
_chemical_formula_structural   Ca4Al6SO16
_chemical_formula_sum   'Ca4 Al6 S1 O16'
_cell_volume   405.75769184
_cell_formula_units_Z   1
loop_
 _symmetry_equiv_pos_site_id
 _symmetry_equiv_pos_as_xyz
  1  'x, y, z'
loop_
 _atom_site_type_symbol
 _atom_site_label
 _atom_site_symmetry_multiplicity
 _atom_site_fract_x
 _atom_site_fract_y
 _atom_site_fract_z
 _atom_site_occupancy
  Ca  Ca0  1  0.42559500  0.00399900  0.01025400  1
  Ca  Ca1  1  0.99600100  0.00625500  0.42159600  1
  Ca  Ca2  1  0.99374500  0.41534100  0.98974600  1
  Ca  Ca3  1  0.58465900  0.57440500  0.57840400  1
  Al  Al0  1  0.50007700  0.74884300  0.25188000  1
  Al  Al1  1  0.25000000  0.75000000  0.50000000  1
  Al  Al2  1  0.75180300  0.49992300  0.24876600  1
  Al  Al3  1  0.75000000  0.25000000  0.50000000  1
  Al  Al4  1  0.49696300  0.24819700  0.74812000  1
  Al  Al5  1  0.25115700  0.50303700  0.75123400  1
  S  S0  1  0.00000000  0.00000000  0.00000000  1
  O  O0  1  0.59977600  0.99824600  0.29671000  1
  O  O1  1  0.30969500  0.71278000  0.71148000  1
  O  O2  1  0.59888900  0.29104900  0.99855700  1
  O  O3  1  0.28722000  0.99870000  0.59691600  1
  O  O4  1  0.00175400  0.29846400  0.60153000  1
  O  O5  1  0.70895100  0.70750900  0.30784100  1
  O  O6  1  0.70153600  0.30306600  0.70329000  1
  O  O7  1  0.00130000  0.59821500  0.28852000  1
  O  O8  1  0.29249100  0.60033200  0.00144300  1
  O  O9  1  0.40178500  0.69030500  0.40308400  1
  O  O10  1  0.69693400  0.40022400  0.39847000  1
  O  O11  1  0.39966800  0.40111100  0.69215900  1
  O  O12  1  0.91074500  0.03979500  0.13317600  1
  O  O13  1  0.96020500  0.09338100  0.87094900  1
  O  O14  1  0.90661900  0.77756800  0.86682400  1
  O  O15  1  0.22243200  0.08925500  0.12905100  1
loop_
_geom_bond_atom_site_label_1
_geom_bond_atom_site_label_2
_geom_bond_distance
_geom_bond_site_symmetry_2
Ca0 O0 2.296969 1_545
Ca0 O2 2.329311 1_554
Ca0 O15 2.334359 1_555
Ca0 O1 2.338864 1_544
Ca1 O4 2.296969 1_655
Ca1 O5 2.329308 1_545
Ca1 O12 2.334363 1_555
Ca1 O3 2.338866 1_645
Ca2 O6 2.296969 1_555
Ca2 O8 2.329304 1_656
Ca2 O13 2.334363 1_555
Ca2 O7 2.338864 1_656
Ca3 O10 2.296969 1_555
Ca3 O11 2.329304 1_555
Ca3 O14 2.334363 1_555
Ca3 O9 2.338868 1_555
Al0 O0 1.754819 1_555
Al0 O8 1.766432 1_555
Al0 O5 1.768549 1_555
Al0 O9 1.769339 1_555
Al1 O1 1.769243 1_555
Al1 O7 1.769243 1_555
Al1 O3 1.769243 1_555
Al1 O9 1.769248 1_555
Al2 O10 1.754819 1_555
Al2 O5 1.766437 1_555
Al2 O2 1.768554 1_554
Al2 O7 1.769347 1_655
Al3 O6 1.761887 1_555
Al3 O10 1.761887 1_555
Al3 O0 1.761887 1_545
Al3 O4 1.761887 1_655
Al4 O6 1.754819 1_555
Al4 O2 1.766429 1_555
Al4 O11 1.768556 1_555
Al4 O3 1.769347 1_545
Al5 O4 1.754819 1_555
Al5 O11 1.766432 1_555
Al5 O8 1.768556 1_556
Al5 O1 1.769347 1_555
O12 S0 1.490456 1_655
O13 S0 1.490462 1_656
O14 S0 1.490462 1_666
O15 S0 1.490463 1_555
