# generated using pymatgen
data_Pr3Gd
_symmetry_space_group_name_H-M   'P 1'
_cell_length_a   7.49938075
_cell_length_b   7.49938075
_cell_length_c   6.04102825
_cell_angle_alpha   90.00000000
_cell_angle_beta   90.00000000
_cell_angle_gamma   120.00936781
_symmetry_Int_Tables_number   1
_chemical_formula_structural   Pr3Gd
_chemical_formula_sum   'Pr6 Gd2'
_cell_volume   294.20584914
_cell_formula_units_Z   2
loop_
 _symmetry_equiv_pos_site_id
 _symmetry_equiv_pos_as_xyz
  1  'x, y, z'
loop_
 _atom_site_type_symbol
 _atom_site_label
 _atom_site_symmetry_multiplicity
 _atom_site_fract_x
 _atom_site_fract_y
 _atom_site_fract_z
 _atom_site_occupancy
  Pr  Pr0  1  0.16888535  0.33880735  0.25000000  1
  Pr  Pr1  1  0.66119265  0.83111465  0.25000000  1
  Pr  Pr2  1  0.16954409  0.83045591  0.25000000  1
  Pr  Pr3  1  0.83116651  0.66228529  0.75000000  1
  Pr  Pr4  1  0.33771471  0.16883349  0.75000000  1
  Pr  Pr5  1  0.83147890  0.16852110  0.75000000  1
  Gd  Gd0  1  0.33302566  0.66697434  0.75000000  1
  Gd  Gd1  1  0.66699113  0.33300887  0.25000000  1
loop_
_geom_bond_atom_site_label_1
_geom_bond_atom_site_label_2
_geom_bond_distance
_geom_bond_site_symmetry_2
Pr0 Pr2 3.684591 1_555
Pr0 Pr1 3.691477 1_555
Pr0 Pr5 3.731581 1_455
Pr0 Pr5 3.731581 1_454
Pr0 Pr4 3.737082 1_555
Pr0 Pr4 3.737082 1_554
Pr0 Pr1 3.806842 1_445
Pr0 Pr2 3.814794 1_545
Pr1 Pr2 3.684591 1_555
Pr1 Pr5 3.731581 1_564
Pr1 Pr5 3.731581 1_565
Pr1 Pr3 3.737082 1_554
Pr1 Pr3 3.737082 1_555
Pr1 Pr2 3.814794 1_655
Pr2 Pr4 3.735278 1_564
Pr2 Pr4 3.735278 1_565
Pr2 Pr3 3.735278 1_455
Pr2 Pr3 3.735278 1_454
Pr3 Pr4 3.700059 1_555
Pr3 Pr5 3.704098 1_555
Pr3 Pr5 3.795284 1_565
Pr3 Pr4 3.798260 1_665
Pr4 Pr5 3.704098 1_555
Pr4 Pr5 3.795284 1_455
Gd0 Pr2 3.692321 1_555
Gd0 Pr2 3.692321 1_556
Gd0 Pr0 3.696650 1_555
Gd0 Pr0 3.696650 1_556
Gd0 Pr1 3.696650 1_556
Gd0 Pr1 3.696650 1_555
Gd0 Pr4 3.746169 1_565
Gd0 Pr3 3.746169 1_455
Gd0 Pr5 3.749213 1_565
Gd0 Pr5 3.749213 1_455
Gd0 Pr3 3.753459 1_555
Gd0 Pr4 3.753459 1_555
Gd1 Pr5 3.699854 1_554
Gd1 Pr5 3.699854 1_555
Gd1 Pr4 3.700810 1_555
Gd1 Pr3 3.700810 1_554
Gd1 Pr3 3.700810 1_555
Gd1 Pr4 3.700810 1_554
Gd1 Pr0 3.742337 1_655
Gd1 Pr1 3.742337 1_545
Gd1 Pr2 3.749306 1_545
Gd1 Pr2 3.749306 1_655
Gd1 Pr1 3.757422 1_555
Gd1 Pr0 3.757422 1_555
