# generated using pymatgen
data_KDyS2O9
_symmetry_space_group_name_H-M   'P 1'
_cell_length_a   8.52246200
_cell_length_b   10.10304400
_cell_length_c   10.59117756
_cell_angle_alpha   120.30159228
_cell_angle_beta   90.00000000
_cell_angle_gamma   90.00000000
_symmetry_Int_Tables_number   1
_chemical_formula_structural   KDyS2O9
_chemical_formula_sum   'K4 Dy4 S8 O36'
_cell_volume   787.34363392
_cell_formula_units_Z   4
loop_
 _symmetry_equiv_pos_site_id
 _symmetry_equiv_pos_as_xyz
  1  'x, y, z'
loop_
 _atom_site_type_symbol
 _atom_site_label
 _atom_site_symmetry_multiplicity
 _atom_site_fract_x
 _atom_site_fract_y
 _atom_site_fract_z
 _atom_site_occupancy
  K  K0  1  0.67765800  0.96997900  0.69020500  1
  K  K1  1  0.32234200  0.03002100  0.30979500  1
  K  K2  1  0.17765800  0.53002100  0.80979500  1
  K  K3  1  0.82234200  0.46997900  0.19020500  1
  Dy  Dy0  1  0.63152300  0.71853900  0.96975700  1
  Dy  Dy1  1  0.36847700  0.28146100  0.03024300  1
  Dy  Dy2  1  0.13152300  0.78146100  0.53024300  1
  Dy  Dy3  1  0.86847700  0.21853900  0.46975700  1
  S  S0  1  0.86532000  0.87233700  0.31563200  1
  S  S1  1  0.13468000  0.12766300  0.68436800  1
  S  S2  1  0.36532000  0.62766300  0.18436800  1
  S  S3  1  0.63468000  0.37233700  0.81563200  1
  S  S4  1  0.80221000  0.60137800  0.60818300  1
  S  S5  1  0.19779000  0.39862200  0.39181700  1
  S  S6  1  0.30221000  0.89862200  0.89181700  1
  S  S7  1  0.69779000  0.10137800  0.10818300  1
  O  O0  1  0.98647500  0.97124800  0.30275600  1
  O  O1  1  0.01352500  0.02875200  0.69724400  1
  O  O2  1  0.48647500  0.52875200  0.19724400  1
  O  O3  1  0.51352500  0.47124800  0.80275600  1
  O  O4  1  0.79264100  0.76275300  0.17405900  1
  O  O5  1  0.20735900  0.23724700  0.82594100  1
  O  O6  1  0.29264100  0.73724700  0.32594100  1
  O  O7  1  0.70735900  0.26275300  0.67405900  1
  O  O8  1  0.69707300  0.68026800  0.73969800  1
  O  O9  1  0.30292700  0.31973200  0.26030200  1
  O  O10  1  0.19707300  0.81973200  0.76030200  1
  O  O11  1  0.80292700  0.18026800  0.23969800  1
  O  O12  1  0.88791000  0.77080000  0.93341900  1
  O  O13  1  0.11209000  0.22920000  0.06658100  1
  O  O14  1  0.38791000  0.72920000  0.56658100  1
  O  O15  1  0.61209000  0.27080000  0.43341900  1
  O  O16  1  0.74541800  0.98170500  0.42067400  1
  O  O17  1  0.25458200  0.01829500  0.57932600  1
  O  O18  1  0.24541800  0.51829500  0.07932600  1
  O  O19  1  0.75458200  0.48170500  0.92067400  1
  O  O20  1  0.20834000  0.97098200  0.02771700  1
  O  O21  1  0.79166000  0.02901800  0.97228300  1
  O  O22  1  0.70834000  0.52901800  0.47228300  1
  O  O23  1  0.29166000  0.47098200  0.52771700  1
  O  O24  1  0.40386200  0.77722300  0.88767100  1
  O  O25  1  0.59613800  0.22277700  0.11232900  1
  O  O26  1  0.90386200  0.72277700  0.61232900  1
  O  O27  1  0.09613800  0.27722300  0.38767100  1
  O  O28  1  0.60308800  0.98354300  0.11926400  1
  O  O29  1  0.39691200  0.01645700  0.88073600  1
  O  O30  1  0.10308800  0.51645700  0.38073600  1
  O  O31  1  0.89691200  0.48354300  0.61926400  1
  O  O32  1  0.93559500  0.78076100  0.37596300  1
  O  O33  1  0.06440500  0.21923900  0.62403700  1
  O  O34  1  0.43559500  0.71923900  0.12403700  1
  O  O35  1  0.56440500  0.28076100  0.87596300  1
loop_
_geom_bond_atom_site_label_1
_geom_bond_atom_site_label_2
_geom_bond_distance
_geom_bond_site_symmetry_2
K0 O21 2.902916 1_565
K0 O35 2.902984 1_565
K0 O1 2.916656 1_665
K0 O26 2.924988 1_555
K0 O16 2.972846 1_555
K0 O29 3.010179 1_565
K0 O7 3.058261 1_565
K0 O8 3.227617 1_555
K0 O14 3.242775 1_555
K1 O20 2.902916 1_545
K1 O34 2.902984 1_545
K1 O0 2.916656 1_445
K1 O27 2.924988 1_555
K1 O17 2.972846 1_555
K1 O28 3.010179 1_545
K1 O6 3.058261 1_545
K1 O9 3.227617 1_555
K1 O15 3.242775 1_555
K2 O23 2.902916 1_555
K2 O33 2.902984 1_555
K2 O3 2.916656 1_555
K2 O24 2.924988 1_555
K2 O18 2.972846 1_556
K2 O31 3.010179 1_455
K2 O5 3.058261 1_555
K2 O10 3.227617 1_555
K2 O12 3.242775 1_455
K3 O22 2.902916 1_555
K3 O32 2.902984 1_555
K3 O2 2.916656 1_555
K3 O25 2.924988 1_555
K3 O19 2.972846 1_554
K3 O30 3.010179 1_655
K3 O4 3.058261 1_555
K3 O11 3.227617 1_555
K3 O13 3.242775 1_655
Dy0 O24 2.322066 1_555
Dy0 O12 2.325164 1_555
Dy0 O34 2.333787 1_556
Dy0 O8 2.334072 1_555
Dy0 O28 2.335849 1_556
Dy0 O4 2.406588 1_556
Dy0 O19 2.416649 1_555
Dy0 O3 2.433612 1_555
Dy1 O25 2.322066 1_555
Dy1 O13 2.325164 1_555
Dy1 O35 2.333787 1_554
Dy1 O9 2.334072 1_555
Dy1 O29 2.335849 1_554
Dy1 O5 2.406588 1_554
Dy1 O18 2.416649 1_555
Dy1 O2 2.433612 1_555
Dy2 O26 2.322066 1_455
Dy2 O14 2.325164 1_555
Dy2 O32 2.333787 1_455
Dy2 O10 2.334072 1_555
Dy2 O30 2.335849 1_555
Dy2 O6 2.406588 1_555
Dy2 O17 2.416649 1_565
Dy2 O1 2.433612 1_565
Dy3 O27 2.322066 1_655
Dy3 O15 2.325164 1_555
Dy3 O33 2.333787 1_655
Dy3 O11 2.334072 1_555
Dy3 O31 2.335849 1_555
Dy3 O7 2.406588 1_555
Dy3 O16 2.416649 1_545
Dy3 O0 2.433612 1_545
O0 S0 1.490254 1_555
O1 S1 1.490254 1_555
O2 S2 1.490254 1_555
O3 S3 1.490254 1_555
O4 S0 1.477330 1_555
O5 S1 1.477330 1_555
O6 S2 1.477330 1_555
O7 S3 1.477330 1_555
O8 S4 1.502664 1_555
O9 S5 1.502664 1_555
O10 S6 1.502664 1_555
O11 S7 1.502664 1_555
O16 S0 1.504108 1_555
O17 S1 1.504108 1_555
O18 S2 1.504108 1_555
O19 S3 1.504108 1_555
O20 S6 1.477949 1_554
O21 S7 1.477949 1_556
O22 S4 1.477949 1_555
O23 S5 1.477949 1_555
O24 S6 1.484049 1_555
O25 S7 1.484049 1_555
O26 S4 1.484049 1_555
O27 S5 1.484049 1_555
O28 S7 1.491119 1_565
O29 S6 1.491119 1_545
O30 S5 1.491119 1_555
O31 S4 1.491119 1_555
O32 S0 1.489812 1_555
O33 S1 1.489812 1_555
O34 S2 1.489812 1_555
O35 S3 1.489812 1_555
