# generated using pymatgen
data_Sm(GePt)2
_symmetry_space_group_name_H-M   'P 1'
_cell_length_a   4.36281000
_cell_length_b   4.37615400
_cell_length_c   10.02762500
_cell_angle_alpha   90.00000000
_cell_angle_beta   90.00000000
_cell_angle_gamma   90.00000000
_symmetry_Int_Tables_number   1
_chemical_formula_structural   Sm(GePt)2
_chemical_formula_sum   'Sm2 Ge4 Pt4'
_cell_volume   191.45070990
_cell_formula_units_Z   2
loop_
 _symmetry_equiv_pos_site_id
 _symmetry_equiv_pos_as_xyz
  1  'x, y, z'
loop_
 _atom_site_type_symbol
 _atom_site_label
 _atom_site_symmetry_multiplicity
 _atom_site_fract_x
 _atom_site_fract_y
 _atom_site_fract_z
 _atom_site_occupancy
  Sm  Sm0  1  0.24986500  0.00000000  0.74695600  1
  Sm  Sm1  1  0.74986500  0.50000000  0.25304400  1
  Ge  Ge0  1  0.22366000  0.00000000  0.13204300  1
  Ge  Ge1  1  0.72366000  0.50000000  0.86795700  1
  Ge  Ge2  1  0.26925700  0.50000000  0.49822400  1
  Ge  Ge3  1  0.76925700  0.00000000  0.50177600  1
  Pt  Pt0  1  0.26968500  0.00000000  0.37600600  1
  Pt  Pt1  1  0.76968500  0.50000000  0.62399400  1
  Pt  Pt2  1  0.22153300  0.50000000  0.99776300  1
  Pt  Pt3  1  0.72153300  0.00000000  0.00223700  1
loop_
_geom_bond_atom_site_label_1
_geom_bond_atom_site_label_2
_geom_bond_distance
_geom_bond_site_symmetry_2
Ge0 Pt0 2.454596 1_555
Ge0 Pt3 2.532274 1_555
Ge0 Pt3 2.548211 1_455
Ge0 Pt2 2.569213 1_544
Ge0 Pt2 2.569213 1_554
Ge0 Sm1 3.245414 1_445
Ge0 Sm1 3.245414 1_455
Ge0 Sm1 3.395629 1_555
Ge0 Sm1 3.395629 1_545
Ge1 Pt1 2.454596 1_555
Ge1 Pt2 2.532274 1_655
Ge1 Pt2 2.548211 1_555
Ge1 Pt3 2.569213 1_566
Ge1 Pt3 2.569213 1_556
Ge1 Sm0 3.245414 1_555
Ge1 Sm0 3.245414 1_565
Ge1 Sm0 3.395629 1_665
Ge1 Sm0 3.395629 1_655
Ge2 Pt0 2.507922 1_555
Ge2 Pt0 2.507922 1_565
Ge2 Pt1 2.518123 1_455
Ge2 Pt1 2.521357 1_555
Ge2 Sm1 3.231278 1_555
Ge2 Sm0 3.319010 1_555
Ge2 Sm0 3.319010 1_565
Ge2 Sm1 3.343557 1_455
Ge3 Pt1 2.507922 1_555
Ge3 Pt1 2.507922 1_545
Ge3 Pt0 2.518123 1_555
Ge3 Pt0 2.521357 1_655
Ge3 Sm0 3.231278 1_655
Ge3 Sm1 3.319010 1_555
Ge3 Sm1 3.319010 1_545
Ge3 Sm0 3.343557 1_555
Pt0 Sm1 3.270590 1_555
Pt0 Sm1 3.270590 1_545
Pt0 Sm1 3.383973 1_445
Pt0 Sm1 3.383973 1_455
Pt1 Sm0 3.270590 1_665
Pt1 Sm0 3.270590 1_655
Pt1 Sm0 3.383973 1_555
Pt1 Sm0 3.383973 1_565
Pt2 Sm1 3.284422 1_456
Pt2 Sm0 3.335892 1_555
Pt2 Sm0 3.335892 1_565
Pt2 Sm1 3.444702 1_556
Pt3 Sm0 3.284422 1_554
Pt3 Sm1 3.335892 1_555
Pt3 Sm1 3.335892 1_545
Pt3 Sm0 3.444702 1_654
