# generated using pymatgen
data_BaSr3(ZrSe3)4
_symmetry_space_group_name_H-M   'P 1'
_cell_length_a   4.02098300
_cell_length_b   9.04197000
_cell_length_c   14.82634524
_cell_angle_alpha   89.97659298
_cell_angle_beta   90.00000000
_cell_angle_gamma   90.00000000
_symmetry_Int_Tables_number   1
_chemical_formula_structural   BaSr3(ZrSe3)4
_chemical_formula_sum   'Ba1 Sr3 Zr4 Se12'
_cell_volume   539.05039813
_cell_formula_units_Z   1
loop_
 _symmetry_equiv_pos_site_id
 _symmetry_equiv_pos_as_xyz
  1  'x, y, z'
loop_
 _atom_site_type_symbol
 _atom_site_label
 _atom_site_symmetry_multiplicity
 _atom_site_fract_x
 _atom_site_fract_y
 _atom_site_fract_z
 _atom_site_occupancy
  Ba  Ba0  1  0.50000000  0.93231300  0.82349200  1
  Sr  Sr0  1  0.50000000  0.43643100  0.67607700  1
  Sr  Sr1  1  0.00000000  0.06268800  0.17855500  1
  Sr  Sr2  1  0.00000000  0.56357000  0.32225800  1
  Zr  Zr0  1  0.50000000  0.66593900  0.06034100  1
  Zr  Zr1  1  0.50000000  0.16988200  0.44150600  1
  Zr  Zr2  1  0.00000000  0.33371800  0.94261500  1
  Zr  Zr3  1  0.00000000  0.83021300  0.55561800  1
  Se  Se0  1  0.50000000  0.66086300  0.48686700  1
  Se  Se1  1  0.50000000  0.16425400  0.01237800  1
  Se  Se2  1  0.00000000  0.33843600  0.51096100  1
  Se  Se3  1  0.00000000  0.83824800  0.99515300  1
  Se  Se4  1  0.50000000  0.52500400  0.89332600  1
  Se  Se5  1  0.50000000  0.02137700  0.60607800  1
  Se  Se6  1  0.00000000  0.47601300  0.10906700  1
  Se  Se7  1  0.00000000  0.97862300  0.39151000  1
  Se  Se8  1  0.50000000  0.79084300  0.21899000  1
  Se  Se9  1  0.50000000  0.29127000  0.28197000  1
  Se  Se10  1  0.00000000  0.22124200  0.78091900  1
  Se  Se11  1  0.00000000  0.69907300  0.71231900  1
loop_
_geom_bond_atom_site_label_1
_geom_bond_atom_site_label_2
_geom_bond_distance
_geom_bond_site_symmetry_2
Ba0 Se5 3.322209 1_565
Ba0 Se11 3.348050 1_555
Ba0 Se11 3.348050 1_655
Ba0 Se3 3.352801 1_555
Ba0 Se3 3.352801 1_655
Ba0 Se10 3.356223 1_665
Ba0 Se10 3.356223 1_565
Ba0 Se1 3.499400 1_566
Ba0 Se4 3.825242 1_555
Se0 Zr3 2.725276 1_555
Se0 Zr3 2.725276 1_655
Se0 Sr2 3.282381 1_555
Se0 Sr2 3.282381 1_655
Se0 Sr0 3.461662 1_555
Se1 Zr2 2.731031 1_554
Se1 Zr2 2.731031 1_654
Se1 Sr1 3.309668 1_555
Se1 Sr1 3.309668 1_655
Se2 Zr1 2.725166 1_455
Se2 Zr1 2.725166 1_555
Se2 Sr0 3.289680 1_455
Se2 Sr0 3.289680 1_555
Se2 Sr2 3.459304 1_555
Se3 Zr0 2.720730 1_456
Se3 Zr0 2.720730 1_556
Se3 Sr1 3.393647 1_566
Se4 Zr2 2.750745 1_655
Se4 Zr2 2.750745 1_555
Se4 Zr0 2.785349 1_556
Se4 Sr0 3.319398 1_555
Se5 Zr3 2.755096 1_545
Se5 Zr3 2.755096 1_645
Se5 Zr1 2.784597 1_555
Se6 Zr0 2.740821 1_455
Se6 Zr0 2.740821 1_555
Se6 Zr2 2.783597 1_554
Se6 Sr2 3.258795 1_555
Se7 Zr1 2.753773 1_565
Se7 Zr1 2.753773 1_465
Se7 Zr3 2.778158 1_555
Se7 Sr1 3.247250 1_565
Se8 Zr0 2.609682 1_555
Se8 Sr1 3.231425 1_565
Se8 Sr1 3.231425 1_665
Se8 Sr2 3.256799 1_555
Se8 Sr2 3.256799 1_655
Se9 Zr1 2.607180 1_555
Se9 Sr2 3.234525 1_555
Se9 Sr2 3.234525 1_655
Se9 Sr1 3.266093 1_555
Se9 Sr1 3.266093 1_655
Se10 Zr2 2.604540 1_555
Se10 Sr0 3.200268 1_455
Se10 Sr0 3.200268 1_555
Se11 Zr3 2.607973 1_555
Se11 Sr0 3.157773 1_555
Se11 Sr0 3.157773 1_455
