# generated using pymatgen
data_MnInO3
_symmetry_space_group_name_H-M   'P 1'
_cell_length_a   6.00790713
_cell_length_b   6.00776131
_cell_length_c   11.65488637
_cell_angle_alpha   90.02436228
_cell_angle_beta   90.02414846
_cell_angle_gamma   60.02948820
_symmetry_Int_Tables_number   1
_chemical_formula_structural   MnInO3
_chemical_formula_sum   'Mn6 In6 O18'
_cell_volume   364.42106706
_cell_formula_units_Z   6
loop_
 _symmetry_equiv_pos_site_id
 _symmetry_equiv_pos_as_xyz
  1  'x, y, z'
loop_
 _atom_site_type_symbol
 _atom_site_label
 _atom_site_symmetry_multiplicity
 _atom_site_fract_x
 _atom_site_fract_y
 _atom_site_fract_z
 _atom_site_occupancy
  Mn  Mn0  1  0.33129600  0.66870900  0.75000400  1
  Mn  Mn1  1  0.33148200  0.00006700  0.24996800  1
  Mn  Mn2  1  0.99992700  0.66852100  0.25004100  1
  Mn  Mn3  1  0.00005900  0.33148600  0.74996000  1
  Mn  Mn4  1  0.66850400  0.99995300  0.75003200  1
  Mn  Mn5  1  0.66873100  0.33125900  0.25000000  1
  In  In0  1  0.99997900  0.00001200  0.49999000  1
  In  In1  1  0.99999300  0.00000100  0.00000700  1
  In  In2  1  0.66668100  0.66668300  0.01869000  1
  In  In3  1  0.66668100  0.66669500  0.51869200  1
  In  In4  1  0.33331900  0.33330100  0.98131700  1
  In  In5  1  0.33331900  0.33332700  0.48129900  1
  O  O0  1  0.99967500  0.00032200  0.75000100  1
  O  O1  1  0.00033800  0.99965800  0.24999900  1
  O  O2  1  0.66705300  0.66606700  0.22716200  1
  O  O3  1  0.66608100  0.66705600  0.72716300  1
  O  O4  1  0.33293600  0.33393300  0.77284000  1
  O  O5  1  0.33393600  0.33294600  0.27283400  1
  O  O6  1  0.02508700  0.31957200  0.58455300  1
  O  O7  1  0.65537000  0.02491400  0.58450100  1
  O  O8  1  0.31967800  0.65509800  0.58467700  1
  O  O9  1  0.31957600  0.02508600  0.08455200  1
  O  O10  1  0.65509500  0.31966700  0.08467500  1
  O  O11  1  0.02490700  0.65536900  0.08449200  1
  O  O12  1  0.97490100  0.68043600  0.41544300  1
  O  O13  1  0.34463400  0.97509600  0.41550300  1
  O  O14  1  0.68033800  0.34490200  0.41532400  1
  O  O15  1  0.68042800  0.97491500  0.91544900  1
  O  O16  1  0.34490900  0.68032000  0.91532800  1
  O  O17  1  0.97508500  0.34462900  0.91550600  1
loop_
_geom_bond_atom_site_label_1
_geom_bond_atom_site_label_2
_geom_bond_distance
_geom_bond_site_symmetry_2
Mn0 O16 1.931241 1_555
Mn0 O8 1.931277 1_555
Mn0 O0 1.993188 1_465
Mn0 O4 2.024038 1_555
Mn0 O3 2.024109 1_555
Mn1 O9 1.932334 1_555
Mn1 O13 1.933698 1_545
Mn1 O1 1.990711 1_545
Mn1 O5 2.024765 1_555
Mn1 O2 2.029728 1_545
Mn2 O12 1.932173 1_555
Mn2 O11 1.933864 1_655
Mn2 O1 1.990627 1_655
Mn2 O2 2.024804 1_555
Mn2 O5 2.029748 1_655
Mn3 O6 1.932232 1_555
Mn3 O17 1.933827 1_455
Mn3 O0 1.990708 1_455
Mn3 O4 2.024802 1_555
Mn3 O3 2.029647 1_455
Mn4 O15 1.932352 1_555
Mn4 O7 1.933648 1_565
Mn4 O0 1.990753 1_565
Mn4 O3 2.024783 1_555
Mn4 O4 2.029663 1_565
Mn5 O14 1.931250 1_555
Mn5 O10 1.931254 1_555
Mn5 O1 1.993110 1_645
Mn5 O5 2.024057 1_555
Mn5 O2 2.024120 1_555
In0 O12 2.228703 1_545
In0 O6 2.228789 1_655
In0 O7 2.229605 1_555
In0 O13 2.229695 1_645
In0 O14 2.231468 1_555
In0 O8 2.231787 1_645
In1 O15 2.228768 1_544
In1 O9 2.228794 1_655
In1 O11 2.229523 1_645
In1 O17 2.229599 1_554
In1 O10 2.231562 1_555
In1 O16 2.231709 1_644
In2 O16 2.243880 1_554
In2 O15 2.244671 1_554
In2 O17 2.245221 1_554
In2 O11 2.253262 1_655
In2 O9 2.255661 1_565
In2 O10 2.255886 1_555
In2 O2 2.429720 1_555
In3 O14 2.243933 1_555
In3 O12 2.244678 1_555
In3 O13 2.245237 1_555
In3 O7 2.253206 1_565
In3 O6 2.255723 1_655
In3 O8 2.255889 1_555
In3 O3 2.429708 1_555
In4 O10 2.243883 1_556
In4 O9 2.244537 1_556
In4 O11 2.245222 1_556
In4 O17 2.253305 1_455
In4 O15 2.255645 1_545
In4 O16 2.255931 1_555
In4 O4 2.429779 1_555
In5 O8 2.243922 1_555
In5 O6 2.244807 1_555
In5 O7 2.245357 1_555
In5 O13 2.253211 1_545
In5 O12 2.255701 1_455
In5 O14 2.255875 1_555
In5 O5 2.429639 1_555
