# generated using pymatgen
data_Li9Mn2Co5O16
_symmetry_space_group_name_H-M   'P 1'
_cell_length_a   5.12031465
_cell_length_b   7.74537911
_cell_length_c   7.74537941
_cell_angle_alpha   96.13062803
_cell_angle_beta   76.07349489
_cell_angle_gamma   76.07350196
_symmetry_Int_Tables_number   1
_chemical_formula_structural   Li9Mn2Co5O16
_chemical_formula_sum   'Li9 Mn2 Co5 O16'
_cell_volume   284.92137599
_cell_formula_units_Z   1
loop_
 _symmetry_equiv_pos_site_id
 _symmetry_equiv_pos_as_xyz
  1  'x, y, z'
loop_
 _atom_site_type_symbol
 _atom_site_label
 _atom_site_symmetry_multiplicity
 _atom_site_fract_x
 _atom_site_fract_y
 _atom_site_fract_z
 _atom_site_occupancy
  Li  Li0  1  0.99337200  0.11191700  0.36899200  1
  Li  Li1  1  0.00662800  0.63100800  0.88808300  1
  Li  Li2  1  0.51753400  0.98540600  0.48864000  1
  Li  Li3  1  0.48246600  0.51136000  0.01459400  1
  Li  Li4  1  0.00860900  0.86835100  0.61288600  1
  Li  Li5  1  0.99139100  0.38711400  0.13164900  1
  Li  Li6  1  0.49541200  0.74838800  0.74493500  1
  Li  Li7  1  0.50458800  0.25506500  0.25161200  1
  Li  Li8  1  0.00000000  0.74804500  0.25195500  1
  Mn  Mn0  1  0.00000000  0.99755700  0.00244300  1
  Mn  Mn1  1  0.50000000  0.37766700  0.62233300  1
  Co  Co0  1  0.00000000  0.50506700  0.49493300  1
  Co  Co1  1  0.50000000  0.86384800  0.13615200  1
  Co  Co2  1  0.00000000  0.25075800  0.74924200  1
  Co  Co3  1  0.50000000  0.62224400  0.37775600  1
  Co  Co4  1  0.50000000  0.12571400  0.87428600  1
  O  O0  1  0.75378200  0.00168900  0.22779000  1
  O  O1  1  0.75735400  0.47666000  0.72701400  1
  O  O2  1  0.27656700  0.86377500  0.37349900  1
  O  O3  1  0.27365300  0.37231500  0.86276900  1
  O  O4  1  0.74830900  0.72283000  0.49063100  1
  O  O5  1  0.76731100  0.23641900  0.98061400  1
  O  O6  1  0.27792800  0.61340000  0.61869800  1
  O  O7  1  0.24102000  0.11324300  0.10882400  1
  O  O8  1  0.24264600  0.27298600  0.52334000  1
  O  O9  1  0.24621800  0.77221000  0.99831100  1
  O  O10  1  0.72634700  0.13723100  0.62768500  1
  O  O11  1  0.72343300  0.62650100  0.13622500  1
  O  O12  1  0.23268900  0.01938600  0.76358100  1
  O  O13  1  0.25169100  0.50936900  0.27717000  1
  O  O14  1  0.75898000  0.89117600  0.88675700  1
  O  O15  1  0.72207200  0.38130200  0.38660000  1
loop_
_geom_bond_atom_site_label_1
_geom_bond_atom_site_label_2
_geom_bond_distance
_geom_bond_site_symmetry_2
Li0 O0 2.092970 1_555
Li0 O10 2.095448 1_555
Li0 O7 2.109353 1_655
Li0 O2 2.120133 1_645
Li0 O15 2.180506 1_555
Li0 O8 2.407703 1_655
Li1 O9 2.092970 1_555
Li1 O3 2.095448 1_555
Li1 O14 2.109353 1_455
Li1 O11 2.120132 1_456
Li1 O6 2.180506 1_555
Li1 O1 2.407703 1_455
Li2 O2 2.028516 1_555
Li2 O4 2.095555 1_555
Li2 O0 2.124282 1_565
Li2 O10 2.138881 1_565
Li2 O12 2.220771 1_565
Li2 O8 2.279397 1_565
Li3 O11 2.028516 1_555
Li3 O13 2.095555 1_555
Li3 O9 2.124282 1_554
Li3 O3 2.138881 1_554
Li3 O5 2.220771 1_554
Li3 O1 2.279397 1_554
Li4 O2 2.014842 1_555
Li4 O6 2.131001 1_555
Li4 O14 2.161171 1_455
Li4 O10 2.204433 1_465
Li4 O4 2.246348 1_455
Li4 O12 2.246401 1_565
Li5 O11 2.014842 1_555
Li5 O15 2.131001 1_555
Li5 O7 2.161171 1_655
Li5 O3 2.204433 1_654
Li5 O13 2.246348 1_655
Li5 O5 2.246401 1_554
Li6 O9 2.029157 1_555
Li6 O6 2.038482 1_555
Li6 O4 2.039910 1_555
Li6 O12 2.172279 1_565
Li6 O1 2.176436 1_555
Li6 O14 2.328855 1_555
Li7 O0 2.029157 1_555
Li7 O15 2.038482 1_555
Li7 O13 2.039910 1_555
Li7 O5 2.172279 1_554
Li7 O8 2.176436 1_555
Li7 O7 2.328855 1_555
Li8 O4 2.041550 1_455
Li8 O13 2.041550 1_555
Li8 O9 2.117518 1_554
Li8 O0 2.117518 1_465
Li8 O11 2.183478 1_455
Li8 O2 2.183478 1_555
Mn0 O0 1.883160 1_465
Mn0 O9 1.883160 1_554
Mn0 O7 1.966935 1_565
Mn0 O14 1.966935 1_454
Mn0 O12 1.993401 1_564
Mn0 O5 1.993402 1_464
Mn1 O15 1.911668 1_555
Mn1 O6 1.911668 1_555
Mn1 O3 1.952862 1_555
Mn1 O10 1.952862 1_555
Mn1 O8 1.962024 1_555
Mn1 O1 1.962024 1_555
Co0 O13 1.868995 1_555
Co0 O4 1.868995 1_455
Co0 O1 1.991048 1_455
Co0 O8 1.991048 1_555
Co0 O15 2.169737 1_455
Co0 O6 2.169737 1_555
Co1 O2 1.917426 1_555
Co1 O11 1.917426 1_555
Co1 O0 2.069314 1_565
Co1 O9 2.069314 1_554
Co1 O14 2.126968 1_554
Co1 O7 2.126968 1_565
Co2 O5 1.929198 1_455
Co2 O12 1.929198 1_555
Co2 O8 1.937937 1_555
Co2 O1 1.937937 1_455
Co2 O3 2.161991 1_555
Co2 O10 2.161991 1_455
Co3 O11 1.952117 1_555
Co3 O2 1.952117 1_555
Co3 O6 1.955417 1_555
Co3 O15 1.955417 1_555
Co3 O13 1.963203 1_555
Co3 O4 1.963203 1_555
Co4 O7 2.001836 1_556
Co4 O14 2.001836 1_545
Co4 O10 2.004979 1_555
Co4 O3 2.004979 1_555
Co4 O5 2.059981 1_555
Co4 O12 2.059981 1_555
