# generated using pymatgen
data_Mg2RuN3
_symmetry_space_group_name_H-M   'P 1'
_cell_length_a   5.56654795
_cell_length_b   10.40929272
_cell_length_c   14.91676123
_cell_angle_alpha   89.99999961
_cell_angle_beta   91.91473035
_cell_angle_gamma   159.22592450
_symmetry_Int_Tables_number   1
_chemical_formula_structural   Mg2RuN3
_chemical_formula_sum   'Mg8 Ru4 N12'
_cell_volume   305.20219768
_cell_formula_units_Z   4
loop_
 _symmetry_equiv_pos_site_id
 _symmetry_equiv_pos_as_xyz
  1  'x, y, z'
loop_
 _atom_site_type_symbol
 _atom_site_label
 _atom_site_symmetry_multiplicity
 _atom_site_fract_x
 _atom_site_fract_y
 _atom_site_fract_z
 _atom_site_occupancy
  Mg  Mg0  1  0.34467382  0.89850437  0.84736050  1
  Mg  Mg1  1  0.65532618  0.55383055  0.65263950  1
  Mg  Mg2  1  0.65532618  0.10149563  0.15263950  1
  Mg  Mg3  1  0.34467382  0.44616945  0.34736050  1
  Mg  Mg4  1  0.51793819  0.86879674  0.52267689  1
  Mg  Mg5  1  0.48206181  0.35085854  0.97732311  1
  Mg  Mg6  1  0.48206181  0.13120326  0.47732311  1
  Mg  Mg7  1  0.51793819  0.64914146  0.02267689  1
  Ru  Ru0  1  0.59111645  0.24107587  0.66725630  1
  Ru  Ru1  1  0.40888355  0.64995941  0.83274370  1
  Ru  Ru2  1  0.40888355  0.75892413  0.33274370  1
  Ru  Ru3  1  0.59111645  0.35004059  0.16725630  1
  N  N0  1  1.00000000  0.57573048  0.75000000  1
  N  N1  1  0.00000000  0.42426952  0.25000000  1
  N  N2  1  0.64564575  0.10618815  0.60421365  1
  N  N3  1  0.35435425  0.46054240  0.89578635  1
  N  N4  1  0.35435425  0.89381185  0.39578635  1
  N  N5  1  0.64564575  0.53945760  0.10421365  1
  N  N6  1  0.53031268  0.20610413  0.06759717  1
  N  N7  1  0.46968732  0.67579144  0.43240283  1
  N  N8  1  0.46968732  0.79389587  0.93240283  1
  N  N9  1  0.53031268  0.32420856  0.56759717  1
  N  N10  1  1.00000000  0.88345140  0.75000000  1
  N  N11  1  0.00000000  0.11654860  0.25000000  1
loop_
_geom_bond_atom_site_label_1
_geom_bond_atom_site_label_2
_geom_bond_distance
_geom_bond_site_symmetry_2
Mg0 N3 2.139845 1_665
Mg0 N8 2.153417 1_555
Mg0 N0 2.199604 1_455
Mg0 N3 2.228318 1_455
Mg0 N10 2.250900 1_455
Mg1 N2 2.139845 1_455
Mg1 N9 2.153417 1_555
Mg1 N0 2.199603 1_555
Mg1 N2 2.228318 1_665
Mg1 N10 2.250900 1_555
Mg2 N5 2.139845 1_445
Mg2 N6 2.153417 1_555
Mg2 N1 2.199604 1_655
Mg2 N5 2.228318 1_655
Mg2 N11 2.250900 1_655
Mg3 N4 2.139845 1_655
Mg3 N7 2.153417 1_555
Mg3 N1 2.199603 1_555
Mg3 N4 2.228318 1_445
Mg3 N11 2.250900 1_555
Mg4 N9 2.114519 1_665
Mg4 N2 2.179035 1_565
Mg4 N9 2.185577 1_455
Mg4 N4 2.192688 1_555
Mg4 N7 2.210998 1_555
Mg5 N8 2.114519 1_445
Mg5 N3 2.179035 1_555
Mg5 N8 2.185576 1_655
Mg5 N5 2.192688 1_556
Mg5 N6 2.210998 1_556
Mg6 N7 2.114519 1_445
Mg6 N4 2.179035 1_545
Mg6 N7 2.185577 1_655
Mg6 N2 2.192688 1_555
Mg6 N9 2.210998 1_555
Mg7 N6 2.114519 1_665
Mg7 N5 2.179035 1_555
Mg7 N6 2.185576 1_455
Mg7 N3 2.192688 1_554
Mg7 N8 2.210998 1_554
N0 Ru1 1.955651 1_655
N0 Ru0 1.955652 1_555
N1 Ru3 1.955651 1_455
N1 Ru2 1.955652 1_555
N2 Ru0 1.940098 1_555
N3 Ru1 1.940098 1_555
N4 Ru2 1.940098 1_555
N5 Ru3 1.940098 1_555
N6 Ru3 1.894051 1_555
N7 Ru2 1.894051 1_555
N8 Ru1 1.894051 1_555
N9 Ru0 1.894051 1_555
N10 Ru1 1.890579 1_555
N10 Ru0 1.890579 1_665
N11 Ru3 1.890579 1_555
N11 Ru2 1.890579 1_445
