# generated using pymatgen
data_Na2WO6
_symmetry_space_group_name_H-M   'P 1'
_cell_length_a   10.53431200
_cell_length_b   8.97620200
_cell_length_c   11.77078600
_cell_angle_alpha   90.00000000
_cell_angle_beta   90.00000000
_cell_angle_gamma   90.00000000
_symmetry_Int_Tables_number   1
_chemical_formula_structural   Na2WO6
_chemical_formula_sum   'Na16 W8 O48'
_cell_volume   1113.02330613
_cell_formula_units_Z   8
loop_
 _symmetry_equiv_pos_site_id
 _symmetry_equiv_pos_as_xyz
  1  'x, y, z'
loop_
 _atom_site_type_symbol
 _atom_site_label
 _atom_site_symmetry_multiplicity
 _atom_site_fract_x
 _atom_site_fract_y
 _atom_site_fract_z
 _atom_site_occupancy
  Na  Na0  1  0.34611000  0.19310600  0.36482800  1
  Na  Na1  1  0.84611000  0.30689400  0.63517200  1
  Na  Na2  1  0.65389000  0.69310600  0.13517200  1
  Na  Na3  1  0.15389000  0.80689400  0.86482800  1
  Na  Na4  1  0.65389000  0.80689400  0.63517200  1
  Na  Na5  1  0.15389000  0.69310600  0.36482800  1
  Na  Na6  1  0.34611000  0.30689400  0.86482800  1
  Na  Na7  1  0.84611000  0.19310600  0.13517200  1
  Na  Na8  1  0.94762800  0.63670100  0.68672500  1
  Na  Na9  1  0.44762800  0.86329900  0.31327500  1
  Na  Na10  1  0.05237200  0.13670100  0.81327500  1
  Na  Na11  1  0.55237200  0.36329900  0.18672500  1
  Na  Na12  1  0.05237200  0.36329900  0.31327500  1
  Na  Na13  1  0.55237200  0.13670100  0.68672500  1
  Na  Na14  1  0.94762800  0.86329900  0.18672500  1
  Na  Na15  1  0.44762800  0.63670100  0.81327500  1
  W  W0  1  0.70942500  0.11532700  0.39268100  1
  W  W1  1  0.20942500  0.38467300  0.60731900  1
  W  W2  1  0.29057500  0.61532700  0.10731900  1
  W  W3  1  0.79057500  0.88467300  0.89268100  1
  W  W4  1  0.29057500  0.88467300  0.60731900  1
  W  W5  1  0.79057500  0.61532700  0.39268100  1
  W  W6  1  0.70942500  0.38467300  0.89268100  1
  W  W7  1  0.20942500  0.11532700  0.10731900  1
  O  O0  1  0.81216400  0.02959100  0.28560900  1
  O  O1  1  0.31216400  0.47040900  0.71439100  1
  O  O2  1  0.18783600  0.52959100  0.21439100  1
  O  O3  1  0.68783600  0.97040900  0.78560900  1
  O  O4  1  0.18783600  0.97040900  0.71439100  1
  O  O5  1  0.68783600  0.52959100  0.28560900  1
  O  O6  1  0.81216400  0.47040900  0.78560900  1
  O  O7  1  0.31216400  0.02959100  0.21439100  1
  O  O8  1  0.56368000  0.17750500  0.32641300  1
  O  O9  1  0.06368000  0.32249500  0.67358700  1
  O  O10  1  0.43632000  0.67750500  0.17358700  1
  O  O11  1  0.93632000  0.82249500  0.82641300  1
  O  O12  1  0.43632000  0.82249500  0.67358700  1
  O  O13  1  0.93632000  0.67750500  0.32641300  1
  O  O14  1  0.56368000  0.32249500  0.82641300  1
  O  O15  1  0.06368000  0.17750500  0.17358700  1
  O  O16  1  0.70663900  0.15597400  0.54586400  1
  O  O17  1  0.20663900  0.34402600  0.45413600  1
  O  O18  1  0.29336100  0.65597400  0.95413600  1
  O  O19  1  0.79336100  0.84402600  0.04586400  1
  O  O20  1  0.29336100  0.84402600  0.45413600  1
  O  O21  1  0.79336100  0.65597400  0.54586400  1
  O  O22  1  0.70663900  0.34402600  0.04586400  1
  O  O23  1  0.20663900  0.15597400  0.95413600  1
  O  O24  1  0.03634400  0.01666200  0.46077100  1
  O  O25  1  0.53634400  0.48333800  0.53922900  1
  O  O26  1  0.96365600  0.51666200  0.03922900  1
  O  O27  1  0.46365600  0.98333800  0.96077100  1
  O  O28  1  0.96365600  0.98333800  0.53922900  1
  O  O29  1  0.46365600  0.51666200  0.46077100  1
  O  O30  1  0.03634400  0.48333800  0.96077100  1
  O  O31  1  0.53634400  0.01666200  0.03922900  1
  O  O32  1  0.83782500  0.28429800  0.36602800  1
  O  O33  1  0.33782500  0.21570200  0.63397200  1
  O  O34  1  0.16217500  0.78429800  0.13397200  1
  O  O35  1  0.66217500  0.71570200  0.86602800  1
  O  O36  1  0.16217500  0.71570200  0.63397200  1
  O  O37  1  0.66217500  0.78429800  0.36602800  1
  O  O38  1  0.83782500  0.21570200  0.86602800  1
  O  O39  1  0.33782500  0.28429800  0.13397200  1
  O  O40  1  0.66063000  0.90920000  0.44869100  1
  O  O41  1  0.16063000  0.59080000  0.55130900  1
  O  O42  1  0.33937000  0.40920000  0.05130900  1
  O  O43  1  0.83937000  0.09080000  0.94869100  1
  O  O44  1  0.33937000  0.09080000  0.55130900  1
  O  O45  1  0.83937000  0.40920000  0.44869100  1
  O  O46  1  0.66063000  0.59080000  0.94869100  1
  O  O47  1  0.16063000  0.90920000  0.05130900  1
loop_
_geom_bond_atom_site_label_1
_geom_bond_atom_site_label_2
_geom_bond_distance
_geom_bond_site_symmetry_2
Na0 O17 2.258073 1_555
Na0 O7 2.327605 1_555
Na0 O8 2.340322 1_555
Na0 O44 2.380441 1_555
Na0 O39 2.839310 1_555
Na1 O16 2.258073 1_555
Na1 O6 2.327605 1_555
Na1 O9 2.340322 1_655
Na1 O45 2.380441 1_555
Na1 O38 2.839310 1_555
Na2 O19 2.258073 1_555
Na2 O5 2.327605 1_555
Na2 O10 2.340322 1_555
Na2 O46 2.380441 1_554
Na2 O37 2.839310 1_555
Na3 O18 2.258073 1_555
Na3 O4 2.327605 1_555
Na3 O11 2.340322 1_455
Na3 O47 2.380441 1_556
Na3 O36 2.839310 1_555
Na4 O21 2.258073 1_555
Na4 O3 2.327605 1_555
Na4 O12 2.340322 1_555
Na4 O40 2.380441 1_555
Na4 O35 2.839310 1_555
Na5 O20 2.258073 1_555
Na5 O2 2.327605 1_555
Na5 O13 2.340322 1_455
Na5 O41 2.380441 1_555
Na5 O34 2.839310 1_555
Na6 O23 2.258073 1_555
Na6 O1 2.327605 1_555
Na6 O14 2.340322 1_555
Na6 O42 2.380441 1_556
Na6 O33 2.839310 1_555
Na7 O22 2.258073 1_555
Na7 O0 2.327605 1_555
Na7 O15 2.340322 1_655
Na7 O43 2.380441 1_554
Na7 O32 2.839310 1_555
Na8 O21 2.328085 1_555
Na8 O11 2.344997 1_555
Na8 O6 2.370488 1_555
Na8 O36 2.448777 1_655
Na8 O41 2.783022 1_655
Na9 O20 2.328085 1_555
Na9 O10 2.344997 1_555
Na9 O7 2.370488 1_565
Na9 O37 2.448777 1_555
Na9 O40 2.783022 1_555
Na10 O23 2.328085 1_555
Na10 O9 2.344997 1_555
Na10 O4 2.370488 1_545
Na10 O38 2.448777 1_455
Na10 O43 2.783022 1_455
Na11 O22 2.328085 1_555
Na11 O8 2.344997 1_555
Na11 O5 2.370488 1_555
Na11 O39 2.448777 1_555
Na11 O42 2.783022 1_555
Na12 O17 2.328085 1_555
Na12 O15 2.344997 1_555
Na12 O2 2.370488 1_555
Na12 O32 2.448777 1_455
Na12 O45 2.783022 1_455
Na13 O16 2.328085 1_555
Na13 O14 2.344997 1_555
Na13 O3 2.370488 1_545
Na13 O33 2.448777 1_555
Na13 O44 2.783022 1_555
Na14 O19 2.328085 1_555
Na14 O13 2.344997 1_555
Na14 O0 2.370488 1_565
Na14 O34 2.448777 1_655
Na14 O47 2.783022 1_655
Na15 O18 2.328085 1_555
Na15 O12 2.344997 1_555
Na15 O1 2.370488 1_555
Na15 O35 2.448777 1_555
Na15 O46 2.783022 1_555
O0 W0 1.830849 1_555
O1 W1 1.830849 1_555
O2 W2 1.830849 1_555
O3 W3 1.830849 1_555
O4 W4 1.830849 1_555
O5 W5 1.830849 1_555
O6 W6 1.830849 1_555
O7 W7 1.830849 1_555
O8 W0 1.810293 1_555
O9 W1 1.810293 1_555
O10 W2 1.810293 1_555
O11 W3 1.810293 1_555
O12 W4 1.810293 1_555
O13 W5 1.810293 1_555
O14 W6 1.810293 1_555
O15 W7 1.810293 1_555
O16 W0 1.839863 1_555
O17 W1 1.839863 1_555
O18 W2 1.839863 1_556
O19 W3 1.839863 1_554
O20 W4 1.839863 1_555
O21 W5 1.839863 1_555
O22 W6 1.839863 1_554
O23 W7 1.839863 1_556
O24 O28 1.236395 1_445
O25 O29 1.236395 1_555
O26 O30 1.236395 1_654
O27 O31 1.236395 1_566
O32 O45 1.484580 1_555
O32 W0 2.056307 1_555
O33 O44 1.484580 1_555
O33 W1 2.056307 1_555
O34 O47 1.484580 1_555
O34 W2 2.056307 1_555
O35 O46 1.484580 1_555
O35 W3 2.056307 1_555
O36 O41 1.484580 1_555
O36 W4 2.056307 1_555
O37 O40 1.484580 1_555
O37 W5 2.056307 1_555
O38 O43 1.484580 1_555
O38 W6 2.056307 1_555
O39 O42 1.484580 1_555
O39 W7 2.056307 1_555
O40 W0 2.030332 1_565
O41 W1 2.030332 1_555
O42 W2 2.030332 1_555
O43 W3 2.030332 1_545
O44 W4 2.030332 1_545
O45 W5 2.030332 1_555
O46 W6 2.030332 1_555
O47 W7 2.030332 1_565
