# generated using pymatgen
data_CaMoF5
_symmetry_space_group_name_H-M   'P 1'
_cell_length_a   10.65325858
_cell_length_b   5.54325659
_cell_length_c   7.71276583
_cell_angle_alpha   70.58622807
_cell_angle_beta   90.00000000
_cell_angle_gamma   90.00000000
_symmetry_Int_Tables_number   1
_chemical_formula_structural   CaMoF5
_chemical_formula_sum   'Ca4 Mo4 F20'
_cell_volume   429.57108966
_cell_formula_units_Z   4
loop_
 _symmetry_equiv_pos_site_id
 _symmetry_equiv_pos_as_xyz
  1  'x, y, z'
loop_
 _atom_site_type_symbol
 _atom_site_label
 _atom_site_symmetry_multiplicity
 _atom_site_fract_x
 _atom_site_fract_y
 _atom_site_fract_z
 _atom_site_occupancy
  Ca  Ca0  1  0.01780208  0.53143867  0.74550373  1
  Ca  Ca1  1  0.51780208  0.46856133  0.75449627  1
  Ca  Ca2  1  0.98219792  0.46856133  0.25449627  1
  Ca  Ca3  1  0.48219792  0.53143867  0.24550373  1
  Mo  Mo0  1  0.75444777  0.10806577  0.60170954  1
  Mo  Mo1  1  0.25444777  0.89193423  0.89829046  1
  Mo  Mo2  1  0.24555223  0.89193423  0.39829046  1
  Mo  Mo3  1  0.74555223  0.10806577  0.10170954  1
  F  F0  1  0.88364486  0.40607749  0.55439187  1
  F  F1  1  0.38364486  0.59392251  0.94560813  1
  F  F2  1  0.11635514  0.59392251  0.44560813  1
  F  F3  1  0.61635514  0.40607749  0.05439187  1
  F  F4  1  0.60691614  0.35816684  0.49944355  1
  F  F5  1  0.10691614  0.64183316  0.00055645  1
  F  F6  1  0.39308386  0.64183316  0.50055645  1
  F  F7  1  0.89308386  0.35816684  -0.00055645  1
  F  F8  1  0.40067362  0.12478618  0.79620587  1
  F  F9  1  0.90067362  0.87521382  0.70379413  1
  F  F10  1  0.59932638  0.87521382  0.20379413  1
  F  F11  1  0.09932638  0.12478618  0.29620587  1
  F  F12  1  0.13960738  0.19341560  0.85736024  1
  F  F13  1  0.63960738  0.80658440  0.64263976  1
  F  F14  1  0.86039262  0.80658440  0.14263976  1
  F  F15  1  0.36039262  0.19341560  0.35736024  1
  F  F16  1  0.67956419  0.13280421  0.84406794  1
  F  F17  1  0.17956419  0.86719579  0.65593206  1
  F  F18  1  0.32043581  0.86719579  0.15593206  1
  F  F19  1  0.82043581  0.13280421  0.34406794  1
loop_
_geom_bond_atom_site_label_1
_geom_bond_atom_site_label_2
_geom_bond_distance
_geom_bond_site_symmetry_2
Ca0 F12 2.205544 1_555
Ca0 F9 2.210068 1_455
Ca0 F7 2.296372 1_456
Ca0 F0 2.319300 1_455
Ca0 F5 2.438387 1_556
Ca0 F2 2.457596 1_555
Ca0 F17 2.460948 1_555
Ca1 F13 2.205544 1_555
Ca1 F8 2.210068 1_555
Ca1 F6 2.296372 1_555
Ca1 F1 2.319300 1_555
Ca1 F4 2.438387 1_555
Ca1 F3 2.457596 1_556
Ca1 F16 2.460948 1_555
Ca2 F14 2.205544 1_555
Ca2 F11 2.210068 1_655
Ca2 F5 2.296372 1_655
Ca2 F2 2.319300 1_655
Ca2 F7 2.438387 1_555
Ca2 F0 2.457596 1_555
Ca2 F19 2.460948 1_555
Ca3 F15 2.205544 1_555
Ca3 F10 2.210068 1_555
Ca3 F4 2.296372 1_555
Ca3 F3 2.319300 1_555
Ca3 F6 2.438387 1_555
Ca3 F1 2.457596 1_554
Ca3 F18 2.460948 1_555
F0 Mo0 2.087045 1_555
F1 Mo1 2.087045 1_555
F2 Mo2 2.087045 1_555
F3 Mo3 2.087045 1_555
F4 Mo0 2.070615 1_555
F5 Mo1 2.070615 1_554
F6 Mo2 2.070615 1_555
F7 Mo3 2.070615 1_555
F8 Mo1 2.009245 1_545
F9 Mo0 2.009245 1_565
F10 Mo3 2.009245 1_565
F11 Mo2 2.009245 1_545
F12 Mo1 2.009622 1_545
F13 Mo0 2.009622 1_565
F14 Mo3 2.009622 1_565
F15 Mo2 2.009622 1_545
F16 Mo3 2.068944 1_556
F16 Mo0 2.078396 1_555
F17 Mo2 2.068944 1_555
F17 Mo1 2.078396 1_555
F18 Mo1 2.068944 1_554
F18 Mo2 2.078396 1_555
F19 Mo0 2.068944 1_555
F19 Mo3 2.078396 1_555
