# generated using pymatgen
data_Ba2ZnO3
_symmetry_space_group_name_H-M   'P 1'
_cell_length_a   6.43599363
_cell_length_b   6.43599363
_cell_length_c   12.66888323
_cell_angle_alpha   88.50488329
_cell_angle_beta   88.50488329
_cell_angle_gamma   125.79121051
_symmetry_Int_Tables_number   1
_chemical_formula_structural   Ba2ZnO3
_chemical_formula_sum   'Ba8 Zn4 O12'
_cell_volume   424.97100557
_cell_formula_units_Z   4
loop_
 _symmetry_equiv_pos_site_id
 _symmetry_equiv_pos_as_xyz
  1  'x, y, z'
loop_
 _atom_site_type_symbol
 _atom_site_label
 _atom_site_symmetry_multiplicity
 _atom_site_fract_x
 _atom_site_fract_y
 _atom_site_fract_z
 _atom_site_occupancy
  Ba  Ba0  1  0.43796268  0.02821233  0.15249891  1
  Ba  Ba1  1  0.02821233  0.43796268  0.65249891  1
  Ba  Ba2  1  0.56203732  0.97178767  0.84750109  1
  Ba  Ba3  1  0.97178767  0.56203732  0.34750109  1
  Ba  Ba4  1  0.86196368  0.65471256  0.92511209  1
  Ba  Ba5  1  0.34528744  0.13803632  0.57488791  1
  Ba  Ba6  1  0.13803632  0.34528744  0.07488791  1
  Ba  Ba7  1  0.65471256  0.86196368  0.42511209  1
  Zn  Zn0  1  0.72723466  0.73155824  0.66408777  1
  Zn  Zn1  1  0.27276534  0.26844176  0.33591223  1
  Zn  Zn2  1  0.26844176  0.27276534  0.83591223  1
  Zn  Zn3  1  0.73155824  0.72723466  0.16408777  1
  O  O0  1  0.32739978  0.13093793  0.96391724  1
  O  O1  1  0.86906207  0.67260022  0.53608276  1
  O  O2  1  0.67260022  0.86906207  0.03608276  1
  O  O3  1  0.13093793  0.32739978  0.46391724  1
  O  O4  1  0.99612127  0.00387873  0.75000000  1
  O  O5  1  0.00387873  0.99612127  0.25000000  1
  O  O6  1  0.59259683  0.40740317  0.75000000  1
  O  O7  1  0.48643754  0.14577796  0.36666294  1
  O  O8  1  0.14577796  0.48643754  0.86666294  1
  O  O9  1  0.51356246  0.85422204  0.63333706  1
  O  O10  1  0.85422204  0.51356246  0.13333706  1
  O  O11  1  0.40740317  0.59259683  0.25000000  1
loop_
_geom_bond_atom_site_label_1
_geom_bond_atom_site_label_2
_geom_bond_distance
_geom_bond_site_symmetry_2
Ba0 O10 2.670551 1_555
Ba0 O0 2.684756 1_554
Ba0 O2 2.697541 1_545
Ba0 O7 2.811868 1_555
Ba0 O5 2.916375 1_545
Ba0 O11 2.930253 1_545
Ba0 O10 3.267867 1_445
Ba1 O9 2.670551 1_555
Ba1 O3 2.684756 1_555
Ba1 O1 2.697541 1_455
Ba1 O8 2.811868 1_555
Ba1 O4 2.916375 1_455
Ba1 O6 2.930253 1_455
Ba1 O9 3.267867 1_445
Ba2 O8 2.670551 1_555
Ba2 O2 2.684756 1_556
Ba2 O0 2.697541 1_565
Ba2 O9 2.811868 1_555
Ba2 O4 2.916375 1_565
Ba2 O6 2.930253 1_565
Ba2 O8 3.267867 1_665
Ba3 O7 2.670551 1_555
Ba3 O1 2.684756 1_555
Ba3 O3 2.697541 1_655
Ba3 O10 2.811868 1_555
Ba3 O5 2.916375 1_655
Ba3 O11 2.930253 1_655
Ba3 O7 3.267867 1_665
Ba4 O8 2.709795 1_655
Ba4 O2 2.709863 1_556
Ba4 O10 2.757139 1_556
Ba4 O6 2.760068 1_555
Ba4 O0 2.832935 1_665
Ba4 O4 2.843859 1_565
Ba4 O0 3.114771 1_555
Ba5 O9 2.709795 1_545
Ba5 O3 2.709863 1_555
Ba5 O7 2.757139 1_555
Ba5 O6 2.760068 1_555
Ba5 O1 2.832935 1_445
Ba5 O4 2.843859 1_455
Ba5 O1 3.114771 1_555
Ba6 O10 2.709795 1_455
Ba6 O0 2.709863 1_554
Ba6 O8 2.757139 1_554
Ba6 O11 2.760068 1_555
Ba6 O2 2.832935 1_445
Ba6 O5 2.843859 1_545
Ba6 O2 3.114771 1_555
Ba7 O7 2.709795 1_565
Ba7 O1 2.709863 1_555
Ba7 O9 2.757139 1_555
Ba7 O11 2.760068 1_555
Ba7 O3 2.832935 1_665
Ba7 O5 2.843859 1_655
Ba7 O3 3.114771 1_555
O0 Zn2 1.991742 1_555
O1 Zn0 1.991742 1_555
O2 Zn3 1.991742 1_555
O3 Zn1 1.991742 1_555
O4 Zn2 1.975200 1_655
O4 Zn0 1.975200 1_545
O5 Zn1 1.975200 1_565
O5 Zn3 1.975200 1_455
O6 Zn2 2.001438 1_555
O6 Zn0 2.001438 1_555
O7 Zn1 1.986945 1_555
O8 Zn2 1.986945 1_555
O9 Zn0 1.986945 1_555
O10 Zn3 1.986945 1_555
O11 Zn3 2.001438 1_555
O11 Zn1 2.001438 1_555
