# generated using pymatgen
data_Sr15Pd5O24
_symmetry_space_group_name_H-M   'P 1'
_cell_length_a   9.78863710
_cell_length_b   9.78863710
_cell_length_c   9.78863768
_cell_angle_alpha   60.21951871
_cell_angle_beta   60.21951871
_cell_angle_gamma   60.21951837
_symmetry_Int_Tables_number   1
_chemical_formula_structural   Sr15Pd5O24
_chemical_formula_sum   'Sr15 Pd5 O24'
_cell_volume   666.50721180
_cell_formula_units_Z   1
loop_
 _symmetry_equiv_pos_site_id
 _symmetry_equiv_pos_as_xyz
  1  'x, y, z'
loop_
 _atom_site_type_symbol
 _atom_site_label
 _atom_site_symmetry_multiplicity
 _atom_site_fract_x
 _atom_site_fract_y
 _atom_site_fract_z
 _atom_site_occupancy
  Sr  Sr0  1  0.13354700  0.50000000  0.86645300  1
  Sr  Sr1  1  0.64098400  0.00000000  0.35901600  1
  Sr  Sr2  1  0.86645300  0.13354700  0.50000000  1
  Sr  Sr3  1  0.35901600  0.64098400  0.00000000  1
  Sr  Sr4  1  0.50000000  0.86645300  0.13354700  1
  Sr  Sr5  1  0.00000000  0.35901600  0.64098400  1
  Sr  Sr6  1  0.37775100  0.11455400  0.75081900  1
  Sr  Sr7  1  0.88544600  0.62224900  0.24918100  1
  Sr  Sr8  1  0.75081900  0.37775100  0.11455400  1
  Sr  Sr9  1  0.24918100  0.88544600  0.62224900  1
  Sr  Sr10  1  0.11455400  0.75081900  0.37775100  1
  Sr  Sr11  1  0.62224900  0.24918100  0.88544600  1
  Sr  Sr12  1  0.50000000  0.50000000  0.50000000  1
  Sr  Sr13  1  0.24988900  0.24988900  0.24988900  1
  Sr  Sr14  1  0.75011100  0.75011100  0.75011100  1
  Pd  Pd0  1  0.12466400  0.12466400  0.12466400  1
  Pd  Pd1  1  0.62498600  0.62498600  0.62498600  1
  Pd  Pd2  1  0.87533600  0.87533600  0.87533600  1
  Pd  Pd3  1  0.37501400  0.37501400  0.37501400  1
  Pd  Pd4  1  0.00000000  0.00000000  0.00000000  1
  O  O0  1  0.92123400  0.04519200  0.25041600  1
  O  O1  1  0.41359000  0.54894800  0.76178700  1
  O  O2  1  0.25041600  0.92123400  0.04519200  1
  O  O3  1  0.76178700  0.41359000  0.54894800  1
  O  O4  1  0.04519200  0.25041600  0.92123400  1
  O  O5  1  0.54894800  0.76178700  0.41359000  1
  O  O6  1  0.66639200  0.01099500  0.79804900  1
  O  O7  1  0.16654300  0.50918200  0.29824200  1
  O  O8  1  0.79804900  0.66639200  0.01099500  1
  O  O9  1  0.29824200  0.16654300  0.50918200  1
  O  O10  1  0.01099500  0.79804900  0.66639200  1
  O  O11  1  0.50918200  0.29824200  0.16654300  1
  O  O12  1  0.33360800  0.20195100  0.98900500  1
  O  O13  1  0.83345700  0.70175800  0.49081800  1
  O  O14  1  0.98900500  0.33360800  0.20195100  1
  O  O15  1  0.49081800  0.83345700  0.70175800  1
  O  O16  1  0.20195100  0.98900500  0.33360800  1
  O  O17  1  0.70175800  0.49081800  0.83345700  1
  O  O18  1  0.58641000  0.23821300  0.45105200  1
  O  O19  1  0.07876600  0.74958400  0.95480800  1
  O  O20  1  0.45105200  0.58641000  0.23821300  1
  O  O21  1  0.95480800  0.07876600  0.74958400  1
  O  O22  1  0.23821300  0.45105200  0.58641000  1
  O  O23  1  0.74958400  0.95480800  0.07876600  1
loop_
_geom_bond_atom_site_label_1
_geom_bond_atom_site_label_2
_geom_bond_distance
_geom_bond_site_symmetry_2
O0 Pd0 2.058724 1_655
O0 Pd4 2.379002 1_655
O0 Sr1 2.587036 1_555
O0 Sr10 2.606978 1_645
O0 Sr2 2.709448 1_555
O0 Sr8 2.767188 1_555
O1 Pd1 2.101524 1_555
O1 Sr12 2.485073 1_555
O1 Sr0 2.611678 1_555
O1 Sr3 2.627837 1_556
O1 Sr11 2.687250 1_555
O1 Sr9 2.784568 1_555
O2 Pd0 2.058724 1_565
O2 Pd4 2.379002 1_565
O2 Sr3 2.587036 1_555
O2 Sr6 2.606978 1_564
O2 Sr4 2.709448 1_555
O2 Sr10 2.767188 1_555
O3 Pd1 2.101524 1_555
O3 Sr12 2.485073 1_555
O3 Sr2 2.611678 1_555
O3 Sr5 2.627837 1_655
O3 Sr7 2.687250 1_555
O3 Sr11 2.784569 1_555
O4 Pd0 2.058724 1_556
O4 Pd4 2.379002 1_556
O4 Sr5 2.587036 1_555
O4 Sr8 2.606978 1_456
O4 Sr0 2.709448 1_555
O4 Sr6 2.767188 1_555
O5 Pd1 2.101524 1_555
O5 Sr12 2.485073 1_555
O5 Sr4 2.611678 1_555
O5 Sr1 2.627837 1_565
O5 Sr9 2.687250 1_555
O5 Sr7 2.784568 1_555
O6 Pd2 2.088074 1_545
O6 Sr14 2.478441 1_545
O6 Sr2 2.639593 1_555
O6 Sr11 2.639688 1_555
O6 Sr6 2.685359 1_555
O6 Sr4 2.792829 1_546
O7 Pd3 2.081952 1_555
O7 Sr13 2.466678 1_555
O7 Sr10 2.588211 1_555
O7 Sr7 2.605028 1_455
O7 Sr3 2.635595 1_555
O7 Sr5 2.850042 1_555
O8 Pd2 2.088074 1_554
O8 Sr14 2.478441 1_554
O8 Sr4 2.639593 1_555
O8 Sr7 2.639688 1_555
O8 Sr8 2.685359 1_555
O8 Sr0 2.792829 1_654
O9 Pd3 2.081952 1_555
O9 Sr13 2.466679 1_555
O9 Sr6 2.588211 1_555
O9 Sr9 2.605028 1_545
O9 Sr5 2.635595 1_555
O9 Sr1 2.850042 1_555
O10 Pd2 2.088074 1_455
O10 Sr14 2.478441 1_455
O10 Sr0 2.639593 1_555
O10 Sr9 2.639688 1_555
O10 Sr10 2.685359 1_555
O10 Sr2 2.792829 1_465
O11 Pd3 2.081952 1_555
O11 Sr13 2.466678 1_555
O11 Sr8 2.588211 1_555
O11 Sr11 2.605028 1_554
O11 Sr1 2.635595 1_555
O11 Sr3 2.850042 1_555
O12 Pd0 2.088074 1_556
O12 Sr13 2.478441 1_556
O12 Sr0 2.639593 1_555
O12 Sr6 2.639688 1_555
O12 Sr11 2.685359 1_555
O12 Sr4 2.792829 1_546
O13 Pd1 2.081952 1_555
O13 Sr14 2.466679 1_555
O13 Sr7 2.588211 1_555
O13 Sr10 2.605028 1_655
O13 Sr1 2.635595 1_565
O13 Sr5 2.850042 1_655
O14 Pd0 2.088074 1_655
O14 Sr13 2.478441 1_655
O14 Sr2 2.639593 1_555
O14 Sr8 2.639688 1_555
O14 Sr7 2.685359 1_555
O14 Sr0 2.792829 1_654
O15 Pd1 2.081952 1_555
O15 Sr14 2.466678 1_555
O15 Sr9 2.588211 1_555
O15 Sr6 2.605028 1_565
O15 Sr3 2.635595 1_556
O15 Sr1 2.850042 1_565
O16 Pd0 2.088074 1_565
O16 Sr13 2.478441 1_565
O16 Sr4 2.639593 1_555
O16 Sr10 2.639688 1_555
O16 Sr9 2.685359 1_555
O16 Sr2 2.792829 1_465
O17 Pd1 2.081952 1_555
O17 Sr14 2.466678 1_555
O17 Sr11 2.588211 1_555
O17 Sr8 2.605028 1_556
O17 Sr5 2.635595 1_655
O17 Sr3 2.850042 1_556
O18 Pd3 2.101524 1_555
O18 Sr12 2.485073 1_555
O18 Sr2 2.611678 1_555
O18 Sr1 2.627837 1_555
O18 Sr6 2.687250 1_555
O18 Sr8 2.784569 1_555
O19 Pd2 2.058724 1_455
O19 Pd4 2.379002 1_566
O19 Sr3 2.587036 1_556
O19 Sr7 2.606978 1_456
O19 Sr0 2.709448 1_555
O19 Sr9 2.767188 1_555
O20 Pd3 2.101524 1_555
O20 Sr12 2.485073 1_555
O20 Sr4 2.611678 1_555
O20 Sr3 2.627837 1_555
O20 Sr8 2.687250 1_555
O20 Sr10 2.784568 1_555
O21 Pd2 2.058724 1_545
O21 Pd4 2.379002 1_656
O21 Sr5 2.587036 1_655
O21 Sr9 2.606978 1_645
O21 Sr2 2.709448 1_555
O21 Sr11 2.767188 1_555
O22 Pd3 2.101524 1_555
O22 Sr12 2.485073 1_555
O22 Sr0 2.611678 1_555
O22 Sr5 2.627837 1_555
O22 Sr10 2.687250 1_555
O22 Sr6 2.784568 1_555
O23 Pd2 2.058724 1_554
O23 Pd4 2.379002 1_665
O23 Sr1 2.587036 1_565
O23 Sr11 2.606978 1_564
O23 Sr4 2.709448 1_555
O23 Sr7 2.767188 1_555
