# generated using pymatgen
data_Rb2Th(MoO4)3
_symmetry_space_group_name_H-M   'P 1'
_cell_length_a   11.21006227
_cell_length_b   11.21006227
_cell_length_c   5.47548374
_cell_angle_alpha   77.70648273
_cell_angle_beta   77.70648273
_cell_angle_gamma   69.22769899
_symmetry_Int_Tables_number   1
_chemical_formula_structural   Rb2Th(MoO4)3
_chemical_formula_sum   'Rb4 Th2 Mo6 O24'
_cell_volume   621.44905156
_cell_formula_units_Z   2
loop_
 _symmetry_equiv_pos_site_id
 _symmetry_equiv_pos_as_xyz
  1  'x, y, z'
loop_
 _atom_site_type_symbol
 _atom_site_label
 _atom_site_symmetry_multiplicity
 _atom_site_fract_x
 _atom_site_fract_y
 _atom_site_fract_z
 _atom_site_occupancy
  Rb  Rb0  1  0.54381400  0.78928000  0.07080700  1
  Rb  Rb1  1  0.21072000  0.45618600  0.42919300  1
  Rb  Rb2  1  0.45618600  0.21072000  0.92919300  1
  Rb  Rb3  1  0.78928000  0.54381400  0.57080700  1
  Th  Th0  1  0.12399800  0.87600200  0.25000000  1
  Th  Th1  1  0.87600200  0.12399800  0.75000000  1
  Mo  Mo0  1  0.34538100  0.65461900  0.75000000  1
  Mo  Mo1  1  0.65461900  0.34538100  0.25000000  1
  Mo  Mo2  1  0.25623100  0.04634300  0.60546700  1
  Mo  Mo3  1  0.95365700  0.74376900  0.89453300  1
  Mo  Mo4  1  0.74376900  0.95365700  0.39453300  1
  Mo  Mo5  1  0.04634300  0.25623100  0.10546700  1
  O  O0  1  0.11031200  0.03138200  0.85395600  1
  O  O1  1  0.96861800  0.88968800  0.64604400  1
  O  O2  1  0.88968800  0.96861800  0.14604400  1
  O  O3  1  0.03138200  0.11031200  0.35395600  1
  O  O4  1  0.28423700  0.92685000  0.39868500  1
  O  O5  1  0.07315000  0.71576300  0.10131500  1
  O  O6  1  0.71576300  0.07315000  0.60131500  1
  O  O7  1  0.92685000  0.28423700  0.89868500  1
  O  O8  1  0.22558300  0.69815900  0.53209300  1
  O  O9  1  0.30184100  0.77441700  0.96790700  1
  O  O10  1  0.77441700  0.30184100  0.46790700  1
  O  O11  1  0.69815900  0.22558300  0.03209300  1
  O  O12  1  0.39492600  0.00767900  0.74174200  1
  O  O13  1  0.99232100  0.60507400  0.75825800  1
  O  O14  1  0.60507400  0.99232100  0.25825800  1
  O  O15  1  0.00767900  0.39492600  0.24174200  1
  O  O16  1  0.24083100  0.19297500  0.39873500  1
  O  O17  1  0.80702500  0.75916900  0.10126500  1
  O  O18  1  0.75916900  0.80702500  0.60126500  1
  O  O19  1  0.19297500  0.24083100  0.89873500  1
  O  O20  1  0.49912100  0.64630400  0.58097100  1
  O  O21  1  0.35369600  0.50087900  0.91902900  1
  O  O22  1  0.50087900  0.35369600  0.41902900  1
  O  O23  1  0.64630400  0.49912100  0.08097100  1
loop_
_geom_bond_atom_site_label_1
_geom_bond_atom_site_label_2
_geom_bond_distance
_geom_bond_site_symmetry_2
Mo0 O20 1.754720 1_555
Mo0 O21 1.754720 1_555
Mo0 O9 1.853303 1_555
Mo0 O8 1.853303 1_555
Mo1 O22 1.754720 1_555
Mo1 O23 1.754720 1_555
Mo1 O10 1.853303 1_555
Mo1 O11 1.853303 1_555
Mo2 O12 1.743642 1_555
Mo2 O16 1.761434 1_555
Mo2 O4 1.836034 1_545
Mo2 O0 1.924768 1_555
Mo3 O13 1.743642 1_555
Mo3 O17 1.761434 1_556
Mo3 O5 1.836034 1_656
Mo3 O1 1.924768 1_555
Mo4 O14 1.743642 1_555
Mo4 O18 1.761434 1_555
Mo4 O6 1.836034 1_565
Mo4 O2 1.924768 1_555
Mo5 O15 1.743642 1_555
Mo5 O19 1.761434 1_554
Mo5 O7 1.836034 1_454
Mo5 O3 1.924768 1_555
O0 Th0 2.470557 1_546
O0 Th1 2.598422 1_455
O1 Th0 2.470557 1_655
O1 Th1 2.598422 1_565
O2 Th1 2.470557 1_564
O2 Th0 2.598422 1_655
O3 Th1 2.470557 1_455
O3 Th0 2.598422 1_545
O4 Th0 2.400205 1_555
O4 Rb0 3.136887 1_555
O5 Th0 2.400205 1_555
O5 Rb1 3.136887 1_555
O6 Th1 2.400205 1_555
O6 Rb2 3.136887 1_555
O7 Th1 2.400205 1_555
O7 Rb3 3.136887 1_555
O8 Th0 2.341906 1_555
O8 Rb1 2.952018 1_555
O9 Th0 2.341906 1_556
O9 Rb0 2.952018 1_556
O10 Th1 2.341906 1_555
O10 Rb3 2.952018 1_555
O11 Th1 2.341906 1_554
O11 Rb2 2.952018 1_554
O12 Rb0 2.920592 1_546
O12 Rb2 3.018175 1_555
O13 Rb1 2.920592 1_655
O13 Rb3 3.018175 1_555
O14 Rb2 2.920592 1_564
O14 Rb0 3.018175 1_555
O15 Rb3 2.920592 1_455
O15 Rb1 3.018175 1_555
O16 Rb1 2.885652 1_555
O16 Rb2 3.155524 1_554
O17 Rb0 2.885652 1_555
O17 Rb3 3.155524 1_555
O18 Rb3 2.885652 1_555
O18 Rb0 3.155524 1_556
O19 Rb2 2.885652 1_555
O19 Rb1 3.155524 1_555
O20 Rb0 2.947879 1_555
O20 Rb3 3.033572 1_555
O21 Rb1 2.947879 1_556
O21 Rb2 3.033572 1_555
O22 Rb2 2.947879 1_555
O22 Rb1 3.033572 1_555
O23 Rb3 2.947879 1_554
O23 Rb0 3.033572 1_555
