# generated using pymatgen
data_Gd2NbInO7
_symmetry_space_group_name_H-M   'P 1'
_cell_length_a   7.50913374
_cell_length_b   7.50913374
_cell_length_c   7.50913374
_cell_angle_alpha   121.02323689
_cell_angle_beta   119.03742757
_cell_angle_gamma   89.95608199
_symmetry_Int_Tables_number   1
_chemical_formula_structural   Gd2NbInO7
_chemical_formula_sum   'Gd4 Nb2 In2 O14'
_cell_volume   299.15206051
_cell_formula_units_Z   2
loop_
 _symmetry_equiv_pos_site_id
 _symmetry_equiv_pos_as_xyz
  1  'x, y, z'
loop_
 _atom_site_type_symbol
 _atom_site_label
 _atom_site_symmetry_multiplicity
 _atom_site_fract_x
 _atom_site_fract_y
 _atom_site_fract_z
 _atom_site_occupancy
  Gd  Gd0  1  0.50000000  0.50000000  0.50000000  1
  Gd  Gd1  1  0.50000000  0.00000000  0.00000000  1
  Gd  Gd2  1  0.50000000  0.50000000  0.00000000  1
  Gd  Gd3  1  0.00000000  0.50000000  0.50000000  1
  Nb  Nb0  1  0.00000000  0.00000000  0.00000000  1
  Nb  Nb1  1  0.50000000  0.00000000  0.50000000  1
  In  In0  1  0.00000000  0.00000000  0.50000000  1
  In  In1  1  0.00000000  0.50000000  0.00000000  1
  O  O0  1  0.37924400  0.62924400  0.75000000  1
  O  O1  1  0.62075600  0.37075600  0.25000000  1
  O  O2  1  0.31474100  0.06474100  0.25000000  1
  O  O3  1  0.89514800  0.64514800  0.25000000  1
  O  O4  1  0.34947400  0.67307500  0.27178200  1
  O  O5  1  0.90129400  0.07769300  0.22821800  1
  O  O6  1  0.34947400  0.07769300  0.67639900  1
  O  O7  1  0.90129400  0.67307500  0.82360100  1
  O  O8  1  0.68525900  0.93525900  0.75000000  1
  O  O9  1  0.10485200  0.35485200  0.75000000  1
  O  O10  1  0.65052600  0.32692500  0.72821800  1
  O  O11  1  0.09870600  0.92230700  0.77178200  1
  O  O12  1  0.65052600  0.92230700  0.32360100  1
  O  O13  1  0.09870600  0.32692500  0.17639900  1
loop_
_geom_bond_atom_site_label_1
_geom_bond_atom_site_label_2
_geom_bond_distance
_geom_bond_site_symmetry_2
Gd0 O0 2.249774 1_555
Gd0 O1 2.249774 1_555
Gd0 O10 2.513289 1_555
Gd0 O4 2.513289 1_555
Gd0 O13 2.513295 1_555
Gd0 O7 2.513295 1_555
Gd0 O8 2.699857 1_555
Gd0 O2 2.699857 1_555
Gd1 O1 2.249774 1_555
Gd1 O0 2.249774 1_544
Gd1 O6 2.513295 1_554
Gd1 O12 2.513295 1_545
Gd1 O11 2.513295 1_544
Gd1 O5 2.513295 1_555
Gd1 O8 2.699857 1_544
Gd1 O2 2.699857 1_555
Gd2 O1 2.347863 1_555
Gd2 O0 2.347863 1_554
Gd2 O9 2.450505 1_554
Gd2 O3 2.450505 1_555
Gd2 O6 2.575819 1_554
Gd2 O12 2.575819 1_555
Gd2 O4 2.575825 1_555
Gd2 O10 2.575825 1_554
Gd3 O0 2.347863 1_555
Gd3 O1 2.347863 1_455
Gd3 O9 2.450505 1_555
Gd3 O3 2.450505 1_455
Gd3 O7 2.575819 1_455
Gd3 O13 2.575819 1_555
Gd3 O5 2.575819 1_455
Gd3 O11 2.575819 1_555
Nb0 O5 2.007090 1_455
Nb0 O11 2.007090 1_544
Nb0 O13 2.007097 1_555
Nb0 O7 2.007097 1_444
Nb0 O8 2.024914 1_444
Nb0 O2 2.024914 1_555
Nb1 O6 2.007097 1_555
Nb1 O12 2.007097 1_545
Nb1 O10 2.007097 1_555
Nb1 O4 2.007097 1_545
Nb1 O8 2.024914 1_545
Nb1 O2 2.024914 1_555
In0 O9 2.157900 1_555
In0 O3 2.157900 1_445
In0 O12 2.193842 1_445
In0 O6 2.193842 1_555
In0 O11 2.193849 1_545
In0 O5 2.193849 1_455
In1 O3 2.157900 1_455
In1 O9 2.157900 1_554
In1 O7 2.193842 1_454
In1 O13 2.193842 1_555
In1 O10 2.193842 1_454
In1 O4 2.193842 1_555
