# generated using pymatgen
data_Li2Mn3FeO8
_symmetry_space_group_name_H-M   'P 1'
_cell_length_a   5.85340213
_cell_length_b   5.85433771
_cell_length_c   9.48662769
_cell_angle_alpha   89.83140145
_cell_angle_beta   90.15624046
_cell_angle_gamma   61.23887538
_symmetry_Int_Tables_number   1
_chemical_formula_structural   Li2Mn3FeO8
_chemical_formula_sum   'Li4 Mn6 Fe2 O16'
_cell_volume   284.97663121
_cell_formula_units_Z   2
loop_
 _symmetry_equiv_pos_site_id
 _symmetry_equiv_pos_as_xyz
  1  'x, y, z'
loop_
 _atom_site_type_symbol
 _atom_site_label
 _atom_site_symmetry_multiplicity
 _atom_site_fract_x
 _atom_site_fract_y
 _atom_site_fract_z
 _atom_site_occupancy
  Li  Li0  1  0.65943400  0.67529700  0.88929600  1
  Li  Li1  1  0.32481500  0.34044200  0.38926600  1
  Li  Li2  1  0.00791600  0.00089100  0.99854200  1
  Li  Li3  1  0.99958000  0.99161300  0.49857100  1
  Mn  Mn0  1  0.17005400  0.16739300  0.71313500  1
  Mn  Mn1  1  0.16945000  0.65844700  0.71481200  1
  Mn  Mn2  1  0.66045000  0.17050400  0.71641700  1
  Mn  Mn3  1  0.34138600  0.83071000  0.21491100  1
  Mn  Mn4  1  0.82948400  0.33969700  0.21653400  1
  Mn  Mn5  1  0.83231500  0.83025300  0.21315600  1
  Fe  Fe0  1  0.33754300  0.32834000  0.99494400  1
  Fe  Fe1  1  0.67167200  0.66254800  0.49493100  1
  O  O0  1  0.64981300  0.69865000  0.10142200  1
  O  O1  1  0.30165300  0.34997800  0.60141700  1
  O  O2  1  0.01793800  0.97155300  0.31316100  1
  O  O3  1  0.02839400  0.98193400  0.81309600  1
  O  O4  1  0.32211100  0.83923700  0.60229000  1
  O  O5  1  0.84198400  0.31586300  0.60185000  1
  O  O6  1  0.16936600  0.15926900  0.10590900  1
  O  O7  1  0.84096800  0.83029000  0.60581500  1
  O  O8  1  0.16052500  0.67818500  0.10223300  1
  O  O9  1  0.68384800  0.15822900  0.10196900  1
  O  O10  1  0.51195100  0.52701300  0.33538400  1
  O  O11  1  0.52478600  0.96280200  0.33383700  1
  O  O12  1  0.95786900  0.52587000  0.33287000  1
  O  O13  1  0.03720300  0.47497500  0.83377600  1
  O  O14  1  0.47430600  0.04218100  0.83283600  1
  O  O15  1  0.47288300  0.48814000  0.83546100  1
loop_
_geom_bond_atom_site_label_1
_geom_bond_atom_site_label_2
_geom_bond_distance
_geom_bond_site_symmetry_2
Li0 O15 1.950723 1_555
Li0 O14 1.955692 1_565
Li0 O13 2.014147 1_655
Li0 O0 2.016503 1_556
Li1 O10 1.950710 1_555
Li1 O12 1.955657 1_455
Li1 O11 2.013526 1_545
Li1 O1 2.016659 1_555
Li2 O3 1.763850 1_545
Li2 O6 1.906240 1_556
Li2 O8 1.922242 1_546
Li2 O9 1.934795 1_456
Li3 O2 1.763300 1_655
Li3 O7 1.905857 1_555
Li3 O4 1.921494 1_655
Li3 O5 1.935223 1_565
Mn0 O3 1.905320 1_545
Mn0 O1 1.910320 1_555
Mn0 O14 1.930354 1_555
Mn0 O13 1.956142 1_555
Mn0 O5 1.983682 1_455
Mn0 O4 1.990030 1_545
Mn1 O3 1.909821 1_555
Mn1 O1 1.920525 1_555
Mn1 O15 1.933065 1_555
Mn1 O13 1.955595 1_555
Mn1 O7 1.974789 1_455
Mn1 O4 1.991700 1_555
Mn2 O14 1.939245 1_555
Mn2 O5 1.976246 1_555
Mn2 O15 1.998284 1_555
Mn2 O7 2.043889 1_545
Mn2 O3 2.096108 1_645
Mn2 O1 2.135927 1_555
Mn3 O2 1.909181 1_555
Mn3 O0 1.920537 1_555
Mn3 O10 1.933307 1_555
Mn3 O11 1.954661 1_555
Mn3 O6 1.975296 1_565
Mn3 O8 1.992442 1_555
Mn4 O12 1.939440 1_555
Mn4 O9 1.977323 1_555
Mn4 O10 1.996409 1_555
Mn4 O6 2.042237 1_655
Mn4 O2 2.096941 1_645
Mn4 O0 2.137298 1_555
Mn5 O2 1.904941 1_655
Mn5 O0 1.910229 1_555
Mn5 O12 1.930946 1_555
Mn5 O11 1.955872 1_555
Mn5 O9 1.982891 1_565
Mn5 O8 1.990310 1_655
Fe0 O6 1.998517 1_556
Fe0 O9 2.042496 1_556
Fe0 O8 2.068850 1_556
Fe0 O15 2.122079 1_555
Fe0 O14 2.131595 1_555
Fe0 O13 2.165761 1_555
Fe1 O7 1.997435 1_555
Fe1 O5 2.043827 1_555
Fe1 O4 2.067534 1_555
Fe1 O10 2.123144 1_555
Fe1 O12 2.131109 1_555
Fe1 O11 2.164998 1_555
