# generated using pymatgen
data_Mg6SiW
_symmetry_space_group_name_H-M   'P 1'
_cell_length_a   5.05425100
_cell_length_b   5.61840300
_cell_length_c   10.69576500
_cell_angle_alpha   90.00000000
_cell_angle_beta   90.00000000
_cell_angle_gamma   90.00000000
_symmetry_Int_Tables_number   1
_chemical_formula_structural   Mg6SiW
_chemical_formula_sum   'Mg12 Si2 W2'
_cell_volume   303.72570257
_cell_formula_units_Z   2
loop_
 _symmetry_equiv_pos_site_id
 _symmetry_equiv_pos_as_xyz
  1  'x, y, z'
loop_
 _atom_site_type_symbol
 _atom_site_label
 _atom_site_symmetry_multiplicity
 _atom_site_fract_x
 _atom_site_fract_y
 _atom_site_fract_z
 _atom_site_occupancy
  Mg  Mg0  1  0.50000000  0.25072500  0.42311600  1
  Mg  Mg1  1  0.50000000  0.74927500  0.42311600  1
  Mg  Mg2  1  0.00000000  0.74217100  0.08132500  1
  Mg  Mg3  1  0.00000000  0.25782900  0.08132500  1
  Mg  Mg4  1  0.00000000  0.00000000  0.32376400  1
  Mg  Mg5  1  0.00000000  0.50000000  0.32171000  1
  Mg  Mg6  1  0.50000000  0.75072500  0.92311600  1
  Mg  Mg7  1  0.50000000  0.24927500  0.92311600  1
  Mg  Mg8  1  0.00000000  0.24217100  0.58132500  1
  Mg  Mg9  1  0.00000000  0.75782900  0.58132500  1
  Mg  Mg10  1  0.00000000  0.50000000  0.82376400  1
  Mg  Mg11  1  0.00000000  0.00000000  0.82171000  1
  Si  Si0  1  0.50000000  0.00000000  0.17034700  1
  Si  Si1  1  0.50000000  0.50000000  0.67034700  1
  W  W0  1  0.50000000  0.50000000  0.17529300  1
  W  W1  1  0.50000000  0.00000000  0.67529300  1
loop_
_geom_bond_atom_site_label_1
_geom_bond_atom_site_label_2
_geom_bond_distance
_geom_bond_site_symmetry_2
Mg0 Mg1 2.801055 1_555
Mg0 Mg1 2.817348 1_545
Mg0 Si1 2.992312 1_555
Mg0 W0 2.997909 1_555
Mg0 Mg8 3.041726 1_555
Mg0 Mg8 3.041726 1_655
Mg0 W1 3.042925 1_555
Mg0 Si0 3.048539 1_555
Mg0 Mg4 3.082198 1_655
Mg0 Mg4 3.082198 1_555
Mg0 Mg5 3.086135 1_655
Mg0 Mg5 3.086135 1_555
Mg1 Si1 2.992312 1_555
Mg1 W0 2.997909 1_555
Mg1 Mg9 3.041726 1_555
Mg1 Mg9 3.041726 1_655
Mg1 W1 3.042925 1_565
Mg1 Si0 3.048539 1_565
Mg1 Mg4 3.082198 1_565
Mg1 Mg4 3.082198 1_665
Mg1 Mg5 3.086135 1_655
Mg1 Mg5 3.086135 1_555
Mg2 Mg3 2.721229 1_555
Mg2 Mg3 2.897174 1_565
Mg2 Mg5 2.908923 1_555
Mg2 Mg4 2.970256 1_565
Mg2 W0 3.041016 1_455
Mg2 W0 3.041016 1_555
Mg2 Mg6 3.041726 1_454
Mg2 Mg6 3.041726 1_554
Mg2 Si0 3.064535 1_465
Mg2 Si0 3.064535 1_565
Mg3 Mg5 2.908923 1_555
Mg3 Mg4 2.970256 1_555
Mg3 W0 3.041016 1_455
Mg3 W0 3.041016 1_555
Mg3 Mg7 3.041726 1_554
Mg3 Mg7 3.041726 1_454
Mg3 Si0 3.064535 1_455
Mg3 Si0 3.064535 1_555
Mg4 Mg5 2.809287 1_545
Mg4 Mg5 2.809287 1_555
Mg4 Si0 3.013131 1_455
Mg4 Si0 3.013131 1_555
Mg4 Mg8 3.072501 1_555
Mg4 Mg9 3.072501 1_545
Mg5 W0 2.973020 1_555
Mg5 W0 2.973020 1_455
Mg5 Mg9 3.131919 1_555
Mg5 Mg8 3.131919 1_555
Mg6 Mg7 2.801055 1_565
Mg6 Mg7 2.817348 1_555
Mg6 Si0 2.992312 1_566
Mg6 W1 2.997909 1_565
Mg6 W0 3.042925 1_556
Mg6 Si1 3.048539 1_555
Mg7 Si0 2.992312 1_556
Mg7 W1 2.997909 1_555
Mg7 W0 3.042925 1_556
Mg7 Si1 3.048539 1_555
Mg8 Mg9 2.721229 1_545
Mg8 Mg9 2.897174 1_555
Mg8 W1 3.041016 1_555
Mg8 W1 3.041016 1_455
Mg8 Si1 3.064535 1_455
Mg8 Si1 3.064535 1_555
Mg9 W1 3.041016 1_565
Mg9 W1 3.041016 1_465
Mg9 Si1 3.064535 1_455
Mg9 Si1 3.064535 1_555
Mg10 Mg11 2.809287 1_565
Mg10 Mg11 2.809287 1_555
Mg10 Mg8 2.970256 1_555
Mg10 Mg9 2.970256 1_555
Mg10 Si1 3.013131 1_455
Mg10 Si1 3.013131 1_555
Mg10 Mg3 3.072501 1_556
Mg10 Mg2 3.072501 1_556
Mg10 Mg6 3.082198 1_455
Mg10 Mg7 3.082198 1_455
Mg10 Mg6 3.082198 1_555
Mg10 Mg7 3.082198 1_555
Mg11 Mg8 2.908923 1_555
Mg11 Mg9 2.908923 1_545
Mg11 W1 2.973020 1_455
Mg11 W1 2.973020 1_555
Mg11 Mg7 3.086135 1_455
Mg11 Mg7 3.086135 1_555
Mg11 Mg6 3.086135 1_445
Mg11 Mg6 3.086135 1_545
Mg11 Mg3 3.131919 1_556
Mg11 Mg2 3.131919 1_546
Si0 W0 2.809700 1_555
Si0 W0 2.809700 1_545
Si1 W1 2.809700 1_565
Si1 W1 2.809700 1_555
