# generated using pymatgen
data_Cs2BiPWO8
_symmetry_space_group_name_H-M   'P 1'
_cell_length_a   12.93340536
_cell_length_b   12.93340536
_cell_length_c   12.93340536
_cell_angle_alpha   147.82407432
_cell_angle_beta   121.68891123
_cell_angle_gamma   68.17802152
_symmetry_Int_Tables_number   1
_chemical_formula_structural   Cs2BiPWO8
_chemical_formula_sum   'Cs8 Bi4 P4 W4 O32'
_cell_volume   967.53132973
_cell_formula_units_Z   4
loop_
 _symmetry_equiv_pos_site_id
 _symmetry_equiv_pos_as_xyz
  1  'x, y, z'
loop_
 _atom_site_type_symbol
 _atom_site_label
 _atom_site_symmetry_multiplicity
 _atom_site_fract_x
 _atom_site_fract_y
 _atom_site_fract_z
 _atom_site_occupancy
  Cs  Cs0  1  0.24418021  0.68995601  0.61585857  1
  Cs  Cs1  1  0.57409745  0.62832165  0.88414143  1
  Cs  Cs2  1  0.92590255  0.81004399  0.05422420  1
  Cs  Cs3  1  0.25581979  0.87167835  0.44577580  1
  Cs  Cs4  1  0.75581979  0.31004399  0.38414143  1
  Cs  Cs5  1  0.42590255  0.37167835  0.11585857  1
  Cs  Cs6  1  0.07409745  0.18995601  0.94577580  1
  Cs  Cs7  1  0.74418021  0.12832165  0.55422420  1
  Bi  Bi0  1  0.83405810  0.75000000  0.58405810  1
  Bi  Bi1  1  0.66594190  0.25000000  0.91594190  1
  Bi  Bi2  1  0.16594190  0.25000000  0.41594190  1
  Bi  Bi3  1  0.33405810  0.75000000  0.08405810  1
  P  P0  1  0.07376665  0.75000000  0.82376665  1
  P  P1  1  0.42623335  0.25000000  0.67623335  1
  P  P2  1  0.92623335  0.25000000  0.17623335  1
  P  P3  1  0.57376665  0.75000000  0.32376665  1
  W  W0  1  0.90636398  0.65636398  0.25000000  1
  W  W1  1  0.59363602  0.84363602  0.75000000  1
  W  W2  1  0.09363602  0.34363602  0.75000000  1
  W  W3  1  0.40636398  0.15636398  0.25000000  1
  O  O0  1  0.15799925  0.59014222  0.73174766  1
  O  O1  1  0.35839356  0.42625159  0.76825234  1
  O  O2  1  0.14160644  0.90985778  0.06785702  1
  O  O3  1  0.34200075  0.07374841  0.43214298  1
  O  O4  1  0.84200075  0.40985778  0.26825234  1
  O  O5  1  0.64160644  0.57374841  0.23174766  1
  O  O6  1  0.85839356  0.09014222  0.93214298  1
  O  O7  1  0.65799925  0.92625159  0.56785702  1
  O  O8  1  0.94290037  0.67093474  0.72689602  1
  O  O9  1  0.44403872  0.21600335  0.77310398  1
  O  O10  1  0.05596128  0.82906526  0.77196563  1
  O  O11  1  0.55709963  0.28399665  0.72803437  1
  O  O12  1  0.05709963  0.32906526  0.27310398  1
  O  O13  1  0.55596128  0.78399665  0.22689602  1
  O  O14  1  0.94403872  0.17093474  0.22803437  1
  O  O15  1  0.44290037  0.71600335  0.27196563  1
  O  O16  1  0.89323484  0.80933604  0.48405085  1
  O  O17  1  0.82528519  0.40918400  0.01594915  1
  O  O18  1  0.67471481  0.69066396  0.58389881  1
  O  O19  1  0.60676516  0.09081600  0.91610119  1
  O  O20  1  0.10676516  0.19066396  0.51594915  1
  O  O21  1  0.17471481  0.59081600  0.98405085  1
  O  O22  1  0.32528519  0.30933604  0.41610119  1
  O  O23  1  0.39323484  0.90918400  0.08389881  1
  O  O24  1  0.84502015  0.76638747  0.20247757  1
  O  O25  1  0.06390990  0.64254258  0.29752243  1
  O  O26  1  0.43609010  0.73361253  0.57863269  1
  O  O27  1  0.65497985  0.85745742  0.92136731  1
  O  O28  1  0.15497985  0.23361253  0.79752243  1
  O  O29  1  0.93609010  0.35745742  0.70247757  1
  O  O30  1  0.56390990  0.26638747  0.42136731  1
  O  O31  1  0.34502015  0.14254258  0.07863269  1
loop_
_geom_bond_atom_site_label_1
_geom_bond_atom_site_label_2
_geom_bond_distance
_geom_bond_site_symmetry_2
Cs0 O10 2.999587 1_555
Cs0 O12 3.064691 1_555
Cs0 O25 3.076846 1_555
Cs0 O26 3.077131 1_555
Cs0 O22 3.080068 1_555
Cs0 O31 3.155035 1_566
Cs0 O23 3.338758 1_556
Cs0 O0 3.354964 1_555
Cs1 O11 2.999575 1_555
Cs1 O13 3.064683 1_556
Cs1 O24 3.076846 1_556
Cs1 O27 3.077131 1_555
Cs1 O23 3.080068 1_556
Cs1 O30 3.155035 1_555
Cs1 O22 3.338758 1_555
Cs1 O1 3.354976 1_555
Cs2 O8 2.999587 1_554
Cs2 O14 3.064691 1_565
Cs2 O27 3.076846 1_554
Cs2 O24 3.077131 1_555
Cs2 O20 3.080068 1_665
Cs2 O29 3.155035 1_554
Cs2 O21 3.338758 1_654
Cs2 O2 3.354976 1_655
Cs3 O9 2.999579 1_565
Cs3 O15 3.064687 1_555
Cs3 O26 3.076846 1_555
Cs3 O25 3.077131 1_555
Cs3 O21 3.080068 1_554
Cs3 O28 3.155035 1_565
Cs3 O20 3.338758 1_565
Cs3 O3 3.354964 1_565
Cs4 O14 2.999587 1_555
Cs4 O8 3.064691 1_555
Cs4 O29 3.076846 1_555
Cs4 O30 3.077131 1_555
Cs4 O18 3.080068 1_555
Cs4 O27 3.155035 1_544
Cs4 O19 3.338758 1_554
Cs4 O4 3.354964 1_555
Cs5 O15 2.999575 1_555
Cs5 O9 3.064683 1_554
Cs5 O28 3.076846 1_554
Cs5 O31 3.077131 1_555
Cs5 O19 3.080068 1_554
Cs5 O26 3.155035 1_555
Cs5 O18 3.338758 1_555
Cs5 O5 3.354976 1_555
Cs6 O12 2.999587 1_556
Cs6 O10 3.064691 1_545
Cs6 O31 3.076846 1_556
Cs6 O28 3.077131 1_555
Cs6 O16 3.080068 1_445
Cs6 O25 3.155035 1_556
Cs6 O17 3.338758 1_456
Cs6 O6 3.354976 1_455
Cs7 O13 2.999579 1_545
Cs7 O11 3.064687 1_555
Cs7 O30 3.076846 1_555
Cs7 O29 3.077131 1_555
Cs7 O17 3.080068 1_556
Cs7 O24 3.155035 1_545
Cs7 O16 3.338758 1_545
Cs7 O7 3.354964 1_545
Bi0 O4 2.394516 1_555
Bi0 O6 2.394518 1_565
Bi0 O10 2.415714 1_655
Bi0 O8 2.415714 1_555
Bi0 O16 2.450447 1_555
Bi0 O18 2.450447 1_555
Bi0 O5 2.621723 1_555
Bi0 O7 2.621728 1_555
Bi1 O5 2.394511 1_556
Bi1 O7 2.394516 1_545
Bi1 O9 2.415714 1_555
Bi1 O11 2.415725 1_555
Bi1 O19 2.450447 1_555
Bi1 O17 2.450447 1_556
Bi1 O6 2.621720 1_555
Bi1 O4 2.621728 1_556
Bi2 O0 2.394516 1_555
Bi2 O2 2.394518 1_545
Bi2 O14 2.415714 1_455
Bi2 O12 2.415714 1_555
Bi2 O20 2.450447 1_555
Bi2 O22 2.450447 1_555
Bi2 O1 2.621723 1_555
Bi2 O3 2.621728 1_555
Bi3 O1 2.394511 1_554
Bi3 O3 2.394516 1_565
Bi3 O13 2.415714 1_555
Bi3 O15 2.415725 1_555
Bi3 O23 2.450447 1_555
Bi3 O21 2.450447 1_554
Bi3 O2 2.621720 1_555
Bi3 O0 2.621728 1_554
O0 P0 1.549217 1_555
O1 P1 1.549222 1_555
O2 P0 1.549216 1_554
O3 P1 1.549216 1_555
O4 P2 1.549217 1_555
O5 P3 1.549222 1_555
O6 P2 1.549216 1_556
O7 P3 1.549216 1_555
O8 P0 1.539528 1_655
O9 P1 1.539540 1_555
O10 P0 1.539528 1_555
O11 P1 1.539532 1_555
O12 P2 1.539528 1_455
O13 P3 1.539540 1_555
O14 P2 1.539528 1_555
O15 P3 1.539532 1_555
O16 W0 1.805077 1_555
O17 W0 1.805077 1_555
O18 W1 1.805077 1_555
O19 W1 1.805077 1_545
O20 W2 1.805077 1_555
O21 W2 1.805077 1_555
O22 W3 1.805077 1_555
O23 W3 1.805077 1_565
O24 W0 1.777920 1_555
O25 W0 1.777920 1_455
O26 W1 1.777920 1_555
O27 W1 1.777920 1_555
O28 W2 1.777920 1_555
O29 W2 1.777920 1_655
O30 W3 1.777920 1_555
O31 W3 1.777920 1_555
