# generated using pymatgen
data_NbIr3
_symmetry_space_group_name_H-M   'P 1'
_cell_length_a   5.56531972
_cell_length_b   5.56532164
_cell_length_c   4.46542170
_cell_angle_alpha   89.99995943
_cell_angle_beta   90.00007064
_cell_angle_gamma   120.00017456
_symmetry_Int_Tables_number   1
_chemical_formula_structural   NbIr3
_chemical_formula_sum   'Nb2 Ir6'
_cell_volume   119.77680779
_cell_formula_units_Z   2
loop_
 _symmetry_equiv_pos_site_id
 _symmetry_equiv_pos_as_xyz
  1  'x, y, z'
loop_
 _atom_site_type_symbol
 _atom_site_label
 _atom_site_symmetry_multiplicity
 _atom_site_fract_x
 _atom_site_fract_y
 _atom_site_fract_z
 _atom_site_occupancy
  Nb  Nb0  1  0.33333434  0.66666766  0.75000200  1
  Nb  Nb1  1  0.66666666  0.33333434  0.25000100  1
  Ir  Ir0  1  0.16364807  0.32729717  0.25000300  1
  Ir  Ir1  1  0.67270383  0.83635293  0.25000200  1
  Ir  Ir2  1  0.16364874  0.83635326  0.25000000  1
  Ir  Ir3  1  0.83635293  0.67270483  0.75000100  1
  Ir  Ir4  1  0.32729617  0.16364907  0.75000100  1
  Ir  Ir5  1  0.83635226  0.16364874  0.75000300  1
loop_
_geom_bond_atom_site_label_1
_geom_bond_atom_site_label_2
_geom_bond_distance
_geom_bond_site_symmetry_2
Ir0 Ir1 2.732255 1_445
Ir0 Ir2 2.732263 1_545
Ir0 Ir4 2.733747 1_555
Ir0 Ir5 2.733751 1_454
Ir0 Ir5 2.733754 1_455
Ir0 Ir4 2.733765 1_554
Ir0 Nb0 2.767739 1_555
Ir0 Nb0 2.767745 1_554
Ir0 Nb1 2.782812 1_555
Ir0 Nb1 2.782812 1_455
Ir0 Ir1 2.833051 1_555
Ir0 Ir2 2.833059 1_555
Ir1 Ir2 2.732264 1_655
Ir1 Ir5 2.733749 1_564
Ir1 Ir3 2.733754 1_555
Ir1 Ir5 2.733756 1_565
Ir1 Ir3 2.733764 1_554
Ir1 Nb0 2.767738 1_554
Ir1 Nb0 2.767740 1_555
Ir1 Nb1 2.782813 1_555
Ir1 Nb1 2.782813 1_565
Ir1 Ir2 2.833055 1_555
Ir2 Ir3 2.733747 1_454
Ir2 Ir4 2.733749 1_564
Ir2 Ir4 2.733756 1_565
Ir2 Ir3 2.733757 1_455
Ir2 Nb0 2.767741 1_554
Ir2 Nb0 2.767752 1_555
Ir2 Nb1 2.782802 1_565
Ir2 Nb1 2.782808 1_455
Ir3 Ir4 2.732252 1_665
Ir3 Ir5 2.732263 1_565
Ir3 Nb1 2.767742 1_556
Ir3 Nb1 2.767742 1_555
Ir3 Nb0 2.782812 1_555
Ir3 Nb0 2.782812 1_655
Ir3 Ir4 2.833054 1_555
Ir3 Ir5 2.833059 1_555
Ir4 Ir5 2.732259 1_455
Ir4 Nb1 2.767740 1_556
Ir4 Nb1 2.767743 1_555
Ir4 Nb0 2.782810 1_555
Ir4 Nb0 2.782816 1_545
Ir4 Ir5 2.833061 1_555
Ir5 Nb1 2.767741 1_556
Ir5 Nb1 2.767752 1_555
Ir5 Nb0 2.782802 1_545
Ir5 Nb0 2.782808 1_655
