# generated using pymatgen
data_CsSi3O7
_symmetry_space_group_name_H-M   'P 1'
_cell_length_a   5.02040500
_cell_length_b   10.53242100
_cell_length_c   13.75237700
_cell_angle_alpha   90.00000000
_cell_angle_beta   90.00000000
_cell_angle_gamma   90.00000000
_symmetry_Int_Tables_number   1
_chemical_formula_structural   CsSi3O7
_chemical_formula_sum   'Cs4 Si12 O28'
_cell_volume   727.18470062
_cell_formula_units_Z   4
loop_
 _symmetry_equiv_pos_site_id
 _symmetry_equiv_pos_as_xyz
  1  'x, y, z'
loop_
 _atom_site_type_symbol
 _atom_site_label
 _atom_site_symmetry_multiplicity
 _atom_site_fract_x
 _atom_site_fract_y
 _atom_site_fract_z
 _atom_site_occupancy
  Cs  Cs0  1  0.04452700  0.90772900  0.74799600  1
  Cs  Cs1  1  0.45547300  0.09227100  0.24799600  1
  Cs  Cs2  1  0.54452700  0.59227100  0.25200400  1
  Cs  Cs3  1  0.95547300  0.40772900  0.75200400  1
  Si  Si0  1  0.01762300  0.08244600  0.49008300  1
  Si  Si1  1  0.48237700  0.91755400  0.99008300  1
  Si  Si2  1  0.51762300  0.41755400  0.50991700  1
  Si  Si3  1  0.98237700  0.58244600  0.00991700  1
  Si  Si4  1  0.52213900  0.15115100  0.60961900  1
  Si  Si5  1  0.97786100  0.84884900  0.10961900  1
  Si  Si6  1  0.02213900  0.34884900  0.39038100  1
  Si  Si7  1  0.47786100  0.65115100  0.89038100  1
  Si  Si8  1  0.09954800  0.79432400  0.44003800  1
  Si  Si9  1  0.40045200  0.20567600  0.94003800  1
  Si  Si10  1  0.59954800  0.70567600  0.55996200  1
  Si  Si11  1  0.90045200  0.29432400  0.05996200  1
  O  O0  1  0.60876600  0.11209700  0.71843000  1
  O  O1  1  0.89123400  0.88790300  0.21843000  1
  O  O2  1  0.10876600  0.38790300  0.28157000  1
  O  O3  1  0.39123400  0.61209700  0.78157000  1
  O  O4  1  0.21328400  0.11121200  0.58261200  1
  O  O5  1  0.28671600  0.88878800  0.08261200  1
  O  O6  1  0.71328400  0.38878800  0.41738800  1
  O  O7  1  0.78671600  0.61121200  0.91738800  1
  O  O8  1  0.40320900  0.75179300  0.47089600  1
  O  O9  1  0.09679100  0.24820700  0.97089600  1
  O  O10  1  0.90320900  0.74820700  0.52910400  1
  O  O11  1  0.59679100  0.25179300  0.02910400  1
  O  O12  1  0.09443600  0.95044800  0.43648100  1
  O  O13  1  0.40556400  0.04955200  0.93648100  1
  O  O14  1  0.59443600  0.54955200  0.56351900  1
  O  O15  1  0.90556400  0.45044800  0.06351900  1
  O  O16  1  0.55108200  0.30536300  0.59076500  1
  O  O17  1  0.94891800  0.69463700  0.09076500  1
  O  O18  1  0.05108200  0.19463700  0.40923500  1
  O  O19  1  0.44891800  0.80536300  0.90923500  1
  O  O20  1  0.71042000  0.07713700  0.52863500  1
  O  O21  1  0.78958000  0.92286300  0.02863500  1
  O  O22  1  0.21042000  0.42286300  0.47136500  1
  O  O23  1  0.28958000  0.57713700  0.97136500  1
  O  O24  1  0.02965200  0.73114100  0.33538000  1
  O  O25  1  0.47034800  0.26885900  0.83538000  1
  O  O26  1  0.52965200  0.76885900  0.66462000  1
  O  O27  1  0.97034800  0.23114100  0.16462000  1
loop_
_geom_bond_atom_site_label_1
_geom_bond_atom_site_label_2
_geom_bond_distance
_geom_bond_site_symmetry_2
Cs0 O26 3.063628 1_555
Cs0 O0 3.095893 1_465
Cs0 O26 3.183654 1_455
Cs0 O19 3.193919 1_555
Cs0 O4 3.237896 1_565
Cs1 O27 3.063628 1_455
Cs1 O1 3.095893 1_545
Cs1 O27 3.183654 1_555
Cs1 O18 3.193919 1_555
Cs1 O5 3.237896 1_545
Cs2 O24 3.063628 1_655
Cs2 O2 3.095893 1_555
Cs2 O24 3.183654 1_555
Cs2 O17 3.193919 1_555
Cs2 O6 3.237896 1_555
Cs3 O25 3.063628 1_555
Cs3 O3 3.095893 1_655
Cs3 O25 3.183654 1_655
Cs3 O16 3.193919 1_555
Cs3 O7 3.237896 1_555
O0 Si4 1.611700 1_555
O1 Si5 1.611700 1_555
O2 Si6 1.611700 1_555
O3 Si7 1.611700 1_555
O4 Si0 1.635831 1_555
O4 Si4 1.648995 1_555
O5 Si1 1.635831 1_554
O5 Si5 1.648995 1_455
O6 Si2 1.635831 1_555
O6 Si6 1.648995 1_655
O7 Si3 1.635831 1_556
O7 Si7 1.648995 1_555
O8 Si8 1.644645 1_555
O8 Si10 1.645551 1_555
O9 Si9 1.644645 1_555
O9 Si11 1.645551 1_456
O10 Si10 1.644645 1_555
O10 Si8 1.645551 1_655
O11 Si11 1.644645 1_555
O11 Si9 1.645551 1_554
O12 Si0 1.620163 1_565
O12 Si8 1.645291 1_555
O13 Si1 1.620163 1_545
O13 Si9 1.645291 1_555
O14 Si2 1.620163 1_555
O14 Si10 1.645291 1_555
O15 Si3 1.620163 1_555
O15 Si11 1.645291 1_555
O16 Si2 1.631169 1_555
O16 Si4 1.651197 1_555
O17 Si3 1.631169 1_555
O17 Si5 1.651197 1_555
O18 Si0 1.631169 1_555
O18 Si6 1.651197 1_555
O19 Si1 1.631169 1_555
O19 Si7 1.651197 1_555
O20 Si0 1.631826 1_655
O20 Si4 1.655766 1_555
O21 Si1 1.631826 1_554
O21 Si5 1.655766 1_555
O22 Si2 1.631826 1_555
O22 Si6 1.655766 1_555
O23 Si3 1.631826 1_456
O23 Si7 1.655766 1_555
O24 Si8 1.624056 1_555
O25 Si9 1.624056 1_555
O26 Si10 1.624056 1_555
O27 Si11 1.624056 1_555
