# generated using pymatgen
data_Mg14CoSn
_symmetry_space_group_name_H-M   'P 1'
_cell_length_a   6.27365734
_cell_length_b   6.28041744
_cell_length_c   10.12618764
_cell_angle_alpha   90.00000000
_cell_angle_beta   90.00000000
_cell_angle_gamma   120.03565625
_symmetry_Int_Tables_number   1
_chemical_formula_structural   Mg14CoSn
_chemical_formula_sum   'Mg14 Co1 Sn1'
_cell_volume   345.40590331
_cell_formula_units_Z   1
loop_
 _symmetry_equiv_pos_site_id
 _symmetry_equiv_pos_as_xyz
  1  'x, y, z'
loop_
 _atom_site_type_symbol
 _atom_site_label
 _atom_site_symmetry_multiplicity
 _atom_site_fract_x
 _atom_site_fract_y
 _atom_site_fract_z
 _atom_site_occupancy
  Mg  Mg0  1  0.16663896  0.33331898  0.62500000  1
  Mg  Mg1  1  0.16944488  0.83472194  0.62500000  1
  Mg  Mg2  1  0.67181943  0.33715490  0.12500000  1
  Mg  Mg3  1  0.66581510  0.33046105  0.62500000  1
  Mg  Mg4  1  0.67181943  0.83466353  0.12500000  1
  Mg  Mg5  1  0.66581510  0.83535305  0.62500000  1
  Mg  Mg6  1  0.32807251  0.17272234  0.36242217  1
  Mg  Mg7  1  0.32807251  0.17272234  0.88757783  1
  Mg  Mg8  1  0.32807251  0.65535116  0.36242217  1
  Mg  Mg9  1  0.32807251  0.65535116  0.88757783  1
  Mg  Mg10  1  0.84474454  0.17237277  0.36462739  1
  Mg  Mg11  1  0.84474454  0.17237277  0.88537261  1
  Mg  Mg12  1  0.83295662  0.66647881  0.37917127  1
  Mg  Mg13  1  0.83295662  0.66647881  0.87082873  1
  Co  Co0  1  0.16223657  0.33111778  0.12500000  1
  Sn  Sn0  1  0.15871820  0.82935860  0.12500000  1
loop_
_geom_bond_atom_site_label_1
_geom_bond_atom_site_label_2
_geom_bond_distance
_geom_bond_site_symmetry_2
Mg0 Mg5 3.133051 1_445
Mg0 Mg3 3.133052 1_455
Mg0 Mg1 3.140246 1_555
Mg0 Mg1 3.140246 1_545
Mg0 Mg5 3.140682 1_555
Mg0 Mg3 3.140683 1_555
Mg0 Mg10 3.163545 1_455
Mg0 Mg11 3.163545 1_455
Mg0 Mg6 3.183621 1_555
Mg0 Mg7 3.183621 1_555
Mg0 Mg8 3.183627 1_555
Mg0 Mg9 3.183627 1_555
Mg1 Mg12 3.088127 1_455
Mg1 Mg13 3.088127 1_455
Mg1 Mg3 3.112074 1_565
Mg1 Mg5 3.112075 1_555
Mg1 Mg3 3.161586 1_455
Mg1 Mg5 3.161586 1_455
Mg1 Mg8 3.232884 1_555
Mg1 Mg9 3.232884 1_555
Mg1 Mg6 3.232890 1_565
Mg1 Mg7 3.232890 1_565
Mg2 Mg7 3.044306 1_554
Mg2 Mg6 3.044306 1_555
Mg2 Sn0 3.071448 1_655
Mg2 Mg4 3.124562 1_555
Mg2 Mg4 3.155856 1_545
Mg2 Sn0 3.202474 1_545
Mg3 Mg5 3.109485 1_545
Mg3 Mg5 3.170933 1_555
Mg3 Mg6 3.231026 1_555
Mg3 Mg7 3.231026 1_555
Mg4 Mg8 3.044305 1_555
Mg4 Mg9 3.044305 1_554
Mg4 Sn0 3.071448 1_655
Mg4 Sn0 3.202475 1_555
Mg5 Mg8 3.231025 1_555
Mg5 Mg9 3.231025 1_555
Mg6 Mg8 3.031110 1_555
Mg6 Sn0 3.043950 1_545
Mg6 Mg8 3.249307 1_545
Mg7 Mg9 3.031110 1_555
Mg7 Sn0 3.043950 1_546
Mg7 Mg9 3.249307 1_545
Mg8 Sn0 3.043944 1_555
Mg9 Sn0 3.043944 1_556
Mg10 Mg8 3.031218 1_655
Mg10 Mg6 3.031218 1_655
Mg10 Mg2 3.043004 1_555
Mg10 Mg4 3.043011 1_545
Mg10 Mg12 3.144312 1_545
Mg10 Mg12 3.144312 1_555
Mg10 Mg3 3.211412 1_555
Mg10 Mg5 3.211418 1_545
Mg10 Mg8 3.242599 1_545
Mg10 Mg6 3.242600 1_555
Mg11 Mg9 3.031218 1_655
Mg11 Mg7 3.031218 1_655
Mg11 Mg2 3.043004 1_556
Mg11 Mg4 3.043011 1_546
Mg11 Mg13 3.144312 1_545
Mg11 Mg13 3.144312 1_555
Mg11 Mg3 3.211412 1_555
Mg11 Mg5 3.211418 1_545
Mg11 Mg9 3.242599 1_545
Mg11 Mg7 3.242600 1_555
Mg12 Mg5 3.087782 1_555
Mg12 Mg3 3.087788 1_555
Mg12 Sn0 3.123252 1_655
Mg12 Mg4 3.135442 1_555
Mg12 Mg2 3.135448 1_555
Mg12 Mg6 3.137660 1_555
Mg12 Mg8 3.137661 1_555
Mg12 Mg6 3.146325 1_665
Mg12 Mg8 3.146325 1_655
Mg13 Mg5 3.087782 1_555
Mg13 Mg3 3.087788 1_555
Mg13 Sn0 3.123252 1_656
Mg13 Mg4 3.135442 1_556
Mg13 Mg2 3.135448 1_556
Mg13 Mg7 3.137660 1_555
Mg13 Mg9 3.137661 1_555
Mg13 Mg7 3.146325 1_665
Mg13 Mg9 3.146325 1_655
Co0 Mg10 2.976807 1_455
Co0 Mg11 2.976807 1_454
Co0 Mg6 2.981311 1_555
Co0 Mg7 2.981311 1_554
Co0 Mg8 2.981317 1_555
Co0 Mg9 2.981317 1_554
Co0 Mg4 3.095861 1_445
Co0 Mg2 3.095861 1_455
Co0 Sn0 3.140267 1_545
Co0 Sn0 3.140267 1_555
Co0 Mg4 3.178139 1_555
Co0 Mg2 3.178140 1_555
