# generated using pymatgen
data_KMg14Cr
_symmetry_space_group_name_H-M   'P 1'
_cell_length_a   6.48849199
_cell_length_b   6.52277126
_cell_length_c   10.51089362
_cell_angle_alpha   90.00000000
_cell_angle_beta   90.00000000
_cell_angle_gamma   120.17492308
_symmetry_Int_Tables_number   1
_chemical_formula_structural   KMg14Cr
_chemical_formula_sum   'K1 Mg14 Cr1'
_cell_volume   384.57228887
_cell_formula_units_Z   1
loop_
 _symmetry_equiv_pos_site_id
 _symmetry_equiv_pos_as_xyz
  1  'x, y, z'
loop_
 _atom_site_type_symbol
 _atom_site_label
 _atom_site_symmetry_multiplicity
 _atom_site_fract_x
 _atom_site_fract_y
 _atom_site_fract_z
 _atom_site_occupancy
  K  K0  1  0.16631320  0.33315610  0.12500000  1
  Mg  Mg0  1  0.16790073  0.33394986  0.62500000  1
  Mg  Mg1  1  0.16655668  0.83327784  0.62500000  1
  Mg  Mg2  1  0.66480742  0.32984588  0.12500000  1
  Mg  Mg3  1  0.66650677  0.33414896  0.62500000  1
  Mg  Mg4  1  0.66480742  0.83496054  0.12500000  1
  Mg  Mg5  1  0.66650677  0.83235680  0.62500000  1
  Mg  Mg6  1  0.33540566  0.15841267  0.38221751  1
  Mg  Mg7  1  0.33540566  0.15841267  0.86778249  1
  Mg  Mg8  1  0.33540566  0.67699399  0.38221751  1
  Mg  Mg9  1  0.33540566  0.67699399  0.86778249  1
  Mg  Mg10  1  0.82512402  0.16256251  0.38762706  1
  Mg  Mg11  1  0.82512402  0.16256251  0.86237294  1
  Mg  Mg12  1  0.83756994  0.66878547  0.36809393  1
  Mg  Mg13  1  0.83756994  0.66878547  0.88190607  1
  Cr  Cr0  1  0.16959045  0.83479472  0.12500000  1
loop_
_geom_bond_atom_site_label_1
_geom_bond_atom_site_label_2
_geom_bond_distance
_geom_bond_site_symmetry_2
K0 Mg4 3.243217 1_445
K0 Mg2 3.243217 1_455
K0 Mg4 3.245382 1_555
K0 Mg2 3.245382 1_555
K0 Mg7 3.327079 1_554
K0 Mg6 3.327079 1_555
K0 Mg9 3.327085 1_554
K0 Mg8 3.327085 1_555
K0 Mg10 3.358983 1_455
K0 Mg11 3.358983 1_454
Mg0 Mg11 3.149906 1_455
Mg0 Mg10 3.149906 1_455
Mg0 Mg6 3.202383 1_555
Mg0 Mg7 3.202383 1_555
Mg0 Mg8 3.202390 1_555
Mg0 Mg9 3.202390 1_555
Mg0 Mg5 3.234548 1_555
Mg0 Mg3 3.234549 1_555
Mg0 Mg5 3.253943 1_445
Mg0 Mg3 3.253944 1_455
Mg0 Mg1 3.261394 1_545
Mg0 Mg1 3.261394 1_555
Mg1 Mg8 3.142324 1_555
Mg1 Mg9 3.142324 1_555
Mg1 Mg6 3.142330 1_565
Mg1 Mg7 3.142330 1_565
Mg1 Mg3 3.241554 1_455
Mg1 Mg5 3.241554 1_455
Mg1 Mg3 3.246946 1_565
Mg1 Mg5 3.246946 1_555
Mg1 Mg12 3.270641 1_455
Mg1 Mg13 3.270641 1_455
Mg2 Mg4 3.228024 1_545
Mg2 Mg7 3.274952 1_554
Mg2 Mg6 3.274952 1_555
Mg2 Mg4 3.294747 1_555
Mg3 Mg6 3.156854 1_555
Mg3 Mg7 3.156854 1_555
Mg3 Mg5 3.249696 1_555
Mg3 Mg5 3.273075 1_545
Mg4 Mg9 3.274952 1_554
Mg4 Mg8 3.274952 1_555
Mg5 Mg8 3.156855 1_555
Mg5 Mg9 3.156855 1_555
Mg6 Mg8 3.140184 1_545
Mg6 Mg8 3.382587 1_555
Mg7 Mg9 3.140184 1_545
Mg7 Mg9 3.382587 1_555
Mg10 Mg3 3.113661 1_555
Mg10 Mg5 3.113667 1_545
Mg10 Mg8 3.164525 1_545
Mg10 Mg6 3.164525 1_555
Mg10 Mg12 3.268587 1_555
Mg10 Mg12 3.268587 1_545
Mg10 Mg2 3.321707 1_555
Mg10 Mg4 3.321713 1_545
Mg10 Mg8 3.325132 1_655
Mg10 Mg6 3.325133 1_655
Mg11 Mg3 3.113661 1_555
Mg11 Mg5 3.113667 1_545
Mg11 Mg9 3.164525 1_545
Mg11 Mg7 3.164525 1_555
Mg11 Mg13 3.268587 1_555
Mg11 Mg13 3.268587 1_545
Mg11 Mg2 3.321707 1_556
Mg11 Mg4 3.321713 1_546
Mg11 Mg9 3.325132 1_655
Mg11 Mg7 3.325133 1_655
Mg12 Mg4 3.190867 1_555
Mg12 Mg2 3.190873 1_555
Mg12 Mg6 3.207062 1_665
Mg12 Mg8 3.207063 1_655
Mg12 Mg6 3.288879 1_555
Mg12 Mg8 3.288880 1_555
Mg12 Mg5 3.294315 1_555
Mg12 Mg3 3.294321 1_555
Mg13 Mg4 3.190867 1_556
Mg13 Mg2 3.190873 1_556
Mg13 Mg7 3.207062 1_665
Mg13 Mg9 3.207063 1_655
Mg13 Mg7 3.288879 1_555
Mg13 Mg9 3.288880 1_555
Mg13 Mg5 3.294315 1_555
Mg13 Mg3 3.294321 1_555
Cr0 Mg12 3.161837 1_455
Cr0 Mg13 3.161837 1_454
Cr0 Mg2 3.212668 1_565
Cr0 Mg4 3.212668 1_555
Cr0 K0 3.261437 1_555
Cr0 K0 3.261437 1_565
Cr0 Mg9 3.261845 1_554
Cr0 Mg8 3.261845 1_555
Cr0 Mg7 3.261852 1_564
Cr0 Mg6 3.261852 1_565
Cr0 Mg2 3.275824 1_455
Cr0 Mg4 3.275824 1_455
