# generated using pymatgen
data_SrNdV4O12
_symmetry_space_group_name_H-M   'P 1'
_cell_length_a   5.34948757
_cell_length_b   5.34948757
_cell_length_c   7.56354439
_cell_angle_alpha   90.00000000
_cell_angle_beta   90.00000000
_cell_angle_gamma   89.98301193
_symmetry_Int_Tables_number   1
_chemical_formula_structural   SrNdV4O12
_chemical_formula_sum   'Sr1 Nd1 V4 O12'
_cell_volume   216.44607085
_cell_formula_units_Z   1
loop_
 _symmetry_equiv_pos_site_id
 _symmetry_equiv_pos_as_xyz
  1  'x, y, z'
loop_
 _atom_site_type_symbol
 _atom_site_label
 _atom_site_symmetry_multiplicity
 _atom_site_fract_x
 _atom_site_fract_y
 _atom_site_fract_z
 _atom_site_occupancy
  Sr  Sr0  1  0.99654315  0.99654315  0.50000000  1
  Nd  Nd0  1  0.50557425  0.50557425  0.00000000  1
  V  V0  1  0.50005505  0.00019547  0.74850436  1
  V  V1  1  0.50005505  0.00019547  0.25149564  1
  V  V2  1  0.00019547  0.50005505  0.25149564  1
  V  V3  1  0.00019547  0.50005505  0.74850436  1
  O  O0  1  0.76123407  0.23836287  0.75490199  1
  O  O1  1  0.23836287  0.76123407  0.75490199  1
  O  O2  1  0.23836287  0.76123407  0.24509801  1
  O  O3  1  0.76123407  0.23836287  0.24509801  1
  O  O4  1  0.73203870  0.73203870  0.73812462  1
  O  O5  1  0.26912491  0.26912491  0.77045144  1
  O  O6  1  0.26912491  0.26912491  0.22954856  1
  O  O7  1  0.73203870  0.73203870  0.26187538  1
  O  O8  1  0.51483305  0.97884587  0.00000000  1
  O  O9  1  0.48595968  0.01582188  0.50000000  1
  O  O10  1  0.97884587  0.51483305  0.00000000  1
  O  O11  1  0.01582188  0.48595968  0.50000000  1
loop_
_geom_bond_atom_site_label_1
_geom_bond_atom_site_label_2
_geom_bond_distance
_geom_bond_site_symmetry_2
Nd0 O5 2.493030 1_554
Nd0 O6 2.493030 1_555
Nd0 O10 2.532260 1_555
Nd0 O8 2.532260 1_555
Nd0 O4 2.619042 1_554
Nd0 O7 2.619042 1_555
Nd0 O1 2.710945 1_554
Nd0 O2 2.710945 1_555
Nd0 O3 2.710945 1_555
Nd0 O0 2.710945 1_554
Nd0 O10 2.818148 1_455
Nd0 O8 2.818148 1_545
O0 V0 1.891760 1_555
O0 V3 1.896650 1_655
O0 Sr0 2.640841 1_545
O1 V3 1.891760 1_555
O1 V0 1.896650 1_565
O1 Sr0 2.640841 1_455
O2 V2 1.891760 1_555
O2 V1 1.896650 1_565
O2 Sr0 2.640841 1_455
O3 V1 1.891760 1_555
O3 V2 1.896650 1_655
O3 Sr0 2.640841 1_545
O4 V0 1.898148 1_565
O4 V3 1.898148 1_655
O4 Sr0 2.692447 1_555
O5 V3 1.903229 1_555
O5 V0 1.903229 1_555
O5 Sr0 2.904851 1_445
O6 V2 1.903229 1_555
O6 V1 1.903229 1_555
O6 Sr0 2.904851 1_445
O7 V2 1.898148 1_655
O7 V1 1.898148 1_565
O7 Sr0 2.692447 1_555
O8 V1 1.907262 1_565
O8 V0 1.907262 1_564
O9 V1 1.882941 1_555
O9 V0 1.882941 1_555
O9 Sr0 2.620189 1_445
O9 Sr0 2.733276 1_545
O10 V2 1.907262 1_655
O10 V3 1.907262 1_654
O11 V2 1.882941 1_555
O11 V3 1.882941 1_555
O11 Sr0 2.620189 1_445
O11 Sr0 2.733276 1_455
