# generated using pymatgen
data_LiMg14Fe
_symmetry_space_group_name_H-M   'P 1'
_cell_length_a   6.30355654
_cell_length_b   6.36025144
_cell_length_c   9.91156724
_cell_angle_alpha   90.00000000
_cell_angle_beta   90.00000000
_cell_angle_gamma   120.29797676
_symmetry_Int_Tables_number   1
_chemical_formula_structural   LiMg14Fe
_chemical_formula_sum   'Li1 Mg14 Fe1'
_cell_volume   343.10025203
_cell_formula_units_Z   1
loop_
 _symmetry_equiv_pos_site_id
 _symmetry_equiv_pos_as_xyz
  1  'x, y, z'
loop_
 _atom_site_type_symbol
 _atom_site_label
 _atom_site_symmetry_multiplicity
 _atom_site_fract_x
 _atom_site_fract_y
 _atom_site_fract_z
 _atom_site_occupancy
  Li  Li0  1  0.16596177  0.83298038  0.12500000  1
  Mg  Mg0  1  0.16941410  0.33470655  0.62500000  1
  Mg  Mg1  1  0.17137872  0.83568886  0.62500000  1
  Mg  Mg2  1  0.67429570  0.33900569  0.12500000  1
  Mg  Mg3  1  0.66556990  0.33091433  0.62500000  1
  Mg  Mg4  1  0.67429570  0.83528902  0.12500000  1
  Mg  Mg5  1  0.66556990  0.83465457  0.62500000  1
  Mg  Mg6  1  0.32341956  0.16747373  0.35978523  1
  Mg  Mg7  1  0.32341956  0.16747373  0.89021477  1
  Mg  Mg8  1  0.32341956  0.65594683  0.35978523  1
  Mg  Mg9  1  0.32341956  0.65594683  0.89021477  1
  Mg  Mg10  1  0.84213575  0.17106838  0.36500597  1
  Mg  Mg11  1  0.84213575  0.17106838  0.88499403  1
  Mg  Mg12  1  0.83411046  0.66705573  0.37552330  1
  Mg  Mg13  1  0.83411046  0.66705573  0.87447670  1
  Fe  Fe0  1  0.16734355  0.33367127  0.12500000  1
loop_
_geom_bond_atom_site_label_1
_geom_bond_atom_site_label_2
_geom_bond_distance
_geom_bond_site_symmetry_2
Li0 Mg9 2.965797 1_554
Li0 Mg8 2.965797 1_555
Li0 Mg7 2.965804 1_564
Li0 Mg6 2.965804 1_565
Li0 Mg12 3.070467 1_455
Li0 Mg13 3.070467 1_454
Li0 Mg2 3.106678 1_455
Li0 Mg4 3.106679 1_455
Li0 Mg2 3.196929 1_565
Li0 Mg4 3.196929 1_555
Mg0 Mg11 3.132645 1_455
Mg0 Mg10 3.132645 1_455
Mg0 Mg5 3.139783 1_555
Mg0 Mg3 3.139783 1_555
Mg0 Mg5 3.163910 1_445
Mg0 Mg3 3.163911 1_455
Mg0 Mg6 3.166329 1_555
Mg0 Mg7 3.166329 1_555
Mg0 Mg8 3.166335 1_555
Mg0 Mg9 3.166335 1_555
Mg0 Mg1 3.180144 1_555
Mg0 Mg1 3.180144 1_545
Mg1 Mg13 3.079566 1_455
Mg1 Mg12 3.079566 1_455
Mg1 Mg3 3.118486 1_565
Mg1 Mg5 3.118486 1_555
Mg1 Mg3 3.185081 1_455
Mg1 Mg5 3.185081 1_455
Mg1 Mg8 3.200152 1_555
Mg1 Mg9 3.200152 1_555
Mg1 Mg6 3.200159 1_565
Mg1 Mg7 3.200159 1_565
Mg2 Mg7 3.010449 1_554
Mg2 Mg6 3.010449 1_555
Mg2 Mg4 3.156487 1_555
Mg2 Mg4 3.203765 1_545
Mg3 Mg5 3.156337 1_545
Mg3 Mg5 3.203915 1_555
Mg3 Mg6 3.221816 1_555
Mg3 Mg7 3.221816 1_555
Mg4 Mg9 3.010449 1_554
Mg4 Mg8 3.010449 1_555
Mg5 Mg8 3.221816 1_555
Mg5 Mg9 3.221816 1_555
Mg10 Mg2 3.009869 1_555
Mg10 Mg4 3.009876 1_545
Mg10 Mg3 3.170919 1_555
Mg10 Mg5 3.170925 1_545
Mg10 Mg12 3.182134 1_555
Mg10 Mg12 3.182134 1_545
Mg11 Mg2 3.009869 1_556
Mg11 Mg4 3.009876 1_546
Mg11 Mg3 3.170919 1_555
Mg11 Mg5 3.170925 1_545
Mg11 Mg13 3.182134 1_555
Mg11 Mg13 3.182134 1_545
Mg12 Mg4 3.068073 1_555
Mg12 Mg2 3.068079 1_555
Mg12 Mg5 3.085765 1_555
Mg12 Mg3 3.085772 1_555
Mg12 Mg6 3.124525 1_665
Mg12 Mg8 3.124526 1_655
Mg12 Mg6 3.187926 1_555
Mg12 Mg8 3.187927 1_555
Mg13 Mg4 3.068073 1_556
Mg13 Mg2 3.068079 1_556
Mg13 Mg5 3.085765 1_555
Mg13 Mg3 3.085772 1_555
Mg13 Mg7 3.124525 1_665
Mg13 Mg9 3.124526 1_655
Mg13 Mg7 3.187926 1_555
Mg13 Mg9 3.187927 1_555
Fe0 Mg7 2.924033 1_554
Fe0 Mg6 2.924033 1_555
Fe0 Mg9 2.924040 1_554
Fe0 Mg8 2.924040 1_555
Fe0 Mg10 2.965071 1_455
Fe0 Mg11 2.965071 1_454
Fe0 Mg4 3.125209 1_445
Fe0 Mg2 3.125209 1_455
Fe0 Mg4 3.178620 1_555
Fe0 Mg2 3.178620 1_555
Fe0 Li0 3.180135 1_545
Fe0 Li0 3.180135 1_555
