# generated using pymatgen
data_Mg6SiNi
_symmetry_space_group_name_H-M   'P 1'
_cell_length_a   4.67011000
_cell_length_b   6.13457500
_cell_length_c   10.46420700
_cell_angle_alpha   90.00000000
_cell_angle_beta   90.00000000
_cell_angle_gamma   90.00000000
_symmetry_Int_Tables_number   1
_chemical_formula_structural   Mg6SiNi
_chemical_formula_sum   'Mg12 Si2 Ni2'
_cell_volume   299.79053189
_cell_formula_units_Z   2
loop_
 _symmetry_equiv_pos_site_id
 _symmetry_equiv_pos_as_xyz
  1  'x, y, z'
loop_
 _atom_site_type_symbol
 _atom_site_label
 _atom_site_symmetry_multiplicity
 _atom_site_fract_x
 _atom_site_fract_y
 _atom_site_fract_z
 _atom_site_occupancy
  Mg  Mg0  1  0.00000000  0.25867400  0.09200000  1
  Mg  Mg1  1  0.00000000  0.74132600  0.09200000  1
  Mg  Mg2  1  0.00000000  0.50000000  0.83688800  1
  Mg  Mg3  1  0.50000000  0.23568700  0.90842000  1
  Mg  Mg4  1  0.50000000  0.76431300  0.90842000  1
  Mg  Mg5  1  0.50000000  0.50000000  0.66730800  1
  Mg  Mg6  1  0.00000000  0.75867400  0.59200000  1
  Mg  Mg7  1  0.00000000  0.24132600  0.59200000  1
  Mg  Mg8  1  0.00000000  0.00000000  0.33688800  1
  Mg  Mg9  1  0.50000000  0.73568700  0.40842000  1
  Mg  Mg10  1  0.50000000  0.26431300  0.40842000  1
  Mg  Mg11  1  0.50000000  0.00000000  0.16730800  1
  Si  Si0  1  0.50000000  0.50000000  0.17834000  1
  Si  Si1  1  0.50000000  0.00000000  0.67834000  1
  Ni  Ni0  1  0.00000000  0.50000000  0.31662500  1
  Ni  Ni1  1  0.00000000  0.00000000  0.81662500  1
loop_
_geom_bond_atom_site_label_1
_geom_bond_atom_site_label_2
_geom_bond_distance
_geom_bond_site_symmetry_2
Mg0 Ni0 2.777883 1_555
Mg0 Si0 2.908683 1_455
Mg0 Si0 2.908683 1_555
Mg0 Mg11 2.931142 1_455
Mg0 Mg11 2.931142 1_555
Mg0 Mg8 3.014103 1_555
Mg0 Mg2 3.052564 1_554
Mg0 Ni1 3.289623 1_554
Mg1 Ni0 2.777883 1_555
Mg1 Si0 2.908683 1_455
Mg1 Si0 2.908683 1_555
Mg1 Mg11 2.931142 1_465
Mg1 Mg11 2.931142 1_565
Mg1 Mg8 3.014103 1_565
Mg1 Mg2 3.052564 1_554
Mg1 Ni1 3.289623 1_564
Mg2 Mg5 2.932815 1_455
Mg2 Mg5 2.932815 1_555
Mg2 Mg4 2.939705 1_455
Mg2 Mg4 2.939705 1_555
Mg2 Mg3 2.939705 1_455
Mg2 Mg3 2.939705 1_555
Mg2 Mg6 3.014103 1_555
Mg2 Mg7 3.014103 1_555
Mg2 Ni1 3.074608 1_555
Mg2 Ni1 3.074608 1_565
Mg3 Si1 2.808383 1_555
Mg3 Ni1 2.909573 1_555
Mg3 Ni1 2.909573 1_655
Mg3 Mg5 2.999142 1_555
Mg3 Si0 3.256822 1_556
Mg4 Si1 2.808383 1_565
Mg4 Ni1 2.909573 1_565
Mg4 Ni1 2.909573 1_665
Mg4 Mg5 2.999142 1_555
Mg4 Si0 3.256822 1_556
Mg5 Mg6 2.931142 1_655
Mg5 Mg6 2.931142 1_555
Mg5 Mg7 2.931142 1_555
Mg5 Mg7 2.931142 1_655
Mg5 Si1 3.069459 1_565
Mg5 Si1 3.069459 1_555
Mg5 Mg9 3.070740 1_555
Mg6 Ni1 2.777883 1_565
Mg6 Si1 2.908683 1_465
Mg6 Si1 2.908683 1_565
Mg6 Mg8 3.052564 1_565
Mg6 Ni0 3.289623 1_555
Mg7 Ni1 2.777883 1_555
Mg7 Si1 2.908683 1_455
Mg7 Si1 2.908683 1_555
Mg7 Mg8 3.052564 1_555
Mg7 Ni0 3.289623 1_555
Mg8 Mg9 2.939705 1_545
Mg8 Mg9 2.939705 1_445
Mg8 Ni0 3.074608 1_545
Mg8 Ni0 3.074608 1_555
Mg9 Si0 2.808383 1_555
Mg9 Ni0 2.909573 1_655
Mg9 Ni0 2.909573 1_555
Mg9 Si1 3.256822 1_565
Mg10 Si0 2.808383 1_555
Mg10 Ni0 2.909573 1_555
Mg10 Ni0 2.909573 1_655
Mg10 Mg8 2.939705 1_655
Mg10 Mg8 2.939705 1_555
Mg10 Mg11 2.999142 1_555
Mg10 Mg5 3.070740 1_555
Mg10 Si1 3.256822 1_555
Mg11 Mg8 2.932815 1_655
Mg11 Mg8 2.932815 1_555
Mg11 Mg9 2.999142 1_545
Mg11 Si0 3.069459 1_545
Mg11 Si0 3.069459 1_555
Mg11 Mg3 3.070740 1_554
Mg11 Mg4 3.070740 1_544
Ni0 Si0 2.747074 1_455
Ni0 Si0 2.747074 1_555
Ni1 Si1 2.747074 1_455
Ni1 Si1 2.747074 1_555
