# generated using pymatgen
data_CeUSi4
_symmetry_space_group_name_H-M   'P 1'
_cell_length_a   7.63693668
_cell_length_b   7.63693668
_cell_length_c   7.63693668
_cell_angle_alpha   149.68824854
_cell_angle_beta   149.68824854
_cell_angle_gamma   43.39921322
_symmetry_Int_Tables_number   1
_chemical_formula_structural   CeUSi4
_chemical_formula_sum   'Ce1 U1 Si4'
_cell_volume   113.15146918
_cell_formula_units_Z   1
loop_
 _symmetry_equiv_pos_site_id
 _symmetry_equiv_pos_as_xyz
  1  'x, y, z'
loop_
 _atom_site_type_symbol
 _atom_site_label
 _atom_site_symmetry_multiplicity
 _atom_site_fract_x
 _atom_site_fract_y
 _atom_site_fract_z
 _atom_site_occupancy
  Ce  Ce0  1  0.25000000  0.75000000  0.50000000  1
  U  U0  1  0.00000000  0.00000000  0.00000000  1
  Si  Si0  1  0.66534000  0.16534000  0.50000000  1
  Si  Si1  1  0.58140700  0.58140700  0.00000000  1
  Si  Si2  1  0.83466000  0.33466000  0.50000000  1
  Si  Si3  1  0.41859300  0.41859300  0.00000000  1
loop_
_geom_bond_atom_site_label_1
_geom_bond_atom_site_label_2
_geom_bond_distance
_geom_bond_site_symmetry_2
Ce0 Si0 3.068660 1_566
Ce0 Si0 3.068660 1_465
Ce0 Si0 3.068660 1_454
Ce0 Si2 3.068660 1_465
Ce0 Si0 3.068660 1_555
Ce0 Si2 3.068660 1_454
Ce0 Si2 3.068660 1_566
Ce0 Si2 3.068660 1_555
Ce0 Si1 3.116258 1_556
Ce0 Si3 3.116258 1_555
Ce0 Si3 3.116258 1_566
Ce0 Si1 3.116258 1_455
Si0 Si1 2.324951 1_545
Si0 Si1 2.324951 1_556
Si0 Si2 2.402903 1_555
Si0 U0 3.080956 1_555
Si0 U0 3.080956 1_656
Si1 Si3 2.310574 1_555
Si1 U0 3.050882 1_565
Si1 U0 3.050882 1_655
Si1 U0 3.050882 1_666
Si1 U0 3.050882 1_554
Si2 Si3 2.324951 1_656
Si2 Si3 2.324951 1_555
Si2 U0 3.080956 1_655
Si2 U0 3.080956 1_666
Si3 U0 3.050882 1_565
Si3 U0 3.050882 1_655
Si3 U0 3.050882 1_666
Si3 U0 3.050882 1_554
