# generated using pymatgen
data_SmCuO2
_symmetry_space_group_name_H-M   'P 1'
_cell_length_a   6.05533350
_cell_length_b   6.05533350
_cell_length_c   6.05533340
_cell_angle_alpha   35.23016273
_cell_angle_beta   35.23016273
_cell_angle_gamma   35.23015879
_symmetry_Int_Tables_number   1
_chemical_formula_structural   SmCuO2
_chemical_formula_sum   'Sm1 Cu1 O2'
_cell_volume   65.99687487
_cell_formula_units_Z   1
loop_
 _symmetry_equiv_pos_site_id
 _symmetry_equiv_pos_as_xyz
  1  'x, y, z'
loop_
 _atom_site_type_symbol
 _atom_site_label
 _atom_site_symmetry_multiplicity
 _atom_site_fract_x
 _atom_site_fract_y
 _atom_site_fract_z
 _atom_site_occupancy
  Sm  Sm0  1  0.50000000  0.50000000  0.50000000  1
  Cu  Cu0  1  -0.00000000  -0.00000000  0.00000000  1
  O  O0  1  0.89398087  0.89398087  0.89398087  1
  O  O1  1  0.10601913  0.10601913  0.10601913  1
loop_
_geom_bond_atom_site_label_1
_geom_bond_atom_site_label_2
_geom_bond_distance
_geom_bond_site_symmetry_2
Cu0 O0 1.804532 1_444
Cu0 O1 1.804532 1_555
O0 Sm0 2.354324 1_565
O0 Sm0 2.354324 1_655
O0 Sm0 2.354324 1_556
O1 Sm0 2.354324 1_545
O1 Sm0 2.354324 1_455
O1 Sm0 2.354324 1_554
