# generated using pymatgen
data_Ag3Bi
_symmetry_space_group_name_H-M   'P 1'
_cell_length_a   6.51248622
_cell_length_b   6.51248622
_cell_length_c   19.26706600
_cell_angle_alpha   90.00000000
_cell_angle_beta   90.00000000
_cell_angle_gamma   119.99998197
_symmetry_Int_Tables_number   1
_chemical_formula_structural   Ag3Bi
_chemical_formula_sum   'Ag24 Bi8'
_cell_volume   707.68490323
_cell_formula_units_Z   8
loop_
 _symmetry_equiv_pos_site_id
 _symmetry_equiv_pos_as_xyz
  1  'x, y, z'
loop_
 _atom_site_type_symbol
 _atom_site_label
 _atom_site_symmetry_multiplicity
 _atom_site_fract_x
 _atom_site_fract_y
 _atom_site_fract_z
 _atom_site_occupancy
  Ag  Ag0_0  1  0.33333350  0.16666650  0.25000000  1
  Ag  Ag0_1  1  0.33333350  0.16666650  0.75000000  1
  Ag  Ag0_2  1  0.33333350  0.66666650  0.25000000  1
  Ag  Ag0_3  1  0.33333350  0.66666650  0.75000000  1
  Ag  Ag0_4  1  0.83333350  0.16666650  0.25000000  1
  Ag  Ag0_5  1  0.83333350  0.16666650  0.75000000  1
  Ag  Ag0_6  1  0.83333350  0.66666650  0.25000000  1
  Ag  Ag0_7  1  0.83333350  0.66666650  0.75000000  1
  Ag  Ag1_0  1  0.16666650  0.33333350  0.13613500  1
  Ag  Ag1_1  1  0.16666650  0.33333350  0.63613500  1
  Ag  Ag1_2  1  0.16666650  0.83333350  0.13613500  1
  Ag  Ag1_3  1  0.16666650  0.83333350  0.63613500  1
  Ag  Ag1_4  1  0.66666650  0.33333350  0.13613500  1
  Ag  Ag1_5  1  0.66666650  0.33333350  0.63613500  1
  Ag  Ag1_6  1  0.66666650  0.83333350  0.13613500  1
  Ag  Ag1_7  1  0.66666650  0.83333350  0.63613500  1
  Ag  Ag2_0  1  0.16666650  0.33333350  0.36386500  1
  Ag  Ag2_1  1  0.16666650  0.33333350  0.86386500  1
  Ag  Ag2_2  1  0.16666650  0.83333350  0.36386500  1
  Ag  Ag2_3  1  0.16666650  0.83333350  0.86386500  1
  Ag  Ag2_4  1  0.66666650  0.33333350  0.36386500  1
  Ag  Ag2_5  1  0.66666650  0.33333350  0.86386500  1
  Ag  Ag2_6  1  0.66666650  0.83333350  0.36386500  1
  Ag  Ag2_7  1  0.66666650  0.83333350  0.86386500  1
  Bi  Bi0_0  1  0.33333350  0.16666650  0.00000000  1
  Bi  Bi0_1  1  0.33333350  0.16666650  0.50000000  1
  Bi  Bi0_2  1  0.33333350  0.66666650  0.00000000  1
  Bi  Bi0_3  1  0.33333350  0.66666650  0.50000000  1
  Bi  Bi0_4  1  0.83333350  0.16666650  0.00000000  1
  Bi  Bi0_5  1  0.83333350  0.16666650  0.50000000  1
  Bi  Bi0_6  1  0.83333350  0.66666650  0.00000000  1
  Bi  Bi0_7  1  0.83333350  0.66666650  0.50000000  1
loop_
_geom_bond_atom_site_label_1
_geom_bond_atom_site_label_2
_geom_bond_distance
_geom_bond_site_symmetry_2
Ag0_0 Ag2_4 2.889173 1_555
Ag0_0 Ag1_4 2.889173 1_555
Ag0_0 Ag2_2 2.889173 1_545
Ag0_0 Ag1_2 2.889173 1_545
Ag0_0 Ag1_0 2.889176 1_555
Ag0_0 Ag2_0 2.889176 1_555
Ag0_0 Ag0_2 3.256243 1_555
Ag0_0 Ag0_4 3.256243 1_555
Ag0_0 Ag0_4 3.256243 1_455
Ag0_0 Ag0_2 3.256243 1_545
Ag0_0 Ag0_6 3.256244 1_555
Ag0_0 Ag0_6 3.256244 1_445
Ag0_1 Ag1_5 2.889173 1_555
Ag0_1 Ag2_5 2.889173 1_555
Ag0_1 Ag1_3 2.889173 1_545
Ag0_1 Ag2_3 2.889173 1_545
Ag0_1 Ag1_1 2.889176 1_555
Ag0_1 Ag2_1 2.889176 1_555
Ag0_1 Ag0_5 3.256243 1_555
Ag0_1 Ag0_3 3.256243 1_555
Ag0_1 Ag0_5 3.256243 1_455
Ag0_1 Ag0_3 3.256243 1_545
Ag0_1 Ag0_7 3.256244 1_555
Ag0_1 Ag0_7 3.256244 1_445
Ag0_2 Ag1_6 2.889173 1_555
Ag0_2 Ag1_0 2.889173 1_555
Ag0_2 Ag2_6 2.889173 1_555
Ag0_2 Ag2_0 2.889173 1_555
Ag0_2 Ag1_2 2.889176 1_555
Ag0_2 Ag2_2 2.889176 1_555
Ag0_2 Ag0_6 3.256243 1_555
Ag0_2 Ag0_6 3.256243 1_455
Ag0_2 Ag0_4 3.256244 1_455
Ag0_2 Ag0_4 3.256244 1_565
Ag0_3 Ag1_1 2.889173 1_555
Ag0_3 Ag2_1 2.889173 1_555
Ag0_3 Ag1_7 2.889173 1_555
Ag0_3 Ag2_7 2.889173 1_555
Ag0_3 Ag1_3 2.889176 1_555
Ag0_3 Ag2_3 2.889176 1_555
Ag0_3 Ag0_7 3.256243 1_555
Ag0_3 Ag0_7 3.256243 1_455
Ag0_3 Ag0_5 3.256244 1_565
Ag0_3 Ag0_5 3.256244 1_455
Ag0_4 Ag2_0 2.889173 1_655
Ag0_4 Ag1_0 2.889173 1_655
Ag0_4 Ag1_6 2.889173 1_545
Ag0_4 Ag2_6 2.889173 1_545
Ag0_4 Ag2_4 2.889176 1_555
Ag0_4 Ag1_4 2.889176 1_555
Ag0_4 Ag0_6 3.256243 1_545
Ag0_4 Ag0_6 3.256243 1_555
Ag0_5 Ag1_1 2.889173 1_655
Ag0_5 Ag2_1 2.889173 1_655
Ag0_5 Ag2_7 2.889173 1_545
Ag0_5 Ag1_7 2.889173 1_545
Ag0_5 Ag1_5 2.889176 1_555
Ag0_5 Ag2_5 2.889176 1_555
Ag0_5 Ag0_7 3.256243 1_545
Ag0_5 Ag0_7 3.256243 1_555
Ag0_6 Ag2_4 2.889173 1_555
Ag0_6 Ag1_4 2.889173 1_555
Ag0_6 Ag1_2 2.889173 1_655
Ag0_6 Ag2_2 2.889173 1_655
Ag0_6 Ag2_6 2.889176 1_555
Ag0_6 Ag1_6 2.889176 1_555
Ag0_7 Ag1_5 2.889173 1_555
Ag0_7 Ag2_5 2.889173 1_555
Ag0_7 Ag1_3 2.889173 1_655
Ag0_7 Ag2_3 2.889173 1_655
Ag0_7 Ag1_7 2.889176 1_555
Ag0_7 Ag2_7 2.889176 1_555
Ag1_0 Bi0_4 3.227086 1_455
Ag1_0 Bi0_2 3.227086 1_555
Ag1_0 Bi0_0 3.227089 1_555
Ag1_0 Ag1_2 3.256243 1_555
Ag1_0 Ag1_4 3.256243 1_555
Ag1_0 Ag1_4 3.256243 1_455
Ag1_0 Ag1_2 3.256243 1_545
Ag1_0 Ag1_6 3.256244 1_555
Ag1_0 Ag1_6 3.256244 1_445
Ag1_1 Bi0_3 3.227086 1_555
Ag1_1 Bi0_5 3.227086 1_455
Ag1_1 Bi0_1 3.227089 1_555
Ag1_1 Ag1_3 3.256243 1_555
Ag1_1 Ag1_5 3.256243 1_555
Ag1_1 Ag1_5 3.256243 1_455
Ag1_1 Ag1_3 3.256243 1_545
Ag1_1 Ag1_7 3.256244 1_555
Ag1_1 Ag1_7 3.256244 1_445
Ag1_2 Bi0_0 3.227086 1_565
Ag1_2 Bi0_6 3.227086 1_455
Ag1_2 Bi0_2 3.227089 1_555
Ag1_2 Ag1_6 3.256243 1_555
Ag1_2 Ag1_6 3.256243 1_455
Ag1_2 Ag1_4 3.256244 1_565
Ag1_2 Ag1_4 3.256244 1_455
Ag1_3 Bi0_1 3.227086 1_565
Ag1_3 Bi0_7 3.227086 1_455
Ag1_3 Bi0_3 3.227089 1_555
Ag1_3 Ag1_7 3.256243 1_555
Ag1_3 Ag1_7 3.256243 1_455
Ag1_3 Ag1_5 3.256244 1_565
Ag1_3 Ag1_5 3.256244 1_455
Ag1_4 Bi0_0 3.227086 1_555
Ag1_4 Bi0_6 3.227086 1_555
Ag1_4 Bi0_4 3.227089 1_555
Ag1_4 Ag1_6 3.256243 1_555
Ag1_4 Ag1_6 3.256243 1_545
Ag1_5 Bi0_1 3.227086 1_555
Ag1_5 Bi0_7 3.227086 1_555
Ag1_5 Bi0_5 3.227089 1_555
Ag1_5 Ag1_7 3.256243 1_555
Ag1_5 Ag1_7 3.256243 1_545
Ag1_6 Bi0_2 3.227086 1_555
Ag1_6 Bi0_4 3.227086 1_565
Ag1_6 Bi0_6 3.227089 1_555
Ag1_7 Bi0_3 3.227086 1_555
Ag1_7 Bi0_5 3.227086 1_565
Ag1_7 Bi0_7 3.227089 1_555
Ag2_0 Bi0_3 3.227086 1_555
Ag2_0 Bi0_5 3.227086 1_455
Ag2_0 Bi0_1 3.227089 1_555
Ag2_0 Ag2_4 3.256243 1_555
Ag2_0 Ag2_2 3.256243 1_555
Ag2_0 Ag2_2 3.256243 1_545
Ag2_0 Ag2_4 3.256243 1_455
Ag2_0 Ag2_6 3.256244 1_555
Ag2_0 Ag2_6 3.256244 1_445
Ag2_1 Bi0_2 3.227086 1_556
Ag2_1 Bi0_4 3.227086 1_456
Ag2_1 Bi0_0 3.227089 1_556
Ag2_1 Ag2_3 3.256243 1_555
Ag2_1 Ag2_5 3.256243 1_555
Ag2_1 Ag2_5 3.256243 1_455
Ag2_1 Ag2_3 3.256243 1_545
Ag2_1 Ag2_7 3.256244 1_555
Ag2_1 Ag2_7 3.256244 1_445
Ag2_2 Bi0_1 3.227086 1_565
Ag2_2 Bi0_7 3.227086 1_455
Ag2_2 Bi0_3 3.227089 1_555
Ag2_2 Ag2_6 3.256243 1_555
Ag2_2 Ag2_6 3.256243 1_455
Ag2_2 Ag2_4 3.256244 1_565
Ag2_2 Ag2_4 3.256244 1_455
Ag2_3 Bi0_6 3.227086 1_456
Ag2_3 Bi0_0 3.227086 1_566
Ag2_3 Bi0_2 3.227089 1_556
Ag2_3 Ag2_7 3.256243 1_555
Ag2_3 Ag2_7 3.256243 1_455
Ag2_3 Ag2_5 3.256244 1_565
Ag2_3 Ag2_5 3.256244 1_455
Ag2_4 Bi0_1 3.227086 1_555
Ag2_4 Bi0_7 3.227086 1_555
Ag2_4 Bi0_5 3.227089 1_555
Ag2_4 Ag2_6 3.256243 1_555
Ag2_4 Ag2_6 3.256243 1_545
Ag2_5 Bi0_6 3.227086 1_556
Ag2_5 Bi0_0 3.227086 1_556
Ag2_5 Bi0_4 3.227089 1_556
Ag2_5 Ag2_7 3.256243 1_555
Ag2_5 Ag2_7 3.256243 1_545
Ag2_6 Bi0_3 3.227086 1_555
Ag2_6 Bi0_5 3.227086 1_565
Ag2_6 Bi0_7 3.227089 1_555
Ag2_7 Bi0_2 3.227086 1_556
Ag2_7 Bi0_4 3.227086 1_566
Ag2_7 Bi0_6 3.227089 1_556
Bi0_0 Bi0_2 3.256243 1_555
Bi0_0 Bi0_4 3.256243 1_555
Bi0_0 Bi0_4 3.256243 1_455
Bi0_0 Bi0_2 3.256243 1_545
Bi0_0 Bi0_6 3.256244 1_555
Bi0_0 Bi0_6 3.256244 1_445
Bi0_1 Bi0_5 3.256243 1_555
Bi0_1 Bi0_3 3.256243 1_555
Bi0_1 Bi0_5 3.256243 1_455
Bi0_1 Bi0_3 3.256243 1_545
Bi0_1 Bi0_7 3.256244 1_555
Bi0_1 Bi0_7 3.256244 1_445
Bi0_2 Bi0_6 3.256243 1_555
Bi0_2 Bi0_6 3.256243 1_455
Bi0_2 Bi0_4 3.256244 1_455
Bi0_2 Bi0_4 3.256244 1_565
Bi0_3 Bi0_7 3.256243 1_555
Bi0_3 Bi0_7 3.256243 1_455
Bi0_3 Bi0_5 3.256244 1_565
Bi0_3 Bi0_5 3.256244 1_455
Bi0_4 Bi0_6 3.256243 1_545
Bi0_4 Bi0_6 3.256243 1_555
Bi0_5 Bi0_7 3.256243 1_545
Bi0_5 Bi0_7 3.256243 1_555
