# generated using pymatgen
data_Ce2(MoO4)3
_symmetry_space_group_name_H-M   'P 1'
_cell_length_a   6.92607098
_cell_length_b   6.92607098
_cell_length_c   11.94744112
_cell_angle_alpha   79.95641548
_cell_angle_beta   79.95641548
_cell_angle_gamma   113.04028679
_symmetry_Int_Tables_number   1
_chemical_formula_structural   Ce2(MoO4)3
_chemical_formula_sum   'Ce4 Mo6 O24'
_cell_volume   500.35655052
_cell_formula_units_Z   2
loop_
 _symmetry_equiv_pos_site_id
 _symmetry_equiv_pos_as_xyz
  1  'x, y, z'
loop_
 _atom_site_type_symbol
 _atom_site_label
 _atom_site_symmetry_multiplicity
 _atom_site_fract_x
 _atom_site_fract_y
 _atom_site_fract_z
 _atom_site_occupancy
  Ce  Ce0  1  0.20445300  0.45192800  0.59029900  1
  Ce  Ce1  1  0.54807200  0.79554700  0.90970100  1
  Ce  Ce2  1  0.45192800  0.20445300  0.09029900  1
  Ce  Ce3  1  0.79554700  0.54807200  0.40970100  1
  Mo  Mo0  1  0.71124600  0.96177800  0.57726100  1
  Mo  Mo1  1  0.03822200  0.28875400  0.92273900  1
  Mo  Mo2  1  0.37592600  0.62407400  0.25000000  1
  Mo  Mo3  1  0.28875400  0.03822200  0.42273900  1
  Mo  Mo4  1  0.62407400  0.37592600  0.75000000  1
  Mo  Mo5  1  0.96177800  0.71124600  0.07726100  1
  O  O0  1  0.06203400  0.46638800  0.78755800  1
  O  O1  1  0.42730100  0.83579600  0.11144600  1
  O  O2  1  0.71516200  0.16499600  0.46055400  1
  O  O3  1  0.53361200  0.93796600  0.71244200  1
  O  O4  1  0.83500400  0.28483800  0.03944600  1
  O  O5  1  0.16420400  0.57269900  0.38855400  1
  O  O6  1  0.70213700  0.63740000  0.78540800  1
  O  O7  1  0.07183200  0.97724400  0.10245800  1
  O  O8  1  0.38953100  0.30816500  0.45535300  1
  O  O9  1  0.36260000  0.29786300  0.71459200  1
  O  O10  1  0.69183500  0.61046900  0.04464700  1
  O  O11  1  0.02275600  0.92816800  0.39754200  1
  O  O12  1  0.57269900  0.16420400  0.88855400  1
  O  O13  1  0.93796600  0.53361200  0.21244200  1
  O  O14  1  0.28483800  0.83500400  0.53944600  1
  O  O15  1  0.16499600  0.71516200  0.96055400  1
  O  O16  1  0.46638800  0.06203400  0.28755800  1
  O  O17  1  0.83579600  0.42730100  0.61144600  1
  O  O18  1  0.92816800  0.02275600  0.89754200  1
  O  O19  1  0.29786300  0.36260000  0.21459200  1
  O  O20  1  0.61046900  0.69183500  0.54464700  1
  O  O21  1  0.30816500  0.38953100  0.95535300  1
  O  O22  1  0.63740000  0.70213700  0.28540800  1
  O  O23  1  0.97724400  0.07183200  0.60245800  1
loop_
_geom_bond_atom_site_label_1
_geom_bond_atom_site_label_2
_geom_bond_distance
_geom_bond_site_symmetry_2
Ce0 O9 2.339464 1_555
Ce0 O14 2.425309 1_555
Ce0 O0 2.426120 1_555
Ce0 O23 2.443776 1_455
Ce0 O17 2.455921 1_455
Ce0 O8 2.464177 1_555
Ce0 O5 2.510133 1_555
Ce0 O20 2.541205 1_555
Ce1 O6 2.339464 1_555
Ce1 O15 2.425309 1_555
Ce1 O3 2.426120 1_555
Ce1 O18 2.443776 1_565
Ce1 O12 2.455921 1_565
Ce1 O10 2.464177 1_556
Ce1 O1 2.510133 1_556
Ce1 O21 2.541205 1_555
Ce2 O19 2.339464 1_555
Ce2 O4 2.425309 1_555
Ce2 O16 2.426120 1_555
Ce2 O7 2.443776 1_545
Ce2 O1 2.455921 1_545
Ce2 O21 2.464177 1_554
Ce2 O12 2.510133 1_554
Ce2 O10 2.541205 1_555
Ce3 O22 2.339464 1_555
Ce3 O2 2.425309 1_555
Ce3 O13 2.426120 1_555
Ce3 O11 2.443776 1_655
Ce3 O5 2.455921 1_655
Ce3 O20 2.464177 1_555
Ce3 O17 2.510133 1_555
Ce3 O8 2.541205 1_555
Mo0 O2 1.788410 1_565
Mo0 O3 1.790111 1_555
Mo0 O23 1.800013 1_565
Mo0 O20 1.860662 1_555
Mo1 O4 1.788410 1_456
Mo1 O0 1.790111 1_555
Mo1 O18 1.800013 1_455
Mo1 O21 1.860662 1_555
Mo2 O22 1.825244 1_555
Mo2 O19 1.825244 1_555
Mo2 O5 1.885903 1_555
Mo2 O1 1.885903 1_555
Mo3 O14 1.788410 1_545
Mo3 O16 1.790111 1_555
Mo3 O11 1.800013 1_545
Mo3 O8 1.860662 1_555
Mo4 O9 1.825244 1_555
Mo4 O6 1.825244 1_555
Mo4 O12 1.885903 1_555
Mo4 O17 1.885903 1_555
Mo5 O15 1.788410 1_654
Mo5 O13 1.790111 1_555
Mo5 O7 1.800013 1_655
Mo5 O10 1.860662 1_555
