# generated using pymatgen
data_SrCrGe2
_symmetry_space_group_name_H-M   'P 1'
_cell_length_a   8.56502700
_cell_length_b   10.63875800
_cell_length_c   11.41642700
_cell_angle_alpha   90.00000000
_cell_angle_beta   90.00000000
_cell_angle_gamma   90.00000000
_symmetry_Int_Tables_number   1
_chemical_formula_structural   SrCrGe2
_chemical_formula_sum   'Sr12 Cr12 Ge24'
_cell_volume   1040.27909325
_cell_formula_units_Z   12
loop_
 _symmetry_equiv_pos_site_id
 _symmetry_equiv_pos_as_xyz
  1  'x, y, z'
loop_
 _atom_site_type_symbol
 _atom_site_label
 _atom_site_symmetry_multiplicity
 _atom_site_fract_x
 _atom_site_fract_y
 _atom_site_fract_z
 _atom_site_occupancy
  Sr  Sr0  1  0.00000000  0.32545800  0.31852100  1
  Sr  Sr1  1  0.00000000  0.67454200  0.68147900  1
  Sr  Sr2  1  0.00000000  0.17454200  0.81852100  1
  Sr  Sr3  1  0.00000000  0.82545800  0.18147900  1
  Sr  Sr4  1  0.26143300  0.32800900  0.04580500  1
  Sr  Sr5  1  0.73856700  0.67199100  0.95419500  1
  Sr  Sr6  1  0.26143300  0.67199100  0.95419500  1
  Sr  Sr7  1  0.73856700  0.17199100  0.54580500  1
  Sr  Sr8  1  0.73856700  0.32800900  0.04580500  1
  Sr  Sr9  1  0.26143300  0.82800900  0.45419500  1
  Sr  Sr10  1  0.73856700  0.82800900  0.45419500  1
  Sr  Sr11  1  0.26143300  0.17199100  0.54580500  1
  Cr  Cr0  1  0.24525300  0.00000000  0.00000000  1
  Cr  Cr1  1  0.75474700  0.00000000  0.00000000  1
  Cr  Cr2  1  0.75474700  0.50000000  0.50000000  1
  Cr  Cr3  1  0.24525300  0.50000000  0.50000000  1
  Cr  Cr4  1  0.23822400  0.08050800  0.24512900  1
  Cr  Cr5  1  0.76177600  0.91949200  0.75487100  1
  Cr  Cr6  1  0.23822400  0.91949200  0.75487100  1
  Cr  Cr7  1  0.76177600  0.41949200  0.74512900  1
  Cr  Cr8  1  0.76177600  0.08050800  0.24512900  1
  Cr  Cr9  1  0.23822400  0.58050800  0.25487100  1
  Cr  Cr10  1  0.76177600  0.58050800  0.25487100  1
  Cr  Cr11  1  0.23822400  0.41949200  0.74512900  1
  Ge  Ge0  1  0.50000000  0.03892100  0.33881800  1
  Ge  Ge1  1  0.50000000  0.96107900  0.66118200  1
  Ge  Ge2  1  0.50000000  0.46107900  0.83881800  1
  Ge  Ge3  1  0.50000000  0.53892100  0.16118200  1
  Ge  Ge4  1  0.00000000  0.11404700  0.10162100  1
  Ge  Ge5  1  0.00000000  0.88595300  0.89837900  1
  Ge  Ge6  1  0.00000000  0.38595300  0.60162100  1
  Ge  Ge7  1  0.00000000  0.61404700  0.39837900  1
  Ge  Ge8  1  0.50000000  0.08737700  0.10416600  1
  Ge  Ge9  1  0.50000000  0.91262300  0.89583400  1
  Ge  Ge10  1  0.50000000  0.41262300  0.60416600  1
  Ge  Ge11  1  0.50000000  0.58737700  0.39583400  1
  Ge  Ge12  1  0.00000000  0.03426900  0.38174600  1
  Ge  Ge13  1  0.00000000  0.96573100  0.61825400  1
  Ge  Ge14  1  0.00000000  0.46573100  0.88174600  1
  Ge  Ge15  1  0.00000000  0.53426900  0.11825400  1
  Ge  Ge16  1  0.34948200  0.35019800  0.32329600  1
  Ge  Ge17  1  0.65051800  0.64980200  0.67670400  1
  Ge  Ge18  1  0.34948200  0.64980200  0.67670400  1
  Ge  Ge19  1  0.65051800  0.14980200  0.82329600  1
  Ge  Ge20  1  0.65051800  0.35019800  0.32329600  1
  Ge  Ge21  1  0.34948200  0.85019800  0.17670400  1
  Ge  Ge22  1  0.65051800  0.85019800  0.17670400  1
  Ge  Ge23  1  0.34948200  0.14980200  0.82329600  1
loop_
_geom_bond_atom_site_label_1
_geom_bond_atom_site_label_2
_geom_bond_distance
_geom_bond_site_symmetry_2
Cr0 Ge8 2.653127 1_555
Cr0 Ge9 2.653127 1_544
Cr0 Ge5 2.688978 1_544
Cr0 Ge4 2.688978 1_555
Cr0 Ge23 2.721484 1_554
Cr0 Ge21 2.721484 1_545
Cr0 Cr4 2.927253 1_555
Cr0 Cr6 2.927253 1_544
Cr1 Ge9 2.653127 1_544
Cr1 Ge8 2.653127 1_555
Cr1 Ge4 2.688978 1_655
Cr1 Ge5 2.688978 1_644
Cr1 Ge19 2.721484 1_554
Cr1 Ge22 2.721484 1_545
Cr1 Cr8 2.927253 1_555
Cr1 Cr5 2.927253 1_544
Cr2 Ge11 2.653127 1_555
Cr2 Ge10 2.653127 1_555
Cr2 Ge7 2.688978 1_655
Cr2 Ge6 2.688978 1_655
Cr2 Ge17 2.721484 1_555
Cr2 Ge20 2.721484 1_555
Cr2 Cr7 2.927253 1_555
Cr3 Ge11 2.653127 1_555
Cr3 Ge10 2.653127 1_555
Cr3 Ge6 2.688978 1_555
Cr3 Ge7 2.688978 1_555
Cr3 Ge18 2.721484 1_555
Cr3 Ge16 2.721484 1_555
Cr3 Cr9 2.927253 1_555
Cr4 Ge0 2.523266 1_555
Cr4 Ge12 2.614918 1_555
Cr4 Ge4 2.640968 1_555
Cr4 Ge21 2.742597 1_545
Cr4 Ge8 2.760844 1_555
Cr4 Ge16 3.152229 1_555
Cr4 Sr0 3.414131 1_555
Cr4 Sr3 3.471867 1_545
Cr4 Sr4 3.485822 1_555
Cr4 Sr11 3.573488 1_555
Cr4 Sr9 3.598937 1_545
Cr5 Ge1 2.523266 1_555
Cr5 Ge13 2.614918 1_655
Cr5 Ge5 2.640968 1_655
Cr5 Ge19 2.742597 1_565
Cr5 Ge9 2.760844 1_555
Cr5 Ge17 3.152229 1_555
Cr5 Sr1 3.414131 1_655
Cr5 Sr2 3.471867 1_665
Cr5 Sr5 3.485822 1_555
Cr5 Sr10 3.573488 1_555
Cr5 Sr7 3.598937 1_565
Cr6 Ge1 2.523266 1_555
Cr6 Ge13 2.614918 1_555
Cr6 Ge5 2.640968 1_555
Cr6 Ge23 2.742597 1_565
Cr6 Ge9 2.760844 1_555
Cr6 Ge18 3.152229 1_555
Cr6 Sr1 3.414131 1_555
Cr6 Sr2 3.471867 1_565
Cr6 Sr6 3.485822 1_555
Cr6 Sr9 3.573488 1_555
Cr6 Sr11 3.598937 1_565
Cr7 Ge2 2.523266 1_555
Cr7 Ge14 2.614918 1_655
Cr7 Ge6 2.640968 1_655
Cr7 Ge17 2.742597 1_555
Cr7 Ge10 2.760844 1_555
Cr7 Ge19 3.152229 1_555
Cr7 Sr2 3.414131 1_655
Cr7 Sr1 3.471867 1_655
Cr7 Sr7 3.485822 1_555
Cr7 Sr8 3.573488 1_556
Cr7 Sr5 3.598937 1_555
Cr8 Ge0 2.523266 1_555
Cr8 Ge12 2.614918 1_655
Cr8 Ge4 2.640968 1_655
Cr8 Ge22 2.742597 1_545
Cr8 Ge8 2.760844 1_555
Cr8 Ge20 3.152229 1_555
Cr8 Sr0 3.414131 1_655
Cr8 Sr3 3.471867 1_645
Cr8 Sr8 3.485822 1_555
Cr8 Sr7 3.573488 1_555
Cr8 Sr10 3.598937 1_545
Cr9 Ge3 2.523266 1_555
Cr9 Ge15 2.614918 1_555
Cr9 Ge7 2.640968 1_555
Cr9 Ge16 2.742597 1_555
Cr9 Ge11 2.760844 1_555
Cr9 Ge21 3.152229 1_555
Cr9 Sr3 3.414131 1_555
Cr9 Sr0 3.471867 1_555
Cr9 Sr9 3.485822 1_555
Cr9 Sr6 3.573488 1_554
Cr9 Sr4 3.598937 1_555
Cr10 Ge3 2.523266 1_555
Cr10 Ge15 2.614918 1_655
Cr10 Ge7 2.640968 1_655
Cr10 Ge20 2.742597 1_555
Cr10 Ge11 2.760844 1_555
Cr10 Cr2 2.927253 1_555
Cr10 Ge22 3.152229 1_555
Cr10 Sr3 3.414131 1_655
Cr10 Sr0 3.471867 1_655
Cr10 Sr10 3.485822 1_555
Cr10 Sr5 3.573488 1_554
Cr10 Sr8 3.598937 1_555
Cr11 Ge2 2.523266 1_555
Cr11 Ge14 2.614918 1_555
Cr11 Ge6 2.640968 1_555
Cr11 Ge18 2.742597 1_555
Cr11 Ge10 2.760844 1_555
Cr11 Cr3 2.927253 1_555
Cr11 Ge23 3.152229 1_555
Cr11 Sr2 3.414131 1_555
Cr11 Sr1 3.471867 1_555
Cr11 Sr11 3.485822 1_555
Cr11 Sr4 3.573488 1_556
Cr11 Sr6 3.598937 1_555
Ge0 Sr9 3.308328 1_545
Ge0 Sr10 3.308328 1_545
Ge0 Sr7 3.429786 1_555
Ge0 Sr11 3.429786 1_555
Ge1 Sr7 3.308328 1_565
Ge1 Sr11 3.308328 1_565
Ge1 Sr9 3.429786 1_555
Ge1 Sr10 3.429786 1_555
Ge2 Sr6 3.308328 1_555
Ge2 Sr5 3.308328 1_555
Ge2 Sr4 3.429786 1_556
Ge2 Sr8 3.429786 1_556
Ge3 Sr4 3.308328 1_555
Ge3 Sr8 3.308328 1_555
Ge3 Sr6 3.429786 1_554
Ge3 Sr5 3.429786 1_554
Ge4 Sr3 3.202731 1_545
Ge4 Sr8 3.255991 1_455
Ge4 Sr4 3.255991 1_555
Ge4 Sr2 3.295447 1_554
Ge4 Sr0 3.345199 1_555
Ge5 Sr2 3.202731 1_565
Ge5 Sr5 3.255991 1_455
Ge5 Sr6 3.255991 1_555
Ge5 Sr3 3.295447 1_556
Ge5 Sr1 3.345199 1_555
Ge6 Sr1 3.202731 1_555
Ge6 Sr11 3.255991 1_555
Ge6 Sr7 3.255991 1_455
Ge6 Sr0 3.295447 1_555
Ge6 Sr2 3.345199 1_555
Ge7 Sr0 3.202731 1_555
Ge7 Sr9 3.255991 1_555
Ge7 Sr10 3.255991 1_455
Ge7 Sr1 3.295447 1_555
Ge7 Sr3 3.345199 1_555
Ge8 Sr4 3.342583 1_555
Ge8 Sr8 3.342583 1_555
Ge9 Sr6 3.342583 1_555
Ge9 Sr5 3.342583 1_555
Ge10 Sr7 3.342583 1_555
Ge10 Sr11 3.342583 1_555
Ge11 Sr9 3.342583 1_555
Ge11 Sr10 3.342583 1_555
Ge12 Ge13 2.796799 1_545
Ge12 Sr0 3.180868 1_555
Ge12 Sr3 3.187842 1_545
Ge12 Sr9 3.242408 1_545
Ge12 Sr10 3.242408 1_445
Ge12 Sr11 3.266301 1_555
Ge12 Sr7 3.266301 1_455
Ge13 Sr1 3.180868 1_555
Ge13 Sr2 3.187842 1_565
Ge13 Sr7 3.242408 1_465
Ge13 Sr11 3.242408 1_565
Ge13 Sr9 3.266301 1_555
Ge13 Sr10 3.266301 1_455
Ge14 Ge15 2.796799 1_556
Ge14 Sr2 3.180868 1_555
Ge14 Sr1 3.187842 1_555
Ge14 Sr6 3.242408 1_555
Ge14 Sr5 3.242408 1_455
Ge14 Sr4 3.266301 1_556
Ge14 Sr8 3.266301 1_456
Ge15 Sr3 3.180868 1_555
Ge15 Sr0 3.187842 1_555
Ge15 Sr4 3.242408 1_555
Ge15 Sr8 3.242408 1_455
Ge15 Sr5 3.266301 1_454
Ge15 Sr6 3.266301 1_554
Ge16 Ge20 2.578381 1_555
Ge16 Sr0 3.005367 1_555
Ge16 Sr11 3.258233 1_555
Ge16 Sr4 3.265027 1_555
Ge17 Ge18 2.578381 1_555
Ge17 Sr1 3.005367 1_655
Ge17 Sr10 3.258233 1_555
Ge17 Sr5 3.265027 1_555
Ge18 Sr1 3.005367 1_555
Ge18 Sr9 3.258233 1_555
Ge18 Sr6 3.265027 1_555
Ge19 Ge23 2.578381 1_555
Ge19 Sr2 3.005367 1_655
Ge19 Sr8 3.258233 1_556
Ge19 Sr7 3.265027 1_555
Ge20 Sr0 3.005367 1_655
Ge20 Sr7 3.258233 1_555
Ge20 Sr8 3.265027 1_555
Ge21 Ge22 2.578381 1_555
Ge21 Sr3 3.005367 1_555
Ge21 Sr6 3.258233 1_554
Ge21 Sr9 3.265027 1_555
Ge22 Sr3 3.005367 1_655
Ge22 Sr5 3.258233 1_554
Ge22 Sr10 3.265027 1_555
Ge23 Sr2 3.005367 1_555
Ge23 Sr4 3.258233 1_556
Ge23 Sr11 3.265027 1_555
