# generated using pymatgen
data_Hf3(CrGa2)2
_symmetry_space_group_name_H-M   'P 1'
_cell_length_a   5.25848800
_cell_length_b   13.53194200
_cell_length_c   16.70917900
_cell_angle_alpha   90.00000000
_cell_angle_beta   90.00000000
_cell_angle_gamma   90.00000000
_symmetry_Int_Tables_number   1
_chemical_formula_structural   Hf3(CrGa2)2
_chemical_formula_sum   'Hf24 Cr16 Ga32'
_cell_volume   1188.98431741
_cell_formula_units_Z   8
loop_
 _symmetry_equiv_pos_site_id
 _symmetry_equiv_pos_as_xyz
  1  'x, y, z'
loop_
 _atom_site_type_symbol
 _atom_site_label
 _atom_site_symmetry_multiplicity
 _atom_site_fract_x
 _atom_site_fract_y
 _atom_site_fract_z
 _atom_site_occupancy
  Hf  Hf0  1  0.25000000  0.35682000  0.46227900  1
  Hf  Hf1  1  0.25000000  0.14318000  0.96227900  1
  Hf  Hf2  1  0.75000000  0.64318000  0.53772100  1
  Hf  Hf3  1  0.75000000  0.85682000  0.03772100  1
  Hf  Hf4  1  0.25000000  0.96873100  0.43506200  1
  Hf  Hf5  1  0.25000000  0.53126900  0.93506200  1
  Hf  Hf6  1  0.75000000  0.03126900  0.56493800  1
  Hf  Hf7  1  0.75000000  0.46873100  0.06493800  1
  Hf  Hf8  1  0.25000000  0.73346700  0.44214400  1
  Hf  Hf9  1  0.25000000  0.76653300  0.94214400  1
  Hf  Hf10  1  0.75000000  0.26653300  0.55785600  1
  Hf  Hf11  1  0.75000000  0.23346700  0.05785600  1
  Hf  Hf12  1  0.25000000  0.97536000  0.67348300  1
  Hf  Hf13  1  0.25000000  0.52464000  0.17348300  1
  Hf  Hf14  1  0.75000000  0.02464000  0.32651700  1
  Hf  Hf15  1  0.75000000  0.47536000  0.82651700  1
  Hf  Hf16  1  0.25000000  0.81974900  0.15387800  1
  Hf  Hf17  1  0.25000000  0.68025100  0.65387800  1
  Hf  Hf18  1  0.75000000  0.18025100  0.84612200  1
  Hf  Hf19  1  0.75000000  0.31974900  0.34612200  1
  Hf  Hf20  1  0.25000000  0.18727900  0.28601300  1
  Hf  Hf21  1  0.25000000  0.31272100  0.78601300  1
  Hf  Hf22  1  0.75000000  0.81272100  0.71398700  1
  Hf  Hf23  1  0.75000000  0.68727900  0.21398700  1
  Cr  Cr0  1  0.01510100  0.96091600  0.87258900  1
  Cr  Cr1  1  0.48489900  0.53908400  0.37258900  1
  Cr  Cr2  1  0.51510100  0.03908400  0.12741100  1
  Cr  Cr3  1  0.98489900  0.46091600  0.62741100  1
  Cr  Cr4  1  0.98489900  0.03908400  0.12741100  1
  Cr  Cr5  1  0.51510100  0.46091600  0.62741100  1
  Cr  Cr6  1  0.48489900  0.96091600  0.87258900  1
  Cr  Cr7  1  0.01510100  0.53908400  0.37258900  1
  Cr  Cr8  1  0.02406700  0.83593900  0.31494900  1
  Cr  Cr9  1  0.47593300  0.66406100  0.81494900  1
  Cr  Cr10  1  0.52406700  0.16406100  0.68505100  1
  Cr  Cr11  1  0.97593300  0.33593900  0.18505100  1
  Cr  Cr12  1  0.97593300  0.16406100  0.68505100  1
  Cr  Cr13  1  0.52406700  0.33593900  0.18505100  1
  Cr  Cr14  1  0.47593300  0.83593900  0.31494900  1
  Cr  Cr15  1  0.02406700  0.66406100  0.81494900  1
  Ga  Ga0  1  0.25000000  0.12593100  0.56058000  1
  Ga  Ga1  1  0.25000000  0.37406900  0.06058000  1
  Ga  Ga2  1  0.75000000  0.87406900  0.43942000  1
  Ga  Ga3  1  0.75000000  0.62593100  0.93942000  1
  Ga  Ga4  1  0.25000000  0.94856300  0.01688200  1
  Ga  Ga5  1  0.25000000  0.55143700  0.51688200  1
  Ga  Ga6  1  0.75000000  0.05143700  0.98311800  1
  Ga  Ga7  1  0.75000000  0.44856300  0.48311800  1
  Ga  Ga8  1  0.25000000  0.10619800  0.80272500  1
  Ga  Ga9  1  0.25000000  0.39380200  0.30272500  1
  Ga  Ga10  1  0.75000000  0.89380200  0.19727500  1
  Ga  Ga11  1  0.75000000  0.60619800  0.69727500  1
  Ga  Ga12  1  0.25000000  0.19590400  0.12217700  1
  Ga  Ga13  1  0.25000000  0.30409600  0.62217700  1
  Ga  Ga14  1  0.75000000  0.80409600  0.87782300  1
  Ga  Ga15  1  0.75000000  0.69590400  0.37782300  1
  Ga  Ga16  1  0.25000000  0.82652800  0.78401800  1
  Ga  Ga17  1  0.25000000  0.67347200  0.28401800  1
  Ga  Ga18  1  0.75000000  0.17347200  0.21598200  1
  Ga  Ga19  1  0.75000000  0.32652800  0.71598200  1
  Ga  Ga20  1  0.25000000  0.98645300  0.25626000  1
  Ga  Ga21  1  0.25000000  0.51354700  0.75626000  1
  Ga  Ga22  1  0.75000000  0.01354700  0.74374000  1
  Ga  Ga23  1  0.75000000  0.48645300  0.24374000  1
  Ga  Ga24  1  0.99437700  0.16033700  0.43098900  1
  Ga  Ga25  1  0.50562300  0.33966300  0.93098900  1
  Ga  Ga26  1  0.49437700  0.83966300  0.56901100  1
  Ga  Ga27  1  0.00562300  0.66033700  0.06901100  1
  Ga  Ga28  1  0.00562300  0.83966300  0.56901100  1
  Ga  Ga29  1  0.49437700  0.66033700  0.06901100  1
  Ga  Ga30  1  0.50562300  0.16033700  0.43098900  1
  Ga  Ga31  1  0.99437700  0.33966300  0.93098900  1
loop_
_geom_bond_atom_site_label_1
_geom_bond_atom_site_label_2
_geom_bond_distance
_geom_bond_site_symmetry_2
Cr0 Cr6 2.470427 1_555
Cr0 Ga14 2.540510 1_455
Cr0 Ga8 2.598741 1_565
Cr0 Ga6 2.618132 1_465
Cr0 Ga16 2.650105 1_555
Cr0 Ga22 2.661915 1_465
Cr0 Ga4 2.714167 1_556
Cr1 Cr7 2.470427 1_555
Cr1 Ga15 2.540510 1_555
Cr1 Ga9 2.598741 1_555
Cr1 Ga7 2.618132 1_555
Cr1 Ga17 2.650105 1_555
Cr1 Ga23 2.661915 1_555
Cr1 Ga5 2.714167 1_555
Cr2 Cr4 2.470427 1_555
Cr2 Ga12 2.540510 1_555
Cr2 Ga10 2.598741 1_545
Cr2 Ga4 2.618132 1_545
Cr2 Ga18 2.650105 1_555
Cr2 Ga20 2.661915 1_545
Cr2 Ga6 2.714167 1_554
Cr3 Cr5 2.470427 1_555
Cr3 Ga13 2.540510 1_655
Cr3 Ga11 2.598741 1_555
Cr3 Ga5 2.618132 1_655
Cr3 Ga19 2.650105 1_555
Cr3 Ga21 2.661915 1_655
Cr3 Ga7 2.714167 1_555
Cr4 Ga12 2.540510 1_655
Cr4 Ga10 2.598741 1_545
Cr4 Ga4 2.618132 1_645
Cr4 Ga18 2.650105 1_555
Cr4 Ga20 2.661915 1_645
Cr4 Ga6 2.714167 1_554
Cr5 Ga13 2.540510 1_555
Cr5 Ga11 2.598741 1_555
Cr5 Ga5 2.618132 1_555
Cr5 Ga19 2.650105 1_555
Cr5 Ga21 2.661915 1_555
Cr5 Ga7 2.714167 1_555
Cr6 Ga14 2.540510 1_555
Cr6 Ga8 2.598741 1_565
Cr6 Ga6 2.618132 1_565
Cr6 Ga16 2.650105 1_555
Cr6 Ga22 2.661915 1_565
Cr6 Ga4 2.714167 1_556
Cr7 Ga15 2.540510 1_455
Cr7 Ga9 2.598741 1_555
Cr7 Ga7 2.618132 1_455
Cr7 Ga17 2.650105 1_555
Cr7 Ga23 2.661915 1_455
Cr7 Ga5 2.714167 1_555
Cr8 Ga17 2.551860 1_555
Cr8 Ga20 2.553723 1_555
Cr8 Ga10 2.560501 1_455
Cr8 Ga2 2.582407 1_455
Cr8 Ga15 2.602214 1_455
Cr8 Hf8 2.802015 1_555
Cr8 Hf14 2.938481 1_465
Cr8 Hf4 2.944228 1_555
Cr8 Hf16 2.950074 1_555
Cr8 Hf23 2.994947 1_455
Cr9 Ga16 2.551860 1_555
Cr9 Ga21 2.553723 1_555
Cr9 Ga11 2.560501 1_555
Cr9 Ga3 2.582407 1_555
Cr9 Ga14 2.602214 1_555
Cr9 Hf9 2.802015 1_555
Cr9 Hf15 2.938481 1_555
Cr9 Hf5 2.944228 1_555
Cr9 Hf17 2.950074 1_555
Cr9 Hf22 2.994947 1_555
Cr10 Cr12 2.376132 1_555
Cr10 Ga19 2.551860 1_555
Cr10 Ga22 2.553723 1_555
Cr10 Ga8 2.560501 1_555
Cr10 Ga0 2.582407 1_555
Cr10 Ga13 2.602214 1_555
Cr10 Hf10 2.802015 1_555
Cr10 Cr12 2.882356 1_455
Cr10 Hf12 2.938481 1_545
Cr10 Hf6 2.944228 1_555
Cr10 Hf18 2.950074 1_555
Cr10 Hf21 2.994947 1_555
Cr11 Cr13 2.376132 1_555
Cr11 Ga18 2.551860 1_555
Cr11 Ga23 2.553723 1_555
Cr11 Ga9 2.560501 1_655
Cr11 Ga1 2.582407 1_655
Cr11 Ga12 2.602214 1_655
Cr11 Hf11 2.802015 1_555
Cr11 Cr13 2.882356 1_655
Cr11 Hf13 2.938481 1_655
Cr11 Hf7 2.944228 1_555
Cr11 Hf19 2.950074 1_555
Cr11 Hf20 2.994947 1_655
Cr12 Ga19 2.551860 1_555
Cr12 Ga22 2.553723 1_555
Cr12 Ga8 2.560501 1_655
Cr12 Ga0 2.582407 1_655
Cr12 Ga13 2.602214 1_655
Cr12 Hf10 2.802015 1_555
Cr12 Hf12 2.938481 1_645
Cr12 Hf6 2.944228 1_555
Cr12 Hf18 2.950074 1_555
Cr12 Hf21 2.994947 1_655
Cr13 Ga18 2.551860 1_555
Cr13 Ga23 2.553723 1_555
Cr13 Ga9 2.560501 1_555
Cr13 Ga1 2.582407 1_555
Cr13 Ga12 2.602214 1_555
Cr13 Hf11 2.802015 1_555
Cr13 Hf13 2.938481 1_555
Cr13 Hf7 2.944228 1_555
Cr13 Hf19 2.950074 1_555
Cr13 Hf20 2.994947 1_555
Cr14 Cr8 2.376132 1_555
Cr14 Ga17 2.551860 1_555
Cr14 Ga20 2.553723 1_555
Cr14 Ga10 2.560501 1_555
Cr14 Ga2 2.582407 1_555
Cr14 Ga15 2.602214 1_555
Cr14 Hf8 2.802015 1_555
Cr14 Cr8 2.882356 1_655
Cr14 Hf14 2.938481 1_565
Cr14 Hf4 2.944228 1_555
Cr14 Hf16 2.950074 1_555
Cr14 Hf23 2.994947 1_555
Cr15 Cr9 2.376132 1_555
Cr15 Ga16 2.551860 1_555
Cr15 Ga21 2.553723 1_555
Cr15 Ga11 2.560501 1_455
Cr15 Ga3 2.582407 1_455
Cr15 Ga14 2.602214 1_455
Cr15 Hf9 2.802015 1_555
Cr15 Cr9 2.882356 1_455
Cr15 Hf15 2.938481 1_455
Cr15 Hf5 2.944228 1_555
Cr15 Hf17 2.950074 1_555
Cr15 Hf22 2.994947 1_455
Ga0 Ga30 2.590829 1_555
Ga0 Ga24 2.590829 1_455
Ga0 Ga13 2.621422 1_555
Ga0 Hf12 2.776765 1_545
Ga0 Hf6 2.925592 1_555
Ga0 Hf6 2.925592 1_455
Ga0 Hf4 2.987264 1_545
Ga0 Hf10 3.245759 1_555
Ga0 Hf10 3.245759 1_455
Ga1 Ga31 2.590829 1_454
Ga1 Ga25 2.590829 1_554
Ga1 Ga12 2.621422 1_555
Ga1 Hf13 2.776765 1_555
Ga1 Hf7 2.925592 1_455
Ga1 Hf7 2.925592 1_555
Ga1 Hf5 2.987264 1_554
Ga1 Hf11 3.245759 1_455
Ga1 Hf11 3.245759 1_555
Ga2 Ga26 2.590829 1_555
Ga2 Ga28 2.590829 1_655
Ga2 Hf14 2.776765 1_565
Ga2 Hf4 2.925592 1_655
Ga2 Hf4 2.925592 1_555
Ga2 Hf6 2.987264 1_565
Ga2 Hf8 3.245759 1_655
Ga2 Hf8 3.245759 1_555
Ga3 Hf15 2.776765 1_555
Ga3 Hf5 2.925592 1_655
Ga3 Hf5 2.925592 1_555
Ga3 Hf7 2.987264 1_556
Ga3 Hf9 3.245759 1_555
Ga3 Hf9 3.245759 1_655
Ga4 Hf9 2.761698 1_554
Ga4 Hf1 2.787111 1_564
Ga4 Hf16 2.877212 1_555
Ga4 Hf3 2.928377 1_455
Ga4 Hf3 2.928377 1_555
Ga5 Hf8 2.761698 1_555
Ga5 Hf0 2.787111 1_555
Ga5 Hf17 2.877212 1_555
Ga5 Hf2 2.928377 1_455
Ga5 Hf2 2.928377 1_555
Ga6 Hf11 2.761698 1_556
Ga6 Hf3 2.787111 1_546
Ga6 Hf18 2.877212 1_555
Ga6 Hf1 2.928377 1_655
Ga6 Hf1 2.928377 1_555
Ga7 Hf10 2.761698 1_555
Ga7 Hf2 2.787111 1_555
Ga7 Hf19 2.877212 1_555
Ga7 Hf0 2.928377 1_655
Ga7 Hf0 2.928377 1_555
Ga8 Hf1 2.712578 1_555
Ga8 Hf12 2.792526 1_545
Ga8 Hf21 2.808574 1_555
Ga8 Hf18 2.905667 1_455
Ga8 Hf18 2.905667 1_555
Ga9 Hf0 2.712578 1_555
Ga9 Hf13 2.792526 1_555
Ga9 Hf20 2.808574 1_555
Ga9 Hf19 2.905667 1_555
Ga9 Hf19 2.905667 1_455
Ga10 Hf3 2.712578 1_555
Ga10 Hf14 2.792526 1_565
Ga10 Hf23 2.808574 1_555
Ga10 Hf16 2.905667 1_555
Ga10 Hf16 2.905667 1_655
Ga11 Hf2 2.712578 1_555
Ga11 Hf15 2.792526 1_555
Ga11 Hf22 2.808574 1_555
Ga11 Hf17 2.905667 1_655
Ga11 Hf17 2.905667 1_555
Ga12 Hf20 2.740052 1_555
Ga12 Hf1 2.765384 1_554
Ga12 Hf11 2.885547 1_555
Ga12 Hf11 2.885547 1_455
Ga13 Hf21 2.740052 1_555
Ga13 Hf0 2.765384 1_555
Ga13 Hf10 2.885547 1_455
Ga13 Hf10 2.885547 1_555
Ga14 Ga3 2.621422 1_555
Ga14 Hf22 2.740052 1_555
Ga14 Hf3 2.765384 1_556
Ga14 Hf9 2.885547 1_655
Ga14 Hf9 2.885547 1_555
Ga15 Ga2 2.621422 1_555
Ga15 Hf23 2.740052 1_555
Ga15 Hf2 2.765384 1_555
Ga15 Hf8 2.885547 1_555
Ga15 Hf8 2.885547 1_655
Ga16 Hf12 2.732647 1_555
Ga16 Hf9 2.764070 1_555
Ga16 Hf22 2.883940 1_455
Ga16 Hf22 2.883940 1_555
Ga16 Hf17 2.940521 1_555
Ga17 Hf13 2.732647 1_555
Ga17 Hf8 2.764070 1_555
Ga17 Hf23 2.883940 1_455
Ga17 Hf23 2.883940 1_555
Ga17 Hf16 2.940521 1_555
Ga18 Hf14 2.732647 1_555
Ga18 Hf11 2.764070 1_555
Ga18 Hf20 2.883940 1_555
Ga18 Hf20 2.883940 1_655
Ga18 Hf19 2.940521 1_555
Ga19 Hf15 2.732647 1_555
Ga19 Hf10 2.764070 1_555
Ga19 Hf21 2.883940 1_655
Ga19 Hf21 2.883940 1_555
Ga19 Hf18 2.940521 1_555
Ga20 Hf20 2.762665 1_565
Ga20 Hf16 2.831135 1_555
Ga20 Hf14 2.925419 1_465
Ga20 Hf14 2.925419 1_565
Ga20 Hf4 2.997244 1_555
Ga21 Hf21 2.762665 1_555
Ga21 Hf17 2.831135 1_555
Ga21 Hf15 2.925419 1_555
Ga21 Hf15 2.925419 1_455
Ga21 Hf5 2.997244 1_555
Ga22 Hf22 2.762665 1_545
Ga22 Hf18 2.831135 1_555
Ga22 Hf12 2.925419 1_545
Ga22 Hf12 2.925419 1_645
Ga22 Hf6 2.997244 1_555
Ga23 Hf23 2.762665 1_555
Ga23 Hf19 2.831135 1_555
Ga23 Hf13 2.925419 1_555
Ga23 Hf13 2.925419 1_655
Ga23 Hf7 2.997244 1_555
Ga24 Ga30 2.570107 1_555
Ga24 Ga30 2.688381 1_655
Ga24 Hf20 2.794268 1_655
Ga24 Hf14 2.840848 1_555
Ga24 Hf10 2.865341 1_555
Ga24 Hf19 2.883672 1_555
Ga24 Hf4 2.921318 1_645
Ga24 Hf0 3.024797 1_655
Ga24 Hf6 3.116281 1_555
Ga25 Ga31 2.570107 1_555
Ga25 Ga31 2.688381 1_455
Ga25 Hf21 2.794268 1_555
Ga25 Hf15 2.840848 1_555
Ga25 Hf11 2.865341 1_556
Ga25 Hf18 2.883672 1_555
Ga25 Hf5 2.921318 1_555
Ga25 Hf1 3.024797 1_555
Ga25 Hf7 3.116281 1_556
Ga26 Ga28 2.570107 1_555
Ga26 Ga28 2.688381 1_655
Ga26 Hf22 2.794268 1_555
Ga26 Hf12 2.840848 1_555
Ga26 Hf8 2.865341 1_555
Ga26 Hf17 2.883672 1_555
Ga26 Hf6 2.921318 1_565
Ga26 Hf2 3.024797 1_555
Ga26 Hf4 3.116281 1_555
Ga27 Ga29 2.570107 1_555
Ga27 Ga3 2.590829 1_454
Ga27 Ga29 2.688381 1_455
Ga27 Hf23 2.794268 1_455
Ga27 Hf13 2.840848 1_555
Ga27 Hf9 2.865341 1_554
Ga27 Hf16 2.883672 1_555
Ga27 Hf7 2.921318 1_455
Ga27 Hf3 3.024797 1_455
Ga27 Hf5 3.116281 1_554
Ga28 Hf22 2.794268 1_455
Ga28 Hf12 2.840848 1_555
Ga28 Hf8 2.865341 1_555
Ga28 Hf17 2.883672 1_555
Ga28 Hf6 2.921318 1_465
Ga28 Hf2 3.024797 1_455
Ga28 Hf4 3.116281 1_555
Ga29 Ga3 2.590829 1_554
Ga29 Hf23 2.794268 1_555
Ga29 Hf13 2.840848 1_555
Ga29 Hf9 2.865341 1_554
Ga29 Hf16 2.883672 1_555
Ga29 Hf7 2.921318 1_555
Ga29 Hf3 3.024797 1_555
Ga29 Hf5 3.116281 1_554
Ga30 Hf20 2.794268 1_555
Ga30 Hf14 2.840848 1_555
Ga30 Hf10 2.865341 1_555
Ga30 Hf19 2.883672 1_555
Ga30 Hf4 2.921318 1_545
Ga30 Hf0 3.024797 1_555
Ga30 Hf6 3.116281 1_555
Ga31 Hf21 2.794268 1_655
Ga31 Hf15 2.840848 1_555
Ga31 Hf11 2.865341 1_556
Ga31 Hf18 2.883672 1_555
Ga31 Hf5 2.921318 1_655
Ga31 Hf1 3.024797 1_655
Ga31 Hf7 3.116281 1_556
