# generated using pymatgen
data_KMg6P7O24
_symmetry_space_group_name_H-M   'P 1'
_cell_length_a   26.69390000
_cell_length_b   5.32663200
_cell_length_c   6.45144820
_cell_angle_alpha   72.64016610
_cell_angle_beta   90.00000000
_cell_angle_gamma   90.00000000
_symmetry_Int_Tables_number   1
_chemical_formula_structural   KMg6P7O24
_chemical_formula_sum   'K2 Mg12 P14 O48'
_cell_volume   875.53799498
_cell_formula_units_Z   2
loop_
 _symmetry_equiv_pos_site_id
 _symmetry_equiv_pos_as_xyz
  1  'x, y, z'
loop_
 _atom_site_type_symbol
 _atom_site_label
 _atom_site_symmetry_multiplicity
 _atom_site_fract_x
 _atom_site_fract_y
 _atom_site_fract_z
 _atom_site_occupancy
  K  K0  1  0.75000000  0.73942200  0.37530900  1
  K  K1  1  0.25000000  0.26057800  0.62469100  1
  Mg  Mg0  1  0.59620800  0.80475000  0.09297200  1
  Mg  Mg1  1  0.09620800  0.19525000  0.90702800  1
  Mg  Mg2  1  0.40379200  0.19525000  0.90702800  1
  Mg  Mg3  1  0.90379200  0.80475000  0.09297200  1
  Mg  Mg4  1  0.54905800  0.20537900  0.31170100  1
  Mg  Mg5  1  0.04905800  0.79462100  0.68829900  1
  Mg  Mg6  1  0.45094200  0.79462100  0.68829900  1
  Mg  Mg7  1  0.95094200  0.20537900  0.31170100  1
  Mg  Mg8  1  0.68276300  0.13658600  0.73322000  1
  Mg  Mg9  1  0.18276300  0.86341400  0.26678000  1
  Mg  Mg10  1  0.31723700  0.86341400  0.26678000  1
  Mg  Mg11  1  0.81723700  0.13658600  0.73322000  1
  P  P0  1  0.60946700  0.69794300  0.62754200  1
  P  P1  1  0.10946700  0.30205700  0.37245800  1
  P  P2  1  0.39053300  0.30205700  0.37245800  1
  P  P3  1  0.89053300  0.69794300  0.62754200  1
  P  P4  1  0.52487100  0.29839900  0.79656400  1
  P  P5  1  0.02487100  0.70160100  0.20343600  1
  P  P6  1  0.47512900  0.70160100  0.20343600  1
  P  P7  1  0.97512900  0.29839900  0.79656400  1
  P  P8  1  0.66735500  0.26494200  0.20151100  1
  P  P9  1  0.16735500  0.73505800  0.79848900  1
  P  P10  1  0.33264500  0.73505800  0.79848900  1
  P  P11  1  0.83264500  0.26494200  0.20151100  1
  P  P12  1  0.75000000  0.55697400  0.90993900  1
  P  P13  1  0.25000000  0.44302600  0.09006100  1
  O  O0  1  0.66595200  0.07427900  0.06374200  1
  O  O1  1  0.16595200  0.92572100  0.93625800  1
  O  O2  1  0.33404800  0.92572100  0.93625800  1
  O  O3  1  0.83404800  0.07427900  0.06374200  1
  O  O4  1  0.64795700  0.49035000  0.63049200  1
  O  O5  1  0.14795700  0.50965000  0.36950800  1
  O  O6  1  0.35204300  0.50965000  0.36950800  1
  O  O7  1  0.85204300  0.49035000  0.63049200  1
  O  O8  1  0.59520000  0.87117600  0.39760300  1
  O  O9  1  0.09520000  0.12882400  0.60239700  1
  O  O10  1  0.40480000  0.12882400  0.60239700  1
  O  O11  1  0.90480000  0.87117600  0.39760300  1
  O  O12  1  0.47282700  0.40726200  0.82506700  1
  O  O13  1  0.97282700  0.59273800  0.17493300  1
  O  O14  1  0.52717300  0.59273800  0.17493300  1
  O  O15  1  0.02717300  0.40726200  0.82506700  1
  O  O16  1  0.61818700  0.41049200  0.20772800  1
  O  O17  1  0.11818700  0.58950800  0.79227200  1
  O  O18  1  0.38181300  0.58950800  0.79227200  1
  O  O19  1  0.88181300  0.41049200  0.20772800  1
  O  O20  1  0.69323600  0.15107500  0.41763200  1
  O  O21  1  0.19323600  0.84892500  0.58236800  1
  O  O22  1  0.30676400  0.84892500  0.58236800  1
  O  O23  1  0.80676400  0.15107500  0.41763200  1
  O  O24  1  0.75000000  0.35836200  0.78248200  1
  O  O25  1  0.25000000  0.64163800  0.21751800  1
  O  O26  1  0.55698700  0.56633200  0.72578000  1
  O  O27  1  0.05698700  0.43366800  0.27422000  1
  O  O28  1  0.44301300  0.43366800  0.27422000  1
  O  O29  1  0.94301300  0.56633200  0.72578000  1
  O  O30  1  0.70323700  0.51418800  0.06759100  1
  O  O31  1  0.20323700  0.48581200  0.93240900  1
  O  O32  1  0.29676300  0.48581200  0.93240900  1
  O  O33  1  0.79676300  0.51418800  0.06759100  1
  O  O34  1  0.52594600  0.16190600  0.62001100  1
  O  O35  1  0.02594600  0.83809400  0.37998900  1
  O  O36  1  0.47405400  0.83809400  0.37998900  1
  O  O37  1  0.97405400  0.16190600  0.62001100  1
  O  O38  1  0.54786100  0.12998700  0.01231500  1
  O  O39  1  0.04786100  0.87001300  0.98768500  1
  O  O40  1  0.45213900  0.87001300  0.98768500  1
  O  O41  1  0.95213900  0.12998700  0.01231500  1
  O  O42  1  0.75000000  0.84734900  0.78607600  1
  O  O43  1  0.25000000  0.15265100  0.21392400  1
  O  O44  1  0.62354500  0.86582200  0.77718200  1
  O  O45  1  0.12354500  0.13417800  0.22281800  1
  O  O46  1  0.37645500  0.13417800  0.22281800  1
  O  O47  1  0.87645500  0.86582200  0.77718200  1
loop_
_geom_bond_atom_site_label_1
_geom_bond_atom_site_label_2
_geom_bond_distance
_geom_bond_site_symmetry_2
K0 O23 2.745152 1_565
K0 O20 2.745152 1_565
K0 O24 2.799740 1_555
K0 O42 2.874429 1_555
K0 O30 2.891369 1_555
K0 O33 2.891369 1_555
K0 O3 3.180550 1_565
K0 O0 3.180550 1_565
K0 O7 3.253745 1_555
K0 O4 3.253745 1_555
K1 O22 2.745152 1_545
K1 O21 2.745152 1_545
K1 O25 2.799740 1_555
K1 O43 2.874429 1_555
K1 O31 2.891369 1_555
K1 O32 2.891369 1_555
K1 O1 3.180550 1_545
K1 O2 3.180550 1_545
K1 O5 3.253745 1_555
K1 O6 3.253745 1_555
Mg0 O16 2.091606 1_555
Mg0 O44 2.096054 1_554
Mg0 O38 2.097538 1_565
Mg0 O8 2.098411 1_555
Mg0 O14 2.143492 1_555
Mg0 O0 2.324061 1_565
Mg1 O17 2.091606 1_555
Mg1 O45 2.096054 1_556
Mg1 O39 2.097538 1_545
Mg1 O9 2.098411 1_555
Mg1 O15 2.143492 1_555
Mg1 O1 2.324061 1_545
Mg2 O18 2.091606 1_555
Mg2 O46 2.096054 1_556
Mg2 O40 2.097538 1_545
Mg2 O10 2.098411 1_555
Mg2 O12 2.143492 1_555
Mg2 O2 2.324061 1_545
Mg3 O19 2.091606 1_555
Mg3 O47 2.096054 1_554
Mg3 O41 2.097538 1_565
Mg3 O11 2.098411 1_555
Mg3 O13 2.143492 1_555
Mg3 O3 2.324061 1_565
Mg4 O34 2.028718 1_555
Mg4 O14 2.071400 1_555
Mg4 O38 2.087042 1_555
Mg4 O8 2.098700 1_545
Mg4 O16 2.147444 1_555
Mg5 O35 2.028718 1_555
Mg5 O15 2.071400 1_555
Mg5 O39 2.087042 1_555
Mg5 O9 2.098700 1_565
Mg5 O17 2.147444 1_555
Mg6 O36 2.028718 1_555
Mg6 O12 2.071400 1_555
Mg6 O40 2.087042 1_555
Mg6 O10 2.098700 1_565
Mg6 O18 2.147444 1_555
Mg7 O37 2.028718 1_555
Mg7 O13 2.071400 1_555
Mg7 O41 2.087042 1_555
Mg7 O11 2.098700 1_545
Mg7 O19 2.147444 1_555
Mg8 O4 2.026839 1_555
Mg8 O20 2.033627 1_555
Mg8 O44 2.101251 1_545
Mg8 O0 2.106208 1_556
Mg8 O24 2.223045 1_555
Mg8 O42 2.323311 1_545
Mg9 O5 2.026839 1_555
Mg9 O21 2.033627 1_555
Mg9 O45 2.101251 1_565
Mg9 O1 2.106208 1_554
Mg9 O25 2.223045 1_555
Mg9 O43 2.323311 1_565
Mg10 O6 2.026839 1_555
Mg10 O22 2.033627 1_555
Mg10 O46 2.101251 1_565
Mg10 O2 2.106208 1_554
Mg10 O25 2.223045 1_555
Mg10 O43 2.323311 1_565
Mg11 O7 2.026839 1_555
Mg11 O23 2.033627 1_555
Mg11 O47 2.101251 1_545
Mg11 O3 2.106208 1_556
Mg11 O24 2.223045 1_555
Mg11 O42 2.323311 1_545
O0 P8 1.536708 1_555
O1 P9 1.536708 1_555
O2 P10 1.536708 1_555
O3 P11 1.536708 1_555
O4 P0 1.505385 1_555
O5 P1 1.505385 1_555
O6 P2 1.505385 1_555
O7 P3 1.505385 1_555
O8 P0 1.542806 1_555
O9 P1 1.542806 1_555
O10 P2 1.542806 1_555
O11 P3 1.542806 1_555
O12 P4 1.537444 1_555
O13 P5 1.537444 1_655
O14 P6 1.537444 1_555
O15 P7 1.537444 1_455
O16 P8 1.530967 1_555
O17 P9 1.530967 1_555
O18 P10 1.530967 1_555
O19 P11 1.530967 1_555
O20 P8 1.511480 1_555
O21 P9 1.511480 1_555
O22 P10 1.511480 1_555
O23 P11 1.511480 1_555
O24 P12 1.521345 1_555
O25 P13 1.521345 1_555
O26 P0 1.609506 1_555
O26 P4 1.609791 1_555
O27 P1 1.609506 1_555
O27 P5 1.609791 1_555
O28 P2 1.609506 1_555
O28 P6 1.609791 1_555
O29 P3 1.609506 1_555
O29 P7 1.609791 1_555
O30 P12 1.583128 1_554
O30 P8 1.655909 1_555
O31 P13 1.583128 1_556
O31 P9 1.655909 1_555
O32 P13 1.583128 1_556
O32 P10 1.655909 1_555
O33 P12 1.583128 1_554
O33 P11 1.655909 1_555
O34 P4 1.523474 1_555
O35 P5 1.523474 1_555
O36 P6 1.523474 1_555
O37 P7 1.523474 1_555
O38 P4 1.540662 1_554
O39 P5 1.540662 1_556
O40 P6 1.540662 1_556
O41 P7 1.540662 1_554
O42 P12 1.514377 1_555
O43 P13 1.514377 1_555
O44 P0 1.545321 1_555
O45 P1 1.545321 1_555
O46 P2 1.545321 1_555
O47 P3 1.545321 1_555
