# generated using pymatgen
data_Li4Sc3In(SiO3)8
_symmetry_space_group_name_H-M   'P 1'
_cell_length_a   5.42422200
_cell_length_b   6.74052809
_cell_length_c   13.16983305
_cell_angle_alpha   89.14250724
_cell_angle_beta   98.49498416
_cell_angle_gamma   104.95026753
_symmetry_Int_Tables_number   1
_chemical_formula_structural   Li4Sc3In(SiO3)8
_chemical_formula_sum   'Li4 Sc3 In1 Si8 O24'
_cell_volume   459.97875317
_cell_formula_units_Z   1
loop_
 _symmetry_equiv_pos_site_id
 _symmetry_equiv_pos_as_xyz
  1  'x, y, z'
loop_
 _atom_site_type_symbol
 _atom_site_label
 _atom_site_symmetry_multiplicity
 _atom_site_fract_x
 _atom_site_fract_y
 _atom_site_fract_z
 _atom_site_occupancy
  Li  Li0  1  0.12387100  0.74807400  0.87393600  1
  Li  Li1  1  0.62367500  0.74700100  0.37360000  1
  Li  Li2  1  0.37639900  0.25286900  0.62660500  1
  Li  Li3  1  0.87600400  0.25201400  0.12586000  1
  Sc  Sc0  1  0.30358300  0.10768600  0.05354100  1
  Sc  Sc1  1  0.69638500  0.89224900  0.94612700  1
  Sc  Sc2  1  0.19521900  0.89097600  0.44546300  1
  In  In0  1  0.80249200  0.10464600  0.55256900  1
  Si  Si0  1  0.82960400  0.61513400  0.60701200  1
  Si  Si1  1  0.32924400  0.61501000  0.10618200  1
  Si  Si2  1  0.08513500  0.21289700  0.80819900  1
  Si  Si3  1  0.58432000  0.21343800  0.30686900  1
  Si  Si4  1  0.67071500  0.38530200  0.89405400  1
  Si  Si5  1  0.17172500  0.38609000  0.39345000  1
  Si  Si6  1  0.41515100  0.78734400  0.69317900  1
  Si  Si7  1  0.91556200  0.78768700  0.19250600  1
  O  O0  1  0.11878900  0.63764900  0.67341400  1
  O  O1  1  0.61846200  0.63835100  0.17302500  1
  O  O2  1  0.87329800  0.34620900  0.81928200  1
  O  O3  1  0.37394800  0.34671500  0.31873900  1
  O  O4  1  0.38194700  0.36288300  0.82793500  1
  O  O5  1  0.88134900  0.36162300  0.32731100  1
  O  O6  1  0.62763800  0.65647000  0.68138700  1
  O  O7  1  0.12651000  0.65394700  0.18083700  1
  O  O8  1  0.70490600  0.38505300  0.56154700  1
  O  O9  1  0.21528400  0.38040700  0.06283900  1
  O  O10  1  0.04944800  0.12329000  0.69291100  1
  O  O11  1  0.53776700  0.12557700  0.18985900  1
  O  O12  1  0.78512800  0.61987300  0.93742500  1
  O  O13  1  0.28458600  0.62013700  0.43693800  1
  O  O14  1  0.46261400  0.87440200  0.81043300  1
  O  O15  1  0.96202700  0.87429000  0.30957300  1
  O  O16  1  0.86198200  0.79252900  0.51778500  1
  O  O17  1  0.36167600  0.79520200  0.01875200  1
  O  O18  1  0.05480900  0.03778400  0.89849600  1
  O  O19  1  0.55192300  0.03529800  0.39542600  1
  O  O20  1  0.63850300  0.20487800  0.98144900  1
  O  O21  1  0.14648900  0.20537800  0.48037100  1
  O  O22  1  0.43631400  0.96082400  0.60259000  1
  O  O23  1  0.94552200  0.96281400  0.10252400  1
loop_
_geom_bond_atom_site_label_1
_geom_bond_atom_site_label_2
_geom_bond_distance
_geom_bond_site_symmetry_2
Li0 O14 2.103816 1_555
Li0 O12 2.105947 1_455
Li0 O17 2.117092 1_556
Li0 O18 2.119085 1_565
Li1 O13 2.104869 1_555
Li1 O15 2.106797 1_555
Li1 O19 2.109601 1_565
Li1 O16 2.111501 1_555
Li2 O10 2.075106 1_555
Li2 O8 2.076578 1_555
Li2 O22 2.111843 1_545
Li2 O21 2.114140 1_555
Li3 O11 2.105082 1_555
Li3 O9 2.105389 1_655
Li3 O20 2.112034 1_554
Li3 O23 2.113785 1_545
In0 O8 2.099524 1_555
In0 O10 2.101173 1_655
In0 O22 2.166302 1_545
In0 O21 2.167468 1_655
In0 O16 2.272200 1_545
In0 O19 2.284495 1_555
O0 Si6 1.648446 1_555
O0 Si0 1.650507 1_455
O1 Si7 1.650672 1_555
O1 Si1 1.652138 1_555
O2 Si4 1.650298 1_555
O2 Si2 1.653879 1_655
O3 Si5 1.648833 1_555
O3 Si3 1.649070 1_555
O4 Si4 1.647227 1_555
O4 Si2 1.651087 1_555
O5 Si3 1.647891 1_555
O5 Si5 1.652778 1_655
O6 Si6 1.646920 1_555
O6 Si0 1.649210 1_555
O7 Si1 1.649518 1_555
O7 Si7 1.653436 1_455
O8 Si0 1.608762 1_555
O9 Si1 1.620808 1_555
O9 Sc0 2.025345 1_555
O10 Si2 1.608689 1_555
O11 Si3 1.619993 1_555
O11 Sc0 2.026043 1_555
O12 Si4 1.620924 1_555
O12 Sc1 2.023405 1_555
O13 Si5 1.617641 1_555
O13 Sc2 2.014747 1_555
O14 Si6 1.620788 1_555
O14 Sc1 2.018466 1_555
O15 Si7 1.617872 1_555
O15 Sc2 2.019715 1_655
O16 Si0 1.658935 1_555
O16 Sc2 2.117933 1_655
O17 Si1 1.655212 1_555
O17 Sc1 2.126131 1_554
O17 Sc0 2.271504 1_565
O18 Si2 1.658337 1_555
O18 Sc1 2.119783 1_445
O18 Sc0 2.258098 1_556
O19 Si3 1.656102 1_555
O19 Sc2 2.123811 1_545
O20 Si4 1.655955 1_555
O20 Sc0 2.123171 1_556
O20 Sc1 2.273648 1_545
O21 Si5 1.652706 1_555
O21 Sc2 2.264170 1_545
O22 Si6 1.653283 1_555
O22 Sc2 2.264064 1_555
O23 Si7 1.655371 1_555
O23 Sc0 2.124765 1_665
O23 Sc1 2.273813 1_554
