# generated using pymatgen
data_Mg2W3O8
_symmetry_space_group_name_H-M   'P 1'
_cell_length_a   6.28685261
_cell_length_b   6.28685261
_cell_length_c   4.91171922
_cell_angle_alpha   73.91167605
_cell_angle_beta   73.91167605
_cell_angle_gamma   55.20111293
_symmetry_Int_Tables_number   1
_chemical_formula_structural   Mg2W3O8
_chemical_formula_sum   'Mg2 W3 O8'
_cell_volume   151.41998503
_cell_formula_units_Z   1
loop_
 _symmetry_equiv_pos_site_id
 _symmetry_equiv_pos_as_xyz
  1  'x, y, z'
loop_
 _atom_site_type_symbol
 _atom_site_label
 _atom_site_symmetry_multiplicity
 _atom_site_fract_x
 _atom_site_fract_y
 _atom_site_fract_z
 _atom_site_occupancy
  Mg  Mg0  1  0.71778800  0.71778800  0.33500200  1
  Mg  Mg1  1  0.28221200  0.28221200  0.66499800  1
  W  W0  1  0.00000000  0.00000000  0.50000000  1
  W  W1  1  0.76940600  0.23059400  0.00000000  1
  W  W2  1  0.23059400  0.76940600  0.00000000  1
  O  O0  1  0.40499800  0.40499800  0.90101100  1
  O  O1  1  0.59500200  0.59500200  0.09898900  1
  O  O2  1  0.86310800  0.86310800  0.93892300  1
  O  O3  1  0.13689200  0.13689200  0.06107700  1
  O  O4  1  0.36072400  0.88178100  0.59213400  1
  O  O5  1  0.88178100  0.36072400  0.59213400  1
  O  O6  1  0.11821900  0.63927600  0.40786600  1
  O  O7  1  0.63927600  0.11821900  0.40786600  1
loop_
_geom_bond_atom_site_label_1
_geom_bond_atom_site_label_2
_geom_bond_distance
_geom_bond_site_symmetry_2
Mg0 O4 2.050832 1_555
Mg0 O5 2.050832 1_555
Mg0 O1 2.051257 1_555
Mg0 O2 2.106320 1_554
Mg0 O6 2.385880 1_655
Mg0 O7 2.385880 1_565
Mg1 O6 2.050832 1_555
Mg1 O7 2.050832 1_555
Mg1 O0 2.051257 1_555
Mg1 O3 2.106320 1_556
Mg1 O5 2.385880 1_455
Mg1 O4 2.385880 1_545
O0 W1 2.035180 1_556
O0 W2 2.035180 1_556
O1 W1 2.035180 1_555
O1 W2 2.035180 1_555
O2 W1 2.123065 1_566
O2 W2 2.123065 1_656
O2 W0 2.217621 1_665
O3 W1 2.123065 1_455
O3 W2 2.123065 1_545
O3 W0 2.217621 1_555
O4 W2 2.036823 1_556
O4 W0 2.087759 1_565
O5 W1 2.036823 1_556
O5 W0 2.087759 1_655
O6 W2 2.036823 1_555
O6 W0 2.087759 1_565
O7 W1 2.036823 1_555
O7 W0 2.087759 1_655
