# generated using pymatgen
data_LaU3
_symmetry_space_group_name_H-M   'P 1'
_cell_length_a   6.30459711
_cell_length_b   6.30459711
_cell_length_c   5.51458800
_cell_angle_alpha   90.00000000
_cell_angle_beta   90.00000000
_cell_angle_gamma   119.99999065
_symmetry_Int_Tables_number   1
_chemical_formula_structural   LaU3
_chemical_formula_sum   'La2 U6'
_cell_volume   189.82719093
_cell_formula_units_Z   2
loop_
 _symmetry_equiv_pos_site_id
 _symmetry_equiv_pos_as_xyz
  1  'x, y, z'
loop_
 _atom_site_type_symbol
 _atom_site_label
 _atom_site_symmetry_multiplicity
 _atom_site_fract_x
 _atom_site_fract_y
 _atom_site_fract_z
 _atom_site_occupancy
  La  La0  1  0.33333300  0.66666700  0.75000000  1
  La  La1  1  0.66666700  0.33333300  0.25000000  1
  U  U0  1  0.15141600  0.30283100  0.25000000  1
  U  U1  1  0.69716900  0.84858400  0.25000000  1
  U  U2  1  0.15141600  0.84858400  0.25000000  1
  U  U3  1  0.84858400  0.69716900  0.75000000  1
  U  U4  1  0.30283100  0.15141600  0.75000000  1
  U  U5  1  0.84858400  0.15141600  0.75000000  1
loop_
_geom_bond_atom_site_label_1
_geom_bond_atom_site_label_2
_geom_bond_distance
_geom_bond_site_symmetry_2
La0 U3 3.156695 1_455
La0 U4 3.156695 1_565
La0 U4 3.156695 1_555
La0 U3 3.156695 1_555
La0 U5 3.156695 1_565
La0 U5 3.156695 1_455
La0 U2 3.398367 1_556
La0 U2 3.398367 1_555
La0 U1 3.398374 1_555
La0 U1 3.398374 1_556
La0 U0 3.398374 1_555
La0 U0 3.398374 1_556
La1 U1 3.156695 1_545
La1 U0 3.156695 1_655
La1 U0 3.156695 1_555
La1 U1 3.156695 1_555
La1 U2 3.156695 1_655
La1 U2 3.156695 1_545
La1 U5 3.398367 1_554
La1 U5 3.398367 1_555
La1 U3 3.398374 1_555
La1 U3 3.398374 1_554
La1 U4 3.398374 1_555
La1 U4 3.398374 1_554
U0 U2 2.863844 1_545
U0 U1 2.863845 1_445
U0 U4 3.215045 1_555
U0 U4 3.215045 1_554
U0 U5 3.215051 1_455
U0 U5 3.215051 1_454
U0 U2 3.440753 1_555
U0 U1 3.440753 1_555
U1 U2 2.863844 1_655
U1 U3 3.215045 1_555
U1 U3 3.215045 1_554
U1 U5 3.215051 1_565
U1 U5 3.215051 1_564
U1 U2 3.440753 1_555
U2 U3 3.215051 1_455
U2 U3 3.215051 1_454
U2 U4 3.215051 1_564
U2 U4 3.215051 1_565
U3 U5 2.863844 1_565
U3 U4 2.863845 1_665
U3 U5 3.440753 1_555
U3 U4 3.440753 1_555
U4 U5 2.863844 1_455
U4 U5 3.440753 1_555
