# generated using pymatgen
data_CoCBrN4O3
_symmetry_space_group_name_H-M   'P 1'
_cell_length_a   4.35479400
_cell_length_b   9.30634100
_cell_length_c   15.95092400
_cell_angle_alpha   90.00000000
_cell_angle_beta   90.00000000
_cell_angle_gamma   90.00000000
_symmetry_Int_Tables_number   1
_chemical_formula_structural   CoCBrN4O3
_chemical_formula_sum   'Co4 C4 Br4 N16 O12'
_cell_volume   646.44625441
_cell_formula_units_Z   4
loop_
 _symmetry_equiv_pos_site_id
 _symmetry_equiv_pos_as_xyz
  1  'x, y, z'
loop_
 _atom_site_type_symbol
 _atom_site_label
 _atom_site_symmetry_multiplicity
 _atom_site_fract_x
 _atom_site_fract_y
 _atom_site_fract_z
 _atom_site_occupancy
  Co  Co0  1  0.75000000  0.68243300  0.37725300  1
  Co  Co1  1  0.75000000  0.81756700  0.87725300  1
  Co  Co2  1  0.25000000  0.31756700  0.62274700  1
  Co  Co3  1  0.25000000  0.18243300  0.12274700  1
  C  C0  1  0.75000000  0.26431800  0.45711400  1
  C  C1  1  0.75000000  0.23568200  0.95711400  1
  C  C2  1  0.25000000  0.73568200  0.54288600  1
  C  C3  1  0.25000000  0.76431800  0.04288600  1
  Br  Br0  1  0.75000000  0.00299400  0.22444500  1
  Br  Br1  1  0.75000000  0.49700600  0.72444500  1
  Br  Br2  1  0.25000000  0.99700600  0.77555500  1
  Br  Br3  1  0.25000000  0.50299400  0.27555500  1
  N  N0  1  0.75000000  0.54244100  0.29621400  1
  N  N1  1  0.75000000  0.95755900  0.79621400  1
  N  N2  1  0.25000000  0.45755900  0.70378600  1
  N  N3  1  0.25000000  0.04244100  0.20378600  1
  N  N4  1  0.75000000  0.80208900  0.99852500  1
  N  N5  1  0.75000000  0.69791100  0.49852500  1
  N  N6  1  0.25000000  0.19791100  0.00147500  1
  N  N7  1  0.25000000  0.30208900  0.50147500  1
  N  N8  1  0.12085400  0.80434000  0.36117100  1
  N  N9  1  0.37914600  0.69566000  0.86117100  1
  N  N10  1  0.62085400  0.19566000  0.63882900  1
  N  N11  1  0.87914600  0.30434000  0.13882900  1
  N  N12  1  0.87914600  0.19566000  0.63882900  1
  N  N13  1  0.62085400  0.30434000  0.13882900  1
  N  N14  1  0.37914600  0.80434000  0.36117100  1
  N  N15  1  0.12085400  0.69566000  0.86117100  1
  O  O0  1  0.75000000  0.13597600  0.46156000  1
  O  O1  1  0.75000000  0.36402400  0.96156000  1
  O  O2  1  0.25000000  0.86402400  0.53844000  1
  O  O3  1  0.25000000  0.63597600  0.03844000  1
  O  O4  1  0.99704800  0.35874600  0.45675200  1
  O  O5  1  0.50295200  0.14125400  0.95675200  1
  O  O6  1  0.49704800  0.64125400  0.54324800  1
  O  O7  1  0.00295200  0.85874600  0.04324800  1
  O  O8  1  0.00295200  0.64125400  0.54324800  1
  O  O9  1  0.49704800  0.85874600  0.04324800  1
  O  O10  1  0.50295200  0.35874600  0.45675200  1
  O  O11  1  0.99704800  0.14125400  0.95675200  1
loop_
_geom_bond_atom_site_label_1
_geom_bond_atom_site_label_2
_geom_bond_distance
_geom_bond_site_symmetry_2
Co0 N0 1.835282 1_555
Co0 N5 1.939756 1_555
Co0 N14 1.990255 1_555
Co0 N8 1.990255 1_655
Co1 N1 1.835282 1_555
Co1 N4 1.939756 1_555
Co1 N9 1.990255 1_555
Co1 N15 1.990255 1_655
Co2 N2 1.835282 1_555
Co2 N7 1.939756 1_555
Co2 N12 1.990255 1_455
Co2 N10 1.990255 1_555
Co3 N3 1.835282 1_555
Co3 N6 1.939756 1_555
Co3 N11 1.990255 1_455
Co3 N13 1.990255 1_555
C0 O0 1.196498 1_555
C0 O4 1.389145 1_555
C0 O10 1.389145 1_555
C1 O1 1.196498 1_555
C1 O11 1.389145 1_555
C1 O5 1.389145 1_555
C2 O2 1.196498 1_555
C2 O8 1.389145 1_555
C2 O6 1.389145 1_555
C3 O3 1.196498 1_555
C3 O9 1.389145 1_555
C3 O7 1.389145 1_555
Br0 N3 2.232580 1_555
Br0 N3 2.232580 1_655
Br1 N2 2.232580 1_655
Br1 N2 2.232580 1_555
Br2 N1 2.232580 1_555
Br2 N1 2.232580 1_455
Br3 N0 2.232580 1_455
Br3 N0 2.232580 1_555
N4 O9 1.414332 1_556
N4 O7 1.414332 1_656
N5 O6 1.414332 1_555
N5 O8 1.414332 1_655
N6 O5 1.414332 1_554
N6 O11 1.414332 1_454
N7 O4 1.414332 1_455
N7 O10 1.414332 1_555
N10 N12 1.124808 1_555
N11 N13 1.124808 1_555
N14 N8 1.124808 1_555
N15 N9 1.124808 1_555
