# generated using pymatgen
data_Zr5Ti5Pb6
_symmetry_space_group_name_H-M   'P 1'
_cell_length_a   5.65696508
_cell_length_b   8.54371265
_cell_length_c   8.32924670
_cell_angle_alpha   120.85111130
_cell_angle_beta   90.00167362
_cell_angle_gamma   89.99718999
_symmetry_Int_Tables_number   1
_chemical_formula_structural   Zr5Ti5Pb6
_chemical_formula_sum   'Zr5 Ti5 Pb6'
_cell_volume   345.60304734
_cell_formula_units_Z   1
loop_
 _symmetry_equiv_pos_site_id
 _symmetry_equiv_pos_as_xyz
  1  'x, y, z'
loop_
 _atom_site_type_symbol
 _atom_site_label
 _atom_site_symmetry_multiplicity
 _atom_site_fract_x
 _atom_site_fract_y
 _atom_site_fract_z
 _atom_site_occupancy
  Zr  Zr0  1  0.75000019  0.76389111  0.76413736  1
  Zr  Zr1  1  0.74997859  0.99991081  0.23587992  1
  Zr  Zr2  1  0.24997983  0.74965189  0.00001712  1
  Zr  Zr3  1  0.24998945  0.22665936  0.23031686  1
  Zr  Zr4  1  0.24998555  0.99641887  0.76979360  1
  Ti  Ti0  1  0.50060084  0.33365219  0.66342779  1
  Ti  Ti1  1  0.50053157  0.67024693  0.33652650  1
  Ti  Ti2  1  0.99946987  0.67024225  0.33652738  1
  Ti  Ti3  1  0.99940206  0.33365724  0.66343109  1
  Ti  Ti4  1  0.75006378  0.26046473  -0.00005599  1
  Pb  Pb0  1  0.75000511  0.60032035  -0.00001189  1
  Pb  Pb1  1  0.75001049  0.39622615  0.38941949  1
  Pb  Pb2  1  0.75000898  0.00664248  0.61057357  1
  Pb  Pb3  1  0.25000408  0.39472669  -0.00000942  1
  Pb  Pb4  1  0.24999495  0.59680076  0.59636450  1
  Pb  Pb5  1  0.24997666  0.00048620  0.40366313  1
loop_
_geom_bond_atom_site_label_1
_geom_bond_atom_site_label_2
_geom_bond_distance
_geom_bond_site_symmetry_2
Zr0 Zr1 3.373281 1_556
Zr0 Zr4 3.442854 1_555
Zr0 Zr4 3.442876 1_655
Zr0 Zr2 3.481277 1_656
Zr0 Zr2 3.481568 1_556
Zr1 Zr3 3.441899 1_565
Zr1 Zr3 3.442158 1_665
Zr1 Zr2 3.481826 1_655
Zr1 Zr2 3.481892 1_555
Zr2 Zr4 3.502647 1_554
Zr2 Zr3 3.502965 1_565
Zr3 Zr4 3.293055 1_544
Ti0 Ti3 2.821701 1_555
Ti0 Ti3 2.835264 1_455
Ti0 Zr2 3.504604 1_556
Ti0 Zr1 3.519645 1_545
Ti0 Zr3 3.532299 1_555
Ti0 Zr0 3.611639 1_555
Ti0 Zr4 3.703346 1_545
Ti1 Ti2 2.822477 1_555
Ti1 Ti2 2.834489 1_455
Ti1 Zr2 3.503588 1_555
Ti1 Zr0 3.520577 1_555
Ti1 Zr4 3.533212 1_555
Ti1 Zr1 3.612350 1_555
Ti1 Zr3 3.703572 1_555
Ti2 Zr2 3.503616 1_655
Ti2 Zr0 3.520613 1_555
Ti2 Zr4 3.533174 1_655
Ti2 Zr1 3.612361 1_555
Ti2 Zr3 3.703362 1_655
Ti3 Zr2 3.504546 1_656
Ti3 Zr1 3.519806 1_545
Ti3 Zr3 3.532306 1_655
Ti3 Zr0 3.611492 1_555
Ti3 Zr4 3.703170 1_645
Ti4 Zr4 3.510866 1_644
Ti4 Zr3 3.511592 1_655
Ti4 Zr4 3.511667 1_544
Ti4 Zr3 3.512382 1_555
Ti4 Zr1 3.647482 1_545
Ti4 Zr0 3.648407 1_544
Pb0 Ti4 2.903440 1_555
Pb0 Ti2 2.913463 1_555
Pb0 Ti1 2.913520 1_555
Pb0 Ti3 2.913589 1_554
Pb0 Ti0 2.913666 1_554
Pb0 Zr0 2.937307 1_554
Pb0 Zr1 2.938724 1_555
Pb0 Zr2 3.102793 1_655
Pb0 Zr2 3.102940 1_555
Pb0 Pb3 3.329450 1_655
Pb0 Pb3 3.329607 1_555
Pb1 Ti4 2.830192 1_555
Pb1 Zr1 2.942676 1_545
Pb1 Ti1 2.953697 1_555
Pb1 Ti2 2.953727 1_555
Pb1 Ti3 2.955691 1_555
Pb1 Ti0 2.955830 1_555
Pb1 Zr0 3.090853 1_555
Pb1 Zr3 3.144105 1_655
Pb1 Zr3 3.144377 1_555
Pb1 Pb4 3.298220 1_655
Pb1 Pb4 3.298313 1_555
Pb2 Ti4 2.829773 1_556
Pb2 Zr0 2.942488 1_545
Pb2 Ti0 2.954378 1_555
Pb2 Ti3 2.954485 1_555
Pb2 Ti2 2.955250 1_545
Pb2 Ti1 2.955344 1_545
Pb2 Zr1 3.091817 1_545
Pb2 Zr4 3.143965 1_645
Pb2 Zr4 3.144281 1_545
Pb2 Pb5 3.298406 1_655
Pb2 Pb5 3.298638 1_555
Pb3 Zr4 2.926583 1_544
Pb3 Zr3 2.927045 1_555
Pb3 Ti2 2.939311 1_455
Pb3 Ti1 2.939333 1_555
Pb3 Ti3 2.939405 1_454
Pb3 Ti0 2.939455 1_554
Pb3 Zr2 3.032266 1_555
Pb3 Ti4 3.051900 1_455
Pb3 Ti4 3.052422 1_555
Pb4 Ti2 2.911816 1_455
Pb4 Ti1 2.911970 1_555
Pb4 Zr2 2.916531 1_556
Pb4 Ti0 2.943496 1_555
Pb4 Ti3 2.943561 1_455
Pb4 Zr4 2.947081 1_555
Pb4 Zr3 3.067192 1_555
Pb4 Zr0 3.153522 1_455
Pb4 Zr0 3.153628 1_555
Pb5 Ti3 2.911442 1_455
Pb5 Ti0 2.911621 1_555
Pb5 Zr2 2.916592 1_545
Pb5 Ti1 2.943439 1_545
Pb5 Ti2 2.943462 1_445
Pb5 Zr3 2.946217 1_555
Pb5 Zr4 3.067556 1_545
Pb5 Zr1 3.153732 1_445
Pb5 Zr1 3.153825 1_545
