# generated using pymatgen
data_Sr6Mg(Te4O11)2
_symmetry_space_group_name_H-M   'P 1'
_cell_length_a   7.96852515
_cell_length_b   10.04758603
_cell_length_c   9.92430005
_cell_angle_alpha   102.62392973
_cell_angle_beta   113.40042886
_cell_angle_gamma   98.75553143
_symmetry_Int_Tables_number   1
_chemical_formula_structural   Sr6Mg(Te4O11)2
_chemical_formula_sum   'Sr6 Mg1 Te8 O22'
_cell_volume   685.78974656
_cell_formula_units_Z   1
loop_
 _symmetry_equiv_pos_site_id
 _symmetry_equiv_pos_as_xyz
  1  'x, y, z'
loop_
 _atom_site_type_symbol
 _atom_site_label
 _atom_site_symmetry_multiplicity
 _atom_site_fract_x
 _atom_site_fract_y
 _atom_site_fract_z
 _atom_site_occupancy
  Sr  Sr0  1  0.27955165  0.00451370  0.14777516  1
  Sr  Sr1  1  0.71138581  0.93801096  0.88417444  1
  Sr  Sr2  1  0.82277800  0.05047607  0.33545466  1
  Sr  Sr3  1  0.14519182  0.88225503  0.69280432  1
  Sr  Sr4  1  0.32341740  0.54747247  0.60873114  1
  Sr  Sr5  1  0.67796633  0.49509870  0.34298735  1
  Mg  Mg0  1  0.27633727  0.19239324  0.61240290  1
  Te  Te0  1  0.05746186  0.30552092  0.23676912  1
  Te  Te1  1  0.91517313  0.62767759  0.76861089  1
  Te  Te2  1  0.01704827  0.19408567  0.81205353  1
  Te  Te3  1  0.97433772  0.75178131  0.22923028  1
  Te  Te4  1  0.44065839  0.68719750  0.03343165  1
  Te  Te5  1  0.55962870  0.30756950  0.93494021  1
  Te  Te6  1  0.49286289  0.82232810  0.46375374  1
  Te  Te7  1  0.62929296  0.27604390  0.57513502  1
  O  O0  1  0.00118452  0.59350339  0.61458586  1
  O  O1  1  0.99250085  0.46175027  0.32265060  1
  O  O2  1  0.43140942  0.63205387  0.34973832  1
  O  O3  1  0.58691182  0.46144898  0.55511906  1
  O  O4  1  0.82002965  0.16955195  0.12233582  1
  O  O5  1  0.15841677  0.76197869  0.92309757  1
  O  O6  1  0.75861563  0.10679869  0.74154230  1
  O  O7  1  0.27721067  0.87982593  0.33817855  1
  O  O8  1  0.40156123  0.80329928  0.61044408  1
  O  O9  1  0.59100707  0.19047011  0.36490204  1
  O  O10  1  0.03631143  0.11160050  0.62558976  1
  O  O11  1  0.96203994  0.84286600  0.41070761  1
  O  O12  1  0.45930047  0.32674174  0.07629297  1
  O  O13  1  0.48460075  0.72281910  0.87083918  1
  O  O14  1  0.52496471  0.87720907  0.16131896  1
  O  O15  1  0.42534228  0.11738437  0.80064504  1
  O  O16  1  0.93536992  0.89755418  0.13525377  1
  O  O17  1  0.09524544  0.05881084  0.91233672  1
  O  O18  1  0.14052086  0.24045415  0.41502873  1
  O  O19  1  0.80743093  0.77306922  0.71085573  1
  O  O20  1  0.68985288  0.64026229  0.13874839  1
  O  O21  1  0.39152455  0.37907476  0.78125750  1
loop_
_geom_bond_atom_site_label_1
_geom_bond_atom_site_label_2
_geom_bond_distance
_geom_bond_site_symmetry_2
Mg0 O21 2.012242 1_555
Mg0 O10 2.026553 1_555
Mg0 O18 2.032252 1_555
Mg0 O15 2.143315 1_555
O0 Te1 1.897009 1_455
O0 Sr4 2.697920 1_555
O0 Sr5 2.724337 1_455
O0 Sr3 2.762457 1_555
O1 Te0 1.863185 1_655
O1 Sr5 2.657602 1_555
O1 Sr4 2.837068 1_655
O2 Te6 1.872008 1_555
O2 Sr5 2.577868 1_555
O3 Te7 1.980858 1_555
O3 Sr5 2.553945 1_555
O3 Sr4 2.584101 1_555
O3 Te1 2.615696 1_555
O4 Te0 1.887849 1_655
O4 Sr2 2.642469 1_555
O4 Sr1 2.665765 1_544
O5 Te1 1.966579 1_455
O5 Te4 2.395773 1_556
O5 Sr0 2.653534 1_566
O5 Sr3 2.783844 1_555
O6 Te2 1.880674 1_655
O6 Sr1 2.509903 1_545
O6 Te7 2.662755 1_555
O7 Te6 1.937973 1_555
O7 Te3 2.241190 1_455
O7 Sr0 2.489217 1_565
O8 Te6 1.898902 1_555
O8 Sr4 2.545666 1_555
O8 Sr3 2.647094 1_555
O8 Sr1 2.712052 1_555
O9 Te7 1.953431 1_555
O9 Sr2 2.552408 1_555
O9 Sr0 2.621897 1_555
O9 Sr5 3.108189 1_555
O10 Te2 1.931024 1_555
O10 Sr2 2.565261 1_455
O10 Sr3 2.707154 1_545
O11 Te3 1.880935 1_555
O11 Sr3 2.493761 1_655
O11 Sr2 2.620670 1_565
O12 Te5 1.861123 1_554
O12 Sr5 2.526923 1_555
O13 Te4 1.875514 1_556
O13 Sr4 2.484794 1_555
O13 Sr1 2.540399 1_555
O14 Te4 1.892138 1_555
O14 Sr2 2.412197 1_565
O14 Sr0 2.471102 1_565
O15 Te5 1.924669 1_555
O15 Sr3 2.664911 1_545
O15 Sr1 3.087652 1_545
O16 Te3 1.901846 1_555
O16 Sr1 2.586664 1_554
O16 Sr0 2.732390 1_665
O16 Sr2 2.759453 1_565
O17 Te2 1.892798 1_555
O17 Sr0 2.447334 1_556
O17 Sr3 2.695632 1_545
O17 Sr1 2.991643 1_445
O18 Te0 1.924163 1_555
O18 Sr2 2.638085 1_455
O18 Sr4 3.024786 1_555
O19 Te1 1.885898 1_555
O19 Sr1 2.544935 1_555
O19 Sr3 2.837173 1_655
O20 Te4 2.027278 1_555
O20 Te3 2.090644 1_555
O20 Sr5 2.765399 1_555
O21 Te5 1.945740 1_555
O21 Sr4 2.626169 1_555
