# generated using pymatgen
data_Zn(WO2)2
_symmetry_space_group_name_H-M   'P 1'
_cell_length_a   6.35522166
_cell_length_b   6.35522166
_cell_length_c   6.35522166
_cell_angle_alpha   120.89505976
_cell_angle_beta   117.36136004
_cell_angle_gamma   91.54326467
_symmetry_Int_Tables_number   1
_chemical_formula_structural   Zn(WO2)2
_chemical_formula_sum   'Zn2 W4 O8'
_cell_volume   183.60819970
_cell_formula_units_Z   2
loop_
 _symmetry_equiv_pos_site_id
 _symmetry_equiv_pos_as_xyz
  1  'x, y, z'
loop_
 _atom_site_type_symbol
 _atom_site_label
 _atom_site_symmetry_multiplicity
 _atom_site_fract_x
 _atom_site_fract_y
 _atom_site_fract_z
 _atom_site_occupancy
  Zn  Zn0  1  0.00000000  0.50000000  0.50000000  1
  Zn  Zn1  1  0.50000000  0.50000000  0.00000000  1
  W  W0  1  0.09832700  0.84832700  0.25000000  1
  W  W1  1  0.90167300  0.15167300  0.75000000  1
  W  W2  1  0.50000000  0.00000000  0.00000000  1
  W  W3  1  0.50000000  0.50000000  0.50000000  1
  O  O0  1  0.74614500  0.25831200  0.01216600  1
  O  O1  1  0.73339700  0.25882200  0.47457500  1
  O  O2  1  0.74614500  0.73397900  0.48783400  1
  O  O3  1  0.28424700  0.25882200  0.02542500  1
  O  O4  1  0.71575300  0.74117800  0.97457500  1
  O  O5  1  0.26660300  0.74117800  0.52542500  1
  O  O6  1  0.25385500  0.26602100  0.51216600  1
  O  O7  1  0.25385500  0.74168800  0.98783400  1
loop_
_geom_bond_atom_site_label_1
_geom_bond_atom_site_label_2
_geom_bond_distance
_geom_bond_site_symmetry_2
O0 W1 2.145344 1_554
O0 W2 2.183606 1_555
O0 Zn1 2.225415 1_555
O0 Zn0 2.225419 1_655
O1 W1 2.052762 1_555
O1 Zn0 2.144821 1_655
O1 W2 2.159625 1_555
O1 W3 2.159625 1_555
O2 W1 2.145344 1_565
O2 W3 2.183602 1_555
O2 Zn0 2.225419 1_655
O2 Zn1 2.225419 1_555
O3 W1 2.052762 1_454
O3 Zn1 2.144821 1_555
O3 W3 2.159625 1_555
O3 W2 2.159625 1_555
O4 W0 2.052762 1_656
O4 Zn1 2.144821 1_556
O4 W2 2.159625 1_566
O4 W3 2.159625 1_555
O5 W0 2.052762 1_555
O5 Zn0 2.144821 1_555
O5 W2 2.159625 1_566
O5 W3 2.159625 1_555
O6 W0 2.145344 1_545
O6 W3 2.183602 1_555
O6 Zn1 2.225419 1_556
O6 Zn0 2.225419 1_555
O7 W0 2.145344 1_556
O7 W2 2.183606 1_566
O7 Zn1 2.225415 1_556
O7 Zn0 2.225419 1_555
