# generated using pymatgen
data_Dy(BIr)2
_symmetry_space_group_name_H-M   'P 1'
_cell_length_a   6.45088882
_cell_length_b   6.45088882
_cell_length_c   8.29754527
_cell_angle_alpha   112.81750713
_cell_angle_beta   112.81750713
_cell_angle_gamma   90.13641056
_symmetry_Int_Tables_number   1
_chemical_formula_structural   Dy(BIr)2
_chemical_formula_sum   'Dy4 B8 Ir8'
_cell_volume   288.58479976
_cell_formula_units_Z   4
loop_
 _symmetry_equiv_pos_site_id
 _symmetry_equiv_pos_as_xyz
  1  'x, y, z'
loop_
 _atom_site_type_symbol
 _atom_site_label
 _atom_site_symmetry_multiplicity
 _atom_site_fract_x
 _atom_site_fract_y
 _atom_site_fract_z
 _atom_site_occupancy
  Dy  Dy0  1  0.62500000  0.87500000  0.75000000  1
  Dy  Dy1  1  0.12500000  0.87500000  0.75000000  1
  Dy  Dy2  1  0.12500000  0.37500000  0.25000000  1
  Dy  Dy3  1  0.12500000  0.87500000  0.25000000  1
  B  B0  1  0.38921700  0.24488900  0.78011700  1
  B  B1  1  0.39090000  0.53522700  0.78011700  1
  B  B2  1  0.75511100  0.61078300  0.21988300  1
  B  B3  1  0.86078300  0.50511100  0.71988300  1
  B  B4  1  0.46477300  0.60910100  0.21988300  1
  B  B5  1  0.85910100  0.21477300  0.71988300  1
  B  B6  1  0.49488900  0.13921700  0.28011700  1
  B  B7  1  0.78522700  0.14090000  0.28011700  1
  Ir  Ir0  1  0.18064900  0.46943400  0.94055900  1
  Ir  Ir1  1  0.75991000  0.47112600  0.94055900  1
  Ir  Ir2  1  0.53056600  0.81935100  0.05944100  1
  Ir  Ir3  1  0.06935100  0.28056600  0.55944100  1
  Ir  Ir4  1  0.52887400  0.24009000  0.05944100  1
  Ir  Ir5  1  0.49009000  0.27887400  0.55944100  1
  Ir  Ir6  1  0.71943400  0.93064900  0.44055900  1
  Ir  Ir7  1  0.72112600  0.50991000  0.44055900  1
loop_
_geom_bond_atom_site_label_1
_geom_bond_atom_site_label_2
_geom_bond_distance
_geom_bond_site_symmetry_2
Dy0 Ir6 3.003254 1_555
Dy0 Ir2 3.003254 1_556
Dy0 Ir7 3.012571 1_555
Dy0 Ir4 3.012571 1_566
Dy1 Ir4 3.003251 1_566
Dy1 Ir7 3.003251 1_455
Dy1 Ir2 3.012567 1_556
Dy1 Ir6 3.012567 1_455
Dy2 Ir3 3.003254 1_555
Dy2 Ir0 3.003254 1_554
Dy2 Ir5 3.012571 1_555
Dy2 Ir1 3.012571 1_454
Dy3 Ir1 3.003251 1_454
Dy3 Ir5 3.003251 1_565
Dy3 Ir3 3.012567 1_565
Dy3 Ir0 3.012567 1_554
B0 B1 1.872944 1_555
B0 Ir4 2.149571 1_556
B0 Ir5 2.249248 1_555
B0 Ir3 2.249932 1_555
B0 Ir0 2.362960 1_555
B0 Ir1 2.372326 1_555
B0 Dy1 2.801587 1_545
B0 Dy0 2.814083 1_545
B1 Ir2 2.149574 1_556
B1 Ir3 2.249248 1_555
B1 Ir5 2.249932 1_555
B1 Ir1 2.362955 1_555
B1 Ir0 2.372321 1_555
B1 Dy0 2.801592 1_555
B1 Dy1 2.814088 1_555
B2 B4 1.872944 1_555
B2 Ir1 2.149571 1_554
B2 Ir7 2.249248 1_555
B2 Ir6 2.249932 1_555
B2 Ir2 2.362960 1_555
B2 Ir4 2.372326 1_555
B2 Dy3 2.801587 1_655
B2 Dy2 2.814083 1_655
B3 B5 1.872944 1_555
B3 Ir7 2.149571 1_555
B3 Ir1 2.249248 1_555
B3 Ir0 2.249932 1_655
B3 Ir3 2.362960 1_655
B3 Ir5 2.372326 1_555
B3 Dy1 2.801587 1_655
B3 Dy0 2.814083 1_555
B4 Ir0 2.149574 1_554
B4 Ir6 2.249244 1_555
B4 Ir7 2.249936 1_555
B4 Ir4 2.362960 1_555
B4 Ir2 2.372316 1_555
B4 Dy2 2.801596 1_555
B4 Dy3 2.814084 1_555
B5 Ir6 2.149574 1_545
B5 Ir0 2.249244 1_655
B5 Ir1 2.249936 1_555
B5 Ir5 2.362960 1_555
B5 Ir3 2.372316 1_655
B5 Dy0 2.801596 1_545
B5 Dy1 2.814084 1_645
B6 B7 1.872944 1_555
B6 Ir5 2.149571 1_555
B6 Ir4 2.249248 1_555
B6 Ir2 2.249932 1_545
B6 Ir6 2.362960 1_545
B6 Ir7 2.372326 1_555
B6 Dy3 2.801587 1_545
B6 Dy2 2.814083 1_555
B7 Ir3 2.149574 1_655
B7 Ir2 2.249248 1_545
B7 Ir4 2.249932 1_555
B7 Ir7 2.362955 1_555
B7 Ir6 2.372321 1_545
B7 Dy2 2.801592 1_655
B7 Dy3 2.814088 1_645
