# generated using pymatgen
data_Ba2LiHoRuO6
_symmetry_space_group_name_H-M   'P 1'
_cell_length_a   6.11404791
_cell_length_b   5.96553513
_cell_length_c   6.11404737
_cell_angle_alpha   60.80030897
_cell_angle_beta   57.83525664
_cell_angle_gamma   60.80031847
_symmetry_Int_Tables_number   1
_chemical_formula_structural   Ba2LiHoRuO6
_chemical_formula_sum   'Ba2 Li1 Ho1 Ru1 O6'
_cell_volume   156.73609961
_cell_formula_units_Z   1
loop_
 _symmetry_equiv_pos_site_id
 _symmetry_equiv_pos_as_xyz
  1  'x, y, z'
loop_
 _atom_site_type_symbol
 _atom_site_label
 _atom_site_symmetry_multiplicity
 _atom_site_fract_x
 _atom_site_fract_y
 _atom_site_fract_z
 _atom_site_occupancy
  Ba  Ba0  1  0.70758400  0.79241600  0.70758400  1
  Ba  Ba1  1  0.29241500  0.20758500  0.29241500  1
  Li  Li0  1  0.00000000  0.50000000  0.00000000  1
  Ho  Ho0  1  0.50000000  0.50000000  0.50000000  1
  Ru  Ru0  1  0.00000000  0.00000000  0.00000000  1
  O  O0  1  0.23242400  0.75097000  0.76757600  1
  O  O1  1  0.23349200  0.76650800  0.23349200  1
  O  O2  1  0.76650800  0.23349200  0.76650800  1
  O  O3  1  0.23242400  0.24903000  0.76757600  1
  O  O4  1  0.76757600  0.24903000  0.23242400  1
  O  O5  1  0.76757600  0.75097000  0.23242400  1
loop_
_geom_bond_atom_site_label_1
_geom_bond_atom_site_label_2
_geom_bond_distance
_geom_bond_site_symmetry_2
Ba0 Li0 2.598657 1_656
Ba0 O4 2.848399 1_565
Ba0 O5 2.848400 1_555
Ba0 O3 2.848400 1_565
Ba0 O0 2.848400 1_555
Ba0 O1 2.965410 1_556
Ba0 O1 2.965410 1_655
Ba0 O2 3.028384 1_555
Ba0 O2 3.028384 1_565
Ba1 Li0 2.598648 1_555
Ba1 O0 2.848405 1_545
Ba1 O3 2.848405 1_555
Ba1 O5 2.848406 1_545
Ba1 O4 2.848406 1_555
Ba1 O2 2.965409 1_554
Ba1 O2 2.965409 1_455
Ba1 O1 3.028383 1_555
Ba1 O1 3.028383 1_545
Li0 O0 2.032297 1_554
Li0 O4 2.032297 1_455
Li0 O3 2.032297 1_554
Li0 O5 2.032297 1_455
Ho0 O3 2.178240 1_555
Ho0 O5 2.178240 1_555
Ho0 O4 2.178241 1_555
Ho0 O0 2.178241 1_555
Ho0 O2 2.368417 1_555
Ho0 O1 2.368417 1_555
O0 Ru0 2.023786 1_566
O1 Ru0 2.075009 1_565
O2 Ru0 2.075009 1_656
O3 Ru0 2.023786 1_556
O4 Ru0 2.023786 1_655
O5 Ru0 2.023786 1_665
