# generated using pymatgen
data_Li2NiO2F
_symmetry_space_group_name_H-M   'P 1'
_cell_length_a   2.84485522
_cell_length_b   2.90207340
_cell_length_c   28.56097027
_cell_angle_alpha   91.38161342
_cell_angle_beta   90.49824286
_cell_angle_gamma   61.33496432
_symmetry_Int_Tables_number   1
_chemical_formula_structural   Li2NiO2F
_chemical_formula_sum   'Li8 Ni4 O8 F4'
_cell_volume   206.83778503
_cell_formula_units_Z   4
loop_
 _symmetry_equiv_pos_site_id
 _symmetry_equiv_pos_as_xyz
  1  'x, y, z'
loop_
 _atom_site_type_symbol
 _atom_site_label
 _atom_site_symmetry_multiplicity
 _atom_site_fract_x
 _atom_site_fract_y
 _atom_site_fract_z
 _atom_site_occupancy
  Li  Li0  1  0.66683100  0.66653400  0.33331900  1
  Li  Li1  1  0.67529500  0.66020300  0.83319500  1
  Li  Li2  1  0.66377500  0.66955200  0.08374900  1
  Li  Li3  1  0.66716200  0.66711400  0.58302900  1
  Li  Li4  1  0.33249000  0.33913200  0.16568200  1
  Li  Li5  1  0.33310800  0.33929200  0.66510700  1
  Li  Li6  1  0.99153700  0.00096100  0.00173700  1
  Li  Li7  1  0.00116200  0.99464400  0.50102100  1
  Ni  Ni0  1  0.33349200  0.32923900  0.91739300  1
  Ni  Ni1  1  0.00022800  0.00199400  0.24958100  1
  Ni  Ni2  1  0.33410500  0.33058900  0.41704000  1
  Ni  Ni3  1  0.00314800  0.99968300  0.74921600  1
  O  O0  1  0.69096700  0.62206600  0.45470500  1
  O  O1  1  0.62058900  0.68418300  0.95507400  1
  O  O2  1  0.64309200  0.71056100  0.21191300  1
  O  O3  1  0.64433600  0.70956200  0.71148800  1
  O  O4  1  0.35673300  0.29333700  0.28728400  1
  O  O5  1  0.36228100  0.28975300  0.78701000  1
  O  O6  1  0.97730000  0.03922900  0.37932200  1
  O  O7  1  0.04651200  0.97336700  0.87965900  1
  F  F0  1  0.32571900  0.33685800  0.04267300  1
  F  F1  1  0.33651000  0.32743500  0.54196900  1
  F  F2  1  0.99591600  0.00799300  0.12474700  1
  F  F3  1  0.99771300  0.00672000  0.62408700  1
loop_
_geom_bond_atom_site_label_1
_geom_bond_atom_site_label_2
_geom_bond_distance
_geom_bond_site_symmetry_2
Li0 O4 2.090802 1_565
Li0 O6 2.091206 1_555
Li0 O6 2.122271 1_565
Li0 O4 2.123143 1_555
Li0 O6 2.164464 1_465
Li0 O4 2.165797 1_655
Li1 O7 2.051902 1_555
Li1 O5 2.099012 1_565
Li1 O5 2.125643 1_555
Li1 O7 2.130857 1_655
Li1 O5 2.162422 1_655
Li1 O7 2.221055 1_645
Li4 O2 2.097922 1_545
Li4 O2 2.123908 1_555
Li4 O2 2.167960 1_455
Li5 O3 2.102987 1_545
Li5 O3 2.125347 1_555
Li5 O3 2.169199 1_455
Li6 O1 2.056193 1_644
Li6 O1 2.140600 1_544
Li6 O1 2.217376 1_554
Li7 O0 2.097221 1_465
Li7 O0 2.126931 1_455
Li7 O0 2.170370 1_555
Ni0 O1 1.903875 1_555
Ni0 O7 1.906453 1_545
Ni0 O7 1.984952 1_555
Ni0 O1 1.986128 1_545
Ni0 O1 2.076717 1_455
Ni0 O7 2.077786 1_645
Ni1 O4 1.913851 1_555
Ni1 O2 1.914806 1_445
Ni1 O2 1.929727 1_545
Ni1 O4 1.931622 1_455
Ni1 O2 2.121657 1_455
Ni1 O4 2.122363 1_545
Ni2 O0 1.914272 1_555
Ni2 O6 1.914749 1_455
Ni2 O0 1.930254 1_455
Ni2 O6 1.931225 1_555
Ni2 O0 2.121509 1_545
Ni2 O6 2.122560 1_465
Ni3 O3 1.916666 1_455
Ni3 O5 1.918271 1_565
Ni3 O3 1.927256 1_555
Ni3 O5 1.927634 1_465
Ni3 O3 2.125469 1_465
Ni3 O5 2.126582 1_555
F0 Li6 2.008936 1_455
F0 Li2 2.012463 1_555
F0 Li2 2.023416 1_455
F0 Li6 2.029080 1_555
F0 Li6 2.077664 1_465
F0 Li2 2.086791 1_545
F1 Li7 2.005174 1_545
F1 Li3 2.011595 1_555
F1 Li7 2.026773 1_645
F1 Li3 2.038434 1_455
F1 Li3 2.071745 1_545
F1 Li7 2.084398 1_555
F2 Li4 2.004079 1_655
F2 Li2 2.011035 1_545
F2 Li4 2.024016 1_555
F2 Li2 2.034349 1_645
F2 Li2 2.073327 1_555
F2 Li4 2.087676 1_645
F3 Li5 2.005994 1_655
F3 Li3 2.011214 1_545
F3 Li5 2.027849 1_555
F3 Li3 2.038600 1_645
F3 Li3 2.071863 1_555
F3 Li5 2.086051 1_645
