# generated using pymatgen
data_Pr3BeCrS7
_symmetry_space_group_name_H-M   'P 1'
_cell_length_a   10.03049210
_cell_length_b   10.03049210
_cell_length_c   6.02878700
_cell_angle_alpha   90.00000000
_cell_angle_beta   90.00000000
_cell_angle_gamma   120.00000066
_symmetry_Int_Tables_number   1
_chemical_formula_structural   Pr3BeCrS7
_chemical_formula_sum   'Pr6 Be2 Cr2 S14'
_cell_volume   525.29715602
_cell_formula_units_Z   2
loop_
 _symmetry_equiv_pos_site_id
 _symmetry_equiv_pos_as_xyz
  1  'x, y, z'
loop_
 _atom_site_type_symbol
 _atom_site_label
 _atom_site_symmetry_multiplicity
 _atom_site_fract_x
 _atom_site_fract_y
 _atom_site_fract_z
 _atom_site_occupancy
  Pr  Pr0  1  0.75136200  0.14150600  0.74288400  1
  Pr  Pr1  1  0.39014400  0.24863800  0.74288400  1
  Pr  Pr2  1  0.85849400  0.60985600  0.74288400  1
  Pr  Pr3  1  0.24863800  0.85849400  0.24288400  1
  Pr  Pr4  1  0.60985600  0.75136200  0.24288400  1
  Pr  Pr5  1  0.14150600  0.39014400  0.24288400  1
  Be  Be0  1  0.66666700  0.33333300  0.15852600  1
  Be  Be1  1  0.33333300  0.66666700  0.65852600  1
  Cr  Cr0  1  0.00000000  0.00000000  0.52258000  1
  Cr  Cr1  1  0.00000000  0.00000000  0.02258000  1
  S  S0  1  0.86005600  0.07885700  0.27598000  1
  S  S1  1  0.21880100  0.13994400  0.27598000  1
  S  S2  1  0.92114300  0.78119900  0.27598000  1
  S  S3  1  0.13994400  0.92114300  0.77598000  1
  S  S4  1  0.78119900  0.86005600  0.77598000  1
  S  S5  1  0.07885700  0.21880100  0.77598000  1
  S  S6  1  0.88982600  0.41022000  0.02895600  1
  S  S7  1  0.52039400  0.11017400  0.02895600  1
  S  S8  1  0.58978000  0.47960600  0.02895600  1
  S  S9  1  0.11017400  0.58978000  0.52895600  1
  S  S10  1  0.47960600  0.88982600  0.52895600  1
  S  S11  1  0.41022000  0.52039400  0.52895600  1
  S  S12  1  0.66666700  0.33333300  0.50754700  1
  S  S13  1  0.33333300  0.66666700  0.00754700  1
loop_
_geom_bond_atom_site_label_1
_geom_bond_atom_site_label_2
_geom_bond_distance
_geom_bond_site_symmetry_2
Pr0 S7 2.777114 1_556
Pr0 S12 2.841043 1_555
Pr0 S6 2.902549 1_556
Pr0 S10 2.930064 1_545
Pr0 S5 2.980752 1_655
Pr0 S4 2.990663 1_545
Pr0 S0 3.192510 1_555
Pr0 S0 3.549360 1_556
Pr1 S8 2.777114 1_556
Pr1 S12 2.841051 1_555
Pr1 S7 2.902549 1_556
Pr1 S11 2.930064 1_555
Pr1 S3 2.980752 1_545
Pr1 S5 2.990663 1_555
Pr1 S1 3.192510 1_555
Pr1 S1 3.549360 1_556
Pr2 S6 2.777114 1_556
Pr2 S12 2.841049 1_555
Pr2 S8 2.902549 1_556
Pr2 S9 2.930064 1_655
Pr2 S4 2.980752 1_555
Pr2 S3 2.990663 1_655
Pr2 S2 3.192510 1_555
Pr2 S2 3.549360 1_556
Pr3 S10 2.777114 1_555
Pr3 S13 2.841043 1_555
Pr3 S9 2.902549 1_555
Pr3 S7 2.930064 1_565
Pr3 S2 2.980752 1_455
Pr3 S1 2.990663 1_565
Pr3 S3 3.192510 1_554
Pr3 S3 3.549360 1_555
Pr4 S11 2.777114 1_555
Pr4 S13 2.841051 1_555
Pr4 S10 2.902549 1_555
Pr4 S8 2.930064 1_555
Pr4 S0 2.980752 1_565
Pr4 S2 2.990663 1_555
Pr4 S4 3.192510 1_554
Pr4 S4 3.549360 1_555
Pr5 S9 2.777114 1_555
Pr5 S13 2.841049 1_555
Pr5 S11 2.902549 1_555
Pr5 S6 2.930064 1_455
Pr5 S1 2.980752 1_555
Pr5 S0 2.990663 1_455
Pr5 S5 3.192510 1_554
Pr5 S5 3.549360 1_555
Be0 S12 2.104173 1_555
Be0 S6 2.118748 1_555
Be0 S7 2.118750 1_555
Be0 S8 2.118757 1_555
Be1 S13 2.104173 1_556
Be1 S9 2.118748 1_555
Be1 S10 2.118750 1_555
Be1 S11 2.118757 1_555
Cr0 S1 2.432407 1_555
Cr0 S2 2.432407 1_445
Cr0 S0 2.432407 1_455
Cr0 S4 2.457678 1_445
Cr0 S5 2.457678 1_555
Cr0 S3 2.457678 1_545
Cr1 S4 2.432407 1_444
Cr1 S5 2.432407 1_554
Cr1 S3 2.432407 1_544
Cr1 S1 2.457678 1_555
Cr1 S2 2.457678 1_445
Cr1 S0 2.457678 1_455
