# generated using pymatgen
data_Si2Ag2O5
_symmetry_space_group_name_H-M   'P 1'
_cell_length_a   5.02776200
_cell_length_b   6.67175700
_cell_length_c   15.87350300
_cell_angle_alpha   90.00000000
_cell_angle_beta   90.00000000
_cell_angle_gamma   90.00000000
_symmetry_Int_Tables_number   1
_chemical_formula_structural   Si2Ag2O5
_chemical_formula_sum   'Si8 Ag8 O20'
_cell_volume   532.46088492
_cell_formula_units_Z   4
loop_
 _symmetry_equiv_pos_site_id
 _symmetry_equiv_pos_as_xyz
  1  'x, y, z'
loop_
 _atom_site_type_symbol
 _atom_site_label
 _atom_site_symmetry_multiplicity
 _atom_site_fract_x
 _atom_site_fract_y
 _atom_site_fract_z
 _atom_site_occupancy
  Si  Si0  1  0.79534500  0.61003800  0.83984500  1
  Si  Si1  1  0.20465500  0.38996200  0.16015500  1
  Si  Si2  1  0.70465500  0.88996200  0.33984500  1
  Si  Si3  1  0.79534500  0.38996200  0.66015500  1
  Si  Si4  1  0.29534500  0.11003800  0.66015500  1
  Si  Si5  1  0.20465500  0.61003800  0.33984500  1
  Si  Si6  1  0.70465500  0.11003800  0.16015500  1
  Si  Si7  1  0.29534500  0.88996200  0.83984500  1
  Ag  Ag0  1  0.76645300  0.88181500  0.55414500  1
  Ag  Ag1  1  0.23354700  0.11818500  0.44585500  1
  Ag  Ag2  1  0.73354700  0.61818500  0.05414500  1
  Ag  Ag3  1  0.76645300  0.11818500  0.94585500  1
  Ag  Ag4  1  0.26645300  0.38181500  0.94585500  1
  Ag  Ag5  1  0.23354700  0.88181500  0.05414500  1
  Ag  Ag6  1  0.73354700  0.38181500  0.44585500  1
  Ag  Ag7  1  0.26645300  0.61818500  0.55414500  1
  O  O0  1  0.74347800  0.50000000  0.75000000  1
  O  O1  1  0.25652200  0.50000000  0.25000000  1
  O  O2  1  0.75652200  0.00000000  0.25000000  1
  O  O3  1  0.24347800  0.00000000  0.75000000  1
  O  O4  1  0.74088300  0.53667200  0.58097700  1
  O  O5  1  0.25911700  0.46332800  0.41902300  1
  O  O6  1  0.75911700  0.96332800  0.08097700  1
  O  O7  1  0.74088300  0.46332800  0.91902300  1
  O  O8  1  0.24088300  0.03667200  0.91902300  1
  O  O9  1  0.25911700  0.53667200  0.08097700  1
  O  O10  1  0.75911700  0.03667200  0.41902300  1
  O  O11  1  0.24088300  0.96332800  0.58097700  1
  O  O12  1  0.60779600  0.81263600  0.84367800  1
  O  O13  1  0.39220400  0.18736400  0.15632200  1
  O  O14  1  0.89220400  0.68736400  0.34367800  1
  O  O15  1  0.60779600  0.18736400  0.65632200  1
  O  O16  1  0.10779600  0.31263600  0.65632200  1
  O  O17  1  0.39220400  0.81263600  0.34367800  1
  O  O18  1  0.89220400  0.31263600  0.15632200  1
  O  O19  1  0.10779600  0.68736400  0.84367800  1
loop_
_geom_bond_atom_site_label_1
_geom_bond_atom_site_label_2
_geom_bond_distance
_geom_bond_site_symmetry_2
Ag0 O4 2.345295 1_555
Ag0 O10 2.381012 1_565
Ag0 O11 2.483328 1_655
Ag0 O15 2.724440 1_565
Ag0 O11 2.731237 1_555
Ag1 O5 2.345295 1_555
Ag1 O11 2.381012 1_545
Ag1 O10 2.483328 1_455
Ag1 O17 2.724440 1_545
Ag1 O10 2.731237 1_555
Ag2 O6 2.345295 1_555
Ag2 O7 2.381012 1_554
Ag2 O9 2.483328 1_555
Ag2 O18 2.724440 1_555
Ag2 O9 2.731237 1_655
Ag3 O7 2.345295 1_555
Ag3 O6 2.381012 1_546
Ag3 O8 2.483328 1_655
Ag3 O12 2.724440 1_545
Ag3 O8 2.731237 1_555
Ag4 O8 2.345295 1_555
Ag4 O9 2.381012 1_556
Ag4 O7 2.483328 1_555
Ag4 O19 2.724440 1_555
Ag4 O7 2.731237 1_455
Ag5 O9 2.345295 1_555
Ag5 O8 2.381012 1_564
Ag5 O6 2.483328 1_455
Ag5 O13 2.724440 1_565
Ag5 O6 2.731237 1_555
Ag6 O10 2.345295 1_555
Ag6 O4 2.381012 1_555
Ag6 O5 2.483328 1_555
Ag6 O14 2.724440 1_555
Ag6 O5 2.731237 1_655
Ag7 O11 2.345295 1_555
Ag7 O5 2.381012 1_555
Ag7 O4 2.483328 1_555
Ag7 O16 2.724440 1_555
Ag7 O4 2.731237 1_455
O0 Si0 1.625082 1_555
O0 Si3 1.625082 1_555
O1 Si5 1.625082 1_555
O1 Si1 1.625082 1_555
O2 Si2 1.625082 1_545
O2 Si6 1.625082 1_555
O3 Si7 1.625082 1_545
O3 Si4 1.625082 1_555
O4 Si3 1.616379 1_555
O5 Si5 1.616379 1_555
O6 Si6 1.616379 1_565
O7 Si0 1.616379 1_555
O8 Si7 1.616379 1_545
O9 Si1 1.616379 1_555
O10 Si2 1.616379 1_545
O11 Si4 1.616379 1_565
O12 Si0 1.649215 1_555
O12 Si7 1.654592 1_555
O13 Si1 1.649215 1_555
O13 Si6 1.654592 1_555
O14 Si2 1.649215 1_555
O14 Si5 1.654592 1_655
O15 Si3 1.649215 1_555
O15 Si4 1.654592 1_555
O16 Si4 1.649215 1_555
O16 Si3 1.654592 1_455
O17 Si5 1.649215 1_555
O17 Si2 1.654592 1_555
O18 Si6 1.649215 1_555
O18 Si1 1.654592 1_655
O19 Si7 1.649215 1_555
O19 Si0 1.654592 1_455
