# generated using pymatgen
data_Sm2CoO3
_symmetry_space_group_name_H-M   'P 1'
_cell_length_a   21.77332579
_cell_length_b   17.25978389
_cell_length_c   7.42888522
_cell_angle_alpha   51.61901928
_cell_angle_beta   51.71841865
_cell_angle_gamma   13.05582087
_symmetry_Int_Tables_number   1
_chemical_formula_structural   Sm2CoO3
_chemical_formula_sum   'Sm10 Co5 O15'
_cell_volume   492.67629083
_cell_formula_units_Z   5
loop_
 _symmetry_equiv_pos_site_id
 _symmetry_equiv_pos_as_xyz
  1  'x, y, z'
loop_
 _atom_site_type_symbol
 _atom_site_label
 _atom_site_symmetry_multiplicity
 _atom_site_fract_x
 _atom_site_fract_y
 _atom_site_fract_z
 _atom_site_occupancy
  Sm  Sm0  1  0.82729000  0.80786600  0.47794300  1
  Sm  Sm1  1  0.37965200  0.28016000  0.13922400  1
  Sm  Sm2  1  0.83947700  0.96503700  0.84314600  1
  Sm  Sm3  1  0.21908000  0.75328100  0.48872800  1
  Sm  Sm4  1  0.00760200  0.90422200  0.19309800  1
  Sm  Sm5  1  0.57128200  0.57786100  0.29215800  1
  Sm  Sm6  1  0.28949100  0.88929600  0.86592100  1
  Sm  Sm7  1  0.63835700  0.75903000  0.74413600  1
  Sm  Sm8  1  0.09837500  0.36976700  0.17091600  1
  Sm  Sm9  1  0.73779500  0.57795700  0.37007400  1
  Co  Co0  1  0.55303800  0.38627300  0.03759900  1
  Co  Co1  1  0.18569100  0.89505200  0.74681300  1
  Co  Co2  1  0.10949700  0.27248100  0.84286300  1
  Co  Co3  1  0.25067200  0.40089500  0.57969300  1
  Co  Co4  1  0.67697100  0.07506900  0.65173200  1
  O  O0  1  0.01152800  0.10027400  0.16099500  1
  O  O1  1  0.93953400  0.29213500  0.68706600  1
  O  O2  1  0.13452700  0.16702600  0.15579000  1
  O  O3  1  0.65990800  0.86245700  0.73168600  1
  O  O4  1  0.10241200  0.50981600  0.16162700  1
  O  O5  1  0.76528500  0.89593700  0.94409300  1
  O  O6  1  0.36973600  0.55226500  0.89289400  1
  O  O7  1  0.98344700  0.85811300  0.01310000  1
  O  O8  1  0.90949800  0.03040500  0.50282700  1
  O  O9  1  0.55319500  0.49977000  0.17482900  1
  O  O10  1  0.54256800  0.78397100  0.14482800  1
  O  O11  1  0.23897100  0.12187100  0.55633500  1
  O  O12  1  0.18510300  0.33056500  0.71679400  1
  O  O13  1  0.69275600  0.77461500  0.33798300  1
  O  O14  1  0.52316400  0.31063200  0.38330600  1
loop_
_geom_bond_atom_site_label_1
_geom_bond_atom_site_label_2
_geom_bond_distance
_geom_bond_site_symmetry_2
Co0 O14 2.035767 1_555
Co0 O7 2.112327 1_545
Co0 O6 2.122842 1_554
Co0 O9 2.715514 1_555
Co1 O6 1.861099 1_555
Co1 O1 1.870283 1_465
Co2 O2 1.843102 1_556
Co2 O11 2.096156 1_555
Co2 O12 2.175146 1_555
Co2 O3 2.358967 1_455
Co3 O12 2.142085 1_555
Co3 O3 2.266800 1_545
Co4 O5 1.796380 1_545
Co4 O14 1.844171 1_555
Co4 Sm0 2.529422 1_545
O0 Sm3 2.239109 1_545
O0 Sm6 2.286954 1_544
O0 Sm5 2.288640 1_455
O1 Sm9 2.312767 1_555
O1 Sm7 2.441752 1_555
O1 Sm6 2.453914 1_645
O2 Sm9 2.252236 1_455
O2 Sm5 2.367436 1_545
O2 Sm8 2.808788 1_555
O3 Sm0 2.174003 1_555
O3 Sm7 2.188289 1_555
O4 Sm1 2.266027 1_555
O4 Sm0 2.323877 1_455
O4 Sm8 2.460635 1_555
O4 Sm2 2.483561 1_454
O5 Sm1 2.225113 1_566
O5 Sm8 2.393645 1_656
O5 Sm2 2.395057 1_555
O6 Sm2 2.339297 1_545
O6 Sm4 2.400315 1_556
O6 Sm3 2.984450 1_555
O7 Sm1 2.356804 1_655
O7 Sm2 2.359185 1_554
O7 Sm4 2.388796 1_655
O8 Sm2 2.241071 1_545
O8 Sm3 2.292825 1_645
O8 Sm4 2.381075 1_645
O8 Sm5 2.512028 1_555
O9 Sm4 2.314296 1_645
O9 Sm6 2.322196 1_554
O9 Sm5 2.376927 1_555
O9 Sm3 2.672059 1_555
O10 Sm8 2.323074 1_565
O10 Sm9 2.342900 1_555
O10 Sm7 2.354882 1_554
O10 Sm5 2.433865 1_555
O11 Sm6 2.383413 1_545
O11 Sm8 2.450514 1_555
O11 Sm9 2.620287 1_545
O12 Sm7 2.251646 1_545
O12 Sm0 2.375590 1_455
O12 Sm8 2.802982 1_556
O13 Sm8 2.306347 1_655
O13 Sm9 2.310702 1_555
O13 Sm1 2.317490 1_565
O13 Sm7 2.400818 1_555
O14 Sm3 2.296147 1_555
O14 Sm0 2.425669 1_545
