# generated using pymatgen
data_MnCrN2
_symmetry_space_group_name_H-M   'P 1'
_cell_length_a   5.08421700
_cell_length_b   6.15837400
_cell_length_c   4.94680400
_cell_angle_alpha   90.00000000
_cell_angle_beta   90.00000000
_cell_angle_gamma   90.00000000
_symmetry_Int_Tables_number   1
_chemical_formula_structural   MnCrN2
_chemical_formula_sum   'Mn4 Cr4 N8'
_cell_volume   154.88695504
_cell_formula_units_Z   4
loop_
 _symmetry_equiv_pos_site_id
 _symmetry_equiv_pos_as_xyz
  1  'x, y, z'
loop_
 _atom_site_type_symbol
 _atom_site_label
 _atom_site_symmetry_multiplicity
 _atom_site_fract_x
 _atom_site_fract_y
 _atom_site_fract_z
 _atom_site_occupancy
  Mn  Mn0  1  0.56952800  0.88578300  0.94465300  1
  Mn  Mn1  1  0.43047200  0.11421700  0.44465300  1
  Mn  Mn2  1  0.93047200  0.38578300  0.44465300  1
  Mn  Mn3  1  0.06952800  0.61421700  0.94465300  1
  Cr  Cr0  1  0.59349400  0.35447500  0.03510400  1
  Cr  Cr1  1  0.40650600  0.64552500  0.53510400  1
  Cr  Cr2  1  0.90650600  0.85447500  0.53510400  1
  Cr  Cr3  1  0.09349400  0.14552500  0.03510400  1
  N  N0  1  0.58604600  0.85854000  0.33364800  1
  N  N1  1  0.41395400  0.14146000  0.83364800  1
  N  N2  1  0.91395400  0.35854000  0.83364800  1
  N  N3  1  0.08604600  0.64146000  0.33364800  1
  N  N4  1  0.57100800  0.39334200  0.40859500  1
  N  N5  1  0.42899200  0.60665800  0.90859500  1
  N  N6  1  0.92899200  0.89334200  0.90859500  1
  N  N7  1  0.07100800  0.10665800  0.40859500  1
loop_
_geom_bond_atom_site_label_1
_geom_bond_atom_site_label_2
_geom_bond_distance
_geom_bond_site_symmetry_2
Mn0 N6 1.836867 1_555
Mn0 N1 1.845641 1_565
Mn0 N5 1.870069 1_555
Mn0 N0 1.933407 1_556
Mn1 N7 1.836867 1_555
Mn1 N0 1.845641 1_545
Mn1 N4 1.870069 1_555
Mn1 N1 1.933407 1_555
Mn2 N4 1.836867 1_555
Mn2 N3 1.845641 1_655
Mn2 N7 1.870069 1_655
Mn2 N2 1.933407 1_555
Mn3 N5 1.836867 1_555
Mn3 N2 1.845641 1_455
Mn3 N6 1.870069 1_455
Mn3 N3 1.933407 1_556
Cr0 N4 1.866531 1_555
Cr0 N5 1.871650 1_554
Cr0 N1 1.883419 1_554
Cr0 N2 1.910064 1_554
Cr1 N5 1.866531 1_555
Cr1 N4 1.871650 1_555
Cr1 N0 1.883419 1_555
Cr1 N3 1.910064 1_555
Cr2 N6 1.866531 1_555
Cr2 N7 1.871650 1_665
Cr2 N3 1.883419 1_655
Cr2 N0 1.910064 1_555
Cr3 N7 1.866531 1_555
Cr3 N6 1.871650 1_444
Cr3 N2 1.883419 1_454
Cr3 N1 1.910064 1_554
