# generated using pymatgen
data_Mg14SnB
_symmetry_space_group_name_H-M   'P 1'
_cell_length_a   6.31389950
_cell_length_b   6.59141539
_cell_length_c   9.94538686
_cell_angle_alpha   90.00000000
_cell_angle_beta   90.00000000
_cell_angle_gamma   121.46493592
_symmetry_Int_Tables_number   1
_chemical_formula_structural   Mg14SnB
_chemical_formula_sum   'Mg14 Sn1 B1'
_cell_volume   353.04216170
_cell_formula_units_Z   1
loop_
 _symmetry_equiv_pos_site_id
 _symmetry_equiv_pos_as_xyz
  1  'x, y, z'
loop_
 _atom_site_type_symbol
 _atom_site_label
 _atom_site_symmetry_multiplicity
 _atom_site_fract_x
 _atom_site_fract_y
 _atom_site_fract_z
 _atom_site_occupancy
  Mg  Mg0  1  0.18109534  0.34054717  0.62500000  1
  Mg  Mg1  1  0.17693880  0.83846890  0.62500000  1
  Mg  Mg2  1  0.72646518  0.36771529  0.12500000  1
  Mg  Mg3  1  0.66872981  0.33809923  0.62500000  1
  Mg  Mg4  1  0.72646518  0.85874889  0.12500000  1
  Mg  Mg5  1  0.66872981  0.83062958  0.62500000  1
  Mg  Mg6  1  0.31635442  0.13535181  0.34647356  1
  Mg  Mg7  1  0.31635442  0.13535181  0.90352644  1
  Mg  Mg8  1  0.31635442  0.68100361  0.34647356  1
  Mg  Mg9  1  0.31635442  0.68100361  0.90352644  1
  Mg  Mg10  1  0.82888335  0.16444218  0.37983458  1
  Mg  Mg11  1  0.82888335  0.16444218  0.87016542  1
  Mg  Mg12  1  0.82945135  0.66472617  0.36852219  1
  Mg  Mg13  1  0.82945135  0.66472617  0.88147781  1
  Sn  Sn0  1  0.18242572  0.34121236  0.12500000  1
  B  B0  1  0.08706306  0.79353103  0.12500000  1
loop_
_geom_bond_atom_site_label_1
_geom_bond_atom_site_label_2
_geom_bond_distance
_geom_bond_site_symmetry_2
Mg0 Mg5 3.087328 1_555
Mg0 Mg3 3.087328 1_555
Mg0 Mg11 3.089196 1_455
Mg0 Mg10 3.089196 1_455
Mg0 Mg5 3.226631 1_445
Mg0 Mg3 3.226632 1_455
Mg0 Mg1 3.295784 1_545
Mg0 Mg1 3.295784 1_555
Mg0 Mg6 3.381968 1_555
Mg0 Mg7 3.381968 1_555
Mg0 Mg8 3.381975 1_555
Mg0 Mg9 3.381975 1_555
Mg1 Mg3 3.132401 1_565
Mg1 Mg5 3.132401 1_555
Mg1 Mg12 3.163629 1_455
Mg1 Mg13 3.163629 1_455
Mg1 Mg3 3.182114 1_455
Mg1 Mg5 3.182114 1_455
Mg1 Mg8 3.237146 1_555
Mg1 Mg9 3.237146 1_555
Mg1 Mg6 3.237152 1_565
Mg1 Mg7 3.237152 1_565
Mg2 Sn0 2.973809 1_655
Mg2 Sn0 3.347144 1_555
Mg3 Mg5 3.246472 1_555
Mg3 Mg5 3.344943 1_545
Mg3 Mg6 3.362317 1_555
Mg3 Mg7 3.362317 1_555
Mg4 Sn0 2.973809 1_665
Mg4 Sn0 3.347143 1_555
Mg5 Mg8 3.362318 1_555
Mg5 Mg9 3.362318 1_555
Mg6 Sn0 2.933556 1_555
Mg7 Sn0 2.933556 1_556
Mg8 Sn0 2.933564 1_555
Mg9 Sn0 2.933564 1_556
Mg10 Mg3 3.079967 1_555
Mg10 Mg5 3.079974 1_545
Mg10 Mg2 3.088887 1_555
Mg10 Mg4 3.088894 1_545
Mg10 Mg8 3.157710 1_545
Mg10 Mg6 3.157710 1_555
Mg10 Sn0 3.169946 1_655
Mg10 Mg8 3.199387 1_655
Mg10 Mg6 3.199387 1_655
Mg10 Mg12 3.297629 1_555
Mg10 Mg12 3.297629 1_545
Mg11 Mg3 3.079967 1_555
Mg11 Mg5 3.079974 1_545
Mg11 Mg2 3.088887 1_556
Mg11 Mg4 3.088894 1_546
Mg11 Mg9 3.157710 1_545
Mg11 Mg7 3.157710 1_555
Mg11 Sn0 3.169946 1_656
Mg11 Mg9 3.199387 1_655
Mg11 Mg7 3.199387 1_655
Mg11 Mg13 3.297629 1_555
Mg11 Mg13 3.297629 1_545
Mg12 Mg5 3.144918 1_555
Mg12 Mg3 3.144925 1_555
Mg13 Mg5 3.144918 1_555
Mg13 Mg3 3.144925 1_555
B0 Mg2 2.527899 1_455
B0 Mg4 2.527899 1_455
B0 Mg13 2.791147 1_454
B0 Mg12 2.791147 1_455
B0 Mg9 2.935755 1_554
B0 Mg8 2.935755 1_555
B0 Mg7 2.935762 1_564
B0 Mg6 2.935762 1_565
