# generated using pymatgen
data_Ba2U(Cu2Se3)2
_symmetry_space_group_name_H-M   'P 1'
_cell_length_a   9.82982600
_cell_length_b   7.33751600
_cell_length_c   8.95904063
_cell_angle_alpha   72.31193243
_cell_angle_beta   90.00000000
_cell_angle_gamma   90.00000000
_symmetry_Int_Tables_number   1
_chemical_formula_structural   Ba2U(Cu2Se3)2
_chemical_formula_sum   'Ba4 U2 Cu8 Se12'
_cell_volume   615.63578814
_cell_formula_units_Z   2
loop_
 _symmetry_equiv_pos_site_id
 _symmetry_equiv_pos_as_xyz
  1  'x, y, z'
loop_
 _atom_site_type_symbol
 _atom_site_label
 _atom_site_symmetry_multiplicity
 _atom_site_fract_x
 _atom_site_fract_y
 _atom_site_fract_z
 _atom_site_occupancy
  Ba  Ba0  1  0.26836100  0.48536800  0.12429200  1
  Ba  Ba1  1  0.76836100  0.51463200  0.37570800  1
  Ba  Ba2  1  0.73163900  0.51463200  0.87570800  1
  Ba  Ba3  1  0.23163900  0.48536800  0.62429200  1
  U  U0  1  0.00000000  0.00000000  0.00000000  1
  U  U1  1  0.50000000  0.00000000  0.50000000  1
  Cu  Cu0  1  0.00052000  0.99520100  0.36015400  1
  Cu  Cu1  1  0.50052000  0.00479900  0.13984600  1
  Cu  Cu2  1  0.99948000  0.00479900  0.63984600  1
  Cu  Cu3  1  0.49948000  0.99520100  0.86015400  1
  Cu  Cu4  1  0.25327200  0.93485400  0.26508600  1
  Cu  Cu5  1  0.75327200  0.06514600  0.23491400  1
  Cu  Cu6  1  0.74672800  0.06514600  0.73491400  1
  Cu  Cu7  1  0.24672800  0.93485400  0.76508600  1
  Se  Se0  1  0.71794500  0.88835200  0.02967200  1
  Se  Se1  1  0.21794500  0.11164800  0.47032800  1
  Se  Se2  1  0.28205500  0.11164800  0.97032800  1
  Se  Se3  1  0.78205500  0.88835200  0.52967200  1
  Se  Se4  1  0.44854500  0.71656200  0.35190000  1
  Se  Se5  1  0.94854500  0.28343800  0.14810000  1
  Se  Se6  1  0.55145500  0.28343800  0.64810000  1
  Se  Se7  1  0.05145500  0.71656200  0.85190000  1
  Se  Se8  1  0.06218500  0.71176300  0.28869600  1
  Se  Se9  1  0.56218500  0.28823700  0.21130400  1
  Se  Se10  1  0.93781500  0.28823700  0.71130400  1
  Se  Se11  1  0.43781500  0.71176300  0.78869600  1
loop_
_geom_bond_atom_site_label_1
_geom_bond_atom_site_label_2
_geom_bond_distance
_geom_bond_site_symmetry_2
Ba0 Se9 3.218174 1_555
Ba0 Se8 3.243944 1_555
Ba0 Se7 3.295992 1_554
Ba0 Se11 3.396882 1_554
Ba0 Se2 3.426194 1_554
Ba0 Se5 3.454252 1_455
Ba0 Se1 3.494306 1_555
Ba0 Se4 3.503567 1_555
Ba1 Se8 3.218174 1_655
Ba1 Se9 3.243944 1_555
Ba1 Se6 3.295992 1_555
Ba1 Se10 3.396882 1_555
Ba1 Se3 3.426194 1_555
Ba1 Se4 3.454252 1_555
Ba1 Se0 3.494306 1_555
Ba1 Se5 3.503567 1_555
Ba2 Se11 3.218174 1_555
Ba2 Se10 3.243944 1_555
Ba2 Se5 3.295992 1_556
Ba2 Se9 3.396882 1_556
Ba2 Se0 3.426194 1_556
Ba2 Se7 3.454252 1_655
Ba2 Se3 3.494306 1_555
Ba2 Se6 3.503567 1_555
Ba3 Se10 3.218174 1_455
Ba3 Se11 3.243944 1_555
Ba3 Se4 3.295992 1_555
Ba3 Se8 3.396882 1_555
Ba3 Se1 3.426194 1_555
Ba3 Se6 3.454252 1_555
Ba3 Se2 3.494306 1_555
Ba3 Se7 3.503567 1_555
Cu0 Se5 2.429332 1_465
Cu0 Se8 2.431384 1_555
Cu0 Se1 2.604737 1_565
Cu0 Se3 2.609458 1_455
Cu1 Se4 2.429332 1_545
Cu1 Se9 2.431384 1_555
Cu1 Se0 2.604737 1_545
Cu1 Se2 2.609458 1_554
Cu2 Se7 2.429332 1_645
Cu2 Se10 2.431384 1_555
Cu2 Se3 2.604737 1_545
Cu2 Se1 2.609458 1_655
Cu3 Se6 2.429332 1_565
Cu3 Se11 2.431384 1_555
Cu3 Se2 2.604737 1_565
Cu3 Se0 2.609458 1_556
Cu4 Se8 2.458067 1_555
Cu4 Se4 2.469392 1_555
Cu4 Se1 2.575645 1_565
Cu4 Se2 2.579679 1_564
Cu5 Se9 2.458067 1_555
Cu5 Se5 2.469392 1_555
Cu5 Se0 2.575645 1_545
Cu5 Se3 2.579679 1_545
Cu6 Se10 2.458067 1_555
Cu6 Se6 2.469392 1_555
Cu6 Se3 2.575645 1_545
Cu6 Se0 2.579679 1_546
Cu7 Se11 2.458067 1_555
Cu7 Se7 2.469392 1_555
Cu7 Se2 2.575645 1_565
Cu7 Se1 2.579679 1_565
Se0 U0 2.880363 1_665
Se1 U1 2.880363 1_555
Se2 U0 2.880363 1_556
Se3 U1 2.880363 1_565
Se4 U1 2.831684 1_565
Se5 U0 2.831684 1_655
Se6 U1 2.831684 1_555
Se7 U0 2.831684 1_566
Se8 U0 2.865702 1_565
Se9 U1 2.865702 1_555
Se10 U0 2.865702 1_656
Se11 U1 2.865702 1_565
