# generated using pymatgen
data_RbBePO4
_symmetry_space_group_name_H-M   'P 1'
_cell_length_a   5.06247000
_cell_length_b   8.64997200
_cell_length_c   8.73907200
_cell_angle_alpha   90.00000000
_cell_angle_beta   90.00000000
_cell_angle_gamma   90.00000000
_symmetry_Int_Tables_number   1
_chemical_formula_structural   RbBePO4
_chemical_formula_sum   'Rb4 Be4 P4 O16'
_cell_volume   382.68591825
_cell_formula_units_Z   4
loop_
 _symmetry_equiv_pos_site_id
 _symmetry_equiv_pos_as_xyz
  1  'x, y, z'
loop_
 _atom_site_type_symbol
 _atom_site_label
 _atom_site_symmetry_multiplicity
 _atom_site_fract_x
 _atom_site_fract_y
 _atom_site_fract_z
 _atom_site_occupancy
  Rb  Rb0  1  0.50524100  0.99949600  0.29212700  1
  Rb  Rb1  1  0.00524100  0.00050400  0.70787300  1
  Rb  Rb2  1  0.50524100  0.49949600  0.20787300  1
  Rb  Rb3  1  0.00524100  0.50050400  0.79212700  1
  Be  Be0  1  0.00083100  0.32231900  0.40710900  1
  Be  Be1  1  0.50083100  0.67768100  0.59289100  1
  Be  Be2  1  0.00083100  0.82231900  0.09289100  1
  Be  Be3  1  0.50083100  0.17768100  0.90710900  1
  P  P0  1  0.99984700  0.18632300  0.08025200  1
  P  P1  1  0.49984700  0.81367700  0.91974800  1
  P  P2  1  0.99984700  0.68632300  0.41974800  1
  P  P3  1  0.49984700  0.31367700  0.58025200  1
  O  O0  1  0.29390400  0.26092200  0.45883600  1
  O  O1  1  0.79390400  0.73907800  0.54116400  1
  O  O2  1  0.29390400  0.76092200  0.04116400  1
  O  O3  1  0.79390400  0.23907800  0.95883600  1
  O  O4  1  0.99607700  0.01011000  0.09773000  1
  O  O5  1  0.49607700  0.98989000  0.90227000  1
  O  O6  1  0.99607700  0.51011000  0.40227000  1
  O  O7  1  0.49607700  0.48989000  0.59773000  1
  O  O8  1  0.27685600  0.24292500  0.02825100  1
  O  O9  1  0.77685600  0.75707500  0.97174900  1
  O  O10  1  0.27685600  0.74292500  0.47174900  1
  O  O11  1  0.77685600  0.25707500  0.52825100  1
  O  O12  1  0.42874400  0.23909300  0.73528100  1
  O  O13  1  0.92874400  0.76090700  0.26471900  1
  O  O14  1  0.42874400  0.73909300  0.76471900  1
  O  O15  1  0.92874400  0.26090700  0.23528100  1
loop_
_geom_bond_atom_site_label_1
_geom_bond_atom_site_label_2
_geom_bond_distance
_geom_bond_site_symmetry_2
Be0 O6 1.625115 1_455
Be0 O15 1.634081 1_455
Be0 O0 1.639415 1_555
Be0 O11 1.650737 1_455
Be1 O7 1.625115 1_555
Be1 O14 1.634081 1_555
Be1 O1 1.639415 1_555
Be1 O10 1.650737 1_555
Be2 O4 1.625115 1_465
Be2 O13 1.634081 1_455
Be2 O2 1.639415 1_555
Be2 O9 1.650737 1_454
Be3 O5 1.625115 1_545
Be3 O12 1.634081 1_555
Be3 O3 1.639415 1_555
Be3 O8 1.650737 1_556
O0 P3 1.555977 1_555
O0 Rb0 2.894955 1_545
O0 Rb2 3.195841 1_555
O0 Rb1 3.456341 1_555
O1 P2 1.555977 1_555
O1 Rb1 2.894955 1_665
O1 Rb3 3.195841 1_655
O1 Rb0 3.456341 1_555
O2 P1 1.555977 1_554
O2 Rb2 2.894955 1_555
O2 Rb0 3.195841 1_555
O2 Rb3 3.456341 1_554
O3 P0 1.555977 1_556
O3 Rb3 2.894955 1_655
O3 Rb1 3.195841 1_655
O3 Rb2 3.456341 1_556
O4 P0 1.531990 1_555
O4 Rb0 3.011472 1_545
O4 Rb0 3.088476 1_645
O4 Rb1 3.408317 1_654
O5 P1 1.531990 1_555
O5 Rb1 3.011472 1_565
O5 Rb1 3.088476 1_665
O5 Rb0 3.408317 1_556
O6 P2 1.531990 1_555
O6 Rb2 3.011472 1_555
O6 Rb2 3.088476 1_655
O6 Rb3 3.408317 1_655
O7 P3 1.531990 1_555
O7 Rb3 3.011472 1_555
O7 Rb3 3.088476 1_655
O7 Rb2 3.408317 1_555
O8 P0 1.553324 1_455
O8 Rb2 2.954025 1_555
O8 Rb0 3.329916 1_545
O8 Rb3 3.333618 1_554
O9 P1 1.553324 1_555
O9 Rb3 2.954025 1_655
O9 Rb1 3.329916 1_665
O9 Rb2 3.333618 1_556
O10 P2 1.553324 1_455
O10 Rb0 2.954025 1_555
O10 Rb2 3.329916 1_555
O10 Rb1 3.333618 1_565
O11 P3 1.553324 1_555
O11 Rb1 2.954025 1_655
O11 Rb3 3.329916 1_655
O11 Rb0 3.333618 1_545
O12 P3 1.543145 1_555
O12 Rb1 2.985499 1_555
O12 Rb3 3.155380 1_555
O13 P2 1.543145 1_555
O13 Rb0 2.985499 1_555
O13 Rb2 3.155380 1_555
O14 P1 1.543145 1_555
O14 Rb3 2.985499 1_555
O14 Rb1 3.155380 1_565
O15 P0 1.543145 1_555
O15 Rb2 2.985499 1_555
O15 Rb0 3.155380 1_545
