# generated using pymatgen
data_Ba8Ti3Nb4O24
_symmetry_space_group_name_H-M   'P 1'
_cell_length_a   5.85472511
_cell_length_b   5.85472511
_cell_length_c   19.20148500
_cell_angle_alpha   90.00000000
_cell_angle_beta   90.00000000
_cell_angle_gamma   120.00001256
_symmetry_Int_Tables_number   1
_chemical_formula_structural   Ba8Ti3Nb4O24
_chemical_formula_sum   'Ba8 Ti3 Nb4 O24'
_cell_volume   570.00466799
_cell_formula_units_Z   1
loop_
 _symmetry_equiv_pos_site_id
 _symmetry_equiv_pos_as_xyz
  1  'x, y, z'
loop_
 _atom_site_type_symbol
 _atom_site_label
 _atom_site_symmetry_multiplicity
 _atom_site_fract_x
 _atom_site_fract_y
 _atom_site_fract_z
 _atom_site_occupancy
  Ba  Ba0  1  0.66666700  0.33333300  0.24632600  1
  Ba  Ba1  1  0.33333300  0.66666700  0.74660400  1
  Ba  Ba2  1  0.00000000  0.00000000  0.50112200  1
  Ba  Ba3  1  0.00000000  0.00000000  0.01123600  1
  Ba  Ba4  1  0.66666700  0.33333300  0.63374200  1
  Ba  Ba5  1  0.33333300  0.66666700  0.37446800  1
  Ba  Ba6  1  0.33333300  0.66666700  0.14738800  1
  Ba  Ba7  1  0.66666700  0.33333300  0.86146400  1
  Ti  Ti0  1  0.00000000  0.00000000  0.67936800  1
  Ti  Ti1  1  0.00000000  0.00000000  0.82017500  1
  Ti  Ti2  1  0.33333300  0.66666700  0.56381400  1
  Nb  Nb0  1  0.00000000  0.00000000  0.30476000  1
  Nb  Nb1  1  0.66666700  0.33333300  0.06631600  1
  Nb  Nb2  1  0.33333300  0.66666700  0.93841700  1
  Nb  Nb3  1  0.66666700  0.33333300  0.44005700  1
  O  O0  1  0.16896400  0.83103600  0.62225400  1
  O  O1  1  0.66207200  0.83103600  0.62225400  1
  O  O2  1  0.16896400  0.33792800  0.62225400  1
  O  O3  1  0.83003100  0.16996900  0.38230600  1
  O  O4  1  0.33993800  0.16996900  0.38230600  1
  O  O5  1  0.83003100  0.66006200  0.38230600  1
  O  O6  1  0.82535600  0.17464400  0.11592500  1
  O  O7  1  0.34928800  0.17464400  0.11592500  1
  O  O8  1  0.82535600  0.65071200  0.11592500  1
  O  O9  1  0.16634700  0.83365300  0.87081400  1
  O  O10  1  0.66730500  0.83365300  0.87081400  1
  O  O11  1  0.16634700  0.33269500  0.87081400  1
  O  O12  1  0.16495700  0.83504300  0.26061700  1
  O  O13  1  0.67008700  0.83504300  0.26061700  1
  O  O14  1  0.16495700  0.32991300  0.26061700  1
  O  O15  1  0.85251200  0.14748800  0.74693100  1
  O  O16  1  0.29497500  0.14748800  0.74693100  1
  O  O17  1  0.85251200  0.70502500  0.74693100  1
  O  O18  1  0.49857300  0.99714500  0.50331800  1
  O  O19  1  0.49857300  0.50142700  0.50331800  1
  O  O20  1  0.00285500  0.50142700  0.50331800  1
  O  O21  1  0.49810400  0.99620800  0.99023800  1
  O  O22  1  0.49810400  0.50189600  0.99023800  1
  O  O23  1  0.00379200  0.50189600  0.99023800  1
loop_
_geom_bond_atom_site_label_1
_geom_bond_atom_site_label_2
_geom_bond_distance
_geom_bond_site_symmetry_2
Ba0 O12 2.940246 1_545
Ba0 O12 2.940246 1_655
Ba0 O13 2.940247 1_555
Ba0 O14 2.940247 1_555
Ba0 O13 2.940247 1_545
Ba0 O14 2.940247 1_655
Ba0 O6 2.976416 1_555
Ba0 O8 2.976418 1_555
Ba0 O7 2.976418 1_555
Ba0 O3 3.092218 1_555
Ba0 O5 3.092221 1_555
Ba0 O4 3.092221 1_555
Ba1 O0 2.911941 1_555
Ba1 O1 2.911944 1_555
Ba1 O2 2.911944 1_555
Ba1 O10 2.925020 1_555
Ba1 O11 2.925020 1_555
Ba1 O9 2.925020 1_555
Ba1 O15 2.933822 1_565
Ba1 O15 2.933822 1_455
Ba1 O17 2.933823 1_555
Ba1 O16 2.933823 1_555
Ba1 O16 2.933823 1_565
Ba1 O17 2.933823 1_455
Ba2 O4 2.859333 1_555
Ba2 O5 2.859333 1_445
Ba2 O3 2.859333 1_455
Ba2 O1 2.888884 1_445
Ba2 O2 2.888884 1_555
Ba2 O0 2.888884 1_545
Ba2 O20 2.927699 1_555
Ba2 O18 2.927699 1_445
Ba2 O19 2.927701 1_555
Ba2 O19 2.927701 1_445
Ba2 O18 2.927705 1_545
Ba2 O20 2.927705 1_545
Ba3 O7 2.679051 1_555
Ba3 O8 2.679051 1_445
Ba3 O6 2.679051 1_455
Ba3 O22 2.955060 1_444
Ba3 O22 2.955060 1_554
Ba3 O21 2.955061 1_444
Ba3 O23 2.955061 1_554
Ba3 O23 2.955061 1_544
Ba3 O21 2.955061 1_544
Ba3 O9 3.180508 1_544
Ba3 O11 3.180510 1_554
Ba3 O10 3.180510 1_444
Ba4 O15 2.876691 1_555
Ba4 O16 2.876698 1_555
Ba4 O17 2.876698 1_555
Ba4 O2 2.935751 1_655
Ba4 O1 2.935751 1_545
Ba4 O0 2.935754 1_545
Ba4 O0 2.935754 1_655
Ba4 O2 2.935757 1_555
Ba4 O1 2.935757 1_555
Ba4 O20 3.029407 1_655
Ba4 O18 3.029407 1_545
Ba4 O19 3.029408 1_555
Ba5 O12 2.773886 1_555
Ba5 O13 2.773893 1_555
Ba5 O14 2.773893 1_555
Ba5 O4 2.931417 1_565
Ba5 O5 2.931417 1_455
Ba5 O3 2.931419 1_565
Ba5 O3 2.931419 1_455
Ba5 O5 2.931423 1_555
Ba5 O4 2.931423 1_555
Ba5 O18 2.988140 1_555
Ba5 O20 2.988140 1_555
Ba5 O19 2.988146 1_555
Ba6 O12 2.764484 1_555
Ba6 O13 2.764490 1_555
Ba6 O14 2.764490 1_555
Ba6 O8 2.990144 1_455
Ba6 O7 2.990144 1_565
Ba6 O6 2.990146 1_455
Ba6 O6 2.990146 1_565
Ba6 O7 2.990149 1_555
Ba6 O8 2.990149 1_555
Ba7 O15 2.896238 1_555
Ba7 O16 2.896244 1_555
Ba7 O17 2.896244 1_555
Ba7 O10 2.932859 1_545
Ba7 O11 2.932859 1_655
Ba7 O9 2.932864 1_655
Ba7 O9 2.932864 1_545
Ba7 O11 2.932870 1_555
Ba7 O10 2.932870 1_555
Ba7 O21 3.005968 1_545
Ba7 O23 3.005968 1_655
Ba7 O22 3.005971 1_555
Nb0 O14 1.875262 1_555
Nb0 O13 1.875262 1_445
Nb0 O12 1.875267 1_545
Nb0 O4 2.277700 1_555
Nb0 O5 2.277700 1_445
Nb0 O3 2.277700 1_455
Nb1 O6 1.870015 1_555
Nb1 O8 1.870019 1_555
Nb1 O7 1.870019 1_555
Nb1 O23 2.248512 1_654
Nb1 O21 2.248512 1_544
Nb1 O22 2.248516 1_554
Nb2 O21 1.944727 1_555
Nb2 O23 1.944727 1_555
Nb2 O22 1.944731 1_555
Nb2 O10 2.133646 1_555
Nb2 O11 2.133646 1_555
Nb2 O9 2.133646 1_555
Nb3 O3 1.993506 1_555
Nb3 O5 1.993510 1_555
Nb3 O4 1.993510 1_555
Nb3 O18 2.093114 1_545
Nb3 O20 2.093114 1_655
Nb3 O19 2.093114 1_555
O0 Ti2 2.009342 1_555
O0 Ti0 2.034322 1_565
O1 Ti2 2.009346 1_555
O1 Ti0 2.034322 1_665
O2 Ti2 2.009346 1_555
O2 Ti0 2.034322 1_555
O9 Ti1 1.947047 1_565
O10 Ti1 1.947051 1_665
O11 Ti1 1.947051 1_555
O15 Ti0 1.979879 1_655
O15 Ti1 2.053010 1_655
O16 Ti0 1.979874 1_555
O16 Ti1 2.053006 1_555
O17 Ti0 1.979874 1_665
O17 Ti1 2.053006 1_665
O18 Ti2 2.038897 1_555
O19 Ti2 2.038905 1_555
O20 Ti2 2.038897 1_555
