# generated using pymatgen
data_PrMg(SbO3)2
_symmetry_space_group_name_H-M   'P 1'
_cell_length_a   5.69719000
_cell_length_b   6.26363200
_cell_length_c   8.01771700
_cell_angle_alpha   90.00000000
_cell_angle_beta   90.00000000
_cell_angle_gamma   90.00000000
_symmetry_Int_Tables_number   1
_chemical_formula_structural   PrMg(SbO3)2
_chemical_formula_sum   'Pr2 Mg2 Sb4 O12'
_cell_volume   286.11304570
_cell_formula_units_Z   2
loop_
 _symmetry_equiv_pos_site_id
 _symmetry_equiv_pos_as_xyz
  1  'x, y, z'
loop_
 _atom_site_type_symbol
 _atom_site_label
 _atom_site_symmetry_multiplicity
 _atom_site_fract_x
 _atom_site_fract_y
 _atom_site_fract_z
 _atom_site_occupancy
  Pr  Pr0  1  0.01664400  0.67122400  0.00000000  1
  Pr  Pr1  1  0.51664400  0.32877600  0.50000000  1
  Mg  Mg0  1  0.51182100  0.21927900  0.00000000  1
  Mg  Mg1  1  0.01182100  0.78072100  0.50000000  1
  Sb  Sb0  1  0.01674400  0.22171400  0.75421300  1
  Sb  Sb1  1  0.01674400  0.22171400  0.24578700  1
  Sb  Sb2  1  0.51674400  0.77828600  0.25421300  1
  Sb  Sb3  1  0.51674400  0.77828600  0.74578700  1
  O  O0  1  0.14458500  0.14110700  0.50000000  1
  O  O1  1  0.15498600  0.93908900  0.81482500  1
  O  O2  1  0.15498600  0.93908900  0.18517500  1
  O  O3  1  0.31825700  0.38560600  0.18078100  1
  O  O4  1  0.31825700  0.38560600  0.81921900  1
  O  O5  1  0.35820400  0.69593900  0.50000000  1
  O  O6  1  0.64458500  0.85889300  0.00000000  1
  O  O7  1  0.65498600  0.06091100  0.68517500  1
  O  O8  1  0.65498600  0.06091100  0.31482500  1
  O  O9  1  0.81825700  0.61439400  0.68078100  1
  O  O10  1  0.81825700  0.61439400  0.31921900  1
  O  O11  1  0.85820400  0.30406100  0.00000000  1
loop_
_geom_bond_atom_site_label_1
_geom_bond_atom_site_label_2
_geom_bond_distance
_geom_bond_site_symmetry_2
Mg0 O11 2.043613 1_555
Mg0 O4 2.098185 1_554
Mg0 O3 2.098185 1_555
Mg0 O6 2.380679 1_545
Mg1 O5 2.043613 1_555
Mg1 O9 2.098185 1_455
Mg1 O10 2.098185 1_455
Mg1 O0 2.380679 1_565
O0 Sb1 2.222539 1_555
O0 Sb0 2.222539 1_555
O0 Pr1 2.423812 1_555
O1 Sb0 1.997569 1_565
O1 Sb3 2.359789 1_555
O1 Pr0 2.374976 1_556
O2 Sb1 1.997569 1_565
O2 Sb2 2.359789 1_555
O2 Pr0 2.374976 1_555
O3 Sb1 2.067905 1_555
O3 Pr1 2.820414 1_555
O3 Pr0 2.873006 1_555
O4 Sb0 2.067905 1_555
O4 Pr1 2.820414 1_555
O4 Pr0 2.873006 1_556
O5 Sb2 2.228303 1_555
O5 Sb3 2.228303 1_555
O5 Pr1 2.470579 1_555
O6 Sb3 2.222539 1_554
O6 Sb2 2.222539 1_555
O6 Pr0 2.423812 1_655
O7 Sb3 1.997569 1_545
O7 Sb0 2.359789 1_655
O7 Pr1 2.374976 1_555
O8 Sb2 1.997569 1_545
O8 Sb1 2.359789 1_655
O8 Pr1 2.374976 1_555
O9 Sb3 2.067905 1_555
O9 Pr0 2.820414 1_656
O9 Pr1 2.873006 1_555
O10 Sb2 2.067905 1_555
O10 Pr0 2.820414 1_655
O10 Pr1 2.873006 1_555
O11 Sb0 2.228303 1_654
O11 Sb1 2.228303 1_655
O11 Pr0 2.470579 1_655
