# generated using pymatgen
data_BaSn(HO)6
_symmetry_space_group_name_H-M   'P 1'
_cell_length_a   6.47661700
_cell_length_b   9.49934400
_cell_length_c   11.17487035
_cell_angle_alpha   61.38652948
_cell_angle_beta   90.00000000
_cell_angle_gamma   90.00000000
_symmetry_Int_Tables_number   1
_chemical_formula_structural   BaSn(HO)6
_chemical_formula_sum   'Ba4 Sn4 H24 O24'
_cell_volume   603.55205603
_cell_formula_units_Z   4
loop_
 _symmetry_equiv_pos_site_id
 _symmetry_equiv_pos_as_xyz
  1  'x, y, z'
loop_
 _atom_site_type_symbol
 _atom_site_label
 _atom_site_symmetry_multiplicity
 _atom_site_fract_x
 _atom_site_fract_y
 _atom_site_fract_z
 _atom_site_occupancy
  Ba  Ba0  1  0.49410600  0.17818600  0.28235100  1
  Ba  Ba1  1  0.00589400  0.17818600  0.78235100  1
  Ba  Ba2  1  0.50589400  0.82181400  0.71764900  1
  Ba  Ba3  1  0.99410600  0.82181400  0.21764900  1
  Sn  Sn0  1  0.50000000  0.00000000  0.00000000  1
  Sn  Sn1  1  0.00000000  0.00000000  0.50000000  1
  Sn  Sn2  1  0.00000000  0.50000000  0.00000000  1
  Sn  Sn3  1  0.50000000  0.50000000  0.50000000  1
  H  H0  1  0.33439200  0.48605200  0.29857900  1
  H  H1  1  0.16560800  0.48605200  0.79857900  1
  H  H2  1  0.66560800  0.51394800  0.70142100  1
  H  H3  1  0.83439200  0.51394800  0.20142100  1
  H  H4  1  0.72841200  0.18397000  0.53241400  1
  H  H5  1  0.77158800  0.18397000  0.03241400  1
  H  H6  1  0.27158800  0.81603000  0.46758600  1
  H  H7  1  0.22841200  0.81603000  0.96758600  1
  H  H8  1  0.43021400  0.30938200  0.84258500  1
  H  H9  1  0.06978600  0.30938200  0.34258500  1
  H  H10  1  0.56978600  0.69061800  0.15741500  1
  H  H11  1  0.93021400  0.69061800  0.65741500  1
  H  H12  1  0.62871100  0.41781000  0.96887200  1
  H  H13  1  0.87128900  0.41781000  0.46887200  1
  H  H14  1  0.37128900  0.58219000  0.03112800  1
  H  H15  1  0.12871100  0.58219000  0.53112800  1
  H  H16  1  0.48553600  0.86968200  0.26364000  1
  H  H17  1  0.01446400  0.86968200  0.76364000  1
  H  H18  1  0.51446400  0.13031800  0.73636000  1
  H  H19  1  0.98553600  0.13031800  0.23636000  1
  H  H20  1  0.77979700  0.73813800  0.96359800  1
  H  H21  1  0.72020300  0.73813800  0.46359800  1
  H  H22  1  0.22020300  0.26186200  0.03640200  1
  H  H23  1  0.27979700  0.26186200  0.53640200  1
  O  O0  1  0.48288500  0.49457300  0.31109400  1
  O  O1  1  0.01711500  0.49457300  0.81109400  1
  O  O2  1  0.51711500  0.50542700  0.68890600  1
  O  O3  1  0.98288500  0.50542700  0.18890600  1
  O  O4  1  0.71142600  0.09049000  0.51641000  1
  O  O5  1  0.78857400  0.09049000  0.01641000  1
  O  O6  1  0.28857400  0.90951000  0.48359000  1
  O  O7  1  0.21142600  0.90951000  0.98359000  1
  O  O8  1  0.35126400  0.22245700  0.91831900  1
  O  O9  1  0.14873600  0.22245700  0.41831900  1
  O  O10  1  0.64873600  0.77754300  0.08168100  1
  O  O11  1  0.85126400  0.77754300  0.58168100  1
  O  O12  1  0.71974600  0.36722700  0.04761000  1
  O  O13  1  0.78025400  0.36722700  0.54761000  1
  O  O14  1  0.28025400  0.63277300  0.95239000  1
  O  O15  1  0.21974600  0.63277300  0.45239000  1
  O  O16  1  0.40336000  0.95966500  0.19252300  1
  O  O17  1  0.09664000  0.95966500  0.69252300  1
  O  O18  1  0.59664000  0.04033500  0.80747700  1
  O  O19  1  0.90336000  0.04033500  0.30747700  1
  O  O20  1  0.84012000  0.71231500  0.89417200  1
  O  O21  1  0.65988000  0.71231500  0.39417200  1
  O  O22  1  0.15988000  0.28768500  0.10582800  1
  O  O23  1  0.34012000  0.28768500  0.60582800  1
loop_
_geom_bond_atom_site_label_1
_geom_bond_atom_site_label_2
_geom_bond_distance
_geom_bond_site_symmetry_2
Ba0 O4 2.725678 1_555
Ba0 O16 2.767278 1_545
Ba0 O22 2.773743 1_555
Ba0 O12 2.780243 1_555
Ba0 O6 2.801036 1_545
Ba0 O9 2.846214 1_555
Ba0 O19 2.909816 1_555
Ba1 O5 2.725678 1_456
Ba1 O17 2.767278 1_545
Ba1 O23 2.773743 1_555
Ba1 O13 2.780243 1_455
Ba1 O7 2.801036 1_545
Ba1 O8 2.846214 1_555
Ba1 O18 2.909816 1_455
Ba2 O6 2.725678 1_555
Ba2 O18 2.767278 1_565
Ba2 O20 2.773743 1_555
Ba2 O14 2.780243 1_555
Ba2 O4 2.801036 1_565
Ba2 O11 2.846214 1_555
Ba2 O17 2.909816 1_555
Ba3 O7 2.725678 1_654
Ba3 O19 2.767278 1_565
Ba3 O21 2.773743 1_555
Ba3 O15 2.780243 1_655
Ba3 O5 2.801036 1_565
Ba3 O10 2.846214 1_555
Ba3 O16 2.909816 1_655
H0 O0 0.980756 1_555
H1 O1 0.980756 1_555
H2 O2 0.980756 1_555
H3 O3 0.980756 1_555
H4 O4 0.992340 1_555
H5 O5 0.992340 1_555
H6 O6 0.992340 1_555
H7 O7 0.992340 1_555
H8 O8 0.995090 1_555
H9 O9 0.995090 1_555
H10 O10 0.995090 1_555
H11 O11 0.995090 1_555
H12 O12 0.973533 1_556
H13 O13 0.973533 1_555
H14 O14 0.973533 1_554
H15 O15 0.973533 1_555
H16 O16 0.997422 1_555
H17 O17 0.997422 1_555
H18 O18 0.997422 1_555
H19 O19 0.997422 1_555
H20 O20 0.998497 1_555
H21 O21 0.998497 1_555
H22 O22 0.998497 1_555
H23 O23 0.998497 1_555
O0 Sn3 2.139042 1_555
O1 Sn2 2.139042 1_556
O2 Sn3 2.139042 1_555
O3 Sn2 2.139042 1_655
O4 Sn1 2.101573 1_655
O5 Sn0 2.101573 1_555
O6 Sn1 2.101573 1_565
O7 Sn0 2.101573 1_566
O8 Sn0 2.092665 1_556
O9 Sn1 2.092665 1_555
O10 Sn0 2.092665 1_565
O11 Sn1 2.092665 1_665
O12 Sn2 2.127368 1_655
O13 Sn3 2.127368 1_555
O14 Sn2 2.127368 1_556
O15 Sn3 2.127368 1_555
O16 Sn0 2.092278 1_565
O17 Sn1 2.092278 1_565
O18 Sn0 2.092278 1_556
O19 Sn1 2.092278 1_655
O20 Sn2 2.062522 1_656
O21 Sn3 2.062522 1_555
O22 Sn2 2.062522 1_555
O23 Sn3 2.062522 1_555
