# generated using pymatgen
data_Eu3Si2BO10
_symmetry_space_group_name_H-M   'P 1'
_cell_length_a   7.14027850
_cell_length_b   9.85701643
_cell_length_c   23.26044057
_cell_angle_alpha   90.00000000
_cell_angle_beta   90.00000000
_cell_angle_gamma   90.00000000
_symmetry_Int_Tables_number   1
_chemical_formula_structural   Eu3Si2BO10
_chemical_formula_sum   'Eu24 Si16 B8 O80'
_cell_volume   1637.11266443
_cell_formula_units_Z   8
loop_
 _symmetry_equiv_pos_site_id
 _symmetry_equiv_pos_as_xyz
  1  'x, y, z'
loop_
 _atom_site_type_symbol
 _atom_site_label
 _atom_site_symmetry_multiplicity
 _atom_site_fract_x
 _atom_site_fract_y
 _atom_site_fract_z
 _atom_site_occupancy
  Eu  Eu0  1  0.82106062  0.36459411  0.83480594  1
  Eu  Eu1  1  0.67893938  0.86459411  0.16519406  1
  Eu  Eu2  1  0.32106062  0.63540589  0.66519406  1
  Eu  Eu3  1  0.17893938  0.13540589  0.33480594  1
  Eu  Eu4  1  0.17893938  0.63540589  0.16519406  1
  Eu  Eu5  1  0.32106062  0.13540589  0.83480594  1
  Eu  Eu6  1  0.67893938  0.36459411  0.33480594  1
  Eu  Eu7  1  0.82106062  0.86459411  0.66519406  1
  Eu  Eu8  1  0.09160401  0.76854122  0.81753666  1
  Eu  Eu9  1  0.40839599  0.26854122  0.18246334  1
  Eu  Eu10  1  0.59160401  0.23145878  0.68246334  1
  Eu  Eu11  1  0.90839599  0.73145878  0.31753666  1
  Eu  Eu12  1  0.90839599  0.23145878  0.18246334  1
  Eu  Eu13  1  0.59160401  0.73145878  0.81753666  1
  Eu  Eu14  1  0.40839599  0.76854122  0.31753666  1
  Eu  Eu15  1  0.09160401  0.26854122  0.68246334  1
  Eu  Eu16  1  0.86197600  0.00939587  0.92702248  1
  Eu  Eu17  1  0.63802400  0.50939587  0.07297752  1
  Eu  Eu18  1  0.36197600  0.99060413  0.57297752  1
  Eu  Eu19  1  0.13802400  0.49060413  0.42702248  1
  Eu  Eu20  1  0.13802400  0.99060413  0.07297752  1
  Eu  Eu21  1  0.36197600  0.49060413  0.92702248  1
  Eu  Eu22  1  0.63802400  0.00939587  0.42702248  1
  Eu  Eu23  1  0.86197600  0.50939587  0.57297752  1
  Si  Si0  1  0.85787399  0.62304106  0.92192859  1
  Si  Si1  1  0.64212601  0.12304106  0.07807141  1
  Si  Si2  1  0.35787399  0.37695894  0.57807141  1
  Si  Si3  1  0.14212601  0.87695894  0.42192859  1
  Si  Si4  1  0.14212601  0.37695894  0.07807141  1
  Si  Si5  1  0.35787399  0.87695894  0.92192859  1
  Si  Si6  1  0.64212601  0.62304106  0.42192859  1
  Si  Si7  1  0.85787399  0.12304106  0.57807141  1
  Si  Si8  1  0.81396175  0.06065817  0.77888743  1
  Si  Si9  1  0.68603825  0.56065817  0.22111257  1
  Si  Si10  1  0.31396175  0.93934183  0.72111257  1
  Si  Si11  1  0.18603825  0.43934183  0.27888743  1
  Si  Si12  1  0.18603825  0.93934183  0.22111257  1
  Si  Si13  1  0.31396175  0.43934183  0.77888743  1
  Si  Si14  1  0.68603825  0.06065817  0.27888743  1
  Si  Si15  1  0.81396175  0.56065817  0.72111257  1
  B  B0  1  0.66163384  0.25496538  0.97160699  1
  B  B1  1  0.83836616  0.75496538  0.02839301  1
  B  B2  1  0.16163384  0.74503462  0.52839301  1
  B  B3  1  0.33836616  0.24503462  0.47160699  1
  B  B4  1  0.33836616  0.74503462  0.02839301  1
  B  B5  1  0.16163384  0.24503462  0.97160699  1
  B  B6  1  0.83836616  0.25496538  0.47160699  1
  B  B7  1  0.66163384  0.75496538  0.52839301  1
  O  O0  1  0.86749211  0.09814818  0.71136726  1
  O  O1  1  0.63250789  0.59814818  0.28863274  1
  O  O2  1  0.36749211  0.90185182  0.78863274  1
  O  O3  1  0.13250789  0.40185182  0.21136726  1
  O  O4  1  0.13250789  0.90185182  0.28863274  1
  O  O5  1  0.36749211  0.40185182  0.71136726  1
  O  O6  1  0.63250789  0.09814818  0.21136726  1
  O  O7  1  0.86749211  0.59814818  0.78863274  1
  O  O8  1  0.85383243  0.77426441  0.89120112  1
  O  O9  1  0.64616757  0.27426441  0.10879888  1
  O  O10  1  0.35383243  0.22573559  0.60879888  1
  O  O11  1  0.14616757  0.72573559  0.39120112  1
  O  O12  1  0.14616757  0.22573559  0.10879888  1
  O  O13  1  0.35383243  0.72573559  0.89120112  1
  O  O14  1  0.64616757  0.77426441  0.39120112  1
  O  O15  1  0.85383243  0.27426441  0.60879888  1
  O  O16  1  0.79493260  0.39436503  0.72172566  1
  O  O17  1  0.70506740  0.89436503  0.27827434  1
  O  O18  1  0.29493260  0.60563497  0.77827434  1
  O  O19  1  0.20506740  0.10563497  0.22172566  1
  O  O20  1  0.20506740  0.60563497  0.27827434  1
  O  O21  1  0.29493260  0.10563497  0.72172566  1
  O  O22  1  0.70506740  0.39436503  0.22172566  1
  O  O23  1  0.79493260  0.89436503  0.77827434  1
  O  O24  1  0.66196522  0.13750223  0.00706690  1
  O  O25  1  0.83803478  0.63750223  0.99293310  1
  O  O26  1  0.16196522  0.86249777  0.49293310  1
  O  O27  1  0.33803478  0.36249777  0.50706690  1
  O  O28  1  0.33803478  0.86249777  0.99293310  1
  O  O29  1  0.16196522  0.36249777  0.00706690  1
  O  O30  1  0.83803478  0.13750223  0.50706690  1
  O  O31  1  0.66196522  0.63750223  0.49293310  1
  O  O32  1  0.58294469  0.37267758  0.99034889  1
  O  O33  1  0.91705531  0.87267758  0.00965111  1
  O  O34  1  0.08294469  0.62732242  0.50965111  1
  O  O35  1  0.41705531  0.12732242  0.49034889  1
  O  O36  1  0.41705531  0.62732242  0.00965111  1
  O  O37  1  0.08294469  0.12732242  0.99034889  1
  O  O38  1  0.91705531  0.37267758  0.49034889  1
  O  O39  1  0.58294469  0.87267758  0.50965111  1
  O  O40  1  0.67339578  0.54793932  0.89420452  1
  O  O41  1  0.82660422  0.04793932  0.10579548  1
  O  O42  1  0.17339578  0.45206068  0.60579548  1
  O  O43  1  0.32660422  0.95206068  0.39420452  1
  O  O44  1  0.32660422  0.45206068  0.10579548  1
  O  O45  1  0.17339578  0.95206068  0.89420452  1
  O  O46  1  0.82660422  0.54793932  0.39420452  1
  O  O47  1  0.67339578  0.04793932  0.60579548  1
  O  O48  1  0.62570274  0.15445055  0.78905397  1
  O  O49  1  0.87429726  0.65445055  0.21094603  1
  O  O50  1  0.12570274  0.84554945  0.71094603  1
  O  O51  1  0.37429726  0.34554945  0.28905397  1
  O  O52  1  0.37429726  0.84554945  0.21094603  1
  O  O53  1  0.12570274  0.34554945  0.78905397  1
  O  O54  1  0.87429726  0.15445055  0.28905397  1
  O  O55  1  0.62570274  0.65445055  0.71094603  1
  O  O56  1  0.96253228  0.10899260  0.82807659  1
  O  O57  1  0.53746772  0.60899260  0.17192341  1
  O  O58  1  0.46253228  0.89100740  0.67192341  1
  O  O59  1  0.03746772  0.39100740  0.32807659  1
  O  O60  1  0.03746772  0.89100740  0.17192341  1
  O  O61  1  0.46253228  0.39100740  0.82807659  1
  O  O62  1  0.53746772  0.10899260  0.32807659  1
  O  O63  1  0.96253228  0.60899260  0.67192341  1
  O  O64  1  0.74417299  0.24045881  0.91900708  1
  O  O65  1  0.75582701  0.74045881  0.08099292  1
  O  O66  1  0.24417299  0.75954119  0.58099292  1
  O  O67  1  0.25582701  0.25954119  0.41900708  1
  O  O68  1  0.25582701  0.75954119  0.08099292  1
  O  O69  1  0.24417299  0.25954119  0.91900708  1
  O  O70  1  0.75582701  0.24045881  0.41900708  1
  O  O71  1  0.74417299  0.74045881  0.58099292  1
  O  O72  1  0.03975717  0.53686214  0.90063851  1
  O  O73  1  0.46024283  0.03686214  0.09936149  1
  O  O74  1  0.53975717  0.46313786  0.59936149  1
  O  O75  1  0.96024283  0.96313786  0.40063851  1
  O  O76  1  0.96024283  0.46313786  0.09936149  1
  O  O77  1  0.53975717  0.96313786  0.90063851  1
  O  O78  1  0.46024283  0.53686214  0.40063851  1
  O  O79  1  0.03975717  0.03686214  0.59936149  1
loop_
_geom_bond_atom_site_label_1
_geom_bond_atom_site_label_2
_geom_bond_distance
_geom_bond_site_symmetry_2
Eu0 O64 2.373720 1_555
Eu0 O53 2.428870 1_655
Eu0 O40 2.507333 1_555
Eu0 O7 2.561891 1_555
Eu0 O61 2.577954 1_555
Eu0 O16 2.653183 1_555
Eu0 O48 2.714584 1_555
Eu0 O56 2.718937 1_555
Eu0 O72 2.768878 1_655
Eu1 O65 2.373720 1_555
Eu1 O52 2.428870 1_555
Eu1 O41 2.507333 1_565
Eu1 O6 2.561891 1_565
Eu1 O60 2.577954 1_655
Eu1 O17 2.653183 1_555
Eu1 O49 2.714584 1_555
Eu1 O57 2.718937 1_555
Eu1 O73 2.768878 1_565
Eu2 O66 2.373720 1_555
Eu2 O55 2.428870 1_555
Eu2 O42 2.507333 1_555
Eu2 O5 2.561891 1_555
Eu2 O63 2.577954 1_455
Eu2 O18 2.653183 1_555
Eu2 O50 2.714584 1_555
Eu2 O58 2.718937 1_555
Eu2 O74 2.768878 1_555
Eu3 O67 2.373720 1_555
Eu3 O54 2.428870 1_455
Eu3 O43 2.507333 1_545
Eu3 O4 2.561891 1_545
Eu3 O62 2.577954 1_555
Eu3 O19 2.653183 1_555
Eu3 O51 2.714584 1_555
Eu3 O59 2.718937 1_555
Eu3 O75 2.768878 1_445
Eu4 O68 2.373720 1_555
Eu4 O49 2.428870 1_455
Eu4 O44 2.507333 1_555
Eu4 O3 2.561891 1_555
Eu4 O57 2.577954 1_555
Eu4 O20 2.653183 1_555
Eu4 O52 2.714584 1_555
Eu4 O60 2.718937 1_555
Eu4 O76 2.768878 1_455
Eu5 O69 2.373720 1_555
Eu5 O48 2.428870 1_555
Eu5 O45 2.507333 1_545
Eu5 O2 2.561891 1_545
Eu5 O56 2.577954 1_455
Eu5 O21 2.653183 1_555
Eu5 O53 2.714584 1_555
Eu5 O61 2.718937 1_555
Eu5 O77 2.768878 1_545
Eu6 O70 2.373720 1_555
Eu6 O51 2.428870 1_555
Eu6 O46 2.507333 1_555
Eu6 O1 2.561891 1_555
Eu6 O59 2.577954 1_655
Eu6 O22 2.653183 1_555
Eu6 O54 2.714584 1_555
Eu6 O62 2.718937 1_555
Eu6 O78 2.768878 1_555
Eu7 O71 2.373720 1_555
Eu7 O50 2.428870 1_655
Eu7 O47 2.507333 1_565
Eu7 O0 2.561891 1_565
Eu7 O58 2.577954 1_555
Eu7 O23 2.653183 1_555
Eu7 O55 2.714584 1_555
Eu7 O63 2.718937 1_555
Eu7 O79 2.768878 1_665
Eu8 O18 2.349538 1_555
Eu8 O8 2.412784 1_455
Eu8 O7 2.415298 1_455
Eu8 O2 2.461565 1_555
Eu8 O13 2.572902 1_555
Eu8 O50 2.604347 1_555
Eu8 O45 2.606463 1_555
Eu8 O23 2.619069 1_455
Eu9 O19 2.349538 1_555
Eu9 O9 2.412784 1_555
Eu9 O6 2.415298 1_555
Eu9 O3 2.461565 1_555
Eu9 O12 2.572902 1_555
Eu9 O51 2.604347 1_555
Eu9 O44 2.606463 1_555
Eu9 O22 2.619069 1_555
Eu10 O16 2.349538 1_555
Eu10 O10 2.412784 1_555
Eu10 O5 2.415298 1_555
Eu10 O0 2.461565 1_555
Eu10 O15 2.572902 1_555
Eu10 O48 2.604347 1_555
Eu10 O47 2.606463 1_555
Eu10 O21 2.619069 1_555
Eu11 O17 2.349538 1_555
Eu11 O11 2.412784 1_655
Eu11 O4 2.415298 1_655
Eu11 O1 2.461565 1_555
Eu11 O14 2.572902 1_555
Eu11 O49 2.604347 1_555
Eu11 O46 2.606463 1_555
Eu11 O20 2.619069 1_655
Eu12 O22 2.349538 1_555
Eu12 O12 2.412784 1_655
Eu12 O3 2.415298 1_655
Eu12 O6 2.461565 1_555
Eu12 O9 2.572902 1_555
Eu12 O54 2.604347 1_555
Eu12 O41 2.606463 1_555
Eu12 O19 2.619069 1_655
Eu13 O23 2.349538 1_555
Eu13 O13 2.412784 1_555
Eu13 O2 2.415298 1_555
Eu13 O7 2.461565 1_555
Eu13 O8 2.572902 1_555
Eu13 O55 2.604347 1_555
Eu13 O40 2.606463 1_555
Eu13 O18 2.619069 1_555
Eu14 O20 2.349538 1_555
Eu14 O14 2.412784 1_555
Eu14 O1 2.415298 1_555
Eu14 O4 2.461565 1_555
Eu14 O11 2.572902 1_555
Eu14 O52 2.604347 1_555
Eu14 O43 2.606463 1_555
Eu14 O17 2.619069 1_555
Eu15 O21 2.349538 1_555
Eu15 O15 2.412784 1_455
Eu15 O0 2.415298 1_455
Eu15 O5 2.461565 1_555
Eu15 O10 2.572902 1_555
Eu15 O53 2.604347 1_555
Eu15 O42 2.606463 1_555
Eu15 O16 2.619069 1_455
Eu16 O33 2.380082 1_546
Eu16 O45 2.417979 1_645
Eu16 O77 2.424439 1_545
Eu16 O64 2.435099 1_555
Eu16 O37 2.451590 1_655
Eu16 O8 2.463604 1_545
Eu16 O56 2.603138 1_555
Eu16 O24 2.664704 1_556
Eu17 O32 2.380082 1_554
Eu17 O44 2.417979 1_555
Eu17 O76 2.424439 1_555
Eu17 O65 2.435099 1_555
Eu17 O36 2.451590 1_555
Eu17 O9 2.463604 1_555
Eu17 O57 2.603138 1_555
Eu17 O25 2.664704 1_554
Eu18 O35 2.380082 1_565
Eu18 O47 2.417979 1_565
Eu18 O79 2.424439 1_565
Eu18 O66 2.435099 1_555
Eu18 O39 2.451590 1_555
Eu18 O10 2.463604 1_565
Eu18 O58 2.603138 1_555
Eu18 O26 2.664704 1_555
Eu19 O34 2.380082 1_555
Eu19 O46 2.417979 1_455
Eu19 O78 2.424439 1_555
Eu19 O67 2.435099 1_555
Eu19 O38 2.451590 1_455
Eu19 O11 2.463604 1_555
Eu19 O59 2.603138 1_555
Eu19 O27 2.664704 1_555
Eu20 O37 2.380082 1_564
Eu20 O41 2.417979 1_465
Eu20 O73 2.424439 1_565
Eu20 O68 2.435099 1_555
Eu20 O33 2.451590 1_455
Eu20 O12 2.463604 1_565
Eu20 O60 2.603138 1_555
Eu20 O28 2.664704 1_554
Eu21 O36 2.380082 1_556
Eu21 O40 2.417979 1_555
Eu21 O72 2.424439 1_555
Eu21 O69 2.435099 1_555
Eu21 O32 2.451590 1_555
Eu21 O13 2.463604 1_555
Eu21 O61 2.603138 1_555
Eu21 O29 2.664704 1_556
Eu22 O39 2.380082 1_545
Eu22 O43 2.417979 1_545
Eu22 O75 2.424439 1_545
Eu22 O70 2.435099 1_555
Eu22 O35 2.451590 1_555
Eu22 O14 2.463604 1_545
Eu22 O62 2.603138 1_555
Eu22 O30 2.664704 1_555
Eu23 O38 2.380082 1_555
Eu23 O42 2.417979 1_655
Eu23 O74 2.424439 1_555
Eu23 O71 2.435099 1_555
Eu23 O34 2.451590 1_655
Eu23 O15 2.463604 1_555
Eu23 O63 2.603138 1_555
Eu23 O31 2.664704 1_555
B0 O32 1.360887 1_555
B0 O64 1.365550 1_555
B0 O24 1.421586 1_556
B1 O33 1.360887 1_555
B1 O65 1.365550 1_555
B1 O25 1.421586 1_554
B2 O34 1.360887 1_555
B2 O66 1.365550 1_555
B2 O26 1.421586 1_555
B3 O35 1.360887 1_555
B3 O67 1.365550 1_555
B3 O27 1.421586 1_555
B4 O36 1.360887 1_555
B4 O68 1.365550 1_555
B4 O28 1.421586 1_554
B5 O37 1.360887 1_555
B5 O69 1.365550 1_555
B5 O29 1.421586 1_556
B6 O38 1.360887 1_555
B6 O70 1.365550 1_555
B6 O30 1.421586 1_555
B7 O39 1.360887 1_555
B7 O71 1.365550 1_555
B7 O31 1.421586 1_555
O0 Si8 1.658094 1_555
O1 Si9 1.658094 1_555
O2 Si10 1.658094 1_555
O3 Si11 1.658094 1_555
O4 Si12 1.658094 1_555
O5 Si13 1.658094 1_555
O6 Si14 1.658094 1_555
O7 Si15 1.658094 1_555
O8 Si0 1.653360 1_555
O9 Si1 1.653360 1_555
O10 Si2 1.653360 1_555
O11 Si3 1.653360 1_555
O12 Si4 1.653360 1_555
O13 Si5 1.653360 1_555
O14 Si6 1.653360 1_555
O15 Si7 1.653360 1_555
O16 Si15 1.644838 1_555
O17 Si14 1.644838 1_565
O18 Si13 1.644838 1_555
O19 Si12 1.644838 1_545
O20 Si11 1.644838 1_555
O21 Si10 1.644838 1_545
O22 Si9 1.644838 1_555
O23 Si8 1.644838 1_565
O24 Si1 1.663778 1_555
O25 Si0 1.663778 1_555
O26 Si3 1.663778 1_555
O27 Si2 1.663778 1_555
O28 Si5 1.663778 1_555
O29 Si4 1.663778 1_555
O30 Si7 1.663778 1_555
O31 Si6 1.663778 1_555
O40 Si0 1.642851 1_555
O41 Si1 1.642851 1_555
O42 Si2 1.642851 1_555
O43 Si3 1.642851 1_555
O44 Si4 1.642851 1_555
O45 Si5 1.642851 1_555
O46 Si6 1.642851 1_555
O47 Si7 1.642851 1_555
O48 Si8 1.648508 1_555
O49 Si9 1.648508 1_555
O50 Si10 1.648508 1_555
O51 Si11 1.648508 1_555
O52 Si12 1.648508 1_555
O53 Si13 1.648508 1_555
O54 Si14 1.648508 1_555
O55 Si15 1.648508 1_555
O56 Si8 1.631400 1_555
O57 Si9 1.631400 1_555
O58 Si10 1.631400 1_555
O59 Si11 1.631400 1_555
O60 Si12 1.631400 1_555
O61 Si13 1.631400 1_555
O62 Si14 1.631400 1_555
O63 Si15 1.631400 1_555
O72 Si0 1.628940 1_455
O73 Si1 1.628940 1_555
O74 Si2 1.628940 1_555
O75 Si3 1.628940 1_655
O76 Si4 1.628940 1_655
O77 Si5 1.628940 1_555
O78 Si6 1.628940 1_555
O79 Si7 1.628940 1_455
