# generated using pymatgen
data_Mg2Cu3Si
_symmetry_space_group_name_H-M   'P 1'
_cell_length_a   4.97176110
_cell_length_b   4.97176049
_cell_length_c   7.80490630
_cell_angle_alpha   90.00000000
_cell_angle_beta   90.00000000
_cell_angle_gamma   119.99999740
_symmetry_Int_Tables_number   1
_chemical_formula_structural   Mg2Cu3Si
_chemical_formula_sum   'Mg4 Cu6 Si2'
_cell_volume   167.07781520
_cell_formula_units_Z   2
loop_
 _symmetry_equiv_pos_site_id
 _symmetry_equiv_pos_as_xyz
  1  'x, y, z'
loop_
 _atom_site_type_symbol
 _atom_site_label
 _atom_site_symmetry_multiplicity
 _atom_site_fract_x
 _atom_site_fract_y
 _atom_site_fract_z
 _atom_site_occupancy
  Mg  Mg0  1  0.33333300  0.66666700  0.06134203  1
  Mg  Mg1  1  0.66666700  0.33333300  0.56134203  1
  Mg  Mg2  1  0.66666700  0.33333300  0.93865797  1
  Mg  Mg3  1  0.33333300  0.66666700  0.43865797  1
  Cu  Cu0  1  0.16854887  0.33709975  0.75000000  1
  Cu  Cu1  1  0.83145113  0.16854887  0.25000000  1
  Cu  Cu2  1  0.33709975  0.16854887  0.25000000  1
  Cu  Cu3  1  0.66290025  0.83145113  0.75000000  1
  Cu  Cu4  1  0.16854887  0.83145113  0.75000000  1
  Cu  Cu5  1  0.83145113  0.66290025  0.25000000  1
  Si  Si0  1  -0.00000000  -0.00000000  -0.00000000  1
  Si  Si1  1  -0.00000000  -0.00000000  0.50000000  1
loop_
_geom_bond_atom_site_label_1
_geom_bond_atom_site_label_2
_geom_bond_distance
_geom_bond_site_symmetry_2
Mg0 Si0 2.910098 1_565
Mg0 Si0 2.910102 1_555
Mg0 Si0 2.910103 1_665
Mg1 Si1 2.910098 1_655
Mg1 Si1 2.910102 1_665
Mg1 Si1 2.910103 1_555
Mg2 Si0 2.910098 1_656
Mg2 Si0 2.910102 1_666
Mg2 Si0 2.910103 1_556
Mg3 Si1 2.910098 1_565
Mg3 Si1 2.910102 1_555
Mg3 Si1 2.910103 1_665
Cu0 Si0 2.431865 1_556
Cu0 Si1 2.431865 1_555
Cu0 Cu4 2.457797 1_555
Cu0 Cu3 2.457797 1_555
Cu0 Cu4 2.513964 1_545
Cu0 Cu3 2.513964 1_445
Cu0 Mg3 2.813976 1_555
Cu0 Mg0 2.813976 1_556
Cu0 Mg1 2.889284 1_455
Cu0 Mg2 2.889284 1_455
Cu0 Mg1 2.889296 1_555
Cu0 Mg2 2.889296 1_555
Cu1 Si0 2.431859 1_655
Cu1 Si1 2.431859 1_655
Cu1 Cu5 2.457797 1_555
Cu1 Cu2 2.457797 1_555
Cu1 Cu5 2.513964 1_545
Cu1 Cu2 2.513964 1_655
Cu1 Mg2 2.813978 1_554
Cu1 Mg1 2.813978 1_555
Cu1 Mg3 2.889290 1_545
Cu1 Mg0 2.889290 1_545
Cu1 Mg3 2.889290 1_655
Cu1 Mg0 2.889290 1_655
Cu2 Si1 2.431865 1_555
Cu2 Si0 2.431865 1_555
Cu2 Cu5 2.457797 1_555
Cu2 Cu5 2.513964 1_445
Cu2 Mg2 2.813976 1_554
Cu2 Mg1 2.813976 1_555
Cu2 Mg0 2.889283 1_545
Cu2 Mg3 2.889283 1_545
Cu2 Mg0 2.889296 1_555
Cu2 Mg3 2.889296 1_555
Cu3 Si0 2.431865 1_666
Cu3 Si1 2.431865 1_665
Cu3 Cu4 2.457797 1_555
Cu3 Cu4 2.513964 1_655
Cu3 Mg3 2.813976 1_555
Cu3 Mg0 2.813976 1_556
Cu3 Mg2 2.889283 1_565
Cu3 Mg1 2.889283 1_565
Cu3 Mg1 2.889296 1_555
Cu3 Mg2 2.889296 1_555
Cu4 Si1 2.431859 1_565
Cu4 Si0 2.431859 1_566
Cu4 Mg3 2.813978 1_555
Cu4 Mg0 2.813978 1_556
Cu4 Mg2 2.889290 1_565
Cu4 Mg1 2.889290 1_565
Cu4 Mg1 2.889290 1_455
Cu4 Mg2 2.889290 1_455
Cu5 Si1 2.431865 1_665
Cu5 Si0 2.431865 1_665
Cu5 Mg2 2.813976 1_554
Cu5 Mg1 2.813976 1_555
Cu5 Mg3 2.889284 1_655
Cu5 Mg0 2.889284 1_655
Cu5 Mg0 2.889296 1_555
Cu5 Mg3 2.889296 1_555
