# generated using pymatgen
data_USi6H54C18N3F
_symmetry_space_group_name_H-M   'P 1'
_cell_length_a   9.14127771
_cell_length_b   19.04981500
_cell_length_c   22.13121647
_cell_angle_alpha   90.00000000
_cell_angle_beta   97.98408754
_cell_angle_gamma   90.00000000
_symmetry_Int_Tables_number   1
_chemical_formula_structural   USi6H54C18N3F
_chemical_formula_sum   'U4 Si24 H216 C72 N12 F4'
_cell_volume   3816.56498235
_cell_formula_units_Z   4
loop_
 _symmetry_equiv_pos_site_id
 _symmetry_equiv_pos_as_xyz
  1  'x, y, z'
loop_
 _atom_site_type_symbol
 _atom_site_label
 _atom_site_symmetry_multiplicity
 _atom_site_fract_x
 _atom_site_fract_y
 _atom_site_fract_z
 _atom_site_occupancy
  U  U0  1  0.25534722  0.24071889  0.10024721  1
  U  U1  1  0.74465278  0.74071889  0.39975279  1
  U  U2  1  0.74465278  0.75928111  0.89975279  1
  U  U3  1  0.25534722  0.25928111  0.60024721  1
  Si  Si0  1  0.10649015  0.38134103  0.16876163  1
  Si  Si1  1  0.89350985  0.88134103  0.33123837  1
  Si  Si2  1  0.89350985  0.61865897  0.83123837  1
  Si  Si3  1  0.10649015  0.11865897  0.66876163  1
  Si  Si4  1  0.28245373  0.42220942  0.06670252  1
  Si  Si5  1  0.71754627  0.92220942  0.43329748  1
  Si  Si6  1  0.71754627  0.57779058  0.93329748  1
  Si  Si7  1  0.28245373  0.07779058  0.56670252  1
  Si  Si8  1  0.99236836  0.20153091  0.97442860  1
  Si  Si9  1  0.00763164  0.70153091  0.52557140  1
  Si  Si10  1  0.00763164  0.79846909  0.02557140  1
  Si  Si11  1  0.99236836  0.29846909  0.47442860  1
  Si  Si12  1  0.29894251  0.14079276  0.96999709  1
  Si  Si13  1  0.70105749  0.64079276  0.53000291  1
  Si  Si14  1  0.70105749  0.85920724  0.03000291  1
  Si  Si15  1  0.29894251  0.35920724  0.46999709  1
  Si  Si16  1  0.24749014  0.10093256  0.19819688  1
  Si  Si17  1  0.75250986  0.60093256  0.30180312  1
  Si  Si18  1  0.75250986  0.89906744  0.80180312  1
  Si  Si19  1  0.24749014  0.39906744  0.69819688  1
  Si  Si20  1  0.52590326  0.18967287  0.22489887  1
  Si  Si21  1  0.47409674  0.68967287  0.27510113  1
  Si  Si22  1  0.47409674  0.81032713  0.77510113  1
  Si  Si23  1  0.52590326  0.31032713  0.72489887  1
  H  H0  1  0.17106009  0.27150031  0.23222969  1
  H  H1  1  0.82893991  0.77150031  0.26777031  1
  H  H2  1  0.82893991  0.72849969  0.76777031  1
  H  H3  1  0.17106009  0.22849969  0.73222969  1
  H  H4  1  0.00409198  0.31083835  0.24683244  1
  H  H5  1  0.99590802  0.81083835  0.25316756  1
  H  H6  1  0.99590802  0.68916165  0.75316756  1
  H  H7  1  0.00409198  0.18916165  0.74683244  1
  H  H8  1  0.00330775  0.25909867  0.18133718  1
  H  H9  1  0.99669225  0.75909867  0.31866282  1
  H  H10  1  0.99669225  0.74090133  0.81866282  1
  H  H11  1  0.00330775  0.24090133  0.68133718  1
  H  H12  1  0.22735239  0.49483308  0.20816678  1
  H  H13  1  0.77264761  0.99483308  0.29183322  1
  H  H14  1  0.77264761  0.50516692  0.79183322  1
  H  H15  1  0.22735239  0.00516692  0.70816678  1
  H  H16  1  0.13476171  0.45280041  0.26318864  1
  H  H17  1  0.86523829  0.95280041  0.23681136  1
  H  H18  1  0.86523829  0.54719959  0.73681136  1
  H  H19  1  0.13476171  0.04719959  0.76318864  1
  H  H20  1  0.31099409  0.42218415  0.24968839  1
  H  H21  1  0.68900591  0.92218415  0.25031161  1
  H  H22  1  0.68900591  0.57781585  0.75031161  1
  H  H23  1  0.31099409  0.07781585  0.74968839  1
  H  H24  1  0.85222185  0.38711607  0.10800598  1
  H  H25  1  0.14777815  0.88711607  0.39199402  1
  H  H26  1  0.14777815  0.61288393  0.89199402  1
  H  H27  1  0.85222185  0.11288393  0.60800598  1
  H  H28  1  0.85842886  0.42541079  0.18118728  1
  H  H29  1  0.14157114  0.92541079  0.31881272  1
  H  H30  1  0.14157114  0.57458921  0.81881272  1
  H  H31  1  0.85842886  0.07458921  0.68118728  1
  H  H32  1  0.92448217  0.47300058  0.12188480  1
  H  H33  1  0.07551783  0.97300058  0.37811520  1
  H  H34  1  0.07551783  0.52699942  0.87811520  1
  H  H35  1  0.92448217  0.02699942  0.62188480  1
  H  H36  1  0.19628197  0.53669295  0.10947045  1
  H  H37  1  0.80371803  0.03669295  0.39052955  1
  H  H38  1  0.80371803  0.46330705  0.89052955  1
  H  H39  1  0.19628197  0.96330705  0.60947045  1
  H  H40  1  0.23864236  0.54429249  0.03427149  1
  H  H41  1  0.76135764  0.04429249  0.46572851  1
  H  H42  1  0.76135764  0.45570751  0.96572851  1
  H  H43  1  0.23864236  0.95570751  0.53427149  1
  H  H44  1  0.06709727  0.50772055  0.04705033  1
  H  H45  1  0.93290273  0.00772055  0.45294967  1
  H  H46  1  0.93290273  0.49227945  0.95294967  1
  H  H47  1  0.06709727  0.99227945  0.54705033  1
  H  H48  1  0.14736935  0.38484430  0.96552963  1
  H  H49  1  0.85263065  0.88484430  0.53447037  1
  H  H50  1  0.85263065  0.61515570  0.03447037  1
  H  H51  1  0.14736935  0.11515570  0.46552963  1
  H  H52  1  0.31422561  0.42904628  0.95715281  1
  H  H53  1  0.68577439  0.92904628  0.54284719  1
  H  H54  1  0.68577439  0.57095372  0.04284719  1
  H  H55  1  0.31422561  0.07095372  0.45715281  1
  H  H56  1  0.31944823  0.34013708  0.98075827  1
  H  H57  1  0.68055177  0.84013708  0.51924173  1
  H  H58  1  0.68055177  0.65986292  0.01924173  1
  H  H59  1  0.31944823  0.15986292  0.48075827  1
  H  H60  1  0.55249582  0.39417730  0.09021747  1
  H  H61  1  0.44750418  0.89417730  0.40978253  1
  H  H62  1  0.44750418  0.60582270  0.90978253  1
  H  H63  1  0.55249582  0.10582270  0.59021747  1
  H  H64  1  0.52255024  0.48272596  0.06619235  1
  H  H65  1  0.47744976  0.98272596  0.43380765  1
  H  H66  1  0.47744976  0.51727404  0.93380765  1
  H  H67  1  0.52255024  0.01727404  0.56619235  1
  H  H68  1  0.50124225  0.45823201  0.14178416  1
  H  H69  1  0.49875775  0.95823201  0.35821584  1
  H  H70  1  0.49875775  0.54176799  0.85821584  1
  H  H71  1  0.50124225  0.04176799  0.64178416  1
  H  H72  1  0.95274310  0.31681629  0.02718548  1
  H  H73  1  0.04725690  0.81681629  0.47281452  1
  H  H74  1  0.04725690  0.68318371  0.97281452  1
  H  H75  1  0.95274310  0.18318371  0.52718548  1
  H  H76  1  0.78535620  0.27140710  0.00375386  1
  H  H77  1  0.21464380  0.77140710  0.49624614  1
  H  H78  1  0.21464380  0.72859290  0.99624614  1
  H  H79  1  0.78535620  0.22859290  0.50375386  1
  H  H80  1  0.89802587  0.24474243  0.07044582  1
  H  H81  1  0.10197413  0.74474243  0.42955418  1
  H  H82  1  0.10197413  0.75525757  0.92955418  1
  H  H83  1  0.89802587  0.25525757  0.57044582  1
  H  H84  1  0.02249540  0.20754229  0.86259614  1
  H  H85  1  0.97750460  0.70754229  0.63740386  1
  H  H86  1  0.97750460  0.79245771  0.13740386  1
  H  H87  1  0.02249540  0.29245771  0.36259614  1
  H  H88  1  0.85531921  0.24625912  0.87810305  1
  H  H89  1  0.14468079  0.74625912  0.62189695  1
  H  H90  1  0.14468079  0.75374088  0.12189695  1
  H  H91  1  0.85531921  0.25374088  0.37810305  1
  H  H92  1  0.02461890  0.29298099  0.89456434  1
  H  H93  1  0.97538110  0.79298099  0.60543566  1
  H  H94  1  0.97538110  0.70701901  0.10543566  1
  H  H95  1  0.02461890  0.20701901  0.39456434  1
  H  H96  1  0.86983301  0.09543135  0.01326975  1
  H  H97  1  0.13016699  0.59543135  0.48673025  1
  H  H98  1  0.13016699  0.90456865  0.98673025  1
  H  H99  1  0.86983301  0.40456865  0.51326975  1
  H  H100  1  0.76132816  0.13439772  0.94931659  1
  H  H101  1  0.23867184  0.63439772  0.55068341  1
  H  H102  1  0.23867184  0.86560228  0.05068341  1
  H  H103  1  0.76132816  0.36560228  0.44931659  1
  H  H104  1  0.91215508  0.07943722  0.93848633  1
  H  H105  1  0.08784492  0.57943722  0.56151367  1
  H  H106  1  0.08784492  0.92056278  0.06151367  1
  H  H107  1  0.91215508  0.42056278  0.43848633  1
  H  H108  1  0.13039837  0.08554945  0.88153027  1
  H  H109  1  0.86960163  0.58554945  0.61846973  1
  H  H110  1  0.86960163  0.91445055  0.11846973  1
  H  H111  1  0.13039837  0.41445055  0.38153027  1
  H  H112  1  0.29856959  0.03951123  0.90120574  1
  H  H113  1  0.70143041  0.53951123  0.59879426  1
  H  H114  1  0.70143041  0.96048877  0.09879426  1
  H  H115  1  0.29856959  0.46048877  0.40120574  1
  H  H116  1  0.15362100  0.02880416  0.94598594  1
  H  H117  1  0.84637900  0.52880416  0.55401406  1
  H  H118  1  0.84637900  0.97119584  0.05401406  1
  H  H119  1  0.15362100  0.47119584  0.44598594  1
  H  H120  1  0.46883298  0.23724478  0.94521914  1
  H  H121  1  0.53116702  0.73724478  0.55478086  1
  H  H122  1  0.53116702  0.76275522  0.05478086  1
  H  H123  1  0.46883298  0.26275522  0.44521914  1
  H  H124  1  0.47301555  0.16394983  0.89577167  1
  H  H125  1  0.52698445  0.66394983  0.60422833  1
  H  H126  1  0.52698445  0.83605017  0.10422833  1
  H  H127  1  0.47301555  0.33605017  0.39577167  1
  H  H128  1  0.32407309  0.22441755  0.88374005  1
  H  H129  1  0.67592691  0.72441755  0.61625995  1
  H  H130  1  0.67592691  0.77558245  0.11625995  1
  H  H131  1  0.32407309  0.27558245  0.38374005  1
  H  H132  1  0.39004130  0.05766341  0.05447997  1
  H  H133  1  0.60995870  0.55766341  0.44552003  1
  H  H134  1  0.60995870  0.94233659  0.94552003  1
  H  H135  1  0.39004130  0.44233659  0.55447997  1
  H  H136  1  0.52302453  0.07070928  0.00429288  1
  H  H137  1  0.47697547  0.57070928  0.49570712  1
  H  H138  1  0.47697547  0.92929072  0.99570712  1
  H  H139  1  0.52302453  0.42929072  0.50429288  1
  H  H140  1  0.50144696  0.13468546  0.06020998  1
  H  H141  1  0.49855304  0.63468546  0.43979002  1
  H  H142  1  0.49855304  0.86531454  0.93979002  1
  H  H143  1  0.50144696  0.36531454  0.56020998  1
  H  H144  1  0.11328608  0.08599089  0.09086040  1
  H  H145  1  0.88671392  0.58599089  0.40913960  1
  H  H146  1  0.88671392  0.91400911  0.90913960  1
  H  H147  1  0.11328608  0.41400911  0.59086040  1
  H  H148  1  0.00966605  0.05398872  0.14696462  1
  H  H149  1  0.99033395  0.55398872  0.35303538  1
  H  H150  1  0.99033395  0.94601128  0.85303538  1
  H  H151  1  0.00966605  0.44601128  0.64696462  1
  H  H152  1  0.01247727  0.14421307  0.13300920  1
  H  H153  1  0.98752273  0.64421307  0.36699080  1
  H  H154  1  0.98752273  0.85578693  0.86699080  1
  H  H155  1  0.01247727  0.35578693  0.63300920  1
  H  H156  1  0.43616706  0.00729518  0.23485211  1
  H  H157  1  0.56383294  0.50729518  0.26514789  1
  H  H158  1  0.56383294  0.99270482  0.76514789  1
  H  H159  1  0.43616706  0.49270482  0.73485211  1
  H  H160  1  0.26551182  0.97138080  0.20141092  1
  H  H161  1  0.73448818  0.47138080  0.29858908  1
  H  H162  1  0.73448818  0.02861920  0.79858908  1
  H  H163  1  0.26551182  0.52861920  0.70141092  1
  H  H164  1  0.39145281  0.00494812  0.15429665  1
  H  H165  1  0.60854719  0.50494812  0.34570335  1
  H  H166  1  0.60854719  0.99505188  0.84570335  1
  H  H167  1  0.39145281  0.49505188  0.65429665  1
  H  H168  1  0.11829034  0.15767867  0.27934877  1
  H  H169  1  0.88170966  0.65767867  0.22065123  1
  H  H170  1  0.88170966  0.84232133  0.72065123  1
  H  H171  1  0.11829034  0.34232133  0.77934877  1
  H  H172  1  0.08482744  0.06612265  0.27318781  1
  H  H173  1  0.91517256  0.56612265  0.22681219  1
  H  H174  1  0.91517256  0.93387735  0.72681219  1
  H  H175  1  0.08482744  0.43387735  0.77318781  1
  H  H176  1  0.25391617  0.09726565  0.31284463  1
  H  H177  1  0.74608383  0.59726565  0.18715537  1
  H  H178  1  0.74608383  0.90273435  0.68715537  1
  H  H179  1  0.25391617  0.40273435  0.81284463  1
  H  H180  1  0.53456829  0.09371103  0.30535384  1
  H  H181  1  0.46543171  0.59371103  0.19464616  1
  H  H182  1  0.46543171  0.90628897  0.69464616  1
  H  H183  1  0.53456829  0.40628897  0.80535384  1
  H  H184  1  0.65949938  0.16316801  0.32639301  1
  H  H185  1  0.34050062  0.66316801  0.17360699  1
  H  H186  1  0.34050062  0.83683199  0.67360699  1
  H  H187  1  0.65949938  0.33683199  0.82639301  1
  H  H188  1  0.46982695  0.17374400  0.33322963  1
  H  H189  1  0.53017305  0.67374400  0.16677037  1
  H  H190  1  0.53017305  0.82625600  0.66677037  1
  H  H191  1  0.46982695  0.32625600  0.83322963  1
  H  H192  1  0.68907040  0.17756625  0.14311003  1
  H  H193  1  0.31092960  0.67756625  0.35688997  1
  H  H194  1  0.31092960  0.82243375  0.85688997  1
  H  H195  1  0.68907040  0.32243375  0.64311003  1
  H  H196  1  0.78834384  0.16387082  0.21722397  1
  H  H197  1  0.21165616  0.66387082  0.28277603  1
  H  H198  1  0.21165616  0.83612918  0.78277603  1
  H  H199  1  0.78834384  0.33612918  0.71722397  1
  H  H200  1  0.67543151  0.09598705  0.18104003  1
  H  H201  1  0.32456849  0.59598705  0.31895997  1
  H  H202  1  0.32456849  0.90401295  0.81895997  1
  H  H203  1  0.67543151  0.40401295  0.68104003  1
  H  H204  1  0.47306388  0.31129034  0.25967959  1
  H  H205  1  0.52693612  0.81129034  0.24032041  1
  H  H206  1  0.52693612  0.68870966  0.74032041  1
  H  H207  1  0.47306388  0.18870966  0.75967959  1
  H  H208  1  0.66502523  0.29718585  0.25990195  1
  H  H209  1  0.33497477  0.79718585  0.24009805  1
  H  H210  1  0.33497477  0.70281415  0.74009805  1
  H  H211  1  0.66502523  0.20281415  0.75990195  1
  H  H212  1  0.55044071  0.31464155  0.19015751  1
  H  H213  1  0.44955929  0.81464155  0.30984249  1
  H  H214  1  0.44955929  0.68535845  0.80984249  1
  H  H215  1  0.55044071  0.18535845  0.69015751  1
  C  C0  1  0.06994925  0.29770572  0.21040317  1
  C  C1  1  0.93005075  0.79770572  0.28959683  1
  C  C2  1  0.93005075  0.70229428  0.78959683  1
  C  C3  1  0.06994925  0.20229428  0.71040317  1
  C  C4  1  0.20508090  0.44334397  0.22744385  1
  C  C5  1  0.79491910  0.94334397  0.27255615  1
  C  C6  1  0.79491910  0.55665603  0.77255615  1
  C  C7  1  0.20508090  0.05665603  0.72744385  1
  C  C8  1  0.91915858  0.42036675  0.14179617  1
  C  C9  1  0.08084142  0.92036675  0.35820383  1
  C  C10  1  0.08084142  0.57963325  0.85820383  1
  C  C11  1  0.91915858  0.07963325  0.64179617  1
  C  C12  1  0.18529965  0.51015758  0.06494993  1
  C  C13  1  0.81470035  0.01015758  0.43505007  1
  C  C14  1  0.81470035  0.48984242  0.93505007  1
  C  C15  1  0.18529965  0.98984242  0.56494993  1
  C  C16  1  0.26395258  0.39073954  0.98524992  1
  C  C17  1  0.73604742  0.89073954  0.51475008  1
  C  C18  1  0.73604742  0.60926046  0.01475008  1
  C  C19  1  0.26395258  0.10926046  0.48524992  1
  C  C20  1  0.48322536  0.44070025  0.09399258  1
  C  C21  1  0.51677464  0.94070025  0.40600742  1
  C  C22  1  0.51677464  0.55929975  0.90600742  1
  C  C23  1  0.48322536  0.05929975  0.59399258  1
  C  C24  1  0.90148619  0.26443859  0.02383960  1
  C  C25  1  0.09851381  0.76443859  0.47616040  1
  C  C26  1  0.09851381  0.73556141  0.97616040  1
  C  C27  1  0.90148619  0.23556141  0.52383960  1
  C  C28  1  0.97381000  0.24070063  0.89525730  1
  C  C29  1  0.02619000  0.74070063  0.60474270  1
  C  C30  1  0.02619000  0.75929937  0.10474270  1
  C  C31  1  0.97381000  0.25929937  0.39525730  1
  C  C32  1  0.87479770  0.11963087  0.96851732  1
  C  C33  1  0.12520230  0.61963087  0.53148268  1
  C  C34  1  0.12520230  0.88036913  0.03148268  1
  C  C35  1  0.87479770  0.38036913  0.46851732  1
  C  C36  1  0.20985861  0.06735255  0.92031334  1
  C  C37  1  0.79014139  0.56735255  0.57968666  1
  C  C38  1  0.79014139  0.93264745  0.07968666  1
  C  C39  1  0.20985861  0.43264745  0.42031334  1
  C  C40  1  0.39988355  0.19725948  0.91912457  1
  C  C41  1  0.60011645  0.69725948  0.58087543  1
  C  C42  1  0.60011645  0.80274052  0.08087543  1
  C  C43  1  0.39988355  0.30274052  0.41912457  1
  C  C44  1  0.44084420  0.09742187  0.02800500  1
  C  C45  1  0.55915580  0.59742187  0.47199500  1
  C  C46  1  0.55915580  0.90257813  0.97199500  1
  C  C47  1  0.44084420  0.40257813  0.52800500  1
  C  C48  1  0.08263001  0.09680283  0.13628328  1
  C  C49  1  0.91736999  0.59680283  0.36371672  1
  C  C50  1  0.91736999  0.90319717  0.86371672  1
  C  C51  1  0.08263001  0.40319717  0.63628328  1
  C  C52  1  0.34551207  0.01369334  0.19700044  1
  C  C53  1  0.65448793  0.51369334  0.30299956  1
  C  C54  1  0.65448793  0.98630666  0.80299956  1
  C  C55  1  0.34551207  0.48630666  0.69700044  1
  C  C56  1  0.17040405  0.10673789  0.27289161  1
  C  C57  1  0.82959595  0.60673789  0.22710839  1
  C  C58  1  0.82959595  0.89326211  0.72710839  1
  C  C59  1  0.17040405  0.39326211  0.77289161  1
  C  C60  1  0.54656792  0.15112199  0.30444549  1
  C  C61  1  0.45343208  0.65112199  0.19555451  1
  C  C62  1  0.45343208  0.84887801  0.69555451  1
  C  C63  1  0.54656792  0.34887801  0.80444549  1
  C  C64  1  0.68342741  0.15312960  0.18775461  1
  C  C65  1  0.31657259  0.65312960  0.31224539  1
  C  C66  1  0.31657259  0.84687040  0.81224539  1
  C  C67  1  0.68342741  0.34687040  0.68775461  1
  C  C68  1  0.55503597  0.28725668  0.23411619  1
  C  C69  1  0.44496403  0.78725668  0.26588381  1
  C  C70  1  0.44496403  0.71274332  0.76588381  1
  C  C71  1  0.55503597  0.21274332  0.73411619  1
  N  N0  1  0.21028740  0.35760935  0.11125408  1
  N  N1  1  0.78971260  0.85760935  0.38874592  1
  N  N2  1  0.78971260  0.64239065  0.88874592  1
  N  N3  1  0.21028740  0.14239065  0.61125408  1
  N  N4  1  0.17566977  0.18890076  0.00827231  1
  N  N5  1  0.82433023  0.68890076  0.49172769  1
  N  N6  1  0.82433023  0.81109924  0.99172769  1
  N  N7  1  0.17566977  0.31109924  0.50827231  1
  N  N8  1  0.35264701  0.17351543  0.18140710  1
  N  N9  1  0.64735299  0.67351543  0.31859290  1
  N  N10  1  0.64735299  0.82648457  0.81859290  1
  N  N11  1  0.35264701  0.32648457  0.68140710  1
  F  F0  1  0.46138736  0.26464742  0.07589009  1
  F  F1  1  0.53861264  0.76464742  0.42410991  1
  F  F2  1  0.53861264  0.73535258  0.92410991  1
  F  F3  1  0.46138736  0.23535258  0.57589009  1
loop_
_geom_bond_atom_site_label_1
_geom_bond_atom_site_label_2
_geom_bond_distance
_geom_bond_site_symmetry_2
C0 H4 1.099929 1_555
C0 H0 1.101278 1_555
C0 H8 1.103149 1_555
C0 Si0 1.893357 1_555
C1 H5 1.099929 1_555
C1 H1 1.101278 1_555
C1 H9 1.103149 1_555
C1 Si1 1.893357 1_555
C2 H6 1.099929 1_555
C2 H2 1.101278 1_555
C2 H10 1.103149 1_555
C2 Si2 1.893357 1_555
C3 H7 1.099929 1_555
C3 H3 1.101278 1_555
C3 H11 1.103149 1_555
C3 Si3 1.893357 1_555
C4 H12 1.099849 1_555
C4 H20 1.099913 1_555
C4 H16 1.101234 1_555
C4 Si0 1.889138 1_555
C5 H13 1.099849 1_555
C5 H21 1.099913 1_555
C5 H17 1.101234 1_555
C5 Si1 1.889138 1_555
C6 H14 1.099849 1_555
C6 H22 1.099913 1_555
C6 H18 1.101234 1_555
C6 Si2 1.889138 1_555
C7 H15 1.099849 1_555
C7 H23 1.099913 1_555
C7 H19 1.101234 1_555
C7 Si3 1.889138 1_555
C8 H24 1.098974 1_555
C8 H32 1.099020 1_555
C8 H28 1.100842 1_555
C8 Si0 1.886114 1_655
C9 H25 1.098974 1_555
C9 H33 1.099020 1_555
C9 H29 1.100842 1_555
C9 Si1 1.886114 1_455
C10 H26 1.098974 1_555
C10 H34 1.099020 1_555
C10 H30 1.100842 1_555
C10 Si2 1.886114 1_455
C11 H27 1.098974 1_555
C11 H35 1.099020 1_555
C11 H31 1.100842 1_555
C11 Si3 1.886114 1_655
C12 H44 1.098954 1_555
C12 H36 1.099512 1_555
C12 H40 1.101618 1_555
C12 Si4 1.894104 1_555
C13 H45 1.098954 1_555
C13 H37 1.099512 1_555
C13 H41 1.101618 1_555
C13 Si5 1.894104 1_545
C14 H46 1.098954 1_555
C14 H38 1.099512 1_555
C14 H42 1.101618 1_555
C14 Si6 1.894104 1_555
C15 H47 1.098954 1_555
C15 H39 1.099512 1_555
C15 H43 1.101618 1_555
C15 Si7 1.894104 1_565
C16 H48 1.099835 1_555
C16 H52 1.099890 1_555
C16 H56 1.100217 1_555
C16 Si4 1.884897 1_556
C17 H49 1.099835 1_555
C17 H53 1.099890 1_555
C17 H57 1.100217 1_555
C17 Si5 1.884897 1_555
C18 H50 1.099835 1_555
C18 H54 1.099890 1_555
C18 H58 1.100217 1_555
C18 Si6 1.884897 1_554
C19 H51 1.099835 1_555
C19 H55 1.099890 1_555
C19 H59 1.100217 1_555
C19 Si7 1.884897 1_555
C20 H60 1.099132 1_555
C20 H68 1.099533 1_555
C20 H64 1.100061 1_555
C20 Si4 1.883954 1_555
C21 H61 1.099132 1_555
C21 H69 1.099533 1_555
C21 H65 1.100061 1_555
C21 Si5 1.883954 1_555
C22 H62 1.099132 1_555
C22 H70 1.099533 1_555
C22 H66 1.100061 1_555
C22 Si6 1.883954 1_555
C23 H63 1.099132 1_555
C23 H71 1.099533 1_555
C23 H67 1.100061 1_555
C23 Si7 1.883954 1_555
C24 H72 1.100438 1_555
C24 H76 1.100489 1_555
C24 H80 1.102152 1_555
C24 Si8 1.890629 1_554
C25 H73 1.100438 1_555
C25 H77 1.100489 1_555
C25 H81 1.102152 1_555
C25 Si9 1.890629 1_555
C26 H74 1.100438 1_555
C26 H78 1.100489 1_555
C26 H82 1.102152 1_555
C26 Si10 1.890629 1_556
C27 H75 1.100438 1_555
C27 H79 1.100489 1_555
C27 H83 1.102152 1_555
C27 Si11 1.890629 1_555
C28 H84 1.099505 1_655
C28 H92 1.099916 1_655
C28 H88 1.101970 1_555
C28 Si8 1.890248 1_555
C29 H85 1.099505 1_455
C29 H93 1.099916 1_455
C29 H89 1.101970 1_555
C29 Si9 1.890248 1_555
C30 H86 1.099505 1_455
C30 H94 1.099916 1_455
C30 H90 1.101970 1_555
C30 Si10 1.890248 1_555
C31 H87 1.099505 1_655
C31 H95 1.099916 1_655
C31 H91 1.101970 1_555
C31 Si11 1.890248 1_555
C32 H104 1.098936 1_555
C32 H96 1.099094 1_556
C32 H100 1.101436 1_555
C32 Si8 1.888729 1_555
C33 H105 1.098936 1_555
C33 H97 1.099094 1_555
C33 H101 1.101436 1_555
C33 Si9 1.888729 1_555
C34 H106 1.098936 1_555
C34 H98 1.099094 1_554
C34 H102 1.101436 1_555
C34 Si10 1.888729 1_555
C35 H107 1.098936 1_555
C35 H99 1.099094 1_555
C35 H103 1.101436 1_555
C35 Si11 1.888729 1_555
C36 H116 1.098858 1_555
C36 H108 1.100586 1_555
C36 H112 1.101358 1_555
C36 Si12 1.892276 1_555
C37 H117 1.098858 1_555
C37 H109 1.100586 1_555
C37 H113 1.101358 1_555
C37 Si13 1.892276 1_555
C38 H118 1.098858 1_555
C38 H110 1.100586 1_555
C38 H114 1.101358 1_555
C38 Si14 1.892276 1_555
C39 H119 1.098858 1_555
C39 H111 1.100586 1_555
C39 H115 1.101358 1_555
C39 Si15 1.892276 1_555
C40 H120 1.099937 1_555
C40 H128 1.100184 1_555
C40 H124 1.101207 1_555
C40 Si12 1.888041 1_555
C41 H121 1.099937 1_555
C41 H129 1.100184 1_555
C41 H125 1.101207 1_555
C41 Si13 1.888041 1_555
C42 H122 1.099937 1_555
C42 H130 1.100184 1_555
C42 H126 1.101207 1_555
C42 Si14 1.888041 1_555
C43 H123 1.099937 1_555
C43 H131 1.100184 1_555
C43 H127 1.101207 1_555
C43 Si15 1.888041 1_555
C44 H136 1.099185 1_555
C44 H132 1.099185 1_555
C44 H140 1.099597 1_555
C44 Si12 1.884343 1_554
C45 H137 1.099185 1_555
C45 H133 1.099185 1_555
C45 H141 1.099597 1_555
C45 Si13 1.884343 1_555
C46 H138 1.099185 1_555
C46 H134 1.099185 1_555
C46 H142 1.099597 1_555
C46 Si14 1.884343 1_556
C47 H139 1.099185 1_555
C47 H135 1.099185 1_555
C47 H143 1.099597 1_555
C47 Si15 1.884343 1_555
C48 H148 1.099888 1_555
C48 H144 1.099894 1_555
C48 H152 1.104210 1_555
C48 Si16 1.892408 1_555
C49 H149 1.099888 1_555
C49 H145 1.099894 1_555
C49 H153 1.104210 1_555
C49 Si17 1.892408 1_555
C50 H150 1.099888 1_555
C50 H146 1.099894 1_555
C50 H154 1.104210 1_555
C50 Si18 1.892408 1_555
C51 H151 1.099888 1_555
C51 H147 1.099894 1_555
C51 H155 1.104210 1_555
C51 Si19 1.892408 1_555
C52 H164 1.098892 1_555
C52 H156 1.100228 1_555
C52 H160 1.101759 1_545
C52 Si16 1.889993 1_555
C53 H165 1.098892 1_555
C53 H157 1.100228 1_555
C53 H161 1.101759 1_555
C53 Si17 1.889993 1_555
C54 H166 1.098892 1_555
C54 H158 1.100228 1_555
C54 H162 1.101759 1_565
C54 Si18 1.889993 1_555
C55 H167 1.098892 1_555
C55 H159 1.100228 1_555
C55 H163 1.101759 1_555
C55 Si19 1.889993 1_555
C56 H168 1.099080 1_555
C56 H176 1.099846 1_555
C56 H172 1.100936 1_555
C56 Si16 1.888140 1_555
C57 H169 1.099080 1_555
C57 H177 1.099846 1_555
C57 H173 1.100936 1_555
C57 Si17 1.888140 1_555
C58 H170 1.099080 1_555
C58 H178 1.099846 1_555
C58 H174 1.100936 1_555
C58 Si18 1.888140 1_555
C59 H171 1.099080 1_555
C59 H179 1.099846 1_555
C59 H175 1.100936 1_555
C59 Si19 1.888140 1_555
C60 H188 1.098989 1_555
C60 H180 1.099618 1_555
C60 H184 1.102276 1_555
C60 Si20 1.892580 1_555
C61 H189 1.098989 1_555
C61 H181 1.099618 1_555
C61 H185 1.102276 1_555
C61 Si21 1.892580 1_555
C62 H190 1.098989 1_555
C62 H182 1.099618 1_555
C62 H186 1.102276 1_555
C62 Si22 1.892580 1_555
C63 H191 1.098989 1_555
C63 H183 1.099618 1_555
C63 H187 1.102276 1_555
C63 Si23 1.892580 1_555
C64 H200 1.099709 1_555
C64 H192 1.099883 1_555
C64 H196 1.101489 1_555
C64 Si20 1.887520 1_555
C65 H201 1.099709 1_555
C65 H193 1.099883 1_555
C65 H197 1.101489 1_555
C65 Si21 1.887520 1_555
C66 H202 1.099709 1_555
C66 H194 1.099883 1_555
C66 H198 1.101489 1_555
C66 Si22 1.887520 1_555
C67 H203 1.099709 1_555
C67 H195 1.099883 1_555
C67 H199 1.101489 1_555
C67 Si23 1.887520 1_555
C68 H204 1.099522 1_555
C68 H212 1.099551 1_555
C68 H208 1.101346 1_555
C68 Si20 1.884980 1_555
C69 H205 1.099522 1_555
C69 H213 1.099551 1_555
C69 H209 1.101346 1_555
C69 Si21 1.884980 1_555
C70 H206 1.099522 1_555
C70 H214 1.099551 1_555
C70 H210 1.101346 1_555
C70 Si22 1.884980 1_555
C71 H207 1.099522 1_555
C71 H215 1.099551 1_555
C71 H211 1.101346 1_555
C71 Si23 1.884980 1_555
N0 Si0 1.749268 1_555
N0 Si4 1.761382 1_555
N0 U0 2.283693 1_555
N1 Si1 1.749268 1_555
N1 Si5 1.761382 1_555
N1 U1 2.283693 1_555
N2 Si2 1.749268 1_555
N2 Si6 1.761382 1_555
N2 U2 2.283693 1_555
N3 Si3 1.749268 1_555
N3 Si7 1.761382 1_555
N3 U3 2.283693 1_555
N4 Si8 1.754399 1_454
N4 Si12 1.758529 1_554
N4 U0 2.288316 1_555
N5 Si9 1.754399 1_655
N5 Si13 1.758529 1_555
N5 U1 2.288316 1_555
N6 Si10 1.754399 1_656
N6 Si14 1.758529 1_556
N6 U2 2.288316 1_555
N7 Si11 1.754399 1_455
N7 Si15 1.758529 1_555
N7 U3 2.288316 1_555
N8 Si16 1.753044 1_555
N8 Si20 1.762408 1_555
N8 U0 2.283083 1_555
N9 Si17 1.753044 1_555
N9 Si21 1.762408 1_555
N9 U1 2.283083 1_555
N10 Si18 1.753044 1_555
N10 Si22 1.762408 1_555
N10 U2 2.283083 1_555
N11 Si19 1.753044 1_555
N11 Si23 1.762408 1_555
N11 U3 2.283083 1_555
F0 U0 2.080352 1_555
F1 U1 2.080352 1_555
F2 U2 2.080352 1_555
F3 U3 2.080352 1_555
