# generated using pymatgen
data_MgTa4Mn4Nb4O24
_symmetry_space_group_name_H-M   'P 1'
_cell_length_a   5.23913420
_cell_length_b   6.07249061
_cell_length_c   14.72980942
_cell_angle_alpha   90.45335434
_cell_angle_beta   84.89893835
_cell_angle_gamma   90.85895380
_symmetry_Int_Tables_number   1
_chemical_formula_structural   MgTa4Mn4Nb4O24
_chemical_formula_sum   'Mg1 Ta4 Mn4 Nb4 O24'
_cell_volume   466.70424005
_cell_formula_units_Z   1
loop_
 _symmetry_equiv_pos_site_id
 _symmetry_equiv_pos_as_xyz
  1  'x, y, z'
loop_
 _atom_site_type_symbol
 _atom_site_label
 _atom_site_symmetry_multiplicity
 _atom_site_fract_x
 _atom_site_fract_y
 _atom_site_fract_z
 _atom_site_occupancy
  Mg  Mg0  1  0.10154650  0.85861921  0.04530612  1
  Ta  Ta0  1  0.34799789  0.63931470  0.18546723  1
  Ta  Ta1  1  0.80917490  0.83144703  0.34876384  1
  Ta  Ta2  1  0.70598633  0.83913472  0.65467827  1
  Ta  Ta3  1  0.16691838  0.66187696  0.82112976  1
  Mn  Mn0  1  0.24105577  0.34974996  0.99921667  1
  Mn  Mn1  1  0.75747956  0.33249333  0.50048838  1
  Mn  Mn2  1  0.63569231  0.85976280  0.95514553  1
  Mn  Mn3  1  0.25826715  0.66341828  0.50131539  1
  Nb  Nb0  1  0.67643936  0.33136127  0.82495687  1
  Nb  Nb1  1  0.20196969  0.17334569  0.65890273  1
  Nb  Nb2  1  0.31648692  0.16481535  0.34004691  1
  Nb  Nb3  1  0.81937070  0.31964435  0.17405233  1
  O  O0  1  0.84848877  0.11449228  0.74361896  1
  O  O1  1  0.35011696  0.38696463  0.75363376  1
  O  O2  1  0.14937697  0.36882993  0.24903220  1
  O  O3  1  0.66946949  0.09603283  0.25919400  1
  O  O4  1  0.14817359  0.85287611  0.26090572  1
  O  O5  1  0.66135262  0.62393859  0.25080366  1
  O  O6  1  0.85078429  0.63786662  0.75341889  1
  O  O7  1  0.36606169  0.86844314  0.74328546  1
  O  O8  1  0.50033626  0.15144283  0.91570566  1
  O  O9  1  0.08517717  0.37076006  0.58031918  1
  O  O10  1  0.43347472  0.36429358  0.42030518  1
  O  O11  1  0.97467838  0.14046392  0.07943405  1
  O  O12  1  0.45246502  0.83526684  0.08683104  1
  O  O13  1  0.92801671  0.61820995  0.42263847  1
  O  O14  1  0.58505508  0.62048997  0.58132821  1
  O  O15  1  0.02096525  0.84714321  0.91781740  1
  O  O16  1  0.96846109  0.40589291  0.89225153  1
  O  O17  1  0.55497219  0.09369503  0.59766882  1
  O  O18  1  0.96343962  0.09067049  0.40460229  1
  O  O19  1  0.52508473  0.39049555  0.10919066  1
  O  O20  1  0.04940771  0.57416926  0.10462531  1
  O  O21  1  0.46885748  0.88459857  0.40504620  1
  O  O22  1  0.04754707  0.88793886  0.59771372  1
  O  O23  1  0.44735170  0.59379121  0.90133860  1
loop_
_geom_bond_atom_site_label_1
_geom_bond_atom_site_label_2
_geom_bond_distance
_geom_bond_site_symmetry_2
Mg0 O11 1.893359 1_465
Mg0 O20 1.946536 1_555
Mg0 O15 1.961521 1_554
Mg0 O12 1.995872 1_555
Mn0 O8 2.130027 1_555
Mn0 O11 2.153211 1_456
Mn0 O20 2.237493 1_556
Mn0 O16 2.249789 1_455
Mn0 O23 2.269705 1_555
Mn0 O19 2.304537 1_556
Mn1 O10 2.164193 1_555
Mn1 O9 2.174170 1_655
Mn1 O13 2.219531 1_555
Mn1 O17 2.234756 1_555
Mn1 O18 2.249278 1_555
Mn1 O14 2.261764 1_555
Mn2 O8 2.026036 1_565
Mn2 O15 2.046737 1_655
Mn2 O23 2.069162 1_555
Mn2 O12 2.091710 1_556
Mn3 O21 2.177051 1_555
Mn3 O13 2.179307 1_455
Mn3 O14 2.182955 1_555
Mn3 O22 2.197632 1_555
Mn3 O9 2.265314 1_555
Mn3 O10 2.320953 1_555
Nb0 O8 1.898761 1_555
Nb0 O16 1.941631 1_555
Nb0 O0 1.949571 1_555
Nb0 O1 2.117292 1_555
Nb0 O23 2.243830 1_555
Nb0 O6 2.284264 1_555
Nb1 O9 1.822438 1_555
Nb1 O17 2.047229 1_555
Nb1 O1 2.089491 1_555
Nb1 O22 2.129212 1_545
Nb1 O0 2.165824 1_455
Nb1 O7 2.446684 1_545
Nb2 O10 1.823316 1_555
Nb2 O18 2.048707 1_455
Nb2 O2 2.089532 1_555
Nb2 O3 2.153241 1_555
Nb2 O21 2.156813 1_545
Nb2 O4 2.412983 1_545
Nb3 O11 1.894540 1_555
Nb3 O19 1.939947 1_555
Nb3 O3 1.962973 1_555
Nb3 O2 2.148746 1_655
Nb3 O20 2.153410 1_655
Nb3 O5 2.285675 1_555
O0 Ta2 2.274088 1_545
O1 Ta3 2.132757 1_555
O2 Ta0 2.111209 1_555
O3 Ta1 2.257964 1_545
O4 Ta0 1.955408 1_555
O4 Ta1 2.105496 1_455
O5 Ta0 1.979166 1_555
O5 Ta1 2.100088 1_555
O6 Ta3 2.010830 1_655
O6 Ta2 2.106364 1_555
O7 Ta3 1.935859 1_555
O7 Ta2 2.121149 1_555
O12 Ta0 1.921661 1_555
O13 Ta1 1.848086 1_555
O14 Ta2 1.845371 1_555
O15 Ta3 1.919766 1_555
O16 Ta3 2.092491 1_655
O17 Ta2 1.973837 1_545
O18 Ta1 1.966511 1_545
O19 Ta0 2.058129 1_555
O20 Ta0 2.080124 1_555
O21 Ta1 1.928888 1_555
O22 Ta2 1.927474 1_455
O23 Ta3 2.014954 1_555
