# generated using pymatgen
data_Er3Ru
_symmetry_space_group_name_H-M   'P 1'
_cell_length_a   6.23665500
_cell_length_b   7.27244400
_cell_length_c   9.10111700
_cell_angle_alpha   90.00000000
_cell_angle_beta   90.00000000
_cell_angle_gamma   90.00000000
_symmetry_Int_Tables_number   1
_chemical_formula_structural   Er3Ru
_chemical_formula_sum   'Er12 Ru4'
_cell_volume   412.78775288
_cell_formula_units_Z   4
loop_
 _symmetry_equiv_pos_site_id
 _symmetry_equiv_pos_as_xyz
  1  'x, y, z'
loop_
 _atom_site_type_symbol
 _atom_site_label
 _atom_site_symmetry_multiplicity
 _atom_site_fract_x
 _atom_site_fract_y
 _atom_site_fract_z
 _atom_site_occupancy
  Er  Er0  1  0.33127200  0.67705600  0.06400500  1
  Er  Er1  1  0.16872800  0.17705600  0.43599500  1
  Er  Er2  1  0.66872800  0.32294400  0.56400500  1
  Er  Er3  1  0.83127200  0.82294400  0.93599500  1
  Er  Er4  1  0.66872800  0.32294400  0.93599500  1
  Er  Er5  1  0.83127200  0.82294400  0.56400500  1
  Er  Er6  1  0.33127200  0.67705600  0.43599500  1
  Er  Er7  1  0.16872800  0.17705600  0.06400500  1
  Er  Er8  1  0.86643000  0.53825300  0.25000000  1
  Er  Er9  1  0.63357000  0.03825300  0.25000000  1
  Er  Er10  1  0.13357000  0.46174700  0.75000000  1
  Er  Er11  1  0.36643000  0.96174700  0.75000000  1
  Ru  Ru0  1  0.04214300  0.88385600  0.25000000  1
  Ru  Ru1  1  0.45785700  0.38385600  0.25000000  1
  Ru  Ru2  1  0.95785700  0.11614400  0.75000000  1
  Ru  Ru3  1  0.54214300  0.61614400  0.75000000  1
loop_
_geom_bond_atom_site_label_1
_geom_bond_atom_site_label_2
_geom_bond_distance
_geom_bond_site_symmetry_2
Er0 Ru1 2.834664 1_555
Er0 Ru0 2.894617 1_555
Er0 Ru3 3.176916 1_554
Er1 Ru0 2.834664 1_545
Er1 Ru1 2.894617 1_555
Er1 Ru2 3.176916 1_455
Er2 Ru3 2.834664 1_555
Er2 Ru2 2.894617 1_555
Er2 Ru1 3.176916 1_555
Er3 Ru2 2.834664 1_565
Er3 Ru3 2.894617 1_555
Er3 Ru0 3.176916 1_656
Er4 Ru3 2.834664 1_555
Er4 Ru2 2.894617 1_555
Er4 Ru1 3.176916 1_556
Er5 Ru2 2.834664 1_565
Er5 Ru3 2.894617 1_555
Er5 Ru0 3.176916 1_655
Er6 Ru1 2.834664 1_555
Er6 Ru0 2.894617 1_555
Er6 Ru3 3.176916 1_555
Er7 Ru0 2.834664 1_545
Er7 Ru1 2.894617 1_555
Er7 Ru2 3.176916 1_454
Er8 Ru0 2.741894 1_655
Er8 Ru1 2.784554 1_555
Er9 Ru1 2.741894 1_555
Er9 Ru0 2.784554 1_645
Er10 Ru2 2.741894 1_455
Er10 Ru3 2.784554 1_555
Er11 Ru3 2.741894 1_555
Er11 Ru2 2.784554 1_465
