# generated using pymatgen
data_Ba2CeTaO6
_symmetry_space_group_name_H-M   'P 1'
_cell_length_a   6.10927442
_cell_length_b   6.10927442
_cell_length_c   6.15646344
_cell_angle_alpha   60.03752378
_cell_angle_beta   60.03752378
_cell_angle_gamma   60.03865996
_symmetry_Int_Tables_number   1
_chemical_formula_structural   Ba2CeTaO6
_chemical_formula_sum   'Ba2 Ce1 Ta1 O6'
_cell_volume   162.61796914
_cell_formula_units_Z   1
loop_
 _symmetry_equiv_pos_site_id
 _symmetry_equiv_pos_as_xyz
  1  'x, y, z'
loop_
 _atom_site_type_symbol
 _atom_site_label
 _atom_site_symmetry_multiplicity
 _atom_site_fract_x
 _atom_site_fract_y
 _atom_site_fract_z
 _atom_site_occupancy
  Ba  Ba0  1  0.75163800  0.75163800  0.74474100  1
  Ba  Ba1  1  0.24836200  0.24836200  0.25525900  1
  Ce  Ce0  1  0.00000000  0.00000000  0.00000000  1
  Ta  Ta0  1  0.50000000  0.50000000  0.50000000  1
  O  O0  1  0.73005400  0.73005400  0.21651600  1
  O  O1  1  0.26994600  0.26994600  0.78348400  1
  O  O2  1  0.29481100  0.76125200  0.70176000  1
  O  O3  1  0.23874800  0.70518900  0.29824000  1
  O  O4  1  0.70518900  0.23874800  0.29824000  1
  O  O5  1  0.76125200  0.29481100  0.70176000  1
loop_
_geom_bond_atom_site_label_1
_geom_bond_atom_site_label_2
_geom_bond_distance
_geom_bond_site_symmetry_2
Ba0 O0 2.779020 1_556
Ba0 O3 2.873560 1_655
Ba0 O4 2.873560 1_565
Ba0 O2 2.901878 1_555
Ba0 O5 2.901878 1_555
Ba0 O1 3.080490 1_565
Ba0 O1 3.080490 1_655
Ba0 O2 3.222928 1_655
Ba0 O5 3.222928 1_565
Ba0 O4 3.281370 1_556
Ba0 O3 3.281370 1_556
Ba0 O0 3.388848 1_555
Ba1 O1 2.779020 1_554
Ba1 O5 2.873560 1_455
Ba1 O2 2.873560 1_545
Ba1 O3 2.901878 1_555
Ba1 O4 2.901878 1_555
Ba1 O0 3.080490 1_455
Ba1 O0 3.080490 1_545
Ba1 O3 3.222928 1_545
Ba1 O4 3.222928 1_455
Ba1 O5 3.281370 1_554
Ba1 O2 3.281370 1_554
Ba1 O1 3.388848 1_555
Ce0 O5 2.343184 1_454
Ce0 O2 2.343184 1_544
Ce0 O4 2.343184 1_455
Ce0 O3 2.343184 1_545
Ce0 O1 2.354006 1_554
Ce0 O0 2.354006 1_445
O0 Ta0 2.017268 1_555
O1 Ta0 2.017268 1_555
O2 Ta0 2.021938 1_555
O3 Ta0 2.021938 1_555
O4 Ta0 2.021938 1_555
O5 Ta0 2.021938 1_555
