# generated using pymatgen
data_Sr3CaNdMn5O15
_symmetry_space_group_name_H-M   'P 1'
_cell_length_a   5.50390700
_cell_length_b   9.43284853
_cell_length_c   12.10221781
_cell_angle_alpha   97.36949072
_cell_angle_beta   102.76650694
_cell_angle_gamma   105.42662270
_symmetry_Int_Tables_number   1
_chemical_formula_structural   Sr3CaNdMn5O15
_chemical_formula_sum   'Sr6 Ca2 Nd2 Mn10 O30'
_cell_volume   578.89747071
_cell_formula_units_Z   2
loop_
 _symmetry_equiv_pos_site_id
 _symmetry_equiv_pos_as_xyz
  1  'x, y, z'
loop_
 _atom_site_type_symbol
 _atom_site_label
 _atom_site_symmetry_multiplicity
 _atom_site_fract_x
 _atom_site_fract_y
 _atom_site_fract_z
 _atom_site_occupancy
  Sr  Sr0  1  0.94861900  0.55131500  0.34943400  1
  Sr  Sr1  1  0.34520400  0.14877200  0.55070700  1
  Sr  Sr2  1  0.45226500  0.05070900  0.85300700  1
  Sr  Sr3  1  0.85095400  0.64967600  0.04930700  1
  Sr  Sr4  1  0.65094200  0.85153800  0.44809600  1
  Sr  Sr5  1  0.05097300  0.44852300  0.65189000  1
  Ca  Ca0  1  0.15239600  0.34963300  0.95058800  1
  Ca  Ca1  1  0.55256500  0.95076200  0.15358400  1
  Nd  Nd0  1  0.75126400  0.74915100  0.74614100  1
  Nd  Nd1  1  0.24412400  0.25021100  0.24699100  1
  Mn  Mn0  1  0.49800200  0.49877200  0.49845900  1
  Mn  Mn1  1  0.70076200  0.30005600  0.09794200  1
  Mn  Mn2  1  0.09816500  0.90029700  0.29752800  1
  Mn  Mn3  1  0.90099600  0.10163700  0.70222900  1
  Mn  Mn4  1  0.30149300  0.70026000  0.90278500  1
  Mn  Mn5  1  0.59920100  0.39968000  0.80155300  1
  Mn  Mn6  1  0.79676000  0.19829400  0.39823200  1
  Mn  Mn7  1  0.19984000  0.80015200  0.60024400  1
  Mn  Mn8  1  0.00237100  0.00018400  0.00138400  1
  Mn  Mn9  1  0.40164600  0.60165400  0.19840800  1
  O  O0  1  0.14889100  0.34987900  0.44245000  1
  O  O1  1  0.35221400  0.15105400  0.05793500  1
  O  O2  1  0.74757400  0.75028000  0.24483200  1
  O  O3  1  0.55121800  0.94173100  0.65719100  1
  O  O4  1  0.95076200  0.55627400  0.84971300  1
  O  O5  1  0.24700100  0.25133700  0.75430800  1
  O  O6  1  0.44470100  0.05619000  0.33813300  1
  O  O7  1  0.84780900  0.64922700  0.55438700  1
  O  O8  1  0.65834300  0.84950800  0.94863000  1
  O  O9  1  0.05096300  0.44487500  0.15150400  1
  O  O10  1  0.42900100  0.57089500  0.35580900  1
  O  O11  1  0.61016100  0.37253700  0.95797500  1
  O  O12  1  0.01385700  0.98154600  0.15909800  1
  O  O13  1  0.82219600  0.16596700  0.55498600  1
  O  O14  1  0.21200300  0.76916300  0.75846700  1
  O  O15  1  0.56910700  0.42946400  0.64291800  1
  O  O16  1  0.78248400  0.22242200  0.23892900  1
  O  O17  1  0.17316700  0.83166700  0.44328500  1
  O  O18  1  0.96738700  0.01628700  0.84155800  1
  O  O19  1  0.36285400  0.61471700  0.03824600  1
  O  O20  1  0.36660500  0.64502400  0.57640000  1
  O  O21  1  0.54980200  0.43567000  0.17492000  1
  O  O22  1  0.96064600  0.04498100  0.37026600  1
  O  O23  1  0.76630700  0.24524800  0.77796600  1
  O  O24  1  0.17927200  0.84912600  0.98220400  1
  O  O25  1  0.62871400  0.35255400  0.42069300  1
  O  O26  1  0.86325500  0.16785800  0.02629000  1
  O  O27  1  0.25190300  0.76356500  0.22501200  1
  O  O28  1  0.03492600  0.95150800  0.63148600  1
  O  O29  1  0.45833700  0.56816900  0.82589700  1
loop_
_geom_bond_atom_site_label_1
_geom_bond_atom_site_label_2
_geom_bond_distance
_geom_bond_site_symmetry_2
Ca0 O26 2.430562 1_456
Ca0 O19 2.440315 1_556
Ca0 O11 2.451211 1_555
Ca0 O23 2.499332 1_455
Ca0 O5 2.648010 1_555
Ca0 O9 2.708785 1_556
Ca0 O1 2.737667 1_556
Ca0 O4 2.771990 1_455
Ca0 O21 2.946105 1_556
Ca0 O18 3.050184 1_455
Ca0 O11 3.068773 1_455
Ca0 O29 3.071874 1_555
Ca1 O24 2.449660 1_554
Ca1 O12 2.462267 1_655
Ca1 O27 2.464335 1_555
Ca1 O16 2.500583 1_565
Ca1 O6 2.580711 1_565
Ca1 O2 2.653216 1_555
Ca1 O1 2.689007 1_565
Ca1 O8 2.780263 1_554
Ca1 O22 2.906592 1_565
Ca1 O12 3.069285 1_555
Ca1 O19 3.089757 1_555
Ca1 O26 3.098644 1_565
Nd0 O14 2.461589 1_655
Nd0 O29 2.468122 1_555
Nd0 O20 2.474038 1_555
Nd0 O18 2.479897 1_565
Nd0 O3 2.590941 1_555
Nd0 O7 2.608931 1_555
Nd0 O4 2.669547 1_555
Nd0 O8 2.716493 1_555
Nd0 O28 2.838637 1_655
Nd0 O15 2.920781 1_555
Nd0 O14 3.058380 1_555
Nd0 O24 3.122999 1_655
Nd1 O16 2.462430 1_455
Nd1 O21 2.475054 1_555
Nd1 O12 2.482771 1_545
Nd1 O25 2.501474 1_555
Nd1 O1 2.610042 1_555
Nd1 O6 2.615242 1_555
Nd1 O9 2.622481 1_555
Nd1 O0 2.644576 1_555
Nd1 O26 2.873799 1_455
Nd1 O22 2.927556 1_455
Nd1 O10 2.944213 1_555
Nd1 O16 3.064722 1_555
Mn0 O10 1.932992 1_555
Mn0 O15 1.940099 1_555
Mn0 O25 1.949306 1_555
Mn0 O20 1.953053 1_555
Mn0 O0 1.966859 1_555
Mn0 O7 1.975620 1_555
Mn1 O11 1.921097 1_554
Mn1 O26 1.940488 1_555
Mn1 O21 1.948456 1_555
Mn1 O16 1.951023 1_555
Mn1 O9 1.954814 1_655
Mn1 O1 1.967365 1_555
Mn2 O22 1.935525 1_465
Mn2 O27 1.941164 1_555
Mn2 O12 1.945348 1_555
Mn2 O17 1.953060 1_555
Mn2 O2 1.975992 1_455
Mn2 O6 1.987450 1_565
Mn3 O23 1.934118 1_555
Mn3 O28 1.950660 1_645
Mn3 O13 1.951301 1_555
Mn3 O5 1.956649 1_655
Mn3 O18 1.964025 1_555
Mn3 O3 2.014678 1_545
Mn4 O19 1.921555 1_556
Mn4 O24 1.946853 1_555
Mn4 O29 1.947661 1_555
Mn4 O14 1.948554 1_555
Mn4 O4 1.953725 1_455
Mn4 O8 1.998590 1_555
Mn5 O11 1.932597 1_555
Mn5 O23 1.942066 1_555
Mn5 O15 1.953131 1_555
Mn5 O29 1.962204 1_555
Mn5 O5 1.975974 1_555
Mn5 O4 2.006443 1_555
Mn6 O22 1.929497 1_555
Mn6 O13 1.940412 1_555
Mn6 O25 1.942252 1_555
Mn6 O6 1.955934 1_555
Mn6 O16 1.957033 1_555
Mn6 O0 1.989509 1_655
Mn7 O28 1.925571 1_555
Mn7 O17 1.939860 1_555
Mn7 O20 1.946857 1_555
Mn7 O3 1.949218 1_555
Mn7 O14 1.963142 1_555
Mn7 O7 1.985816 1_455
Mn8 O12 1.927866 1_545
Mn8 O18 1.930751 1_454
Mn8 O24 1.945597 1_544
Mn8 O26 1.950051 1_455
Mn8 O8 1.953005 1_444
Mn8 O1 1.977665 1_555
Mn9 O19 1.926188 1_555
Mn9 O10 1.942620 1_555
Mn9 O27 1.943271 1_555
Mn9 O2 1.952256 1_555
Mn9 O21 1.965874 1_555
Mn9 O9 2.004128 1_555
O0 Sr0 2.684632 1_455
O0 Sr1 2.754089 1_555
O0 Sr5 2.801139 1_555
O1 Sr2 2.762003 1_554
O2 Sr3 2.670184 1_555
O2 Sr0 2.728484 1_555
O2 Sr4 2.737195 1_555
O3 Sr2 2.685640 1_565
O3 Sr4 2.781827 1_555
O3 Sr1 2.817540 1_565
O4 Sr3 2.685288 1_556
O4 Sr5 2.706763 1_655
O5 Sr5 2.688519 1_555
O5 Sr2 2.721326 1_555
O5 Sr1 2.748603 1_555
O6 Sr4 2.818403 1_545
O6 Sr1 2.825179 1_555
O7 Sr5 2.709836 1_655
O7 Sr4 2.753991 1_555
O7 Sr0 2.757965 1_555
O8 Sr3 2.691278 1_556
O8 Sr2 2.712250 1_565
O9 Sr0 2.709893 1_455
O9 Sr3 2.759748 1_455
O10 Sr4 2.581811 1_555
O10 Sr0 2.584004 1_455
O10 Sr0 2.931576 1_555
O11 Sr3 2.565222 1_556
O11 Sr2 2.950262 1_555
O12 Sr3 3.046714 1_455
O13 Sr1 2.575366 1_555
O13 Sr5 2.612425 1_655
O13 Sr4 2.889348 1_545
O13 Sr1 2.937240 1_655
O14 Sr2 2.606598 1_565
O14 Sr5 2.943624 1_555
O15 Sr1 2.583175 1_555
O15 Sr5 2.586899 1_655
O15 Sr5 2.929378 1_555
O16 Sr0 3.022496 1_555
O17 Sr4 2.573088 1_555
O17 Sr0 2.584810 1_455
O17 Sr1 2.912997 1_565
O17 Sr4 2.942411 1_455
O18 Sr2 2.571137 1_655
O18 Sr2 2.968960 1_555
O19 Sr3 2.588852 1_555
O19 Sr3 2.952005 1_455
O20 Sr5 2.590565 1_555
O20 Sr4 2.980439 1_555
O20 Sr0 3.020141 1_455
O21 Sr0 2.560270 1_555
O21 Sr3 3.042074 1_555
O22 Sr1 2.552149 1_655
O22 Sr4 2.572579 1_545
O23 Sr2 2.571692 1_555
O23 Sr5 2.944198 1_655
O23 Sr1 3.030324 1_555
O24 Sr3 2.587720 1_456
O24 Sr2 2.932418 1_565
O25 Sr0 2.586251 1_555
O25 Sr1 2.978413 1_555
O25 Sr5 3.067018 1_655
O26 Sr2 2.591329 1_554
O27 Sr3 2.573808 1_455
O27 Sr4 2.938755 1_555
O27 Sr0 3.027958 1_455
O28 Sr4 2.571267 1_455
O28 Sr1 2.616958 1_565
O28 Sr2 2.971596 1_565
O29 Sr5 2.587040 1_555
O29 Sr3 2.927743 1_556
