# generated using pymatgen
data_Lu2InCu2
_symmetry_space_group_name_H-M   'P 1'
_cell_length_a   7.30811928
_cell_length_b   7.30811928
_cell_length_c   3.67286122
_cell_angle_alpha   90.00000000
_cell_angle_beta   90.00000000
_cell_angle_gamma   90.00000000
_symmetry_Int_Tables_number   1
_chemical_formula_structural   Lu2InCu2
_chemical_formula_sum   'Lu4 In2 Cu4'
_cell_volume   196.16240297
_cell_formula_units_Z   2
loop_
 _symmetry_equiv_pos_site_id
 _symmetry_equiv_pos_as_xyz
  1  'x, y, z'
loop_
 _atom_site_type_symbol
 _atom_site_label
 _atom_site_symmetry_multiplicity
 _atom_site_fract_x
 _atom_site_fract_y
 _atom_site_fract_z
 _atom_site_occupancy
  Lu  Lu0  1  0.66977081  0.16977081  0.50000000  1
  Lu  Lu1  1  0.33022919  0.83022919  0.50000000  1
  Lu  Lu2  1  0.16977081  0.33022919  0.50000000  1
  Lu  Lu3  1  0.83022919  0.66977081  0.50000000  1
  In  In0  1  0.50000000  0.50000000  -0.00000000  1
  In  In1  1  -0.00000000  0.00000000  -0.00000000  1
  Cu  Cu0  1  0.12248408  0.62248408  -0.00000000  1
  Cu  Cu1  1  0.87751592  0.37751592  0.00000000  1
  Cu  Cu2  1  0.62248408  0.87751592  -0.00000000  1
  Cu  Cu3  1  0.37751592  0.12248408  0.00000000  1
loop_
_geom_bond_atom_site_label_1
_geom_bond_atom_site_label_2
_geom_bond_distance
_geom_bond_site_symmetry_2
In0 Lu3 3.276600 1_554
In0 Lu1 3.276600 1_555
In0 Lu0 3.276600 1_554
In0 Lu1 3.276600 1_554
In0 Lu2 3.276600 1_555
In0 Lu2 3.276600 1_554
In0 Lu3 3.276600 1_555
In0 Lu0 3.276600 1_555
In1 Lu0 3.276600 1_455
In1 Lu0 3.276600 1_454
In1 Lu3 3.276600 1_444
In1 Lu1 3.276600 1_544
In1 Lu1 3.276600 1_545
In1 Lu2 3.276600 1_555
In1 Lu2 3.276600 1_554
In1 Lu3 3.276600 1_445
Cu0 Cu1 2.531805 1_455
Cu0 Lu1 2.825331 1_555
Cu0 Lu1 2.825331 1_554
Cu0 Lu2 2.837902 1_554
Cu0 Lu2 2.837902 1_555
Cu0 Lu3 2.837902 1_455
Cu0 Lu3 2.837902 1_454
Cu0 In0 2.900510 1_555
Cu0 In1 2.900510 1_565
Cu1 Lu0 2.825331 1_554
Cu1 Lu0 2.825331 1_555
Cu1 Lu2 2.837902 1_655
Cu1 Lu2 2.837902 1_654
Cu1 Lu3 2.837902 1_555
Cu1 Lu3 2.837902 1_554
Cu1 In0 2.900510 1_555
Cu1 In1 2.900510 1_655
Cu2 Cu3 2.531805 1_565
Cu2 Lu3 2.825331 1_555
Cu2 Lu3 2.825331 1_554
Cu2 Lu0 2.837902 1_565
Cu2 Lu1 2.837902 1_555
Cu2 Lu0 2.837902 1_564
Cu2 Lu1 2.837902 1_554
Cu2 In1 2.900510 1_665
Cu2 In0 2.900510 1_555
Cu3 Lu2 2.825331 1_555
Cu3 Lu2 2.825331 1_554
Cu3 Lu0 2.837902 1_554
Cu3 Lu0 2.837902 1_555
Cu3 Lu1 2.837902 1_544
Cu3 Lu1 2.837902 1_545
Cu3 In0 2.900510 1_555
Cu3 In1 2.900510 1_555
