# generated using pymatgen
data_NaCu5Sb2As6(H9O17)2
_symmetry_space_group_name_H-M   'P 1'
_cell_length_a   7.17727700
_cell_length_b   10.02583688
_cell_length_c   10.99138682
_cell_angle_alpha   107.70163811
_cell_angle_beta   104.30545112
_cell_angle_gamma   93.91022348
_symmetry_Int_Tables_number   1
_chemical_formula_structural   NaCu5Sb2As6(H9O17)2
_chemical_formula_sum   'Na1 Cu5 Sb2 As6 H18 O34'
_cell_volume   721.25537836
_cell_formula_units_Z   1
loop_
 _symmetry_equiv_pos_site_id
 _symmetry_equiv_pos_as_xyz
  1  'x, y, z'
loop_
 _atom_site_type_symbol
 _atom_site_label
 _atom_site_symmetry_multiplicity
 _atom_site_fract_x
 _atom_site_fract_y
 _atom_site_fract_z
 _atom_site_occupancy
  Na  Na0  1  0.00000000  0.00000000  0.00000000  1
  Cu  Cu0  1  0.50000000  0.50000000  0.50000000  1
  Cu  Cu1  1  0.07777500  0.38902500  0.18106900  1
  Cu  Cu2  1  0.92222500  0.61097500  0.81893100  1
  Cu  Cu3  1  0.00000000  0.50000000  0.50000000  1
  Cu  Cu4  1  0.50000000  0.50000000  0.00000000  1
  Sb  Sb0  1  0.00000000  0.00000000  0.50000000  1
  Sb  Sb1  1  0.50000000  0.00000000  0.50000000  1
  As  As0  1  0.20674400  0.19791600  0.35203600  1
  As  As1  1  0.79325600  0.80208400  0.64796400  1
  As  As2  1  0.64731200  0.35420600  0.22706100  1
  As  As3  1  0.35268800  0.64579400  0.77293900  1
  As  As4  1  0.16089400  0.70461800  0.35054200  1
  As  As5  1  0.83910600  0.29538200  0.64945800  1
  H  H0  1  0.34529600  0.05463500  0.93964600  1
  H  H1  1  0.65470400  0.94536500  0.06035400  1
  H  H2  1  0.18226600  0.02903800  0.80889300  1
  H  H3  1  0.81773400  0.97096200  0.19110700  1
  H  H4  1  0.18803700  0.25751800  0.97282100  1
  H  H5  1  0.81196300  0.74248200  0.02717900  1
  H  H6  1  0.31595900  0.90457700  0.17584200  1
  H  H7  1  0.68404100  0.09542300  0.82415800  1
  H  H8  1  0.31023100  0.79766600  0.03658300  1
  H  H9  1  0.68976900  0.20233400  0.96341700  1
  H  H10  1  0.53502800  0.14735800  0.25431100  1
  H  H11  1  0.46497200  0.85264200  0.74568900  1
  H  H12  1  0.05499000  0.36979200  0.93671900  1
  H  H13  1  0.94501000  0.63020800  0.06328100  1
  H  H14  1  0.28366800  0.29129700  0.77220000  1
  H  H15  1  0.71633200  0.70870300  0.22780000  1
  H  H16  1  0.50267600  0.69375000  0.23855400  1
  H  H17  1  0.49732400  0.30625000  0.76144600  1
  O  O0  1  0.27723800  0.35395600  0.48041900  1
  O  O1  1  0.72276200  0.64604400  0.51958100  1
  O  O2  1  0.62590400  0.18977600  0.64127500  1
  O  O3  1  0.37409600  0.81022400  0.35872500  1
  O  O4  1  0.02098900  0.18678900  0.64606600  1
  O  O5  1  0.97901200  0.81321100  0.35393400  1
  O  O6  1  0.09526100  0.58875700  0.19189400  1
  O  O7  1  0.90473900  0.41124300  0.80810600  1
  O  O8  1  0.25976400  0.88304200  0.08078300  1
  O  O9  1  0.74023600  0.11695800  0.91921700  1
  O  O10  1  0.48668400  0.42604000  0.31030000  1
  O  O11  1  0.51331600  0.57396000  0.68970000  1
  O  O12  1  0.00869100  0.09613000  0.36540400  1
  O  O13  1  0.99130900  0.90387000  0.63459600  1
  O  O14  1  0.20541400  0.63556500  0.47549800  1
  O  O15  1  0.79458600  0.36443500  0.52450200  1
  O  O16  1  0.10351900  0.58535900  0.69477800  1
  O  O17  1  0.89648100  0.41464100  0.30522200  1
  O  O18  1  0.28250800  0.02480300  0.57656900  1
  O  O19  1  0.71749200  0.97519700  0.42343100  1
  O  O20  1  0.60498500  0.16816500  0.19330800  1
  O  O21  1  0.39501500  0.83183500  0.80669200  1
  O  O22  1  0.13409300  0.20426600  0.19487800  1
  O  O23  1  0.86590700  0.79573400  0.80512200  1
  O  O24  1  0.15694800  0.35456400  0.00956000  1
  O  O25  1  0.84305200  0.64543600  0.99044000  1
  O  O26  1  0.39417500  0.09113100  0.35684100  1
  O  O27  1  0.60582500  0.90886900  0.64315900  1
  O  O28  1  0.58970800  0.64682200  0.18861800  1
  O  O29  1  0.41029200  0.35317800  0.81138200  1
  O  O30  1  0.61335500  0.35842800  0.06826000  1
  O  O31  1  0.38664500  0.64157200  0.93174000  1
  O  O32  1  0.22609600  0.08781000  0.90302800  1
  O  O33  1  0.77390400  0.91219000  0.09697200  1
loop_
_geom_bond_atom_site_label_1
_geom_bond_atom_site_label_2
_geom_bond_distance
_geom_bond_site_symmetry_2
Na0 O8 2.398461 1_545
Na0 O9 2.398461 1_454
Na0 O22 2.398585 1_555
Na0 O23 2.398585 1_444
Na0 O32 2.403115 1_554
Na0 O33 2.403115 1_445
Cu0 O10 1.964208 1_555
Cu0 O11 1.964208 1_555
Cu0 O1 2.016311 1_555
Cu0 O0 2.016311 1_555
Cu0 O15 2.592938 1_555
Cu0 O14 2.592938 1_555
Cu1 O6 1.962980 1_555
Cu1 O22 1.964802 1_555
Cu1 O24 2.038636 1_555
Cu1 O17 2.081149 1_455
Cu2 O7 1.962980 1_555
Cu2 O23 1.964802 1_555
Cu2 O25 2.038636 1_555
Cu2 O16 2.081149 1_655
Cu3 O16 1.969980 1_555
Cu3 O17 1.969980 1_455
Cu3 O15 2.058868 1_455
Cu3 O14 2.058868 1_555
Cu3 O1 2.562608 1_455
Cu3 O0 2.562608 1_555
Cu4 O30 1.934657 1_555
Cu4 O31 1.934657 1_554
Cu4 O29 2.057836 1_554
Cu4 O28 2.057836 1_555
As0 O22 1.698849 1_555
As0 O0 1.700413 1_555
As0 O12 1.755037 1_555
As0 O26 1.776057 1_555
As1 O23 1.698849 1_555
As1 O1 1.700413 1_555
As1 O13 1.755037 1_555
As1 O27 1.776057 1_555
As2 O10 1.708406 1_555
As2 O30 1.715773 1_555
As2 O17 1.754938 1_555
As2 O20 1.776280 1_555
As3 O11 1.708406 1_555
As3 O31 1.715773 1_555
As3 O16 1.754938 1_555
As3 O21 1.776280 1_555
As4 O14 1.690936 1_555
As4 O6 1.702816 1_555
As4 O5 1.756149 1_455
As4 O3 1.767419 1_555
As5 O15 1.690936 1_555
As5 O7 1.702816 1_555
As5 O4 1.756154 1_655
As5 O2 1.767419 1_555
H0 O32 0.977040 1_555
H1 O33 0.977040 1_555
H2 O32 0.979709 1_555
H3 O33 0.979709 1_555
H4 O24 0.997361 1_556
H5 O25 0.997361 1_554
H6 O8 0.971414 1_555
H7 O9 0.971414 1_555
H8 O8 0.988060 1_555
H9 O9 0.988060 1_555
H10 O20 0.991135 1_555
H11 O21 0.991135 1_555
H12 O24 0.999924 1_556
H12 O7 1.731770 1_455
H13 O25 0.999924 1_554
H13 O6 1.731770 1_655
H14 O29 0.981592 1_555
H15 O28 0.981592 1_555
H16 O28 0.982488 1_555
H17 O29 0.982488 1_555
O2 Sb1 2.030595 1_555
O3 Sb1 2.030595 1_565
O4 Sb0 2.030006 1_555
O5 Sb0 2.030007 1_665
O12 Sb0 2.006454 1_555
O13 Sb0 2.006454 1_665
O18 Sb1 1.944672 1_555
O18 Sb0 1.960129 1_555
O19 Sb1 1.944672 1_565
O19 Sb0 1.960129 1_665
O26 Sb1 2.065413 1_555
O27 Sb1 2.065413 1_565
