# generated using pymatgen
data_NaAlH12(SO7)2
_symmetry_space_group_name_H-M   'P 1'
_cell_length_a   6.16965897
_cell_length_b   7.43771960
_cell_length_c   25.51564600
_cell_angle_alpha   90.00000000
_cell_angle_beta   90.00000000
_cell_angle_gamma   94.66594716
_symmetry_Int_Tables_number   1
_chemical_formula_structural   NaAlH12(SO7)2
_chemical_formula_sum   'Na4 Al4 H48 S8 O56'
_cell_volume   1166.98654017
_cell_formula_units_Z   4
loop_
 _symmetry_equiv_pos_site_id
 _symmetry_equiv_pos_as_xyz
  1  'x, y, z'
loop_
 _atom_site_type_symbol
 _atom_site_label
 _atom_site_symmetry_multiplicity
 _atom_site_fract_x
 _atom_site_fract_y
 _atom_site_fract_z
 _atom_site_occupancy
  Na  Na0  1  0.19674500  0.11312800  0.44859900  1
  Na  Na1  1  0.80325500  0.38687200  0.94859900  1
  Na  Na2  1  0.80325500  0.88687200  0.55140100  1
  Na  Na3  1  0.19674500  0.61312800  0.05140100  1
  Al  Al0  1  0.67647100  0.64195700  0.35461300  1
  Al  Al1  1  0.32352900  0.85804300  0.85461300  1
  Al  Al2  1  0.32352900  0.35804300  0.64538700  1
  Al  Al3  1  0.67647100  0.14195700  0.14538700  1
  H  H0  1  0.31053400  0.52002300  0.32122200  1
  H  H1  1  0.68946600  0.97997700  0.82122200  1
  H  H2  1  0.68946600  0.47997700  0.67877800  1
  H  H3  1  0.31053400  0.02002300  0.17877800  1
  H  H4  1  0.42047200  0.64526800  0.27395300  1
  H  H5  1  0.57952800  0.85473200  0.77395300  1
  H  H6  1  0.57952800  0.35473200  0.72604700  1
  H  H7  1  0.42047200  0.14526800  0.22604700  1
  H  H8  1  0.41962800  0.64487600  0.43399200  1
  H  H9  1  0.58037200  0.85512400  0.93399200  1
  H  H10  1  0.58037200  0.35512400  0.56600800  1
  H  H11  1  0.41962800  0.14487600  0.06600800  1
  H  H12  1  0.51851500  0.44343500  0.43100200  1
  H  H13  1  0.48148500  0.05656500  0.93100200  1
  H  H14  1  0.48148500  0.55656500  0.56899800  1
  H  H15  1  0.51851500  0.94343500  0.06899800  1
  H  H16  1  0.68948000  0.93941700  0.40765900  1
  H  H17  1  0.31052000  0.56058300  0.90765900  1
  H  H18  1  0.31052000  0.06058300  0.59234100  1
  H  H19  1  0.68948000  0.43941700  0.09234100  1
  H  H20  1  0.49204000  0.93464400  0.36522600  1
  H  H21  1  0.50796000  0.56535600  0.86522600  1
  H  H22  1  0.50796000  0.06535600  0.63477400  1
  H  H23  1  0.49204000  0.43464400  0.13477400  1
  H  H24  1  0.62370400  0.31578000  0.31756400  1
  H  H25  1  0.37629600  0.18422000  0.81756400  1
  H  H26  1  0.37629600  0.68422000  0.68243600  1
  H  H27  1  0.62370400  0.81578000  0.18243600  1
  H  H28  1  0.88154300  0.35720000  0.33651400  1
  H  H29  1  0.11845700  0.14280000  0.83651400  1
  H  H30  1  0.11845700  0.64280000  0.66348600  1
  H  H31  1  0.88154300  0.85720000  0.16348600  1
  H  H32  1  0.91481000  0.86246000  0.29492500  1
  H  H33  1  0.08519000  0.63754000  0.79492500  1
  H  H34  1  0.08519000  0.13754000  0.70507500  1
  H  H35  1  0.91481000  0.36246000  0.20507500  1
  H  H36  1  0.91951600  0.66279100  0.27028200  1
  H  H37  1  0.08048400  0.83720900  0.77028200  1
  H  H38  1  0.08048400  0.33720900  0.72971800  1
  H  H39  1  0.91951600  0.16279100  0.22971800  1
  H  H40  1  0.04511000  0.73279800  0.40623300  1
  H  H41  1  0.95489000  0.76720200  0.90623300  1
  H  H42  1  0.95489000  0.26720200  0.59376700  1
  H  H43  1  0.04511000  0.23279800  0.09376700  1
  H  H44  1  0.93529200  0.54178200  0.42617600  1
  H  H45  1  0.06470800  0.95821800  0.92617600  1
  H  H46  1  0.06470800  0.45821800  0.57382400  1
  H  H47  1  0.93529200  0.04178200  0.07382400  1
  S  S0  1  0.21036300  0.14637300  0.31610000  1
  S  S1  1  0.78963700  0.35362700  0.81610000  1
  S  S2  1  0.78963700  0.85362700  0.68390000  1
  S  S3  1  0.21036300  0.64637300  0.18390000  1
  S  S4  1  0.74918200  0.21274700  0.47862700  1
  S  S5  1  0.25081800  0.28725300  0.97862700  1
  S  S6  1  0.25081800  0.78725300  0.52137300  1
  S  S7  1  0.74918200  0.71274700  0.02137300  1
  O  O0  1  0.04277700  0.05865800  0.27985300  1
  O  O1  1  0.95722300  0.44134200  0.77985300  1
  O  O2  1  0.95722300  0.94134200  0.72014700  1
  O  O3  1  0.04277700  0.55865800  0.22014700  1
  O  O4  1  0.13620300  0.31964600  0.33625400  1
  O  O5  1  0.86379700  0.18035400  0.83625400  1
  O  O6  1  0.86379700  0.68035400  0.66374600  1
  O  O7  1  0.13620300  0.81964600  0.16374600  1
  O  O8  1  0.24670200  0.02247000  0.36055300  1
  O  O9  1  0.75329800  0.47753000  0.86055300  1
  O  O10  1  0.75329800  0.97753000  0.63944700  1
  O  O11  1  0.24670200  0.52247000  0.13944700  1
  O  O12  1  0.41985300  0.18699100  0.28699300  1
  O  O13  1  0.58014700  0.31300900  0.78699300  1
  O  O14  1  0.58014700  0.81300900  0.71300700  1
  O  O15  1  0.41985300  0.68699100  0.21300700  1
  O  O16  1  0.73453300  0.21113700  0.53734700  1
  O  O17  1  0.26546700  0.28886300  0.03734700  1
  O  O18  1  0.26546700  0.78886300  0.46265300  1
  O  O19  1  0.73453300  0.71113700  0.96265300  1
  O  O20  1  0.53700400  0.26040100  0.45675300  1
  O  O21  1  0.46299600  0.23959900  0.95675300  1
  O  O22  1  0.46299600  0.73959900  0.54324700  1
  O  O23  1  0.53700400  0.76040100  0.04324700  1
  O  O24  1  0.79181600  0.02520100  0.46179000  1
  O  O25  1  0.20818400  0.47479900  0.96179000  1
  O  O26  1  0.20818400  0.97479900  0.53821000  1
  O  O27  1  0.79181600  0.52520100  0.03821000  1
  O  O28  1  0.93020800  0.34002100  0.46035900  1
  O  O29  1  0.06979200  0.15997900  0.96035900  1
  O  O30  1  0.06979200  0.65997900  0.53964100  1
  O  O31  1  0.93020800  0.84002100  0.03964100  1
  O  O32  1  0.41880500  0.62295600  0.31314300  1
  O  O33  1  0.58119500  0.87704400  0.81314300  1
  O  O34  1  0.58119500  0.37704400  0.68685700  1
  O  O35  1  0.41880500  0.12295600  0.18685700  1
  O  O36  1  0.49940700  0.56064900  0.41178700  1
  O  O37  1  0.50059300  0.93935100  0.91178700  1
  O  O38  1  0.50059300  0.43935100  0.58821300  1
  O  O39  1  0.49940700  0.06064900  0.08821300  1
  O  O40  1  0.63523000  0.88577100  0.37315500  1
  O  O41  1  0.36477000  0.61422900  0.87315500  1
  O  O42  1  0.36477000  0.11422900  0.62684500  1
  O  O43  1  0.63523000  0.38577100  0.12684400  1
  O  O44  1  0.73075700  0.40110800  0.33631200  1
  O  O45  1  0.26924300  0.09889200  0.83631200  1
  O  O46  1  0.26924300  0.59889200  0.66368800  1
  O  O47  1  0.73075700  0.90110800  0.16368800  1
  O  O48  1  0.84619600  0.73532900  0.29701700  1
  O  O49  1  0.15380400  0.76467100  0.79701700  1
  O  O50  1  0.15380400  0.26467100  0.70298300  1
  O  O51  1  0.84619600  0.23532900  0.20298300  1
  O  O52  1  0.92858600  0.63904400  0.39912500  1
  O  O53  1  0.07141400  0.86095600  0.89912500  1
  O  O54  1  0.07141400  0.36095600  0.60087500  1
  O  O55  1  0.92858600  0.13904400  0.10087500  1
loop_
_geom_bond_atom_site_label_1
_geom_bond_atom_site_label_2
_geom_bond_distance
_geom_bond_site_symmetry_2
Na0 O20 2.296956 1_555
Na0 O8 2.372860 1_555
Na0 O28 2.468521 1_455
Na0 O18 2.508280 1_545
Na0 O26 2.510644 1_545
Na0 O24 2.552750 1_455
Na1 O21 2.296956 1_555
Na1 O9 2.372860 1_555
Na1 O29 2.468521 1_655
Na1 O19 2.508280 1_555
Na1 O27 2.510644 1_556
Na1 O25 2.552750 1_655
Na2 O22 2.296956 1_555
Na2 O10 2.372860 1_555
Na2 O30 2.468521 1_655
Na2 O16 2.508280 1_565
Na2 O24 2.510644 1_565
Na2 O26 2.552750 1_655
Na3 O23 2.296956 1_555
Na3 O11 2.372860 1_555
Na3 O31 2.468521 1_455
Na3 O17 2.508280 1_555
Na3 O25 2.510644 1_554
Na3 O27 2.552750 1_455
Al0 O36 1.892041 1_555
Al0 O48 1.902687 1_555
Al0 O32 1.905322 1_555
Al0 O44 1.907049 1_555
Al0 O40 1.911056 1_555
Al0 O52 1.927525 1_555
Al1 O37 1.892041 1_555
Al1 O49 1.902687 1_555
Al1 O33 1.905322 1_555
Al1 O45 1.907049 1_565
Al1 O41 1.911056 1_555
Al1 O53 1.927525 1_555
Al2 O38 1.892041 1_555
Al2 O50 1.902687 1_555
Al2 O34 1.905322 1_555
Al2 O46 1.907049 1_555
Al2 O42 1.911056 1_555
Al2 O54 1.927525 1_555
Al3 O39 1.892041 1_555
Al3 O51 1.902687 1_555
Al3 O35 1.905322 1_555
Al3 O47 1.907049 1_545
Al3 O43 1.911063 1_555
Al3 O55 1.927525 1_555
H0 O32 0.995807 1_555
H1 O33 0.995807 1_555
H2 O34 0.995807 1_555
H3 O35 0.995807 1_555
H4 O32 1.013550 1_555
H4 O15 1.585803 1_555
H5 O33 1.013550 1_555
H5 O14 1.585803 1_555
H6 O34 1.013550 1_555
H6 O13 1.585803 1_555
H7 O35 1.013550 1_555
H7 O12 1.585803 1_555
H8 O36 1.002941 1_555
H8 O18 1.658932 1_555
H9 O37 1.002941 1_555
H9 O19 1.658932 1_555
H10 O38 1.002941 1_555
H10 O16 1.658932 1_555
H11 O39 1.002941 1_555
H11 O17 1.658932 1_555
H12 O36 1.015402 1_555
H12 O20 1.524233 1_555
H13 O37 1.015402 1_545
H13 O21 1.524233 1_555
H14 O38 1.015402 1_555
H14 O22 1.524233 1_555
H15 O39 1.015402 1_565
H15 O23 1.524233 1_555
H16 O40 1.012222 1_555
H16 O24 1.627228 1_565
H17 O41 1.012222 1_555
H17 O25 1.627228 1_555
H18 O42 1.012222 1_555
H18 O26 1.627228 1_545
H19 O43 1.012200 1_555
H19 O27 1.627228 1_555
H20 O40 1.002879 1_555
H20 O8 1.700860 1_565
H21 O41 1.002879 1_555
H21 O9 1.700860 1_555
H22 O42 1.002879 1_555
H22 O10 1.700860 1_545
H23 O43 1.002884 1_555
H23 O11 1.700860 1_555
H24 O44 0.999825 1_555
H24 O12 1.706403 1_555
H25 O45 0.999825 1_555
H25 O13 1.706403 1_555
H26 O46 0.999825 1_555
H26 O14 1.706403 1_555
H27 O47 0.999825 1_555
H27 O15 1.706403 1_555
H28 O44 1.010723 1_555
H28 O4 1.618030 1_655
H29 O45 1.010723 1_555
H29 O5 1.618030 1_455
H30 O46 1.010723 1_555
H30 O6 1.618030 1_455
H31 O47 1.010723 1_555
H31 O7 1.618030 1_655
H32 O48 1.005497 1_555
H32 O0 1.647192 1_665
H33 O49 1.005497 1_555
H33 O1 1.647192 1_455
H34 O50 1.005497 1_555
H34 O2 1.647192 1_445
H35 O51 1.005497 1_555
H35 O3 1.647192 1_655
H36 O48 1.000379 1_555
H36 O3 1.706002 1_655
H37 O49 1.000379 1_555
H37 O2 1.706002 1_455
H38 O50 1.000379 1_555
H38 O1 1.706002 1_455
H39 O51 1.000379 1_555
H39 O0 1.706002 1_655
H40 O52 0.976944 1_455
H41 O53 0.976944 1_655
H42 O54 0.976944 1_655
H43 O55 0.976944 1_455
H44 O52 1.003149 1_555
H44 O28 1.733778 1_555
H45 O53 1.003149 1_555
H45 O29 1.733778 1_565
H46 O54 1.003149 1_555
H46 O30 1.733778 1_555
H47 O55 1.003149 1_555
H47 O31 1.733778 1_545
O0 S0 1.496766 1_555
O1 S1 1.496766 1_555
O2 S2 1.496766 1_555
O3 S3 1.496766 1_555
O4 S0 1.493524 1_555
O5 S1 1.493524 1_555
O6 S2 1.493524 1_555
O7 S3 1.493524 1_555
O8 S0 1.489853 1_555
O9 S1 1.489853 1_555
O10 S2 1.489853 1_555
O11 S3 1.489853 1_555
O12 S0 1.499944 1_555
O13 S1 1.499944 1_555
O14 S2 1.499944 1_555
O15 S3 1.499944 1_555
O16 S4 1.500991 1_555
O17 S5 1.500991 1_554
O18 S6 1.500991 1_555
O19 S7 1.500991 1_556
O20 S4 1.492070 1_555
O21 S5 1.492070 1_555
O22 S6 1.492070 1_555
O23 S7 1.492070 1_555
O24 S4 1.503074 1_555
O25 S5 1.503074 1_555
O26 S6 1.503074 1_555
O27 S7 1.503074 1_555
O28 S4 1.479446 1_555
O29 S5 1.479446 1_555
O30 S6 1.479446 1_555
O31 S7 1.479446 1_555
