# generated using pymatgen
data_Li3Mn3CrO8
_symmetry_space_group_name_H-M   'P 1'
_cell_length_a   5.93908070
_cell_length_b   5.93908070
_cell_length_c   6.06381765
_cell_angle_alpha   59.55700120
_cell_angle_beta   59.55700120
_cell_angle_gamma   60.02557051
_symmetry_Int_Tables_number   1
_chemical_formula_structural   Li3Mn3CrO8
_chemical_formula_sum   'Li3 Mn3 Cr1 O8'
_cell_volume   150.24900677
_cell_formula_units_Z   1
loop_
 _symmetry_equiv_pos_site_id
 _symmetry_equiv_pos_as_xyz
  1  'x, y, z'
loop_
 _atom_site_type_symbol
 _atom_site_label
 _atom_site_symmetry_multiplicity
 _atom_site_fract_x
 _atom_site_fract_y
 _atom_site_fract_z
 _atom_site_occupancy
  Li  Li0  1  0.00000000  0.00000000  0.00000000  1
  Li  Li1  1  0.50000000  0.00000000  0.00000000  1
  Li  Li2  1  0.00000000  0.50000000  0.00000000  1
  Mn  Mn0  1  0.50000000  0.50000000  0.50000000  1
  Mn  Mn1  1  0.00000000  0.50000000  0.50000000  1
  Mn  Mn2  1  0.50000000  0.00000000  0.50000000  1
  Cr  Cr0  1  0.00000000  0.00000000  0.50000000  1
  O  O0  1  0.73389100  0.73389100  0.25449900  1
  O  O1  1  0.23869600  0.23869600  0.30171200  1
  O  O2  1  0.73122200  0.24461300  0.29390000  1
  O  O3  1  0.26610900  0.26610900  0.74550100  1
  O  O4  1  0.24461300  0.73122200  0.29390000  1
  O  O5  1  0.76130400  0.76130400  0.69828800  1
  O  O6  1  0.26877800  0.75538700  0.70610000  1
  O  O7  1  0.75538700  0.26877800  0.70610000  1
loop_
_geom_bond_atom_site_label_1
_geom_bond_atom_site_label_2
_geom_bond_distance
_geom_bond_site_symmetry_2
Li0 O3 2.220332 1_554
Li0 O0 2.220332 1_445
Li0 O6 2.293107 1_544
Li0 O2 2.293107 1_455
Li0 O4 2.293107 1_545
Li0 O7 2.293107 1_454
Li1 O0 2.077508 1_545
Li1 O3 2.077508 1_554
Li1 O4 2.195917 1_545
Li1 O7 2.195917 1_554
Li1 O5 2.306078 1_544
Li1 O1 2.306078 1_555
Li2 O0 2.077508 1_455
Li2 O3 2.077508 1_554
Li2 O2 2.195917 1_455
Li2 O6 2.195917 1_554
Li2 O5 2.306078 1_454
Li2 O1 2.306078 1_555
Mn0 O0 1.952523 1_555
Mn0 O3 1.952523 1_555
Mn0 O7 1.961820 1_555
Mn0 O6 1.961820 1_555
Mn0 O2 1.961820 1_555
Mn0 O4 1.961820 1_555
Mn1 O5 1.956806 1_455
Mn1 O1 1.956806 1_555
Mn1 O7 1.993164 1_455
Mn1 O4 1.993164 1_555
Mn1 O3 2.176811 1_555
Mn1 O0 2.176811 1_455
Mn2 O5 1.956806 1_545
Mn2 O1 1.956806 1_555
Mn2 O6 1.993164 1_545
Mn2 O2 1.993164 1_555
Mn2 O3 2.176811 1_555
Mn2 O0 2.176811 1_545
Cr0 O1 2.004646 1_555
Cr0 O5 2.004646 1_445
Cr0 O7 2.021160 1_455
Cr0 O2 2.021160 1_455
Cr0 O6 2.021160 1_545
Cr0 O4 2.021160 1_545
