# generated using pymatgen
data_Nd15Si7Ni2
_symmetry_space_group_name_H-M   'P 1'
_cell_length_a   21.61958100
_cell_length_b   21.59619693
_cell_length_c   7.77304625
_cell_angle_alpha   79.80765010
_cell_angle_beta   79.46853979
_cell_angle_gamma   20.72381011
_symmetry_Int_Tables_number   1
_chemical_formula_structural   Nd15Si7Ni2
_chemical_formula_sum   'Nd30 Si14 Ni4'
_cell_volume   1262.43436954
_cell_formula_units_Z   2
loop_
 _symmetry_equiv_pos_site_id
 _symmetry_equiv_pos_as_xyz
  1  'x, y, z'
loop_
 _atom_site_type_symbol
 _atom_site_label
 _atom_site_symmetry_multiplicity
 _atom_site_fract_x
 _atom_site_fract_y
 _atom_site_fract_z
 _atom_site_occupancy
  Nd  Nd0  1  0.83224300  0.16775700  0.33418400  1
  Nd  Nd1  1  0.48695100  0.84587300  0.67384200  1
  Nd  Nd2  1  0.15412700  0.51304900  0.00666700  1
  Nd  Nd3  1  0.67384200  0.99333300  0.48695100  1
  Nd  Nd4  1  0.33418400  0.66581600  0.83224300  1
  Nd  Nd5  1  0.00666700  0.32615800  0.15412700  1
  Nd  Nd6  1  0.04503100  0.72057400  0.27942600  1
  Nd  Nd7  1  0.70771000  0.39072600  0.60927400  1
  Nd  Nd8  1  0.37619100  0.05552700  0.94447300  1
  Nd  Nd9  1  0.39077600  0.37486400  0.62513600  1
  Nd  Nd10  1  0.05702600  0.04037700  0.95962300  1
  Nd  Nd11  1  0.72670000  0.70396800  0.29603200  1
  Nd  Nd12  1  0.54341200  0.22246000  0.12163600  1
  Nd  Nd13  1  0.21223900  0.88039400  0.45327100  1
  Nd  Nd14  1  0.87466300  0.55593100  0.79016600  1
  Nd  Nd15  1  0.88750800  0.87836400  0.77754000  1
  Nd  Nd16  1  0.54590400  0.54672900  0.11960600  1
  Nd  Nd17  1  0.22076000  0.20983400  0.44406900  1
  Nd  Nd18  1  0.95962300  0.94297400  0.05702600  1
  Nd  Nd19  1  0.62513600  0.60922400  0.39077600  1
  Nd  Nd20  1  0.29603200  0.27330000  0.72670000  1
  Nd  Nd21  1  0.60927400  0.29229000  0.70771000  1
  Nd  Nd22  1  0.27942600  0.95496900  0.04503100  1
  Nd  Nd23  1  0.94447300  0.62380900  0.37619100  1
  Nd  Nd24  1  0.45327100  0.45409600  0.21223900  1
  Nd  Nd25  1  0.12163600  0.11249200  0.54341200  1
  Nd  Nd26  1  0.79016600  0.77924000  0.87466300  1
  Nd  Nd27  1  0.11960600  0.78776100  0.54590400  1
  Nd  Nd28  1  0.77754000  0.45658800  0.88750800  1
  Nd  Nd29  1  0.44406900  0.12533700  0.22076000  1
  Si  Si0  1  0.25098400  0.58307500  0.91781900  1
  Si  Si1  1  0.91781900  0.24812200  0.25098400  1
  Si  Si2  1  0.58520400  0.91479600  0.58520400  1
  Si  Si3  1  0.75187800  0.08218100  0.41692500  1
  Si  Si4  1  0.41692500  0.74901600  0.75187800  1
  Si  Si5  1  0.08520400  0.41479600  0.08520400  1
  Si  Si6  1  0.88394700  0.44892200  0.55107800  1
  Si  Si7  1  0.55107800  0.11605300  0.88394700  1
  Si  Si8  1  0.94743000  0.05257000  0.71843500  1
  Si  Si9  1  0.61778200  0.71597300  0.05428900  1
  Si  Si10  1  0.28402700  0.38221800  0.38804400  1
  Si  Si11  1  0.71843500  0.28156500  0.94743000  1
  Si  Si12  1  0.38804400  0.94571100  0.28402700  1
  Si  Si13  1  0.05428900  0.61195600  0.61778200  1
  Ni  Ni0  1  0.77522600  0.89121700  0.10878300  1
  Ni  Ni1  1  0.45395500  0.54604500  0.45395500  1
  Ni  Ni2  1  0.10878300  0.22477400  0.77522600  1
  Ni  Ni3  1  0.21281100  0.78718900  0.21281100  1
loop_
_geom_bond_atom_site_label_1
_geom_bond_atom_site_label_2
_geom_bond_distance
_geom_bond_site_symmetry_2
Nd0 Ni1 3.069431 1_555
Nd0 Ni3 3.089904 1_645
Nd0 Si8 3.132426 1_555
Nd0 Si11 3.147875 1_554
Nd0 Si3 3.467753 1_555
Nd0 Si1 3.467753 1_555
Nd1 Ni2 3.034048 1_565
Nd1 Si12 3.136002 1_555
Nd1 Si9 3.145510 1_556
Nd1 Si6 3.214543 1_555
Nd1 Si4 3.489170 1_555
Nd1 Si2 3.495560 1_555
Nd2 Ni0 3.034046 1_455
Nd2 Si13 3.136010 1_554
Nd2 Si10 3.145502 1_555
Nd2 Si7 3.214545 1_554
Nd2 Si0 3.489170 1_554
Nd2 Si5 3.495560 1_555
Nd3 Ni0 3.034043 1_555
Nd3 Si10 3.136005 1_565
Nd3 Si13 3.145507 1_655
Nd3 Si7 3.214548 1_565
Nd3 Si3 3.489191 1_565
Nd3 Si2 3.495539 1_555
Nd4 Ni1 3.069431 1_555
Nd4 Ni3 3.089904 1_556
Nd4 Si11 3.132426 1_555
Nd4 Si8 3.147875 1_465
Nd4 Si0 3.467753 1_555
Nd4 Si4 3.467753 1_555
Nd5 Ni2 3.034051 1_554
Nd5 Si9 3.136007 1_455
Nd5 Si12 3.145504 1_545
Nd5 Si6 3.214540 1_455
Nd5 Si1 3.489191 1_455
Nd5 Si5 3.495539 1_555
Nd6 Si13 3.096855 1_555
Nd6 Si10 3.096855 1_555
Nd6 Si0 3.192204 1_554
Nd6 Si3 3.192204 1_465
Nd6 Ni0 3.201975 1_455
Nd7 Ni1 3.061265 1_555
Nd7 Si11 3.086694 1_555
Nd7 Si8 3.086694 1_555
Nd7 Si4 3.180754 1_555
Nd7 Si1 3.180754 1_555
Nd8 Si9 3.090562 1_546
Nd8 Si12 3.090562 1_546
Nd8 Ni2 3.172413 1_555
Nd8 Si2 3.186802 1_545
Nd8 Si5 3.186802 1_556
Nd9 Si13 3.084383 1_555
Nd9 Si10 3.084383 1_555
Nd9 Si7 3.103707 1_555
Nd9 Si0 3.196092 1_555
Nd9 Si3 3.196092 1_555
Nd10 Ni3 3.046385 1_546
Nd10 Si8 3.078999 1_455
Nd10 Si11 3.078999 1_455
Nd10 Si4 3.187805 1_545
Nd10 Si1 3.187805 1_456
Nd11 Si6 3.065610 1_555
Nd11 Si9 3.073455 1_555
Nd11 Si12 3.073455 1_555
Nd11 Si2 3.192992 1_555
Nd11 Si5 3.192992 1_655
Nd12 Ni0 3.050723 1_545
Nd12 Si7 3.065930 1_554
Nd12 Si10 3.119427 1_555
Nd12 Si0 3.213198 1_554
Nd12 Si3 3.246344 1_555
Nd13 Ni3 2.970161 1_555
Nd13 Ni1 2.976418 1_555
Nd13 Si8 3.070623 1_465
Nd13 Si1 3.276871 1_465
Nd13 Si4 3.310264 1_555
Nd14 Ni2 3.024180 1_655
Nd14 Si6 3.057890 1_555
Nd14 Si9 3.072651 1_556
Nd14 Si2 3.211801 1_555
Nd14 Si5 3.264718 1_656
Nd15 Ni0 3.050723 1_556
Nd15 Si7 3.065930 1_565
Nd15 Si13 3.119427 1_655
Nd15 Si3 3.213198 1_565
Nd15 Si0 3.246344 1_655
Nd16 Ni3 2.970161 1_555
Nd16 Ni1 2.976418 1_555
Nd16 Si11 3.070623 1_554
Nd16 Si4 3.276871 1_554
Nd16 Si1 3.310264 1_555
Nd17 Ni2 3.024180 1_555
Nd17 Si6 3.057890 1_455
Nd17 Si12 3.072651 1_545
Nd17 Si5 3.211801 1_555
Nd17 Si2 3.264718 1_545
Nd18 Ni3 3.046385 1_655
Nd18 Si8 3.078999 1_564
Nd18 Si11 3.078999 1_564
Nd18 Si3 3.187805 1_565
Nd18 Si0 3.187805 1_654
Nd19 Si12 3.084383 1_555
Nd19 Si9 3.084383 1_555
Nd19 Si6 3.103707 1_555
Nd19 Si1 3.196092 1_555
Nd19 Si4 3.196092 1_555
Nd20 Si7 3.065610 1_555
Nd20 Si10 3.073455 1_555
Nd20 Si13 3.073455 1_555
Nd20 Si2 3.192992 1_545
Nd20 Si5 3.192992 1_556
Nd21 Ni1 3.061265 1_555
Nd21 Si8 3.086694 1_555
Nd21 Si11 3.086694 1_555
Nd21 Si3 3.180754 1_555
Nd21 Si0 3.180754 1_555
Nd22 Si12 3.096855 1_555
Nd22 Si9 3.096855 1_555
Nd22 Si4 3.192204 1_554
Nd22 Si1 3.192204 1_465
Nd22 Ni2 3.201975 1_564
Nd23 Si10 3.090562 1_655
Nd23 Si13 3.090562 1_655
Nd23 Ni0 3.172413 1_555
Nd23 Si5 3.186802 1_655
Nd23 Si2 3.186802 1_555
Nd24 Ni3 2.970161 1_555
Nd24 Ni1 2.976418 1_555
Nd24 Si11 3.070623 1_554
Nd24 Si0 3.276871 1_554
Nd24 Si3 3.310264 1_555
Nd25 Ni2 3.050723 1_555
Nd25 Si6 3.065930 1_455
Nd25 Si12 3.119427 1_545
Nd25 Si1 3.213198 1_455
Nd25 Si4 3.246344 1_545
Nd26 Ni0 3.024180 1_556
Nd26 Si7 3.057890 1_565
Nd26 Si13 3.072651 1_655
Nd26 Si2 3.211801 1_555
Nd26 Si5 3.264718 1_656
Nd27 Ni3 2.970161 1_555
Nd27 Ni1 2.976418 1_555
Nd27 Si8 3.070623 1_465
Nd27 Si3 3.276871 1_465
Nd27 Si0 3.310264 1_555
Nd28 Ni2 3.050723 1_655
Nd28 Si6 3.065930 1_555
Nd28 Si9 3.119427 1_556
Nd28 Si4 3.213198 1_555
Nd28 Si1 3.246344 1_556
Nd29 Ni0 3.024180 1_545
Nd29 Si7 3.057890 1_554
Nd29 Si10 3.072651 1_555
Nd29 Si5 3.211801 1_555
Nd29 Si2 3.264718 1_545
Si10 Si13 2.504243 1_555
Si11 Si8 2.496144 1_555
Si12 Si9 2.504243 1_555
Ni0 Si7 2.488377 1_564
Ni1 Ni3 2.672911 1_555
Ni2 Si6 2.488377 1_455
