# generated using pymatgen
data_CaMg6Cr
_symmetry_space_group_name_H-M   'P 1'
_cell_length_a   5.18803500
_cell_length_b   6.50713600
_cell_length_c   11.29941600
_cell_angle_alpha   90.00000000
_cell_angle_beta   90.00000000
_cell_angle_gamma   90.00000000
_symmetry_Int_Tables_number   1
_chemical_formula_structural   CaMg6Cr
_chemical_formula_sum   'Ca2 Mg12 Cr2'
_cell_volume   381.45980189
_cell_formula_units_Z   2
loop_
 _symmetry_equiv_pos_site_id
 _symmetry_equiv_pos_as_xyz
  1  'x, y, z'
loop_
 _atom_site_type_symbol
 _atom_site_label
 _atom_site_symmetry_multiplicity
 _atom_site_fract_x
 _atom_site_fract_y
 _atom_site_fract_z
 _atom_site_occupancy
  Ca  Ca0  1  0.50000000  0.00000000  0.16622800  1
  Ca  Ca1  1  0.50000000  0.50000000  0.66622800  1
  Mg  Mg0  1  0.50000000  0.24633700  0.41802600  1
  Mg  Mg1  1  0.50000000  0.75366300  0.41802600  1
  Mg  Mg2  1  0.00000000  0.73648600  0.08332800  1
  Mg  Mg3  1  0.00000000  0.26351400  0.08332800  1
  Mg  Mg4  1  0.00000000  0.00000000  0.33733000  1
  Mg  Mg5  1  0.00000000  0.50000000  0.32841400  1
  Mg  Mg6  1  0.50000000  0.74633700  0.91802600  1
  Mg  Mg7  1  0.50000000  0.25366300  0.91802600  1
  Mg  Mg8  1  0.00000000  0.23648600  0.58332800  1
  Mg  Mg9  1  0.00000000  0.76351400  0.58332800  1
  Mg  Mg10  1  0.00000000  0.50000000  0.83733000  1
  Mg  Mg11  1  0.00000000  0.00000000  0.82841400  1
  Cr  Cr0  1  0.50000000  0.50000000  0.16531500  1
  Cr  Cr1  1  0.50000000  0.00000000  0.66531500  1
loop_
_geom_bond_atom_site_label_1
_geom_bond_atom_site_label_2
_geom_bond_distance
_geom_bond_site_symmetry_2
Ca0 Mg4 3.235240 1_555
Ca0 Mg4 3.235240 1_655
Ca0 Mg3 3.247560 1_655
Ca0 Mg3 3.247560 1_555
Ca0 Mg2 3.247560 1_645
Ca0 Mg2 3.247560 1_545
Ca0 Cr0 3.253584 1_555
Ca0 Cr0 3.253584 1_545
Ca0 Mg7 3.254224 1_554
Ca0 Mg6 3.254224 1_544
Ca0 Mg1 3.265645 1_545
Ca0 Mg0 3.265645 1_555
Ca1 Mg10 3.235240 1_555
Ca1 Mg10 3.235240 1_655
Ca1 Mg9 3.247560 1_655
Ca1 Mg9 3.247560 1_555
Ca1 Mg8 3.247560 1_655
Ca1 Mg8 3.247560 1_555
Ca1 Cr1 3.253584 1_555
Ca1 Cr1 3.253584 1_565
Ca1 Mg1 3.254224 1_555
Ca1 Mg0 3.254224 1_555
Ca1 Mg6 3.265645 1_555
Ca1 Mg7 3.265645 1_555
Mg0 Mg4 3.182732 1_655
Mg0 Mg4 3.182732 1_555
Mg0 Mg8 3.197151 1_555
Mg0 Mg8 3.197151 1_655
Mg0 Mg1 3.205897 1_545
Mg0 Mg5 3.237091 1_555
Mg0 Mg5 3.237091 1_655
Mg0 Mg1 3.301239 1_555
Mg1 Mg4 3.182732 1_665
Mg1 Mg4 3.182732 1_565
Mg1 Mg9 3.197151 1_555
Mg1 Mg9 3.197151 1_655
Mg1 Mg5 3.237091 1_555
Mg1 Mg5 3.237091 1_655
Mg2 Mg3 3.077693 1_555
Mg2 Mg5 3.168159 1_555
Mg2 Mg6 3.197151 1_554
Mg2 Mg6 3.197151 1_454
Mg2 Mg4 3.343291 1_565
Mg2 Mg3 3.429443 1_565
Mg3 Mg5 3.168159 1_555
Mg3 Mg7 3.197151 1_454
Mg3 Mg7 3.197151 1_554
Mg3 Mg4 3.343291 1_555
Mg4 Mg8 3.177171 1_555
Mg4 Mg9 3.177171 1_545
Mg4 Mg5 3.255127 1_545
Mg4 Mg5 3.255127 1_555
Mg5 Mg9 3.352142 1_555
Mg5 Mg8 3.352142 1_555
Mg6 Mg7 3.205897 1_555
Mg6 Mg7 3.301239 1_565
Mg8 Mg9 3.077693 1_545
Mg8 Mg9 3.429443 1_555
Mg10 Mg2 3.177171 1_556
Mg10 Mg3 3.177171 1_556
Mg10 Mg6 3.182732 1_455
Mg10 Mg6 3.182732 1_555
Mg10 Mg7 3.182732 1_555
Mg10 Mg7 3.182732 1_455
Mg10 Mg11 3.255127 1_565
Mg10 Mg11 3.255127 1_555
Mg10 Mg9 3.343291 1_555
Mg10 Mg8 3.343291 1_555
Mg11 Mg8 3.168159 1_555
Mg11 Mg9 3.168159 1_545
Mg11 Mg7 3.237091 1_555
Mg11 Mg7 3.237091 1_455
Mg11 Mg6 3.237091 1_445
Mg11 Mg6 3.237091 1_545
Mg11 Mg3 3.352142 1_556
Mg11 Mg2 3.352142 1_546
Cr0 Mg2 3.155187 1_555
Cr0 Mg2 3.155187 1_655
Cr0 Mg3 3.155187 1_555
Cr0 Mg3 3.155187 1_655
Cr0 Mg5 3.182027 1_655
Cr0 Mg5 3.182027 1_555
Cr0 Mg6 3.221353 1_554
Cr0 Mg7 3.221353 1_554
Cr0 Mg0 3.298234 1_555
Cr0 Mg1 3.298234 1_555
Cr1 Mg8 3.155187 1_555
Cr1 Mg8 3.155187 1_655
Cr1 Mg9 3.155187 1_645
Cr1 Mg9 3.155187 1_545
Cr1 Mg11 3.182027 1_655
Cr1 Mg11 3.182027 1_555
Cr1 Mg0 3.221353 1_555
Cr1 Mg1 3.221353 1_545
Cr1 Mg7 3.298234 1_555
Cr1 Mg6 3.298234 1_545
