# generated using pymatgen
data_Ba4Sr4Co3(CuO4)5
_symmetry_space_group_name_H-M   'P 1'
_cell_length_a   11.25364612
_cell_length_b   11.19708276
_cell_length_c   17.90599085
_cell_angle_alpha   107.88580156
_cell_angle_beta   108.13737648
_cell_angle_gamma   90.47077428
_symmetry_Int_Tables_number   1
_chemical_formula_structural   Ba4Sr4Co3(CuO4)5
_chemical_formula_sum   'Ba16 Sr16 Co12 Cu20 O80'
_cell_volume   2027.07113002
_cell_formula_units_Z   4
loop_
 _symmetry_equiv_pos_site_id
 _symmetry_equiv_pos_as_xyz
  1  'x, y, z'
loop_
 _atom_site_type_symbol
 _atom_site_label
 _atom_site_symmetry_multiplicity
 _atom_site_fract_x
 _atom_site_fract_y
 _atom_site_fract_z
 _atom_site_occupancy
  Ba  Ba0  1  0.30385900  0.05255000  0.11883300  1
  Ba  Ba1  1  0.30060200  0.06108100  0.61964900  1
  Ba  Ba2  1  0.30917800  0.55556400  0.11767900  1
  Ba  Ba3  1  0.80732600  0.05690900  0.11866900  1
  Ba  Ba4  1  0.80428200  0.55199300  0.11723700  1
  Ba  Ba5  1  0.18419900  0.94931200  0.38484000  1
  Ba  Ba6  1  0.18277700  0.94363200  0.87683900  1
  Ba  Ba7  1  0.68416000  0.43679900  0.87432700  1
  Ba  Ba8  1  0.05377600  0.31283600  0.12045400  1
  Ba  Ba9  1  0.05871300  0.81112500  0.11650600  1
  Ba  Ba10  1  0.55858000  0.31743600  0.12204700  1
  Ba  Ba11  1  0.55286400  0.80981100  0.11745700  1
  Ba  Ba12  1  0.43646900  0.68738400  0.38062400  1
  Ba  Ba13  1  0.43597400  0.68811900  0.87577300  1
  Ba  Ba14  1  0.93824800  0.68696500  0.38316800  1
  Ba  Ba15  1  0.93227700  0.68757900  0.87379000  1
  Sr  Sr0  1  0.30621100  0.54701500  0.60997300  1
  Sr  Sr1  1  0.80735700  0.06054900  0.61282600  1
  Sr  Sr2  1  0.80236700  0.55794500  0.61149200  1
  Sr  Sr3  1  0.19409300  0.44232700  0.39122900  1
  Sr  Sr4  1  0.19189000  0.43631500  0.88419900  1
  Sr  Sr5  1  0.69414800  0.44763400  0.39124200  1
  Sr  Sr6  1  0.69603600  0.95166500  0.39139700  1
  Sr  Sr7  1  0.69280700  0.94615800  0.88416600  1
  Sr  Sr8  1  0.05466600  0.30590400  0.60985100  1
  Sr  Sr9  1  0.05004900  0.79975900  0.60924400  1
  Sr  Sr10  1  0.55474700  0.31068300  0.61294900  1
  Sr  Sr11  1  0.55218300  0.80120900  0.61001400  1
  Sr  Sr12  1  0.44310500  0.19756300  0.39139300  1
  Sr  Sr13  1  0.43872800  0.19400900  0.88775600  1
  Sr  Sr14  1  0.94489100  0.19324000  0.39248200  1
  Sr  Sr15  1  0.94320400  0.19211500  0.88720200  1
  Co  Co0  1  0.99109900  0.99649200  0.99065700  1
  Co  Co1  1  0.99476500  0.49471400  0.99041700  1
  Co  Co2  1  0.49459600  0.99891300  0.99173900  1
  Co  Co3  1  0.50167100  0.00510200  0.50382700  1
  Co  Co4  1  0.48958400  0.49094400  0.98521600  1
  Co  Co5  1  0.49971400  0.49894800  0.50240700  1
  Co  Co6  1  0.23865400  0.74078700  0.98365900  1
  Co  Co7  1  0.24804100  0.75518900  0.50616500  1
  Co  Co8  1  0.74086700  0.24205400  0.98627600  1
  Co  Co9  1  0.75363000  0.25126100  0.50258500  1
  Co  Co10  1  0.74410200  0.74789800  0.99528000  1
  Co  Co11  1  0.75107100  0.75186700  0.50309800  1
  Cu  Cu0  1  0.99777800  0.00276500  0.50416400  1
  Cu  Cu1  1  0.00212000  0.49968000  0.50274200  1
  Cu  Cu2  1  0.24541100  0.24687200  0.99548400  1
  Cu  Cu3  1  0.25004500  0.25168500  0.50239700  1
  Cu  Cu4  1  0.12013700  0.11157400  0.25330900  1
  Cu  Cu5  1  0.11021300  0.10247900  0.74672500  1
  Cu  Cu6  1  0.12290300  0.60412700  0.25340500  1
  Cu  Cu7  1  0.11598300  0.59238500  0.74290800  1
  Cu  Cu8  1  0.62264500  0.11250300  0.25663400  1
  Cu  Cu9  1  0.61786100  0.09622100  0.74682400  1
  Cu  Cu10  1  0.62467900  0.61219800  0.25861300  1
  Cu  Cu11  1  0.61700300  0.60720900  0.74546900  1
  Cu  Cu12  1  0.37222000  0.38893100  0.25425000  1
  Cu  Cu13  1  0.36333300  0.39366500  0.74721300  1
  Cu  Cu14  1  0.37733000  0.90588200  0.26187600  1
  Cu  Cu15  1  0.36749500  0.90009300  0.74804500  1
  Cu  Cu16  1  0.87343700  0.39284700  0.26041300  1
  Cu  Cu17  1  0.86862600  0.39050800  0.74457600  1
  Cu  Cu18  1  0.86574300  0.89927700  0.25310100  1
  Cu  Cu19  1  0.85880500  0.90186000  0.74661200  1
  O  O0  1  0.12083500  0.13205600  0.49856200  1
  O  O1  1  0.11055800  0.11691000  0.99452800  1
  O  O2  1  0.13774500  0.62886200  0.49973200  1
  O  O3  1  0.12785300  0.62691800  0.98990500  1
  O  O4  1  0.62796900  0.13824000  0.49699500  1
  O  O5  1  0.62639500  0.12899000  0.98923200  1
  O  O6  1  0.62967500  0.63563000  0.49866300  1
  O  O7  1  0.61205500  0.61547600  0.99295300  1
  O  O8  1  0.11126700  0.38022500  0.99684300  1
  O  O9  1  0.12650100  0.37657900  0.50460000  1
  O  O10  1  0.11994000  0.87000300  0.99691200  1
  O  O11  1  0.11910100  0.87654800  0.50966400  1
  O  O12  1  0.62011900  0.36847900  0.99643200  1
  O  O13  1  0.61996600  0.39126300  0.50678400  1
  O  O14  1  0.61232000  0.88386200  0.99778500  1
  O  O15  1  0.61939500  0.89279700  0.51089300  1
  O  O16  1  0.38354200  0.11990100  0.50028800  1
  O  O17  1  0.38052100  0.11513700  0.99519300  1
  O  O18  1  0.38319100  0.60900300  0.49698200  1
  O  O19  1  0.36395000  0.61781800  0.98956100  1
  O  O20  1  0.87030200  0.12070400  0.49597900  1
  O  O21  1  0.86544400  0.12224800  0.99296100  1
  O  O22  1  0.87180500  0.61987000  0.49930000  1
  O  O23  1  0.87737400  0.61016400  0.99242800  1
  O  O24  1  0.37611400  0.38032200  0.99766300  1
  O  O25  1  0.37840100  0.37400600  0.50651300  1
  O  O26  1  0.35820100  0.86254000  0.99609700  1
  O  O27  1  0.36934100  0.86873400  0.50815800  1
  O  O28  1  0.86093200  0.36270400  0.99670400  1
  O  O29  1  0.86746300  0.37367700  0.50814300  1
  O  O30  1  0.87460100  0.88061400  0.99763400  1
  O  O31  1  0.86343300  0.87424100  0.50810200  1
  O  O32  1  0.06698300  0.08459500  0.14093900  1
  O  O33  1  0.05600500  0.08981700  0.63589900  1
  O  O34  1  0.07336100  0.58337400  0.14130600  1
  O  O35  1  0.08196200  0.58329400  0.63323600  1
  O  O36  1  0.57076100  0.08645300  0.14347100  1
  O  O37  1  0.57868600  0.09631400  0.63922200  1
  O  O38  1  0.57747800  0.58888900  0.14790900  1
  O  O39  1  0.57412400  0.58996500  0.63479300  1
  O  O40  1  0.44366100  0.40793000  0.36533600  1
  O  O41  1  0.42856700  0.40620700  0.85930600  1
  O  O42  1  0.44333200  0.92663200  0.37322200  1
  O  O43  1  0.43157900  0.92293900  0.86127000  1
  O  O44  1  0.94441000  0.41035800  0.37141400  1
  O  O45  1  0.93778500  0.40828700  0.85696900  1
  O  O46  1  0.92422600  0.91692100  0.36464500  1
  O  O47  1  0.92441400  0.92494800  0.86025100  1
  O  O48  1  0.31479200  0.30449700  0.14120700  1
  O  O49  1  0.31654700  0.31045200  0.63530100  1
  O  O50  1  0.33047300  0.80686400  0.15410500  1
  O  O51  1  0.33297500  0.79324400  0.63999700  1
  O  O52  1  0.81799700  0.30591100  0.14995300  1
  O  O53  1  0.82158000  0.29461400  0.63456800  1
  O  O54  1  0.82018000  0.80807100  0.14007000  1
  O  O55  1  0.82892900  0.79857300  0.63863700  1
  O  O56  1  0.19229800  0.20481700  0.36305900  1
  O  O57  1  0.18491100  0.19367000  0.85996400  1
  O  O58  1  0.18036900  0.69928100  0.36398000  1
  O  O59  1  0.17628600  0.69042300  0.85386300  1
  O  O60  1  0.69308200  0.21168500  0.36676500  1
  O  O61  1  0.69610200  0.18718200  0.85794700  1
  O  O62  1  0.67985200  0.71224800  0.36842400  1
  O  O63  1  0.67800700  0.69999500  0.85751800  1
  O  O64  1  0.47839400  0.04591600  0.26432400  1
  O  O65  1  0.46988100  0.04577100  0.75856000  1
  O  O66  1  0.48641700  0.51082100  0.25118200  1
  O  O67  1  0.46966800  0.52033100  0.74010000  1
  O  O68  1  0.98030000  0.03712800  0.26404800  1
  O  O69  1  0.95508700  0.04902700  0.75052400  1
  O  O70  1  0.98373500  0.51116100  0.25086600  1
  O  O71  1  0.96131700  0.52629800  0.73506100  1
  O  O72  1  0.23730000  0.48010800  0.26443900  1
  O  O73  1  0.20873700  0.44860900  0.74803200  1
  O  O74  1  0.23054400  0.98384500  0.25173600  1
  O  O75  1  0.20958900  0.96365300  0.73369200  1
  O  O76  1  0.73853500  0.48621400  0.26749200  1
  O  O77  1  0.72234700  0.47145700  0.73902500  1
  O  O78  1  0.72211700  0.97540200  0.25947400  1
  O  O79  1  0.69867700  0.94117600  0.74331700  1
loop_
_geom_bond_atom_site_label_1
_geom_bond_atom_site_label_2
_geom_bond_distance
_geom_bond_site_symmetry_2
Ba0 O48 2.720933 1_555
Ba0 O64 2.754229 1_555
Ba0 O10 2.757567 1_544
Ba0 O26 2.777863 1_544
Ba0 O32 2.824341 1_555
Ba0 O1 2.863936 1_554
Ba0 O17 2.875576 1_554
Ba0 O36 2.900667 1_555
Ba0 O50 3.003232 1_545
Ba0 O74 3.045047 1_545
Ba1 O65 2.676280 1_555
Ba1 O11 2.691942 1_545
Ba1 O49 2.717914 1_555
Ba1 O27 2.751406 1_545
Ba1 O0 2.789118 1_555
Ba1 O16 2.823021 1_555
Ba1 O33 2.867185 1_555
Ba1 O75 3.010192 1_545
Ba1 O37 3.046951 1_555
Ba1 O51 3.141006 1_545
Ba2 O50 2.676707 1_555
Ba2 O24 2.734573 1_554
Ba2 O66 2.779812 1_555
Ba2 O8 2.795559 1_554
Ba2 O34 2.819623 1_555
Ba2 O19 2.825630 1_554
Ba2 O3 2.877455 1_554
Ba2 O38 2.896309 1_555
Ba2 O48 2.966184 1_555
Ba2 O72 3.309060 1_555
Ba3 O52 2.663640 1_555
Ba3 O30 2.754106 1_544
Ba3 O14 2.766249 1_544
Ba3 O68 2.796618 1_555
Ba3 O21 2.819561 1_554
Ba3 O32 2.824435 1_655
Ba3 O36 2.838027 1_555
Ba3 O5 2.899461 1_554
Ba3 O54 2.925570 1_545
Ba4 O12 2.757784 1_554
Ba4 O28 2.761486 1_554
Ba4 O54 2.765263 1_555
Ba4 O70 2.773331 1_555
Ba4 O38 2.781657 1_555
Ba4 O23 2.850457 1_554
Ba4 O7 2.852567 1_554
Ba4 O34 2.925012 1_655
Ba4 O52 2.983522 1_555
Ba4 O76 3.282701 1_555
Ba5 O0 2.685257 1_565
Ba5 O58 2.706457 1_555
Ba5 O74 2.727378 1_555
Ba5 O16 2.751610 1_565
Ba5 O46 2.839900 1_455
Ba5 O11 2.885194 1_555
Ba5 O27 2.901932 1_555
Ba5 O42 2.994889 1_555
Ba5 O56 3.008061 1_565
Ba5 O68 3.027158 1_465
Ba6 O1 2.728845 1_565
Ba6 O59 2.733932 1_555
Ba6 O75 2.746741 1_555
Ba6 O17 2.761327 1_565
Ba6 O10 2.797878 1_555
Ba6 O26 2.806710 1_555
Ba6 O47 2.828402 1_455
Ba6 O43 2.903096 1_555
Ba6 O57 2.907442 1_565
Ba7 O77 2.725399 1_555
Ba7 O61 2.728221 1_555
Ba7 O23 2.741246 1_555
Ba7 O7 2.768110 1_555
Ba7 O28 2.806648 1_555
Ba7 O12 2.807907 1_555
Ba7 O41 2.812230 1_555
Ba7 O45 2.975123 1_555
Ba7 O63 3.052141 1_555
Ba7 O67 3.206853 1_555
Ba8 O32 2.689981 1_555
Ba8 O28 2.778047 1_454
Ba8 O8 2.792202 1_554
Ba8 O72 2.841789 1_555
Ba8 O48 2.849781 1_555
Ba8 O21 2.859807 1_454
Ba8 O1 2.861294 1_554
Ba8 O52 2.867014 1_455
Ba8 O34 2.933823 1_555
Ba8 O70 2.999181 1_455
Ba9 O10 2.696950 1_554
Ba9 O34 2.717452 1_555
Ba9 O74 2.736728 1_555
Ba9 O30 2.779737 1_454
Ba9 O54 2.845618 1_455
Ba9 O23 2.862679 1_454
Ba9 O3 2.872467 1_554
Ba9 O50 2.923850 1_555
Ba9 O32 2.953543 1_565
Ba10 O36 2.727197 1_555
Ba10 O12 2.760139 1_554
Ba10 O24 2.795085 1_554
Ba10 O52 2.815446 1_555
Ba10 O76 2.843509 1_555
Ba10 O17 2.870007 1_554
Ba10 O48 2.876719 1_555
Ba10 O38 2.926024 1_555
Ba10 O5 2.960507 1_554
Ba10 O66 2.969422 1_555
Ba11 O38 2.690518 1_555
Ba11 O78 2.750020 1_555
Ba11 O14 2.775224 1_554
Ba11 O26 2.777650 1_554
Ba11 O50 2.780236 1_555
Ba11 O7 2.849096 1_554
Ba11 O19 2.873233 1_554
Ba11 O54 2.908869 1_555
Ba11 O36 2.982889 1_565
Ba12 O18 2.713487 1_555
Ba12 O42 2.724150 1_555
Ba12 O6 2.728091 1_555
Ba12 O66 2.758871 1_555
Ba12 O58 2.812251 1_555
Ba12 O62 2.832737 1_555
Ba12 O27 2.856549 1_555
Ba12 O15 2.933610 1_555
Ba12 O72 2.963775 1_555
Ba12 O40 3.060127 1_555
Ba13 O67 2.712371 1_555
Ba13 O43 2.719677 1_555
Ba13 O19 2.725947 1_555
Ba13 O7 2.734395 1_555
Ba13 O14 2.793414 1_555
Ba13 O26 2.799952 1_555
Ba13 O59 2.826456 1_555
Ba13 O63 2.849284 1_555
Ba13 O41 3.076789 1_555
Ba14 O46 2.695059 1_555
Ba14 O22 2.714047 1_555
Ba14 O70 2.767000 1_555
Ba14 O2 2.785793 1_655
Ba14 O11 2.807909 1_655
Ba14 O58 2.857809 1_655
Ba14 O62 2.861325 1_555
Ba14 O31 2.903576 1_555
Ba14 O76 2.924559 1_555
Ba14 O44 3.042025 1_555
Ba15 O71 2.701541 1_555
Ba15 O47 2.741716 1_555
Ba15 O23 2.754154 1_555
Ba15 O3 2.769719 1_655
Ba15 O10 2.785147 1_655
Ba15 O63 2.793661 1_555
Ba15 O30 2.825890 1_555
Ba15 O59 2.878256 1_655
Ba15 O45 3.051317 1_555
Ba15 O77 3.167060 1_555
Co0 O1 1.866780 1_665
Co0 O30 1.895120 1_555
Co0 O21 2.004351 1_565
Co0 O10 2.037363 1_655
Co0 O47 2.099407 1_555
Co0 O32 2.422502 1_666
Co1 O8 1.843862 1_655
Co1 O23 1.856532 1_555
Co1 O3 2.101191 1_655
Co1 O28 2.153389 1_555
Co1 O45 2.161700 1_555
Co1 O34 2.432671 1_656
Co2 O17 1.836539 1_565
Co2 O14 1.857645 1_555
Co2 O5 2.090314 1_565
Co2 O43 2.102904 1_555
Co2 O26 2.191586 1_555
Co2 O36 2.444915 1_566
Co3 O15 1.836624 1_545
Co3 O16 1.857209 1_555
Co3 O4 2.107820 1_555
Co3 O42 2.108225 1_545
Co3 O27 2.159278 1_545
Co3 O37 2.197324 1_555
Co4 O24 1.880235 1_555
Co4 O7 1.895778 1_555
Co4 O19 2.014139 1_555
Co4 O12 2.024151 1_555
Co4 O41 2.041131 1_555
Co4 O38 2.625543 1_556
Co5 O18 1.807842 1_555
Co5 O13 1.819387 1_555
Co5 O25 1.980066 1_555
Co5 O6 2.138465 1_555
Co5 O39 2.150655 1_555
Co5 O40 2.224785 1_555
Co6 O26 1.820683 1_555
Co6 O3 1.827901 1_555
Co6 O19 1.980838 1_555
Co6 O10 1.988145 1_555
Co6 O59 2.094051 1_555
Co6 O50 2.750789 1_556
Co7 O2 1.826683 1_555
Co7 O27 1.842377 1_555
Co7 O11 1.998170 1_555
Co7 O51 2.185840 1_555
Co7 O18 2.247411 1_555
Co7 O58 2.293433 1_555
Co8 O5 1.822599 1_555
Co8 O28 1.828528 1_555
Co8 O21 1.950487 1_555
Co8 O12 1.977572 1_555
Co8 O61 2.078085 1_555
Co8 O52 2.640651 1_556
Co9 O29 1.826954 1_555
Co9 O4 1.848239 1_555
Co9 O20 1.974075 1_555
Co9 O53 2.137666 1_555
Co9 O13 2.182309 1_555
Co9 O60 2.208301 1_555
Co10 O30 2.062510 1_555
Co10 O7 2.072625 1_555
Co10 O14 2.134399 1_555
Co10 O23 2.160498 1_555
Co10 O63 2.228066 1_555
Co10 O54 2.333278 1_556
Co11 O31 1.819355 1_555
Co11 O6 1.845632 1_555
Co11 O22 2.015912 1_555
Co11 O15 2.176540 1_555
Co11 O62 2.188174 1_555
Co11 O55 2.195511 1_555
Cu0 O20 1.960229 1_555
Cu0 O11 1.976008 1_645
Cu0 O0 2.041168 1_655
Cu0 O31 2.110608 1_545
Cu0 O33 2.135068 1_655
Cu0 O46 2.252708 1_545
Cu1 O9 1.972604 1_555
Cu1 O22 1.998174 1_455
Cu1 O29 2.106229 1_455
Cu1 O35 2.116363 1_555
Cu1 O2 2.118371 1_555
Cu1 O44 2.132078 1_455
Cu2 O24 2.071268 1_555
Cu2 O1 2.086431 1_555
Cu2 O17 2.127139 1_555
Cu2 O8 2.132287 1_555
Cu2 O57 2.187167 1_555
Cu2 O48 2.350241 1_556
Cu3 O0 1.939755 1_555
Cu3 O25 1.951166 1_555
Cu3 O9 1.980509 1_555
Cu3 O16 2.115023 1_555
Cu3 O49 2.139538 1_555
Cu3 O56 2.259060 1_555
Cu4 O56 1.828569 1_555
Cu4 O32 1.836283 1_555
Cu4 O68 1.863756 1_455
Cu4 O74 1.901644 1_545
Cu5 O33 1.844544 1_555
Cu5 O69 1.868741 1_455
Cu5 O57 1.874460 1_555
Cu5 O75 1.920856 1_545
Cu6 O58 1.835577 1_555
Cu6 O34 1.846210 1_555
Cu6 O70 1.854257 1_455
Cu6 O72 1.914233 1_555
Cu7 O71 1.832910 1_455
Cu7 O59 1.849727 1_555
Cu7 O35 1.849830 1_555
Cu7 O73 1.936074 1_555
Cu8 O64 1.841862 1_555
Cu8 O60 1.848671 1_555
Cu8 O36 1.851873 1_555
Cu8 O78 1.911301 1_545
Cu9 O37 1.838209 1_555
Cu9 O65 1.847126 1_555
Cu9 O61 1.849722 1_555
Cu9 O79 1.959465 1_545
Cu10 O38 1.817699 1_555
Cu10 O62 1.839076 1_555
Cu10 O66 1.864539 1_555
Cu10 O76 1.922907 1_555
Cu11 O39 1.834549 1_555
Cu11 O63 1.851076 1_555
Cu11 O67 1.876567 1_555
Cu11 O77 1.932941 1_555
Cu12 O40 1.841140 1_555
Cu12 O48 1.846270 1_555
Cu12 O72 1.861303 1_555
Cu12 O66 1.891688 1_555
Cu13 O49 1.830069 1_555
Cu13 O73 1.852951 1_555
Cu13 O41 1.869503 1_555
Cu13 O67 1.907279 1_555
Cu14 O50 1.809389 1_555
Cu14 O42 1.836136 1_555
Cu14 O74 1.859582 1_555
Cu14 O64 1.910873 1_565
Cu15 O51 1.851493 1_555
Cu15 O43 1.861185 1_555
Cu15 O75 1.891860 1_555
Cu15 O65 1.915507 1_565
Cu16 O52 1.813284 1_555
Cu16 O44 1.842973 1_555
Cu16 O76 1.865006 1_555
Cu16 O70 1.889219 1_555
Cu17 O53 1.831815 1_555
Cu17 O45 1.863262 1_555
Cu17 O77 1.875979 1_555
Cu17 O71 1.916399 1_555
Cu18 O46 1.843501 1_555
Cu18 O78 1.851965 1_555
Cu18 O54 1.864898 1_555
Cu18 O68 1.925364 1_565
Cu19 O55 1.845008 1_555
Cu19 O79 1.845905 1_555
Cu19 O47 1.868379 1_555
Cu19 O69 1.935669 1_565
O0 Sr14 2.545154 1_455
O0 Sr8 2.622922 1_555
O1 Sr15 2.591523 1_455
O2 Sr3 2.614476 1_555
O2 Sr0 2.672170 1_555
O2 Sr9 2.722483 1_555
O3 Sr4 2.655177 1_555
O4 Sr12 2.586470 1_555
O4 Sr6 2.651048 1_545
O4 Sr10 2.710527 1_555
O4 Sr1 2.768431 1_555
O5 Sr13 2.596253 1_555
O5 Sr7 2.612226 1_545
O6 Sr11 2.647975 1_555
O6 Sr5 2.657859 1_555
O6 Sr2 2.697758 1_555
O8 Sr15 2.636404 1_455
O8 Sr4 2.682170 1_555
O9 Sr0 2.577046 1_555
O9 Sr8 2.585668 1_555
O9 Sr3 2.666775 1_555
O9 Sr14 2.695683 1_455
O11 Sr9 2.513146 1_555
O12 Sr13 2.626090 1_555
O13 Sr2 2.569745 1_555
O13 Sr10 2.622564 1_555
O13 Sr5 2.691545 1_555
O13 Sr12 2.747851 1_555
O14 Sr7 2.730309 1_555
O15 Sr11 2.591332 1_555
O15 Sr1 2.599811 1_565
O15 Sr6 2.786145 1_555
O16 Sr12 2.617850 1_555
O16 Sr10 2.685240 1_555
O17 Sr13 2.593935 1_555
O18 Sr3 2.617726 1_555
O18 Sr11 2.684333 1_555
O18 Sr0 2.696213 1_555
O19 Sr4 2.597055 1_555
O20 Sr6 2.531934 1_545
O20 Sr14 2.584663 1_555
O20 Sr1 2.667121 1_555
O20 Sr8 2.731422 1_655
O21 Sr7 2.584270 1_545
O21 Sr15 2.625722 1_555
O22 Sr5 2.587734 1_555
O22 Sr2 2.636509 1_555
O22 Sr9 2.644942 1_655
O24 Sr4 2.645810 1_555
O24 Sr13 2.662198 1_555
O25 Sr10 2.563536 1_555
O25 Sr0 2.569667 1_555
O25 Sr12 2.671920 1_555
O25 Sr3 2.734752 1_555
O27 Sr11 2.582253 1_555
O28 Sr15 2.684965 1_555
O29 Sr2 2.596512 1_555
O29 Sr8 2.610993 1_655
O29 Sr5 2.724140 1_555
O29 Sr14 2.777156 1_555
O30 Sr7 2.684176 1_555
O31 Sr1 2.573318 1_565
O31 Sr9 2.640915 1_655
O31 Sr6 2.712186 1_555
O33 Sr8 2.600263 1_555
O33 Sr1 2.700000 1_455
O33 Sr9 3.131274 1_545
O35 Sr9 2.597318 1_555
O35 Sr0 2.697140 1_555
O35 Sr8 3.003674 1_555
O35 Sr2 3.047476 1_455
O37 Sr10 2.584705 1_555
O37 Sr1 2.768392 1_555
O37 Sr11 3.179020 1_545
O39 Sr11 2.537434 1_555
O39 Sr2 2.736900 1_555
O39 Sr0 2.920558 1_555
O39 Sr10 3.027202 1_555
O40 Sr12 2.538255 1_555
O40 Sr5 2.719853 1_555
O40 Sr3 2.995005 1_555
O41 Sr13 2.574807 1_555
O41 Sr4 2.840431 1_555
O42 Sr6 2.761625 1_555
O42 Sr12 2.950115 1_565
O43 Sr7 2.837165 1_555
O43 Sr13 2.920932 1_565
O44 Sr14 2.571926 1_555
O44 Sr3 2.726538 1_655
O44 Sr5 2.963610 1_555
O45 Sr15 2.634828 1_555
O45 Sr4 2.745318 1_655
O46 Sr6 2.764613 1_555
O46 Sr14 2.973869 1_565
O47 Sr7 2.770526 1_555
O47 Sr15 2.875056 1_565
O49 Sr0 2.818784 1_555
O49 Sr10 2.830971 1_555
O49 Sr8 2.835997 1_555
O51 Sr0 2.637451 1_555
O51 Sr11 2.689256 1_555
O51 Sr9 3.063167 1_555
O53 Sr1 2.524598 1_555
O53 Sr8 2.800722 1_655
O53 Sr10 2.920144 1_555
O53 Sr2 3.100737 1_555
O55 Sr2 2.583974 1_555
O55 Sr9 2.699720 1_655
O55 Sr11 2.996676 1_555
O55 Sr1 3.106729 1_565
O56 Sr3 2.548755 1_555
O56 Sr12 2.714406 1_555
O56 Sr14 2.999265 1_455
O57 Sr4 2.612890 1_555
O57 Sr13 2.742293 1_555
O57 Sr15 2.909887 1_455
O58 Sr3 3.059819 1_555
O59 Sr4 3.052803 1_555
O60 Sr5 2.541072 1_555
O60 Sr14 2.746007 1_555
O60 Sr12 2.990183 1_555
O60 Sr6 3.074654 1_545
O61 Sr15 2.661405 1_555
O61 Sr7 2.879681 1_545
O61 Sr13 3.101765 1_555
O62 Sr6 2.580097 1_555
O62 Sr5 3.111611 1_555
O63 Sr7 2.643441 1_555
O64 Sr12 2.533467 1_555
O64 Sr6 3.215226 1_545
O65 Sr13 2.526978 1_555
O66 Sr5 3.118029 1_555
O67 Sr0 2.582690 1_555
O67 Sr10 3.118031 1_555
O68 Sr14 2.572131 1_555
O69 Sr15 2.524513 1_555
O69 Sr1 2.550819 1_555
O70 Sr3 3.167102 1_655
O71 Sr2 2.499767 1_555
O71 Sr8 3.214125 1_655
O72 Sr3 2.616005 1_555
O73 Sr4 2.548190 1_555
O73 Sr8 2.556671 1_555
O74 Sr12 3.194996 1_565
O75 Sr9 2.549498 1_555
O76 Sr5 2.572883 1_555
O77 Sr10 2.586793 1_555
O77 Sr2 3.096444 1_555
O78 Sr6 2.559855 1_555
O78 Sr14 3.243562 1_565
O79 Sr11 2.466021 1_555
O79 Sr7 2.526962 1_555
