# generated using pymatgen
data_K2Si(S2O7)3
_symmetry_space_group_name_H-M   'P 1'
_cell_length_a   9.37484653
_cell_length_b   10.84942692
_cell_length_c   19.23750360
_cell_angle_alpha   58.29533926
_cell_angle_beta   90.00000000
_cell_angle_gamma   90.00000000
_symmetry_Int_Tables_number   1
_chemical_formula_structural   K2Si(S2O7)3
_chemical_formula_sum   'K8 Si4 S24 O84'
_cell_volume   1664.68095465
_cell_formula_units_Z   4
loop_
 _symmetry_equiv_pos_site_id
 _symmetry_equiv_pos_as_xyz
  1  'x, y, z'
loop_
 _atom_site_type_symbol
 _atom_site_label
 _atom_site_symmetry_multiplicity
 _atom_site_fract_x
 _atom_site_fract_y
 _atom_site_fract_z
 _atom_site_occupancy
  K  K0  1  0.50885036  0.19818595  0.36258199  1
  K  K1  1  0.99114964  0.19818595  0.86258199  1
  K  K2  1  0.49114964  0.80181405  0.63741801  1
  K  K3  1  0.00885036  0.80181405  0.13741801  1
  K  K4  1  0.49651544  0.78189812  0.31452238  1
  K  K5  1  0.00348456  0.78189812  0.81452238  1
  K  K6  1  0.50348456  0.21810188  0.68547762  1
  K  K7  1  0.99651544  0.21810188  0.18547762  1
  Si  Si0  1  0.49914307  0.72953897  0.00288505  1
  Si  Si1  1  0.00085693  0.72953897  0.50288505  1
  Si  Si2  1  0.50085693  0.27046103  0.99711495  1
  Si  Si3  1  0.99914307  0.27046103  0.49711495  1
  S  S0  1  0.75496351  0.45874881  0.39548139  1
  S  S1  1  0.74503649  0.45874881  0.89548139  1
  S  S2  1  0.24503649  0.54125119  0.60451861  1
  S  S3  1  0.25496351  0.54125119  0.10451861  1
  S  S4  1  0.21908995  0.94849163  0.38055275  1
  S  S5  1  0.28091005  0.94849163  0.88055275  1
  S  S6  1  0.78091005  0.05150837  0.61944725  1
  S  S7  1  0.71908995  0.05150837  0.11944725  1
  S  S8  1  0.42043421  0.67153482  0.17261968  1
  S  S9  1  0.07956579  0.67153482  0.67261968  1
  S  S10  1  0.57956579  0.32846518  0.82738032  1
  S  S11  1  0.92043421  0.32846518  0.32738032  1
  S  S12  1  0.71037493  0.88303185  0.44572604  1
  S  S13  1  0.78962507  0.88303185  0.94572604  1
  S  S14  1  0.28962507  0.11696815  0.55427396  1
  S  S15  1  0.21037493  0.11696815  0.05427396  1
  S  S16  1  0.53329004  0.19589153  0.17090980  1
  S  S17  1  0.96670996  0.19589153  0.67090980  1
  S  S18  1  0.46670996  0.80410847  0.82909020  1
  S  S19  1  0.03329004  0.80410847  0.32909020  1
  S  S20  1  0.28077431  0.41442074  0.42895231  1
  S  S21  1  0.21922569  0.41442074  0.92895231  1
  S  S22  1  0.71922569  0.58557926  0.57104769  1
  S  S23  1  0.78077431  0.58557926  0.07104769  1
  O  O0  1  0.45005382  0.06810701  0.21458312  1
  O  O1  1  0.04994618  0.06810701  0.71458312  1
  O  O2  1  0.54994618  0.93189299  0.78541688  1
  O  O3  1  0.95005382  0.93189299  0.28541688  1
  O  O4  1  0.86732442  0.86544307  0.46390390  1
  O  O5  1  0.63267558  0.86544307  0.96390390  1
  O  O6  1  0.13267558  0.13455693  0.53609610  1
  O  O7  1  0.36732442  0.13455693  0.03609610  1
  O  O8  1  0.48771295  0.28763665  0.08337562  1
  O  O9  1  0.01228705  0.28763665  0.58337562  1
  O  O10  1  0.51228705  0.71236335  0.91662438  1
  O  O11  1  0.98771295  0.71236335  0.41662438  1
  O  O12  1  0.72172410  0.60410772  0.36862011  1
  O  O13  1  0.77827590  0.60410772  0.86862011  1
  O  O14  1  0.27827590  0.39589228  0.63137989  1
  O  O15  1  0.22172410  0.39589228  0.13137989  1
  O  O16  1  0.12854820  0.87096733  0.45591345  1
  O  O17  1  0.37145180  0.87096733  0.95591345  1
  O  O18  1  0.87145180  0.12903267  0.54408655  1
  O  O19  1  0.62854820  0.12903267  0.04408655  1
  O  O20  1  0.65577553  0.71693780  0.48362153  1
  O  O21  1  0.84422447  0.71693780  0.98362153  1
  O  O22  1  0.34422447  0.28306220  0.51637847  1
  O  O23  1  0.15577553  0.28306220  0.01637847  1
  O  O24  1  0.55705576  0.28340105  0.20411460  1
  O  O25  1  0.94294424  0.28340105  0.70411460  1
  O  O26  1  0.44294424  0.71659895  0.79588540  1
  O  O27  1  0.05705576  0.71659895  0.29588540  1
  O  O28  1  0.48921892  0.74460290  0.08953587  1
  O  O29  1  0.01078108  0.74460290  0.58953587  1
  O  O30  1  0.51078108  0.25539710  0.91046413  1
  O  O31  1  0.98921892  0.25539710  0.41046413  1
  O  O32  1  0.67956264  0.94882571  0.36139187  1
  O  O33  1  0.82043736  0.94882571  0.86139187  1
  O  O34  1  0.32043736  0.05117429  0.63860813  1
  O  O35  1  0.17956264  0.05117429  0.13860813  1
  O  O36  1  0.12559383  0.41207711  0.44951249  1
  O  O37  1  0.37440617  0.41207711  0.94951249  1
  O  O38  1  0.87440617  0.58792289  0.55048751  1
  O  O39  1  0.62559383  0.58792289  0.05048751  1
  O  O40  1  0.34654118  0.52874842  0.17990786  1
  O  O41  1  0.15345882  0.52874842  0.67990786  1
  O  O42  1  0.65345882  0.47125158  0.82009214  1
  O  O43  1  0.84654118  0.47125158  0.32009214  1
  O  O44  1  0.64421419  0.35609607  0.41559051  1
  O  O45  1  0.85578581  0.35609607  0.91559051  1
  O  O46  1  0.35578581  0.64390393  0.58440949  1
  O  O47  1  0.14421419  0.64390393  0.08440949  1
  O  O48  1  0.36665267  0.92844583  0.39954777  1
  O  O49  1  0.13334733  0.92844583  0.89954777  1
  O  O50  1  0.63334733  0.07155417  0.60045223  1
  O  O51  1  0.86665267  0.07155417  0.10045223  1
  O  O52  1  0.34647496  0.53952016  0.41963376  1
  O  O53  1  0.15352504  0.53952016  0.91963376  1
  O  O54  1  0.65352504  0.46047984  0.58036624  1
  O  O55  1  0.84647496  0.46047984  0.08036624  1
  O  O56  1  0.52255143  0.61162056  0.23621280  1
  O  O57  1  0.97744857  0.61162056  0.73621280  1
  O  O58  1  0.47744857  0.38837944  0.76378720  1
  O  O59  1  0.02255143  0.38837944  0.26378720  1
  O  O60  1  0.16771066  0.09095091  0.32629836  1
  O  O61  1  0.33228934  0.09095091  0.82629836  1
  O  O62  1  0.83228934  0.90904909  0.67370164  1
  O  O63  1  0.66771066  0.90904909  0.17370164  1
  O  O64  1  0.19452705  0.85230195  0.33841971  1
  O  O65  1  0.30547295  0.85230195  0.83841971  1
  O  O66  1  0.80547295  0.14769805  0.66158029  1
  O  O67  1  0.69452705  0.14769805  0.16158029  1
  O  O68  1  0.86567032  0.40377810  0.46195140  1
  O  O69  1  0.63432968  0.40377810  0.96195140  1
  O  O70  1  0.13432968  0.59622190  0.53804860  1
  O  O71  1  0.36567032  0.59622190  0.03804860  1
  O  O72  1  0.64367069  0.93984100  0.48949841  1
  O  O73  1  0.85632931  0.93984100  0.98949841  1
  O  O74  1  0.35632931  0.06015900  0.51050159  1
  O  O75  1  0.14367069  0.06015900  0.01050159  1
  O  O76  1  0.30250809  0.37467335  0.37029973  1
  O  O77  1  0.19749191  0.37467335  0.87029973  1
  O  O78  1  0.69749191  0.62532665  0.62970027  1
  O  O79  1  0.80250809  0.62532665  0.12970027  1
  O  O80  1  0.31073790  0.76056523  0.17433589  1
  O  O81  1  0.18926210  0.76056523  0.67433589  1
  O  O82  1  0.68926210  0.23943477  0.82566411  1
  O  O83  1  0.81073790  0.23943477  0.32566411  1
loop_
_geom_bond_atom_site_label_1
_geom_bond_atom_site_label_2
_geom_bond_distance
_geom_bond_site_symmetry_2
K0 O24 2.718459 1_555
K0 O44 2.724295 1_555
K0 O76 2.780157 1_555
K0 O74 2.811673 1_555
K0 O72 2.867387 1_545
K0 O83 2.894883 1_555
K0 O48 2.942774 1_545
K0 O32 3.153758 1_545
K1 O25 2.718459 1_555
K1 O45 2.724295 1_555
K1 O77 2.780157 1_655
K1 O75 2.811673 1_656
K1 O73 2.867387 1_545
K1 O82 2.894883 1_555
K1 O49 2.942774 1_645
K1 O33 3.153758 1_545
K2 O26 2.718459 1_555
K2 O46 2.724295 1_555
K2 O78 2.780157 1_555
K2 O72 2.811673 1_555
K2 O74 2.867387 1_565
K2 O81 2.894883 1_555
K2 O50 2.942774 1_565
K2 O34 3.153758 1_565
K3 O27 2.718459 1_555
K3 O47 2.724295 1_555
K3 O79 2.780157 1_455
K3 O73 2.811673 1_454
K3 O75 2.867387 1_565
K3 O80 2.894883 1_555
K3 O51 2.942774 1_465
K3 O35 3.153758 1_565
K4 O12 2.674211 1_555
K4 O0 2.693206 1_565
K4 O52 2.719092 1_555
K4 O63 2.808860 1_555
K4 O56 2.944021 1_555
K4 O32 2.958734 1_555
K4 O64 3.029685 1_555
K4 O48 3.069052 1_555
K4 O20 3.301270 1_555
K4 O80 3.319016 1_555
K5 O13 2.674211 1_455
K5 O1 2.693206 1_565
K5 O53 2.719092 1_555
K5 O62 2.808860 1_455
K5 O57 2.944021 1_455
K5 O33 2.958734 1_455
K5 O65 3.029685 1_555
K5 O49 3.069052 1_555
K5 O21 3.301270 1_455
K5 O81 3.319016 1_555
K6 O14 2.674211 1_555
K6 O2 2.693206 1_545
K6 O54 2.719092 1_555
K6 O61 2.808860 1_555
K6 O58 2.944021 1_555
K6 O34 2.958734 1_555
K6 O66 3.029685 1_555
K6 O50 3.069052 1_555
K6 O22 3.301270 1_555
K6 O82 3.319016 1_555
K7 O15 2.674211 1_655
K7 O3 2.693206 1_545
K7 O55 2.719092 1_555
K7 O60 2.808860 1_655
K7 O59 2.944021 1_655
K7 O35 2.958734 1_655
K7 O67 3.029685 1_555
K7 O51 3.069052 1_555
K7 O23 3.301270 1_655
K7 O83 3.319016 1_555
O0 S16 1.418649 1_555
O1 S17 1.418649 1_455
O2 S18 1.418649 1_555
O3 S19 1.418649 1_655
O4 S12 1.501171 1_555
O4 Si1 1.772391 1_655
O5 S13 1.501171 1_555
O5 Si0 1.772391 1_556
O6 S14 1.501171 1_555
O6 Si3 1.772391 1_455
O7 S15 1.501171 1_555
O7 Si2 1.772391 1_554
O8 S16 1.499073 1_555
O8 Si2 1.768806 1_554
O9 S17 1.499073 1_455
O9 Si3 1.768806 1_455
O10 S18 1.499073 1_555
O10 Si0 1.768806 1_556
O11 S19 1.499073 1_655
O11 Si1 1.768806 1_655
O12 S0 1.412333 1_555
O13 S1 1.412333 1_555
O14 S2 1.412333 1_555
O15 S3 1.412333 1_555
O16 S4 1.499347 1_555
O16 Si1 1.773872 1_555
O17 S5 1.499347 1_555
O17 Si0 1.773872 1_556
O18 S6 1.499347 1_555
O18 Si3 1.773872 1_555
O19 S7 1.499347 1_555
O19 Si2 1.773872 1_554
O20 S12 1.630935 1_555
O20 S22 1.641406 1_555
O21 S13 1.630935 1_555
O21 S23 1.641406 1_556
O22 S14 1.630935 1_555
O22 S20 1.641406 1_555
O23 S15 1.630935 1_555
O23 S21 1.641406 1_554
O24 S16 1.412991 1_555
O25 S17 1.412991 1_555
O26 S18 1.412991 1_555
O27 S19 1.412991 1_555
O28 S8 1.505698 1_555
O28 Si0 1.760803 1_555
O29 S9 1.505698 1_555
O29 Si1 1.760803 1_555
O30 S10 1.505698 1_555
O30 Si2 1.760803 1_555
O31 S11 1.505698 1_555
O31 Si3 1.760803 1_555
O32 S12 1.416985 1_555
O33 S13 1.416985 1_555
O34 S14 1.416985 1_555
O35 S15 1.416985 1_555
O36 S20 1.504307 1_555
O36 Si3 1.767969 1_455
O37 S21 1.504307 1_555
O37 Si2 1.767969 1_555
O38 S22 1.504307 1_555
O38 Si1 1.767969 1_655
O39 S23 1.504307 1_555
O39 Si0 1.767969 1_555
O40 S3 1.628515 1_555
O40 S8 1.634354 1_555
O41 S2 1.628515 1_555
O41 S9 1.634354 1_555
O42 S1 1.628515 1_555
O42 S10 1.634354 1_555
O43 S0 1.628515 1_555
O43 S11 1.634354 1_555
O44 S0 1.419563 1_555
O45 S1 1.419563 1_555
O46 S2 1.419563 1_555
O47 S3 1.419563 1_555
O48 S4 1.418108 1_555
O49 S5 1.418108 1_555
O50 S6 1.418108 1_555
O51 S7 1.418108 1_555
O52 S20 1.413478 1_555
O53 S21 1.413478 1_555
O54 S22 1.413478 1_555
O55 S23 1.413478 1_555
O56 S8 1.414149 1_555
O57 S9 1.414149 1_655
O58 S10 1.414149 1_555
O59 S11 1.414149 1_455
O60 S4 1.419389 1_545
O61 S5 1.419389 1_545
O62 S6 1.419389 1_565
O63 S7 1.419389 1_565
O64 S4 1.639568 1_555
O64 S19 1.639846 1_555
O65 S5 1.639568 1_555
O65 S18 1.639846 1_555
O66 S6 1.639568 1_555
O66 S17 1.639846 1_555
O67 S7 1.639568 1_555
O67 S16 1.639846 1_555
O68 S0 1.505450 1_555
O68 Si3 1.756988 1_555
O69 S1 1.505450 1_555
O69 Si2 1.756988 1_555
O70 S2 1.505450 1_555
O70 Si1 1.756988 1_555
O71 S3 1.505450 1_555
O71 Si0 1.756988 1_555
O72 S12 1.423214 1_555
O73 S13 1.423214 1_555
O74 S14 1.423214 1_555
O75 S15 1.423214 1_555
O76 S20 1.418463 1_555
O77 S21 1.418463 1_555
O78 S22 1.418463 1_555
O79 S23 1.418463 1_555
O80 S8 1.423097 1_555
O81 S9 1.423097 1_555
O82 S10 1.423097 1_555
O83 S11 1.423097 1_555
