# generated using pymatgen
data_Ba3(CrN2)2
_symmetry_space_group_name_H-M   'P 1'
_cell_length_a   6.17303432
_cell_length_b   10.12244018
_cell_length_c   10.18216259
_cell_angle_alpha   90.00000000
_cell_angle_beta   90.00000000
_cell_angle_gamma   90.00000000
_symmetry_Int_Tables_number   1
_chemical_formula_structural   Ba3(CrN2)2
_chemical_formula_sum   'Ba12 Cr8 N16'
_cell_volume   636.24434901
_cell_formula_units_Z   4
loop_
 _symmetry_equiv_pos_site_id
 _symmetry_equiv_pos_as_xyz
  1  'x, y, z'
loop_
 _atom_site_type_symbol
 _atom_site_label
 _atom_site_symmetry_multiplicity
 _atom_site_fract_x
 _atom_site_fract_y
 _atom_site_fract_z
 _atom_site_occupancy
  Ba  Ba0  1  0.62461276  0.15730897  0.41822717  1
  Ba  Ba1  1  0.87538724  0.84269103  0.41822717  1
  Ba  Ba2  1  0.62461276  0.34269103  0.08177283  1
  Ba  Ba3  1  0.87538724  0.65730897  0.08177283  1
  Ba  Ba4  1  0.37538724  0.84269103  0.58177283  1
  Ba  Ba5  1  0.12461276  0.15730897  0.58177283  1
  Ba  Ba6  1  0.37538724  0.65730897  0.91822717  1
  Ba  Ba7  1  0.12461276  0.34269103  0.91822717  1
  Ba  Ba8  1  0.75000000  0.50000000  0.40368780  1
  Ba  Ba9  1  0.75000000  0.00000000  0.09631220  1
  Ba  Ba10  1  0.25000000  0.50000000  0.59631220  1
  Ba  Ba11  1  0.25000000  0.00000000  0.90368780  1
  Cr  Cr0  1  0.75000000  0.50000000  0.73573924  1
  Cr  Cr1  1  0.75000000  0.00000000  0.76426076  1
  Cr  Cr2  1  0.25000000  0.50000000  0.26426076  1
  Cr  Cr3  1  0.25000000  0.00000000  0.23573924  1
  Cr  Cr4  1  0.66963943  0.25000000  0.75000000  1
  Cr  Cr5  1  0.83036057  0.75000000  0.75000000  1
  Cr  Cr6  1  0.33036057  0.75000000  0.25000000  1
  Cr  Cr7  1  0.16963943  0.25000000  0.25000000  1
  N  N0  1  0.85038300  0.35435564  0.64054612  1
  N  N1  1  0.64961700  0.64564436  0.64054612  1
  N  N2  1  0.85038300  0.14564436  0.85945388  1
  N  N3  1  0.64961700  0.85435564  0.85945388  1
  N  N4  1  0.14961700  0.64564436  0.35945388  1
  N  N5  1  0.35038300  0.35435564  0.35945388  1
  N  N6  1  0.14961700  0.85435564  0.14054612  1
  N  N7  1  0.35038300  0.14564436  0.14054612  1
  N  N8  1  0.54131468  0.40764953  0.82821715  1
  N  N9  1  0.95868532  0.59235047  0.82821715  1
  N  N10  1  0.54131468  0.09235047  0.67178285  1
  N  N11  1  0.95868532  0.90764953  0.67178285  1
  N  N12  1  0.45868532  0.59235047  0.17178285  1
  N  N13  1  0.04131468  0.40764953  0.17178285  1
  N  N14  1  0.45868532  0.90764953  0.32821715  1
  N  N15  1  0.04131468  0.09235047  0.32821715  1
loop_
_geom_bond_atom_site_label_1
_geom_bond_atom_site_label_2
_geom_bond_distance
_geom_bond_site_symmetry_2
Ba0 N5 2.683692 1_555
Ba0 N10 2.713332 1_555
Ba0 N15 2.808759 1_655
Ba0 N14 2.876744 1_545
Ba1 N4 2.683692 1_655
Ba1 N11 2.713332 1_555
Ba1 N14 2.808759 1_555
Ba1 N15 2.876744 1_665
Ba2 N7 2.683692 1_555
Ba2 N8 2.713332 1_554
Ba2 N13 2.808759 1_655
Ba2 N12 2.876744 1_555
Ba3 N6 2.683692 1_655
Ba3 N9 2.713332 1_554
Ba3 N12 2.808759 1_555
Ba3 N13 2.876744 1_655
Ba4 N1 2.683692 1_555
Ba4 N14 2.713332 1_555
Ba4 N11 2.808759 1_455
Ba4 N10 2.876744 1_565
Ba5 N0 2.683692 1_455
Ba5 N15 2.713332 1_555
Ba5 N10 2.808759 1_555
Ba5 N11 2.876744 1_445
Ba6 N3 2.683692 1_555
Ba6 N12 2.713332 1_556
Ba6 N9 2.808759 1_455
Ba6 N8 2.876744 1_555
Ba7 N2 2.683692 1_455
Ba7 N13 2.713332 1_556
Ba7 N8 2.808759 1_555
Ba7 N9 2.876744 1_455
Ba8 N0 2.893773 1_555
Ba8 N1 2.893773 1_555
Ba8 N5 2.908899 1_555
Ba8 N4 2.908899 1_655
Ba8 N13 3.111824 1_655
Ba8 N12 3.111824 1_555
Ba9 N3 2.893773 1_544
Ba9 N2 2.893773 1_554
Ba9 N7 2.908899 1_555
Ba9 N6 2.908899 1_645
Ba9 N15 3.111824 1_655
Ba9 N14 3.111824 1_545
Ba10 N4 2.893773 1_555
Ba10 N5 2.893773 1_555
Ba10 N0 2.908899 1_455
Ba10 N1 2.908899 1_555
Ba10 N8 3.111824 1_555
Ba10 N9 3.111824 1_455
Ba11 N6 2.893773 1_546
Ba11 N7 2.893773 1_556
Ba11 N2 2.908899 1_455
Ba11 N3 2.908899 1_545
Ba11 N11 3.111824 1_445
Ba11 N10 3.111824 1_555
Cr0 N9 1.849337 1_555
Cr0 N8 1.849337 1_555
Cr0 N0 1.870018 1_555
Cr0 N1 1.870018 1_555
Cr1 N10 1.849337 1_555
Cr1 N11 1.849337 1_545
Cr1 N2 1.870018 1_555
Cr1 N3 1.870018 1_545
Cr2 N12 1.849337 1_555
Cr2 N13 1.849337 1_555
Cr2 N5 1.870018 1_555
Cr2 N4 1.870018 1_555
Cr3 N14 1.849337 1_545
Cr3 N15 1.849337 1_555
Cr3 N7 1.870018 1_555
Cr3 N6 1.870018 1_545
Cr4 N2 1.898096 1_555
Cr4 N0 1.898096 1_555
Cr4 N8 1.951502 1_555
Cr4 N10 1.951502 1_555
Cr5 N3 1.898096 1_555
Cr5 N1 1.898096 1_555
Cr5 N9 1.951502 1_555
Cr5 N11 1.951502 1_555
Cr6 N4 1.898096 1_555
Cr6 N6 1.898096 1_555
Cr6 N14 1.951502 1_555
Cr6 N12 1.951502 1_555
Cr7 N5 1.898096 1_555
Cr7 N7 1.898096 1_555
Cr7 N15 1.951502 1_555
Cr7 N13 1.951502 1_555
