# generated using pymatgen
data_Li2CoO3
_symmetry_space_group_name_H-M   'P 1'
_cell_length_a   4.91130898
_cell_length_b   5.00120551
_cell_length_c   5.19529848
_cell_angle_alpha   78.80984571
_cell_angle_beta   77.09314324
_cell_angle_gamma   116.27442510
_symmetry_Int_Tables_number   1
_chemical_formula_structural   Li2CoO3
_chemical_formula_sum   'Li4 Co2 O6'
_cell_volume   105.08305587
_cell_formula_units_Z   2
loop_
 _symmetry_equiv_pos_site_id
 _symmetry_equiv_pos_as_xyz
  1  'x, y, z'
loop_
 _atom_site_type_symbol
 _atom_site_label
 _atom_site_symmetry_multiplicity
 _atom_site_fract_x
 _atom_site_fract_y
 _atom_site_fract_z
 _atom_site_occupancy
  Li  Li0  1  0.16666700  0.83340400  0.50000200  1
  Li  Li1  1  0.66661900  0.33329300  0.99998900  1
  Li  Li2  1  0.83815900  0.17664900  0.50719700  1
  Li  Li3  1  0.49507600  0.48997000  0.49285600  1
  Co  Co0  1  0.32987600  0.65380400  0.99076700  1
  Co  Co1  1  0.00351500  0.01290100  0.00920600  1
  O  O0  1  0.96540300  0.61981100  0.22814300  1
  O  O1  1  0.36799100  0.04687000  0.77184300  1
  O  O2  1  0.62052700  0.91786200  0.22699700  1
  O  O3  1  0.24843800  0.27010900  0.22917100  1
  O  O4  1  0.08484200  0.39656900  0.77089000  1
  O  O5  1  0.71288800  0.74875800  0.77293900  1
loop_
_geom_bond_atom_site_label_1
_geom_bond_atom_site_label_2
_geom_bond_distance
_geom_bond_site_symmetry_2
Li0 O1 2.094385 1_565
Li0 O0 2.094625 1_455
Li0 O5 2.162577 1_455
Li0 O2 2.163396 1_555
Li0 O3 2.165504 1_565
Li0 O4 2.166039 1_555
Li1 O4 1.980400 1_655
Li1 O3 1.980565 1_556
Li1 O5 2.066725 1_555
Li1 O2 2.066907 1_546
Li1 O1 2.276728 1_555
Li1 O0 2.277341 1_556
Li2 O3 1.992228 1_655
Li2 O5 2.042610 1_545
Li2 O0 2.127536 1_555
Li2 O1 2.133587 1_555
Li2 O4 2.168152 1_655
Li2 O2 2.266776 1_545
Li3 O4 1.992187 1_555
Li3 O2 2.042583 1_555
Li3 O1 2.127400 1_555
Li3 O0 2.134241 1_555
Li3 O3 2.167898 1_555
Li3 O5 2.266577 1_555
Co0 O5 1.759048 1_555
Co0 O0 1.848523 1_456
Co0 O3 1.884957 1_556
Co0 O1 1.975939 1_565
Co0 O4 2.054763 1_555
Co0 O2 2.242910 1_556
Co1 O2 1.758746 1_445
Co1 O1 1.848561 1_554
Co1 O4 1.884871 1_554
Co1 O0 1.976071 1_445
Co1 O3 2.054833 1_555
Co1 O5 2.243182 1_444
