# generated using pymatgen
data_Li4MnO2F3
_symmetry_space_group_name_H-M   'P 1'
_cell_length_a   5.10701100
_cell_length_b   5.26303469
_cell_length_c   7.67620833
_cell_angle_alpha   109.59190499
_cell_angle_beta   103.69237932
_cell_angle_gamma   97.18992520
_symmetry_Int_Tables_number   1
_chemical_formula_structural   Li4MnO2F3
_chemical_formula_sum   'Li8 Mn2 O4 F6'
_cell_volume   184.07955988
_cell_formula_units_Z   2
loop_
 _symmetry_equiv_pos_site_id
 _symmetry_equiv_pos_as_xyz
  1  'x, y, z'
loop_
 _atom_site_type_symbol
 _atom_site_label
 _atom_site_symmetry_multiplicity
 _atom_site_fract_x
 _atom_site_fract_y
 _atom_site_fract_z
 _atom_site_occupancy
  Li  Li0  1  0.49550300  0.57343400  0.31797400  1
  Li  Li1  1  0.50000000  0.00000000  0.50000000  1
  Li  Li2  1  0.00000000  0.50000000  0.00000000  1
  Li  Li3  1  0.51032100  0.20406100  0.09076800  1
  Li  Li4  1  0.99710100  0.67454600  0.59156900  1
  Li  Li5  1  0.00289900  0.32545400  0.40843100  1
  Li  Li6  1  0.48967900  0.79593900  0.90923200  1
  Li  Li7  1  0.50449700  0.42656600  0.68202600  1
  Mn  Mn0  1  0.98136800  0.10389100  0.79886100  1
  Mn  Mn1  1  0.01863200  0.89610900  0.20113900  1
  O  O0  1  0.22623700  0.86628400  0.03989000  1
  O  O1  1  0.75852200  0.32757600  0.56681100  1
  O  O2  1  0.24147800  0.67242400  0.43318900  1
  O  O3  1  0.77376300  0.13371600  0.96011000  1
  F  F0  1  0.74123900  0.73776500  0.74723000  1
  F  F1  1  0.76537500  0.94956100  0.34114300  1
  F  F2  1  0.73782700  0.53495200  0.15005600  1
  F  F3  1  0.26217300  0.46504800  0.84994400  1
  F  F4  1  0.23462500  0.05043900  0.65885700  1
  F  F5  1  0.25876100  0.26223500  0.25277000  1
loop_
_geom_bond_atom_site_label_1
_geom_bond_atom_site_label_2
_geom_bond_distance
_geom_bond_site_symmetry_2
Li0 O2 1.772000 1_555
Li1 O1 1.869539 1_555
Li1 O2 1.869539 1_545
Li2 O0 2.006011 1_555
Li2 O3 2.006011 1_454
Li2 Mn1 2.112158 1_555
Li2 Mn0 2.112158 1_454
Li3 O3 1.862144 1_554
Li3 O0 2.009543 1_545
Li4 O2 1.936102 1_655
Li4 O1 1.988983 1_555
Li5 O1 1.936102 1_455
Li5 O2 1.988983 1_555
Li6 O0 1.862144 1_556
Li6 O3 2.009543 1_565
Li7 O1 1.772000 1_555
Mn0 O3 1.792623 1_555
Mn1 O0 1.792623 1_555
F0 Li7 1.750119 1_555
F0 Li4 1.956342 1_555
F0 Li6 1.972348 1_555
F0 Mn0 2.010045 1_565
F1 Mn1 1.858317 1_655
F1 Li1 2.012356 1_565
F1 Li5 2.017288 1_665
F1 Li0 2.194258 1_555
F2 Li3 1.817009 1_555
F2 Li2 1.950131 1_655
F2 Li0 1.968973 1_555
F2 Mn1 2.091626 1_655
F3 Li6 1.817009 1_555
F3 Li2 1.950131 1_556
F3 Li7 1.968973 1_555
F3 Mn0 2.091626 1_455
F4 Mn0 1.858317 1_455
F4 Li1 2.012356 1_555
F4 Li4 2.017288 1_445
F4 Li7 2.194258 1_555
F5 Li0 1.750119 1_555
F5 Li5 1.956342 1_555
F5 Li3 1.972348 1_555
F5 Mn1 2.010045 1_545
