# generated using pymatgen
data_Ti5CuS10
_symmetry_space_group_name_H-M   'P 1'
_cell_length_a   5.91741347
_cell_length_b   6.76609554
_cell_length_c   8.30523145
_cell_angle_alpha   107.17809943
_cell_angle_beta   110.80653660
_cell_angle_gamma   90.04871347
_symmetry_Int_Tables_number   1
_chemical_formula_structural   Ti5CuS10
_chemical_formula_sum   'Ti5 Cu1 S10'
_cell_volume   294.88193029
_cell_formula_units_Z   1
loop_
 _symmetry_equiv_pos_site_id
 _symmetry_equiv_pos_as_xyz
  1  'x, y, z'
loop_
 _atom_site_type_symbol
 _atom_site_label
 _atom_site_symmetry_multiplicity
 _atom_site_fract_x
 _atom_site_fract_y
 _atom_site_fract_z
 _atom_site_occupancy
  Ti  Ti0  1  0.30591791  0.60088064  0.10097614  1
  Ti  Ti1  1  0.69408209  0.39911936  0.89902386  1
  Ti  Ti2  1  0.50000000  -0.00000000  0.50000000  1
  Ti  Ti3  1  0.09798472  0.19625721  0.70613204  1
  Ti  Ti4  1  0.90201528  0.80374279  0.29386796  1
  Cu  Cu0  1  0.00000000  0.50000000  0.50000000  1
  S  S0  1  0.38188669  0.34518969  0.60171640  1
  S  S1  1  0.18822512  0.94561659  0.20262995  1
  S  S2  1  0.98452089  0.54601664  0.80322418  1
  S  S3  1  0.78500483  0.14795882  0.40273757  1
  S  S4  1  0.58457744  0.74570736  0.00141702  1
  S  S5  1  0.21499517  0.85204118  0.59726243  1
  S  S6  1  0.01547911  0.45398336  0.19677582  1
  S  S7  1  0.81177488  0.05438341  0.79737005  1
  S  S8  1  0.61811331  0.65481031  0.39828360  1
  S  S9  1  0.41542256  0.25429264  -0.00141702  1
loop_
_geom_bond_atom_site_label_1
_geom_bond_atom_site_label_2
_geom_bond_distance
_geom_bond_site_symmetry_2
Cu0 S5 2.464331 1_555
Cu0 S3 2.464331 1_455
Cu0 S0 2.467373 1_555
Cu0 S8 2.467373 1_455
Cu0 S6 2.479551 1_555
Cu0 S2 2.479551 1_455
S0 Ti1 2.422592 1_555
S0 Ti2 2.431850 1_555
S0 Ti3 2.477509 1_555
S1 Ti4 2.388019 1_455
S1 Ti2 2.421501 1_565
S1 Ti0 2.428106 1_555
S2 Ti3 2.441622 1_655
S2 Ti0 2.446509 1_656
S2 Ti1 2.451597 1_555
S3 Ti4 2.434095 1_545
S3 Ti2 2.437544 1_555
S3 Ti3 2.466425 1_655
S4 Ti4 2.403363 1_555
S4 Ti0 2.409861 1_555
S4 Ti1 2.420415 1_554
S5 Ti3 2.434095 1_565
S5 Ti2 2.437544 1_565
S5 Ti4 2.466425 1_455
S6 Ti4 2.441622 1_455
S6 Ti1 2.446509 1_454
S6 Ti0 2.451597 1_555
S7 Ti3 2.388019 1_655
S7 Ti2 2.421501 1_555
S7 Ti1 2.428106 1_555
S8 Ti0 2.422592 1_555
S8 Ti2 2.431850 1_565
S8 Ti4 2.477509 1_555
S9 Ti3 2.403363 1_554
S9 Ti1 2.409861 1_554
S9 Ti0 2.420415 1_555
