# generated using pymatgen
data_Fe2S2O13
_symmetry_space_group_name_H-M   'P 1'
_cell_length_a   6.97343200
_cell_length_b   7.19689702
_cell_length_c   10.97449469
_cell_angle_alpha   88.75036206
_cell_angle_beta   82.68846164
_cell_angle_gamma   86.39637770
_symmetry_Int_Tables_number   1
_chemical_formula_structural   Fe2S2O13
_chemical_formula_sum   'Fe4 S4 O26'
_cell_volume   545.16606707
_cell_formula_units_Z   2
loop_
 _symmetry_equiv_pos_site_id
 _symmetry_equiv_pos_as_xyz
  1  'x, y, z'
loop_
 _atom_site_type_symbol
 _atom_site_label
 _atom_site_symmetry_multiplicity
 _atom_site_fract_x
 _atom_site_fract_y
 _atom_site_fract_z
 _atom_site_occupancy
  Fe  Fe0  1  0.41113700  0.32018600  0.55548400  1
  Fe  Fe1  1  0.58886300  0.67981400  0.44451600  1
  Fe  Fe2  1  0.30022000  0.72428000  0.71809500  1
  Fe  Fe3  1  0.69978000  0.27572000  0.28190500  1
  S  S0  1  0.11192700  0.36121700  0.81421600  1
  S  S1  1  0.88807300  0.63878300  0.18578400  1
  S  S2  1  0.66438900  0.97311600  0.66073200  1
  S  S3  1  0.33561100  0.02688400  0.33926800  1
  O  O0  1  0.21363400  0.54088800  0.83692600  1
  O  O1  1  0.78636600  0.45911200  0.16307400  1
  O  O2  1  0.90618700  0.40412000  0.81412000  1
  O  O3  1  0.09381300  0.59588000  0.18588000  1
  O  O4  1  0.79881500  0.70531700  0.31215600  1
  O  O5  1  0.20118500  0.29468300  0.68784400  1
  O  O6  1  0.16301700  0.23043900  0.90968600  1
  O  O7  1  0.83698300  0.76956100  0.09031400  1
  O  O8  1  0.70582300  0.85957500  0.54681000  1
  O  O9  1  0.29417700  0.14042500  0.45319000  1
  O  O10  1  0.48440900  0.90924500  0.73847000  1
  O  O11  1  0.51559100  0.09075500  0.26153000  1
  O  O12  1  0.82385700  0.96510900  0.73396000  1
  O  O13  1  0.17614300  0.03489100  0.26604000  1
  O  O14  1  0.38104900  0.82876400  0.37880400  1
  O  O15  1  0.61895100  0.17123600  0.62119600  1
  O  O16  1  0.55122100  0.42110000  0.40151200  1
  O  O17  1  0.44877900  0.57890000  0.59848800  1
  O  O18  1  0.63219100  0.19853900  0.99271400  1
  O  O19  1  0.36780900  0.80146100  0.00728600  1
  O  O20  1  0.49521400  0.30491100  0.03038100  1
  O  O21  1  0.50478600  0.69508900  0.96961900  1
  O  O22  1  0.07864800  0.52615200  0.47747200  1
  O  O23  1  0.92135200  0.47384800  0.52252800  1
  O  O24  1  0.10858500  0.81895100  0.65225600  1
  O  O25  1  0.89141500  0.18104900  0.34774400  1
loop_
_geom_bond_atom_site_label_1
_geom_bond_atom_site_label_2
_geom_bond_distance
_geom_bond_site_symmetry_2
Fe0 O5 1.941154 1_555
Fe0 O15 1.950978 1_555
Fe0 O17 1.972245 1_555
Fe0 O16 1.988102 1_555
Fe0 O9 2.007055 1_555
Fe1 O4 1.941154 1_555
Fe1 O14 1.950978 1_555
Fe1 O16 1.972245 1_555
Fe1 O17 1.988102 1_555
Fe1 O8 2.007055 1_555
Fe2 O24 1.697639 1_555
Fe2 O17 1.862379 1_555
Fe2 O0 1.905774 1_555
Fe2 O10 1.942370 1_555
Fe3 O25 1.697639 1_555
Fe3 O16 1.862379 1_555
Fe3 O1 1.905774 1_555
Fe3 O11 1.942370 1_555
O0 S0 1.552908 1_555
O1 S1 1.552908 1_555
O2 S0 1.448594 1_655
O3 S1 1.448594 1_455
O4 S1 1.520492 1_555
O5 S0 1.520492 1_555
O6 S0 1.456151 1_555
O7 S1 1.456151 1_555
O8 S2 1.495738 1_555
O9 S3 1.495738 1_555
O10 S2 1.515666 1_555
O11 S3 1.515666 1_555
O12 S2 1.450235 1_555
O13 S3 1.450235 1_555
O14 S3 1.507620 1_565
O15 S2 1.507620 1_545
O18 O20 1.220954 1_556
O19 O21 1.220954 1_554
O22 O23 1.222744 1_455
