# generated using pymatgen
data_Mg6NbB
_symmetry_space_group_name_H-M   'P 1'
_cell_length_a   4.57242700
_cell_length_b   6.40752600
_cell_length_c   10.74132400
_cell_angle_alpha   90.00000000
_cell_angle_beta   90.00000000
_cell_angle_gamma   90.00000000
_symmetry_Int_Tables_number   1
_chemical_formula_structural   Mg6NbB
_chemical_formula_sum   'Mg12 Nb2 B2'
_cell_volume   314.69871855
_cell_formula_units_Z   2
loop_
 _symmetry_equiv_pos_site_id
 _symmetry_equiv_pos_as_xyz
  1  'x, y, z'
loop_
 _atom_site_type_symbol
 _atom_site_label
 _atom_site_symmetry_multiplicity
 _atom_site_fract_x
 _atom_site_fract_y
 _atom_site_fract_z
 _atom_site_occupancy
  Mg  Mg0  1  0.00000000  0.26444600  0.08224800  1
  Mg  Mg1  1  0.00000000  0.73555400  0.08224800  1
  Mg  Mg2  1  0.00000000  0.50000000  0.82911900  1
  Mg  Mg3  1  0.50000000  0.24416900  0.90104100  1
  Mg  Mg4  1  0.50000000  0.75583100  0.90104100  1
  Mg  Mg5  1  0.50000000  0.50000000  0.65982000  1
  Mg  Mg6  1  0.00000000  0.76444600  0.58224800  1
  Mg  Mg7  1  0.00000000  0.23555400  0.58224800  1
  Mg  Mg8  1  0.00000000  0.00000000  0.32911900  1
  Mg  Mg9  1  0.50000000  0.74416900  0.40104100  1
  Mg  Mg10  1  0.50000000  0.25583100  0.40104100  1
  Mg  Mg11  1  0.50000000  0.00000000  0.15982000  1
  Nb  Nb0  1  0.00000000  0.50000000  0.31377200  1
  Nb  Nb1  1  0.00000000  0.00000000  0.81377200  1
  B  B0  1  0.50000000  0.50000000  0.23071100  1
  B  B1  1  0.50000000  0.00000000  0.73071100  1
loop_
_geom_bond_atom_site_label_1
_geom_bond_atom_site_label_2
_geom_bond_distance
_geom_bond_site_symmetry_2
Mg0 Nb0 2.909052 1_555
Mg0 Mg11 2.965161 1_455
Mg0 Mg11 2.965161 1_555
Mg0 Mg2 3.109772 1_554
Mg0 Mg8 3.146867 1_555
Mg1 Nb0 2.909052 1_555
Mg1 Mg11 2.965161 1_565
Mg1 Mg11 2.965161 1_465
Mg1 Mg2 3.109772 1_554
Mg1 Mg8 3.146867 1_565
Mg2 Mg3 2.917312 1_455
Mg2 Mg4 2.917312 1_455
Mg2 Mg3 2.917312 1_555
Mg2 Mg4 2.917312 1_555
Mg2 Mg5 2.921249 1_555
Mg2 Mg5 2.921249 1_455
Mg2 Mg7 3.146867 1_555
Mg2 Mg6 3.146867 1_555
Mg2 Nb1 3.208001 1_555
Mg2 Nb1 3.208001 1_565
Mg3 Mg5 3.066035 1_555
Mg4 Mg5 3.066035 1_555
Mg5 Mg6 2.965161 1_655
Mg5 Mg7 2.965161 1_555
Mg5 Mg7 2.965161 1_655
Mg5 Mg6 2.965161 1_555
Mg5 Mg9 3.189680 1_555
Mg6 Nb1 2.909052 1_565
Mg6 Mg8 3.109772 1_565
Mg7 Nb1 2.909052 1_555
Mg7 Mg8 3.109772 1_555
Mg8 Mg9 2.917312 1_545
Mg8 Mg9 2.917312 1_445
Mg8 Nb0 3.208001 1_545
Mg8 Nb0 3.208001 1_555
Mg10 Mg8 2.917312 1_555
Mg10 Mg8 2.917312 1_655
Mg10 Mg11 3.066035 1_555
Mg10 Mg5 3.189680 1_555
Mg11 Mg8 2.921249 1_555
Mg11 Mg8 2.921249 1_655
Mg11 Mg9 3.066035 1_545
Mg11 Mg4 3.189680 1_544
Mg11 Mg3 3.189680 1_554
B0 Mg9 2.407290 1_555
B0 Mg10 2.407290 1_555
B0 Nb0 2.454133 1_555
B0 Nb0 2.454133 1_655
B1 Mg3 2.407290 1_555
B1 Mg4 2.407290 1_545
B1 Nb1 2.454133 1_655
B1 Nb1 2.454133 1_555
