# generated using pymatgen
data_Ca4Ti3FeO12
_symmetry_space_group_name_H-M   'P 1'
_cell_length_a   5.47801959
_cell_length_b   5.46855479
_cell_length_c   7.67474421
_cell_angle_alpha   90.02974497
_cell_angle_beta   89.90394484
_cell_angle_gamma   89.84010059
_symmetry_Int_Tables_number   1
_chemical_formula_structural   Ca4Ti3FeO12
_chemical_formula_sum   'Ca4 Ti3 Fe1 O12'
_cell_volume   229.90991333
_cell_formula_units_Z   1
loop_
 _symmetry_equiv_pos_site_id
 _symmetry_equiv_pos_as_xyz
  1  'x, y, z'
loop_
 _atom_site_type_symbol
 _atom_site_label
 _atom_site_symmetry_multiplicity
 _atom_site_fract_x
 _atom_site_fract_y
 _atom_site_fract_z
 _atom_site_occupancy
  Ca  Ca0  1  0.98551100  0.99811900  0.75237500  1
  Ca  Ca1  1  0.01447600  0.00158500  0.24757600  1
  Ca  Ca2  1  0.49050400  0.50366300  0.24603300  1
  Ca  Ca3  1  0.50955500  0.49593200  0.75411800  1
  Ti  Ti0  1  0.00005100  0.49975400  0.00003700  1
  Ti  Ti1  1  0.50003600  0.99987000  0.50003700  1
  Ti  Ti2  1  0.00005900  0.49987600  0.50000800  1
  Fe  Fe0  1  0.49992400  0.99965700  0.00022400  1
  O  O0  1  0.75167100  0.24877000  0.54262300  1
  O  O1  1  0.24805000  0.75086900  0.45728400  1
  O  O2  1  0.08005000  0.50036300  0.74918100  1
  O  O3  1  0.91994900  0.49892100  0.25073400  1
  O  O4  1  0.25308900  0.25345800  0.04644200  1
  O  O5  1  0.74704500  0.74595700  0.95349100  1
  O  O6  1  0.74851800  0.74800500  0.54521300  1
  O  O7  1  0.25137900  0.25153800  0.45469700  1
  O  O8  1  0.41464000  0.00611100  0.74916100  1
  O  O9  1  0.58534800  0.99321100  0.25079900  1
  O  O10  1  0.24559700  0.75018000  0.04496400  1
  O  O11  1  0.75455100  0.24915200  0.95500300  1
loop_
_geom_bond_atom_site_label_1
_geom_bond_atom_site_label_2
_geom_bond_distance
_geom_bond_site_symmetry_2
Ca0 O8 2.351394 1_665
Ca0 O11 2.425937 1_565
Ca0 O5 2.448663 1_555
Ca0 O6 2.469542 1_555
Ca0 O0 2.471955 1_565
Ca1 O9 2.351434 1_445
Ca1 O10 2.427464 1_545
Ca1 O4 2.448288 1_555
Ca1 O7 2.468590 1_555
Ca1 O1 2.471178 1_545
Ca2 O3 2.352916 1_555
Ca2 O4 2.434025 1_555
Ca2 O10 2.448997 1_555
Ca2 O7 2.487339 1_555
Ca2 O1 2.490109 1_555
Ca3 O2 2.353263 1_555
Ca3 O5 2.432638 1_555
Ca3 O11 2.449163 1_555
Ca3 O6 2.487904 1_555
Ca3 O0 2.490214 1_555
Fe0 O4 1.966702 1_565
Fe0 O5 1.968098 1_554
Fe0 O9 1.980285 1_555
Fe0 O10 1.982342 1_555
Fe0 O8 1.983743 1_564
Fe0 O11 1.984207 1_564
O0 Ti2 1.963020 1_655
O0 Ti1 1.967525 1_545
O1 Ti2 1.961215 1_555
O1 Ti1 1.969474 1_555
O2 Ti2 1.962618 1_555
O2 Ti0 1.973793 1_556
O3 Ti2 1.963526 1_655
O3 Ti0 1.972731 1_655
O4 Ti0 1.963179 1_555
O5 Ti0 1.962906 1_656
O6 Ti2 1.961574 1_655
O6 Ti1 1.965126 1_555
O7 Ti2 1.961658 1_555
O7 Ti1 1.965260 1_545
O8 Ti1 1.967854 1_545
O9 Ti1 1.968633 1_555
O10 Ti0 1.953200 1_555
O11 Ti0 1.953848 1_656
