# generated using pymatgen
data_Tb5Pt3
_symmetry_space_group_name_H-M   'P 1'
_cell_length_a   8.44427619
_cell_length_b   8.44427619
_cell_length_c   6.18502811
_cell_angle_alpha   90.00000000
_cell_angle_beta   90.00000000
_cell_angle_gamma   120.00000385
_symmetry_Int_Tables_number   1
_chemical_formula_structural   Tb5Pt3
_chemical_formula_sum   'Tb10 Pt6'
_cell_volume   381.94176592
_cell_formula_units_Z   2
loop_
 _symmetry_equiv_pos_site_id
 _symmetry_equiv_pos_as_xyz
  1  'x, y, z'
loop_
 _atom_site_type_symbol
 _atom_site_label
 _atom_site_symmetry_multiplicity
 _atom_site_fract_x
 _atom_site_fract_y
 _atom_site_fract_z
 _atom_site_occupancy
  Tb  Tb0  1  0.66666700  0.33333300  -0.00000000  1
  Tb  Tb1  1  0.33333300  0.66666700  -0.00000000  1
  Tb  Tb2  1  0.33333300  0.66666700  0.50000000  1
  Tb  Tb3  1  0.66666700  0.33333300  0.50000000  1
  Tb  Tb4  1  0.75188127  0.75188127  0.75000000  1
  Tb  Tb5  1  0.24811873  0.00000000  0.75000000  1
  Tb  Tb6  1  0.00000000  0.24811873  0.75000000  1
  Tb  Tb7  1  0.24811873  0.24811873  0.25000000  1
  Tb  Tb8  1  0.75188127  -0.00000000  0.25000000  1
  Tb  Tb9  1  -0.00000000  0.75188127  0.25000000  1
  Pt  Pt0  1  0.39310252  0.39310252  0.75000000  1
  Pt  Pt1  1  0.60689748  -0.00000000  0.75000000  1
  Pt  Pt2  1  -0.00000000  0.60689748  0.75000000  1
  Pt  Pt3  1  0.60689748  0.60689748  0.25000000  1
  Pt  Pt4  1  0.39310252  0.00000000  0.25000000  1
  Pt  Pt5  1  0.00000000  0.39310252  0.25000000  1
loop_
_geom_bond_atom_site_label_1
_geom_bond_atom_site_label_2
_geom_bond_distance
_geom_bond_site_symmetry_2
Tb0 Tb3 3.092514 1_554
Tb0 Tb3 3.092514 1_555
Tb0 Tb6 3.585662 1_654
Tb0 Tb8 3.585662 1_555
Tb0 Tb9 3.585666 1_655
Tb0 Tb5 3.585666 1_554
Tb0 Tb4 3.585669 1_554
Tb0 Tb7 3.585669 1_555
Tb1 Tb2 3.092514 1_555
Tb1 Tb2 3.092514 1_554
Tb1 Tb5 3.585662 1_564
Tb1 Tb9 3.585662 1_555
Tb1 Tb8 3.585666 1_565
Tb1 Tb6 3.585666 1_554
Tb1 Tb7 3.585669 1_555
Tb1 Tb4 3.585669 1_554
Tb2 Tb5 3.585662 1_565
Tb2 Tb9 3.585662 1_555
Tb2 Tb6 3.585666 1_555
Tb2 Tb8 3.585666 1_565
Tb2 Tb7 3.585669 1_555
Tb2 Tb4 3.585669 1_555
Tb3 Tb6 3.585662 1_655
Tb3 Tb8 3.585662 1_555
Tb3 Tb9 3.585666 1_655
Tb3 Tb5 3.585666 1_555
Tb3 Tb4 3.585669 1_555
Tb3 Tb7 3.585669 1_555
Tb4 Tb6 3.628963 1_665
Tb4 Tb5 3.628963 1_665
Tb4 Tb9 3.735430 1_655
Tb4 Tb8 3.735430 1_566
Tb4 Tb9 3.735430 1_656
Tb4 Tb8 3.735430 1_565
Tb5 Tb6 3.628964 1_555
Tb5 Tb9 3.735430 1_545
Tb5 Tb9 3.735430 1_546
Tb5 Tb7 3.735430 1_556
Tb5 Tb7 3.735430 1_555
Tb6 Tb8 3.735430 1_456
Tb6 Tb8 3.735430 1_455
Tb6 Tb7 3.735430 1_556
Tb6 Tb7 3.735430 1_555
Tb7 Tb8 3.628963 1_455
Tb7 Tb9 3.628963 1_545
Tb8 Tb9 3.628964 1_645
Pt0 Tb5 2.907535 1_555
Pt0 Tb6 2.907535 1_555
Pt0 Tb3 3.024550 1_555
Pt0 Tb0 3.024550 1_556
Pt0 Tb1 3.024550 1_556
Pt0 Tb2 3.024550 1_555
Pt0 Tb4 3.029627 1_555
Pt0 Tb7 3.326036 1_556
Pt0 Tb7 3.326036 1_555
Pt1 Tb6 2.907535 1_655
Pt1 Tb4 2.907535 1_545
Pt1 Tb3 3.024543 1_555
Pt1 Tb0 3.024543 1_556
Pt1 Tb2 3.024545 1_545
Pt1 Tb1 3.024545 1_546
Pt1 Tb5 3.029627 1_555
Pt1 Tb8 3.326036 1_556
Pt1 Tb8 3.326036 1_555
Pt2 Tb5 2.907535 1_565
Pt2 Tb4 2.907535 1_455
Pt2 Tb1 3.024543 1_556
Pt2 Tb2 3.024543 1_555
Pt2 Tb3 3.024545 1_455
Pt2 Tb0 3.024545 1_456
Pt2 Tb6 3.029627 1_555
Pt2 Tb9 3.326036 1_555
Pt2 Tb9 3.326036 1_556
Pt3 Tb9 2.907535 1_655
Pt3 Tb8 2.907535 1_565
Pt3 Tb3 3.024550 1_555
Pt3 Tb1 3.024550 1_555
Pt3 Tb2 3.024550 1_555
Pt3 Tb0 3.024550 1_555
Pt3 Tb7 3.029627 1_555
Pt3 Tb4 3.326036 1_555
Pt3 Tb4 3.326036 1_554
Pt4 Tb9 2.907535 1_545
Pt4 Tb7 2.907535 1_555
Pt4 Tb2 3.024543 1_545
Pt4 Tb1 3.024543 1_545
Pt4 Tb0 3.024545 1_555
Pt4 Tb3 3.024545 1_555
Pt4 Tb8 3.029627 1_555
Pt4 Tb5 3.326036 1_554
Pt4 Tb5 3.326036 1_555
Pt5 Tb8 2.907535 1_455
Pt5 Tb7 2.907535 1_555
Pt5 Tb0 3.024543 1_455
Pt5 Tb3 3.024543 1_455
Pt5 Tb1 3.024545 1_555
Pt5 Tb2 3.024545 1_555
Pt5 Tb9 3.029627 1_555
Pt5 Tb6 3.326036 1_555
Pt5 Tb6 3.326036 1_554
