# generated using pymatgen
data_Fe4Co(BiO3)5
_symmetry_space_group_name_H-M   'P 1'
_cell_length_a   5.60818218
_cell_length_b   5.66845188
_cell_length_c   23.18592493
_cell_angle_alpha   96.81063434
_cell_angle_beta   89.75411919
_cell_angle_gamma   119.56141183
_symmetry_Int_Tables_number   1
_chemical_formula_structural   Fe4Co(BiO3)5
_chemical_formula_sum   'Fe8 Co2 Bi10 O30'
_cell_volume   635.34750678
_cell_formula_units_Z   2
loop_
 _symmetry_equiv_pos_site_id
 _symmetry_equiv_pos_as_xyz
  1  'x, y, z'
loop_
 _atom_site_type_symbol
 _atom_site_label
 _atom_site_symmetry_multiplicity
 _atom_site_fract_x
 _atom_site_fract_y
 _atom_site_fract_z
 _atom_site_occupancy
  Fe  Fe0  1  0.81438300  0.62621100  0.54317300  1
  Fe  Fe1  1  0.21000100  0.41924200  0.74421900  1
  Fe  Fe2  1  0.61391300  0.22529300  0.94541700  1
  Fe  Fe3  1  0.11310200  0.22292000  0.44211000  1
  Fe  Fe4  1  0.51232800  0.02371800  0.64340700  1
  Fe  Fe5  1  0.91117100  0.82278400  0.84507900  1
  Fe  Fe6  1  0.31014400  0.62164500  0.04593100  1
  Fe  Fe7  1  0.70951900  0.42217600  0.24566800  1
  Co  Co0  1  0.00645900  0.01141700  0.14527500  1
  Co  Co1  1  0.39953000  0.80101700  0.34201100  1
  Bi  Bi0  1  0.09228700  0.18841400  0.29936400  1
  Bi  Bi1  1  0.50093100  0.99976800  0.49615200  1
  Bi  Bi2  1  0.89658400  0.79444500  0.69915900  1
  Bi  Bi3  1  0.30032900  0.60001100  0.90089200  1
  Bi  Bi4  1  0.69563600  0.39504600  0.10151000  1
  Bi  Bi5  1  0.00042800  0.99809700  0.00230600  1
  Bi  Bi6  1  0.39933000  0.79984700  0.20131700  1
  Bi  Bi7  1  0.79845900  0.59949700  0.39694200  1
  Bi  Bi8  1  0.20108500  0.39801000  0.59872800  1
  Bi  Bi9  1  0.59784300  0.19630900  0.79964700  1
  O  O0  1  0.61047000  0.07480500  0.28987300  1
  O  O1  1  0.01317900  0.88179700  0.48513300  1
  O  O2  1  0.41464800  0.67341300  0.68657600  1
  O  O3  1  0.81667400  0.48014600  0.88847700  1
  O  O4  1  0.21368500  0.28116600  0.08917400  1
  O  O5  1  0.31580300  0.16349600  0.20883400  1
  O  O6  1  0.69960500  0.95800000  0.40440000  1
  O  O7  1  0.10414300  0.75984100  0.60751600  1
  O  O8  1  0.50000100  0.55682700  0.80899500  1
  O  O9  1  0.90472200  0.36037000  0.00977100  1
  O  O10  1  0.19570300  0.98286200  0.37507700  1
  O  O11  1  0.59102300  0.78850800  0.57634500  1
  O  O12  1  0.98940600  0.58349700  0.77769500  1
  O  O13  1  0.39392500  0.39029300  0.97955600  1
  O  O14  1  0.79902600  0.19042100  0.18008400  1
  O  O15  1  0.09866700  0.59518000  0.27944100  1
  O  O16  1  0.49438800  0.38745500  0.47599500  1
  O  O17  1  0.89732000  0.18462500  0.67712400  1
  O  O18  1  0.29562000  0.98860800  0.87888900  1
  O  O19  1  0.68963900  0.78735000  0.07948000  1
  O  O20  1  0.55337000  0.56974300  0.30768400  1
  O  O21  1  0.95486000  0.35935800  0.50578000  1
  O  O22  1  0.35593900  0.15578700  0.70866200  1
  O  O23  1  0.75491500  0.95995400  0.90962200  1
  O  O24  1  0.15315700  0.76627900  0.10869300  1
  O  O25  1  0.17341700  0.48630400  0.38558900  1
  O  O26  1  0.56347300  0.28149500  0.58671800  1
  O  O27  1  0.96045000  0.07452700  0.78715500  1
  O  O28  1  0.36387400  0.88074500  0.98935100  1
  O  O29  1  0.77183700  0.68408300  0.18920100  1
loop_
_geom_bond_atom_site_label_1
_geom_bond_atom_site_label_2
_geom_bond_distance
_geom_bond_site_symmetry_2
Fe0 O11 1.991987 1_555
Fe0 O7 1.994575 1_655
Fe0 O1 2.002157 1_655
Fe0 O21 2.125882 1_555
Fe0 O26 2.135471 1_555
Fe0 O16 2.146110 1_555
Fe1 O12 1.989161 1_455
Fe1 O2 1.997797 1_555
Fe1 O8 2.000153 1_555
Fe1 O22 2.118474 1_555
Fe1 O17 2.120229 1_455
Fe1 O27 2.125771 1_455
Fe2 O3 1.985321 1_555
Fe2 O13 1.994496 1_555
Fe2 O9 1.997567 1_556
Fe2 O23 2.109068 1_545
Fe2 O18 2.129662 1_545
Fe2 O28 2.139090 1_545
Fe3 O16 1.983010 1_555
Fe3 O21 1.990026 1_455
Fe3 O25 2.005675 1_555
Fe3 O1 2.105125 1_545
Fe3 O10 2.143841 1_545
Fe3 O6 2.160334 1_445
Fe4 O26 1.995924 1_555
Fe4 O22 1.996664 1_555
Fe4 O17 2.001757 1_555
Fe4 O11 2.114976 1_545
Fe4 O7 2.124312 1_545
Fe4 O2 2.153656 1_545
Fe5 O27 1.994648 1_565
Fe5 O18 1.996673 1_655
Fe5 O23 1.999265 1_555
Fe5 O3 2.123418 1_555
Fe5 O12 2.133536 1_555
Fe5 O8 2.139452 1_555
Fe6 O19 1.971120 1_555
Fe6 O24 1.995778 1_555
Fe6 O28 1.996433 1_554
Fe6 O13 2.105252 1_554
Fe6 O4 2.108763 1_555
Fe6 O9 2.113103 1_455
Fe7 O20 1.990181 1_555
Fe7 O29 1.996352 1_555
Fe7 O15 2.014589 1_655
Fe7 O5 2.068665 1_555
Fe7 O14 2.111965 1_555
Fe7 O0 2.151920 1_555
Co0 O14 1.999171 1_455
Co0 O4 2.021374 1_555
Co0 O5 2.041948 1_555
Co0 O24 2.041963 1_545
Co0 O29 2.058908 1_445
Co0 O19 2.105787 1_445
Co1 O0 1.972443 1_565
Co1 O10 1.981068 1_555
Co1 O6 1.988565 1_555
Co1 O20 1.989752 1_555
Co1 O15 1.997497 1_555
Co1 O25 1.998937 1_555
Bi0 O25 2.346102 1_555
Bi0 O15 2.387915 1_555
Bi0 O20 2.405472 1_555
Bi0 O10 2.436456 1_545
Bi0 O0 2.453379 1_455
Bi0 O5 2.465553 1_555
Bi1 O16 2.317857 1_565
Bi1 O21 2.337129 1_565
Bi1 O26 2.396035 1_565
Bi1 O6 2.437955 1_555
Bi1 O1 2.481020 1_555
Bi1 O11 2.505928 1_555
Bi2 O17 2.326307 1_565
Bi2 O27 2.342750 1_565
Bi2 O22 2.360458 1_665
Bi2 O2 2.447549 1_555
Bi2 O7 2.452252 1_655
Bi2 O12 2.480995 1_555
Bi3 O18 2.331755 1_555
Bi3 O23 2.340368 1_555
Bi3 O28 2.353411 1_555
Bi3 O8 2.445426 1_555
Bi3 O3 2.458375 1_455
Bi3 O13 2.480621 1_555
Bi4 O29 2.351035 1_555
Bi4 O19 2.355943 1_555
Bi4 O24 2.373275 1_655
Bi4 O9 2.458621 1_555
Bi4 O4 2.458714 1_555
Bi4 O14 2.484843 1_555
Bi5 O4 2.328583 1_565
Bi5 O13 2.349015 1_564
Bi5 O9 2.353185 1_465
Bi5 O28 2.443865 1_554
Bi5 O19 2.468300 1_455
Bi5 O23 2.486373 1_454
Bi6 O5 2.316405 1_565
Bi6 O0 2.342649 1_565
Bi6 O14 2.349644 1_565
Bi6 O15 2.451978 1_555
Bi6 O29 2.485497 1_555
Bi6 O24 2.494716 1_555
Bi7 O10 2.327481 1_655
Bi7 O6 2.344011 1_555
Bi7 O1 2.352790 1_655
Bi7 O20 2.431778 1_555
Bi7 O16 2.487072 1_555
Bi7 O25 2.487847 1_655
Bi8 O11 2.331887 1_555
Bi8 O2 2.332839 1_555
Bi8 O7 2.354564 1_555
Bi8 O26 2.433128 1_555
Bi8 O17 2.476056 1_455
Bi8 O21 2.492838 1_455
Bi9 O12 2.323369 1_555
Bi9 O8 2.350458 1_555
Bi9 O3 2.371534 1_555
Bi9 O22 2.438378 1_555
Bi9 O27 2.455298 1_555
Bi9 O18 2.480301 1_545
