# generated using pymatgen
data_UH12C6N3O8
_symmetry_space_group_name_H-M   'P 1'
_cell_length_a   9.38551500
_cell_length_b   14.06618700
_cell_length_c   13.01381176
_cell_angle_alpha   90.00000000
_cell_angle_beta   123.62464902
_cell_angle_gamma   90.00000000
_symmetry_Int_Tables_number   1
_chemical_formula_structural   UH12C6N3O8
_chemical_formula_sum   'U4 H48 C24 N12 O32'
_cell_volume   1430.60177982
_cell_formula_units_Z   4
loop_
 _symmetry_equiv_pos_site_id
 _symmetry_equiv_pos_as_xyz
  1  'x, y, z'
loop_
 _atom_site_type_symbol
 _atom_site_label
 _atom_site_symmetry_multiplicity
 _atom_site_fract_x
 _atom_site_fract_y
 _atom_site_fract_z
 _atom_site_occupancy
  U  U0  1  0.59350300  0.27645000  0.00698100  1
  U  U1  1  0.59350300  0.22355000  0.50698100  1
  U  U2  1  0.40649700  0.72355000  0.99301900  1
  U  U3  1  0.40649700  0.77645000  0.49301900  1
  H  H0  1  0.06307600  0.07645100  0.31808700  1
  H  H1  1  0.06307600  0.42354900  0.81808700  1
  H  H2  1  0.93692400  0.92354900  0.68191300  1
  H  H3  1  0.93692400  0.57645100  0.18191300  1
  H  H4  1  0.97030000  0.11855400  0.39753900  1
  H  H5  1  0.97030000  0.38144600  0.89753900  1
  H  H6  1  0.02970000  0.88144600  0.60246100  1
  H  H7  1  0.02970000  0.61855400  0.10246100  1
  H  H8  1  0.12504200  0.18956900  0.39403400  1
  H  H9  1  0.12504200  0.31043100  0.89403400  1
  H  H10  1  0.87495800  0.81043100  0.60596600  1
  H  H11  1  0.87495800  0.68956900  0.10596600  1
  H  H12  1  0.12399300  0.10149800  0.65853700  1
  H  H13  1  0.12399300  0.39850200  0.15853700  1
  H  H14  1  0.87600700  0.89850200  0.34146300  1
  H  H15  1  0.87600700  0.60149800  0.84146300  1
  H  H16  1  0.29030400  0.01304400  0.72497300  1
  H  H17  1  0.29030400  0.48695600  0.22497300  1
  H  H18  1  0.70969600  0.98695600  0.27502700  1
  H  H19  1  0.70969600  0.51304400  0.77502700  1
  H  H20  1  0.27887600  0.10084900  0.62076000  1
  H  H21  1  0.27887600  0.39915100  0.12076000  1
  H  H22  1  0.72112400  0.89915100  0.37924000  1
  H  H23  1  0.72112400  0.60084900  0.87924000  1
  H  H24  1  0.97313200  0.41132900  0.32724100  1
  H  H25  1  0.97313200  0.08867100  0.82724100  1
  H  H26  1  0.02686800  0.58867100  0.67275900  1
  H  H27  1  0.02686800  0.91132900  0.17275900  1
  H  H28  1  0.13314400  0.49944700  0.38057900  1
  H  H29  1  0.13314400  0.00055300  0.88057900  1
  H  H30  1  0.86685600  0.50055300  0.61942100  1
  H  H31  1  0.86685600  0.99944700  0.11942100  1
  H  H32  1  0.36015700  0.50411900  0.58824500  1
  H  H33  1  0.36015700  0.99588100  0.08824500  1
  H  H34  1  0.63984300  0.49588100  0.41175500  1
  H  H35  1  0.63984300  0.00411900  0.91175500  1
  H  H36  1  0.35654900  0.42665200  0.69252200  1
  H  H37  1  0.35654900  0.07334800  0.19252200  1
  H  H38  1  0.64345100  0.57334800  0.30747800  1
  H  H39  1  0.64345100  0.92665200  0.80747800  1
  H  H40  1  0.97541000  0.30896800  0.47154600  1
  H  H41  1  0.97541000  0.19103200  0.97154600  1
  H  H42  1  0.02459000  0.69103200  0.52845400  1
  H  H43  1  0.02459000  0.80896800  0.02845400  1
  H  H44  1  0.15138800  0.31012000  0.62533700  1
  H  H45  1  0.15138800  0.18988000  0.12533700  1
  H  H46  1  0.84861200  0.68988000  0.37466300  1
  H  H47  1  0.84861200  0.81012000  0.87466300  1
  C  C0  1  0.87456900  0.18592100  0.22604400  1
  C  C1  1  0.87456900  0.31407900  0.72604400  1
  C  C2  1  0.12543100  0.81407900  0.77395600  1
  C  C3  1  0.12543100  0.68592100  0.27395600  1
  C  C4  1  0.37124100  0.15316000  0.79990300  1
  C  C5  1  0.37124100  0.34684000  0.29990300  1
  C  C6  1  0.62875900  0.84684000  0.20009700  1
  C  C7  1  0.62875900  0.65316000  0.70009700  1
  C  C8  1  0.42905400  0.49551500  0.93115500  1
  C  C9  1  0.42905400  0.00448500  0.43115500  1
  C  C10  1  0.57094600  0.50448500  0.06884500  1
  C  C11  1  0.57094600  0.99551500  0.56884500  1
  C  C12  1  0.01857800  0.14000600  0.34089600  1
  C  C13  1  0.01857800  0.35999400  0.84089600  1
  C  C14  1  0.98142200  0.85999400  0.65910400  1
  C  C15  1  0.98142200  0.64000600  0.15910400  1
  C  C16  1  0.25886600  0.08715000  0.69501500  1
  C  C17  1  0.25886600  0.41285000  0.19501500  1
  C  C18  1  0.74113400  0.91285000  0.30498500  1
  C  C19  1  0.74113400  0.58715000  0.80498500  1
  C  C20  1  0.15738900  0.41030100  0.51342700  1
  C  C21  1  0.15738900  0.08969900  0.01342700  1
  C  C22  1  0.84261100  0.58969900  0.48657300  1
  C  C23  1  0.84261100  0.91030100  0.98657300  1
  N  N0  1  0.08129600  0.44280200  0.39774800  1
  N  N1  1  0.08129600  0.05719800  0.89774800  1
  N  N2  1  0.91870400  0.55719800  0.60225200  1
  N  N3  1  0.91870400  0.94280200  0.10225200  1
  N  N4  1  0.30382600  0.44883100  0.60401900  1
  N  N5  1  0.30382600  0.05116900  0.10401900  1
  N  N6  1  0.69617400  0.55116900  0.39598100  1
  N  N7  1  0.69617400  0.94883100  0.89598100  1
  N  N8  1  0.08570000  0.33988100  0.53934500  1
  N  N9  1  0.08570000  0.16011900  0.03934500  1
  N  N10  1  0.91430000  0.66011900  0.46065500  1
  N  N11  1  0.91430000  0.83988100  0.96065500  1
  O  O0  1  0.45426800  0.26069000  0.06068400  1
  O  O1  1  0.45426800  0.23931000  0.56068400  1
  O  O2  1  0.54573200  0.73931000  0.93931600  1
  O  O3  1  0.54573200  0.76069000  0.43931600  1
  O  O4  1  0.73437100  0.29263700  0.95382700  1
  O  O5  1  0.73437100  0.20736300  0.45382700  1
  O  O6  1  0.26562900  0.70736300  0.04617300  1
  O  O7  1  0.26562900  0.79263700  0.54617300  1
  O  O8  1  0.77260700  0.13565900  0.13070900  1
  O  O9  1  0.77260700  0.36434100  0.63070900  1
  O  O10  1  0.22739300  0.86434100  0.86929100  1
  O  O11  1  0.22739300  0.63565900  0.36929100  1
  O  O12  1  0.84903600  0.27572000  0.22200700  1
  O  O13  1  0.84903600  0.22428000  0.72200700  1
  O  O14  1  0.15096400  0.72428000  0.77799300  1
  O  O15  1  0.15096400  0.77572000  0.27799300  1
  O  O16  1  0.33570200  0.24169400  0.79269200  1
  O  O17  1  0.33570200  0.25830600  0.29269200  1
  O  O18  1  0.66429800  0.75830600  0.20730800  1
  O  O19  1  0.66429800  0.74169400  0.70730800  1
  O  O20  1  0.50588100  0.12175400  0.89847000  1
  O  O21  1  0.50588100  0.37824600  0.39847000  1
  O  O22  1  0.49411900  0.87824600  0.10153000  1
  O  O23  1  0.49411900  0.62175400  0.60153000  1
  O  O24  1  0.33137600  0.56627400  0.88080900  1
  O  O25  1  0.33137600  0.93372600  0.38080900  1
  O  O26  1  0.66862400  0.43372600  0.11919100  1
  O  O27  1  0.66862400  0.06627400  0.61919100  1
  O  O28  1  0.42244700  0.41728600  0.88001300  1
  O  O29  1  0.42244700  0.08271400  0.38001300  1
  O  O30  1  0.57755300  0.58271400  0.11998700  1
  O  O31  1  0.57755300  0.91728600  0.61998700  1
loop_
_geom_bond_atom_site_label_1
_geom_bond_atom_site_label_2
_geom_bond_distance
_geom_bond_site_symmetry_2
H24 N0 1.018268 1_655
H25 N1 1.018268 1_655
H26 N2 1.018268 1_455
H27 N3 1.018268 1_455
H28 N0 1.020781 1_555
H29 N1 1.020781 1_555
H30 N2 1.020781 1_555
H31 N3 1.020781 1_555
H32 N4 1.023064 1_555
H33 N5 1.023064 1_565
H34 N6 1.023064 1_555
H35 N7 1.023064 1_545
H36 N4 1.018600 1_555
H37 N5 1.018600 1_555
H38 N6 1.018600 1_555
H39 N7 1.018600 1_555
H40 N8 1.013687 1_655
H41 N9 1.013687 1_656
H42 N10 1.013687 1_455
H43 N11 1.013687 1_454
H44 N8 1.021560 1_555
H45 N9 1.021560 1_555
H46 N10 1.021560 1_555
H47 N11 1.021560 1_555
C0 O8 1.280617 1_555
C0 O12 1.281304 1_555
C1 O9 1.280617 1_555
C1 O13 1.281304 1_555
C2 O10 1.280617 1_555
C2 O14 1.281304 1_555
C3 O11 1.280617 1_555
C3 O15 1.281304 1_555
C4 O16 1.279163 1_555
C4 O20 1.281488 1_555
C5 O17 1.279163 1_555
C5 O21 1.281488 1_555
C6 O18 1.279163 1_555
C6 O22 1.281488 1_555
C7 O19 1.279163 1_555
C7 O23 1.281488 1_555
C8 O24 1.262989 1_555
C8 O28 1.269623 1_555
C9 O25 1.262989 1_545
C9 O29 1.269623 1_555
C10 O26 1.262989 1_555
C10 O30 1.269623 1_555
C11 O27 1.262989 1_565
C11 O31 1.269623 1_555
C12 H8 1.094265 1_555
C12 H0 1.094997 1_555
C12 H4 1.099844 1_455
C13 H9 1.094265 1_555
C13 H1 1.094997 1_555
C13 H5 1.099844 1_455
C14 H10 1.094265 1_555
C14 H2 1.094997 1_555
C14 H6 1.099844 1_655
C15 H11 1.094265 1_555
C15 H3 1.094997 1_555
C15 H7 1.099844 1_655
C16 H16 1.094638 1_555
C16 H12 1.096791 1_555
C16 H20 1.098730 1_555
C17 H17 1.094638 1_555
C17 H13 1.096791 1_555
C17 H21 1.098730 1_555
C18 H18 1.094638 1_555
C18 H14 1.096791 1_555
C18 H22 1.098730 1_555
C19 H19 1.094638 1_555
C19 H15 1.096791 1_555
C19 H23 1.098730 1_555
C20 N4 1.333444 1_555
C20 N0 1.339641 1_555
C20 N8 1.341263 1_555
C21 N5 1.333444 1_555
C21 N1 1.339641 1_554
C21 N9 1.341263 1_555
C22 N6 1.333444 1_555
C22 N2 1.339641 1_555
C22 N10 1.341263 1_555
C23 N7 1.333444 1_555
C23 N3 1.339641 1_556
C23 N11 1.341263 1_555
O0 U0 1.804648 1_555
O1 U1 1.804648 1_555
O2 U2 1.804648 1_555
O3 U3 1.804648 1_555
O4 U0 1.814170 1_556
O5 U1 1.814170 1_555
O6 U2 1.814170 1_554
O7 U3 1.814170 1_555
O20 U0 2.473701 1_556
O21 U1 2.473701 1_555
O22 U2 2.473701 1_554
O23 U3 2.473701 1_555
