# generated using pymatgen
data_Na4Zr2TiMnSi4(O8F)2
_symmetry_space_group_name_H-M   'P 1'
_cell_length_a   7.19201700
_cell_length_b   5.66398000
_cell_length_c   18.73015790
_cell_angle_alpha   77.21159818
_cell_angle_beta   90.00000000
_cell_angle_gamma   90.00000000
_symmetry_Int_Tables_number   1
_chemical_formula_structural   Na4Zr2TiMnSi4(O8F)2
_chemical_formula_sum   'Na8 Zr4 Ti2 Mn2 Si8 O32 F4'
_cell_volume   744.05485765
_cell_formula_units_Z   2
loop_
 _symmetry_equiv_pos_site_id
 _symmetry_equiv_pos_as_xyz
  1  'x, y, z'
loop_
 _atom_site_type_symbol
 _atom_site_label
 _atom_site_symmetry_multiplicity
 _atom_site_fract_x
 _atom_site_fract_y
 _atom_site_fract_z
 _atom_site_occupancy
  Na  Na0  1  0.65339600  0.00000000  0.75000000  1
  Na  Na1  1  0.34660400  0.00000000  0.25000000  1
  Na  Na2  1  0.88636600  0.70316500  0.92905700  1
  Na  Na3  1  0.11363400  0.29683500  0.07094300  1
  Na  Na4  1  0.88636600  0.29683500  0.57094300  1
  Na  Na5  1  0.11363400  0.70316500  0.42905700  1
  Na  Na6  1  0.88949700  0.50000000  0.75000000  1
  Na  Na7  1  0.11050300  0.50000000  0.25000000  1
  Zr  Zr0  1  0.37841900  0.69734700  0.92472800  1
  Zr  Zr1  1  0.62158100  0.30265300  0.07527200  1
  Zr  Zr2  1  0.37841900  0.30265300  0.57527200  1
  Zr  Zr3  1  0.62158100  0.69734700  0.42472800  1
  Ti  Ti0  1  0.39247300  0.50000000  0.75000000  1
  Ti  Ti1  1  0.60752700  0.50000000  0.25000000  1
  Mn  Mn0  1  0.15287700  0.00000000  0.75000000  1
  Mn  Mn1  1  0.84712300  0.00000000  0.25000000  1
  Si  Si0  1  0.65846900  0.77893400  0.60439600  1
  Si  Si1  1  0.34153100  0.22106600  0.39560400  1
  Si  Si2  1  0.65846900  0.22106600  0.89560400  1
  Si  Si3  1  0.34153100  0.77893400  0.10439600  1
  Si  Si4  1  0.88622400  0.77834300  0.10532700  1
  Si  Si5  1  0.11377600  0.22165700  0.89467300  1
  Si  Si6  1  0.88622400  0.22165700  0.39467300  1
  Si  Si7  1  0.11377600  0.77834300  0.60532700  1
  O  O0  1  0.59315500  0.59771300  0.55098600  1
  O  O1  1  0.40684500  0.40228700  0.44901400  1
  O  O2  1  0.59315500  0.40228700  0.94901400  1
  O  O3  1  0.40684500  0.59771300  0.05098600  1
  O  O4  1  0.17393900  0.94343300  0.93271700  1
  O  O5  1  0.82606100  0.05656700  0.06728300  1
  O  O6  1  0.17393900  0.05656700  0.56728300  1
  O  O7  1  0.82606100  0.94343300  0.43271700  1
  O  O8  1  0.59543700  0.94081800  0.92273400  1
  O  O9  1  0.40456300  0.05918200  0.07726600  1
  O  O10  1  0.59543700  0.05918200  0.57726600  1
  O  O11  1  0.40456300  0.94081800  0.42273400  1
  O  O12  1  0.82408000  0.58041700  0.05882300  1
  O  O13  1  0.17592000  0.41958300  0.94117700  1
  O  O14  1  0.82408000  0.41958300  0.44117700  1
  O  O15  1  0.17592000  0.58041700  0.55882300  1
  O  O16  1  0.37231700  0.73143300  0.81413500  1
  O  O17  1  0.62768300  0.26856700  0.18586500  1
  O  O18  1  0.37231700  0.26856700  0.68586500  1
  O  O19  1  0.62768300  0.73143300  0.31413500  1
  O  O20  1  0.88542000  0.76449100  0.61039000  1
  O  O21  1  0.11458000  0.23550900  0.38961000  1
  O  O22  1  0.88542000  0.23550900  0.88961000  1
  O  O23  1  0.11458000  0.76449100  0.11039000  1
  O  O24  1  0.58457500  0.67639500  0.68847400  1
  O  O25  1  0.41542500  0.32360500  0.31152600  1
  O  O26  1  0.58457500  0.32360500  0.81152600  1
  O  O27  1  0.41542500  0.67639500  0.18847400  1
  O  O28  1  0.81030800  0.71290000  0.19039000  1
  O  O29  1  0.18969200  0.28710000  0.80961000  1
  O  O30  1  0.81030800  0.28710000  0.30961000  1
  O  O31  1  0.18969200  0.71290000  0.69039000  1
  F  F0  1  0.92097100  0.80404500  0.80710000  1
  F  F1  1  0.07902900  0.19595500  0.19290000  1
  F  F2  1  0.92097100  0.19595500  0.69290000  1
  F  F3  1  0.07902900  0.80404500  0.30710000  1
loop_
_geom_bond_atom_site_label_1
_geom_bond_atom_site_label_2
_geom_bond_distance
_geom_bond_site_symmetry_2
Na0 O26 2.422306 1_555
Na0 O24 2.422306 1_545
Na0 O16 2.652274 1_545
Na0 O18 2.652274 1_555
Na1 O25 2.422306 1_555
Na1 O27 2.422306 1_545
Na1 O17 2.652274 1_555
Na1 O19 2.652274 1_545
Na2 O12 2.417325 1_556
Na2 O8 2.476556 1_555
Na2 O4 2.485065 1_655
Na2 O13 2.608968 1_655
Na2 O2 2.684930 1_555
Na2 O22 2.903179 1_555
Na2 O22 2.941267 1_565
Na3 O13 2.417325 1_554
Na3 O9 2.476556 1_555
Na3 O5 2.485065 1_455
Na3 O12 2.608968 1_455
Na3 O3 2.684930 1_555
Na3 O23 2.903179 1_555
Na3 O23 2.941267 1_545
Na4 O14 2.417325 1_555
Na4 O10 2.476556 1_555
Na4 O6 2.485065 1_655
Na4 O15 2.608968 1_655
Na4 O0 2.684930 1_555
Na4 O20 2.903179 1_555
Na4 O20 2.941267 1_545
Na5 O15 2.417325 1_555
Na5 O11 2.476556 1_555
Na5 O7 2.485065 1_455
Na5 O14 2.608968 1_455
Na5 O1 2.684930 1_555
Na5 O21 2.903179 1_555
Na5 O21 2.941267 1_565
Na6 O24 2.574056 1_555
Na6 O26 2.574056 1_555
Na6 O29 2.601147 1_655
Na6 O31 2.601147 1_655
Na6 O22 2.710841 1_555
Na6 O20 2.710841 1_555
Na7 O25 2.574056 1_555
Na7 O27 2.574056 1_555
Na7 O30 2.601147 1_455
Na7 O28 2.601147 1_455
Na7 O23 2.710841 1_555
Na7 O21 2.710841 1_555
Mn0 O31 2.182829 1_545
Mn0 O29 2.182829 1_555
Mn0 O18 2.332115 1_555
Mn0 O16 2.332115 1_545
Mn1 O30 2.182829 1_555
Mn1 O28 2.182829 1_545
Mn1 O17 2.332115 1_555
Mn1 O19 2.332115 1_545
O0 Si0 1.652135 1_555
O0 Zr2 2.246876 1_555
O0 Zr3 2.315575 1_555
O1 Si1 1.652135 1_555
O1 Zr3 2.246876 1_555
O1 Zr2 2.315575 1_555
O2 Si2 1.652135 1_555
O2 Zr0 2.246876 1_555
O2 Zr1 2.315575 1_556
O3 Si3 1.652135 1_555
O3 Zr1 2.246876 1_555
O3 Zr0 2.315575 1_554
O4 Si5 1.637433 1_565
O4 Zr0 2.054315 1_555
O5 Si4 1.637433 1_545
O5 Zr1 2.054315 1_555
O6 Si7 1.637433 1_545
O6 Zr2 2.054315 1_555
O7 Si6 1.637433 1_565
O7 Zr3 2.054315 1_555
O8 Si2 1.620562 1_565
O8 Zr0 2.077586 1_555
O9 Si3 1.620562 1_545
O9 Zr1 2.077586 1_555
O10 Si0 1.620562 1_545
O10 Zr2 2.077586 1_555
O11 Si1 1.620562 1_565
O11 Zr3 2.077586 1_555
O12 Si4 1.627107 1_555
O12 Zr1 2.115771 1_555
O13 Si5 1.627107 1_555
O13 Zr0 2.115771 1_555
O14 Si6 1.627107 1_555
O14 Zr3 2.115771 1_555
O15 Si7 1.627107 1_555
O15 Zr2 2.115771 1_555
O16 Ti0 1.969624 1_555
O16 Zr0 2.037880 1_555
O17 Ti1 1.969624 1_555
O17 Zr1 2.037880 1_555
O18 Ti0 1.969624 1_555
O18 Zr2 2.037880 1_555
O19 Ti1 1.969624 1_555
O19 Zr3 2.037880 1_555
O20 Si0 1.636894 1_555
O20 Si7 1.645945 1_655
O21 Si1 1.636894 1_555
O21 Si6 1.645945 1_455
O22 Si2 1.636894 1_555
O22 Si5 1.645945 1_655
O23 Si3 1.636894 1_555
O23 Si4 1.645945 1_455
O24 Si0 1.641590 1_555
O24 Ti0 1.930108 1_555
O25 Si1 1.641590 1_555
O25 Ti1 1.930108 1_555
O26 Si2 1.641590 1_555
O26 Ti0 1.930108 1_555
O27 Si3 1.641590 1_555
O27 Ti1 1.930108 1_555
O28 Si4 1.646961 1_555
O28 Ti1 2.057084 1_555
O29 Si5 1.646961 1_555
O29 Ti0 2.057084 1_555
O30 Si6 1.646961 1_555
O30 Ti1 2.057084 1_555
O31 Si7 1.646961 1_555
O31 Ti0 2.057084 1_555
F0 Mn0 2.152199 1_665
F0 Na6 2.230708 1_555
F0 Na2 2.242435 1_555
F0 Na0 2.356586 1_565
F1 Mn1 2.152199 1_455
F1 Na7 2.230708 1_555
F1 Na3 2.242435 1_555
F1 Na1 2.356586 1_555
F2 Mn0 2.152199 1_655
F2 Na6 2.230708 1_555
F2 Na4 2.242435 1_555
F2 Na0 2.356586 1_555
F3 Mn1 2.152199 1_465
F3 Na7 2.230708 1_555
F3 Na5 2.242435 1_555
F3 Na1 2.356586 1_565
