# generated using pymatgen
data_SnH6Cl2O11
_symmetry_space_group_name_H-M   'P 1'
_cell_length_a   7.26600482
_cell_length_b   7.26600482
_cell_length_c   9.98416800
_cell_angle_alpha   90.00000000
_cell_angle_beta   90.00000000
_cell_angle_gamma   120.00000751
_symmetry_Int_Tables_number   1
_chemical_formula_structural   SnH6Cl2O11
_chemical_formula_sum   'Sn2 H12 Cl4 O22'
_cell_volume   456.49270613
_cell_formula_units_Z   2
loop_
 _symmetry_equiv_pos_site_id
 _symmetry_equiv_pos_as_xyz
  1  'x, y, z'
loop_
 _atom_site_type_symbol
 _atom_site_label
 _atom_site_symmetry_multiplicity
 _atom_site_fract_x
 _atom_site_fract_y
 _atom_site_fract_z
 _atom_site_occupancy
  Sn  Sn0  1  0.00000000  0.00000000  0.52385100  1
  Sn  Sn1  1  0.00000000  0.00000000  0.02385100  1
  H  H0  1  0.81905500  0.21687700  0.66181200  1
  H  H1  1  0.78312300  0.60217800  0.66181200  1
  H  H2  1  0.39782200  0.18094500  0.66181200  1
  H  H3  1  0.18094500  0.78312300  0.16181200  1
  H  H4  1  0.21687700  0.39782200  0.16181200  1
  H  H5  1  0.60217800  0.81905500  0.16181200  1
  H  H6  1  0.04808600  0.29664800  0.72459800  1
  H  H7  1  0.70335200  0.75143900  0.72459800  1
  H  H8  1  0.24856100  0.95191400  0.72459800  1
  H  H9  1  0.95191400  0.70335200  0.22459800  1
  H  H10  1  0.29664800  0.24856100  0.22459800  1
  H  H11  1  0.75143900  0.04808600  0.22459800  1
  Cl  Cl0  1  0.66666700  0.33333300  0.40715800  1
  Cl  Cl1  1  0.33333300  0.66666700  0.90715800  1
  Cl  Cl2  1  0.33333300  0.66666700  0.47945600  1
  Cl  Cl3  1  0.66666700  0.33333300  0.97945600  1
  O  O0  1  0.92226600  0.17225800  0.68576200  1
  O  O1  1  0.82774200  0.75000800  0.68576200  1
  O  O2  1  0.24999200  0.07773400  0.68576200  1
  O  O3  1  0.07773400  0.82774200  0.18576200  1
  O  O4  1  0.17225800  0.24999200  0.18576200  1
  O  O5  1  0.75000800  0.92226600  0.18576200  1
  O  O6  1  0.15977400  0.69538600  0.52937300  1
  O  O7  1  0.30461400  0.46438800  0.52937300  1
  O  O8  1  0.53561200  0.84022600  0.52937300  1
  O  O9  1  0.84022600  0.30461400  0.02937300  1
  O  O10  1  0.69538600  0.53561200  0.02937300  1
  O  O11  1  0.46438800  0.15977400  0.02937300  1
  O  O12  1  0.33333300  0.66666700  0.33350300  1
  O  O13  1  0.66666700  0.33333300  0.83350300  1
  O  O14  1  0.74305600  0.54977800  0.36025600  1
  O  O15  1  0.45022200  0.19327800  0.36025600  1
  O  O16  1  0.80672200  0.25694400  0.36025600  1
  O  O17  1  0.25694400  0.45022200  0.86025600  1
  O  O18  1  0.54977800  0.80672200  0.86025600  1
  O  O19  1  0.19327800  0.74305600  0.86025600  1
  O  O20  1  0.66666700  0.33333300  0.55591100  1
  O  O21  1  0.33333300  0.66666700  0.05591100  1
loop_
_geom_bond_atom_site_label_1
_geom_bond_atom_site_label_2
_geom_bond_distance
_geom_bond_site_symmetry_2
H0 O0 0.983775 1_555
H1 O1 0.983774 1_555
H2 O2 0.983774 1_555
H3 O3 0.983775 1_555
H4 O4 0.983774 1_555
H5 O5 0.983774 1_555
H6 O0 0.988298 1_455
H7 O1 0.988301 1_555
H8 O2 0.988295 1_565
H9 O3 0.988298 1_655
H10 O4 0.988301 1_555
H11 O5 0.988295 1_545
Cl0 O16 1.458692 1_555
Cl0 O15 1.458697 1_555
Cl0 O14 1.458698 1_555
Cl0 O20 1.485175 1_555
Cl1 O19 1.458692 1_555
Cl1 O18 1.458697 1_555
Cl1 O17 1.458698 1_555
Cl1 O21 1.485175 1_556
Cl2 O12 1.457219 1_555
Cl2 O6 1.464720 1_555
Cl2 O8 1.464724 1_555
Cl2 O7 1.464726 1_555
Cl3 O13 1.457219 1_555
Cl3 O9 1.464720 1_556
Cl3 O11 1.464724 1_556
Cl3 O10 1.464726 1_556
O0 Sn0 2.281611 1_655
O1 Sn0 2.281611 1_665
O2 Sn0 2.281611 1_555
O3 Sn1 2.281611 1_565
O4 Sn1 2.281611 1_555
O5 Sn1 2.281611 1_665
