# generated using pymatgen
data_NaCuPH8C2SO8
_symmetry_space_group_name_H-M   'P 1'
_cell_length_a   14.96292600
_cell_length_b   7.87291200
_cell_length_c   7.70433129
_cell_angle_alpha   90.00000000
_cell_angle_beta   91.55035116
_cell_angle_gamma   90.00000000
_symmetry_Int_Tables_number   1
_chemical_formula_structural   NaCuPH8C2SO8
_chemical_formula_sum   'Na4 Cu4 P4 H32 C8 S4 O32'
_cell_volume   907.25185591
_cell_formula_units_Z   4
loop_
 _symmetry_equiv_pos_site_id
 _symmetry_equiv_pos_as_xyz
  1  'x, y, z'
loop_
 _atom_site_type_symbol
 _atom_site_label
 _atom_site_symmetry_multiplicity
 _atom_site_fract_x
 _atom_site_fract_y
 _atom_site_fract_z
 _atom_site_occupancy
  Na  Na0  1  0.96623300  0.30978500  0.06414500  1
  Na  Na1  1  0.03376700  0.80978500  0.43585500  1
  Na  Na2  1  0.03376700  0.69021500  0.93585500  1
  Na  Na3  1  0.96623300  0.19021500  0.56414500  1
  Cu  Cu0  1  0.47687000  0.19853700  0.07151100  1
  Cu  Cu1  1  0.52313000  0.69853700  0.42848900  1
  Cu  Cu2  1  0.52313000  0.80146300  0.92848900  1
  Cu  Cu3  1  0.47687000  0.30146300  0.57151100  1
  P  P0  1  0.60430700  0.44585900  0.84961100  1
  P  P1  1  0.39569300  0.94585900  0.65038900  1
  P  P2  1  0.39569300  0.55414100  0.15038900  1
  P  P3  1  0.60430700  0.05414100  0.34961100  1
  H  H0  1  0.37789000  0.07250700  0.29753300  1
  H  H1  1  0.62211000  0.57250700  0.20246700  1
  H  H2  1  0.62211000  0.92749300  0.70246700  1
  H  H3  1  0.37789000  0.42749300  0.79753300  1
  H  H4  1  0.38360800  0.95053100  0.13493100  1
  H  H5  1  0.61639200  0.45053100  0.36506900  1
  H  H6  1  0.61639200  0.04946900  0.86506900  1
  H  H7  1  0.38360800  0.54946900  0.63493100  1
  H  H8  1  0.72323800  0.31880200  0.69983700  1
  H  H9  1  0.27676200  0.81880200  0.80016300  1
  H  H10  1  0.27676200  0.68119800  0.30016300  1
  H  H11  1  0.72323800  0.18119800  0.19983700  1
  H  H12  1  0.75575200  0.37182500  0.91736500  1
  H  H13  1  0.24424800  0.87182500  0.58263500  1
  H  H14  1  0.24424800  0.62817500  0.08263500  1
  H  H15  1  0.75575200  0.12817500  0.41736500  1
  H  H16  1  0.72963100  0.63659800  0.62395400  1
  H  H17  1  0.27036900  0.13659800  0.87604600  1
  H  H18  1  0.27036900  0.36340200  0.37604600  1
  H  H19  1  0.72963100  0.86340200  0.12395400  1
  H  H20  1  0.77091300  0.67656400  0.83896500  1
  H  H21  1  0.22908700  0.17656400  0.66103500  1
  H  H22  1  0.22908700  0.32343600  0.16103500  1
  H  H23  1  0.77091300  0.82343600  0.33896500  1
  H  H24  1  0.86207900  0.58229400  0.15318100  1
  H  H25  1  0.13792100  0.08229400  0.34681900  1
  H  H26  1  0.13792100  0.41770600  0.84681900  1
  H  H27  1  0.86207900  0.91770600  0.65318100  1
  H  H28  1  0.84390800  0.45289400  0.29977900  1
  H  H29  1  0.15609200  0.95289400  0.20022100  1
  H  H30  1  0.15609200  0.54710600  0.70022100  1
  H  H31  1  0.84390800  0.04710600  0.79977900  1
  C  C0  1  0.72129900  0.41848400  0.79940200  1
  C  C1  1  0.27870100  0.91848400  0.70059800  1
  C  C2  1  0.27870100  0.58151600  0.20059800  1
  C  C3  1  0.72129900  0.08151600  0.29940200  1
  C  C4  1  0.76535800  0.58060100  0.73629100  1
  C  C5  1  0.23464200  0.08060100  0.76370900  1
  C  C6  1  0.23464200  0.41939900  0.26370900  1
  C  C7  1  0.76535800  0.91939900  0.23629100  1
  S  S0  1  0.87715700  0.54404600  0.66475900  1
  S  S1  1  0.12284300  0.04404600  0.83524100  1
  S  S2  1  0.12284300  0.45595400  0.33524100  1
  S  S3  1  0.87715700  0.95595400  0.16475900  1
  O  O0  1  0.37166100  0.06991100  0.16826700  1
  O  O1  1  0.62833900  0.56991100  0.33173300  1
  O  O2  1  0.62833900  0.93008900  0.83173300  1
  O  O3  1  0.37166100  0.43008900  0.66826700  1
  O  O4  1  0.59617700  0.59858700  0.97628600  1
  O  O5  1  0.40382300  0.09858700  0.52371400  1
  O  O6  1  0.40382300  0.40141300  0.02371400  1
  O  O7  1  0.59617700  0.90141300  0.47628600  1
  O  O8  1  0.57844900  0.27523500  0.93528900  1
  O  O9  1  0.42155100  0.77523500  0.56471100  1
  O  O10  1  0.42155100  0.72476500  0.06471100  1
  O  O11  1  0.57844900  0.22476500  0.43528900  1
  O  O12  1  0.55154900  0.48202600  0.67782900  1
  O  O13  1  0.44845100  0.98202600  0.82217100  1
  O  O14  1  0.44845100  0.51797400  0.32217100  1
  O  O15  1  0.55154900  0.01797400  0.17782900  1
  O  O16  1  0.93143700  0.47746600  0.81144500  1
  O  O17  1  0.06856300  0.97746600  0.68855500  1
  O  O18  1  0.06856300  0.52253400  0.18855500  1
  O  O19  1  0.93143700  0.02253400  0.31144500  1
  O  O20  1  0.86979100  0.41936100  0.52273700  1
  O  O21  1  0.13020900  0.91936100  0.97726300  1
  O  O22  1  0.13020900  0.58063900  0.47726300  1
  O  O23  1  0.86979100  0.08063900  0.02273700  1
  O  O24  1  0.91036500  0.71070500  0.60606000  1
  O  O25  1  0.08963500  0.21070500  0.89394000  1
  O  O26  1  0.08963500  0.28929500  0.39394000  1
  O  O27  1  0.91036500  0.78929500  0.10606000  1
  O  O28  1  0.84460400  0.46368600  0.17271800  1
  O  O29  1  0.15539600  0.96368600  0.32728200  1
  O  O30  1  0.15539600  0.53631400  0.82728200  1
  O  O31  1  0.84460400  0.03631400  0.67271800  1
loop_
_geom_bond_atom_site_label_1
_geom_bond_atom_site_label_2
_geom_bond_distance
_geom_bond_site_symmetry_2
Na0 O23 2.326769 1_555
Na0 O28 2.358453 1_555
Na0 O16 2.397780 1_554
Na0 O25 2.422486 1_654
Na0 O18 2.447287 1_655
Na1 O22 2.326769 1_555
Na1 O29 2.358453 1_555
Na1 O17 2.397780 1_555
Na1 O24 2.422486 1_455
Na1 O19 2.447287 1_465
Na2 O21 2.326769 1_555
Na2 O30 2.358453 1_555
Na2 O18 2.397780 1_556
Na2 O27 2.422486 1_456
Na2 O16 2.447287 1_455
Na3 O20 2.326769 1_555
Na3 O31 2.358453 1_555
Na3 O19 2.397780 1_555
Na3 O26 2.422486 1_655
Na3 O17 2.447287 1_645
Cu0 O6 1.964585 1_555
Cu0 O8 1.965334 1_554
Cu0 O15 1.972525 1_555
Cu0 O0 2.030487 1_555
Cu0 O13 2.594691 1_544
Cu1 O7 1.964585 1_555
Cu1 O9 1.965334 1_555
Cu1 O14 1.972525 1_555
Cu1 O1 2.030487 1_555
Cu1 O12 2.594691 1_555
Cu2 O4 1.964585 1_555
Cu2 O10 1.965334 1_556
Cu2 O13 1.972525 1_555
Cu2 O2 2.030487 1_555
Cu2 O15 2.594691 1_566
Cu3 O5 1.964585 1_555
Cu3 O11 1.965334 1_555
Cu3 O12 1.972525 1_555
Cu3 O3 2.030487 1_555
Cu3 O14 2.594691 1_555
H0 O0 0.997955 1_555
H1 O1 0.997955 1_555
H2 O2 0.997955 1_555
H3 O3 0.997955 1_555
H4 O0 0.991844 1_565
H5 O1 0.991844 1_555
H6 O2 0.991844 1_545
H7 O3 0.991844 1_555
H24 O28 0.982405 1_555
H25 O29 0.982405 1_545
H26 O30 0.982405 1_555
H27 O31 0.982405 1_565
H28 O28 0.982936 1_555
H29 O29 0.982936 1_555
H30 O30 0.982936 1_555
H31 O31 0.982936 1_555
C0 H12 1.096044 1_555
C0 H8 1.098341 1_555
C0 P0 1.815799 1_555
C1 H13 1.096044 1_555
C1 H9 1.098341 1_555
C1 P1 1.815799 1_555
C2 H14 1.096044 1_555
C2 H10 1.098341 1_555
C2 P2 1.815799 1_555
C3 H15 1.096044 1_555
C3 H11 1.098341 1_555
C3 P3 1.815799 1_555
C4 H20 1.095390 1_555
C4 H16 1.097340 1_555
C5 H21 1.095390 1_555
C5 H17 1.097340 1_555
C6 H22 1.095390 1_555
C6 H18 1.097340 1_555
C7 H23 1.095390 1_555
C7 H19 1.097340 1_555
O4 P0 1.555472 1_555
O5 P1 1.555472 1_545
O6 P2 1.555472 1_555
O7 P3 1.555472 1_565
O8 P0 1.550392 1_555
O9 P1 1.550392 1_555
O10 P2 1.550392 1_555
O11 P3 1.550392 1_555
O12 P0 1.548961 1_555
O13 P1 1.548961 1_555
O14 P2 1.548961 1_555
O15 P3 1.548961 1_555
O16 S0 1.470344 1_555
O17 S1 1.470344 1_565
O18 S2 1.470344 1_555
O19 S3 1.470344 1_545
O20 S0 1.471892 1_555
O21 S1 1.471892 1_565
O22 S2 1.471892 1_555
O23 S3 1.471892 1_545
O24 S0 1.478229 1_555
O25 S1 1.478229 1_555
O26 S2 1.478229 1_555
O27 S3 1.478229 1_555
