# generated using pymatgen
data_Rb3Dy(PO4)2
_symmetry_space_group_name_H-M   'P 1'
_cell_length_a   5.74820117
_cell_length_b   5.74820117
_cell_length_c   8.24121500
_cell_angle_alpha   90.00000000
_cell_angle_beta   90.00000000
_cell_angle_gamma   119.99999045
_symmetry_Int_Tables_number   1
_chemical_formula_structural   Rb3Dy(PO4)2
_chemical_formula_sum   'Rb3 Dy1 P2 O8'
_cell_volume   235.82282377
_cell_formula_units_Z   1
loop_
 _symmetry_equiv_pos_site_id
 _symmetry_equiv_pos_as_xyz
  1  'x, y, z'
loop_
 _atom_site_type_symbol
 _atom_site_label
 _atom_site_symmetry_multiplicity
 _atom_site_fract_x
 _atom_site_fract_y
 _atom_site_fract_z
 _atom_site_occupancy
  Rb  Rb0  1  0.33333300  0.66666700  0.75823400  1
  Rb  Rb1  1  0.66666700  0.33333300  0.24176600  1
  Rb  Rb2  1  0.00000000  0.00000000  0.00000000  1
  Dy  Dy0  1  0.00000000  0.00000000  0.50000000  1
  P  P0  1  0.33333300  0.66666700  0.27624300  1
  P  P1  1  0.66666700  0.33333300  0.72375700  1
  O  O0  1  0.33333300  0.66666700  0.09040700  1
  O  O1  1  0.66666700  0.33333300  0.90959300  1
  O  O2  1  0.18554900  0.81445100  0.34165000  1
  O  O3  1  0.81445100  0.18554900  0.65835000  1
  O  O4  1  0.18554900  0.37109900  0.34165000  1
  O  O5  1  0.81445100  0.62890100  0.65835000  1
  O  O6  1  0.62890100  0.81445100  0.34165000  1
  O  O7  1  0.37109900  0.18554900  0.65835000  1
loop_
_geom_bond_atom_site_label_1
_geom_bond_atom_site_label_2
_geom_bond_distance
_geom_bond_site_symmetry_2
Dy0 O3 2.261802 1_455
Dy0 O2 2.261802 1_545
Dy0 O5 2.261806 1_445
Dy0 O6 2.261806 1_445
Dy0 O7 2.261806 1_555
Dy0 O4 2.261806 1_555
O0 P0 1.531514 1_555
O0 Rb0 2.737509 1_554
O0 Rb2 3.401328 1_565
O0 Rb2 3.401334 1_555
O0 Rb2 3.401334 1_665
O1 P1 1.531514 1_555
O1 Rb1 2.737509 1_556
O1 Rb2 3.401328 1_656
O1 Rb2 3.401334 1_666
O1 Rb2 3.401334 1_556
O2 P0 1.566993 1_555
O2 Rb1 2.995563 1_455
O2 Rb1 2.995563 1_565
O2 Rb2 3.367551 1_565
O3 P1 1.566993 1_555
O3 Rb0 2.995563 1_545
O3 Rb0 2.995563 1_655
O3 Rb2 3.367551 1_656
O4 P0 1.566993 1_555
O4 Rb1 2.995558 1_455
O4 Rb1 2.995569 1_555
O4 Rb2 3.367554 1_555
O5 P1 1.566993 1_555
O5 Rb0 2.995558 1_655
O5 Rb0 2.995569 1_555
O5 Rb2 3.367554 1_666
O6 P0 1.566993 1_555
O6 Rb1 2.995558 1_565
O6 Rb1 2.995569 1_555
O6 Rb2 3.367554 1_665
O7 P1 1.566993 1_555
O7 Rb0 2.995558 1_545
O7 Rb0 2.995569 1_555
O7 Rb2 3.367554 1_556
