# generated using pymatgen
data_Ba6Tb2Al4O15
_symmetry_space_group_name_H-M   'P 1'
_cell_length_a   5.97328500
_cell_length_b   7.95259200
_cell_length_c   18.55297150
_cell_angle_alpha   88.47057490
_cell_angle_beta   90.00000000
_cell_angle_gamma   90.00000000
_symmetry_Int_Tables_number   1
_chemical_formula_structural   Ba6Tb2Al4O15
_chemical_formula_sum   'Ba12 Tb4 Al8 O30'
_cell_volume   881.00966099
_cell_formula_units_Z   2
loop_
 _symmetry_equiv_pos_site_id
 _symmetry_equiv_pos_as_xyz
  1  'x, y, z'
loop_
 _atom_site_type_symbol
 _atom_site_label
 _atom_site_symmetry_multiplicity
 _atom_site_fract_x
 _atom_site_fract_y
 _atom_site_fract_z
 _atom_site_occupancy
  Ba  Ba0  1  0.75800300  0.50203200  0.08226100  1
  Ba  Ba1  1  0.24199700  0.49796800  0.91773900  1
  Ba  Ba2  1  0.75800300  0.49796800  0.41773900  1
  Ba  Ba3  1  0.24199700  0.50203200  0.58226100  1
  Ba  Ba4  1  0.74461800  0.96909400  0.08964900  1
  Ba  Ba5  1  0.25538200  0.03090600  0.91035100  1
  Ba  Ba6  1  0.74461800  0.03090600  0.41035100  1
  Ba  Ba7  1  0.25538200  0.96909400  0.58964900  1
  Ba  Ba8  1  0.72505400  0.00000000  0.75000000  1
  Ba  Ba9  1  0.27494600  0.00000000  0.25000000  1
  Ba  Ba10  1  0.66995500  0.50000000  0.75000000  1
  Ba  Ba11  1  0.33004500  0.50000000  0.25000000  1
  Tb  Tb0  1  0.74602200  0.75138100  0.91014900  1
  Tb  Tb1  1  0.25397800  0.24861900  0.08985100  1
  Tb  Tb2  1  0.74602200  0.24861900  0.58985100  1
  Tb  Tb3  1  0.25397800  0.75138100  0.41014900  1
  Al  Al0  1  0.75088900  0.75248600  0.55615400  1
  Al  Al1  1  0.24911100  0.24751400  0.44384600  1
  Al  Al2  1  0.75088900  0.24751400  0.94384600  1
  Al  Al3  1  0.24911100  0.75248600  0.05615400  1
  Al  Al4  1  0.77198900  0.77941400  0.26734900  1
  Al  Al5  1  0.22801100  0.22058600  0.73265100  1
  Al  Al6  1  0.77198900  0.22058600  0.23265100  1
  Al  Al7  1  0.22801100  0.77941400  0.76734900  1
  O  O0  1  0.21000000  0.00000000  0.75000000  1
  O  O1  1  0.79000000  0.00000000  0.25000000  1
  O  O2  1  0.49520100  0.76390200  0.00060600  1
  O  O3  1  0.50479900  0.23609800  0.99939400  1
  O  O4  1  0.49520100  0.23609800  0.49939400  1
  O  O5  1  0.50479900  0.76390200  0.50060600  1
  O  O6  1  0.75956000  0.94310800  0.60631400  1
  O  O7  1  0.24044000  0.05689200  0.39368600  1
  O  O8  1  0.75956000  0.05689200  0.89368600  1
  O  O9  1  0.24044000  0.94310800  0.10631400  1
  O  O10  1  0.01029100  0.76201200  0.99672000  1
  O  O11  1  0.98970900  0.23798800  0.00328000  1
  O  O12  1  0.01029100  0.23798800  0.50328000  1
  O  O13  1  0.98970900  0.76201200  0.49672000  1
  O  O14  1  0.31391400  0.69340600  0.68664300  1
  O  O15  1  0.68608600  0.30659400  0.31335700  1
  O  O16  1  0.31391400  0.30659400  0.81335700  1
  O  O17  1  0.68608600  0.69340600  0.18664300  1
  O  O18  1  0.44875400  0.75292500  0.83284100  1
  O  O19  1  0.55124600  0.24707500  0.16715900  1
  O  O20  1  0.44875400  0.24707500  0.66715900  1
  O  O21  1  0.55124600  0.75292500  0.33284100  1
  O  O22  1  0.96972600  0.73019500  0.81067800  1
  O  O23  1  0.03027400  0.26980500  0.18932200  1
  O  O24  1  0.96972600  0.26980500  0.68932200  1
  O  O25  1  0.03027400  0.73019500  0.31067800  1
  O  O26  1  0.75384800  0.54037100  0.59237600  1
  O  O27  1  0.24615200  0.45962900  0.40762400  1
  O  O28  1  0.75384800  0.45962900  0.90762400  1
  O  O29  1  0.24615200  0.54037100  0.09237600  1
loop_
_geom_bond_atom_site_label_1
_geom_bond_atom_site_label_2
_geom_bond_distance
_geom_bond_site_symmetry_2
Ba0 O17 2.531504 1_555
Ba0 O19 2.819007 1_555
Ba0 O29 2.938270 1_655
Ba0 O11 2.938764 1_555
Ba0 O10 2.981471 1_654
Ba0 O2 2.987956 1_555
Ba0 O3 3.049170 1_554
Ba0 O29 3.078818 1_555
Ba0 O23 3.131339 1_655
Ba0 O28 3.266570 1_554
Ba1 O16 2.531504 1_555
Ba1 O18 2.819007 1_555
Ba1 O28 2.938270 1_455
Ba1 O10 2.938764 1_555
Ba1 O11 2.981471 1_456
Ba1 O3 2.987956 1_555
Ba1 O2 3.049170 1_556
Ba1 O28 3.078818 1_555
Ba1 O22 3.131339 1_455
Ba1 O29 3.266570 1_556
Ba2 O15 2.531504 1_555
Ba2 O21 2.819007 1_555
Ba2 O27 2.938270 1_655
Ba2 O13 2.938764 1_555
Ba2 O12 2.981471 1_655
Ba2 O4 2.987956 1_555
Ba2 O5 3.049170 1_555
Ba2 O27 3.078818 1_555
Ba2 O25 3.131339 1_655
Ba2 O26 3.266570 1_555
Ba3 O14 2.531504 1_555
Ba3 O20 2.819007 1_555
Ba3 O26 2.938270 1_455
Ba3 O12 2.938764 1_555
Ba3 O13 2.981471 1_455
Ba3 O5 2.987956 1_555
Ba3 O4 3.049170 1_555
Ba3 O26 3.078818 1_555
Ba3 O24 3.131339 1_455
Ba3 O27 3.266570 1_555
Ba4 O2 2.784863 1_555
Ba4 O17 2.820762 1_555
Ba4 O10 2.890428 1_654
Ba4 O19 2.908418 1_565
Ba4 O9 2.984372 1_655
Ba4 O1 3.003910 1_565
Ba4 O11 3.016760 1_565
Ba4 O3 3.029016 1_564
Ba4 O9 3.033912 1_555
Ba5 O3 2.784863 1_555
Ba5 O16 2.820762 1_555
Ba5 O11 2.890428 1_456
Ba5 O18 2.908418 1_545
Ba5 O8 2.984372 1_455
Ba5 O0 3.003910 1_555
Ba5 O10 3.016760 1_545
Ba5 O2 3.029016 1_546
Ba5 O8 3.033912 1_555
Ba6 O4 2.784863 1_555
Ba6 O15 2.820762 1_555
Ba6 O12 2.890428 1_655
Ba6 O21 2.908418 1_545
Ba6 O7 2.984372 1_655
Ba6 O1 3.003910 1_555
Ba6 O13 3.016760 1_545
Ba6 O5 3.029016 1_545
Ba6 O7 3.033912 1_555
Ba7 O5 2.784863 1_555
Ba7 O14 2.820762 1_555
Ba7 O13 2.890428 1_455
Ba7 O20 2.908418 1_565
Ba7 O6 2.984372 1_455
Ba7 O0 3.003910 1_565
Ba7 O12 3.016760 1_565
Ba7 O4 3.029016 1_565
Ba7 O6 3.033912 1_555
Ba8 O8 2.723613 1_555
Ba8 O6 2.723613 1_545
Ba8 O24 2.806808 1_555
Ba8 O22 2.806808 1_545
Ba8 O0 2.896721 1_655
Ba8 O18 2.964062 1_545
Ba8 O20 2.964062 1_555
Ba8 O0 3.076564 1_555
Ba9 O7 2.723613 1_555
Ba9 O9 2.723613 1_545
Ba9 O25 2.806808 1_545
Ba9 O23 2.806808 1_555
Ba9 O1 2.896721 1_455
Ba9 O19 2.964062 1_555
Ba9 O21 2.964062 1_545
Ba9 O1 3.076564 1_555
Ba10 O24 2.816899 1_555
Ba10 O22 2.816899 1_555
Ba10 O16 2.859001 1_555
Ba10 O14 2.859001 1_555
Ba10 O20 2.884236 1_555
Ba10 O18 2.884236 1_555
Ba10 O28 2.975929 1_555
Ba10 O26 2.975929 1_555
Ba11 O23 2.816899 1_555
Ba11 O25 2.816899 1_555
Ba11 O17 2.859001 1_555
Ba11 O15 2.859001 1_555
Ba11 O21 2.884236 1_555
Ba11 O19 2.884236 1_555
Ba11 O29 2.975929 1_555
Ba11 O27 2.975929 1_555
Al0 O5 1.796147 1_555
Al0 O26 1.799147 1_555
Al0 O6 1.800586 1_555
Al0 O13 1.803384 1_555
Al1 O4 1.796147 1_555
Al1 O27 1.799147 1_555
Al1 O7 1.800586 1_555
Al1 O12 1.803384 1_555
Al2 O3 1.796147 1_555
Al2 O28 1.799147 1_555
Al2 O8 1.800586 1_555
Al2 O11 1.803384 1_556
Al3 O2 1.796147 1_555
Al3 O29 1.799147 1_555
Al3 O9 1.800586 1_555
Al3 O10 1.803384 1_554
Al4 O17 1.740063 1_555
Al4 O1 1.778303 1_565
Al4 O25 1.778454 1_655
Al4 O21 1.801586 1_555
Al5 O16 1.740063 1_555
Al5 O0 1.778303 1_555
Al5 O24 1.778454 1_455
Al5 O20 1.801586 1_555
Al6 O15 1.740063 1_555
Al6 O1 1.778303 1_555
Al6 O23 1.778454 1_655
Al6 O19 1.801586 1_555
Al7 O14 1.740063 1_555
Al7 O0 1.778303 1_565
Al7 O22 1.778454 1_455
Al7 O18 1.801586 1_555
O2 Tb0 2.253891 1_554
O3 Tb1 2.253891 1_556
O4 Tb2 2.253891 1_555
O5 Tb3 2.253891 1_555
O6 Tb2 2.441965 1_565
O7 Tb3 2.441965 1_545
O8 Tb0 2.441965 1_545
O9 Tb1 2.441965 1_565
O10 Tb0 2.255204 1_455
O11 Tb1 2.255204 1_655
O12 Tb2 2.255204 1_455
O13 Tb3 2.255204 1_655
O18 Tb0 2.282411 1_555
O19 Tb1 2.282411 1_555
O20 Tb2 2.282411 1_555
O21 Tb3 2.282411 1_555
O22 Tb0 2.288307 1_555
O23 Tb1 2.288307 1_555
O24 Tb2 2.288307 1_555
O25 Tb3 2.288307 1_555
O26 Tb2 2.322378 1_555
O27 Tb3 2.322378 1_555
O28 Tb0 2.322378 1_555
O29 Tb1 2.322378 1_555
