# generated using pymatgen
data_BaLa2WO7
_symmetry_space_group_name_H-M   'P 1'
_cell_length_a   5.89578100
_cell_length_b   9.01669300
_cell_length_c   12.99120930
_cell_angle_alpha   74.75122310
_cell_angle_beta   90.00000000
_cell_angle_gamma   90.00000000
_symmetry_Int_Tables_number   1
_chemical_formula_structural   BaLa2WO7
_chemical_formula_sum   'Ba4 La8 W4 O28'
_cell_volume   666.30384935
_cell_formula_units_Z   4
loop_
 _symmetry_equiv_pos_site_id
 _symmetry_equiv_pos_as_xyz
  1  'x, y, z'
loop_
 _atom_site_type_symbol
 _atom_site_label
 _atom_site_symmetry_multiplicity
 _atom_site_fract_x
 _atom_site_fract_y
 _atom_site_fract_z
 _atom_site_occupancy
  Ba  Ba0  1  0.00819800  0.51711500  0.63416100  1
  Ba  Ba1  1  0.50819800  0.48288500  0.86583900  1
  Ba  Ba2  1  0.99180200  0.48288500  0.36583900  1
  Ba  Ba3  1  0.49180200  0.51711500  0.13416100  1
  La  La0  1  0.51107100  0.80495400  0.58450800  1
  La  La1  1  0.01107100  0.19504600  0.91549200  1
  La  La2  1  0.48892900  0.19504600  0.41549200  1
  La  La3  1  0.98892900  0.80495400  0.08450900  1
  La  La4  1  0.01668700  0.93329700  0.36988300  1
  La  La5  1  0.51668700  0.06670300  0.13011700  1
  La  La6  1  0.98331300  0.06670300  0.63011700  1
  La  La7  1  0.48331300  0.93329700  0.86988300  1
  W  W0  1  0.02395600  0.71935000  0.83840500  1
  W  W1  1  0.52395600  0.28065000  0.66159500  1
  W  W2  1  0.97604400  0.28065000  0.16159500  1
  W  W3  1  0.47604400  0.71935000  0.33840500  1
  O  O0  1  0.02262200  0.50315500  0.84249200  1
  O  O1  1  0.52262200  0.49684500  0.65750800  1
  O  O2  1  0.97737800  0.49684500  0.15750800  1
  O  O3  1  0.47737800  0.50315500  0.34249200  1
  O  O4  1  0.04272200  0.94407100  0.82002000  1
  O  O5  1  0.54272200  0.05592900  0.67998000  1
  O  O6  1  0.95727800  0.05592900  0.17998000  1
  O  O7  1  0.45727800  0.94407100  0.32002000  1
  O  O8  1  0.76486700  0.70763200  0.93353100  1
  O  O9  1  0.26486700  0.29236800  0.56646900  1
  O  O10  1  0.23513300  0.29236800  0.06646900  1
  O  O11  1  0.73513300  0.70763200  0.43353100  1
  O  O12  1  0.30778800  0.74597800  0.75076800  1
  O  O13  1  0.80778800  0.25402200  0.74923200  1
  O  O14  1  0.69221200  0.25402200  0.24923200  1
  O  O15  1  0.19221200  0.74597800  0.25076800  1
  O  O16  1  0.23721400  0.69145100  0.95954300  1
  O  O17  1  0.73721400  0.30854900  0.54045700  1
  O  O18  1  0.76278600  0.30854900  0.04045700  1
  O  O19  1  0.26278600  0.69145100  0.45954300  1
  O  O20  1  0.84510200  0.76326900  0.70694500  1
  O  O21  1  0.34510200  0.23673100  0.79305500  1
  O  O22  1  0.15489800  0.23673100  0.29305500  1
  O  O23  1  0.65489800  0.76326900  0.20694500  1
  O  O24  1  0.23761200  0.99314300  0.50828800  1
  O  O25  1  0.73761200  0.00685700  0.99171200  1
  O  O26  1  0.76238800  0.00685700  0.49171200  1
  O  O27  1  0.26238800  0.99314300  0.00828800  1
loop_
_geom_bond_atom_site_label_1
_geom_bond_atom_site_label_2
_geom_bond_distance
_geom_bond_site_symmetry_2
Ba0 O0 2.677473 1_555
Ba0 O13 2.718995 1_455
Ba0 O20 2.801570 1_455
Ba0 O19 2.827419 1_555
Ba0 O9 2.847337 1_555
Ba0 O1 2.879609 1_455
Ba0 O17 2.962294 1_455
Ba0 O1 3.048756 1_555
Ba0 O11 3.159284 1_455
Ba1 O1 2.677473 1_555
Ba1 O12 2.718995 1_555
Ba1 O21 2.801570 1_555
Ba1 O18 2.827419 1_556
Ba1 O8 2.847337 1_555
Ba1 O0 2.879609 1_555
Ba1 O16 2.962294 1_555
Ba1 O0 3.048756 1_655
Ba1 O10 3.159284 1_556
Ba2 O2 2.677473 1_555
Ba2 O15 2.718995 1_655
Ba2 O22 2.801570 1_655
Ba2 O17 2.827419 1_555
Ba2 O11 2.847337 1_555
Ba2 O3 2.879609 1_655
Ba2 O19 2.962294 1_655
Ba2 O3 3.048756 1_555
Ba2 O9 3.159284 1_655
Ba3 O3 2.677473 1_555
Ba3 O14 2.718995 1_555
Ba3 O23 2.801570 1_555
Ba3 O16 2.827419 1_554
Ba3 O10 2.847337 1_555
Ba3 O2 2.879609 1_555
Ba3 O18 2.962294 1_555
Ba3 O2 3.048756 1_455
Ba3 O8 3.159284 1_554
La0 O24 2.361206 1_555
La0 O12 2.404221 1_555
La0 O26 2.410092 1_565
La0 O20 2.497048 1_555
La0 O19 2.588387 1_555
La0 O1 2.690002 1_555
La0 O11 2.695828 1_555
La0 O5 2.858422 1_565
La1 O25 2.361206 1_455
La1 O13 2.404221 1_455
La1 O27 2.410092 1_546
La1 O21 2.497048 1_555
La1 O18 2.588387 1_456
La1 O0 2.690002 1_555
La1 O10 2.695828 1_556
La1 O4 2.858422 1_545
La2 O26 2.361206 1_555
La2 O14 2.404221 1_555
La2 O24 2.410092 1_545
La2 O22 2.497048 1_555
La2 O17 2.588387 1_555
La2 O3 2.690002 1_555
La2 O9 2.695828 1_555
La2 O7 2.858422 1_545
La3 O27 2.361209 1_655
La3 O15 2.404211 1_655
La3 O25 2.410095 1_564
La3 O23 2.497040 1_555
La3 O16 2.588397 1_654
La3 O2 2.690001 1_555
La3 O8 2.695839 1_554
La3 O6 2.858414 1_565
La4 O24 2.393973 1_555
La4 O26 2.396863 1_465
La4 O6 2.448840 1_465
La4 O11 2.587363 1_455
La4 O19 2.623190 1_555
La4 O7 2.672756 1_555
La4 O15 2.773638 1_555
La4 O22 2.776561 1_565
La5 O25 2.393973 1_554
La5 O27 2.396863 1_545
La5 O7 2.448840 1_545
La5 O10 2.587363 1_555
La5 O18 2.623190 1_555
La5 O6 2.672756 1_555
La5 O14 2.773638 1_555
La5 O23 2.776561 1_545
La6 O26 2.393973 1_555
La6 O24 2.396863 1_645
La6 O4 2.448840 1_645
La6 O9 2.587363 1_655
La6 O17 2.623190 1_555
La6 O5 2.672756 1_555
La6 O13 2.773638 1_555
La6 O20 2.776561 1_545
La7 O27 2.393973 1_556
La7 O25 2.396863 1_565
La7 O5 2.448840 1_565
La7 O8 2.587363 1_555
La7 O16 2.623190 1_555
La7 O4 2.672756 1_555
La7 O12 2.773638 1_555
La7 O21 2.776561 1_565
O0 W0 1.936093 1_555
O1 W1 1.936093 1_555
O2 W2 1.936093 1_555
O3 W3 1.936093 1_555
O4 W0 1.979992 1_555
O5 W1 1.979992 1_555
O6 W2 1.979992 1_555
O7 W3 1.979992 1_555
O8 W0 1.950138 1_655
O9 W1 1.950138 1_555
O10 W2 1.950138 1_455
O11 W3 1.950138 1_555
O12 W0 2.002591 1_555
O13 W1 2.002591 1_555
O14 W2 2.002591 1_555
O15 W3 2.002591 1_555
O16 W0 1.978009 1_555
O17 W1 1.978009 1_555
O18 W2 1.978009 1_555
O19 W3 1.978009 1_555
O20 W0 1.956954 1_655
O21 W1 1.956954 1_555
O22 W2 1.956954 1_455
O23 W3 1.956954 1_555
