# generated using pymatgen
data_Li7Mn(O2F)2
_symmetry_space_group_name_H-M   'P 1'
_cell_length_a   5.42800000
_cell_length_b   5.77824292
_cell_length_c   10.03887339
_cell_angle_alpha   105.19299865
_cell_angle_beta   87.17868953
_cell_angle_gamma   115.50172812
_symmetry_Int_Tables_number   1
_chemical_formula_structural   Li7Mn(O2F)2
_chemical_formula_sum   'Li14 Mn2 O8 F4'
_cell_volume   273.52092524
_cell_formula_units_Z   2
loop_
 _symmetry_equiv_pos_site_id
 _symmetry_equiv_pos_as_xyz
  1  'x, y, z'
loop_
 _atom_site_type_symbol
 _atom_site_label
 _atom_site_symmetry_multiplicity
 _atom_site_fract_x
 _atom_site_fract_y
 _atom_site_fract_z
 _atom_site_occupancy
  Li  Li0  1  0.05341500  0.96431000  0.76530300  1
  Li  Li1  1  0.48491000  0.37556100  0.25202400  1
  Li  Li2  1  0.53167100  0.04559300  0.61122400  1
  Li  Li3  1  0.96787700  0.44925200  0.88363600  1
  Li  Li4  1  0.05396300  0.78967500  0.55616100  1
  Li  Li5  1  0.52773700  0.29077000  0.04175200  1
  Li  Li6  1  0.95813700  0.64245700  0.33584000  1
  Li  Li7  1  0.47382600  0.75572300  0.94149500  1
  Li  Li8  1  0.95783700  0.19612500  0.46935900  1
  Li  Li9  1  0.98887500  0.50542200  0.10992100  1
  Li  Li10  1  0.49254500  0.97321900  0.38298400  1
  Li  Li11  1  0.47460300  0.57045100  0.72729200  1
  Li  Li12  1  0.00413800  0.09871700  0.25262700  1
  Li  Li13  1  0.52767300  0.86105400  0.17189300  1
  Mn  Mn0  1  0.00309600  0.96235100  0.03937200  1
  Mn  Mn1  1  0.50393400  0.50153500  0.49341500  1
  O  O0  1  0.24935400  0.16455100  0.59802600  1
  O  O1  1  0.29303600  0.03972800  0.19834600  1
  O  O2  1  0.16019400  0.80029300  0.96338400  1
  O  O3  1  0.67032500  0.31354200  0.43438500  1
  O  O4  1  0.69616000  0.63171300  0.10838100  1
  O  O5  1  0.34021900  0.70035100  0.53939000  1
  O  O6  1  0.82724100  0.17492000  0.06044900  1
  O  O7  1  0.77666400  0.84131600  0.38902500  1
  F  F0  1  0.83518400  0.59359500  0.71056400  1
  F  F1  1  0.29009200  0.38906700  0.89121300  1
  F  F2  1  0.68476300  0.92560700  0.78657700  1
  F  F3  1  0.17253100  0.44310300  0.28596200  1
loop_
_geom_bond_atom_site_label_1
_geom_bond_atom_site_label_2
_geom_bond_distance
_geom_bond_site_symmetry_2
Li0 O0 2.252291 1_565
Li1 O1 1.705171 1_555
Li1 O4 2.253770 1_555
Li1 O3 2.308374 1_555
Li1 O7 2.499351 1_555
Li2 O5 1.764716 1_545
Li2 O0 1.952704 1_555
Li3 O2 1.803578 1_655
Li4 O5 1.824359 1_555
Li4 O0 1.892639 1_565
Li4 O7 2.463246 1_455
Li5 O4 1.727127 1_555
Li5 O6 2.039421 1_555
Li6 O7 1.782407 1_555
Li6 O3 2.303925 1_555
Li7 O2 1.823127 1_555
Li8 O7 1.815510 1_545
Li8 O3 2.027221 1_555
Li8 O0 2.186058 1_655
Li9 O6 1.663272 1_555
Li9 O4 2.015920 1_555
Li10 O3 1.716868 1_565
Li10 O7 2.002125 1_555
Li11 O0 2.184357 1_555
Li12 O1 1.775092 1_555
Li12 O7 2.220658 1_445
Li13 O4 1.882115 1_555
Li13 O1 1.927104 1_565
Mn0 O2 1.560466 1_554
Mn0 O6 1.821548 1_465
Mn0 O4 2.178300 1_455
Mn1 O3 1.673789 1_555
Mn1 O5 1.698010 1_555
Mn1 O0 2.327215 1_555
Mn1 O7 2.359539 1_555
F0 Li0 1.885697 1_655
F0 Li11 1.905487 1_555
F0 Li4 2.162695 1_655
F0 Li3 2.373425 1_555
F1 Li7 1.845979 1_555
F1 Li3 1.932967 1_455
F1 Li11 2.155774 1_555
F1 Li0 2.256260 1_545
F1 Li5 2.354375 1_556
F2 Li11 1.810475 1_555
F2 Li0 1.922869 1_655
F2 Li7 2.085735 1_555
F2 Li2 2.355806 1_565
F3 Li12 1.738450 1_555
F3 Li1 1.893853 1_555
F3 Li6 1.930417 1_455
F3 Li9 2.250048 1_455
