# generated using pymatgen
data_La3AlFeS7
_symmetry_space_group_name_H-M   'P 1'
_cell_length_a   10.22582009
_cell_length_b   10.22582009
_cell_length_c   5.99537800
_cell_angle_alpha   90.00000000
_cell_angle_beta   90.00000000
_cell_angle_gamma   120.00000059
_symmetry_Int_Tables_number   1
_chemical_formula_structural   La3AlFeS7
_chemical_formula_sum   'La6 Al2 Fe2 S14'
_cell_volume   542.92956846
_cell_formula_units_Z   2
loop_
 _symmetry_equiv_pos_site_id
 _symmetry_equiv_pos_as_xyz
  1  'x, y, z'
loop_
 _atom_site_type_symbol
 _atom_site_label
 _atom_site_symmetry_multiplicity
 _atom_site_fract_x
 _atom_site_fract_y
 _atom_site_fract_z
 _atom_site_occupancy
  La  La0  1  0.23340500  0.37562600  0.25624900  1
  La  La1  1  0.62437400  0.85777900  0.25624900  1
  La  La2  1  0.14222100  0.76659500  0.25624900  1
  La  La3  1  0.76659500  0.62437400  0.75624900  1
  La  La4  1  0.37562600  0.14222100  0.75624900  1
  La  La5  1  0.85777900  0.23340500  0.75624900  1
  Al  Al0  1  0.33333300  0.66666700  0.83667400  1
  Al  Al1  1  0.66666700  0.33333300  0.33667400  1
  Fe  Fe0  1  0.00000000  0.00000000  0.47864900  1
  Fe  Fe1  1  0.00000000  0.00000000  0.97864900  1
  S  S0  1  0.14306500  0.23210700  0.71485900  1
  S  S1  1  0.76789300  0.91095800  0.71485900  1
  S  S2  1  0.08904200  0.85693500  0.71485900  1
  S  S3  1  0.85693500  0.76789300  0.21485900  1
  S  S4  1  0.23210700  0.08904200  0.21485900  1
  S  S5  1  0.91095800  0.14306500  0.21485900  1
  S  S6  1  0.09984600  0.51933300  0.98095500  1
  S  S7  1  0.48066700  0.58051300  0.98095500  1
  S  S8  1  0.41948700  0.90015400  0.98095500  1
  S  S9  1  0.90015400  0.48066700  0.48095500  1
  S  S10  1  0.51933300  0.41948700  0.48095500  1
  S  S11  1  0.58051300  0.09984600  0.48095500  1
  S  S12  1  0.33333300  0.66666700  0.46689000  1
  S  S13  1  0.66666700  0.33333300  0.96689000  1
loop_
_geom_bond_atom_site_label_1
_geom_bond_atom_site_label_2
_geom_bond_distance
_geom_bond_site_symmetry_2
La0 S7 2.865197 1_554
La0 S12 2.907788 1_555
La0 S4 2.934453 1_555
La0 S5 2.957667 1_455
La0 S6 2.959036 1_554
La0 S0 3.035038 1_555
La0 S10 3.041974 1_555
La0 S0 3.490981 1_554
La1 S8 2.865197 1_554
La1 S12 2.907787 1_555
La1 S5 2.934453 1_565
La1 S3 2.957667 1_555
La1 S7 2.959035 1_554
La1 S1 3.035038 1_555
La1 S11 3.041974 1_565
La1 S1 3.490981 1_554
La2 S6 2.865197 1_554
La2 S12 2.907780 1_555
La2 S3 2.934453 1_455
La2 S4 2.957667 1_565
La2 S8 2.959035 1_554
La2 S2 3.035038 1_555
La2 S9 3.041974 1_455
La2 S2 3.490981 1_554
La3 S10 2.865197 1_555
La3 S13 2.907788 1_555
La3 S1 2.934453 1_555
La3 S2 2.957667 1_655
La3 S9 2.959036 1_555
La3 S3 3.035038 1_556
La3 S7 3.041974 1_555
La3 S3 3.490981 1_555
La4 S11 2.865197 1_555
La4 S13 2.907787 1_555
La4 S2 2.934453 1_545
La4 S0 2.957667 1_555
La4 S10 2.959035 1_555
La4 S4 3.035038 1_556
La4 S8 3.041974 1_545
La4 S4 3.490981 1_555
La5 S9 2.865197 1_555
La5 S13 2.907780 1_555
La5 S0 2.934453 1_655
La5 S1 2.957667 1_545
La5 S11 2.959035 1_555
La5 S5 3.035038 1_556
La5 S6 3.041974 1_655
La5 S5 3.490981 1_555
Al0 S12 2.216995 1_555
Al0 S8 2.263087 1_555
Al0 S6 2.263089 1_555
Al0 S7 2.263096 1_555
Al1 S13 2.216995 1_554
Al1 S11 2.263087 1_555
Al1 S9 2.263089 1_555
Al1 S10 2.263096 1_555
Fe0 S0 2.511354 1_555
Fe0 S1 2.511354 1_445
Fe0 S2 2.511354 1_545
Fe0 S3 2.608174 1_445
Fe0 S4 2.608174 1_555
Fe0 S5 2.608174 1_455
Fe1 S3 2.511354 1_446
Fe1 S4 2.511354 1_556
Fe1 S5 2.511354 1_456
Fe1 S0 2.608174 1_555
Fe1 S1 2.608174 1_445
Fe1 S2 2.608174 1_545
