# generated using pymatgen
data_Li5Mn2CoO8
_symmetry_space_group_name_H-M   'P 1'
_cell_length_a   2.92327900
_cell_length_b   5.15175500
_cell_length_c   9.83201635
_cell_angle_alpha   78.89928810
_cell_angle_beta   90.00000000
_cell_angle_gamma   90.00000000
_symmetry_Int_Tables_number   1
_chemical_formula_structural   Li5Mn2CoO8
_chemical_formula_sum   'Li5 Mn2 Co1 O8'
_cell_volume   145.29997971
_cell_formula_units_Z   1
loop_
 _symmetry_equiv_pos_site_id
 _symmetry_equiv_pos_as_xyz
  1  'x, y, z'
loop_
 _atom_site_type_symbol
 _atom_site_label
 _atom_site_symmetry_multiplicity
 _atom_site_fract_x
 _atom_site_fract_y
 _atom_site_fract_z
 _atom_site_occupancy
  Li  Li0  1  0.00000000  0.74474100  0.73624600  1
  Li  Li1  1  0.50000000  0.00245000  0.48344900  1
  Li  Li2  1  0.00000000  0.24763000  0.26580700  1
  Li  Li3  1  0.50000000  0.50460800  0.00952800  1
  Li  Li4  1  0.00000000  0.50691900  0.49821800  1
  Mn  Mn0  1  0.00000000  0.99562400  0.00132500  1
  Mn  Mn1  1  0.50000000  0.26163200  0.74283100  1
  Co  Co0  1  0.50000000  0.72385100  0.27006000  1
  O  O0  1  0.00000000  0.13717100  0.64485300  1
  O  O1  1  0.50000000  0.39180900  0.36497900  1
  O  O2  1  0.00000000  0.66004000  0.11629000  1
  O  O3  1  0.50000000  0.90103000  0.88495300  1
  O  O4  1  0.00000000  0.34385300  0.86904100  1
  O  O5  1  0.50000000  0.59288600  0.64122300  1
  O  O6  1  0.00000000  0.87637600  0.36566400  1
  O  O7  1  0.50000000  0.10938100  0.10553300  1
loop_
_geom_bond_atom_site_label_1
_geom_bond_atom_site_label_2
_geom_bond_distance
_geom_bond_site_symmetry_2
Li0 O5 1.975529 1_555
Li0 O5 1.975529 1_455
Li0 O0 2.048216 1_565
Li0 O4 2.220750 1_555
Li0 O3 2.318554 1_455
Li0 O3 2.318554 1_555
Li1 O6 2.046702 1_545
Li1 O6 2.046702 1_645
Li1 O1 2.116749 1_555
Li1 O0 2.358081 1_555
Li1 O0 2.358081 1_655
Li1 O5 2.366002 1_545
Li2 O6 1.974568 1_545
Li2 O1 1.979327 1_555
Li2 O1 1.979327 1_455
Li2 O2 2.339324 1_555
Li2 O7 2.357759 1_455
Li2 O7 2.357759 1_555
Li3 O2 2.050144 1_555
Li3 O2 2.050144 1_655
Li3 O7 2.072841 1_555
Li3 O3 2.169755 1_554
Li3 O4 2.273907 1_654
Li3 O4 2.273907 1_554
Li4 O6 2.089515 1_555
Li4 O1 2.122104 1_455
Li4 O1 2.122104 1_555
Li4 O5 2.132892 1_455
Li4 O5 2.132892 1_555
Li4 O0 2.156272 1_555
Mn0 O2 1.874588 1_555
Mn0 O7 1.939281 1_465
Mn0 O7 1.939281 1_565
Mn0 O3 1.974262 1_454
Mn0 O3 1.974262 1_554
Mn0 O4 2.002881 1_564
Mn1 O5 1.803834 1_555
Mn1 O0 1.927006 1_555
Mn1 O0 1.927006 1_655
Mn1 O4 2.014458 1_555
Mn1 O4 2.014458 1_655
Mn1 O3 2.098607 1_545
Co0 O1 1.783920 1_555
Co0 O6 1.980355 1_555
Co0 O6 1.980355 1_655
Co0 O2 2.172922 1_555
Co0 O2 2.172922 1_655
Co0 O7 2.307461 1_565
