# generated using pymatgen
data_Li9Co7O16
_symmetry_space_group_name_H-M   'P 1'
_cell_length_a   5.02975800
_cell_length_b   5.83783796
_cell_length_c   9.78829078
_cell_angle_alpha   90.15474753
_cell_angle_beta   99.63272442
_cell_angle_gamma   90.18355211
_symmetry_Int_Tables_number   1
_chemical_formula_structural   Li9Co7O16
_chemical_formula_sum   'Li9 Co7 O16'
_cell_volume   283.35740182
_cell_formula_units_Z   1
loop_
 _symmetry_equiv_pos_site_id
 _symmetry_equiv_pos_as_xyz
  1  'x, y, z'
loop_
 _atom_site_type_symbol
 _atom_site_label
 _atom_site_symmetry_multiplicity
 _atom_site_fract_x
 _atom_site_fract_y
 _atom_site_fract_z
 _atom_site_occupancy
  Li  Li0  1  0.75115400  0.75304900  0.24414000  1
  Li  Li1  1  0.74881600  0.49744100  0.75217000  1
  Li  Li2  1  0.74842900  0.24453200  0.24501400  1
  Li  Li3  1  0.25118400  0.50255900  0.24783000  1
  Li  Li4  1  0.24884600  0.24695100  0.75586000  1
  Li  Li5  1  0.25743300  0.99868700  0.24528900  1
  Li  Li6  1  0.74256700  0.00131300  0.75471100  1
  Li  Li7  1  0.25157100  0.75546800  0.75498600  1
  Li  Li8  1  0.50000000  0.00000000  0.00000000  1
  Co  Co0  1  0.99818300  0.75554600  0.99943400  1
  Co  Co1  1  0.00181700  0.24445400  0.00056600  1
  Co  Co2  1  0.00000000  0.50000000  0.50000000  1
  Co  Co3  1  0.00000000  0.00000000  0.50000000  1
  Co  Co4  1  0.50314600  0.24842300  0.50171500  1
  Co  Co5  1  0.49685400  0.75157700  0.49828500  1
  Co  Co6  1  0.50000000  0.50000000  0.00000000  1
  O  O0  1  0.89862600  0.00690100  0.11765100  1
  O  O1  1  0.87398900  0.73068100  0.61182200  1
  O  O2  1  0.85390400  0.50622000  0.11031600  1
  O  O3  1  0.36398500  0.72861400  0.10784200  1
  O  O4  1  0.36098800  0.51108100  0.61015000  1
  O  O5  1  0.36530200  0.27255000  0.10905400  1
  O  O6  1  0.87577300  0.23038800  0.62004600  1
  O  O7  1  0.37861900  0.00918100  0.61820100  1
  O  O8  1  0.63901200  0.48891900  0.38985000  1
  O  O9  1  0.63601500  0.27138600  0.89215800  1
  O  O10  1  0.62138100  0.99081900  0.38179900  1
  O  O11  1  0.12601100  0.26931900  0.38817800  1
  O  O12  1  0.10137400  0.99309900  0.88234900  1
  O  O13  1  0.12422700  0.76961200  0.37995400  1
  O  O14  1  0.63469800  0.72745000  0.89094600  1
  O  O15  1  0.14609600  0.49378000  0.88968400  1
loop_
_geom_bond_atom_site_label_1
_geom_bond_atom_site_label_2
_geom_bond_distance
_geom_bond_site_symmetry_2
Li0 O2 2.068916 1_555
Li0 O10 2.111498 1_555
Li0 O13 2.112121 1_655
Li0 O0 2.142309 1_565
Li0 O3 2.172602 1_555
Li0 O8 2.237294 1_555
Li1 O9 2.050889 1_555
Li1 O14 2.057588 1_555
Li1 O1 2.105157 1_555
Li1 O6 2.186936 1_555
Li1 O4 2.199557 1_555
Li1 O15 2.214822 1_655
Li2 O0 2.088519 1_555
Li2 O2 2.143223 1_555
Li2 O8 2.145555 1_555
Li2 O5 2.157831 1_555
Li2 O10 2.164652 1_545
Li2 O11 2.167468 1_655
Li3 O3 2.050889 1_555
Li3 O5 2.057588 1_555
Li3 O11 2.105157 1_555
Li3 O13 2.186936 1_555
Li3 O8 2.199557 1_555
Li3 O2 2.214822 1_455
Li4 O15 2.068916 1_555
Li4 O7 2.111498 1_555
Li4 O6 2.112121 1_455
Li4 O12 2.142309 1_545
Li4 O9 2.172602 1_555
Li4 O4 2.237294 1_555
Li5 O0 2.016552 1_465
Li5 O13 2.067390 1_555
Li5 O10 2.078655 1_555
Li5 O3 2.195064 1_555
Li5 O5 2.208338 1_565
Li5 O11 2.278904 1_565
Li6 O12 2.016552 1_645
Li6 O6 2.067390 1_555
Li6 O7 2.078655 1_555
Li6 O9 2.195064 1_555
Li6 O14 2.208338 1_545
Li6 O1 2.278904 1_545
Li7 O12 2.088519 1_555
Li7 O15 2.143223 1_555
Li7 O4 2.145555 1_555
Li7 O14 2.157831 1_555
Li7 O7 2.164652 1_565
Li7 O1 2.167468 1_455
Li8 O3 2.082328 1_545
Li8 O9 2.082328 1_554
Li8 O14 2.090413 1_544
Li8 O5 2.090413 1_555
Li8 O12 2.138765 1_544
Li8 O0 2.138765 1_555
Co0 O12 1.925900 1_655
Co0 O14 1.960724 1_555
Co0 O3 1.971116 1_656
Co0 O0 1.983016 1_566
Co0 O2 2.022005 1_556
Co0 O15 2.075729 1_655
Co1 O0 1.925900 1_455
Co1 O5 1.960724 1_555
Co1 O9 1.971116 1_454
Co1 O12 1.983016 1_544
Co1 O15 2.022005 1_554
Co1 O2 2.075729 1_455
Co2 O11 1.908653 1_555
Co2 O1 1.908653 1_455
Co2 O4 1.951174 1_555
Co2 O8 1.951174 1_455
Co2 O13 2.120818 1_555
Co2 O6 2.120818 1_455
Co3 O6 1.955158 1_455
Co3 O13 1.955158 1_545
Co3 O7 2.056629 1_555
Co3 O10 2.056629 1_445
Co3 O11 2.075273 1_555
Co3 O1 2.075273 1_445
Co4 O7 1.971041 1_555
Co4 O8 1.972227 1_555
Co4 O6 2.034892 1_555
Co4 O11 2.035898 1_555
Co4 O10 2.054938 1_545
Co4 O4 2.059418 1_555
Co5 O10 1.971041 1_555
Co5 O4 1.972227 1_555
Co5 O13 2.034892 1_555
Co5 O1 2.035898 1_555
Co5 O7 2.054938 1_565
Co5 O8 2.059418 1_555
Co6 O3 1.898262 1_555
Co6 O9 1.898262 1_554
Co6 O5 1.898809 1_555
Co6 O14 1.898809 1_554
Co6 O15 1.921456 1_554
Co6 O2 1.921456 1_555
