# generated using pymatgen
data_KP4(CO2)4
_symmetry_space_group_name_H-M   'P 1'
_cell_length_a   13.83453664
_cell_length_b   13.83453664
_cell_length_c   13.83453664
_cell_angle_alpha   142.68197247
_cell_angle_beta   142.68197247
_cell_angle_gamma   53.80284860
_symmetry_Int_Tables_number   1
_chemical_formula_structural   KP4(CO2)4
_chemical_formula_sum   'K2 P8 C8 O16'
_cell_volume   966.80530850
_cell_formula_units_Z   2
loop_
 _symmetry_equiv_pos_site_id
 _symmetry_equiv_pos_as_xyz
  1  'x, y, z'
loop_
 _atom_site_type_symbol
 _atom_site_label
 _atom_site_symmetry_multiplicity
 _atom_site_fract_x
 _atom_site_fract_y
 _atom_site_fract_z
 _atom_site_occupancy
  K  K0  1  0.00000000  0.00000000  0.00000000  1
  K  K1  1  0.75000000  0.25000000  0.50000000  1
  P  P0  1  0.31880600  0.15709900  0.16170700  1
  P  P1  1  0.99539300  0.15709900  0.83829300  1
  P  P2  1  0.90709900  0.24539300  0.33829300  1
  P  P3  1  0.75460700  0.09290100  0.66170700  1
  P  P4  1  0.43119400  0.09290100  0.33829300  1
  P  P5  1  0.90709900  0.56880600  0.66170700  1
  P  P6  1  0.84290100  0.00460700  0.16170700  1
  P  P7  1  0.84290100  0.68119400  0.83829300  1
  C  C0  1  0.79154100  0.38198800  0.40955300  1
  C  C1  1  0.97243500  0.38198800  0.59044700  1
  C  C2  1  0.13198800  0.22243500  0.09044700  1
  C  C3  1  0.77756500  0.86801200  0.90955300  1
  C  C4  1  0.95845900  0.86801200  0.09044700  1
  C  C5  1  0.13198800  0.04154100  0.90955300  1
  C  C6  1  0.61801200  0.02756500  0.40955300  1
  C  C7  1  0.61801200  0.20845900  0.59044700  1
  O  O0  1  0.67982600  0.61012700  0.06969800  1
  O  O1  1  0.54042900  0.61012700  0.93030200  1
  O  O2  1  0.36012700  0.79042900  0.43030200  1
  O  O3  1  0.20957100  0.63987300  0.56969800  1
  O  O4  1  0.07017400  0.63987300  0.43030200  1
  O  O5  1  0.36012700  0.92982600  0.56969800  1
  O  O6  1  0.38987300  0.45957100  0.06969800  1
  O  O7  1  0.38987300  0.32017400  0.93030200  1
  O  O8  1  0.43660400  0.21309000  0.22351500  1
  O  O9  1  0.98957500  0.21309000  0.77648500  1
  O  O10  1  0.96309000  0.23957500  0.27648500  1
  O  O11  1  0.76042500  0.03691000  0.72351500  1
  O  O12  1  0.31339600  0.03691000  0.27648500  1
  O  O13  1  0.96309000  0.68660400  0.72351500  1
  O  O14  1  0.78691000  0.01042500  0.22351500  1
  O  O15  1  0.78691000  0.56339600  0.77648500  1
loop_
_geom_bond_atom_site_label_1
_geom_bond_atom_site_label_2
_geom_bond_distance
_geom_bond_site_symmetry_2
K0 O10 2.611490 1_455
K0 O11 2.611490 1_454
K0 O12 2.611498 1_555
K0 O13 2.611498 1_444
K1 O9 2.611490 1_555
K1 O14 2.611490 1_555
K1 O15 2.611498 1_555
K1 O8 2.611498 1_555
C0 C1 1.601330 1_555
C0 P2 1.753316 1_555
C0 P5 1.753317 1_555
C1 P5 1.753317 1_555
C1 P2 1.753320 1_555
C2 C5 1.601330 1_554
C2 P0 1.753317 1_555
C2 P1 1.753320 1_454
C3 C4 1.601330 1_556
C3 P7 1.753317 1_555
C3 P6 1.753320 1_566
C4 P6 1.753316 1_565
C4 P7 1.753317 1_554
C5 P1 1.753316 1_455
C5 P0 1.753317 1_556
C6 C7 1.601330 1_555
C6 P4 1.753317 1_555
C6 P3 1.753320 1_555
C7 P3 1.753316 1_555
C7 P4 1.753317 1_555
O0 O1 1.233982 1_554
O2 O5 1.233982 1_555
O3 O4 1.233982 1_555
O6 O7 1.233982 1_554
O8 P0 1.485957 1_555
O9 P1 1.485961 1_555
O10 P2 1.485961 1_555
O11 P3 1.485961 1_555
O12 P4 1.485957 1_555
O13 P5 1.485957 1_555
O14 P6 1.485961 1_555
O15 P7 1.485957 1_555
