# generated using pymatgen
data_TiGa2O5
_symmetry_space_group_name_H-M   'P 1'
_cell_length_a   7.41646576
_cell_length_b   5.27952234
_cell_length_c   10.03580700
_cell_angle_alpha   90.00000000
_cell_angle_beta   90.00000000
_cell_angle_gamma   110.48417112
_symmetry_Int_Tables_number   1
_chemical_formula_structural   TiGa2O5
_chemical_formula_sum   'Ti4 Ga8 O20'
_cell_volume   368.10896524
_cell_formula_units_Z   4
loop_
 _symmetry_equiv_pos_site_id
 _symmetry_equiv_pos_as_xyz
  1  'x, y, z'
loop_
 _atom_site_type_symbol
 _atom_site_label
 _atom_site_symmetry_multiplicity
 _atom_site_fract_x
 _atom_site_fract_y
 _atom_site_fract_z
 _atom_site_occupancy
  Ti  Ti0  1  0.09245100  0.35572900  0.24940100  1
  Ti  Ti1  1  0.43334900  0.73465500  0.05996500  1
  Ti  Ti2  1  0.56665100  0.26534500  0.55996500  1
  Ti  Ti3  1  0.90754900  0.64427100  0.74940100  1
  Ga  Ga0  1  0.07122900  0.28290500  0.56255400  1
  Ga  Ga1  1  0.06797200  0.27419100  0.93561000  1
  Ga  Ga2  1  0.40342700  0.62533300  0.75014500  1
  Ga  Ga3  1  0.43155400  0.72865300  0.43405200  1
  Ga  Ga4  1  0.56844600  0.27134700  0.93405200  1
  Ga  Ga5  1  0.59657300  0.37466700  0.25014500  1
  Ga  Ga6  1  0.92877100  0.71709500  0.06255400  1
  Ga  Ga7  1  0.93202800  0.72580900  0.43561000  1
  O  O0  1  0.02803800  0.09254100  0.11786900  1
  O  O1  1  0.02889200  0.09703900  0.38269800  1
  O  O2  1  0.11183500  0.48432600  0.74911900  1
  O  O3  1  0.15781900  0.61675800  0.07025500  1
  O  O4  1  0.15552500  0.61493900  0.43285300  1
  O  O5  1  0.34882400  0.38439300  0.58159600  1
  O  O6  1  0.34698300  0.38128900  0.92126500  1
  O  O7  1  0.37241400  0.51395100  0.24865800  1
  O  O8  1  0.47744600  0.91348400  0.61717600  1
  O  O9  1  0.47733300  0.89593700  0.88678500  1
  O  O10  1  0.52266700  0.10406300  0.38678500  1
  O  O11  1  0.52255400  0.08651600  0.11717600  1
  O  O12  1  0.62758600  0.48604900  0.74865800  1
  O  O13  1  0.65117600  0.61560700  0.08159600  1
  O  O14  1  0.65301700  0.61871100  0.42126500  1
  O  O15  1  0.84218100  0.38324200  0.57025500  1
  O  O16  1  0.84447500  0.38506100  0.93285300  1
  O  O17  1  0.88816500  0.51567400  0.24911900  1
  O  O18  1  0.97196200  0.90745900  0.61786900  1
  O  O19  1  0.97110800  0.90296100  0.88269800  1
loop_
_geom_bond_atom_site_label_1
_geom_bond_atom_site_label_2
_geom_bond_distance
_geom_bond_site_symmetry_2
Ga0 O18 1.938514 1_445
Ga0 O5 1.946817 1_555
Ga0 O15 1.949891 1_455
Ga0 O1 2.025805 1_555
Ga0 O4 2.095485 1_555
Ga0 O2 2.122029 1_555
Ga1 O19 1.911515 1_445
Ga1 O16 1.941637 1_455
Ga1 O6 1.950240 1_555
Ga1 O0 2.038214 1_556
Ga1 O2 2.141698 1_555
Ga1 O3 2.167365 1_556
Ga2 O9 1.916735 1_555
Ga2 O8 1.952425 1_555
Ga2 O2 2.025903 1_555
Ga2 O12 2.039703 1_555
Ga2 O5 2.069497 1_555
Ga2 O6 2.099291 1_555
Ga3 O10 1.916386 1_565
Ga3 O4 1.921261 1_555
Ga3 O14 1.928302 1_555
Ga3 O8 2.052586 1_555
Ga3 O7 2.142670 1_555
Ga3 O5 2.256525 1_555
Ga4 O9 1.916386 1_545
Ga4 O16 1.921261 1_555
Ga4 O6 1.928302 1_555
Ga4 O11 2.052586 1_556
Ga4 O12 2.142670 1_555
Ga4 O13 2.256525 1_556
Ga5 O10 1.916735 1_555
Ga5 O11 1.952425 1_555
Ga5 O17 2.025903 1_555
Ga5 O7 2.039703 1_555
Ga5 O13 2.069497 1_555
Ga5 O14 2.099291 1_555
Ga6 O0 1.938514 1_665
Ga6 O13 1.946817 1_555
Ga6 O3 1.949891 1_655
Ga6 O19 2.025805 1_554
Ga6 O16 2.095485 1_554
Ga6 O17 2.122029 1_555
Ga7 O1 1.911515 1_665
Ga7 O4 1.941637 1_655
Ga7 O14 1.950240 1_555
Ga7 O18 2.038214 1_555
Ga7 O17 2.141698 1_555
Ga7 O15 2.167365 1_555
O0 Ti0 1.853871 1_555
O1 Ti0 1.851072 1_555
O2 Ti3 1.975849 1_455
O3 Ti1 1.919271 1_555
O3 Ti0 2.213360 1_555
O4 Ti0 2.243476 1_555
O5 Ti2 1.939762 1_555
O6 Ti1 2.234271 1_556
O7 Ti0 1.948098 1_555
O7 Ti1 2.186194 1_555
O8 Ti2 1.832505 1_565
O9 Ti1 1.912509 1_556
O10 Ti2 1.912509 1_555
O11 Ti1 1.832505 1_545
O12 Ti3 1.948098 1_555
O12 Ti2 2.186194 1_555
O13 Ti1 1.939762 1_555
O14 Ti2 2.234271 1_555
O15 Ti2 1.919271 1_555
O15 Ti3 2.213360 1_555
O16 Ti3 2.243476 1_555
O17 Ti0 1.975849 1_655
O18 Ti3 1.853871 1_555
O19 Ti3 1.851072 1_555
