# generated using pymatgen
data_Sr2YbMoO6
_symmetry_space_group_name_H-M   'P 1'
_cell_length_a   5.81473400
_cell_length_b   5.88766300
_cell_length_c   10.06876822
_cell_angle_alpha   90.00000000
_cell_angle_beta   124.98825254
_cell_angle_gamma   90.00000000
_symmetry_Int_Tables_number   1
_chemical_formula_structural   Sr2YbMoO6
_chemical_formula_sum   'Sr4 Yb2 Mo2 O12'
_cell_volume   282.40734964
_cell_formula_units_Z   2
loop_
 _symmetry_equiv_pos_site_id
 _symmetry_equiv_pos_as_xyz
  1  'x, y, z'
loop_
 _atom_site_type_symbol
 _atom_site_label
 _atom_site_symmetry_multiplicity
 _atom_site_fract_x
 _atom_site_fract_y
 _atom_site_fract_z
 _atom_site_occupancy
  Sr  Sr0  1  0.24177700  0.46008300  0.75033300  1
  Sr  Sr1  1  0.24177700  0.03991700  0.25033300  1
  Sr  Sr2  1  0.75822300  0.53991700  0.24966700  1
  Sr  Sr3  1  0.75822300  0.96008300  0.74966700  1
  Yb  Yb0  1  0.50000000  0.50000000  0.50000000  1
  Yb  Yb1  1  0.50000000  0.00000000  0.00000000  1
  Mo  Mo0  1  0.00000000  0.00000000  0.50000000  1
  Mo  Mo1  1  0.00000000  0.50000000  0.00000000  1
  O  O0  1  0.77325500  0.19163000  0.54182900  1
  O  O1  1  0.77325500  0.30837000  0.04182900  1
  O  O2  1  0.22674500  0.80837000  0.45817100  1
  O  O3  1  0.22674500  0.69163000  0.95817100  1
  O  O4  1  0.14063200  0.22954000  0.95378300  1
  O  O5  1  0.14063200  0.27046000  0.45378300  1
  O  O6  1  0.85936800  0.77046000  0.04621700  1
  O  O7  1  0.85936800  0.72954000  0.54621700  1
  O  O8  1  0.31175700  0.02429500  0.72889100  1
  O  O9  1  0.31175700  0.47570500  0.22889100  1
  O  O10  1  0.68824300  0.97570500  0.27110900  1
  O  O11  1  0.68824300  0.52429500  0.77110900  1
loop_
_geom_bond_atom_site_label_1
_geom_bond_atom_site_label_2
_geom_bond_distance
_geom_bond_site_symmetry_2
Mo0 O2 1.955887 1_545
Mo0 O0 1.955887 1_455
Mo0 O8 1.956234 1_555
Mo0 O10 1.956234 1_445
Mo0 O7 1.964004 1_445
Mo0 O5 1.964004 1_555
Mo1 O3 1.955887 1_554
Mo1 O1 1.955887 1_455
Mo1 O11 1.956234 1_454
Mo1 O9 1.956234 1_555
Mo1 O4 1.964004 1_554
Mo1 O6 1.964004 1_455
O0 Yb0 2.287113 1_555
O0 Sr3 2.540708 1_545
O0 Sr0 2.787191 1_655
O0 Sr1 2.925865 1_555
O1 Yb1 2.287113 1_555
O1 Sr2 2.540708 1_555
O1 Sr1 2.787191 1_655
O1 Sr0 2.925865 1_554
O2 Yb0 2.287113 1_555
O2 Sr1 2.540708 1_565
O2 Sr2 2.787191 1_455
O2 Sr3 2.925865 1_555
O3 Yb1 2.287113 1_566
O3 Sr0 2.540708 1_555
O3 Sr3 2.787191 1_455
O3 Sr2 2.925865 1_556
O4 Yb1 2.300947 1_556
O4 Sr3 2.538554 1_445
O4 Sr0 2.786809 1_555
O4 Sr1 2.914441 1_556
O5 Yb0 2.300947 1_555
O5 Sr2 2.538554 1_455
O5 Sr1 2.786809 1_555
O5 Sr0 2.914441 1_555
O6 Yb1 2.300947 1_565
O6 Sr1 2.538554 1_665
O6 Sr2 2.786809 1_555
O6 Sr3 2.914441 1_554
O7 Yb0 2.300947 1_555
O7 Sr0 2.538554 1_655
O7 Sr3 2.786809 1_555
O7 Sr2 2.914441 1_555
O8 Yb1 2.289852 1_556
O8 Sr3 2.510682 1_545
O8 Sr0 2.626048 1_555
O9 Yb0 2.289852 1_555
O9 Sr2 2.510682 1_555
O9 Sr1 2.626048 1_555
O10 Yb1 2.289852 1_565
O10 Sr1 2.510682 1_565
O10 Sr2 2.626048 1_555
O11 Yb0 2.289852 1_555
O11 Sr0 2.510682 1_555
O11 Sr3 2.626048 1_555
