# generated using pymatgen
data_Cd3Ag
_symmetry_space_group_name_H-M   'P 1'
_cell_length_a   6.21002799
_cell_length_b   6.21002799
_cell_length_c   19.29268136
_cell_angle_alpha   90.00000000
_cell_angle_beta   90.00000000
_cell_angle_gamma   120.00082020
_symmetry_Int_Tables_number   1
_chemical_formula_structural   Cd3Ag
_chemical_formula_sum   'Cd24 Ag8'
_cell_volume   644.32762053
_cell_formula_units_Z   8
loop_
 _symmetry_equiv_pos_site_id
 _symmetry_equiv_pos_as_xyz
  1  'x, y, z'
loop_
 _atom_site_type_symbol
 _atom_site_label
 _atom_site_symmetry_multiplicity
 _atom_site_fract_x
 _atom_site_fract_y
 _atom_site_fract_z
 _atom_site_occupancy
  Cd  Cd0_0  1  0.16666650  0.33333351  0.25000000  1
  Cd  Cd0_1  1  0.16666650  0.33333351  0.75000000  1
  Cd  Cd0_2  1  0.16666649  0.83333351  0.25000000  1
  Cd  Cd0_3  1  0.16666649  0.83333351  0.75000000  1
  Cd  Cd0_4  1  0.66666649  0.33333351  0.25000000  1
  Cd  Cd0_5  1  0.66666649  0.33333351  0.75000000  1
  Cd  Cd0_6  1  0.66666649  0.83333351  0.25000000  1
  Cd  Cd0_7  1  0.66666649  0.83333351  0.75000000  1
  Cd  Cd1_0  1  0.00000007  0.99999993  0.11890497  1
  Cd  Cd1_1  1  0.00000007  0.99999993  0.61890497  1
  Cd  Cd1_2  1  0.00000007  0.49999993  0.11890497  1
  Cd  Cd1_3  1  0.00000007  0.49999993  0.61890497  1
  Cd  Cd1_4  1  0.50000007  0.99999993  0.11890497  1
  Cd  Cd1_5  1  0.50000007  0.99999993  0.61890497  1
  Cd  Cd1_6  1  0.50000007  0.49999993  0.11890497  1
  Cd  Cd1_7  1  0.50000007  0.49999993  0.61890497  1
  Cd  Cd2_0  1  0.00000007  0.99999993  0.38109503  1
  Cd  Cd2_1  1  0.00000007  0.99999993  0.88109503  1
  Cd  Cd2_2  1  0.00000007  0.49999993  0.38109503  1
  Cd  Cd2_3  1  0.00000007  0.49999993  0.88109503  1
  Cd  Cd2_4  1  0.50000007  0.99999993  0.38109503  1
  Cd  Cd2_5  1  0.50000007  0.99999993  0.88109503  1
  Cd  Cd2_6  1  0.50000007  0.49999993  0.38109503  1
  Cd  Cd2_7  1  0.50000007  0.49999993  0.88109503  1
  Ag  Ag0_0  1  0.16666637  0.33333364  0.00000000  1
  Ag  Ag0_1  1  0.16666637  0.33333364  0.50000000  1
  Ag  Ag0_2  1  0.16666637  0.83333364  0.00000000  1
  Ag  Ag0_3  1  0.16666637  0.83333364  0.50000000  1
  Ag  Ag0_4  1  0.66666636  0.33333364  0.00000000  1
  Ag  Ag0_5  1  0.66666636  0.33333364  0.50000000  1
  Ag  Ag0_6  1  0.66666636  0.83333364  0.00000000  1
  Ag  Ag0_7  1  0.66666636  0.83333364  0.50000000  1
loop_
_geom_bond_atom_site_label_1
_geom_bond_atom_site_label_2
_geom_bond_distance
_geom_bond_site_symmetry_2
Cd0_0 Cd2_6 3.100061 1_555
Cd0_0 Cd1_0 3.100061 1_545
Cd0_0 Cd1_6 3.100061 1_555
Cd0_0 Cd2_0 3.100061 1_545
Cd0_0 Cd2_2 3.100072 1_555
Cd0_0 Cd1_2 3.100072 1_555
Cd0_0 Cd0_6 3.104975 1_555
Cd0_0 Cd0_6 3.104976 1_445
Cd0_0 Cd0_2 3.105014 1_545
Cd0_0 Cd0_4 3.105014 1_555
Cd0_0 Cd0_2 3.105014 1_555
Cd0_0 Cd0_4 3.105014 1_455
Cd0_1 Cd1_7 3.100061 1_555
Cd0_1 Cd2_1 3.100061 1_545
Cd0_1 Cd2_7 3.100061 1_555
Cd0_1 Cd1_1 3.100061 1_545
Cd0_1 Cd2_3 3.100072 1_555
Cd0_1 Cd1_3 3.100072 1_555
Cd0_1 Cd0_7 3.104975 1_555
Cd0_1 Cd0_7 3.104976 1_445
Cd0_1 Cd0_5 3.105014 1_555
Cd0_1 Cd0_3 3.105014 1_545
Cd0_1 Cd0_3 3.105014 1_555
Cd0_1 Cd0_5 3.105014 1_455
Cd0_2 Cd2_2 3.100061 1_555
Cd0_2 Cd1_4 3.100061 1_555
Cd0_2 Cd2_4 3.100061 1_555
Cd0_2 Cd1_2 3.100061 1_555
Cd0_2 Cd1_0 3.100072 1_555
Cd0_2 Cd2_0 3.100072 1_555
Cd0_2 Cd0_4 3.104976 1_455
Cd0_2 Cd0_4 3.104976 1_565
Cd0_2 Cd0_6 3.105014 1_555
Cd0_2 Cd0_6 3.105014 1_455
Cd0_3 Cd1_3 3.100061 1_555
Cd0_3 Cd2_3 3.100061 1_555
Cd0_3 Cd1_5 3.100061 1_555
Cd0_3 Cd2_5 3.100061 1_555
Cd0_3 Cd1_1 3.100072 1_555
Cd0_3 Cd2_1 3.100072 1_555
Cd0_3 Cd0_5 3.104976 1_455
Cd0_3 Cd0_5 3.104976 1_565
Cd0_3 Cd0_7 3.105014 1_455
Cd0_3 Cd0_7 3.105014 1_555
Cd0_4 Cd2_4 3.100061 1_545
Cd0_4 Cd2_2 3.100061 1_655
Cd0_4 Cd1_4 3.100061 1_545
Cd0_4 Cd1_2 3.100061 1_655
Cd0_4 Cd1_6 3.100072 1_555
Cd0_4 Cd2_6 3.100072 1_555
Cd0_4 Cd0_6 3.105014 1_555
Cd0_4 Cd0_6 3.105014 1_545
Cd0_5 Cd2_5 3.100061 1_545
Cd0_5 Cd2_3 3.100061 1_655
Cd0_5 Cd1_5 3.100061 1_545
Cd0_5 Cd1_3 3.100061 1_655
Cd0_5 Cd2_7 3.100072 1_555
Cd0_5 Cd1_7 3.100072 1_555
Cd0_5 Cd0_7 3.105014 1_545
Cd0_5 Cd0_7 3.105014 1_555
Cd0_6 Cd2_6 3.100061 1_555
Cd0_6 Cd1_0 3.100061 1_655
Cd0_6 Cd2_0 3.100061 1_655
Cd0_6 Cd1_6 3.100061 1_555
Cd0_6 Cd1_4 3.100072 1_555
Cd0_6 Cd2_4 3.100072 1_555
Cd0_7 Cd1_7 3.100061 1_555
Cd0_7 Cd2_1 3.100061 1_655
Cd0_7 Cd1_1 3.100061 1_655
Cd0_7 Cd2_7 3.100061 1_555
Cd0_7 Cd2_5 3.100072 1_555
Cd0_7 Cd1_5 3.100072 1_555
Cd1_0 Cd1_6 3.104976 1_455
Cd1_0 Cd1_6 3.104976 1_565
Cd1_0 Cd1_4 3.105014 1_455
Cd1_0 Cd1_2 3.105014 1_565
Cd1_0 Cd1_4 3.105014 1_555
Cd1_0 Cd1_2 3.105014 1_555
Cd1_1 Cd1_7 3.104976 1_565
Cd1_1 Cd1_7 3.104976 1_455
Cd1_1 Cd1_3 3.105014 1_565
Cd1_1 Cd1_5 3.105014 1_455
Cd1_1 Cd1_3 3.105014 1_555
Cd1_1 Cd1_5 3.105014 1_555
Cd1_2 Cd1_4 3.104976 1_555
Cd1_2 Cd1_4 3.104976 1_445
Cd1_2 Cd1_6 3.105014 1_555
Cd1_2 Cd1_6 3.105014 1_455
Cd1_3 Cd1_5 3.104976 1_555
Cd1_3 Cd1_5 3.104976 1_445
Cd1_3 Cd1_7 3.105014 1_555
Cd1_3 Cd1_7 3.105014 1_455
Cd1_4 Cd1_6 3.105014 1_565
Cd1_4 Cd1_6 3.105014 1_555
Cd1_5 Cd1_7 3.105014 1_555
Cd1_5 Cd1_7 3.105014 1_565
Cd2_0 Cd2_6 3.104976 1_565
Cd2_0 Cd2_6 3.104976 1_455
Cd2_0 Cd2_2 3.105014 1_555
Cd2_0 Cd2_4 3.105014 1_455
Cd2_0 Cd2_2 3.105014 1_565
Cd2_0 Cd2_4 3.105014 1_555
Cd2_1 Cd2_7 3.104976 1_455
Cd2_1 Cd2_7 3.104976 1_565
Cd2_1 Cd2_5 3.105014 1_455
Cd2_1 Cd2_5 3.105014 1_555
Cd2_1 Cd2_3 3.105014 1_555
Cd2_1 Cd2_3 3.105014 1_565
Cd2_2 Cd2_4 3.104976 1_555
Cd2_2 Cd2_4 3.104976 1_445
Cd2_2 Cd2_6 3.105014 1_455
Cd2_2 Cd2_6 3.105014 1_555
Cd2_3 Cd2_5 3.104976 1_555
Cd2_3 Cd2_5 3.104976 1_445
Cd2_3 Cd2_7 3.105014 1_555
Cd2_3 Cd2_7 3.105014 1_455
Cd2_4 Cd2_6 3.105014 1_555
Cd2_4 Cd2_6 3.105014 1_565
Cd2_5 Cd2_7 3.105014 1_555
Cd2_5 Cd2_7 3.105014 1_565
Ag0_0 Cd1_6 2.911370 1_555
Ag0_0 Cd2_1 2.911370 1_544
Ag0_0 Cd1_0 2.911370 1_545
Ag0_0 Cd2_7 2.911370 1_554
Ag0_0 Cd2_3 2.911380 1_554
Ag0_0 Cd1_2 2.911380 1_555
Ag0_1 Cd1_1 2.911370 1_545
Ag0_1 Cd2_0 2.911370 1_545
Ag0_1 Cd2_6 2.911370 1_555
Ag0_1 Cd1_7 2.911370 1_555
Ag0_1 Cd2_2 2.911380 1_555
Ag0_1 Cd1_3 2.911380 1_555
Ag0_2 Cd2_5 2.911370 1_554
Ag0_2 Cd2_3 2.911370 1_554
Ag0_2 Cd1_4 2.911370 1_555
Ag0_2 Cd1_2 2.911370 1_555
Ag0_2 Cd2_1 2.911380 1_554
Ag0_2 Cd1_0 2.911380 1_555
Ag0_3 Cd2_2 2.911370 1_555
Ag0_3 Cd1_3 2.911370 1_555
Ag0_3 Cd2_4 2.911370 1_555
Ag0_3 Cd1_5 2.911370 1_555
Ag0_3 Cd2_0 2.911380 1_555
Ag0_3 Cd1_1 2.911380 1_555
Ag0_4 Cd1_2 2.911370 1_655
Ag0_4 Cd2_3 2.911370 1_654
Ag0_4 Cd1_4 2.911370 1_545
Ag0_4 Cd2_5 2.911370 1_544
Ag0_4 Cd2_7 2.911380 1_554
Ag0_4 Cd1_6 2.911380 1_555
Ag0_5 Cd1_5 2.911370 1_545
Ag0_5 Cd2_4 2.911370 1_545
Ag0_5 Cd1_3 2.911370 1_655
Ag0_5 Cd2_2 2.911370 1_655
Ag0_5 Cd2_6 2.911380 1_555
Ag0_5 Cd1_7 2.911380 1_555
Ag0_6 Cd1_6 2.911370 1_555
Ag0_6 Cd1_0 2.911370 1_655
Ag0_6 Cd2_1 2.911370 1_654
Ag0_6 Cd2_7 2.911370 1_554
Ag0_6 Cd1_4 2.911380 1_555
Ag0_6 Cd2_5 2.911380 1_554
Ag0_7 Cd2_0 2.911370 1_655
Ag0_7 Cd2_6 2.911370 1_555
Ag0_7 Cd1_7 2.911370 1_555
Ag0_7 Cd1_1 2.911370 1_655
Ag0_7 Cd1_5 2.911380 1_555
Ag0_7 Cd2_4 2.911380 1_555
