# generated using pymatgen
data_LaInNi5
_symmetry_space_group_name_H-M   'P 1'
_cell_length_a   4.95151991
_cell_length_b   4.95151991
_cell_length_c   19.88641800
_cell_angle_alpha   90.00000000
_cell_angle_beta   90.00000000
_cell_angle_gamma   119.99999876
_symmetry_Int_Tables_number   1
_chemical_formula_structural   LaInNi5
_chemical_formula_sum   'La4 In4 Ni20'
_cell_volume   422.24475126
_cell_formula_units_Z   4
loop_
 _symmetry_equiv_pos_site_id
 _symmetry_equiv_pos_as_xyz
  1  'x, y, z'
loop_
 _atom_site_type_symbol
 _atom_site_label
 _atom_site_symmetry_multiplicity
 _atom_site_fract_x
 _atom_site_fract_y
 _atom_site_fract_z
 _atom_site_occupancy
  La  La0  1  0.33333300  0.66666700  0.75000000  1
  La  La1  1  0.66666700  0.33333300  0.25000000  1
  La  La2  1  0.00000000  0.00000000  0.00000000  1
  La  La3  1  0.00000000  0.00000000  0.50000000  1
  In  In0  1  0.33333300  0.66666700  0.58500200  1
  In  In1  1  0.66666700  0.33333300  0.41499800  1
  In  In2  1  0.66666700  0.33333300  0.08500200  1
  In  In3  1  0.33333300  0.66666700  0.91499800  1
  Ni  Ni0  1  0.33333300  0.66666700  0.04747100  1
  Ni  Ni1  1  0.66666700  0.33333300  0.95252900  1
  Ni  Ni2  1  0.66666700  0.33333300  0.54747100  1
  Ni  Ni3  1  0.33333300  0.66666700  0.45252900  1
  Ni  Ni4  1  0.00000000  0.00000000  0.25000000  1
  Ni  Ni5  1  0.00000000  0.00000000  0.75000000  1
  Ni  Ni6  1  0.33333300  0.66666700  0.25000000  1
  Ni  Ni7  1  0.66666700  0.33333300  0.75000000  1
  Ni  Ni8  1  0.16560100  0.33120300  0.14783200  1
  Ni  Ni9  1  0.83439900  0.66879700  0.85216800  1
  Ni  Ni10  1  0.66879700  0.83439900  0.14783200  1
  Ni  Ni11  1  0.83439900  0.66879700  0.64783200  1
  Ni  Ni12  1  0.33120300  0.16560100  0.85216800  1
  Ni  Ni13  1  0.16560100  0.33120300  0.35216800  1
  Ni  Ni14  1  0.16560100  0.83439900  0.14783200  1
  Ni  Ni15  1  0.33120300  0.16560100  0.64783200  1
  Ni  Ni16  1  0.83439900  0.16560100  0.85216800  1
  Ni  Ni17  1  0.66879700  0.83439900  0.35216800  1
  Ni  Ni18  1  0.83439900  0.16560100  0.64783200  1
  Ni  Ni19  1  0.16560100  0.83439900  0.35216800  1
loop_
_geom_bond_atom_site_label_1
_geom_bond_atom_site_label_2
_geom_bond_distance
_geom_bond_site_symmetry_2
La0 Ni5 2.858758 1_565
La0 Ni7 2.858759 1_455
La0 Ni7 2.858759 1_565
La0 Ni5 2.858763 1_665
La0 Ni5 2.858763 1_555
La0 Ni7 2.858767 1_555
La0 Ni9 3.202730 1_455
La0 Ni12 3.202730 1_565
La0 Ni11 3.202730 1_455
La0 Ni15 3.202730 1_565
La0 Ni16 3.202733 1_455
La0 Ni16 3.202733 1_565
La0 Ni18 3.202733 1_455
La0 Ni18 3.202733 1_565
La0 Ni12 3.202737 1_555
La0 Ni9 3.202737 1_555
La0 Ni15 3.202737 1_555
La0 Ni11 3.202737 1_555
La1 Ni4 2.858758 1_655
La1 Ni6 2.858759 1_545
La1 Ni6 2.858759 1_655
La1 Ni4 2.858763 1_665
La1 Ni4 2.858763 1_555
La1 Ni6 2.858767 1_555
La1 Ni17 3.202730 1_545
La1 Ni10 3.202730 1_545
La1 Ni13 3.202730 1_655
La1 Ni8 3.202730 1_655
La1 Ni19 3.202733 1_545
La1 Ni14 3.202733 1_655
La1 Ni19 3.202733 1_655
La1 Ni14 3.202733 1_545
La1 Ni13 3.202737 1_555
La1 Ni8 3.202737 1_555
La1 Ni17 3.202737 1_555
La1 Ni10 3.202737 1_555
La2 Ni0 3.010596 1_545
La2 Ni1 3.010596 1_454
La2 Ni1 3.010600 1_554
La2 Ni0 3.010600 1_445
La2 Ni0 3.010600 1_555
La2 Ni1 3.010600 1_444
La2 Ni14 3.264934 1_545
La2 Ni16 3.264934 1_454
La2 Ni8 3.264936 1_555
La2 Ni10 3.264936 1_445
La2 Ni12 3.264936 1_554
La2 Ni9 3.264936 1_444
La3 Ni2 3.010596 1_455
La3 Ni3 3.010596 1_545
La3 Ni2 3.010600 1_445
La3 Ni2 3.010600 1_555
La3 Ni3 3.010600 1_555
La3 Ni3 3.010600 1_445
La3 Ni18 3.264934 1_455
La3 Ni19 3.264934 1_545
La3 Ni15 3.264936 1_555
La3 Ni13 3.264936 1_555
La3 Ni11 3.264936 1_445
La3 Ni17 3.264936 1_445
In0 Ni3 2.634413 1_555
In0 Ni11 2.773194 1_455
In0 Ni15 2.773194 1_565
In0 Ni18 2.773199 1_455
In0 Ni18 2.773199 1_565
In0 Ni15 2.773203 1_555
In0 Ni11 2.773203 1_555
In0 Ni2 2.954581 1_455
In0 Ni2 2.954581 1_565
In0 Ni2 2.954589 1_555
In0 La0 3.281219 1_555
In0 La3 3.321130 1_565
In0 La3 3.321133 1_555
In0 La3 3.321133 1_665
In1 Ni2 2.634413 1_555
In1 Ni17 2.773194 1_545
In1 Ni13 2.773194 1_655
In1 Ni19 2.773199 1_655
In1 Ni19 2.773199 1_545
In1 Ni13 2.773203 1_555
In1 Ni17 2.773203 1_555
In1 Ni3 2.954581 1_545
In1 Ni3 2.954581 1_655
In1 Ni3 2.954589 1_555
In1 La1 3.281219 1_555
In1 La3 3.321130 1_655
In1 La3 3.321133 1_555
In1 La3 3.321133 1_665
In2 Ni1 2.634413 1_554
In2 Ni10 2.773194 1_545
In2 Ni8 2.773194 1_655
In2 Ni14 2.773199 1_545
In2 Ni14 2.773199 1_655
In2 Ni8 2.773203 1_555
In2 Ni10 2.773203 1_555
In2 Ni0 2.954581 1_545
In2 Ni0 2.954581 1_655
In2 Ni0 2.954589 1_555
In2 La1 3.281219 1_555
In2 La2 3.321130 1_655
In2 La2 3.321133 1_555
In2 La2 3.321133 1_665
In3 Ni0 2.634413 1_556
In3 Ni9 2.773194 1_455
In3 Ni12 2.773194 1_565
In3 Ni16 2.773199 1_455
In3 Ni16 2.773199 1_565
In3 Ni12 2.773203 1_555
In3 Ni9 2.773203 1_555
In3 Ni1 2.954581 1_455
In3 Ni1 2.954581 1_565
In3 Ni1 2.954589 1_555
In3 La0 3.281219 1_555
In3 La2 3.321130 1_566
In3 La2 3.321133 1_556
In3 La2 3.321133 1_666
Ni0 Ni14 2.460210 1_555
Ni0 Ni10 2.460210 1_555
Ni0 Ni8 2.460210 1_555
Ni1 Ni16 2.460210 1_555
Ni1 Ni9 2.460210 1_555
Ni1 Ni12 2.460210 1_555
Ni4 Ni8 2.478937 1_555
Ni4 Ni6 2.858758 1_545
Ni4 Ni6 2.858763 1_445
Ni4 Ni6 2.858763 1_555
Ni5 Ni9 2.478937 1_445
Ni5 Ni7 2.858758 1_455
Ni5 Ni7 2.858763 1_555
Ni5 Ni7 2.858763 1_445
Ni6 Ni8 2.489450 1_555
Ni7 Ni9 2.489450 1_555
Ni10 Ni14 2.459935 1_655
Ni10 Ni8 2.459935 1_665
Ni10 Ni4 2.478937 1_665
Ni10 Ni6 2.489450 1_555
Ni10 Ni14 2.491585 1_555
Ni10 Ni8 2.491585 1_555
Ni11 Ni18 2.459935 1_565
Ni11 Ni15 2.459935 1_665
Ni11 Ni2 2.460210 1_555
Ni11 Ni5 2.478937 1_665
Ni11 Ni7 2.489450 1_555
Ni11 Ni18 2.491585 1_555
Ni11 Ni15 2.491585 1_555
Ni12 Ni16 2.459935 1_455
Ni12 Ni9 2.459935 1_445
Ni12 Ni5 2.478937 1_555
Ni12 Ni7 2.489450 1_555
Ni12 Ni16 2.491585 1_555
Ni12 Ni9 2.491585 1_555
Ni13 Ni19 2.459935 1_545
Ni13 Ni17 2.459935 1_445
Ni13 Ni3 2.460210 1_555
Ni13 Ni4 2.478937 1_555
Ni13 Ni6 2.489450 1_555
Ni13 Ni19 2.491585 1_555
Ni13 Ni17 2.491585 1_555
Ni14 Ni8 2.459935 1_565
Ni14 Ni4 2.478934 1_565
Ni14 Ni6 2.489450 1_555
Ni14 Ni8 2.491585 1_555
Ni15 Ni18 2.459935 1_455
Ni15 Ni2 2.460210 1_555
Ni15 Ni5 2.478937 1_555
Ni15 Ni7 2.489450 1_555
Ni15 Ni18 2.491585 1_555
Ni16 Ni9 2.459935 1_545
Ni16 Ni5 2.478934 1_655
Ni16 Ni7 2.489450 1_555
Ni16 Ni9 2.491585 1_555
Ni17 Ni19 2.459935 1_655
Ni17 Ni3 2.460210 1_555
Ni17 Ni4 2.478937 1_665
Ni17 Ni6 2.489450 1_555
Ni17 Ni19 2.491585 1_555
Ni18 Ni2 2.460210 1_555
Ni18 Ni5 2.478934 1_655
Ni18 Ni7 2.489450 1_555
Ni19 Ni3 2.460210 1_555
Ni19 Ni4 2.478934 1_565
Ni19 Ni6 2.489450 1_555
