# generated using pymatgen
data_FePS3
_symmetry_space_group_name_H-M   'P 1'
_cell_length_a   5.86070407
_cell_length_b   7.91862316
_cell_length_c   10.11814108
_cell_angle_alpha   68.74976132
_cell_angle_beta   77.18836502
_cell_angle_gamma   75.12379224
_symmetry_Int_Tables_number   1
_chemical_formula_structural   FePS3
_chemical_formula_sum   'Fe4 P4 S12'
_cell_volume   418.63420287
_cell_formula_units_Z   4
loop_
 _symmetry_equiv_pos_site_id
 _symmetry_equiv_pos_as_xyz
  1  'x, y, z'
loop_
 _atom_site_type_symbol
 _atom_site_label
 _atom_site_symmetry_multiplicity
 _atom_site_fract_x
 _atom_site_fract_y
 _atom_site_fract_z
 _atom_site_occupancy
  Fe  Fe0  1  0.03912300  0.68030200  0.31845500  1
  Fe  Fe1  1  0.46112300  0.81973400  0.18147700  1
  Fe  Fe2  1  0.53951600  0.18030300  0.81842800  1
  Fe  Fe3  1  0.96077900  0.31976200  0.68152800  1
  P  P0  1  0.05055700  0.89725300  0.94364400  1
  P  P1  1  0.55051800  0.39728700  0.44367900  1
  P  P2  1  0.94944400  0.10269300  0.05633600  1
  P  P3  1  0.44931600  0.60273700  0.55637400  1
  S  S0  1  0.74438500  0.52208500  0.25494200  1
  S  S1  1  0.24419700  0.02221300  0.75489900  1
  S  S2  1  0.25553900  0.47789200  0.74509600  1
  S  S3  1  0.75560600  0.97786200  0.24507500  1
  S  S4  1  0.73311200  0.85392900  0.92518900  1
  S  S5  1  0.23302100  0.35402500  0.42514200  1
  S  S6  1  0.75337300  0.32257900  0.91711100  1
  S  S7  1  0.25340300  0.82258300  0.41708400  1
  S  S8  1  0.26685700  0.14594900  0.07486300  1
  S  S9  1  0.76688300  0.64593900  0.57489800  1
  S  S10  1  0.24668400  0.67746800  0.08288900  1
  S  S11  1  0.74656400  0.17740600  0.58288900  1
loop_
_geom_bond_atom_site_label_1
_geom_bond_atom_site_label_2
_geom_bond_distance
_geom_bond_site_symmetry_2
Fe0 S10 2.429028 1_555
Fe0 S7 2.437154 1_555
Fe0 S3 2.476463 1_455
Fe0 S5 2.479261 1_555
Fe0 S0 2.674621 1_455
Fe0 S9 2.688385 1_455
Fe1 S7 2.429680 1_555
Fe1 S10 2.437454 1_555
Fe1 S0 2.476289 1_555
Fe1 S8 2.479388 1_565
Fe1 S3 2.673365 1_555
Fe1 S4 2.686667 1_554
Fe2 S11 2.428065 1_555
Fe2 S6 2.435706 1_555
Fe2 S2 2.477897 1_555
Fe2 S4 2.479461 1_545
Fe2 S1 2.676777 1_555
Fe2 S8 2.689324 1_556
Fe3 S6 2.428892 1_555
Fe3 S11 2.437389 1_555
Fe3 S1 2.476109 1_655
Fe3 S9 2.478559 1_555
Fe3 S2 2.674538 1_655
Fe3 S5 2.688007 1_655
P0 S4 2.035208 1_455
P0 S1 2.039554 1_565
P0 S10 2.061258 1_556
P0 P2 2.201757 1_466
P1 S5 2.035587 1_555
P1 S0 2.039763 1_555
P1 S11 2.061192 1_555
P1 P3 2.201829 1_555
P2 S8 2.035049 1_655
P2 S3 2.039770 1_545
P2 S6 2.061358 1_554
P3 S9 2.035734 1_555
P3 S2 2.039524 1_555
P3 S7 2.061088 1_555
