# generated using pymatgen
data_Cs3Y2Cl9
_symmetry_space_group_name_H-M   'P 1'
_cell_length_a   9.75063445
_cell_length_b   9.75063445
_cell_length_c   9.75063447
_cell_angle_alpha   84.57247856
_cell_angle_beta   84.57247856
_cell_angle_gamma   84.57247973
_symmetry_Int_Tables_number   1
_chemical_formula_structural   Cs3Y2Cl9
_chemical_formula_sum   'Cs6 Y4 Cl18'
_cell_volume   915.30979832
_cell_formula_units_Z   2
loop_
 _symmetry_equiv_pos_site_id
 _symmetry_equiv_pos_as_xyz
  1  'x, y, z'
loop_
 _atom_site_type_symbol
 _atom_site_label
 _atom_site_symmetry_multiplicity
 _atom_site_fract_x
 _atom_site_fract_y
 _atom_site_fract_z
 _atom_site_occupancy
  Cs  Cs0  1  0.41082207  0.08917793  0.75000000  1
  Cs  Cs1  1  0.75000000  0.41082207  0.08917793  1
  Cs  Cs2  1  0.08917793  0.75000000  0.41082207  1
  Cs  Cs3  1  0.25000000  0.58917793  0.91082207  1
  Cs  Cs4  1  0.91082207  0.25000000  0.58917793  1
  Cs  Cs5  1  0.58917793  0.91082207  0.25000000  1
  Y  Y0  1  0.85174633  0.85174633  0.85174633  1
  Y  Y1  1  0.35174633  0.35174633  0.35174633  1
  Y  Y2  1  0.14825367  0.14825367  0.14825367  1
  Y  Y3  1  0.64825367  0.64825367  0.64825367  1
  Cl  Cl0  1  0.25000000  0.09706788  0.40293212  1
  Cl  Cl1  1  0.40293212  0.25000000  0.09706788  1
  Cl  Cl2  1  0.09706788  0.40293212  0.25000000  1
  Cl  Cl3  1  0.90293212  0.59706788  0.75000000  1
  Cl  Cl4  1  0.75000000  0.90293212  0.59706788  1
  Cl  Cl5  1  0.59706788  0.75000000  0.90293212  1
  Cl  Cl6  1  0.58473340  0.23672285  0.41983837  1
  Cl  Cl7  1  0.41983837  0.58473340  0.23672285  1
  Cl  Cl8  1  0.23672285  0.41983837  0.58473340  1
  Cl  Cl9  1  0.91983837  0.73672285  0.08473340  1
  Cl  Cl10  1  0.08473340  0.91983837  0.73672285  1
  Cl  Cl11  1  0.73672285  0.08473340  0.91983837  1
  Cl  Cl12  1  0.41526660  0.76327715  0.58016163  1
  Cl  Cl13  1  0.58016163  0.41526660  0.76327715  1
  Cl  Cl14  1  0.76327715  0.58016163  0.41526660  1
  Cl  Cl15  1  0.08016163  0.26327715  0.91526660  1
  Cl  Cl16  1  0.91526660  0.08016163  0.26327715  1
  Cl  Cl17  1  0.26327715  0.91526660  0.08016163  1
loop_
_geom_bond_atom_site_label_1
_geom_bond_atom_site_label_2
_geom_bond_distance
_geom_bond_site_symmetry_2
Cl0 Y1 2.745529 1_555
Cl0 Y2 2.745529 1_555
Cl0 Cs2 3.853450 1_545
Cl0 Cs0 3.853450 1_555
Cl0 Cs4 3.860350 1_455
Cl0 Cs5 3.860350 1_545
Cl1 Y2 2.745529 1_555
Cl1 Y1 2.745529 1_555
Cl1 Cs1 3.853450 1_555
Cl1 Cs0 3.853450 1_554
Cl1 Cs3 3.860350 1_554
Cl1 Cs5 3.860350 1_545
Cl2 Y1 2.745529 1_555
Cl2 Y2 2.745529 1_555
Cl2 Cs1 3.853450 1_455
Cl2 Cs2 3.853450 1_555
Cl2 Cs3 3.860350 1_554
Cl2 Cs4 3.860350 1_455
Cl3 Y3 2.745529 1_555
Cl3 Y0 2.745529 1_555
Cl3 Cs3 3.853450 1_655
Cl3 Cs4 3.853450 1_555
Cl3 Cs1 3.860350 1_556
Cl3 Cs2 3.860350 1_655
Cl4 Y3 2.745529 1_555
Cl4 Y0 2.745529 1_555
Cl4 Cs4 3.853450 1_565
Cl4 Cs5 3.853450 1_555
Cl4 Cs2 3.860350 1_655
Cl4 Cs0 3.860350 1_565
Cl5 Y0 2.745529 1_555
Cl5 Y3 2.745529 1_555
Cl5 Cs3 3.853450 1_555
Cl5 Cs5 3.853450 1_556
Cl5 Cs1 3.860350 1_556
Cl5 Cs0 3.860350 1_565
Cl6 Y1 2.553843 1_555
Cl6 Cs5 3.714597 1_545
Cl6 Cs0 3.723135 1_555
Cl6 Cs4 3.736878 1_555
Cl6 Cs1 3.791166 1_555
Cl7 Y1 2.553843 1_555
Cl7 Cs3 3.714597 1_554
Cl7 Cs1 3.723135 1_555
Cl7 Cs5 3.736878 1_555
Cl7 Cs2 3.791166 1_555
Cl8 Y1 2.553843 1_555
Cl8 Cs4 3.714597 1_455
Cl8 Cs2 3.723135 1_555
Cl8 Cs3 3.736878 1_555
Cl8 Cs0 3.791166 1_555
Cl9 Y0 2.553843 1_554
Cl9 Cs1 3.714597 1_555
Cl9 Cs3 3.723135 1_654
Cl9 Cs2 3.736878 1_655
Cl9 Cs5 3.791166 1_555
Cl10 Y0 2.553843 1_455
Cl10 Cs2 3.714597 1_555
Cl10 Cs4 3.723135 1_465
Cl10 Cs0 3.736878 1_565
Cl10 Cs3 3.791166 1_555
Cl11 Y0 2.553843 1_545
Cl11 Cs0 3.714597 1_555
Cl11 Cs5 3.723135 1_546
Cl11 Cs1 3.736878 1_556
Cl11 Cs4 3.791166 1_555
Cl12 Y3 2.553843 1_555
Cl12 Cs0 3.714597 1_565
Cl12 Cs5 3.723135 1_555
Cl12 Cs2 3.736878 1_555
Cl12 Cs3 3.791166 1_555
Cl13 Y3 2.553843 1_555
Cl13 Cs1 3.714597 1_556
Cl13 Cs3 3.723135 1_555
Cl13 Cs0 3.736878 1_555
Cl13 Cs4 3.791166 1_555
Cl14 Y3 2.553843 1_555
Cl14 Cs2 3.714597 1_655
Cl14 Cs4 3.723135 1_555
Cl14 Cs1 3.736878 1_555
Cl14 Cs5 3.791166 1_555
Cl15 Y2 2.553843 1_556
Cl15 Cs3 3.714597 1_555
Cl15 Cs1 3.723135 1_456
Cl15 Cs4 3.736878 1_455
Cl15 Cs0 3.791166 1_555
Cl16 Y2 2.553843 1_655
Cl16 Cs4 3.714597 1_555
Cl16 Cs2 3.723135 1_645
Cl16 Cs5 3.736878 1_545
Cl16 Cs1 3.791166 1_555
Cl17 Y2 2.553843 1_565
Cl17 Cs5 3.714597 1_555
Cl17 Cs0 3.723135 1_564
Cl17 Cs3 3.736878 1_554
Cl17 Cs2 3.791166 1_555
