# generated using pymatgen
data_Na2SrAl4(B2O7)2
_symmetry_space_group_name_H-M   'P 1'
_cell_length_a   4.95289038
_cell_length_b   4.95289038
_cell_length_c   15.98952000
_cell_angle_alpha   90.00000000
_cell_angle_beta   90.00000000
_cell_angle_gamma   120.00000507
_symmetry_Int_Tables_number   1
_chemical_formula_structural   Na2SrAl4(B2O7)2
_chemical_formula_sum   'Na2 Sr1 Al4 B4 O14'
_cell_volume   339.69055223
_cell_formula_units_Z   1
loop_
 _symmetry_equiv_pos_site_id
 _symmetry_equiv_pos_as_xyz
  1  'x, y, z'
loop_
 _atom_site_type_symbol
 _atom_site_label
 _atom_site_symmetry_multiplicity
 _atom_site_fract_x
 _atom_site_fract_y
 _atom_site_fract_z
 _atom_site_occupancy
  Na  Na0  1  0.00000000  0.00000000  0.29415300  1
  Na  Na1  1  0.00000000  0.00000000  0.52191600  1
  Sr  Sr0  1  0.00000000  0.00000000  0.99111600  1
  Al  Al0  1  0.33333300  0.66666700  0.84939000  1
  Al  Al1  1  0.66666700  0.33333300  0.36089000  1
  Al  Al2  1  0.66666700  0.33333300  0.14458500  1
  Al  Al3  1  0.33333300  0.66666700  0.63666200  1
  B  B0  1  0.33333300  0.66666700  0.39028400  1
  B  B1  1  0.66666700  0.33333300  0.89833100  1
  B  B2  1  0.66666700  0.33333300  0.59638300  1
  B  B3  1  0.33333300  0.66666700  0.10499200  1
  O  O0  1  0.66666700  0.33333300  0.25126300  1
  O  O1  1  0.33333300  0.66666700  0.74512300  1
  O  O2  1  0.61140300  0.03146700  0.59382600  1
  O  O3  1  0.42006400  0.38859700  0.59382600  1
  O  O4  1  0.96853300  0.57993600  0.59382600  1
  O  O5  1  0.37723100  0.96575300  0.10279600  1
  O  O6  1  0.58852200  0.62276900  0.10279600  1
  O  O7  1  0.03424700  0.41147800  0.10279600  1
  O  O8  1  0.35939300  0.95850000  0.38833600  1
  O  O9  1  0.59910700  0.64060700  0.38833600  1
  O  O10  1  0.04150000  0.40089300  0.38833600  1
  O  O11  1  0.59024100  0.02517400  0.90334700  1
  O  O12  1  0.43493400  0.40975900  0.90334700  1
  O  O13  1  0.97482600  0.56506600  0.90334700  1
loop_
_geom_bond_atom_site_label_1
_geom_bond_atom_site_label_2
_geom_bond_distance
_geom_bond_site_symmetry_2
Na0 O9 2.417541 1_445
Na0 O10 2.417541 1_555
Na0 O8 2.417541 1_545
Na0 O0 2.940635 1_455
Na0 O0 2.940639 1_555
Na0 O0 2.940639 1_445
Na1 O3 2.313157 1_555
Na1 O4 2.313157 1_445
Na1 O2 2.313158 1_455
Na1 O9 2.852828 1_445
Na1 O10 2.852829 1_555
Na1 O8 2.852829 1_545
Al0 O1 1.667179 1_555
Al0 O13 1.804700 1_455
Al0 O11 1.804702 1_565
Al0 O12 1.804708 1_555
Al1 O0 1.752883 1_555
Al1 O10 1.769168 1_655
Al1 O8 1.769169 1_545
Al1 O9 1.769173 1_555
Al2 O0 1.705730 1_555
Al2 O7 1.790574 1_655
Al2 O5 1.790575 1_545
Al2 O6 1.790578 1_555
Al3 O1 1.734239 1_555
Al3 O4 1.772592 1_455
Al3 O2 1.772593 1_565
Al3 O3 1.772596 1_555
B0 O8 1.385748 1_555
B0 O10 1.385750 1_555
B0 O9 1.385753 1_555
B1 O13 1.378949 1_555
B1 O11 1.378949 1_555
B1 O12 1.378949 1_555
B2 O2 1.379387 1_555
B2 O4 1.379388 1_555
B2 O3 1.379392 1_555
B3 O5 1.385929 1_555
B3 O7 1.385930 1_555
B3 O6 1.385934 1_555
O5 Sr0 2.650529 1_564
O6 Sr0 2.650529 1_664
O7 Sr0 2.650529 1_554
O11 Sr0 2.521292 1_655
O12 Sr0 2.521294 1_555
O13 Sr0 2.521296 1_665
