# generated using pymatgen
data_CeCo2
_symmetry_space_group_name_H-M   'P 1'
_cell_length_a   4.94682480
_cell_length_b   4.94688904
_cell_length_c   4.94688434
_cell_angle_alpha   59.99993732
_cell_angle_beta   59.99945519
_cell_angle_gamma   59.99954405
_symmetry_Int_Tables_number   1
_chemical_formula_structural   CeCo2
_chemical_formula_sum   'Ce2 Co4'
_cell_volume   85.59964570
_cell_formula_units_Z   2
loop_
 _symmetry_equiv_pos_site_id
 _symmetry_equiv_pos_as_xyz
  1  'x, y, z'
loop_
 _atom_site_type_symbol
 _atom_site_label
 _atom_site_symmetry_multiplicity
 _atom_site_fract_x
 _atom_site_fract_y
 _atom_site_fract_z
 _atom_site_occupancy
  Ce  Ce0  1  0.12500229  0.12499957  0.12499957  1
  Ce  Ce1  1  0.87499771  0.87500043  0.87500043  1
  Co  Co0  1  0.50000000  -0.00000000  0.50000000  1
  Co  Co1  1  0.00000000  0.50000000  0.50000000  1
  Co  Co2  1  0.50000000  0.50000000  0.50000000  1
  Co  Co3  1  0.50000000  0.50000000  0.00000000  1
loop_
_geom_bond_atom_site_label_1
_geom_bond_atom_site_label_2
_geom_bond_distance
_geom_bond_site_symmetry_2
Ce0 Co2 2.900331 1_455
Ce0 Co0 2.900333 1_455
Ce0 Co3 2.900336 1_455
Ce0 Co2 2.900344 1_554
Ce0 Co0 2.900347 1_554
Ce0 Co3 2.900348 1_555
Ce0 Co0 2.900348 1_555
Ce0 Co2 2.900349 1_545
Ce0 Co3 2.900352 1_545
Ce0 Co1 2.900367 1_555
Ce0 Co1 2.900369 1_554
Ce0 Co1 2.900370 1_545
Ce0 Ce1 3.029258 1_544
Ce0 Ce1 3.029329 1_445
Ce0 Ce1 3.029334 1_454
Ce0 Ce1 3.029344 1_444
Ce1 Co2 2.900331 1_655
Ce1 Co0 2.900333 1_665
Ce1 Co3 2.900336 1_656
Ce1 Co2 2.900344 1_556
Ce1 Co0 2.900347 1_566
Ce1 Co3 2.900348 1_556
Ce1 Co0 2.900348 1_565
Ce1 Co2 2.900349 1_565
Ce1 Co3 2.900352 1_566
Ce1 Co1 2.900367 1_655
Ce1 Co1 2.900369 1_656
Ce1 Co1 2.900370 1_665
Co0 Co1 2.473411 1_645
Co0 Co1 2.473411 1_555
Co0 Co3 2.473441 1_555
Co0 Co3 2.473441 1_546
Co0 Co2 2.473445 1_555
Co0 Co2 2.473445 1_545
Co1 Co3 2.473407 1_456
Co1 Co3 2.473407 1_555
Co1 Co2 2.473412 1_455
Co1 Co2 2.473412 1_555
Co2 Co3 2.473442 1_556
Co2 Co3 2.473442 1_555
