# generated using pymatgen
data_Fe4Se3N2
_symmetry_space_group_name_H-M   'P 1'
_cell_length_a   5.80877900
_cell_length_b   10.24227200
_cell_length_c   8.26244700
_cell_angle_alpha   90.00000000
_cell_angle_beta   90.00000000
_cell_angle_gamma   90.00000000
_symmetry_Int_Tables_number   1
_chemical_formula_structural   Fe4Se3N2
_chemical_formula_sum   'Fe16 Se12 N8'
_cell_volume   491.57506511
_cell_formula_units_Z   4
loop_
 _symmetry_equiv_pos_site_id
 _symmetry_equiv_pos_as_xyz
  1  'x, y, z'
loop_
 _atom_site_type_symbol
 _atom_site_label
 _atom_site_symmetry_multiplicity
 _atom_site_fract_x
 _atom_site_fract_y
 _atom_site_fract_z
 _atom_site_occupancy
  Fe  Fe0  1  0.54227300  0.25000000  0.85810800  1
  Fe  Fe1  1  0.04227300  0.25000000  0.64189200  1
  Fe  Fe2  1  0.45772700  0.75000000  0.14189200  1
  Fe  Fe3  1  0.95772700  0.75000000  0.35810800  1
  Fe  Fe4  1  0.74081800  0.25000000  0.42655300  1
  Fe  Fe5  1  0.24081800  0.25000000  0.07344700  1
  Fe  Fe6  1  0.25918200  0.75000000  0.57344700  1
  Fe  Fe7  1  0.75918200  0.75000000  0.92655300  1
  Fe  Fe8  1  0.68628700  0.46169600  0.06061700  1
  Fe  Fe9  1  0.18628700  0.03830400  0.43938300  1
  Fe  Fe10  1  0.31371300  0.96169600  0.93938300  1
  Fe  Fe11  1  0.81371300  0.53830400  0.56061700  1
  Fe  Fe12  1  0.31371300  0.53830400  0.93938300  1
  Fe  Fe13  1  0.81371300  0.96169600  0.56061700  1
  Fe  Fe14  1  0.68628700  0.03830400  0.06061700  1
  Fe  Fe15  1  0.18628700  0.46169600  0.43938300  1
  Se  Se0  1  0.84549900  0.25000000  0.15695800  1
  Se  Se1  1  0.34549900  0.25000000  0.34304200  1
  Se  Se2  1  0.15450100  0.75000000  0.84304200  1
  Se  Se3  1  0.65450100  0.75000000  0.65695800  1
  Se  Se4  1  0.55618600  0.55591800  0.32553800  1
  Se  Se5  1  0.05618600  0.94408200  0.17446200  1
  Se  Se6  1  0.44381400  0.05591800  0.67446200  1
  Se  Se7  1  0.94381400  0.44408200  0.82553800  1
  Se  Se8  1  0.44381400  0.44408200  0.67446200  1
  Se  Se9  1  0.94381400  0.05591800  0.82553800  1
  Se  Se10  1  0.55618600  0.94408200  0.32553800  1
  Se  Se11  1  0.05618600  0.55591800  0.17446200  1
  N  N0  1  0.58122400  0.62349700  0.99482000  1
  N  N1  1  0.08122400  0.87650300  0.50518000  1
  N  N2  1  0.41877600  0.12349700  0.00518000  1
  N  N3  1  0.91877600  0.37650300  0.49482000  1
  N  N4  1  0.41877600  0.37650300  0.00518000  1
  N  N5  1  0.91877600  0.12349700  0.49482000  1
  N  N6  1  0.58122400  0.87650300  0.99482000  1
  N  N7  1  0.08122400  0.62349700  0.50518000  1
loop_
_geom_bond_atom_site_label_1
_geom_bond_atom_site_label_2
_geom_bond_distance
_geom_bond_site_symmetry_2
Fe0 N4 1.915736 1_556
Fe0 N2 1.915736 1_556
Fe0 Se8 2.565348 1_555
Fe0 Se6 2.565348 1_555
Fe1 N3 1.915736 1_455
Fe1 N5 1.915736 1_455
Fe1 Se7 2.565348 1_455
Fe1 Se9 2.565348 1_455
Fe2 N6 1.915736 1_554
Fe2 N0 1.915736 1_554
Fe2 Se4 2.565348 1_555
Fe2 Se10 2.565348 1_555
Fe3 N1 1.915736 1_655
Fe3 N7 1.915736 1_655
Fe3 Se11 2.565348 1_655
Fe3 Se5 2.565348 1_655
Fe4 N3 1.750860 1_555
Fe4 N5 1.750860 1_555
Fe4 Se0 2.309019 1_555
Fe4 Se1 2.397748 1_555
Fe5 N2 1.750860 1_555
Fe5 N4 1.750860 1_555
Fe5 Se1 2.309019 1_555
Fe5 Se0 2.397748 1_455
Fe6 N1 1.750860 1_555
Fe6 N7 1.750860 1_555
Fe6 Se2 2.309019 1_555
Fe6 Se3 2.397748 1_555
Fe7 N6 1.750860 1_555
Fe7 N0 1.750860 1_555
Fe7 Se3 2.309019 1_555
Fe7 Se2 2.397748 1_655
Fe8 N4 1.840062 1_555
Fe8 N0 1.847795 1_554
Fe8 Se7 2.458242 1_554
Fe8 Se0 2.488019 1_555
Fe8 Se4 2.508726 1_555
Fe8 Se11 2.536309 1_655
Fe9 N5 1.840062 1_455
Fe9 N1 1.847795 1_545
Fe9 Se6 2.458242 1_555
Fe9 Se1 2.488019 1_555
Fe9 Se5 2.508726 1_545
Fe9 Se10 2.536309 1_545
Fe10 N6 1.840062 1_555
Fe10 N2 1.847795 1_566
Fe10 Se5 2.458242 1_556
Fe10 Se2 2.488019 1_555
Fe10 Se6 2.508726 1_565
Fe10 Se9 2.536309 1_465
Fe11 N7 1.840062 1_655
Fe11 N3 1.847795 1_555
Fe11 Se4 2.458242 1_555
Fe11 Se3 2.488019 1_555
Fe11 Se7 2.508726 1_555
Fe11 Se8 2.536309 1_555
Fe12 N0 1.840062 1_555
Fe12 N4 1.847795 1_556
Fe12 Se11 2.458242 1_556
Fe12 Se2 2.488019 1_555
Fe12 Se8 2.508726 1_555
Fe12 Se7 2.536309 1_455
Fe13 N1 1.840062 1_655
Fe13 N5 1.847795 1_565
Fe13 Se10 2.458242 1_555
Fe13 Se3 2.488019 1_555
Fe13 Se9 2.508726 1_565
Fe13 Se6 2.536309 1_565
Fe14 N2 1.840062 1_555
Fe14 N6 1.847795 1_544
Fe14 Se9 2.458242 1_554
Fe14 Se0 2.488019 1_555
Fe14 Se10 2.508726 1_545
Fe14 Se5 2.536309 1_645
Fe15 N3 1.840062 1_455
Fe15 N7 1.847795 1_555
Fe15 Se8 2.458242 1_555
Fe15 Se1 2.488019 1_555
Fe15 Se11 2.508726 1_555
Fe15 Se4 2.536309 1_555
