# generated using pymatgen
data_HfAlIr
_symmetry_space_group_name_H-M   'P 1'
_cell_length_a   5.32297923
_cell_length_b   5.32297923
_cell_length_c   8.22219200
_cell_angle_alpha   90.00000000
_cell_angle_beta   90.00000000
_cell_angle_gamma   119.53238015
_symmetry_Int_Tables_number   1
_chemical_formula_structural   HfAlIr
_chemical_formula_sum   'Hf4 Al4 Ir4'
_cell_volume   202.70057430
_cell_formula_units_Z   4
loop_
 _symmetry_equiv_pos_site_id
 _symmetry_equiv_pos_as_xyz
  1  'x, y, z'
loop_
 _atom_site_type_symbol
 _atom_site_label
 _atom_site_symmetry_multiplicity
 _atom_site_fract_x
 _atom_site_fract_y
 _atom_site_fract_z
 _atom_site_occupancy
  Hf  Hf0  1  0.66530900  0.33469100  0.29001100  1
  Hf  Hf1  1  0.32893200  0.67106800  0.17854500  1
  Hf  Hf2  1  0.32893200  0.67106800  0.82145500  1
  Hf  Hf3  1  0.66530900  0.33469100  0.70998900  1
  Al  Al0  1  0.00547200  0.99452800  0.24550300  1
  Al  Al1  1  0.00547200  0.99452800  0.75449700  1
  Al  Al2  1  0.65564100  0.82740600  0.50000000  1
  Al  Al3  1  0.17259400  0.34435900  0.50000000  1
  Ir  Ir0  1  0.17102400  0.82897600  0.50000000  1
  Ir  Ir1  1  0.33740800  0.16936300  0.00000000  1
  Ir  Ir2  1  0.83063700  0.66259200  0.00000000  1
  Ir  Ir3  1  0.83326100  0.16673900  0.00000000  1
loop_
_geom_bond_atom_site_label_1
_geom_bond_atom_site_label_2
_geom_bond_distance
_geom_bond_site_symmetry_2
Hf0 Ir1 2.827123 1_555
Hf0 Ir2 2.827123 1_555
Hf0 Ir3 2.841193 1_555
Hf0 Ir0 3.188683 1_655
Hf0 Ir0 3.188683 1_545
Hf0 Hf1 3.207621 1_655
Hf0 Hf1 3.207621 1_545
Hf0 Hf1 3.226841 1_555
Hf1 Hf2 2.936063 1_554
Hf1 Ir1 3.012387 1_565
Hf1 Ir2 3.012387 1_455
Hf1 Ir0 3.015843 1_555
Hf1 Ir3 3.056239 1_565
Hf1 Ir3 3.056239 1_455
Hf1 Ir2 3.067222 1_555
Hf1 Ir1 3.067222 1_555
Hf2 Ir1 3.012387 1_566
Hf2 Ir2 3.012387 1_456
Hf2 Ir0 3.015843 1_555
Hf2 Ir3 3.056239 1_456
Hf2 Ir3 3.056239 1_566
Hf2 Ir1 3.067222 1_556
Hf2 Ir2 3.067222 1_556
Hf2 Hf3 3.207621 1_455
Hf2 Hf3 3.207621 1_565
Hf2 Hf3 3.226841 1_555
Hf3 Ir2 2.827123 1_556
Hf3 Ir1 2.827123 1_556
Hf3 Ir3 2.841193 1_556
Hf3 Ir0 3.188683 1_655
Hf3 Ir0 3.188683 1_545
Al0 Ir2 2.538028 1_455
Al0 Ir1 2.538028 1_565
Al0 Ir3 2.565855 1_465
Al0 Ir0 2.587924 1_555
Al0 Al2 2.646607 1_455
Al0 Al3 2.646607 1_565
Al0 Hf1 3.025653 1_555
Al0 Hf1 3.181775 1_455
Al0 Hf1 3.181775 1_565
Al1 Ir2 2.538028 1_456
Al1 Ir1 2.538028 1_566
Al1 Ir3 2.565855 1_466
Al1 Ir0 2.587924 1_555
Al1 Al2 2.646607 1_455
Al1 Al3 2.646607 1_565
Al1 Hf2 3.025653 1_555
Al1 Hf2 3.181775 1_455
Al1 Hf2 3.181775 1_565
Al2 Ir0 2.583736 1_555
Al2 Al3 2.589401 1_555
Al2 Ir0 2.739263 1_655
Al2 Al3 2.771157 1_665
Al2 Hf2 3.045645 1_555
Al2 Hf1 3.045645 1_555
Al2 Hf3 3.161545 1_555
Al2 Hf0 3.161545 1_555
Al2 Hf0 3.184045 1_565
Al2 Hf3 3.184045 1_565
Al3 Ir0 2.583736 1_555
Al3 Ir0 2.739263 1_545
Al3 Hf2 3.045645 1_555
Al3 Hf1 3.045645 1_555
Al3 Hf3 3.161545 1_555
Al3 Hf0 3.161545 1_555
Al3 Hf0 3.184045 1_455
Al3 Hf3 3.184045 1_455
Ir1 Ir2 2.643983 1_555
Ir1 Ir3 2.646328 1_555
Ir1 Ir3 2.676707 1_455
Ir1 Ir2 2.716575 1_445
Ir2 Ir3 2.646328 1_555
Ir2 Ir3 2.676707 1_565
