# generated using pymatgen
data_Li9Mn2Co5O16
_symmetry_space_group_name_H-M   'P 1'
_cell_length_a   5.10912300
_cell_length_b   5.90911635
_cell_length_c   10.04750348
_cell_angle_alpha   104.54126068
_cell_angle_beta   100.40605441
_cell_angle_gamma   90.92337687
_symmetry_Int_Tables_number   1
_chemical_formula_structural   Li9Mn2Co5O16
_chemical_formula_sum   'Li9 Mn2 Co5 O16'
_cell_volume   288.18949622
_cell_formula_units_Z   1
loop_
 _symmetry_equiv_pos_site_id
 _symmetry_equiv_pos_as_xyz
  1  'x, y, z'
loop_
 _atom_site_type_symbol
 _atom_site_label
 _atom_site_symmetry_multiplicity
 _atom_site_fract_x
 _atom_site_fract_y
 _atom_site_fract_z
 _atom_site_occupancy
  Li  Li0  1  0.49852600  0.75056300  0.00086900  1
  Li  Li1  1  0.26109400  0.37455600  0.74373200  1
  Li  Li2  1  0.50855900  0.24480600  0.99574200  1
  Li  Li3  1  0.24115000  0.86755000  0.74581300  1
  Li  Li4  1  0.75132200  0.12785900  0.25401900  1
  Li  Li5  1  0.74373900  0.63527500  0.25744200  1
  Li  Li6  1  0.99719800  0.49833100  0.49857600  1
  Li  Li7  1  0.99719500  0.00614500  0.50263100  1
  Li  Li8  1  0.74662600  0.62705800  0.74910800  1
  Mn  Mn0  1  0.00204700  0.99267200  0.99671000  1
  Mn  Mn1  1  0.00037900  0.49296300  0.99466600  1
  Co  Co0  1  0.50376000  0.26130800  0.50527200  1
  Co  Co1  1  0.24667300  0.87619000  0.25005100  1
  Co  Co2  1  0.75284200  0.12099900  0.74992600  1
  Co  Co3  1  0.49800000  0.75105100  0.50912600  1
  Co  Co4  1  0.25544000  0.37665600  0.25201800  1
  O  O0  1  0.34976500  0.05336900  0.12785900  1
  O  O1  1  0.11621500  0.70280600  0.89188100  1
  O  O2  1  0.35818900  0.54186400  0.12231300  1
  O  O3  1  0.10516300  0.16026600  0.87058900  1
  O  O4  1  0.61750500  0.44890500  0.38125300  1
  O  O5  1  0.58709600  0.93617000  0.37425400  1
  O  O6  1  0.84996500  0.84847400  0.63339900  1
  O  O7  1  0.84729100  0.29489400  0.62843400  1
  O  O8  1  0.65716600  0.40854700  0.86763800  1
  O  O9  1  0.40363300  0.06718600  0.63170700  1
  O  O10  1  0.65892200  0.95127700  0.87508600  1
  O  O11  1  0.37044300  0.56774000  0.61487600  1
  O  O12  1  0.89540600  0.82727300  0.12538600  1
  O  O13  1  0.89874400  0.29019000  0.11018800  1
  O  O14  1  0.14295400  0.20441000  0.37619300  1
  O  O15  1  0.13699200  0.69265000  0.36324300  1
loop_
_geom_bond_atom_site_label_1
_geom_bond_atom_site_label_2
_geom_bond_distance
_geom_bond_site_symmetry_2
Li0 O1 2.036771 1_554
Li0 O2 2.137062 1_555
Li0 O12 2.156726 1_555
Li0 O0 2.157551 1_565
Li0 O10 2.184250 1_554
Li0 O8 2.370566 1_554
Li1 O11 2.067448 1_555
Li1 O9 2.099598 1_555
Li1 O8 2.153225 1_555
Li1 O7 2.200605 1_455
Li1 O3 2.237739 1_555
Li1 O1 2.349550 1_555
Li2 O8 2.030778 1_555
Li2 O13 2.089990 1_556
Li2 O10 2.095659 1_545
Li2 O2 2.136397 1_556
Li2 O3 2.189445 1_555
Li2 O0 2.193970 1_556
Li3 O3 2.076235 1_565
Li3 O9 2.094418 1_565
Li3 O6 2.096715 1_455
Li3 O11 2.118260 1_555
Li3 O1 2.131865 1_555
Li3 O10 2.264835 1_555
Li4 O5 2.114033 1_545
Li4 O14 2.125976 1_655
Li4 O12 2.144823 1_545
Li4 O13 2.154505 1_555
Li4 O0 2.181944 1_555
Li4 O4 2.200086 1_555
Li5 O4 2.032529 1_555
Li5 O15 2.075402 1_655
Li5 O5 2.125239 1_555
Li5 O2 2.156559 1_555
Li5 O12 2.178785 1_555
Li5 O13 2.436112 1_555
Li6 O11 2.024672 1_655
Li6 O4 2.054472 1_555
Li6 O14 2.093597 1_655
Li6 O15 2.187689 1_655
Li6 O7 2.202958 1_555
Li6 O6 2.385925 1_555
Li7 O6 2.027154 1_545
Li7 O7 2.098667 1_555
Li7 O14 2.145241 1_655
Li7 O9 2.211823 1_655
Li7 O5 2.225476 1_545
Li7 O15 2.237058 1_645
Li8 O8 2.060154 1_555
Li8 O6 2.074970 1_555
Li8 O11 2.107199 1_555
Li8 O10 2.118548 1_555
Li8 O1 2.120274 1_655
Li8 O7 2.156370 1_555
Mn0 O10 1.920571 1_455
Mn0 O3 1.928378 1_565
Mn0 O1 1.931756 1_555
Mn0 O12 1.948188 1_456
Mn0 O13 1.977392 1_466
Mn0 O0 1.979284 1_566
Mn1 O1 1.947958 1_555
Mn1 O8 1.948397 1_455
Mn1 O13 1.987119 1_456
Mn1 O2 2.005049 1_556
Mn1 O3 2.179454 1_555
Mn1 O12 2.213800 1_456
Co0 O7 1.931862 1_555
Co0 O4 2.013393 1_555
Co0 O14 2.022521 1_555
Co0 O9 2.034430 1_555
Co0 O11 2.065154 1_555
Co0 O5 2.136426 1_545
Co1 O15 1.900989 1_555
Co1 O5 1.918837 1_555
Co1 O0 1.934470 1_565
Co1 O12 1.965381 1_455
Co1 O14 2.165675 1_565
Co1 O2 2.214032 1_555
Co2 O6 1.870612 1_545
Co2 O7 1.898820 1_555
Co2 O10 1.911359 1_545
Co2 O9 1.929166 1_555
Co2 O8 1.936844 1_555
Co2 O3 1.954679 1_655
Co3 O11 1.879454 1_555
Co3 O6 1.979570 1_555
Co3 O5 2.047275 1_555
Co3 O9 2.080211 1_565
Co3 O4 2.092330 1_555
Co3 O15 2.101983 1_555
Co4 O2 1.948449 1_555
Co4 O14 1.949544 1_555
Co4 O4 2.029456 1_555
Co4 O13 2.068613 1_455
Co4 O15 2.081968 1_555
Co4 O0 2.118496 1_555
