# generated using pymatgen
data_NaMg6Mo
_symmetry_space_group_name_H-M   'P 1'
_cell_length_a   6.28222200
_cell_length_b   6.28222200
_cell_length_c   4.34944600
_cell_angle_alpha   90.00000000
_cell_angle_beta   90.00000000
_cell_angle_gamma   90.00000000
_symmetry_Int_Tables_number   1
_chemical_formula_structural   NaMg6Mo
_chemical_formula_sum   'Na1 Mg6 Mo1'
_cell_volume   171.65659833
_cell_formula_units_Z   1
loop_
 _symmetry_equiv_pos_site_id
 _symmetry_equiv_pos_as_xyz
  1  'x, y, z'
loop_
 _atom_site_type_symbol
 _atom_site_label
 _atom_site_symmetry_multiplicity
 _atom_site_fract_x
 _atom_site_fract_y
 _atom_site_fract_z
 _atom_site_occupancy
  Na  Na0  1  0.50000000  0.50000000  0.50000000  1
  Mg  Mg0  1  0.50000000  0.00000000  0.50000000  1
  Mg  Mg1  1  0.00000000  0.50000000  0.50000000  1
  Mg  Mg2  1  0.23073200  0.76926800  0.00000000  1
  Mg  Mg3  1  0.76926800  0.23073200  0.00000000  1
  Mg  Mg4  1  0.23073200  0.23073200  0.00000000  1
  Mg  Mg5  1  0.76926800  0.76926800  0.00000000  1
  Mo  Mo0  1  0.00000000  0.00000000  0.50000000  1
loop_
_geom_bond_atom_site_label_1
_geom_bond_atom_site_label_2
_geom_bond_distance
_geom_bond_site_symmetry_2
Mg0 Mg5 3.113200 1_546
Mg0 Mg2 3.113200 1_546
Mg0 Mg4 3.113200 1_556
Mg0 Mg4 3.113200 1_555
Mg0 Mg2 3.113200 1_545
Mg0 Mg3 3.113200 1_555
Mg0 Mg5 3.113200 1_545
Mg0 Mg3 3.113200 1_556
Mg0 Na0 3.141111 1_545
Mg0 Mo0 3.141111 1_555
Mg0 Mo0 3.141111 1_655
Mg0 Na0 3.141111 1_555
Mg1 Mg2 3.113200 1_556
Mg1 Mg2 3.113200 1_555
Mg1 Mg5 3.113200 1_456
Mg1 Mg5 3.113200 1_455
Mg1 Mg4 3.113200 1_556
Mg1 Mg4 3.113200 1_555
Mg1 Mg3 3.113200 1_456
Mg1 Mg3 3.113200 1_455
Mg1 Mo0 3.141111 1_555
Mg1 Na0 3.141111 1_455
Mg1 Na0 3.141111 1_555
Mg1 Mo0 3.141111 1_565
Mg2 Mg5 2.899019 1_455
Mg2 Mg4 2.899019 1_565
Mg2 Mo0 2.988574 1_564
Mg2 Mo0 2.988574 1_565
Mg2 Na0 3.233025 1_555
Mg2 Na0 3.233025 1_554
Mg2 Mg4 3.383203 1_555
Mg2 Mg5 3.383203 1_555
Mg3 Mg5 2.899019 1_545
Mg3 Mg4 2.899019 1_655
Mg3 Mo0 2.988574 1_655
Mg3 Mo0 2.988574 1_654
Mg3 Na0 3.233025 1_555
Mg3 Na0 3.233025 1_554
Mg3 Mg4 3.383203 1_555
Mg3 Mg5 3.383203 1_555
Mg4 Mo0 2.988574 1_555
Mg4 Mo0 2.988574 1_554
Mg4 Na0 3.233025 1_555
Mg4 Na0 3.233025 1_554
Mg5 Mo0 2.988574 1_664
Mg5 Mo0 2.988574 1_665
Mg5 Na0 3.233025 1_555
Mg5 Na0 3.233025 1_554
