# generated using pymatgen
data_Nd3Fe3Sb7
_symmetry_space_group_name_H-M   'P 1'
_cell_length_a   13.30547804
_cell_length_b   13.30547804
_cell_length_c   4.22863500
_cell_angle_alpha   90.00000000
_cell_angle_beta   90.00000000
_cell_angle_gamma   120.00000018
_symmetry_Int_Tables_number   1
_chemical_formula_structural   Nd3Fe3Sb7
_chemical_formula_sum   'Nd6 Fe6 Sb14'
_cell_volume   648.32354765
_cell_formula_units_Z   2
loop_
 _symmetry_equiv_pos_site_id
 _symmetry_equiv_pos_as_xyz
  1  'x, y, z'
loop_
 _atom_site_type_symbol
 _atom_site_label
 _atom_site_symmetry_multiplicity
 _atom_site_fract_x
 _atom_site_fract_y
 _atom_site_fract_z
 _atom_site_occupancy
  Nd  Nd0  1  0.53838900  0.72151100  0.75000000  1
  Nd  Nd1  1  0.46161100  0.27848900  0.25000000  1
  Nd  Nd2  1  0.18312200  0.46161100  0.75000000  1
  Nd  Nd3  1  0.81687800  0.53838900  0.25000000  1
  Nd  Nd4  1  0.27848900  0.81687800  0.75000000  1
  Nd  Nd5  1  0.72151100  0.18312200  0.25000000  1
  Fe  Fe0  1  0.87451000  0.94838200  0.75000000  1
  Fe  Fe1  1  0.12549000  0.05161800  0.25000000  1
  Fe  Fe2  1  0.07387100  0.12549000  0.75000000  1
  Fe  Fe3  1  0.92612900  0.87451000  0.25000000  1
  Fe  Fe4  1  0.05161800  0.92612900  0.75000000  1
  Fe  Fe5  1  0.94838200  0.07387100  0.25000000  1
  Sb  Sb0  1  0.66666700  0.33333300  0.75000000  1
  Sb  Sb1  1  0.33333300  0.66666700  0.25000000  1
  Sb  Sb2  1  0.56633700  0.97679200  0.75000000  1
  Sb  Sb3  1  0.43366300  0.02320800  0.25000000  1
  Sb  Sb4  1  0.41045500  0.43366300  0.75000000  1
  Sb  Sb5  1  0.58954500  0.56633700  0.25000000  1
  Sb  Sb6  1  0.02320800  0.58954500  0.75000000  1
  Sb  Sb7  1  0.97679200  0.41045500  0.25000000  1
  Sb  Sb8  1  0.80952600  0.72682300  0.75000000  1
  Sb  Sb9  1  0.19047400  0.27317700  0.25000000  1
  Sb  Sb10  1  0.91729700  0.19047400  0.75000000  1
  Sb  Sb11  1  0.08270300  0.80952600  0.25000000  1
  Sb  Sb12  1  0.27317700  0.08270300  0.75000000  1
  Sb  Sb13  1  0.72682300  0.91729700  0.25000000  1
loop_
_geom_bond_atom_site_label_1
_geom_bond_atom_site_label_2
_geom_bond_distance
_geom_bond_site_symmetry_2
Nd0 Sb2 3.226815 1_555
Nd0 Sb1 3.233554 1_556
Nd0 Sb1 3.233554 1_555
Nd0 Sb5 3.256039 1_555
Nd0 Sb5 3.256039 1_556
Nd0 Sb13 3.318319 1_556
Nd0 Sb13 3.318319 1_555
Nd0 Sb4 3.323655 1_555
Nd0 Sb8 3.572792 1_555
Nd1 Sb3 3.226815 1_555
Nd1 Sb0 3.233554 1_555
Nd1 Sb0 3.233554 1_554
Nd1 Sb4 3.256039 1_555
Nd1 Sb4 3.256039 1_554
Nd1 Sb12 3.318319 1_555
Nd1 Sb12 3.318319 1_554
Nd1 Sb5 3.323655 1_555
Nd1 Sb9 3.572792 1_555
Nd2 Sb4 3.226815 1_555
Nd2 Sb1 3.233551 1_555
Nd2 Sb1 3.233551 1_556
Nd2 Sb7 3.256039 1_456
Nd2 Sb7 3.256039 1_455
Nd2 Sb9 3.318319 1_556
Nd2 Sb9 3.318319 1_555
Nd2 Sb6 3.323655 1_555
Nd2 Sb10 3.572792 1_455
Nd3 Sb5 3.226815 1_555
Nd3 Sb0 3.233551 1_554
Nd3 Sb0 3.233551 1_555
Nd3 Sb6 3.256039 1_654
Nd3 Sb6 3.256039 1_655
Nd3 Sb8 3.318319 1_555
Nd3 Sb8 3.318319 1_554
Nd3 Sb7 3.323655 1_555
Nd3 Sb11 3.572792 1_655
Nd4 Sb6 3.226815 1_555
Nd4 Sb1 3.233544 1_556
Nd4 Sb1 3.233544 1_555
Nd4 Sb3 3.256039 1_565
Nd4 Sb3 3.256039 1_566
Nd4 Sb11 3.318319 1_556
Nd4 Sb11 3.318319 1_555
Nd4 Sb2 3.323655 1_555
Nd4 Sb12 3.572792 1_565
Nd5 Sb7 3.226815 1_555
Nd5 Sb0 3.233544 1_555
Nd5 Sb0 3.233544 1_554
Nd5 Sb2 3.256039 1_544
Nd5 Sb2 3.256039 1_545
Nd5 Sb10 3.318319 1_555
Nd5 Sb10 3.318319 1_554
Nd5 Sb3 3.323655 1_555
Nd5 Sb13 3.572792 1_545
Fe0 Fe2 2.517642 1_665
Fe0 Fe4 2.517642 1_655
Fe0 Fe5 2.565767 1_565
Fe0 Fe5 2.565767 1_566
Fe0 Fe3 2.565779 1_555
Fe0 Fe3 2.565779 1_556
Fe0 Sb8 2.624706 1_555
Fe0 Sb13 2.773097 1_556
Fe0 Sb13 2.773097 1_555
Fe0 Sb10 2.977601 1_565
Fe1 Fe3 2.517642 1_445
Fe1 Fe5 2.517642 1_455
Fe1 Fe4 2.565767 1_544
Fe1 Fe4 2.565767 1_545
Fe1 Fe2 2.565779 1_555
Fe1 Fe2 2.565779 1_554
Fe1 Sb9 2.624706 1_555
Fe1 Sb12 2.773097 1_555
Fe1 Sb12 2.773097 1_554
Fe1 Sb11 2.977601 1_545
Fe2 Fe4 2.517642 1_545
Fe2 Fe5 2.565766 1_455
Fe2 Fe5 2.565766 1_456
Fe2 Sb10 2.624694 1_455
Fe2 Sb9 2.773100 1_556
Fe2 Sb9 2.773100 1_555
Fe2 Sb12 2.977614 1_555
Fe3 Fe5 2.517642 1_565
Fe3 Fe4 2.565766 1_654
Fe3 Fe4 2.565766 1_655
Fe3 Sb11 2.624694 1_655
Fe3 Sb8 2.773100 1_554
Fe3 Sb8 2.773100 1_555
Fe3 Sb13 2.977614 1_555
Fe4 Sb12 2.624703 1_565
Fe4 Sb11 2.773105 1_556
Fe4 Sb11 2.773105 1_555
Fe4 Sb8 2.977605 1_455
Fe5 Sb13 2.624703 1_545
Fe5 Sb10 2.773105 1_554
Fe5 Sb10 2.773105 1_555
Fe5 Sb9 2.977605 1_655
Sb2 Sb3 3.009689 1_566
Sb2 Sb3 3.009689 1_565
Sb4 Sb5 3.009689 1_555
Sb4 Sb5 3.009689 1_556
Sb4 Sb9 3.368535 1_556
Sb4 Sb9 3.368535 1_555
Sb5 Sb8 3.368535 1_555
Sb5 Sb8 3.368535 1_554
Sb6 Sb7 3.009689 1_455
Sb6 Sb7 3.009689 1_456
Sb10 Sb7 3.368535 1_555
Sb10 Sb7 3.368535 1_556
Sb11 Sb6 3.368535 1_555
Sb11 Sb6 3.368535 1_554
Sb12 Sb3 3.368535 1_555
Sb12 Sb3 3.368535 1_556
Sb13 Sb2 3.368535 1_555
Sb13 Sb2 3.368535 1_554
