# generated using pymatgen
data_Nb2Zn2FeO8
_symmetry_space_group_name_H-M   'P 1'
_cell_length_a   10.20745992
_cell_length_b   10.20745992
_cell_length_c   5.30215463
_cell_angle_alpha   89.27862439
_cell_angle_beta   89.27862439
_cell_angle_gamma   34.04560420
_symmetry_Int_Tables_number   1
_chemical_formula_structural   Nb2Zn2FeO8
_chemical_formula_sum   'Nb4 Zn4 Fe2 O16'
_cell_volume   309.26003501
_cell_formula_units_Z   2
loop_
 _symmetry_equiv_pos_site_id
 _symmetry_equiv_pos_as_xyz
  1  'x, y, z'
loop_
 _atom_site_type_symbol
 _atom_site_label
 _atom_site_symmetry_multiplicity
 _atom_site_fract_x
 _atom_site_fract_y
 _atom_site_fract_z
 _atom_site_occupancy
  Nb  Nb0  1  0.72356400  0.04639400  0.26245200  1
  Nb  Nb1  1  0.95360600  0.27643600  0.23754800  1
  Nb  Nb2  1  0.27643600  0.95360600  0.73754800  1
  Nb  Nb3  1  0.04639400  0.72356400  0.76245200  1
  Zn  Zn0  1  0.56716500  0.87296000  0.23131700  1
  Zn  Zn1  1  0.12704000  0.43283500  0.26868300  1
  Zn  Zn2  1  0.43283500  0.12704000  0.76868300  1
  Zn  Zn3  1  0.87296000  0.56716500  0.73131700  1
  Fe  Fe0  1  0.34814800  0.65185200  0.25000000  1
  Fe  Fe1  1  0.65185200  0.34814800  0.75000000  1
  O  O0  1  0.81392300  0.04583600  0.92263400  1
  O  O1  1  0.95416400  0.18607700  0.57736600  1
  O  O2  1  0.18607700  0.95416400  0.07736600  1
  O  O3  1  0.04583600  0.81392300  0.42263400  1
  O  O4  1  0.56668300  0.31556100  0.40511500  1
  O  O5  1  0.68443900  0.43331700  0.09488500  1
  O  O6  1  0.43331700  0.68443900  0.59488500  1
  O  O7  1  0.31556100  0.56668300  0.90511500  1
  O  O8  1  0.71756000  0.92473000  0.56187500  1
  O  O9  1  0.07527000  0.28244000  0.93812500  1
  O  O10  1  0.16022700  0.45265400  0.63249600  1
  O  O11  1  0.54734600  0.83977300  0.86750400  1
  O  O12  1  0.83977300  0.54734600  0.36750400  1
  O  O13  1  0.45265400  0.16022700  0.13249600  1
  O  O14  1  0.92473000  0.71756000  0.06187500  1
  O  O15  1  0.28244000  0.07527000  0.43812500  1
loop_
_geom_bond_atom_site_label_1
_geom_bond_atom_site_label_2
_geom_bond_distance
_geom_bond_site_symmetry_2
Nb0 O4 1.848236 1_555
Nb0 O0 2.011668 1_554
Nb0 O8 2.034819 1_545
Nb0 O13 2.043250 1_555
Nb0 O3 2.063290 1_645
Nb0 O14 2.286253 1_545
Nb1 O5 1.848236 1_555
Nb1 O1 2.011668 1_555
Nb1 O9 2.034819 1_654
Nb1 O12 2.043250 1_555
Nb1 O2 2.063290 1_645
Nb1 O15 2.286253 1_655
Nb2 O6 1.848236 1_555
Nb2 O2 2.011668 1_556
Nb2 O15 2.034819 1_565
Nb2 O11 2.043250 1_555
Nb2 O1 2.063290 1_465
Nb2 O9 2.286253 1_565
Nb3 O7 1.848236 1_555
Nb3 O3 2.011668 1_555
Nb3 O14 2.034819 1_456
Nb3 O10 2.043250 1_555
Nb3 O0 2.063290 1_465
Nb3 O8 2.286253 1_455
Fe0 O3 2.145721 1_555
Fe0 O2 2.145721 1_555
Fe0 O4 2.172859 1_555
Fe0 O5 2.172859 1_555
Fe0 O7 2.178277 1_554
Fe0 O6 2.178277 1_555
Fe1 O0 2.145721 1_555
Fe1 O1 2.145721 1_555
Fe1 O7 2.172859 1_555
Fe1 O6 2.172859 1_555
Fe1 O4 2.178277 1_555
Fe1 O5 2.178277 1_556
O8 Zn2 1.986036 1_565
O9 Zn3 1.986036 1_455
O10 Zn2 1.993711 1_555
O10 Zn1 2.004131 1_555
O10 Zn3 2.129748 1_455
O11 Zn3 1.993711 1_555
O11 Zn0 2.004131 1_556
O11 Zn2 2.129748 1_565
O12 Zn0 1.993711 1_555
O12 Zn3 2.004131 1_555
O12 Zn1 2.129748 1_655
O13 Zn1 1.993711 1_555
O13 Zn2 2.004131 1_554
O13 Zn0 2.129748 1_545
O14 Zn1 1.986036 1_655
O15 Zn0 1.986036 1_545
