# generated using pymatgen
data_Co
_symmetry_space_group_name_H-M   'P 1'
_cell_length_a   4.94112506
_cell_length_b   4.94112206
_cell_length_c   16.17646760
_cell_angle_alpha   90.00000000
_cell_angle_beta   90.00000000
_cell_angle_gamma   120.00000627
_symmetry_Int_Tables_number   1
_chemical_formula_structural   Co
_chemical_formula_sum   Co32
_cell_volume   342.03120086
_cell_formula_units_Z   32
loop_
 _symmetry_equiv_pos_site_id
 _symmetry_equiv_pos_as_xyz
  1  'x, y, z'
loop_
 _atom_site_type_symbol
 _atom_site_label
 _atom_site_symmetry_multiplicity
 _atom_site_fract_x
 _atom_site_fract_y
 _atom_site_fract_z
 _atom_site_occupancy
  Co  Co0_0  1  0.00000000  0.00000000  0.00000000  1
  Co  Co0_1  1  0.00000000  0.00000000  0.50000000  1
  Co  Co0_2  1  0.00000000  0.50000000  0.00000000  1
  Co  Co0_3  1  0.00000000  0.50000000  0.50000000  1
  Co  Co0_4  1  0.50000000  0.00000000  0.00000000  1
  Co  Co0_5  1  0.50000000  0.00000000  0.50000000  1
  Co  Co0_6  1  0.50000000  0.50000000  0.00000000  1
  Co  Co0_7  1  0.50000000  0.50000000  0.50000000  1
  Co  Co1_0  1  0.16666650  0.33333350  0.12499757  1
  Co  Co1_1  1  0.16666650  0.33333350  0.62499757  1
  Co  Co1_2  1  0.16666650  0.83333350  0.12499757  1
  Co  Co1_3  1  0.16666650  0.83333350  0.62499757  1
  Co  Co1_4  1  0.66666650  0.33333350  0.12499757  1
  Co  Co1_5  1  0.66666650  0.33333350  0.62499757  1
  Co  Co1_6  1  0.66666650  0.83333350  0.12499757  1
  Co  Co1_7  1  0.66666650  0.83333350  0.62499757  1
  Co  Co2_0  1  0.00000000  0.00000000  0.25000000  1
  Co  Co2_1  1  0.00000000  0.00000000  0.75000000  1
  Co  Co2_2  1  0.00000000  0.50000000  0.25000000  1
  Co  Co2_3  1  0.00000000  0.50000000  0.75000000  1
  Co  Co2_4  1  0.50000000  0.00000000  0.25000000  1
  Co  Co2_5  1  0.50000000  0.00000000  0.75000000  1
  Co  Co2_6  1  0.50000000  0.50000000  0.25000000  1
  Co  Co2_7  1  0.50000000  0.50000000  0.75000000  1
  Co  Co3_0  1  0.33333350  0.16666650  0.37500143  1
  Co  Co3_1  1  0.33333350  0.16666650  0.87500143  1
  Co  Co3_2  1  0.33333350  0.66666650  0.37500143  1
  Co  Co3_3  1  0.33333350  0.66666650  0.87500143  1
  Co  Co3_4  1  0.83333350  0.16666650  0.37500143  1
  Co  Co3_5  1  0.83333350  0.16666650  0.87500143  1
  Co  Co3_6  1  0.83333350  0.66666650  0.37500143  1
  Co  Co3_7  1  0.83333350  0.66666650  0.87500143  1
loop_
_geom_bond_atom_site_label_1
_geom_bond_atom_site_label_2
_geom_bond_distance
_geom_bond_site_symmetry_2
Co0_0 Co0_2 2.470561 1_555
Co0_0 Co0_2 2.470561 1_545
Co0_0 Co0_6 2.470562 1_555
Co0_0 Co0_6 2.470562 1_445
Co0_0 Co0_4 2.470563 1_455
Co0_0 Co0_4 2.470563 1_555
Co0_0 Co1_2 2.474493 1_545
Co0_0 Co1_0 2.474494 1_555
Co0_0 Co1_6 2.474494 1_445
Co0_0 Co3_5 2.474506 1_454
Co0_0 Co3_7 2.474507 1_444
Co0_0 Co3_1 2.474508 1_554
Co0_1 Co0_3 2.470561 1_545
Co0_1 Co0_3 2.470561 1_555
Co0_1 Co0_7 2.470562 1_555
Co0_1 Co0_7 2.470562 1_445
Co0_1 Co0_5 2.470563 1_455
Co0_1 Co0_5 2.470563 1_555
Co0_1 Co1_3 2.474493 1_545
Co0_1 Co1_1 2.474494 1_555
Co0_1 Co1_7 2.474494 1_445
Co0_1 Co3_4 2.474506 1_455
Co0_1 Co3_6 2.474507 1_445
Co0_1 Co3_0 2.474508 1_555
Co0_2 Co0_4 2.470562 1_565
Co0_2 Co0_4 2.470562 1_455
Co0_2 Co0_6 2.470563 1_555
Co0_2 Co0_6 2.470563 1_455
Co0_2 Co1_0 2.474493 1_555
Co0_2 Co1_2 2.474494 1_555
Co0_2 Co1_4 2.474494 1_455
Co0_2 Co3_7 2.474506 1_454
Co0_2 Co3_5 2.474507 1_454
Co0_2 Co3_3 2.474508 1_554
Co0_3 Co0_5 2.470562 1_455
Co0_3 Co0_5 2.470562 1_565
Co0_3 Co0_7 2.470563 1_455
Co0_3 Co0_7 2.470563 1_555
Co0_3 Co1_1 2.474493 1_555
Co0_3 Co1_3 2.474494 1_555
Co0_3 Co1_5 2.474494 1_455
Co0_3 Co3_6 2.474506 1_455
Co0_3 Co3_4 2.474507 1_455
Co0_3 Co3_2 2.474508 1_555
Co0_4 Co0_6 2.470561 1_555
Co0_4 Co0_6 2.470561 1_545
Co0_4 Co1_6 2.474493 1_545
Co0_4 Co1_4 2.474494 1_555
Co0_4 Co1_2 2.474494 1_545
Co0_4 Co3_1 2.474506 1_554
Co0_4 Co3_3 2.474507 1_544
Co0_4 Co3_5 2.474508 1_554
Co0_5 Co0_7 2.470561 1_545
Co0_5 Co0_7 2.470561 1_555
Co0_5 Co1_7 2.474493 1_545
Co0_5 Co1_5 2.474494 1_555
Co0_5 Co1_3 2.474494 1_545
Co0_5 Co3_0 2.474506 1_555
Co0_5 Co3_2 2.474507 1_545
Co0_5 Co3_4 2.474508 1_555
Co0_6 Co1_4 2.474493 1_555
Co0_6 Co1_6 2.474494 1_555
Co0_6 Co1_0 2.474494 1_555
Co0_6 Co3_3 2.474506 1_554
Co0_6 Co3_1 2.474507 1_554
Co0_6 Co3_7 2.474508 1_554
Co0_7 Co1_5 2.474493 1_555
Co0_7 Co1_7 2.474494 1_555
Co0_7 Co1_1 2.474494 1_555
Co0_7 Co3_2 2.474506 1_555
Co0_7 Co3_0 2.474507 1_555
Co0_7 Co3_6 2.474508 1_555
Co1_0 Co1_2 2.470561 1_545
Co1_0 Co1_2 2.470561 1_555
Co1_0 Co1_6 2.470562 1_445
Co1_0 Co1_6 2.470562 1_555
Co1_0 Co1_4 2.470563 1_455
Co1_0 Co1_4 2.470563 1_555
Co1_0 Co2_2 2.474557 1_555
Co1_0 Co2_0 2.474558 1_555
Co1_0 Co2_6 2.474559 1_555
Co1_1 Co1_3 2.470561 1_545
Co1_1 Co1_3 2.470561 1_555
Co1_1 Co1_7 2.470562 1_445
Co1_1 Co1_7 2.470562 1_555
Co1_1 Co1_5 2.470563 1_455
Co1_1 Co1_5 2.470563 1_555
Co1_1 Co2_3 2.474557 1_555
Co1_1 Co2_1 2.474558 1_555
Co1_1 Co2_7 2.474559 1_555
Co1_2 Co1_4 2.470562 1_455
Co1_2 Co1_4 2.470562 1_565
Co1_2 Co1_6 2.470563 1_455
Co1_2 Co1_6 2.470563 1_555
Co1_2 Co2_0 2.474557 1_565
Co1_2 Co2_2 2.474558 1_555
Co1_2 Co2_4 2.474559 1_565
Co1_3 Co1_5 2.470562 1_455
Co1_3 Co1_5 2.470562 1_565
Co1_3 Co1_7 2.470563 1_455
Co1_3 Co1_7 2.470563 1_555
Co1_3 Co2_1 2.474557 1_565
Co1_3 Co2_3 2.474558 1_555
Co1_3 Co2_5 2.474559 1_565
Co1_4 Co1_6 2.470561 1_545
Co1_4 Co1_6 2.470561 1_555
Co1_4 Co2_6 2.474557 1_555
Co1_4 Co2_4 2.474558 1_555
Co1_4 Co2_2 2.474559 1_655
Co1_5 Co1_7 2.470561 1_545
Co1_5 Co1_7 2.470561 1_555
Co1_5 Co2_7 2.474557 1_555
Co1_5 Co2_5 2.474558 1_555
Co1_5 Co2_3 2.474559 1_655
Co1_6 Co2_4 2.474557 1_565
Co1_6 Co2_6 2.474558 1_555
Co1_6 Co2_0 2.474559 1_665
Co1_7 Co2_5 2.474557 1_565
Co1_7 Co2_7 2.474558 1_555
Co1_7 Co2_1 2.474559 1_665
Co2_0 Co2_2 2.470561 1_555
Co2_0 Co2_2 2.470561 1_545
Co2_0 Co2_6 2.470562 1_445
Co2_0 Co2_6 2.470562 1_555
Co2_0 Co2_4 2.470563 1_455
Co2_0 Co2_4 2.470563 1_555
Co2_0 Co3_4 2.474544 1_455
Co2_0 Co3_6 2.474545 1_445
Co2_0 Co3_0 2.474546 1_555
Co2_1 Co2_3 2.470561 1_545
Co2_1 Co2_3 2.470561 1_555
Co2_1 Co2_7 2.470562 1_555
Co2_1 Co2_7 2.470562 1_445
Co2_1 Co2_5 2.470563 1_555
Co2_1 Co2_5 2.470563 1_455
Co2_1 Co3_5 2.474544 1_455
Co2_1 Co3_7 2.474545 1_445
Co2_1 Co3_1 2.474546 1_555
Co2_2 Co2_4 2.470562 1_455
Co2_2 Co2_4 2.470562 1_565
Co2_2 Co2_6 2.470563 1_555
Co2_2 Co2_6 2.470563 1_455
Co2_2 Co3_6 2.474544 1_455
Co2_2 Co3_4 2.474545 1_455
Co2_2 Co3_2 2.474546 1_555
Co2_3 Co2_5 2.470562 1_565
Co2_3 Co2_5 2.470562 1_455
Co2_3 Co2_7 2.470563 1_455
Co2_3 Co2_7 2.470563 1_555
Co2_3 Co3_7 2.474544 1_455
Co2_3 Co3_5 2.474545 1_455
Co2_3 Co3_3 2.474546 1_555
Co2_4 Co2_6 2.470561 1_555
Co2_4 Co2_6 2.470561 1_545
Co2_4 Co3_0 2.474544 1_555
Co2_4 Co3_2 2.474545 1_545
Co2_4 Co3_4 2.474546 1_555
Co2_5 Co2_7 2.470561 1_545
Co2_5 Co2_7 2.470561 1_555
Co2_5 Co3_1 2.474544 1_555
Co2_5 Co3_3 2.474545 1_545
Co2_5 Co3_5 2.474546 1_555
Co2_6 Co3_2 2.474544 1_555
Co2_6 Co3_0 2.474545 1_555
Co2_6 Co3_6 2.474546 1_555
Co2_7 Co3_3 2.474544 1_555
Co2_7 Co3_1 2.474545 1_555
Co2_7 Co3_7 2.474546 1_555
Co3_0 Co3_2 2.470561 1_555
Co3_0 Co3_2 2.470561 1_545
Co3_0 Co3_6 2.470562 1_555
Co3_0 Co3_6 2.470562 1_445
Co3_0 Co3_4 2.470563 1_555
Co3_0 Co3_4 2.470563 1_455
Co3_1 Co3_3 2.470561 1_545
Co3_1 Co3_3 2.470561 1_555
Co3_1 Co3_7 2.470562 1_555
Co3_1 Co3_7 2.470562 1_445
Co3_1 Co3_5 2.470563 1_555
Co3_1 Co3_5 2.470563 1_455
Co3_2 Co3_4 2.470562 1_455
Co3_2 Co3_4 2.470562 1_565
Co3_2 Co3_6 2.470563 1_555
Co3_2 Co3_6 2.470563 1_455
Co3_3 Co3_5 2.470562 1_455
Co3_3 Co3_5 2.470562 1_565
Co3_3 Co3_7 2.470563 1_555
Co3_3 Co3_7 2.470563 1_455
Co3_4 Co3_6 2.470561 1_555
Co3_4 Co3_6 2.470561 1_545
Co3_5 Co3_7 2.470561 1_555
Co3_5 Co3_7 2.470561 1_545
