# generated using pymatgen
data_GdYCu2
_symmetry_space_group_name_H-M   'P 1'
_cell_length_a   4.91566404
_cell_length_b   4.91566404
_cell_length_c   4.91566404
_cell_angle_alpha   60.00000000
_cell_angle_beta   60.00000000
_cell_angle_gamma   60.00000000
_symmetry_Int_Tables_number   1
_chemical_formula_structural   GdYCu2
_chemical_formula_sum   'Gd1 Y1 Cu2'
_cell_volume   83.99077407
_cell_formula_units_Z   1
loop_
 _symmetry_equiv_pos_site_id
 _symmetry_equiv_pos_as_xyz
  1  'x, y, z'
loop_
 _atom_site_type_symbol
 _atom_site_label
 _atom_site_symmetry_multiplicity
 _atom_site_fract_x
 _atom_site_fract_y
 _atom_site_fract_z
 _atom_site_occupancy
  Gd  Gd0  1  0.50000000  0.50000000  0.50000000  1
  Y  Y0  1  0.00000000  0.00000000  -0.00000000  1
  Cu  Cu0  1  0.75000000  0.75000000  0.75000000  1
  Cu  Cu1  1  0.25000000  0.25000000  0.25000000  1
loop_
_geom_bond_atom_site_label_1
_geom_bond_atom_site_label_2
_geom_bond_distance
_geom_bond_site_symmetry_2
Cu0 Y0 3.010217 1_666
Cu0 Gd0 3.010217 1_555
Cu0 Gd0 3.010217 1_556
Cu0 Y0 3.010217 1_566
Cu0 Y0 3.010217 1_656
Cu0 Gd0 3.010217 1_565
Cu0 Y0 3.010217 1_665
Cu0 Gd0 3.010217 1_655
Cu1 Gd0 3.010217 1_554
Cu1 Gd0 3.010217 1_455
Cu1 Gd0 3.010217 1_555
Cu1 Y0 3.010217 1_556
Cu1 Y0 3.010217 1_565
Cu1 Y0 3.010217 1_555
Cu1 Gd0 3.010217 1_545
Cu1 Y0 3.010217 1_655
