# generated using pymatgen
data_TbBiTe3
_symmetry_space_group_name_H-M   'P 1'
_cell_length_a   10.84725989
_cell_length_b   10.84725989
_cell_length_c   10.84726060
_cell_angle_alpha   23.48596893
_cell_angle_beta   23.48596893
_cell_angle_gamma   23.48597292
_symmetry_Int_Tables_number   1
_chemical_formula_structural   TbBiTe3
_chemical_formula_sum   'Tb1 Bi1 Te3'
_cell_volume   178.00674936
_cell_formula_units_Z   1
loop_
 _symmetry_equiv_pos_site_id
 _symmetry_equiv_pos_as_xyz
  1  'x, y, z'
loop_
 _atom_site_type_symbol
 _atom_site_label
 _atom_site_symmetry_multiplicity
 _atom_site_fract_x
 _atom_site_fract_y
 _atom_site_fract_z
 _atom_site_occupancy
  Tb  Tb0  1  0.60144100  0.60144100  0.60144100  1
  Bi  Bi0  1  0.39934000  0.39934000  0.39934000  1
  Te  Te0  1  0.99633300  0.99633300  0.99633300  1
  Te  Te1  1  0.78634000  0.78634000  0.78634000  1
  Te  Te2  1  0.21654600  0.21654600  0.21654600  1
loop_
_geom_bond_atom_site_label_1
_geom_bond_atom_site_label_2
_geom_bond_distance
_geom_bond_site_symmetry_2
Tb0 Te2 3.026253 1_556
Tb0 Te2 3.026253 1_655
Tb0 Te2 3.026253 1_565
Tb0 Te0 3.207743 1_554
Tb0 Te0 3.207744 1_545
Tb0 Te0 3.207744 1_455
Bi0 Te1 3.062649 1_554
Bi0 Te1 3.062650 1_455
Bi0 Te1 3.062650 1_545
Bi0 Te0 3.369730 1_445
Bi0 Te0 3.369731 1_544
Bi0 Te0 3.369731 1_454
