# generated using pymatgen
data_Sr2ReN3
_symmetry_space_group_name_H-M   'P 1'
_cell_length_a   6.29326378
_cell_length_b   6.29326378
_cell_length_c   12.52052423
_cell_angle_alpha   87.56713567
_cell_angle_beta   87.56713567
_cell_angle_gamma   128.52270989
_symmetry_Int_Tables_number   1
_chemical_formula_structural   Sr2ReN3
_chemical_formula_sum   'Sr8 Re4 N12'
_cell_volume   386.09753160
_cell_formula_units_Z   4
loop_
 _symmetry_equiv_pos_site_id
 _symmetry_equiv_pos_as_xyz
  1  'x, y, z'
loop_
 _atom_site_type_symbol
 _atom_site_label
 _atom_site_symmetry_multiplicity
 _atom_site_fract_x
 _atom_site_fract_y
 _atom_site_fract_z
 _atom_site_occupancy
  Sr  Sr0  1  0.98058561  0.58107975  0.35644014  1
  Sr  Sr1  1  0.41892025  0.01941439  0.14355986  1
  Sr  Sr2  1  0.01941439  0.41892025  0.64355986  1
  Sr  Sr3  1  0.58107975  0.98058561  0.85644014  1
  Sr  Sr4  1  0.12411438  0.34654782  0.07608436  1
  Sr  Sr5  1  0.65345218  0.87588562  0.42391564  1
  Sr  Sr6  1  0.87588562  0.65345218  0.92391564  1
  Sr  Sr7  1  0.34654782  0.12411438  0.57608436  1
  Re  Re0  1  0.71425938  0.70660832  0.17309028  1
  Re  Re1  1  0.29339168  0.28574062  0.32690972  1
  Re  Re2  1  0.28574062  0.29339168  0.82690972  1
  Re  Re3  1  0.70660832  0.71425938  0.67309028  1
  N  N0  1  0.37417701  0.62582299  0.25000000  1
  N  N1  1  0.62582299  0.37417701  0.75000000  1
  N  N2  1  0.86327723  0.54096408  0.12885685  1
  N  N3  1  0.45903592  0.13672277  0.37114315  1
  N  N4  1  0.13672277  0.45903592  0.87114315  1
  N  N5  1  0.54096408  0.86327723  0.62885685  1
  N  N6  1  0.82581405  0.65453676  0.54833116  1
  N  N7  1  0.34546324  0.17418595  0.95166884  1
  N  N8  1  0.17418595  0.34546324  0.45166884  1
  N  N9  1  0.65453676  0.82581405  0.04833116  1
  N  N10  1  0.00172276  0.99827724  0.25000000  1
  N  N11  1  0.99827724  0.00172276  0.75000000  1
loop_
_geom_bond_atom_site_label_1
_geom_bond_atom_site_label_2
_geom_bond_distance
_geom_bond_site_symmetry_2
N0 Re1 2.048024 1_555
N0 Re0 2.048024 1_555
N0 Sr1 2.609566 1_565
N0 Sr0 2.609566 1_455
N0 Sr4 2.734529 1_555
N0 Sr5 2.734529 1_555
N1 Re2 2.048024 1_555
N1 Re3 2.048024 1_555
N1 Sr2 2.609566 1_655
N1 Sr3 2.609566 1_545
N1 Sr7 2.734529 1_555
N1 Sr6 2.734529 1_555
N2 Re0 1.869646 1_555
N2 Sr6 2.617285 1_554
N2 Sr1 2.664360 1_555
N2 Sr4 2.665797 1_655
N2 Sr1 2.883419 1_665
N2 Sr0 2.955620 1_555
N3 Re1 1.869646 1_555
N3 Sr7 2.617285 1_555
N3 Sr0 2.664360 1_555
N3 Sr5 2.665797 1_545
N3 Sr0 2.883419 1_445
N3 Sr1 2.955620 1_555
N4 Re2 1.869646 1_555
N4 Sr4 2.617285 1_556
N4 Sr3 2.664360 1_555
N4 Sr6 2.665797 1_455
N4 Sr3 2.883419 1_445
N4 Sr2 2.955620 1_555
N5 Re3 1.869646 1_555
N5 Sr5 2.617285 1_555
N5 Sr2 2.664360 1_555
N5 Sr7 2.665797 1_565
N5 Sr2 2.883419 1_665
N5 Sr3 2.955620 1_555
N6 Re3 1.856241 1_555
N6 Sr2 2.707097 1_655
N6 Sr5 2.717552 1_555
N6 Sr0 2.718693 1_555
N6 Sr7 2.762583 1_555
N6 Sr7 2.777358 1_665
N7 Re2 1.856241 1_555
N7 Sr3 2.707097 1_545
N7 Sr4 2.717552 1_556
N7 Sr1 2.718693 1_556
N7 Sr6 2.762583 1_555
N7 Sr6 2.777358 1_445
N8 Re1 1.856241 1_555
N8 Sr0 2.707097 1_455
N8 Sr7 2.717552 1_555
N8 Sr2 2.718693 1_555
N8 Sr5 2.762583 1_555
N8 Sr5 2.777358 1_445
N9 Re0 1.856241 1_555
N9 Sr1 2.707097 1_565
N9 Sr6 2.717552 1_554
N9 Sr3 2.718693 1_554
N9 Sr4 2.762583 1_555
N9 Sr4 2.777358 1_665
N10 Re1 1.931546 1_565
N10 Re0 1.931546 1_455
N10 Sr5 2.736456 1_455
N10 Sr4 2.736456 1_565
N10 Sr0 2.817804 1_455
N10 Sr1 2.817804 1_565
N11 Re2 1.931546 1_655
N11 Re3 1.931546 1_545
N11 Sr6 2.736456 1_545
N11 Sr7 2.736456 1_655
N11 Sr3 2.817804 1_545
N11 Sr2 2.817804 1_655
