# generated using pymatgen
data_Ca2V3O8
_symmetry_space_group_name_H-M   'P 1'
_cell_length_a   6.06596788
_cell_length_b   6.06197030
_cell_length_c   10.56379326
_cell_angle_alpha   90.02429648
_cell_angle_beta   90.01686391
_cell_angle_gamma   60.03835127
_symmetry_Int_Tables_number   1
_chemical_formula_structural   Ca2V3O8
_chemical_formula_sum   'Ca4 V6 O16'
_cell_volume   336.53644231
_cell_formula_units_Z   2
loop_
 _symmetry_equiv_pos_site_id
 _symmetry_equiv_pos_as_xyz
  1  'x, y, z'
loop_
 _atom_site_type_symbol
 _atom_site_label
 _atom_site_symmetry_multiplicity
 _atom_site_fract_x
 _atom_site_fract_y
 _atom_site_fract_z
 _atom_site_occupancy
  Ca  Ca0  1  0.33357900  0.33384500  0.02382900  1
  Ca  Ca1  1  0.66687400  0.66698600  0.52392400  1
  Ca  Ca2  1  0.33306800  0.33365400  0.43182100  1
  Ca  Ca3  1  0.66787200  0.66640400  0.93127100  1
  V  V0  1  0.83933600  0.32650900  0.24527800  1
  V  V1  1  0.15988400  0.67275900  0.74581200  1
  V  V2  1  0.32711500  0.83325800  0.24602700  1
  V  V3  1  0.83380000  0.83923700  0.24615500  1
  V  V4  1  0.67334700  0.16694800  0.74536500  1
  V  V5  1  0.16733100  0.15891300  0.74577400  1
  O  O0  1  0.00017300  0.00004800  0.34472700  1
  O  O1  1  0.99935900  0.00042500  0.84451300  1
  O  O2  1  0.66662800  0.66650600  0.14530400  1
  O  O3  1  0.33328400  0.33298700  0.64522800  1
  O  O4  1  0.68936300  0.13881300  0.15462500  1
  O  O5  1  0.85993600  0.82879500  0.65515300  1
  O  O6  1  0.82914300  0.31070500  0.65476800  1
  O  O7  1  0.17155600  0.68986300  0.15446800  1
  O  O8  1  0.13829000  0.17217600  0.15482000  1
  O  O9  1  0.30965300  0.86034500  0.65425700  1
  O  O10  1  0.04651900  0.46053200  0.84916500  1
  O  O11  1  0.53807100  0.50736700  0.34889200  1
  O  O12  1  0.50738900  0.95460100  0.34901900  1
  O  O13  1  0.49276600  0.04573700  0.84872300  1
  O  O14  1  0.46121700  0.49401400  0.84877800  1
  O  O15  1  0.95444200  0.53857700  0.34930500  1
loop_
_geom_bond_atom_site_label_1
_geom_bond_atom_site_label_2
_geom_bond_distance
_geom_bond_site_symmetry_2
Ca0 O7 2.325466 1_555
Ca0 O4 2.327149 1_555
Ca0 O8 2.332447 1_555
Ca0 O10 2.385359 1_554
Ca0 O14 2.390602 1_554
Ca0 O13 2.391276 1_554
Ca1 O5 2.323932 1_555
Ca1 O6 2.328576 1_555
Ca1 O9 2.329886 1_555
Ca1 O15 2.386604 1_555
Ca1 O12 2.388832 1_555
Ca1 O11 2.391293 1_555
Ca2 O15 2.174380 1_455
Ca2 O11 2.175352 1_555
Ca2 O12 2.176022 1_545
Ca2 O3 2.254392 1_555
Ca3 O10 2.173123 1_655
Ca3 O14 2.174848 1_555
Ca3 O13 2.176664 1_565
Ca3 O2 2.261014 1_556
O0 V3 2.008555 1_445
O0 V2 2.009977 1_545
O0 V0 2.011116 1_455
O1 V5 2.007101 1_655
O1 V4 2.008117 1_555
O1 V1 2.011875 1_645
O2 V0 2.074921 1_555
O2 V2 2.077585 1_555
O2 V3 2.078154 1_555
O3 V1 2.076666 1_555
O3 V4 2.076785 1_555
O3 V5 2.077898 1_555
O4 V3 1.847215 1_545
O4 V0 2.017858 1_555
O5 V1 1.844751 1_655
O5 V4 2.018107 1_565
O6 V4 1.841832 1_555
O6 V5 2.023227 1_655
O7 V2 1.843788 1_555
O7 V3 2.025603 1_455
O8 V0 1.839193 1_455
O8 V2 2.027756 1_545
O9 V5 1.842287 1_565
O9 V1 2.021683 1_555
O10 V5 1.932208 1_555
O10 V1 2.050691 1_555
O11 V0 1.933548 1_555
O11 V2 2.048658 1_555
O12 V2 1.929425 1_555
O12 V3 2.051288 1_555
O13 V4 1.933200 1_555
O13 V5 2.048655 1_555
O14 V1 1.928693 1_555
O14 V4 2.056906 1_555
O15 V3 1.927098 1_555
O15 V0 2.059783 1_555
