# generated using pymatgen
data_EuCrTeO6
_symmetry_space_group_name_H-M   'P 1'
_cell_length_a   5.48112706
_cell_length_b   5.48112706
_cell_length_c   8.59978000
_cell_angle_alpha   90.00000000
_cell_angle_beta   90.00000000
_cell_angle_gamma   119.99998861
_symmetry_Int_Tables_number   1
_chemical_formula_structural   EuCrTeO6
_chemical_formula_sum   'Eu2 Cr2 Te2 O12'
_cell_volume   223.74727855
_cell_formula_units_Z   2
loop_
 _symmetry_equiv_pos_site_id
 _symmetry_equiv_pos_as_xyz
  1  'x, y, z'
loop_
 _atom_site_type_symbol
 _atom_site_label
 _atom_site_symmetry_multiplicity
 _atom_site_fract_x
 _atom_site_fract_y
 _atom_site_fract_z
 _atom_site_occupancy
  Eu  Eu0  1  0.33333300  0.66666700  0.75000000  1
  Eu  Eu1  1  0.66666700  0.33333300  0.25000000  1
  Cr  Cr0  1  0.00000000  0.00000000  0.00000000  1
  Cr  Cr1  1  0.00000000  0.00000000  0.50000000  1
  Te  Te0  1  0.66666700  0.33333300  0.75000000  1
  Te  Te1  1  0.33333300  0.66666700  0.25000000  1
  O  O0  1  0.94662700  0.30078800  0.87856300  1
  O  O1  1  0.05337300  0.69921200  0.12143700  1
  O  O2  1  0.35416000  0.05337300  0.87856300  1
  O  O3  1  0.35416000  0.30078800  0.62143700  1
  O  O4  1  0.64584000  0.94662700  0.12143700  1
  O  O5  1  0.64584000  0.69921200  0.37856300  1
  O  O6  1  0.69921200  0.64584000  0.87856300  1
  O  O7  1  0.69921200  0.05337300  0.62143700  1
  O  O8  1  0.30078800  0.35416000  0.12143700  1
  O  O9  1  0.30078800  0.94662700  0.37856300  1
  O  O10  1  0.94662700  0.64584000  0.62143700  1
  O  O11  1  0.05337300  0.35416000  0.37856300  1
loop_
_geom_bond_atom_site_label_1
_geom_bond_atom_site_label_2
_geom_bond_distance
_geom_bond_site_symmetry_2
Eu0 O6 2.342240 1_555
Eu0 O3 2.342240 1_555
Eu0 O2 2.342240 1_565
Eu0 O10 2.342240 1_455
Eu0 O7 2.342241 1_565
Eu0 O0 2.342241 1_455
Eu1 O5 2.342240 1_555
Eu1 O8 2.342240 1_555
Eu1 O11 2.342240 1_655
Eu1 O4 2.342240 1_545
Eu1 O1 2.342241 1_655
Eu1 O9 2.342241 1_545
Cr0 O2 2.092025 1_554
Cr0 O4 2.092025 1_445
Cr0 O8 2.092027 1_555
Cr0 O6 2.092027 1_444
Cr0 O0 2.092029 1_454
Cr0 O1 2.092029 1_545
Cr1 O10 2.092025 1_445
Cr1 O11 2.092025 1_555
Cr1 O5 2.092027 1_445
Cr1 O3 2.092027 1_555
Cr1 O9 2.092029 1_545
Cr1 O7 2.092029 1_455
O0 Te0 1.970434 1_555
O1 Te1 1.970434 1_555
O2 Te0 1.970439 1_555
O3 Te0 1.970443 1_555
O4 Te1 1.970439 1_555
O5 Te1 1.970443 1_555
O6 Te0 1.970443 1_555
O7 Te0 1.970434 1_555
O8 Te1 1.970443 1_555
O9 Te1 1.970434 1_555
O10 Te0 1.970439 1_555
O11 Te1 1.970439 1_555
