# generated using pymatgen
data_MgZn4Ag5
_symmetry_space_group_name_H-M   'P 1'
_cell_length_a   3.13657100
_cell_length_b   3.13657100
_cell_length_c   16.98663000
_cell_angle_alpha   90.00000000
_cell_angle_beta   90.00000000
_cell_angle_gamma   90.00000000
_symmetry_Int_Tables_number   1
_chemical_formula_structural   MgZn4Ag5
_chemical_formula_sum   'Mg1 Zn4 Ag5'
_cell_volume   167.11578475
_cell_formula_units_Z   1
loop_
 _symmetry_equiv_pos_site_id
 _symmetry_equiv_pos_as_xyz
  1  'x, y, z'
loop_
 _atom_site_type_symbol
 _atom_site_label
 _atom_site_symmetry_multiplicity
 _atom_site_fract_x
 _atom_site_fract_y
 _atom_site_fract_z
 _atom_site_occupancy
  Mg  Mg0  1  0.50000000  0.50000000  0.10000000  1
  Zn  Zn0  1  0.50000000  0.50000000  0.30503700  1
  Zn  Zn1  1  0.50000000  0.50000000  0.50068500  1
  Zn  Zn2  1  0.50000000  0.50000000  0.69931500  1
  Zn  Zn3  1  0.50000000  0.50000000  0.89496300  1
  Ag  Ag0  1  0.00000000  0.00000000  0.99131300  1
  Ag  Ag1  1  0.00000000  0.00000000  0.20868700  1
  Ag  Ag2  1  0.00000000  0.00000000  0.40274200  1
  Ag  Ag3  1  0.00000000  0.00000000  0.60000000  1
  Ag  Ag4  1  0.00000000  0.00000000  0.79725800  1
loop_
_geom_bond_atom_site_label_1
_geom_bond_atom_site_label_2
_geom_bond_distance
_geom_bond_site_symmetry_2
Ag0 Zn3 2.756393 1_555
Ag0 Zn3 2.756393 1_455
Ag0 Zn3 2.756393 1_445
Ag0 Zn3 2.756393 1_545
Ag0 Mg0 2.885756 1_446
Ag0 Mg0 2.885756 1_456
Ag0 Mg0 2.885756 1_546
Ag0 Mg0 2.885756 1_556
Ag1 Zn0 2.756393 1_445
Ag1 Zn0 2.756393 1_455
Ag1 Zn0 2.756393 1_555
Ag1 Zn0 2.756393 1_545
Ag1 Mg0 2.885756 1_555
Ag1 Mg0 2.885756 1_445
Ag1 Mg0 2.885756 1_545
Ag1 Mg0 2.885756 1_455
Ag2 Zn0 2.770121 1_445
Ag2 Zn0 2.770121 1_455
Ag2 Zn0 2.770121 1_555
Ag2 Zn0 2.770121 1_545
Ag2 Zn1 2.772545 1_555
Ag2 Zn1 2.772545 1_455
Ag2 Zn1 2.772545 1_445
Ag2 Zn1 2.772545 1_545
Ag3 Zn1 2.786593 1_445
Ag3 Zn1 2.786593 1_455
Ag3 Zn1 2.786593 1_555
Ag3 Zn1 2.786593 1_545
Ag3 Zn2 2.786593 1_445
Ag3 Zn2 2.786593 1_455
Ag3 Zn2 2.786593 1_555
Ag3 Zn2 2.786593 1_545
Ag4 Zn3 2.770121 1_455
Ag4 Zn3 2.770121 1_445
Ag4 Zn3 2.770121 1_555
Ag4 Zn3 2.770121 1_545
Ag4 Zn2 2.772545 1_445
Ag4 Zn2 2.772545 1_455
Ag4 Zn2 2.772545 1_555
Ag4 Zn2 2.772545 1_545
