# generated using pymatgen
data_Sr3CaAl8
_symmetry_space_group_name_H-M   'P 1'
_cell_length_a   10.06092366
_cell_length_b   10.06092366
_cell_length_c   10.06092364
_cell_angle_alpha   33.40394089
_cell_angle_beta   33.40394089
_cell_angle_gamma   33.40393471
_symmetry_Int_Tables_number   1
_chemical_formula_structural   Sr3CaAl8
_chemical_formula_sum   'Sr3 Ca1 Al8'
_cell_volume   274.86661345
_cell_formula_units_Z   1
loop_
 _symmetry_equiv_pos_site_id
 _symmetry_equiv_pos_as_xyz
  1  'x, y, z'
loop_
 _atom_site_type_symbol
 _atom_site_label
 _atom_site_symmetry_multiplicity
 _atom_site_fract_x
 _atom_site_fract_y
 _atom_site_fract_z
 _atom_site_occupancy
  Sr  Sr0  1  0.56238811  0.56238811  0.56238811  1
  Sr  Sr1  1  0.43705759  0.43705759  0.43705759  1
  Sr  Sr2  1  0.93792310  0.93792310  0.93792310  1
  Ca  Ca0  1  0.06273177  0.06273177  0.06273177  1
  Al  Al0  1  0.75010310  0.75010310  0.75010310  1
  Al  Al1  1  0.24985724  0.24985724  0.24985724  1
  Al  Al2  1  0.00155380  0.50072105  0.50072105  1
  Al  Al3  1  0.49796872  0.99948623  0.99948623  1
  Al  Al4  1  0.50072105  0.00155380  0.50072105  1
  Al  Al5  1  0.99948623  0.49796872  0.99948623  1
  Al  Al6  1  0.50072105  0.50072105  0.00155380  1
  Al  Al7  1  0.99948623  0.99948623  0.49796872  1
loop_
_geom_bond_atom_site_label_1
_geom_bond_atom_site_label_2
_geom_bond_distance
_geom_bond_site_symmetry_2
Sr0 Sr2 3.548387 1_455
Sr0 Sr2 3.548387 1_545
Sr0 Sr2 3.548388 1_554
Sr0 Sr1 3.568454 1_555
Ca0 Sr1 3.536878 1_545
Ca0 Sr1 3.536878 1_455
Ca0 Sr1 3.536878 1_554
Ca0 Sr2 3.553595 1_444
Al0 Al3 2.877980 1_555
Al0 Al5 2.877980 1_555
Al0 Al7 2.877980 1_555
Al0 Al4 2.881916 1_565
Al0 Al2 2.881916 1_655
Al0 Al6 2.881916 1_556
Al0 Sr1 3.388352 1_655
Al0 Sr1 3.388352 1_565
Al0 Sr1 3.388353 1_556
Al0 Ca0 3.390396 1_566
Al0 Ca0 3.390396 1_656
Al0 Ca0 3.390396 1_665
Al1 Al3 2.918682 1_544
Al1 Al5 2.918682 1_454
Al1 Al7 2.918682 1_445
Al1 Al4 2.926174 1_555
Al1 Al2 2.926174 1_555
Al1 Al6 2.926174 1_555
Al1 Sr0 3.390881 1_545
Al1 Sr0 3.390881 1_455
Al1 Sr0 3.390881 1_554
Al1 Sr2 3.393890 1_454
Al1 Sr2 3.393890 1_544
Al1 Sr2 3.393890 1_445
Al2 Al4 2.886627 1_555
Al2 Al6 2.886628 1_555
Al2 Al4 2.896259 1_465
Al2 Al6 2.896259 1_456
Al2 Sr1 3.366337 1_555
Al2 Ca0 3.383773 1_556
Al2 Ca0 3.383773 1_565
Al2 Sr2 3.403783 1_454
Al2 Sr2 3.403783 1_445
Al2 Sr0 3.432352 1_455
Al3 Al5 2.882668 1_465
Al3 Al7 2.882668 1_456
Al3 Al5 2.900219 1_555
Al3 Al7 2.900219 1_555
Al3 Ca0 3.369900 1_566
Al3 Sr1 3.386584 1_565
Al3 Sr1 3.386584 1_556
Al3 Sr0 3.408786 1_556
Al3 Sr0 3.408786 1_565
Al3 Sr2 3.441727 1_555
Al4 Al6 2.886628 1_555
Al4 Al6 2.896259 1_546
Al4 Sr1 3.366337 1_555
Al4 Ca0 3.383773 1_556
Al4 Ca0 3.383773 1_655
Al4 Sr2 3.403783 1_544
Al4 Sr2 3.403783 1_445
Al4 Sr0 3.432352 1_545
Al5 Al7 2.882668 1_546
Al5 Al7 2.900219 1_555
Al5 Ca0 3.369900 1_656
Al5 Sr1 3.386584 1_655
Al5 Sr1 3.386584 1_556
Al5 Sr0 3.408786 1_556
Al5 Sr0 3.408786 1_655
Al5 Sr2 3.441727 1_555
Al6 Sr1 3.366337 1_555
Al6 Ca0 3.383772 1_565
Al6 Ca0 3.383772 1_655
Al6 Sr2 3.403783 1_454
Al6 Sr2 3.403783 1_544
Al6 Sr0 3.432352 1_554
Al7 Ca0 3.369900 1_665
Al7 Sr1 3.386583 1_655
Al7 Sr1 3.386583 1_565
Al7 Sr0 3.408785 1_655
Al7 Sr0 3.408785 1_565
Al7 Sr2 3.441727 1_555
