# generated using pymatgen
data_ScMn2SbO6
_symmetry_space_group_name_H-M   'P 1'
_cell_length_a   6.30059200
_cell_length_b   6.32753585
_cell_length_c   6.33480538
_cell_angle_alpha   91.09253903
_cell_angle_beta   91.06888045
_cell_angle_gamma   91.15151016
_symmetry_Int_Tables_number   1
_chemical_formula_structural   ScMn2SbO6
_chemical_formula_sum   'Sc2 Mn4 Sb2 O12'
_cell_volume   252.40839677
_cell_formula_units_Z   2
loop_
 _symmetry_equiv_pos_site_id
 _symmetry_equiv_pos_as_xyz
  1  'x, y, z'
loop_
 _atom_site_type_symbol
 _atom_site_label
 _atom_site_symmetry_multiplicity
 _atom_site_fract_x
 _atom_site_fract_y
 _atom_site_fract_z
 _atom_site_occupancy
  Sc  Sc0  1  0.94038700  0.43637100  0.24914900  1
  Sc  Sc1  1  0.25166200  0.94390200  0.43593600  1
  Mn  Mn0  1  0.43868100  0.25164900  0.94771800  1
  Mn  Mn1  1  0.05712500  0.56024100  0.75241800  1
  Mn  Mn2  1  0.74901500  0.05477600  0.56506600  1
  Mn  Mn3  1  0.56054300  0.74952500  0.05011800  1
  Sb  Sb0  1  0.99919200  0.99865600  0.99789300  1
  Sb  Sb1  1  0.49903400  0.49875800  0.49919300  1
  O  O0  1  0.19503400  0.57893600  0.41756400  1
  O  O1  1  0.41958700  0.19610100  0.56528200  1
  O  O2  1  0.58951100  0.43014700  0.20161100  1
  O  O3  1  0.80380700  0.42542400  0.56196300  1
  O  O4  1  0.55826100  0.80357000  0.42718200  1
  O  O5  1  0.42157400  0.56490800  0.79614700  1
  O  O6  1  0.96666100  0.09589600  0.30554400  1
  O  O7  1  0.29881200  0.95776800  0.10088200  1
  O  O8  1  0.08452300  0.30470200  0.96955000  1
  O  O9  1  0.05253500  0.91076400  0.69707100  1
  O  O10  1  0.69967300  0.04043600  0.90942200  1
  O  O11  1  0.91438200  0.69747000  0.05029400  1
loop_
_geom_bond_atom_site_label_1
_geom_bond_atom_site_label_2
_geom_bond_distance
_geom_bond_site_symmetry_2
Mn0 O2 2.143866 1_556
Mn0 O10 2.154040 1_555
Mn0 O5 2.222566 1_555
Mn0 O8 2.269546 1_555
Mn0 O7 2.282710 1_546
Mn0 O1 2.441769 1_555
Mn1 O3 2.136566 1_455
Mn1 O8 2.150212 1_555
Mn1 O9 2.252756 1_555
Mn1 O11 2.270634 1_456
Mn1 O5 2.307288 1_555
Mn1 O0 2.311458 1_555
Mn2 O4 2.136606 1_545
Mn2 O6 2.176476 1_555
Mn2 O10 2.212516 1_555
Mn2 O1 2.276490 1_555
Mn2 O9 2.286083 1_645
Mn2 O3 2.364194 1_555
Mn3 O5 2.134094 1_554
Mn3 O7 2.156389 1_555
Mn3 O10 2.231150 1_564
Mn3 O11 2.260117 1_555
Mn3 O2 2.262848 1_555
Mn3 O4 2.406869 1_555
O0 Sb1 2.050748 1_555
O0 Sc0 2.089840 1_455
O0 Sc1 2.330013 1_555
O1 Sb1 2.023168 1_555
O1 Sc1 2.046292 1_545
O2 Sb1 2.021377 1_555
O2 Sc0 2.225030 1_555
O3 Sb1 2.018701 1_555
O3 Sc0 2.176828 1_555
O4 Sb1 2.019466 1_555
O4 Sc1 2.143427 1_555
O5 Sb1 1.991113 1_555
O6 Sb0 2.047702 1_544
O6 Sc0 2.199502 1_555
O6 Sc1 2.208181 1_645
O7 Sb0 2.009086 1_454
O7 Sc1 2.151870 1_555
O8 Sb0 2.011567 1_445
O8 Sc0 2.165678 1_456
O9 Sb0 2.011154 1_455
O9 Sc1 2.105855 1_555
O10 Sb0 1.982815 1_545
O11 Sb0 2.004365 1_554
O11 Sc0 2.103742 1_555
