# generated using pymatgen
data_Ho3Er3MnBi2
_symmetry_space_group_name_H-M   'P 1'
_cell_length_a   4.24937000
_cell_length_b   8.25192002
_cell_length_c   8.25192102
_cell_angle_alpha   60.00871788
_cell_angle_beta   90.00000000
_cell_angle_gamma   90.00000000
_symmetry_Int_Tables_number   1
_chemical_formula_structural   Ho3Er3MnBi2
_chemical_formula_sum   'Ho3 Er3 Mn1 Bi2'
_cell_volume   250.61288546
_cell_formula_units_Z   1
loop_
 _symmetry_equiv_pos_site_id
 _symmetry_equiv_pos_as_xyz
  1  'x, y, z'
loop_
 _atom_site_type_symbol
 _atom_site_label
 _atom_site_symmetry_multiplicity
 _atom_site_fract_x
 _atom_site_fract_y
 _atom_site_fract_z
 _atom_site_occupancy
  Ho  Ho0  1  0.00000000  0.23299400  0.76700600  1
  Ho  Ho1  1  0.00000000  0.76703900  0.99982500  1
  Ho  Ho2  1  0.00000000  0.00017500  0.23296100  1
  Er  Er0  1  0.50000000  0.60754900  0.39245000  1
  Er  Er1  1  0.50000000  0.39226300  0.00006200  1
  Er  Er2  1  0.50000000  0.99993800  0.60773700  1
  Mn  Mn0  1  0.50000000  0.00005000  0.99995000  1
  Bi  Bi0  1  0.00000000  0.33325600  0.33336400  1
  Bi  Bi1  1  0.00000000  0.66663600  0.66674400  1
loop_
_geom_bond_atom_site_label_1
_geom_bond_atom_site_label_2
_geom_bond_distance
_geom_bond_site_symmetry_2
Ho0 Mn0 2.865353 1_455
Ho0 Mn0 2.865353 1_555
Ho1 Mn0 2.865900 1_565
Ho1 Mn0 2.865900 1_465
Ho2 Mn0 2.865900 1_454
Ho2 Mn0 2.865900 1_554
Er0 Mn0 3.239310 1_564
Er1 Mn0 3.236972 1_554
Er2 Mn0 3.236973 1_565
Bi0 Ho2 3.243091 1_555
Bi0 Ho0 3.244920 1_555
Bi0 Ho1 3.246379 1_554
Bi0 Er1 3.313173 1_455
Bi0 Er1 3.313173 1_555
Bi0 Er0 3.313381 1_555
Bi0 Er0 3.313381 1_455
Bi0 Er2 3.313604 1_445
Bi0 Er2 3.313604 1_545
Bi1 Ho1 3.243091 1_555
Bi1 Ho0 3.244920 1_555
Bi1 Ho2 3.246379 1_565
Bi1 Er2 3.313172 1_455
Bi1 Er2 3.313172 1_555
Bi1 Er0 3.313392 1_555
Bi1 Er0 3.313392 1_455
Bi1 Er1 3.313604 1_456
Bi1 Er1 3.313604 1_556
