# generated using pymatgen
data_Th2Fe14B
_symmetry_space_group_name_H-M   'P 1'
_cell_length_a   8.76263100
_cell_length_b   8.76263100
_cell_length_c   12.06148900
_cell_angle_alpha   90.00000000
_cell_angle_beta   90.00000000
_cell_angle_gamma   90.00000000
_symmetry_Int_Tables_number   1
_chemical_formula_structural   Th2Fe14B
_chemical_formula_sum   'Th8 Fe56 B4'
_cell_volume   926.12577756
_cell_formula_units_Z   4
loop_
 _symmetry_equiv_pos_site_id
 _symmetry_equiv_pos_as_xyz
  1  'x, y, z'
loop_
 _atom_site_type_symbol
 _atom_site_label
 _atom_site_symmetry_multiplicity
 _atom_site_fract_x
 _atom_site_fract_y
 _atom_site_fract_z
 _atom_site_occupancy
  Th  Th0  1  0.22864400  0.77135600  0.50000000  1
  Th  Th1  1  0.77135600  0.22864400  0.50000000  1
  Th  Th2  1  0.27135600  0.27135600  0.00000000  1
  Th  Th3  1  0.72864400  0.72864400  0.00000000  1
  Th  Th4  1  0.64636200  0.64636200  0.50000000  1
  Th  Th5  1  0.35363800  0.35363800  0.50000000  1
  Th  Th6  1  0.85363800  0.14636200  0.00000000  1
  Th  Th7  1  0.14636200  0.85363800  0.00000000  1
  Fe  Fe0  1  0.00000000  0.50000000  0.50000000  1
  Fe  Fe1  1  0.50000000  0.00000000  0.00000000  1
  Fe  Fe2  1  0.50000000  0.00000000  0.50000000  1
  Fe  Fe3  1  0.00000000  0.50000000  0.00000000  1
  Fe  Fe4  1  0.50000000  0.50000000  0.11577200  1
  Fe  Fe5  1  0.00000000  0.00000000  0.61577200  1
  Fe  Fe6  1  0.50000000  0.50000000  0.88422800  1
  Fe  Fe7  1  0.00000000  0.00000000  0.38422800  1
  Fe  Fe8  1  0.18196000  0.81804000  0.25366500  1
  Fe  Fe9  1  0.81804000  0.18196000  0.25366500  1
  Fe  Fe10  1  0.31804000  0.31804000  0.75366500  1
  Fe  Fe11  1  0.68196000  0.68196000  0.75366500  1
  Fe  Fe12  1  0.81804000  0.18196000  0.74633500  1
  Fe  Fe13  1  0.18196000  0.81804000  0.74633500  1
  Fe  Fe14  1  0.68196000  0.68196000  0.24633500  1
  Fe  Fe15  1  0.31804000  0.31804000  0.24633500  1
  Fe  Fe16  1  0.40259500  0.59740500  0.29811900  1
  Fe  Fe17  1  0.59740500  0.40259500  0.29811900  1
  Fe  Fe18  1  0.09740500  0.09740500  0.79811900  1
  Fe  Fe19  1  0.90259500  0.90259500  0.79811900  1
  Fe  Fe20  1  0.59740500  0.40259500  0.70188100  1
  Fe  Fe21  1  0.40259500  0.59740500  0.70188100  1
  Fe  Fe22  1  0.90259500  0.90259500  0.20188100  1
  Fe  Fe23  1  0.09740500  0.09740500  0.20188100  1
  Fe  Fe24  1  0.14025000  0.53752100  0.32478500  1
  Fe  Fe25  1  0.85975000  0.46247900  0.32478500  1
  Fe  Fe26  1  0.35975000  0.03752100  0.82478500  1
  Fe  Fe27  1  0.64025000  0.96247900  0.82478500  1
  Fe  Fe28  1  0.85975000  0.46247900  0.67521500  1
  Fe  Fe29  1  0.14025000  0.53752100  0.67521500  1
  Fe  Fe30  1  0.64025000  0.96247900  0.17521500  1
  Fe  Fe31  1  0.35975000  0.03752100  0.17521500  1
  Fe  Fe32  1  0.53752100  0.14025000  0.32478500  1
  Fe  Fe33  1  0.46247900  0.85975000  0.32478500  1
  Fe  Fe34  1  0.03752100  0.35975000  0.82478500  1
  Fe  Fe35  1  0.96247900  0.64025000  0.82478500  1
  Fe  Fe36  1  0.46247900  0.85975000  0.67521500  1
  Fe  Fe37  1  0.53752100  0.14025000  0.67521500  1
  Fe  Fe38  1  0.96247900  0.64025000  0.17521500  1
  Fe  Fe39  1  0.03752100  0.35975000  0.17521500  1
  Fe  Fe40  1  0.93353300  0.72406600  0.37239800  1
  Fe  Fe41  1  0.06646700  0.27593400  0.37239800  1
  Fe  Fe42  1  0.56646700  0.22406600  0.87239800  1
  Fe  Fe43  1  0.43353300  0.77593400  0.87239800  1
  Fe  Fe44  1  0.06646700  0.27593400  0.62760200  1
  Fe  Fe45  1  0.93353300  0.72406600  0.62760200  1
  Fe  Fe46  1  0.43353300  0.77593400  0.12760200  1
  Fe  Fe47  1  0.56646700  0.22406600  0.12760200  1
  Fe  Fe48  1  0.72406600  0.93353300  0.37239800  1
  Fe  Fe49  1  0.27593400  0.06646700  0.37239800  1
  Fe  Fe50  1  0.22406600  0.56646700  0.87239800  1
  Fe  Fe51  1  0.77593400  0.43353300  0.87239800  1
  Fe  Fe52  1  0.27593400  0.06646700  0.62760200  1
  Fe  Fe53  1  0.72406600  0.93353300  0.62760200  1
  Fe  Fe54  1  0.77593400  0.43353300  0.12760200  1
  Fe  Fe55  1  0.22406600  0.56646700  0.12760200  1
  B  B0  1  0.87730400  0.87730400  0.50000000  1
  B  B1  1  0.12269600  0.12269600  0.50000000  1
  B  B2  1  0.62269600  0.37730400  0.00000000  1
  B  B3  1  0.37730400  0.62269600  0.00000000  1
loop_
_geom_bond_atom_site_label_1
_geom_bond_atom_site_label_2
_geom_bond_distance
_geom_bond_site_symmetry_2
Fe0 Fe25 2.466719 1_455
Fe0 Fe28 2.466719 1_455
Fe0 Fe29 2.466719 1_555
Fe0 Fe24 2.466719 1_555
Fe0 Fe44 2.561821 1_555
Fe0 Fe41 2.561821 1_555
Fe0 Fe40 2.561821 1_455
Fe0 Fe45 2.561821 1_455
Fe0 Th1 3.109341 1_455
Fe0 Th0 3.109341 1_555
Fe0 Th4 3.353715 1_455
Fe0 Th5 3.353715 1_555
Fe1 Fe27 2.466719 1_544
Fe1 Fe30 2.466719 1_545
Fe1 Fe26 2.466719 1_554
Fe1 Fe31 2.466719 1_555
Fe1 Fe43 2.561821 1_544
Fe1 Fe46 2.561821 1_545
Fe1 Fe42 2.561821 1_554
Fe1 Fe47 2.561821 1_555
Fe1 Th2 3.109341 1_555
Fe1 Th3 3.109341 1_545
Fe1 Th6 3.353715 1_555
Fe1 Th7 3.353715 1_545
Fe2 Fe33 2.466719 1_545
Fe2 Fe36 2.466719 1_545
Fe2 Fe37 2.466719 1_555
Fe2 Fe32 2.466719 1_555
Fe2 Fe52 2.561821 1_555
Fe2 Fe49 2.561821 1_555
Fe2 Fe53 2.561821 1_545
Fe2 Fe48 2.561821 1_545
Fe2 Th1 3.109341 1_555
Fe2 Th0 3.109341 1_545
Fe2 Th4 3.353715 1_545
Fe2 Th5 3.353715 1_555
Fe3 Fe39 2.466719 1_555
Fe3 Fe34 2.466719 1_554
Fe3 Fe38 2.466719 1_455
Fe3 Fe35 2.466719 1_454
Fe3 Fe54 2.561821 1_455
Fe3 Fe51 2.561821 1_454
Fe3 Fe55 2.561821 1_555
Fe3 Fe50 2.561821 1_554
Fe3 Th3 3.109341 1_455
Fe3 Th2 3.109341 1_555
Fe3 Th7 3.353715 1_555
Fe3 Th6 3.353715 1_455
Fe4 Th3 3.158812 1_555
Fe4 Th2 3.158812 1_555
Fe5 Th0 3.158812 1_545
Fe5 Th1 3.158812 1_455
Fe6 Th3 3.158812 1_556
Fe6 Th2 3.158812 1_556
Fe7 Fe8 2.750359 1_545
Fe7 Fe9 2.750359 1_455
Fe7 Th0 3.158812 1_545
Fe7 Th1 3.158812 1_455
Fe8 Th0 3.026965 1_555
Fe8 Th7 3.091216 1_555
Fe9 Th1 3.026965 1_555
Fe9 Th6 3.091216 1_555
Fe10 Fe26 2.628993 1_555
Fe10 Fe34 2.628993 1_555
Fe10 Fe21 2.632803 1_555
Fe10 Fe20 2.632803 1_555
Fe10 Fe29 2.649761 1_555
Fe10 Fe37 2.649761 1_555
Fe10 Fe44 2.703264 1_555
Fe10 Fe52 2.703264 1_555
Fe10 Fe50 2.732722 1_555
Fe10 Fe42 2.732722 1_555
Fe10 Fe6 2.750359 1_555
Fe10 Fe18 2.786238 1_555
Fe10 Th2 3.026965 1_556
Fe10 Th5 3.091216 1_555
Fe11 Fe27 2.628993 1_555
Fe11 Fe35 2.628993 1_555
Fe11 Fe20 2.632803 1_555
Fe11 Fe21 2.632803 1_555
Fe11 Fe36 2.649761 1_555
Fe11 Fe28 2.649761 1_555
Fe11 Fe45 2.703264 1_555
Fe11 Fe53 2.703264 1_555
Fe11 Fe43 2.732722 1_555
Fe11 Fe51 2.732722 1_555
Fe11 Fe6 2.750359 1_555
Fe11 Fe19 2.786238 1_555
Fe11 Th3 3.026965 1_556
Fe11 Th4 3.091216 1_555
Fe12 Fe37 2.628993 1_555
Fe12 Fe28 2.628993 1_555
Fe12 Fe18 2.632803 1_655
Fe12 Fe19 2.632803 1_545
Fe12 Fe34 2.649761 1_655
Fe12 Fe27 2.649761 1_545
Fe12 Fe42 2.703264 1_555
Fe12 Fe51 2.703264 1_555
Fe12 Fe44 2.732722 1_655
Fe12 Fe53 2.732722 1_545
Fe12 Fe5 2.750359 1_655
Fe12 Fe20 2.786238 1_555
Fe12 Th1 3.026965 1_555
Fe12 Th6 3.091216 1_556
Fe13 Fe29 2.628993 1_555
Fe13 Fe36 2.628993 1_555
Fe13 Fe18 2.632803 1_565
Fe13 Fe19 2.632803 1_455
Fe13 Fe26 2.649761 1_565
Fe13 Fe35 2.649761 1_455
Fe13 Fe50 2.703264 1_555
Fe13 Fe43 2.703264 1_555
Fe13 Fe45 2.732722 1_455
Fe13 Fe52 2.732722 1_565
Fe13 Fe5 2.750359 1_565
Fe13 Fe21 2.786238 1_555
Fe13 Th0 3.026965 1_555
Fe13 Th7 3.091216 1_556
Fe14 Fe38 2.628993 1_555
Fe14 Fe30 2.628993 1_555
Fe14 Fe17 2.632803 1_555
Fe14 Fe16 2.632803 1_555
Fe14 Fe33 2.649761 1_555
Fe14 Fe25 2.649761 1_555
Fe14 Fe40 2.703264 1_555
Fe14 Fe48 2.703264 1_555
Fe14 Fe54 2.732722 1_555
Fe14 Fe46 2.732722 1_555
Fe14 Fe4 2.750359 1_555
Fe14 Fe22 2.786238 1_555
Fe14 Th3 3.026965 1_555
Fe14 Th4 3.091216 1_555
Fe15 Fe39 2.628993 1_555
Fe15 Fe31 2.628993 1_555
Fe15 Fe17 2.632803 1_555
Fe15 Fe16 2.632803 1_555
Fe15 Fe32 2.649761 1_555
Fe15 Fe24 2.649761 1_555
Fe15 Fe41 2.703264 1_555
Fe15 Fe49 2.703264 1_555
Fe15 Fe47 2.732722 1_555
Fe15 Fe55 2.732722 1_555
Fe15 Fe4 2.750359 1_555
Fe15 Fe23 2.786238 1_555
Fe15 Th2 3.026965 1_555
Fe15 Th5 3.091216 1_555
Fe16 Fe24 2.379796 1_555
Fe16 Fe33 2.379796 1_555
Fe16 Fe17 2.414131 1_555
Fe16 Fe4 2.508837 1_555
Fe16 Fe55 2.598222 1_555
Fe16 Fe46 2.598222 1_555
Fe16 Fe8 2.786238 1_555
Fe16 Th0 3.252067 1_555
Fe16 Th5 3.267393 1_555
Fe16 Th4 3.267393 1_555
Fe17 Fe32 2.379796 1_555
Fe17 Fe25 2.379796 1_555
Fe17 Fe4 2.508837 1_555
Fe17 Fe54 2.598222 1_555
Fe17 Fe47 2.598222 1_555
Fe17 Fe9 2.786238 1_555
Fe17 Th1 3.252067 1_555
Fe17 Th5 3.267393 1_555
Fe17 Th4 3.267393 1_555
Fe18 Fe34 2.379796 1_555
Fe18 Fe26 2.379796 1_555
Fe18 Fe19 2.414131 1_445
Fe18 Fe5 2.508837 1_555
Fe18 Fe52 2.598222 1_555
Fe18 Fe44 2.598222 1_555
Fe18 Th2 3.252067 1_556
Fe18 Th6 3.267393 1_456
Fe18 Th7 3.267393 1_546
Fe19 Fe27 2.379796 1_555
Fe19 Fe35 2.379796 1_555
Fe19 Fe5 2.508837 1_665
Fe19 Fe45 2.598222 1_555
Fe19 Fe53 2.598222 1_555
Fe19 Th3 3.252067 1_556
Fe19 Th7 3.267393 1_656
Fe19 Th6 3.267393 1_566
Fe20 Fe37 2.379796 1_555
Fe20 Fe28 2.379796 1_555
Fe20 Fe21 2.414131 1_555
Fe20 Fe6 2.508837 1_555
Fe20 Fe51 2.598222 1_555
Fe20 Fe42 2.598222 1_555
Fe20 Th1 3.252067 1_555
Fe20 Th5 3.267393 1_555
Fe20 Th4 3.267393 1_555
Fe21 Fe29 2.379796 1_555
Fe21 Fe36 2.379796 1_555
Fe21 Fe6 2.508837 1_555
Fe21 Fe43 2.598222 1_555
Fe21 Fe50 2.598222 1_555
Fe21 Th0 3.252067 1_555
Fe21 Th5 3.267393 1_555
Fe21 Th4 3.267393 1_555
Fe22 Fe30 2.379796 1_555
Fe22 Fe38 2.379796 1_555
Fe22 Fe23 2.414131 1_665
Fe22 Fe7 2.508837 1_665
Fe22 Fe40 2.598222 1_555
Fe22 Fe48 2.598222 1_555
Fe22 Fe9 2.632803 1_565
Fe22 Fe8 2.632803 1_655
Fe22 Th3 3.252067 1_555
Fe22 Th7 3.267393 1_655
Fe22 Th6 3.267393 1_565
Fe23 Fe39 2.379796 1_555
Fe23 Fe31 2.379796 1_555
Fe23 Fe7 2.508837 1_555
Fe23 Fe41 2.598222 1_555
Fe23 Fe49 2.598222 1_555
Fe23 Fe9 2.632803 1_455
Fe23 Fe8 2.632803 1_545
Fe23 Th2 3.252067 1_555
Fe23 Th7 3.267393 1_545
Fe23 Th6 3.267393 1_455
Fe24 Fe41 2.449886 1_555
Fe24 Fe55 2.502031 1_555
Fe24 Fe40 2.506574 1_455
Fe24 Fe25 2.544357 1_455
Fe24 Fe39 2.547828 1_555
Fe24 Fe38 2.547828 1_455
Fe24 Fe8 2.628993 1_555
Fe24 Th0 3.043790 1_555
Fe24 Th5 3.249439 1_555
Fe25 Fe40 2.449886 1_555
Fe25 Fe54 2.502031 1_555
Fe25 Fe41 2.506574 1_655
Fe25 Fe39 2.547828 1_655
Fe25 Fe38 2.547828 1_555
Fe25 Fe9 2.628993 1_555
Fe25 Th1 3.043790 1_555
Fe25 Th4 3.249439 1_555
Fe26 Fe43 2.449886 1_545
Fe26 Fe52 2.502031 1_555
Fe26 Fe42 2.506574 1_555
Fe26 Fe27 2.544357 1_545
Fe26 Fe36 2.547828 1_545
Fe26 Fe37 2.547828 1_555
Fe26 Th2 3.043790 1_556
Fe26 Th7 3.249439 1_546
Fe27 Fe42 2.449886 1_565
Fe27 Fe53 2.502031 1_555
Fe27 Fe43 2.506574 1_555
Fe27 Fe36 2.547828 1_555
Fe27 Fe37 2.547828 1_565
Fe27 Th3 3.043790 1_556
Fe27 Th6 3.249439 1_566
Fe28 Fe45 2.449886 1_555
Fe28 Fe51 2.502031 1_555
Fe28 Fe44 2.506574 1_655
Fe28 Fe29 2.544357 1_655
Fe28 Fe34 2.547828 1_655
Fe28 Fe35 2.547828 1_555
Fe28 Th1 3.043790 1_555
Fe28 Th4 3.249439 1_555
Fe29 Fe44 2.449886 1_555
Fe29 Fe50 2.502031 1_555
Fe29 Fe45 2.506574 1_455
Fe29 Fe34 2.547828 1_555
Fe29 Fe35 2.547828 1_455
Fe29 Th0 3.043790 1_555
Fe29 Th5 3.249439 1_555
Fe30 Fe47 2.449886 1_565
Fe30 Fe48 2.502031 1_555
Fe30 Fe46 2.506574 1_555
Fe30 Fe31 2.544357 1_565
Fe30 Fe33 2.547828 1_555
Fe30 Fe32 2.547828 1_565
Fe30 Fe9 2.649761 1_565
Fe30 Th3 3.043790 1_555
Fe30 Th6 3.249439 1_565
Fe31 Fe46 2.449886 1_545
Fe31 Fe49 2.502031 1_555
Fe31 Fe47 2.506574 1_555
Fe31 Fe33 2.547828 1_545
Fe31 Fe32 2.547828 1_555
Fe31 Fe8 2.649761 1_545
Fe31 Th2 3.043790 1_555
Fe31 Th7 3.249439 1_545
Fe32 Fe49 2.449886 1_555
Fe32 Fe47 2.502031 1_555
Fe32 Fe48 2.506574 1_545
Fe32 Fe33 2.544357 1_545
Fe32 Fe9 2.628993 1_555
Fe32 Th1 3.043790 1_555
Fe32 Th5 3.249439 1_555
Fe33 Fe48 2.449886 1_555
Fe33 Fe46 2.502031 1_555
Fe33 Fe49 2.506574 1_565
Fe33 Fe8 2.628993 1_555
Fe33 Th0 3.043790 1_555
Fe33 Th4 3.249439 1_555
Fe34 Fe51 2.449886 1_455
Fe34 Fe44 2.502031 1_555
Fe34 Fe50 2.506574 1_555
Fe34 Fe35 2.544357 1_455
Fe34 Th2 3.043790 1_556
Fe34 Th6 3.249439 1_456
Fe35 Fe50 2.449886 1_655
Fe35 Fe45 2.502031 1_555
Fe35 Fe51 2.506574 1_555
Fe35 Th3 3.043790 1_556
Fe35 Th7 3.249439 1_656
Fe36 Fe53 2.449886 1_555
Fe36 Fe43 2.502031 1_555
Fe36 Fe52 2.506574 1_565
Fe36 Fe37 2.544357 1_565
Fe36 Th0 3.043790 1_555
Fe36 Th4 3.249439 1_555
Fe37 Fe52 2.449886 1_555
Fe37 Fe42 2.502031 1_555
Fe37 Fe53 2.506574 1_545
Fe37 Th1 3.043790 1_555
Fe37 Th5 3.249439 1_555
Fe38 Fe55 2.449886 1_655
Fe38 Fe40 2.502031 1_555
Fe38 Fe54 2.506574 1_555
Fe38 Fe39 2.544357 1_655
Fe38 Fe8 2.649761 1_655
Fe38 Th3 3.043790 1_555
Fe38 Th7 3.249439 1_655
Fe39 Fe54 2.449886 1_455
Fe39 Fe41 2.502031 1_555
Fe39 Fe55 2.506574 1_555
Fe39 Fe9 2.649761 1_455
Fe39 Th2 3.043790 1_555
Fe39 Th6 3.249439 1_455
Fe40 Fe8 2.732722 1_655
Fe40 Th4 3.027290 1_555
Fe40 Th0 3.037694 1_655
Fe41 Fe9 2.732722 1_455
Fe41 Th5 3.027290 1_555
Fe41 Th1 3.037694 1_455
Fe42 Th6 3.027290 1_556
Fe42 Th2 3.037694 1_556
Fe43 Th7 3.027290 1_556
Fe43 Th3 3.037694 1_556
Fe44 Th5 3.027290 1_555
Fe44 Th1 3.037694 1_455
Fe45 Th4 3.027290 1_555
Fe45 Th0 3.037694 1_655
Fe46 Fe8 2.703264 1_555
Fe46 Th7 3.027290 1_555
Fe46 Th3 3.037694 1_555
Fe47 Fe9 2.703264 1_555
Fe47 Th6 3.027290 1_555
Fe47 Th2 3.037694 1_555
Fe48 Fe9 2.732722 1_565
Fe48 Th4 3.027290 1_555
Fe48 Th1 3.037694 1_565
Fe49 Fe8 2.732722 1_545
Fe49 Th5 3.027290 1_555
Fe49 Th0 3.037694 1_545
Fe50 Th7 3.027290 1_556
Fe50 Th2 3.037694 1_556
Fe51 Th6 3.027290 1_556
Fe51 Th3 3.037694 1_556
Fe52 Th5 3.027290 1_555
Fe52 Th0 3.037694 1_545
Fe53 Th4 3.027290 1_555
Fe53 Th1 3.037694 1_565
Fe54 Fe9 2.703264 1_555
Fe54 Th6 3.027290 1_555
Fe54 Th3 3.037694 1_555
Fe55 Fe8 2.703264 1_555
Fe55 Th7 3.027290 1_555
Fe55 Th2 3.037694 1_555
B0 Fe7 2.064397 1_665
B0 Fe5 2.064397 1_665
B0 Fe53 2.101078 1_555
B0 Fe48 2.101078 1_555
B0 Fe45 2.101078 1_555
B0 Fe40 2.101078 1_555
B0 Th4 2.861887 1_555
B0 Th1 3.215596 1_565
B0 Th0 3.215596 1_655
B1 Fe7 2.064397 1_555
B1 Fe5 2.064397 1_555
B1 Fe49 2.101078 1_555
B1 Fe52 2.101078 1_555
B1 Fe44 2.101078 1_555
B1 Fe41 2.101078 1_555
B1 Th5 2.861887 1_555
B1 Th1 3.215596 1_455
B1 Th0 3.215596 1_545
B2 Fe6 2.064397 1_554
B2 Fe4 2.064397 1_555
B2 Fe47 2.101078 1_555
B2 Fe42 2.101078 1_554
B2 Fe54 2.101078 1_555
B2 Fe51 2.101078 1_554
B2 Th6 2.861887 1_555
B2 Th3 3.215596 1_555
B2 Th2 3.215596 1_555
B3 Fe6 2.064397 1_554
B3 Fe4 2.064397 1_555
B3 Fe50 2.101078 1_554
B3 Fe55 2.101078 1_555
B3 Fe46 2.101078 1_555
B3 Fe43 2.101078 1_554
B3 Th7 2.861887 1_555
B3 Th3 3.215596 1_555
B3 Th2 3.215596 1_555
