# generated using pymatgen
data_Sc3Ga5
_symmetry_space_group_name_H-M   'P 1'
_cell_length_a   5.72309481
_cell_length_b   9.20669413
_cell_length_c   10.97986341
_cell_angle_alpha   90.00000000
_cell_angle_beta   89.99955650
_cell_angle_gamma   90.00000000
_symmetry_Int_Tables_number   1
_chemical_formula_structural   Sc3Ga5
_chemical_formula_sum   'Sc12 Ga20'
_cell_volume   578.53760461
_cell_formula_units_Z   4
loop_
 _symmetry_equiv_pos_site_id
 _symmetry_equiv_pos_as_xyz
  1  'x, y, z'
loop_
 _atom_site_type_symbol
 _atom_site_label
 _atom_site_symmetry_multiplicity
 _atom_site_fract_x
 _atom_site_fract_y
 _atom_site_fract_z
 _atom_site_occupancy
  Sc  Sc0  1  0.65119368  0.75000000  0.43129677  1
  Sc  Sc1  1  0.84881456  0.75000000  0.93129222  1
  Sc  Sc2  1  0.34880732  0.25000000  0.56870323  1
  Sc  Sc3  1  0.15118544  0.25000000  0.06870678  1
  Sc  Sc4  1  0.60830564  0.99454891  0.14652512  1
  Sc  Sc5  1  0.89166454  0.50545421  0.64650498  1
  Sc  Sc6  1  0.39169236  0.49454891  0.85347488  1
  Sc  Sc7  1  0.10833446  0.00545421  0.35349302  1
  Sc  Sc8  1  0.39169236  0.00545109  0.85347488  1
  Sc  Sc9  1  0.10833446  0.49454579  0.35349302  1
  Sc  Sc10  1  0.60830564  0.50545109  0.14652512  1
  Sc  Sc11  1  0.89166454  0.99454579  0.64650598  1
  Ga  Ga0  1  0.62305435  0.44937252  0.40600437  1
  Ga  Ga1  1  0.87695292  0.05062320  0.90600243  1
  Ga  Ga2  1  0.37694665  0.94937152  0.59399863  1
  Ga  Ga3  1  0.12304508  0.55062420  0.09399357  1
  Ga  Ga4  1  0.37694765  0.55062848  0.59399863  1
  Ga  Ga5  1  0.12304508  0.94937580  0.09399457  1
  Ga  Ga6  1  0.62305435  0.05062848  0.40600537  1
  Ga  Ga7  1  0.87695292  0.44937680  0.90600243  1
  Ga  Ga8  1  0.33854049  0.75000000  0.24938299  1
  Ga  Ga9  1  0.16144878  0.75000000  0.74937549  1
  Ga  Ga10  1  0.66145851  0.25000000  0.75061701  1
  Ga  Ga11  1  0.83855022  0.25000000  0.25062451  1
  Ga  Ga12  1  0.11883154  0.75000000  0.49498930  1
  Ga  Ga13  1  0.38123046  0.75000000  0.99499451  1
  Ga  Ga14  1  0.88117046  0.25000000  0.50501270  1
  Ga  Ga15  1  0.61876954  0.25000000  0.00500249  1
  Ga  Ga16  1  0.87886357  0.75000000  0.20524342  1
  Ga  Ga17  1  0.62110656  0.75000000  0.70527303  1
  Ga  Ga18  1  0.12113643  0.25000000  0.79475358  1
  Ga  Ga19  1  0.37889544  0.25000000  0.29472997  1
loop_
_geom_bond_atom_site_label_1
_geom_bond_atom_site_label_2
_geom_bond_distance
_geom_bond_site_symmetry_2
Ga0 Ga14 2.594857 1_555
Ga0 Ga19 2.610484 1_555
Ga0 Ga4 2.667130 1_555
Ga0 Sc0 2.786340 1_555
Ga0 Ga11 2.793009 1_555
Ga0 Sc9 2.866844 1_655
Ga0 Sc10 2.896681 1_555
Ga0 Sc2 3.003992 1_555
Ga0 Sc9 3.030365 1_555
Ga0 Sc5 3.098870 1_555
Ga1 Ga15 2.595056 1_556
Ga1 Ga18 2.610446 1_655
Ga1 Ga5 2.667057 1_646
Ga1 Sc1 2.786298 1_545
Ga1 Ga10 2.793080 1_555
Ga1 Sc8 2.866778 1_555
Ga1 Sc11 2.896857 1_545
Ga1 Sc3 3.004023 1_656
Ga1 Sc8 3.030497 1_655
Ga1 Sc4 3.099150 1_546
Ga2 Ga6 2.667128 1_565
Ga2 Sc2 2.786353 1_565
Ga2 Ga9 2.792987 1_555
Ga2 Sc11 2.866847 1_455
Ga2 Sc8 2.896650 1_565
Ga2 Sc0 3.004006 1_555
Ga2 Sc11 3.030346 1_555
Ga2 Sc7 3.098924 1_565
Ga3 Ga7 2.667049 1_454
Ga3 Sc3 2.786304 1_555
Ga3 Ga8 2.793103 1_555
Ga3 Sc10 2.866788 1_555
Ga3 Sc9 2.896891 1_555
Ga3 Sc1 3.003992 1_454
Ga3 Sc10 3.030507 1_455
Ga3 Sc6 3.099115 1_554
Ga4 Sc2 2.786353 1_555
Ga4 Ga9 2.792990 1_555
Ga4 Sc5 2.866851 1_455
Ga4 Sc6 2.896649 1_555
Ga4 Sc0 3.004003 1_555
Ga4 Sc5 3.030339 1_555
Ga4 Sc9 3.098927 1_555
Ga5 Sc3 2.786305 1_565
Ga5 Ga8 2.793096 1_555
Ga5 Sc4 2.866786 1_555
Ga5 Sc7 2.896880 1_565
Ga5 Sc1 3.003999 1_454
Ga5 Sc4 3.030505 1_455
Ga5 Sc8 3.099124 1_564
Ga6 Sc0 2.786348 1_545
Ga6 Sc7 2.866847 1_655
Ga6 Sc4 2.896693 1_545
Ga6 Sc2 3.003980 1_555
Ga6 Sc7 3.030368 1_555
Ga6 Sc11 3.098872 1_545
Ga7 Sc1 2.786298 1_555
Ga7 Sc6 2.866778 1_555
Ga7 Sc5 2.896868 1_555
Ga7 Sc3 3.004023 1_656
Ga7 Sc6 3.030497 1_655
Ga7 Sc10 3.099150 1_556
Ga8 Sc0 2.681672 1_555
Ga8 Sc7 2.928114 1_565
Ga8 Sc9 2.928114 1_555
Ga8 Sc10 2.954358 1_555
Ga8 Sc4 2.954358 1_555
Ga9 Sc1 2.681604 1_455
Ga9 Sc6 2.928150 1_555
Ga9 Sc8 2.928150 1_565
Ga9 Sc11 2.954452 1_455
Ga9 Sc5 2.954456 1_455
Ga10 Ga18 2.675047 1_655
Ga10 Sc2 2.681665 1_555
Ga10 Ga7 2.793080 1_555
Ga10 Ga15 2.803781 1_556
Ga10 Sc11 2.928118 1_545
Ga10 Sc5 2.928122 1_555
Ga10 Sc8 2.954361 1_555
Ga10 Sc6 2.954361 1_555
Ga10 Ga14 2.975447 1_555
Ga11 Ga19 2.674847 1_555
Ga11 Sc3 2.681616 1_655
Ga11 Ga6 2.793009 1_555
Ga11 Ga14 2.803780 1_555
Ga11 Sc10 2.928152 1_555
Ga11 Sc4 2.928152 1_545
Ga11 Sc9 2.954447 1_655
Ga11 Sc7 2.954447 1_655
Ga11 Ga15 2.975807 1_555
Ga12 Ga2 2.594852 1_555
Ga12 Ga4 2.594855 1_555
Ga12 Sc0 2.766202 1_455
Ga12 Ga9 2.803756 1_555
Ga12 Sc7 2.819343 1_565
Ga12 Sc9 2.819343 1_555
Ga12 Ga8 2.975460 1_555
Ga12 Sc5 3.086571 1_455
Ga12 Sc11 3.086577 1_455
Ga12 Sc0 3.125984 1_555
Ga13 Ga3 2.595052 1_556
Ga13 Ga5 2.595056 1_556
Ga13 Sc1 2.765921 1_555
Ga13 Ga8 2.803814 1_556
Ga13 Sc6 2.819456 1_555
Ga13 Sc8 2.819456 1_565
Ga13 Ga9 2.975780 1_555
Ga13 Sc4 3.086470 1_556
Ga13 Sc10 3.086470 1_556
Ga13 Sc1 3.126319 1_455
Ga14 Ga6 2.594846 1_555
Ga14 Sc2 2.766191 1_655
Ga14 Sc5 2.819318 1_555
Ga14 Sc11 2.819324 1_545
Ga14 Sc9 3.086588 1_655
Ga14 Sc7 3.086588 1_655
Ga14 Sc2 3.125985 1_555
Ga15 Ga7 2.595056 1_554
Ga15 Sc3 2.765926 1_555
Ga15 Sc10 2.819474 1_555
Ga15 Sc4 2.819474 1_545
Ga15 Sc8 3.086457 1_554
Ga15 Sc6 3.086457 1_554
Ga15 Sc3 3.126324 1_655
Ga16 Ga5 2.610433 1_655
Ga16 Ga3 2.610438 1_655
Ga16 Ga8 2.675047 1_655
Ga16 Sc0 2.803247 1_555
Ga16 Sc10 2.807580 1_555
Ga16 Sc4 2.807580 1_555
Ga16 Sc1 3.012860 1_554
Ga16 Sc7 3.147337 1_665
Ga16 Sc9 3.147337 1_655
Ga17 Ga4 2.610477 1_555
Ga17 Ga2 2.610481 1_555
Ga17 Ga9 2.674858 1_555
Ga17 Sc1 2.803034 1_555
Ga17 Sc11 2.807674 1_555
Ga17 Sc5 2.807677 1_555
Ga17 Sc0 3.013145 1_555
Ga17 Sc6 3.146899 1_555
Ga17 Sc8 3.146899 1_565
Ga18 Ga7 2.610446 1_455
Ga18 Sc2 2.803221 1_555
Ga18 Sc6 2.807581 1_555
Ga18 Sc8 2.807581 1_555
Ga18 Sc3 3.012882 1_556
Ga18 Sc11 3.147328 1_445
Ga18 Sc5 3.147334 1_455
Ga19 Ga6 2.610483 1_555
Ga19 Sc3 2.803079 1_555
Ga19 Sc9 2.807674 1_555
Ga19 Sc7 2.807674 1_555
Ga19 Sc2 3.013112 1_555
Ga19 Sc4 3.146906 1_545
Ga19 Sc10 3.146906 1_555
