# generated using pymatgen
data_CaFe2BiO6
_symmetry_space_group_name_H-M   'P 1'
_cell_length_a   5.43494325
_cell_length_b   5.43494325
_cell_length_c   5.43494325
_cell_angle_alpha   119.69353038
_cell_angle_beta   119.69353038
_cell_angle_gamma   90.53164569
_symmetry_Int_Tables_number   1
_chemical_formula_structural   CaFe2BiO6
_chemical_formula_sum   'Ca1 Fe2 Bi1 O6'
_cell_volume   114.03992685
_cell_formula_units_Z   1
loop_
 _symmetry_equiv_pos_site_id
 _symmetry_equiv_pos_as_xyz
  1  'x, y, z'
loop_
 _atom_site_type_symbol
 _atom_site_label
 _atom_site_symmetry_multiplicity
 _atom_site_fract_x
 _atom_site_fract_y
 _atom_site_fract_z
 _atom_site_occupancy
  Ca  Ca0  1  0.98754000  0.98754000  0.00000000  1
  Fe  Fe0  1  0.25082900  0.75082900  0.50000000  1
  Fe  Fe1  1  0.75082900  0.25082900  0.50000000  1
  Bi  Bi0  1  0.45798000  0.45798000  0.00000000  1
  O  O0  1  0.50965300  0.02782500  0.00000000  1
  O  O1  1  0.02782500  0.50965300  0.00000000  1
  O  O2  1  0.02782500  0.02782500  0.51817200  1
  O  O3  1  0.50965300  0.50965300  0.48182800  1
  O  O4  1  0.00738300  0.50738300  0.50000000  1
  O  O5  1  0.50738300  0.00738300  0.50000000  1
loop_
_geom_bond_atom_site_label_1
_geom_bond_atom_site_label_2
_geom_bond_distance
_geom_bond_site_symmetry_2
Ca0 O3 2.608524 1_554
Ca0 O2 2.608524 1_665
Ca0 O0 2.608524 1_565
Ca0 O1 2.608524 1_655
Ca0 O5 2.734267 1_665
Ca0 O4 2.734267 1_654
Ca0 O4 2.734267 1_665
Ca0 O5 2.734267 1_564
Ca0 O2 2.844062 1_664
Ca0 O3 2.844062 1_665
Ca0 O0 2.844062 1_665
Ca0 O1 2.844062 1_665
Fe0 O4 1.862466 1_555
Fe0 O2 1.936565 1_565
Fe0 O0 1.936565 1_566
Fe0 O1 1.936565 1_555
Fe0 O3 1.936565 1_555
Fe0 O5 1.962748 1_565
Fe1 O5 1.862466 1_555
Fe1 O2 1.936565 1_655
Fe1 O1 1.936565 1_656
Fe1 O0 1.936565 1_555
Fe1 O3 1.936565 1_555
Fe1 O4 1.962748 1_655
Bi0 O3 2.357262 1_555
Bi0 O2 2.357262 1_554
Bi0 O0 2.357262 1_555
Bi0 O1 2.357262 1_555
Bi0 O5 2.756088 1_565
Bi0 O4 2.756088 1_554
Bi0 O5 2.756088 1_554
Bi0 O4 2.756088 1_655
