# generated using pymatgen
data_Cs3Sn4Au
_symmetry_space_group_name_H-M   'P 1'
_cell_length_a   6.74943400
_cell_length_b   7.55143400
_cell_length_c   15.55288500
_cell_angle_alpha   90.00000000
_cell_angle_beta   90.00000000
_cell_angle_gamma   90.00000000
_symmetry_Int_Tables_number   1
_chemical_formula_structural   Cs3Sn4Au
_chemical_formula_sum   'Cs6 Sn8 Au2'
_cell_volume   792.69797120
_cell_formula_units_Z   2
loop_
 _symmetry_equiv_pos_site_id
 _symmetry_equiv_pos_as_xyz
  1  'x, y, z'
loop_
 _atom_site_type_symbol
 _atom_site_label
 _atom_site_symmetry_multiplicity
 _atom_site_fract_x
 _atom_site_fract_y
 _atom_site_fract_z
 _atom_site_occupancy
  Cs  Cs0  1  0.07474900  0.50000000  0.69448600  1
  Cs  Cs1  1  0.92525100  0.00000000  0.19448600  1
  Cs  Cs2  1  0.92525100  0.00000000  0.80551400  1
  Cs  Cs3  1  0.48519100  0.50000000  0.50000000  1
  Cs  Cs4  1  0.51480900  0.00000000  0.00000000  1
  Cs  Cs5  1  0.07474900  0.50000000  0.30551400  1
  Sn  Sn0  1  0.93484700  0.20349700  0.50000000  1
  Sn  Sn1  1  0.36868400  0.50000000  0.10046900  1
  Sn  Sn2  1  0.93484700  0.79650300  0.50000000  1
  Sn  Sn3  1  0.63131600  0.00000000  0.60046900  1
  Sn  Sn4  1  0.63131600  0.00000000  0.39953100  1
  Sn  Sn5  1  0.06515300  0.29650300  0.00000000  1
  Sn  Sn6  1  0.06515300  0.70349700  0.00000000  1
  Sn  Sn7  1  0.36868400  0.50000000  0.89953100  1
  Au  Au0  1  0.71522800  0.50000000  0.00000000  1
  Au  Au1  1  0.28477200  0.00000000  0.50000000  1
loop_
_geom_bond_atom_site_label_1
_geom_bond_atom_site_label_2
_geom_bond_distance
_geom_bond_site_symmetry_2
Cs0 Sn7 3.755772 1_555
Cs0 Sn2 3.879997 1_455
Cs0 Sn0 3.879997 1_455
Cs0 Cs3 4.101685 1_555
Cs0 Cs2 4.272708 1_465
Cs0 Cs2 4.272708 1_455
Cs0 Cs3 4.998342 1_455
Cs1 Sn4 3.755772 1_555
Cs1 Sn5 3.879997 1_655
Cs1 Sn6 3.879997 1_645
Cs1 Cs4 4.101685 1_555
Cs1 Cs5 4.272708 1_645
Cs1 Cs5 4.272708 1_655
Cs1 Cs4 4.998342 1_655
Cs2 Sn3 3.755772 1_555
Cs2 Sn5 3.879997 1_656
Cs2 Sn6 3.879997 1_646
Cs2 Cs4 4.101685 1_556
Cs2 Cs4 4.998342 1_656
Cs3 Sn2 3.771470 1_555
Cs3 Sn0 3.771470 1_555
Cs3 Cs5 4.101685 1_555
Cs3 Sn3 4.203619 1_565
Cs3 Sn3 4.203619 1_555
Cs3 Sn4 4.203619 1_555
Cs3 Sn4 4.203619 1_565
Cs3 Sn2 4.337143 1_455
Cs3 Sn0 4.337143 1_455
Cs3 Cs5 4.998342 1_655
Cs4 Sn5 3.771470 1_555
Cs4 Sn6 3.771470 1_545
Cs4 Sn1 4.203619 1_545
Cs4 Sn1 4.203619 1_555
Cs4 Sn7 4.203619 1_544
Cs4 Sn7 4.203619 1_554
Cs4 Sn5 4.337143 1_655
Cs4 Sn6 4.337143 1_645
Cs5 Sn1 3.755772 1_555
Cs5 Sn2 3.879997 1_455
Cs5 Sn0 3.879997 1_455
Sn0 Sn3 3.000019 1_555
Sn0 Sn4 3.000019 1_555
Sn0 Sn2 3.073388 1_545
Sn1 Sn6 3.000019 1_555
Sn1 Sn5 3.000019 1_555
Sn1 Sn7 3.125166 1_554
Sn2 Sn3 3.000019 1_565
Sn2 Sn4 3.000019 1_565
Sn3 Sn4 3.125166 1_555
Sn5 Sn7 3.000019 1_554
Sn5 Sn6 3.073388 1_555
Sn6 Sn7 3.000019 1_554
Au0 Sn1 2.812912 1_555
Au0 Sn7 2.812912 1_554
Au0 Sn6 2.817713 1_655
Au0 Sn5 2.817713 1_655
Au0 Cs4 4.010720 1_565
Au0 Cs4 4.010720 1_555
Au1 Sn3 2.812912 1_555
Au1 Sn4 2.812912 1_555
Au1 Sn0 2.817713 1_455
Au1 Sn2 2.817713 1_445
Au1 Cs3 4.010720 1_545
Au1 Cs3 4.010720 1_555
