# generated using pymatgen
data_Mg4B3Ir2
_symmetry_space_group_name_H-M   'P 1'
_cell_length_a   4.93113727
_cell_length_b   4.93113727
_cell_length_c   6.89010196
_cell_angle_alpha   68.51501636
_cell_angle_beta   68.51501636
_cell_angle_gamma   58.76069247
_symmetry_Int_Tables_number   1
_chemical_formula_structural   Mg4B3Ir2
_chemical_formula_sum   'Mg4 B3 Ir2'
_cell_volume   129.98047339
_cell_formula_units_Z   1
loop_
 _symmetry_equiv_pos_site_id
 _symmetry_equiv_pos_as_xyz
  1  'x, y, z'
loop_
 _atom_site_type_symbol
 _atom_site_label
 _atom_site_symmetry_multiplicity
 _atom_site_fract_x
 _atom_site_fract_y
 _atom_site_fract_z
 _atom_site_occupancy
  Mg  Mg0  1  0.29978000  0.31235800  0.84256900  1
  Mg  Mg1  1  0.68764200  0.70022000  0.15743100  1
  Mg  Mg2  1  0.29392000  0.30664600  0.35665600  1
  Mg  Mg3  1  0.69335400  0.70608000  0.64334400  1
  B  B0  1  0.65953800  0.34046200  0.00000000  1
  B  B1  1  0.31104000  0.68896000  0.00000000  1
  B  B2  1  0.92564600  0.07435400  0.50000000  1
  Ir  Ir0  1  0.99134100  0.03226000  0.78164900  1
  Ir  Ir1  1  0.96774000  0.00865900  0.21835100  1
loop_
_geom_bond_atom_site_label_1
_geom_bond_atom_site_label_2
_geom_bond_distance
_geom_bond_site_symmetry_2
B0 B1 1.686201 1_555
B0 Ir0 2.131371 1_554
B0 Ir1 2.131371 1_555
B0 Mg2 2.466450 1_555
B0 Mg3 2.466450 1_554
B0 Mg1 2.473388 1_555
B0 Mg0 2.473388 1_554
B0 Mg0 2.882876 1_654
B0 Mg1 2.882876 1_545
B1 Ir0 2.172118 1_464
B1 Ir1 2.172118 1_465
B1 Mg2 2.493911 1_555
B1 Mg3 2.493911 1_554
B1 Mg1 2.501014 1_555
B1 Mg0 2.501014 1_554
B1 Mg1 2.837968 1_455
B1 Mg0 2.837968 1_564
B2 Ir1 2.002401 1_555
B2 Ir0 2.002401 1_555
B2 Mg3 2.366540 1_545
B2 Mg2 2.366540 1_655
Ir0 Mg0 2.732853 1_655
Ir0 Mg0 2.864245 1_555
Ir0 Mg1 2.867937 1_546
Ir0 Mg0 2.977816 1_645
Ir1 Mg1 2.732853 1_545
Ir1 Mg1 2.864245 1_555
Ir1 Mg0 2.867937 1_654
Ir1 Mg1 2.977816 1_645
