# generated using pymatgen
data_Li9Mn2Co5O16
_symmetry_space_group_name_H-M   'P 1'
_cell_length_a   5.13220600
_cell_length_b   5.85622611
_cell_length_c   9.70311066
_cell_angle_alpha   89.62561719
_cell_angle_beta   79.66701154
_cell_angle_gamma   89.79328874
_symmetry_Int_Tables_number   1
_chemical_formula_structural   Li9Mn2Co5O16
_chemical_formula_sum   'Li9 Mn2 Co5 O16'
_cell_volume   286.89378432
_cell_formula_units_Z   1
loop_
 _symmetry_equiv_pos_site_id
 _symmetry_equiv_pos_as_xyz
  1  'x, y, z'
loop_
 _atom_site_type_symbol
 _atom_site_label
 _atom_site_symmetry_multiplicity
 _atom_site_fract_x
 _atom_site_fract_y
 _atom_site_fract_z
 _atom_site_occupancy
  Li  Li0  1  0.50023700  0.25052400  0.00351000  1
  Li  Li1  1  0.25026100  0.49054800  0.25067300  1
  Li  Li2  1  0.50236700  0.75323100  0.00224700  1
  Li  Li3  1  0.24844900  0.00757000  0.24964800  1
  Li  Li4  1  0.75233600  0.00066300  0.74933700  1
  Li  Li5  1  0.74762800  0.49970600  0.75161300  1
  Li  Li6  1  0.99802700  0.74945000  0.49887100  1
  Li  Li7  1  0.99942600  0.24681400  0.49563600  1
  Li  Li8  1  0.74940800  0.24730700  0.24937100  1
  Mn  Mn0  1  0.00151300  0.00471000  0.00382700  1
  Mn  Mn1  1  0.49586600  0.99816200  0.49578500  1
  Co  Co0  1  0.51474200  0.49371400  0.48883300  1
  Co  Co1  1  0.25080500  0.74652000  0.75088300  1
  Co  Co2  1  0.99257200  0.49934100  0.00988000  1
  Co  Co3  1  0.74951400  0.75340100  0.24988500  1
  Co  Co4  1  0.24960000  0.25347800  0.74845500  1
  O  O0  1  0.34754800  0.01086400  0.87344100  1
  O  O1  1  0.12318900  0.24003200  0.11474000  1
  O  O2  1  0.35633200  0.50360200  0.87406200  1
  O  O3  1  0.12383300  0.76586200  0.11565400  1
  O  O4  1  0.59860000  0.75815200  0.62194300  1
  O  O5  1  0.61240800  0.23416300  0.61494900  1
  O  O6  1  0.84940800  0.51234800  0.37590500  1
  O  O7  1  0.83516300  0.98306600  0.37684600  1
  O  O8  1  0.65491000  0.52000800  0.12639700  1
  O  O9  1  0.37558100  0.75827200  0.38448700  1
  O  O10  1  0.66330500  0.98983200  0.12100500  1
  O  O11  1  0.37649000  0.23695600  0.38538400  1
  O  O12  1  0.88674800  0.24266600  0.88486600  1
  O  O13  1  0.90076300  0.76404700  0.87805400  1
  O  O14  1  0.15146000  0.99596900  0.62256600  1
  O  O15  1  0.14151000  0.48902500  0.63124800  1
loop_
_geom_bond_atom_site_label_1
_geom_bond_atom_site_label_2
_geom_bond_distance
_geom_bond_site_symmetry_2
Li0 O1 2.040576 1_555
Li0 O12 2.107870 1_554
Li0 O0 2.136026 1_554
Li0 O2 2.149474 1_554
Li0 O10 2.154342 1_545
Li0 O8 2.217138 1_555
Li1 O11 2.145974 1_555
Li1 O1 2.158261 1_555
Li1 O6 2.197390 1_455
Li1 O9 2.211597 1_555
Li1 O8 2.213193 1_555
Li1 O3 2.237565 1_555
Li2 O3 2.055146 1_555
Li2 O8 2.058786 1_555
Li2 O10 2.073761 1_555
Li2 O2 2.147541 1_554
Li2 O13 2.180094 1_554
Li2 O0 2.189219 1_564
Li3 O1 2.062129 1_555
Li3 O11 2.076295 1_555
Li3 O3 2.105221 1_545
Li3 O9 2.131516 1_545
Li3 O7 2.259109 1_445
Li3 O10 2.269089 1_545
Li4 O13 2.090774 1_545
Li4 O5 2.095591 1_555
Li4 O4 2.132695 1_545
Li4 O12 2.137896 1_555
Li4 O14 2.192227 1_645
Li4 O0 2.207279 1_555
Li5 O2 2.142234 1_555
Li5 O15 2.146491 1_655
Li5 O12 2.178398 1_555
Li5 O4 2.184211 1_555
Li5 O13 2.213327 1_555
Li5 O5 2.241249 1_555
Li6 O9 2.053680 1_655
Li6 O6 2.071028 1_555
Li6 O7 2.073134 1_555
Li6 O14 2.124783 1_655
Li6 O4 2.180087 1_555
Li6 O15 2.196289 1_655
Li7 O11 2.037154 1_655
Li7 O5 2.113294 1_555
Li7 O14 2.143946 1_645
Li7 O6 2.156204 1_555
Li7 O15 2.156681 1_655
Li7 O7 2.192305 1_545
Li8 O10 2.060832 1_545
Li8 O7 2.069688 1_545
Li8 O8 2.094402 1_555
Li8 O6 2.106338 1_555
Li8 O1 2.118831 1_655
Li8 O11 2.121808 1_555
Mn0 O10 1.898682 1_445
Mn0 O1 1.927175 1_555
Mn0 O3 1.935500 1_545
Mn0 O12 1.959125 1_454
Mn0 O0 1.987374 1_554
Mn0 O13 1.999291 1_444
Mn1 O7 1.910830 1_555
Mn1 O11 1.920466 1_565
Mn1 O9 1.945818 1_555
Mn1 O14 1.964097 1_555
Mn1 O5 1.969711 1_565
Mn1 O4 1.988909 1_555
Co0 O6 1.867426 1_555
Co0 O11 2.013665 1_555
Co0 O9 2.041199 1_555
Co0 O5 2.061391 1_555
Co0 O4 2.117062 1_555
Co0 O15 2.151693 1_555
Co1 O2 1.987472 1_555
Co1 O4 1.988628 1_555
Co1 O13 1.991388 1_455
Co1 O14 2.035381 1_555
Co1 O15 2.049059 1_555
Co1 O0 2.073307 1_565
Co2 O8 1.895626 1_555
Co2 O1 2.001954 1_655
Co2 O3 2.054228 1_655
Co2 O12 2.071691 1_554
Co2 O2 2.083257 1_654
Co2 O13 2.108613 1_554
Co3 O7 1.933898 1_555
Co3 O8 1.942808 1_555
Co3 O10 1.961666 1_555
Co3 O6 1.986942 1_555
Co3 O9 2.119076 1_555
Co3 O3 2.120010 1_655
Co4 O15 1.924634 1_555
Co4 O0 1.983223 1_555
Co4 O2 2.049312 1_555
Co4 O14 2.066449 1_545
Co4 O5 2.071973 1_555
Co4 O12 2.083117 1_455
