# generated using pymatgen
data_ThTe3
_symmetry_space_group_name_H-M   'P 1'
_cell_length_a   4.44290231
_cell_length_b   6.29906278
_cell_length_c   10.72928377
_cell_angle_alpha   97.72355422
_cell_angle_beta   90.00000000
_cell_angle_gamma   90.00000000
_symmetry_Int_Tables_number   1
_chemical_formula_structural   ThTe3
_chemical_formula_sum   'Th2 Te6'
_cell_volume   297.54698065
_cell_formula_units_Z   2
loop_
 _symmetry_equiv_pos_site_id
 _symmetry_equiv_pos_as_xyz
  1  'x, y, z'
loop_
 _atom_site_type_symbol
 _atom_site_label
 _atom_site_symmetry_multiplicity
 _atom_site_fract_x
 _atom_site_fract_y
 _atom_site_fract_z
 _atom_site_occupancy
  Th  Th0  1  0.75000000  0.71466281  0.84439478  1
  Th  Th1  1  0.25000000  0.28533719  0.15560522  1
  Te  Te0  1  0.75000000  0.54848152  0.32730977  1
  Te  Te1  1  0.25000000  0.45151848  0.67269023  1
  Te  Te2  1  0.75000000  0.23456054  0.93797831  1
  Te  Te3  1  0.25000000  0.76543946  0.06202169  1
  Te  Te4  1  0.75000000  0.11284834  0.33449226  1
  Te  Te5  1  0.25000000  0.88715166  0.66550774  1
loop_
_geom_bond_atom_site_label_1
_geom_bond_atom_site_label_2
_geom_bond_distance
_geom_bond_site_symmetry_2
Te0 Te4 2.755496 1_555
Te0 Th1 3.202424 1_555
Te0 Th1 3.202424 1_655
Te1 Te5 2.755496 1_555
Te1 Th0 3.202424 1_455
Te1 Th0 3.202424 1_555
Te2 Th1 3.207576 1_656
Te2 Th1 3.207576 1_556
Te2 Th0 3.293799 1_545
Te2 Th0 3.312117 1_555
Te3 Th0 3.207576 1_554
Te3 Th0 3.207576 1_454
Te3 Th1 3.293799 1_565
Te3 Th1 3.312117 1_555
Te4 Th1 3.218652 1_555
Te4 Th1 3.218652 1_655
Te5 Th0 3.218652 1_555
Te5 Th0 3.218652 1_455
