# generated using pymatgen
data_Zr3(V2Fe)2
_symmetry_space_group_name_H-M   'P 1'
_cell_length_a   5.08459507
_cell_length_b   5.10339043
_cell_length_c   12.70442451
_cell_angle_alpha   90.96930095
_cell_angle_beta   88.50325010
_cell_angle_gamma   118.97258887
_symmetry_Int_Tables_number   1
_chemical_formula_structural   Zr3(V2Fe)2
_chemical_formula_sum   'Zr6 V8 Fe4'
_cell_volume   288.30432867
_cell_formula_units_Z   2
loop_
 _symmetry_equiv_pos_site_id
 _symmetry_equiv_pos_as_xyz
  1  'x, y, z'
loop_
 _atom_site_type_symbol
 _atom_site_label
 _atom_site_symmetry_multiplicity
 _atom_site_fract_x
 _atom_site_fract_y
 _atom_site_fract_z
 _atom_site_occupancy
  Zr  Zr0  1  0.33352602  0.66269467  0.91776510  1
  Zr  Zr1  1  0.00293690  0.00400823  0.24816330  1
  Zr  Zr2  1  0.66759794  0.33354044  0.58262365  1
  Zr  Zr3  1  0.33240293  0.66645586  0.66733264  1
  Zr  Zr4  1  0.99706409  0.99598509  0.00186740  1
  Zr  Zr5  1  0.66647577  0.33730905  0.33226301  1
  V  V0  1  0.16849675  0.33532502  0.45737228  1
  V  V1  1  0.83150275  0.66467703  0.79262588  1
  V  V2  1  0.33550501  0.67211447  0.29077481  1
  V  V3  1  -0.00000656  -0.00000408  0.62499202  1
  V  V4  1  0.66450100  0.32789348  0.95924761  1
  V  V5  1  0.00000237  0.50000100  0.12501589  1
  V  V6  1  0.66795794  0.83582170  0.45752343  1
  V  V7  1  0.33204115  0.16417553  0.79247869  1
  Fe  Fe0  1  0.50000186  0.49999177  0.12494708  1
  Fe  Fe1  1  0.16737357  0.83507177  0.45761902  1
  Fe  Fe2  1  0.83261599  0.16493744  0.79243832  1
  Fe  Fe3  1  0.50000653  0.00000053  0.12494688  1
loop_
_geom_bond_atom_site_label_1
_geom_bond_atom_site_label_2
_geom_bond_distance
_geom_bond_site_symmetry_2
Zr0 Zr4 3.102181 1_456
Zr0 Zr4 3.159875 1_556
Zr0 Zr4 3.167585 1_446
Zr0 Zr3 3.182154 1_555
Zr1 Zr5 3.102210 1_455
Zr1 Zr4 3.129356 1_445
Zr1 Zr5 3.159867 1_555
Zr1 Zr5 3.167530 1_445
Zr2 Zr3 3.097915 1_555
Zr2 Zr3 3.167861 1_655
Zr2 Zr3 3.171728 1_545
Zr2 Zr5 3.181242 1_555
V0 V6 2.586391 1_555
V0 V6 2.586536 1_445
V0 V2 2.601952 1_555
V0 V3 2.608645 1_555
V0 Zr5 2.950089 1_555
V0 Zr2 2.963948 1_455
V0 Zr2 3.034147 1_555
V0 Zr1 3.036084 1_555
V0 Zr3 3.043793 1_555
V0 Zr5 3.046242 1_455
V1 V7 2.586404 1_555
V1 V7 2.586523 1_665
V1 V4 2.602189 1_555
V1 V3 2.608766 1_665
V1 Zr0 2.950279 1_555
V1 Zr3 2.964239 1_655
V1 Zr3 3.034419 1_555
V1 Zr4 3.036428 1_556
V1 Zr2 3.044270 1_555
V1 Zr0 3.046455 1_655
V2 V5 2.605717 1_555
V2 V6 2.608111 1_555
V2 Zr1 2.979083 1_565
V2 Zr5 2.981897 1_555
V2 Zr1 3.007501 1_665
V2 Zr5 3.012477 1_455
V2 Zr5 3.014200 1_565
V2 Zr1 3.029469 1_555
V3 V6 2.614548 1_445
V3 V7 2.614769 1_555
V3 Zr3 2.984810 1_545
V3 Zr2 2.984841 1_455
V3 Zr3 3.007814 1_445
V3 Zr2 3.007931 1_555
V3 Zr3 3.021698 1_555
V3 Zr2 3.021739 1_445
V4 V5 2.605811 1_656
V4 V7 2.608341 1_555
V4 Zr4 2.979147 1_546
V4 Zr0 2.981882 1_555
V4 Zr4 3.007541 1_446
V4 Zr0 3.012447 1_655
V4 Zr0 3.014207 1_545
V4 Zr4 3.029423 1_556
V5 Zr1 2.981905 1_565
V5 Zr4 2.981942 1_445
V5 Zr5 2.995722 1_455
V5 Zr0 2.995756 1_554
V5 Zr4 3.004463 1_455
V5 Zr1 3.004485 1_555
V6 Zr2 2.974155 1_565
V6 Zr5 2.974900 1_555
V6 Zr1 3.022672 1_665
V6 Zr3 3.028975 1_555
V6 Zr2 3.038058 1_555
V6 Zr5 3.039661 1_565
V7 Zr3 2.974466 1_545
V7 Zr0 2.975095 1_555
V7 Zr4 3.022985 1_446
V7 Zr2 3.029486 1_555
V7 Zr3 3.038363 1_555
V7 Zr0 3.039816 1_545
Fe0 V4 2.541579 1_554
Fe0 V5 2.542295 1_555
Fe0 V5 2.542300 1_655
Fe0 V2 2.542960 1_555
Fe0 Fe3 2.551662 1_555
Fe0 Fe3 2.551728 1_565
Fe0 Zr4 2.994926 1_555
Fe0 Zr1 2.995803 1_555
Fe0 Zr0 3.034023 1_554
Fe0 Zr5 3.035472 1_555
Fe0 Zr4 3.049749 1_445
Fe0 Zr1 3.050667 1_665
Fe1 V2 2.539654 1_555
Fe1 V6 2.541214 1_455
Fe1 V6 2.543386 1_555
Fe1 V3 2.548148 1_565
Fe1 V0 2.550281 1_565
Fe1 V0 2.553123 1_555
Fe1 Zr2 3.025938 1_455
Fe1 Zr5 3.028443 1_565
Fe1 Zr2 3.044440 1_565
Fe1 Zr5 3.046812 1_455
Fe1 Zr1 3.068474 1_565
Fe1 Zr3 3.071955 1_555
Fe2 V4 2.539248 1_555
Fe2 V7 2.541274 1_655
Fe2 V7 2.543326 1_555
Fe2 V3 2.548948 1_655
Fe2 V1 2.550328 1_545
Fe2 V1 2.553074 1_555
Fe2 Zr3 3.026596 1_655
Fe2 Zr0 3.028238 1_545
Fe2 Zr3 3.045122 1_545
Fe2 Zr0 3.046631 1_655
Fe2 Zr4 3.068236 1_546
Fe2 Zr2 3.073031 1_555
Fe3 V4 2.569536 1_554
Fe3 V2 2.570861 1_545
Fe3 V5 2.586458 1_655
Fe3 V5 2.586461 1_545
Fe3 Zr4 2.945421 1_545
Fe3 Zr1 2.946341 1_555
Fe3 Zr4 3.023582 1_445
Fe3 Zr1 3.024484 1_655
Fe3 Zr0 3.026433 1_544
Fe3 Zr5 3.027917 1_555
