# generated using pymatgen
data_MoWSe4
_symmetry_space_group_name_H-M   'P 1'
_cell_length_a   3.32322898
_cell_length_b   3.32322898
_cell_length_c   37.84631400
_cell_angle_alpha   90.00000000
_cell_angle_beta   90.00000000
_cell_angle_gamma   120.00001947
_symmetry_Int_Tables_number   1
_chemical_formula_structural   MoWSe4
_chemical_formula_sum   'Mo2 W2 Se8'
_cell_volume   361.97174141
_cell_formula_units_Z   2
loop_
 _symmetry_equiv_pos_site_id
 _symmetry_equiv_pos_as_xyz
  1  'x, y, z'
loop_
 _atom_site_type_symbol
 _atom_site_label
 _atom_site_symmetry_multiplicity
 _atom_site_fract_x
 _atom_site_fract_y
 _atom_site_fract_z
 _atom_site_occupancy
  Mo  Mo0  1  0.00000000  0.00000000  0.09391800  1
  Mo  Mo1  1  0.00000000  0.00000000  0.46966000  1
  W  W0  1  0.33333300  0.66666700  0.28179800  1
  W  W1  1  0.33333300  0.66666700  0.65753900  1
  Se  Se0  1  0.00000000  0.00000000  0.32630800  1
  Se  Se1  1  0.00000000  0.00000000  0.70204300  1
  Se  Se2  1  0.33333300  0.66666700  0.04964200  1
  Se  Se3  1  0.33333300  0.66666700  0.42538100  1
  Se  Se4  1  0.33333300  0.66666700  0.13820500  1
  Se  Se5  1  0.33333300  0.66666700  0.51393500  1
  Se  Se6  1  0.00000000  0.00000000  0.23728800  1
  Se  Se7  1  0.00000000  0.00000000  0.61303000  1
loop_
_geom_bond_atom_site_label_1
_geom_bond_atom_site_label_2
_geom_bond_distance
_geom_bond_site_symmetry_2
Mo0 Se2 2.547389 1_545
Mo0 Se2 2.547391 1_555
Mo0 Se2 2.547391 1_445
Mo0 Se4 2.547663 1_545
Mo0 Se4 2.547665 1_445
Mo0 Se4 2.547665 1_555
Mo1 Se5 2.547364 1_545
Mo1 Se5 2.547366 1_555
Mo1 Se5 2.547366 1_445
Mo1 Se3 2.547464 1_545
Mo1 Se3 2.547466 1_445
Mo1 Se3 2.547466 1_555
Se0 W0 2.553223 1_545
Se0 W0 2.553225 1_445
Se0 W0 2.553225 1_555
Se1 W1 2.553074 1_545
Se1 W1 2.553075 1_555
Se1 W1 2.553075 1_445
Se6 W0 2.553223 1_545
Se6 W0 2.553225 1_445
Se6 W0 2.553225 1_555
Se7 W1 2.553198 1_545
Se7 W1 2.553200 1_555
Se7 W1 2.553200 1_445
