# generated using pymatgen
data_Hg8Bi3As4Cl13
_symmetry_space_group_name_H-M   'P 1'
_cell_length_a   11.65381861
_cell_length_b   11.65381861
_cell_length_c   43.96313471
_cell_angle_alpha   90.00000000
_cell_angle_beta   90.00000000
_cell_angle_gamma   120.00000226
_symmetry_Int_Tables_number   1
_chemical_formula_structural   Hg8Bi3As4Cl13
_chemical_formula_sum   'Hg48 Bi18 As24 Cl78'
_cell_volume   5170.77667666
_cell_formula_units_Z   6
loop_
 _symmetry_equiv_pos_site_id
 _symmetry_equiv_pos_as_xyz
  1  'x, y, z'
loop_
 _atom_site_type_symbol
 _atom_site_label
 _atom_site_symmetry_multiplicity
 _atom_site_fract_x
 _atom_site_fract_y
 _atom_site_fract_z
 _atom_site_occupancy
  Hg  Hg0  1  0.66572414  0.68717985  0.41608435  1
  Hg  Hg1  1  0.31282015  0.97854429  0.74941835  1
  Hg  Hg2  1  0.02145571  0.33427586  0.08275135  1
  Hg  Hg3  1  0.33427384  0.02146301  0.25058321  1
  Hg  Hg4  1  0.97853699  0.31281083  0.58391721  1
  Hg  Hg5  1  0.68718917  0.66572616  0.91725021  1
  Hg  Hg6  1  0.39066212  0.65424809  0.34633410  1
  Hg  Hg7  1  0.34575191  0.73641403  0.67966810  1
  Hg  Hg8  1  0.26358597  0.60933788  0.01300110  1
  Hg  Hg9  1  0.60933417  0.26358178  0.32033334  1
  Hg  Hg10  1  0.73641822  0.34575239  0.65366734  1
  Hg  Hg11  1  0.65424761  0.39066583  0.98700034  1
  Hg  Hg12  1  0.99999928  0.38276365  0.33333280  1
  Hg  Hg13  1  0.61723635  0.61723563  0.66666680  1
  Hg  Hg14  1  0.38276437  0.00000072  0.99999980  1
  Hg  Hg15  1  0.38929759  0.77613155  0.43138530  1
  Hg  Hg16  1  0.22386845  0.61316604  0.76471930  1
  Hg  Hg17  1  0.38683396  0.61070241  0.09805230  1
  Hg  Hg18  1  0.61072722  0.38682635  0.23528543  1
  Hg  Hg19  1  0.61317365  0.22390087  0.56861943  1
  Hg  Hg20  1  0.77609913  0.38927278  0.90195243  1
  Hg  Hg21  1  0.69128042  0.03769623  0.37610707  1
  Hg  Hg22  1  0.96230377  0.65358419  0.70944107  1
  Hg  Hg23  1  0.34641581  0.30871958  0.04277407  1
  Hg  Hg24  1  0.30871741  0.34641355  0.29055975  1
  Hg  Hg25  1  0.65358645  0.96230386  0.62389375  1
  Hg  Hg26  1  0.03769614  0.69128259  0.95722675  1
  Hg  Hg27  1  0.64100192  0.41628945  0.48368763  1
  Hg  Hg28  1  0.58371055  0.22471247  0.81702163  1
  Hg  Hg29  1  0.77528753  0.35899808  0.15035463  1
  Hg  Hg30  1  0.35899033  0.77529852  0.18297767  1
  Hg  Hg31  1  0.22470148  0.58369181  0.51631167  1
  Hg  Hg32  1  0.41630819  0.64100967  0.84964467  1
  Hg  Hg33  1  0.78887083  0.42498268  0.40392539  1
  Hg  Hg34  1  0.57501732  0.36388815  0.73725939  1
  Hg  Hg35  1  0.63611185  0.21112917  0.07059239  1
  Hg  Hg36  1  0.21113045  0.63611945  0.26274014  1
  Hg  Hg37  1  0.36388055  0.57501100  0.59607414  1
  Hg  Hg38  1  0.42498900  0.78886955  0.92940714  1
  Hg  Hg39  1  0.02296353  0.70912997  0.46396456  1
  Hg  Hg40  1  0.29087003  0.31383356  0.79729856  1
  Hg  Hg41  1  0.68616644  0.97703647  0.13063156  1
  Hg  Hg42  1  0.97703239  0.68616289  0.20270332  1
  Hg  Hg43  1  0.31383711  0.29086949  0.53603732  1
  Hg  Hg44  1  0.70913051  0.02296761  0.86937032  1
  Hg  Hg45  1  0.38412341  0.99999350  0.50001373  1
  Hg  Hg46  1  0.00000650  0.38412990  0.83334773  1
  Hg  Hg47  1  0.61587010  0.61587659  0.16668073  1
  Bi  Bi0  1  0.86689466  0.14516471  0.46551230  1
  Bi  Bi1  1  0.85483529  0.72172994  0.79884630  1
  Bi  Bi2  1  0.27827006  0.13310534  0.13217930  1
  Bi  Bi3  1  0.13310476  0.27826994  0.20115358  1
  Bi  Bi4  1  0.72173006  0.85483482  0.53448758  1
  Bi  Bi5  1  0.14516518  0.86689524  0.86782058  1
  Bi  Bi6  1  0.16082822  0.92032844  0.36653893  1
  Bi  Bi7  1  0.07967156  0.24049978  0.69987293  1
  Bi  Bi8  1  0.75950022  0.83917178  0.03320593  1
  Bi  Bi9  1  0.83917143  0.75950052  0.30012746  1
  Bi  Bi10  1  0.24049948  0.07967091  0.63346146  1
  Bi  Bi11  1  0.92032909  0.16082857  0.96679446  1
  Bi  Bi12  1  0.26005647  0.28047420  0.41699808  1
  Bi  Bi13  1  0.71952580  0.97958227  0.75033208  1
  Bi  Bi14  1  0.02041773  0.73994353  0.08366508  1
  Bi  Bi15  1  0.73994480  0.02041831  0.24966848  1
  Bi  Bi16  1  0.97958169  0.71952649  0.58300248  1
  Bi  Bi17  1  0.28047351  0.26005520  0.91633548  1
  As  As0  1  0.54547213  0.79204452  0.38943892  1
  As  As1  1  0.20795548  0.75342761  0.72277292  1
  As  As2  1  0.24657239  0.45452787  0.05610592  1
  As  As3  1  0.45451660  0.24656120  0.27722983  1
  As  As4  1  0.75343880  0.20795539  0.61056383  1
  As  As5  1  0.79204461  0.54548340  0.94389683  1
  As  As6  1  0.22354976  0.50135002  0.30706021  1
  As  As7  1  0.49864998  0.72219974  0.64039421  1
  As  As8  1  0.27780026  0.77645024  0.97372721  1
  As  As9  1  0.77645113  0.27779991  0.35960623  1
  As  As10  1  0.72220009  0.49865122  0.69294023  1
  As  As11  1  0.50134878  0.22354887  0.02627323  1
  As  As12  1  0.78660660  0.58232350  0.44344256  1
  As  As13  1  0.41767650  0.20428311  0.77677656  1
  As  As14  1  0.79571689  0.21339340  0.11010956  1
  As  As15  1  0.21340007  0.79573796  0.22322415  1
  As  As16  1  0.20426204  0.41766211  0.55655815  1
  As  As17  1  0.58233789  0.78659993  0.88989115  1
  As  As18  1  0.25719260  0.76589677  0.47875091  1
  As  As19  1  0.23410323  0.49129583  0.81208491  1
  As  As20  1  0.50870417  0.74280740  0.14541791  1
  As  As21  1  0.74281414  0.50870803  0.18792265  1
  As  As22  1  0.49129197  0.23410610  0.52125665  1
  As  As23  1  0.76589390  0.25718586  0.85458965  1
  Cl  Cl0  1  0.18915260  0.17301859  0.35638531  1
  Cl  Cl1  1  0.82698141  0.01613401  0.68971931  1
  Cl  Cl2  1  0.98386599  0.81084740  0.02305231  1
  Cl  Cl3  1  0.81084765  0.98386642  0.31028066  1
  Cl  Cl4  1  0.01613358  0.82698122  0.64361466  1
  Cl  Cl5  1  0.17301878  0.18915235  0.97694766  1
  Cl  Cl6  1  0.64310095  0.14453907  0.44486774  1
  Cl  Cl7  1  0.85546093  0.49856188  0.77820174  1
  Cl  Cl8  1  0.50143812  0.35689905  0.11153474  1
  Cl  Cl9  1  0.35691436  0.50144557  0.22179617  1
  Cl  Cl10  1  0.49855443  0.85546878  0.55513017  1
  Cl  Cl11  1  0.14453122  0.64308564  0.88846317  1
  Cl  Cl12  1  0.22508746  0.00248629  0.42569551  1
  Cl  Cl13  1  0.99751371  0.22260117  0.75902951  1
  Cl  Cl14  1  0.77739883  0.77491254  0.09236251  1
  Cl  Cl15  1  0.77490850  0.77739808  0.24096952  1
  Cl  Cl16  1  0.22260192  0.99751042  0.57430352  1
  Cl  Cl17  1  0.00248958  0.22509150  0.90763652  1
  Cl  Cl18  1  0.13331897  0.68828253  0.38223221  1
  Cl  Cl19  1  0.31171747  0.44503643  0.71556621  1
  Cl  Cl20  1  0.55496357  0.86668103  0.04889921  1
  Cl  Cl21  1  0.86668064  0.55496324  0.28443475  1
  Cl  Cl22  1  0.44503676  0.31171741  0.61776875  1
  Cl  Cl23  1  0.68828259  0.13331936  0.95110175  1
  Cl  Cl24  1  0.20452065  0.45214991  0.39681363  1
  Cl  Cl25  1  0.54785009  0.75237074  0.73014763  1
  Cl  Cl26  1  0.24762926  0.79547935  0.06348063  1
  Cl  Cl27  1  0.79547942  0.24763137  0.26985255  1
  Cl  Cl28  1  0.75236863  0.54784805  0.60318655  1
  Cl  Cl29  1  0.45215195  0.20452058  0.93651955  1
  Cl  Cl30  1  0.93386354  0.09525558  0.41066071  1
  Cl  Cl31  1  0.90474442  0.83860796  0.74399471  1
  Cl  Cl32  1  0.16139204  0.06613646  0.07732771  1
  Cl  Cl33  1  0.06613597  0.16139032  0.25600517  1
  Cl  Cl34  1  0.83860968  0.90474565  0.58933917  1
  Cl  Cl35  1  0.09525435  0.93386403  0.92267217  1
  Cl  Cl36  1  0.49037527  0.38329234  0.39039827  1
  Cl  Cl37  1  0.61670766  0.10708293  0.72373227  1
  Cl  Cl38  1  0.89291707  0.50962473  0.05706527  1
  Cl  Cl39  1  0.50962385  0.89291673  0.27626811  1
  Cl  Cl40  1  0.10708327  0.61670712  0.60960211  1
  Cl  Cl41  1  0.38329288  0.49037615  0.94293511  1
  Cl  Cl42  1  0.40182990  0.45796208  0.46007480  1
  Cl  Cl43  1  0.54203792  0.94386782  0.79340880  1
  Cl  Cl44  1  0.05613218  0.59817010  0.12674180  1
  Cl  Cl45  1  0.59817386  0.05613698  0.20659148  1
  Cl  Cl46  1  0.94386302  0.54203688  0.53992548  1
  Cl  Cl47  1  0.45796312  0.40182614  0.87325848  1
  Cl  Cl48  1  0.12972932  0.88048357  0.30455129  1
  Cl  Cl49  1  0.11951643  0.24924575  0.63788529  1
  Cl  Cl50  1  0.75075425  0.87027068  0.97121829  1
  Cl  Cl51  1  0.87026909  0.75075351  0.36211389  1
  Cl  Cl52  1  0.24924649  0.11951559  0.69544789  1
  Cl  Cl53  1  0.88048441  0.12973091  0.02878089  1
  Cl  Cl54  1  0.98359059  0.40296322  0.46190767  1
  Cl  Cl55  1  0.59703678  0.58062737  0.79524167  1
  Cl  Cl56  1  0.41937263  0.01640941  0.12857467  1
  Cl  Cl57  1  0.01641219  0.41937286  0.20475877  1
  Cl  Cl58  1  0.58062714  0.59703933  0.53809277  1
  Cl  Cl59  1  0.40296067  0.98358781  0.87142577  1
  Cl  Cl60  1  0.80887452  0.14169107  0.52684794  1
  Cl  Cl61  1  0.85830893  0.66718345  0.86018194  1
  Cl  Cl62  1  0.33281655  0.19112548  0.19351494  1
  Cl  Cl63  1  0.19112373  0.33281518  0.13981795  1
  Cl  Cl64  1  0.66718482  0.85830855  0.47315195  1
  Cl  Cl65  1  0.14169145  0.80887627  0.80648495  1
  Cl  Cl66  1  0.10588134  0.17117898  0.48095267  1
  Cl  Cl67  1  0.82882102  0.93470236  0.81428667  1
  Cl  Cl68  1  0.06529764  0.89411866  0.14761967  1
  Cl  Cl69  1  0.89412305  0.06529809  0.18571332  1
  Cl  Cl70  1  0.93470191  0.82882495  0.51904732  1
  Cl  Cl71  1  0.17117505  0.10587695  0.85238032  1
  Cl  Cl72  1  0.40941580  0.00228309  0.35544266  1
  Cl  Cl73  1  0.99771691  0.40713271  0.68877666  1
  Cl  Cl74  1  0.59286729  0.59058420  0.02210966  1
  Cl  Cl75  1  0.59058545  0.59286995  0.31122316  1
  Cl  Cl76  1  0.40713005  0.99771551  0.64455716  1
  Cl  Cl77  1  0.00228449  0.40941455  0.97789016  1
loop_
_geom_bond_atom_site_label_1
_geom_bond_atom_site_label_2
_geom_bond_distance
_geom_bond_site_symmetry_2
Bi0 Cl54 2.610530 1_555
Bi0 Cl30 2.686336 1_555
Bi0 Cl66 2.732245 1_655
Bi0 Cl6 2.758026 1_555
Bi0 Cl60 2.775357 1_555
Bi0 Cl64 2.987405 1_545
Bi1 Cl55 2.610530 1_555
Bi1 Cl31 2.686336 1_555
Bi1 Cl67 2.732245 1_555
Bi1 Cl7 2.758026 1_555
Bi1 Cl61 2.775357 1_555
Bi1 Cl65 2.987400 1_655
Bi2 Cl56 2.610530 1_555
Bi2 Cl32 2.686336 1_555
Bi2 Cl68 2.732245 1_545
Bi2 Cl8 2.758026 1_555
Bi2 Cl62 2.775357 1_555
Bi2 Cl63 2.987400 1_555
Bi3 Cl57 2.610503 1_555
Bi3 Cl33 2.686342 1_555
Bi3 Cl69 2.732208 1_455
Bi3 Cl9 2.758126 1_555
Bi3 Cl63 2.775353 1_555
Bi3 Cl62 2.987406 1_555
Bi4 Cl58 2.610503 1_555
Bi4 Cl34 2.686342 1_555
Bi4 Cl70 2.732209 1_555
Bi4 Cl10 2.758126 1_555
Bi4 Cl64 2.775353 1_555
Bi4 Cl60 2.987411 1_565
Bi5 Cl59 2.610503 1_555
Bi5 Cl35 2.686342 1_555
Bi5 Cl71 2.732208 1_565
Bi5 Cl11 2.758127 1_555
Bi5 Cl65 2.775353 1_555
Bi5 Cl61 2.987406 1_455
Bi6 Cl72 2.603049 1_565
Bi6 Cl18 2.650405 1_555
Bi6 Cl12 2.743027 1_565
Bi6 Cl48 2.757759 1_555
Bi6 Cl0 2.829850 1_565
Bi6 Cl51 2.952522 1_455
Bi7 Cl73 2.603049 1_455
Bi7 Cl19 2.650405 1_555
Bi7 Cl13 2.743027 1_455
Bi7 Cl49 2.757759 1_555
Bi7 Cl1 2.829850 1_455
Bi7 Cl52 2.952522 1_555
Bi8 Cl74 2.603049 1_555
Bi8 Cl20 2.650405 1_555
Bi8 Cl14 2.743027 1_555
Bi8 Cl50 2.757759 1_554
Bi8 Cl2 2.829850 1_555
Bi8 Cl53 2.952522 1_565
Bi9 Cl75 2.603025 1_555
Bi9 Cl21 2.650405 1_555
Bi9 Cl15 2.743095 1_555
Bi9 Cl51 2.757705 1_555
Bi9 Cl3 2.829845 1_555
Bi9 Cl48 2.952506 1_655
Bi10 Cl76 2.603025 1_545
Bi10 Cl22 2.650405 1_555
Bi10 Cl16 2.743095 1_545
Bi10 Cl52 2.757705 1_555
Bi10 Cl4 2.829845 1_545
Bi10 Cl49 2.952506 1_555
Bi11 Cl77 2.603025 1_655
Bi11 Cl23 2.650405 1_555
Bi11 Cl17 2.743095 1_655
Bi11 Cl53 2.757705 1_556
Bi11 Cl5 2.829845 1_655
Bi11 Cl50 2.952506 1_545
Bi12 Cl24 2.550267 1_555
Bi12 Cl36 2.606046 1_555
Bi12 Cl42 2.679010 1_555
Bi12 Cl0 2.883916 1_555
Bi12 Cl12 3.080130 1_555
Bi13 Cl25 2.550267 1_555
Bi13 Cl37 2.606046 1_565
Bi13 Cl43 2.679010 1_555
Bi13 Cl1 2.883916 1_565
Bi13 Cl13 3.080130 1_565
Bi14 Cl26 2.550267 1_555
Bi14 Cl38 2.606046 1_455
Bi14 Cl44 2.679010 1_555
Bi14 Cl2 2.883916 1_455
Bi14 Cl14 3.080130 1_455
Bi15 Cl27 2.550281 1_555
Bi15 Cl39 2.606062 1_545
Bi15 Cl45 2.679022 1_555
Bi15 Cl3 2.883888 1_545
Bi15 Cl15 3.080117 1_545
Bi16 Cl28 2.550281 1_555
Bi16 Cl40 2.606062 1_655
Bi16 Cl46 2.679022 1_555
Bi16 Cl4 2.883888 1_655
Bi16 Cl16 3.080117 1_655
Bi17 Cl29 2.550281 1_555
Bi17 Cl41 2.606062 1_555
Bi17 Cl47 2.679021 1_555
Bi17 Cl5 2.883888 1_555
Bi17 Cl17 3.080117 1_555
As0 Hg15 2.531810 1_555
As0 Hg6 2.554915 1_555
As0 Hg0 2.557772 1_555
As0 Hg21 2.561619 1_565
As1 Hg16 2.531810 1_555
As1 Hg7 2.554915 1_555
As1 Hg1 2.557772 1_555
As1 Hg22 2.561619 1_455
As2 Hg17 2.531810 1_555
As2 Hg8 2.554915 1_555
As2 Hg2 2.557772 1_555
As2 Hg23 2.561619 1_555
As3 Hg18 2.531925 1_555
As3 Hg9 2.554909 1_555
As3 Hg3 2.557630 1_555
As3 Hg24 2.561587 1_555
As4 Hg19 2.531926 1_555
As4 Hg10 2.554909 1_555
As4 Hg4 2.557630 1_555
As4 Hg25 2.561587 1_545
As5 Hg20 2.531925 1_555
As5 Hg11 2.554909 1_555
As5 Hg5 2.557630 1_555
As5 Hg26 2.561587 1_655
As6 Hg12 2.535892 1_455
As6 Hg6 2.545337 1_555
As6 Hg36 2.551751 1_555
As6 Hg24 2.561961 1_555
As7 Hg13 2.535892 1_555
As7 Hg7 2.545337 1_555
As7 Hg37 2.551751 1_555
As7 Hg25 2.561961 1_555
As8 Hg14 2.535892 1_565
As8 Hg8 2.545337 1_556
As8 Hg38 2.551751 1_555
As8 Hg26 2.561961 1_555
As9 Hg12 2.535888 1_555
As9 Hg9 2.545332 1_555
As9 Hg33 2.551674 1_555
As9 Hg21 2.561955 1_555
As10 Hg13 2.535888 1_555
As10 Hg10 2.545332 1_555
As10 Hg34 2.551674 1_555
As10 Hg22 2.561955 1_555
As11 Hg14 2.535888 1_554
As11 Hg11 2.545332 1_554
As11 Hg35 2.551674 1_555
As11 Hg23 2.561955 1_555
As12 Hg33 2.535637 1_555
As12 Hg27 2.543696 1_555
As12 Hg39 2.552330 1_655
As12 Hg0 2.577954 1_555
As13 Hg34 2.535637 1_555
As13 Hg28 2.543696 1_555
As13 Hg40 2.552330 1_555
As13 Hg1 2.577954 1_545
As14 Hg35 2.535637 1_555
As14 Hg29 2.543696 1_555
As14 Hg41 2.552330 1_545
As14 Hg2 2.577954 1_655
As15 Hg36 2.535693 1_555
As15 Hg30 2.543670 1_555
As15 Hg42 2.552404 1_455
As15 Hg3 2.577848 1_565
As16 Hg37 2.535693 1_555
As16 Hg31 2.543670 1_555
As16 Hg43 2.552404 1_555
As16 Hg4 2.577848 1_455
As17 Hg38 2.535693 1_555
As17 Hg32 2.543670 1_555
As17 Hg44 2.552404 1_565
As17 Hg5 2.577848 1_555
As18 Hg45 2.543435 1_555
As18 Hg39 2.550582 1_555
As18 Hg15 2.556734 1_555
As18 Hg31 2.564152 1_555
As19 Hg46 2.543435 1_555
As19 Hg40 2.550582 1_555
As19 Hg16 2.556734 1_555
As19 Hg32 2.564124 1_555
As20 Hg47 2.543435 1_555
As20 Hg41 2.550582 1_555
As20 Hg17 2.556734 1_555
As20 Hg30 2.564124 1_555
As21 Hg47 2.543249 1_555
As21 Hg42 2.550411 1_555
As21 Hg18 2.556598 1_555
As21 Hg29 2.564222 1_555
As22 Hg45 2.543265 1_545
As22 Hg43 2.550411 1_555
As22 Hg19 2.556598 1_555
As22 Hg27 2.564251 1_555
As23 Hg46 2.543249 1_655
As23 Hg44 2.550411 1_555
As23 Hg20 2.556598 1_555
As23 Hg28 2.564223 1_555
Cl30 Hg21 2.975448 1_555
Cl31 Hg22 2.975448 1_555
Cl32 Hg23 2.975448 1_555
Cl33 Hg24 2.975456 1_555
Cl34 Hg25 2.975456 1_555
Cl35 Hg26 2.975456 1_555
