# generated using pymatgen
data_Mg14CrNi
_symmetry_space_group_name_H-M   'P 1'
_cell_length_a   6.24336464
_cell_length_b   6.25376946
_cell_length_c   9.88535617
_cell_angle_alpha   90.00000000
_cell_angle_beta   90.00000000
_cell_angle_gamma   120.05514921
_symmetry_Int_Tables_number   1
_chemical_formula_structural   Mg14CrNi
_chemical_formula_sum   'Mg14 Cr1 Ni1'
_cell_volume   334.07340717
_cell_formula_units_Z   1
loop_
 _symmetry_equiv_pos_site_id
 _symmetry_equiv_pos_as_xyz
  1  'x, y, z'
loop_
 _atom_site_type_symbol
 _atom_site_label
 _atom_site_symmetry_multiplicity
 _atom_site_fract_x
 _atom_site_fract_y
 _atom_site_fract_z
 _atom_site_occupancy
  Mg  Mg0  1  0.16887561  0.33443731  0.62500000  1
  Mg  Mg1  1  0.17040472  0.83520186  0.62500000  1
  Mg  Mg2  1  0.67243077  0.33984236  0.12500000  1
  Mg  Mg3  1  0.66458028  0.33126280  0.62500000  1
  Mg  Mg4  1  0.67243077  0.83258740  0.12500000  1
  Mg  Mg5  1  0.66458028  0.83331649  0.62500000  1
  Mg  Mg6  1  0.32408859  0.16609064  0.35800404  1
  Mg  Mg7  1  0.32408859  0.16609064  0.89199596  1
  Mg  Mg8  1  0.32408859  0.65799895  0.35800404  1
  Mg  Mg9  1  0.32408859  0.65799895  0.89199596  1
  Mg  Mg10  1  0.84349963  0.17175032  0.36449274  1
  Mg  Mg11  1  0.84349963  0.17175032  0.88550726  1
  Mg  Mg12  1  0.83878989  0.66939544  0.37405611  1
  Mg  Mg13  1  0.83878989  0.66939544  0.87594389  1
  Cr  Cr0  1  0.16184765  0.83092332  0.12500000  1
  Ni  Ni0  1  0.16391651  0.33195776  0.12500000  1
loop_
_geom_bond_atom_site_label_1
_geom_bond_atom_site_label_2
_geom_bond_distance
_geom_bond_site_symmetry_2
Mg0 Mg5 3.104855 1_555
Mg0 Mg3 3.104855 1_555
Mg0 Mg10 3.118223 1_455
Mg0 Mg11 3.118223 1_455
Mg0 Mg1 3.126896 1_555
Mg0 Mg1 3.126896 1_545
Mg0 Mg5 3.138604 1_445
Mg0 Mg3 3.138604 1_455
Mg0 Mg6 3.167892 1_555
Mg0 Mg7 3.167892 1_555
Mg0 Mg8 3.167898 1_555
Mg0 Mg9 3.167898 1_555
Mg1 Mg12 3.060235 1_455
Mg1 Mg13 3.060235 1_455
Mg1 Mg3 3.091240 1_565
Mg1 Mg5 3.091240 1_555
Mg1 Mg3 3.152158 1_455
Mg1 Mg5 3.152158 1_455
Mg1 Mg8 3.190608 1_555
Mg1 Mg9 3.190608 1_555
Mg1 Mg6 3.190614 1_565
Mg1 Mg7 3.190614 1_565
Mg2 Mg7 2.974691 1_554
Mg2 Mg6 2.974691 1_555
Mg2 Mg4 3.081514 1_555
Mg2 Ni0 3.093514 1_655
Mg2 Ni0 3.150434 1_555
Mg2 Mg4 3.172256 1_545
Mg3 Mg5 3.114041 1_545
Mg3 Mg5 3.139728 1_555
Mg3 Mg6 3.217564 1_555
Mg3 Mg7 3.217564 1_555
Mg4 Mg9 2.974691 1_554
Mg4 Mg8 2.974691 1_555
Mg4 Ni0 3.093514 1_665
Mg4 Ni0 3.150433 1_555
Mg5 Mg8 3.217564 1_555
Mg5 Mg9 3.217564 1_555
Mg6 Ni0 2.901786 1_555
Mg7 Ni0 2.901786 1_556
Mg8 Ni0 2.901793 1_555
Mg9 Ni0 2.901793 1_556
Mg10 Ni0 2.933090 1_655
Mg10 Mg2 2.995879 1_555
Mg10 Mg4 2.995885 1_545
Mg10 Mg12 3.128417 1_555
Mg10 Mg12 3.128417 1_545
Mg10 Mg3 3.160824 1_555
Mg10 Mg5 3.160830 1_545
Mg11 Ni0 2.933090 1_656
Mg11 Mg2 2.995879 1_556
Mg11 Mg4 2.995885 1_546
Mg11 Mg13 3.128417 1_555
Mg11 Mg13 3.128417 1_545
Mg11 Mg3 3.160824 1_555
Mg11 Mg5 3.160830 1_545
Mg12 Mg4 3.040325 1_555
Mg12 Mg2 3.040332 1_555
Mg12 Mg6 3.070315 1_665
Mg12 Mg8 3.070315 1_655
Mg12 Mg5 3.082926 1_555
Mg12 Mg3 3.082932 1_555
Mg12 Mg6 3.182330 1_555
Mg12 Mg8 3.182330 1_555
Mg13 Mg4 3.040325 1_556
Mg13 Mg2 3.040332 1_556
Mg13 Mg7 3.070315 1_665
Mg13 Mg9 3.070315 1_655
Mg13 Mg5 3.082926 1_555
Mg13 Mg3 3.082932 1_555
Mg13 Mg7 3.182330 1_555
Mg13 Mg9 3.182330 1_555
Cr0 Mg9 2.932247 1_554
Cr0 Mg8 2.932247 1_555
Cr0 Mg7 2.932254 1_564
Cr0 Mg6 2.932254 1_565
Cr0 Mg13 3.018147 1_454
Cr0 Mg12 3.018147 1_455
Cr0 Mg2 3.060833 1_455
Cr0 Mg4 3.060833 1_455
Cr0 Ni0 3.126905 1_555
Cr0 Ni0 3.126905 1_565
Cr0 Mg2 3.182557 1_565
Cr0 Mg4 3.182557 1_555
