# generated using pymatgen
data_Ti3Co(CuS4)2
_symmetry_space_group_name_H-M   'P 1'
_cell_length_a   7.04108185
_cell_length_b   7.04108185
_cell_length_c   7.04108159
_cell_angle_alpha   59.29183175
_cell_angle_beta   59.29183175
_cell_angle_gamma   59.29182783
_symmetry_Int_Tables_number   1
_chemical_formula_structural   Ti3Co(CuS4)2
_chemical_formula_sum   'Ti3 Co1 Cu2 S8'
_cell_volume   242.85257150
_cell_formula_units_Z   1
loop_
 _symmetry_equiv_pos_site_id
 _symmetry_equiv_pos_as_xyz
  1  'x, y, z'
loop_
 _atom_site_type_symbol
 _atom_site_label
 _atom_site_symmetry_multiplicity
 _atom_site_fract_x
 _atom_site_fract_y
 _atom_site_fract_z
 _atom_site_occupancy
  Ti  Ti0  1  0.00000000  0.50000000  0.50000000  1
  Ti  Ti1  1  0.50000000  0.50000000  0.00000000  1
  Ti  Ti2  1  0.50000000  0.00000000  0.50000000  1
  Co  Co0  1  0.50000000  0.50000000  0.50000000  1
  Cu  Cu0  1  0.12408200  0.12408200  0.12408200  1
  Cu  Cu1  1  0.87591800  0.87591800  0.87591800  1
  S  S0  1  0.26344500  0.72807800  0.26344500  1
  S  S1  1  0.26344500  0.26344500  0.72807800  1
  S  S2  1  0.72807800  0.26344500  0.26344500  1
  S  S3  1  0.25407600  0.25407600  0.25407600  1
  S  S4  1  0.73655500  0.27192200  0.73655500  1
  S  S5  1  0.73655500  0.73655500  0.27192200  1
  S  S6  1  0.27192200  0.73655500  0.73655500  1
  S  S7  1  0.74592400  0.74592400  0.74592400  1
loop_
_geom_bond_atom_site_label_1
_geom_bond_atom_site_label_2
_geom_bond_distance
_geom_bond_site_symmetry_2
Co0 S4 2.344588 1_555
Co0 S6 2.344588 1_555
Co0 S2 2.344588 1_555
Co0 S0 2.344588 1_555
Co0 S5 2.344588 1_555
Co0 S1 2.344588 1_555
Cu0 S3 2.253938 1_555
Cu0 S2 2.257197 1_455
Cu0 S0 2.257197 1_545
Cu0 S1 2.257197 1_554
Cu1 S7 2.253938 1_555
Cu1 S6 2.257197 1_655
Cu1 S4 2.257197 1_565
Cu1 S5 2.257197 1_556
S0 Ti1 2.439065 1_555
S0 Ti0 2.439066 1_555
S1 Ti2 2.439065 1_555
S1 Ti0 2.439065 1_555
S2 Ti1 2.439065 1_555
S2 Ti2 2.439066 1_555
S3 Ti2 2.435523 1_555
S3 Ti0 2.435523 1_555
S3 Ti1 2.435523 1_555
S4 Ti1 2.439065 1_556
S4 Ti0 2.439066 1_655
S5 Ti2 2.439065 1_565
S5 Ti0 2.439065 1_655
S6 Ti1 2.439065 1_556
S6 Ti2 2.439066 1_565
S7 Ti2 2.435523 1_565
S7 Ti0 2.435523 1_655
S7 Ti1 2.435523 1_556
