# generated using pymatgen
data_Tm6Zn23
_symmetry_space_group_name_H-M   'P 1'
_cell_length_a   8.80126996
_cell_length_b   8.80126996
_cell_length_c   8.80126996
_cell_angle_alpha   60.00000000
_cell_angle_beta   60.00000000
_cell_angle_gamma   60.00000000
_symmetry_Int_Tables_number   1
_chemical_formula_structural   Tm6Zn23
_chemical_formula_sum   'Tm6 Zn23'
_cell_volume   482.08212483
_cell_formula_units_Z   1
loop_
 _symmetry_equiv_pos_site_id
 _symmetry_equiv_pos_as_xyz
  1  'x, y, z'
loop_
 _atom_site_type_symbol
 _atom_site_label
 _atom_site_symmetry_multiplicity
 _atom_site_fract_x
 _atom_site_fract_y
 _atom_site_fract_z
 _atom_site_occupancy
  Tm  Tm0  1  0.70571582  0.70571582  0.29428418  1
  Tm  Tm1  1  0.29428418  0.70571582  0.29428418  1
  Tm  Tm2  1  0.70571582  0.29428418  0.29428418  1
  Tm  Tm3  1  0.29428418  0.29428418  0.70571582  1
  Tm  Tm4  1  0.70571582  0.29428418  0.70571582  1
  Tm  Tm5  1  0.29428418  0.70571582  0.70571582  1
  Zn  Zn0  1  -0.00000000  0.00000000  0.00000000  1
  Zn  Zn1  1  -0.00000000  0.00000000  0.50000000  1
  Zn  Zn2  1  0.50000000  0.00000000  0.50000000  1
  Zn  Zn3  1  -0.00000000  0.50000000  0.50000000  1
  Zn  Zn4  1  0.50000000  0.50000000  0.00000000  1
  Zn  Zn5  1  -0.00000000  0.50000000  0.00000000  1
  Zn  Zn6  1  0.50000000  0.00000000  0.00000000  1
  Zn  Zn7  1  0.87738979  0.87738979  0.36782864  1
  Zn  Zn8  1  0.87738979  0.36782864  0.87738979  1
  Zn  Zn9  1  0.36782864  0.87738979  0.87738979  1
  Zn  Zn10  1  0.87738979  0.87738979  0.87738979  1
  Zn  Zn11  1  0.12261021  0.12261021  0.63217136  1
  Zn  Zn12  1  0.12261021  0.63217136  0.12261021  1
  Zn  Zn13  1  0.63217136  0.12261021  0.12261021  1
  Zn  Zn14  1  0.12261021  0.12261021  0.12261021  1
  Zn  Zn15  1  0.67142404  0.67142404  0.98572789  1
  Zn  Zn16  1  0.67142404  0.98572789  0.67142404  1
  Zn  Zn17  1  0.98572789  0.67142404  0.67142404  1
  Zn  Zn18  1  0.67142404  0.67142404  0.67142404  1
  Zn  Zn19  1  0.32857596  0.32857596  0.01427211  1
  Zn  Zn20  1  0.32857596  0.01427211  0.32857596  1
  Zn  Zn21  1  0.01427211  0.32857596  0.32857596  1
  Zn  Zn22  1  0.32857596  0.32857596  0.32857596  1
loop_
_geom_bond_atom_site_label_1
_geom_bond_atom_site_label_2
_geom_bond_distance
_geom_bond_site_symmetry_2
Tm0 Zn7 3.037088 1_555
Tm0 Zn10 3.037101 1_554
Tm0 Zn13 3.037103 1_565
Tm0 Zn12 3.037103 1_655
Tm0 Zn15 3.047536 1_554
Tm0 Zn20 3.047536 1_565
Tm0 Zn21 3.047536 1_655
Tm0 Zn18 3.047536 1_555
Tm0 Zn5 3.160161 1_655
Tm0 Zn2 3.160161 1_565
Tm0 Zn6 3.160161 1_565
Tm0 Zn3 3.160161 1_655
Tm0 Tm1 3.621121 1_555
Tm0 Tm4 3.621121 1_555
Tm0 Tm2 3.621121 1_555
Tm0 Tm5 3.621121 1_555
Tm1 Zn12 3.037088 1_555
Tm1 Zn14 3.037101 1_565
Tm1 Zn7 3.037103 1_455
Tm1 Zn9 3.037103 1_554
Tm1 Zn20 3.047536 1_565
Tm1 Zn17 3.047536 1_455
Tm1 Zn15 3.047536 1_554
Tm1 Zn22 3.047536 1_555
Tm1 Zn3 3.160161 1_555
Tm1 Zn6 3.160161 1_565
Tm1 Zn4 3.160161 1_555
Tm1 Zn1 3.160161 1_565
Tm1 Tm2 3.621121 1_555
Tm1 Tm3 3.621121 1_555
Tm1 Tm5 3.621121 1_555
Tm2 Zn13 3.037088 1_555
Tm2 Zn14 3.037101 1_655
Tm2 Zn8 3.037103 1_554
Tm2 Zn7 3.037103 1_545
Tm2 Zn21 3.047536 1_655
Tm2 Zn16 3.047536 1_545
Tm2 Zn15 3.047536 1_554
Tm2 Zn22 3.047536 1_555
Tm2 Zn2 3.160161 1_555
Tm2 Zn5 3.160161 1_655
Tm2 Zn4 3.160161 1_555
Tm2 Zn1 3.160161 1_655
Tm2 Tm4 3.621121 1_555
Tm2 Tm3 3.621121 1_555
Tm3 Zn11 3.037088 1_555
Tm3 Zn14 3.037101 1_556
Tm3 Zn8 3.037103 1_455
Tm3 Zn9 3.037103 1_545
Tm3 Zn19 3.047536 1_556
Tm3 Zn16 3.047536 1_545
Tm3 Zn17 3.047536 1_455
Tm3 Zn22 3.047536 1_555
Tm3 Zn2 3.160161 1_555
Tm3 Zn3 3.160161 1_555
Tm3 Zn6 3.160161 1_556
Tm3 Zn5 3.160161 1_556
Tm3 Tm4 3.621121 1_555
Tm3 Tm5 3.621121 1_555
Tm4 Zn8 3.037088 1_555
Tm4 Zn10 3.037101 1_545
Tm4 Zn13 3.037103 1_556
Tm4 Zn11 3.037103 1_655
Tm4 Zn16 3.047536 1_545
Tm4 Zn19 3.047536 1_556
Tm4 Zn21 3.047536 1_655
Tm4 Zn18 3.047536 1_555
Tm4 Zn3 3.160161 1_655
Tm4 Zn4 3.160161 1_556
Tm4 Zn6 3.160161 1_556
Tm4 Zn1 3.160161 1_655
Tm4 Tm5 3.621121 1_555
Tm5 Zn9 3.037088 1_555
Tm5 Zn10 3.037101 1_455
Tm5 Zn11 3.037103 1_565
Tm5 Zn12 3.037103 1_556
Tm5 Zn17 3.047536 1_455
Tm5 Zn20 3.047536 1_565
Tm5 Zn19 3.047536 1_556
Tm5 Zn18 3.047536 1_555
Tm5 Zn2 3.160161 1_565
Tm5 Zn4 3.160161 1_556
Tm5 Zn5 3.160161 1_556
Tm5 Zn1 3.160161 1_565
Zn0 Zn7 2.643293 1_445
Zn0 Zn8 2.643293 1_454
Zn0 Zn9 2.643293 1_544
Zn0 Zn13 2.643293 1_455
Zn0 Zn11 2.643293 1_554
Zn0 Zn12 2.643293 1_545
Zn0 Zn10 2.643307 1_444
Zn0 Zn14 2.643307 1_555
Zn1 Zn17 2.542777 1_445
Zn1 Zn21 2.542777 1_555
Zn1 Zn16 2.542777 1_445
Zn1 Zn20 2.542777 1_555
Zn1 Zn14 2.712436 1_555
Zn1 Zn10 2.712436 1_445
Zn1 Zn7 2.712451 1_445
Zn1 Zn11 2.712451 1_555
Zn2 Zn22 2.542777 1_555
Zn2 Zn20 2.542777 1_555
Zn2 Zn7 2.712436 1_545
Zn2 Zn9 2.712436 1_545
Zn3 Zn7 2.712436 1_455
Zn3 Zn8 2.712436 1_455
Zn4 Zn8 2.712436 1_554
Zn4 Zn9 2.712436 1_554
Zn5 Zn8 2.712451 1_454
Zn6 Zn9 2.712451 1_544
Zn10 Zn16 2.703795 1_555
Zn10 Zn15 2.703795 1_555
Zn10 Zn17 2.703795 1_555
Zn10 Zn6 2.712436 1_566
Zn10 Zn5 2.712436 1_656
Zn10 Zn11 3.052228 1_665
Zn10 Zn13 3.052228 1_566
Zn10 Zn12 3.052228 1_656
Zn11 Zn22 2.703800 1_555
Zn11 Zn21 2.703809 1_555
Zn11 Zn20 2.703809 1_555
Zn11 Zn2 2.712436 1_555
Zn11 Zn3 2.712436 1_555
Zn11 Zn8 3.052203 1_455
Zn11 Zn9 3.052203 1_545
Zn12 Zn22 2.703800 1_555
Zn12 Zn21 2.703809 1_555
Zn12 Zn19 2.703809 1_555
Zn12 Zn3 2.712436 1_555
Zn12 Zn4 2.712436 1_555
Zn12 Zn5 2.712451 1_555
Zn12 Zn9 3.052203 1_554
Zn12 Zn7 3.052203 1_455
Zn13 Zn22 2.703800 1_555
Zn13 Zn20 2.703809 1_555
Zn13 Zn19 2.703809 1_555
Zn13 Zn4 2.712436 1_555
Zn13 Zn2 2.712436 1_555
Zn13 Zn6 2.712451 1_555
Zn13 Zn8 3.052203 1_554
Zn13 Zn7 3.052203 1_545
Zn14 Zn19 2.703795 1_555
Zn14 Zn20 2.703795 1_555
Zn14 Zn21 2.703795 1_555
Zn14 Zn5 2.712436 1_555
Zn14 Zn6 2.712436 1_555
Zn14 Zn7 3.052228 1_445
Zn14 Zn8 3.052228 1_454
Zn14 Zn9 3.052228 1_544
Zn15 Zn5 2.542777 1_656
Zn15 Zn6 2.542777 1_566
Zn15 Zn4 2.542777 1_556
Zn15 Zn9 2.703809 1_555
Zn15 Zn8 2.703809 1_555
Zn15 Zn17 2.766273 1_555
Zn15 Zn16 2.766273 1_555
Zn15 Zn18 2.766273 1_555
Zn16 Zn6 2.542777 1_566
Zn16 Zn2 2.542777 1_565
Zn16 Zn9 2.703809 1_555
Zn16 Zn7 2.703809 1_555
Zn16 Zn17 2.766273 1_555
Zn16 Zn18 2.766273 1_555
Zn17 Zn5 2.542777 1_656
Zn17 Zn3 2.542777 1_655
Zn17 Zn8 2.703809 1_555
Zn17 Zn7 2.703809 1_555
Zn17 Zn18 2.766273 1_555
Zn18 Zn3 2.542777 1_655
Zn18 Zn4 2.542777 1_556
Zn18 Zn2 2.542777 1_565
Zn18 Zn9 2.703800 1_555
Zn18 Zn7 2.703800 1_555
Zn18 Zn8 2.703800 1_555
Zn19 Zn6 2.542777 1_555
Zn19 Zn5 2.542777 1_555
Zn19 Zn4 2.542777 1_555
Zn19 Zn20 2.766273 1_555
Zn19 Zn21 2.766273 1_555
Zn19 Zn22 2.766273 1_555
Zn20 Zn6 2.542777 1_555
Zn20 Zn21 2.766273 1_555
Zn20 Zn22 2.766273 1_555
Zn21 Zn5 2.542777 1_555
Zn21 Zn3 2.542777 1_555
Zn21 Zn22 2.766273 1_555
Zn22 Zn4 2.542777 1_555
Zn22 Zn3 2.542777 1_555
