# generated using pymatgen
data_Mg14NiB
_symmetry_space_group_name_H-M   'P 1'
_cell_length_a   6.29025384
_cell_length_b   6.42239207
_cell_length_c   9.59130923
_cell_angle_alpha   90.00000000
_cell_angle_beta   90.00000000
_cell_angle_gamma   120.69737262
_symmetry_Int_Tables_number   1
_chemical_formula_structural   Mg14NiB
_chemical_formula_sum   'Mg14 Ni1 B1'
_cell_volume   333.17971036
_cell_formula_units_Z   1
loop_
 _symmetry_equiv_pos_site_id
 _symmetry_equiv_pos_as_xyz
  1  'x, y, z'
loop_
 _atom_site_type_symbol
 _atom_site_label
 _atom_site_symmetry_multiplicity
 _atom_site_fract_x
 _atom_site_fract_y
 _atom_site_fract_z
 _atom_site_occupancy
  Mg  Mg0  1  0.18176762  0.34088331  0.62500000  1
  Mg  Mg1  1  0.17841723  0.83920812  0.62500000  1
  Mg  Mg2  1  0.76370364  0.38751397  0.12500000  1
  Mg  Mg3  1  0.66150636  0.33220196  0.62500000  1
  Mg  Mg4  1  0.76370364  0.87618868  0.12500000  1
  Mg  Mg5  1  0.66150636  0.82930340  0.62500000  1
  Mg  Mg6  1  0.30620522  0.14382616  0.31337556  1
  Mg  Mg7  1  0.30620522  0.14382616  0.93662444  1
  Mg  Mg8  1  0.30620522  0.66238006  0.31337556  1
  Mg  Mg9  1  0.30620522  0.66238006  0.93662444  1
  Mg  Mg10  1  0.83500405  0.16750252  0.37547811  1
  Mg  Mg11  1  0.83500405  0.16750252  0.87452189  1
  Mg  Mg12  1  0.82706976  0.66353538  0.37555622  1
  Mg  Mg13  1  0.82706976  0.66353538  0.87444378  1
  Ni  Ni0  1  0.13076506  0.31538203  0.12500000  1
  B  B0  1  0.10966157  0.80483028  0.12500000  1
loop_
_geom_bond_atom_site_label_1
_geom_bond_atom_site_label_2
_geom_bond_distance
_geom_bond_site_symmetry_2
Mg0 Mg10 3.040630 1_455
Mg0 Mg11 3.040630 1_455
Mg0 Mg5 3.046519 1_555
Mg0 Mg3 3.046519 1_555
Mg0 Mg1 3.211247 1_545
Mg0 Mg1 3.211247 1_555
Mg0 Mg5 3.244466 1_445
Mg0 Mg3 3.244466 1_455
Mg0 Mg6 3.487012 1_555
Mg0 Mg7 3.487012 1_555
Mg0 Mg9 3.487018 1_555
Mg0 Mg8 3.487018 1_555
Mg1 Mg12 3.055400 1_455
Mg1 Mg13 3.055400 1_455
Mg1 Mg3 3.071714 1_565
Mg1 Mg5 3.071714 1_555
Mg1 Mg3 3.219491 1_455
Mg1 Mg5 3.219491 1_455
Mg1 Mg9 3.435306 1_555
Mg1 Mg8 3.435306 1_555
Mg1 Mg6 3.435312 1_565
Mg1 Mg7 3.435312 1_565
Mg2 Ni0 2.576386 1_655
Mg3 Mg5 3.192580 1_555
Mg3 Mg5 3.229812 1_545
Mg4 Ni0 2.576386 1_665
Mg6 Ni0 2.633946 1_555
Mg7 Ni0 2.633946 1_556
Mg8 Ni0 2.633954 1_555
Mg9 Ni0 2.633954 1_556
Mg10 Ni0 2.886295 1_655
Mg10 Mg3 3.035809 1_555
Mg10 Mg5 3.035816 1_545
Mg11 Ni0 2.886295 1_656
Mg11 Mg3 3.035809 1_555
Mg11 Mg5 3.035816 1_545
Mg12 Mg5 3.012320 1_555
Mg12 Mg3 3.012327 1_555
Mg13 Mg5 3.012320 1_555
Mg13 Mg3 3.012327 1_555
B0 Mg2 2.442127 1_455
B0 Mg4 2.442127 1_455
B0 Mg9 2.604743 1_554
B0 Mg8 2.604743 1_555
B0 Mg6 2.604751 1_565
B0 Mg7 2.604751 1_564
B0 Mg13 2.848066 1_454
B0 Mg12 2.848066 1_455
