# generated using pymatgen
data_Cr5O12
_symmetry_space_group_name_H-M   'P 1'
_cell_length_a   8.39352500
_cell_length_b   8.43368500
_cell_length_c   12.27254300
_cell_angle_alpha   90.00000000
_cell_angle_beta   90.00000000
_cell_angle_gamma   90.00000000
_symmetry_Int_Tables_number   1
_chemical_formula_structural   Cr5O12
_chemical_formula_sum   'Cr20 O48'
_cell_volume   868.75301883
_cell_formula_units_Z   4
loop_
 _symmetry_equiv_pos_site_id
 _symmetry_equiv_pos_as_xyz
  1  'x, y, z'
loop_
 _atom_site_type_symbol
 _atom_site_label
 _atom_site_symmetry_multiplicity
 _atom_site_fract_x
 _atom_site_fract_y
 _atom_site_fract_z
 _atom_site_occupancy
  Cr  Cr0  1  0.89049000  0.74805600  0.41341600  1
  Cr  Cr1  1  0.39049000  0.75194400  0.08658400  1
  Cr  Cr2  1  0.60951000  0.74805600  0.58658400  1
  Cr  Cr3  1  0.10951000  0.75194400  0.91341600  1
  Cr  Cr4  1  0.10951000  0.25194400  0.58658400  1
  Cr  Cr5  1  0.60951000  0.24805600  0.91341600  1
  Cr  Cr6  1  0.39049000  0.25194400  0.41341600  1
  Cr  Cr7  1  0.89049000  0.24805600  0.08658400  1
  Cr  Cr8  1  0.52858200  0.61010600  0.32850300  1
  Cr  Cr9  1  0.02858200  0.88989400  0.17149700  1
  Cr  Cr10  1  0.97141800  0.61010600  0.67149700  1
  Cr  Cr11  1  0.47141800  0.88989400  0.82850300  1
  Cr  Cr12  1  0.47141800  0.38989400  0.67149700  1
  Cr  Cr13  1  0.97141800  0.11010600  0.82850300  1
  Cr  Cr14  1  0.02858200  0.38989400  0.32850300  1
  Cr  Cr15  1  0.52858200  0.11010600  0.17149700  1
  Cr  Cr16  1  0.75000000  0.10280400  0.50000000  1
  Cr  Cr17  1  0.25000000  0.39719600  0.00000000  1
  Cr  Cr18  1  0.25000000  0.89719600  0.50000000  1
  Cr  Cr19  1  0.75000000  0.60280400  0.00000000  1
  O  O0  1  0.64375200  0.00863300  0.24564000  1
  O  O1  1  0.14375200  0.49136700  0.25436000  1
  O  O2  1  0.85624800  0.00863300  0.75436000  1
  O  O3  1  0.35624800  0.49136700  0.74564000  1
  O  O4  1  0.35624800  0.99136700  0.75436000  1
  O  O5  1  0.85624800  0.50863300  0.74564000  1
  O  O6  1  0.14375200  0.99136700  0.24564000  1
  O  O7  1  0.64375200  0.50863300  0.25436000  1
  O  O8  1  0.62372600  0.21982200  0.43095200  1
  O  O9  1  0.12372600  0.28017800  0.06904800  1
  O  O10  1  0.87627400  0.21982200  0.56904800  1
  O  O11  1  0.37627400  0.28017800  0.93095200  1
  O  O12  1  0.37627400  0.78017800  0.56904800  1
  O  O13  1  0.87627400  0.71982200  0.93095200  1
  O  O14  1  0.12372600  0.78017800  0.43095200  1
  O  O15  1  0.62372600  0.71982200  0.06904800  1
  O  O16  1  0.14511900  0.01568200  0.58025300  1
  O  O17  1  0.85488100  0.98431800  0.41974700  1
  O  O18  1  0.64511900  0.98431800  0.58025300  1
  O  O19  1  0.14511900  0.51568200  0.91974700  1
  O  O20  1  0.91564400  0.27356600  0.24791300  1
  O  O21  1  0.41564400  0.22643400  0.25208700  1
  O  O22  1  0.58435600  0.27356600  0.75208700  1
  O  O23  1  0.08435600  0.22643400  0.74791300  1
  O  O24  1  0.08435600  0.72643400  0.75208700  1
  O  O25  1  0.58435600  0.77356600  0.74791300  1
  O  O26  1  0.41564400  0.72643400  0.24791300  1
  O  O27  1  0.91564400  0.77356600  0.25208700  1
  O  O28  1  0.64732100  0.22200100  0.07903200  1
  O  O29  1  0.14732100  0.27799900  0.42096800  1
  O  O30  1  0.85267900  0.22200100  0.92096800  1
  O  O31  1  0.35267900  0.27799900  0.57903200  1
  O  O32  1  0.35267900  0.77799900  0.92096800  1
  O  O33  1  0.85267900  0.72200100  0.57903200  1
  O  O34  1  0.14732100  0.77799900  0.07903200  1
  O  O35  1  0.64732100  0.72200100  0.42096800  1
  O  O36  1  0.91273800  0.01492600  0.10118200  1
  O  O37  1  0.41273800  0.48507400  0.39881800  1
  O  O38  1  0.58726200  0.01492600  0.89881800  1
  O  O39  1  0.08726200  0.48507400  0.60118200  1
  O  O40  1  0.08726200  0.98507400  0.89881800  1
  O  O41  1  0.58726200  0.51492600  0.60118200  1
  O  O42  1  0.41273800  0.98507400  0.10118200  1
  O  O43  1  0.91273800  0.51492600  0.39881800  1
  O  O44  1  0.85488100  0.48431800  0.08025300  1
  O  O45  1  0.35488100  0.01568200  0.41974700  1
  O  O46  1  0.64511900  0.48431800  0.91974700  1
  O  O47  1  0.35488100  0.51568200  0.08025300  1
loop_
_geom_bond_atom_site_label_1
_geom_bond_atom_site_label_2
_geom_bond_distance
_geom_bond_site_symmetry_2
Cr0 O43 1.983102 1_555
Cr0 O14 1.988011 1_655
Cr0 O27 2.002732 1_555
Cr0 O17 2.016349 1_555
Cr0 O35 2.054931 1_555
Cr0 O33 2.068861 1_555
Cr1 O42 1.983102 1_555
Cr1 O15 1.988011 1_555
Cr1 O26 2.002732 1_555
Cr1 O47 2.016349 1_555
Cr1 O34 2.054931 1_555
Cr1 O32 2.068861 1_554
Cr2 O41 1.983102 1_555
Cr2 O12 1.988011 1_555
Cr2 O25 2.002732 1_555
Cr2 O18 2.016349 1_555
Cr2 O33 2.054931 1_555
Cr2 O35 2.068861 1_555
Cr3 O40 1.983102 1_555
Cr3 O13 1.988011 1_455
Cr3 O24 2.002732 1_555
Cr3 O19 2.016349 1_555
Cr3 O32 2.054931 1_555
Cr3 O34 2.068861 1_556
Cr4 O39 1.983102 1_555
Cr4 O10 1.988011 1_455
Cr4 O23 2.002732 1_555
Cr4 O16 2.016349 1_555
Cr4 O31 2.054931 1_555
Cr4 O29 2.068861 1_555
Cr5 O38 1.983102 1_555
Cr5 O11 1.988011 1_555
Cr5 O22 2.002732 1_555
Cr5 O46 2.016349 1_555
Cr5 O30 2.054931 1_555
Cr5 O28 2.068861 1_556
Cr6 O37 1.983102 1_555
Cr6 O8 1.988011 1_555
Cr6 O21 2.002732 1_555
Cr6 O45 2.016349 1_555
Cr6 O29 2.054931 1_555
Cr6 O31 2.068861 1_555
Cr7 O36 1.983102 1_555
Cr7 O9 1.988011 1_655
Cr7 O20 2.002732 1_555
Cr7 O44 2.016349 1_555
Cr7 O28 2.054931 1_555
Cr7 O30 2.068861 1_554
Cr8 O7 1.579498 1_555
Cr8 O37 1.673931 1_555
Cr8 O26 1.685028 1_555
Cr8 O35 1.780888 1_555
Cr9 O6 1.579498 1_555
Cr9 O36 1.673931 1_465
Cr9 O27 1.685028 1_455
Cr9 O34 1.780888 1_555
Cr10 O5 1.579498 1_555
Cr10 O39 1.673931 1_655
Cr10 O24 1.685028 1_655
Cr10 O33 1.780888 1_555
Cr11 O4 1.579498 1_555
Cr11 O38 1.673931 1_565
Cr11 O25 1.685028 1_555
Cr11 O32 1.780888 1_555
Cr12 O3 1.579498 1_555
Cr12 O41 1.673931 1_555
Cr12 O22 1.685028 1_555
Cr12 O31 1.780888 1_555
Cr13 O2 1.579498 1_555
Cr13 O40 1.673931 1_645
Cr13 O23 1.685028 1_655
Cr13 O30 1.780888 1_555
Cr14 O1 1.579498 1_555
Cr14 O43 1.673931 1_455
Cr14 O20 1.685028 1_455
Cr14 O29 1.780888 1_555
Cr15 O0 1.579498 1_555
Cr15 O42 1.673931 1_545
Cr15 O21 1.685028 1_555
Cr15 O28 1.780888 1_555
Cr16 O18 1.656369 1_545
Cr16 O17 1.656369 1_545
Cr16 O10 1.677912 1_555
Cr16 O8 1.677912 1_555
Cr17 O47 1.656369 1_555
Cr17 O19 1.656369 1_554
Cr17 O11 1.677912 1_554
Cr17 O9 1.677912 1_555
Cr18 O45 1.656369 1_565
Cr18 O16 1.656369 1_565
Cr18 O12 1.677912 1_555
Cr18 O14 1.677912 1_555
Cr19 O44 1.656369 1_555
Cr19 O46 1.656369 1_554
Cr19 O15 1.677912 1_555
Cr19 O13 1.677912 1_554
