# generated using pymatgen
data_SrCuTe2O7
_symmetry_space_group_name_H-M   'P 1'
_cell_length_a   5.51777200
_cell_length_b   7.23501100
_cell_length_c   15.48998200
_cell_angle_alpha   90.00000000
_cell_angle_beta   90.00000000
_cell_angle_gamma   90.00000000
_symmetry_Int_Tables_number   1
_chemical_formula_structural   SrCuTe2O7
_chemical_formula_sum   'Sr4 Cu4 Te8 O28'
_cell_volume   618.37775730
_cell_formula_units_Z   4
loop_
 _symmetry_equiv_pos_site_id
 _symmetry_equiv_pos_as_xyz
  1  'x, y, z'
loop_
 _atom_site_type_symbol
 _atom_site_label
 _atom_site_symmetry_multiplicity
 _atom_site_fract_x
 _atom_site_fract_y
 _atom_site_fract_z
 _atom_site_occupancy
  Sr  Sr0  1  0.75000000  0.77376500  0.45792100  1
  Sr  Sr1  1  0.25000000  0.22623500  0.54207900  1
  Sr  Sr2  1  0.25000000  0.77376500  0.04207900  1
  Sr  Sr3  1  0.75000000  0.22623500  0.95792100  1
  Cu  Cu0  1  0.25000000  0.73890900  0.61366400  1
  Cu  Cu1  1  0.75000000  0.26109100  0.38633600  1
  Cu  Cu2  1  0.75000000  0.73890900  0.88633600  1
  Cu  Cu3  1  0.25000000  0.26109100  0.11366400  1
  Te  Te0  1  0.75000000  0.99192400  0.67128100  1
  Te  Te1  1  0.25000000  0.00807600  0.32871900  1
  Te  Te2  1  0.25000000  0.99192400  0.82871900  1
  Te  Te3  1  0.75000000  0.00807600  0.17128100  1
  Te  Te4  1  0.75000000  0.48644800  0.67478900  1
  Te  Te5  1  0.25000000  0.51355200  0.32521100  1
  Te  Te6  1  0.25000000  0.48644800  0.82521100  1
  Te  Te7  1  0.75000000  0.51355200  0.17478900  1
  O  O0  1  0.75000000  0.23254700  0.61148500  1
  O  O1  1  0.25000000  0.76745300  0.38851500  1
  O  O2  1  0.25000000  0.23254700  0.88851500  1
  O  O3  1  0.75000000  0.76745300  0.11148500  1
  O  O4  1  0.00952600  0.54029000  0.59855700  1
  O  O5  1  0.50952600  0.45971000  0.40144300  1
  O  O6  1  0.99047400  0.54029000  0.90144300  1
  O  O7  1  0.49047400  0.45971000  0.09855700  1
  O  O8  1  0.99047400  0.45971000  0.40144300  1
  O  O9  1  0.49047400  0.54029000  0.59855700  1
  O  O10  1  0.00952600  0.45971000  0.09855700  1
  O  O11  1  0.50952600  0.54029000  0.90144300  1
  O  O12  1  0.75000000  0.75699500  0.73046700  1
  O  O13  1  0.25000000  0.24300500  0.26953300  1
  O  O14  1  0.25000000  0.75699500  0.76953300  1
  O  O15  1  0.75000000  0.24300500  0.23046700  1
  O  O16  1  0.99995900  0.92359700  0.58944800  1
  O  O17  1  0.49995900  0.07640300  0.41055200  1
  O  O18  1  0.00004100  0.92359700  0.91055200  1
  O  O19  1  0.50004100  0.07640300  0.08944800  1
  O  O20  1  0.00004100  0.07640300  0.41055200  1
  O  O21  1  0.50004100  0.92359700  0.58944800  1
  O  O22  1  0.99995900  0.07640300  0.08944800  1
  O  O23  1  0.49995900  0.92359700  0.91055200  1
  O  O24  1  0.50000000  0.10518300  0.75000000  1
  O  O25  1  0.00000000  0.89481700  0.25000000  1
  O  O26  1  0.50000000  0.89481700  0.25000000  1
  O  O27  1  0.00000000  0.10518300  0.75000000  1
loop_
_geom_bond_atom_site_label_1
_geom_bond_atom_site_label_2
_geom_bond_distance
_geom_bond_site_symmetry_2
Cu0 O21 1.956955 1_555
Cu0 O16 1.956955 1_455
Cu0 O9 1.969866 1_555
Cu0 O4 1.969866 1_555
Cu0 O14 2.417951 1_555
Cu1 O20 1.956955 1_655
Cu1 O17 1.956955 1_555
Cu1 O8 1.969866 1_555
Cu1 O5 1.969866 1_555
Cu1 O15 2.417951 1_555
Cu2 O18 1.956955 1_655
Cu2 O23 1.956955 1_555
Cu2 O6 1.969866 1_555
Cu2 O11 1.969866 1_555
Cu2 O12 2.417951 1_555
Cu3 O19 1.956955 1_555
Cu3 O22 1.956955 1_455
Cu3 O7 1.969866 1_555
Cu3 O10 1.969866 1_555
Cu3 O13 2.417951 1_555
O0 Te0 1.971975 1_545
O0 Te4 2.082310 1_555
O0 Sr1 2.961313 1_655
O0 Sr1 2.961313 1_555
O1 Te1 1.971975 1_565
O1 Te5 2.082310 1_555
O1 Sr0 2.961313 1_555
O1 Sr0 2.961313 1_455
O2 Te2 1.971975 1_545
O2 Te6 2.082310 1_555
O2 Sr3 2.961313 1_555
O2 Sr3 2.961313 1_455
O3 Te3 1.971975 1_565
O3 Te7 2.082310 1_555
O3 Sr2 2.961313 1_555
O3 Sr2 2.961313 1_655
O4 Te4 1.896510 1_455
O4 Sr1 2.772872 1_555
O4 Sr0 3.106390 1_455
O5 Te5 1.896510 1_555
O5 Sr0 2.772872 1_555
O5 Sr1 3.106390 1_555
O6 Te6 1.896510 1_655
O6 Sr3 2.772872 1_555
O6 Sr2 3.106390 1_656
O7 Te7 1.896510 1_555
O7 Sr2 2.772872 1_555
O7 Sr3 3.106390 1_554
O8 Te5 1.896510 1_655
O8 Sr0 2.772872 1_555
O8 Sr1 3.106390 1_655
O9 Te4 1.896510 1_555
O9 Sr1 2.772872 1_555
O9 Sr0 3.106390 1_555
O10 Te7 1.896510 1_455
O10 Sr2 2.772872 1_555
O10 Sr3 3.106390 1_454
O11 Te6 1.896510 1_555
O11 Sr3 2.772872 1_555
O11 Sr2 3.106390 1_556
O12 Te0 1.931199 1_555
O12 Te4 2.138990 1_555
O13 Te1 1.931199 1_555
O13 Te5 2.138990 1_555
O14 Te2 1.931199 1_555
O14 Te6 2.138990 1_555
O15 Te3 1.931199 1_555
O15 Te7 2.138990 1_555
O16 Te0 1.937371 1_555
O16 Sr0 2.688526 1_555
O16 Sr1 2.690013 1_665
O17 Te1 1.937371 1_555
O17 Sr1 2.688526 1_555
O17 Sr0 2.690013 1_545
O18 Te2 1.937371 1_555
O18 Sr2 2.688526 1_556
O18 Sr3 2.690013 1_465
O19 Te3 1.937371 1_555
O19 Sr3 2.688526 1_554
O19 Sr2 2.690013 1_545
O20 Te1 1.937371 1_555
O20 Sr1 2.688526 1_555
O20 Sr0 2.690013 1_445
O21 Te0 1.937371 1_555
O21 Sr0 2.688526 1_555
O21 Sr1 2.690013 1_565
O22 Te3 1.937371 1_555
O22 Sr3 2.688526 1_554
O22 Sr2 2.690013 1_645
O23 Te2 1.937371 1_555
O23 Sr2 2.688526 1_556
O23 Sr3 2.690013 1_565
O24 Te0 2.015231 1_545
O24 Te2 2.015231 1_545
O25 Te1 2.015231 1_565
O25 Te3 2.015231 1_465
O26 Te1 2.015231 1_565
O26 Te3 2.015231 1_565
O27 Te0 2.015231 1_445
O27 Te2 2.015231 1_545
