# generated using pymatgen
data_Sr3Ta3N5
_symmetry_space_group_name_H-M   'P 1'
_cell_length_a   6.23622101
_cell_length_b   8.24865112
_cell_length_c   8.35487597
_cell_angle_alpha   109.21251510
_cell_angle_beta   102.39974764
_cell_angle_gamma   102.83894158
_symmetry_Int_Tables_number   1
_chemical_formula_structural   Sr3Ta3N5
_chemical_formula_sum   'Sr6 Ta6 N10'
_cell_volume   375.85820720
_cell_formula_units_Z   2
loop_
 _symmetry_equiv_pos_site_id
 _symmetry_equiv_pos_as_xyz
  1  'x, y, z'
loop_
 _atom_site_type_symbol
 _atom_site_label
 _atom_site_symmetry_multiplicity
 _atom_site_fract_x
 _atom_site_fract_y
 _atom_site_fract_z
 _atom_site_occupancy
  Sr  Sr0  1  0.73559100  0.43659600  0.59159900  1
  Sr  Sr1  1  0.26440900  0.56340400  0.40840100  1
  Sr  Sr2  1  0.64279300  0.84902600  0.87873700  1
  Sr  Sr3  1  0.35720700  0.15097400  0.12126300  1
  Sr  Sr4  1  0.67875800  0.68360000  0.23241200  1
  Sr  Sr5  1  0.32124200  0.31640000  0.76758800  1
  Ta  Ta0  1  0.90066700  0.30686500  0.96147700  1
  Ta  Ta1  1  0.09933300  0.69313500  0.03852300  1
  Ta  Ta2  1  0.72882800  0.01894600  0.59792100  1
  Ta  Ta3  1  0.27117200  0.98105400  0.40207900  1
  Ta  Ta4  1  0.09105600  0.87356800  0.68548100  1
  Ta  Ta5  1  0.90894400  0.12643200  0.31451900  1
  N  N0  1  0.01784900  0.09153200  0.83758800  1
  N  N1  1  0.98215100  0.90846800  0.16241200  1
  N  N2  1  0.73066700  0.74758300  0.57166900  1
  N  N3  1  0.26933300  0.25241700  0.42833100  1
  N  N4  1  0.77796000  0.51563400  0.93258300  1
  N  N5  1  0.22204000  0.48436600  0.06741700  1
  N  N6  1  0.40262500  0.95365100  0.63859500  1
  N  N7  1  0.59737500  0.04634900  0.36140500  1
  N  N8  1  0.19980100  0.75313400  0.84801700  1
  N  N9  1  0.80019900  0.24686600  0.15198300  1
loop_
_geom_bond_atom_site_label_1
_geom_bond_atom_site_label_2
_geom_bond_distance
_geom_bond_site_symmetry_2
N0 Ta4 2.041106 1_545
N0 Ta0 2.109982 1_455
N0 Ta2 2.190446 1_455
N0 Sr3 2.637486 1_556
N0 Sr5 2.644200 1_555
N0 Sr2 2.882504 1_445
N1 Ta5 2.041106 1_565
N1 Ta1 2.109982 1_655
N1 Ta3 2.190446 1_655
N1 Sr2 2.637486 1_554
N1 Sr4 2.644200 1_555
N1 Sr3 2.882504 1_665
N2 Ta4 2.104542 1_655
N2 Ta2 2.178979 1_565
N2 Sr0 2.631154 1_555
N2 Sr4 2.638732 1_555
N2 Sr2 2.641412 1_555
N2 Sr1 2.755525 1_555
N3 Ta5 2.104542 1_455
N3 Ta3 2.178979 1_545
N3 Sr1 2.631154 1_555
N3 Sr5 2.638732 1_555
N3 Sr3 2.641412 1_555
N3 Sr0 2.755525 1_555
N4 Ta1 2.006224 1_656
N4 Ta0 2.095057 1_555
N4 Sr0 2.643622 1_555
N4 Sr4 2.709198 1_556
N4 Sr5 2.730547 1_555
N4 Sr2 3.187037 1_555
N5 Ta0 2.006224 1_454
N5 Ta1 2.095057 1_555
N5 Sr1 2.643622 1_555
N5 Sr5 2.709198 1_554
N5 Sr4 2.730547 1_555
N5 Sr3 3.187037 1_555
N6 Ta4 2.071684 1_555
N6 Ta3 2.075708 1_555
N6 Ta2 2.115243 1_565
N6 Sr2 2.727085 1_555
N6 Sr1 2.963827 1_555
N6 Sr5 3.026502 1_565
N7 Ta5 2.071684 1_555
N7 Ta2 2.075708 1_555
N7 Ta3 2.115243 1_545
N7 Sr3 2.727085 1_555
N7 Sr0 2.963827 1_555
N7 Sr4 3.026502 1_545
N8 Ta1 1.994933 1_556
N8 Ta4 2.020549 1_555
N8 Sr2 2.629487 1_555
N8 Sr3 3.101585 1_566
N8 Sr0 3.175433 1_455
N9 Ta0 1.994933 1_554
N9 Ta5 2.020549 1_555
N9 Sr3 2.629487 1_555
N9 Sr2 3.101585 1_544
N9 Sr1 3.175433 1_655
