# generated using pymatgen
data_Mg2SiS4
_symmetry_space_group_name_H-M   'P 1'
_cell_length_a   5.92784317
_cell_length_b   7.43282373
_cell_length_c   12.70736027
_cell_angle_alpha   90.00000000
_cell_angle_beta   90.00000000
_cell_angle_gamma   90.00000000
_symmetry_Int_Tables_number   1
_chemical_formula_structural   Mg2SiS4
_chemical_formula_sum   'Mg8 Si4 S16'
_cell_volume   559.89408796
_cell_formula_units_Z   4
loop_
 _symmetry_equiv_pos_site_id
 _symmetry_equiv_pos_as_xyz
  1  'x, y, z'
loop_
 _atom_site_type_symbol
 _atom_site_label
 _atom_site_symmetry_multiplicity
 _atom_site_fract_x
 _atom_site_fract_y
 _atom_site_fract_z
 _atom_site_occupancy
  Mg  Mg0  1  0.00000000  0.50000000  -0.00000000  1
  Mg  Mg1  1  0.50000000  -0.00000000  0.50000000  1
  Mg  Mg2  1  0.00000000  -0.00000000  -0.00000000  1
  Mg  Mg3  1  0.50000000  0.50000000  0.50000000  1
  Mg  Mg4  1  0.49216993  0.75000000  0.23153399  1
  Mg  Mg5  1  0.00783007  0.75000000  0.73153399  1
  Mg  Mg6  1  0.50783007  0.25000000  0.76846601  1
  Mg  Mg7  1  0.99216993  0.25000000  0.26846601  1
  Si  Si0  1  0.90605999  0.75000000  0.41061760  1
  Si  Si1  1  0.59394001  0.75000000  0.91061760  1
  Si  Si2  1  0.09394001  0.25000000  0.58938240  1
  Si  Si3  1  0.40605999  0.25000000  0.08938240  1
  S  S0  1  0.26077574  0.75000000  0.40771054  1
  S  S1  1  0.23922426  0.75000000  0.90771054  1
  S  S2  1  0.73922426  0.25000000  0.59228946  1
  S  S3  1  0.76077574  0.25000000  0.09228946  1
  S  S4  1  0.76163768  0.75000000  0.56511889  1
  S  S5  1  0.73836232  0.75000000  0.06511889  1
  S  S6  1  0.23836232  0.25000000  0.43488111  1
  S  S7  1  0.26163768  0.25000000  0.93488111  1
  S  S8  1  0.75370982  0.52444135  0.33392760  1
  S  S9  1  0.74629018  0.97555865  0.83392760  1
  S  S10  1  0.24629018  0.02444135  0.66607240  1
  S  S11  1  0.25370982  0.47555865  0.16607240  1
  S  S12  1  0.24629018  0.47555865  0.66607240  1
  S  S13  1  0.25370982  0.02444135  0.16607240  1
  S  S14  1  0.75370982  0.97555865  0.33392760  1
  S  S15  1  0.74629018  0.52444135  0.83392760  1
loop_
_geom_bond_atom_site_label_1
_geom_bond_atom_site_label_2
_geom_bond_distance
_geom_bond_site_symmetry_2
Mg0 S5 2.557949 1_455
Mg0 S7 2.557949 1_554
Mg0 S15 2.597772 1_454
Mg0 S11 2.597772 1_555
Mg0 S3 2.615195 1_455
Mg0 S1 2.615195 1_554
Mg1 S6 2.557949 1_555
Mg1 S4 2.557949 1_545
Mg1 S14 2.597772 1_545
Mg1 S10 2.597772 1_555
Mg1 S0 2.615195 1_545
Mg1 S2 2.615195 1_555
Mg2 S5 2.557949 1_445
Mg2 S7 2.557949 1_554
Mg2 S13 2.597772 1_555
Mg2 S9 2.597772 1_444
Mg2 S3 2.615195 1_455
Mg2 S1 2.615195 1_544
Mg3 S6 2.557949 1_555
Mg3 S4 2.557949 1_555
Mg3 S8 2.597772 1_555
Mg3 S12 2.597772 1_555
Mg3 S0 2.615195 1_555
Mg3 S2 2.615195 1_555
Mg4 S5 2.569389 1_555
Mg4 S11 2.617477 1_555
Mg4 S13 2.617477 1_565
Mg4 S0 2.625534 1_555
Mg4 S14 2.628196 1_555
Mg4 S8 2.628196 1_555
Mg5 S4 2.569389 1_455
Mg5 S12 2.617477 1_555
Mg5 S10 2.617477 1_565
Mg5 S1 2.625534 1_555
Mg5 S15 2.628196 1_455
Mg5 S9 2.628196 1_455
Mg6 S7 2.569389 1_555
Mg6 S9 2.617477 1_545
Mg6 S15 2.617477 1_555
Mg6 S2 2.625534 1_555
Mg6 S10 2.628196 1_555
Mg6 S12 2.628196 1_555
Mg7 S6 2.569389 1_655
Mg7 S8 2.617477 1_555
Mg7 S14 2.617477 1_545
Mg7 S3 2.625534 1_555
Mg7 S11 2.628196 1_655
Mg7 S13 2.628196 1_655
S0 Si0 2.103024 1_455
S1 Si1 2.103024 1_555
S2 Si2 2.103024 1_655
S3 Si3 2.103024 1_555
S4 Si0 2.141843 1_555
S5 Si1 2.141843 1_554
S6 Si2 2.141843 1_555
S7 Si3 2.141843 1_556
S8 Si0 2.139179 1_555
S9 Si1 2.139179 1_555
S10 Si2 2.139179 1_555
S11 Si3 2.139179 1_555
S12 Si2 2.139179 1_555
S13 Si3 2.139179 1_555
S14 Si0 2.139179 1_555
S15 Si1 2.139179 1_555
