# generated using pymatgen
data_Yb13Zn58
_symmetry_space_group_name_H-M   'P 1'
_cell_length_a   13.98460566
_cell_length_b   14.38156944
_cell_length_c   14.38156944
_cell_angle_alpha   119.99969942
_cell_angle_beta   90.00000000
_cell_angle_gamma   90.00000000
_symmetry_Int_Tables_number   1
_chemical_formula_structural   Yb13Zn58
_chemical_formula_sum   'Yb26 Zn116'
_cell_volume   2504.92505578
_cell_formula_units_Z   2
loop_
 _symmetry_equiv_pos_site_id
 _symmetry_equiv_pos_as_xyz
  1  'x, y, z'
loop_
 _atom_site_type_symbol
 _atom_site_label
 _atom_site_symmetry_multiplicity
 _atom_site_fract_x
 _atom_site_fract_y
 _atom_site_fract_z
 _atom_site_occupancy
  Yb  Yb0  1  0.50000000  -0.00000000  -0.00000000  1
  Yb  Yb1  1  -0.00000000  -0.00000000  -0.00000000  1
  Yb  Yb2  1  0.75000000  0.45576944  0.91153931  1
  Yb  Yb3  1  0.75000000  0.45577228  0.54422772  1
  Yb  Yb4  1  0.75000000  0.08846069  0.54423056  1
  Yb  Yb5  1  0.25000000  0.54423056  0.08846069  1
  Yb  Yb6  1  0.25000000  0.54422772  0.45577228  1
  Yb  Yb7  1  0.25000000  0.91153931  0.45576944  1
  Yb  Yb8  1  0.75000000  0.12412236  0.24824246  1
  Yb  Yb9  1  0.75000000  0.12411823  0.87588177  1
  Yb  Yb10  1  0.75000000  0.75175754  0.87587764  1
  Yb  Yb11  1  0.25000000  0.87587764  0.75175754  1
  Yb  Yb12  1  0.25000000  0.87588177  0.12411823  1
  Yb  Yb13  1  0.25000000  0.24824246  0.12412236  1
  Yb  Yb14  1  0.55346452  0.79306996  0.58614051  1
  Yb  Yb15  1  0.55346532  0.79307035  0.20692965  1
  Yb  Yb16  1  0.55346452  0.41385949  0.20693004  1
  Yb  Yb17  1  0.44653548  0.20693004  0.41385949  1
  Yb  Yb18  1  0.44653468  0.20692965  0.79307035  1
  Yb  Yb19  1  0.44653548  0.58614051  0.79306996  1
  Yb  Yb20  1  0.05346452  0.20693004  0.41385949  1
  Yb  Yb21  1  0.05346532  0.20692965  0.79307035  1
  Yb  Yb22  1  0.05346452  0.58614051  0.79306996  1
  Yb  Yb23  1  0.94653548  0.79306996  0.58614051  1
  Yb  Yb24  1  0.94653468  0.79307035  0.20692965  1
  Yb  Yb25  1  0.94653548  0.41385949  0.20693004  1
  Zn  Zn0  1  0.75000000  0.99999943  0.00000057  1
  Zn  Zn1  1  0.25000000  0.00000057  0.99999943  1
  Zn  Zn2  1  0.25000000  0.66666595  0.33333405  1
  Zn  Zn3  1  0.75000000  0.33333405  0.66666595  1
  Zn  Zn4  1  0.59496097  0.66666734  0.33333266  1
  Zn  Zn5  1  0.40503903  0.33333266  0.66666734  1
  Zn  Zn6  1  0.09496097  0.33333266  0.66666734  1
  Zn  Zn7  1  0.90503903  0.66666734  0.33333266  1
  Zn  Zn8  1  0.50000000  0.50000000  -0.00000000  1
  Zn  Zn9  1  0.50000000  0.50000000  0.50000000  1
  Zn  Zn10  1  0.50000000  -0.00000000  0.50000000  1
  Zn  Zn11  1  -0.00000000  0.50000000  -0.00000000  1
  Zn  Zn12  1  -0.00000000  0.50000000  0.50000000  1
  Zn  Zn13  1  -0.00000000  -0.00000000  0.50000000  1
  Zn  Zn14  1  0.75000000  0.72985112  0.45969760  1
  Zn  Zn15  1  0.75000000  0.72985009  0.27014991  1
  Zn  Zn16  1  0.75000000  0.54030240  0.27014888  1
  Zn  Zn17  1  0.25000000  0.27014888  0.54030240  1
  Zn  Zn18  1  0.25000000  0.27014991  0.72985009  1
  Zn  Zn19  1  0.25000000  0.45969760  0.72985112  1
  Zn  Zn20  1  0.49999955  0.80050769  0.99999966  1
  Zn  Zn21  1  0.50000000  0.19949505  0.19949505  1
  Zn  Zn22  1  0.50000045  0.99999966  0.80050769  1
  Zn  Zn23  1  0.50000045  0.19949231  0.00000034  1
  Zn  Zn24  1  0.49999955  0.00000034  0.19949231  1
  Zn  Zn25  1  0.50000000  0.80050495  0.80050495  1
  Zn  Zn26  1  0.99999955  0.19949231  0.00000034  1
  Zn  Zn27  1  -0.00000000  0.80050495  0.80050495  1
  Zn  Zn28  1  0.00000045  0.00000034  0.19949231  1
  Zn  Zn29  1  0.00000045  0.80050769  0.99999966  1
  Zn  Zn30  1  0.99999955  0.99999966  0.80050769  1
  Zn  Zn31  1  -0.00000000  0.19949505  0.19949505  1
  Zn  Zn32  1  0.75000000  0.91358216  0.63457527  1
  Zn  Zn33  1  0.75000000  0.72099465  0.08641699  1
  Zn  Zn34  1  0.75000000  0.36542771  0.27900916  1
  Zn  Zn35  1  0.75000000  0.72099084  0.63457229  1
  Zn  Zn36  1  0.75000000  0.36542473  0.08641784  1
  Zn  Zn37  1  0.75000000  0.91358301  0.27900535  1
  Zn  Zn38  1  0.25000000  0.08641784  0.36542473  1
  Zn  Zn39  1  0.25000000  0.27900535  0.91358301  1
  Zn  Zn40  1  0.25000000  0.63457229  0.72099084  1
  Zn  Zn41  1  0.25000000  0.27900916  0.36542771  1
  Zn  Zn42  1  0.25000000  0.63457527  0.91358216  1
  Zn  Zn43  1  0.25000000  0.08641699  0.72099465  1
  Zn  Zn44  1  0.65924785  0.90066201  0.80132629  1
  Zn  Zn45  1  0.65924795  0.90066437  0.09933563  1
  Zn  Zn46  1  0.65924785  0.19867371  0.09933799  1
  Zn  Zn47  1  0.34075215  0.09933799  0.19867371  1
  Zn  Zn48  1  0.34075205  0.09933563  0.90066437  1
  Zn  Zn49  1  0.34075215  0.80132629  0.90066201  1
  Zn  Zn50  1  0.15924785  0.09933799  0.19867371  1
  Zn  Zn51  1  0.15924795  0.09933563  0.90066437  1
  Zn  Zn52  1  0.15924785  0.80132629  0.90066201  1
  Zn  Zn53  1  0.84075215  0.90066201  0.80132629  1
  Zn  Zn54  1  0.84075205  0.90066437  0.09933563  1
  Zn  Zn55  1  0.84075215  0.19867371  0.09933799  1
  Zn  Zn56  1  0.14574238  0.43663910  0.87328147  1
  Zn  Zn57  1  0.14574220  0.43664266  0.56335734  1
  Zn  Zn58  1  0.14574238  0.12671853  0.56336090  1
  Zn  Zn59  1  0.85425762  0.56336090  0.12671853  1
  Zn  Zn60  1  0.85425780  0.56335734  0.43664266  1
  Zn  Zn61  1  0.85425762  0.87328147  0.43663910  1
  Zn  Zn62  1  0.64574238  0.56336090  0.12671853  1
  Zn  Zn63  1  0.64574220  0.56335734  0.43664266  1
  Zn  Zn64  1  0.64574238  0.87328147  0.43663910  1
  Zn  Zn65  1  0.35425762  0.43663910  0.87328147  1
  Zn  Zn66  1  0.35425780  0.43664266  0.56335734  1
  Zn  Zn67  1  0.35425762  0.12671853  0.56336090  1
  Zn  Zn68  1  0.55233130  0.39837442  0.79675366  1
  Zn  Zn69  1  0.55233361  0.39837726  0.60162274  1
  Zn  Zn70  1  0.55233130  0.20324634  0.60162558  1
  Zn  Zn71  1  0.44766870  0.60162558  0.20324634  1
  Zn  Zn72  1  0.44766639  0.60162274  0.39837726  1
  Zn  Zn73  1  0.44766870  0.79675366  0.39837442  1
  Zn  Zn74  1  0.05233130  0.60162558  0.20324634  1
  Zn  Zn75  1  0.05233361  0.60162274  0.39837726  1
  Zn  Zn76  1  0.05233130  0.79675366  0.39837442  1
  Zn  Zn77  1  0.94766870  0.39837442  0.79675366  1
  Zn  Zn78  1  0.94766639  0.39837726  0.60162274  1
  Zn  Zn79  1  0.94766870  0.20324634  0.60162558  1
  Zn  Zn80  1  0.16065244  0.76410070  0.52820076  1
  Zn  Zn81  1  0.16065523  0.76410212  0.23589788  1
  Zn  Zn82  1  0.16065244  0.47179924  0.23589930  1
  Zn  Zn83  1  0.83934756  0.23589930  0.47179924  1
  Zn  Zn84  1  0.83934477  0.23589788  0.76410212  1
  Zn  Zn85  1  0.83934756  0.52820076  0.76410070  1
  Zn  Zn86  1  0.66065244  0.23589930  0.47179924  1
  Zn  Zn87  1  0.66065523  0.23589788  0.76410212  1
  Zn  Zn88  1  0.66065244  0.52820076  0.76410070  1
  Zn  Zn89  1  0.33934756  0.76410070  0.52820076  1
  Zn  Zn90  1  0.33934477  0.76410212  0.23589788  1
  Zn  Zn91  1  0.33934756  0.47179924  0.23589930  1
  Zn  Zn92  1  0.60425443  0.63443674  0.96397438  1
  Zn  Zn93  1  0.60425364  0.32953616  0.36556209  1
  Zn  Zn94  1  0.60425383  0.03602337  0.67046213  1
  Zn  Zn95  1  0.60425383  0.32953787  0.96397663  1
  Zn  Zn96  1  0.60425443  0.03602562  0.36556326  1
  Zn  Zn97  1  0.60425364  0.63443791  0.67046384  1
  Zn  Zn98  1  0.39574557  0.36556326  0.03602562  1
  Zn  Zn99  1  0.39574636  0.67046384  0.63443791  1
  Zn  Zn100  1  0.39574617  0.96397663  0.32953787  1
  Zn  Zn101  1  0.39574617  0.67046213  0.03602337  1
  Zn  Zn102  1  0.39574557  0.96397438  0.63443674  1
  Zn  Zn103  1  0.39574636  0.36556209  0.32953616  1
  Zn  Zn104  1  0.10425443  0.36556326  0.03602562  1
  Zn  Zn105  1  0.10425364  0.67046384  0.63443791  1
  Zn  Zn106  1  0.10425383  0.96397663  0.32953787  1
  Zn  Zn107  1  0.10425383  0.67046213  0.03602337  1
  Zn  Zn108  1  0.10425443  0.96397438  0.63443674  1
  Zn  Zn109  1  0.10425364  0.36556209  0.32953616  1
  Zn  Zn110  1  0.89574557  0.63443674  0.96397438  1
  Zn  Zn111  1  0.89574636  0.32953616  0.36556209  1
  Zn  Zn112  1  0.89574617  0.03602337  0.67046213  1
  Zn  Zn113  1  0.89574617  0.32953787  0.96397663  1
  Zn  Zn114  1  0.89574557  0.03602562  0.36556326  1
  Zn  Zn115  1  0.89574636  0.63443791  0.67046384  1
loop_
_geom_bond_atom_site_label_1
_geom_bond_atom_site_label_2
_geom_bond_distance
_geom_bond_site_symmetry_2
Yb0 Zn20 2.869010 1_544
Yb0 Zn24 2.869010 1_555
Yb0 Zn22 2.869010 1_544
Yb0 Zn23 2.869010 1_555
Yb0 Zn21 2.869065 1_555
Yb0 Zn25 2.869065 1_544
Yb0 Zn48 3.329011 1_554
Yb0 Zn45 3.329011 1_545
Yb0 Zn46 3.329041 1_555
Yb0 Zn44 3.329041 1_544
Yb0 Zn47 3.329041 1_555
Yb0 Zn49 3.329041 1_544
Yb0 Zn1 3.496151 1_554
Yb0 Zn0 3.496151 1_545
Yb1 Zn30 2.869010 1_444
Yb1 Zn26 2.869010 1_455
Yb1 Zn28 2.869010 1_555
Yb1 Zn29 2.869010 1_544
Yb1 Zn27 2.869065 1_544
Yb1 Zn31 2.869065 1_555
Yb1 Zn51 3.329011 1_554
Yb1 Zn54 3.329011 1_445
Yb1 Zn55 3.329041 1_455
Yb1 Zn53 3.329041 1_444
Yb1 Zn52 3.329041 1_544
Yb1 Zn50 3.329041 1_555
Yb1 Zn0 3.496151 1_445
Yb1 Zn1 3.496151 1_554
Yb2 Zn3 3.049859 1_555
Yb2 Zn62 3.050950 1_556
Yb2 Zn59 3.050950 1_556
Yb2 Zn88 3.057966 1_555
Yb2 Zn85 3.057966 1_555
Yb2 Zn87 3.057975 1_555
Yb2 Zn84 3.057975 1_555
Yb2 Zn110 3.063929 1_555
Yb2 Zn92 3.063929 1_555
Yb2 Zn113 3.063941 1_555
Yb2 Zn95 3.063941 1_555
Yb2 Zn77 3.112125 1_555
Yb2 Zn68 3.112125 1_555
Yb2 Zn36 3.358762 1_556
Yb2 Zn33 3.358799 1_556
Yb3 Zn3 3.049884 1_555
Yb3 Zn60 3.050841 1_555
Yb3 Zn63 3.050841 1_555
Yb3 Zn88 3.058019 1_555
Yb3 Zn85 3.058019 1_555
Yb3 Zn83 3.058019 1_555
Yb3 Zn86 3.058019 1_555
Yb3 Zn111 3.063937 1_555
Yb3 Zn93 3.063937 1_555
Yb3 Zn115 3.063937 1_555
Yb3 Zn97 3.063937 1_555
Yb3 Zn69 3.112118 1_555
Yb3 Zn78 3.112118 1_555
Yb3 Zn34 3.358710 1_555
Yb3 Zn35 3.358710 1_555
Yb4 Zn3 3.049859 1_555
Yb4 Zn64 3.050950 1_545
Yb4 Zn61 3.050950 1_545
Yb4 Zn83 3.057966 1_555
Yb4 Zn86 3.057966 1_555
Yb4 Zn84 3.057975 1_555
Yb4 Zn87 3.057975 1_555
Yb4 Zn114 3.063929 1_555
Yb4 Zn96 3.063929 1_555
Yb4 Zn112 3.063941 1_555
Yb4 Zn94 3.063941 1_555
Yb4 Zn79 3.112125 1_555
Yb4 Zn70 3.112125 1_555
Yb4 Zn32 3.358762 1_545
Yb4 Zn37 3.358799 1_545
Yb5 Zn2 3.049859 1_555
Yb5 Zn56 3.050950 1_554
Yb5 Zn65 3.050950 1_554
Yb5 Zn82 3.057966 1_555
Yb5 Zn91 3.057966 1_555
Yb5 Zn81 3.057975 1_555
Yb5 Zn90 3.057975 1_555
Yb5 Zn104 3.063929 1_555
Yb5 Zn98 3.063929 1_555
Yb5 Zn101 3.063941 1_555
Yb5 Zn107 3.063941 1_555
Yb5 Zn71 3.112125 1_555
Yb5 Zn74 3.112125 1_555
Yb5 Zn42 3.358762 1_554
Yb5 Zn39 3.358799 1_554
Yb6 Zn2 3.049884 1_555
Yb6 Zn57 3.050841 1_555
Yb6 Zn66 3.050841 1_555
Yb6 Zn80 3.058019 1_555
Yb6 Zn89 3.058019 1_555
Yb6 Zn91 3.058019 1_555
Yb6 Zn82 3.058019 1_555
Yb6 Zn103 3.063937 1_555
Yb6 Zn109 3.063937 1_555
Yb6 Zn99 3.063937 1_555
Yb6 Zn105 3.063937 1_555
Yb6 Zn75 3.112118 1_555
Yb6 Zn72 3.112118 1_555
Yb6 Zn41 3.358710 1_555
Yb6 Zn40 3.358710 1_555
Yb7 Zn2 3.049859 1_555
Yb7 Zn67 3.050950 1_565
Yb7 Zn58 3.050950 1_565
Yb7 Zn80 3.057966 1_555
Yb7 Zn89 3.057966 1_555
Yb7 Zn90 3.057975 1_555
Yb7 Zn81 3.057975 1_555
Yb7 Zn102 3.063929 1_555
Yb7 Zn108 3.063929 1_555
Yb7 Zn100 3.063941 1_555
Yb7 Zn106 3.063941 1_555
Yb7 Zn73 3.112125 1_555
Yb7 Zn76 3.112125 1_555
Yb7 Zn38 3.358762 1_565
Yb7 Zn43 3.358799 1_565
Yb8 Zn86 3.051870 1_555
Yb8 Zn83 3.051870 1_555
Yb8 Zn0 3.091814 1_545
Yb8 Zn55 3.105185 1_555
Yb8 Zn46 3.105185 1_555
Yb8 Zn45 3.105225 1_545
Yb8 Zn54 3.105225 1_545
Yb8 Zn37 3.271607 1_545
Yb8 Zn34 3.271634 1_555
Yb8 Zn111 3.277780 1_555
Yb8 Zn93 3.277780 1_555
Yb8 Zn96 3.277799 1_555
Yb8 Zn114 3.277799 1_555
Yb9 Zn87 3.051871 1_555
Yb9 Zn84 3.051871 1_555
Yb9 Zn0 3.091746 1_546
Yb9 Zn46 3.105188 1_556
Yb9 Zn53 3.105188 1_545
Yb9 Zn44 3.105188 1_545
Yb9 Zn55 3.105188 1_556
Yb9 Zn36 3.271641 1_556
Yb9 Zn32 3.271641 1_545
Yb9 Zn113 3.277836 1_555
Yb9 Zn112 3.277836 1_555
Yb9 Zn94 3.277836 1_555
Yb9 Zn95 3.277836 1_555
Yb10 Zn85 3.051870 1_555
Yb10 Zn88 3.051870 1_555
Yb10 Zn0 3.091814 1_556
Yb10 Zn53 3.105185 1_555
Yb10 Zn44 3.105185 1_555
Yb10 Zn45 3.105225 1_556
Yb10 Zn54 3.105225 1_556
Yb10 Zn33 3.271607 1_556
Yb10 Zn35 3.271634 1_555
Yb10 Zn115 3.277780 1_555
Yb10 Zn97 3.277780 1_555
Yb10 Zn92 3.277799 1_555
Yb10 Zn110 3.277799 1_555
Yb11 Zn80 3.051870 1_555
Yb11 Zn89 3.051870 1_555
Yb11 Zn1 3.091814 1_565
Yb11 Zn49 3.105185 1_555
Yb11 Zn52 3.105185 1_555
Yb11 Zn51 3.105225 1_565
Yb11 Zn48 3.105225 1_565
Yb11 Zn43 3.271607 1_565
Yb11 Zn40 3.271634 1_555
Yb11 Zn99 3.277780 1_555
Yb11 Zn105 3.277780 1_555
Yb11 Zn108 3.277799 1_555
Yb11 Zn102 3.277799 1_555
Yb12 Zn90 3.051871 1_555
Yb12 Zn81 3.051871 1_555
Yb12 Zn1 3.091746 1_564
Yb12 Zn49 3.105188 1_554
Yb12 Zn50 3.105188 1_565
Yb12 Zn47 3.105188 1_565
Yb12 Zn52 3.105188 1_554
Yb12 Zn42 3.271641 1_554
Yb12 Zn38 3.271641 1_565
Yb12 Zn107 3.277836 1_555
Yb12 Zn101 3.277836 1_555
Yb12 Zn106 3.277836 1_555
Yb12 Zn100 3.277836 1_555
Yb13 Zn91 3.051870 1_555
Yb13 Zn82 3.051870 1_555
Yb13 Zn1 3.091814 1_554
Yb13 Zn47 3.105185 1_555
Yb13 Zn50 3.105185 1_555
Yb13 Zn51 3.105225 1_554
Yb13 Zn48 3.105225 1_554
Yb13 Zn39 3.271607 1_554
Yb13 Zn41 3.271634 1_555
Yb13 Zn109 3.277780 1_555
Yb13 Zn103 3.277780 1_555
Yb13 Zn104 3.277799 1_555
Yb13 Zn98 3.277799 1_555
Yb14 Zn44 3.061275 1_555
Yb14 Zn89 3.080070 1_555
Yb14 Zn72 3.102705 1_555
Yb14 Zn73 3.102713 1_555
Yb14 Zn99 3.111447 1_555
Yb14 Zn102 3.111471 1_555
Yb14 Zn25 3.121710 1_555
Yb14 Zn22 3.121743 1_555
Yb14 Zn35 3.136211 1_555
Yb14 Zn32 3.136220 1_555
Yb14 Zn94 3.153783 1_565
Yb14 Zn97 3.153794 1_555
Yb14 Zn14 3.167676 1_555
Yb14 Zn64 3.177897 1_555
Yb14 Zn63 3.177899 1_555
Yb14 Zn4 3.201712 1_555
Yb15 Zn45 3.061284 1_555
Yb15 Zn90 3.080108 1_555
Yb15 Zn73 3.102657 1_555
Yb15 Zn71 3.102657 1_555
Yb15 Zn100 3.111490 1_555
Yb15 Zn101 3.111490 1_555
Yb15 Zn24 3.121738 1_565
Yb15 Zn20 3.121738 1_554
Yb15 Zn37 3.136212 1_555
Yb15 Zn33 3.136212 1_555
Yb15 Zn96 3.153812 1_565
Yb15 Zn92 3.153812 1_554
Yb15 Zn15 3.167648 1_555
Yb15 Zn62 3.177860 1_555
Yb15 Zn64 3.177860 1_555
Yb15 Zn4 3.201673 1_555
Yb16 Zn46 3.061275 1_555
Yb16 Zn91 3.080070 1_555
Yb16 Zn72 3.102705 1_555
Yb16 Zn71 3.102713 1_555
Yb16 Zn103 3.111447 1_555
Yb16 Zn98 3.111471 1_555
Yb16 Zn21 3.121710 1_555
Yb16 Zn23 3.121743 1_555
Yb16 Zn34 3.136211 1_555
Yb16 Zn36 3.136220 1_555
Yb16 Zn95 3.153783 1_554
Yb16 Zn93 3.153794 1_555
Yb16 Zn16 3.167676 1_555
Yb16 Zn62 3.177897 1_555
Yb16 Zn63 3.177899 1_555
Yb16 Zn4 3.201712 1_555
Yb17 Zn47 3.061275 1_555
Yb17 Zn86 3.080070 1_555
Yb17 Zn69 3.102705 1_555
Yb17 Zn70 3.102713 1_555
Yb17 Zn93 3.111447 1_555
Yb17 Zn96 3.111471 1_555
Yb17 Zn21 3.121710 1_555
Yb17 Zn24 3.121743 1_555
Yb17 Zn41 3.136211 1_555
Yb17 Zn38 3.136220 1_555
Yb17 Zn100 3.153783 1_545
Yb17 Zn103 3.153794 1_555
Yb17 Zn17 3.167676 1_555
Yb17 Zn67 3.177897 1_555
Yb17 Zn66 3.177899 1_555
Yb17 Zn5 3.201712 1_555
Yb18 Zn48 3.061284 1_555
Yb18 Zn87 3.080108 1_555
Yb18 Zn68 3.102657 1_555
Yb18 Zn70 3.102657 1_555
Yb18 Zn94 3.111490 1_555
Yb18 Zn95 3.111490 1_555
Yb18 Zn23 3.121738 1_556
Yb18 Zn22 3.121738 1_545
Yb18 Zn39 3.136212 1_555
Yb18 Zn43 3.136212 1_555
Yb18 Zn98 3.153812 1_556
Yb18 Zn102 3.153812 1_545
Yb18 Zn18 3.167648 1_555
Yb18 Zn67 3.177860 1_555
Yb18 Zn65 3.177860 1_555
Yb18 Zn5 3.201673 1_555
Yb19 Zn49 3.061275 1_555
Yb19 Zn88 3.080070 1_555
Yb19 Zn69 3.102705 1_555
Yb19 Zn68 3.102713 1_555
Yb19 Zn97 3.111447 1_555
Yb19 Zn92 3.111471 1_555
Yb19 Zn25 3.121710 1_555
Yb19 Zn20 3.121743 1_555
Yb19 Zn40 3.136211 1_555
Yb19 Zn42 3.136220 1_555
Yb19 Zn101 3.153783 1_556
Yb19 Zn99 3.153794 1_555
Yb19 Zn19 3.167676 1_555
Yb19 Zn65 3.177897 1_555
Yb19 Zn66 3.177899 1_555
Yb19 Zn5 3.201712 1_555
Yb20 Zn50 3.061275 1_555
Yb20 Zn83 3.080070 1_455
Yb20 Zn78 3.102705 1_455
Yb20 Zn79 3.102713 1_455
Yb20 Zn111 3.111447 1_455
Yb20 Zn114 3.111471 1_455
Yb20 Zn31 3.121710 1_555
Yb20 Zn28 3.121743 1_555
Yb20 Zn41 3.136211 1_555
Yb20 Zn38 3.136220 1_555
Yb20 Zn106 3.153783 1_545
Yb20 Zn109 3.153794 1_555
Yb20 Zn17 3.167676 1_555
Yb20 Zn58 3.177897 1_555
Yb20 Zn57 3.177899 1_555
Yb20 Zn6 3.201712 1_555
Yb21 Zn51 3.061284 1_555
Yb21 Zn84 3.080108 1_455
Yb21 Zn77 3.102657 1_455
Yb21 Zn79 3.102657 1_455
Yb21 Zn112 3.111490 1_455
Yb21 Zn113 3.111490 1_455
Yb21 Zn26 3.121738 1_456
Yb21 Zn30 3.121738 1_445
Yb21 Zn39 3.136212 1_555
Yb21 Zn43 3.136212 1_555
Yb21 Zn104 3.153812 1_556
Yb21 Zn108 3.153812 1_545
Yb21 Zn18 3.167648 1_555
Yb21 Zn58 3.177860 1_555
Yb21 Zn56 3.177860 1_555
Yb21 Zn6 3.201673 1_555
Yb22 Zn52 3.061275 1_555
Yb22 Zn85 3.080070 1_455
Yb22 Zn78 3.102705 1_455
Yb22 Zn77 3.102713 1_455
Yb22 Zn115 3.111447 1_455
Yb22 Zn110 3.111471 1_455
Yb22 Zn27 3.121710 1_555
Yb22 Zn29 3.121743 1_555
Yb22 Zn40 3.136211 1_555
Yb22 Zn42 3.136220 1_555
Yb22 Zn107 3.153783 1_556
Yb22 Zn105 3.153794 1_555
Yb22 Zn19 3.167676 1_555
Yb22 Zn56 3.177897 1_555
Yb22 Zn57 3.177899 1_555
Yb22 Zn6 3.201712 1_555
Yb23 Zn53 3.061275 1_555
Yb23 Zn80 3.080070 1_655
Yb23 Zn75 3.102705 1_655
Yb23 Zn76 3.102713 1_655
Yb23 Zn105 3.111447 1_655
Yb23 Zn108 3.111471 1_655
Yb23 Zn27 3.121710 1_655
Yb23 Zn30 3.121743 1_555
Yb23 Zn35 3.136211 1_555
Yb23 Zn32 3.136220 1_555
Yb23 Zn112 3.153783 1_565
Yb23 Zn115 3.153794 1_555
Yb23 Zn14 3.167676 1_555
Yb23 Zn61 3.177897 1_555
Yb23 Zn60 3.177899 1_555
Yb23 Zn7 3.201712 1_555
Yb24 Zn54 3.061284 1_555
Yb24 Zn81 3.080108 1_655
Yb24 Zn76 3.102657 1_655
Yb24 Zn74 3.102657 1_655
Yb24 Zn106 3.111490 1_655
Yb24 Zn107 3.111490 1_655
Yb24 Zn28 3.121738 1_665
Yb24 Zn29 3.121738 1_654
Yb24 Zn37 3.136212 1_555
Yb24 Zn33 3.136212 1_555
Yb24 Zn114 3.153812 1_565
Yb24 Zn110 3.153812 1_554
Yb24 Zn15 3.167648 1_555
Yb24 Zn59 3.177860 1_555
Yb24 Zn61 3.177860 1_555
Yb24 Zn7 3.201673 1_555
Yb25 Zn55 3.061275 1_555
Yb25 Zn82 3.080070 1_655
Yb25 Zn75 3.102705 1_655
Yb25 Zn74 3.102713 1_655
Yb25 Zn109 3.111447 1_655
Yb25 Zn104 3.111471 1_655
Yb25 Zn31 3.121710 1_655
Yb25 Zn26 3.121743 1_555
Yb25 Zn34 3.136211 1_555
Yb25 Zn36 3.136220 1_555
Yb25 Zn113 3.153783 1_554
Yb25 Zn111 3.153794 1_555
Yb25 Zn16 3.167676 1_555
Yb25 Zn59 3.177897 1_555
Yb25 Zn60 3.177899 1_555
Yb25 Zn7 3.201712 1_555
Zn0 Zn45 2.780885 1_555
Zn0 Zn54 2.780885 1_555
Zn0 Zn46 2.780941 1_565
Zn0 Zn53 2.780941 1_554
Zn0 Zn44 2.780941 1_554
Zn0 Zn55 2.780941 1_565
Zn1 Zn51 2.780885 1_555
Zn1 Zn48 2.780885 1_555
Zn1 Zn47 2.780941 1_556
Zn1 Zn49 2.780941 1_545
Zn1 Zn52 2.780941 1_545
Zn1 Zn50 2.780941 1_556
Zn2 Zn82 2.729784 1_555
Zn2 Zn91 2.729784 1_555
Zn2 Zn80 2.729784 1_555
Zn2 Zn89 2.729784 1_555
Zn2 Zn81 2.729819 1_555
Zn2 Zn90 2.729819 1_555
Zn3 Zn83 2.729784 1_555
Zn3 Zn86 2.729784 1_555
Zn3 Zn85 2.729784 1_555
Zn3 Zn88 2.729784 1_555
Zn3 Zn87 2.729819 1_555
Zn3 Zn84 2.729819 1_555
Zn4 Zn73 2.620675 1_555
Zn4 Zn71 2.620675 1_555
Zn4 Zn72 2.620718 1_555
Zn4 Zn64 2.669539 1_555
Zn4 Zn62 2.669539 1_555
Zn4 Zn63 2.669597 1_555
Zn5 Zn68 2.620675 1_555
Zn5 Zn70 2.620675 1_555
Zn5 Zn69 2.620718 1_555
Zn5 Zn65 2.669539 1_555
Zn5 Zn67 2.669539 1_555
Zn5 Zn66 2.669597 1_555
Zn6 Zn77 2.620675 1_455
Zn6 Zn79 2.620675 1_455
Zn6 Zn78 2.620718 1_455
Zn7 Zn76 2.620675 1_655
Zn7 Zn74 2.620675 1_655
Zn7 Zn75 2.620718 1_655
Zn8 Zn98 2.670927 1_555
Zn8 Zn92 2.670927 1_554
Zn8 Zn95 2.670932 1_554
Zn9 Zn93 2.670947 1_555
Zn9 Zn97 2.670947 1_555
Zn9 Zn99 2.670947 1_555
Zn10 Zn64 2.577781 1_545
Zn10 Zn67 2.577781 1_555
Zn10 Zn73 2.635066 1_545
Zn10 Zn70 2.635066 1_555
Zn10 Zn96 2.670927 1_555
Zn10 Zn102 2.670927 1_545
Zn10 Zn94 2.670932 1_555
Zn10 Zn100 2.670932 1_545
Zn11 Zn59 2.577781 1_455
Zn11 Zn56 2.577781 1_554
Zn11 Zn77 2.635066 1_454
Zn11 Zn74 2.635066 1_555
Zn11 Zn110 2.670927 1_454
Zn11 Zn113 2.670932 1_454
Zn12 Zn57 2.577746 1_555
Zn12 Zn60 2.577746 1_455
Zn12 Zn75 2.635053 1_555
Zn12 Zn78 2.635053 1_455
Zn13 Zn61 2.577781 1_445
Zn13 Zn58 2.577781 1_555
Zn13 Zn79 2.635066 1_455
Zn13 Zn76 2.635066 1_545
Zn14 Zn35 2.581044 1_555
Zn14 Zn32 2.581046 1_555
Zn14 Zn64 2.678569 1_555
Zn14 Zn61 2.678569 1_555
Zn14 Zn60 2.678648 1_555
Zn14 Zn63 2.678648 1_555
Zn14 Zn4 2.679167 1_555
Zn14 Zn7 2.679167 1_555
Zn14 Zn15 2.725986 1_555
Zn14 Zn16 2.726020 1_555
Zn15 Zn33 2.581048 1_555
Zn15 Zn37 2.581048 1_555
Zn15 Zn62 2.678585 1_555
Zn15 Zn59 2.678585 1_555
Zn15 Zn61 2.678585 1_555
Zn15 Zn64 2.678585 1_555
Zn15 Zn7 2.679167 1_555
Zn15 Zn4 2.679167 1_555
Zn15 Zn16 2.725986 1_555
Zn16 Zn34 2.581044 1_555
Zn16 Zn36 2.581046 1_555
Zn16 Zn62 2.678569 1_555
Zn16 Zn59 2.678569 1_555
Zn16 Zn60 2.678648 1_555
Zn16 Zn63 2.678648 1_555
Zn16 Zn7 2.679167 1_555
Zn16 Zn4 2.679167 1_555
Zn17 Zn41 2.581044 1_555
Zn17 Zn38 2.581046 1_555
Zn17 Zn58 2.678569 1_555
Zn17 Zn67 2.678569 1_555
Zn17 Zn57 2.678648 1_555
Zn17 Zn66 2.678648 1_555
Zn17 Zn6 2.679167 1_555
Zn17 Zn5 2.679167 1_555
Zn17 Zn18 2.725986 1_555
Zn17 Zn19 2.726020 1_555
Zn18 Zn39 2.581048 1_555
Zn18 Zn43 2.581048 1_555
Zn18 Zn58 2.678585 1_555
Zn18 Zn56 2.678585 1_555
Zn18 Zn65 2.678585 1_555
Zn18 Zn67 2.678585 1_555
Zn18 Zn6 2.679167 1_555
Zn18 Zn5 2.679167 1_555
Zn18 Zn19 2.725986 1_555
Zn19 Zn40 2.581044 1_555
Zn19 Zn42 2.581046 1_555
Zn19 Zn65 2.678569 1_555
Zn19 Zn56 2.678569 1_555
Zn19 Zn66 2.678648 1_555
Zn19 Zn57 2.678648 1_555
Zn19 Zn6 2.679167 1_555
Zn19 Zn5 2.679167 1_555
Zn20 Zn92 2.619342 1_555
Zn20 Zn49 2.649062 1_555
Zn20 Zn45 2.649072 1_556
Zn20 Zn25 2.869027 1_555
Zn20 Zn24 2.869030 1_566
Zn21 Zn93 2.619290 1_555
Zn21 Zn46 2.649063 1_555
Zn21 Zn47 2.649063 1_555
Zn21 Zn23 2.869027 1_555
Zn21 Zn24 2.869027 1_555
Zn22 Zn94 2.619313 1_565
Zn22 Zn44 2.649062 1_555
Zn22 Zn48 2.649072 1_565
Zn22 Zn25 2.869027 1_555
Zn22 Zn23 2.869030 1_566
Zn23 Zn95 2.619313 1_554
Zn23 Zn98 2.619342 1_555
Zn23 Zn46 2.649062 1_555
Zn23 Zn48 2.649072 1_554
Zn24 Zn96 2.619342 1_555
Zn24 Zn47 2.649062 1_555
Zn24 Zn45 2.649072 1_545
Zn25 Zn99 2.619290 1_555
Zn25 Zn97 2.619290 1_555
Zn25 Zn44 2.649063 1_555
Zn25 Zn49 2.649063 1_555
Zn26 Zn55 2.649062 1_555
Zn26 Zn51 2.649072 1_654
Zn26 Zn31 2.869027 1_655
Zn26 Zn30 2.869030 1_544
Zn27 Zn53 2.649063 1_455
Zn27 Zn52 2.649063 1_555
Zn27 Zn30 2.869027 1_455
Zn27 Zn29 2.869027 1_555
Zn28 Zn50 2.649062 1_555
Zn28 Zn54 2.649072 1_445
Zn28 Zn31 2.869027 1_555
Zn28 Zn29 2.869030 1_544
Zn29 Zn52 2.649062 1_555
Zn29 Zn54 2.649072 1_456
Zn30 Zn53 2.649062 1_555
Zn30 Zn51 2.649072 1_665
Zn31 Zn55 2.649063 1_455
Zn31 Zn50 2.649063 1_555
Zn32 Zn94 2.571496 1_565
Zn32 Zn35 2.769744 1_555
Zn32 Zn53 2.800340 1_555
Zn32 Zn44 2.800340 1_555
Zn32 Zn61 2.985825 1_555
Zn32 Zn64 2.985825 1_555
Zn33 Zn92 2.571507 1_554
Zn33 Zn37 2.769735 1_555
Zn33 Zn45 2.800331 1_555
Zn33 Zn54 2.800331 1_555
Zn33 Zn59 2.985806 1_555
Zn33 Zn62 2.985806 1_555
Zn34 Zn93 2.571513 1_555
Zn34 Zn36 2.769744 1_555
Zn34 Zn55 2.800368 1_555
Zn34 Zn46 2.800368 1_555
Zn34 Zn60 2.985772 1_555
Zn34 Zn63 2.985772 1_555
Zn35 Zn97 2.571513 1_555
Zn35 Zn44 2.800368 1_555
Zn35 Zn53 2.800368 1_555
Zn35 Zn60 2.985772 1_555
Zn35 Zn63 2.985772 1_555
Zn36 Zn95 2.571496 1_554
Zn36 Zn55 2.800340 1_555
Zn36 Zn46 2.800340 1_555
Zn36 Zn62 2.985825 1_555
Zn36 Zn59 2.985825 1_555
Zn37 Zn96 2.571507 1_565
Zn37 Zn54 2.800331 1_555
Zn37 Zn45 2.800331 1_555
Zn37 Zn61 2.985806 1_555
Zn37 Zn64 2.985806 1_555
Zn38 Zn41 2.769744 1_555
Zn38 Zn47 2.800340 1_555
Zn38 Zn50 2.800340 1_555
Zn38 Zn58 2.985825 1_555
Zn38 Zn67 2.985825 1_555
Zn39 Zn98 2.571507 1_556
Zn39 Zn43 2.769735 1_555
Zn39 Zn48 2.800331 1_555
Zn39 Zn51 2.800331 1_555
Zn39 Zn56 2.985806 1_555
Zn39 Zn65 2.985806 1_555
Zn40 Zn99 2.571513 1_555
Zn40 Zn42 2.769744 1_555
Zn40 Zn49 2.800368 1_555
Zn40 Zn52 2.800368 1_555
Zn40 Zn57 2.985772 1_555
Zn40 Zn66 2.985772 1_555
Zn41 Zn50 2.800368 1_555
Zn41 Zn47 2.800368 1_555
Zn41 Zn57 2.985772 1_555
Zn41 Zn66 2.985772 1_555
Zn42 Zn52 2.800340 1_555
Zn42 Zn49 2.800340 1_555
Zn42 Zn65 2.985825 1_555
Zn42 Zn56 2.985825 1_555
Zn43 Zn48 2.800331 1_555
Zn43 Zn51 2.800331 1_555
Zn43 Zn58 2.985806 1_555
Zn43 Zn67 2.985806 1_555
Zn44 Zn53 2.538266 1_555
Zn45 Zn54 2.538263 1_555
Zn46 Zn55 2.538266 1_555
Zn47 Zn50 2.538266 1_555
Zn48 Zn51 2.538263 1_555
Zn49 Zn52 2.538266 1_555
Zn56 Zn6 2.669539 1_555
Zn56 Zn65 2.916003 1_555
Zn56 Zn77 2.929382 1_455
Zn57 Zn6 2.669597 1_555
Zn57 Zn66 2.916008 1_555
Zn57 Zn78 2.929421 1_455
Zn58 Zn6 2.669539 1_555
Zn58 Zn67 2.916003 1_555
Zn58 Zn79 2.929382 1_455
Zn59 Zn7 2.669539 1_555
Zn59 Zn62 2.916003 1_555
Zn59 Zn74 2.929382 1_655
Zn60 Zn7 2.669597 1_555
Zn60 Zn63 2.916008 1_555
Zn60 Zn75 2.929421 1_655
Zn61 Zn7 2.669539 1_555
Zn61 Zn64 2.916003 1_555
Zn61 Zn76 2.929382 1_655
Zn62 Zn8 2.577781 1_555
Zn62 Zn71 2.929382 1_555
Zn62 Zn92 3.041695 1_554
Zn62 Zn95 3.041736 1_554
Zn63 Zn9 2.577746 1_555
Zn63 Zn72 2.929421 1_555
Zn63 Zn97 3.041707 1_555
Zn63 Zn93 3.041707 1_555
Zn64 Zn73 2.929382 1_555
Zn64 Zn96 3.041695 1_565
Zn64 Zn94 3.041736 1_565
Zn65 Zn8 2.577781 1_556
Zn65 Zn68 2.929382 1_555
Zn65 Zn98 3.041695 1_556
Zn66 Zn9 2.577746 1_555
Zn66 Zn69 2.929421 1_555
Zn66 Zn99 3.041707 1_555
Zn67 Zn70 2.929382 1_555
Zn68 Zn87 2.622613 1_555
Zn68 Zn88 2.622614 1_555
Zn68 Zn8 2.635066 1_556
Zn68 Zn70 2.806261 1_555
Zn68 Zn69 2.806309 1_555
Zn69 Zn88 2.622583 1_555
Zn69 Zn86 2.622583 1_555
Zn69 Zn9 2.635053 1_555
Zn69 Zn70 2.806309 1_555
Zn70 Zn87 2.622613 1_555
Zn70 Zn86 2.622614 1_555
Zn71 Zn90 2.622613 1_555
Zn71 Zn91 2.622614 1_555
Zn71 Zn8 2.635066 1_555
Zn71 Zn73 2.806261 1_555
Zn71 Zn72 2.806309 1_555
Zn72 Zn89 2.622583 1_555
Zn72 Zn91 2.622583 1_555
Zn72 Zn9 2.635053 1_555
Zn72 Zn73 2.806309 1_555
Zn73 Zn90 2.622613 1_555
Zn73 Zn89 2.622614 1_555
Zn74 Zn81 2.622613 1_555
Zn74 Zn82 2.622614 1_555
Zn74 Zn76 2.806261 1_555
Zn74 Zn75 2.806309 1_555
Zn75 Zn80 2.622583 1_555
Zn75 Zn82 2.622583 1_555
Zn75 Zn76 2.806309 1_555
Zn76 Zn81 2.622613 1_555
Zn76 Zn80 2.622614 1_555
Zn77 Zn84 2.622613 1_555
Zn77 Zn85 2.622614 1_555
Zn77 Zn79 2.806261 1_555
Zn77 Zn78 2.806309 1_555
Zn78 Zn85 2.622583 1_555
Zn78 Zn83 2.622583 1_555
Zn78 Zn79 2.806309 1_555
Zn79 Zn84 2.622613 1_555
Zn79 Zn83 2.622614 1_555
Zn80 Zn89 2.498981 1_555
Zn81 Zn90 2.498903 1_555
Zn82 Zn91 2.498981 1_555
Zn83 Zn86 2.498981 1_555
Zn84 Zn87 2.498903 1_555
Zn85 Zn88 2.498981 1_555
Zn86 Zn93 2.612917 1_555
Zn86 Zn96 2.612920 1_555
Zn87 Zn94 2.612942 1_555
Zn87 Zn95 2.612942 1_555
Zn88 Zn97 2.612917 1_555
Zn88 Zn92 2.612920 1_555
Zn89 Zn99 2.612917 1_555
Zn91 Zn98 2.612920 1_555
Zn100 Zn38 2.571496 1_565
Zn100 Zn90 2.612942 1_555
Zn100 Zn24 2.619313 1_565
Zn100 Zn67 3.041736 1_565
Zn101 Zn42 2.571496 1_554
Zn101 Zn90 2.612942 1_555
Zn101 Zn20 2.619313 1_554
Zn101 Zn8 2.670932 1_555
Zn101 Zn65 3.041736 1_554
Zn102 Zn43 2.571507 1_565
Zn102 Zn89 2.612920 1_555
Zn102 Zn22 2.619342 1_555
Zn102 Zn67 3.041695 1_565
Zn103 Zn41 2.571513 1_555
Zn103 Zn91 2.612917 1_555
Zn103 Zn21 2.619290 1_555
Zn103 Zn9 2.670947 1_555
Zn103 Zn66 3.041707 1_555
Zn104 Zn39 2.571507 1_554
Zn104 Zn82 2.612920 1_555
Zn104 Zn26 2.619342 1_455
Zn104 Zn11 2.670927 1_555
Zn104 Zn56 3.041695 1_554
Zn105 Zn40 2.571513 1_555
Zn105 Zn80 2.612917 1_555
Zn105 Zn27 2.619290 1_555
Zn105 Zn12 2.670947 1_555
Zn105 Zn57 3.041707 1_555
Zn106 Zn38 2.571496 1_565
Zn106 Zn81 2.612942 1_555
Zn106 Zn28 2.619313 1_565
Zn106 Zn13 2.670932 1_565
Zn106 Zn58 3.041736 1_565
Zn107 Zn42 2.571496 1_554
Zn107 Zn81 2.612942 1_555
Zn107 Zn29 2.619313 1_554
Zn107 Zn11 2.670932 1_555
Zn107 Zn56 3.041736 1_554
Zn108 Zn43 2.571507 1_565
Zn108 Zn80 2.612920 1_555
Zn108 Zn30 2.619342 1_455
Zn108 Zn13 2.670927 1_565
Zn108 Zn58 3.041695 1_565
Zn109 Zn41 2.571513 1_555
Zn109 Zn82 2.612917 1_555
Zn109 Zn31 2.619290 1_555
Zn109 Zn12 2.670947 1_555
Zn109 Zn57 3.041707 1_555
Zn110 Zn33 2.571507 1_556
Zn110 Zn85 2.612920 1_555
Zn110 Zn29 2.619342 1_655
Zn110 Zn59 3.041695 1_556
Zn111 Zn34 2.571513 1_555
Zn111 Zn83 2.612917 1_555
Zn111 Zn31 2.619290 1_655
Zn111 Zn12 2.670947 1_655
Zn111 Zn60 3.041707 1_555
Zn112 Zn32 2.571496 1_545
Zn112 Zn84 2.612942 1_555
Zn112 Zn30 2.619313 1_545
Zn112 Zn13 2.670932 1_655
Zn112 Zn61 3.041736 1_545
Zn113 Zn36 2.571496 1_556
Zn113 Zn84 2.612942 1_555
Zn113 Zn26 2.619313 1_556
Zn113 Zn59 3.041736 1_556
Zn114 Zn37 2.571507 1_545
Zn114 Zn83 2.612920 1_555
Zn114 Zn28 2.619342 1_655
Zn114 Zn13 2.670927 1_655
Zn114 Zn61 3.041695 1_545
Zn115 Zn35 2.571513 1_555
Zn115 Zn85 2.612917 1_555
Zn115 Zn27 2.619290 1_655
Zn115 Zn12 2.670947 1_655
Zn115 Zn60 3.041707 1_555
