# generated using pymatgen
data_CsLaMg30O32
_symmetry_space_group_name_H-M   'P 1'
_cell_length_a   8.76596000
_cell_length_b   8.76596000
_cell_length_c   8.75335300
_cell_angle_alpha   90.00000000
_cell_angle_beta   90.00000000
_cell_angle_gamma   90.00000000
_symmetry_Int_Tables_number   1
_chemical_formula_structural   CsLaMg30O32
_chemical_formula_sum   'Cs1 La1 Mg30 O32'
_cell_volume   672.62563022
_cell_formula_units_Z   1
loop_
 _symmetry_equiv_pos_site_id
 _symmetry_equiv_pos_as_xyz
  1  'x, y, z'
loop_
 _atom_site_type_symbol
 _atom_site_label
 _atom_site_symmetry_multiplicity
 _atom_site_fract_x
 _atom_site_fract_y
 _atom_site_fract_z
 _atom_site_occupancy
  Cs  Cs0  1  0.50000000  0.50000000  0.00000000  1
  La  La0  1  0.00000000  0.00000000  0.00000000  1
  Mg  Mg0  1  0.50000000  0.00000000  0.00000000  1
  Mg  Mg1  1  0.00000000  0.50000000  0.00000000  1
  Mg  Mg2  1  0.00000000  0.00000000  0.50000000  1
  Mg  Mg3  1  0.50000000  0.00000000  0.50000000  1
  Mg  Mg4  1  0.00000000  0.50000000  0.50000000  1
  Mg  Mg5  1  0.50000000  0.50000000  0.50000000  1
  Mg  Mg6  1  0.25521200  0.25521200  0.00000000  1
  Mg  Mg7  1  0.74478800  0.25521200  0.00000000  1
  Mg  Mg8  1  0.25521200  0.74478800  0.00000000  1
  Mg  Mg9  1  0.74478800  0.74478800  0.00000000  1
  Mg  Mg10  1  0.25131400  0.25131400  0.50000000  1
  Mg  Mg11  1  0.74868600  0.25131400  0.50000000  1
  Mg  Mg12  1  0.25131400  0.74868600  0.50000000  1
  Mg  Mg13  1  0.74868600  0.74868600  0.50000000  1
  Mg  Mg14  1  0.25950900  0.00000000  0.25875300  1
  Mg  Mg15  1  0.74049100  0.00000000  0.25875300  1
  Mg  Mg16  1  0.24658800  0.50000000  0.25586500  1
  Mg  Mg17  1  0.75341200  0.50000000  0.25586500  1
  Mg  Mg18  1  0.25950900  0.00000000  0.74124700  1
  Mg  Mg19  1  0.74049100  0.00000000  0.74124700  1
  Mg  Mg20  1  0.24658800  0.50000000  0.74413500  1
  Mg  Mg21  1  0.75341200  0.50000000  0.74413500  1
  Mg  Mg22  1  0.00000000  0.25950900  0.25875300  1
  Mg  Mg23  1  0.50000000  0.24658800  0.25586500  1
  Mg  Mg24  1  0.00000000  0.74049100  0.25875300  1
  Mg  Mg25  1  0.50000000  0.75341200  0.25586500  1
  Mg  Mg26  1  0.00000000  0.25950900  0.74124700  1
  Mg  Mg27  1  0.50000000  0.24658800  0.74413500  1
  Mg  Mg28  1  0.00000000  0.74049100  0.74124700  1
  Mg  Mg29  1  0.50000000  0.75341200  0.74413500  1
  O  O0  1  0.00000000  0.00000000  0.26832500  1
  O  O1  1  0.50000000  0.00000000  0.26036800  1
  O  O2  1  0.00000000  0.50000000  0.26036800  1
  O  O3  1  0.50000000  0.50000000  0.28535400  1
  O  O4  1  0.00000000  0.00000000  0.73167500  1
  O  O5  1  0.50000000  0.00000000  0.73963200  1
  O  O6  1  0.00000000  0.50000000  0.73963200  1
  O  O7  1  0.50000000  0.50000000  0.71464600  1
  O  O8  1  0.24962100  0.24962100  0.24923800  1
  O  O9  1  0.75037900  0.24962100  0.24923800  1
  O  O10  1  0.24962100  0.75037900  0.24923800  1
  O  O11  1  0.75037900  0.75037900  0.24923800  1
  O  O12  1  0.24962100  0.24962100  0.75076200  1
  O  O13  1  0.75037900  0.24962100  0.75076200  1
  O  O14  1  0.24962100  0.75037900  0.75076200  1
  O  O15  1  0.75037900  0.75037900  0.75076200  1
  O  O16  1  0.26288000  0.00000000  0.00000000  1
  O  O17  1  0.73712000  0.00000000  0.00000000  1
  O  O18  1  0.21622200  0.50000000  0.00000000  1
  O  O19  1  0.78377800  0.50000000  0.00000000  1
  O  O20  1  0.25079400  0.00000000  0.50000000  1
  O  O21  1  0.74920600  0.00000000  0.50000000  1
  O  O22  1  0.24295800  0.50000000  0.50000000  1
  O  O23  1  0.75704200  0.50000000  0.50000000  1
  O  O24  1  0.00000000  0.26288000  0.00000000  1
  O  O25  1  0.50000000  0.21622200  0.00000000  1
  O  O26  1  0.00000000  0.73712000  0.00000000  1
  O  O27  1  0.50000000  0.78377800  0.00000000  1
  O  O28  1  0.00000000  0.25079400  0.50000000  1
  O  O29  1  0.50000000  0.24295800  0.50000000  1
  O  O30  1  0.00000000  0.74920600  0.50000000  1
  O  O31  1  0.50000000  0.75704200  0.50000000  1
loop_
_geom_bond_atom_site_label_1
_geom_bond_atom_site_label_2
_geom_bond_distance
_geom_bond_site_symmetry_2
Cs0 O27 2.487587 1_555
Cs0 O25 2.487587 1_555
Cs0 O18 2.487587 1_555
Cs0 O19 2.487587 1_555
Cs0 O3 2.497804 1_555
Cs0 O7 2.497804 1_554
La0 O26 2.304396 1_545
La0 O24 2.304396 1_555
La0 O16 2.304396 1_555
La0 O17 2.304396 1_455
La0 O0 2.348743 1_555
La0 O4 2.348743 1_554
Mg0 O25 1.895393 1_555
Mg0 O27 1.895393 1_545
Mg0 O17 2.078584 1_555
Mg0 O16 2.078584 1_555
Mg0 O1 2.279093 1_555
Mg0 O5 2.279093 1_554
Mg1 O18 1.895393 1_555
Mg1 O19 1.895393 1_455
Mg1 O26 2.078584 1_555
Mg1 O24 2.078584 1_555
Mg1 O2 2.279093 1_555
Mg1 O6 2.279093 1_554
Mg2 O4 2.027933 1_555
Mg2 O0 2.027933 1_555
Mg2 O30 2.198450 1_545
Mg2 O21 2.198450 1_455
Mg2 O20 2.198450 1_555
Mg2 O28 2.198450 1_555
Mg3 O5 2.097583 1_555
Mg3 O1 2.097583 1_555
Mg3 O31 2.129760 1_545
Mg3 O29 2.129760 1_555
Mg3 O20 2.184530 1_555
Mg3 O21 2.184530 1_555
Mg4 O6 2.097583 1_555
Mg4 O2 2.097583 1_555
Mg4 O22 2.129760 1_555
Mg4 O23 2.129760 1_455
Mg4 O28 2.184530 1_555
Mg4 O30 2.184530 1_555
Mg5 O7 1.878872 1_555
Mg5 O3 1.878872 1_555
Mg5 O22 2.253220 1_555
Mg5 O23 2.253220 1_555
Mg5 O29 2.253220 1_555
Mg5 O31 2.253220 1_555
Mg6 O18 2.172851 1_555
Mg6 O25 2.172851 1_555
Mg6 O12 2.182769 1_554
Mg6 O8 2.182769 1_555
Mg6 O16 2.238188 1_555
Mg6 O24 2.238188 1_555
Mg7 O19 2.172851 1_555
Mg7 O25 2.172851 1_555
Mg7 O13 2.182769 1_554
Mg7 O9 2.182769 1_555
Mg7 O24 2.238188 1_655
Mg7 O17 2.238188 1_555
Mg8 O27 2.172851 1_555
Mg8 O18 2.172851 1_555
Mg8 O14 2.182769 1_554
Mg8 O10 2.182769 1_555
Mg8 O26 2.238188 1_555
Mg8 O16 2.238188 1_565
Mg9 O19 2.172851 1_555
Mg9 O27 2.172851 1_555
Mg9 O15 2.182769 1_554
Mg9 O11 2.182769 1_555
Mg9 O17 2.238188 1_565
Mg9 O26 2.238188 1_655
Mg10 O22 2.181202 1_555
Mg10 O29 2.181202 1_555
Mg10 O12 2.195109 1_555
Mg10 O8 2.195109 1_555
Mg10 O20 2.203013 1_555
Mg10 O28 2.203013 1_555
Mg11 O29 2.181202 1_555
Mg11 O23 2.181202 1_555
Mg11 O9 2.195109 1_555
Mg11 O13 2.195109 1_555
Mg11 O21 2.203013 1_555
Mg11 O28 2.203013 1_655
Mg12 O22 2.181202 1_555
Mg12 O31 2.181202 1_555
Mg12 O10 2.195109 1_555
Mg12 O14 2.195109 1_555
Mg12 O30 2.203013 1_555
Mg12 O20 2.203013 1_565
Mg13 O31 2.181202 1_555
Mg13 O23 2.181202 1_555
Mg13 O15 2.195109 1_555
Mg13 O11 2.195109 1_555
Mg13 O21 2.203013 1_565
Mg13 O30 2.203013 1_655
Mg14 O1 2.108182 1_555
Mg14 O20 2.113102 1_555
Mg14 O8 2.191467 1_555
Mg14 O10 2.191467 1_545
Mg14 O16 2.265149 1_555
Mg14 O0 2.276388 1_555
Mg15 O1 2.108182 1_555
Mg15 O21 2.113102 1_555
Mg15 O9 2.191467 1_555
Mg15 O11 2.191467 1_545
Mg15 O17 2.265149 1_555
Mg15 O0 2.276388 1_655
Mg16 O22 2.137237 1_555
Mg16 O2 2.161940 1_555
Mg16 O8 2.195740 1_555
Mg16 O10 2.195740 1_555
Mg16 O3 2.236346 1_555
Mg16 O18 2.255439 1_555
Mg17 O23 2.137237 1_555
Mg17 O2 2.161940 1_655
Mg17 O11 2.195740 1_555
Mg17 O9 2.195740 1_555
Mg17 O3 2.236346 1_555
Mg17 O19 2.255439 1_555
Mg18 O5 2.108182 1_555
Mg18 O20 2.113102 1_555
Mg18 O12 2.191467 1_555
Mg18 O14 2.191467 1_545
Mg18 O16 2.265149 1_556
Mg18 O4 2.276388 1_555
Mg19 O5 2.108182 1_555
Mg19 O21 2.113102 1_555
Mg19 O15 2.191467 1_545
Mg19 O13 2.191467 1_555
Mg19 O17 2.265149 1_556
Mg19 O4 2.276388 1_655
Mg20 O22 2.137237 1_555
Mg20 O6 2.161940 1_555
Mg20 O14 2.195740 1_555
Mg20 O12 2.195740 1_555
Mg20 O7 2.236346 1_555
Mg20 O18 2.255439 1_556
Mg21 O23 2.137237 1_555
Mg21 O6 2.161940 1_655
Mg21 O15 2.195740 1_555
Mg21 O13 2.195740 1_555
Mg21 O7 2.236346 1_555
Mg21 O19 2.255439 1_556
Mg22 O2 2.108182 1_555
Mg22 O28 2.113102 1_555
Mg22 O8 2.191467 1_555
Mg22 O9 2.191467 1_455
Mg22 O24 2.265149 1_555
Mg22 O0 2.276388 1_555
Mg23 O29 2.137237 1_555
Mg23 O1 2.161940 1_555
Mg23 O8 2.195740 1_555
Mg23 O9 2.195740 1_555
Mg23 O3 2.236346 1_555
Mg23 O25 2.255439 1_555
Mg24 O2 2.108182 1_555
Mg24 O30 2.113102 1_555
Mg24 O11 2.191467 1_455
Mg24 O10 2.191467 1_555
Mg24 O26 2.265149 1_555
Mg24 O0 2.276388 1_565
Mg25 O31 2.137237 1_555
Mg25 O1 2.161940 1_565
Mg25 O11 2.195740 1_555
Mg25 O10 2.195740 1_555
Mg25 O3 2.236346 1_555
Mg25 O27 2.255439 1_555
Mg26 O6 2.108182 1_555
Mg26 O28 2.113102 1_555
Mg26 O12 2.191467 1_555
Mg26 O13 2.191467 1_455
Mg26 O24 2.265149 1_556
Mg26 O4 2.276388 1_555
Mg27 O29 2.137237 1_555
Mg27 O5 2.161940 1_555
Mg27 O13 2.195740 1_555
Mg27 O12 2.195740 1_555
Mg27 O7 2.236346 1_555
Mg27 O25 2.255439 1_556
Mg28 O6 2.108182 1_555
Mg28 O30 2.113102 1_555
Mg28 O14 2.191467 1_555
Mg28 O15 2.191467 1_455
Mg28 O26 2.265149 1_556
Mg28 O4 2.276388 1_565
Mg29 O31 2.137237 1_555
Mg29 O5 2.161940 1_565
Mg29 O14 2.195740 1_555
Mg29 O15 2.195740 1_555
Mg29 O7 2.236346 1_555
Mg29 O27 2.255439 1_556
