# generated using pymatgen
data_Lu2C3
_symmetry_space_group_name_H-M   'P 1'
_cell_length_a   6.93811576
_cell_length_b   6.93811576
_cell_length_c   6.93811576
_cell_angle_alpha   109.47122063
_cell_angle_beta   109.47122063
_cell_angle_gamma   109.47122063
_symmetry_Int_Tables_number   1
_chemical_formula_structural   Lu2C3
_chemical_formula_sum   'Lu8 C12'
_cell_volume   257.10038888
_cell_formula_units_Z   4
loop_
 _symmetry_equiv_pos_site_id
 _symmetry_equiv_pos_as_xyz
  1  'x, y, z'
loop_
 _atom_site_type_symbol
 _atom_site_label
 _atom_site_symmetry_multiplicity
 _atom_site_fract_x
 _atom_site_fract_y
 _atom_site_fract_z
 _atom_site_occupancy
  Lu  Lu0  1  0.50000000  0.00000000  0.60028500  1
  Lu  Lu1  1  0.10028500  0.50000000  0.00000000  1
  Lu  Lu2  1  0.39971500  0.39971500  0.39971500  1
  Lu  Lu3  1  0.00000000  0.10028500  0.50000000  1
  Lu  Lu4  1  0.89971500  0.89971500  0.89971500  1
  Lu  Lu5  1  0.00000000  0.60028500  0.50000000  1
  Lu  Lu6  1  0.60028500  0.50000000  0.00000000  1
  Lu  Lu7  1  0.50000000  0.00000000  0.10028500  1
  C  C0  1  0.79102000  0.25000000  0.04102000  1
  C  C1  1  0.95898000  0.25000000  0.20898000  1
  C  C2  1  0.75000000  0.29102000  0.54102000  1
  C  C3  1  0.20898000  0.95898000  0.25000000  1
  C  C4  1  0.25000000  0.20898000  0.95898000  1
  C  C5  1  0.29102000  0.54102000  0.75000000  1
  C  C6  1  0.70898000  0.75000000  0.45898000  1
  C  C7  1  0.04102000  0.79102000  0.25000000  1
  C  C8  1  0.54102000  0.75000000  0.29102000  1
  C  C9  1  0.75000000  0.45898000  0.70898000  1
  C  C10  1  0.25000000  0.04102000  0.79102000  1
  C  C11  1  0.45898000  0.70898000  0.75000000  1
loop_
_geom_bond_atom_site_label_1
_geom_bond_atom_site_label_2
_geom_bond_distance
_geom_bond_site_symmetry_2
C0 C1 1.345602 1_555
C0 Lu1 2.438995 1_655
C0 Lu7 2.438995 1_555
C0 Lu0 2.539505 1_554
C0 Lu6 2.539505 1_555
C1 Lu5 2.438995 1_655
C1 Lu4 2.438995 1_544
C1 Lu3 2.539505 1_655
C1 Lu2 2.539505 1_655
C2 C9 1.345602 1_555
C2 Lu5 2.438995 1_655
C2 Lu0 2.438995 1_555
C2 Lu3 2.539505 1_655
C2 Lu7 2.539505 1_555
C3 C7 1.345602 1_555
C3 Lu0 2.438995 1_565
C3 Lu4 2.438995 1_454
C3 Lu7 2.539505 1_565
C3 Lu2 2.539505 1_565
C4 Lu6 2.438995 1_556
C4 Lu4 2.438995 1_445
C4 Lu1 2.539505 1_556
C4 Lu2 2.539505 1_556
C5 Lu5 2.438995 1_555
C5 Lu6 2.438995 1_556
C5 Lu1 2.539505 1_556
C5 Lu3 2.539505 1_555
C6 C8 1.345602 1_555
C6 Lu3 2.438995 1_665
C6 Lu2 2.438995 1_555
C6 Lu4 2.539505 1_555
C6 Lu5 2.539505 1_655
C7 Lu3 2.438995 1_565
C7 Lu1 2.438995 1_555
C7 Lu6 2.539505 1_455
C7 Lu5 2.539505 1_555
C8 Lu6 2.438995 1_555
C8 Lu0 2.438995 1_565
C8 Lu7 2.539505 1_565
C8 Lu1 2.539505 1_555
C9 Lu2 2.438995 1_555
C9 Lu1 2.438995 1_656
C9 Lu4 2.539505 1_555
C9 Lu6 2.539505 1_556
C10 C4 1.345602 1_555
C10 Lu7 2.438995 1_556
C10 Lu3 2.438995 1_555
C10 Lu0 2.539505 1_555
C10 Lu5 2.539505 1_545
C11 C5 1.345602 1_555
C11 Lu7 2.438995 1_566
C11 Lu2 2.438995 1_555
C11 Lu4 2.539505 1_555
C11 Lu0 2.539505 1_565
