# generated using pymatgen
data_LuGe2Ru
_symmetry_space_group_name_H-M   'P 1'
_cell_length_a   8.30848100
_cell_length_b   9.59377100
_cell_length_c   10.54818600
_cell_angle_alpha   90.00000000
_cell_angle_beta   90.00000000
_cell_angle_gamma   90.00000000
_symmetry_Int_Tables_number   1
_chemical_formula_structural   LuGe2Ru
_chemical_formula_sum   'Lu12 Ge24 Ru12'
_cell_volume   840.79236263
_cell_formula_units_Z   12
loop_
 _symmetry_equiv_pos_site_id
 _symmetry_equiv_pos_as_xyz
  1  'x, y, z'
loop_
 _atom_site_type_symbol
 _atom_site_label
 _atom_site_symmetry_multiplicity
 _atom_site_fract_x
 _atom_site_fract_y
 _atom_site_fract_z
 _atom_site_occupancy
  Lu  Lu0  1  0.24417400  0.82338600  0.44993000  1
  Lu  Lu1  1  0.24417400  0.17661400  0.55007000  1
  Lu  Lu2  1  0.75582600  0.32338600  0.05007000  1
  Lu  Lu3  1  0.75582600  0.67661400  0.94993000  1
  Lu  Lu4  1  0.75582600  0.17661400  0.55007000  1
  Lu  Lu5  1  0.75582600  0.82338600  0.44993000  1
  Lu  Lu6  1  0.24417400  0.67661400  0.94993000  1
  Lu  Lu7  1  0.24417400  0.32338600  0.05007000  1
  Lu  Lu8  1  0.00000000  0.83554000  0.17682900  1
  Lu  Lu9  1  0.00000000  0.16446000  0.82317100  1
  Lu  Lu10  1  0.00000000  0.33554000  0.32317100  1
  Lu  Lu11  1  0.00000000  0.66446000  0.67682900  1
  Ge  Ge0  1  0.34714200  0.84209400  0.17948500  1
  Ge  Ge1  1  0.34714200  0.15790600  0.82051500  1
  Ge  Ge2  1  0.65285800  0.34209400  0.32051500  1
  Ge  Ge3  1  0.65285800  0.65790600  0.67948500  1
  Ge  Ge4  1  0.65285800  0.15790600  0.82051500  1
  Ge  Ge5  1  0.65285800  0.84209400  0.17948500  1
  Ge  Ge6  1  0.34714200  0.65790600  0.67948500  1
  Ge  Ge7  1  0.34714200  0.34209400  0.32051500  1
  Ge  Ge8  1  0.50000000  0.54305300  0.11824300  1
  Ge  Ge9  1  0.50000000  0.45694700  0.88175700  1
  Ge  Ge10  1  0.50000000  0.04305300  0.38175700  1
  Ge  Ge11  1  0.50000000  0.95694700  0.61824300  1
  Ge  Ge12  1  0.00000000  0.53565500  0.11880700  1
  Ge  Ge13  1  0.00000000  0.46434500  0.88119300  1
  Ge  Ge14  1  0.00000000  0.03565500  0.38119300  1
  Ge  Ge15  1  0.00000000  0.96434500  0.61880700  1
  Ge  Ge16  1  0.50000000  0.62390200  0.40389000  1
  Ge  Ge17  1  0.50000000  0.37609800  0.59611000  1
  Ge  Ge18  1  0.50000000  0.12390200  0.09611000  1
  Ge  Ge19  1  0.50000000  0.87609800  0.90389000  1
  Ge  Ge20  1  0.00000000  0.62892100  0.39881800  1
  Ge  Ge21  1  0.00000000  0.37107900  0.60118200  1
  Ge  Ge22  1  0.00000000  0.12892100  0.10118200  1
  Ge  Ge23  1  0.00000000  0.87107900  0.89881800  1
  Ru  Ru0  1  0.25092300  0.58861200  0.23700700  1
  Ru  Ru1  1  0.25092300  0.41138800  0.76299300  1
  Ru  Ru2  1  0.74907700  0.08861200  0.26299300  1
  Ru  Ru3  1  0.74907700  0.91138800  0.73700700  1
  Ru  Ru4  1  0.74907700  0.41138800  0.76299300  1
  Ru  Ru5  1  0.74907700  0.58861200  0.23700700  1
  Ru  Ru6  1  0.25092300  0.91138800  0.73700700  1
  Ru  Ru7  1  0.25092300  0.08861200  0.26299300  1
  Ru  Ru8  1  0.24840600  0.50000000  0.50000000  1
  Ru  Ru9  1  0.75159400  0.00000000  0.00000000  1
  Ru  Ru10  1  0.75159400  0.50000000  0.50000000  1
  Ru  Ru11  1  0.24840600  0.00000000  0.00000000  1
loop_
_geom_bond_atom_site_label_1
_geom_bond_atom_site_label_2
_geom_bond_distance
_geom_bond_site_symmetry_2
Lu0 Ru6 3.144134 1_555
Lu0 Ru8 3.147321 1_555
Lu0 Ru0 3.181290 1_555
Lu0 Ru7 3.219610 1_565
Lu1 Ru7 3.144134 1_555
Lu1 Ru8 3.147321 1_555
Lu1 Ru1 3.181290 1_555
Lu1 Ru6 3.219610 1_545
Lu2 Ru4 3.144134 1_554
Lu2 Ru9 3.147321 1_555
Lu2 Ru2 3.181290 1_555
Lu2 Ru5 3.219610 1_555
Lu3 Ru5 3.144134 1_556
Lu3 Ru9 3.147321 1_566
Lu3 Ru3 3.181290 1_555
Lu3 Ru4 3.219610 1_555
Lu4 Ru2 3.144134 1_555
Lu4 Ru10 3.147321 1_555
Lu4 Ru4 3.181290 1_555
Lu4 Ru3 3.219610 1_545
Lu5 Ru3 3.144134 1_555
Lu5 Ru10 3.147321 1_555
Lu5 Ru5 3.181290 1_555
Lu5 Ru2 3.219610 1_565
Lu6 Ru0 3.144134 1_556
Lu6 Ru11 3.147321 1_566
Lu6 Ru6 3.181290 1_555
Lu6 Ru1 3.219610 1_555
Lu7 Ru1 3.144134 1_554
Lu7 Ru11 3.147321 1_555
Lu7 Ru7 3.181290 1_555
Lu7 Ru0 3.219610 1_555
Lu8 Ru0 3.218897 1_555
Lu8 Ru5 3.218897 1_455
Lu8 Ru2 3.326735 1_465
Lu8 Ru7 3.326735 1_565
Lu9 Ru1 3.218897 1_555
Lu9 Ru4 3.218897 1_455
Lu9 Ru6 3.326735 1_545
Lu9 Ru3 3.326735 1_445
Lu10 Ru7 3.218897 1_555
Lu10 Ru2 3.218897 1_455
Lu10 Ru0 3.326735 1_555
Lu10 Ru5 3.326735 1_455
Lu11 Ru3 3.218897 1_455
Lu11 Ru6 3.218897 1_555
Lu11 Ru4 3.326735 1_455
Lu11 Ru1 3.326735 1_555
Ge0 Ge5 2.540036 1_555
Ge0 Ru11 2.559745 1_565
Ge0 Ru0 2.630804 1_555
Ge0 Ru7 2.647339 1_565
Ge0 Lu8 2.885044 1_555
Ge0 Lu0 2.983627 1_555
Ge0 Lu6 3.019175 1_554
Ge1 Ge4 2.540036 1_555
Ge1 Ru11 2.559745 1_556
Ge1 Ru1 2.630804 1_555
Ge1 Ru6 2.647339 1_545
Ge1 Lu9 2.885044 1_555
Ge1 Lu1 2.983627 1_555
Ge1 Lu7 3.019175 1_556
Ge2 Ge7 2.540036 1_555
Ge2 Ru10 2.559745 1_555
Ge2 Ru2 2.630804 1_555
Ge2 Ru5 2.647339 1_555
Ge2 Lu10 2.885044 1_655
Ge2 Lu2 2.983627 1_555
Ge2 Lu4 3.019175 1_555
Ge3 Ge6 2.540036 1_555
Ge3 Ru10 2.559745 1_555
Ge3 Ru3 2.630804 1_555
Ge3 Ru4 2.647339 1_555
Ge3 Lu11 2.885044 1_655
Ge3 Lu3 2.983627 1_555
Ge3 Lu5 3.019175 1_555
Ge4 Ru9 2.559745 1_556
Ge4 Ru4 2.630804 1_555
Ge4 Ru3 2.647339 1_545
Ge4 Lu9 2.885044 1_655
Ge4 Lu4 2.983627 1_555
Ge4 Lu2 3.019175 1_556
Ge5 Ru9 2.559745 1_565
Ge5 Ru5 2.630804 1_555
Ge5 Ru2 2.647339 1_565
Ge5 Lu8 2.885044 1_655
Ge5 Lu5 2.983627 1_555
Ge5 Lu3 3.019175 1_554
Ge6 Ru8 2.559745 1_555
Ge6 Ru6 2.630804 1_555
Ge6 Ru1 2.647339 1_555
Ge6 Lu11 2.885044 1_555
Ge6 Lu6 2.983627 1_555
Ge6 Lu0 3.019175 1_555
Ge7 Ru8 2.559745 1_555
Ge7 Ru7 2.630804 1_555
Ge7 Ru0 2.647339 1_555
Ge7 Lu10 2.885044 1_555
Ge7 Lu7 2.983627 1_555
Ge7 Lu1 3.019175 1_555
Ge8 Ru0 2.458260 1_555
Ge8 Ru5 2.458260 1_555
Ge8 Ge9 2.627724 1_554
Ge8 Lu3 3.051518 1_554
Ge8 Lu6 3.051518 1_554
Ge8 Lu2 3.078351 1_555
Ge8 Lu7 3.078351 1_555
Ge9 Ru1 2.458260 1_555
Ge9 Ru4 2.458260 1_555
Ge9 Lu7 3.051518 1_556
Ge9 Lu2 3.051518 1_556
Ge9 Lu6 3.078351 1_555
Ge9 Lu3 3.078351 1_555
Ge10 Ru2 2.458260 1_555
Ge10 Ru7 2.458260 1_555
Ge10 Ge11 2.627724 1_545
Ge10 Lu4 3.051518 1_555
Ge10 Lu1 3.051518 1_555
Ge10 Lu0 3.078351 1_545
Ge10 Lu5 3.078351 1_545
Ge11 Ru6 2.458260 1_555
Ge11 Ru3 2.458260 1_555
Ge11 Lu0 3.051518 1_555
Ge11 Lu5 3.051518 1_555
Ge11 Lu1 3.078351 1_565
Ge11 Lu4 3.078351 1_565
Ge12 Ru0 2.481727 1_555
Ge12 Ru5 2.481727 1_455
Ge12 Ge13 2.598088 1_554
Ge12 Lu10 2.886653 1_555
Ge12 Lu8 2.941406 1_555
Ge12 Lu2 2.964549 1_455
Ge12 Lu7 2.964549 1_555
Ge12 Lu6 3.019548 1_554
Ge12 Lu3 3.019548 1_454
Ge13 Ru1 2.481727 1_555
Ge13 Ru4 2.481727 1_455
Ge13 Lu11 2.886653 1_555
Ge13 Lu9 2.941406 1_555
Ge13 Lu3 2.964549 1_455
Ge13 Lu6 2.964549 1_555
Ge13 Lu2 3.019548 1_456
Ge13 Lu7 3.019548 1_556
Ge14 Ru7 2.481727 1_555
Ge14 Ru2 2.481727 1_455
Ge14 Ge15 2.598088 1_545
Ge14 Lu8 2.886653 1_545
Ge14 Lu10 2.941406 1_555
Ge14 Lu0 2.964549 1_545
Ge14 Lu5 2.964549 1_445
Ge14 Lu1 3.019548 1_555
Ge14 Lu4 3.019548 1_455
Ge15 Ru3 2.481727 1_455
Ge15 Ru6 2.481727 1_555
Ge15 Lu9 2.886653 1_565
Ge15 Lu11 2.941406 1_555
Ge15 Lu4 2.964549 1_465
Ge15 Lu1 2.964549 1_565
Ge15 Lu5 3.019548 1_455
Ge15 Lu0 3.019548 1_555
Ge16 Ru8 2.609667 1_555
Ge16 Ru10 2.609667 1_555
Ge16 Ru0 2.737875 1_555
Ge16 Ru5 2.737875 1_555
Ge16 Lu5 2.901094 1_555
Ge16 Lu0 2.901094 1_555
Ge17 Ru10 2.609667 1_555
Ge17 Ru8 2.609667 1_555
Ge17 Ru1 2.737875 1_555
Ge17 Ru4 2.737875 1_555
Ge17 Lu1 2.901094 1_555
Ge17 Lu4 2.901094 1_555
Ge18 Ru11 2.609667 1_555
Ge18 Ru9 2.609667 1_555
Ge18 Ru2 2.737875 1_555
Ge18 Ru7 2.737875 1_555
Ge18 Lu2 2.901094 1_555
Ge18 Lu7 2.901094 1_555
Ge19 Ru9 2.609667 1_566
Ge19 Ru11 2.609667 1_566
Ge19 Ru3 2.737875 1_555
Ge19 Ru6 2.737875 1_555
Ge19 Lu6 2.901094 1_555
Ge19 Lu3 2.901094 1_555
Ge20 Ru10 2.632196 1_455
Ge20 Ru8 2.632196 1_555
Ge20 Ru0 2.721967 1_555
Ge20 Ru5 2.721967 1_455
Ge20 Lu0 2.808383 1_555
Ge20 Lu5 2.808383 1_455
Ge20 Lu10 2.925551 1_555
Ge20 Lu11 2.952266 1_555
Ge20 Lu8 3.067954 1_555
Ge21 Ru10 2.632196 1_455
Ge21 Ru8 2.632196 1_555
Ge21 Ru4 2.721967 1_455
Ge21 Ru1 2.721967 1_555
Ge21 Lu1 2.808383 1_555
Ge21 Lu4 2.808383 1_455
Ge21 Lu11 2.925551 1_555
Ge21 Lu10 2.952266 1_555
Ge21 Lu9 3.067954 1_555
Ge22 Ru9 2.632196 1_455
Ge22 Ru11 2.632196 1_555
Ge22 Ru2 2.721967 1_455
Ge22 Ru7 2.721967 1_555
Ge22 Lu7 2.808383 1_555
Ge22 Lu2 2.808383 1_455
Ge22 Lu8 2.925551 1_545
Ge22 Lu9 2.952266 1_554
Ge22 Lu10 3.067954 1_555
Ge23 Ru9 2.632196 1_466
Ge23 Ru11 2.632196 1_566
Ge23 Ru6 2.721967 1_555
Ge23 Ru3 2.721967 1_455
Ge23 Lu3 2.808383 1_455
Ge23 Lu6 2.808383 1_555
Ge23 Lu9 2.925551 1_565
Ge23 Lu8 2.952266 1_556
Ge23 Lu11 3.067954 1_555
Ru0 Ru8 2.901512 1_555
Ru1 Ru8 2.901512 1_555
Ru2 Ru9 2.901512 1_555
Ru3 Ru9 2.901512 1_566
Ru10 Ru5 2.901512 1_555
Ru10 Ru4 2.901512 1_555
Ru11 Ru7 2.901512 1_555
Ru11 Ru6 2.901512 1_544
