# generated using pymatgen
data_Sr2Ce2YCoCu2O11
_symmetry_space_group_name_H-M   'P 1'
_cell_length_a   17.41554580
_cell_length_b   17.41554580
_cell_length_c   17.41554580
_cell_angle_alpha   161.97739989
_cell_angle_beta   161.84311336
_cell_angle_gamma   25.69149856
_symmetry_Int_Tables_number   1
_chemical_formula_structural   Sr2Ce2YCoCu2O11
_chemical_formula_sum   'Sr4 Ce4 Y2 Co2 Cu4 O22'
_cell_volume   509.10381734
_cell_formula_units_Z   2
loop_
 _symmetry_equiv_pos_site_id
 _symmetry_equiv_pos_as_xyz
  1  'x, y, z'
loop_
 _atom_site_type_symbol
 _atom_site_label
 _atom_site_symmetry_multiplicity
 _atom_site_fract_x
 _atom_site_fract_y
 _atom_site_fract_z
 _atom_site_occupancy
  Sr  Sr0  1  0.19503700  0.18458500  0.01295100  1
  Sr  Sr1  1  0.80496300  0.81791400  0.98954800  1
  Sr  Sr2  1  0.67163400  0.68458500  0.98954800  1
  Sr  Sr3  1  0.32836600  0.31791400  0.01295100  1
  Ce  Ce0  1  0.07647000  0.07599800  0.00114100  1
  Ce  Ce1  1  0.92353000  0.92467100  0.99952800  1
  Ce  Ce2  1  0.57485700  0.57599800  0.99952800  1
  Ce  Ce3  1  0.42514300  0.42467100  0.00114100  1
  Y  Y0  1  0.50000000  0.00001000  0.50001000  1
  Y  Y1  1  0.00000000  0.50001000  0.50001000  1
  Co  Co0  1  0.18563500  0.71442500  0.40006000  1
  Co  Co1  1  0.81436500  0.21442500  0.52879000  1
  Cu  Cu0  1  0.12967300  0.63130500  0.50060200  1
  Cu  Cu1  1  0.87032700  0.37092800  0.50163200  1
  Cu  Cu2  1  0.63070400  0.13130500  0.50163200  1
  Cu  Cu3  1  0.36929600  0.87092800  0.50060200  1
  O  O0  1  0.66558700  0.21886700  0.48584800  1
  O  O1  1  0.33441300  0.82026100  0.55328000  1
  O  O2  1  0.23301900  0.71886700  0.55328000  1
  O  O3  1  0.76698100  0.32026100  0.48584800  1
  O  O4  1  0.37509700  0.87314800  0.00123600  1
  O  O5  1  0.62490300  0.62613900  0.49805100  1
  O  O6  1  0.37191300  0.37314800  0.49805100  1
  O  O7  1  0.62808700  0.12613900  0.00123600  1
  O  O8  1  0.29077200  0.79079400  0.99992600  1
  O  O9  1  0.70922800  0.70915400  0.50002200  1
  O  O10  1  0.29086800  0.29079400  0.50002200  1
  O  O11  1  0.70913200  0.20915400  0.99992600  1
  O  O12  1  0.87528000  0.37560900  0.00156200  1
  O  O13  1  0.12472000  0.12628300  0.50033000  1
  O  O14  1  0.87404700  0.87560900  0.50033000  1
  O  O15  1  0.12595300  0.62628300  0.00156200  1
  O  O16  1  0.79114400  0.29107400  0.00001400  1
  O  O17  1  0.20885600  0.20887000  0.49993000  1
  O  O18  1  0.79106000  0.79107400  0.49993000  1
  O  O19  1  0.20894000  0.70887000  0.00001400  1
  O  O20  1  0.13840200  0.35917100  0.99757400  1
  O  O21  1  0.86159800  0.85917100  0.22076900  1
loop_
_geom_bond_atom_site_label_1
_geom_bond_atom_site_label_2
_geom_bond_distance
_geom_bond_site_symmetry_2
Ce0 O10 2.265238 1_555
Ce0 O16 2.265327 1_455
Ce0 O8 2.267287 1_544
Ce0 O18 2.267987 1_444
Ce0 O6 2.518175 1_555
Ce0 O4 2.531731 1_545
Ce0 O12 2.555169 1_455
Ce0 O14 2.555252 1_444
Ce1 O11 2.265238 1_565
Ce1 O17 2.265327 1_666
Ce1 O9 2.267287 1_555
Ce1 O19 2.267987 1_656
Ce1 O7 2.518178 1_566
Ce1 O5 2.531731 1_555
Ce1 O13 2.555172 1_666
Ce1 O15 2.555252 1_656
Ce2 O8 2.265238 1_555
Ce2 O18 2.265327 1_556
Ce2 O10 2.267287 1_555
Ce2 O16 2.267987 1_556
Ce2 O4 2.518164 1_556
Ce2 O6 2.531742 1_555
Ce2 O14 2.555161 1_556
Ce2 O12 2.555266 1_556
Ce3 O9 2.265238 1_555
Ce3 O19 2.265327 1_555
Ce3 O11 2.267287 1_554
Ce3 O17 2.267987 1_554
Ce3 O5 2.518164 1_555
Ce3 O7 2.531739 1_555
Ce3 O15 2.555161 1_555
Ce3 O13 2.555263 1_554
Co0 O2 1.828958 1_555
Co0 O1 1.828958 1_555
Co0 O21 1.948094 1_455
Co0 O20 1.955416 1_554
Co1 O0 1.828958 1_555
Co1 O3 1.828958 1_555
Co1 O20 1.948098 1_655
Co1 O21 1.955419 1_545
Cu0 O12 1.941312 1_455
Cu0 O14 1.944782 1_455
Cu0 O6 1.950710 1_555
Cu0 O4 1.951821 1_556
Cu0 O2 2.356777 1_555
Cu1 O13 1.941306 1_655
Cu1 O15 1.944784 1_656
Cu1 O7 1.950708 1_555
Cu1 O5 1.951827 1_555
Cu1 O3 2.356761 1_555
Cu2 O14 1.941312 1_545
Cu2 O12 1.944782 1_556
Cu2 O4 1.950710 1_545
Cu2 O6 1.951821 1_555
Cu2 O0 2.356761 1_555
Cu3 O15 1.941317 1_555
Cu3 O13 1.944788 1_565
Cu3 O5 1.950712 1_555
Cu3 O7 1.951823 1_566
Cu3 O1 2.356744 1_555
O0 Sr0 2.558450 1_555
O0 Sr2 2.685956 1_555
O0 Sr2 2.881763 1_544
O0 Sr0 3.047837 1_656
O1 Sr1 2.558450 1_555
O1 Sr3 2.685956 1_566
O1 Sr3 2.881763 1_555
O1 Sr1 3.047837 1_454
O2 Sr2 2.558450 1_555
O2 Sr0 2.685956 1_566
O2 Sr0 2.881763 1_555
O2 Sr2 3.047837 1_454
O3 Sr3 2.558450 1_555
O3 Sr1 2.685956 1_555
O3 Sr1 2.881763 1_544
O3 Sr3 3.047837 1_656
O4 Sr2 2.767135 1_554
O4 Sr0 2.784005 1_565
O5 Sr3 2.767135 1_555
O5 Sr1 2.784005 1_555
O6 Sr0 2.767123 1_555
O6 Sr2 2.783993 1_555
O7 Sr1 2.767125 1_544
O7 Sr3 2.783990 1_555
O8 Y1 2.380828 1_555
O8 Y0 2.381357 1_566
O9 Y1 2.380828 1_655
O9 Y0 2.381357 1_565
O10 Y0 2.380828 1_555
O10 Y1 2.381357 1_555
O11 Y0 2.380828 1_555
O11 Y1 2.381357 1_656
O12 Sr0 2.807935 1_655
O12 Sr2 2.813013 1_554
O13 Sr1 2.807938 1_444
O13 Sr3 2.813010 1_556
O14 Sr2 2.807950 1_554
O14 Sr0 2.813022 1_666
O15 Sr3 2.807950 1_555
O15 Sr1 2.813022 1_454
O16 Y1 2.386666 1_655
O16 Y0 2.386695 1_554
O17 Y1 2.386666 1_555
O17 Y0 2.386695 1_555
O18 Y0 2.386666 1_565
O18 Y1 2.386695 1_655
O19 Y0 2.386666 1_565
O19 Y1 2.386695 1_554
O20 Sr0 2.435351 1_556
O20 Sr3 2.435383 1_556
O21 Sr2 2.435367 1_554
O21 Sr1 2.435367 1_554
