# generated using pymatgen
data_CoH2CO3
_symmetry_space_group_name_H-M   'P 1'
_cell_length_a   7.75992918
_cell_length_b   7.75992918
_cell_length_c   7.75992847
_cell_angle_alpha   96.33262928
_cell_angle_beta   96.33262928
_cell_angle_gamma   96.33262722
_symmetry_Int_Tables_number   1
_chemical_formula_structural   CoH2CO3
_chemical_formula_sum   'Co6 H12 C6 O18'
_cell_volume   458.02978317
_cell_formula_units_Z   6
loop_
 _symmetry_equiv_pos_site_id
 _symmetry_equiv_pos_as_xyz
  1  'x, y, z'
loop_
 _atom_site_type_symbol
 _atom_site_label
 _atom_site_symmetry_multiplicity
 _atom_site_fract_x
 _atom_site_fract_y
 _atom_site_fract_z
 _atom_site_occupancy
  Co  Co0  1  0.70385900  0.06891300  0.97748500  1
  Co  Co1  1  0.97748500  0.70385900  0.06891300  1
  Co  Co2  1  0.06891300  0.97748500  0.70385900  1
  Co  Co3  1  0.29614100  0.93108700  0.02251500  1
  Co  Co4  1  0.02251500  0.29614100  0.93108700  1
  Co  Co5  1  0.93108700  0.02251500  0.29614100  1
  H  H0  1  0.68077800  0.79309500  0.10085000  1
  H  H1  1  0.10085000  0.68077800  0.79309500  1
  H  H2  1  0.79309500  0.10085000  0.68077800  1
  H  H3  1  0.31922200  0.20690500  0.89915000  1
  H  H4  1  0.89915000  0.31922200  0.20690500  1
  H  H5  1  0.20690500  0.89915000  0.31922200  1
  H  H6  1  0.53109200  0.84991400  0.59741400  1
  H  H7  1  0.59741400  0.53109200  0.84991400  1
  H  H8  1  0.84991400  0.59741400  0.53109200  1
  H  H9  1  0.46890800  0.15008600  0.40258600  1
  H  H10  1  0.40258600  0.46890800  0.15008600  1
  H  H11  1  0.15008600  0.40258600  0.46890800  1
  C  C0  1  0.42309000  0.88184000  0.67253000  1
  C  C1  1  0.67253000  0.42309000  0.88184000  1
  C  C2  1  0.88184000  0.67253000  0.42309000  1
  C  C3  1  0.57691000  0.11816000  0.32747000  1
  C  C4  1  0.32747000  0.57691000  0.11816000  1
  C  C5  1  0.11816000  0.32747000  0.57691000  1
  O  O0  1  0.46214400  0.91259200  0.83873600  1
  O  O1  1  0.83873600  0.46214400  0.91259200  1
  O  O2  1  0.91259200  0.83873600  0.46214400  1
  O  O3  1  0.53785600  0.08740800  0.16126400  1
  O  O4  1  0.16126400  0.53785600  0.08740800  1
  O  O5  1  0.08740800  0.16126400  0.53785600  1
  O  O6  1  0.27551200  0.88509800  0.58772800  1
  O  O7  1  0.58772800  0.27551200  0.88509800  1
  O  O8  1  0.88509800  0.58772800  0.27551200  1
  O  O9  1  0.72448800  0.11490200  0.41227200  1
  O  O10  1  0.41227200  0.72448800  0.11490200  1
  O  O11  1  0.11490200  0.41227200  0.72448800  1
  O  O12  1  0.78906900  0.85625800  0.07407200  1
  O  O13  1  0.07407200  0.78906900  0.85625800  1
  O  O14  1  0.85625800  0.07407200  0.78906900  1
  O  O15  1  0.21093100  0.14374200  0.92592800  1
  O  O16  1  0.92592800  0.21093100  0.14374200  1
  O  O17  1  0.14374200  0.92592800  0.21093100  1
loop_
_geom_bond_atom_site_label_1
_geom_bond_atom_site_label_2
_geom_bond_distance
_geom_bond_site_symmetry_2
Co0 O14 1.980349 1_555
Co0 O3 2.028465 1_556
Co0 O12 2.031335 1_546
Co0 O7 2.079914 1_555
Co0 O16 2.150697 1_556
Co0 O0 2.216613 1_545
Co1 O12 1.980350 1_555
Co1 O4 2.028466 1_655
Co1 O13 2.031335 1_654
Co1 O8 2.079914 1_555
Co1 O17 2.150697 1_655
Co1 O1 2.216613 1_554
Co2 O13 1.980349 1_555
Co2 O5 2.028465 1_565
Co2 O14 2.031335 1_465
Co2 O6 2.079914 1_555
Co2 O15 2.150697 1_565
Co2 O2 2.216613 1_455
Co3 O17 1.980349 1_555
Co3 O0 2.028465 1_554
Co3 O15 2.031335 1_564
Co3 O10 2.079914 1_555
Co3 O13 2.150697 1_554
Co3 O3 2.216613 1_565
Co4 O15 1.980350 1_555
Co4 O1 2.028466 1_455
Co4 O16 2.031335 1_456
Co4 O11 2.079914 1_555
Co4 O14 2.150697 1_455
Co4 O4 2.216613 1_556
Co5 O16 1.980349 1_555
Co5 O2 2.028465 1_545
Co5 O17 2.031335 1_645
Co5 O9 2.079914 1_555
Co5 O12 2.150697 1_545
Co5 O5 2.216613 1_655
H0 O12 0.979642 1_555
H1 O13 0.979642 1_555
H2 O14 0.979642 1_555
H3 O15 0.979642 1_555
H4 O16 0.979642 1_555
H5 O17 0.979642 1_555
C0 H6 1.106909 1_555
C0 O6 1.260540 1_555
C0 O0 1.281468 1_555
C1 H7 1.106909 1_555
C1 O7 1.260540 1_555
C1 O1 1.281468 1_555
C2 H8 1.106909 1_555
C2 O8 1.260540 1_555
C2 O2 1.281468 1_555
C3 H9 1.106909 1_555
C3 O9 1.260540 1_555
C3 O3 1.281468 1_555
C4 H10 1.106909 1_555
C4 O10 1.260540 1_555
C4 O4 1.281468 1_555
C5 H11 1.106909 1_555
C5 O11 1.260540 1_555
C5 O5 1.281468 1_555
