# generated using pymatgen
data_ScV4Si3
_symmetry_space_group_name_H-M   'P 1'
_cell_length_a   4.94123101
_cell_length_b   7.23908559
_cell_length_c   7.44510726
_cell_angle_alpha   120.92911413
_cell_angle_beta   89.99463160
_cell_angle_gamma   90.00597970
_symmetry_Int_Tables_number   1
_chemical_formula_structural   ScV4Si3
_chemical_formula_sum   'Sc2 V8 Si6'
_cell_volume   228.44297888
_cell_formula_units_Z   2
loop_
 _symmetry_equiv_pos_site_id
 _symmetry_equiv_pos_as_xyz
  1  'x, y, z'
loop_
 _atom_site_type_symbol
 _atom_site_label
 _atom_site_symmetry_multiplicity
 _atom_site_fract_x
 _atom_site_fract_y
 _atom_site_fract_z
 _atom_site_occupancy
  Sc  Sc0  1  0.74994000  0.23113100  0.00126300  1
  Sc  Sc1  1  0.75009900  0.76881700  0.77024600  1
  V  V0  1  0.50093200  0.33670900  0.66811300  1
  V  V1  1  0.50104600  0.66330200  0.33137300  1
  V  V2  1  0.99905200  0.66326700  0.33139600  1
  V  V3  1  0.99899200  0.33666800  0.66803400  1
  V  V4  1  0.75012400  0.00007500  0.26003500  1
  V  V5  1  0.25006600  0.75858400  0.00399300  1
  V  V6  1  0.24979700  0.24136600  0.24546700  1
  V  V7  1  0.25000900  0.00007700  0.72808200  1
  Si  Si0  1  0.75001000  0.60496500  0.00686000  1
  Si  Si1  1  0.74981500  0.39495200  0.40204000  1
  Si  Si2  1  0.75000200  0.00009000  0.59157800  1
  Si  Si3  1  0.24999600  0.39667400  0.99814900  1
  Si  Si4  1  0.25004300  0.60324000  0.60151000  1
  Si  Si5  1  0.25007900  0.00008300  0.39186200  1
loop_
_geom_bond_atom_site_label_1
_geom_bond_atom_site_label_2
_geom_bond_distance
_geom_bond_site_symmetry_2
Sc0 Si1 2.583048 1_555
Sc0 Si2 2.618528 1_554
Sc0 Si0 2.685037 1_555
Sc0 Si3 2.751075 1_554
Sc0 Si3 2.751344 1_654
Sc1 Si0 2.580339 1_556
Sc1 Si2 2.619482 1_565
Sc1 Si1 2.685717 1_555
Sc1 Si4 2.751295 1_655
Sc1 Si4 2.751778 1_555
Si0 V4 2.488341 1_565
Si0 V1 2.545516 1_555
Si0 V2 2.546108 1_555
Si0 V0 2.571376 1_554
Si0 V3 2.571540 1_554
Si0 V5 2.713797 1_555
Si0 V5 2.714086 1_655
Si1 V4 2.486444 1_555
Si1 V0 2.544067 1_555
Si1 V3 2.544652 1_555
Si1 V1 2.571531 1_555
Si1 V2 2.572076 1_555
Si1 V6 2.714086 1_655
Si1 V6 2.714235 1_555
Si2 V4 2.468317 1_555
Si2 V3 2.519548 1_555
Si2 V0 2.520031 1_555
Si2 V1 2.520900 1_545
Si2 V2 2.521296 1_545
Si2 V7 2.671374 1_555
Si2 V7 2.671614 1_655
Si3 V7 2.520206 1_555
Si3 V2 2.548640 1_456
Si3 V1 2.548890 1_556
Si3 V0 2.581969 1_555
Si3 V3 2.582722 1_455
Si3 V5 2.597803 1_556
Si3 V6 2.604318 1_556
Si4 V7 2.521478 1_565
Si4 V0 2.547467 1_555
Si4 V3 2.547526 1_455
Si4 V2 2.582643 1_455
Si4 V1 2.582740 1_555
Si4 V6 2.598255 1_555
Si4 V5 2.603815 1_556
Si5 V6 2.489126 1_555
Si5 V5 2.491132 1_545
Si5 V7 2.503216 1_555
Si5 V0 2.559807 1_555
Si5 V3 2.560082 1_455
Si5 V1 2.560527 1_545
Si5 V2 2.560737 1_445
Si5 V4 2.658292 1_455
Si5 V4 2.658534 1_555
