# generated using pymatgen
data_Mg15W
_symmetry_space_group_name_H-M   'P 1'
_cell_length_a   6.29648391
_cell_length_b   6.29648391
_cell_length_c   10.06285700
_cell_angle_alpha   90.00000000
_cell_angle_beta   90.00000000
_cell_angle_gamma   119.99999910
_symmetry_Int_Tables_number   1
_chemical_formula_structural   Mg15W
_chemical_formula_sum   'Mg15 W1'
_cell_volume   345.50006482
_cell_formula_units_Z   1
loop_
 _symmetry_equiv_pos_site_id
 _symmetry_equiv_pos_as_xyz
  1  'x, y, z'
loop_
 _atom_site_type_symbol
 _atom_site_label
 _atom_site_symmetry_multiplicity
 _atom_site_fract_x
 _atom_site_fract_y
 _atom_site_fract_z
 _atom_site_occupancy
  Mg  Mg0  1  0.00000000  0.00000000  0.50000000  1
  Mg  Mg1  1  0.00007900  0.50003900  0.00000000  1
  Mg  Mg2  1  0.00194900  0.50097500  0.50000000  1
  Mg  Mg3  1  0.49996100  0.50003900  0.00000000  1
  Mg  Mg4  1  0.49902500  0.50097500  0.50000000  1
  Mg  Mg5  1  0.49996100  0.99992100  0.00000000  1
  Mg  Mg6  1  0.49902500  0.99805100  0.50000000  1
  Mg  Mg7  1  0.16063500  0.32126900  0.75909800  1
  Mg  Mg8  1  0.16063500  0.32126900  0.24090200  1
  Mg  Mg9  1  0.16063500  0.83936500  0.75909800  1
  Mg  Mg10  1  0.16063500  0.83936500  0.24090200  1
  Mg  Mg11  1  0.67873100  0.83936500  0.75909800  1
  Mg  Mg12  1  0.67873100  0.83936500  0.24090200  1
  Mg  Mg13  1  0.66666700  0.33333300  0.74768800  1
  Mg  Mg14  1  0.66666700  0.33333300  0.25231200  1
  W  W0  1  0.00000000  0.00000000  0.00000000  1
loop_
_geom_bond_atom_site_label_1
_geom_bond_atom_site_label_2
_geom_bond_distance
_geom_bond_site_symmetry_2
Mg0 Mg7 3.141150 1_555
Mg0 Mg11 3.141150 1_445
Mg0 Mg8 3.141150 1_555
Mg0 Mg12 3.141150 1_445
Mg0 Mg9 3.141153 1_545
Mg0 Mg10 3.141153 1_545
Mg0 Mg2 3.148257 1_545
Mg0 Mg6 3.148257 1_545
Mg0 Mg4 3.148260 1_555
Mg0 Mg4 3.148260 1_445
Mg0 Mg6 3.148263 1_445
Mg0 Mg2 3.148263 1_555
Mg1 Mg8 3.050167 1_555
Mg1 Mg7 3.050167 1_554
Mg1 Mg10 3.050167 1_555
Mg1 Mg9 3.050167 1_554
Mg1 Mg13 3.122785 1_454
Mg1 Mg14 3.122785 1_455
Mg1 Mg3 3.147499 1_555
Mg1 Mg5 3.147499 1_555
Mg1 W0 3.148239 1_555
Mg1 W0 3.148245 1_565
Mg1 Mg3 3.148985 1_455
Mg1 Mg5 3.148985 1_445
Mg2 Mg4 3.129831 1_555
Mg2 Mg6 3.129831 1_555
Mg2 Mg4 3.166653 1_455
Mg2 Mg6 3.166653 1_445
Mg2 Mg9 3.194843 1_555
Mg2 Mg7 3.194849 1_555
Mg2 Mg8 3.194849 1_555
Mg3 Mg8 3.050167 1_555
Mg3 Mg7 3.050167 1_554
Mg3 Mg5 3.147499 1_555
Mg3 W0 3.148242 1_665
Mg3 W0 3.148242 1_555
Mg3 Mg5 3.148985 1_545
Mg4 Mg6 3.129831 1_555
Mg4 Mg6 3.166653 1_545
Mg4 Mg7 3.194843 1_555
Mg4 Mg8 3.194843 1_555
Mg5 Mg9 3.050167 1_554
Mg5 W0 3.148239 1_665
Mg5 W0 3.148245 1_565
Mg6 Mg9 3.194843 1_555
Mg7 W0 2.990911 1_556
Mg8 W0 2.990911 1_555
Mg9 W0 2.990915 1_566
Mg10 W0 2.990915 1_565
Mg10 Mg5 3.050167 1_555
Mg10 Mg14 3.151022 1_455
Mg10 Mg14 3.151022 1_565
Mg10 Mg2 3.194843 1_555
Mg10 Mg6 3.194843 1_555
Mg11 W0 2.990911 1_666
Mg11 Mg5 3.050167 1_556
Mg11 Mg3 3.050167 1_556
Mg11 Mg13 3.151022 1_565
Mg11 Mg13 3.151022 1_555
Mg11 Mg4 3.194843 1_555
Mg11 Mg6 3.194849 1_555
Mg12 W0 2.990911 1_665
Mg12 Mg5 3.050167 1_555
Mg12 Mg3 3.050167 1_555
Mg12 Mg14 3.151022 1_565
Mg12 Mg14 3.151022 1_555
Mg12 Mg4 3.194843 1_555
Mg12 Mg6 3.194849 1_555
Mg13 Mg2 3.091092 1_655
Mg13 Mg6 3.091092 1_545
Mg13 Mg4 3.091099 1_555
Mg13 Mg3 3.122785 1_556
Mg13 Mg5 3.122785 1_546
Mg13 Mg7 3.151022 1_655
Mg13 Mg7 3.151022 1_555
Mg13 Mg9 3.151022 1_655
Mg13 Mg9 3.151022 1_545
Mg14 Mg2 3.091092 1_655
Mg14 Mg6 3.091092 1_545
Mg14 Mg4 3.091099 1_555
Mg14 Mg3 3.122785 1_555
Mg14 Mg5 3.122785 1_545
Mg14 Mg8 3.151022 1_655
Mg14 Mg8 3.151022 1_555
