# generated using pymatgen
data_Li7V3P8O29
_symmetry_space_group_name_H-M   'P 1'
_cell_length_a   9.82106305
_cell_length_b   9.79789853
_cell_length_c   13.88398289
_cell_angle_alpha   90.45659962
_cell_angle_beta   90.53571867
_cell_angle_gamma   60.48708503
_symmetry_Int_Tables_number   1
_chemical_formula_structural   Li7V3P8O29
_chemical_formula_sum   'Li14 V6 P16 O58'
_cell_volume   1162.58483795
_cell_formula_units_Z   2
loop_
 _symmetry_equiv_pos_site_id
 _symmetry_equiv_pos_as_xyz
  1  'x, y, z'
loop_
 _atom_site_type_symbol
 _atom_site_label
 _atom_site_symmetry_multiplicity
 _atom_site_fract_x
 _atom_site_fract_y
 _atom_site_fract_z
 _atom_site_occupancy
  Li  Li0  1  0.76273530  0.89986163  0.55859119  1
  Li  Li1  1  0.90523268  0.33200486  0.56515971  1
  Li  Li2  1  0.68553625  0.66248938  0.88796581  1
  Li  Li3  1  0.76627828  0.32689697  0.06098140  1
  Li  Li4  1  0.32892881  0.90297720  0.06140532  1
  Li  Li5  1  0.66512621  0.23880712  0.43830057  1
  Li  Li6  1  0.33106602  0.76283619  0.56164343  1
  Li  Li7  1  0.66960213  0.09849503  0.93889572  1
  Li  Li8  1  0.23313131  0.67656234  0.93869804  1
  Li  Li9  1  0.31500234  0.33542298  0.11182298  1
  Li  Li10  1  0.09588142  0.66567915  0.43515951  1
  Li  Li11  1  0.23517320  0.09690455  0.44094188  1
  Li  Li12  1  0.99619451  0.00187108  0.00041456  1
  Li  Li13  1  0.99296810  0.00207487  0.49982501  1
  V  V0  1  0.56407970  0.43788716  0.25190174  1
  V  V1  1  0.43667706  0.56192580  0.74789099  1
  V  V2  1  0.56252016  0.00040217  0.75118994  1
  V  V3  1  0.43759499  0.99936319  0.24939451  1
  V  V4  1  0.99774135  0.56376767  0.24692113  1
  V  V5  1  0.00281829  0.43637800  0.75269115  1
  P  P0  1  0.91304470  0.78567795  0.84258568  1
  P  P1  1  0.77618751  0.91565863  0.34073304  1
  P  P2  1  0.91634900  0.31164944  0.34697890  1
  P  P3  1  0.66201893  0.66843560  0.12878463  1
  P  P4  1  0.66436925  0.66775112  0.62851811  1
  P  P5  1  0.77454230  0.31780282  0.84246240  1
  P  P6  1  0.68639558  0.22463319  0.65683113  1
  P  P7  1  0.31476626  0.90886327  0.84514005  1
  P  P8  1  0.68498859  0.09190128  0.15487600  1
  P  P9  1  0.31348416  0.77400435  0.34316338  1
  P  P10  1  0.22672064  0.68109016  0.15697532  1
  P  P11  1  0.33601354  0.33274064  0.37118853  1
  P  P12  1  0.33934611  0.33140549  0.87139540  1
  P  P13  1  0.08289962  0.68951812  0.65346269  1
  P  P14  1  0.22466973  0.08437075  0.65899339  1
  P  P15  1  0.08622177  0.21453959  0.15790483  1
  O  O0  1  0.99916344  0.78126316  0.56272455  1
  O  O1  1  0.91860638  0.75235267  0.34174678  1
  O  O2  1  0.76648762  0.01183767  0.06386635  1
  O  O3  1  0.74415995  0.92777651  0.84279346  1
  O  O4  1  0.90002155  0.63559367  0.83964997  1
  O  O5  1  0.80379432  0.67229812  0.17033045  1
  O  O6  1  0.91400652  0.46681188  0.33687509  1
  O  O7  1  0.98971880  0.19817008  0.07857264  1
  O  O8  1  0.91670024  0.33887559  0.84335258  1
  O  O9  1  0.67172373  0.81273158  0.67574343  1
  O  O10  1  0.62025189  0.91410328  0.32915585  1
  O  O11  1  0.80697051  0.51500467  0.66586151  1
  O  O12  1  0.64975813  0.66339350  0.02089976  1
  O  O13  1  0.65357530  0.68585132  0.52151365  1
  O  O14  1  0.66239103  0.51720774  0.17037133  1
  O  O15  1  0.47893819  0.89539653  0.83165281  1
  O  O16  1  0.50904432  0.81662839  0.16807720  1
  O  O17  1  0.74974755  0.33237946  0.34250945  1
  O  O18  1  0.78989841  0.20729134  0.75110127  1
  O  O19  1  0.77846398  0.22136331  0.56848353  1
  O  O20  1  0.76131034  0.23627839  0.93134796  1
  O  O21  1  0.62614716  0.48194836  0.82685583  1
  O  O22  1  0.51020983  0.67347773  0.66910120  1
  O  O23  1  0.66192330  0.25959038  0.15910832  1
  O  O24  1  0.46945626  0.61972711  0.33432807  1
  O  O25  1  0.33708551  0.91814108  0.34319766  1
  O  O26  1  0.79202370  0.00347954  0.24704755  1
  O  O27  1  0.77523286  0.00747723  0.43023840  1
  O  O28  1  0.22558681  0.99239537  0.56971012  1
  O  O29  1  0.66334972  0.08031306  0.65648192  1
  O  O30  1  0.53037294  0.37891523  0.66614235  1
  O  O31  1  0.33844680  0.74093580  0.84040492  1
  O  O32  1  0.49034811  0.32490217  0.32950513  1
  O  O33  1  0.37562247  0.51748614  0.17253095  1
  O  O34  1  0.23995065  0.76341915  0.06856702  1
  O  O35  1  0.22120400  0.77756024  0.43142442  1
  O  O36  1  0.21018236  0.79120546  0.24882903  1
  O  O37  1  0.24936405  0.66907956  0.65818218  1
  O  O38  1  0.49161127  0.18364579  0.83096112  1
  O  O39  1  0.52087002  0.10531350  0.16888318  1
  O  O40  1  0.33992635  0.48263157  0.83057827  1
  O  O41  1  0.35416636  0.33310754  0.97926155  1
  O  O42  1  0.34638537  0.32066536  0.47848094  1
  O  O43  1  0.19348264  0.48399884  0.33216857  1
  O  O44  1  0.38076908  0.08551415  0.67058631  1
  O  O45  1  0.32910516  0.18572058  0.32678015  1
  O  O46  1  0.08528763  0.65855537  0.15523888  1
  O  O47  1  0.98711954  0.80167516  0.74211652  1
  O  O48  1  0.01013187  0.80166066  0.92173386  1
  O  O49  1  0.08661860  0.53360041  0.66354220  1
  O  O50  1  0.19682340  0.32914611  0.83023904  1
  O  O51  1  0.09931463  0.36463924  0.16038709  1
  O  O52  1  0.25544823  0.07256320  0.15834126  1
  O  O53  1  0.23334612  0.98857579  0.93625019  1
  O  O54  1  0.20800274  0.99756796  0.75300444  1
  O  O55  1  0.08243383  0.24781198  0.65772676  1
  O  O56  1  0.99986789  0.21906109  0.43752536  1
  O  O57  1  0.01145871  0.19923251  0.25812452  1
loop_
_geom_bond_atom_site_label_1
_geom_bond_atom_site_label_2
_geom_bond_distance
_geom_bond_site_symmetry_2
Li0 O0 2.021230 1_555
Li0 O29 2.052347 1_565
Li0 O27 2.112837 1_565
Li0 O9 2.230350 1_555
Li1 O55 1.980288 1_655
Li1 O19 2.014681 1_555
Li1 O56 2.053015 1_555
Li1 O11 2.093200 1_555
Li2 O12 1.881164 1_556
Li2 O4 2.105557 1_555
Li2 O21 2.274312 1_555
Li2 O15 2.317890 1_555
Li3 O7 1.932336 1_555
Li3 O20 2.011380 1_554
Li3 O23 2.011890 1_555
Li3 O14 2.221259 1_555
Li4 O53 1.954759 1_554
Li4 O34 1.955578 1_555
Li4 O52 1.973351 1_565
Li4 O16 2.129512 1_555
Li5 O27 1.975487 1_555
Li5 O17 2.022577 1_555
Li5 O19 2.077250 1_555
Li5 O32 2.117749 1_555
Li6 O28 1.961408 1_555
Li6 O37 2.012505 1_555
Li6 O35 2.065915 1_555
Li6 O22 2.131185 1_555
Li7 O2 1.957923 1_556
Li7 O20 1.961282 1_555
Li7 O3 1.972391 1_545
Li7 O38 2.128736 1_555
Li8 O48 1.924708 1_555
Li8 O34 2.002327 1_556
Li8 O31 2.003214 1_555
Li8 O40 2.232573 1_555
Li9 O41 1.881436 1_554
Li9 O51 2.109479 1_555
Li9 O33 2.293455 1_555
Li9 O39 2.303477 1_555
Li10 O1 1.988228 1_455
Li10 O35 2.012611 1_555
Li10 O0 2.064282 1_455
Li10 O43 2.106218 1_555
Li11 O56 2.012215 1_455
Li11 O25 2.042436 1_545
Li11 O28 2.093077 1_545
Li11 O45 2.227294 1_555
Li12 O7 2.174454 1_555
Li12 O48 2.182707 1_644
Li12 O2 2.386160 1_555
Li12 O53 2.444022 1_644
Li12 O20 2.507912 1_554
Li12 O34 2.562643 1_645
Li13 O0 2.312243 1_545
Li13 O27 2.315083 1_555
Li13 O56 2.333456 1_555
Li13 O19 2.347012 1_555
Li13 O35 2.431819 1_645
Li13 O28 2.432328 1_645
O0 P13 1.530294 1_655
O1 P1 1.520451 1_555
O1 V4 2.077738 1_555
O2 P8 1.495709 1_555
O3 P0 1.553808 1_555
O3 V2 2.006866 1_565
O4 P0 1.537749 1_555
O4 V5 2.080992 1_655
O5 P3 1.519684 1_555
O5 V4 1.968310 1_555
O6 P2 1.516673 1_555
O6 V4 1.986533 1_555
O7 P15 1.504855 1_655
O8 P5 1.508521 1_555
O8 V5 2.011845 1_655
O9 P4 1.593209 1_555
O9 V2 1.917274 1_565
O10 P1 1.545888 1_555
O10 V3 1.908761 1_555
O11 P4 1.550404 1_555
O11 V5 2.063480 1_655
O12 P3 1.503951 1_555
O13 P4 1.494179 1_555
O14 P3 1.592838 1_555
O14 V0 1.895084 1_555
O15 P7 1.564537 1_555
O15 V2 1.961598 1_565
O16 P3 1.586337 1_555
O16 V3 1.928066 1_555
O17 P2 1.546979 1_555
O17 V0 2.024066 1_555
O18 P6 1.607399 1_555
O18 P5 1.620166 1_555
O19 P6 1.521441 1_555
O20 P5 1.516201 1_555
O21 P5 1.564567 1_555
O21 V1 1.953846 1_555
O22 P4 1.595183 1_555
O22 V1 1.929836 1_555
O23 P8 1.544746 1_555
O23 V0 1.992076 1_555
O24 P9 1.538073 1_555
O24 V0 1.924495 1_555
O25 P9 1.539688 1_555
O25 V3 2.029372 1_555
O26 P8 1.608876 1_555
O26 P1 1.615533 1_545
O27 P1 1.525710 1_545
O28 P14 1.524209 1_565
O29 P6 1.538159 1_555
O29 V2 2.031574 1_555
O30 P6 1.538901 1_555
O30 V1 1.926572 1_555
O31 P7 1.545024 1_555
O31 V1 1.994234 1_555
O32 P11 1.593508 1_555
O32 V0 1.932383 1_555
O33 P10 1.563578 1_555
O33 V0 1.949780 1_555
O34 P10 1.515339 1_555
O35 P9 1.520919 1_555
O36 P9 1.607265 1_555
O36 P10 1.620516 1_555
O37 P13 1.546869 1_555
O37 V1 2.028020 1_555
O38 P12 1.586531 1_555
O38 V2 1.919885 1_555
O39 P8 1.565190 1_555
O39 V3 1.966745 1_545
O40 P12 1.593228 1_555
O40 V1 1.893774 1_555
O41 P12 1.504068 1_555
O42 P11 1.493826 1_555
O43 P11 1.550490 1_555
O43 V4 2.049187 1_455
O44 P14 1.545506 1_555
O44 V2 1.909174 1_555
O45 P11 1.594087 1_555
O45 V3 1.922749 1_545
O46 P10 1.510021 1_555
O46 V4 2.011994 1_455
O47 P13 1.609076 1_655
O47 P0 1.623083 1_555
O48 P0 1.505331 1_455
O49 P13 1.517570 1_555
O49 V5 1.981665 1_555
O50 P12 1.517104 1_555
O50 V5 1.975037 1_555
O51 P15 1.538178 1_555
O51 V4 2.076688 1_455
O52 P15 1.555454 1_555
O52 V3 2.005173 1_545
O53 P7 1.495798 1_555
O54 P7 1.608090 1_555
O54 P14 1.616365 1_565
O55 P14 1.520562 1_555
O55 V5 2.078554 1_555
O56 P2 1.530343 1_555
O57 P2 1.610537 1_455
O57 P15 1.621319 1_555
