# generated using pymatgen
data_Y5Sn4
_symmetry_space_group_name_H-M   'P 1'
_cell_length_a   8.04322400
_cell_length_b   8.16916500
_cell_length_c   15.58103700
_cell_angle_alpha   90.00000000
_cell_angle_beta   90.00000000
_cell_angle_gamma   90.00000000
_symmetry_Int_Tables_number   1
_chemical_formula_structural   Y5Sn4
_chemical_formula_sum   'Y20 Sn16'
_cell_volume   1023.77422329
_cell_formula_units_Z   4
loop_
 _symmetry_equiv_pos_site_id
 _symmetry_equiv_pos_as_xyz
  1  'x, y, z'
loop_
 _atom_site_type_symbol
 _atom_site_label
 _atom_site_symmetry_multiplicity
 _atom_site_fract_x
 _atom_site_fract_y
 _atom_site_fract_z
 _atom_site_occupancy
  Y  Y0  1  0.36686800  0.83589600  0.87829700  1
  Y  Y1  1  0.86686800  0.66410400  0.62170300  1
  Y  Y2  1  0.63313200  0.16410400  0.37829700  1
  Y  Y3  1  0.13313200  0.33589600  0.12170300  1
  Y  Y4  1  0.63313200  0.16410400  0.12170300  1
  Y  Y5  1  0.13313200  0.33589600  0.37829700  1
  Y  Y6  1  0.36686800  0.83589600  0.62170300  1
  Y  Y7  1  0.86686800  0.66410400  0.87829700  1
  Y  Y8  1  0.52311600  0.32024400  0.90185100  1
  Y  Y9  1  0.02311600  0.17975600  0.59814900  1
  Y  Y10  1  0.47688400  0.67975600  0.40185100  1
  Y  Y11  1  0.97688400  0.82024400  0.09814900  1
  Y  Y12  1  0.47688400  0.67975600  0.09814900  1
  Y  Y13  1  0.97688400  0.82024400  0.40185100  1
  Y  Y14  1  0.52311600  0.32024400  0.59814900  1
  Y  Y15  1  0.02311600  0.17975600  0.90185100  1
  Y  Y16  1  0.19794700  0.50270500  0.75000000  1
  Y  Y17  1  0.69794700  0.99729500  0.75000000  1
  Y  Y18  1  0.80205300  0.49729500  0.25000000  1
  Y  Y19  1  0.30205300  0.00270500  0.25000000  1
  Sn  Sn0  1  0.29179700  0.03336700  0.04147900  1
  Sn  Sn1  1  0.79179700  0.46663300  0.45852100  1
  Sn  Sn2  1  0.70820300  0.96663300  0.54147900  1
  Sn  Sn3  1  0.20820300  0.53336700  0.95852100  1
  Sn  Sn4  1  0.70820300  0.96663300  0.95852100  1
  Sn  Sn5  1  0.20820300  0.53336700  0.54147900  1
  Sn  Sn6  1  0.29179700  0.03336700  0.45852100  1
  Sn  Sn7  1  0.79179700  0.46663300  0.04147900  1
  Sn  Sn8  1  0.56475600  0.62033900  0.75000000  1
  Sn  Sn9  1  0.06475600  0.87966100  0.75000000  1
  Sn  Sn10  1  0.43524400  0.37966100  0.25000000  1
  Sn  Sn11  1  0.93524400  0.12033900  0.25000000  1
  Sn  Sn12  1  0.33013300  0.14710300  0.75000000  1
  Sn  Sn13  1  0.83013300  0.35289700  0.75000000  1
  Sn  Sn14  1  0.66986700  0.85289700  0.25000000  1
  Sn  Sn15  1  0.16986700  0.64710300  0.25000000  1
loop_
_geom_bond_atom_site_label_1
_geom_bond_atom_site_label_2
_geom_bond_distance
_geom_bond_site_symmetry_2
Sn0 Y3 3.049414 1_555
Sn0 Y0 3.071067 1_544
Sn0 Y11 3.197893 1_445
Sn0 Y4 3.200077 1_555
Sn0 Y19 3.259659 1_555
Sn0 Y15 3.291401 1_554
Sn0 Y12 3.367565 1_545
Sn0 Y8 3.699577 1_554
Sn1 Y2 3.049414 1_555
Sn1 Y1 3.071067 1_555
Sn1 Y10 3.197893 1_555
Sn1 Y5 3.200077 1_655
Sn1 Y18 3.259659 1_555
Sn1 Y14 3.291401 1_555
Sn1 Y13 3.367565 1_555
Sn1 Y9 3.699577 1_655
Sn2 Y1 3.049414 1_555
Sn2 Y2 3.071067 1_565
Sn2 Y9 3.197893 1_665
Sn2 Y6 3.200077 1_555
Sn2 Y17 3.259659 1_555
Sn2 Y13 3.291401 1_555
Sn2 Y14 3.367565 1_565
Sn2 Y10 3.699577 1_555
Sn3 Y0 3.049414 1_555
Sn3 Y3 3.071067 1_556
Sn3 Y8 3.197893 1_555
Sn3 Y7 3.200077 1_455
Sn3 Y16 3.259659 1_555
Sn3 Y12 3.291401 1_556
Sn3 Y15 3.367565 1_555
Sn3 Y11 3.699577 1_456
Sn4 Y7 3.049414 1_555
Sn4 Y4 3.071067 1_566
Sn4 Y15 3.197893 1_665
Sn4 Y0 3.200077 1_555
Sn4 Y17 3.259659 1_555
Sn4 Y11 3.291401 1_556
Sn4 Y8 3.367565 1_565
Sn4 Y12 3.699577 1_556
Sn5 Y6 3.049414 1_555
Sn5 Y5 3.071067 1_555
Sn5 Y14 3.197893 1_555
Sn5 Y1 3.200077 1_455
Sn5 Y16 3.259659 1_555
Sn5 Y10 3.291401 1_555
Sn5 Y9 3.367565 1_555
Sn5 Y13 3.699577 1_455
Sn6 Y5 3.049414 1_555
Sn6 Y6 3.071067 1_545
Sn6 Y13 3.197893 1_445
Sn6 Y2 3.200077 1_555
Sn6 Y19 3.259659 1_555
Sn6 Y9 3.291401 1_555
Sn6 Y10 3.367565 1_545
Sn6 Y14 3.699577 1_555
Sn7 Y4 3.049414 1_555
Sn7 Y7 3.071067 1_554
Sn7 Y12 3.197893 1_555
Sn7 Y3 3.200077 1_655
Sn7 Y18 3.259659 1_555
Sn7 Y8 3.291401 1_554
Sn7 Y11 3.367565 1_555
Sn7 Y15 3.699577 1_654
Sn8 Y16 3.102885 1_555
Sn8 Y6 3.103259 1_555
Sn8 Y0 3.103259 1_555
Sn8 Y1 3.166781 1_555
Sn8 Y7 3.166781 1_555
Sn8 Y17 3.260438 1_555
Sn8 Y8 3.423461 1_555
Sn8 Y14 3.423461 1_555
Sn9 Y17 3.102885 1_455
Sn9 Y7 3.103259 1_455
Sn9 Y1 3.103259 1_455
Sn9 Y6 3.166781 1_555
Sn9 Y0 3.166781 1_555
Sn9 Y16 3.260438 1_555
Sn9 Y9 3.423461 1_565
Sn9 Y15 3.423461 1_565
Sn10 Sn15 3.054388 1_555
Sn10 Y18 3.102885 1_555
Sn10 Y2 3.103259 1_555
Sn10 Y4 3.103259 1_555
Sn10 Y3 3.166781 1_555
Sn10 Y5 3.166781 1_555
Sn10 Y19 3.260438 1_555
Sn10 Y12 3.423461 1_555
Sn10 Y10 3.423461 1_555
Sn11 Sn14 3.054388 1_545
Sn11 Y19 3.102885 1_655
Sn11 Y5 3.103259 1_655
Sn11 Y3 3.103259 1_655
Sn11 Y2 3.166781 1_555
Sn11 Y4 3.166781 1_555
Sn11 Y18 3.260438 1_555
Sn11 Y13 3.423461 1_545
Sn11 Y11 3.423461 1_545
Sn12 Sn9 3.054388 1_545
Sn12 Y16 3.093421 1_555
Sn12 Y14 3.163520 1_555
Sn12 Y8 3.163520 1_555
Sn12 Y17 3.201546 1_545
Sn12 Y6 3.247553 1_545
Sn12 Y0 3.247553 1_545
Sn12 Y15 3.430315 1_555
Sn12 Y9 3.430315 1_555
Sn13 Sn8 3.054388 1_555
Sn13 Y17 3.093421 1_545
Sn13 Y9 3.163520 1_655
Sn13 Y15 3.163520 1_655
Sn13 Y16 3.201546 1_655
Sn13 Y7 3.247553 1_555
Sn13 Y1 3.247553 1_555
Sn13 Y14 3.430315 1_555
Sn13 Y8 3.430315 1_555
Sn14 Y18 3.093421 1_555
Sn14 Y12 3.163520 1_555
Sn14 Y10 3.163520 1_555
Sn14 Y19 3.201546 1_565
Sn14 Y2 3.247553 1_565
Sn14 Y4 3.247553 1_565
Sn14 Y11 3.430315 1_555
Sn14 Y13 3.430315 1_555
Sn15 Y19 3.093421 1_565
Sn15 Y13 3.163520 1_455
Sn15 Y11 3.163520 1_455
Sn15 Y18 3.201546 1_455
Sn15 Y5 3.247553 1_555
Sn15 Y3 3.247553 1_555
Sn15 Y12 3.430315 1_555
Sn15 Y10 3.430315 1_555
