# generated using pymatgen
data_Y3Si3O10F
_symmetry_space_group_name_H-M   'P 1'
_cell_length_a   11.29627300
_cell_length_b   7.40423900
_cell_length_c   12.05977661
_cell_angle_alpha   59.73084004
_cell_angle_beta   90.00000000
_cell_angle_gamma   90.00000000
_symmetry_Int_Tables_number   1
_chemical_formula_structural   Y3Si3O10F
_chemical_formula_sum   'Y12 Si12 O40 F4'
_cell_volume   871.16655466
_cell_formula_units_Z   4
loop_
 _symmetry_equiv_pos_site_id
 _symmetry_equiv_pos_as_xyz
  1  'x, y, z'
loop_
 _atom_site_type_symbol
 _atom_site_label
 _atom_site_symmetry_multiplicity
 _atom_site_fract_x
 _atom_site_fract_y
 _atom_site_fract_z
 _atom_site_occupancy
  Y  Y0  1  0.46925100  0.74409200  0.01831200  1
  Y  Y1  1  0.96925100  0.25590800  0.48168800  1
  Y  Y2  1  0.53074900  0.25590800  0.98168800  1
  Y  Y3  1  0.03074900  0.74409200  0.51831200  1
  Y  Y4  1  0.22998100  0.59492800  0.31107500  1
  Y  Y5  1  0.72998100  0.40507200  0.18892500  1
  Y  Y6  1  0.77001900  0.40507200  0.68892500  1
  Y  Y7  1  0.27001900  0.59492800  0.81107500  1
  Y  Y8  1  0.09822300  0.80508300  0.99698100  1
  Y  Y9  1  0.59822300  0.19491700  0.50301900  1
  Y  Y10  1  0.90177700  0.19491700  0.00301900  1
  Y  Y11  1  0.40177700  0.80508300  0.49698100  1
  Si  Si0  1  0.46234700  0.28590600  0.70857300  1
  Si  Si1  1  0.75510000  0.87617400  0.88910800  1
  Si  Si2  1  0.74490000  0.87617400  0.38910800  1
  Si  Si3  1  0.24490000  0.12382600  0.11089200  1
  Si  Si4  1  0.41422400  0.28439000  0.24036300  1
  Si  Si5  1  0.91422400  0.71561000  0.25963700  1
  Si  Si6  1  0.58577600  0.71561000  0.75963700  1
  Si  Si7  1  0.08577600  0.28439000  0.74036300  1
  Si  Si8  1  0.03765300  0.28590600  0.20857300  1
  Si  Si9  1  0.53765300  0.71409400  0.29142700  1
  Si  Si10  1  0.25510000  0.12382600  0.61089200  1
  Si  Si11  1  0.96234700  0.71409400  0.79142700  1
  O  O0  1  0.08873600  0.65810100  0.86963000  1
  O  O1  1  0.58873600  0.34189900  0.63037000  1
  O  O2  1  0.91126400  0.34189900  0.13037000  1
  O  O3  1  0.41126400  0.65810100  0.36963000  1
  O  O4  1  0.47757100  0.10511100  0.86138200  1
  O  O5  1  0.97757100  0.89488900  0.63861800  1
  O  O6  1  0.52242900  0.89488900  0.13861800  1
  O  O7  1  0.02242900  0.10511100  0.36138200  1
  O  O8  1  0.10405800  0.49467800  0.19193600  1
  O  O9  1  0.60405800  0.50532200  0.30806400  1
  O  O10  1  0.89594200  0.50532200  0.80806400  1
  O  O11  1  0.39594200  0.49467800  0.69193600  1
  O  O12  1  0.39044400  0.19894200  0.62284300  1
  O  O13  1  0.89044400  0.80105800  0.87715700  1
  O  O14  1  0.60955600  0.80105800  0.37715700  1
  O  O15  1  0.10955600  0.19894200  0.12284300  1
  O  O16  1  0.35700200  0.51209000  0.19741300  1
  O  O17  1  0.27353900  0.89748900  0.62124600  1
  O  O18  1  0.72646100  0.10251100  0.37875400  1
  O  O19  1  0.22646100  0.89748900  0.12124600  1
  O  O20  1  0.18148500  0.28691700  0.48269500  1
  O  O21  1  0.68148500  0.71308300  0.01730500  1
  O  O22  1  0.81851500  0.71308300  0.51730500  1
  O  O23  1  0.31851500  0.28691700  0.98269500  1
  O  O24  1  0.17734300  0.11553100  0.73056300  1
  O  O25  1  0.67734300  0.88446900  0.76943700  1
  O  O26  1  0.82265700  0.88446900  0.26943700  1
  O  O27  1  0.32265700  0.11553100  0.23056300  1
  O  O28  1  0.02448900  0.64980200  0.36288100  1
  O  O29  1  0.52448900  0.35019800  0.13711900  1
  O  O30  1  0.97551100  0.35019800  0.63711900  1
  O  O31  1  0.47551100  0.64980200  0.86288100  1
  O  O32  1  0.04948800  0.14866600  0.89123100  1
  O  O33  1  0.54948800  0.85133400  0.60876900  1
  O  O34  1  0.95051200  0.85133400  0.10876900  1
  O  O35  1  0.45051200  0.14866600  0.39123100  1
  O  O36  1  0.14299800  0.51209000  0.69741300  1
  O  O37  1  0.64299800  0.48791000  0.80258700  1
  O  O38  1  0.85700200  0.48791000  0.30258700  1
  O  O39  1  0.77353900  0.10251100  0.87875400  1
  F  F0  1  0.71499200  0.24442800  0.05930900  1
  F  F1  1  0.21499200  0.75557200  0.44069100  1
  F  F2  1  0.78500800  0.24442800  0.55930900  1
  F  F3  1  0.28500800  0.75557200  0.94069100  1
loop_
_geom_bond_atom_site_label_1
_geom_bond_atom_site_label_2
_geom_bond_distance
_geom_bond_site_symmetry_2
O0 Si11 1.644858 1_455
O0 Y8 2.289022 1_555
O0 Y7 2.289982 1_555
O1 Si0 1.644858 1_555
O1 Y9 2.289022 1_555
O1 Y6 2.289982 1_555
O2 Si8 1.644858 1_655
O2 Y10 2.289022 1_555
O2 Y5 2.289982 1_555
O3 Si9 1.644858 1_555
O3 Y11 2.289022 1_555
O3 Y4 2.289982 1_555
O4 Si0 1.652471 1_555
O4 Y2 2.312060 1_555
O4 Y0 2.373994 1_546
O5 Si11 1.652471 1_555
O5 Y3 2.312060 1_655
O5 Y1 2.373994 1_565
O6 Si9 1.652471 1_555
O6 Y0 2.312060 1_555
O6 Y2 2.373994 1_564
O7 Si8 1.652471 1_555
O7 Y1 2.312060 1_455
O7 Y3 2.373994 1_545
O8 Si8 1.637001 1_555
O8 Y8 2.316640 1_554
O8 Y4 2.390374 1_555
O9 Si9 1.637001 1_555
O9 Y9 2.316640 1_555
O9 Y5 2.390374 1_555
O10 Si11 1.637001 1_555
O10 Y10 2.316640 1_556
O10 Y6 2.390374 1_555
O11 Si0 1.637001 1_555
O11 Y11 2.316640 1_555
O11 Y7 2.390374 1_555
O12 Si10 1.657830 1_555
O12 Si0 1.677613 1_555
O13 Si1 1.657830 1_555
O13 Si11 1.677613 1_555
O14 Si2 1.657830 1_555
O14 Si9 1.677613 1_555
O15 Si3 1.657830 1_555
O15 Si8 1.677613 1_555
O16 Si4 1.627319 1_555
O16 Y4 2.271901 1_555
O16 Y0 2.341674 1_555
O17 Si10 1.629878 1_565
O17 Y7 2.256296 1_555
O17 Y11 2.417871 1_555
O18 Si2 1.629878 1_545
O18 Y5 2.256296 1_555
O18 Y9 2.417871 1_555
O19 Si3 1.629878 1_565
O19 Y4 2.256296 1_555
O19 Y8 2.417871 1_554
O20 Si10 1.630286 1_555
O20 Y4 2.241954 1_555
O20 Y1 2.409036 1_455
O21 Si1 1.630286 1_554
O21 Y5 2.241954 1_555
O21 Y0 2.409036 1_555
O22 Si2 1.630286 1_555
O22 Y6 2.241954 1_555
O22 Y3 2.409036 1_655
O23 Si3 1.630286 1_556
O23 Y7 2.241954 1_555
O23 Y2 2.409036 1_555
O24 Si10 1.663965 1_555
O24 Si7 1.672132 1_555
O25 Si1 1.663965 1_555
O25 Si6 1.672132 1_555
O26 Si2 1.663965 1_555
O26 Si5 1.672132 1_555
O27 Si3 1.663965 1_555
O27 Si4 1.672132 1_555
O28 Si5 1.651532 1_455
O28 Y3 2.307662 1_555
O28 Y4 2.489925 1_555
O28 Y1 2.595277 1_455
O29 Si4 1.651532 1_555
O29 Y2 2.307662 1_554
O29 Y5 2.489925 1_555
O29 Y0 2.595277 1_555
O30 Si7 1.651532 1_655
O30 Y1 2.307662 1_555
O30 Y6 2.489925 1_555
O30 Y3 2.595277 1_655
O31 Si6 1.651532 1_555
O31 Y0 2.307662 1_556
O31 Y7 2.489925 1_555
O31 Y2 2.595277 1_555
O32 Si7 1.626345 1_555
O32 Y8 2.265075 1_545
O32 Y10 2.276917 1_456
O33 Si6 1.626345 1_555
O33 Y9 2.265075 1_565
O33 Y11 2.276917 1_555
O34 Si5 1.626345 1_555
O34 Y10 2.265075 1_565
O34 Y8 2.276917 1_654
O35 Si4 1.626345 1_555
O35 Y11 2.265075 1_545
O35 Y9 2.276917 1_555
O36 Si7 1.627319 1_555
O36 Y7 2.271901 1_555
O36 Y3 2.341674 1_555
O37 Si6 1.627319 1_555
O37 Y6 2.271901 1_555
O37 Y2 2.341674 1_555
O38 Si5 1.627319 1_555
O38 Y5 2.271901 1_555
O38 Y1 2.341674 1_555
O39 Si1 1.629878 1_545
O39 Y6 2.256296 1_555
O39 Y10 2.417871 1_556
F0 Y2 2.266036 1_554
F0 Y10 2.301758 1_555
F0 Y5 2.400258 1_555
F1 Y3 2.266036 1_555
F1 Y11 2.301758 1_555
F1 Y4 2.400258 1_555
F2 Y1 2.266036 1_555
F2 Y9 2.301758 1_555
F2 Y6 2.400258 1_555
F3 Y0 2.266036 1_556
F3 Y8 2.301758 1_555
F3 Y7 2.400258 1_555
