# generated using pymatgen
data_BaTbNbSnO6
_symmetry_space_group_name_H-M   'P 1'
_cell_length_a   8.45250895
_cell_length_b   8.50078867
_cell_length_c   8.45616100
_cell_angle_alpha   90.00000000
_cell_angle_beta   90.00000000
_cell_angle_gamma   90.00000000
_symmetry_Int_Tables_number   1
_chemical_formula_structural   BaTbNbSnO6
_chemical_formula_sum   'Ba4 Tb4 Nb4 Sn4 O24'
_cell_volume   607.60047135
_cell_formula_units_Z   4
loop_
 _symmetry_equiv_pos_site_id
 _symmetry_equiv_pos_as_xyz
  1  'x, y, z'
loop_
 _atom_site_type_symbol
 _atom_site_label
 _atom_site_symmetry_multiplicity
 _atom_site_fract_x
 _atom_site_fract_y
 _atom_site_fract_z
 _atom_site_occupancy
  Ba  Ba0  1  -0.00000000  0.00000000  -0.00000000  1
  Ba  Ba1  1  0.50000000  0.50000000  0.50000000  1
  Ba  Ba2  1  0.50000000  0.00000000  0.50000000  1
  Ba  Ba3  1  -0.00000000  0.00000000  0.50000000  1
  Tb  Tb0  1  0.25026088  0.25494015  0.24509788  1
  Tb  Tb1  1  0.74973912  0.74505985  0.24509788  1
  Tb  Tb2  1  0.74973912  0.25494015  0.75490212  1
  Tb  Tb3  1  0.25026088  0.74505985  0.75490212  1
  Nb  Nb0  1  0.75357941  0.74587721  0.75030442  1
  Nb  Nb1  1  0.24642059  0.25412279  0.75030442  1
  Nb  Nb2  1  0.24642059  0.74587721  0.24969558  1
  Nb  Nb3  1  0.75357941  0.25412279  0.24969558  1
  Sn  Sn0  1  -0.00000000  0.50000000  0.50000000  1
  Sn  Sn1  1  0.50000000  0.50000000  -0.00000000  1
  Sn  Sn2  1  0.50000000  0.00000000  -0.00000000  1
  Sn  Sn3  1  -0.00000000  0.50000000  -0.00000000  1
  O  O0  1  0.98603133  0.21524337  0.26992868  1
  O  O1  1  0.01396867  0.78475663  0.26992868  1
  O  O2  1  0.01396867  0.21524337  0.73007132  1
  O  O3  1  0.98603133  0.78475663  0.73007132  1
  O  O4  1  0.28370942  0.98393743  0.21327834  1
  O  O5  1  0.28370942  0.01606257  0.78672166  1
  O  O6  1  0.71629058  0.01606257  0.21327834  1
  O  O7  1  0.71629058  0.98393743  0.78672166  1
  O  O8  1  0.20897771  0.29055503  0.98474344  1
  O  O9  1  0.79102229  0.29055503  0.01525656  1
  O  O10  1  0.20897771  0.70944497  0.01525656  1
  O  O11  1  0.79102229  0.70944497  0.98474344  1
  O  O12  1  0.51626951  0.29323669  0.21619861  1
  O  O13  1  0.48373049  0.70676331  0.21619861  1
  O  O14  1  0.48373049  0.29323669  0.78380139  1
  O  O15  1  0.51626951  0.70676331  0.78380139  1
  O  O16  1  0.21415682  0.51398799  0.29267547  1
  O  O17  1  0.21415682  0.48601201  0.70732453  1
  O  O18  1  0.78584318  0.48601201  0.29267547  1
  O  O19  1  0.78584318  0.51398799  0.70732453  1
  O  O20  1  0.27719282  0.22430858  0.51497617  1
  O  O21  1  0.72280718  0.22430858  0.48502383  1
  O  O22  1  0.27719282  0.77569142  0.48502383  1
  O  O23  1  0.72280718  0.77569142  0.51497617  1
loop_
_geom_bond_atom_site_label_1
_geom_bond_atom_site_label_2
_geom_bond_distance
_geom_bond_site_symmetry_2
Ba0 O2 2.927792 1_554
Ba0 O1 2.927792 1_545
Ba0 O0 2.927792 1_455
Ba0 O3 2.927792 1_444
Ba0 O5 3.003663 1_554
Ba0 O7 3.003663 1_444
Ba0 O6 3.003663 1_455
Ba0 O4 3.003663 1_545
Ba0 O9 3.039309 1_455
Ba0 O11 3.039309 1_444
Ba0 O8 3.039309 1_554
Ba0 O10 3.039309 1_545
Ba1 O12 2.977856 1_555
Ba1 O14 2.977856 1_555
Ba1 O13 2.977856 1_555
Ba1 O15 2.977856 1_555
Ba1 O18 2.987515 1_555
Ba1 O19 2.987515 1_555
Ba1 O16 2.987515 1_555
Ba1 O17 2.987515 1_555
Ba1 O22 3.009189 1_555
Ba1 O20 3.009189 1_555
Ba1 O23 3.009189 1_555
Ba1 O21 3.009189 1_555
Ba2 O22 2.683033 1_545
Ba2 O21 2.683033 1_555
Ba2 O23 2.683033 1_545
Ba2 O20 2.683033 1_555
Ba2 O5 3.039649 1_555
Ba2 O6 3.039649 1_555
Ba2 O7 3.039649 1_545
Ba2 O4 3.039649 1_545
Ba3 O2 2.673375 1_555
Ba3 O1 2.673375 1_545
Ba3 O0 2.673375 1_455
Ba3 O3 2.673375 1_445
Ba3 O22 3.023484 1_545
Ba3 O23 3.023484 1_445
Ba3 O20 3.023484 1_555
Ba3 O21 3.023484 1_455
Nb0 O3 1.999738 1_555
Nb0 O23 2.022840 1_555
Nb0 O19 2.022932 1_555
Nb0 O11 2.031306 1_555
Nb0 O15 2.052871 1_555
Nb0 O7 2.071119 1_555
Nb1 O2 1.999738 1_555
Nb1 O20 2.022840 1_555
Nb1 O17 2.022932 1_555
Nb1 O8 2.031306 1_555
Nb1 O14 2.052871 1_555
Nb1 O5 2.071119 1_555
Nb2 O1 1.999738 1_555
Nb2 O22 2.022840 1_555
Nb2 O16 2.022932 1_555
Nb2 O10 2.031306 1_555
Nb2 O13 2.052871 1_555
Nb2 O4 2.071119 1_555
Nb3 O0 1.999738 1_555
Nb3 O21 2.022840 1_555
Nb3 O18 2.022932 1_555
Nb3 O9 2.031306 1_555
Nb3 O12 2.052871 1_555
Nb3 O6 2.071119 1_555
O0 Tb0 2.268491 1_655
O1 Tb1 2.268491 1_455
O2 Tb2 2.268491 1_455
O3 Tb3 2.268491 1_655
O4 Tb0 2.336565 1_565
O4 Sn2 2.571696 1_565
O5 Tb3 2.336565 1_545
O5 Sn2 2.571696 1_556
O6 Tb1 2.336565 1_545
O6 Sn2 2.571696 1_555
O7 Tb2 2.336565 1_565
O7 Sn2 2.571696 1_566
O8 Tb0 2.249547 1_556
O8 Sn3 2.511326 1_556
O9 Tb2 2.249547 1_554
O9 Sn3 2.511326 1_655
O10 Tb3 2.249547 1_554
O10 Sn3 2.511326 1_555
O11 Tb1 2.249547 1_556
O11 Sn3 2.511326 1_656
O12 Tb0 2.284992 1_555
O12 Sn1 2.539803 1_555
O13 Tb1 2.284992 1_555
O13 Sn1 2.539803 1_555
O14 Tb2 2.284992 1_555
O14 Sn1 2.539803 1_556
O15 Tb3 2.284992 1_555
O15 Sn1 2.539803 1_556
O16 Tb0 2.259267 1_555
O16 Sn0 2.522782 1_555
O17 Tb3 2.259267 1_555
O17 Sn0 2.522782 1_555
O18 Tb1 2.259267 1_555
O18 Sn0 2.522782 1_655
O19 Tb2 2.259267 1_555
O19 Sn0 2.522782 1_655
O20 Tb0 2.308195 1_555
O21 Tb2 2.308195 1_555
O22 Tb3 2.308195 1_555
O23 Tb1 2.308195 1_555
