# generated using pymatgen
data_BaLa3Sc4HO12
_symmetry_space_group_name_H-M   'P 1'
_cell_length_a   5.78983253
_cell_length_b   5.87353257
_cell_length_c   8.29511200
_cell_angle_alpha   90.00000000
_cell_angle_beta   90.00000000
_cell_angle_gamma   90.79418434
_symmetry_Int_Tables_number   1
_chemical_formula_structural   BaLa3Sc4HO12
_chemical_formula_sum   'Ba1 La3 Sc4 H1 O12'
_cell_volume   282.06286659
_cell_formula_units_Z   1
loop_
 _symmetry_equiv_pos_site_id
 _symmetry_equiv_pos_as_xyz
  1  'x, y, z'
loop_
 _atom_site_type_symbol
 _atom_site_label
 _atom_site_symmetry_multiplicity
 _atom_site_fract_x
 _atom_site_fract_y
 _atom_site_fract_z
 _atom_site_occupancy
  Ba  Ba0  1  0.50014800  0.47789400  0.25000000  1
  La  La0  1  0.98248700  0.95190100  0.25000000  1
  La  La1  1  0.48415900  0.54611200  0.75000000  1
  La  La2  1  0.01410000  0.03287800  0.75000000  1
  Sc  Sc0  1  0.99564600  0.50379300  0.98161100  1
  Sc  Sc1  1  0.50514300  0.00573900  0.50075300  1
  Sc  Sc2  1  0.99564600  0.50379300  0.51838900  1
  Sc  Sc3  1  0.50514300  0.00573900  0.99924700  1
  H  H0  1  0.93886300  0.39614000  0.25000000  1
  O  O0  1  0.39243000  0.00395400  0.25000000  1
  O  O1  1  0.05464100  0.52135200  0.25000000  1
  O  O2  1  0.60253500  0.97894000  0.75000000  1
  O  O3  1  0.89098200  0.46288900  0.75000000  1
  O  O4  1  0.72892800  0.72643100  0.03478300  1
  O  O5  1  0.80710900  0.20778600  0.44193700  1
  O  O6  1  0.28881700  0.29140100  0.56309000  1
  O  O7  1  0.21768500  0.78582100  0.94230300  1
  O  O8  1  0.28881700  0.29140100  0.93691000  1
  O  O9  1  0.21768500  0.78582100  0.55769700  1
  O  O10  1  0.72892800  0.72643100  0.46521700  1
  O  O11  1  0.80710900  0.20778600  0.05806300  1
loop_
_geom_bond_atom_site_label_1
_geom_bond_atom_site_label_2
_geom_bond_distance
_geom_bond_site_symmetry_2
Ba0 H0 2.591607 1_555
Ba0 O1 2.595528 1_555
Ba0 O10 2.649351 1_555
Ba0 O4 2.649351 1_555
Ba0 O0 2.844263 1_555
Ba0 O11 2.879000 1_555
Ba0 O5 2.879000 1_555
Ba0 O6 3.066729 1_555
Ba0 O8 3.066729 1_554
Ba0 O0 3.160607 1_565
La0 O0 2.388905 1_665
La0 O11 2.422215 1_565
La0 O5 2.422215 1_565
La0 O1 2.568824 1_655
La0 O10 2.653718 1_555
La0 O4 2.653718 1_555
La0 O7 3.058988 1_654
La0 O9 3.058988 1_655
La1 O3 2.412248 1_555
La1 O8 2.423693 1_555
La1 O6 2.423693 1_555
La1 O2 2.623808 1_555
La1 O9 2.639592 1_555
La1 O7 2.639592 1_555
La1 O4 2.944312 1_556
La1 O10 2.944312 1_555
La2 O2 2.399503 1_445
La2 O9 2.467199 1_545
La2 O7 2.467199 1_545
La2 O3 2.633841 1_455
La2 O8 2.678148 1_555
La2 O6 2.678148 1_555
La2 O11 3.009311 1_456
La2 O5 3.009311 1_455
H0 O1 0.988206 1_655
H0 La0 2.624931 1_545
O0 Sc1 2.179976 1_555
O0 Sc3 2.179976 1_554
O1 Sc0 2.254510 1_454
O1 Sc2 2.254510 1_455
O2 Sc3 2.149393 1_565
O2 Sc1 2.149393 1_565
O3 Sc2 2.027823 1_555
O3 Sc0 2.027823 1_555
O4 Sc0 2.084524 1_554
O4 Sc3 2.125069 1_564
O5 Sc2 2.136331 1_555
O5 Sc1 2.155344 1_555
O6 Sc2 2.152587 1_455
O6 Sc1 2.170147 1_555
O7 Sc0 2.108071 1_455
O7 Sc3 2.145229 1_565
O8 Sc0 2.152587 1_455
O8 Sc3 2.170147 1_555
O9 Sc2 2.108071 1_455
O9 Sc1 2.145229 1_565
O10 Sc2 2.084524 1_555
O10 Sc1 2.125069 1_565
O11 Sc0 2.136331 1_554
O11 Sc3 2.155344 1_554
