# generated using pymatgen
data_Fe3O4
_symmetry_space_group_name_H-M   'P 1'
_cell_length_a   6.07783100
_cell_length_b   6.09004728
_cell_length_c   17.20899670
_cell_angle_alpha   90.14116468
_cell_angle_beta   90.01316115
_cell_angle_gamma   90.06793591
_symmetry_Int_Tables_number   1
_chemical_formula_structural   Fe3O4
_chemical_formula_sum   'Fe24 O32'
_cell_volume   636.97619222
_cell_formula_units_Z   8
loop_
 _symmetry_equiv_pos_site_id
 _symmetry_equiv_pos_as_xyz
  1  'x, y, z'
loop_
 _atom_site_type_symbol
 _atom_site_label
 _atom_site_symmetry_multiplicity
 _atom_site_fract_x
 _atom_site_fract_y
 _atom_site_fract_z
 _atom_site_occupancy
  Fe  Fe0  1  0.49260900  0.99486600  0.81416900  1
  Fe  Fe1  1  0.74926500  0.50014500  0.37694500  1
  Fe  Fe2  1  0.24748600  0.00189000  0.62491400  1
  Fe  Fe3  1  0.50179600  0.99879200  0.31533300  1
  Fe  Fe4  1  0.99607300  0.49938500  0.06257300  1
  Fe  Fe5  1  0.49820800  0.50793700  0.68676600  1
  Fe  Fe6  1  0.99957000  0.49304900  0.56329500  1
  Fe  Fe7  1  0.50003800  0.24602700  0.50248900  1
  Fe  Fe8  1  0.50680500  0.50523300  0.18655900  1
  Fe  Fe9  1  0.00012400  0.00459900  0.43742500  1
  Fe  Fe10  1  0.99461200  0.75421600  0.74680000  1
  Fe  Fe11  1  0.50009000  0.75110100  0.50115600  1
  Fe  Fe12  1  0.25502700  0.50053700  0.37677600  1
  Fe  Fe13  1  0.24947400  0.00064800  0.12432600  1
  Fe  Fe14  1  0.74941400  0.49882200  0.87329700  1
  Fe  Fe15  1  0.74802300  0.00119500  0.62560200  1
  Fe  Fe16  1  0.24665300  0.49912400  0.87314300  1
  Fe  Fe17  1  0.00558500  0.99859800  0.93487100  1
  Fe  Fe18  1  0.50085700  0.24840400  0.99952900  1
  Fe  Fe19  1  0.50041200  0.74983600  0.00009500  1
  Fe  Fe20  1  0.00395400  0.24988000  0.24999800  1
  Fe  Fe21  1  0.00507500  0.75106300  0.25087100  1
  Fe  Fe22  1  0.74865400  0.00001900  0.12488300  1
  Fe  Fe23  1  0.99483400  0.24927900  0.74993000  1
  O  O0  1  0.00078200  0.26555300  0.36972900  1
  O  O1  1  0.99879600  0.74663300  0.63034400  1
  O  O2  1  0.50278000  0.71903000  0.37718800  1
  O  O3  1  0.99360300  0.75748200  0.12765800  1
  O  O4  1  0.22314400  0.00180900  0.24720200  1
  O  O5  1  0.22912200  0.49976400  0.25725100  1
  O  O6  1  0.49785600  0.76298300  0.62265300  1
  O  O7  1  0.75780300  0.51019000  0.75239300  1
  O  O8  1  0.51159900  0.22949900  0.11544200  1
  O  O9  1  0.26882100  0.99753700  0.99990400  1
  O  O10  1  0.49774100  0.25572700  0.61951300  1
  O  O11  1  0.73865300  0.99876200  0.00159500  1
  O  O12  1  0.77883900  0.50107200  0.25880600  1
  O  O13  1  0.00181900  0.73648600  0.37157600  1
  O  O14  1  0.73878400  0.01086500  0.49776200  1
  O  O15  1  0.24059000  0.50945900  0.75669100  1
  O  O16  1  0.23348700  0.99132400  0.75177700  1
  O  O17  1  0.77707000  0.99909800  0.24185000  1
  O  O18  1  0.73156000  0.49925100  0.99862700  1
  O  O19  1  0.50087700  0.27811700  0.38030400  1
  O  O20  1  0.26152000  0.01045100  0.49762700  1
  O  O21  1  0.00925000  0.26405800  0.87729000  1
  O  O22  1  0.25552600  0.48933800  0.49449100  1
  O  O23  1  0.51313300  0.76593000  0.11563600  1
  O  O24  1  0.74378900  0.48961800  0.49480000  1
  O  O25  1  0.99057400  0.24456200  0.12794600  1
  O  O26  1  0.99750500  0.23887400  0.62714200  1
  O  O27  1  0.48764300  0.25857400  0.88115400  1
  O  O28  1  0.48886200  0.73695600  0.88267700  1
  O  O29  1  0.26662600  0.49946700  0.99807400  1
  O  O30  1  0.01006600  0.73694700  0.87247500  1
  O  O31  1  0.75714000  0.98994100  0.75427600  1
loop_
_geom_bond_atom_site_label_1
_geom_bond_atom_site_label_2
_geom_bond_distance
_geom_bond_site_symmetry_2
Fe0 O16 1.905949 1_555
Fe0 O31 1.910210 1_555
Fe0 O28 1.966355 1_555
Fe0 O27 1.974831 1_565
Fe1 O2 2.006479 1_555
Fe1 O19 2.026410 1_555
Fe1 O24 2.029616 1_555
Fe1 O12 2.041046 1_555
Fe1 O0 2.097090 1_655
Fe1 O13 2.105195 1_655
Fe2 O26 2.097088 1_455
Fe2 O6 2.106893 1_545
Fe2 O1 2.169128 1_445
Fe2 O10 2.169572 1_555
Fe2 O16 2.185965 1_545
Fe2 O20 2.192907 1_555
Fe3 O2 2.011190 1_555
Fe3 O19 2.033359 1_565
Fe3 O4 2.059748 1_565
Fe3 O17 2.097444 1_555
Fe4 O25 1.919269 1_555
Fe4 O3 1.927887 1_555
Fe4 O18 1.948012 1_554
Fe4 O29 1.984144 1_654
Fe5 O6 1.907442 1_555
Fe5 O10 1.920916 1_555
Fe5 O7 1.940129 1_555
Fe5 O15 1.974983 1_555
Fe6 O26 1.900486 1_555
Fe6 O1 1.925514 1_555
Fe6 O24 1.950785 1_555
Fe6 O22 1.955338 1_655
Fe7 O10 2.014638 1_555
Fe7 O20 2.039913 1_555
Fe7 O14 2.041480 1_555
Fe7 O24 2.099725 1_555
Fe7 O22 2.104575 1_555
Fe7 O19 2.112230 1_555
Fe8 O23 2.005296 1_555
Fe8 O12 2.068671 1_555
Fe8 O8 2.075691 1_555
Fe8 O5 2.080974 1_555
Fe9 O20 1.896724 1_555
Fe9 O14 1.898226 1_455
Fe9 O0 1.972798 1_555
Fe9 O13 1.985263 1_545
Fe10 O1 2.004677 1_555
Fe10 O31 2.040754 1_555
Fe10 O16 2.048091 1_655
Fe10 O7 2.070044 1_555
Fe10 O15 2.119502 1_655
Fe10 O30 2.167575 1_655
Fe11 O6 2.091963 1_555
Fe11 O2 2.141876 1_555
Fe11 O14 2.146103 1_565
Fe11 O20 2.146320 1_565
Fe11 O24 2.178644 1_555
Fe11 O22 2.181126 1_555
Fe12 O2 2.008300 1_555
Fe12 O19 2.019007 1_555
Fe12 O22 2.027074 1_555
Fe12 O5 2.062880 1_555
Fe12 O0 2.108148 1_555
Fe12 O13 2.108792 1_555
Fe13 O4 2.120651 1_555
Fe13 O8 2.121282 1_555
Fe13 O9 2.144469 1_544
Fe13 O3 2.147042 1_445
Fe13 O23 2.153622 1_545
Fe13 O25 2.166017 1_455
Fe14 O7 2.082592 1_555
Fe14 O21 2.132749 1_655
Fe14 O30 2.146534 1_655
Fe14 O28 2.154401 1_555
Fe14 O18 2.159552 1_555
Fe14 O27 2.164680 1_555
Fe15 O26 2.095154 1_555
Fe15 O6 2.100804 1_545
Fe15 O10 2.175801 1_555
Fe15 O1 2.176992 1_545
Fe15 O14 2.201636 1_555
Fe15 O31 2.216262 1_545
Fe16 O15 2.005497 1_555
Fe16 O21 2.032748 1_555
Fe16 O30 2.042188 1_555
Fe16 O28 2.070160 1_555
Fe16 O27 2.077605 1_555
Fe16 O29 2.153329 1_555
Fe17 O21 1.898374 1_565
Fe17 O30 1.919519 1_555
Fe17 O9 1.952300 1_555
Fe17 O11 1.987817 1_456
Fe18 O8 1.999405 1_556
Fe18 O27 2.039775 1_555
Fe18 O18 2.072476 1_555
Fe18 O9 2.077982 1_545
Fe18 O29 2.090560 1_555
Fe18 O11 2.099279 1_546
Fe19 O23 1.991997 1_555
Fe19 O28 2.023174 1_554
Fe19 O9 2.064444 1_554
Fe19 O18 2.075605 1_554
Fe19 O29 2.083187 1_554
Fe19 O11 2.095254 1_555
Fe20 O4 2.015918 1_555
Fe20 O5 2.049000 1_555
Fe20 O12 2.058906 1_455
Fe20 O17 2.060977 1_445
Fe20 O0 2.062521 1_555
Fe20 O25 2.102116 1_455
Fe21 O4 2.021941 1_565
Fe21 O5 2.052859 1_555
Fe21 O12 2.055082 1_455
Fe21 O17 2.057241 1_455
Fe21 O13 2.079424 1_555
Fe21 O3 2.121960 1_455
Fe22 O8 2.015232 1_555
Fe22 O17 2.020263 1_545
Fe22 O23 2.025019 1_545
Fe22 O25 2.092137 1_555
Fe22 O3 2.099029 1_545
Fe22 O11 2.122514 1_545
Fe23 O26 2.113919 1_555
Fe23 O16 2.139738 1_645
Fe23 O31 2.140634 1_545
Fe23 O7 2.146426 1_555
Fe23 O15 2.179136 1_655
Fe23 O21 2.195088 1_655
