# generated using pymatgen
data_SmZrF7
_symmetry_space_group_name_H-M   'P 1'
_cell_length_a   5.72370820
_cell_length_b   9.13793553
_cell_length_c   12.29523480
_cell_angle_alpha   62.03600318
_cell_angle_beta   90.00000000
_cell_angle_gamma   90.00000000
_symmetry_Int_Tables_number   1
_chemical_formula_structural   SmZrF7
_chemical_formula_sum   'Sm4 Zr4 F28'
_cell_volume   567.99213393
_cell_formula_units_Z   4
loop_
 _symmetry_equiv_pos_site_id
 _symmetry_equiv_pos_as_xyz
  1  'x, y, z'
loop_
 _atom_site_type_symbol
 _atom_site_label
 _atom_site_symmetry_multiplicity
 _atom_site_fract_x
 _atom_site_fract_y
 _atom_site_fract_z
 _atom_site_occupancy
  Sm  Sm0  1  0.74218849  0.81383485  0.26641730  1
  Sm  Sm1  1  0.24218849  0.18616515  0.23358270  1
  Sm  Sm2  1  0.25781151  0.18616515  0.73358270  1
  Sm  Sm3  1  0.75781151  0.81383485  0.76641730  1
  Zr  Zr0  1  0.74535936  0.27322253  0.45551265  1
  Zr  Zr1  1  0.24535936  0.72677747  0.04448735  1
  Zr  Zr2  1  0.25464064  0.72677747  0.54448735  1
  Zr  Zr3  1  0.75464064  0.27322253  0.95551265  1
  F  F0  1  0.45881710  0.71463990  0.91891260  1
  F  F1  1  0.95881710  0.28536010  0.58108740  1
  F  F2  1  0.54118290  0.28536010  0.08108740  1
  F  F3  1  0.04118290  0.71463990  0.41891260  1
  F  F4  1  0.45286011  0.28220835  0.54530175  1
  F  F5  1  0.95286011  0.71779165  0.95469825  1
  F  F6  1  0.54713989  0.71779165  0.45469825  1
  F  F7  1  0.04713989  0.28220835  0.04530175  1
  F  F8  1  0.76666581  0.52185149  0.85990490  1
  F  F9  1  0.26666581  0.47814851  0.64009510  1
  F  F10  1  0.23333419  0.47814851  0.14009510  1
  F  F11  1  0.73333419  0.52185149  0.35990490  1
  F  F12  1  0.76201091  0.02495128  0.05693636  1
  F  F13  1  0.26201091  0.97504872  0.44306364  1
  F  F14  1  0.23798909  0.97504872  0.94306364  1
  F  F15  1  0.73798909  0.02495128  0.55693636  1
  F  F16  1  0.97831551  0.73112683  0.64409742  1
  F  F17  1  0.47831551  0.26887317  0.85590258  1
  F  F18  1  0.02168449  0.26887317  0.35590258  1
  F  F19  1  0.52168449  0.73112683  0.14409742  1
  F  F20  1  0.04274136  0.74498791  0.17253330  1
  F  F21  1  0.54274136  0.25501209  0.32746670  1
  F  F22  1  0.95725864  0.25501209  0.82746670  1
  F  F23  1  0.45725864  0.74498791  0.67253330  1
  F  F24  1  0.41051766  0.96464755  0.23298275  1
  F  F25  1  0.91051766  0.03535245  0.26701725  1
  F  F26  1  0.58948234  0.03535245  0.76701725  1
  F  F27  1  0.08948234  0.96464755  0.73298275  1
loop_
_geom_bond_atom_site_label_1
_geom_bond_atom_site_label_2
_geom_bond_distance
_geom_bond_site_symmetry_2
F0 Zr1 2.012329 1_556
F0 Sm3 2.381592 1_555
F1 Zr0 2.012329 1_555
F1 Sm2 2.381592 1_655
F2 Zr3 2.012329 1_554
F2 Sm1 2.381592 1_555
F3 Zr2 2.012329 1_555
F3 Sm0 2.381592 1_455
F4 Zr0 2.028153 1_555
F4 Sm2 2.338855 1_555
F5 Zr1 2.028153 1_656
F5 Sm3 2.338855 1_555
F6 Zr2 2.028153 1_555
F6 Sm0 2.338855 1_555
F7 Zr3 2.028153 1_454
F7 Sm1 2.338855 1_555
F8 Zr3 2.010887 1_555
F8 Sm3 2.359338 1_555
F9 Zr2 2.010887 1_555
F9 Sm2 2.359338 1_555
F10 Zr1 2.010887 1_555
F10 Sm1 2.359338 1_555
F11 Zr0 2.010887 1_555
F11 Sm0 2.359338 1_555
F12 Zr3 2.012600 1_554
F12 Sm0 2.389239 1_545
F13 Zr2 2.012600 1_555
F13 Sm1 2.389239 1_565
F14 Zr1 2.012600 1_556
F14 Sm2 2.389239 1_565
F15 Zr0 2.012600 1_555
F15 Sm3 2.389239 1_545
F16 Zr2 2.012129 1_655
F16 Sm3 2.343495 1_555
F17 Zr3 2.012129 1_555
F17 Sm2 2.343495 1_555
F18 Zr0 2.012129 1_455
F18 Sm1 2.343495 1_555
F19 Zr1 2.012129 1_555
F19 Sm0 2.343495 1_555
F20 Zr1 2.024091 1_555
F20 Sm0 2.317040 1_455
F21 Zr0 2.024091 1_555
F21 Sm1 2.317040 1_555
F22 Zr3 2.024091 1_555
F22 Sm2 2.317040 1_655
F23 Zr2 2.024091 1_555
F23 Sm3 2.317040 1_555
F24 Sm1 2.244943 1_565
F24 Sm0 2.267326 1_555
F25 Sm0 2.244943 1_545
F25 Sm1 2.267326 1_655
F26 Sm3 2.244943 1_545
F26 Sm2 2.267326 1_555
F27 Sm2 2.244943 1_565
F27 Sm3 2.267326 1_455
