# generated using pymatgen
data_SrMg6Ga
_symmetry_space_group_name_H-M   'P 1'
_cell_length_a   5.06870900
_cell_length_b   6.84361700
_cell_length_c   11.68317600
_cell_angle_alpha   90.00000000
_cell_angle_beta   90.00000000
_cell_angle_gamma   90.00000000
_symmetry_Int_Tables_number   1
_chemical_formula_structural   SrMg6Ga
_chemical_formula_sum   'Sr2 Mg12 Ga2'
_cell_volume   405.26955003
_cell_formula_units_Z   2
loop_
 _symmetry_equiv_pos_site_id
 _symmetry_equiv_pos_as_xyz
  1  'x, y, z'
loop_
 _atom_site_type_symbol
 _atom_site_label
 _atom_site_symmetry_multiplicity
 _atom_site_fract_x
 _atom_site_fract_y
 _atom_site_fract_z
 _atom_site_occupancy
  Sr  Sr0  1  0.00000000  0.50000000  0.32679800  1
  Sr  Sr1  1  0.00000000  0.00000000  0.82679800  1
  Mg  Mg0  1  0.00000000  0.26154400  0.07963500  1
  Mg  Mg1  1  0.00000000  0.73845600  0.07963500  1
  Mg  Mg2  1  0.00000000  0.50000000  0.83694600  1
  Mg  Mg3  1  0.50000000  0.27376400  0.92692300  1
  Mg  Mg4  1  0.50000000  0.72623600  0.92692300  1
  Mg  Mg5  1  0.50000000  0.50000000  0.66688500  1
  Mg  Mg6  1  0.00000000  0.76154400  0.57963500  1
  Mg  Mg7  1  0.00000000  0.23845600  0.57963500  1
  Mg  Mg8  1  0.00000000  0.00000000  0.33694600  1
  Mg  Mg9  1  0.50000000  0.77376400  0.42692300  1
  Mg  Mg10  1  0.50000000  0.22623600  0.42692300  1
  Mg  Mg11  1  0.50000000  0.00000000  0.16688500  1
  Ga  Ga0  1  0.50000000  0.50000000  0.15625400  1
  Ga  Ga1  1  0.50000000  0.00000000  0.65625400  1
loop_
_geom_bond_atom_site_label_1
_geom_bond_atom_site_label_2
_geom_bond_distance
_geom_bond_site_symmetry_2
Mg0 Mg3 3.100512 1_454
Mg0 Mg3 3.100512 1_554
Mg0 Mg1 3.263803 1_555
Mg0 Mg11 3.265855 1_555
Mg0 Mg11 3.265855 1_455
Mg0 Mg2 3.271463 1_554
Mg0 Sr0 3.316869 1_555
Mg0 Sr1 3.453914 1_554
Mg0 Mg8 3.498723 1_555
Mg1 Mg4 3.100512 1_554
Mg1 Mg4 3.100512 1_454
Mg1 Mg11 3.265855 1_465
Mg1 Mg11 3.265855 1_565
Mg1 Mg2 3.271463 1_554
Mg1 Sr0 3.316869 1_555
Mg1 Sr1 3.453914 1_564
Mg1 Mg8 3.498723 1_565
Mg2 Mg3 3.150422 1_555
Mg2 Mg4 3.150422 1_555
Mg2 Mg3 3.150422 1_455
Mg2 Mg4 3.150422 1_455
Mg2 Mg5 3.220332 1_455
Mg2 Mg5 3.220332 1_555
Mg2 Sr1 3.423862 1_555
Mg2 Sr1 3.423862 1_565
Mg2 Mg7 3.498723 1_555
Mg2 Mg6 3.498723 1_555
Mg3 Mg4 3.096545 1_555
Mg3 Sr1 3.361766 1_655
Mg3 Sr1 3.361766 1_555
Mg3 Mg5 3.409841 1_555
Mg4 Sr1 3.361766 1_565
Mg4 Sr1 3.361766 1_665
Mg4 Mg5 3.409841 1_555
Mg5 Mg6 3.265855 1_655
Mg5 Mg7 3.265855 1_555
Mg5 Mg7 3.265855 1_655
Mg5 Mg6 3.265855 1_555
Mg5 Mg9 3.371921 1_555
Mg6 Mg9 3.100512 1_455
Mg6 Mg9 3.100512 1_555
Mg6 Mg7 3.263803 1_565
Mg6 Mg8 3.271463 1_565
Mg6 Sr1 3.316869 1_565
Mg6 Sr0 3.453914 1_555
Mg7 Mg8 3.271463 1_555
Mg7 Sr1 3.316869 1_555
Mg7 Sr0 3.453914 1_555
Mg8 Mg9 3.150422 1_545
Mg8 Mg9 3.150422 1_445
Mg8 Sr0 3.423862 1_545
Mg8 Sr0 3.423862 1_555
Mg9 Sr0 3.361766 1_655
Mg9 Sr0 3.361766 1_555
Mg10 Mg9 3.096545 1_545
Mg10 Mg7 3.100512 1_555
Mg10 Mg7 3.100512 1_655
Mg10 Mg8 3.150422 1_555
Mg10 Mg8 3.150422 1_655
Mg10 Sr0 3.361766 1_655
Mg10 Sr0 3.361766 1_555
Mg10 Mg5 3.371921 1_555
Mg10 Mg11 3.409841 1_555
Mg11 Mg8 3.220332 1_555
Mg11 Mg8 3.220332 1_655
Mg11 Mg3 3.371921 1_554
Mg11 Mg4 3.371921 1_544
Mg11 Mg9 3.409841 1_545
Ga0 Mg3 3.094491 1_554
Ga0 Mg4 3.094491 1_554
Ga0 Mg1 3.144416 1_555
Ga0 Mg0 3.144416 1_655
Ga0 Mg1 3.144416 1_655
Ga0 Mg0 3.144416 1_555
Ga0 Sr0 3.223816 1_655
Ga0 Sr0 3.223816 1_555
Ga0 Mg11 3.424062 1_565
Ga0 Mg11 3.424062 1_555
Ga1 Mg9 3.094491 1_545
Ga1 Mg10 3.094491 1_555
Ga1 Mg6 3.144416 1_645
Ga1 Mg7 3.144416 1_555
Ga1 Mg7 3.144416 1_655
Ga1 Mg6 3.144416 1_545
Ga1 Sr1 3.223816 1_555
Ga1 Sr1 3.223816 1_655
Ga1 Mg5 3.424062 1_545
Ga1 Mg5 3.424062 1_555
