# generated using pymatgen
data_Eu2Ni12P5
_symmetry_space_group_name_H-M   'P 1'
_cell_length_a   3.66647500
_cell_length_b   10.88585900
_cell_length_c   13.22337143
_cell_angle_alpha   72.02255251
_cell_angle_beta   90.00000000
_cell_angle_gamma   90.00000000
_symmetry_Int_Tables_number   1
_chemical_formula_structural   Eu2Ni12P5
_chemical_formula_sum   'Eu4 Ni24 P10'
_cell_volume   502.01357551
_cell_formula_units_Z   2
loop_
 _symmetry_equiv_pos_site_id
 _symmetry_equiv_pos_as_xyz
  1  'x, y, z'
loop_
 _atom_site_type_symbol
 _atom_site_label
 _atom_site_symmetry_multiplicity
 _atom_site_fract_x
 _atom_site_fract_y
 _atom_site_fract_z
 _atom_site_occupancy
  Eu  Eu0  1  0.25000000  0.28024100  0.68283600  1
  Eu  Eu1  1  0.75000000  0.71975900  0.31716400  1
  Eu  Eu2  1  0.25000000  0.24817300  0.18762400  1
  Eu  Eu3  1  0.75000000  0.75182700  0.81237600  1
  Ni  Ni0  1  0.25000000  0.84437700  0.13453600  1
  Ni  Ni1  1  0.75000000  0.15562300  0.86546400  1
  Ni  Ni2  1  0.25000000  0.28728800  0.43874000  1
  Ni  Ni3  1  0.75000000  0.71271200  0.56126000  1
  Ni  Ni4  1  0.25000000  0.07196000  0.01400700  1
  Ni  Ni5  1  0.75000000  0.92804000  0.98599300  1
  Ni  Ni6  1  0.25000000  0.06596900  0.44859400  1
  Ni  Ni7  1  0.75000000  0.93403100  0.55140600  1
  Ni  Ni8  1  0.25000000  0.59415300  0.69502800  1
  Ni  Ni9  1  0.75000000  0.40584700  0.30497200  1
  Ni  Ni10  1  0.25000000  0.58089000  0.00952100  1
  Ni  Ni11  1  0.75000000  0.41911000  0.99047900  1
  Ni  Ni12  1  0.25000000  0.57840600  0.50958700  1
  Ni  Ni13  1  0.75000000  0.42159400  0.49041300  1
  Ni  Ni14  1  0.25000000  0.29865800  0.91804500  1
  Ni  Ni15  1  0.75000000  0.70134200  0.08195500  1
  Ni  Ni16  1  0.25000000  0.99399500  0.65905900  1
  Ni  Ni17  1  0.75000000  0.00600500  0.34094100  1
  Ni  Ni18  1  0.25000000  0.84351100  0.43894900  1
  Ni  Ni19  1  0.75000000  0.15648900  0.56105100  1
  Ni  Ni20  1  0.25000000  0.98976800  0.84882400  1
  Ni  Ni21  1  0.75000000  0.01023200  0.15117600  1
  Ni  Ni22  1  0.25000000  0.56191300  0.20371200  1
  Ni  Ni23  1  0.75000000  0.43808700  0.79628800  1
  P  P0  1  0.25000000  0.50890600  0.87078800  1
  P  P1  1  0.75000000  0.49109400  0.12921200  1
  P  P2  1  0.25000000  0.79935000  0.98356900  1
  P  P3  1  0.75000000  0.20065000  0.01643100  1
  P  P4  1  0.25000000  0.49430400  0.37795500  1
  P  P5  1  0.75000000  0.50569600  0.62204500  1
  P  P6  1  0.25000000  0.81060100  0.61259200  1
  P  P7  1  0.75000000  0.18939900  0.38740800  1
  P  P8  1  0.25000000  0.94948300  0.26026100  1
  P  P9  1  0.75000000  0.05051700  0.73973900  1
loop_
_geom_bond_atom_site_label_1
_geom_bond_atom_site_label_2
_geom_bond_distance
_geom_bond_site_symmetry_2
Eu0 P5 2.968596 1_555
Eu0 P5 2.968596 1_455
Eu0 Ni1 3.001800 1_455
Eu0 Ni1 3.001800 1_555
Eu0 P9 3.003185 1_555
Eu0 P9 3.003185 1_455
Eu0 Ni19 3.017972 1_455
Eu0 Ni19 3.017972 1_555
Eu1 P4 2.968596 1_655
Eu1 P4 2.968596 1_555
Eu1 Ni0 3.001800 1_555
Eu1 Ni0 3.001800 1_655
Eu1 P8 3.003185 1_655
Eu1 P8 3.003185 1_555
Eu1 Ni18 3.017972 1_555
Eu1 Ni18 3.017972 1_655
Eu2 P3 3.078287 1_455
Eu2 P3 3.078287 1_555
Eu2 P8 3.093052 1_545
Eu2 P1 3.112781 1_455
Eu2 P1 3.112781 1_555
Eu2 P7 3.115437 1_455
Eu2 P7 3.115437 1_555
Eu3 P2 3.078287 1_655
Eu3 P2 3.078287 1_555
Eu3 P9 3.093052 1_565
Eu3 P0 3.112781 1_655
Eu3 P0 3.112781 1_555
Eu3 P6 3.115437 1_655
Eu3 P6 3.115437 1_555
Ni0 P2 2.197601 1_554
Ni0 P8 2.290688 1_555
Ni1 P3 2.197601 1_556
Ni1 P9 2.290688 1_555
Ni2 P4 2.146256 1_555
Ni2 P7 2.324546 1_555
Ni2 P7 2.324546 1_455
Ni3 P5 2.146256 1_555
Ni3 P6 2.324546 1_655
Ni3 P6 2.324546 1_555
Ni4 P3 2.313445 1_455
Ni4 P3 2.313445 1_555
Ni5 P2 2.313445 1_655
Ni5 P2 2.313445 1_555
Ni6 P7 2.269292 1_555
Ni6 P7 2.269292 1_455
Ni7 P6 2.269292 1_655
Ni7 P6 2.269292 1_555
Ni8 P0 2.220685 1_555
Ni8 P6 2.270370 1_555
Ni8 P5 2.406870 1_455
Ni8 P5 2.406870 1_555
Ni9 P1 2.220685 1_555
Ni9 P7 2.270370 1_555
Ni9 P4 2.406870 1_655
Ni9 P4 2.406870 1_555
Ni10 P0 2.206099 1_554
Ni10 P2 2.295533 1_554
Ni10 P1 2.422037 1_555
Ni10 P1 2.422037 1_455
Ni11 P1 2.206099 1_556
Ni11 P3 2.295533 1_556
Ni11 P0 2.422037 1_555
Ni11 P0 2.422037 1_655
Ni12 P4 2.202641 1_555
Ni12 P5 2.339246 1_555
Ni12 P5 2.339246 1_455
Ni13 P5 2.202641 1_555
Ni13 P4 2.339246 1_555
Ni13 P4 2.339246 1_655
Ni14 P0 2.178515 1_555
Ni14 P3 2.309721 1_456
Ni14 P3 2.309721 1_556
Ni15 P1 2.178515 1_555
Ni15 P2 2.309721 1_554
Ni15 P2 2.309721 1_654
Ni16 P6 2.262827 1_555
Ni16 P9 2.298421 1_565
Ni16 P9 2.298421 1_465
Ni17 P7 2.262827 1_555
Ni17 P8 2.298421 1_645
Ni17 P8 2.298421 1_545
Ni18 P6 2.211979 1_555
Ni18 P8 2.287202 1_555
Ni19 P7 2.211979 1_555
Ni19 P9 2.287202 1_555
Ni20 P2 2.278516 1_555
Ni20 P9 2.299994 1_565
Ni20 P9 2.299994 1_465
Ni21 P3 2.278516 1_555
Ni21 P8 2.299994 1_645
Ni21 P8 2.299994 1_545
Ni22 P4 2.191731 1_555
Ni22 P1 2.322585 1_555
Ni22 P1 2.322585 1_455
Ni23 P5 2.191731 1_555
Ni23 P0 2.322585 1_655
Ni23 P0 2.322585 1_555
