# generated using pymatgen
data_SmNiPb
_symmetry_space_group_name_H-M   'P 1'
_cell_length_a   4.58978341
_cell_length_b   7.33181523
_cell_length_c   7.87051051
_cell_angle_alpha   90.00819843
_cell_angle_beta   90.04042330
_cell_angle_gamma   89.97303752
_symmetry_Int_Tables_number   1
_chemical_formula_structural   SmNiPb
_chemical_formula_sum   'Sm4 Ni4 Pb4'
_cell_volume   264.85394486
_cell_formula_units_Z   4
loop_
 _symmetry_equiv_pos_site_id
 _symmetry_equiv_pos_as_xyz
  1  'x, y, z'
loop_
 _atom_site_type_symbol
 _atom_site_label
 _atom_site_symmetry_multiplicity
 _atom_site_fract_x
 _atom_site_fract_y
 _atom_site_fract_z
 _atom_site_occupancy
  Sm  Sm0  1  0.74999700  0.98780000  0.29813300  1
  Sm  Sm1  1  0.25015700  0.01216800  0.70193300  1
  Sm  Sm2  1  0.24996500  0.51213000  0.79796400  1
  Sm  Sm3  1  0.74982900  0.48789100  0.20192100  1
  Ni  Ni0  1  0.75000700  0.71246000  0.58671500  1
  Ni  Ni1  1  0.25000700  0.28750300  0.41315300  1
  Ni  Ni2  1  0.25039900  0.78752700  0.08676000  1
  Ni  Ni3  1  0.74961300  0.21259400  0.91342000  1
  Pb  Pb0  1  0.75031900  0.81286200  0.91677500  1
  Pb  Pb1  1  0.24971900  0.18718800  0.08315100  1
  Pb  Pb2  1  0.24988000  0.68711000  0.41668700  1
  Pb  Pb3  1  0.75010800  0.31276700  0.58338900  1
loop_
_geom_bond_atom_site_label_1
_geom_bond_atom_site_label_2
_geom_bond_distance
_geom_bond_site_symmetry_2
Sm0 Sm3 3.742540 1_555
Sm0 Sm3 3.744058 1_565
Sm0 Sm1 3.923282 1_665
Sm0 Sm1 3.924948 1_565
Sm1 Sm2 3.742632 1_555
Sm1 Sm2 3.743391 1_545
Sm2 Sm3 3.923389 1_556
Sm2 Sm3 3.926840 1_456
Ni0 Pb2 2.662807 1_555
Ni0 Pb2 2.663279 1_655
Ni0 Pb0 2.699925 1_555
Ni0 Pb3 2.930588 1_555
Ni0 Sm0 3.038977 1_555
Ni0 Sm2 3.190528 1_655
Ni0 Sm2 3.193486 1_555
Ni0 Sm1 3.303317 1_565
Ni0 Sm1 3.304821 1_665
Ni0 Sm3 3.446954 1_555
Ni1 Pb3 2.663482 1_555
Ni1 Pb3 2.664162 1_455
Ni1 Pb1 2.699312 1_555
Ni1 Pb2 2.929973 1_555
Ni1 Sm1 3.040117 1_555
Ni1 Sm3 3.191380 1_455
Ni1 Sm3 3.192886 1_555
Ni1 Sm0 3.303311 1_545
Ni1 Sm0 3.303924 1_445
Ni1 Sm2 3.447275 1_555
Ni2 Pb0 2.662320 1_454
Ni2 Pb0 2.663464 1_554
Ni2 Pb2 2.699154 1_555
Ni2 Pb1 2.930383 1_565
Ni2 Sm2 3.040082 1_554
Ni2 Sm0 3.190432 1_555
Ni2 Sm0 3.193779 1_455
Ni2 Sm3 3.300789 1_555
Ni2 Sm3 3.306748 1_455
Ni2 Sm1 3.447848 1_564
Ni3 Pb1 2.661456 1_656
Ni3 Pb1 2.662393 1_556
Ni3 Pb3 2.699453 1_555
Ni3 Pb0 2.930884 1_545
Ni3 Sm3 3.037859 1_556
Ni3 Sm1 3.190948 1_555
Ni3 Sm1 3.195231 1_655
Ni3 Sm2 3.301633 1_555
Ni3 Sm2 3.306204 1_655
Ni3 Sm0 3.447596 1_546
Pb0 Sm1 3.202583 1_565
Pb0 Sm1 3.204212 1_665
Pb0 Sm0 3.263878 1_556
Pb0 Sm3 3.273392 1_556
Pb0 Sm2 3.315540 1_655
Pb0 Sm2 3.318311 1_555
Pb1 Sm0 3.203819 1_545
Pb1 Sm0 3.204687 1_445
Pb1 Sm1 3.263101 1_554
Pb1 Sm2 3.273457 1_554
Pb1 Sm3 3.316082 1_455
Pb1 Sm3 3.317304 1_555
Pb2 Sm3 3.202376 1_455
Pb2 Sm3 3.202765 1_555
Pb2 Sm2 3.263749 1_555
Pb2 Sm1 3.273926 1_565
Pb2 Sm0 3.314783 1_455
Pb2 Sm0 3.317873 1_555
Pb3 Sm2 3.201428 1_655
Pb3 Sm2 3.203090 1_555
Pb3 Sm3 3.265545 1_555
Pb3 Sm0 3.273494 1_545
Pb3 Sm1 3.314845 1_655
Pb3 Sm1 3.316880 1_555
