# generated using pymatgen
data_Mg3(SO5)2
_symmetry_space_group_name_H-M   'P 1'
_cell_length_a   7.55622100
_cell_length_b   7.55622100
_cell_length_c   13.10224900
_cell_angle_alpha   90.00000000
_cell_angle_beta   90.00000000
_cell_angle_gamma   90.00000000
_symmetry_Int_Tables_number   1
_chemical_formula_structural   Mg3(SO5)2
_chemical_formula_sum   'Mg12 S8 O40'
_cell_volume   748.09224297
_cell_formula_units_Z   4
loop_
 _symmetry_equiv_pos_site_id
 _symmetry_equiv_pos_as_xyz
  1  'x, y, z'
loop_
 _atom_site_type_symbol
 _atom_site_label
 _atom_site_symmetry_multiplicity
 _atom_site_fract_x
 _atom_site_fract_y
 _atom_site_fract_z
 _atom_site_occupancy
  Mg  Mg0  1  0.61719300  0.38280700  0.75000000  1
  Mg  Mg1  1  0.38280700  0.61719300  0.25000000  1
  Mg  Mg2  1  0.88280700  0.88280700  0.00000000  1
  Mg  Mg3  1  0.11719300  0.11719300  0.50000000  1
  Mg  Mg4  1  0.59774300  0.15227500  0.99644800  1
  Mg  Mg5  1  0.40225700  0.84772500  0.49644800  1
  Mg  Mg6  1  0.65227500  0.90225700  0.24644800  1
  Mg  Mg7  1  0.34772500  0.09774300  0.74644800  1
  Mg  Mg8  1  0.84772500  0.40225700  0.50355200  1
  Mg  Mg9  1  0.15227500  0.59774300  0.00355200  1
  Mg  Mg10  1  0.90225700  0.65227500  0.75355200  1
  Mg  Mg11  1  0.09774300  0.34772500  0.25355200  1
  S  S0  1  0.75246200  0.50427200  0.12237400  1
  S  S1  1  0.24753800  0.49572800  0.62237400  1
  S  S2  1  0.00427200  0.74753800  0.37237400  1
  S  S3  1  0.99572800  0.25246200  0.87237400  1
  S  S4  1  0.49572800  0.24753800  0.37762600  1
  S  S5  1  0.50427200  0.75246200  0.87762600  1
  S  S6  1  0.74753800  0.00427200  0.62762600  1
  S  S7  1  0.25246200  0.99572800  0.12762600  1
  O  O0  1  0.64156500  0.39497800  0.05530400  1
  O  O1  1  0.35843500  0.60502200  0.55530400  1
  O  O2  1  0.89497800  0.85843500  0.30530400  1
  O  O3  1  0.10502200  0.14156500  0.80530400  1
  O  O4  1  0.60502200  0.35843500  0.44469600  1
  O  O5  1  0.39497800  0.64156500  0.94469600  1
  O  O6  1  0.85843500  0.89497800  0.69469600  1
  O  O7  1  0.14156500  0.10502200  0.19469600  1
  O  O8  1  0.87440400  0.61976200  0.06001600  1
  O  O9  1  0.12559600  0.38023800  0.56001600  1
  O  O10  1  0.11976200  0.62559600  0.31001600  1
  O  O11  1  0.88023800  0.37440400  0.81001600  1
  O  O12  1  0.38023800  0.12559600  0.43998400  1
  O  O13  1  0.61976200  0.87440400  0.93998400  1
  O  O14  1  0.62559600  0.11976200  0.68998400  1
  O  O15  1  0.37440400  0.88023800  0.18998400  1
  O  O16  1  0.72606300  0.99797700  0.10722900  1
  O  O17  1  0.27393700  0.00202300  0.60722900  1
  O  O18  1  0.49797700  0.77393700  0.35722900  1
  O  O19  1  0.50202300  0.22606300  0.85722900  1
  O  O20  1  0.00202300  0.27393700  0.39277100  1
  O  O21  1  0.99797700  0.72606300  0.89277100  1
  O  O22  1  0.77393700  0.49797700  0.64277100  1
  O  O23  1  0.22606300  0.50202300  0.14277100  1
  O  O24  1  0.63434700  0.62616100  0.18242300  1
  O  O25  1  0.36565300  0.37383900  0.68242300  1
  O  O26  1  0.12616100  0.86565300  0.43242300  1
  O  O27  1  0.87383900  0.13434700  0.93242300  1
  O  O28  1  0.37383900  0.36565300  0.31757700  1
  O  O29  1  0.62616100  0.63434700  0.81757700  1
  O  O30  1  0.86565300  0.12616100  0.56757700  1
  O  O31  1  0.13434700  0.87383900  0.06757700  1
  O  O32  1  0.85769500  0.39450400  0.19160000  1
  O  O33  1  0.14230500  0.60549600  0.69160000  1
  O  O34  1  0.89450400  0.64230500  0.44160000  1
  O  O35  1  0.10549600  0.35769500  0.94160000  1
  O  O36  1  0.60549600  0.14230500  0.30840000  1
  O  O37  1  0.39450400  0.85769500  0.80840000  1
  O  O38  1  0.64230500  0.89450400  0.55840000  1
  O  O39  1  0.35769500  0.10549600  0.05840000  1
loop_
_geom_bond_atom_site_label_1
_geom_bond_atom_site_label_2
_geom_bond_distance
_geom_bond_site_symmetry_2
Mg0 O19 2.033219 1_555
Mg0 O22 2.033219 1_555
Mg0 O25 2.097897 1_555
Mg0 O29 2.097897 1_555
Mg0 O11 2.138464 1_555
Mg0 O14 2.138464 1_555
Mg1 O18 2.033219 1_555
Mg1 O23 2.033219 1_555
Mg1 O28 2.097897 1_555
Mg1 O24 2.097897 1_555
Mg1 O10 2.138464 1_555
Mg1 O15 2.138464 1_555
Mg2 O16 2.033219 1_555
Mg2 O21 2.033219 1_554
Mg2 O27 2.097897 1_564
Mg2 O31 2.097897 1_655
Mg2 O8 2.138464 1_555
Mg2 O13 2.138464 1_554
Mg3 O17 2.033219 1_555
Mg3 O20 2.033219 1_555
Mg3 O26 2.097897 1_545
Mg3 O30 2.097897 1_455
Mg3 O9 2.138464 1_555
Mg3 O12 2.138464 1_555
Mg4 O0 2.016821 1_556
Mg4 O39 2.018388 1_556
Mg4 O19 2.039922 1_555
Mg4 O16 2.099117 1_546
Mg4 O13 2.232385 1_545
Mg4 O27 2.252657 1_555
Mg5 O1 2.016821 1_555
Mg5 O38 2.018388 1_555
Mg5 O18 2.039922 1_555
Mg5 O17 2.099117 1_565
Mg5 O12 2.232385 1_565
Mg5 O26 2.252657 1_555
Mg6 O2 2.016821 1_555
Mg6 O36 2.018388 1_565
Mg6 O16 2.039922 1_555
Mg6 O18 2.099117 1_555
Mg6 O15 2.232385 1_555
Mg6 O24 2.252657 1_555
Mg7 O3 2.016821 1_555
Mg7 O37 2.018388 1_545
Mg7 O17 2.039922 1_555
Mg7 O19 2.099117 1_555
Mg7 O14 2.232385 1_555
Mg7 O25 2.252657 1_555
Mg8 O4 2.016821 1_555
Mg8 O34 2.018388 1_555
Mg8 O22 2.039922 1_555
Mg8 O20 2.099117 1_655
Mg8 O9 2.232385 1_655
Mg8 O30 2.252657 1_555
Mg9 O5 2.016821 1_554
Mg9 O35 2.018388 1_554
Mg9 O23 2.039922 1_555
Mg9 O21 2.099117 1_454
Mg9 O8 2.232385 1_455
Mg9 O31 2.252657 1_555
Mg10 O6 2.016821 1_555
Mg10 O33 2.018388 1_655
Mg10 O21 2.039922 1_555
Mg10 O22 2.099117 1_555
Mg10 O11 2.232385 1_555
Mg10 O29 2.252657 1_555
Mg11 O7 2.016821 1_555
Mg11 O32 2.018388 1_455
Mg11 O20 2.039922 1_555
Mg11 O23 2.099117 1_555
Mg11 O10 2.232385 1_555
Mg11 O28 2.252657 1_555
O0 S0 1.468483 1_555
O1 S1 1.468483 1_555
O2 S2 1.468483 1_655
O3 S3 1.468483 1_455
O4 S4 1.468483 1_555
O5 S5 1.468483 1_555
O6 S6 1.468483 1_565
O7 S7 1.468483 1_545
O8 S0 1.509339 1_555
O9 S1 1.509339 1_555
O10 S2 1.509339 1_555
O11 S3 1.509339 1_555
O12 S4 1.509339 1_555
O13 S5 1.509339 1_555
O14 S6 1.509339 1_555
O15 S7 1.509339 1_555
O24 S0 1.504612 1_555
O25 S1 1.504612 1_555
O26 S2 1.504612 1_555
O27 S3 1.504612 1_555
O28 S4 1.504612 1_555
O29 S5 1.504612 1_555
O30 S6 1.504612 1_555
O31 S7 1.504612 1_555
O32 S0 1.463872 1_555
O33 S1 1.463872 1_555
O34 S2 1.463872 1_655
O35 S3 1.463872 1_455
O36 S4 1.463872 1_555
O37 S5 1.463872 1_555
O38 S6 1.463872 1_565
O39 S7 1.463872 1_545
