# generated using pymatgen
data_Sn3Hg
_symmetry_space_group_name_H-M   'P 1'
_cell_length_a   6.56615953
_cell_length_b   6.56615953
_cell_length_c   5.70736727
_cell_angle_alpha   90.00000000
_cell_angle_beta   90.00000000
_cell_angle_gamma   119.99998617
_symmetry_Int_Tables_number   1
_chemical_formula_structural   Sn3Hg
_chemical_formula_sum   'Sn6 Hg2'
_cell_volume   213.10290615
_cell_formula_units_Z   2
loop_
 _symmetry_equiv_pos_site_id
 _symmetry_equiv_pos_as_xyz
  1  'x, y, z'
loop_
 _atom_site_type_symbol
 _atom_site_label
 _atom_site_symmetry_multiplicity
 _atom_site_fract_x
 _atom_site_fract_y
 _atom_site_fract_z
 _atom_site_occupancy
  Sn  Sn0  1  0.16302371  0.32604743  0.25000000  1
  Sn  Sn1  1  0.67395257  0.83697629  0.25000000  1
  Sn  Sn2  1  0.16302371  0.83697629  0.25000000  1
  Sn  Sn3  1  0.83697629  0.67395257  0.75000000  1
  Sn  Sn4  1  0.32604743  0.16302371  0.75000000  1
  Sn  Sn5  1  0.83697629  0.16302371  0.75000000  1
  Hg  Hg0  1  0.33333300  0.66666700  0.75000000  1
  Hg  Hg1  1  0.66666700  0.33333300  0.25000000  1
loop_
_geom_bond_atom_site_label_1
_geom_bond_atom_site_label_2
_geom_bond_distance
_geom_bond_site_symmetry_2
Sn0 Sn2 3.211319 1_545
Sn0 Sn1 3.211320 1_445
Sn0 Sn2 3.354840 1_555
Sn0 Sn1 3.354841 1_555
Sn0 Sn4 3.403092 1_554
Sn0 Sn4 3.403092 1_555
Sn0 Sn5 3.403092 1_455
Sn0 Sn5 3.403092 1_454
Sn1 Sn2 3.211319 1_655
Sn1 Sn2 3.354840 1_555
Sn1 Sn3 3.403092 1_555
Sn1 Sn3 3.403092 1_554
Sn1 Sn5 3.403092 1_564
Sn1 Sn5 3.403092 1_565
Sn2 Sn4 3.403092 1_565
Sn2 Sn4 3.403092 1_564
Sn2 Sn3 3.403092 1_455
Sn2 Sn3 3.403092 1_454
Sn3 Sn5 3.211319 1_565
Sn3 Sn4 3.211320 1_665
Sn3 Sn5 3.354840 1_555
Sn3 Sn4 3.354841 1_555
Sn4 Sn5 3.211319 1_455
Sn4 Sn5 3.354840 1_555
Hg0 Sn3 3.283338 1_455
Hg0 Sn4 3.283338 1_565
Hg0 Sn5 3.283342 1_455
Hg0 Sn5 3.283342 1_565
Hg0 Sn4 3.283344 1_555
Hg0 Sn3 3.283344 1_555
Hg0 Sn2 3.448934 1_556
Hg0 Sn2 3.448934 1_555
Hg0 Sn0 3.448938 1_555
Hg0 Sn1 3.448938 1_556
Hg0 Sn0 3.448938 1_556
Hg0 Sn1 3.448938 1_555
Hg1 Sn1 3.283338 1_545
Hg1 Sn0 3.283338 1_655
Hg1 Sn2 3.283342 1_545
Hg1 Sn2 3.283342 1_655
Hg1 Sn0 3.283344 1_555
Hg1 Sn1 3.283344 1_555
Hg1 Sn5 3.448934 1_555
Hg1 Sn5 3.448934 1_554
Hg1 Sn4 3.448938 1_554
Hg1 Sn3 3.448938 1_555
Hg1 Sn4 3.448938 1_555
Hg1 Sn3 3.448938 1_554
