# generated using pymatgen
data_Mn2FeP2O11
_symmetry_space_group_name_H-M   'P 1'
_cell_length_a   7.86821500
_cell_length_b   9.67699300
_cell_length_c   9.39875600
_cell_angle_alpha   90.00000000
_cell_angle_beta   90.00000000
_cell_angle_gamma   90.00000000
_symmetry_Int_Tables_number   1
_chemical_formula_structural   Mn2FeP2O11
_chemical_formula_sum   'Mn8 Fe4 P8 O44'
_cell_volume   715.62749891
_cell_formula_units_Z   4
loop_
 _symmetry_equiv_pos_site_id
 _symmetry_equiv_pos_as_xyz
  1  'x, y, z'
loop_
 _atom_site_type_symbol
 _atom_site_label
 _atom_site_symmetry_multiplicity
 _atom_site_fract_x
 _atom_site_fract_y
 _atom_site_fract_z
 _atom_site_occupancy
  Mn  Mn0  1  0.63714000  0.95685900  0.61704600  1
  Mn  Mn1  1  0.86286000  0.54314100  0.11704600  1
  Mn  Mn2  1  0.13714000  0.54314100  0.38295400  1
  Mn  Mn3  1  0.36286000  0.95685900  0.88295400  1
  Mn  Mn4  1  0.36286000  0.04314100  0.38295400  1
  Mn  Mn5  1  0.13714000  0.45685900  0.88295400  1
  Mn  Mn6  1  0.86286000  0.45685900  0.61704600  1
  Mn  Mn7  1  0.63714000  0.04314100  0.11704600  1
  Fe  Fe0  1  0.00000000  0.00000000  0.50000000  1
  Fe  Fe1  1  0.50000000  0.50000000  0.00000000  1
  Fe  Fe2  1  0.50000000  0.50000000  0.50000000  1
  Fe  Fe3  1  0.00000000  0.00000000  0.00000000  1
  P  P0  1  0.28390000  0.79148900  0.60830400  1
  P  P1  1  0.21610000  0.70851100  0.10830400  1
  P  P2  1  0.78390000  0.70851100  0.39169600  1
  P  P3  1  0.71610000  0.79148900  0.89169600  1
  P  P4  1  0.71610000  0.20851100  0.39169600  1
  P  P5  1  0.78390000  0.29148900  0.89169600  1
  P  P6  1  0.21610000  0.29148900  0.60830400  1
  P  P7  1  0.28390000  0.20851100  0.10830400  1
  O  O0  1  0.33172600  0.79651800  0.76801300  1
  O  O1  1  0.16827400  0.70348200  0.26801300  1
  O  O2  1  0.83172600  0.70348200  0.23198700  1
  O  O3  1  0.66827400  0.79651800  0.73198700  1
  O  O4  1  0.66827400  0.20348200  0.23198700  1
  O  O5  1  0.83172600  0.29651800  0.73198700  1
  O  O6  1  0.16827400  0.29651800  0.76801300  1
  O  O7  1  0.33172600  0.20348200  0.26801300  1
  O  O8  1  0.41423700  0.88842400  0.52610100  1
  O  O9  1  0.08576300  0.61157600  0.02610100  1
  O  O10  1  0.91423700  0.61157600  0.47389900  1
  O  O11  1  0.58576300  0.88842400  0.97389900  1
  O  O12  1  0.58576300  0.11157600  0.47389900  1
  O  O13  1  0.91423700  0.38842400  0.97389900  1
  O  O14  1  0.08576300  0.38842400  0.52610100  1
  O  O15  1  0.41423700  0.11157600  0.02610100  1
  O  O16  1  0.29572500  0.64014300  0.55409800  1
  O  O17  1  0.20427500  0.85985700  0.05409800  1
  O  O18  1  0.79572500  0.85985700  0.44590200  1
  O  O19  1  0.70427500  0.64014300  0.94590200  1
  O  O20  1  0.70427500  0.35985700  0.44590200  1
  O  O21  1  0.79572500  0.14014300  0.94590200  1
  O  O22  1  0.20427500  0.14014300  0.55409800  1
  O  O23  1  0.29572500  0.35985700  0.05409800  1
  O  O24  1  0.10249900  0.84393400  0.58800400  1
  O  O25  1  0.39750100  0.65606600  0.08800400  1
  O  O26  1  0.60249900  0.65606600  0.41199600  1
  O  O27  1  0.89750100  0.84393400  0.91199600  1
  O  O28  1  0.89750100  0.15606600  0.41199600  1
  O  O29  1  0.60249900  0.34393400  0.91199600  1
  O  O30  1  0.39750100  0.34393400  0.58800400  1
  O  O31  1  0.10249900  0.15606600  0.08800400  1
  O  O32  1  0.50000000  0.04560400  0.75000000  1
  O  O33  1  0.00000000  0.45439600  0.25000000  1
  O  O34  1  0.50000000  0.95439600  0.25000000  1
  O  O35  1  0.00000000  0.54560400  0.75000000  1
  O  O36  1  0.15491500  0.02489500  0.84645200  1
  O  O37  1  0.34508500  0.47510500  0.34645200  1
  O  O38  1  0.65491500  0.47510500  0.15354800  1
  O  O39  1  0.84508500  0.02489500  0.65354800  1
  O  O40  1  0.84508500  0.97510500  0.15354800  1
  O  O41  1  0.65491500  0.52489500  0.65354800  1
  O  O42  1  0.34508500  0.52489500  0.84645200  1
  O  O43  1  0.15491500  0.97510500  0.34645200  1
loop_
_geom_bond_atom_site_label_1
_geom_bond_atom_site_label_2
_geom_bond_distance
_geom_bond_site_symmetry_2
Mn0 O39 1.796712 1_565
Mn0 O32 1.861010 1_565
Mn0 O3 1.906458 1_555
Mn0 O12 2.053076 1_565
Mn0 O8 2.060385 1_555
Mn0 O18 2.241762 1_555
Mn1 O38 1.796712 1_555
Mn1 O33 1.861010 1_655
Mn1 O2 1.906458 1_555
Mn1 O13 2.053076 1_554
Mn1 O9 2.060385 1_655
Mn1 O19 2.241762 1_554
Mn2 O37 1.796712 1_555
Mn2 O33 1.861010 1_555
Mn2 O1 1.906458 1_555
Mn2 O14 2.053076 1_555
Mn2 O10 2.060385 1_455
Mn2 O16 2.241762 1_555
Mn3 O36 1.796712 1_565
Mn3 O32 1.861010 1_565
Mn3 O0 1.906458 1_555
Mn3 O15 2.053076 1_566
Mn3 O11 2.060385 1_555
Mn3 O17 2.241762 1_556
Mn4 O43 1.796712 1_545
Mn4 O34 1.861010 1_545
Mn4 O7 1.906458 1_555
Mn4 O8 2.053076 1_545
Mn4 O12 2.060385 1_555
Mn4 O22 2.241762 1_555
Mn5 O42 1.796712 1_555
Mn5 O35 1.861010 1_555
Mn5 O6 1.906458 1_555
Mn5 O9 2.053076 1_556
Mn5 O13 2.060385 1_455
Mn5 O23 2.241762 1_556
Mn6 O41 1.796712 1_555
Mn6 O35 1.861010 1_655
Mn6 O5 1.906458 1_555
Mn6 O10 2.053076 1_555
Mn6 O14 2.060385 1_655
Mn6 O20 2.241762 1_555
Mn7 O40 1.796712 1_545
Mn7 O34 1.861010 1_545
Mn7 O4 1.906458 1_555
Mn7 O11 2.053076 1_544
Mn7 O15 2.060385 1_555
Mn7 O21 2.241762 1_554
Fe0 O28 1.901424 1_455
Fe0 O24 1.901424 1_545
Fe0 O43 1.904331 1_545
Fe0 O39 1.904331 1_455
Fe0 O22 2.163574 1_555
Fe0 O18 2.163574 1_445
Fe1 O29 1.901424 1_554
Fe1 O25 1.901424 1_555
Fe1 O38 1.904331 1_555
Fe1 O42 1.904331 1_554
Fe1 O23 2.163574 1_555
Fe1 O19 2.163574 1_554
Fe2 O30 1.901424 1_555
Fe2 O26 1.901424 1_555
Fe2 O37 1.904331 1_555
Fe2 O41 1.904331 1_555
Fe2 O20 2.163574 1_555
Fe2 O16 2.163574 1_555
Fe3 O31 1.901424 1_555
Fe3 O27 1.901424 1_444
Fe3 O40 1.904331 1_445
Fe3 O36 1.904331 1_554
Fe3 O21 2.163574 1_454
Fe3 O17 2.163574 1_545
O0 P0 1.548281 1_555
O1 P1 1.548281 1_555
O2 P2 1.548281 1_555
O3 P3 1.548281 1_555
O4 P4 1.548281 1_555
O5 P5 1.548281 1_555
O6 P6 1.548281 1_555
O7 P7 1.548281 1_555
O8 P0 1.590135 1_555
O9 P1 1.590135 1_555
O10 P2 1.590135 1_555
O11 P3 1.590135 1_555
O12 P4 1.590135 1_555
O13 P5 1.590135 1_555
O14 P6 1.590135 1_555
O15 P7 1.590135 1_555
O16 P0 1.553445 1_555
O17 P1 1.553445 1_555
O18 P2 1.553445 1_555
O19 P3 1.553445 1_555
O20 P4 1.553445 1_555
O21 P5 1.553445 1_555
O22 P6 1.553445 1_555
O23 P7 1.553445 1_555
O24 P0 1.526814 1_555
O25 P1 1.526814 1_555
O26 P2 1.526814 1_555
O27 P3 1.526814 1_555
O28 P4 1.526814 1_555
O29 P5 1.526814 1_555
O30 P6 1.526814 1_555
O31 P7 1.526814 1_555
