# generated using pymatgen
data_Pr4PClO8
_symmetry_space_group_name_H-M   'P 1'
_cell_length_a   5.88660000
_cell_length_b   5.92699300
_cell_length_c   13.17544800
_cell_angle_alpha   90.00000000
_cell_angle_beta   90.00000000
_cell_angle_gamma   90.00000000
_symmetry_Int_Tables_number   1
_chemical_formula_structural   Pr4PClO8
_chemical_formula_sum   'Pr8 P2 Cl2 O16'
_cell_volume   459.68923304
_cell_formula_units_Z   2
loop_
 _symmetry_equiv_pos_site_id
 _symmetry_equiv_pos_as_xyz
  1  'x, y, z'
loop_
 _atom_site_type_symbol
 _atom_site_label
 _atom_site_symmetry_multiplicity
 _atom_site_fract_x
 _atom_site_fract_y
 _atom_site_fract_z
 _atom_site_occupancy
  Pr  Pr0  1  0.56250200  0.98259800  0.66170300  1
  Pr  Pr1  1  0.56250200  0.98259800  0.33829700  1
  Pr  Pr2  1  0.06250200  0.01740200  0.83829700  1
  Pr  Pr3  1  0.06250200  0.01740200  0.16170300  1
  Pr  Pr4  1  0.53332400  0.48636200  0.83199200  1
  Pr  Pr5  1  0.53332400  0.48636200  0.16800800  1
  Pr  Pr6  1  0.03332400  0.51363800  0.66800800  1
  Pr  Pr7  1  0.03332400  0.51363800  0.33199200  1
  P  P0  1  0.50585700  0.45951100  0.50000000  1
  P  P1  1  0.00585700  0.54048900  0.00000000  1
  Cl  Cl0  1  0.49297000  0.05622900  0.00000000  1
  Cl  Cl1  1  0.99297000  0.94377100  0.50000000  1
  O  O0  1  0.79403900  0.24292500  0.74972400  1
  O  O1  1  0.79403900  0.24292500  0.25027600  1
  O  O2  1  0.29403900  0.75707500  0.75027600  1
  O  O3  1  0.29403900  0.75707500  0.24972400  1
  O  O4  1  0.80009600  0.75785300  0.76855800  1
  O  O5  1  0.80009600  0.75785300  0.23144200  1
  O  O6  1  0.30009600  0.24214700  0.73144200  1
  O  O7  1  0.30009600  0.24214700  0.26855800  1
  O  O8  1  0.54504300  0.19862800  0.50000000  1
  O  O9  1  0.04504300  0.80137200  0.00000000  1
  O  O10  1  0.61562300  0.56704800  0.40490100  1
  O  O11  1  0.61562300  0.56704800  0.59509900  1
  O  O12  1  0.11562300  0.43295200  0.09509900  1
  O  O13  1  0.11562300  0.43295200  0.90490100  1
  O  O14  1  0.24336200  0.49965500  0.50000000  1
  O  O15  1  0.74336200  0.50034500  0.00000000  1
loop_
_geom_bond_atom_site_label_1
_geom_bond_atom_site_label_2
_geom_bond_distance
_geom_bond_site_symmetry_2
Cl0 Pr3 3.318607 1_555
Cl0 Pr2 3.318607 1_554
Cl0 Pr5 3.384640 1_555
Cl0 Pr4 3.384640 1_554
Cl1 Pr0 3.318607 1_555
Cl1 Pr1 3.318607 1_555
Cl1 Pr6 3.384640 1_655
Cl1 Pr7 3.384640 1_655
O0 Pr0 2.362907 1_545
O0 Pr4 2.368981 1_555
O0 Pr2 2.376134 1_655
O0 Pr6 2.391174 1_655
O1 Pr1 2.362907 1_545
O1 Pr5 2.368981 1_555
O1 Pr3 2.376134 1_655
O1 Pr7 2.391174 1_655
O2 Pr2 2.362907 1_565
O2 Pr6 2.368981 1_555
O2 Pr0 2.376134 1_555
O2 Pr4 2.391174 1_555
O3 Pr3 2.362907 1_565
O3 Pr7 2.368981 1_555
O3 Pr1 2.376134 1_555
O3 Pr5 2.391174 1_555
O4 Pr2 2.365758 1_665
O4 Pr0 2.390106 1_555
O4 Pr6 2.394812 1_655
O4 Pr4 2.398727 1_555
O5 Pr3 2.365758 1_665
O5 Pr1 2.390106 1_555
O5 Pr7 2.394812 1_655
O5 Pr5 2.398727 1_555
O6 Pr0 2.365758 1_545
O6 Pr2 2.390106 1_555
O6 Pr4 2.394812 1_555
O6 Pr6 2.398727 1_555
O7 Pr1 2.365758 1_545
O7 Pr3 2.390106 1_555
O7 Pr5 2.394812 1_555
O7 Pr7 2.398727 1_555
O8 P0 1.563363 1_555
O8 Pr0 2.487786 1_545
O8 Pr1 2.487786 1_545
O9 P1 1.563363 1_555
O9 Pr3 2.487786 1_565
O9 Pr2 2.487786 1_564
O10 P0 1.547155 1_555
O10 Pr1 2.633256 1_555
O10 Pr7 2.658734 1_655
O11 P0 1.547155 1_555
O11 Pr0 2.633256 1_555
O11 Pr6 2.658734 1_655
O12 P1 1.547155 1_555
O12 Pr3 2.633256 1_555
O12 Pr5 2.658734 1_555
O13 P1 1.547155 1_556
O13 Pr2 2.633256 1_555
O13 Pr4 2.658734 1_555
O14 P0 1.563414 1_555
O14 Pr6 2.536832 1_555
O14 Pr7 2.536832 1_555
O15 P1 1.563414 1_655
O15 Pr5 2.536832 1_555
O15 Pr4 2.536832 1_554
