# generated using pymatgen
data_SrMg14ZnO16
_symmetry_space_group_name_H-M   'P 1'
_cell_length_a   8.69497341
_cell_length_b   8.61288869
_cell_length_c   4.40321688
_cell_angle_alpha   90.00000000
_cell_angle_beta   90.00000000
_cell_angle_gamma   90.00000000
_symmetry_Int_Tables_number   1
_chemical_formula_structural   SrMg14ZnO16
_chemical_formula_sum   'Sr1 Mg14 Zn1 O16'
_cell_volume   329.75179623
_cell_formula_units_Z   1
loop_
 _symmetry_equiv_pos_site_id
 _symmetry_equiv_pos_as_xyz
  1  'x, y, z'
loop_
 _atom_site_type_symbol
 _atom_site_label
 _atom_site_symmetry_multiplicity
 _atom_site_fract_x
 _atom_site_fract_y
 _atom_site_fract_z
 _atom_site_occupancy
  Sr  Sr0  1  -0.00000000  0.50000000  -0.00000000  1
  Mg  Mg0  1  0.50000000  0.00000000  -0.00000000  1
  Mg  Mg1  1  0.50000000  0.50000000  -0.00000000  1
  Mg  Mg2  1  -0.00000000  0.24010165  0.50000000  1
  Mg  Mg3  1  -0.00000000  0.75989835  0.50000000  1
  Mg  Mg4  1  0.50000000  0.24850234  0.50000000  1
  Mg  Mg5  1  0.50000000  0.75149766  0.50000000  1
  Mg  Mg6  1  0.25088911  -0.00000000  0.50000000  1
  Mg  Mg7  1  0.25943013  0.50000000  0.50000000  1
  Mg  Mg8  1  0.74911089  0.00000000  0.50000000  1
  Mg  Mg9  1  0.74056987  0.50000000  0.50000000  1
  Mg  Mg10  1  0.25658329  0.24387342  -0.00000000  1
  Mg  Mg11  1  0.25658329  0.75612658  0.00000000  1
  Mg  Mg12  1  0.74341671  0.24387342  -0.00000000  1
  Mg  Mg13  1  0.74341671  0.75612658  0.00000000  1
  Zn  Zn0  1  -0.00000000  0.00000000  -0.00000000  1
  O  O0  1  0.26091726  0.00000000  -0.00000000  1
  O  O1  1  0.27119172  0.50000000  -0.00000000  1
  O  O2  1  0.73908274  0.00000000  0.00000000  1
  O  O3  1  0.72880828  0.50000000  -0.00000000  1
  O  O4  1  0.24962978  0.24957282  0.50000000  1
  O  O5  1  0.24962978  0.75042718  0.50000000  1
  O  O6  1  0.75037022  0.24957282  0.50000000  1
  O  O7  1  0.75037022  0.75042718  0.50000000  1
  O  O8  1  -0.00000000  0.00000000  0.50000000  1
  O  O9  1  -0.00000000  0.50000000  0.50000000  1
  O  O10  1  0.50000000  0.00000000  0.50000000  1
  O  O11  1  0.50000000  0.50000000  0.50000000  1
  O  O12  1  -0.00000000  0.22915411  -0.00000000  1
  O  O13  1  -0.00000000  0.77084589  0.00000000  1
  O  O14  1  0.50000000  0.24660152  -0.00000000  1
  O  O15  1  0.50000000  0.75339848  0.00000000  1
loop_
_geom_bond_atom_site_label_1
_geom_bond_atom_site_label_2
_geom_bond_distance
_geom_bond_site_symmetry_2
Mg0 O2 2.078818 1_555
Mg0 O0 2.078818 1_555
Mg0 O14 2.123951 1_555
Mg0 O15 2.123951 1_545
Mg0 O10 2.201608 1_555
Mg0 O10 2.201608 1_554
Mg1 O3 1.989482 1_555
Mg1 O1 1.989482 1_555
Mg1 O14 2.182493 1_555
Mg1 O15 2.182493 1_555
Mg1 O11 2.201608 1_554
Mg1 O11 2.201608 1_555
Mg2 O8 2.067969 1_555
Mg2 O4 2.172057 1_555
Mg2 O6 2.172057 1_455
Mg2 O12 2.203627 1_556
Mg2 O12 2.203627 1_555
Mg2 O9 2.238476 1_555
Mg3 O8 2.067969 1_565
Mg3 O5 2.172057 1_555
Mg3 O7 2.172057 1_455
Mg3 O13 2.203627 1_555
Mg3 O13 2.203627 1_556
Mg3 O9 2.238476 1_555
Mg4 O10 2.140323 1_555
Mg4 O11 2.166121 1_555
Mg4 O6 2.176982 1_555
Mg4 O4 2.176982 1_555
Mg4 O14 2.201669 1_556
Mg4 O14 2.201669 1_555
Mg5 O10 2.140323 1_565
Mg5 O11 2.166121 1_555
Mg5 O5 2.176982 1_555
Mg5 O7 2.176982 1_555
Mg5 O15 2.201669 1_556
Mg5 O15 2.201669 1_555
Mg6 O4 2.149571 1_555
Mg6 O5 2.149571 1_545
Mg6 O10 2.166013 1_555
Mg6 O8 2.181474 1_555
Mg6 O0 2.203334 1_555
Mg6 O0 2.203334 1_556
Mg7 O11 2.091749 1_555
Mg7 O4 2.158584 1_555
Mg7 O5 2.158584 1_555
Mg7 O1 2.203982 1_556
Mg7 O1 2.203982 1_555
Mg7 O9 2.255738 1_555
Mg8 O6 2.149571 1_555
Mg8 O7 2.149571 1_545
Mg8 O10 2.166013 1_555
Mg8 O8 2.181474 1_655
Mg8 O2 2.203334 1_555
Mg8 O2 2.203334 1_556
Mg9 O11 2.091749 1_555
Mg9 O6 2.158584 1_555
Mg9 O7 2.158584 1_555
Mg9 O3 2.203982 1_556
Mg9 O3 2.203982 1_555
Mg9 O9 2.255738 1_655
Mg10 O0 2.100793 1_555
Mg10 O14 2.116632 1_555
Mg10 O4 2.202985 1_554
Mg10 O4 2.202985 1_555
Mg10 O1 2.209644 1_555
Mg10 O12 2.234584 1_555
Mg11 O0 2.100793 1_565
Mg11 O15 2.116632 1_555
Mg11 O5 2.202985 1_555
Mg11 O5 2.202985 1_554
Mg11 O1 2.209644 1_555
Mg11 O13 2.234584 1_555
Mg12 O2 2.100793 1_555
Mg12 O14 2.116632 1_555
Mg12 O6 2.202985 1_555
Mg12 O6 2.202985 1_554
Mg12 O3 2.209644 1_555
Mg12 O12 2.234584 1_655
Mg13 O2 2.100793 1_565
Mg13 O15 2.116632 1_555
Mg13 O7 2.202985 1_555
Mg13 O7 2.202985 1_554
Mg13 O3 2.209644 1_555
Mg13 O13 2.234584 1_655
O0 Zn0 2.268669 1_555
O1 Sr0 2.358005 1_555
O2 Zn0 2.268669 1_655
O3 Sr0 2.358005 1_655
O8 Zn0 2.201608 1_556
O8 Zn0 2.201608 1_555
O9 Sr0 2.201608 1_555
O9 Sr0 2.201608 1_556
O12 Zn0 1.973679 1_555
O12 Sr0 2.332766 1_555
O13 Zn0 1.973679 1_565
O13 Sr0 2.332766 1_555
