# generated using pymatgen
data_Sc2Co3N4
_symmetry_space_group_name_H-M   'P 1'
_cell_length_a   5.61077798
_cell_length_b   7.90449233
_cell_length_c   5.92240481
_cell_angle_alpha   89.99999984
_cell_angle_beta   83.78895055
_cell_angle_gamma   134.78129705
_symmetry_Int_Tables_number   1
_chemical_formula_structural   Sc2Co3N4
_chemical_formula_sum   'Sc4 Co6 N8'
_cell_volume   184.25828226
_cell_formula_units_Z   2
loop_
 _symmetry_equiv_pos_site_id
 _symmetry_equiv_pos_as_xyz
  1  'x, y, z'
loop_
 _atom_site_type_symbol
 _atom_site_label
 _atom_site_symmetry_multiplicity
 _atom_site_fract_x
 _atom_site_fract_y
 _atom_site_fract_z
 _atom_site_occupancy
  Sc  Sc0  1  0.68261600  0.22659000  0.64467400  1
  Sc  Sc1  1  0.31738400  0.54397400  0.85532600  1
  Sc  Sc2  1  0.31738400  0.77341000  0.35532600  1
  Sc  Sc3  1  0.68261600  0.45602600  0.14467400  1
  Co  Co0  1  0.23773600  0.99983400  0.05249600  1
  Co  Co1  1  0.76226400  0.76209800  0.44750400  1
  Co  Co2  1  0.76226400  0.00016600  0.94750400  1
  Co  Co3  1  0.23773600  0.23790200  0.55249600  1
  Co  Co4  1  0.00000000  0.74769300  0.75000000  1
  Co  Co5  1  0.00000000  0.25230700  0.25000000  1
  N  N0  1  0.21850900  0.98926300  0.49399500  1
  N  N1  1  0.78149100  0.77075300  0.00600500  1
  N  N2  1  0.78149100  0.01073700  0.50600500  1
  N  N3  1  0.21850900  0.22924700  0.99399500  1
  N  N4  1  0.75653800  0.23585900  0.01201300  1
  N  N5  1  0.24346200  0.47932000  0.48798700  1
  N  N6  1  0.24346200  0.76414100  0.98798700  1
  N  N7  1  0.75653800  0.52068000  0.51201300  1
loop_
_geom_bond_atom_site_label_1
_geom_bond_atom_site_label_2
_geom_bond_distance
_geom_bond_site_symmetry_2
Co0 N1 1.878806 1_455
Co0 N6 1.923422 1_554
Co0 N3 1.924515 1_564
Co0 N4 2.051725 1_565
Co0 N0 2.604175 1_555
Co1 N0 1.878806 1_655
Co1 N7 1.923415 1_555
Co1 N2 1.924507 1_565
Co1 N5 2.051725 1_555
Co1 N1 2.604175 1_555
Co2 N3 1.878806 1_655
Co2 N4 1.923422 1_556
Co2 N1 1.924515 1_546
Co2 N6 2.051725 1_545
Co2 N2 2.604175 1_555
Co3 N2 1.878806 1_455
Co3 N5 1.923415 1_555
Co3 N0 1.924507 1_545
Co3 N7 2.051725 1_555
Co3 N3 2.604175 1_555
Co4 N1 1.935894 1_456
Co4 N0 1.935898 1_555
Co4 N7 2.008941 1_455
Co4 N6 2.008945 1_555
Co5 N3 1.935894 1_554
Co5 N2 1.935898 1_455
Co5 N5 2.008941 1_555
Co5 N4 2.008945 1_455
N0 Sc0 2.171911 1_565
N0 Sc2 2.264572 1_555
N1 Sc1 2.171911 1_554
N1 Sc3 2.264564 1_555
N2 Sc2 2.171911 1_545
N2 Sc0 2.264572 1_555
N3 Sc3 2.171911 1_556
N3 Sc1 2.264564 1_555
N4 Sc3 2.182741 1_555
N4 Sc0 2.250058 1_554
N4 Sc1 2.294796 1_654
N5 Sc2 2.182748 1_555
N5 Sc1 2.250059 1_555
N5 Sc0 2.294797 1_455
N6 Sc1 2.182741 1_555
N6 Sc2 2.250058 1_556
N6 Sc3 2.294796 1_456
N7 Sc0 2.182748 1_555
N7 Sc3 2.250059 1_555
N7 Sc2 2.294797 1_655
