# generated using pymatgen
data_CaLa2MnO6
_symmetry_space_group_name_H-M   'P 1'
_cell_length_a   5.85449589
_cell_length_b   11.34297882
_cell_length_c   8.15102519
_cell_angle_alpha   92.62242035
_cell_angle_beta   89.99955541
_cell_angle_gamma   90.00285764
_symmetry_Int_Tables_number   1
_chemical_formula_structural   CaLa2MnO6
_chemical_formula_sum   'Ca4 La8 Mn4 O24'
_cell_volume   540.72170767
_cell_formula_units_Z   4
loop_
 _symmetry_equiv_pos_site_id
 _symmetry_equiv_pos_as_xyz
  1  'x, y, z'
loop_
 _atom_site_type_symbol
 _atom_site_label
 _atom_site_symmetry_multiplicity
 _atom_site_fract_x
 _atom_site_fract_y
 _atom_site_fract_z
 _atom_site_occupancy
  Ca  Ca0  1  0.99999200  0.49999400  0.50002400  1
  Ca  Ca1  1  0.50000400  0.75000300  0.99997900  1
  Ca  Ca2  1  0.99999600  0.00000500  0.50002300  1
  Ca  Ca3  1  0.50000200  0.24999900  0.99997700  1
  La  La0  1  0.00000900  0.76048300  0.76048400  1
  La  La1  1  0.50000200  0.01051100  0.26048600  1
  La  La2  1  0.00000900  0.26047500  0.76048500  1
  La  La3  1  0.49999700  0.51049600  0.26048300  1
  La  La4  1  0.99999600  0.23949100  0.23951200  1
  La  La5  1  0.49999600  0.48951800  0.73951800  1
  La  La6  1  0.99999600  0.73950000  0.23951300  1
  La  La7  1  0.49999400  0.98952600  0.73951800  1
  Mn  Mn0  1  0.99999100  0.49998200  0.99999100  1
  Mn  Mn1  1  0.50001100  0.75001700  0.50000900  1
  Mn  Mn2  1  0.99998900  0.99997800  0.99998700  1
  Mn  Mn3  1  0.50001000  0.25002300  0.50001200  1
  O  O0  1  0.67306700  0.39236300  0.46182200  1
  O  O1  1  0.17306700  0.64236500  0.96178200  1
  O  O2  1  0.67307100  0.89236500  0.46182200  1
  O  O3  1  0.17306700  0.14236400  0.96178500  1
  O  O4  1  0.09401800  0.50885500  0.22892300  1
  O  O5  1  0.59401400  0.75880900  0.72891700  1
  O  O6  1  0.09401800  0.00885400  0.22892700  1
  O  O7  1  0.59401800  0.25880900  0.72891700  1
  O  O8  1  0.23284300  0.34535800  0.55576200  1
  O  O9  1  0.73287800  0.59537600  0.05582600  1
  O  O10  1  0.23284500  0.84536200  0.55576100  1
  O  O11  1  0.73287400  0.09537300  0.05582400  1
  O  O12  1  0.32693700  0.60763400  0.53821500  1
  O  O13  1  0.82693100  0.85763700  0.03817800  1
  O  O14  1  0.32693200  0.10763600  0.53821800  1
  O  O15  1  0.82692800  0.35763500  0.03817700  1
  O  O16  1  0.76712300  0.65462400  0.44417400  1
  O  O17  1  0.26715800  0.90464300  0.94423700  1
  O  O18  1  0.76712500  0.15462700  0.44417400  1
  O  O19  1  0.26715700  0.40463800  0.94423800  1
  O  O20  1  0.90598800  0.49119000  0.77108400  1
  O  O21  1  0.40598300  0.74114500  0.27107700  1
  O  O22  1  0.90598200  0.99119000  0.77108300  1
  O  O23  1  0.40598000  0.24114600  0.27107400  1
loop_
_geom_bond_atom_site_label_1
_geom_bond_atom_site_label_2
_geom_bond_distance
_geom_bond_site_symmetry_2
Ca0 O20 2.283537 1_555
Ca0 O8 2.283548 1_655
Ca0 O16 2.283772 1_555
Ca0 O0 2.283805 1_555
Ca0 O12 2.283947 1_655
Ca0 O4 2.283949 1_655
Ca1 O5 2.283564 1_555
Ca1 O17 2.283574 1_555
Ca1 O9 2.283758 1_556
Ca1 O13 2.283830 1_556
Ca1 O1 2.283901 1_555
Ca1 O21 2.283916 1_556
Ca2 O22 2.283562 1_545
Ca2 O10 2.283603 1_645
Ca2 O18 2.283707 1_555
Ca2 O14 2.283852 1_655
Ca2 O2 2.283858 1_545
Ca2 O6 2.283892 1_655
Ca3 O19 2.283556 1_555
Ca3 O7 2.283560 1_555
Ca3 O11 2.283742 1_556
Ca3 O15 2.283838 1_556
Ca3 O3 2.283868 1_555
Ca3 O23 2.283904 1_556
La0 O1 2.390628 1_555
La0 O5 2.390765 1_455
La0 O10 2.390922 1_555
La0 O13 2.671403 1_456
La0 O22 2.671729 1_455
La0 O17 2.671901 1_555
La0 O12 3.108778 1_555
La0 O16 3.108815 1_455
La0 O20 3.108846 1_455
La1 O11 2.390602 1_555
La1 O6 2.390694 1_555
La1 O2 2.391064 1_545
La1 O23 2.670926 1_555
La1 O18 2.671237 1_555
La1 O14 2.671519 1_555
La1 O17 3.108339 1_544
La1 O13 3.109109 1_545
La1 O21 3.109654 1_545
La2 O3 2.390592 1_555
La2 O7 2.390743 1_455
La2 O8 2.390935 1_555
La2 O15 2.671421 1_456
La2 O20 2.671811 1_455
La2 O19 2.671917 1_555
La2 O14 3.108690 1_555
La2 O22 3.108762 1_445
La2 O18 3.108773 1_455
La3 O4 2.390665 1_555
La3 O9 2.390692 1_555
La3 O0 2.390996 1_555
La3 O21 2.671071 1_555
La3 O16 2.671340 1_555
La3 O12 2.671552 1_555
La3 O19 3.108263 1_554
La3 O15 3.109029 1_555
La3 O23 3.109473 1_555
La4 O18 2.390609 1_555
La4 O23 2.390696 1_655
La4 O15 2.391042 1_555
La4 O6 2.670948 1_655
La4 O11 2.671247 1_555
La4 O3 2.671496 1_654
La4 O8 3.108350 1_655
La4 O0 3.109106 1_555
La4 O4 3.109633 1_655
La5 O12 2.390646 1_555
La5 O20 2.390747 1_555
La5 O19 2.390919 1_555
La5 O0 2.671405 1_555
La5 O7 2.671745 1_555
La5 O8 2.671927 1_555
La5 O1 3.108746 1_555
La5 O9 3.108788 1_556
La5 O5 3.108822 1_555
La6 O16 2.390669 1_555
La6 O21 2.390715 1_655
La6 O13 2.390987 1_555
La6 O4 2.671036 1_655
La6 O9 2.671268 1_555
La6 O1 2.671557 1_654
La6 O10 3.108322 1_655
La6 O2 3.109045 1_555
La6 O6 3.109520 1_665
La7 O14 2.390596 1_565
La7 O22 2.390722 1_555
La7 O17 2.390918 1_555
La7 O2 2.671444 1_555
La7 O5 2.671832 1_555
La7 O10 2.671945 1_555
La7 O3 3.108699 1_565
La7 O11 3.108726 1_566
La7 O7 3.108738 1_565
Mn0 O15 1.943277 1_556
Mn0 O20 1.943479 1_555
Mn0 O19 1.943654 1_655
Mn0 O1 1.943696 1_655
Mn0 O4 1.943721 1_656
Mn0 O9 1.943853 1_556
Mn1 O2 1.943279 1_555
Mn1 O5 1.943487 1_555
Mn1 O10 1.943659 1_555
Mn1 O12 1.943685 1_555
Mn1 O21 1.943723 1_555
Mn1 O16 1.943843 1_555
Mn2 O13 1.943213 1_556
Mn2 O22 1.943462 1_555
Mn2 O17 1.943608 1_655
Mn2 O3 1.943720 1_665
Mn2 O6 1.943787 1_666
Mn2 O11 1.943872 1_566
Mn3 O0 1.943199 1_555
Mn3 O7 1.943472 1_555
Mn3 O8 1.943598 1_555
Mn3 O14 1.943736 1_555
Mn3 O23 1.943774 1_555
Mn3 O18 1.943880 1_555
