# generated using pymatgen
data_MgVFe(P2O7)2
_symmetry_space_group_name_H-M   'P 1'
_cell_length_a   4.91924369
_cell_length_b   8.36706117
_cell_length_c   6.94373941
_cell_angle_alpha   89.69491095
_cell_angle_beta   108.90184322
_cell_angle_gamma   89.18613032
_symmetry_Int_Tables_number   1
_chemical_formula_structural   MgVFe(P2O7)2
_chemical_formula_sum   'Mg1 V1 Fe1 P4 O14'
_cell_volume   270.34759277
_cell_formula_units_Z   1
loop_
 _symmetry_equiv_pos_site_id
 _symmetry_equiv_pos_as_xyz
  1  'x, y, z'
loop_
 _atom_site_type_symbol
 _atom_site_label
 _atom_site_symmetry_multiplicity
 _atom_site_fract_x
 _atom_site_fract_y
 _atom_site_fract_z
 _atom_site_occupancy
  Mg  Mg0  1  0.18605500  0.87776300  0.70721600  1
  V  V0  1  0.20441000  0.49593100  0.73186100  1
  Fe  Fe0  1  0.76632200  0.01858400  0.26548600  1
  P  P0  1  0.37822600  0.18979800  0.51979300  1
  P  P1  1  0.21387400  0.78898500  0.09527000  1
  P  P2  1  0.78461200  0.28487900  0.91486800  1
  P  P3  1  0.60597700  0.69025200  0.49451600  1
  O  O0  1  0.05469200  0.32278200  0.86267500  1
  O  O1  1  0.11102100  0.69616500  0.89474100  1
  O  O2  1  0.15394500  0.05695300  0.51063600  1
  O  O3  1  0.25530100  0.35700300  0.50958500  1
  O  O4  1  0.39163800  0.69604000  0.61655100  1
  O  O5  1  0.59586100  0.43229100  0.91013700  1
  O  O6  1  0.60397300  0.15623200  0.74567900  1
  O  O7  1  0.42139900  0.66787200  0.25827100  1
  O  O8  1  0.39283900  0.92704300  0.04755900  1
  O  O9  1  0.53304900  0.16135700  0.36651600  1
  O  O10  1  0.75907400  0.85269400  0.50986000  1
  O  O11  1  0.80887200  0.54826200  0.54340800  1
  O  O12  1  0.85973000  0.18538100  0.10963100  1
  O  O13  1  0.97473900  0.84363600  0.17262900  1
loop_
_geom_bond_atom_site_label_1
_geom_bond_atom_site_label_2
_geom_bond_distance
_geom_bond_site_symmetry_2
Mg0 O2 1.991944 1_565
Mg0 O4 2.027310 1_555
Mg0 O1 2.108728 1_555
Mg0 O10 2.117644 1_455
Mg0 O8 2.292270 1_556
Fe0 O12 1.911635 1_555
Fe0 O9 1.930687 1_555
Fe0 O13 2.001326 1_545
Fe0 O8 2.122041 1_545
Fe0 O2 2.134688 1_655
Fe0 O10 2.196073 1_545
O0 P2 1.523082 1_455
O0 V0 1.978918 1_555
O1 P1 1.537601 1_556
O1 V0 2.152213 1_555
O2 P0 1.564263 1_555
O3 P0 1.508332 1_555
O3 V0 2.014258 1_555
O4 P3 1.552413 1_555
O4 V0 2.190902 1_555
O5 P2 1.527015 1_555
O5 V0 1.985815 1_555
O6 P0 1.621789 1_555
O6 P2 1.640943 1_555
O7 P1 1.599970 1_555
O7 P3 1.610455 1_555
O8 P1 1.559788 1_555
O9 P0 1.513994 1_555
O10 P3 1.550645 1_555
O11 P3 1.505111 1_555
O11 V0 2.002514 1_655
O12 P2 1.521199 1_554
O13 P1 1.509372 1_655
