# generated using pymatgen
data_Mg149Zr
_symmetry_space_group_name_H-M   'P 1'
_cell_length_a   15.91981210
_cell_length_b   15.91981888
_cell_length_c   15.59844037
_cell_angle_alpha   90.00000000
_cell_angle_beta   90.00000000
_cell_angle_gamma   120.00000962
_symmetry_Int_Tables_number   1
_chemical_formula_structural   Mg149Zr
_chemical_formula_sum   'Mg149 Zr1'
_cell_volume   3423.63790909
_cell_formula_units_Z   1
loop_
 _symmetry_equiv_pos_site_id
 _symmetry_equiv_pos_as_xyz
  1  'x, y, z'
loop_
 _atom_site_type_symbol
 _atom_site_label
 _atom_site_symmetry_multiplicity
 _atom_site_fract_x
 _atom_site_fract_y
 _atom_site_fract_z
 _atom_site_occupancy
  Mg  Mg0  1  0.60140500  0.00014375  -0.00000000  1
  Mg  Mg1  1  0.39873974  0.00014475  -0.00000000  1
  Mg  Mg2  1  0.19729764  0.19882558  -0.00000000  1
  Mg  Mg3  1  0.00152893  0.19882558  -0.00000000  1
  Mg  Mg4  1  0.59978966  0.19958033  -0.00000000  1
  Mg  Mg5  1  0.79963619  0.20036381  -0.00000000  1
  Mg  Mg6  1  0.40072762  0.20036381  -0.00000000  1
  Mg  Mg7  1  0.99985525  0.39859500  -0.00000000  1
  Mg  Mg8  1  0.39873974  0.39859500  -0.00000000  1
  Mg  Mg9  1  0.59978966  0.40020934  -0.00000000  1
  Mg  Mg10  1  0.80041967  0.40020934  -0.00000000  1
  Mg  Mg11  1  0.20055960  0.40111919  -0.00000000  1
  Mg  Mg12  1  0.79963619  0.59927238  -0.00000000  1
  Mg  Mg13  1  0.19998744  0.59999372  -0.00000000  1
  Mg  Mg14  1  0.40000628  0.59999372  -0.00000000  1
  Mg  Mg15  1  0.60140500  0.60126126  -0.00000000  1
  Mg  Mg16  1  0.99985525  0.60126126  -0.00000000  1
  Mg  Mg17  1  0.59888181  0.79944040  -0.00000000  1
  Mg  Mg18  1  0.20055960  0.79944040  -0.00000000  1
  Mg  Mg19  1  0.40000628  0.80001256  -0.00000000  1
  Mg  Mg20  1  0.00152893  0.80270336  -0.00000000  1
  Mg  Mg21  1  0.80117442  0.80270336  -0.00000000  1
  Mg  Mg22  1  0.19729764  0.99847107  -0.00000000  1
  Mg  Mg23  1  0.80117442  0.99847107  -0.00000000  1
  Mg  Mg24  1  0.06605886  0.13211871  0.16465624  1
  Mg  Mg25  1  0.06605886  0.93394014  0.16465624  1
  Mg  Mg26  1  0.86788129  0.93394014  0.16465624  1
  Mg  Mg27  1  0.26532488  0.13266244  0.16523936  1
  Mg  Mg28  1  0.86733756  0.13266244  0.16523936  1
  Mg  Mg29  1  0.86733756  0.73467512  0.16523936  1
  Mg  Mg30  1  0.66666700  0.33333300  0.16620722  1
  Mg  Mg31  1  0.46587664  0.13307827  0.16662423  1
  Mg  Mg32  1  0.66720163  0.13307827  0.16662423  1
  Mg  Mg33  1  0.86692173  0.33279837  0.16662423  1
  Mg  Mg34  1  0.46587664  0.33279837  0.16662423  1
  Mg  Mg35  1  0.86692173  0.53412336  0.16662423  1
  Mg  Mg36  1  0.66720163  0.53412336  0.16662423  1
  Mg  Mg37  1  0.06667582  0.53333791  0.16674174  1
  Mg  Mg38  1  0.46666209  0.53333791  0.16674174  1
  Mg  Mg39  1  0.46666209  0.93332418  0.16674174  1
  Mg  Mg40  1  0.26677516  0.33439277  0.16703514  1
  Mg  Mg41  1  0.06761761  0.33439277  0.16703514  1
  Mg  Mg42  1  0.06761761  0.73322484  0.16703514  1
  Mg  Mg43  1  0.66560723  0.73322484  0.16703514  1
  Mg  Mg44  1  0.66560723  0.93238239  0.16703514  1
  Mg  Mg45  1  0.26677516  0.93238339  0.16703514  1
  Mg  Mg46  1  0.26694253  0.53388506  0.16708051  1
  Mg  Mg47  1  0.46611494  0.73305747  0.16708051  1
  Mg  Mg48  1  0.26694253  0.73305747  0.16708051  1
  Mg  Mg49  1  0.80005914  0.99982312  0.33224487  1
  Mg  Mg50  1  0.19976399  0.99982412  0.33224487  1
  Mg  Mg51  1  0.19976399  0.19994086  0.33224487  1
  Mg  Mg52  1  0.00017688  0.19994086  0.33224487  1
  Mg  Mg53  1  0.00017688  0.80023601  0.33224487  1
  Mg  Mg54  1  0.80005914  0.80023601  0.33224487  1
  Mg  Mg55  1  0.59996926  0.19993953  0.33301390  1
  Mg  Mg56  1  0.59996926  0.40002974  0.33301390  1
  Mg  Mg57  1  0.80006147  0.40003074  0.33301390  1
  Mg  Mg58  1  0.80006713  0.19993287  0.33318854  1
  Mg  Mg59  1  0.39986574  0.19993287  0.33318854  1
  Mg  Mg60  1  0.80006713  0.60013426  0.33318854  1
  Mg  Mg61  1  0.40003242  0.00009271  0.33332173  1
  Mg  Mg62  1  0.60006029  0.00009271  0.33332173  1
  Mg  Mg63  1  0.99990729  0.39993871  0.33332173  1
  Mg  Mg64  1  0.40003242  0.39993971  0.33332173  1
  Mg  Mg65  1  0.60006029  0.59996758  0.33332173  1
  Mg  Mg66  1  0.99990729  0.59996858  0.33332173  1
  Mg  Mg67  1  0.19990133  0.59995067  0.33374359  1
  Mg  Mg68  1  0.40004933  0.59995067  0.33374359  1
  Mg  Mg69  1  0.40004933  0.80009867  0.33374359  1
  Mg  Mg70  1  0.20025799  0.40051598  0.33395631  1
  Mg  Mg71  1  0.59948502  0.79974201  0.33395631  1
  Mg  Mg72  1  0.20025799  0.79974201  0.33395631  1
  Mg  Mg73  1  -0.00000000  0.00000000  0.33421719  1
  Mg  Mg74  1  0.26648720  0.13324410  0.50000000  1
  Mg  Mg75  1  0.86675590  0.13324410  0.50000000  1
  Mg  Mg76  1  0.06674344  0.13348689  0.50000000  1
  Mg  Mg77  1  0.46699312  0.13419971  0.50000000  1
  Mg  Mg78  1  0.66720659  0.13419971  0.50000000  1
  Mg  Mg79  1  0.46699312  0.33279341  0.50000000  1
  Mg  Mg80  1  0.86580029  0.33279341  0.50000000  1
  Mg  Mg81  1  0.06651473  0.33308606  0.50000000  1
  Mg  Mg82  1  0.26657133  0.33308606  0.50000000  1
  Mg  Mg83  1  0.66666700  0.33333300  0.50000000  1
  Mg  Mg84  1  0.86580029  0.53300688  0.50000000  1
  Mg  Mg85  1  0.66720659  0.53300688  0.50000000  1
  Mg  Mg86  1  0.06577562  0.53288781  0.50000000  1
  Mg  Mg87  1  0.46711219  0.53288781  0.50000000  1
  Mg  Mg88  1  0.26653875  0.53307850  0.50000000  1
  Mg  Mg89  1  0.66691494  0.73342867  0.50000000  1
  Mg  Mg90  1  0.06651473  0.73342867  0.50000000  1
  Mg  Mg91  1  0.46692150  0.73346025  0.50000000  1
  Mg  Mg92  1  0.26653875  0.73346125  0.50000000  1
  Mg  Mg93  1  0.86675590  0.73351280  0.50000000  1
  Mg  Mg94  1  0.86651211  0.93325556  0.50000000  1
  Mg  Mg95  1  0.06674344  0.93325656  0.50000000  1
  Mg  Mg96  1  0.26657133  0.93348527  0.50000000  1
  Mg  Mg97  1  0.66691494  0.93348627  0.50000000  1
  Mg  Mg98  1  0.46711219  0.93422438  0.50000000  1
  Mg  Mg99  1  -0.00000000  0.00000000  0.66578281  1
  Mg  Mg100  1  0.20025799  0.40051598  0.66604369  1
  Mg  Mg101  1  0.59948502  0.79974201  0.66604369  1
  Mg  Mg102  1  0.20025799  0.79974201  0.66604369  1
  Mg  Mg103  1  0.19990133  0.59995067  0.66625641  1
  Mg  Mg104  1  0.40004933  0.59995067  0.66625641  1
  Mg  Mg105  1  0.40004933  0.80009867  0.66625641  1
  Mg  Mg106  1  0.40003242  0.00009271  0.66667827  1
  Mg  Mg107  1  0.60006029  0.00009271  0.66667827  1
  Mg  Mg108  1  0.99990729  0.39993871  0.66667827  1
  Mg  Mg109  1  0.40003242  0.39993971  0.66667827  1
  Mg  Mg110  1  0.60006029  0.59996758  0.66667827  1
  Mg  Mg111  1  0.99990729  0.59996858  0.66667827  1
  Mg  Mg112  1  0.80006713  0.19993287  0.66681146  1
  Mg  Mg113  1  0.39986574  0.19993287  0.66681146  1
  Mg  Mg114  1  0.80006713  0.60013426  0.66681146  1
  Mg  Mg115  1  0.59996926  0.19993953  0.66698610  1
  Mg  Mg116  1  0.59996926  0.40002974  0.66698610  1
  Mg  Mg117  1  0.80006147  0.40003074  0.66698610  1
  Mg  Mg118  1  0.80005914  0.99982312  0.66775513  1
  Mg  Mg119  1  0.19976399  0.99982412  0.66775513  1
  Mg  Mg120  1  0.19976399  0.19994086  0.66775513  1
  Mg  Mg121  1  0.00017688  0.19994086  0.66775513  1
  Mg  Mg122  1  0.00017688  0.80023601  0.66775513  1
  Mg  Mg123  1  0.80005914  0.80023601  0.66775513  1
  Mg  Mg124  1  0.26694253  0.53388506  0.83291949  1
  Mg  Mg125  1  0.46611494  0.73305747  0.83291949  1
  Mg  Mg126  1  0.26694253  0.73305747  0.83291949  1
  Mg  Mg127  1  0.26677516  0.33439277  0.83296386  1
  Mg  Mg128  1  0.06761761  0.33439277  0.83296386  1
  Mg  Mg129  1  0.06761761  0.73322484  0.83296386  1
  Mg  Mg130  1  0.66560723  0.73322484  0.83296386  1
  Mg  Mg131  1  0.66560723  0.93238239  0.83296386  1
  Mg  Mg132  1  0.26677516  0.93238339  0.83296386  1
  Mg  Mg133  1  0.06667582  0.53333791  0.83325826  1
  Mg  Mg134  1  0.46666209  0.53333791  0.83325826  1
  Mg  Mg135  1  0.46666209  0.93332418  0.83325826  1
  Mg  Mg136  1  0.46587664  0.13307827  0.83337577  1
  Mg  Mg137  1  0.66720163  0.13307827  0.83337577  1
  Mg  Mg138  1  0.86692173  0.33279837  0.83337577  1
  Mg  Mg139  1  0.46587664  0.33279837  0.83337577  1
  Mg  Mg140  1  0.86692173  0.53412336  0.83337577  1
  Mg  Mg141  1  0.66720163  0.53412336  0.83337577  1
  Mg  Mg142  1  0.66666700  0.33333300  0.83379278  1
  Mg  Mg143  1  0.26532488  0.13266244  0.83476064  1
  Mg  Mg144  1  0.86733756  0.13266244  0.83476064  1
  Mg  Mg145  1  0.86733756  0.73467512  0.83476064  1
  Mg  Mg146  1  0.06605886  0.13211871  0.83534376  1
  Mg  Mg147  1  0.06605886  0.93394014  0.83534376  1
  Mg  Mg148  1  0.86788129  0.93394014  0.83534376  1
  Zr  Zr0  1  -0.00000000  0.00000000  -0.00000000  1
loop_
_geom_bond_atom_site_label_1
_geom_bond_atom_site_label_2
_geom_bond_distance
_geom_bond_site_symmetry_2
Mg0 Mg5 3.171753 1_555
Mg0 Mg17 3.175267 1_545
Mg0 Mg44 3.177972 1_545
Mg0 Mg131 3.177984 1_544
Mg0 Mg32 3.180306 1_555
Mg0 Mg137 3.180306 1_554
Mg0 Mg4 3.187930 1_555
Mg0 Mg23 3.193689 1_545
Mg0 Mg19 3.196188 1_545
Mg0 Mg135 3.196224 1_544
Mg0 Mg39 3.196224 1_545
Mg0 Mg1 3.226401 1_555
Mg1 Mg6 3.171746 1_555
Mg1 Mg18 3.175274 1_545
Mg1 Mg45 3.177979 1_545
Mg1 Mg132 3.177992 1_544
Mg1 Mg31 3.180298 1_555
Mg1 Mg136 3.180298 1_554
Mg1 Mg4 3.187905 1_555
Mg1 Mg22 3.193681 1_545
Mg1 Mg19 3.196197 1_545
Mg1 Mg135 3.196224 1_544
Mg1 Mg39 3.196224 1_545
Mg2 Mg3 3.116601 1_555
Mg2 Mg24 3.141775 1_555
Mg2 Zr0 3.153174 1_555
Mg2 Mg27 3.172758 1_555
Mg2 Mg22 3.189608 1_545
Mg2 Mg8 3.193689 1_555
Mg2 Mg40 3.206662 1_555
Mg2 Mg6 3.226393 1_555
Mg3 Zr0 3.153168 1_555
Mg3 Mg7 3.193699 1_455
Mg3 Mg41 3.206662 1_555
Mg3 Mg5 3.226408 1_455
Mg4 Mg6 3.175285 1_555
Mg4 Mg5 3.175301 1_555
Mg4 Mg9 3.193978 1_555
Mg5 Mg7 3.171745 1_555
Mg6 Mg8 3.171746 1_555
Mg6 Mg9 3.175285 1_555
Mg8 Mg9 3.187905 1_555
Mg10 Mg5 3.175287 1_555
Mg10 Mg12 3.175302 1_555
Mg10 Mg30 3.181498 1_555
Mg10 Mg142 3.181498 1_554
Mg10 Mg7 3.187905 1_555
Mg10 Mg16 3.187921 1_555
Mg10 Mg33 3.188089 1_555
Mg10 Mg138 3.188089 1_554
Mg10 Mg35 3.188097 1_555
Mg10 Mg140 3.188097 1_554
Mg10 Mg4 3.193984 1_555
Mg10 Mg9 3.193992 1_555
Mg11 Mg14 3.170609 1_555
Mg11 Mg13 3.170611 1_555
Mg11 Mg8 3.175274 1_555
Mg11 Mg7 3.175274 1_455
Mg11 Mg46 3.184770 1_555
Mg11 Mg124 3.184770 1_554
Mg11 Mg41 3.185589 1_555
Mg11 Mg40 3.185590 1_555
Mg11 Mg128 3.185602 1_554
Mg11 Mg127 3.185603 1_554
Mg11 Mg3 3.194821 1_555
Mg11 Mg2 3.194829 1_555
Mg12 Mg16 3.171737 1_555
Mg12 Mg15 3.171753 1_555
Mg12 Mg9 3.175301 1_555
Mg12 Mg36 3.176365 1_555
Mg12 Mg141 3.176365 1_554
Mg12 Mg35 3.176366 1_555
Mg12 Mg140 3.176366 1_554
Mg12 Mg145 3.182499 1_554
Mg12 Mg29 3.182499 1_555
Mg12 Mg20 3.226409 1_655
Mg12 Mg21 3.226410 1_555
Mg13 Mg18 3.170610 1_555
Mg13 Mg14 3.184262 1_555
Mg13 Mg19 3.184263 1_555
Mg13 Mg133 3.184783 1_554
Mg13 Mg37 3.184783 1_555
Mg13 Mg46 3.187139 1_555
Mg13 Mg48 3.187139 1_555
Mg13 Mg7 3.196196 1_455
Mg13 Mg16 3.196204 1_455
Mg14 Mg17 3.170617 1_555
Mg14 Mg19 3.184264 1_555
Mg14 Mg38 3.184783 1_555
Mg14 Mg46 3.187139 1_555
Mg14 Mg47 3.187139 1_555
Mg14 Mg15 3.196188 1_555
Mg14 Mg8 3.196197 1_555
Mg15 Mg17 3.175251 1_555
Mg15 Mg43 3.177971 1_555
Mg15 Mg36 3.180306 1_555
Mg15 Mg9 3.187930 1_555
Mg15 Mg21 3.193689 1_555
Mg15 Mg38 3.196224 1_555
Mg15 Mg8 3.226401 1_555
Mg16 Mg18 3.175266 1_655
Mg16 Mg42 3.177972 1_655
Mg16 Mg35 3.180297 1_555
Mg16 Mg20 3.193683 1_655
Mg16 Mg37 3.196232 1_655
Mg16 Mg7 3.226410 1_555
Mg17 Mg19 3.170625 1_555
Mg17 Mg47 3.184777 1_555
Mg17 Mg43 3.185582 1_555
Mg17 Mg44 3.185590 1_555
Mg17 Mg21 3.194804 1_555
Mg17 Mg23 3.194812 1_555
Mg18 Mg19 3.170609 1_555
Mg18 Mg48 3.184770 1_555
Mg18 Mg42 3.185589 1_555
Mg18 Mg45 3.185598 1_555
Mg18 Mg22 3.194814 1_555
Mg18 Mg20 3.194820 1_555
Mg19 Mg39 3.184783 1_555
Mg19 Mg48 3.187139 1_555
Mg19 Mg47 3.187139 1_555
Mg20 Mg22 3.116593 1_555
Mg20 Mg25 3.141759 1_555
Mg20 Zr0 3.153167 1_565
Mg20 Mg29 3.172766 1_455
Mg20 Mg21 3.189606 1_455
Mg20 Mg42 3.206662 1_555
Mg21 Mg23 3.116586 1_555
Mg21 Mg26 3.141759 1_555
Mg21 Zr0 3.153166 1_665
Mg21 Mg29 3.172766 1_555
Mg21 Mg43 3.206661 1_555
Mg22 Mg25 3.141775 1_555
Mg22 Zr0 3.153182 1_565
Mg22 Mg27 3.172766 1_565
Mg22 Mg45 3.206646 1_555
Mg22 Mg6 3.226401 1_565
Mg23 Mg26 3.141767 1_555
Mg23 Zr0 3.153166 1_665
Mg23 Mg28 3.172766 1_565
Mg23 Mg3 3.189606 1_665
Mg23 Mg44 3.206661 1_555
Mg23 Mg5 3.226410 1_565
Mg24 Mg3 3.141759 1_555
Mg24 Zr0 3.148730 1_555
Mg24 Mg26 3.154958 1_445
Mg24 Mg25 3.154967 1_545
Mg24 Mg28 3.167956 1_455
Mg24 Mg27 3.167971 1_555
Mg24 Mg52 3.198734 1_555
Mg24 Mg51 3.198741 1_555
Mg24 Mg41 3.208045 1_555
Mg24 Mg40 3.208052 1_555
Mg24 Mg73 3.211440 1_555
Mg25 Zr0 3.148730 1_565
Mg25 Mg26 3.154950 1_455
Mg25 Mg29 3.167956 1_455
Mg25 Mg27 3.167972 1_565
Mg25 Mg53 3.198734 1_555
Mg25 Mg50 3.198741 1_555
Mg25 Mg45 3.208044 1_555
Mg25 Mg42 3.208045 1_555
Mg25 Mg73 3.211440 1_565
Mg26 Zr0 3.148729 1_665
Mg26 Mg29 3.167957 1_555
Mg26 Mg28 3.167973 1_565
Mg26 Mg54 3.198734 1_555
Mg26 Mg49 3.198742 1_555
Mg26 Mg43 3.208044 1_555
Mg26 Mg44 3.208052 1_555
Mg26 Mg73 3.211439 1_665
Mg27 Mg6 3.182499 1_555
Mg27 Mg50 3.184416 1_545
Mg27 Mg51 3.184424 1_555
Mg27 Mg31 3.189515 1_555
Mg27 Mg34 3.189515 1_555
Mg27 Mg45 3.200135 1_545
Mg27 Mg40 3.200151 1_555
Mg27 Mg59 3.209946 1_555
Mg28 Mg3 3.172766 1_655
Mg28 Mg5 3.182499 1_555
Mg28 Mg52 3.184424 1_655
Mg28 Mg49 3.184424 1_545
Mg28 Mg32 3.189515 1_555
Mg28 Mg33 3.189516 1_555
Mg28 Mg44 3.200150 1_545
Mg28 Mg41 3.200150 1_655
Mg28 Mg58 3.209947 1_555
Mg29 Mg53 3.184424 1_655
Mg29 Mg54 3.184424 1_555
Mg29 Mg36 3.189515 1_555
Mg29 Mg35 3.189516 1_555
Mg29 Mg43 3.200150 1_555
Mg29 Mg42 3.200150 1_655
Mg29 Mg60 3.209947 1_555
Mg30 Mg4 3.181499 1_555
Mg30 Mg9 3.181507 1_555
Mg30 Mg55 3.186262 1_555
Mg30 Mg57 3.186269 1_555
Mg30 Mg56 3.186270 1_555
Mg30 Mg33 3.192288 1_555
Mg30 Mg32 3.192290 1_555
Mg30 Mg31 3.192297 1_555
Mg30 Mg35 3.192297 1_555
Mg30 Mg34 3.192304 1_555
Mg30 Mg36 3.192306 1_555
Mg31 Mg6 3.176366 1_555
Mg31 Mg59 3.178983 1_555
Mg31 Mg34 3.179508 1_555
Mg31 Mg61 3.181644 1_555
Mg31 Mg45 3.182424 1_545
Mg31 Mg39 3.186320 1_545
Mg31 Mg55 3.186536 1_555
Mg31 Mg4 3.188089 1_555
Mg31 Mg32 3.205056 1_555
Mg32 Mg5 3.176365 1_555
Mg32 Mg58 3.178982 1_555
Mg32 Mg33 3.179507 1_555
Mg32 Mg62 3.181644 1_555
Mg32 Mg44 3.182433 1_545
Mg32 Mg39 3.186319 1_545
Mg32 Mg55 3.186544 1_555
Mg32 Mg4 3.188097 1_555
Mg33 Mg5 3.176366 1_555
Mg33 Mg58 3.178983 1_555
Mg33 Mg7 3.180297 1_555
Mg33 Mg63 3.181644 1_555
Mg33 Mg41 3.182432 1_655
Mg33 Mg37 3.186319 1_655
Mg33 Mg57 3.186536 1_555
Mg33 Mg35 3.205057 1_555
Mg34 Mg6 3.176366 1_555
Mg34 Mg59 3.178983 1_555
Mg34 Mg8 3.180298 1_555
Mg34 Mg64 3.181644 1_555
Mg34 Mg40 3.182432 1_555
Mg34 Mg38 3.186320 1_555
Mg34 Mg56 3.186536 1_555
Mg34 Mg9 3.188089 1_555
Mg34 Mg36 3.205056 1_555
Mg35 Mg60 3.178983 1_555
Mg35 Mg36 3.179506 1_555
Mg35 Mg66 3.181644 1_555
Mg35 Mg42 3.182432 1_655
Mg35 Mg37 3.186319 1_655
Mg35 Mg57 3.186536 1_555
Mg36 Mg60 3.178982 1_555
Mg36 Mg65 3.181644 1_555
Mg36 Mg43 3.182433 1_555
Mg36 Mg38 3.186319 1_555
Mg36 Mg56 3.186544 1_555
Mg36 Mg9 3.188097 1_555
Mg37 Mg41 3.174697 1_555
Mg37 Mg42 3.174697 1_555
Mg37 Mg66 3.183421 1_455
Mg37 Mg63 3.183421 1_455
Mg37 Mg46 3.183866 1_555
Mg37 Mg48 3.183867 1_555
Mg37 Mg67 3.187413 1_555
Mg37 Mg7 3.196224 1_455
Mg38 Mg40 3.174696 1_555
Mg38 Mg43 3.174696 1_555
Mg38 Mg65 3.183413 1_555
Mg38 Mg64 3.183413 1_555
Mg38 Mg46 3.183866 1_555
Mg38 Mg47 3.183868 1_555
Mg38 Mg68 3.187414 1_555
Mg38 Mg8 3.196224 1_555
Mg39 Mg44 3.174696 1_555
Mg39 Mg45 3.174704 1_555
Mg39 Mg62 3.183413 1_565
Mg39 Mg61 3.183413 1_565
Mg39 Mg48 3.183867 1_555
Mg39 Mg47 3.183868 1_555
Mg39 Mg69 3.187414 1_555
Mg40 Mg41 3.170551 1_555
Mg40 Mg51 3.174454 1_555
Mg40 Mg46 3.174550 1_555
Mg40 Mg8 3.177979 1_555
Mg40 Mg64 3.178601 1_555
Mg40 Mg70 3.181743 1_555
Mg41 Mg52 3.174454 1_555
Mg41 Mg46 3.174549 1_555
Mg41 Mg7 3.177979 1_455
Mg41 Mg63 3.178593 1_455
Mg41 Mg70 3.181743 1_555
Mg42 Mg45 3.170559 1_555
Mg42 Mg53 3.174454 1_555
Mg42 Mg48 3.174548 1_555
Mg42 Mg66 3.178594 1_455
Mg42 Mg72 3.181743 1_555
Mg43 Mg44 3.170552 1_555
Mg43 Mg54 3.174453 1_555
Mg43 Mg47 3.174548 1_555
Mg43 Mg65 3.178601 1_555
Mg43 Mg71 3.181735 1_555
Mg44 Mg49 3.174453 1_555
Mg44 Mg47 3.174549 1_555
Mg44 Mg62 3.178601 1_565
Mg44 Mg71 3.181743 1_555
Mg45 Mg50 3.174454 1_555
Mg45 Mg48 3.174566 1_555
Mg45 Mg61 3.178601 1_565
Mg45 Mg72 3.181751 1_555
Mg46 Mg47 3.170788 1_555
Mg46 Mg48 3.170789 1_555
Mg46 Mg68 3.182161 1_555
Mg46 Mg67 3.182162 1_555
Mg46 Mg70 3.186948 1_555
Mg47 Mg48 3.170787 1_555
Mg47 Mg68 3.182162 1_555
Mg47 Mg69 3.182162 1_555
Mg47 Mg71 3.186956 1_555
Mg48 Mg69 3.182161 1_555
Mg48 Mg67 3.182162 1_555
Mg48 Mg72 3.186948 1_555
Mg49 Mg54 3.177391 1_555
Mg49 Mg73 3.181763 1_665
Mg49 Mg58 3.185681 1_565
Mg49 Mg52 3.185837 1_665
Mg49 Mg62 3.186136 1_565
Mg49 Mg71 3.189297 1_555
Mg49 Mg94 3.195401 1_555
Mg49 Mg97 3.196381 1_555
Mg49 Mg75 3.198573 1_565
Mg50 Mg53 3.177397 1_555
Mg50 Mg73 3.181755 1_565
Mg50 Mg59 3.185672 1_565
Mg50 Mg51 3.185822 1_565
Mg50 Mg61 3.186144 1_565
Mg50 Mg72 3.189322 1_555
Mg50 Mg95 3.195401 1_555
Mg50 Mg96 3.196398 1_555
Mg50 Mg74 3.198565 1_565
Mg51 Mg52 3.177389 1_555
Mg51 Mg73 3.181763 1_555
Mg51 Mg59 3.185680 1_555
Mg51 Mg64 3.186137 1_555
Mg51 Mg70 3.189306 1_555
Mg51 Mg76 3.195401 1_555
Mg51 Mg82 3.196390 1_555
Mg51 Mg74 3.198565 1_555
Mg52 Mg73 3.181764 1_555
Mg52 Mg58 3.185680 1_455
Mg52 Mg63 3.186122 1_455
Mg52 Mg70 3.189305 1_555
Mg52 Mg76 3.195401 1_555
Mg52 Mg81 3.196390 1_555
Mg52 Mg75 3.198572 1_455
Mg53 Mg73 3.181764 1_565
Mg53 Mg60 3.185680 1_455
Mg53 Mg54 3.185837 1_455
Mg53 Mg66 3.186122 1_455
Mg53 Mg72 3.189305 1_555
Mg53 Mg95 3.195401 1_555
Mg53 Mg90 3.196390 1_555
Mg53 Mg93 3.198572 1_455
Mg54 Mg73 3.181763 1_665
Mg54 Mg60 3.185681 1_555
Mg54 Mg65 3.186137 1_555
Mg54 Mg71 3.189289 1_555
Mg54 Mg94 3.195393 1_555
Mg54 Mg89 3.196381 1_555
Mg54 Mg93 3.198565 1_555
Mg55 Mg61 3.182244 1_555
Mg55 Mg62 3.182254 1_555
Mg55 Mg77 3.185254 1_555
Mg55 Mg78 3.185263 1_555
Mg55 Mg56 3.185400 1_555
Mg55 Mg57 3.185423 1_555
Mg55 Mg59 3.185559 1_555
Mg55 Mg58 3.185575 1_555
Mg55 Mg83 3.188548 1_555
Mg56 Mg64 3.182244 1_555
Mg56 Mg65 3.182253 1_555
Mg56 Mg79 3.185254 1_555
Mg56 Mg85 3.185263 1_555
Mg56 Mg57 3.185422 1_555
Mg56 Mg59 3.185559 1_555
Mg56 Mg60 3.185575 1_555
Mg56 Mg83 3.188556 1_555
Mg57 Mg63 3.182244 1_555
Mg57 Mg66 3.182244 1_555
Mg57 Mg84 3.185255 1_555
Mg57 Mg80 3.185255 1_555
Mg57 Mg60 3.185568 1_555
Mg57 Mg58 3.185568 1_555
Mg57 Mg83 3.188555 1_555
Mg58 Mg78 3.182107 1_555
Mg58 Mg80 3.182107 1_555
Mg58 Mg63 3.182738 1_555
Mg58 Mg62 3.182746 1_555
Mg58 Mg75 3.186196 1_555
Mg59 Mg77 3.182107 1_555
Mg59 Mg79 3.182107 1_555
Mg59 Mg61 3.182747 1_555
Mg59 Mg64 3.182747 1_555
Mg59 Mg74 3.186204 1_555
Mg60 Mg85 3.182107 1_555
Mg60 Mg84 3.182107 1_555
Mg60 Mg66 3.182738 1_555
Mg60 Mg65 3.182746 1_555
Mg60 Mg93 3.186204 1_555
Mg61 Mg98 3.181099 1_545
Mg61 Mg69 3.184010 1_545
Mg61 Mg62 3.184406 1_555
Mg61 Mg72 3.184984 1_545
Mg61 Mg96 3.185165 1_545
Mg61 Mg77 3.190318 1_555
Mg62 Mg98 3.181099 1_545
Mg62 Mg69 3.184009 1_545
Mg62 Mg71 3.184993 1_545
Mg62 Mg97 3.185166 1_545
Mg62 Mg78 3.190318 1_555
Mg63 Mg86 3.181107 1_655
Mg63 Mg67 3.184017 1_655
Mg63 Mg66 3.184439 1_555
Mg63 Mg70 3.184976 1_655
Mg63 Mg81 3.185158 1_655
Mg63 Mg80 3.190318 1_555
Mg64 Mg87 3.181099 1_555
Mg64 Mg68 3.184010 1_555
Mg64 Mg65 3.184406 1_555
Mg64 Mg70 3.184984 1_555
Mg64 Mg82 3.185165 1_555
Mg64 Mg79 3.190318 1_555
Mg65 Mg87 3.181099 1_555
Mg65 Mg68 3.184009 1_555
Mg65 Mg71 3.184977 1_555
Mg65 Mg89 3.185166 1_555
Mg65 Mg85 3.190318 1_555
Mg66 Mg86 3.181107 1_655
Mg66 Mg67 3.184017 1_655
Mg66 Mg72 3.184976 1_655
Mg66 Mg90 3.185158 1_655
Mg66 Mg84 3.190318 1_555
Mg67 Mg72 3.177809 1_555
Mg67 Mg70 3.177809 1_555
Mg67 Mg88 3.180183 1_555
Mg67 Mg92 3.180191 1_555
Mg67 Mg86 3.185107 1_555
Mg67 Mg68 3.186319 1_555
Mg67 Mg69 3.186319 1_555
Mg68 Mg70 3.177807 1_555
Mg68 Mg71 3.177815 1_555
Mg68 Mg91 3.180183 1_555
Mg68 Mg88 3.180191 1_555
Mg68 Mg87 3.185107 1_555
Mg68 Mg69 3.186320 1_555
Mg69 Mg72 3.177807 1_555
Mg69 Mg71 3.177823 1_555
Mg69 Mg92 3.180191 1_555
Mg69 Mg91 3.180191 1_555
Mg69 Mg98 3.185107 1_555
Mg70 Mg88 3.169932 1_555
Mg70 Mg81 3.179357 1_555
Mg70 Mg82 3.179357 1_555
Mg71 Mg91 3.169939 1_555
Mg71 Mg89 3.179357 1_555
Mg71 Mg97 3.179365 1_555
Mg72 Mg92 3.169924 1_555
Mg72 Mg90 3.179357 1_555
Mg72 Mg96 3.179358 1_555
Mg73 Mg95 3.173980 1_545
Mg73 Mg76 3.173980 1_555
Mg73 Mg94 3.173988 1_445
Mg74 Mg82 3.180778 1_555
Mg74 Mg96 3.180794 1_545
Mg74 Mg76 3.181817 1_555
Mg74 Mg95 3.181826 1_545
Mg74 Mg79 3.184430 1_555
Mg74 Mg77 3.184437 1_555
Mg75 Mg97 3.180769 1_545
Mg75 Mg81 3.180785 1_655
Mg75 Mg76 3.181833 1_655
Mg75 Mg94 3.181843 1_545
Mg75 Mg78 3.184421 1_555
Mg75 Mg80 3.184423 1_555
Mg76 Mg99 3.173980 1_555
Mg76 Mg82 3.179404 1_555
Mg76 Mg81 3.179405 1_555
Mg76 Mg95 3.187631 1_545
Mg76 Mg94 3.187645 1_445
Mg77 Mg79 3.161576 1_555
Mg77 Mg83 3.174477 1_555
Mg77 Mg98 3.184519 1_545
Mg77 Mg78 3.187361 1_555
Mg77 Mg96 3.193009 1_545
Mg78 Mg80 3.161575 1_555
Mg78 Mg83 3.174470 1_555
Mg78 Mg98 3.184518 1_545
Mg78 Mg97 3.193003 1_545
Mg79 Mg83 3.174484 1_555
Mg79 Mg87 3.184519 1_555
Mg79 Mg85 3.187361 1_555
Mg79 Mg82 3.193009 1_555
Mg80 Mg83 3.174468 1_555
Mg80 Mg86 3.184518 1_655
Mg80 Mg84 3.187362 1_555
Mg80 Mg81 3.193009 1_655
Mg81 Mg88 3.184094 1_555
Mg81 Mg82 3.184863 1_555
Mg81 Mg86 3.186707 1_555
Mg82 Mg88 3.184103 1_555
Mg82 Mg87 3.186706 1_555
Mg83 Mg84 3.174477 1_555
Mg83 Mg85 3.174486 1_555
Mg84 Mg85 3.161574 1_555
Mg84 Mg93 3.184439 1_555
Mg84 Mg86 3.184518 1_655
Mg84 Mg90 3.193009 1_655
Mg85 Mg93 3.184430 1_555
Mg85 Mg87 3.184518 1_555
Mg85 Mg89 3.193003 1_555
Mg86 Mg90 3.186707 1_555
Mg86 Mg88 3.194595 1_555
Mg86 Mg92 3.194603 1_555
Mg87 Mg89 3.186714 1_555
Mg87 Mg91 3.194596 1_555
Mg87 Mg88 3.194610 1_555
Mg88 Mg91 3.190048 1_555
Mg88 Mg92 3.190057 1_555
Mg89 Mg94 3.179380 1_555
Mg89 Mg93 3.180761 1_555
Mg89 Mg91 3.184109 1_555
Mg89 Mg97 3.184881 1_555
Mg90 Mg95 3.179405 1_555
Mg90 Mg93 3.180793 1_455
Mg90 Mg92 3.184086 1_555
Mg90 Mg96 3.184864 1_555
Mg91 Mg97 3.184118 1_555
Mg91 Mg92 3.190064 1_555
Mg91 Mg98 3.194612 1_555
Mg92 Mg96 3.184087 1_555
Mg92 Mg98 3.194603 1_555
Mg93 Mg94 3.181811 1_555
Mg93 Mg95 3.181826 1_655
Mg94 Mg99 3.173988 1_665
Mg94 Mg97 3.179387 1_555
Mg94 Mg95 3.187637 1_655
Mg95 Mg99 3.173980 1_565
Mg95 Mg96 3.179404 1_555
Mg96 Mg98 3.186706 1_555
Mg97 Mg98 3.186714 1_555
Mg100 Mg88 3.169932 1_555
Mg100 Mg104 3.177807 1_555
Mg100 Mg103 3.177809 1_555
Mg100 Mg81 3.179357 1_555
Mg100 Mg82 3.179357 1_555
Mg100 Mg128 3.181730 1_555
Mg100 Mg127 3.181730 1_555
Mg100 Mg108 3.184976 1_455
Mg100 Mg109 3.184984 1_555
Mg100 Mg124 3.186948 1_555
Mg100 Mg121 3.189305 1_555
Mg100 Mg120 3.189306 1_555
Mg101 Mg91 3.169939 1_555
Mg101 Mg104 3.177815 1_555
Mg101 Mg105 3.177823 1_555
Mg101 Mg89 3.179357 1_555
Mg101 Mg97 3.179365 1_555
Mg101 Mg130 3.181722 1_555
Mg101 Mg131 3.181730 1_555
Mg101 Mg110 3.184977 1_555
Mg101 Mg107 3.184993 1_565
Mg101 Mg125 3.186956 1_555
Mg101 Mg123 3.189289 1_555
Mg101 Mg118 3.189297 1_555
Mg102 Mg92 3.169924 1_555
Mg102 Mg105 3.177807 1_555
Mg102 Mg103 3.177809 1_555
Mg102 Mg90 3.179357 1_555
Mg102 Mg96 3.179358 1_555
Mg102 Mg129 3.181730 1_555
Mg102 Mg132 3.181738 1_555
Mg102 Mg111 3.184976 1_455
Mg102 Mg106 3.184984 1_565
Mg102 Mg126 3.186948 1_555
Mg102 Mg122 3.189305 1_555
Mg102 Mg119 3.189322 1_555
Mg103 Mg88 3.180183 1_555
Mg103 Mg92 3.180191 1_555
Mg103 Mg126 3.182162 1_555
Mg103 Mg124 3.182162 1_555
Mg103 Mg111 3.184017 1_455
Mg103 Mg108 3.184017 1_455
Mg103 Mg86 3.185107 1_555
Mg103 Mg104 3.186319 1_555
Mg103 Mg105 3.186319 1_555
Mg103 Mg133 3.187413 1_555
Mg104 Mg91 3.180183 1_555
Mg104 Mg88 3.180191 1_555
Mg104 Mg124 3.182161 1_555
Mg104 Mg125 3.182162 1_555
Mg104 Mg110 3.184009 1_555
Mg104 Mg109 3.184010 1_555
Mg104 Mg87 3.185107 1_555
Mg104 Mg105 3.186320 1_555
Mg104 Mg134 3.187414 1_555
Mg105 Mg92 3.180191 1_555
Mg105 Mg91 3.180191 1_555
Mg105 Mg126 3.182161 1_555
Mg105 Mg125 3.182162 1_555
Mg105 Mg107 3.184009 1_565
Mg105 Mg106 3.184010 1_565
Mg105 Mg98 3.185107 1_555
Mg105 Mg135 3.187414 1_555
Mg106 Mg132 3.178588 1_545
Mg106 Mg98 3.181099 1_545
Mg106 Mg136 3.181644 1_555
Mg106 Mg115 3.182244 1_555
Mg106 Mg113 3.182747 1_555
Mg106 Mg135 3.183413 1_545
Mg106 Mg107 3.184406 1_555
Mg106 Mg96 3.185165 1_545
Mg106 Mg119 3.186144 1_545
Mg106 Mg77 3.190318 1_555
Mg107 Mg131 3.178589 1_545
Mg107 Mg98 3.181099 1_545
Mg107 Mg137 3.181644 1_555
Mg107 Mg115 3.182254 1_555
Mg107 Mg112 3.182746 1_555
Mg107 Mg135 3.183413 1_545
Mg107 Mg97 3.185166 1_545
Mg107 Mg118 3.186136 1_545
Mg107 Mg78 3.190318 1_555
Mg108 Mg128 3.178581 1_655
Mg108 Mg86 3.181107 1_655
Mg108 Mg138 3.181644 1_555
Mg108 Mg117 3.182244 1_555
Mg108 Mg112 3.182738 1_555
Mg108 Mg133 3.183421 1_655
Mg108 Mg111 3.184439 1_555
Mg108 Mg81 3.185158 1_655
Mg108 Mg121 3.186122 1_655
Mg108 Mg80 3.190318 1_555
Mg109 Mg127 3.178588 1_555
Mg109 Mg87 3.181099 1_555
Mg109 Mg139 3.181644 1_555
Mg109 Mg116 3.182244 1_555
Mg109 Mg113 3.182747 1_555
Mg109 Mg134 3.183413 1_555
Mg109 Mg110 3.184406 1_555
Mg109 Mg82 3.185165 1_555
Mg109 Mg120 3.186137 1_555
Mg109 Mg79 3.190318 1_555
Mg110 Mg130 3.178589 1_555
Mg110 Mg87 3.181099 1_555
Mg110 Mg141 3.181644 1_555
Mg110 Mg116 3.182253 1_555
Mg110 Mg114 3.182746 1_555
Mg110 Mg134 3.183413 1_555
Mg110 Mg89 3.185166 1_555
Mg110 Mg123 3.186137 1_555
Mg110 Mg85 3.190318 1_555
Mg111 Mg129 3.178581 1_655
Mg111 Mg86 3.181107 1_655
Mg111 Mg140 3.181644 1_555
Mg111 Mg117 3.182244 1_555
Mg111 Mg114 3.182738 1_555
Mg111 Mg133 3.183421 1_655
Mg111 Mg90 3.185158 1_655
Mg111 Mg122 3.186122 1_655
Mg111 Mg84 3.190318 1_555
Mg112 Mg137 3.178982 1_555
Mg112 Mg138 3.178983 1_555
Mg112 Mg78 3.182107 1_555
Mg112 Mg80 3.182107 1_555
Mg112 Mg117 3.185568 1_555
Mg112 Mg115 3.185575 1_555
Mg112 Mg121 3.185680 1_655
Mg112 Mg118 3.185681 1_545
Mg112 Mg75 3.186196 1_555
Mg112 Mg144 3.209947 1_555
Mg113 Mg136 3.178983 1_555
Mg113 Mg139 3.178983 1_555
Mg113 Mg77 3.182107 1_555
Mg113 Mg79 3.182107 1_555
Mg113 Mg115 3.185559 1_555
Mg113 Mg116 3.185559 1_555
Mg113 Mg119 3.185672 1_545
Mg113 Mg120 3.185680 1_555
Mg113 Mg74 3.186204 1_555
Mg113 Mg143 3.209946 1_555
Mg114 Mg141 3.178982 1_555
Mg114 Mg140 3.178983 1_555
Mg114 Mg85 3.182107 1_555
Mg114 Mg84 3.182107 1_555
Mg114 Mg117 3.185568 1_555
Mg114 Mg116 3.185575 1_555
Mg114 Mg122 3.185680 1_655
Mg114 Mg123 3.185681 1_555
Mg114 Mg93 3.186204 1_555
Mg114 Mg145 3.209947 1_555
Mg115 Mg77 3.185254 1_555
Mg115 Mg78 3.185263 1_555
Mg115 Mg116 3.185400 1_555
Mg115 Mg117 3.185423 1_555
Mg115 Mg142 3.186262 1_555
Mg115 Mg136 3.186536 1_555
Mg115 Mg137 3.186544 1_555
Mg115 Mg83 3.188548 1_555
Mg116 Mg79 3.185254 1_555
Mg116 Mg85 3.185263 1_555
Mg116 Mg117 3.185422 1_555
Mg116 Mg142 3.186270 1_555
Mg116 Mg139 3.186536 1_555
Mg116 Mg141 3.186544 1_555
Mg116 Mg83 3.188556 1_555
Mg117 Mg84 3.185255 1_555
Mg117 Mg80 3.185255 1_555
Mg117 Mg142 3.186269 1_555
Mg117 Mg140 3.186536 1_555
Mg117 Mg138 3.186536 1_555
Mg117 Mg83 3.188555 1_555
Mg118 Mg131 3.174441 1_555
Mg118 Mg123 3.177391 1_555
Mg118 Mg99 3.181763 1_665
Mg118 Mg144 3.184424 1_565
Mg118 Mg121 3.185837 1_665
Mg118 Mg94 3.195401 1_555
Mg118 Mg97 3.196381 1_555
Mg118 Mg75 3.198573 1_565
Mg118 Mg148 3.198742 1_555
Mg119 Mg132 3.174441 1_555
Mg119 Mg122 3.177397 1_555
Mg119 Mg99 3.181755 1_565
Mg119 Mg143 3.184416 1_565
Mg119 Mg120 3.185822 1_565
Mg119 Mg95 3.195401 1_555
Mg119 Mg96 3.196398 1_555
Mg119 Mg74 3.198565 1_565
Mg119 Mg147 3.198741 1_555
Mg120 Mg127 3.174441 1_555
Mg120 Mg121 3.177389 1_555
Mg120 Mg99 3.181763 1_555
Mg120 Mg143 3.184424 1_555
Mg120 Mg76 3.195401 1_555
Mg120 Mg82 3.196390 1_555
Mg120 Mg74 3.198565 1_555
Mg120 Mg146 3.198741 1_555
Mg121 Mg128 3.174441 1_555
Mg121 Mg99 3.181764 1_555
Mg121 Mg144 3.184424 1_455
Mg121 Mg76 3.195401 1_555
Mg121 Mg81 3.196390 1_555
Mg121 Mg75 3.198572 1_455
Mg121 Mg146 3.198734 1_555
Mg122 Mg129 3.174441 1_555
Mg122 Mg99 3.181764 1_565
Mg122 Mg145 3.184424 1_455
Mg122 Mg123 3.185837 1_455
Mg122 Mg95 3.195401 1_555
Mg122 Mg90 3.196390 1_555
Mg122 Mg93 3.198572 1_455
Mg122 Mg147 3.198734 1_555
Mg123 Mg130 3.174441 1_555
Mg123 Mg99 3.181763 1_665
Mg123 Mg145 3.184424 1_555
Mg123 Mg94 3.195393 1_555
Mg123 Mg89 3.196381 1_555
Mg123 Mg93 3.198565 1_555
Mg123 Mg148 3.198734 1_555
Mg124 Mg125 3.170788 1_555
Mg124 Mg126 3.170789 1_555
Mg124 Mg128 3.174549 1_555
Mg124 Mg127 3.174550 1_555
Mg124 Mg133 3.183866 1_555
Mg124 Mg134 3.183866 1_555
Mg124 Mg14 3.187139 1_556
Mg124 Mg13 3.187139 1_556
Mg125 Mg126 3.170787 1_555
Mg125 Mg130 3.174548 1_555
Mg125 Mg131 3.174549 1_555
Mg125 Mg134 3.183868 1_555
Mg125 Mg135 3.183868 1_555
Mg125 Mg17 3.184777 1_556
Mg125 Mg19 3.187139 1_556
Mg125 Mg14 3.187139 1_556
Mg126 Mg129 3.174548 1_555
Mg126 Mg132 3.174566 1_555
Mg126 Mg133 3.183867 1_555
Mg126 Mg135 3.183867 1_555
Mg126 Mg18 3.184770 1_556
Mg126 Mg19 3.187139 1_556
Mg126 Mg13 3.187139 1_556
Mg127 Mg128 3.170551 1_555
Mg127 Mg134 3.174696 1_555
Mg127 Mg8 3.177992 1_556
Mg127 Mg139 3.182432 1_555
Mg127 Mg143 3.200151 1_555
Mg127 Mg2 3.206674 1_556
Mg127 Mg146 3.208052 1_555
Mg128 Mg133 3.174697 1_555
Mg128 Mg7 3.177992 1_456
Mg128 Mg138 3.182432 1_455
Mg128 Mg144 3.200150 1_455
Mg128 Mg3 3.206675 1_556
Mg128 Mg146 3.208046 1_555
Mg129 Mg132 3.170559 1_555
Mg129 Mg133 3.174697 1_555
Mg129 Mg16 3.177984 1_456
Mg129 Mg140 3.182432 1_455
Mg129 Mg18 3.185602 1_556
Mg129 Mg145 3.200150 1_455
Mg129 Mg20 3.206675 1_556
Mg129 Mg147 3.208046 1_555
Mg130 Mg131 3.170552 1_555
Mg130 Mg134 3.174696 1_555
Mg130 Mg15 3.177984 1_556
Mg130 Mg141 3.182433 1_555
Mg130 Mg17 3.185595 1_556
Mg130 Mg145 3.200150 1_555
Mg130 Mg21 3.206674 1_556
Mg130 Mg148 3.208044 1_555
Mg131 Mg135 3.174696 1_555
Mg131 Mg137 3.182433 1_565
Mg131 Mg17 3.185603 1_556
Mg131 Mg144 3.200150 1_565
Mg131 Mg23 3.206674 1_556
Mg131 Mg148 3.208052 1_555
Mg132 Mg135 3.174704 1_555
Mg132 Mg136 3.182424 1_565
Mg132 Mg18 3.185611 1_556
Mg132 Mg143 3.200135 1_565
Mg132 Mg22 3.206658 1_556
Mg132 Mg147 3.208044 1_555
Mg133 Mg140 3.186319 1_455
Mg133 Mg138 3.186319 1_455
Mg133 Mg7 3.196224 1_456
Mg133 Mg16 3.196232 1_456
Mg134 Mg14 3.184783 1_556
Mg134 Mg141 3.186319 1_555
Mg134 Mg139 3.186320 1_555
Mg134 Mg15 3.196224 1_556
Mg134 Mg8 3.196224 1_556
Mg135 Mg19 3.184783 1_556
Mg135 Mg137 3.186319 1_565
Mg135 Mg136 3.186320 1_565
Mg136 Mg6 3.176366 1_556
Mg136 Mg139 3.179508 1_555
Mg136 Mg4 3.188089 1_556
Mg136 Mg143 3.189515 1_555
Mg136 Mg142 3.192297 1_555
Mg136 Mg137 3.205056 1_555
Mg137 Mg5 3.176365 1_556
Mg137 Mg138 3.179507 1_555
Mg137 Mg4 3.188097 1_556
Mg137 Mg144 3.189515 1_555
Mg137 Mg142 3.192290 1_555
Mg138 Mg5 3.176366 1_556
Mg138 Mg7 3.180297 1_556
Mg138 Mg144 3.189516 1_555
Mg138 Mg142 3.192288 1_555
Mg138 Mg140 3.205057 1_555
Mg139 Mg6 3.176366 1_556
Mg139 Mg8 3.180298 1_556
Mg139 Mg9 3.188089 1_556
Mg139 Mg143 3.189515 1_555
Mg139 Mg142 3.192304 1_555
Mg139 Mg141 3.205056 1_555
Mg140 Mg141 3.179506 1_555
Mg140 Mg16 3.180297 1_556
Mg140 Mg145 3.189516 1_555
Mg140 Mg142 3.192297 1_555
Mg141 Mg15 3.180306 1_556
Mg141 Mg9 3.188097 1_556
Mg141 Mg145 3.189515 1_555
Mg141 Mg142 3.192306 1_555
Mg142 Mg4 3.181499 1_556
Mg142 Mg9 3.181507 1_556
Mg143 Mg146 3.167971 1_555
Mg143 Mg147 3.167972 1_545
Mg143 Mg2 3.172758 1_556
Mg143 Mg22 3.172766 1_546
Mg143 Mg6 3.182499 1_556
Mg144 Mg146 3.167956 1_655
Mg144 Mg148 3.167973 1_545
Mg144 Mg3 3.172766 1_656
Mg144 Mg23 3.172766 1_546
Mg144 Mg5 3.182499 1_556
Mg145 Mg147 3.167956 1_655
Mg145 Mg148 3.167957 1_555
Mg145 Mg20 3.172766 1_656
Mg145 Mg21 3.172766 1_556
Mg146 Mg3 3.141759 1_556
Mg146 Mg2 3.141775 1_556
Mg146 Zr0 3.148730 1_556
Mg146 Mg148 3.154958 1_445
Mg146 Mg147 3.154967 1_545
Mg146 Mg99 3.211440 1_555
Mg147 Mg20 3.141759 1_556
Mg147 Mg22 3.141775 1_556
Mg147 Zr0 3.148730 1_566
Mg147 Mg148 3.154950 1_455
Mg147 Mg99 3.211440 1_565
Mg148 Mg21 3.141759 1_556
Mg148 Mg23 3.141767 1_556
Mg148 Zr0 3.148729 1_666
Mg148 Mg99 3.211439 1_665
