# generated using pymatgen
data_Sc2Te3
_symmetry_space_group_name_H-M   'P 1'
_cell_length_a   7.20819075
_cell_length_b   7.20819135
_cell_length_c   13.10845535
_cell_angle_alpha   100.57070158
_cell_angle_beta   100.57070888
_cell_angle_gamma   109.43752996
_symmetry_Int_Tables_number   1
_chemical_formula_structural   Sc2Te3
_chemical_formula_sum   'Sc8 Te12'
_cell_volume   609.01462987
_cell_formula_units_Z   4
loop_
 _symmetry_equiv_pos_site_id
 _symmetry_equiv_pos_as_xyz
  1  'x, y, z'
loop_
 _atom_site_type_symbol
 _atom_site_label
 _atom_site_symmetry_multiplicity
 _atom_site_fract_x
 _atom_site_fract_y
 _atom_site_fract_z
 _atom_site_occupancy
  Sc  Sc0  1  0.20722529  0.95722529  0.91444959  1
  Sc  Sc1  1  0.04277471  0.79277471  0.58555041  1
  Sc  Sc2  1  0.79277471  0.04277471  0.08555041  1
  Sc  Sc3  1  0.95722529  0.20722529  0.41444959  1
  Sc  Sc4  1  0.87532634  0.62532634  0.25065168  1
  Sc  Sc5  1  0.37467366  0.12467366  0.24934832  1
  Sc  Sc6  1  0.12467366  0.37467366  0.74934832  1
  Sc  Sc7  1  0.62532634  0.87532634  0.75065168  1
  Te  Te0  1  0.37603327  0.12603327  0.75000000  1
  Te  Te1  1  0.87396673  0.62396673  0.75000000  1
  Te  Te2  1  0.62396673  0.87396673  0.25000000  1
  Te  Te3  1  0.12603327  0.37603327  0.25000000  1
  Te  Te4  1  0.04249878  0.79541319  0.08471600  1
  Te  Te5  1  0.71069619  0.45778278  0.41528400  1
  Te  Te6  1  0.20458681  0.95750122  0.41528400  1
  Te  Te7  1  0.54221722  0.28930381  0.08471600  1
  Te  Te8  1  0.95750122  0.20458681  0.91528400  1
  Te  Te9  1  0.28930381  0.54221722  0.58471600  1
  Te  Te10  1  0.79541319  0.04249878  0.58471600  1
  Te  Te11  1  0.45778278  0.71069619  0.91528400  1
loop_
_geom_bond_atom_site_label_1
_geom_bond_atom_site_label_2
_geom_bond_distance
_geom_bond_site_symmetry_2
Sc0 Te0 2.923611 1_565
Sc0 Te1 2.923617 1_455
Sc0 Te8 2.925019 1_465
Sc0 Te11 2.925025 1_555
Sc0 Te7 2.959307 1_566
Sc0 Te4 2.959311 1_556
Sc1 Te1 2.923611 1_455
Sc1 Te0 2.923617 1_565
Sc1 Te10 2.925019 1_465
Sc1 Te9 2.925025 1_555
Sc1 Te5 2.959307 1_455
Sc1 Te6 2.959311 1_555
Sc2 Te2 2.923611 1_545
Sc2 Te3 2.923617 1_655
Sc2 Te4 2.925019 1_645
Sc2 Te7 2.925025 1_555
Sc2 Te11 2.959307 1_544
Sc2 Te8 2.959311 1_554
Sc3 Te3 2.923611 1_655
Sc3 Te2 2.923617 1_545
Sc3 Te6 2.925019 1_645
Sc3 Te5 2.925025 1_555
Sc3 Te9 2.959307 1_655
Sc3 Te10 2.959311 1_555
Sc4 Te6 2.909634 1_655
Sc4 Te5 2.909643 1_555
Sc4 Te4 2.939955 1_655
Sc4 Te7 2.939957 1_555
Sc4 Te3 2.942143 1_655
Sc4 Te2 2.942144 1_555
Sc5 Te4 2.909634 1_545
Sc5 Te7 2.909643 1_555
Sc5 Te6 2.939955 1_545
Sc5 Te5 2.939957 1_555
Sc5 Te2 2.942143 1_545
Sc5 Te3 2.942144 1_555
Sc6 Te10 2.909634 1_455
Sc6 Te9 2.909643 1_555
Sc6 Te8 2.939955 1_455
Sc6 Te11 2.939957 1_555
Sc6 Te1 2.942143 1_455
Sc6 Te0 2.942144 1_555
Sc7 Te8 2.909634 1_565
Sc7 Te11 2.909643 1_555
Sc7 Te10 2.939955 1_565
Sc7 Te9 2.939957 1_555
Sc7 Te0 2.942143 1_565
Sc7 Te1 2.942144 1_555
