# generated using pymatgen
data_LuNi4Au
_symmetry_space_group_name_H-M   'P 1'
_cell_length_a   4.89145217
_cell_length_b   4.89145217
_cell_length_c   4.89145217
_cell_angle_alpha   60.00000000
_cell_angle_beta   60.00000000
_cell_angle_gamma   60.00000000
_symmetry_Int_Tables_number   1
_chemical_formula_structural   LuNi4Au
_chemical_formula_sum   'Lu1 Ni4 Au1'
_cell_volume   82.75579900
_cell_formula_units_Z   1
loop_
 _symmetry_equiv_pos_site_id
 _symmetry_equiv_pos_as_xyz
  1  'x, y, z'
loop_
 _atom_site_type_symbol
 _atom_site_label
 _atom_site_symmetry_multiplicity
 _atom_site_fract_x
 _atom_site_fract_y
 _atom_site_fract_z
 _atom_site_occupancy
  Lu  Lu0  1  0.00000000  0.00000000  0.00000000  1
  Ni  Ni0  1  0.62472600  0.62472600  0.12582100  1
  Ni  Ni1  1  0.62472600  0.12582100  0.62472600  1
  Ni  Ni2  1  0.12582100  0.62472600  0.62472600  1
  Ni  Ni3  1  0.62472600  0.62472600  0.62472600  1
  Au  Au0  1  0.25000000  0.25000000  0.25000000  1
loop_
_geom_bond_atom_site_label_1
_geom_bond_atom_site_label_2
_geom_bond_distance
_geom_bond_site_symmetry_2
Lu0 Ni1 2.868439 1_554
Lu0 Ni2 2.868439 1_554
Lu0 Ni1 2.868439 1_455
Lu0 Ni0 2.868439 1_455
Lu0 Ni2 2.868439 1_545
Lu0 Ni0 2.868439 1_545
Lu0 Ni3 2.868441 1_454
Lu0 Ni3 2.868441 1_445
Lu0 Ni3 2.868441 1_544
Lu0 Ni0 2.868443 1_445
Lu0 Ni2 2.868443 1_544
Lu0 Ni1 2.868443 1_454
Ni0 Ni1 2.440370 1_555
Ni0 Ni2 2.440370 1_555
Ni0 Ni3 2.440370 1_555
Ni0 Ni3 2.451082 1_554
Ni0 Ni1 2.451082 1_564
Ni0 Ni2 2.451082 1_654
Ni1 Ni2 2.440370 1_555
Ni1 Ni3 2.440370 1_555
Ni1 Ni2 2.451082 1_645
Ni1 Ni3 2.451082 1_545
Ni2 Ni3 2.440370 1_555
Ni2 Ni3 2.451082 1_455
Au0 Ni2 2.867296 1_555
Au0 Ni1 2.867296 1_555
Au0 Ni0 2.867296 1_555
Au0 Ni3 2.867298 1_545
Au0 Ni3 2.867298 1_455
Au0 Ni3 2.867298 1_554
Au0 Ni1 2.867300 1_455
Au0 Ni2 2.867300 1_554
Au0 Ni1 2.867300 1_554
Au0 Ni0 2.867300 1_455
Au0 Ni0 2.867300 1_545
Au0 Ni2 2.867300 1_545
Au0 Lu0 2.995390 1_555
Au0 Lu0 2.995390 1_565
Au0 Lu0 2.995390 1_655
Au0 Lu0 2.995390 1_556
