# generated using pymatgen
data_Li3MnFeCo(PO4)3
_symmetry_space_group_name_H-M   'P 1'
_cell_length_a   6.09064200
_cell_length_b   10.45662900
_cell_length_c   14.29854864
_cell_angle_alpha   89.93345801
_cell_angle_beta   90.00000000
_cell_angle_gamma   90.00000000
_symmetry_Int_Tables_number   1
_chemical_formula_structural   Li3MnFeCo(PO4)3
_chemical_formula_sum   'Li12 Mn4 Fe4 Co4 P12 O48'
_cell_volume   910.63940029
_cell_formula_units_Z   4
loop_
 _symmetry_equiv_pos_site_id
 _symmetry_equiv_pos_as_xyz
  1  'x, y, z'
loop_
 _atom_site_type_symbol
 _atom_site_label
 _atom_site_symmetry_multiplicity
 _atom_site_fract_x
 _atom_site_fract_y
 _atom_site_fract_z
 _atom_site_occupancy
  Li  Li0  1  0.74989000  0.99812900  0.66726700  1
  Li  Li1  1  0.24979100  0.00052300  0.99965900  1
  Li  Li2  1  0.75020900  0.00052300  0.99965900  1
  Li  Li3  1  0.25035800  0.99872400  0.33320600  1
  Li  Li4  1  0.74964200  0.99872400  0.33320600  1
  Li  Li5  1  0.25011000  0.99812900  0.66726700  1
  Li  Li6  1  0.24989400  0.50206300  0.50068700  1
  Li  Li7  1  0.75010600  0.50206300  0.50068700  1
  Li  Li8  1  0.25067300  0.50100800  0.16684500  1
  Li  Li9  1  0.74932700  0.50100800  0.16684500  1
  Li  Li10  1  0.24916400  0.50041700  0.83295700  1
  Li  Li11  1  0.75083600  0.50041700  0.83295700  1
  Mn  Mn0  1  0.00000000  0.21897900  0.49358000  1
  Mn  Mn1  1  0.50000000  0.28120900  0.66041900  1
  Mn  Mn2  1  0.50000000  0.28065600  0.32611200  1
  Mn  Mn3  1  0.00000000  0.71966900  0.00685500  1
  Fe  Fe0  1  0.00000000  0.21836100  0.15943600  1
  Fe  Fe1  1  0.00000000  0.21827900  0.82523200  1
  Fe  Fe2  1  0.50000000  0.28041300  0.99183800  1
  Fe  Fe3  1  0.00000000  0.71991900  0.34154500  1
  Co  Co0  1  0.00000000  0.72364100  0.67440700  1
  Co  Co1  1  0.50000000  0.77763900  0.83984600  1
  Co  Co2  1  0.50000000  0.78080300  0.50647600  1
  Co  Co3  1  0.50000000  0.78165100  0.17267500  1
  P  P0  1  0.50000000  0.09155500  0.80735000  1
  P  P1  1  0.50000000  0.09218400  0.13827300  1
  P  P2  1  0.50000000  0.09013000  0.47240400  1
  P  P3  1  0.00000000  0.40801400  0.30431400  1
  P  P4  1  0.00000000  0.40941000  0.63964100  1
  P  P5  1  0.00000000  0.40373500  0.97242000  1
  P  P6  1  0.50000000  0.59670900  0.36094700  1
  P  P7  1  0.50000000  0.59484000  0.02851700  1
  P  P8  1  0.50000000  0.59701900  0.69419300  1
  P  P9  1  0.00000000  0.90604200  0.85933500  1
  P  P10  1  0.00000000  0.90572400  0.19457500  1
  P  P11  1  0.00000000  0.90283600  0.52803600  1
  O  O0  1  0.00000000  0.04325900  0.23623800  1
  O  O1  1  0.00000000  0.03986000  0.57063700  1
  O  O2  1  0.00000000  0.04333400  0.90116700  1
  O  O3  1  0.50000000  0.09385700  0.57988400  1
  O  O4  1  0.50000000  0.09530700  0.91476900  1
  O  O5  1  0.50000000  0.09505800  0.24562500  1
  O  O6  1  0.29688700  0.16301000  0.09403900  1
  O  O7  1  0.70311300  0.16301000  0.09403900  1
  O  O8  1  0.29814200  0.16062800  0.42761900  1
  O  O9  1  0.70185800  0.16062800  0.42761900  1
  O  O10  1  0.29729000  0.16278000  0.76284900  1
  O  O11  1  0.70271000  0.16278000  0.76284900  1
  O  O12  1  0.79816500  0.33912400  0.59431900  1
  O  O13  1  0.20183500  0.33912400  0.59431900  1
  O  O14  1  0.79822600  0.33752500  0.25955700  1
  O  O15  1  0.20177400  0.33752500  0.25955700  1
  O  O16  1  0.79668900  0.33368000  0.92789500  1
  O  O17  1  0.20331100  0.33368000  0.92789500  1
  O  O18  1  0.00000000  0.40501200  0.41194200  1
  O  O19  1  0.00000000  0.40163400  0.07979200  1
  O  O20  1  0.00000000  0.40355400  0.74716300  1
  O  O21  1  0.50000000  0.45939200  0.40299900  1
  O  O22  1  0.50000000  0.45615900  0.06803600  1
  O  O23  1  0.50000000  0.45972600  0.73659100  1
  O  O24  1  0.00000000  0.54603400  0.26344400  1
  O  O25  1  0.00000000  0.54130900  0.93075800  1
  O  O26  1  0.00000000  0.54775300  0.59968200  1
  O  O27  1  0.50000000  0.59901200  0.25341700  1
  O  O28  1  0.50000000  0.59999200  0.92074600  1
  O  O29  1  0.50000000  0.59886400  0.58656400  1
  O  O30  1  0.29915300  0.66491300  0.07445400  1
  O  O31  1  0.29782600  0.66762500  0.40565400  1
  O  O32  1  0.29649300  0.66761000  0.73849500  1
  O  O33  1  0.70350700  0.66761000  0.73849500  1
  O  O34  1  0.70084700  0.66491300  0.07445400  1
  O  O35  1  0.70217400  0.66762500  0.40565400  1
  O  O36  1  0.79556700  0.83605400  0.90307300  1
  O  O37  1  0.20443300  0.83605400  0.90307300  1
  O  O38  1  0.79587300  0.83508900  0.23857900  1
  O  O39  1  0.79653100  0.83130300  0.57199400  1
  O  O40  1  0.20412700  0.83508900  0.23857900  1
  O  O41  1  0.20346900  0.83130300  0.57199400  1
  O  O42  1  0.00000000  0.90270600  0.75158400  1
  O  O43  1  0.00000000  0.90321300  0.42048400  1
  O  O44  1  0.00000000  0.90470900  0.08689300  1
  O  O45  1  0.50000000  0.95420100  0.76581000  1
  O  O46  1  0.50000000  0.95407100  0.09748600  1
  O  O47  1  0.50000000  0.95215900  0.43156900  1
loop_
_geom_bond_atom_site_label_1
_geom_bond_atom_site_label_2
_geom_bond_distance
_geom_bond_site_symmetry_2
Li0 O1 2.102037 1_665
Li0 O45 2.123979 1_555
Li0 O42 2.183312 1_655
Li0 O3 2.208316 1_565
Li0 O11 2.218129 1_565
Li0 O39 2.232722 1_555
Li1 O2 2.120576 1_555
Li1 O46 2.124459 1_546
Li1 O4 2.185228 1_555
Li1 O6 2.189880 1_556
Li1 O44 2.207104 1_546
Li1 O37 2.224138 1_545
Li2 O2 2.120576 1_655
Li2 O46 2.124459 1_546
Li2 O4 2.185228 1_555
Li2 O7 2.189880 1_556
Li2 O44 2.207104 1_646
Li2 O36 2.224138 1_545
Li3 O0 2.112555 1_565
Li3 O47 2.127310 1_555
Li3 O8 2.185995 1_565
Li3 O40 2.200707 1_555
Li3 O43 2.208409 1_555
Li3 O5 2.211753 1_565
Li4 O0 2.112555 1_665
Li4 O47 2.127310 1_555
Li4 O9 2.185995 1_565
Li4 O38 2.200707 1_555
Li4 O43 2.208409 1_655
Li4 O5 2.211753 1_565
Li5 O1 2.102037 1_565
Li5 O45 2.123979 1_555
Li5 O42 2.183312 1_555
Li5 O3 2.208316 1_565
Li5 O10 2.218129 1_565
Li5 O41 2.232722 1_555
Li6 O21 2.114720 1_555
Li6 O26 2.133062 1_555
Li6 O13 2.185333 1_555
Li6 O29 2.203565 1_555
Li6 O31 2.218855 1_555
Li6 O18 2.227008 1_555
Li7 O21 2.114720 1_555
Li7 O26 2.133062 1_655
Li7 O12 2.185333 1_555
Li7 O29 2.203565 1_555
Li7 O35 2.218855 1_555
Li7 O18 2.227008 1_655
Li8 O24 2.112335 1_555
Li8 O22 2.126870 1_555
Li8 O15 2.182453 1_555
Li8 O30 2.182785 1_555
Li8 O27 2.211664 1_555
Li8 O19 2.227806 1_555
Li9 O24 2.112335 1_655
Li9 O22 2.126870 1_555
Li9 O14 2.182453 1_555
Li9 O34 2.182785 1_555
Li9 O27 2.211664 1_555
Li9 O19 2.227806 1_655
Li10 O23 2.101196 1_555
Li10 O25 2.107794 1_555
Li10 O20 2.199239 1_555
Li10 O17 2.225995 1_555
Li10 O32 2.226743 1_555
Li10 O28 2.235367 1_555
Li11 O23 2.101196 1_555
Li11 O25 2.107794 1_655
Li11 O20 2.199239 1_655
Li11 O16 2.225995 1_555
Li11 O33 2.226743 1_555
Li11 O28 2.235367 1_555
Mn0 O8 2.135546 1_555
Mn0 O9 2.135546 1_455
Mn0 O1 2.171920 1_555
Mn0 O18 2.267473 1_555
Mn0 O12 2.273439 1_455
Mn0 O13 2.273439 1_555
Mn1 O13 2.134622 1_555
Mn1 O12 2.134622 1_555
Mn1 O23 2.162287 1_555
Mn1 O3 2.273593 1_555
Mn1 O11 2.280070 1_555
Mn1 O10 2.280070 1_555
Mn2 O14 2.134757 1_555
Mn2 O15 2.134757 1_555
Mn2 O21 2.169439 1_555
Mn2 O5 2.257447 1_555
Mn2 O9 2.277964 1_555
Mn2 O8 2.277964 1_555
Mn3 O34 2.140234 1_455
Mn3 O30 2.140234 1_555
Mn3 O25 2.160327 1_554
Mn3 O44 2.249150 1_555
Mn3 O37 2.286762 1_554
Mn3 O36 2.286762 1_454
Fe0 O6 2.116680 1_555
Fe0 O7 2.116680 1_455
Fe0 O0 2.133953 1_555
Fe0 O19 2.228102 1_555
Fe0 O15 2.261969 1_555
Fe0 O14 2.261969 1_455
Fe1 O11 2.100527 1_455
Fe1 O10 2.100527 1_555
Fe1 O2 2.126200 1_555
Fe1 O20 2.234810 1_555
Fe1 O16 2.269020 1_455
Fe1 O17 2.269020 1_555
Fe2 O17 2.100079 1_555
Fe2 O16 2.100079 1_555
Fe2 O22 2.137495 1_556
Fe2 O4 2.228406 1_555
Fe2 O6 2.273498 1_556
Fe2 O7 2.273498 1_556
Fe3 O31 2.104410 1_555
Fe3 O35 2.104410 1_455
Fe3 O24 2.134910 1_555
Fe3 O43 2.225425 1_555
Fe3 O40 2.271446 1_555
Fe3 O38 2.271446 1_455
Co0 O33 2.107791 1_455
Co0 O32 2.107791 1_555
Co0 O26 2.128100 1_555
Co0 O42 2.174511 1_555
Co0 O41 2.223433 1_555
Co0 O39 2.223433 1_455
Co1 O36 2.105326 1_555
Co1 O37 2.105326 1_555
Co1 O45 2.127140 1_555
Co1 O28 2.187172 1_555
Co1 O32 2.228010 1_555
Co1 O33 2.228010 1_555
Co2 O47 2.086452 1_555
Co2 O39 2.102256 1_555
Co2 O41 2.102256 1_555
Co2 O29 2.219387 1_555
Co2 O35 2.235855 1_555
Co2 O31 2.235855 1_555
Co3 O46 2.098068 1_555
Co3 O38 2.109231 1_555
Co3 O40 2.109231 1_555
Co3 O34 2.227752 1_555
Co3 O30 2.227752 1_555
Co3 O27 2.230476 1_555
O0 P10 1.557291 1_545
O1 P11 1.557566 1_545
O2 P9 1.555874 1_545
O3 P2 1.537347 1_555
O4 P0 1.536482 1_555
O5 P1 1.535307 1_555
O6 P1 1.574110 1_555
O7 P1 1.574110 1_555
O8 P2 1.569688 1_555
O9 P2 1.569688 1_555
O10 P0 1.575686 1_555
O11 P0 1.575686 1_555
O12 P4 1.572390 1_655
O13 P4 1.572390 1_555
O14 P3 1.569778 1_655
O15 P3 1.569778 1_555
O16 P5 1.573653 1_655
O17 P5 1.573653 1_555
O18 P3 1.539208 1_555
O19 P5 1.535395 1_554
O20 P4 1.538556 1_555
O21 P6 1.556042 1_555
O22 P7 1.555728 1_555
O23 P8 1.557724 1_555
O24 P3 1.556418 1_555
O25 P5 1.556384 1_555
O26 P4 1.554729 1_555
O27 P6 1.537684 1_555
O28 P7 1.541848 1_556
O29 P8 1.539037 1_555
O30 P7 1.570308 1_555
O31 P6 1.573496 1_555
O32 P8 1.575925 1_555
O33 P8 1.575925 1_555
O34 P7 1.570308 1_555
O35 P6 1.573496 1_555
O36 P9 1.573525 1_655
O37 P9 1.573525 1_555
O38 P10 1.576720 1_655
O39 P11 1.577725 1_655
O40 P10 1.576720 1_555
O41 P11 1.577725 1_555
O42 P9 1.541118 1_555
O43 P11 1.537838 1_555
O44 P10 1.539745 1_555
O45 P0 1.554868 1_565
O46 P1 1.558132 1_565
O47 P2 1.557013 1_565
