# generated using pymatgen
data_Mg6MnCdO8
_symmetry_space_group_name_H-M   'P 1'
_cell_length_a   8.74638358
_cell_length_b   4.39317293
_cell_length_c   4.39317293
_cell_angle_alpha   90.00000000
_cell_angle_beta   90.00000000
_cell_angle_gamma   90.00000000
_symmetry_Int_Tables_number   1
_chemical_formula_structural   Mg6MnCdO8
_chemical_formula_sum   'Mg6 Mn1 Cd1 O8'
_cell_volume   168.80492665
_cell_formula_units_Z   1
loop_
 _symmetry_equiv_pos_site_id
 _symmetry_equiv_pos_as_xyz
  1  'x, y, z'
loop_
 _atom_site_type_symbol
 _atom_site_label
 _atom_site_symmetry_multiplicity
 _atom_site_fract_x
 _atom_site_fract_y
 _atom_site_fract_z
 _atom_site_occupancy
  Mg  Mg0  1  0.50000000  0.00000000  0.00000000  1
  Mg  Mg1  1  0.50000000  0.50000000  0.50000000  1
  Mg  Mg2  1  0.25814626  0.00000000  0.50000000  1
  Mg  Mg3  1  0.74185374  0.00000000  0.50000000  1
  Mg  Mg4  1  0.25814626  0.50000000  0.00000000  1
  Mg  Mg5  1  0.74185374  0.50000000  0.00000000  1
  Mn  Mn0  1  0.00000000  0.00000000  0.00000000  1
  Cd  Cd0  1  0.00000000  0.50000000  0.50000000  1
  O  O0  1  0.25786315  0.00000000  0.00000000  1
  O  O1  1  0.74213685  0.00000000  0.00000000  1
  O  O2  1  0.26677479  0.50000000  0.50000000  1
  O  O3  1  0.73322521  0.50000000  0.50000000  1
  O  O4  1  0.00000000  0.00000000  0.50000000  1
  O  O5  1  0.50000000  0.00000000  0.50000000  1
  O  O6  1  0.00000000  0.50000000  0.00000000  1
  O  O7  1  0.50000000  0.50000000  0.00000000  1
loop_
_geom_bond_atom_site_label_1
_geom_bond_atom_site_label_2
_geom_bond_distance
_geom_bond_site_symmetry_2
Mg0 O1 2.117822 1_555
Mg0 O0 2.117822 1_555
Mg0 O5 2.196586 1_554
Mg0 O5 2.196586 1_555
Mg0 O7 2.196586 1_545
Mg0 O7 2.196586 1_555
Mg1 O3 2.039877 1_555
Mg1 O2 2.039877 1_555
Mg1 O5 2.196586 1_555
Mg1 O5 2.196586 1_565
Mg1 O7 2.196586 1_555
Mg1 O7 2.196586 1_556
Mg2 O5 2.115346 1_555
Mg2 O0 2.196588 1_555
Mg2 O0 2.196588 1_556
Mg2 O2 2.197883 1_555
Mg2 O2 2.197883 1_545
Mg2 O4 2.257846 1_555
Mg3 O5 2.115346 1_555
Mg3 O1 2.196588 1_555
Mg3 O1 2.196588 1_556
Mg3 O3 2.197883 1_545
Mg3 O3 2.197883 1_555
Mg3 O4 2.257846 1_655
Mg4 O7 2.115346 1_555
Mg4 O0 2.196588 1_555
Mg4 O0 2.196588 1_565
Mg4 O2 2.197883 1_555
Mg4 O2 2.197883 1_554
Mg4 O6 2.257846 1_555
Mg5 O7 2.115346 1_555
Mg5 O1 2.196588 1_555
Mg5 O1 2.196588 1_565
Mg5 O3 2.197883 1_555
Mg5 O3 2.197883 1_554
Mg5 O6 2.257846 1_655
Mn0 O6 2.196586 1_555
Mn0 O4 2.196586 1_555
Mn0 O4 2.196586 1_554
Mn0 O6 2.196586 1_545
Mn0 O0 2.255370 1_555
Mn0 O1 2.255370 1_455
Cd0 O4 2.196586 1_565
Cd0 O6 2.196586 1_556
Cd0 O6 2.196586 1_555
Cd0 O4 2.196586 1_555
Cd0 O2 2.333315 1_555
Cd0 O3 2.333315 1_455
