# generated using pymatgen
data_GdReB4
_symmetry_space_group_name_H-M   'P 1'
_cell_length_a   3.62906850
_cell_length_b   5.99648174
_cell_length_c   11.59590441
_cell_angle_alpha   90.00000000
_cell_angle_beta   90.00000000
_cell_angle_gamma   90.00000000
_symmetry_Int_Tables_number   1
_chemical_formula_structural   GdReB4
_chemical_formula_sum   'Gd4 Re4 B16'
_cell_volume   252.34593196
_cell_formula_units_Z   4
loop_
 _symmetry_equiv_pos_site_id
 _symmetry_equiv_pos_as_xyz
  1  'x, y, z'
loop_
 _atom_site_type_symbol
 _atom_site_label
 _atom_site_symmetry_multiplicity
 _atom_site_fract_x
 _atom_site_fract_y
 _atom_site_fract_z
 _atom_site_occupancy
  Gd  Gd0  1  -0.00000000  0.62613845  0.34948391  1
  Gd  Gd1  1  -0.00000000  0.37386155  0.65051609  1
  Gd  Gd2  1  -0.00000000  0.12613845  0.15051609  1
  Gd  Gd3  1  0.00000000  0.87386155  0.84948391  1
  Re  Re0  1  -0.00000000  0.63203891  0.08672141  1
  Re  Re1  1  -0.00000000  0.36796109  0.91327859  1
  Re  Re2  1  -0.00000000  0.13203891  0.41327859  1
  Re  Re3  1  0.00000000  0.86796109  0.58672141  1
  B  B0  1  0.50000000  0.78606423  0.18420920  1
  B  B1  1  0.50000000  0.21393577  0.81579080  1
  B  B2  1  0.50000000  0.28606423  0.31579080  1
  B  B3  1  0.50000000  0.71393577  0.68420920  1
  B  B4  1  0.50000000  0.86212052  0.03159499  1
  B  B5  1  0.50000000  0.13787948  0.96840501  1
  B  B6  1  0.50000000  0.36212052  0.46840501  1
  B  B7  1  0.50000000  0.63787948  0.53159499  1
  B  B8  1  0.50000000  0.88672538  0.45310210  1
  B  B9  1  0.50000000  0.11327462  0.54689790  1
  B  B10  1  0.50000000  0.38672538  0.04689790  1
  B  B11  1  0.50000000  0.61327462  0.95310210  1
  B  B12  1  0.50000000  0.97713317  0.30871768  1
  B  B13  1  0.50000000  0.02286683  0.69128232  1
  B  B14  1  0.50000000  0.47713317  0.19128232  1
  B  B15  1  0.50000000  0.52286683  0.80871768  1
loop_
_geom_bond_atom_site_label_1
_geom_bond_atom_site_label_2
_geom_bond_distance
_geom_bond_site_symmetry_2
Gd0 Re0 3.047174 1_555
Gd0 Re2 3.053813 1_555
Gd0 Re3 3.109768 1_555
Gd0 Re2 3.122516 1_565
Gd1 Re1 3.047174 1_555
Gd1 Re3 3.053813 1_555
Gd1 Re2 3.109768 1_555
Gd1 Re3 3.122516 1_545
Gd2 Re2 3.047174 1_555
Gd2 Re0 3.053813 1_545
Gd2 Re1 3.109768 1_554
Gd2 Re0 3.122516 1_555
Gd3 Re3 3.047174 1_555
Gd3 Re1 3.053813 1_565
Gd3 Re0 3.109768 1_556
Gd3 Re1 3.122516 1_555
Re0 Re1 2.559809 1_554
Re2 Re3 2.559809 1_545
B0 B4 1.827522 1_555
B0 B12 1.843163 1_555
B0 B14 1.854314 1_555
B0 Re0 2.328847 1_555
B0 Re0 2.328847 1_655
B0 Gd2 2.757484 1_565
B0 Gd2 2.757484 1_665
B0 Gd0 2.808062 1_555
B0 Gd0 2.808062 1_655
B1 B5 1.827522 1_555
B1 B13 1.843163 1_555
B1 B15 1.854314 1_555
B1 Re1 2.328847 1_555
B1 Re1 2.328847 1_655
B1 Gd3 2.757484 1_545
B1 Gd3 2.757484 1_645
B1 Gd1 2.808062 1_655
B1 Gd1 2.808062 1_555
B2 B6 1.827522 1_555
B2 Re2 2.328847 1_655
B2 Re2 2.328847 1_555
B2 Gd0 2.757484 1_655
B2 Gd0 2.757484 1_555
B2 Gd2 2.808062 1_555
B2 Gd2 2.808062 1_655
B3 B7 1.827522 1_555
B3 Re3 2.328847 1_555
B3 Re3 2.328847 1_655
B3 Gd1 2.757484 1_655
B3 Gd1 2.757484 1_555
B3 Gd3 2.808062 1_555
B3 Gd3 2.808062 1_655
B4 B5 1.808661 1_564
B4 Re0 2.367421 1_655
B4 Re0 2.367421 1_555
B4 Gd2 2.775000 1_565
B4 Gd2 2.775000 1_665
B4 Gd3 2.785130 1_654
B4 Gd3 2.785130 1_554
B5 Re1 2.367421 1_655
B5 Re1 2.367421 1_555
B5 Gd3 2.775000 1_645
B5 Gd3 2.775000 1_545
B5 Gd2 2.785130 1_556
B5 Gd2 2.785130 1_656
B6 B9 1.747889 1_555
B6 B7 1.808661 1_555
B6 Re2 2.367421 1_655
B6 Re2 2.367421 1_555
B6 Gd0 2.775000 1_655
B6 Gd0 2.775000 1_555
B6 Gd1 2.785130 1_655
B6 Gd1 2.785130 1_555
B7 B8 1.747889 1_555
B7 Re3 2.367421 1_655
B7 Re3 2.367421 1_555
B7 Gd1 2.775000 1_655
B7 Gd1 2.775000 1_555
B7 Gd0 2.785130 1_655
B7 Gd0 2.785130 1_555
B8 B9 1.740257 1_565
B8 Re2 2.381109 1_665
B8 Re2 2.381109 1_565
B8 Re3 2.388713 1_555
B8 Re3 2.388713 1_655
B8 Gd0 2.679176 1_555
B8 Gd0 2.679176 1_655
B9 Re3 2.381109 1_545
B9 Re3 2.381109 1_645
B9 Re2 2.388713 1_655
B9 Re2 2.388713 1_555
B9 Gd1 2.679176 1_655
B9 Gd1 2.679176 1_555
B10 B11 1.740257 1_554
B10 B5 1.747889 1_554
B10 B14 1.759851 1_555
B10 Re0 2.381109 1_555
B10 Re0 2.381109 1_655
B10 Re1 2.388713 1_554
B10 Re1 2.388713 1_654
B10 Gd2 2.679176 1_655
B10 Gd2 2.679176 1_555
B11 B4 1.747889 1_556
B11 B15 1.759851 1_555
B11 Re1 2.381109 1_555
B11 Re1 2.381109 1_655
B11 Re0 2.388713 1_556
B11 Re0 2.388713 1_656
B11 Gd3 2.679176 1_555
B11 Gd3 2.679176 1_655
B12 B8 1.759851 1_555
B12 B2 1.854314 1_565
B12 Re2 2.371808 1_565
B12 Re2 2.371808 1_665
B12 Gd2 2.730613 1_565
B12 Gd2 2.730613 1_665
B12 Gd0 2.818848 1_655
B12 Gd0 2.818848 1_555
B13 B9 1.759851 1_555
B13 B3 1.854314 1_545
B13 Re3 2.371808 1_545
B13 Re3 2.371808 1_645
B13 Gd3 2.730613 1_545
B13 Gd3 2.730613 1_645
B13 Gd1 2.818848 1_655
B13 Gd1 2.818848 1_555
B14 B2 1.843163 1_555
B14 Re0 2.371808 1_655
B14 Re0 2.371808 1_555
B14 Gd0 2.730613 1_555
B14 Gd0 2.730613 1_655
B14 Gd2 2.818848 1_655
B14 Gd2 2.818848 1_555
B15 B3 1.843163 1_555
B15 Re1 2.371808 1_655
B15 Re1 2.371808 1_555
B15 Gd1 2.730613 1_655
B15 Gd1 2.730613 1_555
B15 Gd3 2.818848 1_555
B15 Gd3 2.818848 1_655
