# generated using pymatgen
data_TiMnAs
_symmetry_space_group_name_H-M   'P 1'
_cell_length_a   3.56494600
_cell_length_b   6.78527653
_cell_length_c   6.78527653
_cell_angle_alpha   120.00000517
_cell_angle_beta   90.00000000
_cell_angle_gamma   90.00000000
_symmetry_Int_Tables_number   1
_chemical_formula_structural   TiMnAs
_chemical_formula_sum   'Ti3 Mn3 As3'
_cell_volume   142.14077153
_cell_formula_units_Z   3
loop_
 _symmetry_equiv_pos_site_id
 _symmetry_equiv_pos_as_xyz
  1  'x, y, z'
loop_
 _atom_site_type_symbol
 _atom_site_label
 _atom_site_symmetry_multiplicity
 _atom_site_fract_x
 _atom_site_fract_y
 _atom_site_fract_z
 _atom_site_occupancy
  Ti  Ti0  1  0.00000000  0.00000000  0.26169600  1
  Ti  Ti1  1  0.00000000  0.26169600  0.00000000  1
  Ti  Ti2  1  0.00000000  0.73830400  0.73830400  1
  Mn  Mn0  1  0.50000000  0.00000000  0.60927800  1
  Mn  Mn1  1  0.50000000  0.60927800  0.00000000  1
  Mn  Mn2  1  0.50000000  0.39072200  0.39072200  1
  As  As0  1  0.00000000  0.33333300  0.66666700  1
  As  As1  1  0.00000000  0.66666700  0.33333300  1
  As  As2  1  0.50000000  0.00000000  0.00000000  1
loop_
_geom_bond_atom_site_label_1
_geom_bond_atom_site_label_2
_geom_bond_distance
_geom_bond_site_symmetry_2
As0 Ti1 2.539922 1_556
As0 Ti0 2.539926 1_555
As0 Ti2 2.539928 1_555
As0 Mn0 2.750210 1_455
As0 Mn0 2.750210 1_555
As0 Mn1 2.750212 1_456
As0 Mn1 2.750212 1_556
As0 Mn2 2.750215 1_555
As0 Mn2 2.750215 1_455
As1 Ti0 2.539922 1_565
As1 Ti1 2.539926 1_555
As1 Ti2 2.539928 1_555
As1 Mn1 2.750210 1_455
As1 Mn1 2.750210 1_555
As1 Mn0 2.750212 1_565
As1 Mn0 2.750212 1_465
As1 Mn2 2.750215 1_555
As1 Mn2 2.750215 1_455
As2 Ti2 2.515998 1_544
As2 Ti2 2.515998 1_644
As2 Ti1 2.515999 1_655
As2 Ti0 2.515999 1_555
As2 Ti0 2.515999 1_655
As2 Ti1 2.515999 1_555
As2 Mn2 2.651157 1_555
As2 Mn0 2.651157 1_554
As2 Mn1 2.651157 1_545
