# generated using pymatgen
data_Mg6AlCu
_symmetry_space_group_name_H-M   'P 1'
_cell_length_a   4.86510800
_cell_length_b   6.17793300
_cell_length_c   10.49070800
_cell_angle_alpha   90.00000000
_cell_angle_beta   90.00000000
_cell_angle_gamma   90.00000000
_symmetry_Int_Tables_number   1
_chemical_formula_structural   Mg6AlCu
_chemical_formula_sum   'Mg12 Al2 Cu2'
_cell_volume   315.31198500
_cell_formula_units_Z   2
loop_
 _symmetry_equiv_pos_site_id
 _symmetry_equiv_pos_as_xyz
  1  'x, y, z'
loop_
 _atom_site_type_symbol
 _atom_site_label
 _atom_site_symmetry_multiplicity
 _atom_site_fract_x
 _atom_site_fract_y
 _atom_site_fract_z
 _atom_site_occupancy
  Mg  Mg0  1  0.00000000  0.25001300  0.58406600  1
  Mg  Mg1  1  0.00000000  0.74998700  0.58406600  1
  Mg  Mg2  1  0.50000000  0.24504700  0.41254200  1
  Mg  Mg3  1  0.50000000  0.75495300  0.41254200  1
  Mg  Mg4  1  0.50000000  0.00000000  0.66923000  1
  Mg  Mg5  1  0.50000000  0.00000000  0.17249300  1
  Mg  Mg6  1  0.00000000  0.75001300  0.08406600  1
  Mg  Mg7  1  0.00000000  0.24998700  0.08406600  1
  Mg  Mg8  1  0.50000000  0.74504700  0.91254200  1
  Mg  Mg9  1  0.50000000  0.25495300  0.91254200  1
  Mg  Mg10  1  0.50000000  0.50000000  0.16923000  1
  Mg  Mg11  1  0.50000000  0.50000000  0.67249300  1
  Al  Al0  1  0.00000000  0.00000000  0.83230400  1
  Al  Al1  1  0.00000000  0.50000000  0.33230400  1
  Cu  Cu0  1  0.00000000  0.00000000  0.33276100  1
  Cu  Cu1  1  0.00000000  0.50000000  0.83276100  1
loop_
_geom_bond_atom_site_label_1
_geom_bond_atom_site_label_2
_geom_bond_distance
_geom_bond_site_symmetry_2
Mg0 Mg4 3.016822 1_555
Mg0 Mg4 3.016822 1_455
Mg0 Mg2 3.025910 1_555
Mg0 Mg2 3.025910 1_455
Mg0 Mg11 3.027054 1_455
Mg0 Mg11 3.027054 1_555
Mg0 Mg1 3.088806 1_555
Mg0 Mg1 3.089127 1_545
Mg1 Mg4 3.016822 1_565
Mg1 Mg4 3.016822 1_465
Mg1 Mg3 3.025910 1_455
Mg1 Mg3 3.025910 1_555
Mg1 Mg11 3.027054 1_455
Mg1 Mg11 3.027054 1_555
Mg2 Mg5 2.938299 1_555
Mg2 Mg3 3.027768 1_545
Mg2 Mg4 3.089211 1_555
Mg2 Mg3 3.150165 1_555
Mg3 Mg5 2.938299 1_565
Mg3 Mg4 3.089211 1_565
Mg4 Mg8 2.999370 1_545
Mg4 Mg9 2.999370 1_555
Mg5 Mg7 3.027054 1_555
Mg5 Mg7 3.027054 1_655
Mg5 Mg6 3.027054 1_645
Mg5 Mg6 3.027054 1_545
Mg5 Mg8 3.149253 1_544
Mg5 Mg9 3.149253 1_554
Mg6 Mg8 3.025910 1_454
Mg6 Mg8 3.025910 1_554
Mg6 Mg7 3.088806 1_565
Mg6 Mg7 3.089127 1_555
Mg7 Mg9 3.025910 1_554
Mg7 Mg9 3.025910 1_454
Mg8 Mg9 3.027768 1_555
Mg8 Mg9 3.150165 1_565
Mg10 Mg3 2.999370 1_555
Mg10 Mg2 2.999370 1_555
Mg10 Mg7 3.016822 1_655
Mg10 Mg6 3.016822 1_555
Mg10 Mg6 3.016822 1_655
Mg10 Mg7 3.016822 1_555
Mg10 Mg5 3.089156 1_565
Mg10 Mg5 3.089156 1_555
Mg10 Mg8 3.089211 1_554
Mg10 Mg9 3.089211 1_554
Mg11 Mg8 2.938299 1_555
Mg11 Mg9 2.938299 1_555
Mg11 Mg4 3.089156 1_555
Mg11 Mg4 3.089156 1_565
Mg11 Mg3 3.149253 1_555
Mg11 Mg2 3.149253 1_555
Al0 Mg4 2.973890 1_555
Al0 Mg4 2.973890 1_455
Al0 Mg8 3.017740 1_445
Al0 Mg8 3.017740 1_545
Al0 Mg9 3.017740 1_455
Al0 Mg9 3.017740 1_555
Al0 Mg0 3.027787 1_555
Al0 Mg1 3.027787 1_545
Al0 Mg6 3.059561 1_546
Al0 Mg7 3.059561 1_556
Al0 Cu1 3.088970 1_545
Al0 Cu1 3.088970 1_555
Al1 Mg10 2.973890 1_555
Al1 Mg10 2.973890 1_455
Al1 Mg2 3.017740 1_555
Al1 Mg3 3.017740 1_555
Al1 Mg2 3.017740 1_455
Al1 Mg3 3.017740 1_455
Al1 Mg6 3.027787 1_555
Al1 Mg7 3.027787 1_555
Al1 Mg1 3.059561 1_555
Al1 Mg0 3.059561 1_555
Al1 Cu0 3.088970 1_565
Al1 Cu0 3.088970 1_555
Cu0 Mg5 2.957055 1_555
Cu0 Mg5 2.957055 1_455
Cu0 Mg2 2.984906 1_555
Cu0 Mg3 2.984906 1_545
Cu0 Mg3 2.984906 1_445
Cu0 Mg2 2.984906 1_455
Cu0 Mg6 3.031830 1_545
Cu0 Mg7 3.031830 1_555
Cu0 Mg0 3.055505 1_555
Cu0 Mg1 3.055505 1_545
Cu1 Mg11 2.957055 1_555
Cu1 Mg11 2.957055 1_455
Cu1 Mg9 2.984906 1_455
Cu1 Mg9 2.984906 1_555
Cu1 Mg8 2.984906 1_455
Cu1 Mg8 2.984906 1_555
Cu1 Mg1 3.031830 1_555
Cu1 Mg0 3.031830 1_555
Cu1 Mg7 3.055505 1_556
Cu1 Mg6 3.055505 1_556
