# generated using pymatgen
data_CeMg14C
_symmetry_space_group_name_H-M   'P 1'
_cell_length_a   6.65800016
_cell_length_b   6.65800016
_cell_length_c   10.37020900
_cell_angle_alpha   90.00000000
_cell_angle_beta   90.00000000
_cell_angle_gamma   127.25243362
_symmetry_Int_Tables_number   1
_chemical_formula_structural   CeMg14C
_chemical_formula_sum   'Ce1 Mg14 C1'
_cell_volume   365.91081384
_cell_formula_units_Z   1
loop_
 _symmetry_equiv_pos_site_id
 _symmetry_equiv_pos_as_xyz
  1  'x, y, z'
loop_
 _atom_site_type_symbol
 _atom_site_label
 _atom_site_symmetry_multiplicity
 _atom_site_fract_x
 _atom_site_fract_y
 _atom_site_fract_z
 _atom_site_occupancy
  Ce  Ce0  1  0.80348800  0.19651200  0.50000000  1
  Mg  Mg0  1  0.82705400  0.17294600  0.00000000  1
  Mg  Mg1  1  0.31821100  0.68178900  0.00000000  1
  Mg  Mg2  1  0.30637300  0.22665300  0.50000000  1
  Mg  Mg3  1  0.32307100  0.17048800  0.00000000  1
  Mg  Mg4  1  0.77334700  0.69362700  0.50000000  1
  Mg  Mg5  1  0.82951200  0.67692900  0.00000000  1
  Mg  Mg6  1  0.16910100  0.32674200  0.24557000  1
  Mg  Mg7  1  0.16910100  0.32674200  0.75443000  1
  Mg  Mg8  1  0.67325800  0.83089900  0.24557000  1
  Mg  Mg9  1  0.67325800  0.83089900  0.75443000  1
  Mg  Mg10  1  0.66082800  0.33917200  0.24311800  1
  Mg  Mg11  1  0.66082800  0.33917200  0.75688200  1
  Mg  Mg12  1  0.21800700  0.78199300  0.35142300  1
  Mg  Mg13  1  0.21800700  0.78199300  0.64857700  1
  C  C0  1  0.37656500  0.62343500  0.50000000  1
loop_
_geom_bond_atom_site_label_1
_geom_bond_atom_site_label_2
_geom_bond_distance
_geom_bond_site_symmetry_2
Ce0 Mg10 3.161179 1_555
Ce0 Mg11 3.161179 1_555
Ce0 Mg4 3.230683 1_545
Ce0 Mg2 3.230683 1_655
Ce0 Mg6 3.329225 1_655
Ce0 Mg8 3.329225 1_545
Ce0 Mg9 3.329225 1_545
Ce0 Mg7 3.329225 1_655
Ce0 Mg4 3.434984 1_555
Ce0 Mg2 3.434984 1_555
Ce0 Mg13 3.487357 1_545
Ce0 Mg12 3.487357 1_545
Ce0 Mg13 3.487357 1_655
Ce0 Mg12 3.487357 1_655
Mg0 Mg1 2.959533 1_655
Mg0 Mg1 2.959533 1_545
Mg0 Mg9 3.145933 1_544
Mg0 Mg7 3.145933 1_654
Mg0 Mg6 3.145933 1_655
Mg0 Mg8 3.145933 1_545
Mg0 Mg11 3.207642 1_554
Mg0 Mg10 3.207642 1_555
Mg0 Mg5 3.312413 1_545
Mg0 Mg3 3.312413 1_655
Mg0 Mg3 3.345638 1_555
Mg0 Mg5 3.345638 1_555
Mg1 Mg9 3.196510 1_554
Mg1 Mg7 3.196510 1_554
Mg1 Mg6 3.196510 1_555
Mg1 Mg8 3.196510 1_555
Mg1 Mg3 3.234273 1_565
Mg1 Mg5 3.234273 1_455
Mg1 Mg5 3.423926 1_555
Mg1 Mg3 3.423926 1_555
Mg3 Mg5 2.919552 1_445
Mg3 Mg5 2.995752 1_555
Mg3 Mg7 3.147949 1_554
Mg3 Mg6 3.147949 1_555
Mg5 Mg9 3.147949 1_554
Mg5 Mg8 3.147949 1_555
Mg10 Mg3 3.101148 1_555
Mg10 Mg5 3.101148 1_555
Mg10 Mg6 3.224595 1_555
Mg10 Mg8 3.224595 1_555
Mg10 Mg12 3.236431 1_545
Mg10 Mg12 3.236431 1_655
Mg10 Mg2 3.329672 1_555
Mg10 Mg4 3.329672 1_555
Mg10 Mg6 3.434904 1_655
Mg10 Mg8 3.434904 1_545
Mg11 Mg3 3.101148 1_556
Mg11 Mg5 3.101148 1_556
Mg11 Mg7 3.224595 1_555
Mg11 Mg9 3.224595 1_555
Mg11 Mg13 3.236431 1_545
Mg11 Mg13 3.236431 1_655
Mg11 Mg2 3.329672 1_555
Mg11 Mg4 3.329672 1_555
Mg11 Mg7 3.434904 1_655
Mg11 Mg9 3.434904 1_545
C0 Mg2 2.388033 1_555
C0 Mg4 2.388033 1_555
C0 Mg13 2.439699 1_555
C0 Mg12 2.439699 1_555
C0 Ce0 3.083465 1_455
C0 Ce0 3.083465 1_565
