# generated using pymatgen
data_CaMn2O4
_symmetry_space_group_name_H-M   'P 1'
_cell_length_a   6.05420500
_cell_length_b   6.47265827
_cell_length_c   15.56623652
_cell_angle_alpha   93.84942794
_cell_angle_beta   90.19072695
_cell_angle_gamma   117.81207565
_symmetry_Int_Tables_number   1
_chemical_formula_structural   CaMn2O4
_chemical_formula_sum   'Ca6 Mn12 O24'
_cell_volume   537.89409280
_cell_formula_units_Z   6
loop_
 _symmetry_equiv_pos_site_id
 _symmetry_equiv_pos_as_xyz
  1  'x, y, z'
loop_
 _atom_site_type_symbol
 _atom_site_label
 _atom_site_symmetry_multiplicity
 _atom_site_fract_x
 _atom_site_fract_y
 _atom_site_fract_z
 _atom_site_occupancy
  Ca  Ca0  1  0.33874400  0.17058700  0.95034700  1
  Ca  Ca1  1  0.00053800  0.48744900  0.61573100  1
  Ca  Ca2  1  0.66499900  0.83028400  0.66472800  1
  Ca  Ca3  1  0.66458200  0.82187500  0.27517600  1
  Ca  Ca4  1  0.01036400  0.51765000  0.00562400  1
  Ca  Ca5  1  0.99205400  0.49236200  0.38043900  1
  Mn  Mn0  1  0.33217200  0.66396900  0.83406100  1
  Mn  Mn1  1  0.83515800  0.66848200  0.83380300  1
  Mn  Mn2  1  0.99204400  0.98159300  0.49772000  1
  Mn  Mn3  1  0.83726800  0.17898000  0.83178800  1
  Mn  Mn4  1  0.49176700  0.98769000  0.49628000  1
  Mn  Mn5  1  0.32789500  0.15920000  0.33511200  1
  Mn  Mn6  1  0.32423500  0.16420200  0.71939600  1
  Mn  Mn7  1  0.66794300  0.33812800  0.16936200  1
  Mn  Mn8  1  0.49903400  0.49808700  0.48971600  1
  Mn  Mn9  1  0.17026700  0.33763300  0.16923100  1
  Mn  Mn10  1  0.17797900  0.85280500  0.17268400  1
  Mn  Mn11  1  0.67530800  0.84618100  0.04771600  1
  O  O0  1  0.70927900  0.37915300  0.89254100  1
  O  O1  1  0.01373500  0.53461000  0.75958500  1
  O  O2  1  0.14051000  0.34349300  0.89999800  1
  O  O3  1  0.14560100  0.79181700  0.90394100  1
  O  O4  1  0.36073700  0.67529000  0.55181800  1
  O  O5  1  0.51480400  0.53231000  0.75941500  1
  O  O6  1  0.69883900  0.83267000  0.42006700  1
  O  O7  1  0.52531600  0.00942400  0.76362600  1
  O  O8  1  0.65335600  0.79919700  0.91030700  1
  O  O9  1  0.82620200  0.68289900  0.55333300  1
  O  O10  1  0.80532100  0.11188700  0.56318200  1
  O  O11  1  0.97063500  0.97177800  0.77324500  1
  O  O12  1  0.05649400  0.02925800  0.25013400  1
  O  O13  1  0.18656600  0.87406100  0.42706600  1
  O  O14  1  0.17314700  0.28003300  0.42784100  1
  O  O15  1  0.35193600  0.20390000  0.09852400  1
  O  O16  1  0.27831500  0.12560000  0.58203700  1
  O  O17  1  0.47310500  0.02722100  0.25271400  1
  O  O18  1  0.47168100  0.44225200  0.24870300  1
  O  O19  1  0.60580600  0.28600300  0.42778500  1
  O  O20  1  0.84918500  0.20235100  0.09485500  1
  O  O21  1  0.85933600  0.69364400  0.10670300  1
  O  O22  1  0.99045800  0.47853400  0.23748300  1
  O  O23  1  0.33728600  0.69546000  0.10618300  1
loop_
_geom_bond_atom_site_label_1
_geom_bond_atom_site_label_2
_geom_bond_distance
_geom_bond_site_symmetry_2
Ca0 O2 2.161484 1_555
Ca0 O3 2.231857 1_545
Ca0 O0 2.239440 1_555
Ca0 O15 2.299784 1_556
Ca1 O4 2.219527 1_555
Ca1 O1 2.235653 1_555
Ca1 O10 2.240710 1_455
Ca1 O9 2.249891 1_455
Ca2 O7 2.261326 1_565
Ca2 O11 2.303517 1_555
Ca2 O5 2.339486 1_555
Ca2 O10 2.343809 1_565
Ca2 O4 2.346486 1_555
Ca2 O9 2.351014 1_555
Ca3 O12 2.165167 1_665
Ca3 O17 2.174896 1_565
Ca3 O18 2.180470 1_555
Ca3 O6 2.257646 1_555
Ca4 O2 2.276736 1_554
Ca4 O23 2.303064 1_555
Ca4 O21 2.313055 1_455
Ca4 O3 2.314045 1_554
Ca4 O0 2.338127 1_454
Ca4 O20 2.361731 1_455
Ca5 O22 2.220881 1_555
Ca5 O19 2.241543 1_555
Ca5 O13 2.248576 1_655
Ca5 O14 2.274226 1_655
Mn0 O3 1.975708 1_555
Mn0 O5 2.013399 1_555
Mn0 O1 2.027386 1_555
Mn0 O8 2.052519 1_555
Mn0 O2 2.179566 1_555
Mn0 O7 2.338175 1_565
Mn1 O0 1.956185 1_555
Mn1 O3 1.957286 1_655
Mn1 O1 2.000625 1_655
Mn1 O8 2.021863 1_555
Mn1 O5 2.032767 1_555
Mn1 O11 2.041158 1_555
Mn2 O13 1.936927 1_655
Mn2 O6 1.942654 1_555
Mn2 O10 1.951780 1_565
Mn2 O16 1.976962 1_665
Mn2 O9 1.978498 1_555
Mn2 O14 2.104881 1_665
Mn3 O2 1.908590 1_655
Mn3 O7 1.947635 1_555
Mn3 O0 1.987633 1_555
Mn3 O11 2.032822 1_545
Mn3 O1 2.400785 1_655
Mn3 O8 2.575811 1_545
Mn4 O13 1.930835 1_555
Mn4 O10 1.945459 1_565
Mn4 O4 2.051308 1_555
Mn4 O19 2.092631 1_565
Mn4 O6 2.238249 1_555
Mn4 O16 2.275241 1_565
Mn5 O12 1.924464 1_555
Mn5 O17 1.925861 1_555
Mn5 O14 2.028333 1_555
Mn5 O19 2.030221 1_555
Mn5 O18 2.184949 1_555
Mn5 O13 2.253106 1_545
Mn6 O7 2.045681 1_555
Mn6 O11 2.121515 1_445
Mn6 O16 2.137978 1_555
Mn6 O5 2.151022 1_555
Mn7 O15 1.984244 1_555
Mn7 O22 1.990938 1_555
Mn7 O18 2.009146 1_555
Mn7 O20 2.023108 1_555
Mn7 O17 2.295709 1_555
Mn7 O21 2.325932 1_555
Mn8 O4 1.924508 1_555
Mn8 O19 1.971334 1_555
Mn8 O9 1.987919 1_555
Mn8 O14 2.004672 1_555
Mn8 O6 2.282136 1_555
Mn8 O16 2.671206 1_555
Mn9 O15 1.984672 1_555
Mn9 O22 1.987357 1_455
Mn9 O18 2.009551 1_555
Mn9 O20 2.036275 1_455
Mn9 O12 2.259382 1_555
Mn9 O23 2.340160 1_555
Mn10 O23 1.954661 1_555
Mn10 O21 1.956516 1_455
Mn10 O12 1.975794 1_565
Mn10 O17 1.983175 1_565
Mn10 O15 2.394393 1_565
Mn10 O22 2.438087 1_455
Mn11 O21 2.049538 1_555
Mn11 O23 2.058310 1_555
Mn11 O20 2.112920 1_565
Mn11 O8 2.135010 1_554
