# generated using pymatgen
data_MnFeCo(PO4)3
_symmetry_space_group_name_H-M   'P 1'
_cell_length_a   5.98821400
_cell_length_b   9.88604200
_cell_length_c   14.61202251
_cell_angle_alpha   89.70819145
_cell_angle_beta   90.00000000
_cell_angle_gamma   90.00000000
_symmetry_Int_Tables_number   1
_chemical_formula_structural   MnFeCo(PO4)3
_chemical_formula_sum   'Mn4 Fe4 Co4 P12 O48'
_cell_volume   865.01664306
_cell_formula_units_Z   4
loop_
 _symmetry_equiv_pos_site_id
 _symmetry_equiv_pos_as_xyz
  1  'x, y, z'
loop_
 _atom_site_type_symbol
 _atom_site_label
 _atom_site_symmetry_multiplicity
 _atom_site_fract_x
 _atom_site_fract_y
 _atom_site_fract_z
 _atom_site_occupancy
  Mn  Mn0  1  0.00000000  0.21218800  0.47818500  1
  Mn  Mn1  1  0.00000000  0.21614400  0.81170100  1
  Mn  Mn2  1  0.00000000  0.21726000  0.14578600  1
  Mn  Mn3  1  0.50000000  0.28632000  0.31157100  1
  Fe  Fe0  1  0.50000000  0.27681100  0.65354100  1
  Fe  Fe1  1  0.50000000  0.27923500  0.98644000  1
  Fe  Fe2  1  0.00000000  0.72319300  0.34778900  1
  Fe  Fe3  1  0.00000000  0.72857800  0.00987000  1
  Co  Co0  1  0.00000000  0.72601500  0.67707700  1
  Co  Co1  1  0.50000000  0.77864100  0.18398300  1
  Co  Co2  1  0.50000000  0.77690400  0.51364400  1
  Co  Co3  1  0.50000000  0.76972800  0.84115200  1
  P  P0  1  0.50000000  0.09760500  0.47203300  1
  P  P1  1  0.50000000  0.09484200  0.80585400  1
  P  P2  1  0.50000000  0.09794100  0.13862300  1
  P  P3  1  0.00000000  0.39982400  0.30537100  1
  P  P4  1  0.00000000  0.40031900  0.63934800  1
  P  P5  1  0.00000000  0.39996300  0.97175400  1
  P  P6  1  0.50000000  0.60440200  0.03046000  1
  P  P7  1  0.50000000  0.59878700  0.36276700  1
  P  P8  1  0.50000000  0.59945500  0.69562700  1
  P  P9  1  0.00000000  0.90037100  0.52948900  1
  P  P10  1  0.00000000  0.89993400  0.86027400  1
  P  P11  1  0.00000000  0.90306600  0.19334300  1
  O  O0  1  0.00000000  0.05415800  0.21806300  1
  O  O1  1  0.00000000  0.05266900  0.55190400  1
  O  O2  1  0.00000000  0.05281700  0.88048600  1
  O  O3  1  0.50000000  0.12111600  0.24246100  1
  O  O4  1  0.50000000  0.11934000  0.57506600  1
  O  O5  1  0.50000000  0.12000700  0.90839700  1
  O  O6  1  0.29863200  0.16788600  0.42292400  1
  O  O7  1  0.70136800  0.16788600  0.42292400  1
  O  O8  1  0.30147200  0.17290600  0.08891300  1
  O  O9  1  0.69852800  0.17290600  0.08891300  1
  O  O10  1  0.30152600  0.16865500  0.75499400  1
  O  O11  1  0.69847400  0.16865500  0.75499400  1
  O  O12  1  0.79613100  0.33059600  0.59287800  1
  O  O13  1  0.20386900  0.33059600  0.59287800  1
  O  O14  1  0.79645700  0.32816000  0.92571100  1
  O  O15  1  0.20354300  0.32816000  0.92571100  1
  O  O16  1  0.79911800  0.32843400  0.25679300  1
  O  O17  1  0.20088200  0.32843400  0.25679300  1
  O  O18  1  0.00000000  0.37984900  0.07717200  1
  O  O19  1  0.00000000  0.38019600  0.74446600  1
  O  O20  1  0.00000000  0.37705700  0.40968600  1
  O  O21  1  0.50000000  0.45243700  0.04961500  1
  O  O22  1  0.50000000  0.44815000  0.71778700  1
  O  O23  1  0.50000000  0.44615800  0.38532400  1
  O  O24  1  0.00000000  0.55231800  0.95301000  1
  O  O25  1  0.00000000  0.55183400  0.28580900  1
  O  O26  1  0.00000000  0.55486500  0.62150200  1
  O  O27  1  0.50000000  0.62227600  0.59080300  1
  O  O28  1  0.50000000  0.62797900  0.92578700  1
  O  O29  1  0.50000000  0.61807700  0.25847000  1
  O  O30  1  0.29824300  0.67688400  0.07800300  1
  O  O31  1  0.70175700  0.67688400  0.07800300  1
  O  O32  1  0.29741000  0.67096200  0.41064800  1
  O  O33  1  0.70259000  0.67096200  0.41064800  1
  O  O34  1  0.29918700  0.67204500  0.74428700  1
  O  O35  1  0.70081300  0.67204500  0.74428700  1
  O  O36  1  0.79875000  0.82835400  0.57839700  1
  O  O37  1  0.20125000  0.82835400  0.57839700  1
  O  O38  1  0.79877200  0.82801900  0.24238300  1
  O  O39  1  0.20122800  0.82801900  0.24238300  1
  O  O40  1  0.79999300  0.82965600  0.91036600  1
  O  O41  1  0.20000700  0.82965600  0.91036600  1
  O  O42  1  0.00000000  0.87671800  0.75620400  1
  O  O43  1  0.00000000  0.88474700  0.09039100  1
  O  O44  1  0.00000000  0.88065000  0.42551100  1
  O  O45  1  0.50000000  0.94754900  0.11647300  1
  O  O46  1  0.50000000  0.94335600  0.45216100  1
  O  O47  1  0.50000000  0.94278300  0.78470800  1
loop_
_geom_bond_atom_site_label_1
_geom_bond_atom_site_label_2
_geom_bond_distance
_geom_bond_site_symmetry_2
Mn0 O1 1.905252 1_555
Mn0 O20 1.908345 1_555
Mn0 O6 2.011307 1_555
Mn0 O7 2.011307 1_455
Mn0 O13 2.385218 1_555
Mn0 O12 2.385218 1_455
Mn1 O19 1.891897 1_555
Mn1 O2 1.897575 1_555
Mn1 O10 2.042341 1_555
Mn1 O11 2.042341 1_455
Mn1 O14 2.346489 1_455
Mn1 O15 2.346489 1_555
Mn2 O18 1.890075 1_555
Mn2 O0 1.923011 1_555
Mn2 O8 2.036080 1_555
Mn2 O9 2.036080 1_455
Mn2 O17 2.303073 1_555
Mn2 O16 2.303073 1_455
Mn3 O23 1.917202 1_555
Mn3 O3 1.924567 1_555
Mn3 O16 2.004731 1_555
Mn3 O17 2.004731 1_555
Mn3 O7 2.335152 1_555
Mn3 O6 2.335152 1_555
Fe0 O4 1.938188 1_555
Fe0 O22 1.940786 1_555
Fe0 O12 2.051396 1_555
Fe0 O13 2.051396 1_555
Fe0 O11 2.176527 1_555
Fe0 O10 2.176527 1_555
Fe1 O5 1.948492 1_555
Fe1 O21 1.949398 1_556
Fe1 O15 2.041692 1_555
Fe1 O14 2.041692 1_555
Fe1 O9 2.178133 1_556
Fe1 O8 2.178133 1_556
Fe2 O25 1.925015 1_555
Fe2 O44 1.931541 1_555
Fe2 O32 2.068147 1_555
Fe2 O33 2.068147 1_455
Fe2 O39 2.209503 1_555
Fe2 O38 2.209503 1_455
Fe3 O24 1.934269 1_554
Fe3 O43 1.945877 1_555
Fe3 O31 2.106353 1_455
Fe3 O30 2.106353 1_555
Fe3 O40 2.128886 1_454
Fe3 O41 2.128886 1_554
Co0 O26 1.880503 1_555
Co0 O42 1.890510 1_555
Co0 O34 2.110361 1_555
Co0 O35 2.110361 1_455
Co0 O37 2.130771 1_555
Co0 O36 2.130771 1_455
Co1 O29 1.920074 1_555
Co1 O45 1.935112 1_555
Co1 O38 2.042461 1_555
Co1 O39 2.042461 1_555
Co1 O31 2.210344 1_555
Co1 O30 2.210344 1_555
Co2 O46 1.870799 1_555
Co2 O27 1.894831 1_555
Co2 O37 2.087894 1_555
Co2 O36 2.087894 1_555
Co2 O33 2.202202 1_555
Co2 O32 2.202202 1_555
Co3 O28 1.864267 1_555
Co3 O47 1.895467 1_555
Co3 O35 2.096633 1_555
Co3 O34 2.096633 1_555
Co3 O41 2.146410 1_555
Co3 O40 2.146410 1_555
O0 P11 1.538543 1_545
O1 P9 1.542466 1_545
O2 P10 1.541468 1_545
O3 P2 1.535637 1_555
O4 P0 1.521860 1_555
O5 P1 1.520123 1_555
O6 P0 1.564171 1_555
O7 P0 1.564171 1_555
O8 P2 1.576285 1_555
O9 P2 1.576285 1_555
O10 P1 1.578546 1_555
O11 P1 1.578546 1_555
O12 P4 1.559272 1_655
O13 P4 1.559272 1_555
O14 P5 1.564289 1_655
O15 P5 1.564289 1_555
O16 P3 1.566551 1_655
O17 P3 1.566551 1_555
O18 P5 1.552147 1_554
O19 P4 1.547811 1_555
O20 P3 1.539647 1_555
O21 P6 1.526781 1_555
O22 P8 1.528841 1_555
O23 P7 1.542836 1_555
O24 P5 1.529514 1_555
O25 P3 1.528289 1_555
O26 P4 1.548632 1_555
O27 P8 1.547080 1_555
O28 P6 1.545968 1_556
O29 P7 1.534911 1_555
O30 P6 1.568693 1_555
O31 P6 1.568693 1_555
O32 P7 1.573352 1_555
O33 P7 1.573352 1_555
O34 P8 1.572187 1_555
O35 P8 1.572187 1_555
O36 P9 1.569955 1_655
O37 P9 1.569955 1_555
O38 P11 1.584462 1_655
O39 P11 1.584462 1_555
O40 P10 1.564519 1_655
O41 P10 1.564519 1_555
O42 P10 1.539051 1_555
O43 P11 1.516114 1_555
O44 P9 1.532771 1_555
O45 P2 1.523212 1_565
O46 P0 1.553764 1_565
O47 P1 1.536229 1_565
