# generated using pymatgen
data_NbBRu
_symmetry_space_group_name_H-M   'P 1'
_cell_length_a   3.17466400
_cell_length_b   6.41130900
_cell_length_c   10.96051200
_cell_angle_alpha   90.00000000
_cell_angle_beta   90.00000000
_cell_angle_gamma   90.00000000
_symmetry_Int_Tables_number   1
_chemical_formula_structural   NbBRu
_chemical_formula_sum   'Nb6 B6 Ru6'
_cell_volume   223.08754167
_cell_formula_units_Z   6
loop_
 _symmetry_equiv_pos_site_id
 _symmetry_equiv_pos_as_xyz
  1  'x, y, z'
loop_
 _atom_site_type_symbol
 _atom_site_label
 _atom_site_symmetry_multiplicity
 _atom_site_fract_x
 _atom_site_fract_y
 _atom_site_fract_z
 _atom_site_occupancy
  Nb  Nb0  1  0.00000000  0.27801100  0.95629700  1
  Nb  Nb1  1  0.00000000  0.72198900  0.04370300  1
  Nb  Nb2  1  0.00000000  0.27801100  0.54370300  1
  Nb  Nb3  1  0.00000000  0.72198900  0.45629700  1
  Nb  Nb4  1  0.00000000  0.35670200  0.25000000  1
  Nb  Nb5  1  0.00000000  0.64329800  0.75000000  1
  B  B0  1  0.00000000  0.95140300  0.25000000  1
  B  B1  1  0.00000000  0.04859700  0.75000000  1
  B  B2  1  0.50000000  0.45119900  0.08255300  1
  B  B3  1  0.50000000  0.54880100  0.91744700  1
  B  B4  1  0.50000000  0.45119900  0.41744700  1
  B  B5  1  0.50000000  0.54880100  0.58255300  1
  Ru  Ru0  1  0.50000000  0.07209100  0.12545000  1
  Ru  Ru1  1  0.50000000  0.92790900  0.87455000  1
  Ru  Ru2  1  0.50000000  0.07209100  0.37455000  1
  Ru  Ru3  1  0.50000000  0.92790900  0.62545000  1
  Ru  Ru4  1  0.50000000  0.70385300  0.25000000  1
  Ru  Ru5  1  0.50000000  0.29614700  0.75000000  1
loop_
_geom_bond_atom_site_label_1
_geom_bond_atom_site_label_2
_geom_bond_distance
_geom_bond_site_symmetry_2
Nb0 Ru5 2.765106 1_455
Nb0 Ru5 2.765106 1_555
Nb0 Ru0 2.774874 1_456
Nb0 Ru0 2.774874 1_556
Nb0 Ru1 2.891488 1_445
Nb0 Ru1 2.891488 1_545
Nb1 Ru4 2.765106 1_455
Nb1 Ru4 2.765106 1_555
Nb1 Ru1 2.774874 1_554
Nb1 Ru1 2.774874 1_454
Nb1 Ru0 2.891488 1_565
Nb1 Ru0 2.891488 1_465
Nb2 Ru5 2.765106 1_455
Nb2 Ru5 2.765106 1_555
Nb2 Ru2 2.774874 1_555
Nb2 Ru2 2.774874 1_455
Nb2 Ru3 2.891488 1_445
Nb2 Ru3 2.891488 1_545
Nb3 Ru4 2.765106 1_455
Nb3 Ru4 2.765106 1_555
Nb3 Ru3 2.774874 1_455
Nb3 Ru3 2.774874 1_555
Nb3 Ru2 2.891488 1_465
Nb3 Ru2 2.891488 1_565
Nb4 Ru4 2.733739 1_455
Nb4 Ru4 2.733739 1_555
Nb4 Ru0 2.777201 1_555
Nb4 Ru0 2.777201 1_455
Nb4 Ru2 2.777201 1_455
Nb4 Ru2 2.777201 1_555
Nb5 Ru5 2.733739 1_455
Nb5 Ru5 2.733739 1_555
Nb5 Ru3 2.777201 1_455
Nb5 Ru1 2.777201 1_455
Nb5 Ru1 2.777201 1_555
Nb5 Ru3 2.777201 1_555
B0 Ru2 2.232023 1_465
B0 Ru0 2.232023 1_565
B0 Ru0 2.232023 1_465
B0 Ru2 2.232023 1_565
B0 Ru4 2.244676 1_455
B0 Ru4 2.244676 1_555
B0 Nb4 2.598497 1_565
B0 Nb3 2.697415 1_555
B0 Nb1 2.697415 1_555
B1 Ru3 2.232023 1_445
B1 Ru3 2.232023 1_545
B1 Ru1 2.232023 1_445
B1 Ru1 2.232023 1_545
B1 Ru5 2.244676 1_455
B1 Ru5 2.244676 1_555
B1 Nb5 2.598497 1_545
B1 Nb2 2.697415 1_555
B1 Nb0 2.697415 1_555
B2 B3 1.914782 1_554
B2 Nb0 2.380654 1_554
B2 Nb0 2.380654 1_654
B2 Nb1 2.390617 1_655
B2 Nb1 2.390617 1_555
B2 Ru4 2.447904 1_555
B2 Ru0 2.475636 1_555
B2 Nb4 2.501004 1_655
B2 Nb4 2.501004 1_555
B3 Nb1 2.380654 1_656
B3 Nb1 2.380654 1_556
B3 Nb0 2.390617 1_555
B3 Nb0 2.390617 1_655
B3 Ru5 2.447904 1_555
B3 Ru1 2.475636 1_555
B3 Nb5 2.501004 1_555
B3 Nb5 2.501004 1_655
B4 B5 1.914782 1_555
B4 Nb2 2.380654 1_555
B4 Nb2 2.380654 1_655
B4 Nb3 2.390617 1_555
B4 Nb3 2.390617 1_655
B4 Ru4 2.447904 1_555
B4 Ru2 2.475636 1_555
B4 Nb4 2.501004 1_655
B4 Nb4 2.501004 1_555
B5 Nb3 2.380654 1_655
B5 Nb3 2.380654 1_555
B5 Nb2 2.390617 1_555
B5 Nb2 2.390617 1_655
B5 Ru5 2.447904 1_555
B5 Ru3 2.475636 1_555
B5 Nb5 2.501004 1_555
B5 Nb5 2.501004 1_655
