# generated using pymatgen
data_Li5La5(SiN3)4
_symmetry_space_group_name_H-M   'P 1'
_cell_length_a   11.06710800
_cell_length_b   11.06710800
_cell_length_c   5.60835800
_cell_angle_alpha   90.00000000
_cell_angle_beta   90.00000000
_cell_angle_gamma   90.00000000
_symmetry_Int_Tables_number   1
_chemical_formula_structural   Li5La5(SiN3)4
_chemical_formula_sum   'Li10 La10 Si8 N24'
_cell_volume   686.91662030
_cell_formula_units_Z   2
loop_
 _symmetry_equiv_pos_site_id
 _symmetry_equiv_pos_as_xyz
  1  'x, y, z'
loop_
 _atom_site_type_symbol
 _atom_site_label
 _atom_site_symmetry_multiplicity
 _atom_site_fract_x
 _atom_site_fract_y
 _atom_site_fract_z
 _atom_site_occupancy
  Li  Li0  1  0.28919600  0.88288500  0.85313600  1
  Li  Li1  1  0.21080400  0.38288500  0.85313600  1
  Li  Li2  1  0.71080400  0.11711500  0.85313600  1
  Li  Li3  1  0.78919600  0.61711500  0.85313600  1
  Li  Li4  1  0.88288500  0.71080400  0.14686400  1
  Li  Li5  1  0.61711500  0.21080400  0.14686400  1
  Li  Li6  1  0.11711500  0.28919600  0.14686400  1
  Li  Li7  1  0.38288500  0.78919600  0.14686400  1
  Li  Li8  1  0.50000000  0.00000000  0.00000000  1
  Li  Li9  1  0.00000000  0.50000000  0.00000000  1
  La  La0  1  0.37648000  0.61676400  0.73302000  1
  La  La1  1  0.12352000  0.11676400  0.73302000  1
  La  La2  1  0.62352000  0.38323600  0.73302000  1
  La  La3  1  0.87648000  0.88323600  0.73302000  1
  La  La4  1  0.61676400  0.62352000  0.26698000  1
  La  La5  1  0.88323600  0.12352000  0.26698000  1
  La  La6  1  0.38323600  0.37648000  0.26698000  1
  La  La7  1  0.11676400  0.87648000  0.26698000  1
  La  La8  1  0.50000000  0.00000000  0.50000000  1
  La  La9  1  0.00000000  0.50000000  0.50000000  1
  Si  Si0  1  0.60777600  0.76877500  0.76178900  1
  Si  Si1  1  0.89222400  0.26877500  0.76178900  1
  Si  Si2  1  0.39222400  0.23122500  0.76178900  1
  Si  Si3  1  0.10777600  0.73122500  0.76178900  1
  Si  Si4  1  0.76877500  0.39222400  0.23821100  1
  Si  Si5  1  0.73122500  0.89222400  0.23821100  1
  Si  Si6  1  0.23122500  0.60777600  0.23821100  1
  Si  Si7  1  0.26877500  0.10777600  0.23821100  1
  N  N0  1  0.46591500  0.83237100  0.79801700  1
  N  N1  1  0.03408500  0.33237100  0.79801700  1
  N  N2  1  0.53408500  0.16762900  0.79801700  1
  N  N3  1  0.96591500  0.66762900  0.79801700  1
  N  N4  1  0.83237100  0.53408500  0.20198300  1
  N  N5  1  0.66762900  0.03408500  0.20198300  1
  N  N6  1  0.16762900  0.46591500  0.20198300  1
  N  N7  1  0.33237100  0.96591500  0.20198300  1
  N  N8  1  0.60416100  0.60905800  0.73669000  1
  N  N9  1  0.89583900  0.10905800  0.73669000  1
  N  N10  1  0.39583900  0.39094200  0.73669000  1
  N  N11  1  0.10416100  0.89094200  0.73669000  1
  N  N12  1  0.60905800  0.39583900  0.26331000  1
  N  N13  1  0.89094200  0.89583900  0.26331000  1
  N  N14  1  0.39094200  0.60416100  0.26331000  1
  N  N15  1  0.10905800  0.10416100  0.26331000  1
  N  N16  1  0.20957200  0.70957200  0.00000000  1
  N  N17  1  0.29042800  0.20957200  0.00000000  1
  N  N18  1  0.79042800  0.29042800  0.00000000  1
  N  N19  1  0.70957200  0.79042800  0.00000000  1
  N  N20  1  0.67227000  0.82773000  0.50000000  1
  N  N21  1  0.82773000  0.32773000  0.50000000  1
  N  N22  1  0.32773000  0.17227000  0.50000000  1
  N  N23  1  0.17227000  0.67227000  0.50000000  1
loop_
_geom_bond_atom_site_label_1
_geom_bond_atom_site_label_2
_geom_bond_distance
_geom_bond_site_symmetry_2
Li0 N0 2.057455 1_555
Li0 N11 2.151266 1_555
Li0 N7 2.213691 1_556
Li0 N16 2.265824 1_556
Li1 N1 2.057455 1_555
Li1 N10 2.151266 1_555
Li1 N6 2.213691 1_556
Li1 N17 2.265824 1_556
Li2 N2 2.057455 1_555
Li2 N9 2.151266 1_555
Li2 N5 2.213691 1_556
Li2 N18 2.265824 1_556
Li3 N3 2.057455 1_555
Li3 N8 2.151266 1_555
Li3 N4 2.213691 1_556
Li3 N19 2.265824 1_556
Li4 N4 2.057455 1_555
Li4 N13 2.151266 1_555
Li4 N3 2.213691 1_554
Li4 N19 2.265824 1_555
Li5 N5 2.057455 1_555
Li5 N12 2.151266 1_555
Li5 N2 2.213691 1_554
Li5 N18 2.265824 1_555
Li6 N6 2.057455 1_555
Li6 N15 2.151266 1_555
Li6 N1 2.213691 1_554
Li6 N17 2.265824 1_555
Li7 N7 2.057455 1_555
Li7 N14 2.151266 1_555
Li7 N0 2.213691 1_554
Li7 N16 2.265824 1_555
Li8 N7 2.206165 1_545
Li8 N0 2.206165 1_544
Li8 N5 2.206165 1_555
Li8 N2 2.206165 1_554
Li9 N6 2.206165 1_555
Li9 N1 2.206165 1_554
Li9 N3 2.206165 1_454
Li9 N4 2.206165 1_455
La0 N10 2.508448 1_555
La0 N8 2.521297 1_555
La0 N16 2.590181 1_556
La0 N0 2.608879 1_555
La0 N14 2.642843 1_555
La0 N23 2.681958 1_555
La0 N14 2.981624 1_556
La1 N11 2.508448 1_545
La1 N9 2.521297 1_455
La1 N17 2.590181 1_556
La1 N1 2.608879 1_555
La1 N15 2.642843 1_555
La1 N22 2.681958 1_555
La1 N15 2.981624 1_556
La2 N8 2.508448 1_555
La2 N10 2.521297 1_555
La2 N18 2.590181 1_556
La2 N2 2.608879 1_555
La2 N12 2.642843 1_555
La2 N21 2.681958 1_555
La2 N12 2.981624 1_556
La3 N9 2.508448 1_565
La3 N11 2.521297 1_655
La3 N19 2.590181 1_556
La3 N3 2.608879 1_555
La3 N13 2.642843 1_555
La3 N20 2.681958 1_555
La3 N13 2.981624 1_556
La4 N14 2.508448 1_555
La4 N12 2.521297 1_555
La4 N19 2.590181 1_555
La4 N4 2.608879 1_555
La4 N8 2.642843 1_555
La4 N20 2.681958 1_555
La4 N8 2.981624 1_554
La5 N15 2.508448 1_655
La5 N13 2.521297 1_545
La5 N18 2.590181 1_555
La5 N5 2.608879 1_555
La5 N9 2.642843 1_555
La5 N21 2.681958 1_555
La5 N9 2.981624 1_554
La6 N12 2.508448 1_555
La6 N14 2.521297 1_555
La6 N17 2.590181 1_555
La6 N6 2.608879 1_555
La6 N10 2.642843 1_555
La6 N22 2.681958 1_555
La6 N10 2.981624 1_554
La7 N13 2.508448 1_455
La7 N15 2.521297 1_565
La7 N16 2.590181 1_555
La7 N7 2.608879 1_555
La7 N11 2.642843 1_555
La7 N23 2.681958 1_555
La7 N11 2.981624 1_554
La8 N2 2.525367 1_555
La8 N5 2.525367 1_555
La8 N0 2.525367 1_545
La8 N7 2.525367 1_545
La8 N22 2.696242 1_555
La8 N20 2.696242 1_545
La9 N1 2.525367 1_555
La9 N6 2.525367 1_555
La9 N3 2.525367 1_455
La9 N4 2.525367 1_455
La9 N23 2.696242 1_555
La9 N21 2.696242 1_455
N0 Si0 1.732490 1_555
N1 Si1 1.732490 1_455
N2 Si2 1.732490 1_555
N3 Si3 1.732490 1_655
N4 Si4 1.732490 1_555
N5 Si5 1.732490 1_545
N6 Si6 1.732490 1_555
N7 Si7 1.732490 1_565
N8 Si0 1.773653 1_555
N9 Si1 1.773653 1_555
N10 Si2 1.773653 1_555
N11 Si3 1.773653 1_555
N12 Si4 1.773653 1_555
N13 Si5 1.773653 1_555
N14 Si6 1.773653 1_555
N15 Si7 1.773653 1_555
N16 Si3 1.763929 1_554
N16 Si6 1.763929 1_555
N17 Si2 1.763929 1_554
N17 Si7 1.763929 1_555
N18 Si1 1.763929 1_554
N18 Si4 1.763929 1_555
N19 Si0 1.763929 1_554
N19 Si5 1.763929 1_555
N20 Si5 1.758065 1_555
N20 Si0 1.758065 1_555
N21 Si4 1.758065 1_555
N21 Si1 1.758065 1_555
N22 Si7 1.758065 1_555
N22 Si2 1.758065 1_555
N23 Si6 1.758065 1_555
N23 Si3 1.758065 1_555
