# generated using pymatgen
data_Mg14MnSi
_symmetry_space_group_name_H-M   'P 1'
_cell_length_a   6.20733672
_cell_length_b   6.20733624
_cell_length_c   10.20989807
_cell_angle_alpha   90.00000000
_cell_angle_beta   90.00000000
_cell_angle_gamma   120.00000254
_symmetry_Int_Tables_number   1
_chemical_formula_structural   Mg14MnSi
_chemical_formula_sum   'Mg14 Mn1 Si1'
_cell_volume   340.69252324
_cell_formula_units_Z   1
loop_
 _symmetry_equiv_pos_site_id
 _symmetry_equiv_pos_as_xyz
  1  'x, y, z'
loop_
 _atom_site_type_symbol
 _atom_site_label
 _atom_site_symmetry_multiplicity
 _atom_site_fract_x
 _atom_site_fract_y
 _atom_site_fract_z
 _atom_site_occupancy
  Mg  Mg0  1  0.16758314  0.83379107  0.12500000  1
  Mg  Mg1  1  0.16512729  0.83256315  0.62500000  1
  Mg  Mg2  1  0.66620893  0.33241686  0.12500000  1
  Mg  Mg3  1  0.66743685  0.33487271  0.62500000  1
  Mg  Mg4  1  0.66620893  0.83379107  0.12500000  1
  Mg  Mg5  1  0.66743685  0.83256315  0.62500000  1
  Mg  Mg6  1  0.32961655  0.17038345  0.37410161  1
  Mg  Mg7  1  0.32961655  0.17038345  0.87589839  1
  Mg  Mg8  1  0.32961655  0.65923410  0.37410161  1
  Mg  Mg9  1  0.32961655  0.65923410  0.87589839  1
  Mg  Mg10  1  0.84076590  0.17038345  0.37410161  1
  Mg  Mg11  1  0.84076590  0.17038345  0.87589839  1
  Mg  Mg12  1  0.83333300  0.66666700  0.37327790  1
  Mg  Mg13  1  0.83333300  0.66666700  0.87672210  1
  Mn  Mn0  1  0.16666700  0.33333300  0.12500000  1
  Si  Si0  1  0.16666700  0.33333300  0.62500000  1
loop_
_geom_bond_atom_site_label_1
_geom_bond_atom_site_label_2
_geom_bond_distance
_geom_bond_site_symmetry_2
Mg0 Mg2 3.095138 1_565
Mg0 Mg4 3.095138 1_555
Mg0 Mn0 3.103672 1_555
Mg0 Mn0 3.103672 1_565
Mg0 Mg12 3.107134 1_455
Mg0 Mg13 3.107134 1_454
Mg0 Mg2 3.112198 1_455
Mg0 Mg4 3.112199 1_455
Mg0 Mg8 3.121517 1_555
Mg0 Mg9 3.121517 1_554
Mg0 Mg6 3.121524 1_565
Mg0 Mg7 3.121524 1_564
Mg1 Mg3 3.089332 1_455
Mg1 Mg5 3.089332 1_455
Mg1 Si0 3.103679 1_565
Mg1 Si0 3.103679 1_555
Mg1 Mg3 3.118004 1_565
Mg1 Mg5 3.118005 1_555
Mg1 Mg13 3.128343 1_455
Mg1 Mg12 3.128343 1_455
Mg1 Mg9 3.140174 1_555
Mg1 Mg8 3.140174 1_555
Mg1 Mg7 3.140180 1_565
Mg1 Mg6 3.140180 1_565
Mg2 Mg4 3.095138 1_545
Mg2 Mn0 3.103672 1_655
Mg2 Mn0 3.103672 1_555
Mg2 Mg4 3.112198 1_555
Mg2 Mg7 3.121524 1_554
Mg2 Mg6 3.121524 1_555
Mg3 Mg5 3.089332 1_555
Mg3 Si0 3.103679 1_555
Mg3 Si0 3.103679 1_655
Mg3 Mg5 3.118004 1_545
Mg3 Mg6 3.140180 1_555
Mg3 Mg7 3.140180 1_555
Mg4 Mn0 3.103672 1_555
Mg4 Mn0 3.103672 1_665
Mg4 Mg8 3.121523 1_555
Mg4 Mg9 3.121523 1_554
Mg5 Si0 3.103679 1_665
Mg5 Si0 3.103679 1_555
Mg5 Mg9 3.140180 1_555
Mg5 Mg8 3.140180 1_555
Mg6 Mg8 3.034460 1_555
Mg6 Mn0 3.088313 1_555
Mg6 Si0 3.103438 1_555
Mg6 Mg8 3.172876 1_545
Mg7 Mg9 3.034460 1_555
Mg7 Mn0 3.088313 1_556
Mg7 Si0 3.103438 1_555
Mg7 Mg9 3.172876 1_545
Mg8 Mn0 3.088319 1_555
Mg8 Si0 3.103444 1_555
Mg9 Mn0 3.088319 1_556
Mg9 Si0 3.103444 1_555
Mg10 Mg8 3.034460 1_655
Mg10 Mg6 3.034461 1_655
Mg10 Mn0 3.088319 1_655
Mg10 Si0 3.103444 1_655
Mg10 Mg12 3.103937 1_545
Mg10 Mg12 3.103937 1_555
Mg10 Mg2 3.121517 1_555
Mg10 Mg4 3.121523 1_545
Mg10 Mg3 3.140174 1_555
Mg10 Mg5 3.140180 1_545
Mg10 Mg8 3.172876 1_545
Mg10 Mg6 3.172876 1_555
Mg11 Mg9 3.034460 1_655
Mg11 Mg7 3.034461 1_655
Mg11 Mn0 3.088319 1_656
Mg11 Si0 3.103444 1_655
Mg11 Mg13 3.103937 1_545
Mg11 Mg13 3.103937 1_555
Mg11 Mg2 3.121517 1_556
Mg11 Mg4 3.121523 1_546
Mg11 Mg3 3.140174 1_555
Mg11 Mg5 3.140180 1_545
Mg11 Mg9 3.172876 1_545
Mg11 Mg7 3.172876 1_555
Mg12 Mg6 3.103937 1_665
Mg12 Mg6 3.103937 1_555
Mg12 Mg8 3.103937 1_655
Mg12 Mg8 3.103937 1_555
Mg12 Mg4 3.107128 1_555
Mg12 Mg2 3.107134 1_555
Mg12 Mg5 3.128337 1_555
Mg12 Mg3 3.128343 1_555
Mg13 Mg7 3.103937 1_665
Mg13 Mg7 3.103937 1_555
Mg13 Mg9 3.103937 1_655
Mg13 Mg9 3.103937 1_555
Mg13 Mg4 3.107128 1_556
Mg13 Mg2 3.107134 1_556
Mg13 Mg5 3.128337 1_555
Mg13 Mg3 3.128343 1_555
