# generated using pymatgen
data_MgSn2(PO5)2
_symmetry_space_group_name_H-M   'P 1'
_cell_length_a   10.18714763
_cell_length_b   9.17722466
_cell_length_c   6.90734480
_cell_angle_alpha   77.16901378
_cell_angle_beta   61.44611067
_cell_angle_gamma   41.38487555
_symmetry_Int_Tables_number   1
_chemical_formula_structural   MgSn2(PO5)2
_chemical_formula_sum   'Mg2 Sn4 P4 O20'
_cell_volume   364.48213383
_cell_formula_units_Z   2
loop_
 _symmetry_equiv_pos_site_id
 _symmetry_equiv_pos_as_xyz
  1  'x, y, z'
loop_
 _atom_site_type_symbol
 _atom_site_label
 _atom_site_symmetry_multiplicity
 _atom_site_fract_x
 _atom_site_fract_y
 _atom_site_fract_z
 _atom_site_occupancy
  Mg  Mg0  1  0.50342100  0.99657900  0.99657900  1
  Mg  Mg1  1  0.25342100  0.74657900  0.74657900  1
  Sn  Sn0  1  0.87519700  0.37966400  0.38149500  1
  Sn  Sn1  1  0.36364500  0.38149500  0.37966400  1
  Sn  Sn2  1  0.87033600  0.37480300  0.88635500  1
  Sn  Sn3  1  0.86850500  0.88635500  0.37480300  1
  P  P0  1  0.03837900  0.55066400  0.96047000  1
  P  P1  1  0.69933600  0.21162100  0.79951300  1
  P  P2  1  0.45048700  0.96047000  0.55066400  1
  P  P3  1  0.28953000  0.79951300  0.21162100  1
  O  O0  1  0.57110400  0.72972100  0.45488800  1
  O  O1  1  0.66321100  0.18664200  0.32776500  1
  O  O2  1  0.30451700  0.67343200  0.40975400  1
  O  O3  1  0.79511200  0.00571300  0.67889600  1
  O  O4  1  0.22336400  0.07102300  0.75678500  1
  O  O5  1  0.42893900  0.09040600  0.35491300  1
  O  O6  1  0.06335800  0.58678900  0.42761800  1
  O  O7  1  0.82238200  0.32776500  0.18664200  1
  O  O8  1  0.92223500  0.42761800  0.58678900  1
  O  O9  1  0.17897700  0.02663600  0.30117200  1
  O  O10  1  0.24428700  0.45488800  0.72972100  1
  O  O11  1  0.49321500  0.30117200  0.02663600  1
  O  O12  1  0.94882800  0.75678500  0.07102300  1
  O  O13  1  0.15959400  0.82106100  0.12425700  1
  O  O14  1  0.12574300  0.35491300  0.09040600  1
  O  O15  1  0.89508700  0.12425700  0.82106100  1
  O  O16  1  0.84024600  0.63770400  0.94548300  1
  O  O17  1  0.61229600  0.40975400  0.67343200  1
  O  O18  1  0.52027900  0.67889600  0.00571300  1
  O  O19  1  0.57656800  0.94548300  0.63770400  1
loop_
_geom_bond_atom_site_label_1
_geom_bond_atom_site_label_2
_geom_bond_distance
_geom_bond_site_symmetry_2
Mg0 O19 2.268498 1_555
Mg0 O16 2.268502 1_555
Mg0 O14 2.369454 1_566
Mg0 O5 2.369458 1_566
Mg1 O17 2.268500 1_555
Mg1 O2 2.268505 1_555
Mg1 O13 2.369451 1_556
Mg1 O15 2.369455 1_465
O0 P2 1.540277 1_555
O0 Sn0 2.112463 1_555
O1 Sn3 1.917638 1_545
O1 Sn1 1.920759 1_555
O2 P3 1.570494 1_555
O2 Sn1 2.300004 1_555
O3 P1 1.540277 1_555
O3 Sn3 2.112468 1_545
O4 P2 1.542632 1_545
O4 Sn2 2.119722 1_455
O5 P2 1.572636 1_545
O5 Sn1 2.244050 1_555
O6 Sn1 1.917641 1_555
O6 Sn3 1.920761 1_455
O7 Sn2 1.917639 1_554
O7 Sn0 1.920767 1_555
O8 Sn0 1.917633 1_555
O8 Sn2 1.920761 1_555
O9 P3 1.542632 1_545
O9 Sn0 2.119721 1_455
O10 P0 1.540277 1_555
O10 Sn1 2.112461 1_555
O11 P1 1.542632 1_554
O11 Sn1 2.119723 1_555
O12 P0 1.542632 1_654
O12 Sn3 2.119717 1_555
O13 P3 1.572641 1_555
O13 Sn3 2.244050 1_455
O14 P0 1.572636 1_554
O14 Sn0 2.244050 1_455
O15 P1 1.572632 1_555
O15 Sn2 2.244050 1_555
O16 P0 1.570490 1_655
O16 Sn2 2.300022 1_555
O17 P1 1.570493 1_555
O17 Sn0 2.300017 1_555
O18 P3 1.540277 1_555
O18 Sn2 2.112462 1_554
O19 P2 1.570499 1_555
O19 Sn3 2.300007 1_555
