# generated using pymatgen
data_Rb3I2Br
_symmetry_space_group_name_H-M   'P 1'
_cell_length_a   8.88747731
_cell_length_b   8.88747731
_cell_length_c   8.88747731
_cell_angle_alpha   146.58643244
_cell_angle_beta   131.69902000
_cell_angle_gamma   60.00429560
_symmetry_Int_Tables_number   1
_chemical_formula_structural   Rb3I2Br
_chemical_formula_sum   'Rb3 I2 Br1'
_cell_volume   286.01019616
_cell_formula_units_Z   1
loop_
 _symmetry_equiv_pos_site_id
 _symmetry_equiv_pos_as_xyz
  1  'x, y, z'
loop_
 _atom_site_type_symbol
 _atom_site_label
 _atom_site_symmetry_multiplicity
 _atom_site_fract_x
 _atom_site_fract_y
 _atom_site_fract_z
 _atom_site_occupancy
  Rb  Rb0  1  0.34521018  0.34521018  -0.00000000  1
  Rb  Rb1  1  -0.00000000  -0.00000000  0.00000000  1
  Rb  Rb2  1  0.65478982  0.65478982  0.00000000  1
  I  I0  1  0.16915488  0.66915488  0.50000000  1
  I  I1  1  0.83084512  0.33084512  0.50000000  1
  Br  Br0  1  0.50000000  -0.00000000  0.50000000  1
loop_
_geom_bond_atom_site_label_1
_geom_bond_atom_site_label_2
_geom_bond_distance
_geom_bond_site_symmetry_2
I0 Rb2 3.642893 1_556
I0 Rb2 3.642893 1_455
I0 Rb1 3.647957 1_566
I0 Rb1 3.647957 1_555
I0 Rb0 3.724517 1_566
I0 Rb0 3.724517 1_555
I1 Rb0 3.642893 1_656
I1 Rb0 3.642893 1_555
I1 Rb1 3.647957 1_655
I1 Rb1 3.647957 1_666
I1 Rb2 3.724517 1_545
I1 Rb2 3.724517 1_556
Br0 Rb2 3.493557 1_556
Br0 Rb2 3.493557 1_545
Br0 Rb0 3.493557 1_556
Br0 Rb0 3.493557 1_545
Br0 Rb1 3.636175 1_555
Br0 Rb1 3.636175 1_656
