# generated using pymatgen
data_Na5Al(HO)8
_symmetry_space_group_name_H-M   'P 1'
_cell_length_a   9.46385400
_cell_length_b   9.46385400
_cell_length_c   9.66096000
_cell_angle_alpha   90.00000000
_cell_angle_beta   90.00000000
_cell_angle_gamma   90.00000000
_symmetry_Int_Tables_number   1
_chemical_formula_structural   Na5Al(HO)8
_chemical_formula_sum   'Na20 Al4 H32 O32'
_cell_volume   865.27936622
_cell_formula_units_Z   4
loop_
 _symmetry_equiv_pos_site_id
 _symmetry_equiv_pos_as_xyz
  1  'x, y, z'
loop_
 _atom_site_type_symbol
 _atom_site_label
 _atom_site_symmetry_multiplicity
 _atom_site_fract_x
 _atom_site_fract_y
 _atom_site_fract_z
 _atom_site_occupancy
  Na  Na0  1  0.37758200  0.86935100  0.48323800  1
  Na  Na1  1  0.62241800  0.13064900  0.98323800  1
  Na  Na2  1  0.36935100  0.12241800  0.73323800  1
  Na  Na3  1  0.63064900  0.87758200  0.23323800  1
  Na  Na4  1  0.13064900  0.62241800  0.01676200  1
  Na  Na5  1  0.86935100  0.37758200  0.51676200  1
  Na  Na6  1  0.12241800  0.36935100  0.26676200  1
  Na  Na7  1  0.87758200  0.63064900  0.76676200  1
  Na  Na8  1  0.11446000  0.62820900  0.52782400  1
  Na  Na9  1  0.88554000  0.37179100  0.02782400  1
  Na  Na10  1  0.12820900  0.38554000  0.77782400  1
  Na  Na11  1  0.87179100  0.61446000  0.27782400  1
  Na  Na12  1  0.37179100  0.88554000  0.97217600  1
  Na  Na13  1  0.62820900  0.11446000  0.47217600  1
  Na  Na14  1  0.38554000  0.12820900  0.22217600  1
  Na  Na15  1  0.61446000  0.87179100  0.72217600  1
  Na  Na16  1  0.87608500  0.87608500  0.50000000  1
  Na  Na17  1  0.12391500  0.12391500  0.00000000  1
  Na  Na18  1  0.37608500  0.62391500  0.75000000  1
  Na  Na19  1  0.62391500  0.37608500  0.25000000  1
  Al  Al0  1  0.13085400  0.86914600  0.25000000  1
  Al  Al1  1  0.86914600  0.13085400  0.75000000  1
  Al  Al2  1  0.36914600  0.36914600  0.50000000  1
  Al  Al3  1  0.63085400  0.63085400  0.00000000  1
  H  H0  1  0.89278600  0.95290200  0.20363200  1
  H  H1  1  0.10721400  0.04709800  0.70363200  1
  H  H2  1  0.45290200  0.60721400  0.45363200  1
  H  H3  1  0.54709800  0.39278600  0.95363200  1
  H  H4  1  0.04709800  0.10721400  0.29636800  1
  H  H5  1  0.95290200  0.89278600  0.79636800  1
  H  H6  1  0.60721400  0.45290200  0.54636800  1
  H  H7  1  0.39278600  0.54709800  0.04636800  1
  H  H8  1  0.36265700  0.78278300  0.19380500  1
  H  H9  1  0.63734300  0.21721700  0.69380500  1
  H  H10  1  0.28278300  0.13734300  0.44380500  1
  H  H11  1  0.71721700  0.86265700  0.94380500  1
  H  H12  1  0.21721700  0.63734300  0.30619500  1
  H  H13  1  0.78278300  0.36265700  0.80619500  1
  H  H14  1  0.13734300  0.28278300  0.55619500  1
  H  H15  1  0.86265700  0.71721700  0.05619500  1
  H  H16  1  0.13194200  0.96899300  0.48107400  1
  H  H17  1  0.86805800  0.03100700  0.98107400  1
  H  H18  1  0.46899300  0.36805800  0.73107400  1
  H  H19  1  0.53100700  0.63194200  0.23107400  1
  H  H20  1  0.03100700  0.86805800  0.01892600  1
  H  H21  1  0.96899300  0.13194200  0.51892600  1
  H  H22  1  0.36805800  0.46899300  0.26892600  1
  H  H23  1  0.63194200  0.53100700  0.76892600  1
  H  H24  1  0.63559300  0.76253200  0.46093100  1
  H  H25  1  0.36440700  0.23746800  0.96093100  1
  H  H26  1  0.26253200  0.86440700  0.71093100  1
  H  H27  1  0.73746800  0.13559300  0.21093100  1
  H  H28  1  0.23746800  0.36440700  0.03906900  1
  H  H29  1  0.76253200  0.63559300  0.53906900  1
  H  H30  1  0.86440700  0.26253200  0.28906900  1
  H  H31  1  0.13559300  0.73746800  0.78906900  1
  O  O0  1  0.92438200  0.86352300  0.24236000  1
  O  O1  1  0.07561800  0.13647700  0.74236000  1
  O  O2  1  0.36352300  0.57561800  0.49236000  1
  O  O3  1  0.63647700  0.42438200  0.99236000  1
  O  O4  1  0.13647700  0.07561800  0.25764000  1
  O  O5  1  0.86352300  0.92438200  0.75764000  1
  O  O6  1  0.57561800  0.36352300  0.50764000  1
  O  O7  1  0.42438200  0.63647700  0.00764000  1
  O  O8  1  0.33616300  0.87111500  0.23981300  1
  O  O9  1  0.66383700  0.12888500  0.73981300  1
  O  O10  1  0.37111500  0.16383700  0.48981300  1
  O  O11  1  0.62888500  0.83616300  0.98981300  1
  O  O12  1  0.12888500  0.66383700  0.26018700  1
  O  O13  1  0.87111500  0.33616300  0.76018700  1
  O  O14  1  0.16383700  0.37111500  0.51018700  1
  O  O15  1  0.83616300  0.62888500  0.01018700  1
  O  O16  1  0.12940500  0.86980800  0.45430800  1
  O  O17  1  0.87059500  0.13019200  0.95430800  1
  O  O18  1  0.36980800  0.37059500  0.70430800  1
  O  O19  1  0.63019200  0.62940500  0.20430800  1
  O  O20  1  0.13019200  0.87059500  0.04569200  1
  O  O21  1  0.86980800  0.12940500  0.54569200  1
  O  O22  1  0.37059500  0.36980800  0.29569200  1
  O  O23  1  0.62940500  0.63019200  0.79569200  1
  O  O24  1  0.62070200  0.86326000  0.47758200  1
  O  O25  1  0.37929800  0.13674000  0.97758200  1
  O  O26  1  0.36326000  0.87929800  0.72758200  1
  O  O27  1  0.63674000  0.12070200  0.22758200  1
  O  O28  1  0.13674000  0.37929800  0.02241800  1
  O  O29  1  0.86326000  0.62070200  0.52241800  1
  O  O30  1  0.87929800  0.36326000  0.27241800  1
  O  O31  1  0.12070200  0.63674000  0.77241800  1
loop_
_geom_bond_atom_site_label_1
_geom_bond_atom_site_label_2
_geom_bond_distance
_geom_bond_site_symmetry_2
Na0 O24 2.302223 1_555
Na0 O16 2.365286 1_555
Na0 O26 2.366359 1_555
Na0 O8 2.384222 1_555
Na1 O25 2.302223 1_555
Na1 O17 2.365286 1_555
Na1 O27 2.366359 1_556
Na1 O9 2.384222 1_555
Na2 O26 2.302223 1_545
Na2 O18 2.365286 1_555
Na2 O25 2.366359 1_555
Na2 O10 2.384222 1_555
Na3 O27 2.302223 1_565
Na3 O19 2.365286 1_555
Na3 O24 2.366359 1_555
Na3 O11 2.384222 1_554
Na4 O28 2.302223 1_555
Na4 O20 2.365286 1_555
Na4 O31 2.366359 1_554
Na4 O12 2.384222 1_555
Na5 O29 2.302223 1_555
Na5 O21 2.365286 1_555
Na5 O30 2.366359 1_555
Na5 O13 2.384222 1_555
Na6 O30 2.302223 1_455
Na6 O22 2.365286 1_555
Na6 O28 2.366359 1_555
Na6 O14 2.384222 1_555
Na7 O31 2.302223 1_655
Na7 O23 2.365286 1_555
Na7 O29 2.366359 1_555
Na7 O15 2.384222 1_556
Na8 O31 2.365130 1_555
Na8 O29 2.378955 1_455
Na8 O16 2.398401 1_555
Na8 O2 2.433312 1_555
Na8 O14 2.483420 1_555
Na9 O30 2.365130 1_555
Na9 O28 2.378955 1_655
Na9 O17 2.398401 1_554
Na9 O3 2.433312 1_554
Na9 O15 2.483420 1_555
Na10 O28 2.365130 1_556
Na10 O31 2.378955 1_555
Na10 O18 2.398401 1_555
Na10 O1 2.433312 1_555
Na10 O13 2.483420 1_455
Na11 O29 2.365130 1_555
Na11 O30 2.378955 1_555
Na11 O19 2.398401 1_555
Na11 O0 2.433312 1_555
Na11 O12 2.483420 1_655
Na12 O26 2.365130 1_555
Na12 O25 2.378955 1_565
Na12 O20 2.398401 1_556
Na12 O7 2.433312 1_556
Na12 O11 2.483420 1_555
Na13 O27 2.365130 1_555
Na13 O24 2.378955 1_545
Na13 O21 2.398401 1_555
Na13 O6 2.433312 1_555
Na13 O10 2.483420 1_555
Na14 O25 2.365130 1_554
Na14 O27 2.378955 1_555
Na14 O22 2.398401 1_555
Na14 O4 2.433312 1_555
Na14 O8 2.483420 1_545
Na15 O24 2.365130 1_555
Na15 O26 2.378955 1_555
Na15 O23 2.398401 1_555
Na15 O5 2.433312 1_555
Na15 O9 2.483420 1_565
Na16 O24 2.429625 1_555
Na16 O29 2.429625 1_555
Na16 O21 2.438408 1_565
Na16 O16 2.438408 1_655
Na16 O0 2.533460 1_555
Na16 O5 2.533460 1_555
Na17 O25 2.429625 1_554
Na17 O28 2.429625 1_555
Na17 O20 2.438408 1_545
Na17 O17 2.438408 1_454
Na17 O4 2.533460 1_555
Na17 O1 2.533460 1_554
Na18 O31 2.429625 1_555
Na18 O26 2.429625 1_555
Na18 O18 2.438408 1_555
Na18 O23 2.438408 1_555
Na18 O2 2.533460 1_555
Na18 O7 2.533460 1_556
Na19 O30 2.429625 1_555
Na19 O27 2.429625 1_555
Na19 O19 2.438408 1_555
Na19 O22 2.438408 1_555
Na19 O3 2.533460 1_554
Na19 O6 2.533460 1_555
Al0 O12 1.945594 1_555
Al0 O8 1.945594 1_555
Al0 O0 1.956138 1_455
Al0 O4 1.956138 1_565
Al0 O16 1.973869 1_555
Al0 O20 1.973869 1_555
Al1 O9 1.945594 1_555
Al1 O13 1.945594 1_555
Al1 O5 1.956138 1_545
Al1 O1 1.956138 1_655
Al1 O17 1.973869 1_555
Al1 O21 1.973869 1_555
Al2 O14 1.945594 1_555
Al2 O10 1.945594 1_555
Al2 O6 1.956138 1_555
Al2 O2 1.956138 1_555
Al2 O22 1.973869 1_555
Al2 O18 1.973869 1_555
Al3 O11 1.945594 1_554
Al3 O15 1.945594 1_555
Al3 O7 1.956138 1_555
Al3 O3 1.956138 1_554
Al3 O19 1.973869 1_555
Al3 O23 1.973869 1_554
H0 O0 0.972058 1_555
H1 O1 0.972058 1_555
H2 O2 0.972058 1_555
H3 O3 0.972058 1_555
H4 O4 0.972058 1_555
H5 O5 0.972058 1_555
H6 O6 0.972058 1_555
H7 O7 0.972058 1_555
H8 O8 0.979420 1_555
H8 Na12 2.353232 1_554
H9 O9 0.979420 1_555
H9 Na13 2.353232 1_555
H10 O10 0.979420 1_555
H10 Na14 2.353232 1_555
H11 O11 0.979420 1_555
H11 Na15 2.353232 1_555
H12 O12 0.979420 1_555
H12 Na8 2.353232 1_555
H13 O13 0.979420 1_555
H13 Na9 2.353232 1_556
H14 O14 0.979420 1_555
H14 Na10 2.353232 1_555
H15 O15 0.979420 1_555
H15 Na11 2.353232 1_555
H16 O16 0.973935 1_555
H17 O17 0.973935 1_555
H18 O18 0.973935 1_555
H19 O19 0.973935 1_555
H20 O20 0.973935 1_555
H21 O21 0.973935 1_555
H22 O22 0.973935 1_555
H23 O23 0.973935 1_555
H24 O24 0.976970 1_555
H25 O25 0.976970 1_555
H26 O26 0.976970 1_555
H27 O27 0.976970 1_555
H28 O28 0.976970 1_555
H29 O29 0.976970 1_555
H30 O30 0.976970 1_555
H31 O31 0.976970 1_555
