# generated using pymatgen
data_GaGeS4
_symmetry_space_group_name_H-M   'P 1'
_cell_length_a   12.64622621
_cell_length_b   12.61254945
_cell_length_c   11.40290950
_cell_angle_alpha   63.31475720
_cell_angle_beta   63.01277671
_cell_angle_gamma   53.67246609
_symmetry_Int_Tables_number   1
_chemical_formula_structural   GaGeS4
_chemical_formula_sum   'Ga4 Ge4 S16'
_cell_volume   1263.89690186
_cell_formula_units_Z   4
loop_
 _symmetry_equiv_pos_site_id
 _symmetry_equiv_pos_as_xyz
  1  'x, y, z'
loop_
 _atom_site_type_symbol
 _atom_site_label
 _atom_site_symmetry_multiplicity
 _atom_site_fract_x
 _atom_site_fract_y
 _atom_site_fract_z
 _atom_site_occupancy
  Ga  Ga0  1  0.90655000  0.72413000  0.31116300  1
  Ga  Ga1  1  0.72413000  0.90655000  0.05815700  1
  Ga  Ga2  1  0.19184300  0.93883700  0.52587000  1
  Ga  Ga3  1  0.93883700  0.19184300  0.34345000  1
  Ge  Ge0  1  0.02729300  0.84320000  0.43802900  1
  Ge  Ge1  1  0.84320000  0.02729300  0.69147900  1
  Ge  Ge2  1  0.81197100  0.55852100  0.22270700  1
  Ge  Ge3  1  0.55852100  0.81197100  0.40680000  1
  S  S0  1  0.08205900  0.66854500  0.37810200  1
  S  S1  1  0.66854500  0.08205900  0.87129300  1
  S  S2  1  0.87189800  0.37870700  0.16794100  1
  S  S3  1  0.37870700  0.87189800  0.58145500  1
  S  S4  1  0.88958000  0.88958000  0.11042000  1
  S  S5  1  0.86291000  0.86291000  0.63709000  1
  S  S6  1  0.61291000  0.61291000  0.38709000  1
  S  S7  1  0.13958000  0.13958000  0.36042000  1
  S  S8  1  0.70985600  0.78788700  0.48091100  1
  S  S9  1  0.96647500  0.03151500  0.26970600  1
  S  S10  1  0.78788700  0.70985600  0.02134600  1
  S  S11  1  0.03151500  0.96647500  0.73230400  1
  S  S12  1  0.98029400  0.51769600  0.28352500  1
  S  S13  1  0.22865400  0.76908900  0.46211300  1
  S  S14  1  0.51769600  0.98029400  0.21848500  1
  S  S15  1  0.76908900  0.22865400  0.54014400  1
loop_
_geom_bond_atom_site_label_1
_geom_bond_atom_site_label_2
_geom_bond_distance
_geom_bond_site_symmetry_2
Ga0 S0 2.283370 1_655
Ga0 S8 2.288879 1_555
Ga0 S4 2.294622 1_555
Ga0 S12 2.311165 1_555
Ga1 S1 2.283378 1_564
Ga1 S10 2.288879 1_555
Ga1 S4 2.294622 1_555
Ga1 S14 2.311165 1_555
Ga2 S3 2.283382 1_555
Ga2 S13 2.288879 1_555
Ga2 S7 2.294622 1_565
Ga2 S11 2.311165 1_555
Ga3 S2 2.283376 1_555
Ga3 S15 2.288879 1_555
Ga3 S7 2.294622 1_655
Ga3 S9 2.311165 1_555
Ge0 S0 2.216765 1_555
Ge0 S9 2.235544 1_465
Ge0 S13 2.239999 1_555
Ge0 S5 2.268830 1_455
Ge1 S1 2.216751 1_555
Ge1 S11 2.235538 1_645
Ge1 S15 2.240004 1_555
Ge1 S5 2.268837 1_545
Ge2 S2 2.216741 1_555
Ge2 S12 2.235550 1_555
Ge2 S10 2.240003 1_555
Ge2 S6 2.268830 1_555
Ge3 S3 2.216755 1_555
Ge3 S14 2.235543 1_555
Ge3 S8 2.240011 1_555
Ge3 S6 2.268825 1_555
