# generated using pymatgen
data_LaCe
_symmetry_space_group_name_H-M   'P 1'
_cell_length_a   12.47165395
_cell_length_b   12.47165395
_cell_length_c   12.47165270
_cell_angle_alpha   33.10264818
_cell_angle_beta   33.10264818
_cell_angle_gamma   33.10265390
_symmetry_Int_Tables_number   1
_chemical_formula_structural   LaCe
_chemical_formula_sum   'La8 Ce8'
_cell_volume   514.99313470
_cell_formula_units_Z   8
loop_
 _symmetry_equiv_pos_site_id
 _symmetry_equiv_pos_as_xyz
  1  'x, y, z'
loop_
 _atom_site_type_symbol
 _atom_site_label
 _atom_site_symmetry_multiplicity
 _atom_site_fract_x
 _atom_site_fract_y
 _atom_site_fract_z
 _atom_site_occupancy
  La  La0_0  1  0.25000000  0.25000000  0.25000000  1
  La  La0_1  1  0.25000000  0.25000000  0.75000000  1
  La  La0_2  1  0.25000000  0.75000000  0.25000000  1
  La  La0_3  1  0.25000000  0.75000000  0.75000000  1
  La  La0_4  1  0.75000000  0.25000000  0.25000000  1
  La  La0_5  1  0.75000000  0.25000000  0.75000000  1
  La  La0_6  1  0.75000000  0.75000000  0.25000000  1
  La  La0_7  1  0.75000000  0.75000000  0.75000000  1
  Ce  Ce0_0  1  0.00000000  0.00000000  0.00000000  1
  Ce  Ce0_1  1  0.00000000  0.00000000  0.50000000  1
  Ce  Ce0_2  1  1.00000000  0.50000000  0.00000000  1
  Ce  Ce0_3  1  1.00000000  0.50000000  0.50000000  1
  Ce  Ce0_4  1  0.50000000  0.00000000  0.00000000  1
  Ce  Ce0_5  1  0.50000000  0.00000000  0.50000000  1
  Ce  Ce0_6  1  0.50000000  0.50000000  0.00000000  1
  Ce  Ce0_7  1  0.50000000  0.50000000  0.50000000  1
loop_
_geom_bond_atom_site_label_1
_geom_bond_atom_site_label_2
_geom_bond_distance
_geom_bond_site_symmetry_2
La0_0 La0_5 3.552851 1_455
La0_0 La0_3 3.552851 1_554
La0_0 La0_3 3.552851 1_545
La0_0 La0_5 3.552851 1_554
La0_0 La0_6 3.552852 1_455
La0_0 La0_6 3.552852 1_545
La0_1 La0_2 3.552851 1_546
La0_1 La0_4 3.552851 1_456
La0_1 La0_4 3.552851 1_555
La0_1 La0_2 3.552851 1_555
La0_1 La0_7 3.552852 1_455
La0_1 La0_7 3.552852 1_545
La0_2 La0_7 3.552851 1_554
La0_2 La0_7 3.552851 1_455
La0_2 La0_4 3.552852 1_465
La0_2 La0_4 3.552852 1_555
La0_3 La0_6 3.552851 1_555
La0_3 La0_6 3.552851 1_456
La0_3 La0_5 3.552852 1_465
La0_3 La0_5 3.552852 1_555
La0_4 La0_7 3.552851 1_554
La0_4 La0_7 3.552851 1_545
La0_5 La0_6 3.552851 1_546
La0_5 La0_6 3.552851 1_555
Ce0_0 Ce0_5 3.552851 1_554
Ce0_0 Ce0_3 3.552851 1_445
Ce0_0 Ce0_5 3.552851 1_455
Ce0_0 Ce0_3 3.552851 1_454
Ce0_0 Ce0_6 3.552852 1_545
Ce0_0 Ce0_6 3.552852 1_455
Ce0_0 La0_5 3.588464 1_454
Ce0_0 La0_3 3.588464 1_544
Ce0_0 La0_2 3.588464 1_545
Ce0_0 La0_4 3.588464 1_455
Ce0_0 La0_1 3.588464 1_554
Ce0_0 La0_6 3.588464 1_445
Ce0_1 Ce0_2 3.552851 1_446
Ce0_1 Ce0_4 3.552851 1_555
Ce0_1 Ce0_4 3.552851 1_456
Ce0_1 Ce0_2 3.552851 1_455
Ce0_1 Ce0_7 3.552852 1_545
Ce0_1 Ce0_7 3.552852 1_455
Ce0_1 La0_2 3.588464 1_545
Ce0_1 La0_3 3.588464 1_545
Ce0_1 La0_4 3.588464 1_455
Ce0_1 La0_5 3.588464 1_455
Ce0_1 La0_0 3.588464 1_555
Ce0_1 La0_7 3.588464 1_445
Ce0_2 Ce0_7 3.552851 1_654
Ce0_2 Ce0_7 3.552851 1_555
Ce0_2 Ce0_4 3.552852 1_565
Ce0_2 Ce0_4 3.552852 1_655
Ce0_2 La0_1 3.588464 1_654
Ce0_2 La0_6 3.588464 1_555
Ce0_2 La0_0 3.588464 1_655
Ce0_2 La0_7 3.588464 1_554
Ce0_2 La0_4 3.588464 1_555
Ce0_2 La0_3 3.588464 1_654
Ce0_3 Ce0_6 3.552851 1_556
Ce0_3 Ce0_6 3.552851 1_655
Ce0_3 Ce0_5 3.552852 1_565
Ce0_3 Ce0_5 3.552852 1_655
Ce0_3 La0_7 3.588464 1_555
Ce0_3 La0_0 3.588464 1_655
Ce0_3 La0_6 3.588464 1_555
Ce0_3 La0_1 3.588464 1_655
Ce0_3 La0_5 3.588464 1_555
Ce0_3 La0_2 3.588464 1_655
Ce0_4 Ce0_7 3.552851 1_554
Ce0_4 Ce0_7 3.552851 1_545
Ce0_4 La0_6 3.588464 1_545
Ce0_4 La0_1 3.588464 1_554
Ce0_4 La0_0 3.588464 1_555
Ce0_4 La0_7 3.588464 1_544
Ce0_4 La0_2 3.588464 1_545
Ce0_4 La0_5 3.588464 1_554
Ce0_5 Ce0_6 3.552851 1_555
Ce0_5 Ce0_6 3.552851 1_546
Ce0_5 La0_7 3.588464 1_545
Ce0_5 La0_1 3.588464 1_555
Ce0_5 La0_0 3.588464 1_555
Ce0_5 La0_6 3.588464 1_545
Ce0_5 La0_4 3.588464 1_555
Ce0_5 La0_3 3.588464 1_545
Ce0_6 La0_5 3.588464 1_554
Ce0_6 La0_3 3.588464 1_554
Ce0_6 La0_2 3.588464 1_555
Ce0_6 La0_4 3.588464 1_555
Ce0_6 La0_7 3.588464 1_554
Ce0_6 La0_0 3.588464 1_555
Ce0_7 La0_4 3.588464 1_555
Ce0_7 La0_2 3.588464 1_555
Ce0_7 La0_3 3.588464 1_555
Ce0_7 La0_5 3.588464 1_555
Ce0_7 La0_1 3.588464 1_555
Ce0_7 La0_6 3.588464 1_555
