# generated using pymatgen
data_Nd2(Ga3Ru)3
_symmetry_space_group_name_H-M   'P 1'
_cell_length_a   7.45803165
_cell_length_b   7.45803165
_cell_length_c   9.82624654
_cell_angle_alpha   90.00000000
_cell_angle_beta   90.00000000
_cell_angle_gamma   118.78313995
_symmetry_Int_Tables_number   1
_chemical_formula_structural   Nd2(Ga3Ru)3
_chemical_formula_sum   'Nd4 Ga18 Ru6'
_cell_volume   479.02971570
_cell_formula_units_Z   2
loop_
 _symmetry_equiv_pos_site_id
 _symmetry_equiv_pos_as_xyz
  1  'x, y, z'
loop_
 _atom_site_type_symbol
 _atom_site_label
 _atom_site_symmetry_multiplicity
 _atom_site_fract_x
 _atom_site_fract_y
 _atom_site_fract_z
 _atom_site_occupancy
  Nd  Nd0  1  0.99794255  0.67416309  0.25000000  1
  Nd  Nd1  1  0.00205745  0.32583691  0.75000000  1
  Nd  Nd2  1  0.67416309  0.99794255  0.25000000  1
  Nd  Nd3  1  0.32583691  0.00205745  0.75000000  1
  Ga  Ga0  1  0.13650034  0.13650034  0.25000000  1
  Ga  Ga1  1  0.86349966  0.86349966  0.75000000  1
  Ga  Ga2  1  0.01326164  0.33846483  0.07280182  1
  Ga  Ga3  1  0.98673836  0.66153517  0.92719818  1
  Ga  Ga4  1  0.98673836  0.66153517  0.57280182  1
  Ga  Ga5  1  0.33846483  0.01326164  0.42719818  1
  Ga  Ga6  1  0.01326164  0.33846483  0.42719818  1
  Ga  Ga7  1  0.66153517  0.98673836  0.57280182  1
  Ga  Ga8  1  0.66153517  0.98673836  0.92719818  1
  Ga  Ga9  1  0.33846483  0.01326164  0.07280182  1
  Ga  Ga10  1  0.34057059  0.34057059  0.55766404  1
  Ga  Ga11  1  0.65942941  0.65942941  0.44233596  1
  Ga  Ga12  1  0.65942941  0.65942941  0.05766404  1
  Ga  Ga13  1  0.34057059  0.34057059  0.94233596  1
  Ga  Ga14  1  0.33883745  0.54953746  0.25000000  1
  Ga  Ga15  1  0.66116255  0.45046254  0.75000000  1
  Ga  Ga16  1  0.54953746  0.33883745  0.25000000  1
  Ga  Ga17  1  0.45046254  0.66116255  0.75000000  1
  Ru  Ru0  1  0.67558594  0.32441406  0.00000000  1
  Ru  Ru1  1  0.32441406  0.67558594  0.00000000  1
  Ru  Ru2  1  0.32441406  0.67558594  0.50000000  1
  Ru  Ru3  1  0.67558594  0.32441406  0.50000000  1
  Ru  Ru4  1  -0.00000000  0.00000000  0.00000000  1
  Ru  Ru5  1  -0.00000000  0.00000000  0.50000000  1
loop_
_geom_bond_atom_site_label_1
_geom_bond_atom_site_label_2
_geom_bond_distance
_geom_bond_site_symmetry_2
Ga0 Ru4 2.666350 1_555
Ga0 Ru5 2.666350 1_555
Ga0 Ga14 2.699974 1_555
Ga0 Ga16 2.699974 1_555
Ga0 Ga2 2.734691 1_555
Ga0 Ga5 2.734691 1_555
Ga0 Ga6 2.734691 1_555
Ga0 Ga9 2.734691 1_555
Ga0 Nd0 3.086439 1_445
Ga0 Nd2 3.086439 1_445
Ga1 Ru5 2.666350 1_665
Ga1 Ru4 2.666350 1_666
Ga1 Ga17 2.699974 1_555
Ga1 Ga15 2.699974 1_555
Ga1 Ga8 2.734691 1_555
Ga1 Ga4 2.734691 1_555
Ga1 Ga3 2.734691 1_555
Ga1 Ga7 2.734691 1_555
Ga1 Nd3 3.086439 1_665
Ga1 Nd1 3.086439 1_665
Ga2 Ru1 2.568996 1_555
Ga2 Ru0 2.571170 1_455
Ga2 Ru4 2.579361 1_555
Ga2 Nd0 3.096533 1_455
Ga2 Nd2 3.113245 1_445
Ga2 Nd1 3.173234 1_554
Ga3 Ru0 2.568996 1_556
Ga3 Ru1 2.571170 1_656
Ga3 Ru4 2.579361 1_666
Ga3 Nd1 3.096533 1_655
Ga3 Nd3 3.113245 1_665
Ga3 Nd0 3.173234 1_556
Ga4 Ru3 2.568996 1_555
Ga4 Ru2 2.571170 1_655
Ga4 Ru5 2.579361 1_665
Ga4 Nd1 3.096533 1_655
Ga4 Nd3 3.113245 1_665
Ga4 Nd0 3.173234 1_555
Ga5 Ru3 2.568996 1_555
Ga5 Ru2 2.571170 1_545
Ga5 Ru5 2.579361 1_555
Ga5 Nd2 3.096533 1_545
Ga5 Nd0 3.113245 1_445
Ga5 Nd3 3.173234 1_555
Ga6 Ru2 2.568996 1_555
Ga6 Ru3 2.571170 1_455
Ga6 Ru5 2.579361 1_555
Ga6 Nd0 3.096533 1_455
Ga6 Nd2 3.113245 1_445
Ga6 Nd1 3.173234 1_555
Ga7 Ru2 2.568996 1_555
Ga7 Ru3 2.571170 1_565
Ga7 Ru5 2.579361 1_665
Ga7 Nd3 3.096533 1_565
Ga7 Nd1 3.113245 1_665
Ga7 Nd2 3.173234 1_555
Ga8 Ru1 2.568996 1_556
Ga8 Ru0 2.571170 1_566
Ga8 Ru4 2.579361 1_666
Ga8 Nd3 3.096533 1_565
Ga8 Nd1 3.113245 1_665
Ga8 Nd2 3.173234 1_556
Ga9 Ru0 2.568996 1_555
Ga9 Ru1 2.571170 1_545
Ga9 Ru4 2.579361 1_555
Ga9 Nd2 3.096533 1_545
Ga9 Nd0 3.113245 1_445
Ga9 Nd3 3.173234 1_554
Ga10 Ru3 2.620740 1_555
Ga10 Ru2 2.620740 1_555
Ga10 Ru5 2.647895 1_555
Ga10 Ga11 2.673704 1_555
Ga10 Ga6 2.750582 1_555
Ga10 Ga5 2.750582 1_555
Ga10 Ga15 2.841358 1_555
Ga10 Ga17 2.841358 1_555
Ga10 Nd3 3.112975 1_555
Ga10 Nd1 3.112975 1_555
Ga11 Ru3 2.620740 1_555
Ga11 Ru2 2.620740 1_555
Ga11 Ru5 2.647895 1_665
Ga11 Ga7 2.750582 1_555
Ga11 Ga4 2.750582 1_555
Ga11 Ga16 2.841358 1_555
Ga11 Ga14 2.841358 1_555
Ga11 Nd2 3.112975 1_555
Ga11 Nd0 3.112975 1_555
Ga12 Ru0 2.620740 1_555
Ga12 Ru1 2.620740 1_555
Ga12 Ru4 2.647895 1_665
Ga12 Ga13 2.673704 1_554
Ga12 Ga3 2.750582 1_554
Ga12 Ga8 2.750582 1_554
Ga12 Ga16 2.841358 1_555
Ga12 Ga14 2.841358 1_555
Ga12 Nd2 3.112975 1_555
Ga12 Nd0 3.112975 1_555
Ga13 Ru1 2.620740 1_556
Ga13 Ru0 2.620740 1_556
Ga13 Ru4 2.647895 1_556
Ga13 Ga2 2.750582 1_556
Ga13 Ga9 2.750582 1_556
Ga13 Ga15 2.841358 1_555
Ga13 Ga17 2.841358 1_555
Ga13 Nd1 3.112975 1_555
Ga13 Nd3 3.112975 1_555
Ga14 Ru1 2.650922 1_555
Ga14 Ru2 2.650922 1_555
Ga14 Ga16 2.704917 1_555
Ga14 Ga2 2.779360 1_555
Ga14 Ga6 2.779360 1_555
Ga14 Nd2 3.063366 1_555
Ga14 Nd0 3.098925 1_455
Ga15 Ru3 2.650922 1_555
Ga15 Ru0 2.650922 1_556
Ga15 Ga17 2.704917 1_555
Ga15 Ga3 2.779360 1_555
Ga15 Ga4 2.779360 1_555
Ga15 Nd3 3.063366 1_555
Ga15 Nd1 3.098925 1_655
Ga16 Ru3 2.650922 1_555
Ga16 Ru0 2.650922 1_555
Ga16 Ga5 2.779360 1_555
Ga16 Ga9 2.779360 1_555
Ga16 Nd0 3.063366 1_555
Ga16 Nd2 3.098925 1_545
Ga17 Ru1 2.650922 1_556
Ga17 Ru2 2.650922 1_555
Ga17 Ga7 2.779360 1_555
Ga17 Ga8 2.779360 1_555
Ga17 Nd1 3.063366 1_555
Ga17 Nd3 3.098925 1_565
