# generated using pymatgen
data_ZnS
_symmetry_space_group_name_H-M   'P 1'
_cell_length_a   13.05020645
_cell_length_b   13.49052806
_cell_length_c   13.77454829
_cell_angle_alpha   88.98184287
_cell_angle_beta   90.33761070
_cell_angle_gamma   96.86734896
_symmetry_Int_Tables_number   1
_chemical_formula_structural   ZnS
_chemical_formula_sum   'Zn50 S50'
_cell_volume   2407.27098118
_cell_formula_units_Z   50
loop_
 _symmetry_equiv_pos_site_id
 _symmetry_equiv_pos_as_xyz
  1  'x, y, z'
loop_
 _atom_site_type_symbol
 _atom_site_label
 _atom_site_symmetry_multiplicity
 _atom_site_fract_x
 _atom_site_fract_y
 _atom_site_fract_z
 _atom_site_occupancy
  Zn  Zn0  1  0.55675511  0.94996721  0.33078091  1
  Zn  Zn1  1  0.32181847  0.61717322  0.74790492  1
  Zn  Zn2  1  0.39655969  0.82666143  0.57532069  1
  Zn  Zn3  1  0.08065870  0.27313968  0.36694836  1
  Zn  Zn4  1  0.38336860  0.21939367  0.71383372  1
  Zn  Zn5  1  0.07191041  0.04730100  0.71648093  1
  Zn  Zn6  1  0.50635889  0.31387920  0.10670925  1
  Zn  Zn7  1  0.81848181  0.74030830  0.30981473  1
  Zn  Zn8  1  0.94493577  0.41899021  0.57867685  1
  Zn  Zn9  1  0.38466955  0.19001960  0.98461305  1
  Zn  Zn10  1  0.01303836  0.00007456  0.33144834  1
  Zn  Zn11  1  0.10149975  0.12393610  0.10429707  1
  Zn  Zn12  1  0.51724580  0.88885875  0.73161569  1
  Zn  Zn13  1  0.87804152  0.18038301  0.18995324  1
  Zn  Zn14  1  0.08998025  0.18928502  0.82484402  1
  Zn  Zn15  1  0.17382521  0.70360853  0.43124440  1
  Zn  Zn16  1  0.35816415  0.97048394  0.72052885  1
  Zn  Zn17  1  0.68118331  0.53277105  0.90789495  1
  Zn  Zn18  1  0.86882564  0.19288215  0.01515450  1
  Zn  Zn19  1  0.64711787  0.10885690  0.81995577  1
  Zn  Zn20  1  0.71793568  0.90839561  0.52321301  1
  Zn  Zn21  1  0.64618955  0.66312855  0.24431295  1
  Zn  Zn22  1  0.41452311  0.61007589  0.98485221  1
  Zn  Zn23  1  0.43407286  0.94271142  0.89651941  1
  Zn  Zn24  1  0.89256162  0.92517507  0.91920496  1
  Zn  Zn25  1  0.90119890  0.14925745  0.51858754  1
  Zn  Zn26  1  0.76491767  0.45616473  0.14388641  1
  Zn  Zn27  1  0.05031467  0.86271119  0.14447852  1
  Zn  Zn28  1  0.63740385  0.66089159  0.65156045  1
  Zn  Zn29  1  0.86637822  0.04238197  0.78918197  1
  Zn  Zn30  1  0.33035439  0.01514513  0.22310688  1
  Zn  Zn31  1  0.73026530  0.82118767  0.16284817  1
  Zn  Zn32  1  0.91163254  0.62848068  0.73902778  1
  Zn  Zn33  1  0.05419472  0.60234294  0.24292262  1
  Zn  Zn34  1  0.23555722  0.46255290  0.45583860  1
  Zn  Zn35  1  0.84783489  0.38043449  0.83421249  1
  Zn  Zn36  1  0.45298408  0.53319353  0.17317457  1
  Zn  Zn37  1  0.14731746  0.80519159  0.65126385  1
  Zn  Zn38  1  0.72551593  0.80582812  0.87383131  1
  Zn  Zn39  1  0.74356986  0.16973389  0.67913829  1
  Zn  Zn40  1  0.38633160  0.39964744  0.52314701  1
  Zn  Zn41  1  0.19134197  0.99170897  0.93443495  1
  Zn  Zn42  1  0.90208268  0.64725222  0.06189692  1
  Zn  Zn43  1  0.96041281  0.73932926  0.53355286  1
  Zn  Zn44  1  0.24543077  0.73645001  0.02067568  1
  Zn  Zn45  1  0.44887343  0.82588834  0.17340010  1
  Zn  Zn46  1  0.58431285  0.39720971  0.66897132  1
  Zn  Zn47  1  0.57740318  0.28559190  0.94492444  1
  Zn  Zn48  1  0.77303527  0.58321383  0.50343328  1
  Zn  Zn49  1  0.60602026  0.09587558  0.12437265  1
  S  S0  1  0.26773968  0.61984799  0.90148634  1
  S  S1  1  0.81749053  0.28022078  0.56330390  1
  S  S2  1  0.19270213  0.93726090  0.76796218  1
  S  S3  1  0.96357356  0.47833632  0.74156527  1
  S  S4  1  0.73623831  0.66195747  0.78883249  1
  S  S5  1  0.16385060  0.26023951  0.21771312  1
  S  S6  1  0.45053604  0.12298594  0.83895697  1
  S  S7  1  0.70313813  0.00438279  0.39173088  1
  S  S8  1  0.81290654  0.78318559  0.01728851  1
  S  S9  1  0.66487538  0.38254981  0.81863727  1
  S  S10  1  0.23769559  0.29567047  0.73945504  1
  S  S11  1  0.05672741  0.06042123  0.54473371  1
  S  S12  1  0.42656000  0.49074316  0.73711512  1
  S  S13  1  0.60828102  0.91955669  0.87031003  1
  S  S14  1  0.57415415  0.58283816  0.02284158  1
  S  S15  1  0.08173742  0.70380616  0.09852587  1
  S  S16  1  0.87415129  0.58950453  0.22963909  1
  S  S17  1  0.35155341  0.40506906  0.09129505  1
  S  S18  1  0.20516790  0.16803723  0.96602016  1
  S  S19  1  0.61451148  0.52683723  0.55610770  1
  S  S20  1  0.20127125  0.39549345  0.14964045  1
  S  S21  1  0.83587941  0.49236345  0.99255649  1
  S  S22  1  0.57238972  0.80544772  0.60134656  1
  S  S23  1  0.20107420  0.14390868  0.51539878  1
  S  S24  1  0.34937724  0.38243213  0.82717626  1
  S  S25  1  0.91924638  0.22824523  0.85787573  1
  S  S26  1  0.31577058  0.90566485  0.01526193  1
  S  S27  1  0.64757434  0.34172645  0.22414163  1
  S  S28  1  0.11077201  0.83810513  0.47716055  1
  S  S29  1  0.43546179  0.13605626  0.14012256  1
  S  S30  1  0.79456680  0.76022131  0.47421948  1
  S  S31  1  0.91007356  0.88071671  0.24329631  1
  S  S32  1  0.39697537  0.99917778  0.55689434  1
  S  S33  1  0.69976861  0.19878765  0.24315884  1
  S  S34  1  0.19794446  0.58281679  0.33368030  1
  S  S35  1  0.29450108  0.05775442  0.45057150  1
  S  S36  1  0.36293415  0.67649102  0.13912211  1
  S  S37  1  0.27177845  0.69805486  0.61067258  1
  S  S38  1  0.93760668  0.56550821  0.48418231  1
  S  S39  1  0.48299925  0.27620199  0.58640927  1
  S  S40  1  0.60122256  0.92179150  0.13981555  1
  S  S41  1  0.97715315  0.78205093  0.69906755  1
  S  S42  1  0.68693860  0.15902675  0.98243632  1
  S  S43  1  0.15325679  0.00399106  0.22263421  1
  S  S44  1  0.09227198  0.35723436  0.50483635  1
  S  S45  1  0.55476974  0.52864934  0.30172142  1
  S  S46  1  0.03320073  0.97005621  0.01255395  1
  S  S47  1  0.82922479  0.01609282  0.62258766  1
  S  S48  1  0.38991752  0.89062585  0.31669517  1
  S  S49  1  0.94406507  0.14882184  0.34729616  1
loop_
_geom_bond_atom_site_label_1
_geom_bond_atom_site_label_2
_geom_bond_distance
_geom_bond_site_symmetry_2
Zn14 Zn5 2.437616 1_555
S0 Zn1 2.236330 1_555
S0 Zn22 2.243762 1_555
S0 Zn44 2.336992 1_556
S1 Zn25 2.280870 1_555
S1 Zn39 2.299537 1_555
S1 Zn8 2.362420 1_555
S2 Zn16 2.250597 1_555
S2 Zn5 2.387580 1_565
S2 Zn41 2.421066 1_555
S2 Zn37 2.438719 1_555
S3 Zn32 2.211106 1_555
S3 Zn35 2.267179 1_555
S3 Zn8 2.396921 1_555
S4 Zn28 2.281876 1_555
S4 Zn38 2.303279 1_555
S4 Zn17 2.419940 1_555
S4 Zn32 2.488079 1_555
S5 Zn3 2.349224 1_555
S5 Zn11 2.492637 1_555
S6 Zn4 2.367604 1_555
S6 Zn9 2.419252 1_555
S6 Zn23 2.529424 1_545
S6 Zn19 2.610155 1_555
S6 Zn16 2.801769 1_545
S7 Zn0 2.135591 1_545
S7 Zn20 2.228575 1_545
S8 Zn38 2.309561 1_554
S8 Zn42 2.357260 1_555
S8 Zn31 2.374931 1_555
S8 Zn24 2.454289 1_554
S9 Zn46 2.324709 1_555
S9 Zn47 2.371811 1_555
S9 Zn17 2.376175 1_555
S9 Zn35 2.399542 1_555
S10 S24 2.139108 1_555
S10 Zn4 2.299150 1_555
S10 Zn14 2.542521 1_555
S11 S23 2.113234 1_555
S11 Zn5 2.378087 1_555
S11 Zn25 2.498666 1_455
S12 S24 2.070482 1_555
S12 Zn1 2.317011 1_555
S12 Zn46 2.719854 1_555
S13 Zn12 2.261958 1_555
S13 Zn38 2.292344 1_555
S13 Zn23 2.362204 1_555
S13 Zn19 2.625133 1_565
S14 Zn22 2.216309 1_554
S14 Zn17 2.281176 1_554
S14 Zn36 2.640674 1_555
S15 Zn27 2.329341 1_555
S15 Zn44 2.385917 1_555
S15 Zn33 2.398525 1_555
S15 Zn42 2.430114 1_455
S16 Zn33 2.341550 1_655
S16 Zn42 2.440609 1_555
S16 Zn26 2.470945 1_555
S16 Zn7 2.515769 1_555
S17 S20 2.112640 1_555
S17 Zn36 2.348691 1_555
S17 Zn6 2.493964 1_555
S18 Zn9 2.338910 1_555
S18 Zn11 2.368497 1_556
S18 Zn41 2.411133 1_545
S18 Zn14 2.484400 1_555
S19 Zn48 2.237520 1_555
S19 Zn28 2.244819 1_555
S19 Zn46 2.318649 1_555
S20 S5 2.044150 1_555
S21 Zn26 2.306435 1_556
S21 Zn42 2.377886 1_556
S21 Zn17 2.438355 1_555
S21 Zn35 2.690548 1_555
S22 Zn12 2.298822 1_555
S22 Zn28 2.311308 1_555
S22 Zn2 2.370526 1_555
S22 Zn20 2.456627 1_555
S23 S35 2.005841 1_555
S24 Zn4 2.799190 1_555
S25 Zn18 2.293259 1_556
S25 Zn35 2.370701 1_555
S25 Zn14 2.397552 1_655
S25 Zn29 2.705790 1_555
S26 Zn23 2.263794 1_554
S26 Zn44 2.356479 1_555
S26 Zn41 2.367970 1_554
S27 S33 2.131912 1_555
S27 Zn26 2.311813 1_555
S27 Zn6 2.444348 1_555
S28 Zn15 2.184773 1_555
S28 Zn43 2.363309 1_455
S28 Zn37 2.485009 1_555
S29 Zn30 2.294760 1_555
S29 Zn49 2.365076 1_555
S29 Zn9 2.366658 1_554
S29 Zn6 2.501541 1_555
S30 Zn7 2.312572 1_555
S30 Zn43 2.355535 1_555
S30 Zn48 2.397872 1_555
S30 Zn20 2.446487 1_555
S31 Zn7 2.294771 1_555
S31 Zn10 2.324986 1_665
S31 Zn27 2.325672 1_655
S31 Zn31 2.632387 1_555
S32 S35 2.178595 1_565
S32 Zn16 2.328608 1_555
S32 Zn2 2.336012 1_555
S33 Zn49 2.398429 1_555
S33 Zn13 2.485168 1_555
S34 Zn15 2.183125 1_555
S34 Zn33 2.286991 1_555
S34 Zn34 2.405885 1_555
S36 Zn45 2.242726 1_555
S36 Zn36 2.417168 1_555
S36 Zn44 2.426503 1_555
S36 Zn22 2.449577 1_554
S37 Zn2 2.280939 1_555
S37 Zn1 2.296272 1_555
S37 Zn37 2.374992 1_555
S37 Zn15 2.779802 1_555
S38 Zn48 2.207167 1_555
S38 Zn8 2.358525 1_555
S38 Zn43 2.436633 1_555
S39 Zn4 2.258191 1_555
S39 Zn46 2.288773 1_555
S39 Zn40 2.358405 1_555
S40 Zn45 2.283682 1_555
S40 Zn31 2.302953 1_555
S40 Zn49 2.347721 1_565
S40 Zn0 2.739861 1_555
S41 Zn32 2.206267 1_555
S41 Zn37 2.303607 1_655
S41 Zn43 2.364003 1_555
S42 Zn49 2.326669 1_556
S42 Zn19 2.386049 1_555
S42 Zn47 2.401933 1_555
S42 Zn18 2.404462 1_556
S43 Zn30 2.298007 1_555
S43 Zn10 2.367327 1_555
S43 Zn11 2.426155 1_555
S43 Zn27 2.457624 1_545
S44 Zn3 2.224769 1_555
S44 Zn34 2.305685 1_555
S44 Zn8 2.421136 1_455
S45 Zn21 2.186898 1_555
S45 Zn36 2.211649 1_555
S46 Zn24 2.263331 1_454
S46 Zn41 2.318022 1_554
S46 Zn27 2.329862 1_555
S46 Zn11 2.517609 1_565
S47 Zn29 2.366746 1_555
S47 Zn20 2.374145 1_545
S47 Zn25 2.383821 1_555
S47 Zn39 2.602705 1_555
S48 Zn0 2.236676 1_555
S48 Zn30 2.304649 1_565
S48 Zn45 2.343185 1_555
S49 Zn10 2.309644 1_655
S49 Zn3 2.314967 1_655
S49 Zn13 2.377796 1_555
S49 Zn25 2.428347 1_555
