# generated using pymatgen
data_Sr3P
_symmetry_space_group_name_H-M   'P 1'
_cell_length_a   7.53412109
_cell_length_b   7.53412109
_cell_length_c   5.48046400
_cell_angle_alpha   90.00000000
_cell_angle_beta   90.00000000
_cell_angle_gamma   119.99999204
_symmetry_Int_Tables_number   1
_chemical_formula_structural   Sr3P
_chemical_formula_sum   'Sr6 P2'
_cell_volume   269.40967514
_cell_formula_units_Z   2
loop_
 _symmetry_equiv_pos_site_id
 _symmetry_equiv_pos_as_xyz
  1  'x, y, z'
loop_
 _atom_site_type_symbol
 _atom_site_label
 _atom_site_symmetry_multiplicity
 _atom_site_fract_x
 _atom_site_fract_y
 _atom_site_fract_z
 _atom_site_occupancy
  Sr  Sr0  1  0.17930000  0.35860100  0.25000000  1
  Sr  Sr1  1  0.64139900  0.82070000  0.25000000  1
  Sr  Sr2  1  0.17930000  0.82070000  0.25000000  1
  Sr  Sr3  1  0.82070000  0.64139900  0.75000000  1
  Sr  Sr4  1  0.35860100  0.17930000  0.75000000  1
  Sr  Sr5  1  0.82070000  0.17930000  0.75000000  1
  P  P0  1  0.33333300  0.66666700  0.75000000  1
  P  P1  1  0.66666700  0.33333300  0.25000000  1
loop_
_geom_bond_atom_site_label_1
_geom_bond_atom_site_label_2
_geom_bond_distance
_geom_bond_site_symmetry_2
P0 Sr2 3.398408 1_556
P0 Sr2 3.398408 1_555
P0 Sr0 3.398408 1_555
P0 Sr0 3.398408 1_556
P0 Sr1 3.398408 1_555
P0 Sr1 3.398408 1_556
P1 Sr5 3.398408 1_555
P1 Sr5 3.398408 1_554
P1 Sr4 3.398408 1_555
P1 Sr4 3.398408 1_554
P1 Sr3 3.398408 1_554
P1 Sr3 3.398408 1_555
