# generated using pymatgen
data_Li4V3P8O29
_symmetry_space_group_name_H-M   'P 1'
_cell_length_a   9.71533200
_cell_length_b   9.74811001
_cell_length_c   14.23468228
_cell_angle_alpha   89.91813058
_cell_angle_beta   90.27031351
_cell_angle_gamma   119.75090673
_symmetry_Int_Tables_number   1
_chemical_formula_structural   Li4V3P8O29
_chemical_formula_sum   'Li8 V6 P16 O58'
_cell_volume   1170.40463475
_cell_formula_units_Z   2
loop_
 _symmetry_equiv_pos_site_id
 _symmetry_equiv_pos_as_xyz
  1  'x, y, z'
loop_
 _atom_site_type_symbol
 _atom_site_label
 _atom_site_symmetry_multiplicity
 _atom_site_fract_x
 _atom_site_fract_y
 _atom_site_fract_z
 _atom_site_occupancy
  Li  Li0  1  0.09507100  0.33207700  0.43657600  1
  Li  Li1  1  0.67694200  0.90811200  0.94840500  1
  Li  Li2  1  0.76506000  0.09049600  0.55170600  1
  Li  Li3  1  0.23487900  0.90409400  0.44005900  1
  Li  Li4  1  0.33304500  0.10014000  0.06048000  1
  Li  Li5  1  0.76715900  0.66668000  0.05932200  1
  Li  Li6  1  0.01636600  0.04865800  0.01383900  1
  Li  Li7  1  0.96200400  0.94205800  0.48997200  1
  V  V0  1  0.56154400  0.99999800  0.74988500  1
  V  V1  1  0.43264700  0.99934100  0.25003200  1
  V  V2  1  0.99857600  0.43495200  0.24413800  1
  V  V3  1  0.99945100  0.56317000  0.75847000  1
  V  V4  1  0.43541500  0.43592600  0.74115400  1
  V  V5  1  0.56511800  0.56382200  0.25659900  1
  P  P0  1  0.22492800  0.30898800  0.16054800  1
  P  P1  1  0.08403000  0.31428900  0.65789800  1
  P  P2  1  0.69835500  0.78238300  0.65873000  1
  P  P3  1  0.34014800  0.66644500  0.86597500  1
  P  P4  1  0.33086000  0.66477000  0.36763600  1
  P  P5  1  0.68845900  0.90906100  0.15947300  1
  P  P6  1  0.77704900  0.08819900  0.33960500  1
  P  P7  1  0.08138600  0.77989300  0.15505500  1
  P  P8  1  0.91705800  0.21581100  0.84130500  1
  P  P9  1  0.21639300  0.90599400  0.66129900  1
  P  P10  1  0.31152300  0.09390600  0.83869600  1
  P  P11  1  0.67230900  0.33342200  0.63369700  1
  P  P12  1  0.66304100  0.33574400  0.13314600  1
  P  P13  1  0.30441400  0.22200300  0.34468500  1
  P  P14  1  0.91656000  0.69210500  0.33898200  1
  P  P15  1  0.76940300  0.68339700  0.84164900  1
  O  O0  1  0.20897700  0.21583900  0.42804500  1
  O  O1  1  0.25570800  0.34306400  0.66072200  1
  O  O2  1  0.99887000  0.19276100  0.92225500  1
  O  O3  1  0.08811900  0.34631900  0.16375100  1
  O  O4  1  0.38538200  0.46235100  0.17354600  1
  O  O5  1  0.33866600  0.52426600  0.81359900  1
  O  O6  1  0.54235900  0.62120100  0.66730900  1
  O  O7  1  0.76133400  0.76002200  0.93114800  1
  O  O8  1  0.66131000  0.73711100  0.16546200  1
  O  O9  1  0.18658200  0.51019800  0.32886500  1
  O  O10  1  0.08873900  0.47197700  0.67925800  1
  O  O11  1  0.48131600  0.66959200  0.31977700  1
  O  O12  1  0.36086800  0.67222700  0.96928500  1
  O  O13  1  0.33868400  0.66656200  0.47224600  1
  O  O14  1  0.48940700  0.81847200  0.82277800  1
  O  O15  1  0.07960100  0.62250600  0.16438800  1
  O  O16  1  0.18844600  0.66769500  0.82893400  1
  O  O17  1  0.65893100  0.91976800  0.66269500  1
  O  O18  1  0.79716200  0.99819100  0.25034500  1
  O  O19  1  0.78299200  0.00996000  0.42929100  1
  O  O20  1  0.77894100  0.98304800  0.07089700  1
  O  O21  1  0.53242900  0.90990900  0.17041300  1
  O  O22  1  0.32217600  0.81178700  0.32914900  1
  O  O23  1  0.73985700  0.07977200  0.83699000  1
  O  O24  1  0.37792200  0.90973900  0.67672200  1
  O  O25  1  0.07936600  0.73523700  0.67491200  1
  O  O26  1  0.99235100  0.19728000  0.74363000  1
  O  O27  1  0.99858600  0.23738500  0.56833800  1
  O  O28  1  0.00444700  0.79081500  0.42243200  1
  O  O29  1  0.91919100  0.25830100  0.33614800  1
  O  O30  1  0.61818500  0.08791000  0.32445900  1
  O  O31  1  0.25581200  0.92053200  0.16223900  1
  O  O32  1  0.67050100  0.18129400  0.67683300  1
  O  O33  1  0.46945700  0.09084900  0.82264900  1
  O  O34  1  0.23665100  0.02452900  0.93014300  1
  O  O35  1  0.20820900  0.97549100  0.57001700  1
  O  O36  1  0.20046200  0.99983300  0.75008700  1
  O  O37  1  0.33654300  0.08154800  0.34238900  1
  O  O38  1  0.80343400  0.32223200  0.17574900  1
  O  O39  1  0.92306800  0.37799000  0.83273600  1
  O  O40  1  0.50653900  0.18851100  0.16772300  1
  O  O41  1  0.66331900  0.35960100  0.02940900  1
  O  O42  1  0.68606500  0.32776800  0.53035100  1
  O  O43  1  0.51961500  0.33181700  0.67047600  1
  O  O44  1  0.91956900  0.53713200  0.32678400  1
  O  O45  1  0.81336500  0.47552000  0.68612700  1
  O  O46  1  0.34427500  0.26444300  0.82480200  1
  O  O47  1  0.20114800  0.20199000  0.25197000  1
  O  O48  1  0.21306700  0.21013300  0.07730300  1
  O  O49  1  0.46327600  0.38053800  0.33103700  1
  O  O50  1  0.67221400  0.48676300  0.18343700  1
  O  O51  1  0.61713100  0.52594800  0.81997000  1
  O  O52  1  0.91310700  0.65561200  0.83894100  1
  O  O53  1  0.99801200  0.80110000  0.07241400  1
  O  O54  1  0.99605800  0.79883000  0.24760300  1
  O  O55  1  0.74223700  0.65884800  0.33753700  1
  O  O56  1  0.80186300  0.80305900  0.57811100  1
  O  O57  1  0.79337500  0.80110100  0.75636400  1
loop_
_geom_bond_atom_site_label_1
_geom_bond_atom_site_label_2
_geom_bond_distance
_geom_bond_site_symmetry_2
Li0 O0 1.941505 1_555
Li0 O29 2.059344 1_455
Li0 O27 2.097970 1_455
Li0 O9 2.151580 1_555
Li1 O20 1.955704 1_556
Li1 O7 1.998534 1_555
Li1 O23 2.162281 1_565
Li1 O14 2.382152 1_555
Li2 O19 1.955926 1_555
Li2 O27 2.006360 1_555
Li2 O17 2.152625 1_545
Li2 O32 2.372085 1_555
Li3 O28 1.958629 1_555
Li3 O35 2.039824 1_555
Li3 O37 2.052131 1_565
Li3 O22 2.189882 1_555
Li4 O48 1.951781 1_555
Li4 O34 2.040812 1_554
Li4 O31 2.103760 1_545
Li4 O40 2.109978 1_555
Li5 O53 1.965196 1_555
Li5 O7 2.050703 1_554
Li5 O8 2.128371 1_555
Li5 O50 2.334340 1_555
Li6 O2 1.982768 1_454
Li6 O48 1.987002 1_555
Li6 O20 2.222938 1_445
Li6 O53 2.473710 1_445
Li6 O34 2.565031 1_554
Li7 O56 1.937007 1_555
Li7 O28 1.969555 1_655
Li7 O19 2.309894 1_565
Li7 O35 2.515479 1_655
O0 P13 1.492054 1_555
O1 P1 1.548319 1_555
O1 V4 1.895803 1_555
O2 P8 1.475770 1_555
O3 P0 1.543305 1_555
O3 V2 1.889674 1_455
O4 P0 1.544167 1_555
O4 V5 1.922219 1_555
O5 P3 1.568451 1_555
O5 V4 1.871773 1_555
O6 P2 1.555130 1_555
O6 V4 1.894438 1_555
O7 P15 1.499635 1_555
O8 P5 1.564438 1_555
O8 V5 1.961713 1_555
O9 P4 1.561634 1_555
O9 V2 1.995227 1_455
O10 P1 1.545578 1_555
O10 V3 1.895137 1_455
O11 P4 1.595020 1_555
O11 V5 1.837770 1_555
O12 P3 1.480710 1_555
O13 P4 1.490356 1_555
O14 P3 1.596915 1_555
O14 V0 1.862759 1_555
O15 P7 1.531285 1_555
O15 V2 1.955809 1_455
O16 P3 1.568701 1_555
O16 V3 1.882678 1_455
O17 P2 1.566196 1_555
O17 V0 1.948202 1_555
O18 P6 1.611864 1_565
O18 P5 1.619601 1_555
O19 P6 1.501694 1_555
O20 P5 1.503764 1_555
O21 P5 1.528689 1_555
O21 V1 1.958628 1_555
O22 P4 1.574313 1_555
O22 V1 1.954731 1_555
O23 P8 1.568313 1_555
O23 V0 1.946457 1_545
O24 P9 1.565941 1_555
O24 V0 1.862403 1_555
O25 P9 1.543638 1_555
O25 V3 1.881888 1_455
O26 P1 1.606747 1_655
O26 P8 1.625519 1_555
O27 P1 1.500495 1_655
O28 P14 1.498103 1_455
O29 P6 1.544930 1_555
O29 V2 1.990114 1_555
O30 P6 1.556011 1_555
O30 V1 1.886031 1_545
O31 P7 1.566757 1_555
O31 V1 1.943221 1_555
O32 P11 1.596295 1_555
O32 V0 1.863776 1_545
O33 P10 1.567194 1_555
O33 V0 1.858840 1_545
O34 P10 1.482954 1_555
O35 P9 1.484457 1_555
O36 P9 1.613616 1_555
O36 P10 1.613865 1_565
O37 P13 1.548390 1_555
O37 V1 1.999870 1_545
O38 P12 1.554280 1_555
O38 V2 1.915084 1_555
O39 P8 1.557420 1_555
O39 V3 1.897187 1_555
O40 P12 1.566287 1_555
O40 V1 1.994129 1_545
O41 P12 1.494342 1_555
O42 P11 1.481359 1_555
O43 P11 1.568215 1_555
O43 V4 1.883066 1_555
O44 P14 1.535522 1_555
O44 V2 1.932871 1_555
O45 P11 1.569428 1_555
O45 V3 1.873722 1_555
O46 P10 1.542288 1_555
O46 V4 1.879210 1_555
O47 P13 1.606356 1_555
O47 P0 1.610786 1_555
O48 P0 1.495931 1_555
O49 P13 1.562976 1_555
O49 V5 1.882538 1_555
O50 P12 1.599953 1_555
O50 V5 1.876059 1_555
O51 P15 1.543715 1_555
O51 V4 1.895283 1_555
O52 P15 1.549149 1_555
O52 V3 1.894755 1_555
O53 P7 1.496393 1_655
O54 P14 1.605922 1_555
O54 P7 1.618548 1_655
O55 P14 1.558397 1_555
O55 V5 1.883850 1_555
O56 P2 1.475774 1_555
O57 P15 1.605626 1_555
O57 P2 1.624334 1_555
