# generated using pymatgen
data_AlBrO
_symmetry_space_group_name_H-M   'P 1'
_cell_length_a   4.97325062
_cell_length_b   5.58632044
_cell_length_c   8.90473166
_cell_angle_alpha   90.00000000
_cell_angle_beta   90.00000000
_cell_angle_gamma   90.00000000
_symmetry_Int_Tables_number   1
_chemical_formula_structural   AlBrO
_chemical_formula_sum   'Al4 Br4 O4'
_cell_volume   247.39278296
_cell_formula_units_Z   4
loop_
 _symmetry_equiv_pos_site_id
 _symmetry_equiv_pos_as_xyz
  1  'x, y, z'
loop_
 _atom_site_type_symbol
 _atom_site_label
 _atom_site_symmetry_multiplicity
 _atom_site_fract_x
 _atom_site_fract_y
 _atom_site_fract_z
 _atom_site_occupancy
  Al  Al0  1  0.99261400  0.09149229  0.08790561  1
  Al  Al1  1  0.49261400  0.90850771  0.91209439  1
  Al  Al2  1  0.99261400  0.59149229  0.91209439  1
  Al  Al3  1  0.49261400  0.40850771  0.08790561  1
  Br  Br0  1  0.08843975  0.99581159  0.32469816  1
  Br  Br1  1  0.58843975  0.00418841  0.67530184  1
  Br  Br2  1  0.08843975  0.49581159  0.67530184  1
  Br  Br3  1  0.58843975  0.50418841  0.32469816  1
  O  O0  1  0.14794525  0.37117989  0.03334745  1
  O  O1  1  0.64794525  0.62882011  0.96665255  1
  O  O2  1  0.14794525  0.87117989  0.96665255  1
  O  O3  1  0.64794525  0.12882011  0.03334745  1
loop_
_geom_bond_atom_site_label_1
_geom_bond_atom_site_label_2
_geom_bond_distance
_geom_bond_site_symmetry_2
Al0 O3 1.793803 1_555
Al0 O0 1.809407 1_655
Al0 O2 1.810325 1_644
Al0 Br0 2.226857 1_645
Al1 O2 1.793803 1_555
Al1 O1 1.809407 1_555
Al1 O3 1.810325 1_566
Al1 Br1 2.226857 1_565
Al2 O1 1.793803 1_555
Al2 O2 1.809407 1_655
Al2 O0 1.810325 1_656
Al2 Br2 2.226857 1_655
Al3 O0 1.793803 1_555
Al3 O3 1.809407 1_555
Al3 O1 1.810325 1_554
Al3 Br3 2.226857 1_555
