# generated using pymatgen
data_LiFe2O3
_symmetry_space_group_name_H-M   'P 1'
_cell_length_a   3.04479302
_cell_length_b   8.05839267
_cell_length_c   5.30804742
_cell_angle_alpha   69.67887771
_cell_angle_beta   89.98729999
_cell_angle_gamma   79.10653398
_symmetry_Int_Tables_number   1
_chemical_formula_structural   LiFe2O3
_chemical_formula_sum   'Li2 Fe4 O6'
_cell_volume   119.62930434
_cell_formula_units_Z   2
loop_
 _symmetry_equiv_pos_site_id
 _symmetry_equiv_pos_as_xyz
  1  'x, y, z'
loop_
 _atom_site_type_symbol
 _atom_site_label
 _atom_site_symmetry_multiplicity
 _atom_site_fract_x
 _atom_site_fract_y
 _atom_site_fract_z
 _atom_site_occupancy
  Li  Li0  1  0.25052000  0.49901700  0.25044700  1
  Li  Li1  1  0.74931000  0.50020100  0.74943700  1
  Fe  Fe0  1  0.40826100  0.18358800  0.06903100  1
  Fe  Fe1  1  0.59027900  0.82065400  0.92200900  1
  Fe  Fe2  1  0.91159000  0.17870800  0.57857200  1
  Fe  Fe3  1  0.09120800  0.81710600  0.43052100  1
  O  O0  1  0.50491800  0.99165800  0.48244900  1
  O  O1  1  0.99660000  0.00856400  0.01702300  1
  O  O2  1  0.16102900  0.67642700  0.81182400  1
  O  O3  1  0.65785700  0.68361900  0.32939000  1
  O  O4  1  0.84119700  0.31637800  0.17122500  1
  O  O5  1  0.33719000  0.32408000  0.68807200  1
loop_
_geom_bond_atom_site_label_1
_geom_bond_atom_site_label_2
_geom_bond_distance
_geom_bond_site_symmetry_2
Li0 O4 2.237540 1_555
Li0 O4 2.240453 1_455
Li0 O5 2.244582 1_555
Li0 O3 2.248845 1_555
Li0 O3 2.250084 1_455
Li0 O2 2.253874 1_554
Li1 O5 2.164489 1_655
Li1 O5 2.165489 1_555
Li1 O2 2.167380 1_655
Li1 O2 2.167871 1_555
Li1 O3 2.188425 1_555
Li1 O4 2.196645 1_556
Fe0 O5 1.932653 1_554
Fe0 O4 2.028201 1_555
Fe0 O4 2.030975 1_455
Fe0 O1 2.138998 1_455
Fe0 O1 2.142367 1_555
Fe0 O0 2.182931 1_545
Fe1 O3 2.047807 1_556
Fe1 O2 2.102653 1_655
Fe1 O2 2.108949 1_555
Fe1 O0 2.245456 1_555
Fe1 O1 2.304409 1_466
Fe1 O1 2.305792 1_566
Fe2 O4 2.048446 1_555
Fe2 O5 2.106289 1_655
Fe2 O5 2.113528 1_555
Fe2 O1 2.238995 1_556
Fe2 O0 2.302291 1_645
Fe2 O0 2.303359 1_545
Fe3 O2 1.934494 1_555
Fe3 O3 2.030077 1_555
Fe3 O3 2.030789 1_455
Fe3 O0 2.135702 1_455
Fe3 O0 2.140190 1_555
Fe3 O1 2.181986 1_465
