# generated using pymatgen
data_Li7Co5O12
_symmetry_space_group_name_H-M   'P 1'
_cell_length_a   2.90631177
_cell_length_b   2.90631177
_cell_length_c   29.76499927
_cell_angle_alpha   89.11511108
_cell_angle_beta   89.11511108
_cell_angle_gamma   60.79054272
_symmetry_Int_Tables_number   1
_chemical_formula_structural   Li7Co5O12
_chemical_formula_sum   'Li7 Co5 O12'
_cell_volume   219.40982095
_cell_formula_units_Z   1
loop_
 _symmetry_equiv_pos_site_id
 _symmetry_equiv_pos_as_xyz
  1  'x, y, z'
loop_
 _atom_site_type_symbol
 _atom_site_label
 _atom_site_symmetry_multiplicity
 _atom_site_fract_x
 _atom_site_fract_y
 _atom_site_fract_z
 _atom_site_occupancy
  Li  Li0  1  0.66808800  0.66808800  0.91641800  1
  Li  Li1  1  0.33191200  0.33191200  0.08358200  1
  Li  Li2  1  0.00364800  0.00364800  0.24988900  1
  Li  Li3  1  0.66596200  0.66596200  0.41651900  1
  Li  Li4  1  0.33403800  0.33403800  0.58348100  1
  Li  Li5  1  0.99635200  0.99635200  0.75011100  1
  Li  Li6  1  0.00000000  0.00000000  0.00000000  1
  Co  Co0  1  0.33340900  0.33340900  0.83197400  1
  Co  Co1  1  0.66659100  0.66659100  0.16802600  1
  Co  Co2  1  0.33441200  0.33441200  0.33339400  1
  Co  Co3  1  0.00000000  0.00000000  0.50000000  1
  Co  Co4  1  0.66558800  0.66558800  0.66660600  1
  O  O0  1  0.01551900  0.01551900  0.86874100  1
  O  O1  1  0.66706800  0.66706800  0.04350500  1
  O  O2  1  0.34809000  0.34809000  0.20628900  1
  O  O3  1  0.99329700  0.99329700  0.37158300  1
  O  O4  1  0.67998400  0.67998400  0.53806000  1
  O  O5  1  0.32406200  0.32406200  0.70478100  1
  O  O6  1  0.33293200  0.33293200  0.95649500  1
  O  O7  1  0.98448100  0.98448100  0.13125900  1
  O  O8  1  0.67593800  0.67593800  0.29521900  1
  O  O9  1  0.32001600  0.32001600  0.46194000  1
  O  O10  1  0.00670300  0.00670300  0.62841700  1
  O  O11  1  0.65191000  0.65191000  0.79371100  1
loop_
_geom_bond_atom_site_label_1
_geom_bond_atom_site_label_2
_geom_bond_distance
_geom_bond_site_symmetry_2
Li0 O6 2.043250 1_555
Li0 O6 2.074534 1_655
Li0 O6 2.074534 1_565
Li0 O0 2.190933 1_655
Li0 O0 2.190933 1_565
Li0 O0 2.227021 1_665
Li1 O1 2.043250 1_555
Li1 O1 2.074534 1_545
Li1 O1 2.074534 1_455
Li1 O7 2.190933 1_455
Li1 O7 2.190933 1_545
Li1 O7 2.227021 1_445
Li2 O8 2.107291 1_445
Li2 O2 2.119201 1_455
Li2 O2 2.119201 1_545
Li2 O2 2.141543 1_555
Li2 O8 2.184194 1_455
Li2 O8 2.184194 1_545
Li3 O3 2.098516 1_555
Li3 O9 2.150367 1_655
Li3 O9 2.150367 1_565
Li3 O3 2.177653 1_545
Li3 O3 2.177653 1_455
Li3 O9 2.179957 1_555
Li4 O10 2.098516 1_555
Li4 O4 2.150367 1_455
Li4 O4 2.150367 1_545
Li4 O10 2.177653 1_655
Li4 O10 2.177653 1_565
Li4 O4 2.179957 1_555
Li5 O5 2.107291 1_665
Li5 O11 2.119201 1_655
Li5 O11 2.119201 1_565
Li5 O11 2.141543 1_555
Li5 O5 2.184194 1_655
Li5 O5 2.184194 1_565
Li6 O1 2.094216 1_445
Li6 O6 2.094216 1_554
Li6 O1 2.140006 1_455
Li6 O1 2.140006 1_545
Li6 O6 2.140006 1_544
Li6 O6 2.140006 1_454
Co0 O0 1.917136 1_555
Co0 O11 1.944727 1_555
Co0 O0 2.056552 1_655
Co0 O0 2.056552 1_565
Co0 O11 2.079566 1_455
Co0 O11 2.079566 1_545
Co1 O7 1.917136 1_555
Co1 O2 1.944727 1_555
Co1 O7 2.056552 1_545
Co1 O7 2.056552 1_455
Co1 O2 2.079566 1_565
Co1 O2 2.079566 1_655
Co2 O8 2.029060 1_545
Co2 O8 2.029060 1_455
Co2 O3 2.030124 1_545
Co2 O3 2.030124 1_455
Co2 O3 2.036522 1_445
Co2 O8 2.038007 1_555
Co3 O4 1.947457 1_445
Co3 O9 1.947457 1_555
Co3 O4 2.072824 1_455
Co3 O9 2.072824 1_545
Co3 O9 2.072824 1_455
Co3 O4 2.072824 1_545
Co4 O5 2.029060 1_565
Co4 O5 2.029060 1_655
Co4 O10 2.030124 1_565
Co4 O10 2.030124 1_655
Co4 O10 2.036522 1_665
Co4 O5 2.038007 1_555
