# generated using pymatgen
data_Ba8U2PdSe16
_symmetry_space_group_name_H-M   'P 1'
_cell_length_a   9.62101000
_cell_length_b   12.41982400
_cell_length_c   14.07088700
_cell_angle_alpha   90.00000000
_cell_angle_beta   90.00000000
_cell_angle_gamma   90.00000000
_symmetry_Int_Tables_number   1
_chemical_formula_structural   Ba8U2PdSe16
_chemical_formula_sum   'Ba16 U4 Pd2 Se32'
_cell_volume   1681.34788893
_cell_formula_units_Z   2
loop_
 _symmetry_equiv_pos_site_id
 _symmetry_equiv_pos_as_xyz
  1  'x, y, z'
loop_
 _atom_site_type_symbol
 _atom_site_label
 _atom_site_symmetry_multiplicity
 _atom_site_fract_x
 _atom_site_fract_y
 _atom_site_fract_z
 _atom_site_occupancy
  Ba  Ba0  1  0.89138500  0.33841600  0.74477200  1
  Ba  Ba1  1  0.10861500  0.66158400  0.74477200  1
  Ba  Ba2  1  0.39138500  0.16158400  0.75522800  1
  Ba  Ba3  1  0.60861500  0.83841600  0.75522800  1
  Ba  Ba4  1  0.10861500  0.66158400  0.25522800  1
  Ba  Ba5  1  0.89138500  0.33841600  0.25522800  1
  Ba  Ba6  1  0.60861500  0.83841600  0.24477200  1
  Ba  Ba7  1  0.39138500  0.16158400  0.24477200  1
  Ba  Ba8  1  0.79141500  0.08632800  0.50000000  1
  Ba  Ba9  1  0.20858500  0.91367200  0.50000000  1
  Ba  Ba10  1  0.29141500  0.41367200  0.00000000  1
  Ba  Ba11  1  0.70858500  0.58632800  0.00000000  1
  Ba  Ba12  1  0.23645900  0.34243300  0.50000000  1
  Ba  Ba13  1  0.76354000  0.65756700  0.50000000  1
  Ba  Ba14  1  0.73646000  0.15756700  0.00000000  1
  Ba  Ba15  1  0.26354100  0.84243300  0.00000000  1
  U  U0  1  0.50000000  0.50000000  0.74409500  1
  U  U1  1  0.00000000  0.00000000  0.75590500  1
  U  U2  1  0.50000000  0.50000000  0.25590500  1
  U  U3  1  0.00000000  0.00000000  0.24409500  1
  Pd  Pd0  1  0.50000000  0.50000000  0.50000000  1
  Pd  Pd1  1  0.00000000  0.00000000  0.00000000  1
  Se  Se0  1  0.54174700  0.90787800  0.50000000  1
  Se  Se1  1  0.45825300  0.09212200  0.50000000  1
  Se  Se2  1  0.04174700  0.59212200  0.00000000  1
  Se  Se3  1  0.95825300  0.40787800  0.00000000  1
  Se  Se4  1  0.91539400  0.42661000  0.50000000  1
  Se  Se5  1  0.08460600  0.57339000  0.50000000  1
  Se  Se6  1  0.41539400  0.07339000  0.00000000  1
  Se  Se7  1  0.58460600  0.92661000  0.00000000  1
  Se  Se8  1  0.57808100  0.35038300  0.61232600  1
  Se  Se9  1  0.42191900  0.64961700  0.61232600  1
  Se  Se10  1  0.07808100  0.14961700  0.88767400  1
  Se  Se11  1  0.92191900  0.85038300  0.88767400  1
  Se  Se12  1  0.42191900  0.64961700  0.38767400  1
  Se  Se13  1  0.57808100  0.35038300  0.38767400  1
  Se  Se14  1  0.92191900  0.85038300  0.11232600  1
  Se  Se15  1  0.07808100  0.14961700  0.11232600  1
  Se  Se16  1  0.58642900  0.35119200  0.87403400  1
  Se  Se17  1  0.41357100  0.64880800  0.87403400  1
  Se  Se18  1  0.08642900  0.14880800  0.62596600  1
  Se  Se19  1  0.91357100  0.85119200  0.62596600  1
  Se  Se20  1  0.41357100  0.64880800  0.12596600  1
  Se  Se21  1  0.58642900  0.35119200  0.12596600  1
  Se  Se22  1  0.91357100  0.85119200  0.37403400  1
  Se  Se23  1  0.08642900  0.14880800  0.37403400  1
  Se  Se24  1  0.73067200  0.09158600  0.75054700  1
  Se  Se25  1  0.26932800  0.90841400  0.75054700  1
  Se  Se26  1  0.23067200  0.40841400  0.74945300  1
  Se  Se27  1  0.76932800  0.59158600  0.74945300  1
  Se  Se28  1  0.26932800  0.90841400  0.24945300  1
  Se  Se29  1  0.73067200  0.09158600  0.24945300  1
  Se  Se30  1  0.76932800  0.59158600  0.25054700  1
  Se  Se31  1  0.23067200  0.40841400  0.25054700  1
loop_
_geom_bond_atom_site_label_1
_geom_bond_atom_site_label_2
_geom_bond_distance
_geom_bond_site_symmetry_2
Ba0 Se27 3.357103 1_555
Ba0 Se26 3.378709 1_655
Ba0 Se24 3.434416 1_555
Ba0 Se18 3.444049 1_655
Ba0 Se16 3.455661 1_555
Ba0 Se8 3.547003 1_555
Ba0 Se10 3.573209 1_655
Ba0 Se4 3.621518 1_555
Ba0 Se3 3.749062 1_556
Ba1 Se26 3.357103 1_555
Ba1 Se27 3.378709 1_455
Ba1 Se25 3.434416 1_555
Ba1 Se19 3.444049 1_455
Ba1 Se17 3.455661 1_555
Ba1 Se9 3.547003 1_555
Ba1 Se11 3.573209 1_455
Ba1 Se5 3.621518 1_555
Ba1 Se2 3.749062 1_556
Ba2 Se25 3.357103 1_545
Ba2 Se24 3.378709 1_555
Ba2 Se26 3.434416 1_555
Ba2 Se16 3.444049 1_555
Ba2 Se18 3.455661 1_555
Ba2 Se10 3.547003 1_555
Ba2 Se8 3.573209 1_555
Ba2 Se6 3.621518 1_556
Ba2 Se1 3.749062 1_555
Ba3 Se24 3.357103 1_565
Ba3 Se25 3.378709 1_555
Ba3 Se27 3.434416 1_555
Ba3 Se17 3.444049 1_555
Ba3 Se19 3.455661 1_555
Ba3 Se11 3.547003 1_555
Ba3 Se9 3.573209 1_555
Ba3 Se7 3.621518 1_556
Ba3 Se0 3.749062 1_555
Ba4 Se31 3.357103 1_555
Ba4 Se30 3.378709 1_455
Ba4 Se28 3.434416 1_555
Ba4 Se22 3.444049 1_455
Ba4 Se20 3.455661 1_555
Ba4 Se12 3.547003 1_555
Ba4 Se14 3.573209 1_455
Ba4 Se5 3.621518 1_555
Ba4 Se2 3.749062 1_555
Ba5 Se30 3.357103 1_555
Ba5 Se31 3.378709 1_655
Ba5 Se29 3.434416 1_555
Ba5 Se23 3.444049 1_655
Ba5 Se21 3.455661 1_555
Ba5 Se13 3.547003 1_555
Ba5 Se15 3.573209 1_655
Ba5 Se4 3.621518 1_555
Ba5 Se3 3.749062 1_555
Ba6 Se29 3.357103 1_565
Ba6 Se28 3.378709 1_555
Ba6 Se30 3.434416 1_555
Ba6 Se20 3.444049 1_555
Ba6 Se22 3.455661 1_555
Ba6 Se14 3.547003 1_555
Ba6 Se12 3.573209 1_555
Ba6 Se7 3.621518 1_555
Ba6 Se0 3.749062 1_555
Ba7 Se28 3.357103 1_545
Ba7 Se29 3.378709 1_555
Ba7 Se31 3.434416 1_555
Ba7 Se21 3.444049 1_555
Ba7 Se23 3.455661 1_555
Ba7 Se15 3.547003 1_555
Ba7 Se13 3.573209 1_555
Ba7 Se6 3.621518 1_555
Ba7 Se1 3.749062 1_555
Ba8 Se1 3.206163 1_555
Ba8 Se0 3.268325 1_545
Ba8 Se23 3.435096 1_655
Ba8 Se18 3.435096 1_655
Ba8 Se24 3.574126 1_555
Ba8 Se29 3.574126 1_555
Ba8 Se22 3.612654 1_545
Ba8 Se19 3.612654 1_545
Ba9 Se0 3.206163 1_555
Ba9 Se1 3.268325 1_565
Ba9 Se19 3.435096 1_455
Ba9 Se22 3.435096 1_455
Ba9 Se25 3.574126 1_555
Ba9 Se28 3.574126 1_555
Ba9 Se18 3.612654 1_565
Ba9 Se23 3.612654 1_565
Ba10 Se3 3.206163 1_455
Ba10 Se2 3.268325 1_555
Ba10 Se16 3.435096 1_554
Ba10 Se21 3.435096 1_555
Ba10 Se31 3.574126 1_555
Ba10 Se26 3.574126 1_554
Ba10 Se20 3.612654 1_555
Ba10 Se17 3.612654 1_554
Ba11 Se2 3.206163 1_655
Ba11 Se3 3.268325 1_555
Ba11 Se20 3.435096 1_555
Ba11 Se17 3.435096 1_554
Ba11 Se30 3.574126 1_555
Ba11 Se27 3.574126 1_554
Ba11 Se16 3.612654 1_554
Ba11 Se21 3.612654 1_555
Ba12 Pd0 3.202903 1_555
Ba12 Se5 3.219074 1_555
Ba12 Se4 3.261093 1_455
Ba12 Se23 3.317848 1_555
Ba12 Se18 3.317848 1_555
Ba12 Se26 3.604845 1_555
Ba12 Se31 3.604845 1_555
Ba12 Se8 3.648360 1_555
Ba12 Se13 3.648360 1_555
Ba12 Se1 3.770704 1_555
Ba13 Pd0 3.202895 1_555
Ba13 Se4 3.219079 1_555
Ba13 Se5 3.261102 1_655
Ba13 Se22 3.317853 1_555
Ba13 Se19 3.317853 1_555
Ba13 Se27 3.604846 1_555
Ba13 Se30 3.604846 1_555
Ba13 Se9 3.648351 1_555
Ba13 Se12 3.648351 1_555
Ba13 Se0 3.770698 1_555
Ba14 Pd1 3.202895 1_655
Ba14 Se7 3.219079 1_545
Ba14 Se6 3.261102 1_555
Ba14 Se16 3.317853 1_554
Ba14 Se21 3.317853 1_555
Ba14 Se29 3.604846 1_555
Ba14 Se24 3.604846 1_554
Ba14 Se15 3.648351 1_655
Ba14 Se10 3.648351 1_654
Ba14 Se3 3.770698 1_555
Ba15 Pd1 3.202903 1_565
Ba15 Se6 3.219074 1_565
Ba15 Se7 3.261093 1_555
Ba15 Se20 3.317848 1_555
Ba15 Se17 3.317848 1_554
Ba15 Se28 3.604845 1_555
Ba15 Se25 3.604845 1_554
Ba15 Se14 3.648360 1_455
Ba15 Se11 3.648360 1_454
Ba15 Se2 3.770704 1_555
Pd0 Se8 2.552521 1_555
Pd0 Se9 2.552521 1_555
Pd0 Se13 2.552521 1_555
Pd0 Se12 2.552521 1_555
Pd1 Se15 2.552521 1_555
Pd1 Se10 2.552521 1_554
Pd1 Se14 2.552521 1_445
Pd1 Se11 2.552521 1_444
Se0 Se1 2.425181 1_565
Se2 Se3 2.425181 1_455
Se4 Se5 2.444098 1_655
Se6 Se7 2.444098 1_545
Se8 U0 2.730386 1_555
Se9 U0 2.730386 1_555
Se10 U1 2.730386 1_555
Se11 U1 2.730386 1_665
Se12 U2 2.730386 1_555
Se13 U2 2.730386 1_555
Se14 U3 2.730386 1_665
Se15 U3 2.730386 1_555
Se16 U0 2.729481 1_555
Se17 U0 2.729481 1_555
Se18 U1 2.729481 1_555
Se19 U1 2.729481 1_665
Se20 U2 2.729481 1_555
Se21 U2 2.729481 1_555
Se22 U3 2.729481 1_665
Se23 U3 2.729481 1_555
Se24 U1 2.830884 1_655
Se25 U1 2.830884 1_565
Se26 U0 2.830884 1_555
Se27 U0 2.830884 1_555
Se28 U3 2.830884 1_565
Se29 U3 2.830884 1_655
Se30 U2 2.830884 1_555
Se31 U2 2.830884 1_555
