# generated using pymatgen
data_Tm2FeSi2
_symmetry_space_group_name_H-M   'P 1'
_cell_length_a   5.52404997
_cell_length_b   5.52404997
_cell_length_c   9.77734990
_cell_angle_alpha   63.13207152
_cell_angle_beta   63.13207152
_cell_angle_gamma   43.48445383
_symmetry_Int_Tables_number   1
_chemical_formula_structural   Tm2FeSi2
_chemical_formula_sum   'Tm4 Fe2 Si4'
_cell_volume   179.37568565
_cell_formula_units_Z   2
loop_
 _symmetry_equiv_pos_site_id
 _symmetry_equiv_pos_as_xyz
  1  'x, y, z'
loop_
 _atom_site_type_symbol
 _atom_site_label
 _atom_site_symmetry_multiplicity
 _atom_site_fract_x
 _atom_site_fract_y
 _atom_site_fract_z
 _atom_site_occupancy
  Tm  Tm0  1  -0.00103005  -0.00103005  0.32933953  1
  Tm  Tm1  1  0.00103005  0.00103005  0.67066047  1
  Tm  Tm2  1  0.81224320  0.81224320  0.10863184  1
  Tm  Tm3  1  0.18775680  0.18775680  0.89136816  1
  Fe  Fe0  1  0.72996624  0.72996624  0.62361949  1
  Fe  Fe1  1  0.27003376  0.27003376  0.37638051  1
  Si  Si0  1  0.65344841  0.65344841  0.43594975  1
  Si  Si1  1  0.34655159  0.34655159  0.56405025  1
  Si  Si2  1  0.50135275  0.50135275  0.12672350  1
  Si  Si3  1  0.49864725  0.49864725  0.87327650  1
loop_
_geom_bond_atom_site_label_1
_geom_bond_atom_site_label_2
_geom_bond_distance
_geom_bond_site_symmetry_2
Fe0 Si1 2.297786 1_565
Fe0 Si1 2.297786 1_655
Fe0 Si0 2.320685 1_555
Fe0 Si3 2.440260 1_555
Fe0 Tm0 2.858354 1_665
Fe0 Tm1 2.977730 1_655
Fe0 Tm1 2.977730 1_565
Fe0 Tm1 3.032218 1_665
Fe0 Tm3 3.181934 1_655
Fe0 Tm3 3.181934 1_565
Fe1 Si0 2.297786 1_545
Fe1 Si0 2.297786 1_455
Fe1 Si1 2.320685 1_555
Fe1 Si2 2.440260 1_555
Fe1 Tm1 2.858354 1_555
Fe1 Tm0 2.977730 1_565
Fe1 Tm0 2.977730 1_655
Fe1 Tm0 3.032218 1_555
Fe1 Tm2 3.181934 1_545
Fe1 Tm2 3.181934 1_455
Si0 Si1 2.765695 1_555
Si0 Tm2 2.796894 1_555
Si0 Tm1 2.899523 1_565
Si0 Tm1 2.899523 1_655
Si0 Tm0 3.065108 1_655
Si0 Tm0 3.065108 1_565
Si0 Tm0 3.172156 1_665
Si1 Tm3 2.796894 1_555
Si1 Tm0 2.899523 1_565
Si1 Tm0 2.899523 1_655
Si1 Tm1 3.065108 1_565
Si1 Tm1 3.065108 1_655
Si1 Tm1 3.172156 1_555
Si2 Si3 2.491667 1_554
Si2 Tm0 2.839943 1_565
Si2 Tm0 2.839943 1_655
Si2 Tm2 2.884232 1_545
Si2 Tm2 2.884232 1_455
Si2 Tm3 2.976291 1_654
Si2 Tm3 2.976291 1_564
Si2 Tm2 3.108179 1_555
Si3 Tm1 2.839943 1_565
Si3 Tm1 2.839943 1_655
Si3 Tm3 2.884232 1_565
Si3 Tm3 2.884232 1_655
Si3 Tm2 2.976291 1_456
Si3 Tm2 2.976291 1_546
Si3 Tm3 3.108179 1_555
