# generated using pymatgen
data_ThNi5
_symmetry_space_group_name_H-M   'P 1'
_cell_length_a   4.90031092
_cell_length_b   4.90025247
_cell_length_c   3.95247917
_cell_angle_alpha   90.00000000
_cell_angle_beta   90.00000000
_cell_angle_gamma   119.99974345
_symmetry_Int_Tables_number   1
_chemical_formula_structural   ThNi5
_chemical_formula_sum   'Th1 Ni5'
_cell_volume   82.19462852
_cell_formula_units_Z   1
loop_
 _symmetry_equiv_pos_site_id
 _symmetry_equiv_pos_as_xyz
  1  'x, y, z'
loop_
 _atom_site_type_symbol
 _atom_site_label
 _atom_site_symmetry_multiplicity
 _atom_site_fract_x
 _atom_site_fract_y
 _atom_site_fract_z
 _atom_site_occupancy
  Th  Th0  1  0.00000000  0.00000000  -0.00000000  1
  Ni  Ni0  1  0.33333797  0.66666699  0.00000000  1
  Ni  Ni1  1  0.66666203  0.33333301  -0.00000000  1
  Ni  Ni2  1  0.50000000  0.00000000  0.50000000  1
  Ni  Ni3  1  0.50000000  0.50000000  0.50000000  1
  Ni  Ni4  1  0.00000000  0.50000000  0.50000000  1
loop_
_geom_bond_atom_site_label_1
_geom_bond_atom_site_label_2
_geom_bond_distance
_geom_bond_site_symmetry_2
Ni0 Ni3 2.430335 1_554
Ni0 Ni3 2.430335 1_555
Ni0 Ni2 2.430343 1_565
Ni0 Ni2 2.430343 1_564
Ni0 Ni4 2.430365 1_555
Ni0 Ni4 2.430365 1_554
Ni0 Th0 2.829171 1_555
Ni0 Th0 2.829183 1_665
Ni0 Th0 2.829194 1_565
Ni1 Ni3 2.430335 1_554
Ni1 Ni3 2.430335 1_555
Ni1 Ni2 2.430343 1_554
Ni1 Ni2 2.430343 1_555
Ni1 Ni4 2.430365 1_654
Ni1 Ni4 2.430365 1_655
Ni1 Th0 2.829171 1_665
Ni1 Th0 2.829183 1_555
Ni1 Th0 2.829194 1_655
Ni2 Ni3 2.450126 1_555
Ni2 Ni3 2.450126 1_545
Ni2 Ni4 2.450150 1_545
Ni2 Ni4 2.450150 1_655
Ni2 Th0 3.147822 1_656
Ni2 Th0 3.147822 1_555
Ni2 Th0 3.147822 1_556
Ni2 Th0 3.147822 1_655
Ni3 Ni4 2.450155 1_555
Ni3 Ni4 2.450155 1_655
Ni3 Th0 3.147818 1_665
Ni3 Th0 3.147818 1_666
Ni3 Th0 3.147818 1_555
Ni3 Th0 3.147818 1_556
Ni4 Th0 3.147799 1_566
Ni4 Th0 3.147799 1_555
Ni4 Th0 3.147799 1_556
Ni4 Th0 3.147799 1_565
