# generated using pymatgen
data_SrCa7Ti2Mn6O21
_symmetry_space_group_name_H-M   'P 1'
_cell_length_a   11.10209078
_cell_length_b   15.63545953
_cell_length_c   11.08908445
_cell_angle_alpha   90.23982469
_cell_angle_beta   91.14423943
_cell_angle_gamma   90.50313526
_symmetry_Int_Tables_number   1
_chemical_formula_structural   SrCa7Ti2Mn6O21
_chemical_formula_sum   'Sr4 Ca28 Ti8 Mn24 O84'
_cell_volume   1924.43668455
_cell_formula_units_Z   4
loop_
 _symmetry_equiv_pos_site_id
 _symmetry_equiv_pos_as_xyz
  1  'x, y, z'
loop_
 _atom_site_type_symbol
 _atom_site_label
 _atom_site_symmetry_multiplicity
 _atom_site_fract_x
 _atom_site_fract_y
 _atom_site_fract_z
 _atom_site_occupancy
  Sr  Sr0  1  0.97910630  0.12086742  0.52903787  1
  Sr  Sr1  1  0.51044110  0.38510559  0.98831670  1
  Sr  Sr2  1  0.24119940  0.38782697  0.22531077  1
  Sr  Sr3  1  0.22890795  0.12414172  0.21869993  1
  Ca  Ca0  1  0.97932981  0.11592464  0.01565116  1
  Ca  Ca1  1  0.99359323  0.62254875  0.51087243  1
  Ca  Ca2  1  0.01471633  0.61937995  0.00302870  1
  Ca  Ca3  1  0.53656076  0.11700787  0.48047547  1
  Ca  Ca4  1  0.54075946  0.11949741  0.98572454  1
  Ca  Ca5  1  0.53348673  0.62947098  0.51245074  1
  Ca  Ca6  1  0.53315632  0.62368161  0.97176152  1
  Ca  Ca7  1  0.49549998  0.38067266  0.52340898  1
  Ca  Ca8  1  0.52167666  0.85433585  0.97657659  1
  Ca  Ca9  1  0.49890184  0.86108508  0.49637963  1
  Ca  Ca10  1  0.96808965  0.39470238  0.00635511  1
  Ca  Ca11  1  0.95455595  0.38853658  0.50869468  1
  Ca  Ca12  1  0.95660137  0.87041570  0.99479055  1
  Ca  Ca13  1  0.96515643  0.86524491  0.51160745  1
  Ca  Ca14  1  0.23923695  0.40665122  0.75497570  1
  Ca  Ca15  1  0.23659417  0.87927594  0.27687447  1
  Ca  Ca16  1  0.22879812  0.85621280  0.73221356  1
  Ca  Ca17  1  0.76129694  0.39464675  0.25731942  1
  Ca  Ca18  1  0.73371588  0.38821939  0.76168406  1
  Ca  Ca19  1  0.74391125  0.85829582  0.24732351  1
  Ca  Ca20  1  0.72159066  0.86484232  0.73857052  1
  Ca  Ca21  1  0.22765936  0.11381637  0.73512249  1
  Ca  Ca22  1  0.23409293  0.62172349  0.26658301  1
  Ca  Ca23  1  0.26809393  0.62739659  0.73533506  1
  Ca  Ca24  1  0.76116508  0.11420199  0.24275428  1
  Ca  Ca25  1  0.76954818  0.12650184  0.75539520  1
  Ca  Ca26  1  0.78050209  0.62249347  0.26026360  1
  Ca  Ca27  1  0.77285438  0.62450706  0.75853369  1
  Ti  Ti0  1  0.98747913  0.99267421  0.25874966  1
  Ti  Ti1  1  0.98879126  0.99092371  0.75962391  1
  Ti  Ti2  1  0.24878828  0.97973759  0.01328919  1
  Ti  Ti3  1  0.23998961  0.99755683  0.51268431  1
  Ti  Ti4  1  0.26438329  0.23926811  0.93193591  1
  Ti  Ti5  1  0.25598287  0.24459749  0.44775650  1
  Ti  Ti6  1  0.97257354  0.25321063  0.27350532  1
  Ti  Ti7  1  0.99803335  0.26032371  0.78474132  1
  Mn  Mn0  1  0.00545281  0.50120657  0.25189389  1
  Mn  Mn1  1  0.99809750  0.50199335  0.75640979  1
  Mn  Mn2  1  0.49981114  0.98687307  0.21579800  1
  Mn  Mn3  1  0.50130976  0.99636369  0.72221194  1
  Mn  Mn4  1  0.50877482  0.49240411  0.24719615  1
  Mn  Mn5  1  0.49728147  0.50323162  0.74862292  1
  Mn  Mn6  1  0.25507893  0.52155793  0.00410442  1
  Mn  Mn7  1  0.23062312  0.49571460  0.50958824  1
  Mn  Mn8  1  0.74447772  0.99495153  0.98668125  1
  Mn  Mn9  1  0.74097270  0.99479789  0.48769901  1
  Mn  Mn10  1  0.75342479  0.50519970  0.00498575  1
  Mn  Mn11  1  0.74254466  0.50128091  0.50849516  1
  Mn  Mn12  1  0.26125566  0.74808853  0.98175598  1
  Mn  Mn13  1  0.24894918  0.74299887  0.49606339  1
  Mn  Mn14  1  0.74988111  0.25062769  0.00936731  1
  Mn  Mn15  1  0.73691037  0.24815411  0.50331405  1
  Mn  Mn16  1  0.75640609  0.74480120  0.99912447  1
  Mn  Mn17  1  0.75199926  0.74643804  0.50429669  1
  Mn  Mn18  1  0.00171920  0.75142202  0.26500450  1
  Mn  Mn19  1  0.00144208  0.74704950  0.75009450  1
  Mn  Mn20  1  0.51416982  0.25886181  0.26411140  1
  Mn  Mn21  1  0.51290767  0.24845590  0.75229688  1
  Mn  Mn22  1  0.50501859  0.75236484  0.26402212  1
  Mn  Mn23  1  0.50026249  0.74539588  0.74551781  1
  O  O0  1  0.10550756  0.77202291  0.59734717  1
  O  O1  1  0.56278129  0.24801679  0.10430441  1
  O  O2  1  0.57776556  0.24885145  0.58674725  1
  O  O3  1  0.59276743  0.76044976  0.11722770  1
  O  O4  1  0.60607261  0.76362850  0.60169465  1
  O  O5  1  0.38804308  0.19784440  0.36748485  1
  O  O6  1  0.39352566  0.18288543  0.85956887  1
  O  O7  1  0.39745338  0.70647033  0.38081457  1
  O  O8  1  0.40717027  0.73023642  0.89136182  1
  O  O9  1  0.90251468  0.24489405  0.41783097  1
  O  O10  1  0.93294526  0.24539451  0.93051982  1
  O  O11  1  0.89253970  0.73209653  0.40704248  1
  O  O12  1  0.90431616  0.73132078  0.89859725  1
  O  O13  1  0.15298921  0.25248981  0.31549560  1
  O  O14  1  0.17960147  0.25861376  0.78822207  1
  O  O15  1  0.16293203  0.74984640  0.33736099  1
  O  O16  1  0.15033203  0.73731165  0.84446329  1
  O  O17  1  0.64525960  0.21217523  0.34475253  1
  O  O18  1  0.66177630  0.23417538  0.85687528  1
  O  O19  1  0.65223384  0.72591684  0.35592378  1
  O  O20  1  0.64480989  0.73154747  0.85515199  1
  O  O21  1  0.35176777  0.75420633  0.63772647  1
  O  O22  1  0.84031905  0.26198945  0.16765156  1
  O  O23  1  0.87865350  0.26335056  0.66697561  1
  O  O24  1  0.87513415  0.77257498  0.14367053  1
  O  O25  1  0.85397188  0.77420596  0.64697567  1
  O  O26  1  0.36619580  0.51721565  0.15795394  1
  O  O27  1  0.35459531  0.49511339  0.63087277  1
  O  O28  1  0.37213662  0.04118860  0.09566378  1
  O  O29  1  0.36971617  0.04523068  0.60542147  1
  O  O30  1  0.86679900  0.49120407  0.14614766  1
  O  O31  1  0.85307393  0.47725188  0.64815071  1
  O  O32  1  0.86376936  0.97593756  0.15281917  1
  O  O33  1  0.86436971  0.98254911  0.65418546  1
  O  O34  1  0.17689007  0.01506597  0.35917575  1
  O  O35  1  0.21200494  0.99356312  0.85460344  1
  O  O36  1  0.15245273  0.49829685  0.35268496  1
  O  O37  1  0.15394097  0.52707550  0.85786827  1
  O  O38  1  0.62334059  0.02164056  0.33637794  1
  O  O39  1  0.62972385  0.03459776  0.83549011  1
  O  O40  1  0.62280682  0.52674370  0.36749544  1
  O  O41  1  0.64268247  0.51327929  0.86298990  1
  O  O42  1  0.39420006  0.51682754  0.89637498  1
  O  O43  1  0.89416422  0.01133128  0.39394256  1
  O  O44  1  0.90210702  0.00500621  0.90317355  1
  O  O45  1  0.88106900  0.51050074  0.39720334  1
  O  O46  1  0.89347050  0.51862075  0.89854863  1
  O  O47  1  0.11492502  0.48310545  0.09825009  1
  O  O48  1  0.09520534  0.47113198  0.61799338  1
  O  O49  1  0.11549684  0.98494548  0.11053857  1
  O  O50  1  0.11456666  0.98725277  0.61591832  1
  O  O51  1  0.62187822  0.48669844  0.11968271  1
  O  O52  1  0.60581303  0.48536981  0.61334285  1
  O  O53  1  0.60264859  0.98013684  0.07583913  1
  O  O54  1  0.60057970  0.97968347  0.57877600  1
  O  O55  1  0.99378662  0.37218420  0.27123220  1
  O  O56  1  0.01639656  0.37848741  0.80385023  1
  O  O57  1  0.01834957  0.87752804  0.29367021  1
  O  O58  1  0.01906268  0.87587582  0.78992413  1
  O  O59  1  0.46314300  0.37757141  0.30218657  1
  O  O60  1  0.48489996  0.37600549  0.76238600  1
  O  O61  1  0.44999917  0.87146850  0.27913199  1
  O  O62  1  0.49559302  0.87174209  0.76865111  1
  O  O63  1  0.49441289  0.62378886  0.71815963  1
  O  O64  1  0.99396001  0.12763313  0.23043787  1
  O  O65  1  0.01217573  0.12092123  0.75743293  1
  O  O66  1  0.00742461  0.62962426  0.22879422  1
  O  O67  1  0.98635740  0.62512517  0.71538364  1
  O  O68  1  0.17783677  0.16364512  0.01439670  1
  O  O69  1  0.19321561  0.16387494  0.54261230  1
  O  O70  1  0.21968695  0.64807269  0.06554774  1
  O  O71  1  0.21444956  0.61716660  0.51754928  1
  O  O72  1  0.75688229  0.12256599  0.03145046  1
  O  O73  1  0.74727713  0.12367367  0.54020052  1
  O  O74  1  0.74287286  0.62593555  0.04210087  1
  O  O75  1  0.75026736  0.62528861  0.54601247  1
  O  O76  1  0.27656180  0.35242740  0.50811535  1
  O  O77  1  0.29300166  0.33859479  0.01016464  1
  O  O78  1  0.28875129  0.88890576  0.48921810  1
  O  O79  1  0.29881811  0.86972506  0.03278659  1
  O  O80  1  0.73665138  0.37190337  0.47006776  1
  O  O81  1  0.75443754  0.37661638  0.97778230  1
  O  O82  1  0.75146746  0.87082525  0.45801392  1
  O  O83  1  0.74856868  0.87057625  0.95605206  1
loop_
_geom_bond_atom_site_label_1
_geom_bond_atom_site_label_2
_geom_bond_distance
_geom_bond_site_symmetry_2
Ca0 O44 2.282859 1_554
Ca0 O10 2.295462 1_554
Ca0 O68 2.320832 1_655
Ca0 O64 2.390227 1_555
Ca0 O72 2.482377 1_555
Ca0 O49 2.755969 1_645
Ca0 O65 2.895036 1_654
Ca0 O32 2.967628 1_545
Ca1 O67 2.271068 1_555
Ca1 O11 2.348787 1_555
Ca1 O71 2.453799 1_655
Ca1 O45 2.469591 1_555
Ca1 O75 2.737757 1_555
Ca1 O0 2.794277 1_655
Ca1 O48 2.881929 1_655
Ca2 O46 2.349764 1_454
Ca2 O70 2.403482 1_555
Ca2 O12 2.429952 1_454
Ca2 O66 2.510946 1_555
Ca2 O47 2.627959 1_555
Ca2 O37 2.679973 1_554
Ca3 O38 2.402438 1_555
Ca3 O2 2.406058 1_555
Ca3 O5 2.419395 1_555
Ca3 O73 2.419817 1_555
Ca3 O17 2.448537 1_555
Ca3 O54 2.513765 1_545
Ca3 O29 2.586371 1_555
Ca4 O6 2.357966 1_555
Ca4 O39 2.362902 1_555
Ca4 O1 2.404826 1_556
Ca4 O72 2.442496 1_556
Ca4 O53 2.497134 1_546
Ca4 O28 2.559967 1_556
Ca4 O18 2.667853 1_555
Ca5 O63 2.332411 1_555
Ca5 O7 2.412403 1_555
Ca5 O75 2.429459 1_555
Ca5 O4 2.439231 1_555
Ca5 O40 2.493394 1_555
Ca5 O52 2.643839 1_555
Ca5 O19 2.665183 1_555
Ca6 O8 2.351699 1_555
Ca6 O42 2.400332 1_555
Ca6 O74 2.440570 1_556
Ca6 O41 2.447691 1_555
Ca6 O20 2.469538 1_555
Ca6 O3 2.741635 1_556
Ca6 O63 2.836424 1_555
Ca6 O51 2.872291 1_556
Ca7 O52 2.253121 1_555
Ca7 O2 2.365396 1_555
Ca7 O76 2.469011 1_555
Ca7 O59 2.472421 1_555
Ca7 O60 2.656274 1_555
Ca7 O27 2.678566 1_555
Ca7 O80 2.757816 1_555
Ca8 O3 2.280526 1_556
Ca8 O62 2.335415 1_555
Ca8 O53 2.408309 1_556
Ca8 O8 2.483416 1_555
Ca8 O83 2.544340 1_555
Ca8 O79 2.576599 1_556
Ca8 O20 2.732329 1_555
Ca9 O4 2.256697 1_555
Ca9 O54 2.335714 1_555
Ca9 O78 2.376897 1_555
Ca9 O61 2.465230 1_555
Ca9 O7 2.936592 1_555
Ca10 O56 2.332448 1_654
Ca10 O47 2.342806 1_655
Ca10 O81 2.400859 1_554
Ca10 O46 2.424349 1_554
Ca10 O30 2.454400 1_555
Ca10 O10 2.502751 1_554
Ca11 O48 2.334725 1_655
Ca11 O31 2.379911 1_555
Ca11 O45 2.416081 1_555
Ca11 O80 2.459726 1_555
Ca11 O9 2.515596 1_555
Ca11 O55 2.689080 1_555
Ca11 O23 2.771434 1_555
Ca12 O83 2.340784 1_555
Ca12 O58 2.390116 1_655
Ca12 O44 2.417089 1_565
Ca12 O24 2.437288 1_556
Ca12 O12 2.477555 1_555
Ca12 O32 2.633056 1_556
Ca12 O49 2.793022 1_656
Ca13 O0 2.334258 1_655
Ca13 O25 2.421617 1_555
Ca13 O82 2.436560 1_555
Ca13 O11 2.498297 1_555
Ca13 O57 2.507008 1_655
Ca13 O33 2.682937 1_555
Ca13 O43 2.748895 1_565
Ca13 O50 2.752805 1_655
Ca14 O27 2.345729 1_555
Ca14 O37 2.408389 1_555
Ca14 O48 2.413487 1_555
Ca14 O14 2.433470 1_555
Ca14 O56 2.577734 1_555
Ca14 O60 2.772948 1_555
Ca14 O42 2.864186 1_555
Ca14 O76 2.901071 1_555
Ca14 O77 3.076576 1_556
Ca15 O15 2.284343 1_555
Ca15 O61 2.373093 1_555
Ca15 O34 2.410945 1_565
Ca15 O78 2.417357 1_555
Ca15 O57 2.433748 1_555
Ca15 O79 2.810502 1_555
Ca15 O49 2.811574 1_555
Ca16 O21 2.363642 1_555
Ca16 O0 2.390211 1_555
Ca16 O16 2.408043 1_555
Ca16 O58 2.448760 1_555
Ca16 O35 2.545855 1_555
Ca16 O50 2.733449 1_555
Ca16 O78 2.835907 1_555
Ca16 O62 2.989030 1_555
Ca17 O30 2.283232 1_555
Ca17 O80 2.407938 1_555
Ca17 O22 2.471849 1_555
Ca17 O51 2.599991 1_555
Ca17 O55 2.609561 1_555
Ca17 O45 2.703221 1_555
Ca17 O40 2.869183 1_555
Ca18 O31 2.308188 1_555
Ca18 O81 2.410518 1_555
Ca18 O41 2.483661 1_555
Ca18 O52 2.644831 1_555
Ca18 O18 2.752167 1_555
Ca18 O23 2.758535 1_555
Ca18 O60 2.767465 1_555
Ca19 O24 2.308290 1_555
Ca19 O82 2.343515 1_555
Ca19 O32 2.506213 1_555
Ca19 O19 2.608284 1_555
Ca19 O3 2.660300 1_555
Ca20 O25 2.298724 1_555
Ca20 O83 2.425443 1_555
Ca20 O4 2.513856 1_555
Ca20 O62 2.540885 1_555
Ca20 O20 2.603241 1_555
Ca20 O33 2.607262 1_555
Ca20 O54 2.853577 1_555
Ca21 O69 2.302754 1_555
Ca21 O35 2.311964 1_545
Ca21 O14 2.404072 1_555
Ca21 O29 2.411079 1_555
Ca21 O65 2.413465 1_555
Ca21 O6 2.512513 1_555
Ca21 O50 2.666068 1_545
Ca22 O70 2.271493 1_555
Ca22 O15 2.300569 1_555
Ca22 O36 2.340228 1_555
Ca22 O26 2.523537 1_555
Ca22 O66 2.547031 1_555
Ca22 O7 2.549833 1_555
Ca22 O71 2.797012 1_555
Ca23 O37 2.442240 1_555
Ca23 O21 2.447757 1_555
Ca23 O71 2.479994 1_555
Ca23 O16 2.492479 1_555
Ca23 O63 2.524717 1_555
Ca23 O27 2.569298 1_555
Ca23 O8 2.790973 1_555
Ca23 O42 2.847172 1_555
Ca24 O17 2.315163 1_555
Ca24 O72 2.346916 1_555
Ca24 O38 2.356019 1_555
Ca24 O64 2.597548 1_555
Ca24 O22 2.610548 1_555
Ca24 O32 2.652598 1_545
Ca24 O43 2.746544 1_555
Ca25 O39 2.300014 1_555
Ca25 O18 2.367592 1_555
Ca25 O73 2.394355 1_555
Ca25 O23 2.650730 1_555
Ca25 O65 2.695499 1_655
Ca25 O33 2.738874 1_545
Ca25 O44 2.904951 1_555
Ca26 O19 2.419608 1_555
Ca26 O74 2.447691 1_555
Ca26 O66 2.551795 1_655
Ca26 O45 2.570528 1_555
Ca26 O40 2.602380 1_555
Ca26 O30 2.606594 1_555
Ca26 O11 2.644143 1_555
Ca26 O24 2.884139 1_555
Ca27 O75 2.365079 1_555
Ca27 O67 2.427437 1_555
Ca27 O20 2.461175 1_555
Ca27 O41 2.548392 1_555
Ca27 O46 2.631010 1_555
Ca27 O12 2.678920 1_555
Ca27 O31 2.765589 1_555
Ca27 O25 2.802065 1_555
Mn0 O30 1.921263 1_455
Mn0 O36 1.960511 1_555
Mn0 O66 2.025189 1_555
Mn0 O55 2.032855 1_455
Mn0 O47 2.131844 1_555
Mn0 O45 2.148240 1_455
Mn1 O48 1.954512 1_655
Mn1 O67 1.984896 1_555
Mn1 O46 1.994047 1_555
Mn1 O56 2.014495 1_655
Mn1 O31 2.022652 1_555
Mn1 O37 2.078414 1_655
Mn2 O53 1.948041 1_555
Mn2 O38 1.967693 1_565
Mn2 O61 2.015823 1_555
Mn2 O28 2.111941 1_565
Mn3 O39 1.968510 1_565
Mn3 O54 1.970828 1_555
Mn3 O62 2.018283 1_555
Mn3 O29 2.085139 1_565
Mn4 O40 1.893466 1_555
Mn4 O26 1.893917 1_555
Mn4 O51 1.912052 1_555
Mn4 O59 1.964106 1_555
Mn5 O63 1.916817 1_555
Mn5 O52 1.963374 1_555
Mn5 O60 1.999459 1_555
Mn5 O42 2.028694 1_555
Mn5 O27 2.035427 1_555
Mn5 O41 2.037402 1_555
Mn6 O37 1.956537 1_554
Mn6 O42 1.973104 1_554
Mn6 O47 1.981471 1_555
Mn6 O26 2.086970 1_555
Mn6 O70 2.131814 1_555
Mn7 O27 1.905172 1_555
Mn7 O71 1.910836 1_555
Mn7 O36 1.929507 1_555
Mn7 O48 1.979642 1_555
Mn7 O76 2.302107 1_555
Mn8 O53 1.888966 1_556
Mn8 O83 1.973774 1_555
Mn8 O44 2.001474 1_565
Mn8 O72 2.056902 1_566
Mn8 O39 2.180713 1_565
Mn8 O32 2.269486 1_556
Mn9 O54 1.887770 1_555
Mn9 O82 1.969611 1_555
Mn9 O43 2.026187 1_565
Mn9 O73 2.095299 1_565
Mn9 O38 2.150676 1_565
Mn9 O33 2.286575 1_555
Mn10 O74 1.935474 1_555
Mn10 O51 1.975882 1_555
Mn10 O46 1.980949 1_554
Mn10 O41 1.983434 1_554
Mn10 O30 2.002883 1_555
Mn10 O81 2.031878 1_554
Mn11 O52 1.945329 1_555
Mn11 O75 1.982104 1_555
Mn11 O31 1.995579 1_555
Mn11 O45 1.995597 1_555
Mn11 O80 2.065730 1_555
Mn11 O40 2.074091 1_555
Mn12 O70 1.881067 1_556
Mn12 O8 1.943556 1_555
Mn12 O16 1.944770 1_555
Mn12 O79 2.019597 1_556
Mn13 O21 1.929784 1_555
Mn13 O15 1.989172 1_555
Mn13 O71 2.017088 1_555
Mn13 O0 2.020721 1_555
Mn13 O7 2.184562 1_555
Mn13 O78 2.321753 1_555
Mn14 O18 1.951485 1_554
Mn14 O81 2.002608 1_554
Mn14 O22 2.011062 1_555
Mn14 O72 2.020224 1_555
Mn14 O10 2.230493 1_554
Mn14 O1 2.347541 1_555
Mn15 O80 1.971218 1_555
Mn15 O73 1.994341 1_555
Mn15 O2 2.010814 1_555
Mn15 O9 2.086216 1_555
Mn15 O17 2.086536 1_555
Mn15 O23 2.387945 1_555
Mn16 O74 1.925917 1_556
Mn16 O20 2.010112 1_555
Mn16 O12 2.015156 1_555
Mn16 O83 2.027865 1_555
Mn16 O24 2.096429 1_556
Mn16 O3 2.275023 1_556
Mn17 O11 1.928522 1_555
Mn17 O75 1.951796 1_555
Mn17 O25 1.971685 1_555
Mn17 O4 1.984580 1_555
Mn17 O19 1.988309 1_555
Mn17 O82 2.013536 1_555
Mn18 O66 1.946428 1_555
Mn18 O15 1.947143 1_555
Mn18 O24 1.957323 1_455
Mn18 O57 2.002212 1_555
Mn18 O11 2.028593 1_455
Mn19 O16 1.946101 1_555
Mn19 O67 1.948338 1_455
Mn19 O12 2.001170 1_455
Mn19 O25 2.027284 1_455
Mn19 O58 2.067067 1_555
Mn19 O0 2.105259 1_555
Mn20 O17 1.850069 1_555
Mn20 O1 1.870212 1_555
Mn20 O59 1.991403 1_555
Mn20 O5 2.057859 1_555
Mn21 O2 1.985314 1_555
Mn21 O18 2.014548 1_555
Mn21 O60 2.024064 1_555
Mn21 O6 2.066901 1_555
Mn22 O7 1.916474 1_555
Mn22 O3 1.917737 1_555
Mn22 O19 1.956964 1_555
Mn22 O61 1.972456 1_555
Mn23 O63 1.924506 1_555
Mn23 O8 1.950792 1_555
Mn23 O62 1.992262 1_555
Mn23 O20 2.007639 1_555
Mn23 O4 2.019300 1_555
Mn23 O21 2.022940 1_555
O1 Sr1 2.569325 1_554
O5 Ti5 1.881966 1_555
O5 Sr3 2.646385 1_555
O6 Ti4 1.881226 1_555
O9 Ti6 1.798046 1_555
O9 Sr0 2.451825 1_555
O10 Ti7 1.799095 1_555
O13 Ti5 1.846829 1_555
O13 Ti6 2.047463 1_455
O13 Sr3 2.436703 1_555
O13 Sr2 2.541129 1_555
O14 Ti4 1.861805 1_555
O14 Ti7 2.015799 1_455
O22 Ti6 1.867795 1_555
O23 Ti7 1.843024 1_555
O23 Sr0 2.937639 1_555
O26 Sr2 2.565375 1_555
O28 Ti2 1.884802 1_545
O28 Sr3 2.486021 1_555
O29 Ti3 1.898164 1_545
O32 Ti0 1.805919 1_555
O33 Ti1 1.795368 1_555
O33 Sr0 2.876284 1_565
O34 Ti3 1.850152 1_545
O34 Ti0 2.382234 1_445
O34 Sr3 2.389461 1_555
O35 Ti2 1.812734 1_556
O35 Ti1 2.673159 1_455
O36 Sr2 2.452396 1_555
O41 Sr1 2.855920 1_555
O42 Sr1 2.637860 1_555
O43 Ti0 1.862672 1_545
O43 Sr0 2.441406 1_555
O44 Ti1 1.889592 1_545
O47 Sr2 2.478957 1_555
O49 Ti2 1.850556 1_555
O49 Ti0 2.197821 1_455
O49 Sr3 2.762305 1_565
O50 Ti3 1.826653 1_555
O50 Ti1 2.140584 1_455
O50 Sr0 2.751089 1_465
O51 Sr1 2.459674 1_554
O55 Ti6 1.873340 1_555
O56 Ti7 1.867690 1_455
O57 Ti0 1.876191 1_455
O58 Ti1 1.863542 1_455
O59 Sr2 2.597713 1_555
O60 Sr1 2.519015 1_555
O64 Ti6 2.035806 1_555
O64 Ti0 2.135471 1_545
O64 Sr3 2.615290 1_655
O65 Ti1 2.047128 1_445
O65 Ti7 2.206692 1_455
O65 Sr0 2.551894 1_455
O68 Ti4 1.783716 1_554
O68 Sr3 2.408775 1_555
O69 Ti5 1.791630 1_555
O69 Sr0 2.466180 1_455
O69 Ti3 2.676858 1_545
O73 Sr0 2.579980 1_555
O76 Ti5 1.822188 1_555
O77 Ti4 1.798442 1_554
O77 Sr1 2.531619 1_554
O77 Sr2 2.581165 1_555
O78 Ti3 1.806879 1_555
O79 Ti2 1.824578 1_555
O81 Sr1 2.718100 1_555
