# generated using pymatgen
data_Na2MgVF7
_symmetry_space_group_name_H-M   'P 1'
_cell_length_a   7.41530269
_cell_length_b   7.41530269
_cell_length_c   7.41530269
_cell_angle_alpha   120.83949542
_cell_angle_beta   118.72205113
_cell_angle_gamma   90.38984977
_symmetry_Int_Tables_number   1
_chemical_formula_structural   Na2MgVF7
_chemical_formula_sum   'Na4 Mg2 V2 F14'
_cell_volume   289.14361146
_cell_formula_units_Z   2
loop_
 _symmetry_equiv_pos_site_id
 _symmetry_equiv_pos_as_xyz
  1  'x, y, z'
loop_
 _atom_site_type_symbol
 _atom_site_label
 _atom_site_symmetry_multiplicity
 _atom_site_fract_x
 _atom_site_fract_y
 _atom_site_fract_z
 _atom_site_occupancy
  Na  Na0  1  0.00000000  0.00000000  0.00000000  1
  Na  Na1  1  0.50000000  0.50000000  0.00000000  1
  Na  Na2  1  0.50000000  0.00000000  0.00000000  1
  Na  Na3  1  0.50000000  0.50000000  0.50000000  1
  Mg  Mg0  1  0.00000000  0.00000000  0.50000000  1
  Mg  Mg1  1  0.00000000  0.50000000  0.00000000  1
  V  V0  1  0.50000000  0.00000000  0.50000000  1
  V  V1  1  0.00000000  0.50000000  0.50000000  1
  F  F0  1  0.36289500  0.09335200  0.26954300  1
  F  F1  1  0.67619100  0.40664800  0.26954300  1
  F  F2  1  0.68220700  0.31597000  0.76513700  1
  F  F3  1  0.94916800  0.18403000  0.36623800  1
  F  F4  1  0.94916800  0.58293000  0.76513700  1
  F  F5  1  0.68220700  0.91707000  0.36623800  1
  F  F6  1  0.31779300  0.08293000  0.63376200  1
  F  F7  1  0.05083200  0.41707000  0.23486300  1
  F  F8  1  0.05083200  0.81597000  0.63376200  1
  F  F9  1  0.31779300  0.68403000  0.23486300  1
  F  F10  1  0.90973300  0.75000000  0.15973300  1
  F  F11  1  0.63710500  0.90664800  0.73045700  1
  F  F12  1  0.32380900  0.59335200  0.73045700  1
  F  F13  1  0.09026700  0.25000000  0.84026700  1
loop_
_geom_bond_atom_site_label_1
_geom_bond_atom_site_label_2
_geom_bond_distance
_geom_bond_site_symmetry_2
F0 V0 1.996437 1_555
F0 Na0 2.258792 1_555
F0 Na2 2.460056 1_555
F0 Na3 2.460056 1_555
F1 V1 1.996437 1_655
F1 Na1 2.258792 1_555
F1 Na2 2.460056 1_555
F1 Na3 2.460056 1_555
F2 V0 1.965078 1_555
F2 Mg1 2.005892 1_656
F2 Na1 2.563371 1_556
F2 Na3 2.788537 1_555
F3 V1 1.965080 1_655
F3 Mg0 2.005887 1_655
F3 Na0 2.563373 1_655
F3 Na2 2.788544 1_555
F4 V1 1.965073 1_655
F4 Mg1 2.005894 1_656
F4 Na0 2.563373 1_666
F4 Na3 2.788544 1_555
F5 V0 1.965073 1_565
F5 Mg0 2.005894 1_665
F5 Na1 2.563373 1_555
F5 Na2 2.788544 1_565
F6 V0 1.965073 1_555
F6 Mg0 2.005894 1_555
F6 Na1 2.563373 1_556
F6 Na2 2.788544 1_556
F7 V1 1.965073 1_555
F7 Mg1 2.005894 1_555
F7 Na0 2.563373 1_555
F7 Na3 2.788544 1_555
F8 V1 1.965080 1_555
F8 Mg0 2.005887 1_565
F8 Na0 2.563373 1_566
F8 Na2 2.788544 1_566
F9 V0 1.965078 1_565
F9 Mg1 2.005892 1_555
F9 Na1 2.563371 1_555
F9 Na3 2.788537 1_555
F10 Mg1 1.953275 1_655
F10 Mg0 1.953275 1_665
F10 Na0 2.878208 1_665
F10 Na1 2.878208 1_555
F11 V0 1.996437 1_565
F11 Na0 2.258792 1_666
F11 Na3 2.460056 1_555
F11 Na2 2.460056 1_566
F12 V1 1.996437 1_555
F12 Na1 2.258792 1_556
F12 Na3 2.460056 1_555
F12 Na2 2.460056 1_566
F13 Mg0 1.953275 1_555
F13 Mg1 1.953275 1_556
F13 Na0 2.878208 1_556
F13 Na1 2.878208 1_556
