# generated using pymatgen
data_NaGd3
_symmetry_space_group_name_H-M   'P 1'
_cell_length_a   7.23209029
_cell_length_b   7.23209029
_cell_length_c   5.85178000
_cell_angle_alpha   90.00000000
_cell_angle_beta   90.00000000
_cell_angle_gamma   120.00000267
_symmetry_Int_Tables_number   1
_chemical_formula_structural   NaGd3
_chemical_formula_sum   'Na2 Gd6'
_cell_volume   265.06127921
_cell_formula_units_Z   2
loop_
 _symmetry_equiv_pos_site_id
 _symmetry_equiv_pos_as_xyz
  1  'x, y, z'
loop_
 _atom_site_type_symbol
 _atom_site_label
 _atom_site_symmetry_multiplicity
 _atom_site_fract_x
 _atom_site_fract_y
 _atom_site_fract_z
 _atom_site_occupancy
  Na  Na0  1  0.33333300  0.66666700  0.75000000  1
  Na  Na1  1  0.66666700  0.33333300  0.25000000  1
  Gd  Gd0  1  0.83457400  0.66914900  0.75000000  1
  Gd  Gd1  1  0.33085100  0.16542600  0.75000000  1
  Gd  Gd2  1  0.83457400  0.16542600  0.75000000  1
  Gd  Gd3  1  0.16542600  0.83457400  0.25000000  1
  Gd  Gd4  1  0.66914900  0.83457400  0.25000000  1
  Gd  Gd5  1  0.16542600  0.33085100  0.25000000  1
loop_
_geom_bond_atom_site_label_1
_geom_bond_atom_site_label_2
_geom_bond_distance
_geom_bond_site_symmetry_2
Gd0 Gd4 3.585349 1_555
Gd0 Gd4 3.585349 1_556
Gd0 Gd3 3.585356 1_656
Gd0 Gd3 3.585356 1_655
Gd0 Gd1 3.589120 1_665
Gd0 Gd2 3.589120 1_565
Gd0 Na1 3.603414 1_556
Gd0 Na1 3.603414 1_555
Gd0 Na0 3.616079 1_555
Gd0 Na0 3.616079 1_655
Gd0 Gd1 3.642970 1_555
Gd0 Gd2 3.642970 1_555
Gd1 Gd5 3.585349 1_556
Gd1 Gd5 3.585349 1_555
Gd1 Gd3 3.585356 1_545
Gd1 Gd3 3.585356 1_546
Gd1 Gd2 3.589120 1_455
Gd1 Na1 3.603414 1_556
Gd1 Na1 3.603414 1_555
Gd1 Na0 3.616079 1_555
Gd1 Na0 3.616079 1_545
Gd1 Gd2 3.642970 1_555
Gd2 Gd4 3.585356 1_545
Gd2 Gd4 3.585356 1_546
Gd2 Gd5 3.585356 1_656
Gd2 Gd5 3.585356 1_655
Gd2 Na1 3.603407 1_556
Gd2 Na1 3.603407 1_555
Gd2 Na0 3.616078 1_545
Gd2 Na0 3.616078 1_655
Gd3 Gd4 3.589120 1_455
Gd3 Gd5 3.589120 1_565
Gd3 Na0 3.603407 1_555
Gd3 Na0 3.603407 1_554
Gd3 Na1 3.616078 1_455
Gd3 Na1 3.616078 1_565
Gd3 Gd5 3.642970 1_555
Gd3 Gd4 3.642970 1_555
Gd4 Gd5 3.589120 1_665
Gd4 Na0 3.603414 1_555
Gd4 Na0 3.603414 1_554
Gd4 Na1 3.616079 1_555
Gd4 Na1 3.616079 1_565
Gd4 Gd5 3.642970 1_555
Gd5 Na0 3.603414 1_555
Gd5 Na0 3.603414 1_554
Gd5 Na1 3.616079 1_555
Gd5 Na1 3.616079 1_455
