# generated using pymatgen
data_CaNd4(RhO3)4
_symmetry_space_group_name_H-M   'P 1'
_cell_length_a   6.31821122
_cell_length_b   6.30789813
_cell_length_c   7.45416403
_cell_angle_alpha   89.99879569
_cell_angle_beta   89.99844918
_cell_angle_gamma   72.11354341
_symmetry_Int_Tables_number   1
_chemical_formula_structural   CaNd4(RhO3)4
_chemical_formula_sum   'Ca1 Nd4 Rh4 O12'
_cell_volume   282.72406713
_cell_formula_units_Z   1
loop_
 _symmetry_equiv_pos_site_id
 _symmetry_equiv_pos_as_xyz
  1  'x, y, z'
loop_
 _atom_site_type_symbol
 _atom_site_label
 _atom_site_symmetry_multiplicity
 _atom_site_fract_x
 _atom_site_fract_y
 _atom_site_fract_z
 _atom_site_occupancy
  Ca  Ca0  1  0.91596310  0.84211661  0.74998251  1
  Nd  Nd0  1  0.48863538  0.56797508  0.74998785  1
  Nd  Nd1  1  0.04546352  0.94675458  0.25000504  1
  Nd  Nd2  1  0.16721618  0.16145066  0.74999229  1
  Nd  Nd3  1  0.52226771  0.38825567  0.25000338  1
  Rh  Rh0  1  0.49497068  0.97804511  0.48660358  1
  Rh  Rh1  1  0.97703596  0.50344761  0.47486646  1
  Rh  Rh2  1  0.97703940  0.50343780  0.02515904  1
  Rh  Rh3  1  0.49494360  0.97806867  0.01342589  1
  O  O0  1  0.75401662  0.10060124  0.45208752  1
  O  O1  1  0.32568899  0.33688326  0.53905808  1
  O  O2  1  0.65058116  0.64633436  0.05377566  1
  O  O3  1  0.22639284  0.85290565  0.94823973  1
  O  O4  1  0.22639666  0.85292945  0.55176035  1
  O  O5  1  0.65057098  0.64636546  0.44623708  1
  O  O6  1  0.32567641  0.33689582  0.96092529  1
  O  O7  1  0.75403956  0.10063872  0.04788795  1
  O  O8  1  0.37522765  0.05851689  0.25001181  1
  O  O9  1  0.88016197  0.48773838  0.74997358  1
  O  O10  1  0.10838945  0.56242710  0.25001113  1
  O  O11  1  0.56432219  0.91904391  0.75000576  1
loop_
_geom_bond_atom_site_label_1
_geom_bond_atom_site_label_2
_geom_bond_distance
_geom_bond_site_symmetry_2
Ca0 O11 2.123527 1_555
Ca0 O9 2.314885 1_555
Ca0 O4 2.473245 1_655
Ca0 O3 2.473406 1_655
Ca0 O0 2.758899 1_565
Ca0 O7 2.759058 1_566
Nd0 O9 2.367808 1_555
Nd0 O11 2.404832 1_555
Nd0 O4 2.515973 1_555
Nd0 O3 2.516005 1_555
Nd0 O6 2.564913 1_555
Nd0 O1 2.564959 1_555
Nd0 O5 2.593948 1_555
Nd0 O2 2.594224 1_556
Nd1 O10 2.333074 1_555
Nd1 O0 2.346047 1_465
Nd1 O7 2.346196 1_465
Nd1 O8 2.395896 1_565
Nd1 O4 2.510201 1_555
Nd1 O3 2.510240 1_554
Nd2 O9 2.287482 1_455
Nd2 O1 2.319443 1_555
Nd2 O6 2.319508 1_555
Nd2 O4 2.379865 1_545
Nd2 O3 2.380016 1_545
Nd2 O11 2.505307 1_545
Nd3 O0 2.464453 1_555
Nd3 O7 2.464516 1_555
Nd3 O2 2.501497 1_555
Nd3 O5 2.501702 1_555
Nd3 O10 2.506066 1_555
Nd3 O8 2.525132 1_555
Nd3 O1 2.556806 1_555
Nd3 O6 2.557041 1_554
O0 Rh0 2.029738 1_545
O1 Rh1 2.182615 1_455
O1 Rh0 2.221091 1_545
O2 Rh2 1.992580 1_555
O2 Rh3 2.042599 1_555
O3 Rh3 2.135738 1_556
O4 Rh0 2.135610 1_555
O5 Rh1 1.992654 1_555
O5 Rh0 2.042281 1_555
O6 Rh2 2.182556 1_456
O6 Rh3 2.221069 1_546
O7 Rh3 2.030050 1_545
O8 Rh3 1.924562 1_545
O8 Rh0 1.924695 1_545
O9 Rh1 2.151040 1_555
O9 Rh2 2.151631 1_556
O10 Rh1 1.956036 1_455
O10 Rh2 1.956076 1_455
O11 Rh0 2.021253 1_555
O11 Rh3 2.021420 1_556
