# generated using pymatgen
data_Li3(CoO2)4
_symmetry_space_group_name_H-M   'P 1'
_cell_length_a   5.68327300
_cell_length_b   5.74072478
_cell_length_c   5.80301090
_cell_angle_alpha   118.11486836
_cell_angle_beta   92.08756258
_cell_angle_gamma   118.13618244
_symmetry_Int_Tables_number   1
_chemical_formula_structural   Li3(CoO2)4
_chemical_formula_sum   'Li3 Co4 O8'
_cell_volume   138.87537413
_cell_formula_units_Z   1
loop_
 _symmetry_equiv_pos_site_id
 _symmetry_equiv_pos_as_xyz
  1  'x, y, z'
loop_
 _atom_site_type_symbol
 _atom_site_label
 _atom_site_symmetry_multiplicity
 _atom_site_fract_x
 _atom_site_fract_y
 _atom_site_fract_z
 _atom_site_occupancy
  Li  Li0  1  0.49953100  0.00139700  0.00261600  1
  Li  Li1  1  0.50043300  0.50281300  0.50138900  1
  Li  Li2  1  0.49960800  0.00892900  0.50898700  1
  Co  Co0  1  0.49992000  0.50055100  0.00052400  1
  Co  Co1  1  0.99850200  0.00062500  0.00226100  1
  Co  Co2  1  0.99997900  0.50087700  0.00094100  1
  Co  Co3  1  0.00183900  0.50266300  0.50058400  1
  O  O0  1  0.45084100  0.71383700  0.78873100  1
  O  O1  1  0.99701400  0.26728600  0.78813800  1
  O  O2  1  0.97069900  0.73071300  0.77805300  1
  O  O3  1  0.49505700  0.27178100  0.77819800  1
  O  O4  1  0.50465300  0.72803100  0.22177600  1
  O  O5  1  0.02910400  0.27090000  0.22381300  1
  O  O6  1  0.00257400  0.73433900  0.21389200  1
  O  O7  1  0.54898000  0.28781600  0.21301100  1
loop_
_geom_bond_atom_site_label_1
_geom_bond_atom_site_label_2
_geom_bond_distance
_geom_bond_site_symmetry_2
Li0 O7 1.385768 1_555
Li0 O0 1.398321 1_544
Li1 O0 1.667283 1_555
Li1 O7 1.675738 1_555
Li2 O3 1.592546 1_555
Li2 O4 1.700900 1_545
Co0 O4 1.318591 1_555
Co0 O3 1.325255 1_554
Co1 O5 1.392734 1_655
Co1 O2 1.404547 1_544
Co2 O1 1.319066 1_554
Co2 O6 1.320091 1_655
Co3 O5 1.603859 1_555
Co3 O2 1.609475 1_455
