# generated using pymatgen
data_Nb4SiTe4
_symmetry_space_group_name_H-M   'P 1'
_cell_length_a   4.86105463
_cell_length_b   10.97126983
_cell_length_c   19.03426313
_cell_angle_alpha   90.00000000
_cell_angle_beta   90.00000000
_cell_angle_gamma   90.00000000
_symmetry_Int_Tables_number   1
_chemical_formula_structural   Nb4SiTe4
_chemical_formula_sum   'Nb16 Si4 Te16'
_cell_volume   1015.13421734
_cell_formula_units_Z   4
loop_
 _symmetry_equiv_pos_site_id
 _symmetry_equiv_pos_as_xyz
  1  'x, y, z'
loop_
 _atom_site_type_symbol
 _atom_site_label
 _atom_site_symmetry_multiplicity
 _atom_site_fract_x
 _atom_site_fract_y
 _atom_site_fract_z
 _atom_site_occupancy
  Nb  Nb0  1  0.50000000  0.56354525  0.38332678  1
  Nb  Nb1  1  0.50000000  0.43645475  0.61667322  1
  Nb  Nb2  1  0.50000000  0.06354525  0.11667322  1
  Nb  Nb3  1  0.50000000  0.93645475  0.88332678  1
  Nb  Nb4  1  0.50000000  0.70308307  0.53594152  1
  Nb  Nb5  1  0.50000000  0.29691693  0.46405848  1
  Nb  Nb6  1  0.50000000  0.20308307  0.96405848  1
  Nb  Nb7  1  0.50000000  0.79691693  0.03594152  1
  Nb  Nb8  1  0.00000000  0.68815548  0.44267281  1
  Nb  Nb9  1  0.00000000  0.31184452  0.55732719  1
  Nb  Nb10  1  0.00000000  0.18815548  0.05732719  1
  Nb  Nb11  1  0.00000000  0.81184452  0.94267281  1
  Nb  Nb12  1  0.00000000  0.40134041  0.39188887  1
  Nb  Nb13  1  0.00000000  0.59865959  0.60811113  1
  Nb  Nb14  1  0.00000000  0.90134041  0.10811113  1
  Nb  Nb15  1  0.00000000  0.09865959  0.89188887  1
  Si  Si0  1  0.24998500  0.50000000  0.50000000  1
  Si  Si1  1  0.75001500  0.00000000  0.00000000  1
  Si  Si2  1  0.75001500  0.50000000  0.50000000  1
  Si  Si3  1  0.24998500  0.00000000  0.00000000  1
  Te  Te0  1  0.00000000  0.84550327  0.56187047  1
  Te  Te1  1  0.00000000  0.15449673  0.43812953  1
  Te  Te2  1  0.00000000  0.34550327  0.93812953  1
  Te  Te3  1  0.00000000  0.65449673  0.06187047  1
  Te  Te4  1  0.50000000  0.33236853  0.31613911  1
  Te  Te5  1  0.50000000  0.66763147  0.68386089  1
  Te  Te6  1  0.50000000  0.83236853  0.18386089  1
  Te  Te7  1  0.50000000  0.16763147  0.81613911  1
  Te  Te8  1  0.50000000  0.82131200  0.40252922  1
  Te  Te9  1  0.50000000  0.17868800  0.59747078  1
  Te  Te10  1  0.50000000  0.32131200  0.09747078  1
  Te  Te11  1  0.50000000  0.67868800  0.90252922  1
  Te  Te12  1  0.00000000  0.60646070  0.30056039  1
  Te  Te13  1  0.00000000  0.39353930  0.69943961  1
  Te  Te14  1  0.00000000  0.10646070  0.19943961  1
  Te  Te15  1  0.00000000  0.89353930  0.80056039  1
loop_
_geom_bond_atom_site_label_1
_geom_bond_atom_site_label_2
_geom_bond_distance
_geom_bond_site_symmetry_2
Nb0 Si2 2.625832 1_555
Nb0 Si0 2.625832 1_555
Nb0 Te4 2.840481 1_555
Nb0 Te8 2.851550 1_555
Nb0 Te12 2.934455 1_655
Nb0 Te12 2.934455 1_555
Nb1 Si2 2.625832 1_555
Nb1 Si0 2.625832 1_555
Nb1 Te5 2.840481 1_555
Nb1 Te9 2.851550 1_555
Nb1 Te13 2.934455 1_555
Nb1 Te13 2.934455 1_655
Nb2 Si1 2.625832 1_555
Nb2 Si3 2.625832 1_555
Nb2 Te6 2.840481 1_545
Nb2 Te10 2.851550 1_555
Nb2 Te14 2.934455 1_655
Nb2 Te14 2.934455 1_555
Nb3 Si3 2.625832 1_566
Nb3 Si1 2.625832 1_566
Nb3 Te7 2.840481 1_565
Nb3 Te11 2.851550 1_555
Nb3 Te15 2.934455 1_655
Nb3 Te15 2.934455 1_555
Nb4 Si2 2.628574 1_555
Nb4 Si0 2.628574 1_555
Nb4 Te5 2.842275 1_555
Nb4 Te8 2.851509 1_555
Nb4 Te0 2.931304 1_555
Nb4 Te0 2.931304 1_655
Nb5 Si2 2.628574 1_555
Nb5 Si0 2.628574 1_555
Nb5 Te4 2.842275 1_555
Nb5 Te9 2.851509 1_555
Nb5 Te1 2.931304 1_555
Nb5 Te1 2.931304 1_655
Nb6 Si1 2.628574 1_556
Nb6 Si3 2.628574 1_556
Nb6 Te7 2.842275 1_555
Nb6 Te10 2.851509 1_556
Nb6 Te2 2.931304 1_655
Nb6 Te2 2.931304 1_555
Nb7 Si1 2.628574 1_565
Nb7 Si3 2.628574 1_565
Nb7 Te6 2.842275 1_555
Nb7 Te11 2.851509 1_554
Nb7 Te3 2.931304 1_655
Nb7 Te3 2.931304 1_555
Nb8 Si2 2.632246 1_455
Nb8 Si0 2.632246 1_555
Nb8 Te12 2.849631 1_555
Nb8 Te0 2.850923 1_555
Nb8 Te8 2.936926 1_455
Nb8 Te8 2.936926 1_555
Nb9 Si0 2.632246 1_555
Nb9 Si2 2.632246 1_455
Nb9 Te13 2.849631 1_555
Nb9 Te1 2.850923 1_555
Nb9 Te9 2.936926 1_555
Nb9 Te9 2.936926 1_455
Nb10 Si1 2.632246 1_455
Nb10 Si3 2.632246 1_555
Nb10 Te14 2.849631 1_555
Nb10 Te2 2.850923 1_554
Nb10 Te10 2.936926 1_555
Nb10 Te10 2.936926 1_455
Nb11 Si1 2.632246 1_466
Nb11 Si3 2.632246 1_566
Nb11 Te15 2.849631 1_555
Nb11 Te3 2.850923 1_556
Nb11 Te11 2.936926 1_455
Nb11 Te11 2.936926 1_555
Nb12 Si0 2.623534 1_555
Nb12 Si2 2.623534 1_455
Nb12 Te12 2.843654 1_555
Nb12 Te1 2.847624 1_555
Nb12 Te4 2.925573 1_455
Nb12 Te4 2.925573 1_555
Nb13 Si2 2.623534 1_455
Nb13 Si0 2.623534 1_555
Nb13 Te13 2.843654 1_555
Nb13 Te0 2.847624 1_555
Nb13 Te5 2.925573 1_455
Nb13 Te5 2.925573 1_555
Nb14 Si3 2.623534 1_565
Nb14 Si1 2.623534 1_465
Nb14 Te14 2.843654 1_565
Nb14 Te3 2.847624 1_555
Nb14 Te6 2.925573 1_455
Nb14 Te6 2.925573 1_555
Nb15 Si1 2.623534 1_456
Nb15 Si3 2.623534 1_556
Nb15 Te15 2.843654 1_545
Nb15 Te2 2.847624 1_555
Nb15 Te7 2.925573 1_455
Nb15 Te7 2.925573 1_555
Si0 Si2 2.430381 1_455
Si0 Si2 2.430673 1_555
Si1 Si3 2.430381 1_655
Si1 Si3 2.430673 1_555
