# generated using pymatgen
data_Dy2CrSbO7
_symmetry_space_group_name_H-M   'P 1'
_cell_length_a   7.28266217
_cell_length_b   7.28266217
_cell_length_c   7.28266217
_cell_angle_alpha   120.19731010
_cell_angle_beta   119.52789778
_cell_angle_gamma   90.23911573
_symmetry_Int_Tables_number   1
_chemical_formula_structural   Dy2CrSbO7
_chemical_formula_sum   'Dy4 Cr2 Sb2 O14'
_cell_volume   273.67425757
_cell_formula_units_Z   2
loop_
 _symmetry_equiv_pos_site_id
 _symmetry_equiv_pos_as_xyz
  1  'x, y, z'
loop_
 _atom_site_type_symbol
 _atom_site_label
 _atom_site_symmetry_multiplicity
 _atom_site_fract_x
 _atom_site_fract_y
 _atom_site_fract_z
 _atom_site_occupancy
  Dy  Dy0  1  0.50000000  0.00000000  0.00000000  1
  Dy  Dy1  1  0.50000000  0.50000000  0.50000000  1
  Dy  Dy2  1  0.50000000  0.00000000  0.50000000  1
  Dy  Dy3  1  0.00000000  0.00000000  0.00000000  1
  Cr  Cr0  1  0.00000000  0.50000000  0.00000000  1
  Cr  Cr1  1  0.00000000  0.00000000  0.50000000  1
  Sb  Sb0  1  0.00000000  0.50000000  0.50000000  1
  Sb  Sb1  1  0.50000000  0.50000000  0.00000000  1
  O  O0  1  0.90989100  0.15989100  0.75000000  1
  O  O1  1  0.33211400  0.58211400  0.75000000  1
  O  O2  1  0.91137600  0.57977300  0.74288100  1
  O  O3  1  0.33689200  0.16849500  0.75711900  1
  O  O4  1  0.91137600  0.16849500  0.33160300  1
  O  O5  1  0.33689200  0.57977300  0.16839700  1
  O  O6  1  0.09010900  0.84010900  0.25000000  1
  O  O7  1  0.66788600  0.41788600  0.25000000  1
  O  O8  1  0.08862400  0.42022700  0.25711900  1
  O  O9  1  0.66310800  0.83150500  0.24288100  1
  O  O10  1  0.08862400  0.83150500  0.66839700  1
  O  O11  1  0.66310800  0.42022700  0.83160300  1
  O  O12  1  0.62244200  0.87244200  0.75000000  1
  O  O13  1  0.37755800  0.12755800  0.25000000  1
loop_
_geom_bond_atom_site_label_1
_geom_bond_atom_site_label_2
_geom_bond_distance
_geom_bond_site_symmetry_2
Dy0 O13 2.208779 1_555
Dy0 O12 2.208779 1_544
Dy0 O9 2.483957 1_545
Dy0 O4 2.483957 1_555
Dy0 O3 2.483957 1_554
Dy0 O10 2.483957 1_544
Dy0 O1 2.504471 1_544
Dy0 O7 2.504471 1_555
Dy1 O13 2.208779 1_555
Dy1 O12 2.208779 1_555
Dy1 O5 2.483957 1_555
Dy1 O2 2.483957 1_555
Dy1 O11 2.483957 1_555
Dy1 O8 2.483957 1_555
Dy1 O7 2.504471 1_555
Dy1 O1 2.504471 1_555
Dy2 O12 2.254103 1_545
Dy2 O13 2.254103 1_555
Dy2 O6 2.462261 1_545
Dy2 O0 2.462261 1_555
Dy2 O3 2.513217 1_555
Dy2 O11 2.513217 1_555
Dy2 O5 2.513217 1_545
Dy2 O9 2.513217 1_545
Dy3 O12 2.254103 1_444
Dy3 O13 2.254103 1_555
Dy3 O6 2.462261 1_545
Dy3 O0 2.462261 1_454
Dy3 O8 2.513217 1_555
Dy3 O10 2.513217 1_544
Dy3 O2 2.513217 1_444
Dy3 O4 2.513217 1_455
Cr0 O0 2.037832 1_454
Cr0 O6 2.037832 1_555
Cr0 O2 2.041220 1_454
Cr0 O11 2.041220 1_454
Cr0 O8 2.041220 1_555
Cr0 O5 2.041220 1_555
Cr1 O6 2.037832 1_545
Cr1 O0 2.037832 1_455
Cr1 O9 2.041220 1_445
Cr1 O10 2.041220 1_545
Cr1 O3 2.041220 1_555
Cr1 O4 2.041220 1_455
O1 Sb0 2.018536 1_555
O1 Sb1 2.018536 1_556
O2 Sb0 1.994366 1_655
O3 Sb1 1.994366 1_556
O4 Sb0 1.994366 1_655
O5 Sb1 1.994366 1_555
O7 Sb1 2.018536 1_555
O7 Sb0 2.018536 1_655
O8 Sb0 1.994366 1_555
O9 Sb1 1.994366 1_555
O10 Sb0 1.994366 1_555
O11 Sb1 1.994366 1_556
