# generated using pymatgen
data_Cu4O3
_symmetry_space_group_name_H-M   'P 1'
_cell_length_a   5.79059958
_cell_length_b   5.79058125
_cell_length_c   6.42227727
_cell_angle_alpha   116.80543811
_cell_angle_beta   116.80543235
_cell_angle_gamma   90.01732267
_symmetry_Int_Tables_number   1
_chemical_formula_structural   Cu4O3
_chemical_formula_sum   'Cu8 O6'
_cell_volume   165.84962312
_cell_formula_units_Z   2
loop_
 _symmetry_equiv_pos_site_id
 _symmetry_equiv_pos_as_xyz
  1  'x, y, z'
loop_
 _atom_site_type_symbol
 _atom_site_label
 _atom_site_symmetry_multiplicity
 _atom_site_fract_x
 _atom_site_fract_y
 _atom_site_fract_z
 _atom_site_occupancy
  Cu  Cu0  1  0.50000000  0.50000000  0.50000000  1
  Cu  Cu1  1  0.50000000  -0.00000000  0.00000000  1
  Cu  Cu2  1  -0.00000000  0.50000000  0.50000000  1
  Cu  Cu3  1  0.50000000  0.50000000  0.00000000  1
  Cu  Cu4  1  -0.00000000  0.50000000  0.00000000  1
  Cu  Cu5  1  -0.00000000  -0.00000000  0.50000000  1
  Cu  Cu6  1  0.50000000  -0.00000000  0.50000000  1
  Cu  Cu7  1  -0.00000000  -0.00000000  0.00000000  1
  O  O0  1  0.62499592  0.37500478  0.25000041  1
  O  O1  1  0.37500408  0.62499522  0.74999959  1
  O  O2  1  0.63657949  0.88658401  0.27313582  1
  O  O3  1  0.88658332  0.63657843  0.77313456  1
  O  O4  1  0.36342051  0.11341599  0.72686418  1
  O  O5  1  0.11341668  0.36342157  0.22686544  1
loop_
_geom_bond_atom_site_label_1
_geom_bond_atom_site_label_2
_geom_bond_distance
_geom_bond_site_symmetry_2
Cu0 O0 1.904190 1_555
Cu0 O1 1.904190 1_555
Cu0 O5 1.979816 1_555
Cu0 O3 1.979816 1_555
Cu1 O0 1.903549 1_555
Cu1 O1 1.903549 1_544
Cu1 O4 1.980393 1_554
Cu1 O2 1.980393 1_545
Cu2 O0 1.903551 1_455
Cu2 O1 1.903551 1_555
Cu2 O3 1.980391 1_455
Cu2 O5 1.980391 1_555
Cu3 O1 1.904189 1_554
Cu3 O0 1.904189 1_555
Cu3 O4 1.979815 1_554
Cu3 O2 1.979815 1_555
Cu4 O5 1.831988 1_555
Cu4 O3 1.831988 1_454
Cu5 O2 1.831244 1_445
Cu5 O4 1.831244 1_555
Cu6 O4 1.831988 1_555
Cu6 O2 1.831988 1_545
Cu7 O3 1.831244 1_444
Cu7 O5 1.831244 1_555
