# generated using pymatgen
data_Ce4Ge7
_symmetry_space_group_name_H-M   'P 1'
_cell_length_a   4.09094900
_cell_length_b   4.20367500
_cell_length_c   15.03583400
_cell_angle_alpha   90.00000000
_cell_angle_beta   90.00000000
_cell_angle_gamma   90.00000000
_symmetry_Int_Tables_number   1
_chemical_formula_structural   Ce4Ge7
_chemical_formula_sum   'Ce4 Ge7'
_cell_volume   258.57153858
_cell_formula_units_Z   1
loop_
 _symmetry_equiv_pos_site_id
 _symmetry_equiv_pos_as_xyz
  1  'x, y, z'
loop_
 _atom_site_type_symbol
 _atom_site_label
 _atom_site_symmetry_multiplicity
 _atom_site_fract_x
 _atom_site_fract_y
 _atom_site_fract_z
 _atom_site_occupancy
  Ce  Ce0  1  0.25000000  0.00000000  0.37672500  1
  Ce  Ce1  1  0.75000000  0.50000000  0.87745200  1
  Ce  Ce2  1  0.25000000  0.50000000  0.12566500  1
  Ce  Ce3  1  0.75000000  0.00000000  0.62292200  1
  Ge  Ge0  1  0.75000000  0.50000000  0.43305500  1
  Ge  Ge1  1  0.25000000  0.00000000  0.96158500  1
  Ge  Ge2  1  0.75000000  0.00000000  0.05756700  1
  Ge  Ge3  1  0.25000000  0.50000000  0.53664200  1
  Ge  Ge4  1  0.25000000  0.00000000  0.79329900  1
  Ge  Ge5  1  0.75000000  0.00000000  0.22370500  1
  Ge  Ge6  1  0.25000000  0.50000000  0.70538300  1
loop_
_geom_bond_atom_site_label_1
_geom_bond_atom_site_label_2
_geom_bond_distance
_geom_bond_site_symmetry_2
Ce0 Ge0 3.052711 1_455
Ce0 Ge0 3.052711 1_445
Ce0 Ge0 3.052711 1_545
Ce0 Ge0 3.052711 1_555
Ce0 Ge5 3.078566 1_555
Ce0 Ge5 3.078566 1_455
Ce0 Ge3 3.193630 1_555
Ce0 Ge3 3.193630 1_545
Ce1 Ge1 3.194047 1_555
Ce1 Ge1 3.194047 1_655
Ce1 Ge1 3.194047 1_565
Ce1 Ge1 3.194047 1_665
Ce1 Ge4 3.194166 1_655
Ce1 Ge4 3.194166 1_665
Ce1 Ge4 3.194166 1_555
Ce1 Ge4 3.194166 1_565
Ce1 Ge6 3.298117 1_655
Ce1 Ge6 3.298117 1_555
Ce1 Ge2 3.428113 1_556
Ce1 Ge2 3.428113 1_566
Ce2 Ge2 3.106458 1_555
Ce2 Ge2 3.106458 1_565
Ce2 Ge2 3.106458 1_465
Ce2 Ge2 3.106458 1_455
Ce2 Ge1 3.241019 1_564
Ce2 Ge1 3.241019 1_554
Ce2 Ge5 3.282483 1_555
Ce2 Ge5 3.282483 1_565
Ce2 Ge5 3.282483 1_465
Ce2 Ge5 3.282483 1_455
Ce3 Ge6 3.184174 1_555
Ce3 Ge6 3.184174 1_655
Ce3 Ge6 3.184174 1_645
Ce3 Ge6 3.184174 1_545
Ce3 Ge3 3.206969 1_655
Ce3 Ge3 3.206969 1_545
Ce3 Ge3 3.206969 1_645
Ce3 Ge3 3.206969 1_555
Ce3 Ge4 3.278198 1_655
Ce3 Ge4 3.278198 1_555
Ce3 Ge0 3.545089 1_545
Ce3 Ge0 3.545089 1_555
Ge0 Ge3 2.570958 1_555
Ge0 Ge3 2.570958 1_655
Ge1 Ge2 2.503339 1_456
Ge1 Ge2 2.503339 1_556
Ge1 Ge4 2.530320 1_555
Ge2 Ge5 2.498023 1_555
Ge3 Ge6 2.537162 1_555
Ge4 Ge6 2.482965 1_545
Ge4 Ge6 2.482965 1_555
