# generated using pymatgen
data_ErCrO3
_symmetry_space_group_name_H-M   'P 1'
_cell_length_a   5.18848926
_cell_length_b   5.52090784
_cell_length_c   7.50302878
_cell_angle_alpha   90.00000000
_cell_angle_beta   90.00000000
_cell_angle_gamma   90.00000000
_symmetry_Int_Tables_number   1
_chemical_formula_structural   ErCrO3
_chemical_formula_sum   'Er4 Cr4 O12'
_cell_volume   214.92554267
_cell_formula_units_Z   4
loop_
 _symmetry_equiv_pos_site_id
 _symmetry_equiv_pos_as_xyz
  1  'x, y, z'
loop_
 _atom_site_type_symbol
 _atom_site_label
 _atom_site_symmetry_multiplicity
 _atom_site_fract_x
 _atom_site_fract_y
 _atom_site_fract_z
 _atom_site_occupancy
  Er  Er0  1  0.02085563  0.92873173  0.75000000  1
  Er  Er1  1  0.52085563  0.57126827  0.25000000  1
  Er  Er2  1  0.47914437  0.42873173  0.75000000  1
  Er  Er3  1  0.97914437  0.07126827  0.25000000  1
  Cr  Cr0  1  0.50000000  0.00000000  0.50000000  1
  Cr  Cr1  1  -0.00000000  0.50000000  0.50000000  1
  Cr  Cr2  1  -0.00000000  0.50000000  0.00000000  1
  Cr  Cr3  1  0.50000000  0.00000000  0.00000000  1
  O  O0  1  0.69031152  0.30420032  0.44140513  1
  O  O1  1  0.19031152  0.19579968  0.55859487  1
  O  O2  1  0.80968848  0.80420032  0.05859487  1
  O  O3  1  0.30968848  0.69579968  0.94140513  1
  O  O4  1  0.30968848  0.69579968  0.55859487  1
  O  O5  1  0.80968848  0.80420032  0.44140513  1
  O  O6  1  0.19031152  0.19579968  0.94140513  1
  O  O7  1  0.69031152  0.30420032  0.05859487  1
  O  O8  1  0.11533757  0.45904070  0.25000000  1
  O  O9  1  0.61533757  0.04095930  0.75000000  1
  O  O10  1  0.38466243  0.95904070  0.25000000  1
  O  O11  1  0.88466243  0.54095930  0.75000000  1
loop_
_geom_bond_atom_site_label_1
_geom_bond_atom_site_label_2
_geom_bond_distance
_geom_bond_site_symmetry_2
Er0 O9 2.193360 1_465
Er0 O6 2.238189 1_565
Er0 O1 2.238189 1_565
Er0 O11 2.254462 1_455
Er0 O3 2.441729 1_555
Er0 O4 2.441729 1_555
Er0 O5 2.652202 1_455
Er0 O2 2.652202 1_456
Er1 O8 2.193360 1_555
Er1 O0 2.238189 1_555
Er1 O7 2.238189 1_555
Er1 O10 2.254462 1_555
Er1 O2 2.441729 1_555
Er1 O5 2.441729 1_555
Er1 O3 2.652202 1_554
Er1 O4 2.652202 1_555
Er2 O11 2.193360 1_555
Er2 O4 2.238189 1_555
Er2 O3 2.238189 1_555
Er2 O9 2.254462 1_555
Er2 O1 2.441729 1_555
Er2 O6 2.441729 1_555
Er2 O0 2.652202 1_555
Er2 O7 2.652202 1_556
Er3 O10 2.193360 1_645
Er3 O2 2.238189 1_545
Er3 O5 2.238189 1_545
Er3 O8 2.254462 1_655
Er3 O0 2.441729 1_555
Er3 O7 2.441729 1_555
Er3 O1 2.652202 1_655
Er3 O6 2.652202 1_654
Cr0 O10 1.981847 1_545
Cr0 O9 1.981847 1_555
Cr0 O1 1.985871 1_555
Cr0 O5 1.985871 1_545
Cr0 O4 1.997221 1_545
Cr0 O0 1.997221 1_555
Cr1 O11 1.981847 1_455
Cr1 O8 1.981847 1_555
Cr1 O0 1.985871 1_455
Cr1 O4 1.985871 1_555
Cr1 O5 1.997221 1_455
Cr1 O1 1.997221 1_555
Cr2 O11 1.981847 1_454
Cr2 O8 1.981847 1_555
Cr2 O7 1.985871 1_455
Cr2 O3 1.985871 1_554
Cr2 O2 1.997221 1_455
Cr2 O6 1.997221 1_554
Cr3 O9 1.981847 1_554
Cr3 O10 1.981847 1_545
Cr3 O6 1.985871 1_554
Cr3 O2 1.985871 1_545
Cr3 O3 1.997221 1_544
Cr3 O7 1.997221 1_555
