# generated using pymatgen
data_Mg3Si4
_symmetry_space_group_name_H-M   'P 1'
_cell_length_a   3.94958900
_cell_length_b   8.36706169
_cell_length_c   9.14956923
_cell_angle_alpha   113.69959542
_cell_angle_beta   101.17877723
_cell_angle_gamma   90.15769767
_symmetry_Int_Tables_number   1
_chemical_formula_structural   Mg3Si4
_chemical_formula_sum   'Mg6 Si8'
_cell_volume   270.51084353
_cell_formula_units_Z   2
loop_
 _symmetry_equiv_pos_site_id
 _symmetry_equiv_pos_as_xyz
  1  'x, y, z'
loop_
 _atom_site_type_symbol
 _atom_site_label
 _atom_site_symmetry_multiplicity
 _atom_site_fract_x
 _atom_site_fract_y
 _atom_site_fract_z
 _atom_site_occupancy
  Mg  Mg0  1  0.87717700  0.32297500  0.77323800  1
  Mg  Mg1  1  0.43355500  0.08841500  0.90262700  1
  Mg  Mg2  1  0.25763500  0.69730100  0.54078900  1
  Mg  Mg3  1  0.09258300  0.36649400  0.20538900  1
  Mg  Mg4  1  0.23117400  0.01239700  0.46224300  1
  Mg  Mg5  1  0.40596700  0.63747900  0.86272800  1
  Si  Si0  1  0.81716500  0.97188000  0.64792500  1
  Si  Si1  1  0.64193300  0.66488900  0.29795900  1
  Si  Si2  1  0.67966800  0.22545900  0.36811300  1
  Si  Si3  1  0.25696600  0.36642600  0.53188700  1
  Si  Si4  1  0.88273700  0.81659600  0.81107000  1
  Si  Si5  1  0.61141400  0.90526200  0.21366200  1
  Si  Si6  1  0.50405900  0.43794700  0.02489600  1
  Si  Si7  1  0.06114800  0.98636900  0.10411300  1
loop_
_geom_bond_atom_site_label_1
_geom_bond_atom_site_label_2
_geom_bond_distance
_geom_bond_site_symmetry_2
Mg0 Si0 2.680233 1_545
Mg0 Si6 2.818112 1_556
Mg0 Si6 2.890186 1_656
Mg0 Si3 3.030733 1_655
Mg0 Si3 3.092229 1_555
Mg1 Si6 2.669592 1_556
Mg1 Si4 2.844042 1_545
Mg1 Si0 2.868383 1_545
Mg1 Si0 2.875547 1_445
Mg1 Si4 2.888199 1_445
Mg1 Si7 2.932706 1_546
Mg1 Si7 3.126795 1_646
Mg2 Si3 2.736709 1_555
Mg2 Si0 2.852777 1_455
Mg2 Si1 2.852918 1_555
Mg2 Si1 2.887989 1_455
Mg2 Si0 2.905936 1_555
Mg2 Si4 2.957685 1_455
Mg2 Si4 2.973560 1_555
Mg3 Si6 2.748596 1_555
Mg3 Si6 2.792947 1_455
Mg3 Si7 2.928115 1_545
Mg3 Si3 2.931709 1_555
Mg3 Si2 2.934637 1_455
Mg3 Si1 3.004643 1_455
Mg3 Si2 3.012409 1_555
Mg3 Si1 3.035814 1_555
Mg4 Si0 2.685531 1_445
Mg4 Si0 2.701942 1_545
Mg4 Si3 2.765276 1_555
Mg4 Si5 2.815089 1_545
Mg4 Si5 2.856307 1_445
Mg4 Si2 2.977568 1_555
Mg4 Si2 3.031938 1_455
Mg4 Si7 3.131728 1_545
Mg5 Si6 2.628856 1_556
Mg5 Si4 2.629506 1_555
Mg5 Si4 2.635868 1_455
Mg5 Si3 2.904481 1_555
Mg5 Si5 3.030650 1_556
Si0 Si4 2.322581 1_555
Si1 Si6 2.407752 1_555
Si1 Si5 2.422122 1_555
Si2 Si3 2.446190 1_555
Si2 Si5 2.460105 1_545
Si2 Si3 2.464753 1_655
Si4 Si7 2.429707 1_656
Si5 Si7 2.418845 1_655
Si5 Si7 2.428746 1_555
