# generated using pymatgen
data_SrCa7Mn6Al2O22
_symmetry_space_group_name_H-M   'P 1'
_cell_length_a   7.66121412
_cell_length_b   7.66121412
_cell_length_c   7.59297700
_cell_angle_alpha   90.00000000
_cell_angle_beta   90.00000000
_cell_angle_gamma   89.98010671
_symmetry_Int_Tables_number   1
_chemical_formula_structural   SrCa7Mn6Al2O22
_chemical_formula_sum   'Sr1 Ca7 Mn6 Al2 O22'
_cell_volume   445.66369685
_cell_formula_units_Z   1
loop_
 _symmetry_equiv_pos_site_id
 _symmetry_equiv_pos_as_xyz
  1  'x, y, z'
loop_
 _atom_site_type_symbol
 _atom_site_label
 _atom_site_symmetry_multiplicity
 _atom_site_fract_x
 _atom_site_fract_y
 _atom_site_fract_z
 _atom_site_occupancy
  Sr  Sr0  1  0.25943900  0.25943900  0.25000000  1
  Ca  Ca0  1  0.26671400  0.26671400  0.75000000  1
  Ca  Ca1  1  0.26721300  0.73372900  0.25000000  1
  Ca  Ca2  1  0.26677400  0.73379400  0.75000000  1
  Ca  Ca3  1  0.73372900  0.26721300  0.25000000  1
  Ca  Ca4  1  0.73379400  0.26677400  0.75000000  1
  Ca  Ca5  1  0.73352400  0.73352400  0.25000000  1
  Ca  Ca6  1  0.73305300  0.73305300  0.75000000  1
  Mn  Mn0  1  0.99930200  0.50140400  0.99914400  1
  Mn  Mn1  1  0.99930200  0.50140400  0.50085600  1
  Mn  Mn2  1  0.50140400  0.99930200  0.99914400  1
  Mn  Mn3  1  0.50140400  0.99930200  0.50085600  1
  Mn  Mn4  1  0.50065600  0.50065600  0.99933900  1
  Mn  Mn5  1  0.50065600  0.50065600  0.50066100  1
  Al  Al0  1  0.99928600  0.99928600  0.99749200  1
  Al  Al1  1  0.99928600  0.99928600  0.50250800  1
  O  O0  1  0.99731900  0.50209800  0.25000000  1
  O  O1  1  0.99897300  0.50080600  0.75000000  1
  O  O2  1  0.50209800  0.99731900  0.25000000  1
  O  O3  1  0.50080600  0.99897300  0.75000000  1
  O  O4  1  0.50305600  0.50305600  0.25000000  1
  O  O5  1  0.50077900  0.50077900  0.75000000  1
  O  O6  1  0.23745000  0.99826900  0.99696100  1
  O  O7  1  0.23745000  0.99826900  0.50303900  1
  O  O8  1  0.25019900  0.50340500  0.99660900  1
  O  O9  1  0.25019900  0.50340500  0.50339100  1
  O  O10  1  0.76192400  0.99904200  0.99975700  1
  O  O11  1  0.76192400  0.99904200  0.50024300  1
  O  O12  1  0.74989200  0.50053600  0.99935700  1
  O  O13  1  0.74989200  0.50053600  0.50064300  1
  O  O14  1  0.99826900  0.23745000  0.99696100  1
  O  O15  1  0.99826900  0.23745000  0.50303900  1
  O  O16  1  0.99904200  0.76192400  0.99975700  1
  O  O17  1  0.99904200  0.76192400  0.50024300  1
  O  O18  1  0.50340500  0.25019900  0.99660900  1
  O  O19  1  0.50340500  0.25019900  0.50339100  1
  O  O20  1  0.50053600  0.74989200  0.99935700  1
  O  O21  1  0.50053600  0.74989200  0.50064300  1
loop_
_geom_bond_atom_site_label_1
_geom_bond_atom_site_label_2
_geom_bond_distance
_geom_bond_site_symmetry_2
Ca0 O5 2.536439 1_555
Ca0 O18 2.609654 1_555
Ca0 O8 2.609654 1_555
Ca0 O9 2.609654 1_555
Ca0 O19 2.609654 1_555
Ca0 O1 2.724214 1_455
Ca0 O3 2.724214 1_545
Ca0 O14 2.792223 1_455
Ca0 O15 2.792223 1_455
Ca0 O6 2.792223 1_545
Ca0 O7 2.792223 1_545
Ca1 O4 2.526972 1_555
Ca1 O9 2.613919 1_555
Ca1 O8 2.613919 1_554
Ca1 O21 2.613937 1_555
Ca1 O20 2.613937 1_554
Ca1 O2 2.705327 1_555
Ca1 O0 2.725273 1_455
Ca1 O7 2.801900 1_555
Ca1 O6 2.801900 1_554
Ca1 O17 2.806728 1_455
Ca1 O16 2.806728 1_454
Ca2 O5 2.529552 1_555
Ca2 O8 2.576424 1_555
Ca2 O9 2.576424 1_555
Ca2 O20 2.609120 1_555
Ca2 O21 2.609120 1_555
Ca2 O3 2.710099 1_555
Ca2 O1 2.719937 1_455
Ca2 O7 2.769819 1_555
Ca2 O6 2.769819 1_555
Ca2 O17 2.801730 1_455
Ca2 O16 2.801730 1_455
Ca3 O4 2.526972 1_555
Ca3 O19 2.613919 1_555
Ca3 O18 2.613919 1_554
Ca3 O13 2.613937 1_555
Ca3 O12 2.613937 1_554
Ca3 O0 2.705327 1_555
Ca3 O2 2.725273 1_545
Ca3 O15 2.801900 1_555
Ca3 O14 2.801900 1_554
Ca3 O11 2.806728 1_545
Ca3 O10 2.806728 1_544
Ca4 O5 2.529552 1_555
Ca4 O18 2.576424 1_555
Ca4 O19 2.576424 1_555
Ca4 O12 2.609120 1_555
Ca4 O13 2.609120 1_555
Ca4 O1 2.710099 1_555
Ca4 O3 2.719937 1_545
Ca4 O14 2.769819 1_555
Ca4 O15 2.769819 1_555
Ca4 O11 2.801730 1_545
Ca4 O10 2.801730 1_545
Ca5 O4 2.497460 1_555
Ca5 O21 2.612199 1_555
Ca5 O13 2.612199 1_555
Ca5 O20 2.612199 1_554
Ca5 O12 2.612199 1_554
Ca5 O0 2.688021 1_555
Ca5 O2 2.688021 1_555
Ca5 O17 2.792117 1_555
Ca5 O11 2.792117 1_555
Ca5 O16 2.792117 1_554
Ca5 O10 2.792117 1_554
Ca6 O5 2.517031 1_555
Ca6 O12 2.602798 1_555
Ca6 O20 2.602798 1_555
Ca6 O13 2.602798 1_555
Ca6 O21 2.602798 1_555
Ca6 O1 2.704411 1_555
Ca6 O3 2.704411 1_555
Ca6 O11 2.792524 1_555
Ca6 O10 2.792524 1_555
Ca6 O16 2.792524 1_555
Ca6 O17 2.792524 1_555
Mn0 O1 1.891752 1_555
Mn0 O0 1.904812 1_556
Mn0 O12 1.910798 1_555
Mn0 O8 1.922338 1_655
Mn0 O16 1.995905 1_555
Mn0 O14 2.022294 1_555
Mn1 O1 1.891752 1_555
Mn1 O0 1.904812 1_555
Mn1 O13 1.910798 1_555
Mn1 O9 1.922338 1_655
Mn1 O17 1.995905 1_555
Mn1 O15 2.022294 1_555
Mn2 O3 1.891752 1_555
Mn2 O2 1.904812 1_556
Mn2 O20 1.910798 1_555
Mn2 O18 1.922338 1_565
Mn2 O10 1.995905 1_555
Mn2 O6 2.022294 1_555
Mn3 O3 1.891752 1_555
Mn3 O2 1.904812 1_555
Mn3 O21 1.910798 1_555
Mn3 O19 1.922338 1_565
Mn3 O11 1.995905 1_555
Mn3 O7 2.022294 1_555
Mn4 O5 1.893226 1_555
Mn4 O4 1.903441 1_556
Mn4 O12 1.909450 1_555
Mn4 O20 1.909450 1_555
Mn4 O8 1.919025 1_555
Mn4 O18 1.919025 1_555
Mn5 O5 1.893226 1_555
Mn5 O4 1.903441 1_555
Mn5 O13 1.909450 1_555
Mn5 O21 1.909450 1_555
Mn5 O9 1.919025 1_555
Mn5 O19 1.919025 1_555
Al0 O16 1.818564 1_555
Al0 O10 1.818564 1_555
Al0 O14 1.824644 1_565
Al0 O6 1.824644 1_655
Al1 O11 1.818564 1_555
Al1 O17 1.818564 1_555
Al1 O7 1.824644 1_655
Al1 O15 1.824644 1_565
O0 Sr0 2.736095 1_655
O2 Sr0 2.736095 1_565
O4 Sr0 2.639949 1_555
O6 Sr0 2.779136 1_566
O7 Sr0 2.779136 1_565
O8 Sr0 2.683302 1_556
O9 Sr0 2.683302 1_555
O14 Sr0 2.779136 1_656
O15 Sr0 2.779136 1_655
O18 Sr0 2.683302 1_556
O19 Sr0 2.683302 1_555
