# generated using pymatgen
data_CaCrN2
_symmetry_space_group_name_H-M   'P 1'
_cell_length_a   3.69276000
_cell_length_b   3.69276000
_cell_length_c   7.35009300
_cell_angle_alpha   90.00000000
_cell_angle_beta   90.00000000
_cell_angle_gamma   90.00000000
_symmetry_Int_Tables_number   1
_chemical_formula_structural   CaCrN2
_chemical_formula_sum   'Ca2 Cr2 N4'
_cell_volume   100.22936986
_cell_formula_units_Z   2
loop_
 _symmetry_equiv_pos_site_id
 _symmetry_equiv_pos_as_xyz
  1  'x, y, z'
loop_
 _atom_site_type_symbol
 _atom_site_label
 _atom_site_symmetry_multiplicity
 _atom_site_fract_x
 _atom_site_fract_y
 _atom_site_fract_z
 _atom_site_occupancy
  Ca  Ca0  1  0.75000000  0.75000000  0.15925400  1
  Ca  Ca1  1  0.25000000  0.25000000  0.84074600  1
  Cr  Cr0  1  0.75000000  0.75000000  0.59292300  1
  Cr  Cr1  1  0.25000000  0.25000000  0.40707700  1
  N  N0  1  0.75000000  0.25000000  0.50000000  1
  N  N1  1  0.25000000  0.75000000  0.50000000  1
  N  N2  1  0.75000000  0.75000000  0.83494000  1
  N  N3  1  0.25000000  0.25000000  0.16506000  1
loop_
_geom_bond_atom_site_label_1
_geom_bond_atom_site_label_2
_geom_bond_distance
_geom_bond_site_symmetry_2
Ca0 N2 2.383738 1_554
Ca0 N3 2.611524 1_555
Ca0 N3 2.611524 1_665
Ca0 N3 2.611524 1_565
Ca0 N3 2.611524 1_655
Ca1 N3 2.383738 1_556
Ca1 N2 2.611524 1_455
Ca1 N2 2.611524 1_445
Ca1 N2 2.611524 1_545
Ca1 N2 2.611524 1_555
Cr0 N2 1.778847 1_555
Cr0 N0 1.968654 1_565
Cr0 N0 1.968654 1_555
Cr0 N1 1.968654 1_655
Cr0 N1 1.968654 1_555
Cr1 N3 1.778847 1_555
Cr1 N0 1.968654 1_555
Cr1 N1 1.968654 1_545
Cr1 N0 1.968654 1_455
Cr1 N1 1.968654 1_555
