# generated using pymatgen
data_CaV8(OF)8
_symmetry_space_group_name_H-M   'P 1'
_cell_length_a   5.02570222
_cell_length_b   10.57154627
_cell_length_c   5.73694657
_cell_angle_alpha   84.04432272
_cell_angle_beta   92.96882725
_cell_angle_gamma   88.08538992
_symmetry_Int_Tables_number   1
_chemical_formula_structural   CaV8(OF)8
_chemical_formula_sum   'Ca1 V8 O8 F8'
_cell_volume   302.51784503
_cell_formula_units_Z   1
loop_
 _symmetry_equiv_pos_site_id
 _symmetry_equiv_pos_as_xyz
  1  'x, y, z'
loop_
 _atom_site_type_symbol
 _atom_site_label
 _atom_site_symmetry_multiplicity
 _atom_site_fract_x
 _atom_site_fract_y
 _atom_site_fract_z
 _atom_site_occupancy
  Ca  Ca0  1  0.50781700  0.37375500  0.37267700  1
  V  V0  1  0.50000400  0.24351800  0.80347500  1
  V  V1  1  0.50671000  0.99812500  0.49642700  1
  V  V2  1  0.51850500  0.74211000  0.24080800  1
  V  V3  1  0.53344200  0.53147500  0.93456700  1
  V  V4  1  0.99139100  0.22312500  0.26696100  1
  V  V5  1  0.03041600  0.77419500  0.72240100  1
  V  V6  1  0.01393200  0.50847900  0.49371200  1
  V  V7  1  0.00463400  0.99437600  0.99991000  1
  O  O0  1  0.82280500  0.06183100  0.26845700  1
  O  O1  1  0.69075200  0.82602200  0.51367400  1
  O  O2  1  0.67153700  0.57012100  0.26432100  1
  O  O3  1  0.70424400  0.32398700  0.06209600  1
  O  O4  1  0.35431300  0.43836200  0.71019400  1
  O  O5  1  0.33187600  0.69331400  0.94424100  1
  O  O6  1  0.33646200  0.17501600  0.46323300  1
  O  O7  1  0.18549600  0.93797000  0.72151200  1
  F  F0  1  0.85927900  0.59230700  0.77338100  1
  F  F1  1  0.87618000  0.30879300  0.57287400  1
  F  F2  1  0.82927000  0.82052600  0.02192500  1
  F  F3  1  0.68999000  0.06128500  0.79374400  1
  F  F4  1  0.32115200  0.92533000  0.20675900  1
  F  F5  1  0.19348700  0.69075000  0.44043500  1
  F  F6  1  0.17233100  0.16809700  0.97575200  1
  F  F7  1  0.13175400  0.42338100  0.19836800  1
loop_
_geom_bond_atom_site_label_1
_geom_bond_atom_site_label_2
_geom_bond_distance
_geom_bond_site_symmetry_2
Ca0 F7 2.115742 1_555
Ca0 F1 2.179241 1_555
Ca0 O3 2.183606 1_555
Ca0 O4 2.281433 1_555
Ca0 O2 2.296104 1_555
Ca0 O6 2.316544 1_555
O0 V4 1.928636 1_555
O0 V7 2.011822 1_644
O0 V1 2.188974 1_545
O1 V1 2.004050 1_555
O1 V2 2.045953 1_555
O1 V5 2.058573 1_655
O2 V2 1.939184 1_555
O2 V3 2.066579 1_554
O2 V6 2.151771 1_655
O3 V4 2.015507 1_555
O3 V0 2.034974 1_554
O3 V3 2.357868 1_554
O4 V3 1.907467 1_555
O4 V6 2.126587 1_555
O4 V0 2.166835 1_555
O5 V3 1.966248 1_555
O5 V2 2.022305 1_556
O5 V5 2.033242 1_555
O6 V1 2.016828 1_545
O6 V4 2.038142 1_455
O6 V0 2.275302 1_555
O7 V5 1.921927 1_555
O7 V7 2.011089 1_555
O7 V1 2.189071 1_555
F0 V3 2.013475 1_555
F0 V6 2.083721 1_655
F0 V5 2.131302 1_655
F1 V4 2.153033 1_555
F1 V6 2.252350 1_655
F1 V0 2.440767 1_555
F2 V7 2.059617 1_654
F2 V5 2.129802 1_654
F2 V2 2.185621 1_555
F3 V7 1.989395 1_645
F3 V1 2.078062 1_545
F3 V0 2.128628 1_555
F4 V7 2.004629 1_554
F4 V1 2.091962 1_555
F4 V2 2.132276 1_555
F5 V2 2.097268 1_555
F5 V5 2.109900 1_555
F5 V6 2.154799 1_555
F6 V7 2.040820 1_545
F6 V4 2.068841 1_456
F6 V0 2.101724 1_555
F7 V6 2.101306 1_555
F7 V4 2.256079 1_455
