# generated using pymatgen
data_Ca3Ir3N5
_symmetry_space_group_name_H-M   'P 1'
_cell_length_a   6.63969799
_cell_length_b   6.66027951
_cell_length_c   8.17097645
_cell_angle_alpha   106.10334632
_cell_angle_beta   108.04766525
_cell_angle_gamma   76.53170150
_symmetry_Int_Tables_number   1
_chemical_formula_structural   Ca3Ir3N5
_chemical_formula_sum   'Ca6 Ir6 N10'
_cell_volume   325.78001715
_cell_formula_units_Z   2
loop_
 _symmetry_equiv_pos_site_id
 _symmetry_equiv_pos_as_xyz
  1  'x, y, z'
loop_
 _atom_site_type_symbol
 _atom_site_label
 _atom_site_symmetry_multiplicity
 _atom_site_fract_x
 _atom_site_fract_y
 _atom_site_fract_z
 _atom_site_occupancy
  Ca  Ca0  1  0.93527217  0.35834515  0.60962389  1
  Ca  Ca1  1  0.06472783  0.64165485  0.39037611  1
  Ca  Ca2  1  0.64175848  0.82871250  0.84912907  1
  Ca  Ca3  1  0.35824152  0.17128750  0.15087093  1
  Ca  Ca4  1  0.56260267  0.65383991  0.21231464  1
  Ca  Ca5  1  0.43739733  0.34616009  0.78768536  1
  Ir  Ir0  1  0.89337640  0.35330832  0.96997297  1
  Ir  Ir1  1  0.10662360  0.64669168  0.03002703  1
  Ir  Ir2  1  0.71459792  0.00080332  0.54256022  1
  Ir  Ir3  1  0.28540208  0.99919668  0.45743978  1
  Ir  Ir4  1  0.09993606  0.83611512  0.76269000  1
  Ir  Ir5  1  0.90006394  0.16388488  0.23731000  1
  N  N0  1  0.84691828  0.06151479  0.80565082  1
  N  N1  1  0.15308172  0.93848521  0.19434918  1
  N  N2  1  0.82204207  0.71310162  0.59573650  1
  N  N3  1  0.17795793  0.28689838  0.40426350  1
  N  N4  1  0.84297141  0.65631291  0.10281872  1
  N  N5  1  0.15702859  0.34368709  0.89718128  1
  N  N6  1  0.28620903  0.88958626  0.64115670  1
  N  N7  1  0.71379097  0.11041374  0.35884330  1
  N  N8  1  0.34042592  0.72340931  0.93401718  1
  N  N9  1  0.65957408  0.27659069  0.06598282  1
loop_
_geom_bond_atom_site_label_1
_geom_bond_atom_site_label_2
_geom_bond_distance
_geom_bond_site_symmetry_2
Ca0 N2 2.330071 1_555
Ca0 N5 2.369577 1_655
Ca0 N7 2.544638 1_555
Ca0 N3 2.552217 1_655
Ca1 N3 2.330071 1_555
Ca1 N4 2.369577 1_455
Ca1 N6 2.544638 1_555
Ca1 N2 2.552217 1_455
Ca2 N0 2.444427 1_565
Ca2 N6 2.464928 1_555
Ca2 N4 2.507996 1_556
Ca2 N2 2.556269 1_555
Ca2 N8 2.599888 1_555
Ca2 N9 3.025601 1_566
Ca3 N1 2.444427 1_545
Ca3 N7 2.464928 1_555
Ca3 N5 2.507996 1_554
Ca3 N3 2.556269 1_555
Ca3 N9 2.599888 1_555
Ca3 N8 3.025601 1_544
Ca4 N4 2.306642 1_555
Ca4 N8 2.397783 1_554
Ca4 N9 2.492818 1_555
Ca4 N2 3.037301 1_555
Ca5 N5 2.306642 1_555
Ca5 N9 2.397783 1_556
Ca5 N8 2.492818 1_555
Ca5 N3 3.037301 1_555
Ir0 N5 1.998529 1_655
Ir0 N4 2.014509 1_556
Ir0 N0 2.061532 1_555
Ir0 N9 2.152400 1_556
Ir1 N4 1.998529 1_455
Ir1 N5 2.014509 1_554
Ir1 N1 2.061532 1_555
Ir1 N8 2.152400 1_554
Ir2 N7 1.840531 1_555
Ir2 N2 2.000622 1_545
Ir2 N0 2.017338 1_555
Ir3 N6 1.840531 1_555
Ir3 N3 2.000622 1_565
Ir3 N1 2.017338 1_555
Ir4 N8 1.926781 1_555
Ir4 N6 1.950643 1_555
Ir4 N0 2.024216 1_465
Ir4 N2 2.112175 1_455
Ir5 N9 1.926781 1_555
Ir5 N7 1.950643 1_555
Ir5 N1 2.024216 1_645
Ir5 N3 2.112175 1_655
