# generated using pymatgen
data_RbGe
_symmetry_space_group_name_H-M   'P 1'
_cell_length_a   13.21270815
_cell_length_b   13.21270815
_cell_length_c   13.21270815
_cell_angle_alpha   90.00000000
_cell_angle_beta   90.00000000
_cell_angle_gamma   90.00000000
_symmetry_Int_Tables_number   1
_chemical_formula_structural   RbGe
_chemical_formula_sum   'Rb32 Ge32'
_cell_volume   2306.61720150
_cell_formula_units_Z   32
loop_
 _symmetry_equiv_pos_site_id
 _symmetry_equiv_pos_as_xyz
  1  'x, y, z'
loop_
 _atom_site_type_symbol
 _atom_site_label
 _atom_site_symmetry_multiplicity
 _atom_site_fract_x
 _atom_site_fract_y
 _atom_site_fract_z
 _atom_site_occupancy
  Rb  Rb0  1  0.33369036  0.33369036  0.33369036  1
  Rb  Rb1  1  0.16630964  0.83369036  0.16630964  1
  Rb  Rb2  1  0.16630964  0.16630964  0.83369036  1
  Rb  Rb3  1  0.83369036  0.16630964  0.16630964  1
  Rb  Rb4  1  0.66630964  0.66630964  0.33369036  1
  Rb  Rb5  1  0.33369036  0.66630964  0.66630964  1
  Rb  Rb6  1  0.66630964  0.33369036  0.66630964  1
  Rb  Rb7  1  0.83369036  0.83369036  0.83369036  1
  Rb  Rb8  1  0.33690308  0.13930973  0.06534645  1
  Rb  Rb9  1  0.16309692  0.56534645  0.36069027  1
  Rb  Rb10  1  0.16309692  0.43465355  0.63930973  1
  Rb  Rb11  1  0.43465355  0.36069027  0.83690308  1
  Rb  Rb12  1  0.56534645  0.36069027  0.16309692  1
  Rb  Rb13  1  0.63930973  0.16309692  0.43465355  1
  Rb  Rb14  1  0.36069027  0.83690308  0.43465355  1
  Rb  Rb15  1  0.06534645  0.33690308  0.13930973  1
  Rb  Rb16  1  0.13930973  0.06534645  0.33690308  1
  Rb  Rb17  1  0.86069027  0.93465355  0.33690308  1
  Rb  Rb18  1  0.06534645  0.66309692  0.86069027  1
  Rb  Rb19  1  0.86069027  0.06534645  0.66309692  1
  Rb  Rb20  1  0.93465355  0.66309692  0.13930973  1
  Rb  Rb21  1  0.93465355  0.33690308  0.86069027  1
  Rb  Rb22  1  0.13930973  0.93465355  0.66309692  1
  Rb  Rb23  1  0.33690308  0.86069027  0.93465355  1
  Rb  Rb24  1  0.66309692  0.13930973  0.93465355  1
  Rb  Rb25  1  0.66309692  0.86069027  0.06534645  1
  Rb  Rb26  1  0.36069027  0.16309692  0.56534645  1
  Rb  Rb27  1  0.63930973  0.83690308  0.56534645  1
  Rb  Rb28  1  0.43465355  0.63930973  0.16309692  1
  Rb  Rb29  1  0.56534645  0.63930973  0.83690308  1
  Rb  Rb30  1  0.83690308  0.43465355  0.36069027  1
  Rb  Rb31  1  0.83690308  0.56534645  0.63930973  1
  Ge  Ge0  1  0.06847233  0.06847233  0.06847233  1
  Ge  Ge1  1  0.43152767  0.56847233  0.43152767  1
  Ge  Ge2  1  0.43152767  0.43152767  0.56847233  1
  Ge  Ge3  1  0.56847233  0.43152767  0.43152767  1
  Ge  Ge4  1  0.93152767  0.93152767  0.06847233  1
  Ge  Ge5  1  0.06847233  0.93152767  0.93152767  1
  Ge  Ge6  1  0.93152767  0.06847233  0.93152767  1
  Ge  Ge7  1  0.56847233  0.56847233  0.56847233  1
  Ge  Ge8  1  0.06273005  0.31745112  0.42518889  1
  Ge  Ge9  1  0.43726995  0.92518889  0.18254888  1
  Ge  Ge10  1  0.43726995  0.07481111  0.81745112  1
  Ge  Ge11  1  0.07481111  0.18254888  0.56273005  1
  Ge  Ge12  1  0.92518889  0.18254888  0.43726995  1
  Ge  Ge13  1  0.81745112  0.43726995  0.07481111  1
  Ge  Ge14  1  0.18254888  0.56273005  0.07481111  1
  Ge  Ge15  1  0.42518889  0.06273005  0.31745112  1
  Ge  Ge16  1  0.31745112  0.42518889  0.06273005  1
  Ge  Ge17  1  0.68254888  0.57481111  0.06273005  1
  Ge  Ge18  1  0.42518889  0.93726995  0.68254888  1
  Ge  Ge19  1  0.68254888  0.42518889  0.93726995  1
  Ge  Ge20  1  0.57481111  0.93726995  0.31745112  1
  Ge  Ge21  1  0.57481111  0.06273005  0.68254888  1
  Ge  Ge22  1  0.31745112  0.57481111  0.93726995  1
  Ge  Ge23  1  0.06273005  0.68254888  0.57481111  1
  Ge  Ge24  1  0.93726995  0.31745112  0.57481111  1
  Ge  Ge25  1  0.93726995  0.68254888  0.42518889  1
  Ge  Ge26  1  0.18254888  0.43726995  0.92518889  1
  Ge  Ge27  1  0.81745112  0.56273005  0.92518889  1
  Ge  Ge28  1  0.07481111  0.81745112  0.43726995  1
  Ge  Ge29  1  0.92518889  0.81745112  0.56273005  1
  Ge  Ge30  1  0.56273005  0.07481111  0.18254888  1
  Ge  Ge31  1  0.56273005  0.92518889  0.81745112  1
loop_
_geom_bond_atom_site_label_1
_geom_bond_atom_site_label_2
_geom_bond_distance
_geom_bond_site_symmetry_2
Ge0 Ge6 2.558892 1_454
Ge0 Ge5 2.558892 1_544
Ge0 Ge4 2.558892 1_445
Ge0 Rb2 3.600720 1_554
Ge0 Rb1 3.600720 1_545
Ge0 Rb3 3.600720 1_455
Ge0 Rb16 3.668348 1_555
Ge0 Rb15 3.668348 1_555
Ge0 Rb8 3.668348 1_555
Ge1 Ge3 2.558892 1_555
Ge1 Ge2 2.558892 1_555
Ge1 Ge7 2.558892 1_555
Ge1 Rb0 3.600720 1_555
Ge1 Rb5 3.600720 1_555
Ge1 Rb4 3.600720 1_555
Ge1 Rb14 3.668348 1_555
Ge1 Rb9 3.668348 1_555
Ge1 Rb28 3.668348 1_555
Ge2 Ge3 2.558892 1_555
Ge2 Ge7 2.558892 1_555
Ge2 Rb0 3.600720 1_555
Ge2 Rb5 3.600720 1_555
Ge2 Rb6 3.600720 1_555
Ge2 Rb11 3.668348 1_555
Ge2 Rb26 3.668348 1_555
Ge2 Rb10 3.668348 1_555
Ge3 Ge7 2.558892 1_555
Ge3 Rb0 3.600720 1_555
Ge3 Rb6 3.600720 1_555
Ge3 Rb4 3.600720 1_555
Ge3 Rb12 3.668348 1_555
Ge3 Rb13 3.668348 1_555
Ge3 Rb30 3.668348 1_555
Ge4 Ge6 2.558892 1_564
Ge4 Ge5 2.558892 1_654
Ge4 Rb1 3.600720 1_655
Ge4 Rb3 3.600720 1_565
Ge4 Rb7 3.600720 1_554
Ge4 Rb20 3.668348 1_555
Ge4 Rb25 3.668348 1_555
Ge4 Rb17 3.668348 1_555
Ge5 Ge6 2.558892 1_465
Ge5 Rb1 3.600720 1_556
Ge5 Rb2 3.600720 1_565
Ge5 Rb7 3.600720 1_455
Ge5 Rb22 3.668348 1_555
Ge5 Rb23 3.668348 1_555
Ge5 Rb18 3.668348 1_555
Ge6 Rb3 3.600720 1_556
Ge6 Rb2 3.600720 1_655
Ge6 Rb7 3.600720 1_545
Ge6 Rb24 3.668348 1_555
Ge6 Rb19 3.668348 1_555
Ge6 Rb21 3.668348 1_555
Ge7 Rb6 3.600720 1_555
Ge7 Rb5 3.600720 1_555
Ge7 Rb4 3.600720 1_555
Ge7 Rb27 3.668348 1_555
Ge7 Rb31 3.668348 1_555
Ge7 Rb29 3.668348 1_555
Ge8 Rb30 3.468035 1_455
Ge8 Rb10 3.487195 1_555
Ge8 Rb9 3.634952 1_555
Ge8 Rb16 3.671507 1_555
Ge8 Rb0 3.784817 1_555
Ge8 Rb15 3.786130 1_555
Ge9 Rb25 3.468035 1_555
Ge9 Rb8 3.487195 1_565
Ge9 Rb23 3.634952 1_554
Ge9 Rb14 3.671507 1_555
Ge9 Rb1 3.784817 1_555
Ge9 Rb28 3.786130 1_555
Ge10 Ge21 2.550502 1_555
Ge10 Ge18 2.550502 1_545
Ge10 Ge31 2.579933 1_545
Ge10 Rb24 3.468035 1_555
Ge10 Rb23 3.487195 1_545
Ge10 Rb8 3.634952 1_556
Ge10 Rb26 3.671507 1_555
Ge10 Rb2 3.784817 1_555
Ge10 Rb11 3.786130 1_555
Ge11 Ge24 2.550502 1_455
Ge11 Ge8 2.550502 1_555
Ge11 Ge12 2.579933 1_455
Ge11 Rb16 3.468035 1_555
Ge11 Rb19 3.487195 1_455
Ge11 Rb22 3.634952 1_545
Ge11 Rb10 3.671507 1_555
Ge11 Rb2 3.784817 1_555
Ge11 Rb26 3.786130 1_555
Ge12 Ge24 2.550502 1_555
Ge12 Ge8 2.550502 1_655
Ge12 Rb19 3.468035 1_555
Ge12 Rb16 3.487195 1_655
Ge12 Rb17 3.634952 1_545
Ge12 Rb30 3.671507 1_555
Ge12 Rb3 3.784817 1_555
Ge12 Rb13 3.786130 1_555
Ge13 Ge17 2.550502 1_555
Ge13 Ge19 2.550502 1_554
Ge13 Ge27 2.579933 1_554
Ge13 Rb20 3.468035 1_555
Ge13 Rb21 3.487195 1_554
Ge13 Rb15 3.634952 1_655
Ge13 Rb12 3.671507 1_555
Ge13 Rb3 3.784817 1_555
Ge13 Rb30 3.786130 1_555
Ge14 Ge22 2.550502 1_554
Ge14 Ge16 2.550502 1_555
Ge14 Ge26 2.579933 1_554
Ge14 Rb15 3.468035 1_555
Ge14 Rb18 3.487195 1_554
Ge14 Rb20 3.634952 1_455
Ge14 Rb28 3.671507 1_555
Ge14 Rb1 3.784817 1_555
Ge14 Rb9 3.786130 1_555
Ge15 Ge9 2.550502 1_545
Ge15 Ge30 2.550502 1_555
Ge15 Ge20 2.579933 1_545
Ge15 Rb14 3.468035 1_545
Ge15 Rb13 3.487195 1_555
Ge15 Rb26 3.634952 1_555
Ge15 Rb8 3.671507 1_555
Ge15 Rb0 3.784817 1_555
Ge15 Rb16 3.786130 1_555
Ge16 Ge26 2.550502 1_554
Ge16 Ge22 2.579933 1_554
Ge16 Rb11 3.468035 1_554
Ge16 Rb28 3.487195 1_555
Ge16 Rb12 3.634952 1_555
Ge16 Rb15 3.671507 1_555
Ge16 Rb0 3.784817 1_555
Ge16 Rb8 3.786130 1_555
Ge17 Ge27 2.550502 1_554
Ge17 Ge19 2.579933 1_554
Ge17 Rb29 3.468035 1_554
Ge17 Rb12 3.487195 1_555
Ge17 Rb28 3.634952 1_555
Ge17 Rb20 3.671507 1_555
Ge17 Rb4 3.784817 1_555
Ge17 Rb25 3.786130 1_555
Ge18 Ge31 2.550502 1_555
Ge18 Ge21 2.579933 1_565
Ge18 Rb26 3.468035 1_565
Ge18 Rb27 3.487195 1_555
Ge18 Rb14 3.634952 1_555
Ge18 Rb23 3.671507 1_555
Ge18 Rb5 3.784817 1_555
Ge18 Rb22 3.786130 1_555
Ge19 Ge27 2.550502 1_555
Ge19 Rb12 3.468035 1_556
Ge19 Rb29 3.487195 1_555
Ge19 Rb11 3.634952 1_555
Ge19 Rb21 3.671507 1_555
Ge19 Rb6 3.784817 1_555
Ge19 Rb24 3.786130 1_555
Ge20 Ge30 2.550502 1_565
Ge20 Ge9 2.550502 1_555
Ge20 Rb13 3.468035 1_565
Ge20 Rb14 3.487195 1_555
Ge20 Rb27 3.634952 1_555
Ge20 Rb25 3.671507 1_555
Ge20 Rb4 3.784817 1_555
Ge20 Rb17 3.786130 1_555
Ge21 Ge31 2.550502 1_545
Ge21 Rb27 3.468035 1_545
Ge21 Rb26 3.487195 1_555
Ge21 Rb13 3.634952 1_555
Ge21 Rb24 3.671507 1_555
Ge21 Rb6 3.784817 1_555
Ge21 Rb19 3.786130 1_555
Ge22 Ge26 2.550502 1_555
Ge22 Rb28 3.468035 1_556
Ge22 Rb11 3.487195 1_555
Ge22 Rb29 3.634952 1_555
Ge22 Rb18 3.671507 1_555
Ge22 Rb5 3.784817 1_555
Ge22 Rb23 3.786130 1_555
Ge23 Ge28 2.550502 1_555
Ge23 Ge29 2.550502 1_455
Ge23 Ge25 2.579933 1_455
Ge23 Rb31 3.468035 1_455
Ge23 Rb9 3.487195 1_555
Ge23 Rb10 3.634952 1_555
Ge23 Rb22 3.671507 1_555
Ge23 Rb5 3.784817 1_555
Ge23 Rb18 3.786130 1_555
Ge24 Ge8 2.579933 1_655
Ge24 Rb10 3.468035 1_655
Ge24 Rb30 3.487195 1_555
Ge24 Rb31 3.634952 1_555
Ge24 Rb19 3.671507 1_555
Ge24 Rb6 3.784817 1_555
Ge24 Rb21 3.786130 1_555
Ge25 Ge28 2.550502 1_655
Ge25 Ge29 2.550502 1_555
Ge25 Rb9 3.468035 1_655
Ge25 Rb31 3.487195 1_555
Ge25 Rb30 3.634952 1_555
Ge25 Rb17 3.671507 1_555
Ge25 Rb4 3.784817 1_555
Ge25 Rb20 3.786130 1_555
Ge26 Rb18 3.468035 1_555
Ge26 Rb15 3.487195 1_556
Ge26 Rb21 3.634952 1_455
Ge26 Rb11 3.671507 1_555
Ge26 Rb2 3.784817 1_555
Ge26 Rb10 3.786130 1_555
Ge27 Rb21 3.468035 1_555
Ge27 Rb20 3.487195 1_556
Ge27 Rb18 3.634952 1_655
Ge27 Rb29 3.671507 1_555
Ge27 Rb7 3.784817 1_555
Ge27 Rb31 3.786130 1_555
Ge28 Ge29 2.579933 1_455
Ge28 Rb22 3.468035 1_555
Ge28 Rb17 3.487195 1_455
Ge28 Rb16 3.634952 1_565
Ge28 Rb9 3.671507 1_555
Ge28 Rb1 3.784817 1_555
Ge28 Rb14 3.786130 1_555
Ge29 Rb17 3.468035 1_555
Ge29 Rb22 3.487195 1_655
Ge29 Rb19 3.634952 1_565
Ge29 Rb31 3.671507 1_555
Ge29 Rb7 3.784817 1_555
Ge29 Rb27 3.786130 1_555
Ge30 Ge9 2.579933 1_545
Ge30 Rb8 3.468035 1_555
Ge30 Rb25 3.487195 1_545
Ge30 Rb24 3.634952 1_554
Ge30 Rb13 3.671507 1_555
Ge30 Rb3 3.784817 1_555
Ge30 Rb12 3.786130 1_555
Ge31 Rb23 3.468035 1_555
Ge31 Rb24 3.487195 1_565
Ge31 Rb25 3.634952 1_556
Ge31 Rb27 3.671507 1_555
Ge31 Rb7 3.784817 1_555
Ge31 Rb29 3.786130 1_555
