# generated using pymatgen
data_Rb2AlAuBr6
_symmetry_space_group_name_H-M   'P 1'
_cell_length_a   7.65299124
_cell_length_b   7.65299124
_cell_length_c   7.65299124
_cell_angle_alpha   60.00000000
_cell_angle_beta   60.00000000
_cell_angle_gamma   60.00000000
_symmetry_Int_Tables_number   1
_chemical_formula_structural   Rb2AlAuBr6
_chemical_formula_sum   'Rb2 Al1 Au1 Br6'
_cell_volume   316.94116524
_cell_formula_units_Z   1
loop_
 _symmetry_equiv_pos_site_id
 _symmetry_equiv_pos_as_xyz
  1  'x, y, z'
loop_
 _atom_site_type_symbol
 _atom_site_label
 _atom_site_symmetry_multiplicity
 _atom_site_fract_x
 _atom_site_fract_y
 _atom_site_fract_z
 _atom_site_occupancy
  Rb  Rb0  1  0.75000000  0.75000000  0.75000000  1
  Rb  Rb1  1  0.25000000  0.25000000  0.25000000  1
  Al  Al0  1  0.00000000  0.00000000  0.00000000  1
  Au  Au0  1  0.50000000  0.50000000  0.50000000  1
  Br  Br0  1  0.76400500  0.23599500  0.23599500  1
  Br  Br1  1  0.23599500  0.23599500  0.76400500  1
  Br  Br2  1  0.23599500  0.76400500  0.76400500  1
  Br  Br3  1  0.23599500  0.76400500  0.23599500  1
  Br  Br4  1  0.76400500  0.23599500  0.76400500  1
  Br  Br5  1  0.76400500  0.76400500  0.23599500  1
loop_
_geom_bond_atom_site_label_1
_geom_bond_atom_site_label_2
_geom_bond_distance
_geom_bond_site_symmetry_2
Al0 Br3 2.554165 1_545
Al0 Br1 2.554165 1_554
Al0 Br0 2.554165 1_455
Al0 Br2 2.554165 1_544
Al0 Br5 2.554165 1_445
Al0 Br4 2.554165 1_454
Au0 Br4 2.857317 1_555
Au0 Br5 2.857317 1_555
Au0 Br2 2.857317 1_555
Au0 Br1 2.857317 1_555
Au0 Br3 2.857317 1_555
Au0 Br0 2.857317 1_555
Br0 Rb1 3.829497 1_555
Br0 Rb0 3.829497 1_545
Br0 Rb0 3.829497 1_554
Br0 Rb1 3.829497 1_655
Br1 Rb1 3.829497 1_555
Br1 Rb0 3.829497 1_545
Br1 Rb0 3.829497 1_455
Br1 Rb1 3.829497 1_556
Br2 Rb0 3.829497 1_455
Br2 Rb1 3.829497 1_556
Br2 Rb1 3.829497 1_565
Br2 Rb0 3.829497 1_555
Br3 Rb1 3.829497 1_555
Br3 Rb0 3.829497 1_455
Br3 Rb0 3.829497 1_554
Br3 Rb1 3.829497 1_565
Br4 Rb0 3.829497 1_545
Br4 Rb1 3.829497 1_556
Br4 Rb1 3.829497 1_655
Br4 Rb0 3.829497 1_555
Br5 Rb0 3.829497 1_554
Br5 Rb1 3.829497 1_565
Br5 Rb1 3.829497 1_655
Br5 Rb0 3.829497 1_555
