# generated using pymatgen
data_Ba2SrTa6(Bi2O9)3
_symmetry_space_group_name_H-M   'P 1'
_cell_length_a   3.88880100
_cell_length_b   11.86929500
_cell_length_c   14.26906941
_cell_angle_alpha   114.57662927
_cell_angle_beta   82.16812256
_cell_angle_gamma   90.00000000
_symmetry_Int_Tables_number   1
_chemical_formula_structural   Ba2SrTa6(Bi2O9)3
_chemical_formula_sum   'Ba2 Sr1 Ta6 Bi6 O27'
_cell_volume   592.19258785
_cell_formula_units_Z   1
loop_
 _symmetry_equiv_pos_site_id
 _symmetry_equiv_pos_as_xyz
  1  'x, y, z'
loop_
 _atom_site_type_symbol
 _atom_site_label
 _atom_site_symmetry_multiplicity
 _atom_site_fract_x
 _atom_site_fract_y
 _atom_site_fract_z
 _atom_site_occupancy
  Ba  Ba0  1  0.00000000  0.33256000  0.00000000  1
  Ba  Ba1  1  0.00000000  0.66744000  0.00000000  1
  Sr  Sr0  1  0.00000000  0.00000000  0.00000000  1
  Ta  Ta0  1  0.41200000  0.25306000  0.17600100  1
  Ta  Ta1  1  0.41072200  0.58927800  0.17855600  1
  Ta  Ta2  1  0.41200000  0.92294100  0.17600100  1
  Ta  Ta3  1  0.58927800  0.41072200  0.82144400  1
  Ta  Ta4  1  0.58800000  0.74694000  0.82399900  1
  Ta  Ta5  1  0.58800000  0.07705900  0.82399900  1
  Bi  Bi0  1  0.20153800  0.46507500  0.59692400  1
  Bi  Bi1  1  0.20097800  0.79902200  0.59804400  1
  Bi  Bi2  1  0.20153800  0.13184900  0.59692400  1
  Bi  Bi3  1  0.79902200  0.20097800  0.40195600  1
  Bi  Bi4  1  0.79846200  0.53492500  0.40307600  1
  Bi  Bi5  1  0.79846200  0.86815100  0.40307600  1
  O  O0  1  0.92618100  0.23466600  0.14763800  1
  O  O1  1  0.92444400  0.57555600  0.15111100  1
  O  O2  1  0.92618100  0.91297200  0.14763800  1
  O  O3  1  0.41807600  0.08192400  0.16384800  1
  O  O4  1  0.41693900  0.41575400  0.16612200  1
  O  O5  1  0.41693900  0.75036900  0.16612200  1
  O  O6  1  0.07555600  0.42444400  0.84888900  1
  O  O7  1  0.07381900  0.76533400  0.85236200  1
  O  O8  1  0.07381900  0.08702800  0.85236200  1
  O  O9  1  0.58306100  0.58424600  0.83387800  1
  O  O10  1  0.58192400  0.91807600  0.83615200  1
  O  O11  1  0.58306100  0.24963100  0.83387800  1
  O  O12  1  0.75017300  0.41675100  0.49965500  1
  O  O13  1  0.75030000  0.74970000  0.49939900  1
  O  O14  1  0.75017300  0.08290400  0.49965500  1
  O  O15  1  0.24970000  0.25030000  0.50060100  1
  O  O16  1  0.24982700  0.58324900  0.50034500  1
  O  O17  1  0.24982700  0.91709600  0.50034500  1
  O  O18  1  0.33786400  0.32677200  0.32427100  1
  O  O19  1  0.33699900  0.66300100  0.32600300  1
  O  O20  1  0.33786400  0.99750000  0.32427100  1
  O  O21  1  0.66300100  0.33699900  0.67399700  1
  O  O22  1  0.66213600  0.67322800  0.67572900  1
  O  O23  1  0.66213600  0.00250000  0.67572900  1
  O  O24  1  0.50000000  0.16199600  0.00000000  1
  O  O25  1  0.50000000  0.50000000  0.00000000  1
  O  O26  1  0.50000000  0.83800400  0.00000000  1
loop_
_geom_bond_atom_site_label_1
_geom_bond_atom_site_label_2
_geom_bond_distance
_geom_bond_site_symmetry_2
Ba0 O6 2.776402 1_554
Ba0 O1 2.776410 1_455
Ba0 O25 2.780365 1_455
Ba0 O25 2.780365 1_555
Ba0 O0 2.782410 1_455
Ba0 O8 2.782410 1_554
Ba0 O24 2.806989 1_455
Ba0 O24 2.806989 1_555
Ba0 O11 2.885002 1_454
Ba0 O4 2.885002 1_555
Ba0 O11 2.885002 1_554
Ba0 O4 2.885002 1_455
Ba1 O1 2.776402 1_455
Ba1 O6 2.776410 1_554
Ba1 O25 2.780365 1_555
Ba1 O25 2.780365 1_455
Ba1 O7 2.782410 1_554
Ba1 O2 2.782410 1_455
Ba1 O26 2.806989 1_555
Ba1 O26 2.806989 1_455
Ba1 O5 2.885002 1_555
Ba1 O9 2.885002 1_454
Ba1 O5 2.885002 1_455
Ba1 O9 2.885002 1_554
Bi0 O12 2.310428 1_455
Bi0 O12 2.310431 1_555
Bi0 O15 2.331968 1_555
Bi0 O16 2.332201 1_555
Bi1 O13 2.320008 1_555
Bi1 O13 2.320011 1_455
Bi1 O17 2.344479 1_555
Bi1 O16 2.344480 1_555
Bi2 O14 2.310428 1_455
Bi2 O14 2.310431 1_555
Bi2 O15 2.331957 1_555
Bi2 O17 2.332201 1_545
Bi3 O15 2.320008 1_555
Bi3 O15 2.320011 1_655
Bi3 O14 2.344479 1_555
Bi3 O12 2.344480 1_555
Bi4 O16 2.310428 1_655
Bi4 O16 2.310431 1_555
Bi4 O13 2.331968 1_555
Bi4 O12 2.332201 1_555
Bi5 O17 2.310428 1_655
Bi5 O17 2.310431 1_555
Bi5 O13 2.331957 1_555
Bi5 O14 2.332201 1_565
O0 Ta0 1.978789 1_555
O0 Ta0 1.978792 1_655
O0 Sr0 2.689372 1_655
O1 Ta1 1.976024 1_555
O1 Ta1 1.976028 1_655
O2 Ta2 1.978789 1_555
O2 Ta2 1.978792 1_655
O2 Sr0 2.689372 1_665
O3 Ta2 1.965335 1_545
O3 Ta0 1.965335 1_555
O3 Sr0 2.863516 1_555
O3 Sr0 2.863516 1_655
O4 Ta1 1.992213 1_555
O4 Ta0 1.993724 1_555
O5 Ta1 1.992225 1_555
O5 Ta2 1.993713 1_555
O6 Ta3 1.976024 1_555
O6 Ta3 1.976028 1_455
O7 Ta4 1.978789 1_555
O7 Ta4 1.978792 1_455
O7 Sr0 2.689372 1_566
O8 Ta5 1.978789 1_555
O8 Ta5 1.978792 1_455
O8 Sr0 2.689372 1_556
O9 Ta3 1.992213 1_555
O9 Ta4 1.993724 1_555
O10 Ta5 1.965335 1_565
O10 Ta4 1.965335 1_555
O10 Sr0 2.863516 1_666
O10 Sr0 2.863516 1_566
O11 Ta3 1.992225 1_555
O11 Ta5 1.993713 1_555
O18 Ta0 1.902292 1_555
O19 Ta1 1.891726 1_555
O20 Ta2 1.902292 1_555
O21 Ta3 1.891726 1_555
O22 Ta4 1.902292 1_555
O23 Ta5 1.902292 1_555
O24 Ta5 2.258363 1_554
O24 Ta0 2.258363 1_555
O24 Sr0 2.734551 1_555
O24 Sr0 2.734551 1_655
O25 Ta1 2.290851 1_555
O25 Ta3 2.290851 1_554
O26 Ta2 2.258363 1_555
O26 Ta4 2.258363 1_554
O26 Sr0 2.734551 1_565
O26 Sr0 2.734551 1_665
