# generated using pymatgen
data_InMo12PbS16
_symmetry_space_group_name_H-M   'P 1'
_cell_length_a   9.37207046
_cell_length_b   9.37207046
_cell_length_c   9.37207017
_cell_angle_alpha   59.25270260
_cell_angle_beta   59.25270260
_cell_angle_gamma   59.25269787
_symmetry_Int_Tables_number   1
_chemical_formula_structural   InMo12PbS16
_chemical_formula_sum   'In1 Mo12 Pb1 S16'
_cell_volume   572.18428340
_cell_formula_units_Z   1
loop_
 _symmetry_equiv_pos_site_id
 _symmetry_equiv_pos_as_xyz
  1  'x, y, z'
loop_
 _atom_site_type_symbol
 _atom_site_label
 _atom_site_symmetry_multiplicity
 _atom_site_fract_x
 _atom_site_fract_y
 _atom_site_fract_z
 _atom_site_occupancy
  In  In0  1  0.50000000  0.50000000  0.50000000  1
  Mo  Mo0  1  0.18586800  0.37631100  0.03830200  1
  Mo  Mo1  1  0.68497800  0.87590600  0.53977200  1
  Mo  Mo2  1  0.37631100  0.03830200  0.18586800  1
  Mo  Mo3  1  0.87590600  0.53977200  0.68497800  1
  Mo  Mo4  1  0.03830200  0.18586800  0.37631100  1
  Mo  Mo5  1  0.53977200  0.68497800  0.87590600  1
  Mo  Mo6  1  0.31502200  0.12409400  0.46022800  1
  Mo  Mo7  1  0.81413200  0.62368900  0.96169800  1
  Mo  Mo8  1  0.12409400  0.46022800  0.31502200  1
  Mo  Mo9  1  0.62368900  0.96169800  0.81413200  1
  Mo  Mo10  1  0.46022800  0.31502200  0.12409400  1
  Mo  Mo11  1  0.96169800  0.81413200  0.62368900  1
  Pb  Pb0  1  0.00000000  0.00000000  0.00000000  1
  S  S0  1  0.12168500  0.12168500  0.12168500  1
  S  S1  1  0.62120600  0.62120600  0.62120600  1
  S  S2  1  0.37879400  0.37879400  0.37879400  1
  S  S3  1  0.87831500  0.87831500  0.87831500  1
  S  S4  1  0.24168900  0.88564900  0.49712300  1
  S  S5  1  0.74142300  0.38484900  0.99820600  1
  S  S6  1  0.88564900  0.49712300  0.24168900  1
  S  S7  1  0.38484900  0.99820600  0.74142300  1
  S  S8  1  0.49712300  0.24168900  0.88564900  1
  S  S9  1  0.99820600  0.74142300  0.38484900  1
  S  S10  1  0.25857700  0.61515100  0.00179400  1
  S  S11  1  0.75831100  0.11435100  0.50287700  1
  S  S12  1  0.61515100  0.00179400  0.25857700  1
  S  S13  1  0.11435100  0.50287700  0.75831100  1
  S  S14  1  0.00179400  0.25857700  0.61515100  1
  S  S15  1  0.50287700  0.75831100  0.11435100  1
loop_
_geom_bond_atom_site_label_1
_geom_bond_atom_site_label_2
_geom_bond_distance
_geom_bond_site_symmetry_2
In0 S2 2.798112 1_555
In0 S1 2.798112 1_555
In0 S4 3.153588 1_555
In0 S11 3.153588 1_555
In0 S15 3.153589 1_555
In0 S8 3.153589 1_555
In0 S13 3.153589 1_555
In0 S6 3.153589 1_555
Mo0 S0 2.397410 1_555
Mo0 S8 2.441969 1_554
Mo0 S10 2.475905 1_555
Mo0 S6 2.509488 1_455
Mo0 S13 2.558303 1_554
Mo1 S1 2.401530 1_555
Mo1 S9 2.458482 1_555
Mo1 S11 2.474519 1_565
Mo1 S7 2.506036 1_555
Mo1 S12 2.561289 1_565
Mo2 S0 2.397410 1_555
Mo2 S4 2.441969 1_545
Mo2 S12 2.475905 1_555
Mo2 S8 2.509488 1_554
Mo2 S15 2.558303 1_545
Mo3 S1 2.401530 1_555
Mo3 S5 2.458482 1_555
Mo3 S13 2.474519 1_655
Mo3 S9 2.506036 1_555
Mo3 S14 2.561289 1_655
Mo4 S0 2.397410 1_555
Mo4 S6 2.441969 1_455
Mo4 S14 2.475905 1_555
Mo4 S4 2.509488 1_545
Mo4 S11 2.558303 1_455
Mo5 S1 2.401530 1_555
Mo5 S7 2.458482 1_555
Mo5 S15 2.474519 1_556
Mo5 S5 2.506036 1_555
Mo5 S10 2.561289 1_556
Mo6 S2 2.401530 1_555
Mo6 S14 2.458482 1_555
Mo6 S4 2.474519 1_545
Mo6 S12 2.506036 1_555
Mo6 S7 2.561289 1_545
Mo7 S3 2.397410 1_555
Mo7 S15 2.441969 1_556
Mo7 S5 2.475905 1_555
Mo7 S13 2.509488 1_655
Mo7 S6 2.558303 1_556
Mo8 S2 2.401530 1_555
Mo8 S10 2.458482 1_555
Mo8 S6 2.474519 1_455
Mo8 S14 2.506036 1_555
Mo8 S9 2.561289 1_455
Mo9 S3 2.397410 1_555
Mo9 S11 2.441969 1_565
Mo9 S7 2.475905 1_555
Mo9 S15 2.509488 1_556
Mo9 S8 2.558303 1_565
Mo10 S2 2.401530 1_555
Mo10 S12 2.458482 1_555
Mo10 S8 2.474519 1_554
Mo10 S10 2.506036 1_555
Mo10 S5 2.561289 1_554
Mo11 S3 2.397410 1_555
Mo11 S13 2.441969 1_655
Mo11 S9 2.475905 1_555
Mo11 S11 2.509488 1_565
Mo11 S4 2.558303 1_655
Pb0 S0 2.809170 1_555
Pb0 S3 2.809170 1_444
Pb0 S5 3.150323 1_454
Pb0 S10 3.150323 1_545
Pb0 S9 3.150323 1_445
Pb0 S14 3.150323 1_554
Pb0 S12 3.150323 1_455
Pb0 S7 3.150323 1_544
