# generated using pymatgen
data_Ba2GdCu2(HgO4)2
_symmetry_space_group_name_H-M   'P 1'
_cell_length_a   14.98975920
_cell_length_b   14.98975920
_cell_length_c   14.98975920
_cell_angle_alpha   165.01240006
_cell_angle_beta   165.01240006
_cell_angle_gamma   21.25699156
_symmetry_Int_Tables_number   1
_chemical_formula_structural   Ba2GdCu2(HgO4)2
_chemical_formula_sum   'Ba2 Gd1 Cu2 Hg2 O8'
_cell_volume   225.22134290
_cell_formula_units_Z   1
loop_
 _symmetry_equiv_pos_site_id
 _symmetry_equiv_pos_as_xyz
  1  'x, y, z'
loop_
 _atom_site_type_symbol
 _atom_site_label
 _atom_site_symmetry_multiplicity
 _atom_site_fract_x
 _atom_site_fract_y
 _atom_site_fract_z
 _atom_site_occupancy
  Ba  Ba0  1  0.12703200  0.12703200  0.00000000  1
  Ba  Ba1  1  0.87296800  0.87296800  0.00000000  1
  Gd  Gd0  1  0.00000000  0.00000000  0.00000000  1
  Cu  Cu0  1  0.44351500  0.44351500  0.00000000  1
  Cu  Cu1  1  0.55648500  0.55648500  0.00000000  1
  Hg  Hg0  1  0.28837400  0.28837400  0.00000000  1
  Hg  Hg1  1  0.71162600  0.71162600  0.00000000  1
  O  O0  1  0.54995100  0.04995100  0.50000000  1
  O  O1  1  0.45004900  0.95004900  0.50000000  1
  O  O2  1  0.04995100  0.54995100  0.50000000  1
  O  O3  1  0.95004900  0.45004900  0.50000000  1
  O  O4  1  0.21788800  0.21788800  0.00000000  1
  O  O5  1  0.78211200  0.78211200  0.00000000  1
  O  O6  1  0.35998400  0.35998400  0.00000000  1
  O  O7  1  0.64001600  0.64001600  0.00000000  1
loop_
_geom_bond_atom_site_label_1
_geom_bond_atom_site_label_2
_geom_bond_distance
_geom_bond_site_symmetry_2
Ba0 O4 2.677089 1_555
Ba0 O7 2.791059 1_444
Ba0 O7 2.791059 1_545
Ba0 O7 2.791059 1_455
Ba0 O7 2.791059 1_556
Ba0 O2 2.996698 1_544
Ba0 O0 2.996698 1_454
Ba0 O0 2.996698 1_555
Ba0 O2 2.996698 1_555
Ba1 O5 2.677089 1_555
Ba1 O6 2.791059 1_554
Ba1 O6 2.791059 1_565
Ba1 O6 2.791059 1_655
Ba1 O6 2.791059 1_666
Ba1 O1 2.996698 1_554
Ba1 O3 2.996698 1_554
Ba1 O3 2.996698 1_565
Ba1 O1 2.996698 1_655
Gd0 O0 2.447052 1_454
Gd0 O2 2.447052 1_544
Gd0 O2 2.447052 1_555
Gd0 O0 2.447052 1_555
Gd0 O3 2.447052 1_444
Gd0 O1 2.447052 1_444
Gd0 O1 2.447052 1_545
Gd0 O3 2.447052 1_455
Cu0 O3 1.964405 1_555
Cu0 O1 1.964405 1_555
Cu0 O1 1.964405 1_544
Cu0 O3 1.964405 1_454
Cu0 O6 2.461256 1_555
Cu1 O0 1.964405 1_565
Cu1 O2 1.964405 1_655
Cu1 O2 1.964405 1_554
Cu1 O0 1.964405 1_554
Cu1 O7 2.461256 1_555
Hg0 O4 2.076883 1_555
Hg0 O6 2.110002 1_555
Hg1 O5 2.076883 1_555
Hg1 O7 2.110002 1_555
