# generated using pymatgen
data_UBi4WO12
_symmetry_space_group_name_H-M   'P 1'
_cell_length_a   3.98804500
_cell_length_b   3.98804500
_cell_length_c   16.54967900
_cell_angle_alpha   90.00000000
_cell_angle_beta   90.00000000
_cell_angle_gamma   90.00000000
_symmetry_Int_Tables_number   1
_chemical_formula_structural   UBi4WO12
_chemical_formula_sum   'U1 Bi4 W1 O12'
_cell_volume   263.21441801
_cell_formula_units_Z   1
loop_
 _symmetry_equiv_pos_site_id
 _symmetry_equiv_pos_as_xyz
  1  'x, y, z'
loop_
 _atom_site_type_symbol
 _atom_site_label
 _atom_site_symmetry_multiplicity
 _atom_site_fract_x
 _atom_site_fract_y
 _atom_site_fract_z
 _atom_site_occupancy
  U  U0  1  0.50000000  0.50000000  0.50000000  1
  Bi  Bi0  1  0.50000000  0.50000000  0.17332600  1
  Bi  Bi1  1  0.00000000  0.00000000  0.68025900  1
  Bi  Bi2  1  0.00000000  0.00000000  0.31974100  1
  Bi  Bi3  1  0.50000000  0.50000000  0.82667400  1
  W  W0  1  0.00000000  0.00000000  0.00000000  1
  O  O0  1  0.00000000  0.50000000  0.24699600  1
  O  O1  1  0.50000000  0.00000000  0.75300400  1
  O  O2  1  0.50000000  0.00000000  0.24699600  1
  O  O3  1  0.00000000  0.50000000  0.75300400  1
  O  O4  1  0.00000000  0.50000000  0.50000000  1
  O  O5  1  0.50000000  0.00000000  0.00000000  1
  O  O6  1  0.00000000  0.50000000  0.00000000  1
  O  O7  1  0.50000000  0.00000000  0.50000000  1
  O  O8  1  0.50000000  0.50000000  0.37623200  1
  O  O9  1  0.00000000  0.00000000  0.88439900  1
  O  O10  1  0.00000000  0.00000000  0.11560100  1
  O  O11  1  0.50000000  0.50000000  0.62376800  1
loop_
_geom_bond_atom_site_label_1
_geom_bond_atom_site_label_2
_geom_bond_distance
_geom_bond_site_symmetry_2
Bi0 O0 2.337223 1_555
Bi0 O2 2.337223 1_555
Bi0 O0 2.337223 1_655
Bi0 O2 2.337223 1_565
Bi1 O3 2.329274 1_545
Bi1 O1 2.329274 1_555
Bi1 O1 2.329274 1_455
Bi1 O3 2.329274 1_555
Bi2 O0 2.329274 1_545
Bi2 O2 2.329274 1_555
Bi2 O0 2.329274 1_555
Bi2 O2 2.329274 1_455
Bi3 O3 2.337223 1_555
Bi3 O3 2.337223 1_655
Bi3 O1 2.337223 1_555
Bi3 O1 2.337223 1_565
O4 U0 1.994023 1_555
O4 U0 1.994023 1_455
O5 W0 1.994023 1_555
O5 W0 1.994023 1_655
O6 W0 1.994023 1_555
O6 W0 1.994023 1_565
O7 U0 1.994023 1_555
O7 U0 1.994023 1_545
O8 U0 2.048321 1_555
O9 W0 1.913159 1_556
O10 W0 1.913159 1_555
O11 U0 2.048321 1_555
