# generated using pymatgen
data_LiLa2Co2Sb2(PbO6)2
_symmetry_space_group_name_H-M   'P 1'
_cell_length_a   5.87842288
_cell_length_b   5.82467060
_cell_length_c   8.36683437
_cell_angle_alpha   89.49468978
_cell_angle_beta   87.31265039
_cell_angle_gamma   91.43154363
_symmetry_Int_Tables_number   1
_chemical_formula_structural   LiLa2Co2Sb2(PbO6)2
_chemical_formula_sum   'Li1 La2 Co2 Sb2 Pb2 O12'
_cell_volume   286.06069081
_cell_formula_units_Z   1
loop_
 _symmetry_equiv_pos_site_id
 _symmetry_equiv_pos_as_xyz
  1  'x, y, z'
loop_
 _atom_site_type_symbol
 _atom_site_label
 _atom_site_symmetry_multiplicity
 _atom_site_fract_x
 _atom_site_fract_y
 _atom_site_fract_z
 _atom_site_occupancy
  Li  Li0  1  0.14618800  0.50804800  0.55055200  1
  La  La0  1  0.55026000  0.44570600  0.77427600  1
  La  La1  1  0.04014000  0.04297800  0.26546200  1
  Co  Co0  1  0.80337600  0.53329500  0.41390100  1
  Co  Co1  1  0.52782800  0.99279500  0.00501900  1
  Sb  Sb0  1  0.02493500  0.50307700  0.99694400  1
  Sb  Sb1  1  0.51718700  0.00590000  0.50383300  1
  Pb  Pb0  1  0.44520000  0.53892100  0.23966700  1
  Pb  Pb1  1  0.01718000  0.97402900  0.74808900  1
  O  O0  1  0.63259600  0.97643800  0.26895100  1
  O  O1  1  0.14227200  0.53098000  0.77300900  1
  O  O2  1  0.44045900  0.04200000  0.74474500  1
  O  O3  1  0.98370900  0.44868200  0.23343500  1
  O  O4  1  0.24472800  0.80417300  0.45535900  1
  O  O5  1  0.74968300  0.69957300  0.95968400  1
  O  O6  1  0.78804500  0.21879700  0.53915200  1
  O  O7  1  0.29462000  0.28327400  0.03103700  1
  O  O8  1  0.31024400  0.26270000  0.45568400  1
  O  O9  1  0.81228100  0.23019400  0.95249500  1
  O  O10  1  0.69355800  0.73087300  0.57541200  1
  O  O11  1  0.21646000  0.79006800  0.05495900  1
loop_
_geom_bond_atom_site_label_1
_geom_bond_atom_site_label_2
_geom_bond_distance
_geom_bond_site_symmetry_2
Li0 O1 1.866329 1_555
Li0 O8 1.902475 1_555
Li0 O4 1.956405 1_555
La0 O2 2.440567 1_555
La0 O10 2.446807 1_555
La0 O1 2.461828 1_555
La0 O5 2.468125 1_555
La0 O9 2.539804 1_555
La0 O7 2.712728 1_556
La0 O6 2.729655 1_555
La1 O3 2.408814 1_455
La1 O0 2.416065 1_445
La1 O4 2.475750 1_545
La1 O11 2.509427 1_545
La1 O8 2.619806 1_555
La1 O7 2.759663 1_555
La1 O6 2.878811 1_455
Co0 O3 1.880338 1_555
Co0 O10 1.884145 1_555
Co0 O6 2.100245 1_555
Co0 Pb0 2.617215 1_555
Co1 O9 2.169346 1_564
Co1 O11 2.175018 1_555
Co1 O5 2.199552 1_554
Co1 O7 2.209937 1_565
Co1 O2 2.278022 1_564
Co1 O0 2.321983 1_555
O0 Sb1 2.058770 1_565
O0 Pb0 2.768375 1_555
O1 Sb0 1.969898 1_555
O1 Pb1 2.709885 1_555
O2 Sb1 2.058529 1_555
O2 Pb1 2.508543 1_545
O3 Sb0 2.003605 1_654
O3 Pb0 2.753359 1_655
O4 Sb1 2.021288 1_565
O4 Pb0 2.640706 1_555
O5 Sb0 2.039299 1_655
O5 Pb1 2.779547 1_655
O6 Sb1 2.027844 1_555
O6 Pb1 2.678744 1_645
O7 Sb0 2.090719 1_554
O7 Pb0 2.484498 1_555
O8 Sb1 2.001436 1_555
O8 Pb0 2.497001 1_555
O9 Sb0 2.045016 1_655
O9 Pb1 2.558047 1_645
O10 Sb1 2.030786 1_565
O10 Pb1 2.805623 1_655
O11 Sb0 2.066168 1_554
O11 Pb0 2.567012 1_555
