# generated using pymatgen
data_BaZnFe6O11
_symmetry_space_group_name_H-M   'P 1'
_cell_length_a   5.89571199
_cell_length_b   5.89571199
_cell_length_c   14.95489708
_cell_angle_alpha   78.93677840
_cell_angle_beta   78.93677840
_cell_angle_gamma   59.97641370
_symmetry_Int_Tables_number   1
_chemical_formula_structural   BaZnFe6O11
_chemical_formula_sum   'Ba2 Zn2 Fe12 O22'
_cell_volume   438.88844166
_cell_formula_units_Z   2
loop_
 _symmetry_equiv_pos_site_id
 _symmetry_equiv_pos_as_xyz
  1  'x, y, z'
loop_
 _atom_site_type_symbol
 _atom_site_label
 _atom_site_symmetry_multiplicity
 _atom_site_fract_x
 _atom_site_fract_y
 _atom_site_fract_z
 _atom_site_occupancy
  Ba  Ba0  1  0.29735900  0.29735900  0.10486000  1
  Ba  Ba1  1  0.69946300  0.69946300  0.89557800  1
  Zn  Zn0  1  0.84812100  0.84812100  0.45644100  1
  Zn  Zn1  1  0.15522500  0.15522500  0.54218800  1
  Fe  Fe0  1  0.93189600  0.93189600  0.20115700  1
  Fe  Fe1  1  0.06471900  0.06471900  0.80080600  1
  Fe  Fe2  1  0.99925200  0.99925200  0.00078900  1
  Fe  Fe3  1  0.50655900  0.50655900  0.49901800  1
  Fe  Fe4  1  0.38777900  0.89225200  0.33134800  1
  Fe  Fe5  1  0.89225200  0.38777900  0.33134800  1
  Fe  Fe6  1  0.38624900  0.38624900  0.33066900  1
  Fe  Fe7  1  0.61233200  0.10611100  0.66826900  1
  Fe  Fe8  1  0.10611100  0.61233200  0.66826900  1
  Fe  Fe9  1  0.61235100  0.61235100  0.66849000  1
  Fe  Fe10  1  0.62325900  0.62325900  0.13200800  1
  Fe  Fe11  1  0.37715500  0.37715500  0.86912700  1
  O  O0  1  0.20411800  0.20411800  0.40110000  1
  O  O1  1  0.79923400  0.79923400  0.59591700  1
  O  O2  1  0.68455800  0.68455800  0.40546600  1
  O  O3  1  0.69182900  0.22705400  0.41212900  1
  O  O4  1  0.22705400  0.69182900  0.41212900  1
  O  O5  1  0.32100300  0.32100300  0.59130800  1
  O  O6  1  0.32983200  0.77890800  0.58743800  1
  O  O7  1  0.77890800  0.32983200  0.58743800  1
  O  O8  1  0.08747200  0.08747200  0.25910000  1
  O  O9  1  0.07892100  0.56730800  0.25486300  1
  O  O10  1  0.56730800  0.07892100  0.25486300  1
  O  O11  1  0.90993700  0.90993700  0.74103800  1
  O  O12  1  0.90209500  0.42680100  0.74618900  1
  O  O13  1  0.42680100  0.90209500  0.74618900  1
  O  O14  1  0.57374100  0.57374100  0.26297800  1
  O  O15  1  0.42282800  0.42282800  0.73911200  1
  O  O16  1  0.81301700  0.81301700  0.08762600  1
  O  O17  1  0.81301500  0.28407900  0.08927400  1
  O  O18  1  0.28407900  0.81301500  0.08927400  1
  O  O19  1  0.18607300  0.18607300  0.91138500  1
  O  O20  1  0.18280800  0.71528600  0.91239400  1
  O  O21  1  0.71528600  0.18280800  0.91239400  1
loop_
_geom_bond_atom_site_label_1
_geom_bond_atom_site_label_2
_geom_bond_distance
_geom_bond_site_symmetry_2
Ba0 O9 2.726572 1_555
Ba0 O10 2.726572 1_555
Ba0 O8 2.779305 1_555
Ba0 O17 2.949716 1_455
Ba0 O18 2.949716 1_545
Ba0 O16 2.959290 1_545
Ba0 O16 2.959290 1_455
Ba0 O18 2.966458 1_555
Ba0 O17 2.966458 1_555
Ba0 O19 3.334763 1_554
Ba0 O20 3.342291 1_554
Ba0 O21 3.342291 1_554
Ba1 O12 2.726674 1_555
Ba1 O13 2.726674 1_555
Ba1 O11 2.785783 1_555
Ba1 O21 2.956787 1_565
Ba1 O20 2.956787 1_655
Ba1 O19 2.957012 1_655
Ba1 O19 2.957012 1_565
Ba1 O20 2.963278 1_555
Ba1 O21 2.963278 1_555
Ba1 O16 3.327090 1_556
Ba1 O17 3.349271 1_556
Ba1 O18 3.349271 1_556
Fe0 O10 1.938270 1_565
Fe0 O9 1.938270 1_655
Fe0 O8 1.971164 1_665
Fe0 O18 2.294024 1_655
Fe0 O17 2.294024 1_565
Fe0 O16 2.295670 1_555
Fe1 O12 1.930456 1_455
Fe1 O13 1.930456 1_545
Fe1 O11 1.980867 1_445
Fe1 O19 2.275726 1_555
Fe1 O20 2.281432 1_545
Fe1 O21 2.281432 1_455
Fe2 O20 2.051537 1_654
Fe2 O21 2.051537 1_564
Fe2 O16 2.051728 1_555
Fe2 O18 2.055881 1_655
Fe2 O17 2.055881 1_565
Fe2 O19 2.073082 1_664
Fe3 O6 2.006056 1_555
Fe3 O7 2.006056 1_555
Fe3 O3 2.018146 1_555
Fe3 O4 2.018146 1_555
Fe3 O2 2.033498 1_555
Fe3 O5 2.082600 1_555
Fe4 O8 1.960744 1_565
Fe4 O10 1.964129 1_565
Fe4 O2 1.966954 1_555
Fe4 O4 1.971532 1_555
Fe4 O0 1.987856 1_565
Fe4 O14 2.005032 1_555
Fe5 O8 1.960744 1_655
Fe5 O9 1.964129 1_655
Fe5 O2 1.966954 1_555
Fe5 O3 1.971532 1_555
Fe5 O0 1.987856 1_655
Fe5 O14 2.005032 1_555
Fe6 O0 1.923849 1_555
Fe6 O14 1.957665 1_555
Fe6 O10 2.023882 1_555
Fe6 O9 2.023882 1_555
Fe6 O3 2.078979 1_555
Fe6 O4 2.078979 1_555
Fe7 O11 1.954369 1_545
Fe7 O5 1.975184 1_555
Fe7 O1 1.989235 1_545
Fe7 O15 2.018576 1_555
Fe7 O13 2.071392 1_545
Fe7 O7 2.096244 1_555
Fe8 O11 1.954369 1_455
Fe8 O5 1.975184 1_555
Fe8 O1 1.989235 1_455
Fe8 O15 2.018576 1_555
Fe8 O12 2.071392 1_455
Fe8 O6 2.096244 1_555
Fe9 O12 1.966955 1_555
Fe9 O13 1.966955 1_555
Fe9 O6 1.972096 1_555
Fe9 O7 1.972096 1_555
Fe9 O1 1.975566 1_555
Fe9 O15 1.988991 1_555
Fe10 O16 1.904293 1_555
Fe10 O18 1.906873 1_555
Fe10 O17 1.906873 1_555
Fe10 O14 1.911316 1_555
Fe11 O15 1.896377 1_555
Fe11 O21 1.905355 1_555
Fe11 O20 1.905355 1_555
Fe11 O19 1.913441 1_555
O0 Zn1 2.057768 1_555
O1 Zn0 2.034352 1_555
O2 Zn0 1.983886 1_555
O3 Zn0 1.971150 1_545
O4 Zn0 1.971150 1_455
O5 Zn1 1.989270 1_555
O6 Zn1 1.961037 1_565
O7 Zn1 1.961037 1_655
