# generated using pymatgen
data_Sn11(CN5)2
_symmetry_space_group_name_H-M   'P 1'
_cell_length_a   16.49534400
_cell_length_b   16.49534400
_cell_length_c   3.29558300
_cell_angle_alpha   90.00000000
_cell_angle_beta   90.00000000
_cell_angle_gamma   90.00000000
_symmetry_Int_Tables_number   1
_chemical_formula_structural   Sn11(CN5)2
_chemical_formula_sum   'Sn22 C4 N20'
_cell_volume   896.71618346
_cell_formula_units_Z   2
loop_
 _symmetry_equiv_pos_site_id
 _symmetry_equiv_pos_as_xyz
  1  'x, y, z'
loop_
 _atom_site_type_symbol
 _atom_site_label
 _atom_site_symmetry_multiplicity
 _atom_site_fract_x
 _atom_site_fract_y
 _atom_site_fract_z
 _atom_site_occupancy
  Sn  Sn0  1  0.50000000  0.50000000  0.50000000  1
  Sn  Sn1  1  0.00000000  0.00000000  0.00000000  1
  Sn  Sn2  1  0.03944500  0.80206500  0.50000000  1
  Sn  Sn3  1  0.96055500  0.19793500  0.50000000  1
  Sn  Sn4  1  0.46055500  0.30206500  0.00000000  1
  Sn  Sn5  1  0.53944500  0.69793500  0.00000000  1
  Sn  Sn6  1  0.80206500  0.03944500  0.50000000  1
  Sn  Sn7  1  0.19793500  0.96055500  0.50000000  1
  Sn  Sn8  1  0.30206500  0.46055500  0.00000000  1
  Sn  Sn9  1  0.69793500  0.53944500  0.00000000  1
  Sn  Sn10  1  0.72504600  0.72504600  0.50000000  1
  Sn  Sn11  1  0.27495400  0.27495400  0.50000000  1
  Sn  Sn12  1  0.77495400  0.22504600  0.00000000  1
  Sn  Sn13  1  0.22504600  0.77495400  0.00000000  1
  Sn  Sn14  1  0.39531700  0.88607600  0.50000000  1
  Sn  Sn15  1  0.60468300  0.11392400  0.50000000  1
  Sn  Sn16  1  0.10468300  0.38607600  0.00000000  1
  Sn  Sn17  1  0.89531700  0.61392400  0.00000000  1
  Sn  Sn18  1  0.88607600  0.39531700  0.50000000  1
  Sn  Sn19  1  0.11392400  0.60468300  0.50000000  1
  Sn  Sn20  1  0.38607600  0.10468300  0.00000000  1
  Sn  Sn21  1  0.61392400  0.89531700  0.00000000  1
  C  C0  1  0.34296000  0.65704000  0.50000000  1
  C  C1  1  0.65704000  0.34296000  0.50000000  1
  C  C2  1  0.15704000  0.15704000  0.00000000  1
  C  C3  1  0.84296000  0.84296000  0.00000000  1
  N  N0  1  0.16451500  0.83548500  0.50000000  1
  N  N1  1  0.83548500  0.16451500  0.50000000  1
  N  N2  1  0.33548500  0.33548500  0.00000000  1
  N  N3  1  0.66451500  0.66451500  0.00000000  1
  N  N4  1  0.37514700  0.18724000  0.50000000  1
  N  N5  1  0.62485300  0.81276000  0.50000000  1
  N  N6  1  0.12485300  0.68724000  0.00000000  1
  N  N7  1  0.87514700  0.31276000  0.00000000  1
  N  N8  1  0.18724000  0.37514700  0.50000000  1
  N  N9  1  0.81276000  0.62485300  0.50000000  1
  N  N10  1  0.68724000  0.12485300  0.00000000  1
  N  N11  1  0.31276000  0.87514700  0.00000000  1
  N  N12  1  0.28850800  0.71149200  0.50000000  1
  N  N13  1  0.71149200  0.28850800  0.50000000  1
  N  N14  1  0.21149200  0.21149200  0.00000000  1
  N  N15  1  0.78850800  0.78850800  0.00000000  1
  N  N16  1  0.39439400  0.60560600  0.50000000  1
  N  N17  1  0.60560600  0.39439400  0.50000000  1
  N  N18  1  0.10560600  0.10560600  0.00000000  1
  N  N19  1  0.89439400  0.89439400  0.00000000  1
loop_
_geom_bond_atom_site_label_1
_geom_bond_atom_site_label_2
_geom_bond_distance
_geom_bond_site_symmetry_2
C0 N16 1.199849 1_555
C0 N12 1.270253 1_555
C1 N17 1.199849 1_555
C1 N13 1.270253 1_555
C2 N18 1.199849 1_555
C2 N14 1.270253 1_555
C3 N19 1.199849 1_555
C3 N15 1.270253 1_555
N0 Sn2 2.135456 1_555
N0 Sn7 2.135456 1_555
N0 Sn13 2.170055 1_556
N0 Sn13 2.170055 1_555
N1 Sn6 2.135456 1_555
N1 Sn3 2.135456 1_555
N1 Sn12 2.170055 1_556
N1 Sn12 2.170055 1_555
N2 Sn4 2.135456 1_555
N2 Sn8 2.135456 1_555
N2 Sn11 2.170055 1_555
N2 Sn11 2.170055 1_554
N3 Sn9 2.135456 1_555
N3 Sn5 2.135456 1_555
N3 Sn10 2.170055 1_555
N3 Sn10 2.170055 1_554
N4 Sn20 2.145282 1_555
N4 Sn20 2.145282 1_556
N4 Sn11 2.196569 1_555
N5 Sn21 2.145282 1_555
N5 Sn21 2.145282 1_556
N5 Sn10 2.196569 1_555
N6 Sn19 2.145282 1_555
N6 Sn19 2.145282 1_554
N6 Sn13 2.196569 1_555
N7 Sn18 2.145282 1_555
N7 Sn18 2.145282 1_554
N7 Sn12 2.196569 1_555
N8 Sn16 2.145282 1_556
N8 Sn16 2.145282 1_555
N8 Sn11 2.196569 1_555
N9 Sn17 2.145282 1_556
N9 Sn17 2.145282 1_555
N9 Sn10 2.196569 1_555
N10 Sn15 2.145282 1_554
N10 Sn15 2.145282 1_555
N10 Sn12 2.196569 1_555
N11 Sn14 2.145282 1_555
N11 Sn14 2.145282 1_554
N11 Sn13 2.196569 1_555
N12 Sn13 2.215155 1_555
N12 Sn13 2.215155 1_556
N13 Sn12 2.215155 1_555
N13 Sn12 2.215155 1_556
N14 Sn11 2.215155 1_554
N14 Sn11 2.215155 1_555
N15 Sn10 2.215155 1_554
N15 Sn10 2.215155 1_555
N16 Sn0 2.463570 1_555
N17 Sn0 2.463570 1_555
N18 Sn1 2.463570 1_555
N19 Sn1 2.463570 1_665
