# generated using pymatgen
data_H16Cl2O15
_symmetry_space_group_name_H-M   'P 1'
_cell_length_a   10.22905800
_cell_length_b   12.13086600
_cell_length_c   20.03431000
_cell_angle_alpha   90.00000000
_cell_angle_beta   90.00000000
_cell_angle_gamma   90.00000000
_symmetry_Int_Tables_number   1
_chemical_formula_structural   H16Cl2O15
_chemical_formula_sum   'H128 Cl16 O120'
_cell_volume   2486.00407444
_cell_formula_units_Z   8
loop_
 _symmetry_equiv_pos_site_id
 _symmetry_equiv_pos_as_xyz
  1  'x, y, z'
loop_
 _atom_site_type_symbol
 _atom_site_label
 _atom_site_symmetry_multiplicity
 _atom_site_fract_x
 _atom_site_fract_y
 _atom_site_fract_z
 _atom_site_occupancy
  H  H0  1  0.34672200  0.85524400  0.07699700  1
  H  H1  1  0.65327800  0.35524400  0.42300300  1
  H  H2  1  0.15327800  0.14475600  0.57699700  1
  H  H3  1  0.84672200  0.64475600  0.92300300  1
  H  H4  1  0.65327800  0.14475600  0.92300300  1
  H  H5  1  0.34672200  0.64475600  0.57699700  1
  H  H6  1  0.84672200  0.85524400  0.42300300  1
  H  H7  1  0.15327800  0.35524400  0.07699700  1
  H  H8  1  0.37778900  0.90234000  0.00581700  1
  H  H9  1  0.62221100  0.40234000  0.49418300  1
  H  H10  1  0.12221100  0.09766000  0.50581700  1
  H  H11  1  0.87778900  0.59766000  0.99418300  1
  H  H12  1  0.62221100  0.09766000  0.99418300  1
  H  H13  1  0.37778900  0.59766000  0.50581700  1
  H  H14  1  0.87778900  0.90234000  0.49418300  1
  H  H15  1  0.12221100  0.40234000  0.00581700  1
  H  H16  1  0.99912300  0.65349100  0.13351800  1
  H  H17  1  0.00087700  0.15349100  0.36648200  1
  H  H18  1  0.50087700  0.34650900  0.63351800  1
  H  H19  1  0.49912300  0.84650900  0.86648200  1
  H  H20  1  0.00087700  0.34650900  0.86648200  1
  H  H21  1  0.99912300  0.84650900  0.63351800  1
  H  H22  1  0.49912300  0.65349100  0.36648200  1
  H  H23  1  0.50087700  0.15349100  0.13351800  1
  H  H24  1  0.01165700  0.79656200  0.14105400  1
  H  H25  1  0.98834300  0.29656200  0.35894600  1
  H  H26  1  0.48834300  0.20343800  0.64105400  1
  H  H27  1  0.51165700  0.70343800  0.85894600  1
  H  H28  1  0.98834300  0.20343800  0.85894600  1
  H  H29  1  0.01165700  0.70343800  0.64105400  1
  H  H30  1  0.51165700  0.79656200  0.35894600  1
  H  H31  1  0.48834300  0.29656200  0.14105400  1
  H  H32  1  0.03940000  0.71692100  0.21081500  1
  H  H33  1  0.96060000  0.21692100  0.28918500  1
  H  H34  1  0.46060000  0.28307900  0.71081500  1
  H  H35  1  0.53940000  0.78307900  0.78918500  1
  H  H36  1  0.96060000  0.28307900  0.78918500  1
  H  H37  1  0.03940000  0.78307900  0.71081500  1
  H  H38  1  0.53940000  0.71692100  0.28918500  1
  H  H39  1  0.46060000  0.21692100  0.21081500  1
  H  H40  1  0.51202200  0.50757400  0.41175000  1
  H  H41  1  0.48797800  0.00757400  0.08825000  1
  H  H42  1  0.98797800  0.49242600  0.91175000  1
  H  H43  1  0.01202200  0.99242600  0.58825000  1
  H  H44  1  0.48797800  0.49242600  0.58825000  1
  H  H45  1  0.51202200  0.99242600  0.91175000  1
  H  H46  1  0.01202200  0.50757400  0.08825000  1
  H  H47  1  0.98797800  0.00757400  0.41175000  1
  H  H48  1  0.37655400  0.52692000  0.37426800  1
  H  H49  1  0.62344600  0.02692000  0.12573200  1
  H  H50  1  0.12344600  0.47308000  0.87426800  1
  H  H51  1  0.87655400  0.97308000  0.62573200  1
  H  H52  1  0.62344600  0.47308000  0.62573200  1
  H  H53  1  0.37655400  0.97308000  0.87426800  1
  H  H54  1  0.87655400  0.52692000  0.12573200  1
  H  H55  1  0.12344600  0.02692000  0.37426800  1
  H  H56  1  0.26855800  0.49233900  0.05138300  1
  H  H57  1  0.73144200  0.99233900  0.44861700  1
  H  H58  1  0.23144200  0.50766100  0.55138300  1
  H  H59  1  0.76855800  0.00766100  0.94861700  1
  H  H60  1  0.73144200  0.50766100  0.94861700  1
  H  H61  1  0.26855800  0.00766100  0.55138300  1
  H  H62  1  0.76855800  0.49233900  0.44861700  1
  H  H63  1  0.23144200  0.99233900  0.05138300  1
  H  H64  1  0.43003200  0.49139900  0.06909300  1
  H  H65  1  0.56996800  0.99139900  0.43090700  1
  H  H66  1  0.06996800  0.50860100  0.56909300  1
  H  H67  1  0.93003200  0.00860100  0.93090700  1
  H  H68  1  0.56996800  0.50860100  0.93090700  1
  H  H69  1  0.43003200  0.00860100  0.56909300  1
  H  H70  1  0.93003200  0.49139900  0.43090700  1
  H  H71  1  0.06996800  0.99139900  0.06909300  1
  H  H72  1  0.34636300  0.61089000  0.07684400  1
  H  H73  1  0.65363700  0.11089000  0.42315600  1
  H  H74  1  0.15363700  0.38911000  0.57684400  1
  H  H75  1  0.84636300  0.88911000  0.92315600  1
  H  H76  1  0.65363700  0.38911000  0.92315600  1
  H  H77  1  0.34636300  0.88911000  0.57684400  1
  H  H78  1  0.84636300  0.61089000  0.42315600  1
  H  H79  1  0.15363700  0.11089000  0.07684400  1
  H  H80  1  0.40721900  0.87186200  0.43179600  1
  H  H81  1  0.59278100  0.37186200  0.06820400  1
  H  H82  1  0.09278100  0.12813800  0.93179600  1
  H  H83  1  0.90721900  0.62813800  0.56820400  1
  H  H84  1  0.59278100  0.12813800  0.56820400  1
  H  H85  1  0.40721900  0.62813800  0.93179600  1
  H  H86  1  0.90721900  0.87186200  0.06820400  1
  H  H87  1  0.09278100  0.37186200  0.43179600  1
  H  H88  1  0.40333700  0.94800100  0.36814000  1
  H  H89  1  0.59666300  0.44800100  0.13186000  1
  H  H90  1  0.09666300  0.05199900  0.86814000  1
  H  H91  1  0.90333700  0.55199900  0.63186000  1
  H  H92  1  0.59666300  0.05199900  0.63186000  1
  H  H93  1  0.40333700  0.55199900  0.86814000  1
  H  H94  1  0.90333700  0.94800100  0.13186000  1
  H  H95  1  0.09666300  0.44800100  0.36814000  1
  H  H96  1  0.39655200  0.71395700  0.15661100  1
  H  H97  1  0.60344800  0.21395700  0.34338900  1
  H  H98  1  0.10344800  0.28604300  0.65661100  1
  H  H99  1  0.89655200  0.78604300  0.84338900  1
  H  H100  1  0.60344800  0.28604300  0.84338900  1
  H  H101  1  0.39655200  0.78604300  0.65661100  1
  H  H102  1  0.89655200  0.71395700  0.34338900  1
  H  H103  1  0.10344800  0.21395700  0.15661100  1
  H  H104  1  0.24543300  0.71741000  0.14050400  1
  H  H105  1  0.75456700  0.21741000  0.35949600  1
  H  H106  1  0.25456700  0.28259000  0.64050400  1
  H  H107  1  0.74543300  0.78259000  0.85949600  1
  H  H108  1  0.75456700  0.28259000  0.85949600  1
  H  H109  1  0.24543300  0.78259000  0.64050400  1
  H  H110  1  0.74543300  0.71741000  0.35949600  1
  H  H111  1  0.25456700  0.21741000  0.14050400  1
  H  H112  1  0.09735500  0.62769800  0.29225100  1
  H  H113  1  0.90264500  0.12769800  0.20774900  1
  H  H114  1  0.40264500  0.37230200  0.79225100  1
  H  H115  1  0.59735500  0.87230200  0.70774900  1
  H  H116  1  0.90264500  0.37230200  0.70774900  1
  H  H117  1  0.09735500  0.87230200  0.79225100  1
  H  H118  1  0.59735500  0.62769800  0.20774900  1
  H  H119  1  0.40264500  0.12769800  0.29225100  1
  H  H120  1  0.09298100  0.75324300  0.30904700  1
  H  H121  1  0.90701900  0.25324300  0.19095300  1
  H  H122  1  0.40701900  0.24675700  0.80904700  1
  H  H123  1  0.59298100  0.74675700  0.69095300  1
  H  H124  1  0.90701900  0.24675700  0.69095300  1
  H  H125  1  0.09298100  0.74675700  0.80904700  1
  H  H126  1  0.59298100  0.75324300  0.19095300  1
  H  H127  1  0.40701900  0.25324300  0.30904700  1
  Cl  Cl0  1  0.24882300  0.95118500  0.25051700  1
  Cl  Cl1  1  0.75117700  0.45118500  0.24948300  1
  Cl  Cl2  1  0.25117700  0.04881500  0.75051700  1
  Cl  Cl3  1  0.74882300  0.54881500  0.74948300  1
  Cl  Cl4  1  0.75117700  0.04881500  0.74948300  1
  Cl  Cl5  1  0.24882300  0.54881500  0.75051700  1
  Cl  Cl6  1  0.74882300  0.95118500  0.24948300  1
  Cl  Cl7  1  0.25117700  0.45118500  0.25051700  1
  Cl  Cl8  1  0.16258400  0.75948000  0.45095000  1
  Cl  Cl9  1  0.83741600  0.25948000  0.04905000  1
  Cl  Cl10  1  0.33741600  0.24052000  0.95095000  1
  Cl  Cl11  1  0.66258400  0.74052000  0.54905000  1
  Cl  Cl12  1  0.83741600  0.24052000  0.54905000  1
  Cl  Cl13  1  0.16258400  0.74052000  0.95095000  1
  Cl  Cl14  1  0.66258400  0.75948000  0.04905000  1
  Cl  Cl15  1  0.33741600  0.25948000  0.45095000  1
  O  O0  1  0.30013400  0.00834200  0.19249100  1
  O  O1  1  0.69986600  0.50834200  0.30750900  1
  O  O2  1  0.19986600  0.99165800  0.69249100  1
  O  O3  1  0.80013400  0.49165800  0.80750900  1
  O  O4  1  0.69986600  0.99165800  0.80750900  1
  O  O5  1  0.30013400  0.49165800  0.69249100  1
  O  O6  1  0.80013400  0.00834200  0.30750900  1
  O  O7  1  0.19986600  0.50834200  0.19249100  1
  O  O8  1  0.10708800  0.94775900  0.24883000  1
  O  O9  1  0.89291200  0.44775900  0.25117000  1
  O  O10  1  0.39291200  0.05224100  0.74883000  1
  O  O11  1  0.60708800  0.55224100  0.75117000  1
  O  O12  1  0.89291200  0.05224100  0.75117000  1
  O  O13  1  0.10708800  0.55224100  0.74883000  1
  O  O14  1  0.60708800  0.94775900  0.25117000  1
  O  O15  1  0.39291200  0.44775900  0.24883000  1
  O  O16  1  0.28921800  0.01522000  0.31199900  1
  O  O17  1  0.71078200  0.51522000  0.18800100  1
  O  O18  1  0.21078200  0.98478000  0.81199900  1
  O  O19  1  0.78921800  0.48478000  0.68800100  1
  O  O20  1  0.71078200  0.98478000  0.68800100  1
  O  O21  1  0.28921800  0.48478000  0.81199900  1
  O  O22  1  0.78921800  0.01522000  0.18800100  1
  O  O23  1  0.21078200  0.51522000  0.31199900  1
  O  O24  1  0.30243700  0.84068100  0.25557700  1
  O  O25  1  0.69756300  0.34068100  0.24442300  1
  O  O26  1  0.19756300  0.15931900  0.75557700  1
  O  O27  1  0.80243700  0.65931900  0.74442300  1
  O  O28  1  0.69756300  0.15931900  0.74442300  1
  O  O29  1  0.30243700  0.65931900  0.75557700  1
  O  O30  1  0.80243700  0.84068100  0.24442300  1
  O  O31  1  0.19756300  0.34068100  0.25557700  1
  O  O32  1  0.12929500  0.82665700  0.39229000  1
  O  O33  1  0.87070500  0.32665700  0.10771000  1
  O  O34  1  0.37070500  0.17334300  0.89229000  1
  O  O35  1  0.62929500  0.67334300  0.60771000  1
  O  O36  1  0.87070500  0.17334300  0.60771000  1
  O  O37  1  0.12929500  0.67334300  0.89229000  1
  O  O38  1  0.62929500  0.82665700  0.10771000  1
  O  O39  1  0.37070500  0.32665700  0.39229000  1
  O  O40  1  0.11911100  0.64657100  0.44086200  1
  O  O41  1  0.88088900  0.14657100  0.05913800  1
  O  O42  1  0.38088900  0.35342900  0.94086200  1
  O  O43  1  0.61911100  0.85342900  0.55913800  1
  O  O44  1  0.88088900  0.35342900  0.55913800  1
  O  O45  1  0.11911100  0.85342900  0.94086200  1
  O  O46  1  0.61911100  0.64657100  0.05913800  1
  O  O47  1  0.38088900  0.14657100  0.44086200  1
  O  O48  1  0.10177800  0.80628600  0.51007400  1
  O  O49  1  0.89822200  0.30628600  0.98992600  1
  O  O50  1  0.39822200  0.19371400  0.01007400  1
  O  O51  1  0.60177800  0.69371400  0.48992600  1
  O  O52  1  0.89822200  0.19371400  0.48992600  1
  O  O53  1  0.10177800  0.69371400  0.01007400  1
  O  O54  1  0.60177800  0.80628600  0.98992600  1
  O  O55  1  0.39822200  0.30628600  0.51007400  1
  O  O56  1  0.30552100  0.75998900  0.45948700  1
  O  O57  1  0.69447900  0.25998900  0.04051300  1
  O  O58  1  0.19447900  0.24001100  0.95948700  1
  O  O59  1  0.80552100  0.74001100  0.54051300  1
  O  O60  1  0.69447900  0.24001100  0.54051300  1
  O  O61  1  0.30552100  0.74001100  0.95948700  1
  O  O62  1  0.80552100  0.75998900  0.04051300  1
  O  O63  1  0.19447900  0.25998900  0.45948700  1
  O  O64  1  0.35494900  0.92537900  0.05154900  1
  O  O65  1  0.64505100  0.42537900  0.44845100  1
  O  O66  1  0.14505100  0.07462100  0.55154900  1
  O  O67  1  0.85494900  0.57462100  0.94845100  1
  O  O68  1  0.64505100  0.07462100  0.94845100  1
  O  O69  1  0.35494900  0.57462100  0.55154900  1
  O  O70  1  0.85494900  0.92537900  0.44845100  1
  O  O71  1  0.14505100  0.42537900  0.05154900  1
  O  O72  1  0.04612400  0.72327000  0.15870000  1
  O  O73  1  0.95387600  0.22327000  0.34130000  1
  O  O74  1  0.45387600  0.27673000  0.65870000  1
  O  O75  1  0.54612400  0.77673000  0.84130000  1
  O  O76  1  0.95387600  0.27673000  0.84130000  1
  O  O77  1  0.04612400  0.77673000  0.65870000  1
  O  O78  1  0.54612400  0.72327000  0.34130000  1
  O  O79  1  0.45387600  0.22327000  0.15870000  1
  O  O80  1  0.44523600  0.56396900  0.40030600  1
  O  O81  1  0.55476400  0.06396900  0.09969400  1
  O  O82  1  0.05476400  0.43603100  0.90030600  1
  O  O83  1  0.94523600  0.93603100  0.59969400  1
  O  O84  1  0.55476400  0.43603100  0.59969400  1
  O  O85  1  0.44523600  0.93603100  0.90030600  1
  O  O86  1  0.94523600  0.56396900  0.09969400  1
  O  O87  1  0.05476400  0.06396900  0.40030600  1
  O  O88  1  0.35538100  0.53822700  0.05035800  1
  O  O89  1  0.64461900  0.03822700  0.44964200  1
  O  O90  1  0.14461900  0.46177300  0.55035800  1
  O  O91  1  0.85538100  0.96177300  0.94964200  1
  O  O92  1  0.64461900  0.46177300  0.94964200  1
  O  O93  1  0.35538100  0.96177300  0.55035800  1
  O  O94  1  0.85538100  0.53822700  0.44964200  1
  O  O95  1  0.14461900  0.03822700  0.05035800  1
  O  O96  1  0.46453500  0.90833800  0.39840800  1
  O  O97  1  0.53546500  0.40833800  0.10159200  1
  O  O98  1  0.03546500  0.09166200  0.89840800  1
  O  O99  1  0.96453500  0.59166200  0.60159200  1
  O  O100  1  0.53546500  0.09166200  0.60159200  1
  O  O101  1  0.46453500  0.59166200  0.89840800  1
  O  O102  1  0.96453500  0.90833800  0.10159200  1
  O  O103  1  0.03546500  0.40833800  0.39840800  1
  O  O104  1  0.33250100  0.71944200  0.11960600  1
  O  O105  1  0.66749900  0.21944200  0.38039400  1
  O  O106  1  0.16749900  0.28055800  0.61960600  1
  O  O107  1  0.83250100  0.78055800  0.88039400  1
  O  O108  1  0.66749900  0.28055800  0.88039400  1
  O  O109  1  0.33250100  0.78055800  0.61960600  1
  O  O110  1  0.83250100  0.71944200  0.38039400  1
  O  O111  1  0.16749900  0.21944200  0.11960600  1
  O  O112  1  0.04438700  0.69523300  0.28493600  1
  O  O113  1  0.95561300  0.19523300  0.21506400  1
  O  O114  1  0.45561300  0.30476700  0.78493600  1
  O  O115  1  0.54438700  0.80476700  0.71506400  1
  O  O116  1  0.95561300  0.30476700  0.71506400  1
  O  O117  1  0.04438700  0.80476700  0.78493600  1
  O  O118  1  0.54438700  0.69523300  0.21506400  1
  O  O119  1  0.45561300  0.19523300  0.28493600  1
loop_
_geom_bond_atom_site_label_1
_geom_bond_atom_site_label_2
_geom_bond_distance
_geom_bond_site_symmetry_2
H0 O64 0.995424 1_555
H1 O65 0.995424 1_555
H2 O66 0.995424 1_555
H3 O67 0.995424 1_555
H4 O68 0.995424 1_555
H5 O69 0.995424 1_555
H6 O70 0.995424 1_555
H7 O71 0.995424 1_555
H8 O64 0.985968 1_555
H9 O65 0.985968 1_555
H10 O66 0.985968 1_555
H11 O67 0.985968 1_555
H12 O68 0.985968 1_555
H13 O69 0.985968 1_555
H14 O70 0.985968 1_555
H15 O71 0.985968 1_555
H16 O72 1.096448 1_655
H16 O86 1.393694 1_555
H17 O73 1.096448 1_455
H17 O87 1.393694 1_555
H18 O74 1.096448 1_555
H18 O84 1.393694 1_555
H19 O75 1.096448 1_555
H19 O85 1.393694 1_555
H20 O76 1.096448 1_455
H20 O82 1.393694 1_555
H21 O77 1.096448 1_655
H21 O83 1.393694 1_555
H22 O78 1.096448 1_555
H22 O80 1.393694 1_555
H23 O79 1.096448 1_555
H23 O81 1.393694 1_555
H24 O72 1.019693 1_555
H25 O73 1.019693 1_555
H26 O74 1.019693 1_555
H27 O75 1.019693 1_555
H28 O76 1.019693 1_555
H29 O77 1.019693 1_555
H30 O78 1.019693 1_555
H31 O79 1.019693 1_555
H32 O72 1.049182 1_555
H32 O112 1.508952 1_555
H33 O73 1.049182 1_555
H33 O113 1.508952 1_555
H34 O74 1.049182 1_555
H34 O114 1.508952 1_555
H35 O75 1.049182 1_555
H35 O115 1.508952 1_555
H36 O76 1.049182 1_555
H36 O116 1.508952 1_555
H37 O77 1.049182 1_555
H37 O117 1.508952 1_555
H38 O78 1.049182 1_555
H38 O118 1.508952 1_555
H39 O79 1.049182 1_555
H39 O119 1.508952 1_555
H40 O80 0.993625 1_555
H41 O81 0.993625 1_555
H42 O82 0.993625 1_655
H43 O83 0.993625 1_455
H44 O84 0.993625 1_555
H45 O85 0.993625 1_555
H46 O86 0.993625 1_455
H47 O87 0.993625 1_655
H48 O80 0.983715 1_555
H49 O81 0.983715 1_555
H50 O82 0.983715 1_555
H51 O83 0.983715 1_555
H52 O84 0.983715 1_555
H53 O85 0.983715 1_555
H54 O86 0.983715 1_555
H55 O87 0.983715 1_555
H56 O88 1.048354 1_555
H56 O71 1.501963 1_555
H57 O89 1.048354 1_565
H57 O70 1.501963 1_555
H58 O90 1.048354 1_555
H58 O69 1.501963 1_555
H59 O91 1.048354 1_545
H59 O68 1.501963 1_555
H60 O92 1.048354 1_555
H60 O67 1.501963 1_555
H61 O93 1.048354 1_545
H61 O66 1.501963 1_555
H62 O94 1.048354 1_555
H62 O65 1.501963 1_555
H63 O95 1.048354 1_565
H63 O64 1.501963 1_555
H64 O88 1.023073 1_555
H64 O97 1.613166 1_555
H65 O89 1.023073 1_565
H65 O96 1.613166 1_555
H66 O90 1.023073 1_555
H66 O99 1.613166 1_455
H67 O91 1.023073 1_545
H67 O98 1.613166 1_655
H68 O92 1.023073 1_555
H68 O101 1.613166 1_555
H69 O93 1.023073 1_545
H69 O100 1.613166 1_555
H70 O94 1.023073 1_555
H70 O103 1.613166 1_655
H71 O95 1.023073 1_565
H71 O102 1.613166 1_455
H72 O88 1.032984 1_555
H72 O104 1.577369 1_555
H73 O89 1.032984 1_555
H73 O105 1.577369 1_555
H74 O90 1.032984 1_555
H74 O106 1.577369 1_555
H75 O91 1.032984 1_555
H75 O107 1.577369 1_555
H76 O92 1.032984 1_555
H76 O108 1.577369 1_555
H77 O93 1.032984 1_555
H77 O109 1.577369 1_555
H78 O94 1.032984 1_555
H78 O110 1.577369 1_555
H79 O95 1.032984 1_555
H79 O111 1.577369 1_555
H80 O96 0.993460 1_555
H81 O97 0.993460 1_555
H82 O98 0.993460 1_555
H83 O99 0.993460 1_555
H84 O100 0.993460 1_555
H85 O101 0.993460 1_555
H86 O102 0.993460 1_555
H87 O103 0.993460 1_555
H88 O96 0.995537 1_555
H89 O97 0.995537 1_555
H90 O98 0.995537 1_555
H91 O99 0.995537 1_555
H92 O100 0.995537 1_555
H93 O101 0.995537 1_555
H94 O102 0.995537 1_555
H95 O103 0.995537 1_555
H96 O104 0.991624 1_555
H97 O105 0.991624 1_555
H98 O106 0.991624 1_555
H99 O107 0.991624 1_555
H100 O108 0.991624 1_555
H101 O109 0.991624 1_555
H102 O110 0.991624 1_555
H103 O111 0.991624 1_555
H104 O104 0.984433 1_555
H105 O105 0.984433 1_555
H106 O106 0.984433 1_555
H107 O107 0.984433 1_555
H108 O108 0.984433 1_555
H109 O109 0.984433 1_555
H110 O110 0.984433 1_555
H111 O111 0.984433 1_555
H112 O112 0.993087 1_555
H113 O113 0.993087 1_555
H114 O114 0.993087 1_555
H115 O115 0.993087 1_555
H116 O116 0.993087 1_555
H117 O117 0.993087 1_555
H118 O118 0.993087 1_555
H119 O119 0.993087 1_555
H120 O112 0.987737 1_555
H121 O113 0.987737 1_555
H122 O114 0.987737 1_555
H123 O115 0.987737 1_555
H124 O116 0.987737 1_555
H125 O117 0.987737 1_555
H126 O118 0.987737 1_555
H127 O119 0.987737 1_555
Cl0 O8 1.450805 1_555
Cl0 O0 1.451780 1_565
Cl0 O24 1.451898 1_555
Cl0 O16 1.513724 1_565
Cl1 O9 1.450805 1_555
Cl1 O1 1.451780 1_555
Cl1 O25 1.451898 1_555
Cl1 O17 1.513724 1_555
Cl2 O10 1.450805 1_555
Cl2 O2 1.451780 1_545
Cl2 O26 1.451898 1_555
Cl2 O18 1.513724 1_545
Cl3 O11 1.450805 1_555
Cl3 O3 1.451780 1_555
Cl3 O27 1.451898 1_555
Cl3 O19 1.513724 1_555
Cl4 O12 1.450805 1_555
Cl4 O4 1.451780 1_545
Cl4 O28 1.451898 1_555
Cl4 O20 1.513724 1_545
Cl5 O13 1.450805 1_555
Cl5 O5 1.451780 1_555
Cl5 O29 1.451898 1_555
Cl5 O21 1.513724 1_555
Cl6 O14 1.450805 1_555
Cl6 O6 1.451780 1_565
Cl6 O30 1.451898 1_555
Cl6 O22 1.513724 1_565
Cl7 O15 1.450805 1_555
Cl7 O7 1.451780 1_555
Cl7 O31 1.451898 1_555
Cl7 O23 1.513724 1_555
Cl8 O48 1.453383 1_555
Cl8 O40 1.454176 1_555
Cl8 O32 1.470089 1_555
Cl8 O56 1.472093 1_555
Cl9 O49 1.453383 1_554
Cl9 O41 1.454176 1_555
Cl9 O33 1.470089 1_555
Cl9 O57 1.472093 1_555
Cl10 O50 1.453383 1_556
Cl10 O42 1.454176 1_555
Cl10 O34 1.470089 1_555
Cl10 O58 1.472093 1_555
Cl11 O51 1.453383 1_555
Cl11 O43 1.454176 1_555
Cl11 O35 1.470089 1_555
Cl11 O59 1.472093 1_555
Cl12 O52 1.453383 1_555
Cl12 O44 1.454176 1_555
Cl12 O36 1.470089 1_555
Cl12 O60 1.472093 1_555
Cl13 O53 1.453383 1_556
Cl13 O45 1.454176 1_555
Cl13 O37 1.470089 1_555
Cl13 O61 1.472093 1_555
Cl14 O54 1.453383 1_554
Cl14 O46 1.454176 1_555
Cl14 O38 1.470089 1_555
Cl14 O62 1.472093 1_555
Cl15 O55 1.453383 1_555
Cl15 O47 1.454176 1_555
Cl15 O39 1.470089 1_555
Cl15 O63 1.472093 1_555
