# generated using pymatgen
data_Mn3Co3(TeO6)2
_symmetry_space_group_name_H-M   'P 1'
_cell_length_a   6.21954906
_cell_length_b   6.25289804
_cell_length_c   6.23975807
_cell_angle_alpha   89.72077099
_cell_angle_beta   90.32724965
_cell_angle_gamma   89.86684410
_symmetry_Int_Tables_number   1
_chemical_formula_structural   Mn3Co3(TeO6)2
_chemical_formula_sum   'Mn3 Co3 Te2 O12'
_cell_volume   242.65796616
_cell_formula_units_Z   1
loop_
 _symmetry_equiv_pos_site_id
 _symmetry_equiv_pos_as_xyz
  1  'x, y, z'
loop_
 _atom_site_type_symbol
 _atom_site_label
 _atom_site_symmetry_multiplicity
 _atom_site_fract_x
 _atom_site_fract_y
 _atom_site_fract_z
 _atom_site_occupancy
  Mn  Mn0  1  0.56294000  0.25169900  0.04889400  1
  Mn  Mn1  1  0.04914300  0.43718900  0.74798200  1
  Mn  Mn2  1  0.74678300  0.95075300  0.56301300  1
  Co  Co0  1  0.25549100  0.05358600  0.43854000  1
  Co  Co1  1  0.43633900  0.74336400  0.94749100  1
  Co  Co2  1  0.94592500  0.56878400  0.25371000  1
  Te  Te0  1  0.49480000  0.50504100  0.49483600  1
  Te  Te1  1  0.00408700  0.99699500  0.00340200  1
  O  O0  1  0.79649600  0.57026500  0.55750800  1
  O  O1  1  0.55456200  0.20360200  0.43064700  1
  O  O2  1  0.42890600  0.44415600  0.79661900  1
  O  O3  1  0.19733200  0.42733200  0.42496400  1
  O  O4  1  0.42608600  0.80061900  0.57137400  1
  O  O5  1  0.57633800  0.57258800  0.19838700  1
  O  O6  1  0.05240200  0.08470100  0.70458500  1
  O  O7  1  0.70465600  0.94830500  0.91374500  1
  O  O8  1  0.91553700  0.29454300  0.05057400  1
  O  O9  1  0.95995900  0.91289700  0.30249200  1
  O  O10  1  0.30406500  0.03620500  0.08894600  1
  O  O11  1  0.08815300  0.69737500  0.96229100  1
loop_
_geom_bond_atom_site_label_1
_geom_bond_atom_site_label_2
_geom_bond_distance
_geom_bond_site_symmetry_2
Mn0 O10 2.117046 1_555
Mn0 O2 2.140778 1_554
Mn0 O8 2.209887 1_555
Mn0 O5 2.218373 1_555
Mn0 O7 2.259049 1_544
Mn0 O1 2.400378 1_555
Mn1 O11 2.124443 1_555
Mn1 O0 2.130038 1_455
Mn1 O6 2.222013 1_555
Mn1 O3 2.222138 1_555
Mn1 O8 2.248547 1_456
Mn1 O2 2.380178 1_555
Mn2 O9 2.117400 1_555
Mn2 O1 2.139706 1_565
Mn2 O7 2.205580 1_555
Mn2 O4 2.207221 1_555
Mn2 O6 2.256187 1_665
Mn2 O0 2.398884 1_555
Co0 O4 2.069821 1_545
Co0 O1 2.085896 1_555
Co0 O6 2.101208 1_555
Co0 O9 2.206815 1_445
Co0 O10 2.207078 1_555
Co0 O3 2.365028 1_555
Co1 O5 2.076815 1_556
Co1 O2 2.098996 1_555
Co1 O7 2.117255 1_555
Co1 O11 2.187645 1_555
Co1 O10 2.196785 1_566
Co1 O4 2.372778 1_555
Co2 O3 2.081927 1_655
Co2 O0 2.116008 1_555
Co2 O8 2.145419 1_555
Co2 O9 2.176477 1_555
Co2 O11 2.177838 1_654
Co2 O5 2.322540 1_555
O0 Te0 1.958804 1_555
O1 Te0 1.963951 1_555
O2 Te0 1.965030 1_555
O3 Te0 1.961160 1_555
O4 Te0 1.958036 1_555
O5 Te0 1.965024 1_555
O6 Te1 1.965907 1_546
O7 Te1 1.966295 1_656
O8 Te1 1.963155 1_645
O9 Te1 1.957471 1_655
O10 Te1 1.953968 1_545
O11 Te1 1.962350 1_556
