# generated using pymatgen
data_CaB2H10O
_symmetry_space_group_name_H-M   'P 1'
_cell_length_a   6.01929000
_cell_length_b   8.05247900
_cell_length_c   11.65956100
_cell_angle_alpha   90.00000000
_cell_angle_beta   90.00000000
_cell_angle_gamma   90.00000000
_symmetry_Int_Tables_number   1
_chemical_formula_structural   CaB2H10O
_chemical_formula_sum   'Ca4 B8 H40 O4'
_cell_volume   565.14132727
_cell_formula_units_Z   4
loop_
 _symmetry_equiv_pos_site_id
 _symmetry_equiv_pos_as_xyz
  1  'x, y, z'
loop_
 _atom_site_type_symbol
 _atom_site_label
 _atom_site_symmetry_multiplicity
 _atom_site_fract_x
 _atom_site_fract_y
 _atom_site_fract_z
 _atom_site_occupancy
  Ca  Ca0  1  0.25000000  0.35062400  0.58534300  1
  Ca  Ca1  1  0.25000000  0.85062400  0.91465700  1
  Ca  Ca2  1  0.75000000  0.64937600  0.41465700  1
  Ca  Ca3  1  0.75000000  0.14937600  0.08534300  1
  B  B0  1  0.25000000  0.08156000  0.73158900  1
  B  B1  1  0.25000000  0.58156000  0.76841100  1
  B  B2  1  0.75000000  0.91844000  0.26841100  1
  B  B3  1  0.75000000  0.41844000  0.23158900  1
  B  B4  1  0.25000000  0.12263000  0.07466500  1
  B  B5  1  0.25000000  0.62263000  0.42533500  1
  B  B6  1  0.75000000  0.87737000  0.92533500  1
  B  B7  1  0.75000000  0.37737000  0.57466500  1
  H  H0  1  0.37908900  0.12161000  0.37769500  1
  H  H1  1  0.12091100  0.62161000  0.12230500  1
  H  H2  1  0.87908900  0.87839000  0.62230500  1
  H  H3  1  0.62091100  0.37839000  0.87769500  1
  H  H4  1  0.62091100  0.87839000  0.62230500  1
  H  H5  1  0.87908900  0.37839000  0.87769500  1
  H  H6  1  0.12091100  0.12161000  0.37769500  1
  H  H7  1  0.37908900  0.62161000  0.12230500  1
  H  H8  1  0.41951400  0.13854300  0.68822900  1
  H  H9  1  0.08048600  0.63854300  0.81177100  1
  H  H10  1  0.91951400  0.86145700  0.31177100  1
  H  H11  1  0.58048600  0.36145700  0.18822900  1
  H  H12  1  0.58048600  0.86145700  0.31177100  1
  H  H13  1  0.91951400  0.36145700  0.18822900  1
  H  H14  1  0.08048600  0.13854300  0.68822900  1
  H  H15  1  0.41951400  0.63854300  0.81177100  1
  H  H16  1  0.25000000  0.11986600  0.83304100  1
  H  H17  1  0.25000000  0.61986600  0.66695900  1
  H  H18  1  0.75000000  0.88013400  0.16695900  1
  H  H19  1  0.75000000  0.38013400  0.33304100  1
  H  H20  1  0.25000000  0.93067500  0.71584900  1
  H  H21  1  0.25000000  0.43067500  0.78415100  1
  H  H22  1  0.75000000  0.06932500  0.28415100  1
  H  H23  1  0.75000000  0.56932500  0.21584900  1
  H  H24  1  0.40644600  0.16068200  0.01244400  1
  H  H25  1  0.09355400  0.66068200  0.48755600  1
  H  H26  1  0.90644600  0.83931800  0.98755600  1
  H  H27  1  0.59355400  0.33931800  0.51244400  1
  H  H28  1  0.59355400  0.83931800  0.98755600  1
  H  H29  1  0.90644600  0.33931800  0.51244400  1
  H  H30  1  0.09355400  0.16068200  0.01244400  1
  H  H31  1  0.40644600  0.66068200  0.48755600  1
  H  H32  1  0.25000000  0.97363000  0.09524700  1
  H  H33  1  0.25000000  0.47363000  0.40475300  1
  H  H34  1  0.75000000  0.02637000  0.90475300  1
  H  H35  1  0.75000000  0.52637000  0.59524700  1
  H  H36  1  0.25000000  0.19923600  0.16413800  1
  H  H37  1  0.25000000  0.69923600  0.33586200  1
  H  H38  1  0.75000000  0.80076400  0.83586200  1
  H  H39  1  0.75000000  0.30076400  0.66413800  1
  O  O0  1  0.25000000  0.14955800  0.42491000  1
  O  O1  1  0.25000000  0.64955800  0.07509000  1
  O  O2  1  0.75000000  0.85044200  0.57509000  1
  O  O3  1  0.75000000  0.35044200  0.92491000  1
loop_
_geom_bond_atom_site_label_1
_geom_bond_atom_site_label_2
_geom_bond_distance
_geom_bond_site_symmetry_2
Ca0 H29 2.237668 1_455
Ca0 H27 2.237668 1_555
Ca0 H8 2.323076 1_555
Ca0 H14 2.323076 1_555
Ca0 H33 2.326940 1_555
Ca0 H17 2.367713 1_555
Ca0 H21 2.405974 1_555
Ca0 O0 2.473961 1_555
Ca1 H26 2.237668 1_455
Ca1 H28 2.237668 1_555
Ca1 H9 2.323076 1_555
Ca1 H15 2.323076 1_555
Ca1 H32 2.326940 1_556
Ca1 H16 2.367713 1_565
Ca1 H20 2.405974 1_555
Ca1 O1 2.473961 1_556
Ca2 H25 2.237668 1_655
Ca2 H31 2.237668 1_555
Ca2 H12 2.323076 1_555
Ca2 H10 2.323076 1_555
Ca2 H35 2.326940 1_555
Ca2 H19 2.367713 1_555
Ca2 H23 2.405974 1_555
Ca2 O2 2.473961 1_555
Ca3 H30 2.237668 1_655
Ca3 H24 2.237668 1_555
Ca3 H13 2.323076 1_555
Ca3 H11 2.323076 1_555
Ca3 H34 2.326940 1_554
Ca3 H18 2.367713 1_545
Ca3 H22 2.405974 1_555
Ca3 O3 2.473961 1_554
B0 H16 1.222442 1_555
B0 H14 1.227705 1_555
B0 H8 1.227705 1_555
B0 H20 1.228780 1_545
B1 H17 1.222442 1_555
B1 H9 1.227705 1_555
B1 H15 1.227705 1_555
B1 H21 1.228780 1_555
B2 H18 1.222442 1_555
B2 H10 1.227705 1_555
B2 H12 1.227705 1_555
B2 H22 1.228780 1_565
B3 H19 1.222442 1_555
B3 H13 1.227705 1_555
B3 H11 1.227705 1_555
B3 H23 1.228780 1_555
B4 H36 1.211951 1_555
B4 H32 1.223583 1_545
B4 H24 1.227592 1_555
B4 H30 1.227592 1_555
B5 H37 1.211951 1_555
B5 H33 1.223583 1_555
B5 H31 1.227592 1_555
B5 H25 1.227592 1_555
B6 H38 1.211951 1_555
B6 H34 1.223583 1_565
B6 H28 1.227592 1_555
B6 H26 1.227592 1_555
B7 H39 1.211951 1_555
B7 H35 1.223583 1_555
B7 H27 1.227592 1_555
B7 H29 1.227592 1_555
H0 O0 0.978505 1_555
H1 O1 0.978505 1_555
H2 O2 0.978505 1_555
H3 O3 0.978505 1_555
H4 O2 0.978505 1_555
H5 O3 0.978505 1_555
H6 O0 0.978505 1_555
H7 O1 0.978505 1_555
