# generated using pymatgen
data_Cs2K2B10O17
_symmetry_space_group_name_H-M   'P 1'
_cell_length_a   11.99284791
_cell_length_b   11.99284791
_cell_length_c   11.46085205
_cell_angle_alpha   77.68643169
_cell_angle_beta   77.68643169
_cell_angle_gamma   32.34790583
_symmetry_Int_Tables_number   1
_chemical_formula_structural   Cs2K2B10O17
_chemical_formula_sum   'Cs4 K4 B20 O34'
_cell_volume   859.97026923
_cell_formula_units_Z   2
loop_
 _symmetry_equiv_pos_site_id
 _symmetry_equiv_pos_as_xyz
  1  'x, y, z'
loop_
 _atom_site_type_symbol
 _atom_site_label
 _atom_site_symmetry_multiplicity
 _atom_site_fract_x
 _atom_site_fract_y
 _atom_site_fract_z
 _atom_site_occupancy
  Cs  Cs0  1  0.74709200  0.36256400  0.90634600  1
  Cs  Cs1  1  0.63743600  0.25290800  0.59365400  1
  Cs  Cs2  1  0.25290800  0.63743600  0.09365400  1
  Cs  Cs3  1  0.36256400  0.74709200  0.40634600  1
  K  K0  1  0.81110000  0.64653600  0.82587800  1
  K  K1  1  0.35346400  0.18890000  0.67412200  1
  K  K2  1  0.18890000  0.35346400  0.17412200  1
  K  K3  1  0.64653600  0.81110000  0.32587800  1
  B  B0  1  0.22616900  0.87699500  0.76574700  1
  B  B1  1  0.12300500  0.77383100  0.73425300  1
  B  B2  1  0.77383100  0.12300500  0.23425300  1
  B  B3  1  0.87699500  0.22616900  0.26574700  1
  B  B4  1  0.11001100  0.22422900  0.01497400  1
  B  B5  1  0.77577100  0.88998900  0.48502600  1
  B  B6  1  0.88998900  0.77577100  0.98502600  1
  B  B7  1  0.22422900  0.11001100  0.51497400  1
  B  B8  1  0.44191200  0.85836800  0.07409600  1
  B  B9  1  0.14163200  0.55808800  0.42590400  1
  B  B10  1  0.55808800  0.14163200  0.92590400  1
  B  B11  1  0.85836800  0.44191200  0.57409600  1
  B  B12  1  0.31706000  0.95357700  0.87096300  1
  B  B13  1  0.04642300  0.68294000  0.62903700  1
  B  B14  1  0.68294000  0.04642300  0.12903700  1
  B  B15  1  0.95357700  0.31706000  0.37096300  1
  B  B16  1  0.49130700  0.79716400  0.66361600  1
  B  B17  1  0.20283600  0.50869300  0.83638400  1
  B  B18  1  0.50869300  0.20283600  0.33638400  1
  B  B19  1  0.79716400  0.49130700  0.16361600  1
  O  O0  1  0.09922200  0.56375700  0.73920500  1
  O  O1  1  0.43624300  0.90077800  0.76079500  1
  O  O2  1  0.90077800  0.43624300  0.26079500  1
  O  O3  1  0.56375700  0.09922200  0.23920500  1
  O  O4  1  0.91968200  0.42717400  0.04527800  1
  O  O5  1  0.57282600  0.08031800  0.45472200  1
  O  O6  1  0.08031800  0.57282600  0.95472200  1
  O  O7  1  0.42717400  0.91968200  0.54527800  1
  O  O8  1  0.76891900  0.38839000  0.18095100  1
  O  O9  1  0.61161000  0.23108100  0.31904900  1
  O  O10  1  0.23108100  0.61161000  0.81904900  1
  O  O11  1  0.38839000  0.76891900  0.68095100  1
  O  O12  1  0.46226400  0.80120800  0.97098500  1
  O  O13  1  0.19879200  0.53773600  0.52901500  1
  O  O14  1  0.53773600  0.19879200  0.02901500  1
  O  O15  1  0.80120800  0.46226400  0.47098500  1
  O  O16  1  0.73972100  0.92935400  0.90010400  1
  O  O17  1  0.07064600  0.26027900  0.59989600  1
  O  O18  1  0.26027900  0.07064600  0.09989600  1
  O  O19  1  0.92935400  0.73972100  0.40010400  1
  O  O20  1  0.15438100  0.17309000  0.89994200  1
  O  O21  1  0.82691000  0.84561900  0.60005800  1
  O  O22  1  0.84561900  0.82691000  0.10005800  1
  O  O23  1  0.17309000  0.15438100  0.39994200  1
  O  O24  1  0.20158900  0.94399100  0.86481800  1
  O  O25  1  0.05600900  0.79841100  0.63518200  1
  O  O26  1  0.79841100  0.05600900  0.13518200  1
  O  O27  1  0.94399100  0.20158900  0.36481800  1
  O  O28  1  0.07834800  0.92165200  0.75000000  1
  O  O29  1  0.92165200  0.07834800  0.25000000  1
  O  O30  1  0.72223600  0.58767400  0.65792900  1
  O  O31  1  0.41232600  0.27776400  0.84207100  1
  O  O32  1  0.27776400  0.41232600  0.34207100  1
  O  O33  1  0.58767400  0.72223600  0.15792900  1
loop_
_geom_bond_atom_site_label_1
_geom_bond_atom_site_label_2
_geom_bond_distance
_geom_bond_site_symmetry_2
Cs0 O24 2.969347 1_645
Cs0 O12 3.179910 1_555
Cs0 O20 3.192526 1_655
Cs0 O8 3.312629 1_556
Cs0 O30 3.347680 1_555
Cs0 O4 3.473021 1_556
Cs0 O28 3.530608 1_645
Cs0 O11 3.588413 1_555
Cs0 O26 3.677805 1_556
Cs1 O25 2.969347 1_645
Cs1 O13 3.179910 1_555
Cs1 O21 3.192526 1_545
Cs1 O9 3.312629 1_555
Cs1 O31 3.347680 1_555
Cs1 O5 3.473021 1_555
Cs1 O28 3.530608 1_645
Cs1 O10 3.588413 1_555
Cs1 O27 3.677805 1_555
Cs2 O26 2.969347 1_465
Cs2 O14 3.179910 1_555
Cs2 O22 3.192526 1_455
Cs2 O10 3.312629 1_554
Cs2 O32 3.347680 1_555
Cs2 O6 3.473021 1_554
Cs2 O29 3.530608 1_465
Cs2 O9 3.588413 1_555
Cs2 O24 3.677805 1_554
Cs3 O27 2.969347 1_465
Cs3 O15 3.179910 1_555
Cs3 O23 3.192526 1_565
Cs3 O11 3.312629 1_555
Cs3 O33 3.347680 1_555
Cs3 O7 3.473021 1_555
Cs3 O29 3.530608 1_465
Cs3 O8 3.588413 1_555
Cs3 O25 3.677805 1_555
K0 O0 2.659449 1_655
K0 O1 2.713557 1_555
K0 O4 2.779612 1_556
K0 O30 2.839855 1_555
K0 O12 2.990794 1_555
K0 O16 2.995826 1_555
K0 O20 3.138049 1_655
K0 O6 3.168713 1_655
K0 O21 3.217865 1_555
K1 O1 2.659449 1_545
K1 O0 2.713557 1_555
K1 O5 2.779612 1_555
K1 O31 2.839855 1_555
K1 O13 2.990794 1_555
K1 O17 2.995826 1_555
K1 O21 3.138049 1_545
K1 O7 3.168713 1_545
K1 O20 3.217865 1_555
K2 O2 2.659449 1_455
K2 O3 2.713557 1_555
K2 O6 2.779612 1_554
K2 O32 2.839855 1_555
K2 O14 2.990794 1_555
K2 O18 2.995826 1_555
K2 O22 3.138049 1_455
K2 O4 3.168713 1_455
K2 O23 3.217865 1_555
K3 O3 2.659449 1_565
K3 O2 2.713557 1_555
K3 O7 2.779612 1_555
K3 O33 2.839855 1_555
K3 O15 2.990794 1_555
K3 O19 2.995826 1_555
K3 O23 3.138049 1_565
K3 O5 3.168713 1_565
K3 O22 3.217865 1_555
B0 O24 1.366693 1_555
B0 O11 1.370984 1_555
B0 O28 1.397579 1_555
B1 O25 1.366693 1_555
B1 O10 1.370984 1_555
B1 O28 1.397579 1_555
B2 O26 1.366693 1_555
B2 O9 1.370984 1_555
B2 O29 1.397579 1_555
B3 O27 1.366693 1_555
B3 O8 1.370984 1_555
B3 O29 1.397579 1_555
B4 O4 1.374850 1_455
B4 O20 1.375360 1_554
B4 O18 1.400921 1_555
B5 O5 1.374850 1_565
B5 O21 1.375360 1_555
B5 O19 1.400921 1_555
B6 O6 1.374850 1_655
B6 O22 1.375360 1_556
B6 O16 1.400921 1_555
B7 O7 1.374850 1_545
B7 O23 1.375360 1_555
B7 O17 1.400921 1_555
B8 O12 1.365944 1_554
B8 O33 1.367328 1_555
B8 O18 1.410684 1_565
B9 O13 1.365944 1_555
B9 O32 1.367328 1_555
B9 O19 1.410684 1_455
B10 O14 1.365944 1_556
B10 O31 1.367328 1_555
B10 O16 1.410684 1_545
B11 O15 1.365944 1_555
B11 O30 1.367328 1_555
B11 O17 1.410684 1_655
B12 O1 1.442289 1_555
B12 O24 1.499989 1_555
B12 O20 1.505173 1_565
B12 O12 1.505690 1_555
B13 O0 1.442289 1_555
B13 O25 1.499989 1_555
B13 O21 1.505173 1_455
B13 O13 1.505690 1_555
B14 O3 1.442289 1_555
B14 O26 1.499989 1_555
B14 O22 1.505173 1_545
B14 O14 1.505690 1_555
B15 O2 1.442289 1_555
B15 O27 1.499989 1_555
B15 O23 1.505173 1_655
B15 O15 1.505690 1_555
B16 O1 1.452842 1_555
B16 O30 1.490898 1_555
B16 O11 1.500253 1_555
B16 O7 1.508449 1_555
B17 O0 1.452842 1_555
B17 O31 1.490898 1_555
B17 O10 1.500253 1_555
B17 O6 1.508449 1_555
B18 O3 1.452842 1_555
B18 O32 1.490898 1_555
B18 O9 1.500253 1_555
B18 O5 1.508449 1_555
B19 O2 1.452842 1_555
B19 O33 1.490898 1_555
B19 O8 1.500253 1_555
B19 O4 1.508449 1_555
