# generated using pymatgen
data_SrBiAu2
_symmetry_space_group_name_H-M   'P 1'
_cell_length_a   12.47516316
_cell_length_b   12.47516316
_cell_length_c   12.47516316
_cell_angle_alpha   125.62834985
_cell_angle_beta   118.09222295
_cell_angle_gamma   86.93795327
_symmetry_Int_Tables_number   1
_chemical_formula_structural   SrBiAu2
_chemical_formula_sum   'Sr1 Bi1 Au2'
_cell_volume   1324.46707023
_cell_formula_units_Z   1
loop_
 _symmetry_equiv_pos_site_id
 _symmetry_equiv_pos_as_xyz
  1  'x, y, z'
loop_
 _atom_site_type_symbol
 _atom_site_label
 _atom_site_symmetry_multiplicity
 _atom_site_fract_x
 _atom_site_fract_y
 _atom_site_fract_z
 _atom_site_occupancy
  Sr  Sr0  1  0.00000000  0.00000000  0.00000000  1
  Bi  Bi0  1  0.00000000  0.50000000  0.50000000  1
  Au  Au0  1  0.00000000  0.25369000  0.25369000  1
  Au  Au1  1  0.00000000  0.74631000  0.74631000  1
loop_
_geom_bond_atom_site_label_1
_geom_bond_atom_site_label_2
_geom_bond_distance
_geom_bond_site_symmetry_2
Au0 Bi0 2.807750 1_555
Au0 Sr0 2.891876 1_555
Au1 Bi0 2.807750 1_555
Au1 Sr0 2.891876 1_566
