# generated using pymatgen
data_Ti2CrRh
_symmetry_space_group_name_H-M   'P 1'
_cell_length_a   10.03641201
_cell_length_b   10.03641201
_cell_length_c   10.03641201
_cell_angle_alpha   120.90048286
_cell_angle_beta   120.75010914
_cell_angle_gamma   88.57644265
_symmetry_Int_Tables_number   1
_chemical_formula_structural   Ti2CrRh
_chemical_formula_sum   'Ti2 Cr1 Rh1'
_cell_volume   705.70379038
_cell_formula_units_Z   1
loop_
 _symmetry_equiv_pos_site_id
 _symmetry_equiv_pos_as_xyz
  1  'x, y, z'
loop_
 _atom_site_type_symbol
 _atom_site_label
 _atom_site_symmetry_multiplicity
 _atom_site_fract_x
 _atom_site_fract_y
 _atom_site_fract_z
 _atom_site_occupancy
  Ti  Ti0  1  0.00000000  0.27857000  0.27857000  1
  Ti  Ti1  1  0.00000000  0.72143000  0.72143000  1
  Cr  Cr0  1  0.00000000  0.00000000  0.00000000  1
  Rh  Rh0  1  0.00000000  0.50000000  0.50000000  1
loop_
_geom_bond_atom_site_label_1
_geom_bond_atom_site_label_2
_geom_bond_distance
_geom_bond_site_symmetry_2
Cr0 Ti0 2.757704 1_555
Cr0 Ti1 2.757704 1_544
Rh0 Ti0 2.192046 1_555
Rh0 Ti1 2.192046 1_555
