# generated using pymatgen
data_YbRhO3
_symmetry_space_group_name_H-M   'P 1'
_cell_length_a   5.27023700
_cell_length_b   5.64609100
_cell_length_c   7.60758200
_cell_angle_alpha   90.00000000
_cell_angle_beta   90.00000000
_cell_angle_gamma   90.00000000
_symmetry_Int_Tables_number   1
_chemical_formula_structural   YbRhO3
_chemical_formula_sum   'Yb4 Rh4 O12'
_cell_volume   226.37301827
_cell_formula_units_Z   4
loop_
 _symmetry_equiv_pos_site_id
 _symmetry_equiv_pos_as_xyz
  1  'x, y, z'
loop_
 _atom_site_type_symbol
 _atom_site_label
 _atom_site_symmetry_multiplicity
 _atom_site_fract_x
 _atom_site_fract_y
 _atom_site_fract_z
 _atom_site_occupancy
  Yb  Yb0  1  0.02219500  0.42739800  0.25000000  1
  Yb  Yb1  1  0.97780500  0.57260200  0.75000000  1
  Yb  Yb2  1  0.52219500  0.07260200  0.75000000  1
  Yb  Yb3  1  0.47780500  0.92739800  0.25000000  1
  Rh  Rh0  1  0.00000000  0.00000000  0.00000000  1
  Rh  Rh1  1  0.50000000  0.50000000  0.00000000  1
  Rh  Rh2  1  0.00000000  0.00000000  0.50000000  1
  Rh  Rh3  1  0.50000000  0.50000000  0.50000000  1
  O  O0  1  0.31313500  0.19462100  0.05600900  1
  O  O1  1  0.68686500  0.80537900  0.94399100  1
  O  O2  1  0.81313500  0.30537900  0.94399100  1
  O  O3  1  0.68686500  0.80537900  0.55600900  1
  O  O4  1  0.18686500  0.69462100  0.05600900  1
  O  O5  1  0.31313500  0.19462100  0.44399100  1
  O  O6  1  0.18686500  0.69462100  0.44399100  1
  O  O7  1  0.81313500  0.30537900  0.55600900  1
  O  O8  1  0.61318600  0.53976900  0.25000000  1
  O  O9  1  0.38681400  0.46023100  0.75000000  1
  O  O10  1  0.11318600  0.96023100  0.75000000  1
  O  O11  1  0.88681400  0.03976900  0.25000000  1
loop_
_geom_bond_atom_site_label_1
_geom_bond_atom_site_label_2
_geom_bond_distance
_geom_bond_site_symmetry_2
O0 Rh0 2.027929 1_555
O0 Rh1 2.030834 1_555
O0 Yb3 2.282001 1_545
O0 Yb0 2.501280 1_555
O0 Yb2 2.666104 1_554
O1 Rh0 2.027929 1_666
O1 Rh1 2.030834 1_556
O1 Yb2 2.282001 1_565
O1 Yb1 2.501280 1_555
O1 Yb3 2.666104 1_556
O2 Rh1 2.027929 1_556
O2 Rh0 2.030834 1_656
O2 Yb1 2.282001 1_555
O2 Yb2 2.501280 1_555
O2 Yb0 2.666104 1_656
O3 Rh2 2.027929 1_665
O3 Rh3 2.030834 1_555
O3 Yb2 2.282001 1_565
O3 Yb1 2.501280 1_555
O3 Yb3 2.666104 1_555
O4 Rh1 2.027929 1_555
O4 Rh0 2.030834 1_565
O4 Yb0 2.282001 1_555
O4 Yb3 2.501280 1_555
O4 Yb1 2.666104 1_454
O5 Rh2 2.027929 1_555
O5 Rh3 2.030834 1_555
O5 Yb3 2.282001 1_545
O5 Yb0 2.501280 1_555
O5 Yb2 2.666104 1_555
O6 Rh3 2.027929 1_555
O6 Rh2 2.030834 1_565
O6 Yb0 2.282001 1_555
O6 Yb3 2.501280 1_555
O6 Yb1 2.666104 1_455
O7 Rh3 2.027929 1_555
O7 Rh2 2.030834 1_655
O7 Yb1 2.282001 1_555
O7 Yb2 2.501280 1_555
O7 Yb0 2.666104 1_655
O8 Rh1 2.005856 1_555
O8 Rh3 2.005856 1_555
O8 Yb0 2.247006 1_655
O8 Yb3 2.301953 1_555
O9 Rh1 2.005856 1_556
O9 Rh3 2.005856 1_555
O9 Yb1 2.247006 1_455
O9 Yb2 2.301953 1_555
O10 Rh2 2.005856 1_565
O10 Rh0 2.005856 1_566
O10 Yb2 2.247006 1_565
O10 Yb1 2.301953 1_455
O11 Rh2 2.005856 1_655
O11 Rh0 2.005856 1_655
O11 Yb3 2.247006 1_545
O11 Yb0 2.301953 1_655
