# generated using pymatgen
data_CaLa
_symmetry_space_group_name_H-M   'P 1'
_cell_length_a   7.55391946
_cell_length_b   7.55391946
_cell_length_c   12.59992800
_cell_angle_alpha   90.00000000
_cell_angle_beta   90.00000000
_cell_angle_gamma   119.99999531
_symmetry_Int_Tables_number   1
_chemical_formula_structural   CaLa
_chemical_formula_sum   'Ca8 La8'
_cell_volume   622.64917400
_cell_formula_units_Z   8
loop_
 _symmetry_equiv_pos_site_id
 _symmetry_equiv_pos_as_xyz
  1  'x, y, z'
loop_
 _atom_site_type_symbol
 _atom_site_label
 _atom_site_symmetry_multiplicity
 _atom_site_fract_x
 _atom_site_fract_y
 _atom_site_fract_z
 _atom_site_occupancy
  Ca  Ca0_0  1  0.00000000  0.00000000  0.25000000  1
  Ca  Ca0_1  1  0.00000000  0.00000000  0.75000000  1
  Ca  Ca0_2  1  0.00000000  0.50000000  0.25000000  1
  Ca  Ca0_3  1  0.00000000  0.50000000  0.75000000  1
  Ca  Ca0_4  1  0.50000000  1.00000000  0.25000000  1
  Ca  Ca0_5  1  0.50000000  1.00000000  0.75000000  1
  Ca  Ca0_6  1  0.50000000  0.50000000  0.25000000  1
  Ca  Ca0_7  1  0.50000000  0.50000000  0.75000000  1
  La  La0_0  1  0.33333350  0.16666650  0.00000000  1
  La  La0_1  1  0.33333350  0.16666650  0.50000000  1
  La  La0_2  1  0.33333350  0.66666650  0.00000000  1
  La  La0_3  1  0.33333350  0.66666650  0.50000000  1
  La  La0_4  1  0.83333350  0.16666650  0.00000000  1
  La  La0_5  1  0.83333350  0.16666650  0.50000000  1
  La  La0_6  1  0.83333350  0.66666650  0.00000000  1
  La  La0_7  1  0.83333350  0.66666650  0.50000000  1
loop_
_geom_bond_atom_site_label_1
_geom_bond_atom_site_label_2
_geom_bond_distance
_geom_bond_site_symmetry_2
Ca0_0 Ca0_2 3.776960 1_555
Ca0_0 Ca0_4 3.776960 1_445
Ca0_0 Ca0_4 3.776960 1_545
Ca0_0 Ca0_2 3.776960 1_545
Ca0_0 Ca0_6 3.776960 1_555
Ca0_0 Ca0_6 3.776960 1_445
Ca0_0 La0_5 3.831125 1_455
Ca0_0 La0_4 3.831125 1_455
Ca0_0 La0_0 3.831127 1_555
Ca0_0 La0_1 3.831127 1_555
Ca0_0 La0_7 3.831127 1_445
Ca0_0 La0_6 3.831127 1_445
Ca0_1 Ca0_3 3.776960 1_555
Ca0_1 Ca0_5 3.776960 1_445
Ca0_1 Ca0_5 3.776960 1_545
Ca0_1 Ca0_3 3.776960 1_545
Ca0_1 Ca0_7 3.776960 1_555
Ca0_1 Ca0_7 3.776960 1_445
Ca0_1 La0_4 3.831125 1_456
Ca0_1 La0_5 3.831125 1_455
Ca0_1 La0_0 3.831127 1_556
Ca0_1 La0_1 3.831127 1_555
Ca0_1 La0_7 3.831127 1_445
Ca0_1 La0_6 3.831127 1_446
Ca0_2 Ca0_6 3.776960 1_455
Ca0_2 Ca0_6 3.776960 1_555
Ca0_2 Ca0_4 3.776960 1_555
Ca0_2 Ca0_4 3.776960 1_445
Ca0_2 La0_7 3.831125 1_455
Ca0_2 La0_6 3.831125 1_455
Ca0_2 La0_2 3.831127 1_555
Ca0_2 La0_4 3.831127 1_455
Ca0_2 La0_3 3.831127 1_555
Ca0_2 La0_5 3.831127 1_455
Ca0_3 Ca0_7 3.776960 1_455
Ca0_3 Ca0_7 3.776960 1_555
Ca0_3 Ca0_5 3.776960 1_555
Ca0_3 Ca0_5 3.776960 1_445
Ca0_3 La0_7 3.831125 1_455
Ca0_3 La0_6 3.831125 1_456
Ca0_3 La0_2 3.831127 1_556
Ca0_3 La0_3 3.831127 1_555
Ca0_3 La0_4 3.831127 1_456
Ca0_3 La0_5 3.831127 1_455
Ca0_4 Ca0_6 3.776960 1_565
Ca0_4 Ca0_6 3.776960 1_555
Ca0_4 La0_0 3.831125 1_565
Ca0_4 La0_1 3.831125 1_565
Ca0_4 La0_4 3.831127 1_565
Ca0_4 La0_2 3.831127 1_555
Ca0_4 La0_3 3.831127 1_555
Ca0_4 La0_5 3.831127 1_565
Ca0_5 Ca0_7 3.776960 1_565
Ca0_5 Ca0_7 3.776960 1_555
Ca0_5 La0_0 3.831125 1_566
Ca0_5 La0_1 3.831125 1_565
Ca0_5 La0_2 3.831127 1_556
Ca0_5 La0_3 3.831127 1_555
Ca0_5 La0_5 3.831127 1_565
Ca0_5 La0_4 3.831127 1_566
Ca0_6 La0_2 3.831125 1_555
Ca0_6 La0_3 3.831125 1_555
Ca0_6 La0_0 3.831127 1_555
Ca0_6 La0_1 3.831127 1_555
Ca0_6 La0_7 3.831127 1_555
Ca0_6 La0_6 3.831127 1_555
Ca0_7 La0_2 3.831125 1_556
Ca0_7 La0_3 3.831125 1_555
Ca0_7 La0_1 3.831127 1_555
Ca0_7 La0_0 3.831127 1_556
Ca0_7 La0_6 3.831127 1_556
Ca0_7 La0_7 3.831127 1_555
La0_0 La0_2 3.776960 1_555
La0_0 La0_4 3.776960 1_555
La0_0 La0_4 3.776960 1_455
La0_0 La0_2 3.776960 1_545
La0_0 La0_6 3.776960 1_555
La0_0 La0_6 3.776960 1_445
La0_1 La0_3 3.776960 1_555
La0_1 La0_5 3.776960 1_455
La0_1 La0_5 3.776960 1_555
La0_1 La0_3 3.776960 1_545
La0_1 La0_7 3.776960 1_555
La0_1 La0_7 3.776960 1_445
La0_2 La0_6 3.776960 1_555
La0_2 La0_6 3.776960 1_455
La0_2 La0_4 3.776960 1_565
La0_2 La0_4 3.776960 1_455
La0_3 La0_7 3.776960 1_555
La0_3 La0_7 3.776960 1_455
La0_3 La0_5 3.776960 1_565
La0_3 La0_5 3.776960 1_455
La0_4 La0_6 3.776960 1_555
La0_4 La0_6 3.776960 1_545
La0_5 La0_7 3.776960 1_555
La0_5 La0_7 3.776960 1_545
