# generated using pymatgen
data_VZnPbO5
_symmetry_space_group_name_H-M   'P 1'
_cell_length_a   6.06231600
_cell_length_b   7.85950600
_cell_length_c   9.41839700
_cell_angle_alpha   90.00000000
_cell_angle_beta   90.00000000
_cell_angle_gamma   90.00000000
_symmetry_Int_Tables_number   1
_chemical_formula_structural   VZnPbO5
_chemical_formula_sum   'V4 Zn4 Pb4 O20'
_cell_volume   448.75656272
_cell_formula_units_Z   4
loop_
 _symmetry_equiv_pos_site_id
 _symmetry_equiv_pos_as_xyz
  1  'x, y, z'
loop_
 _atom_site_type_symbol
 _atom_site_label
 _atom_site_symmetry_multiplicity
 _atom_site_fract_x
 _atom_site_fract_y
 _atom_site_fract_z
 _atom_site_occupancy
  V  V0  1  0.49463900  0.11247900  0.81298000  1
  V  V1  1  0.00536100  0.88752100  0.31298000  1
  V  V2  1  0.50536100  0.61247900  0.68702000  1
  V  V3  1  0.99463900  0.38752100  0.18702000  1
  Zn  Zn0  1  0.24987900  0.75106300  0.99834500  1
  Zn  Zn1  1  0.25012100  0.24893700  0.49834500  1
  Zn  Zn2  1  0.75012100  0.25106300  0.50165500  1
  Zn  Zn3  1  0.74987900  0.74893700  0.00165500  1
  Pb  Pb0  1  0.99120000  0.87828500  0.67963700  1
  Pb  Pb1  1  0.50880000  0.12171500  0.17963700  1
  Pb  Pb2  1  0.00880000  0.37828500  0.82036300  1
  Pb  Pb3  1  0.49120000  0.62171500  0.32036300  1
  O  O0  1  0.50086200  0.93372200  0.92514000  1
  O  O1  1  0.99913800  0.06627800  0.42514000  1
  O  O2  1  0.49913800  0.43372200  0.57486000  1
  O  O3  1  0.00086200  0.56627800  0.07486000  1
  O  O4  1  0.47695000  0.28597500  0.91849900  1
  O  O5  1  0.02305000  0.71402500  0.41849900  1
  O  O6  1  0.52305000  0.78597500  0.58150100  1
  O  O7  1  0.97695000  0.21402500  0.08150100  1
  O  O8  1  0.74607600  0.12916500  0.71316700  1
  O  O9  1  0.75392400  0.87083500  0.21316700  1
  O  O10  1  0.25392400  0.62916500  0.78683300  1
  O  O11  1  0.24607600  0.37083500  0.28683300  1
  O  O12  1  0.25227200  0.11246000  0.70467100  1
  O  O13  1  0.24772800  0.88754000  0.20467100  1
  O  O14  1  0.74772800  0.61246000  0.79532900  1
  O  O15  1  0.75227200  0.38754000  0.29532900  1
  O  O16  1  0.99770500  0.87913600  0.92513200  1
  O  O17  1  0.50229500  0.12086400  0.42513200  1
  O  O18  1  0.00229500  0.37913600  0.57486800  1
  O  O19  1  0.49770500  0.62086400  0.07486800  1
loop_
_geom_bond_atom_site_label_1
_geom_bond_atom_site_label_2
_geom_bond_distance
_geom_bond_site_symmetry_2
O0 V0 1.758180 1_565
O0 Zn0 2.202596 1_555
O0 Zn3 2.215291 1_556
O0 Pb1 2.816168 1_566
O1 V1 1.758180 1_645
O1 Zn1 2.202596 1_655
O1 Zn2 2.215291 1_555
O1 Pb0 2.816168 1_545
O2 V2 1.758180 1_555
O2 Zn2 2.202596 1_555
O2 Zn1 2.215291 1_555
O2 Pb3 2.816168 1_555
O3 V3 1.758180 1_455
O3 Zn3 2.202596 1_455
O3 Zn0 2.215291 1_554
O3 Pb2 2.816168 1_554
O4 V0 1.690729 1_555
O4 Pb1 2.784442 1_556
O5 V1 1.690729 1_555
O5 Pb0 2.784442 1_455
O6 V2 1.690729 1_555
O6 Pb3 2.784442 1_555
O7 V3 1.690729 1_555
O7 Pb2 2.784442 1_654
O8 V0 1.795664 1_555
O8 Zn2 2.210646 1_555
O8 Pb0 2.489166 1_545
O8 Pb2 2.718395 1_655
O9 V1 1.795664 1_655
O9 Zn3 2.210646 1_555
O9 Pb1 2.489166 1_565
O9 Pb3 2.718395 1_555
O10 V2 1.795664 1_555
O10 Zn0 2.210646 1_555
O10 Pb2 2.489166 1_555
O10 Pb0 2.718395 1_455
O11 V3 1.795664 1_455
O11 Zn1 2.210646 1_555
O11 Pb3 2.489166 1_555
O11 Pb1 2.718395 1_555
O12 V0 1.788702 1_555
O12 Zn1 2.219683 1_555
O12 Pb0 2.438847 1_445
O12 Pb2 2.780444 1_555
O13 V1 1.788702 1_555
O13 Zn0 2.219683 1_554
O13 Pb1 2.438847 1_565
O13 Pb3 2.780444 1_555
O14 V2 1.788702 1_555
O14 Zn3 2.219683 1_556
O14 Pb2 2.438847 1_655
O14 Pb0 2.780444 1_555
O15 V3 1.788702 1_555
O15 Zn2 2.219683 1_555
O15 Pb3 2.438847 1_555
O15 Pb1 2.780444 1_555
O16 Zn3 1.955451 1_556
O16 Zn0 1.955966 1_655
O16 Pb0 2.312515 1_555
O17 Zn2 1.955451 1_555
O17 Zn1 1.955966 1_555
O17 Pb1 2.312515 1_555
O18 Zn1 1.955451 1_555
O18 Zn2 1.955966 1_455
O18 Pb2 2.312515 1_555
O19 Zn0 1.955451 1_554
O19 Zn3 1.955966 1_555
O19 Pb3 2.312515 1_555
