# generated using pymatgen
data_La4Mn(NiO4)3
_symmetry_space_group_name_H-M   'P 1'
_cell_length_a   5.45476500
_cell_length_b   5.45690977
_cell_length_c   9.57018608
_cell_angle_alpha   91.26959409
_cell_angle_beta   105.88103498
_cell_angle_gamma   118.72322138
_symmetry_Int_Tables_number   1
_chemical_formula_structural   La4Mn(NiO4)3
_chemical_formula_sum   'La4 Mn1 Ni3 O12'
_cell_volume   236.25926329
_cell_formula_units_Z   1
loop_
 _symmetry_equiv_pos_site_id
 _symmetry_equiv_pos_as_xyz
  1  'x, y, z'
loop_
 _atom_site_type_symbol
 _atom_site_label
 _atom_site_symmetry_multiplicity
 _atom_site_fract_x
 _atom_site_fract_y
 _atom_site_fract_z
 _atom_site_occupancy
  La  La0  1  0.25203200  0.62713100  0.87909200  1
  La  La1  1  0.24713100  0.12400100  0.37131400  1
  La  La2  1  0.75286900  0.87599900  0.62868600  1
  La  La3  1  0.74796800  0.37286900  0.12090800  1
  Mn  Mn0  1  0.00000000  0.50000000  0.50000000  1
  Ni  Ni0  1  0.49761900  0.24844700  0.74877400  1
  Ni  Ni1  1  0.50238100  0.75155300  0.25122600  1
  Ni  Ni2  1  0.00000000  0.00000000  0.00000000  1
  O  O0  1  0.81742500  0.18658900  0.87846100  1
  O  O1  1  0.82421300  0.69097900  0.38093500  1
  O  O2  1  0.68805200  0.34788600  0.58750500  1
  O  O3  1  0.69390600  0.84887200  0.09174600  1
  O  O4  1  0.23917900  0.83018300  0.65556500  1
  O  O5  1  0.24328900  0.33751500  0.15340200  1
  O  O6  1  0.30609400  0.15112800  0.90825400  1
  O  O7  1  0.31194800  0.65211400  0.41249500  1
  O  O8  1  0.75671100  0.66248500  0.84659800  1
  O  O9  1  0.76082100  0.16981700  0.34443500  1
  O  O10  1  0.17578700  0.30902100  0.61906500  1
  O  O11  1  0.18257500  0.81341100  0.12153900  1
loop_
_geom_bond_atom_site_label_1
_geom_bond_atom_site_label_2
_geom_bond_distance
_geom_bond_site_symmetry_2
La0 O3 2.412177 1_556
La0 O4 2.430317 1_555
La0 O0 2.431695 1_455
La0 O11 2.703187 1_556
La0 O6 2.729500 1_565
La0 O8 2.734557 1_455
La0 O6 2.763188 1_555
La0 O8 2.770039 1_555
La0 O10 2.815532 1_555
La1 O1 2.408402 1_445
La1 O5 2.411290 1_555
La1 O2 2.428639 1_555
La1 O9 2.726240 1_455
La1 O7 2.734876 1_555
La1 O11 2.738008 1_545
La1 O10 2.751205 1_555
La1 O9 2.775643 1_555
La1 O7 2.784775 1_545
La2 O10 2.408402 1_665
La2 O8 2.411290 1_555
La2 O7 2.428639 1_555
La2 O4 2.726240 1_655
La2 O2 2.734876 1_555
La2 O0 2.738008 1_565
La2 O1 2.751205 1_555
La2 O4 2.775643 1_555
La2 O2 2.784775 1_565
La3 O6 2.412177 1_554
La3 O9 2.430317 1_555
La3 O11 2.431695 1_655
La3 O0 2.703187 1_554
La3 O3 2.729500 1_545
La3 O5 2.734557 1_655
La3 O3 2.763188 1_555
La3 O5 2.770039 1_555
La3 O1 2.815532 1_555
Mn0 O10 1.928489 1_555
Mn0 O1 1.928489 1_455
Mn0 O4 1.929699 1_555
Mn0 O9 1.929699 1_455
Mn0 O2 1.933613 1_455
Mn0 O7 1.933613 1_555
Ni0 O6 2.019462 1_555
Ni0 O8 2.022777 1_555
Ni0 O0 2.024136 1_555
Ni0 O10 2.028625 1_555
Ni0 O4 2.030139 1_545
Ni0 O2 2.031806 1_555
Ni1 O3 2.019462 1_555
Ni1 O5 2.022777 1_555
Ni1 O11 2.024136 1_555
Ni1 O1 2.028625 1_555
Ni1 O9 2.030139 1_565
Ni1 O7 2.031806 1_555
Ni2 O6 1.936434 1_554
Ni2 O3 1.936434 1_445
Ni2 O5 1.942491 1_555
Ni2 O8 1.942491 1_444
Ni2 O11 1.942842 1_545
Ni2 O0 1.942842 1_454
