# generated using pymatgen
data_Ba3TaOF9
_symmetry_space_group_name_H-M   'P 1'
_cell_length_a   13.96688668
_cell_length_b   13.96688668
_cell_length_c   6.36344600
_cell_angle_alpha   90.00000000
_cell_angle_beta   90.00000000
_cell_angle_gamma   153.67918984
_symmetry_Int_Tables_number   1
_chemical_formula_structural   Ba3TaOF9
_chemical_formula_sum   'Ba6 Ta2 O2 F18'
_cell_volume   550.40720174
_cell_formula_units_Z   2
loop_
 _symmetry_equiv_pos_site_id
 _symmetry_equiv_pos_as_xyz
  1  'x, y, z'
loop_
 _atom_site_type_symbol
 _atom_site_label
 _atom_site_symmetry_multiplicity
 _atom_site_fract_x
 _atom_site_fract_y
 _atom_site_fract_z
 _atom_site_occupancy
  Ba  Ba0  1  0.04752300  0.95247700  0.75000000  1
  Ba  Ba1  1  0.95247700  0.04752300  0.25000000  1
  Ba  Ba2  1  0.68166500  0.31833500  0.75000000  1
  Ba  Ba3  1  0.31833500  0.68166500  0.25000000  1
  Ba  Ba4  1  0.45458600  0.54541400  0.75000000  1
  Ba  Ba5  1  0.54541400  0.45458600  0.25000000  1
  Ta  Ta0  1  0.83763500  0.16236500  0.75000000  1
  Ta  Ta1  1  0.16236500  0.83763500  0.25000000  1
  O  O0  1  0.75591600  0.75591600  0.50000000  1
  O  O1  1  0.24408400  0.24408400  0.00000000  1
  F  F0  1  0.90960500  0.09039500  0.75000000  1
  F  F1  1  0.09039500  0.90960500  0.25000000  1
  F  F2  1  0.64594700  0.92546200  0.96250400  1
  F  F3  1  0.92546200  0.64594700  0.03749600  1
  F  F4  1  0.62155900  0.94647300  0.53457000  1
  F  F5  1  0.94647300  0.62155900  0.46543000  1
  F  F6  1  0.37844100  0.05352700  0.03457000  1
  F  F7  1  0.05352700  0.37844100  0.96543000  1
  F  F8  1  0.35405300  0.07453800  0.46250400  1
  F  F9  1  0.07453800  0.35405300  0.53749600  1
  F  F10  1  0.59335000  0.40665000  0.75000000  1
  F  F11  1  0.40665000  0.59335000  0.25000000  1
  F  F12  1  0.64685300  0.09062000  0.88519300  1
  F  F13  1  0.09062000  0.64685300  0.11480700  1
  F  F14  1  0.35314700  0.90938000  0.38519300  1
  F  F15  1  0.90938000  0.35314700  0.61480700  1
  F  F16  1  0.75207300  0.75207300  0.00000000  1
  F  F17  1  0.24792700  0.24792700  0.50000000  1
loop_
_geom_bond_atom_site_label_1
_geom_bond_atom_site_label_2
_geom_bond_distance
_geom_bond_site_symmetry_2
Ba0 O0 2.571290 1_455
Ba0 O1 2.571290 1_566
Ba0 F16 2.586119 1_456
Ba0 F17 2.586119 1_565
Ba1 O0 2.571290 1_545
Ba1 O1 2.571290 1_655
Ba1 F16 2.586119 1_545
Ba1 F17 2.586119 1_655
Ba2 F10 2.402180 1_555
Ba2 F5 2.610537 1_555
Ba2 F6 2.610537 1_556
Ba2 F3 2.819215 1_556
Ba2 F8 2.819215 1_555
Ba2 F12 2.884398 1_555
Ba2 F15 2.884398 1_555
Ba3 F11 2.402180 1_555
Ba3 F4 2.610537 1_555
Ba3 F7 2.610537 1_554
Ba3 F2 2.819215 1_554
Ba3 F9 2.819215 1_555
Ba3 F14 2.884398 1_555
Ba3 F13 2.884398 1_555
Ba4 F16 2.574267 1_556
Ba4 F17 2.574267 1_555
Ba4 O0 2.589558 1_555
Ba4 O1 2.589558 1_556
Ba5 F16 2.574267 1_555
Ba5 F17 2.574267 1_555
Ba5 O0 2.589558 1_555
Ba5 O1 2.589558 1_555
F0 Ta0 1.957594 1_555
F1 Ta1 1.957594 1_555
F2 Ta0 2.015994 1_565
F3 Ta1 2.015994 1_655
F4 Ta0 1.940668 1_565
F5 Ta1 1.940668 1_655
F6 Ta1 1.940668 1_545
F7 Ta0 1.940668 1_455
F8 Ta1 2.015994 1_545
F9 Ta0 2.015994 1_455
F12 Ta0 2.014425 1_555
F13 Ta1 2.014425 1_555
F14 Ta1 2.014425 1_555
F15 Ta0 2.014425 1_555
