# generated using pymatgen
data_Mn5Cu(Te2O5)6
_symmetry_space_group_name_H-M   'P 1'
_cell_length_a   8.94230843
_cell_length_b   15.83750271
_cell_length_c   22.14869529
_cell_angle_alpha   88.23025654
_cell_angle_beta   89.13774085
_cell_angle_gamma   90.60318589
_symmetry_Int_Tables_number   1
_chemical_formula_structural   Mn5Cu(Te2O5)6
_chemical_formula_sum   'Mn20 Cu4 Te48 O120'
_cell_volume   3134.74226875
_cell_formula_units_Z   4
loop_
 _symmetry_equiv_pos_site_id
 _symmetry_equiv_pos_as_xyz
  1  'x, y, z'
loop_
 _atom_site_type_symbol
 _atom_site_label
 _atom_site_symmetry_multiplicity
 _atom_site_fract_x
 _atom_site_fract_y
 _atom_site_fract_z
 _atom_site_occupancy
  Mn  Mn0  1  0.24978000  0.74947400  0.74970500  1
  Mn  Mn1  1  0.25018200  0.41609300  0.08307700  1
  Mn  Mn2  1  0.25003900  0.08282600  0.41638100  1
  Mn  Mn3  1  0.74989500  0.91655700  0.58327600  1
  Mn  Mn4  1  0.75000900  0.58213700  0.91611600  1
  Mn  Mn5  1  0.75007000  0.24985000  0.24992800  1
  Mn  Mn6  1  0.75008400  0.58357800  0.41679100  1
  Mn  Mn7  1  0.75001400  0.25110400  0.75055700  1
  Mn  Mn8  1  0.74996500  0.91682000  0.08342800  1
  Mn  Mn9  1  0.24989600  0.41728100  0.58362900  1
  Mn  Mn10  1  0.24997600  0.08382500  0.91703600  1
  Mn  Mn11  1  0.25007100  0.75055800  0.25026200  1
  Mn  Mn12  1  0.75002800  0.08332600  0.16667800  1
  Mn  Mn13  1  0.75007100  0.75003000  0.50001400  1
  Mn  Mn14  1  0.75005600  0.74969000  0.99988800  1
  Mn  Mn15  1  0.75003600  0.41669400  0.33328400  1
  Mn  Mn16  1  0.74994700  0.08362200  0.66684400  1
  Mn  Mn17  1  0.24998300  0.58330800  0.16641300  1
  Mn  Mn18  1  0.25014100  0.25001900  0.50021500  1
  Mn  Mn19  1  0.24971200  0.91660800  0.83341600  1
  Cu  Cu0  1  0.24966000  0.24985100  0.00009100  1
  Cu  Cu1  1  0.25008700  0.91667400  0.33337400  1
  Cu  Cu2  1  0.25048800  0.58346800  0.66657900  1
  Cu  Cu3  1  0.74998400  0.41667300  0.83330500  1
  Te  Te0  1  0.57067600  0.42330000  0.69517400  1
  Te  Te1  1  0.56620000  0.08905200  0.02756300  1
  Te  Te2  1  0.56624700  0.75571300  0.36092000  1
  Te  Te3  1  0.43222200  0.59057000  0.52763400  1
  Te  Te4  1  0.43096800  0.25720600  0.86136400  1
  Te  Te5  1  0.43222800  0.92395300  0.19424700  1
  Te  Te6  1  0.06783600  0.73373400  0.38456700  1
  Te  Te7  1  0.06895900  0.40096100  0.71769800  1
  Te  Te8  1  0.06778800  0.06699400  0.05118900  1
  Te  Te9  1  0.93381500  0.56641300  0.55028000  1
  Te  Te10  1  0.92930700  0.23469800  0.88378200  1
  Te  Te11  1  0.93368400  0.89974300  0.21690700  1
  Te  Te12  1  0.53653100  0.76449700  0.85032600  1
  Te  Te13  1  0.53530000  0.43215700  0.18395600  1
  Te  Te14  1  0.53538700  0.09900900  0.51751000  1
  Te  Te15  1  0.46214500  0.93108000  0.68426700  1
  Te  Te16  1  0.46231900  0.59775100  0.01728900  1
  Te  Te17  1  0.46216100  0.26463900  0.35078200  1
  Te  Te18  1  0.03785300  0.05592000  0.55957200  1
  Te  Te19  1  0.03760500  0.72244200  0.89278000  1
  Te  Te20  1  0.03788300  0.38927200  0.22594400  1
  Te  Te21  1  0.96471300  0.88959300  0.72692000  1
  Te  Te22  1  0.96346100  0.55529200  0.05957100  1
  Te  Te23  1  0.96465300  0.22275800  0.39347900  1
  Te  Te24  1  0.43612700  0.24469500  0.64044100  1
  Te  Te25  1  0.43591700  0.91047700  0.97289700  1
  Te  Te26  1  0.43581300  0.57735900  0.30627200  1
  Te  Te27  1  0.56249000  0.07738700  0.80751200  1
  Te  Te28  1  0.56304900  0.74369800  0.14064100  1
  Te  Te29  1  0.56332400  0.41053600  0.47407500  1
  Te  Te30  1  0.93684100  0.93559500  0.94890500  1
  Te  Te31  1  0.93681900  0.60230400  0.28224000  1
  Te  Te32  1  0.93745700  0.26913000  0.61570900  1
  Te  Te33  1  0.06384500  0.10216100  0.78288600  1
  Te  Te34  1  0.06406800  0.76741600  0.11600400  1
  Te  Te35  1  0.06425500  0.43429700  0.44942000  1
  Te  Te36  1  0.46587900  0.90017200  0.48325700  1
  Te  Te37  1  0.46709900  0.56415000  0.81734400  1
  Te  Te38  1  0.46593900  0.23342400  0.14998400  1
  Te  Te39  1  0.53581600  0.73178900  0.64982400  1
  Te  Te40  1  0.53399600  0.39799200  0.98353800  1
  Te  Te41  1  0.53550500  0.06519000  0.31651400  1
  Te  Te42  1  0.96594500  0.61075000  0.77084800  1
  Te  Te43  1  0.96421700  0.27701800  0.10451400  1
  Te  Te44  1  0.96452500  0.94381300  0.43796400  1
  Te  Te45  1  0.03407400  0.77773600  0.60564500  1
  Te  Te46  1  0.03292900  0.44451900  0.93695700  1
  Te  Te47  1  0.03407900  0.11101800  0.27230400  1
  O  O0  1  0.11750500  0.48339100  0.65485200  1
  O  O1  1  0.11439600  0.15053700  0.98890500  1
  O  O2  1  0.11471600  0.81722900  0.32227300  1
  O  O3  1  0.89530200  0.64602000  0.48609800  1
  O  O4  1  0.88391400  0.31704300  0.82118000  1
  O  O5  1  0.89513600  0.97930100  0.15269200  1
  O  O6  1  0.60473500  0.69662900  0.43539800  1
  O  O7  1  0.61595300  0.36729700  0.77096200  1
  O  O8  1  0.60471500  0.03000600  0.10202700  1
  O  O9  1  0.38565100  0.53537500  0.60410200  1
  O  O10  1  0.38257500  0.20086900  0.93727700  1
  O  O11  1  0.38525300  0.86877900  0.27071400  1
  O  O12  1  0.67078800  0.95599400  0.67643300  1
  O  O13  1  0.67113300  0.62219300  0.00963100  1
  O  O14  1  0.67092100  0.28927600  0.34305300  1
  O  O15  1  0.32866300  0.78859400  0.84345200  1
  O  O16  1  0.32747300  0.45616600  0.17713900  1
  O  O17  1  0.32766900  0.12300700  0.51042200  1
  O  O18  1  0.17251400  0.88825900  0.74522800  1
  O  O19  1  0.17135000  0.55409600  0.07788000  1
  O  O20  1  0.17234900  0.22148100  0.41183400  1
  O  O21  1  0.82911300  0.05380900  0.57861000  1
  O  O22  1  0.82882700  0.72023800  0.91164000  1
  O  O23  1  0.82921600  0.38711600  0.24510300  1
  O  O24  1  0.89705300  0.18842800  0.67972400  1
  O  O25  1  0.89674000  0.85475000  0.01285200  1
  O  O26  1  0.89681800  0.52150700  0.34623100  1
  O  O27  1  0.10145500  0.02149400  0.84654500  1
  O  O28  1  0.10225900  0.68695300  0.17964000  1
  O  O29  1  0.10225800  0.35368200  0.51297700  1
  O  O30  1  0.39765700  0.96848400  0.89804100  1
  O  O31  1  0.39797300  0.63529000  0.23136400  1
  O  O32  1  0.39868500  0.30263000  0.56541600  1
  O  O33  1  0.60281900  0.13582900  0.73236900  1
  O  O34  1  0.60317900  0.80211800  0.06546300  1
  O  O35  1  0.60318800  0.46886600  0.39886200  1
  O  O36  1  0.32772000  0.70209700  0.65854200  1
  O  O37  1  0.32575700  0.36889200  0.99287800  1
  O  O38  1  0.32737100  0.03546900  0.32509400  1
  O  O39  1  0.67390900  0.87708000  0.49094300  1
  O  O40  1  0.67460800  0.53580200  0.82590800  1
  O  O41  1  0.67397500  0.21041100  0.15757200  1
  O  O42  1  0.82606300  0.78021000  0.58776800  1
  O  O43  1  0.82540800  0.44650800  0.91519900  1
  O  O44  1  0.82602600  0.11364200  0.25439600  1
  O  O45  1  0.17418700  0.61350200  0.74829100  1
  O  O46  1  0.17227400  0.27878200  0.08185000  1
  O  O47  1  0.17267000  0.94530300  0.41528500  1
  O  O48  1  0.38050200  0.37126100  0.67884100  1
  O  O49  1  0.37663500  0.03802000  0.00994600  1
  O  O50  1  0.37653000  0.70487500  0.34323000  1
  O  O51  1  0.62156100  0.53869800  0.51100900  1
  O  O52  1  0.62005400  0.20489600  0.84474200  1
  O  O53  1  0.62157500  0.87216100  0.17769600  1
  O  O54  1  0.87852800  0.69430300  0.35549500  1
  O  O55  1  0.87991900  0.36126300  0.68835700  1
  O  O56  1  0.87842400  0.02765600  0.02218400  1
  O  O57  1  0.12348300  0.52595000  0.52214300  1
  O  O58  1  0.11948800  0.19561000  0.85452700  1
  O  O59  1  0.12332200  0.85923500  0.18877000  1
  O  O60  1  0.52013300  0.99050100  0.55842700  1
  O  O61  1  0.52454900  0.65535900  0.89122400  1
  O  O62  1  0.52024000  0.32364000  0.22497000  1
  O  O63  1  0.47394700  0.82142800  0.72434300  1
  O  O64  1  0.47319000  0.48889700  0.05800100  1
  O  O65  1  0.47380600  0.15526500  0.39089500  1
  O  O66  1  0.02667100  0.74030000  0.80663400  1
  O  O67  1  0.02622000  0.40630800  0.13950800  1
  O  O68  1  0.02617300  0.07279900  0.47322600  1
  O  O69  1  0.97977500  0.90795600  0.64090500  1
  O  O70  1  0.97543700  0.57340600  0.97318600  1
  O  O71  1  0.97982400  0.24117100  0.30746000  1
  O  O72  1  0.62706500  0.29410600  0.65933000  1
  O  O73  1  0.62620700  0.96071200  0.99039600  1
  O  O74  1  0.62618900  0.62750400  0.32383200  1
  O  O75  1  0.37216200  0.12670000  0.82668900  1
  O  O76  1  0.37359700  0.79395500  0.16000900  1
  O  O77  1  0.37361400  0.46054500  0.49334400  1
  O  O78  1  0.12641800  0.97805600  0.97594100  1
  O  O79  1  0.12644000  0.64465400  0.30919600  1
  O  O80  1  0.12778600  0.31111900  0.64224700  1
  O  O81  1  0.87291500  0.14380800  0.80959000  1
  O  O82  1  0.87374800  0.80744600  0.14362800  1
  O  O83  1  0.87386500  0.47427400  0.47710700  1
  O  O84  1  0.48664300  0.67309800  0.77676200  1
  O  O85  1  0.48151900  0.34236800  0.10957500  1
  O  O86  1  0.48152700  0.00911400  0.44290000  1
  O  O87  1  0.51697300  0.84056100  0.60966000  1
  O  O88  1  0.51538500  0.50697400  0.94337800  1
  O  O89  1  0.51670800  0.17396000  0.27626600  1
  O  O90  1  0.98312300  0.92628100  0.52388900  1
  O  O91  1  0.98450800  0.59355300  0.85689600  1
  O  O92  1  0.98326900  0.25983700  0.19045600  1
  O  O93  1  0.01852400  0.76034200  0.69176300  1
  O  O94  1  0.01329200  0.42674300  0.02313300  1
  O  O95  1  0.01855500  0.09348600  0.35840500  1
  O  O96  1  0.55291600  0.68426700  0.56569000  1
  O  O97  1  0.54628400  0.34871300  0.90128800  1
  O  O98  1  0.55276500  0.01765700  0.23242300  1
  O  O99  1  0.45581300  0.51465500  0.73528700  1
  O  O100  1  0.45461700  0.18173800  0.06827200  1
  O  O101  1  0.45461900  0.84842100  0.40163600  1
  O  O102  1  0.04541900  0.65159300  0.59852100  1
  O  O103  1  0.04412300  0.31863600  0.93133500  1
  O  O104  1  0.04526800  0.98491600  0.26508300  1
  O  O105  1  0.94725200  0.81573200  0.43427600  1
  O  O106  1  0.95361400  0.48462600  0.76544300  1
  O  O107  1  0.94720000  0.14906500  0.10099500  1
  O  O108  1  0.05430000  0.85154400  0.89867200  1
  O  O109  1  0.05401400  0.51800700  0.23190400  1
  O  O110  1  0.05415500  0.18457700  0.56525100  1
  O  O111  1  0.94728400  0.01786200  0.73294700  1
  O  O112  1  0.94794200  0.68367000  0.06544800  1
  O  O113  1  0.94748600  0.35086400  0.39915000  1
  O  O114  1  0.55275700  0.14992000  0.60095200  1
  O  O115  1  0.55205500  0.81516200  0.93395200  1
  O  O116  1  0.55256700  0.48246800  0.26746100  1
  O  O117  1  0.44588100  0.98176900  0.76800500  1
  O  O118  1  0.44568900  0.64876500  0.10133400  1
  O  O119  1  0.44592500  0.31534100  0.43474600  1
loop_
_geom_bond_atom_site_label_1
_geom_bond_atom_site_label_2
_geom_bond_distance
_geom_bond_site_symmetry_2
Mn0 O45 2.251545 1_555
Mn0 O36 2.277701 1_555
Mn0 O15 2.303716 1_555
Mn0 O18 2.310636 1_555
Mn0 O66 2.344849 1_555
Mn0 O63 2.347541 1_555
Mn0 O93 2.454950 1_555
Mn0 O84 2.521112 1_555
Mn1 O37 2.251435 1_554
Mn1 O46 2.277626 1_555
Mn1 O19 2.303580 1_555
Mn1 O16 2.310110 1_555
Mn1 O64 2.343824 1_555
Mn1 O67 2.345915 1_555
Mn1 O85 2.456078 1_555
Mn1 O94 2.521290 1_555
Mn2 O38 2.278435 1_555
Mn2 O47 2.279271 1_545
Mn2 O20 2.309881 1_555
Mn2 O17 2.311139 1_555
Mn2 O65 2.348718 1_555
Mn2 O68 2.350111 1_555
Mn2 O95 2.456882 1_555
Mn2 O86 2.457239 1_555
Mn3 O39 2.268636 1_555
Mn3 O42 2.270803 1_555
Mn3 O21 2.277959 1_565
Mn3 O12 2.278754 1_555
Mn3 O60 2.437342 1_555
Mn3 O69 2.438776 1_555
Mn3 O87 2.448583 1_555
Mn3 O90 2.449841 1_555
Mn4 O43 2.258716 1_555
Mn4 O40 2.259598 1_555
Mn4 O13 2.288355 1_556
Mn4 O22 2.289623 1_555
Mn4 O70 2.398392 1_555
Mn4 O61 2.399321 1_555
Mn4 O91 2.458646 1_555
Mn4 O88 2.459363 1_555
Mn5 O44 2.268107 1_555
Mn5 O41 2.269223 1_555
Mn5 O23 2.278018 1_555
Mn5 O14 2.278169 1_555
Mn5 O71 2.436729 1_555
Mn5 O62 2.437225 1_555
Mn5 O92 2.450765 1_555
Mn5 O89 2.450886 1_555
Mn6 O6 2.267897 1_555
Mn6 O3 2.268794 1_555
Mn6 O26 2.278336 1_555
Mn6 O35 2.278993 1_555
Mn6 O74 2.438646 1_555
Mn6 O83 2.438977 1_555
Mn6 O51 2.449459 1_555
Mn6 O54 2.449724 1_555
Mn7 O4 2.258754 1_555
Mn7 O7 2.260372 1_555
Mn7 O24 2.288470 1_555
Mn7 O33 2.288817 1_555
Mn7 O81 2.397992 1_555
Mn7 O72 2.398520 1_555
Mn7 O55 2.460048 1_555
Mn7 O52 2.460219 1_555
Mn8 O5 2.268164 1_555
Mn8 O8 2.269063 1_565
Mn8 O34 2.278471 1_555
Mn8 O25 2.278782 1_555
Mn8 O82 2.438392 1_555
Mn8 O73 2.439291 1_554
Mn8 O53 2.448942 1_555
Mn8 O56 2.450401 1_565
Mn9 O0 2.249049 1_555
Mn9 O9 2.280032 1_555
Mn9 O32 2.304351 1_555
Mn9 O29 2.310375 1_555
Mn9 O80 2.342800 1_555
Mn9 O77 2.350542 1_555
Mn9 O57 2.457027 1_555
Mn9 O48 2.517834 1_555
Mn10 O10 2.250369 1_555
Mn10 O1 2.278775 1_555
Mn10 O27 2.303478 1_555
Mn10 O30 2.310721 1_545
Mn10 O75 2.343893 1_555
Mn10 O78 2.347685 1_545
Mn10 O49 2.457443 1_556
Mn10 O58 2.520598 1_555
Mn11 O11 2.278882 1_555
Mn11 O2 2.279617 1_555
Mn11 O31 2.310511 1_555
Mn11 O28 2.310852 1_555
Mn11 O76 2.349720 1_555
Mn11 O79 2.349799 1_555
Mn11 O50 2.457135 1_555
Mn11 O59 2.458617 1_555
Mn12 O44 2.134827 1_555
Mn12 O5 2.135042 1_545
Mn12 O8 2.135336 1_555
Mn12 O41 2.135901 1_555
Mn12 O107 2.469771 1_555
Mn12 O98 2.470680 1_555
Mn13 O42 2.135008 1_555
Mn13 O3 2.135284 1_555
Mn13 O6 2.135452 1_555
Mn13 O39 2.135646 1_555
Mn13 O96 2.469728 1_555
Mn13 O105 2.470285 1_555
Mn14 O22 2.134458 1_555
Mn14 O13 2.135523 1_556
Mn14 O34 2.136357 1_556
Mn14 O25 2.136914 1_556
Mn14 O112 2.521034 1_556
Mn14 O115 2.523067 1_555
Mn15 O26 2.134349 1_555
Mn15 O35 2.134560 1_555
Mn15 O23 2.134766 1_555
Mn15 O14 2.134936 1_555
Mn15 O116 2.520148 1_555
Mn15 O113 2.520933 1_555
Mn16 O33 2.135514 1_555
Mn16 O24 2.135780 1_555
Mn16 O21 2.136739 1_555
Mn16 O12 2.137920 1_545
Mn16 O114 2.522605 1_555
Mn16 O111 2.522796 1_555
Mn17 O28 2.142197 1_555
Mn17 O16 2.143833 1_555
Mn17 O31 2.146183 1_555
Mn17 O19 2.155052 1_555
Mn17 O118 2.451261 1_555
Mn17 O109 2.457088 1_555
Mn18 O17 2.141047 1_555
Mn18 O29 2.141773 1_555
Mn18 O20 2.146882 1_555
Mn18 O32 2.157068 1_555
Mn18 O110 2.452384 1_555
Mn18 O119 2.455786 1_555
Mn19 O30 2.140277 1_555
Mn19 O18 2.140453 1_555
Mn19 O15 2.159935 1_555
Mn19 O27 2.160129 1_565
Mn19 O108 2.449170 1_555
Mn19 O117 2.456462 1_555
Cu0 O10 1.996587 1_554
Cu0 O46 1.997054 1_555
Cu0 O1 1.997861 1_554
Cu0 O37 1.998523 1_554
Cu0 O100 2.612961 1_555
Cu0 O103 2.628294 1_554
Cu1 O47 1.998965 1_555
Cu1 O11 1.999064 1_555
Cu1 O38 1.999618 1_565
Cu1 O2 1.999767 1_555
Cu1 O101 2.612175 1_555
Cu1 O104 2.614306 1_555
Cu2 O36 1.996703 1_555
Cu2 O0 1.997190 1_555
Cu2 O9 1.997506 1_555
Cu2 O45 1.997515 1_555
Cu2 O102 2.612187 1_555
Cu2 O99 2.626509 1_555
Cu3 O43 2.012772 1_555
Cu3 O7 2.012821 1_555
Cu3 O40 2.012916 1_555
Cu3 O4 2.013080 1_555
Cu3 O106 2.551392 1_555
Cu3 O97 2.553390 1_555
O0 Te7 1.920399 1_555
O1 Te8 1.919825 1_556
O2 Te6 1.919959 1_555
O3 Te9 1.908439 1_555
O4 Te10 1.924701 1_555
O5 Te11 1.908537 1_555
O6 Te2 1.908860 1_555
O7 Te0 1.924676 1_555
O8 Te1 1.908363 1_555
O9 Te3 1.919828 1_555
O10 Te4 1.920335 1_555
O11 Te5 1.920389 1_555
O12 Te15 1.907183 1_555
O13 Te16 1.906972 1_555
O14 Te17 1.907197 1_555
O15 Te12 1.908901 1_555
O16 Te13 1.908142 1_555
O17 Te14 1.907689 1_555
O18 Te21 1.908097 1_455
O19 Te22 1.908840 1_455
O20 Te23 1.907403 1_455
O21 Te18 1.907173 1_655
O22 Te19 1.906698 1_655
O23 Te20 1.907090 1_655
O24 Te32 1.907184 1_555
O25 Te30 1.907101 1_554
O26 Te31 1.907159 1_555
O27 Te33 1.909277 1_555
O28 Te34 1.907834 1_555
O29 Te35 1.907802 1_555
O30 Te25 1.907745 1_555
O31 Te26 1.907445 1_555
O32 Te24 1.909005 1_555
O33 Te27 1.906952 1_555
O34 Te28 1.907153 1_555
O35 Te29 1.906763 1_555
O36 Te39 1.919991 1_555
O37 Te40 1.920208 1_555
O38 Te41 1.920188 1_555
O39 Te36 1.908753 1_555
O40 Te37 1.924502 1_555
O41 Te38 1.908346 1_555
O42 Te45 1.908147 1_655
O43 Te46 1.924610 1_655
O44 Te47 1.908725 1_655
O45 Te42 1.920445 1_455
O46 Te43 1.919424 1_455
O47 Te44 1.920287 1_455
O48 Te0 1.926022 1_555
O48 Te24 2.258833 1_555
O49 Te1 1.920817 1_555
O49 Te25 2.268583 1_544
O50 Te2 1.921106 1_555
O50 Te26 2.267422 1_555
O51 Te3 1.925195 1_555
O51 Te29 2.270125 1_555
O52 Te4 1.926268 1_555
O52 Te27 2.262023 1_555
O53 Te5 1.924386 1_555
O53 Te28 2.276061 1_555
O54 Te6 1.925027 1_655
O54 Te31 2.272383 1_555
O55 Te7 1.926439 1_655
O55 Te32 2.262487 1_555
O56 Te8 1.924460 1_655
O56 Te30 2.273679 1_544
O57 Te9 1.921310 1_455
O57 Te35 2.266240 1_555
O58 Te10 1.925901 1_455
O58 Te33 2.260327 1_555
O59 Te11 1.921326 1_455
O59 Te34 2.268730 1_555
O60 Te14 1.920492 1_565
O60 Te36 2.282699 1_555
O61 Te12 1.927722 1_555
O61 Te37 2.276812 1_555
O62 Te13 1.921476 1_555
O62 Te38 2.278569 1_555
O63 Te15 1.930369 1_555
O63 Te39 2.275839 1_555
O64 Te16 1.924782 1_555
O64 Te40 2.285744 1_554
O65 Te17 1.926725 1_555
O65 Te41 2.277703 1_555
O66 Te19 1.924308 1_555
O66 Te42 2.285330 1_455
O67 Te20 1.929629 1_555
O67 Te43 2.277718 1_455
O68 Te18 1.927398 1_555
O68 Te44 2.274811 1_445
O69 Te21 1.920790 1_555
O69 Te45 2.282137 1_655
O70 Te22 1.927129 1_556
O70 Te46 2.277222 1_655
O71 Te23 1.921025 1_555
O71 Te47 2.280235 1_655
O72 Te24 1.927772 1_555
O72 Te0 2.276206 1_555
O73 Te25 1.920712 1_555
O73 Te1 2.282547 1_566
O74 Te26 1.921116 1_555
O74 Te2 2.279859 1_555
O75 Te27 1.927119 1_555
O75 Te4 2.285981 1_555
O76 Te28 1.927501 1_555
O76 Te5 2.274743 1_555
O77 Te29 1.927366 1_555
O77 Te3 2.275507 1_555
O78 Te30 1.927723 1_455
O78 Te8 2.273953 1_566
O79 Te31 1.926864 1_455
O79 Te6 2.277389 1_555
O80 Te32 1.927401 1_455
O80 Te7 2.286958 1_555
O81 Te33 1.928043 1_655
O81 Te10 2.276492 1_555
O82 Te34 1.920434 1_655
O82 Te11 2.283517 1_555
O83 Te35 1.921136 1_655
O83 Te9 2.280173 1_555
O84 Te37 1.925827 1_555
O84 Te12 2.259003 1_555
O85 Te38 1.921786 1_555
O85 Te13 2.263113 1_555
O86 Te36 1.921289 1_545
O86 Te14 2.268163 1_555
O87 Te39 1.924404 1_555
O87 Te15 2.272201 1_555
O88 Te40 1.927084 1_555
O88 Te16 2.260162 1_556
O89 Te41 1.925145 1_555
O89 Te17 2.271836 1_555
O90 Te44 1.924709 1_555
O90 Te18 2.273833 1_665
O91 Te42 1.926762 1_555
O91 Te19 2.261660 1_655
O92 Te43 1.924873 1_555
O92 Te20 2.269036 1_655
O93 Te45 1.921499 1_555
O93 Te21 2.266290 1_455
O94 Te46 1.925839 1_554
O94 Te22 2.259321 1_455
O95 Te47 1.921361 1_555
O95 Te23 2.266095 1_455
O96 Te39 2.035383 1_555
O96 Te3 2.036730 1_555
O97 Te4 2.005172 1_555
O97 Te40 2.005863 1_555
O98 Te41 2.034665 1_555
O98 Te5 2.037253 1_545
O99 Te37 2.004905 1_555
O99 Te0 2.005222 1_555
O100 Te1 2.012184 1_555
O100 Te38 2.012715 1_555
O101 Te36 2.011290 1_555
O101 Te2 2.012716 1_555
O102 Te45 2.012364 1_555
O102 Te9 2.012541 1_455
O103 Te46 2.004848 1_555
O103 Te10 2.005236 1_455
O104 Te11 2.011572 1_455
O104 Te47 2.011869 1_565
O105 Te6 2.035546 1_655
O105 Te44 2.036981 1_555
O106 Te7 2.005097 1_655
O106 Te42 2.006734 1_555
O107 Te43 2.034545 1_555
O107 Te8 2.037516 1_655
O108 Te30 2.049107 1_455
O108 Te19 2.056834 1_555
O109 Te20 2.050880 1_555
O109 Te31 2.051789 1_455
O110 Te18 2.049155 1_555
O110 Te32 2.053764 1_455
O111 Te33 2.046686 1_655
O111 Te21 2.047372 1_545
O112 Te34 2.046719 1_655
O112 Te22 2.047387 1_555
O113 Te35 2.042755 1_655
O113 Te23 2.043872 1_555
O114 Te14 2.046432 1_555
O114 Te24 2.047510 1_555
O115 Te25 2.046420 1_555
O115 Te12 2.047191 1_555
O116 Te26 2.042868 1_555
O116 Te13 2.043652 1_555
O117 Te15 2.047386 1_555
O117 Te27 2.054830 1_565
O118 Te28 2.048163 1_555
O118 Te16 2.055991 1_555
O119 Te29 2.051642 1_555
O119 Te17 2.052048 1_555
