# generated using pymatgen
data_Ba2YbInSe5
_symmetry_space_group_name_H-M   'P 1'
_cell_length_a   9.75640365
_cell_length_b   9.75640365
_cell_length_c   13.42564200
_cell_angle_alpha   90.00000000
_cell_angle_beta   90.00000000
_cell_angle_gamma   154.13040091
_symmetry_Int_Tables_number   1
_chemical_formula_structural   Ba2YbInSe5
_chemical_formula_sum   'Ba4 Yb2 In2 Se10'
_cell_volume   557.60172331
_cell_formula_units_Z   2
loop_
 _symmetry_equiv_pos_site_id
 _symmetry_equiv_pos_as_xyz
  1  'x, y, z'
loop_
 _atom_site_type_symbol
 _atom_site_label
 _atom_site_symmetry_multiplicity
 _atom_site_fract_x
 _atom_site_fract_y
 _atom_site_fract_z
 _atom_site_occupancy
  Ba  Ba0  1  0.13357600  0.86642400  0.81316400  1
  Ba  Ba1  1  0.86642400  0.13357600  0.31316400  1
  Ba  Ba2  1  0.11760300  0.88239700  0.18183700  1
  Ba  Ba3  1  0.88239700  0.11760300  0.68183700  1
  Yb  Yb0  1  0.20804700  0.79195300  0.51455200  1
  Yb  Yb1  1  0.79195300  0.20804700  0.01455200  1
  In  In0  1  0.44554600  0.55445400  0.93775900  1
  In  In1  1  0.55445400  0.44554600  0.43775900  1
  Se  Se0  1  0.35963100  0.64036900  0.50108300  1
  Se  Se1  1  0.64036900  0.35963100  0.00108300  1
  Se  Se2  1  0.29187100  0.70812900  0.16014000  1
  Se  Se3  1  0.70812900  0.29187100  0.66014000  1
  Se  Se4  1  0.31260100  0.68739900  0.86678500  1
  Se  Se5  1  0.68739900  0.31260100  0.36678500  1
  Se  Se6  1  0.50464500  0.49535500  0.76644000  1
  Se  Se7  1  0.49535500  0.50464500  0.26644000  1
  Se  Se8  1  0.05003500  0.94996500  0.55179900  1
  Se  Se9  1  0.94996500  0.05003500  0.05179900  1
loop_
_geom_bond_atom_site_label_1
_geom_bond_atom_site_label_2
_geom_bond_distance
_geom_bond_site_symmetry_2
Ba0 Se3 3.316680 1_455
Ba0 Se3 3.316680 1_565
Ba0 Se1 3.339352 1_566
Ba0 Se1 3.339352 1_456
Ba0 Se6 3.342910 1_565
Ba0 Se6 3.342910 1_455
Ba0 Se4 3.479917 1_555
Ba0 Se8 3.851906 1_555
Ba1 Se2 3.316680 1_545
Ba1 Se2 3.316680 1_655
Ba1 Se0 3.339352 1_655
Ba1 Se0 3.339352 1_545
Ba1 Se7 3.342910 1_545
Ba1 Se7 3.342910 1_655
Ba1 Se5 3.479917 1_555
Ba1 Se9 3.851906 1_555
Ba2 Se1 3.293312 1_565
Ba2 Se1 3.293312 1_455
Ba2 Se2 3.326950 1_555
Ba2 Se7 3.385939 1_455
Ba2 Se7 3.385939 1_565
Ba2 Se5 3.563255 1_455
Ba2 Se5 3.563255 1_565
Ba2 Se9 3.634812 1_465
Ba3 Se0 3.293312 1_655
Ba3 Se0 3.293312 1_545
Ba3 Se3 3.326950 1_555
Ba3 Se6 3.385939 1_655
Ba3 Se6 3.385939 1_545
Ba3 Se4 3.563255 1_545
Ba3 Se4 3.563255 1_655
Ba3 Se8 3.634812 1_645
In0 Se6 2.559984 1_555
In0 Se9 2.668445 1_566
In0 Se9 2.668445 1_456
In0 Se4 2.701905 1_555
In1 Se7 2.559984 1_555
In1 Se8 2.668445 1_655
In1 Se8 2.668445 1_545
In1 Se5 2.701905 1_555
Se0 Yb0 2.888442 1_555
Se1 Yb1 2.888442 1_555
Se2 Yb1 2.930854 1_455
Se2 Yb1 2.930854 1_565
Se3 Yb0 2.930854 1_545
Se3 Yb0 2.930854 1_655
Se4 Yb1 2.976460 1_456
Se4 Yb1 2.976460 1_566
Se5 Yb0 2.976460 1_655
Se5 Yb0 2.976460 1_545
Se8 Yb0 3.046345 1_555
Se9 Yb1 3.046345 1_555
