# generated using pymatgen
data_Li3CeSb2
_symmetry_space_group_name_H-M   'P 1'
_cell_length_a   4.61458080
_cell_length_b   4.61458080
_cell_length_c   7.41410697
_cell_angle_alpha   90.00000000
_cell_angle_beta   90.00000000
_cell_angle_gamma   119.99998943
_symmetry_Int_Tables_number   1
_chemical_formula_structural   Li3CeSb2
_chemical_formula_sum   'Li3 Ce1 Sb2'
_cell_volume   136.72692156
_cell_formula_units_Z   1
loop_
 _symmetry_equiv_pos_site_id
 _symmetry_equiv_pos_as_xyz
  1  'x, y, z'
loop_
 _atom_site_type_symbol
 _atom_site_label
 _atom_site_symmetry_multiplicity
 _atom_site_fract_x
 _atom_site_fract_y
 _atom_site_fract_z
 _atom_site_occupancy
  Li  Li0  1  0.66666700  0.33333300  0.35445879  1
  Li  Li1  1  0.33333300  0.66666700  0.64554121  1
  Li  Li2  1  -0.00000000  0.00000000  0.50000000  1
  Ce  Ce0  1  -0.00000000  0.00000000  0.00000000  1
  Sb  Sb0  1  0.66666700  0.33333300  0.74316234  1
  Sb  Sb1  1  0.33333300  0.66666700  0.25683766  1
loop_
_geom_bond_atom_site_label_1
_geom_bond_atom_site_label_2
_geom_bond_distance
_geom_bond_site_symmetry_2
Li0 Sb1 2.760789 1_545
Li0 Sb1 2.760789 1_655
Li0 Sb1 2.760796 1_555
Li0 Li2 2.874451 1_655
Li0 Li2 2.874455 1_555
Li0 Li2 2.874455 1_665
Li0 Sb0 2.881890 1_555
Li1 Sb0 2.760789 1_455
Li1 Sb0 2.760789 1_565
Li1 Sb0 2.760796 1_555
Li1 Li2 2.874451 1_565
Li1 Li2 2.874455 1_555
Li1 Li2 2.874455 1_665
Li1 Sb1 2.881890 1_555
Li2 Sb1 3.216878 1_545
Li2 Sb0 3.216878 1_455
Li2 Sb1 3.216882 1_445
Li2 Sb1 3.216882 1_555
Li2 Sb0 3.216882 1_445
Li2 Sb0 3.216882 1_555
Ce0 Sb1 3.274777 1_545
Ce0 Sb0 3.274777 1_454
Ce0 Sb0 3.274781 1_444
Ce0 Sb0 3.274781 1_554
Ce0 Sb1 3.274781 1_445
Ce0 Sb1 3.274781 1_555
Ce0 Li2 3.707053 1_554
Ce0 Li2 3.707053 1_555
