# generated using pymatgen
data_Mg3Si4
_symmetry_space_group_name_H-M   'P 1'
_cell_length_a   4.23307500
_cell_length_b   8.19134095
_cell_length_c   8.40674498
_cell_angle_alpha   114.08752354
_cell_angle_beta   89.47865832
_cell_angle_gamma   104.15034054
_symmetry_Int_Tables_number   1
_chemical_formula_structural   Mg3Si4
_chemical_formula_sum   'Mg6 Si8'
_cell_volume   256.68529117
_cell_formula_units_Z   2
loop_
 _symmetry_equiv_pos_site_id
 _symmetry_equiv_pos_as_xyz
  1  'x, y, z'
loop_
 _atom_site_type_symbol
 _atom_site_label
 _atom_site_symmetry_multiplicity
 _atom_site_fract_x
 _atom_site_fract_y
 _atom_site_fract_z
 _atom_site_occupancy
  Mg  Mg0  1  0.41985600  0.41330800  0.91970600  1
  Mg  Mg1  1  0.19198800  0.96787900  0.83775000  1
  Mg  Mg2  1  0.00474500  0.58412600  0.37765500  1
  Mg  Mg3  1  0.34955200  0.25583900  0.23268000  1
  Mg  Mg4  1  0.22491400  0.01462300  0.47513700  1
  Mg  Mg5  1  0.07809400  0.73821200  0.06832000  1
  Si  Si0  1  0.79007200  0.15885200  0.72880300  1
  Si  Si1  1  0.57690600  0.74339200  0.27590500  1
  Si  Si2  1  0.86722200  0.29856300  0.52250900  1
  Si  Si3  1  0.45342200  0.48203800  0.58010900  1
  Si  Si4  1  0.61812900  0.80881300  0.59396100  1
  Si  Si5  1  0.58123200  0.74445200  0.86743400  1
  Si  Si6  1  0.85286600  0.25646400  0.03650700  1
  Si  Si7  1  0.74420300  0.03333100  0.23014400  1
loop_
_geom_bond_atom_site_label_1
_geom_bond_atom_site_label_2
_geom_bond_distance
_geom_bond_site_symmetry_2
Mg0 Si6 2.802588 1_456
Mg0 Si5 2.842360 1_555
Mg0 Si6 2.861543 1_556
Mg0 Si0 2.863019 1_555
Mg0 Si0 2.942405 1_455
Mg0 Si1 3.044336 1_556
Mg0 Si3 3.122996 1_555
Mg1 Si5 2.825135 1_555
Mg1 Si4 2.837998 1_555
Mg1 Si5 2.853688 1_455
Mg1 Si4 2.856977 1_455
Mg1 Si0 2.946126 1_465
Mg1 Si6 2.971881 1_466
Mg1 Si0 2.981031 1_565
Mg1 Si6 3.135883 1_566
Mg2 Si1 2.761892 1_555
Mg2 Si1 2.794275 1_455
Mg2 Si4 2.838864 1_455
Mg2 Si4 2.907476 1_555
Mg2 Si6 2.957853 1_455
Mg2 Si2 2.989955 1_455
Mg2 Si3 3.029501 1_455
Mg2 Si3 3.033222 1_555
Mg3 Si6 2.682673 1_555
Mg3 Si6 2.686188 1_455
Mg3 Si3 2.713823 1_555
Mg3 Si7 2.751310 1_555
Mg3 Si7 2.752185 1_455
Mg3 Si2 3.128994 1_455
Mg3 Si2 3.144396 1_555
Mg4 Si0 2.875229 1_455
Mg4 Si0 2.884639 1_555
Mg4 Si1 2.915002 1_545
Mg4 Si2 2.969108 1_455
Mg4 Si7 2.982035 1_455
Mg4 Si7 3.017944 1_555
Mg4 Si2 3.022001 1_555
Mg4 Si1 3.054867 1_445
Mg4 Si4 3.063895 1_545
Mg4 Si4 3.106160 1_445
Mg5 Si5 2.709717 1_554
Mg5 Si1 2.732117 1_455
Mg5 Si5 2.732396 1_454
Mg5 Si1 2.732856 1_555
Mg5 Si7 2.939973 1_465
Mg5 Si7 3.114146 1_565
Si0 Si6 2.371023 1_556
Si0 Si2 2.418890 1_555
Si0 Si4 2.525400 1_545
Si1 Si7 2.491700 1_565
Si1 Si4 2.502018 1_555
Si2 Si7 2.478650 1_555
Si2 Si3 2.497828 1_555
Si2 Si3 2.501023 1_655
Si3 Si5 2.442273 1_555
Si3 Si4 2.549333 1_555
Si4 Si5 2.555460 1_555
Si5 Si7 2.953556 1_566
Si6 Si7 2.864640 1_555
