# generated using pymatgen
data_LiFe6(OF2)4
_symmetry_space_group_name_H-M   'P 1'
_cell_length_a   7.75674385
_cell_length_b   5.66689637
_cell_length_c   5.77988043
_cell_angle_alpha   69.99493875
_cell_angle_beta   67.01698496
_cell_angle_gamma   68.65024542
_symmetry_Int_Tables_number   1
_chemical_formula_structural   LiFe6(OF2)4
_chemical_formula_sum   'Li1 Fe6 O4 F8'
_cell_volume   211.83964587
_cell_formula_units_Z   1
loop_
 _symmetry_equiv_pos_site_id
 _symmetry_equiv_pos_as_xyz
  1  'x, y, z'
loop_
 _atom_site_type_symbol
 _atom_site_label
 _atom_site_symmetry_multiplicity
 _atom_site_fract_x
 _atom_site_fract_y
 _atom_site_fract_z
 _atom_site_occupancy
  Li  Li0  1  0.17610257  0.32742801  0.83067371  1
  Fe  Fe0  1  0.84001280  0.62804016  0.65751827  1
  Fe  Fe1  1  0.67018806  0.34301136  0.30946435  1
  Fe  Fe2  1  0.34024266  0.71692434  0.64077471  1
  Fe  Fe3  1  0.14817419  0.33102779  0.35590280  1
  Fe  Fe4  1  0.51340282  0.96932701  0.01710111  1
  Fe  Fe5  1  0.99317771  0.96328867  0.00921308  1
  O  O0  1  0.33132247  -0.01269985  0.34500946  1
  O  O1  1  0.66552937  0.62769547  0.01537951  1
  O  O2  1  0.00200865  0.26577199  0.71957055  1
  O  O3  1  0.01027751  0.69435967  0.30395128  1
  F  F0  1  0.67543643  0.04533985  0.62612601  1
  F  F1  1  0.34516644  0.38951388  0.94878830  1
  F  F2  1  0.31143125  0.94602860  0.87882584  1
  F  F3  1  0.98186891  0.24538195  0.20348326  1
  F  F4  1  0.63741577  0.57292203  0.55360664  1
  F  F5  1  0.04549776  0.71260673  0.77873017  1
  F  F6  1  0.36093117  0.41996123  0.47232262  1
  F  F7  1  0.69348246  0.08490010  0.10439533  1
loop_
_geom_bond_atom_site_label_1
_geom_bond_atom_site_label_2
_geom_bond_distance
_geom_bond_site_symmetry_2
Li0 O2 1.879440 1_555
Fe0 O3 1.946780 1_655
Fe0 O2 1.972814 1_655
Fe0 O1 1.980674 1_556
Fe1 O1 1.903282 1_555
Fe2 O0 1.870243 1_565
Fe3 O3 1.922979 1_555
Fe3 O2 1.937219 1_555
Fe3 O0 1.953346 1_555
Fe4 O1 1.865800 1_555
Fe4 O0 1.879933 1_565
Fe5 O3 1.869537 1_655
Fe5 O2 1.943733 1_664
F0 Fe1 2.023072 1_555
F0 Fe4 2.093343 1_546
F0 Fe0 2.223521 1_545
F1 Li0 1.873232 1_555
F1 Fe2 2.086827 1_555
F1 Fe3 2.238073 1_556
F1 Fe4 2.241724 1_546
F2 Li0 2.003847 1_565
F2 Fe4 2.076323 1_556
F2 Fe2 2.097503 1_555
F2 Fe5 2.256848 1_456
F3 Fe3 2.076442 1_655
F3 Li0 2.102040 1_654
F3 Fe1 2.151215 1_555
F3 Fe5 2.207517 1_545
F4 Fe0 2.037322 1_555
F4 Fe2 2.058634 1_555
F4 Fe1 2.118962 1_555
F5 Li0 2.014937 1_555
F5 Fe5 2.100070 1_456
F5 Fe2 2.113566 1_555
F5 Fe0 2.217859 1_455
F6 Li0 2.026260 1_555
F6 Fe1 2.141599 1_555
F6 Fe2 2.146659 1_555
F6 Fe3 2.266071 1_555
F7 Fe4 2.019217 1_545
F7 Fe5 2.067811 1_545
F7 Fe1 2.098453 1_555
