# generated using pymatgen
data_SrCa4P3O12F
_symmetry_space_group_name_H-M   'P 1'
_cell_length_a   9.54293103
_cell_length_b   9.54293103
_cell_length_c   7.02412100
_cell_angle_alpha   90.00000000
_cell_angle_beta   90.00000000
_cell_angle_gamma   120.00000717
_symmetry_Int_Tables_number   1
_chemical_formula_structural   SrCa4P3O12F
_chemical_formula_sum   'Sr2 Ca8 P6 O24 F2'
_cell_volume   553.96988352
_cell_formula_units_Z   2
loop_
 _symmetry_equiv_pos_site_id
 _symmetry_equiv_pos_as_xyz
  1  'x, y, z'
loop_
 _atom_site_type_symbol
 _atom_site_label
 _atom_site_symmetry_multiplicity
 _atom_site_fract_x
 _atom_site_fract_y
 _atom_site_fract_z
 _atom_site_occupancy
  Sr  Sr0  1  0.66666700  0.33333300  0.71336600  1
  Sr  Sr1  1  0.33333300  0.66666700  0.21336600  1
  Ca  Ca0  1  0.66666700  0.33333300  0.21185800  1
  Ca  Ca1  1  0.33333300  0.66666700  0.71185800  1
  Ca  Ca2  1  0.75545000  0.00124100  0.96102900  1
  Ca  Ca3  1  0.24579100  0.24455000  0.96102900  1
  Ca  Ca4  1  0.24455000  0.99875900  0.46102900  1
  Ca  Ca5  1  0.99875900  0.75420900  0.96102900  1
  Ca  Ca6  1  0.75420900  0.75545000  0.46102900  1
  Ca  Ca7  1  0.00124100  0.24579100  0.46102900  1
  P  P0  1  0.60549800  0.63344900  0.96310100  1
  P  P1  1  0.02795100  0.39450200  0.96310100  1
  P  P2  1  0.39450200  0.36655100  0.46310100  1
  P  P3  1  0.36655100  0.97204900  0.96310100  1
  P  P4  1  0.97204900  0.60549800  0.46310100  1
  P  P5  1  0.63344900  0.02795100  0.46310100  1
  O  O0  1  0.84189600  0.31831800  0.97330500  1
  O  O1  1  0.47642200  0.15810400  0.97330500  1
  O  O2  1  0.15810400  0.68168200  0.47330500  1
  O  O3  1  0.68168200  0.52357800  0.97330500  1
  O  O4  1  0.52357800  0.84189600  0.47330500  1
  O  O5  1  0.31831800  0.47642200  0.47330500  1
  O  O6  1  0.74423100  0.09139100  0.64201000  1
  O  O7  1  0.34716000  0.25576900  0.64201000  1
  O  O8  1  0.25576900  0.90860900  0.14201000  1
  O  O9  1  0.90860900  0.65284000  0.64201000  1
  O  O10  1  0.65284000  0.74423100  0.14201000  1
  O  O11  1  0.09139100  0.34716000  0.14201000  1
  O  O12  1  0.41717500  0.53089000  0.95198900  1
  O  O13  1  0.11371500  0.58282500  0.95198900  1
  O  O14  1  0.58282500  0.46911000  0.45198900  1
  O  O15  1  0.46911000  0.88628500  0.95198900  1
  O  O16  1  0.88628500  0.41717500  0.45198900  1
  O  O17  1  0.53089000  0.11371500  0.45198900  1
  O  O18  1  0.66490300  0.74537900  0.78612600  1
  O  O19  1  0.08047600  0.33509700  0.78612600  1
  O  O20  1  0.33509700  0.25462100  0.28612600  1
  O  O21  1  0.25462100  0.91952400  0.78612600  1
  O  O22  1  0.91952400  0.66490300  0.28612600  1
  O  O23  1  0.74537900  0.08047600  0.28612600  1
  F  F0  1  0.00000000  0.00000000  0.96709800  1
  F  F1  1  0.00000000  0.00000000  0.46709800  1
loop_
_geom_bond_atom_site_label_1
_geom_bond_atom_site_label_2
_geom_bond_distance
_geom_bond_site_symmetry_2
Ca0 O0 2.421591 1_554
Ca0 O1 2.421595 1_554
Ca0 O3 2.421598 1_554
Ca0 O16 2.490115 1_555
Ca0 O17 2.490116 1_555
Ca0 O14 2.490122 1_555
Ca0 O23 2.910569 1_555
Ca0 O22 2.910575 1_555
Ca0 O20 2.910578 1_555
Ca1 O2 2.421591 1_555
Ca1 O4 2.421595 1_555
Ca1 O5 2.421598 1_555
Ca1 O13 2.490115 1_555
Ca1 O15 2.490116 1_555
Ca1 O12 2.490122 1_555
Ca1 O21 2.910569 1_555
Ca1 O19 2.910575 1_555
Ca1 O18 2.910578 1_555
Ca2 F0 2.340056 1_655
Ca2 O15 2.382548 1_545
Ca2 O6 2.421773 1_555
Ca2 O23 2.422419 1_556
Ca2 O18 2.471418 1_545
Ca2 O10 2.487697 1_546
Ca2 O0 2.710635 1_555
Ca3 F0 2.340056 1_555
Ca3 O12 2.382548 1_555
Ca3 O7 2.421773 1_555
Ca3 O20 2.422419 1_556
Ca3 O19 2.471419 1_555
Ca3 O11 2.487697 1_556
Ca3 O1 2.710635 1_555
Ca4 F1 2.340056 1_565
Ca4 O17 2.382548 1_565
Ca4 O8 2.421773 1_555
Ca4 O21 2.422419 1_555
Ca4 O20 2.471418 1_565
Ca4 O7 2.487697 1_565
Ca4 O2 2.710635 1_555
Ca5 F0 2.340056 1_665
Ca5 O13 2.382548 1_655
Ca5 O9 2.421773 1_555
Ca5 O22 2.422419 1_556
Ca5 O21 2.471418 1_655
Ca5 O8 2.487697 1_656
Ca5 O3 2.710635 1_555
Ca6 F1 2.340056 1_665
Ca6 O14 2.382548 1_555
Ca6 O10 2.421773 1_555
Ca6 O18 2.422419 1_555
Ca6 O22 2.471419 1_555
Ca6 O9 2.487697 1_555
Ca6 O4 2.710635 1_555
Ca7 F1 2.340056 1_555
Ca7 O16 2.382548 1_455
Ca7 O11 2.421773 1_555
Ca7 O19 2.422419 1_555
Ca7 O23 2.471418 1_455
Ca7 O6 2.487697 1_455
Ca7 O5 2.710635 1_555
O0 P1 1.547676 1_655
O0 Sr0 2.527862 1_555
O1 P3 1.547676 1_545
O1 Sr0 2.527865 1_555
O2 P4 1.547676 1_455
O2 Sr1 2.527862 1_555
O3 P0 1.547676 1_555
O3 Sr0 2.527868 1_555
O4 P5 1.547676 1_565
O4 Sr1 2.527865 1_555
O5 P2 1.547676 1_555
O5 Sr1 2.527868 1_555
O6 P5 1.556718 1_555
O6 Sr0 2.799784 1_555
O7 P2 1.556718 1_555
O7 Sr0 2.799793 1_555
O8 P3 1.556718 1_554
O8 Sr1 2.799784 1_555
O9 P4 1.556718 1_555
O9 Sr0 2.799790 1_555
O10 P0 1.556718 1_554
O10 Sr1 2.799793 1_555
O11 P1 1.556718 1_554
O11 Sr1 2.799790 1_555
O12 P0 1.560395 1_555
O12 Sr1 2.593532 1_556
O13 P1 1.560395 1_555
O13 Sr1 2.593526 1_556
O14 P2 1.560395 1_555
O14 Sr0 2.593532 1_555
O15 P3 1.560396 1_555
O15 Sr1 2.593527 1_556
O16 P4 1.560395 1_555
O16 Sr0 2.593526 1_555
O17 P5 1.560396 1_555
O17 Sr0 2.593527 1_555
O18 P0 1.549856 1_555
O19 P1 1.549856 1_555
O20 P2 1.549856 1_555
O21 P3 1.549856 1_555
O22 P4 1.549856 1_555
O23 P5 1.549856 1_555
