# generated using pymatgen
data_SiNi3W2
_symmetry_space_group_name_H-M   'P 1'
_cell_length_a   4.70957071
_cell_length_b   4.70955524
_cell_length_c   7.50093967
_cell_angle_alpha   90.00000326
_cell_angle_beta   89.99999232
_cell_angle_gamma   119.99790855
_symmetry_Int_Tables_number   1
_chemical_formula_structural   SiNi3W2
_chemical_formula_sum   'Si2 Ni6 W4'
_cell_volume   144.08430393
_cell_formula_units_Z   2
loop_
 _symmetry_equiv_pos_site_id
 _symmetry_equiv_pos_as_xyz
  1  'x, y, z'
loop_
 _atom_site_type_symbol
 _atom_site_label
 _atom_site_symmetry_multiplicity
 _atom_site_fract_x
 _atom_site_fract_y
 _atom_site_fract_z
 _atom_site_occupancy
  Si  Si0  1  0.99999908  0.00000204  0.00000261  1
  Si  Si1  1  0.99999884  0.00000179  0.49999750  1
  Ni  Ni0  1  0.83080182  0.16920457  0.74999886  1
  Ni  Ni1  1  0.83080958  0.66160357  0.74999858  1
  Ni  Ni2  1  0.33839734  0.16919415  0.74999878  1
  Ni  Ni3  1  0.16919614  0.83079891  0.25000146  1
  Ni  Ni4  1  0.16918451  0.33838845  0.25000179  1
  Ni  Ni5  1  0.66161048  0.83081288  0.25000139  1
  W  W0  1  0.33333135  0.66666529  0.93581674  1
  W  W1  1  0.66667028  0.33333210  0.06413191  1
  W  W2  1  0.66666960  0.33333170  0.43586668  1
  W  W3  1  0.33333199  0.66666555  0.56418471  1
loop_
_geom_bond_atom_site_label_1
_geom_bond_atom_site_label_2
_geom_bond_distance
_geom_bond_site_symmetry_2
Si0 W1 2.761230 1_555
Si0 W0 2.761344 1_644
Si0 W1 2.761354 1_545
Si0 W1 2.761368 1_655
Si0 W0 2.761401 1_654
Si0 W0 2.761428 1_544
Si1 W2 2.761233 1_555
Si1 W3 2.761348 1_645
Si1 W2 2.761357 1_545
Si1 W2 2.761368 1_655
Si1 W3 2.761405 1_655
Si1 W3 2.761426 1_545
Ni0 Ni1 2.318962 1_555
Ni0 Ni2 2.318989 1_555
Ni0 Si1 2.328401 1_555
Ni0 Si0 2.328415 1_556
Ni0 Ni2 2.390582 1_655
Ni0 Ni1 2.390593 1_545
Ni0 W2 2.710081 1_555
Ni0 W1 2.710086 1_556
Ni0 W3 2.736476 1_655
Ni0 W0 2.736488 1_655
Ni0 W3 2.736512 1_545
Ni0 W0 2.736528 1_545
Ni1 Ni2 2.319113 1_555
Ni1 Si1 2.328420 1_565
Ni1 Si0 2.328438 1_566
Ni1 Ni2 2.390599 1_665
Ni1 W2 2.710124 1_555
Ni1 W1 2.710133 1_556
Ni1 W3 2.736398 1_655
Ni1 W0 2.736412 1_655
Ni1 W3 2.736466 1_555
Ni1 W0 2.736484 1_555
Ni2 Si1 2.328424 1_455
Ni2 Si0 2.328439 1_456
Ni2 W2 2.710128 1_555
Ni2 W1 2.710137 1_556
Ni2 W3 2.736410 1_545
Ni2 W0 2.736425 1_545
Ni2 W3 2.736442 1_555
Ni2 W0 2.736457 1_555
Ni3 Ni4 2.319007 1_555
Ni3 Ni5 2.319027 1_555
Ni3 Si1 2.328369 1_465
Ni3 Si0 2.328387 1_465
Ni3 Ni5 2.390543 1_455
Ni3 Ni4 2.390548 1_565
Ni3 W3 2.710434 1_555
Ni3 W0 2.710442 1_554
Ni3 W2 2.736676 1_455
Ni3 W1 2.736691 1_455
Ni3 W2 2.736701 1_565
Ni3 W1 2.736720 1_565
Ni4 Ni5 2.319181 1_555
Ni4 Si1 2.328359 1_455
Ni4 Si0 2.328380 1_455
Ni4 Ni5 2.390531 1_445
Ni4 W3 2.710467 1_555
Ni4 W0 2.710481 1_554
Ni4 W2 2.736573 1_455
Ni4 W1 2.736590 1_455
Ni4 W2 2.736681 1_555
Ni4 W1 2.736701 1_555
Ni5 Si1 2.328369 1_565
Ni5 Si0 2.328385 1_565
Ni5 W3 2.710475 1_555
Ni5 W0 2.710485 1_554
Ni5 W2 2.736579 1_565
Ni5 W1 2.736595 1_565
Ni5 W2 2.736665 1_555
Ni5 W1 2.736680 1_555
W0 W3 2.787589 1_555
W0 W1 2.884384 1_556
W0 W1 2.884426 1_456
W0 W1 2.884440 1_566
W1 W2 2.788360 1_555
W2 W3 2.884388 1_555
W2 W3 2.884439 1_655
W2 W3 2.884445 1_545
