# generated using pymatgen
data_Sr3Sc2(GeO4)3
_symmetry_space_group_name_H-M   'P 1'
_cell_length_a   11.21653760
_cell_length_b   11.21653760
_cell_length_c   11.21653760
_cell_angle_alpha   109.47122063
_cell_angle_beta   109.47122063
_cell_angle_gamma   109.47122063
_symmetry_Int_Tables_number   1
_chemical_formula_structural   Sr3Sc2(GeO4)3
_chemical_formula_sum   'Sr12 Sc8 Ge12 O48'
_cell_volume   1086.31195308
_cell_formula_units_Z   4
loop_
 _symmetry_equiv_pos_site_id
 _symmetry_equiv_pos_as_xyz
  1  'x, y, z'
loop_
 _atom_site_type_symbol
 _atom_site_label
 _atom_site_symmetry_multiplicity
 _atom_site_fract_x
 _atom_site_fract_y
 _atom_site_fract_z
 _atom_site_occupancy
  Sr  Sr0  1  0.25000000  0.37500000  0.12500000  1
  Sr  Sr1  1  0.75000000  0.62500000  0.87500000  1
  Sr  Sr2  1  0.75000000  0.12500000  0.37500000  1
  Sr  Sr3  1  0.12500000  0.25000000  0.37500000  1
  Sr  Sr4  1  0.37500000  0.75000000  0.12500000  1
  Sr  Sr5  1  0.25000000  0.87500000  0.62500000  1
  Sr  Sr6  1  0.87500000  0.75000000  0.62500000  1
  Sr  Sr7  1  0.62500000  0.25000000  0.87500000  1
  Sr  Sr8  1  0.37500000  0.12500000  0.25000000  1
  Sr  Sr9  1  0.62500000  0.87500000  0.75000000  1
  Sr  Sr10  1  0.12500000  0.37500000  0.75000000  1
  Sr  Sr11  1  0.87500000  0.62500000  0.25000000  1
  Sc  Sc0  1  0.00000000  0.00000000  0.00000000  1
  Sc  Sc1  1  0.50000000  0.00000000  0.50000000  1
  Sc  Sc2  1  0.00000000  0.50000000  0.50000000  1
  Sc  Sc3  1  0.50000000  0.00000000  0.00000000  1
  Sc  Sc4  1  0.50000000  0.50000000  0.00000000  1
  Sc  Sc5  1  0.50000000  0.50000000  0.50000000  1
  Sc  Sc6  1  0.00000000  0.00000000  0.50000000  1
  Sc  Sc7  1  0.00000000  0.50000000  0.00000000  1
  Ge  Ge0  1  0.25000000  0.62500000  0.37500000  1
  Ge  Ge1  1  0.75000000  0.37500000  0.62500000  1
  Ge  Ge2  1  0.75000000  0.87500000  0.12500000  1
  Ge  Ge3  1  0.37500000  0.25000000  0.62500000  1
  Ge  Ge4  1  0.62500000  0.75000000  0.37500000  1
  Ge  Ge5  1  0.25000000  0.12500000  0.87500000  1
  Ge  Ge6  1  0.12500000  0.75000000  0.87500000  1
  Ge  Ge7  1  0.87500000  0.25000000  0.12500000  1
  Ge  Ge8  1  0.62500000  0.37500000  0.25000000  1
  Ge  Ge9  1  0.37500000  0.62500000  0.75000000  1
  Ge  Ge10  1  0.87500000  0.12500000  0.75000000  1
  Ge  Ge11  1  0.12500000  0.87500000  0.25000000  1
  O  O0  1  0.49091400  0.38477600  0.29988700  1
  O  O1  1  0.50908600  0.61522400  0.70011300  1
  O  O2  1  0.58489000  0.19102800  0.20011300  1
  O  O3  1  0.91511000  0.11522400  0.60613800  1
  O  O4  1  0.29988700  0.49091400  0.38477600  1
  O  O5  1  0.30897200  0.91511000  0.29988700  1
  O  O6  1  0.41511000  0.80897200  0.79988700  1
  O  O7  1  0.08489000  0.88477600  0.39386200  1
  O  O8  1  0.70011300  0.50908600  0.61522400  1
  O  O9  1  0.69102800  0.08489000  0.70011300  1
  O  O10  1  0.00908600  0.30897200  0.89386200  1
  O  O11  1  0.20011300  0.58489000  0.19102800  1
  O  O12  1  0.11522400  0.00908600  0.20011300  1
  O  O13  1  0.99091400  0.69102800  0.10613800  1
  O  O14  1  0.79988700  0.41511000  0.80897200  1
  O  O15  1  0.88477600  0.99091400  0.79988700  1
  O  O16  1  0.60613800  0.91511000  0.11522400  1
  O  O17  1  0.19102800  0.49091400  0.60613800  1
  O  O18  1  0.39386200  0.08489000  0.88477600  1
  O  O19  1  0.80897200  0.50908600  0.39386200  1
  O  O20  1  0.89386200  0.00908600  0.30897200  1
  O  O21  1  0.38477600  0.58489000  0.89386200  1
  O  O22  1  0.10613800  0.99091400  0.69102800  1
  O  O23  1  0.61522400  0.41511000  0.10613800  1
  O  O24  1  0.38477600  0.29988700  0.49091400  1
  O  O25  1  0.58489000  0.89386200  0.38477600  1
  O  O26  1  0.61522400  0.70011300  0.50908600  1
  O  O27  1  0.41511000  0.10613800  0.61522400  1
  O  O28  1  0.11522400  0.60613800  0.91511000  1
  O  O29  1  0.00908600  0.20011300  0.11522400  1
  O  O30  1  0.88477600  0.39386200  0.08489000  1
  O  O31  1  0.99091400  0.79988700  0.88477600  1
  O  O32  1  0.30897200  0.89386200  0.00908600  1
  O  O33  1  0.91511000  0.29988700  0.30897200  1
  O  O34  1  0.69102800  0.10613800  0.99091400  1
  O  O35  1  0.08489000  0.70011300  0.69102800  1
  O  O36  1  0.19102800  0.20011300  0.58489000  1
  O  O37  1  0.49091400  0.60613800  0.19102800  1
  O  O38  1  0.80897200  0.79988700  0.41511000  1
  O  O39  1  0.50908600  0.39386200  0.80897200  1
  O  O40  1  0.29988700  0.30897200  0.91511000  1
  O  O41  1  0.70011300  0.69102800  0.08489000  1
  O  O42  1  0.20011300  0.11522400  0.00908600  1
  O  O43  1  0.79988700  0.88477600  0.99091400  1
  O  O44  1  0.89386200  0.38477600  0.58489000  1
  O  O45  1  0.10613800  0.61522400  0.41511000  1
  O  O46  1  0.60613800  0.19102800  0.49091400  1
  O  O47  1  0.39386200  0.80897200  0.50908600  1
loop_
_geom_bond_atom_site_label_1
_geom_bond_atom_site_label_2
_geom_bond_distance
_geom_bond_site_symmetry_2
Ge0 O11 1.793639 1_555
Ge0 O45 1.793641 1_555
Ge0 O47 1.793641 1_555
Ge0 O4 1.793648 1_555
Ge1 O14 1.793639 1_555
Ge1 O46 1.793641 1_555
Ge1 O44 1.793641 1_555
Ge1 O8 1.793648 1_555
Ge2 O41 1.793639 1_555
Ge2 O16 1.793641 1_555
Ge2 O20 1.793641 1_565
Ge2 O43 1.793648 1_554
Ge3 O36 1.793639 1_555
Ge3 O27 1.793641 1_555
Ge3 O39 1.793641 1_555
Ge3 O24 1.793648 1_555
Ge4 O38 1.793639 1_555
Ge4 O37 1.793641 1_555
Ge4 O25 1.793641 1_555
Ge4 O26 1.793648 1_555
Ge5 O40 1.793639 1_555
Ge5 O22 1.793641 1_545
Ge5 O18 1.793641 1_555
Ge5 O42 1.793648 1_556
Ge6 O35 1.793639 1_555
Ge6 O32 1.793641 1_556
Ge6 O28 1.793641 1_555
Ge6 O31 1.793648 1_455
Ge7 O33 1.793639 1_555
Ge7 O34 1.793641 1_554
Ge7 O30 1.793641 1_555
Ge7 O29 1.793648 1_655
Ge8 O2 1.793639 1_555
Ge8 O23 1.793641 1_555
Ge8 O19 1.793641 1_555
Ge8 O0 1.793648 1_555
Ge9 O6 1.793639 1_555
Ge9 O17 1.793641 1_555
Ge9 O21 1.793641 1_555
Ge9 O1 1.793648 1_555
Ge10 O9 1.793639 1_555
Ge10 O10 1.793641 1_655
Ge10 O3 1.793641 1_555
Ge10 O15 1.793648 1_545
Ge11 O5 1.793639 1_555
Ge11 O7 1.793641 1_555
Ge11 O13 1.793641 1_455
Ge11 O12 1.793648 1_565
O0 Sc5 2.131802 1_555
O0 Sr8 2.529054 1_555
O0 Sr0 2.699487 1_555
O1 Sc5 2.131802 1_555
O1 Sr9 2.529054 1_555
O1 Sr1 2.699487 1_555
O2 Sc3 2.131805 1_555
O2 Sr8 2.529065 1_555
O2 Sr2 2.699490 1_555
O3 Sc6 2.131811 1_655
O3 Sr10 2.529058 1_655
O3 Sr2 2.699483 1_555
O4 Sc5 2.131802 1_555
O4 Sr0 2.529054 1_555
O4 Sr3 2.699487 1_555
O5 Sc1 2.131805 1_565
O5 Sr8 2.529065 1_565
O5 Sr4 2.699490 1_555
O6 Sc3 2.131805 1_566
O6 Sr9 2.529065 1_555
O6 Sr5 2.699490 1_555
O7 Sc6 2.131811 1_565
O7 Sr11 2.529058 1_455
O7 Sr5 2.699483 1_555
O8 Sc5 2.131802 1_555
O8 Sr1 2.529054 1_555
O8 Sr6 2.699487 1_555
O9 Sc1 2.131805 1_555
O9 Sr9 2.529065 1_545
O9 Sr7 2.699490 1_555
O10 Sc7 2.131811 1_556
O10 Sr10 2.529058 1_555
O10 Sr0 2.699483 1_556
O11 Sc7 2.131805 1_555
O11 Sr0 2.529065 1_555
O11 Sr4 2.699490 1_555
O12 Sc0 2.131802 1_555
O12 Sr8 2.529054 1_555
O12 Sr3 2.699487 1_555
O13 Sc7 2.131811 1_655
O13 Sr11 2.529058 1_555
O13 Sr1 2.699483 1_554
O14 Sc7 2.131805 1_656
O14 Sr1 2.529065 1_555
O14 Sr7 2.699490 1_555
O15 Sc0 2.131802 1_666
O15 Sr9 2.529054 1_555
O15 Sr6 2.699487 1_555
O16 Sc3 2.131811 1_565
O16 Sr2 2.529058 1_565
O16 Sr4 2.699483 1_555
O17 Sc2 2.131811 1_555
O17 Sr10 2.529058 1_555
O17 Sr3 2.699483 1_555
O18 Sc3 2.131811 1_556
O18 Sr5 2.529058 1_545
O18 Sr7 2.699483 1_555
O19 Sc2 2.131811 1_655
O19 Sr11 2.529058 1_555
O19 Sr6 2.699483 1_555
O20 Sc6 2.131811 1_655
O20 Sr2 2.529058 1_555
O20 Sr3 2.699483 1_655
O21 Sc4 2.131811 1_556
O21 Sr10 2.529058 1_555
O21 Sr4 2.699483 1_556
O22 Sc6 2.131811 1_565
O22 Sr5 2.529058 1_555
O22 Sr6 2.699483 1_455
O23 Sc4 2.131811 1_555
O23 Sr11 2.529058 1_555
O23 Sr7 2.699483 1_554
O24 Sc5 2.131802 1_555
O24 Sr3 2.529054 1_555
O24 Sr8 2.699487 1_555
O25 Sc1 2.131811 1_565
O25 Sr4 2.529058 1_555
O25 Sr2 2.699483 1_565
O26 Sc5 2.131802 1_555
O26 Sr6 2.529054 1_555
O26 Sr9 2.699487 1_555
O27 Sc1 2.131811 1_555
O27 Sr7 2.529058 1_555
O27 Sr5 2.699483 1_545
O28 Sc7 2.131811 1_556
O28 Sr4 2.529058 1_556
O28 Sr10 2.699483 1_555
O29 Sc0 2.131802 1_555
O29 Sr3 2.529054 1_555
O29 Sr0 2.699487 1_555
O30 Sc7 2.131811 1_655
O30 Sr7 2.529058 1_554
O30 Sr11 2.699483 1_555
O31 Sc0 2.131802 1_666
O31 Sr6 2.529054 1_555
O31 Sr1 2.699487 1_555
O32 Sc3 2.131811 1_565
O32 Sr4 2.529058 1_555
O32 Sr8 2.699483 1_565
O33 Sc2 2.131805 1_655
O33 Sr3 2.529065 1_655
O33 Sr2 2.699490 1_555
O34 Sc3 2.131811 1_556
O34 Sr7 2.529058 1_555
O34 Sr9 2.699483 1_545
O35 Sc2 2.131805 1_555
O35 Sr6 2.529065 1_455
O35 Sr5 2.699490 1_555
O36 Sc6 2.131805 1_555
O36 Sr3 2.529065 1_555
O36 Sr10 2.699490 1_555
O37 Sc4 2.131811 1_555
O37 Sr4 2.529058 1_555
O37 Sr0 2.699483 1_555
O38 Sc6 2.131805 1_665
O38 Sr6 2.529065 1_555
O38 Sr11 2.699490 1_555
O39 Sc4 2.131811 1_556
O39 Sr7 2.529058 1_555
O39 Sr1 2.699483 1_555
O40 Sc4 2.131805 1_556
O40 Sr0 2.529065 1_556
O40 Sr10 2.699490 1_555
O41 Sc4 2.131805 1_555
O41 Sr1 2.529065 1_554
O41 Sr11 2.699490 1_555
O42 Sc0 2.131802 1_555
O42 Sr0 2.529054 1_555
O42 Sr8 2.699487 1_555
O43 Sc0 2.131802 1_666
O43 Sr1 2.529054 1_555
O43 Sr9 2.699487 1_555
O44 Sc2 2.131811 1_655
O44 Sr2 2.529058 1_555
O44 Sr10 2.699483 1_655
O45 Sc2 2.131811 1_555
O45 Sr5 2.529058 1_555
O45 Sr11 2.699483 1_455
O46 Sc1 2.131811 1_555
O46 Sr2 2.529058 1_555
O46 Sr8 2.699483 1_555
O47 Sc1 2.131811 1_565
O47 Sr5 2.529058 1_555
O47 Sr9 2.699483 1_555
