# generated using pymatgen
data_Tm5B2(O2F3)3
_symmetry_space_group_name_H-M   'P 1'
_cell_length_a   10.61937085
_cell_length_b   10.61937085
_cell_length_c   8.20977022
_cell_angle_alpha   80.15396356
_cell_angle_beta   80.15396356
_cell_angle_gamma   32.93075568
_symmetry_Int_Tables_number   1
_chemical_formula_structural   Tm5B2(O2F3)3
_chemical_formula_sum   'Tm10 B4 O12 F18'
_cell_volume   495.23524456
_cell_formula_units_Z   2
loop_
 _symmetry_equiv_pos_site_id
 _symmetry_equiv_pos_as_xyz
  1  'x, y, z'
loop_
 _atom_site_type_symbol
 _atom_site_label
 _atom_site_symmetry_multiplicity
 _atom_site_fract_x
 _atom_site_fract_y
 _atom_site_fract_z
 _atom_site_occupancy
  Tm  Tm0  1  0.81391200  0.57399700  0.68018300  1
  Tm  Tm1  1  0.42600300  0.18608800  0.81981700  1
  Tm  Tm2  1  0.18608800  0.42600300  0.31981700  1
  Tm  Tm3  1  0.57399700  0.81391200  0.18018300  1
  Tm  Tm4  1  0.99995200  0.21926700  0.09271200  1
  Tm  Tm5  1  0.78073300  0.00004800  0.40728800  1
  Tm  Tm6  1  0.00004800  0.78073300  0.90728800  1
  Tm  Tm7  1  0.21926700  0.99995200  0.59271200  1
  Tm  Tm8  1  0.61190300  0.38809700  0.75000000  1
  Tm  Tm9  1  0.38809700  0.61190300  0.25000000  1
  B  B0  1  0.51724700  0.70592500  0.93709100  1
  B  B1  1  0.29407500  0.48275300  0.56290900  1
  B  B2  1  0.48275300  0.29407500  0.06290900  1
  B  B3  1  0.70592500  0.51724700  0.43709100  1
  O  O0  1  0.35107700  0.83057800  0.06542200  1
  O  O1  1  0.16942200  0.64892300  0.43457800  1
  O  O2  1  0.64892300  0.16942200  0.93457800  1
  O  O3  1  0.83057800  0.35107700  0.56542200  1
  O  O4  1  0.72180800  0.59662800  0.96126400  1
  O  O5  1  0.40337200  0.27819200  0.53873600  1
  O  O6  1  0.27819200  0.40337200  0.03873600  1
  O  O7  1  0.59662800  0.72180800  0.46126400  1
  O  O8  1  0.69608700  0.49023800  0.28267500  1
  O  O9  1  0.50976200  0.30391300  0.21732500  1
  O  O10  1  0.30391300  0.50976200  0.71732500  1
  O  O11  1  0.49023800  0.69608700  0.78267500  1
  F  F0  1  0.13384600  0.28703400  0.51993700  1
  F  F1  1  0.71296600  0.86615400  0.98006300  1
  F  F2  1  0.86615400  0.71296600  0.48006300  1
  F  F3  1  0.28703400  0.13384600  0.01993700  1
  F  F4  1  0.20598700  0.05713600  0.31352300  1
  F  F5  1  0.94286400  0.79401300  0.18647700  1
  F  F6  1  0.79401300  0.94286400  0.68647700  1
  F  F7  1  0.05713600  0.20598700  0.81352300  1
  F  F8  1  0.98461600  0.01538400  0.75000000  1
  F  F9  1  0.01538400  0.98461600  0.25000000  1
  F  F10  1  0.50865700  0.94400600  0.71635300  1
  F  F11  1  0.05599400  0.49134300  0.78364700  1
  F  F12  1  0.49134300  0.05599400  0.28364700  1
  F  F13  1  0.94400600  0.50865700  0.21635300  1
  F  F14  1  0.71657600  0.34679100  0.01332800  1
  F  F15  1  0.65320900  0.28342400  0.48667200  1
  F  F16  1  0.28342400  0.65320900  0.98667200  1
  F  F17  1  0.34679100  0.71657600  0.51332800  1
loop_
_geom_bond_atom_site_label_1
_geom_bond_atom_site_label_2
_geom_bond_distance
_geom_bond_site_symmetry_2
B0 O0 1.377007 1_556
B0 O11 1.385729 1_555
B0 O4 1.393442 1_555
B1 O1 1.377007 1_555
B1 O10 1.385729 1_555
B1 O5 1.393442 1_555
B2 O2 1.377007 1_554
B2 O9 1.385729 1_555
B2 O6 1.393442 1_555
B3 O3 1.377007 1_555
B3 O8 1.385729 1_555
B3 O7 1.393442 1_555
O0 Tm4 2.277197 1_465
O0 Tm9 2.304597 1_555
O0 Tm3 2.554490 1_555
O1 Tm5 2.277197 1_465
O1 Tm9 2.304597 1_555
O1 Tm2 2.554490 1_555
O2 Tm6 2.277197 1_645
O2 Tm8 2.304597 1_555
O2 Tm1 2.554490 1_555
O3 Tm7 2.277197 1_645
O3 Tm8 2.304597 1_555
O3 Tm0 2.554490 1_555
O4 Tm0 2.315738 1_555
O4 Tm3 2.322031 1_556
O4 Tm4 2.385252 1_556
O5 Tm1 2.315738 1_555
O5 Tm2 2.322031 1_555
O5 Tm5 2.385252 1_555
O6 Tm2 2.315738 1_555
O6 Tm1 2.322031 1_554
O6 Tm6 2.385252 1_554
O7 Tm3 2.315738 1_555
O7 Tm0 2.322031 1_555
O7 Tm7 2.385252 1_555
O8 Tm4 2.313378 1_555
O8 Tm9 2.350844 1_555
O8 Tm3 2.471153 1_555
O9 Tm5 2.313378 1_555
O9 Tm9 2.350844 1_555
O9 Tm2 2.471153 1_555
O10 Tm6 2.313378 1_555
O10 Tm8 2.350844 1_555
O10 Tm1 2.471153 1_555
O11 Tm7 2.313378 1_555
O11 Tm8 2.350844 1_555
O11 Tm0 2.471153 1_555
F0 Tm0 2.241165 1_455
F0 Tm7 2.322525 1_545
F0 Tm2 2.327727 1_555
F1 Tm1 2.241165 1_565
F1 Tm6 2.322525 1_655
F1 Tm3 2.327727 1_556
F2 Tm2 2.241165 1_655
F2 Tm5 2.322525 1_565
F2 Tm0 2.327727 1_555
F3 Tm3 2.241165 1_545
F3 Tm4 2.322525 1_455
F3 Tm1 2.327727 1_554
F4 Tm4 2.236790 1_455
F4 Tm7 2.265620 1_545
F4 Tm3 2.387864 1_545
F5 Tm5 2.236790 1_565
F5 Tm6 2.265620 1_654
F5 Tm2 2.387864 1_655
F6 Tm6 2.236790 1_655
F6 Tm5 2.265620 1_565
F6 Tm1 2.387864 1_565
F7 Tm7 2.236790 1_545
F7 Tm4 2.265620 1_456
F7 Tm0 2.387864 1_455
F8 Tm8 2.243666 1_555
F8 Tm7 2.487974 1_645
F8 Tm6 2.487974 1_645
F9 Tm9 2.243666 1_555
F9 Tm4 2.487974 1_465
F9 Tm5 2.487974 1_465
F10 Tm0 2.173448 1_555
F10 Tm1 2.191977 1_565
F11 Tm1 2.173448 1_555
F11 Tm0 2.191977 1_455
F12 Tm2 2.173448 1_555
F12 Tm3 2.191977 1_545
F13 Tm3 2.173448 1_555
F13 Tm2 2.191977 1_655
F14 Tm4 2.200541 1_555
F14 Tm8 2.404304 1_554
F14 Tm9 2.633771 1_555
F15 Tm5 2.200541 1_555
F15 Tm8 2.404304 1_555
F15 Tm9 2.633771 1_555
F16 Tm6 2.200541 1_555
F16 Tm9 2.404304 1_556
F16 Tm8 2.633771 1_555
F17 Tm7 2.200541 1_555
F17 Tm9 2.404304 1_555
F17 Tm8 2.633771 1_555
