# generated using pymatgen
data_BaU2S5
_symmetry_space_group_name_H-M   'P 1'
_cell_length_a   7.37953300
_cell_length_b   7.94909800
_cell_length_c   13.01188100
_cell_angle_alpha   90.00000000
_cell_angle_beta   90.00000000
_cell_angle_gamma   90.00000000
_symmetry_Int_Tables_number   1
_chemical_formula_structural   BaU2S5
_chemical_formula_sum   'Ba4 U8 S20'
_cell_volume   763.28515010
_cell_formula_units_Z   4
loop_
 _symmetry_equiv_pos_site_id
 _symmetry_equiv_pos_as_xyz
  1  'x, y, z'
loop_
 _atom_site_type_symbol
 _atom_site_label
 _atom_site_symmetry_multiplicity
 _atom_site_fract_x
 _atom_site_fract_y
 _atom_site_fract_z
 _atom_site_occupancy
  Ba  Ba0  1  0.92611100  0.75000000  0.99281400  1
  Ba  Ba1  1  0.07388900  0.25000000  0.00718600  1
  Ba  Ba2  1  0.42611100  0.25000000  0.50718600  1
  Ba  Ba3  1  0.57388900  0.75000000  0.49281400  1
  U  U0  1  0.99355900  0.00649600  0.68457900  1
  U  U1  1  0.00644100  0.99350400  0.31542100  1
  U  U2  1  0.49355900  0.99350400  0.81542100  1
  U  U3  1  0.00644100  0.50649600  0.31542100  1
  U  U4  1  0.50644100  0.00649600  0.18457900  1
  U  U5  1  0.99355900  0.49350400  0.68457900  1
  U  U6  1  0.50644100  0.49350400  0.18457900  1
  U  U7  1  0.49355900  0.50649600  0.81542100  1
  S  S0  1  0.71922100  0.75000000  0.71650900  1
  S  S1  1  0.28077900  0.25000000  0.28349100  1
  S  S2  1  0.21922100  0.25000000  0.78349100  1
  S  S3  1  0.78077900  0.75000000  0.21650900  1
  S  S4  1  0.18350800  0.75000000  0.80769700  1
  S  S5  1  0.81649200  0.25000000  0.19230300  1
  S  S6  1  0.68350800  0.25000000  0.69230300  1
  S  S7  1  0.31649200  0.75000000  0.30769700  1
  S  S8  1  0.50872400  0.75000000  0.98751900  1
  S  S9  1  0.49127600  0.25000000  0.01248100  1
  S  S10  1  0.00872400  0.25000000  0.51248100  1
  S  S11  1  0.99127600  0.75000000  0.48751900  1
  S  S12  1  0.83210200  0.45253200  0.86768200  1
  S  S13  1  0.16789800  0.54746800  0.13231800  1
  S  S14  1  0.33210200  0.54746800  0.63231800  1
  S  S15  1  0.16789800  0.95253200  0.13231800  1
  S  S16  1  0.66789800  0.45253200  0.36768200  1
  S  S17  1  0.83210200  0.04746800  0.86768200  1
  S  S18  1  0.66789800  0.04746800  0.36768200  1
  S  S19  1  0.33210200  0.95253200  0.63231800  1
loop_
_geom_bond_atom_site_label_1
_geom_bond_atom_site_label_2
_geom_bond_distance
_geom_bond_site_symmetry_2
Ba0 S17 2.953585 1_565
Ba0 S12 2.953585 1_555
Ba0 S15 3.011736 1_656
Ba0 S13 3.011736 1_656
Ba0 S4 3.067559 1_655
Ba0 S8 3.080892 1_555
Ba0 S3 3.101991 1_556
Ba1 S13 2.953585 1_555
Ba1 S15 2.953585 1_545
Ba1 S12 3.011736 1_454
Ba1 S17 3.011736 1_454
Ba1 S5 3.067559 1_455
Ba1 S9 3.080892 1_555
Ba1 S2 3.101991 1_554
Ba2 S14 2.953585 1_555
Ba2 S19 2.953585 1_545
Ba2 S16 3.011736 1_555
Ba2 S18 3.011736 1_555
Ba2 S6 3.067559 1_555
Ba2 S10 3.080892 1_555
Ba2 S1 3.101991 1_555
Ba3 S18 2.953585 1_565
Ba3 S16 2.953585 1_555
Ba3 S19 3.011736 1_555
Ba3 S14 3.011736 1_555
Ba3 S7 3.067559 1_555
Ba3 S11 3.080892 1_555
Ba3 S0 3.101991 1_555
S0 U2 2.859423 1_555
S0 U7 2.859423 1_555
S0 U5 2.903157 1_555
S0 U0 2.903157 1_565
S1 U4 2.859423 1_555
S1 U6 2.859423 1_555
S1 U3 2.903157 1_555
S1 U1 2.903157 1_545
S2 U5 2.859423 1_455
S2 U0 2.859423 1_455
S2 U7 2.903157 1_555
S2 U2 2.903157 1_545
S3 U1 2.859423 1_655
S3 U3 2.859423 1_655
S3 U6 2.903157 1_555
S3 U4 2.903157 1_565
S4 U5 2.947612 1_455
S4 U0 2.947612 1_465
S4 U2 2.998646 1_555
S4 U7 2.998646 1_555
S5 U3 2.947612 1_655
S5 U1 2.947612 1_645
S5 U4 2.998646 1_555
S5 U6 2.998646 1_555
S6 U7 2.947612 1_555
S6 U2 2.947612 1_545
S6 U0 2.998646 1_555
S6 U5 2.998646 1_555
S7 U6 2.947612 1_555
S7 U4 2.947612 1_565
S7 U1 2.998646 1_555
S7 U3 2.998646 1_555
S8 U2 2.962054 1_555
S8 U7 2.962054 1_555
S8 U4 3.275998 1_566
S8 U6 3.275998 1_556
S9 U6 2.962054 1_555
S9 U4 2.962054 1_555
S9 U7 3.275998 1_554
S9 U2 3.275998 1_544
S10 U5 2.962054 1_455
S10 U0 2.962054 1_455
S10 U3 3.275998 1_555
S10 U1 3.275998 1_545
S11 U1 2.962054 1_655
S11 U3 2.962054 1_655
S11 U5 3.275998 1_555
S11 U0 3.275998 1_565
S12 U7 2.624477 1_555
S12 U5 2.683667 1_555
S13 U6 2.624477 1_555
S13 U3 2.683667 1_555
S14 U5 2.624477 1_455
S14 U7 2.683667 1_555
S15 U4 2.624477 1_565
S15 U1 2.683667 1_555
S16 U3 2.624477 1_655
S16 U6 2.683667 1_555
S17 U2 2.624477 1_545
S17 U0 2.683667 1_555
S18 U1 2.624477 1_645
S18 U4 2.683667 1_555
S19 U0 2.624477 1_465
S19 U2 2.683667 1_555
