# generated using pymatgen
data_Ca4Sn3S10
_symmetry_space_group_name_H-M   'P 1'
_cell_length_a   6.79338400
_cell_length_b   7.16484700
_cell_length_c   16.96897207
_cell_angle_alpha   79.00567721
_cell_angle_beta   90.00000000
_cell_angle_gamma   90.00000000
_symmetry_Int_Tables_number   1
_chemical_formula_structural   Ca4Sn3S10
_chemical_formula_sum   'Ca8 Sn6 S20'
_cell_volume   810.78099210
_cell_formula_units_Z   2
loop_
 _symmetry_equiv_pos_site_id
 _symmetry_equiv_pos_as_xyz
  1  'x, y, z'
loop_
 _atom_site_type_symbol
 _atom_site_label
 _atom_site_symmetry_multiplicity
 _atom_site_fract_x
 _atom_site_fract_y
 _atom_site_fract_z
 _atom_site_occupancy
  Ca  Ca0  1  0.53480200  0.77278000  0.13861800  1
  Ca  Ca1  1  0.03480200  0.22722000  0.86138200  1
  Ca  Ca2  1  0.47495100  0.72890000  0.85722000  1
  Ca  Ca3  1  0.97495100  0.27110000  0.14278000  1
  Ca  Ca4  1  0.98559900  0.96948700  0.40779500  1
  Ca  Ca5  1  0.48559900  0.03051300  0.59220500  1
  Ca  Ca6  1  0.00953400  0.52840600  0.59454200  1
  Ca  Ca7  1  0.50953400  0.47159400  0.40545800  1
  Sn  Sn0  1  0.00401500  0.75007100  0.99987100  1
  Sn  Sn1  1  0.50401500  0.24992900  0.00012900  1
  Sn  Sn2  1  0.50314300  0.10922200  0.28834100  1
  Sn  Sn3  1  0.00314300  0.89077800  0.71165900  1
  Sn  Sn4  1  0.49984600  0.38932900  0.71078400  1
  Sn  Sn5  1  0.99984600  0.61067100  0.28921600  1
  S  S0  1  0.36829000  0.12871700  0.14410500  1
  S  S1  1  0.86829000  0.87128300  0.85589500  1
  S  S2  1  0.63627400  0.36739400  0.85585900  1
  S  S3  1  0.13627400  0.63260600  0.14414100  1
  S  S4  1  0.60871700  0.08679200  0.43120300  1
  S  S5  1  0.10871700  0.91320800  0.56879700  1
  S  S6  1  0.38943100  0.41980400  0.56783000  1
  S  S7  1  0.88943100  0.58019600  0.43217000  1
  S  S8  1  0.81472500  0.94133300  0.24739100  1
  S  S9  1  0.31472500  0.05866700  0.75260900  1
  S  S10  1  0.18661800  0.55632700  0.75482100  1
  S  S11  1  0.68661800  0.44367300  0.24517900  1
  S  S12  1  0.18854800  0.29152700  0.32309000  1
  S  S13  1  0.68854800  0.70847300  0.67691000  1
  S  S14  1  0.80243800  0.20252300  0.66813000  1
  S  S15  1  0.30243800  0.79747700  0.33187000  1
  S  S16  1  0.31398400  0.95952400  0.96284000  1
  S  S17  1  0.81398400  0.04047600  0.03716000  1
  S  S18  1  0.67908500  0.55377100  0.02893900  1
  S  S19  1  0.17908500  0.44622900  0.97106100  1
loop_
_geom_bond_atom_site_label_1
_geom_bond_atom_site_label_2
_geom_bond_distance
_geom_bond_site_symmetry_2
Ca0 S0 2.807579 1_565
Ca0 S18 2.828565 1_555
Ca0 S11 2.875278 1_555
Ca0 S3 2.882935 1_555
Ca0 S17 2.996718 1_565
Ca0 S8 3.054779 1_555
Ca0 S16 3.378642 1_554
Ca1 S1 2.807579 1_445
Ca1 S19 2.828565 1_555
Ca1 S10 2.875278 1_555
Ca1 S2 2.882935 1_455
Ca1 S16 2.996718 1_545
Ca1 S9 3.054779 1_555
Ca1 S17 3.378642 1_456
Ca2 S2 2.816596 1_555
Ca2 S1 2.858776 1_555
Ca2 S16 2.875402 1_555
Ca2 S9 2.884206 1_565
Ca2 S10 3.033861 1_555
Ca2 S19 3.221968 1_555
Ca2 S18 3.254805 1_556
Ca2 S13 3.414582 1_555
Ca3 S3 2.816596 1_655
Ca3 S0 2.858776 1_655
Ca3 S17 2.875402 1_555
Ca3 S8 2.884206 1_545
Ca3 S11 3.033861 1_555
Ca3 S18 3.221968 1_555
Ca3 S19 3.254805 1_654
Ca3 S12 3.414582 1_655
Ca4 S4 2.747119 1_565
Ca4 S5 2.811758 1_655
Ca4 S7 2.817365 1_555
Ca4 S12 2.832982 1_665
Ca4 S15 2.901252 1_655
Ca4 S8 3.001048 1_555
Ca5 S5 2.747119 1_545
Ca5 S4 2.811758 1_555
Ca5 S6 2.817365 1_555
Ca5 S13 2.832982 1_545
Ca5 S14 2.901252 1_555
Ca5 S9 3.001048 1_555
Ca6 S6 2.757881 1_555
Ca6 S5 2.790474 1_555
Ca6 S14 2.806828 1_455
Ca6 S7 2.829316 1_455
Ca6 S13 3.010115 1_455
Ca6 S10 3.015279 1_555
Ca7 S7 2.757881 1_555
Ca7 S4 2.790474 1_555
Ca7 S15 2.806828 1_555
Ca7 S6 2.829316 1_555
Ca7 S12 3.010115 1_555
Ca7 S11 3.015279 1_555
S0 Sn2 2.592065 1_555
S0 Sn1 2.600758 1_555
S1 Sn3 2.592065 1_655
S1 Sn0 2.600758 1_655
S2 Sn1 2.592872 1_556
S2 Sn4 2.606997 1_555
S3 Sn0 2.592872 1_554
S3 Sn5 2.606997 1_455
S4 Sn2 2.503689 1_555
S5 Sn3 2.503689 1_555
S6 Sn4 2.508527 1_555
S7 Sn5 2.508527 1_555
S8 Sn2 2.594041 1_565
S8 Sn5 2.656456 1_555
S9 Sn3 2.594041 1_545
S9 Sn4 2.656456 1_555
S10 Sn4 2.618960 1_555
S10 Sn3 2.676334 1_555
S11 Sn5 2.618960 1_555
S11 Sn2 2.676334 1_555
S12 Sn5 2.588634 1_455
S12 Sn2 2.629651 1_555
S13 Sn4 2.588634 1_555
S13 Sn3 2.629651 1_655
S14 Sn3 2.600834 1_645
S14 Sn4 2.628761 1_555
S15 Sn2 2.600834 1_565
S15 Sn5 2.628761 1_455
S16 Sn0 2.592567 1_555
S16 Sn1 2.626492 1_566
S17 Sn1 2.592567 1_555
S17 Sn0 2.626492 1_644
S18 Sn1 2.607425 1_555
S18 Sn0 2.613297 1_654
S19 Sn0 2.607425 1_555
S19 Sn1 2.613297 1_556
