# generated using pymatgen
data_Y5(Ge5Ir2)2
_symmetry_space_group_name_H-M   'P 1'
_cell_length_a   13.03941600
_cell_length_b   13.03941600
_cell_length_c   4.35902500
_cell_angle_alpha   90.00000000
_cell_angle_beta   90.00000000
_cell_angle_gamma   90.00000000
_symmetry_Int_Tables_number   1
_chemical_formula_structural   Y5(Ge5Ir2)2
_chemical_formula_sum   'Y10 Ge20 Ir8'
_cell_volume   741.14919584
_cell_formula_units_Z   2
loop_
 _symmetry_equiv_pos_site_id
 _symmetry_equiv_pos_as_xyz
  1  'x, y, z'
loop_
 _atom_site_type_symbol
 _atom_site_label
 _atom_site_symmetry_multiplicity
 _atom_site_fract_x
 _atom_site_fract_y
 _atom_site_fract_z
 _atom_site_occupancy
  Y  Y0  1  0.50000000  0.50000000  0.00000000  1
  Y  Y1  1  0.00000000  0.00000000  0.00000000  1
  Y  Y2  1  0.67425100  0.17425100  0.50000000  1
  Y  Y3  1  0.32574900  0.82574900  0.50000000  1
  Y  Y4  1  0.17425100  0.32574900  0.50000000  1
  Y  Y5  1  0.82574900  0.67425100  0.50000000  1
  Y  Y6  1  0.88397800  0.38397800  0.50000000  1
  Y  Y7  1  0.11602200  0.61602200  0.50000000  1
  Y  Y8  1  0.38397800  0.11602200  0.50000000  1
  Y  Y9  1  0.61602200  0.88397800  0.50000000  1
  Ge  Ge0  1  0.56654600  0.06654600  0.00000000  1
  Ge  Ge1  1  0.43345400  0.93345400  0.00000000  1
  Ge  Ge2  1  0.06654600  0.43345400  0.00000000  1
  Ge  Ge3  1  0.93345400  0.56654600  0.00000000  1
  Ge  Ge4  1  0.66288700  0.70006400  0.00000000  1
  Ge  Ge5  1  0.33711300  0.29993600  0.00000000  1
  Ge  Ge6  1  0.16288700  0.79993600  0.00000000  1
  Ge  Ge7  1  0.83711300  0.20006400  0.00000000  1
  Ge  Ge8  1  0.29993600  0.66288700  0.00000000  1
  Ge  Ge9  1  0.70006400  0.33711300  0.00000000  1
  Ge  Ge10  1  0.20006400  0.16288700  0.00000000  1
  Ge  Ge11  1  0.79993600  0.83711300  0.00000000  1
  Ge  Ge12  1  0.65693800  0.50859800  0.50000000  1
  Ge  Ge13  1  0.34306200  0.49140200  0.50000000  1
  Ge  Ge14  1  0.15693800  0.99140200  0.50000000  1
  Ge  Ge15  1  0.84306200  0.00859800  0.50000000  1
  Ge  Ge16  1  0.49140200  0.65693800  0.50000000  1
  Ge  Ge17  1  0.50859800  0.34306200  0.50000000  1
  Ge  Ge18  1  0.00859800  0.15693800  0.50000000  1
  Ge  Ge19  1  0.99140200  0.84306200  0.50000000  1
  Ir  Ir0  1  0.74604600  0.52119100  0.00000000  1
  Ir  Ir1  1  0.25395400  0.47880900  0.00000000  1
  Ir  Ir2  1  0.24604600  0.97880900  0.00000000  1
  Ir  Ir3  1  0.75395400  0.02119100  0.00000000  1
  Ir  Ir4  1  0.47880900  0.74604600  0.00000000  1
  Ir  Ir5  1  0.52119100  0.25395400  0.00000000  1
  Ir  Ir6  1  0.02119100  0.24604600  0.00000000  1
  Ir  Ir7  1  0.97880900  0.75395400  0.00000000  1
loop_
_geom_bond_atom_site_label_1
_geom_bond_atom_site_label_2
_geom_bond_distance
_geom_bond_site_symmetry_2
Ge0 Ge1 2.454286 1_545
Ge0 Ir3 2.514236 1_555
Ge0 Ir5 2.514236 1_555
Ge0 Y2 2.948730 1_554
Ge0 Y2 2.948730 1_555
Ge0 Y9 3.291449 1_545
Ge0 Y9 3.291449 1_544
Ge0 Y8 3.291449 1_555
Ge0 Y8 3.291449 1_554
Ge1 Ir4 2.514236 1_555
Ge1 Ir2 2.514236 1_555
Ge1 Y3 2.948730 1_555
Ge1 Y3 2.948730 1_554
Ge1 Y9 3.291449 1_554
Ge1 Y9 3.291449 1_555
Ge1 Y8 3.291449 1_565
Ge1 Y8 3.291449 1_564
Ge2 Ge3 2.454286 1_455
Ge2 Ir6 2.514236 1_555
Ge2 Ir1 2.514236 1_555
Ge2 Y4 2.948730 1_554
Ge2 Y4 2.948730 1_555
Ge2 Y7 3.291449 1_555
Ge2 Y6 3.291449 1_455
Ge2 Y7 3.291449 1_554
Ge2 Y6 3.291449 1_454
Ge3 Ir0 2.514236 1_555
Ge3 Ir7 2.514236 1_555
Ge3 Y5 2.948730 1_555
Ge3 Y5 2.948730 1_554
Ge3 Y6 3.291449 1_555
Ge3 Y6 3.291449 1_554
Ge3 Y7 3.291449 1_655
Ge3 Y7 3.291449 1_654
Ge4 Ir4 2.474023 1_555
Ge4 Ir0 2.572137 1_555
Ge4 Y5 3.061593 1_555
Ge4 Y5 3.061593 1_554
Ge4 Y9 3.297687 1_555
Ge4 Y9 3.297687 1_554
Ge4 Y0 3.364012 1_555
Ge5 Ir5 2.474023 1_555
Ge5 Ir1 2.572137 1_555
Ge5 Y4 3.061593 1_554
Ge5 Y4 3.061593 1_555
Ge5 Y8 3.297687 1_555
Ge5 Y8 3.297687 1_554
Ge5 Y0 3.364012 1_555
Ge6 Ir7 2.474023 1_455
Ge6 Ge8 2.527255 1_555
Ge6 Ir2 2.572137 1_555
Ge6 Y3 3.061593 1_554
Ge6 Y3 3.061593 1_555
Ge6 Y7 3.297687 1_555
Ge6 Y7 3.297687 1_554
Ge6 Y1 3.364012 1_565
Ge7 Ir6 2.474023 1_655
Ge7 Ge9 2.527255 1_555
Ge7 Ir3 2.572137 1_555
Ge7 Y2 3.061593 1_555
Ge7 Y2 3.061593 1_554
Ge7 Y6 3.297687 1_555
Ge7 Y6 3.297687 1_554
Ge7 Y1 3.364012 1_655
Ge8 Ir1 2.474023 1_555
Ge8 Ir4 2.572137 1_555
Ge8 Y3 3.061593 1_554
Ge8 Y3 3.061593 1_555
Ge8 Y7 3.297687 1_554
Ge8 Y7 3.297687 1_555
Ge8 Y0 3.364012 1_555
Ge9 Ir0 2.474023 1_555
Ge9 Ir5 2.572137 1_555
Ge9 Y2 3.061593 1_555
Ge9 Y2 3.061593 1_554
Ge9 Y6 3.297687 1_555
Ge9 Y6 3.297687 1_554
Ge9 Y0 3.364012 1_555
Ge10 Ir2 2.474023 1_545
Ge10 Ge5 2.527255 1_555
Ge10 Ir6 2.572137 1_555
Ge10 Y4 3.061593 1_554
Ge10 Y4 3.061593 1_555
Ge10 Y8 3.297687 1_555
Ge10 Y8 3.297687 1_554
Ge10 Y1 3.364012 1_555
Ge11 Ir3 2.474023 1_565
Ge11 Ge4 2.527255 1_555
Ge11 Ir7 2.572137 1_555
Ge11 Y5 3.061593 1_555
Ge11 Y5 3.061593 1_554
Ge11 Y9 3.297687 1_555
Ge11 Y9 3.297687 1_554
Ge11 Y1 3.364012 1_665
Ge12 Ir0 2.475336 1_556
Ge12 Ir0 2.475336 1_555
Ge12 Ge16 2.898358 1_555
Ge12 Ge17 2.898358 1_555
Ge12 Y0 2.991741 1_556
Ge12 Y0 2.991741 1_555
Ge12 Y5 3.083982 1_555
Ge12 Y6 3.377116 1_555
Ge13 Ir1 2.475336 1_556
Ge13 Ir1 2.475336 1_555
Ge13 Ge16 2.898358 1_555
Ge13 Ge17 2.898358 1_555
Ge13 Y0 2.991741 1_556
Ge13 Y0 2.991741 1_555
Ge13 Y4 3.083982 1_555
Ge13 Y7 3.377116 1_555
Ge14 Ir2 2.475336 1_555
Ge14 Ir2 2.475336 1_556
Ge14 Ge18 2.898358 1_565
Ge14 Ge19 2.898358 1_455
Ge14 Y1 2.991741 1_565
Ge14 Y1 2.991741 1_566
Ge14 Y3 3.083982 1_555
Ge14 Y8 3.377116 1_565
Ge15 Ir3 2.475336 1_556
Ge15 Ir3 2.475336 1_555
Ge15 Ge19 2.898358 1_545
Ge15 Ge18 2.898358 1_655
Ge15 Y1 2.991741 1_656
Ge15 Y1 2.991741 1_655
Ge15 Y2 3.083982 1_555
Ge15 Y9 3.377116 1_545
Ge16 Ir4 2.475336 1_556
Ge16 Ir4 2.475336 1_555
Ge16 Y0 2.991741 1_556
Ge16 Y0 2.991741 1_555
Ge16 Y3 3.083982 1_555
Ge16 Y9 3.377116 1_555
Ge17 Ir5 2.475336 1_555
Ge17 Ir5 2.475336 1_556
Ge17 Y0 2.991741 1_556
Ge17 Y0 2.991741 1_555
Ge17 Y2 3.083982 1_555
Ge17 Y8 3.377116 1_555
Ge18 Ir6 2.475336 1_555
Ge18 Ir6 2.475336 1_556
Ge18 Y1 2.991741 1_556
Ge18 Y1 2.991741 1_555
Ge18 Y4 3.083982 1_555
Ge18 Y6 3.377116 1_455
Ge19 Ir7 2.475336 1_556
Ge19 Ir7 2.475336 1_555
Ge19 Y1 2.991741 1_665
Ge19 Y1 2.991741 1_666
Ge19 Y5 3.083982 1_555
Ge19 Y7 3.377116 1_655
Ir0 Y5 3.132674 1_555
Ir0 Y5 3.132674 1_554
Ir0 Y0 3.220173 1_555
Ir0 Y6 3.344581 1_554
Ir0 Y6 3.344581 1_555
Ir1 Y4 3.132674 1_555
Ir1 Y4 3.132674 1_554
Ir1 Y0 3.220173 1_555
Ir1 Y7 3.344581 1_555
Ir1 Y7 3.344581 1_554
Ir2 Y3 3.132674 1_554
Ir2 Y3 3.132674 1_555
Ir2 Y1 3.220173 1_565
Ir2 Y8 3.344581 1_565
Ir2 Y8 3.344581 1_564
Ir3 Y2 3.132674 1_555
Ir3 Y2 3.132674 1_554
Ir3 Y1 3.220173 1_655
Ir3 Y9 3.344581 1_544
Ir3 Y9 3.344581 1_545
Ir4 Y3 3.132674 1_554
Ir4 Y3 3.132674 1_555
Ir4 Y0 3.220173 1_555
Ir4 Y9 3.344581 1_554
Ir4 Y9 3.344581 1_555
Ir5 Y2 3.132674 1_555
Ir5 Y2 3.132674 1_554
Ir5 Y0 3.220173 1_555
Ir5 Y8 3.344581 1_554
Ir5 Y8 3.344581 1_555
Ir6 Y4 3.132674 1_555
Ir6 Y4 3.132674 1_554
Ir6 Y1 3.220173 1_555
Ir6 Y6 3.344581 1_454
Ir6 Y6 3.344581 1_455
Ir7 Y5 3.132674 1_555
Ir7 Y5 3.132674 1_554
Ir7 Y1 3.220173 1_665
Ir7 Y7 3.344581 1_655
Ir7 Y7 3.344581 1_654
