# generated using pymatgen
data_CaSiO4
_symmetry_space_group_name_H-M   'P 1'
_cell_length_a   11.84867144
_cell_length_b   10.69844617
_cell_length_c   6.51057882
_cell_angle_alpha   83.21699444
_cell_angle_beta   63.71517572
_cell_angle_gamma   33.06782984
_symmetry_Int_Tables_number   1
_chemical_formula_structural   CaSiO4
_chemical_formula_sum   'Ca4 Si4 O16'
_cell_volume   345.56611580
_cell_formula_units_Z   4
loop_
 _symmetry_equiv_pos_site_id
 _symmetry_equiv_pos_as_xyz
  1  'x, y, z'
loop_
 _atom_site_type_symbol
 _atom_site_label
 _atom_site_symmetry_multiplicity
 _atom_site_fract_x
 _atom_site_fract_y
 _atom_site_fract_z
 _atom_site_occupancy
  Ca  Ca0  1  0.47495700  0.17003300  0.36315400  1
  Ca  Ca1  1  0.99185600  0.36315400  0.17003300  1
  Ca  Ca2  1  0.88684600  0.25814400  0.77504300  1
  Ca  Ca3  1  0.07996700  0.77504300  0.25814400  1
  Si  Si0  1  0.09349500  0.78194400  0.72747400  1
  Si  Si1  1  0.39708700  0.72747400  0.78194400  1
  Si  Si2  1  0.52252600  0.85291300  0.15650500  1
  Si  Si3  1  0.46805600  0.15650500  0.85291300  1
  O  O0  1  0.48505300  0.01494700  0.01494700  1
  O  O1  1  0.23505300  0.76494700  0.76494700  1
  O  O2  1  0.31043800  0.51518800  0.46773800  1
  O  O3  1  0.70663600  0.46773800  0.51518800  1
  O  O4  1  0.78226200  0.54336400  0.93956200  1
  O  O5  1  0.73481200  0.93956200  0.54336400  1
  O  O6  1  0.91263800  0.85644100  0.01198500  1
  O  O7  1  0.21893600  0.01198500  0.85644100  1
  O  O8  1  0.23801500  0.03106400  0.33736200  1
  O  O9  1  0.39355900  0.33736200  0.03106400  1
  O  O10  1  0.90751900  0.02687800  0.66820100  1
  O  O11  1  0.39740300  0.66820100  0.02687800  1
  O  O12  1  0.58179900  0.85259700  0.34248100  1
  O  O13  1  0.22312200  0.34248100  0.85259700  1
  O  O14  1  0.04398100  0.45601900  0.45601900  1
  O  O15  1  0.79398100  0.20601900  0.20601900  1
loop_
_geom_bond_atom_site_label_1
_geom_bond_atom_site_label_2
_geom_bond_distance
_geom_bond_site_symmetry_2
Ca0 O2 2.291922 1_555
Ca0 O6 2.350924 1_545
Ca0 O12 2.430101 1_545
Ca0 O13 2.490431 1_555
Ca0 O5 2.593842 1_545
Ca0 O9 2.616929 1_555
Ca0 O14 2.705400 1_555
Ca0 O0 2.867451 1_555
Ca1 O3 2.291922 1_555
Ca1 O7 2.350924 1_654
Ca1 O13 2.430093 1_654
Ca1 O12 2.490431 1_555
Ca1 O4 2.593842 1_554
Ca1 O8 2.616929 1_655
Ca1 O14 2.705400 1_655
Ca1 O0 2.867451 1_655
Ca2 O4 2.291922 1_555
Ca2 O8 2.350924 1_655
Ca2 O10 2.430090 1_555
Ca2 O11 2.490430 1_556
Ca2 O3 2.593842 1_555
Ca2 O7 2.616929 1_655
Ca2 O15 2.705400 1_556
Ca2 O1 2.867451 1_645
Ca3 O5 2.291922 1_455
Ca3 O9 2.350924 1_555
Ca3 O11 2.430101 1_555
Ca3 O10 2.490436 1_465
Ca3 O2 2.593842 1_555
Ca3 O6 2.616929 1_455
Ca3 O15 2.705400 1_465
Ca3 O1 2.867451 1_554
O0 Si2 1.657283 1_545
O0 Si3 1.657283 1_554
O1 Si0 1.657283 1_555
O1 Si1 1.657283 1_555
O2 Si0 1.614477 1_555
O3 Si1 1.614477 1_555
O4 Si2 1.614477 1_556
O5 Si3 1.614477 1_565
O6 Si0 1.621439 1_654
O7 Si1 1.621439 1_545
O8 Si2 1.621439 1_545
O9 Si3 1.621439 1_554
O10 Si0 1.645453 1_645
O11 Si1 1.645454 1_554
O12 Si2 1.645448 1_555
O13 Si3 1.645457 1_555
