# generated using pymatgen
data_Co9O13
_symmetry_space_group_name_H-M   'P 1'
_cell_length_a   5.13723544
_cell_length_b   5.13723544
_cell_length_c   16.93393119
_cell_angle_alpha   81.88937213
_cell_angle_beta   81.88937213
_cell_angle_gamma   33.98669823
_symmetry_Int_Tables_number   1
_chemical_formula_structural   Co9O13
_chemical_formula_sum   'Co9 O13'
_cell_volume   247.08745660
_cell_formula_units_Z   1
loop_
 _symmetry_equiv_pos_site_id
 _symmetry_equiv_pos_as_xyz
  1  'x, y, z'
loop_
 _atom_site_type_symbol
 _atom_site_label
 _atom_site_symmetry_multiplicity
 _atom_site_fract_x
 _atom_site_fract_y
 _atom_site_fract_z
 _atom_site_occupancy
  Co  Co0  1  0.50000000  0.50000000  0.50000000  1
  Co  Co1  1  0.35159700  0.35159700  0.04295400  1
  Co  Co2  1  0.64840300  0.64840300  0.95704600  1
  Co  Co3  1  0.25079800  0.25079800  0.41691100  1
  Co  Co4  1  0.74920200  0.74920200  0.58308900  1
  Co  Co5  1  0.06204400  0.06204400  0.12684200  1
  Co  Co6  1  0.93795600  0.93795600  0.87315800  1
  Co  Co7  1  0.01260800  0.01260800  0.32529400  1
  Co  Co8  1  0.98739200  0.98739200  0.67470600  1
  O  O0  1  0.00000000  0.00000000  0.00000000  1
  O  O1  1  0.10858900  0.10858900  0.22640500  1
  O  O2  1  0.89141100  0.89141100  0.77359500  1
  O  O3  1  0.70419700  0.70419700  0.06430200  1
  O  O4  1  0.29580300  0.29580300  0.93569800  1
  O  O5  1  0.42943700  0.42943700  0.13173500  1
  O  O6  1  0.57056300  0.57056300  0.86826500  1
  O  O7  1  0.38006300  0.38006300  0.33036700  1
  O  O8  1  0.61993700  0.61993700  0.66963300  1
  O  O9  1  0.60970600  0.60970600  0.39554800  1
  O  O10  1  0.39029400  0.39029400  0.60445200  1
  O  O11  1  0.86654000  0.86654000  0.47394600  1
  O  O12  1  0.13346000  0.13346000  0.52605400  1
loop_
_geom_bond_atom_site_label_1
_geom_bond_atom_site_label_2
_geom_bond_distance
_geom_bond_site_symmetry_2
Co0 O10 1.930807 1_555
Co0 O9 1.930807 1_555
Co0 O12 2.083091 1_565
Co0 O11 2.083091 1_545
Co0 O12 2.083091 1_655
Co0 O11 2.083091 1_455
Co1 O5 1.784519 1_555
Co1 O4 1.973110 1_554
Co1 O3 2.080411 1_545
Co1 O3 2.080411 1_455
Co1 O0 2.143988 1_655
Co1 O0 2.143988 1_565
Co2 O6 1.784519 1_555
Co2 O3 1.973110 1_556
Co2 O4 2.080411 1_655
Co2 O4 2.080411 1_565
Co2 O0 2.143988 1_656
Co2 O0 2.143988 1_566
Co3 O7 1.792155 1_555
Co3 O12 2.028911 1_555
Co3 O9 2.110701 1_455
Co3 O9 2.110701 1_545
Co3 O11 2.191922 1_455
Co3 O11 2.191922 1_545
Co4 O8 1.792155 1_555
Co4 O11 2.028911 1_555
Co4 O10 2.110701 1_655
Co4 O10 2.110701 1_565
Co4 O12 2.191922 1_655
Co4 O12 2.191922 1_565
Co5 O1 1.810869 1_555
Co5 O5 1.981667 1_455
Co5 O5 1.981667 1_545
Co5 O3 2.211414 1_545
Co5 O3 2.211414 1_455
Co5 O0 2.317679 1_555
Co6 O2 1.810869 1_555
Co6 O6 1.981667 1_655
Co6 O6 1.981667 1_565
Co6 O4 2.211414 1_655
Co6 O4 2.211414 1_565
Co6 O0 2.317679 1_666
Co7 O1 1.796573 1_555
Co7 O7 1.981105 1_545
Co7 O7 1.981105 1_455
Co7 O9 2.216916 1_455
Co7 O9 2.216916 1_545
Co8 O2 1.796573 1_555
Co8 O8 1.981105 1_565
Co8 O8 1.981105 1_655
Co8 O10 2.216916 1_655
Co8 O10 2.216916 1_565
