# generated using pymatgen
data_Pr2(MoO4)3
_symmetry_space_group_name_H-M   'P 1'
_cell_length_a   7.58734278
_cell_length_b   7.58734278
_cell_length_c   10.89590812
_cell_angle_alpha   90.00000000
_cell_angle_beta   90.00000000
_cell_angle_gamma   90.00000000
_symmetry_Int_Tables_number   1
_chemical_formula_structural   Pr2(MoO4)3
_chemical_formula_sum   'Pr4 Mo6 O24'
_cell_volume   627.25313762
_cell_formula_units_Z   2
loop_
 _symmetry_equiv_pos_site_id
 _symmetry_equiv_pos_as_xyz
  1  'x, y, z'
loop_
 _atom_site_type_symbol
 _atom_site_label
 _atom_site_symmetry_multiplicity
 _atom_site_fract_x
 _atom_site_fract_y
 _atom_site_fract_z
 _atom_site_occupancy
  Pr  Pr0  1  0.18939307  0.68939307  0.73834406  1
  Pr  Pr1  1  0.81060693  0.31060693  0.73834406  1
  Pr  Pr2  1  0.68939307  0.81060693  0.26165594  1
  Pr  Pr3  1  0.31060693  0.18939307  0.26165594  1
  Mo  Mo0  1  0.20933230  0.70933230  0.35554784  1
  Mo  Mo1  1  0.79066770  0.29066770  0.35554784  1
  Mo  Mo2  1  0.70933230  0.79066770  0.64445216  1
  Mo  Mo3  1  0.29066770  0.20933230  0.64445216  1
  Mo  Mo4  1  -0.00000000  0.00000000  -0.00000000  1
  Mo  Mo5  1  0.50000000  0.50000000  -0.00000000  1
  O  O0  1  0.99589088  0.22569043  0.29726950  1
  O  O1  1  0.00410912  0.77430957  0.29726950  1
  O  O2  1  0.22569043  0.00410912  0.70273050  1
  O  O3  1  0.50410912  0.72569043  0.70273050  1
  O  O4  1  0.77430957  0.99589088  0.70273050  1
  O  O5  1  0.49589088  0.27430957  0.70273050  1
  O  O6  1  0.27430957  0.50410912  0.29726950  1
  O  O7  1  0.72569043  0.49589088  0.29726950  1
  O  O8  1  0.18499607  0.03948887  0.09364022  1
  O  O9  1  0.81500393  0.96051113  0.09364022  1
  O  O10  1  0.03948887  0.81500393  0.90635978  1
  O  O11  1  0.31500393  0.53948887  0.90635978  1
  O  O12  1  0.96051113  0.18499607  0.90635978  1
  O  O13  1  0.68499607  0.46051113  0.90635978  1
  O  O14  1  0.46051113  0.31500393  0.09364022  1
  O  O15  1  0.53948887  0.68499607  0.09364022  1
  O  O16  1  0.62872604  0.12872604  0.31169079  1
  O  O17  1  0.37127396  0.87127396  0.31169079  1
  O  O18  1  0.12872604  0.37127396  0.68830921  1
  O  O19  1  0.87127396  0.62872604  0.68830921  1
  O  O20  1  0.19713415  0.69713415  0.51575496  1
  O  O21  1  0.80286585  0.30286585  0.51575496  1
  O  O22  1  0.69713415  0.80286585  0.48424504  1
  O  O23  1  0.30286585  0.19713415  0.48424504  1
loop_
_geom_bond_atom_site_label_1
_geom_bond_atom_site_label_2
_geom_bond_distance
_geom_bond_site_symmetry_2
Mo0 O20 1.750502 1_555
Mo0 O6 1.752378 1_555
Mo0 O1 1.752378 1_555
Mo0 O17 1.802164 1_555
Mo1 O21 1.750502 1_555
Mo1 O0 1.752378 1_555
Mo1 O7 1.752378 1_555
Mo1 O16 1.802164 1_555
Mo2 O22 1.750502 1_555
Mo2 O3 1.752378 1_555
Mo2 O4 1.752378 1_555
Mo2 O19 1.802164 1_555
Mo3 O23 1.750502 1_555
Mo3 O2 1.752378 1_555
Mo3 O5 1.752378 1_555
Mo3 O18 1.802164 1_555
Mo4 O10 1.760950 1_544
Mo4 O9 1.760950 1_445
Mo4 O12 1.760950 1_454
Mo4 O8 1.760950 1_555
Mo5 O11 1.760950 1_554
Mo5 O13 1.760950 1_554
Mo5 O14 1.760950 1_555
Mo5 O15 1.760950 1_555
O0 Pr3 2.434808 1_655
O1 Pr2 2.434808 1_455
O2 Pr0 2.434808 1_545
O3 Pr0 2.434808 1_555
O4 Pr1 2.434808 1_565
O5 Pr1 2.434808 1_555
O6 Pr3 2.434808 1_555
O7 Pr2 2.434808 1_555
O8 Pr3 2.356551 1_555
O9 Pr2 2.356551 1_555
O10 Pr0 2.356551 1_555
O11 Pr0 2.356551 1_555
O12 Pr1 2.356551 1_555
O13 Pr1 2.356551 1_555
O14 Pr3 2.356551 1_555
O15 Pr2 2.356551 1_555
O16 Pr3 2.516930 1_555
O16 Pr2 2.516930 1_545
O17 Pr3 2.516930 1_565
O17 Pr2 2.516930 1_555
O18 Pr1 2.516930 1_455
O18 Pr0 2.516930 1_555
O19 Pr0 2.516930 1_655
O19 Pr1 2.516930 1_555
O20 Pr0 2.426732 1_555
O21 Pr1 2.426732 1_555
O22 Pr2 2.426732 1_555
O23 Pr3 2.426732 1_555
