# generated using pymatgen
data_VCoGe
_symmetry_space_group_name_H-M   'P 1'
_cell_length_a   3.66119900
_cell_length_b   6.06062300
_cell_length_c   6.99009600
_cell_angle_alpha   90.00000000
_cell_angle_beta   90.00000000
_cell_angle_gamma   90.00000000
_symmetry_Int_Tables_number   1
_chemical_formula_structural   VCoGe
_chemical_formula_sum   'V4 Co4 Ge4'
_cell_volume   155.10426676
_cell_formula_units_Z   4
loop_
 _symmetry_equiv_pos_site_id
 _symmetry_equiv_pos_as_xyz
  1  'x, y, z'
loop_
 _atom_site_type_symbol
 _atom_site_label
 _atom_site_symmetry_multiplicity
 _atom_site_fract_x
 _atom_site_fract_y
 _atom_site_fract_z
 _atom_site_occupancy
  V  V0  1  0.75000000  0.47222800  0.17941600  1
  V  V1  1  0.75000000  0.97222800  0.32058400  1
  V  V2  1  0.25000000  0.52777200  0.82058400  1
  V  V3  1  0.25000000  0.02777200  0.67941600  1
  Co  Co0  1  0.75000000  0.35839300  0.55793200  1
  Co  Co1  1  0.75000000  0.85839300  0.94206800  1
  Co  Co2  1  0.25000000  0.64160700  0.44206800  1
  Co  Co3  1  0.25000000  0.14160700  0.05793200  1
  Ge  Ge0  1  0.75000000  0.23819200  0.87389600  1
  Ge  Ge1  1  0.75000000  0.73819200  0.62610400  1
  Ge  Ge2  1  0.25000000  0.76180800  0.12610400  1
  Ge  Ge3  1  0.25000000  0.26180800  0.37389600  1
loop_
_geom_bond_atom_site_label_1
_geom_bond_atom_site_label_2
_geom_bond_distance
_geom_bond_site_symmetry_2
Co0 Ge3 2.312714 1_555
Co0 Ge3 2.312714 1_655
Co0 Ge0 2.325661 1_555
Co0 Ge1 2.350627 1_555
Co0 Co2 2.636901 1_655
Co0 Co2 2.636901 1_555
Co0 V0 2.734332 1_555
Co0 V2 2.788484 1_555
Co0 V2 2.788484 1_655
Co0 V3 2.843818 1_655
Co0 V3 2.843818 1_555
Co0 V1 2.868804 1_545
Co1 Ge2 2.312714 1_656
Co1 Ge2 2.312714 1_556
Co1 Ge1 2.325661 1_555
Co1 Ge0 2.350627 1_565
Co1 Co3 2.636901 1_566
Co1 Co3 2.636901 1_666
Co1 V1 2.734332 1_556
Co1 V3 2.788484 1_665
Co1 V3 2.788484 1_565
Co1 V2 2.843818 1_555
Co1 V2 2.843818 1_655
Co1 V0 2.868804 1_556
Co2 Ge1 2.312714 1_455
Co2 Ge1 2.312714 1_555
Co2 Ge2 2.325661 1_555
Co2 Ge3 2.350627 1_555
Co2 V2 2.734332 1_555
Co2 V0 2.788484 1_555
Co2 V0 2.788484 1_455
Co2 V1 2.843818 1_555
Co2 V1 2.843818 1_455
Co2 V3 2.868804 1_565
Co3 Ge0 2.312714 1_554
Co3 Ge0 2.312714 1_454
Co3 Ge3 2.325661 1_555
Co3 Ge2 2.350627 1_545
Co3 V3 2.734332 1_554
Co3 V1 2.788484 1_445
Co3 V1 2.788484 1_545
Co3 V0 2.843818 1_555
Co3 V0 2.843818 1_455
Co3 V2 2.868804 1_554
Ge0 V2 2.563224 1_555
Ge0 V2 2.563224 1_655
Ge0 V0 2.563731 1_556
Ge0 V3 2.612563 1_655
Ge0 V3 2.612563 1_555
Ge1 V3 2.563224 1_565
Ge1 V3 2.563224 1_665
Ge1 V1 2.563731 1_555
Ge1 V2 2.612563 1_655
Ge1 V2 2.612563 1_555
Ge2 V0 2.563224 1_555
Ge2 V0 2.563224 1_455
Ge2 V2 2.563731 1_554
Ge2 V1 2.612563 1_555
Ge2 V1 2.612563 1_455
Ge3 V1 2.563224 1_445
Ge3 V1 2.563224 1_545
Ge3 V3 2.563731 1_555
Ge3 V0 2.612563 1_455
Ge3 V0 2.612563 1_555
