# generated using pymatgen
data_EuHo3
_symmetry_space_group_name_H-M   'P 1'
_cell_length_a   5.98674237
_cell_length_b   5.98674237
_cell_length_c   5.98674237
_cell_angle_alpha   131.97974871
_cell_angle_beta   131.97974871
_cell_angle_gamma   70.26101348
_symmetry_Int_Tables_number   1
_chemical_formula_structural   EuHo3
_chemical_formula_sum   'Eu1 Ho3'
_cell_volume   116.21793809
_cell_formula_units_Z   1
loop_
 _symmetry_equiv_pos_site_id
 _symmetry_equiv_pos_as_xyz
  1  'x, y, z'
loop_
 _atom_site_type_symbol
 _atom_site_label
 _atom_site_symmetry_multiplicity
 _atom_site_fract_x
 _atom_site_fract_y
 _atom_site_fract_z
 _atom_site_occupancy
  Eu  Eu0  1  0.00000000  0.00000000  0.00000000  1
  Ho  Ho0  1  0.75000000  0.25000000  0.50000000  1
  Ho  Ho1  1  0.25000000  0.75000000  0.50000000  1
  Ho  Ho2  1  0.50000000  0.50000000  0.00000000  1
loop_
_geom_bond_atom_site_label_1
_geom_bond_atom_site_label_2
_geom_bond_distance
_geom_bond_site_symmetry_2
Eu0 Ho2 3.445016 1_545
Eu0 Ho2 3.445016 1_455
Eu0 Ho2 3.445016 1_556
Eu0 Ho2 3.445016 1_444
Eu0 Ho1 3.453593 1_555
Eu0 Ho0 3.453593 1_555
Eu0 Ho0 3.453593 1_455
Eu0 Ho1 3.453593 1_444
Eu0 Ho1 3.453593 1_545
Eu0 Ho0 3.453593 1_454
Eu0 Ho1 3.453593 1_544
Eu0 Ho0 3.453593 1_444
Ho0 Ho1 3.445016 1_555
Ho0 Ho1 3.445016 1_645
Ho0 Ho1 3.445016 1_656
Ho0 Ho1 3.445016 1_544
Ho0 Ho2 3.453593 1_545
Ho0 Ho2 3.453593 1_555
Ho0 Ho2 3.453593 1_556
Ho0 Ho2 3.453593 1_656
Ho1 Ho2 3.453593 1_455
Ho1 Ho2 3.453593 1_566
Ho1 Ho2 3.453593 1_555
Ho1 Ho2 3.453593 1_556
