# generated using pymatgen
data_Nb(SeI)2
_symmetry_space_group_name_H-M   'P 1'
_cell_length_a   7.07859171
_cell_length_b   7.07859171
_cell_length_c   7.92056608
_cell_angle_alpha   79.43211804
_cell_angle_beta   79.43211804
_cell_angle_gamma   118.27902163
_symmetry_Int_Tables_number   1
_chemical_formula_structural   Nb(SeI)2
_chemical_formula_sum   'Nb2 Se4 I4'
_cell_volume   326.40210404
_cell_formula_units_Z   2
loop_
 _symmetry_equiv_pos_site_id
 _symmetry_equiv_pos_as_xyz
  1  'x, y, z'
loop_
 _atom_site_type_symbol
 _atom_site_label
 _atom_site_symmetry_multiplicity
 _atom_site_fract_x
 _atom_site_fract_y
 _atom_site_fract_z
 _atom_site_occupancy
  Nb  Nb0  1  0.87879928  0.12120072  0.00000000  1
  Nb  Nb1  1  0.12120072  0.87879928  0.00000000  1
  Se  Se0  1  0.86811894  0.86811894  0.29702458  1
  Se  Se1  1  0.13188106  0.13188106  0.70297542  1
  Se  Se2  1  0.67974469  0.67974469  0.11873260  1
  Se  Se3  1  0.32025531  0.32025531  0.88126740  1
  I  I0  1  0.43182896  0.02467309  0.22488377  1
  I  I1  1  0.56817104  0.97532691  0.77511623  1
  I  I2  1  0.97532691  0.56817104  0.77511623  1
  I  I3  1  0.02467309  0.43182896  0.22488377  1
loop_
_geom_bond_atom_site_label_1
_geom_bond_atom_site_label_2
_geom_bond_distance
_geom_bond_site_symmetry_2
Nb0 Se2 2.626534 1_545
Nb0 Se3 2.626534 1_654
Nb0 Se1 2.647698 1_654
Nb0 Se0 2.647698 1_545
Nb1 Se2 2.626534 1_455
Nb1 Se3 2.626534 1_564
Nb1 Se1 2.647698 1_564
Nb1 Se0 2.647698 1_455
Se0 Se2 2.290619 1_555
Se1 Se3 2.290619 1_555
I0 Nb1 3.005593 1_545
I0 Nb0 3.014629 1_555
I1 Nb0 3.005593 1_566
I1 Nb1 3.014629 1_556
I2 Nb1 3.005593 1_656
I2 Nb0 3.014629 1_556
I3 Nb0 3.005593 1_455
I3 Nb1 3.014629 1_555
