# generated using pymatgen
data_CaCrO4
_symmetry_space_group_name_H-M   'P 1'
_cell_length_a   6.00594909
_cell_length_b   6.00594955
_cell_length_c   6.00594907
_cell_angle_alpha   105.82069099
_cell_angle_beta   105.82068251
_cell_angle_gamma   117.04849548
_symmetry_Int_Tables_number   1
_chemical_formula_structural   CaCrO4
_chemical_formula_sum   'Ca2 Cr2 O8'
_cell_volume   164.55716430
_cell_formula_units_Z   2
loop_
 _symmetry_equiv_pos_site_id
 _symmetry_equiv_pos_as_xyz
  1  'x, y, z'
loop_
 _atom_site_type_symbol
 _atom_site_label
 _atom_site_symmetry_multiplicity
 _atom_site_fract_x
 _atom_site_fract_y
 _atom_site_fract_z
 _atom_site_occupancy
  Ca  Ca0  1  0.87500000  0.12500000  0.75000000  1
  Ca  Ca1  1  0.12500000  0.87500000  0.25000000  1
  Cr  Cr0  1  0.62500000  0.37500000  0.25000000  1
  Cr  Cr1  1  0.37500000  0.62500000  0.75000000  1
  O  O0  1  0.21501181  0.28481127  0.56979947  1
  O  O1  1  0.64521434  0.21501181  0.43020053  1
  O  O2  1  0.28481127  0.21501181  0.06979947  1
  O  O3  1  0.21501181  0.64521434  0.93020053  1
  O  O4  1  0.35478566  0.78498819  0.56979947  1
  O  O5  1  0.78498819  0.71518873  0.43020053  1
  O  O6  1  0.78498819  0.35478566  0.06979947  1
  O  O7  1  0.71518873  0.78498819  0.93020053  1
loop_
_geom_bond_atom_site_label_1
_geom_bond_atom_site_label_2
_geom_bond_distance
_geom_bond_site_symmetry_2
Ca0 O6 2.384399 1_556
Ca0 O1 2.384399 1_555
Ca0 O5 2.384405 1_545
Ca0 O2 2.384405 1_656
Ca0 O0 2.500312 1_655
Ca0 O7 2.500312 1_545
Ca0 O4 2.500322 1_545
Ca0 O3 2.500322 1_655
Ca1 O3 2.384399 1_554
Ca1 O4 2.384399 1_555
Ca1 O0 2.384405 1_565
Ca1 O7 2.384405 1_454
Ca1 O5 2.500312 1_455
Ca1 O2 2.500312 1_565
Ca1 O1 2.500322 1_565
Ca1 O6 2.500322 1_455
Cr0 O2 1.646460 1_555
Cr0 O5 1.646461 1_555
Cr0 O6 1.646462 1_555
Cr0 O1 1.646462 1_555
Cr1 O7 1.646460 1_555
Cr1 O0 1.646461 1_555
Cr1 O3 1.646462 1_555
Cr1 O4 1.646462 1_555
