# generated using pymatgen
data_Li3MnFeCo(PO4)3
_symmetry_space_group_name_H-M   'P 1'
_cell_length_a   10.45616453
_cell_length_b   6.08520828
_cell_length_c   14.28809414
_cell_angle_alpha   90.00000000
_cell_angle_beta   89.91076433
_cell_angle_gamma   90.00000000
_symmetry_Int_Tables_number   1
_chemical_formula_structural   Li3MnFeCo(PO4)3
_chemical_formula_sum   'Li12 Mn4 Fe4 Co4 P12 O48'
_cell_volume   909.12087917
_cell_formula_units_Z   4
loop_
 _symmetry_equiv_pos_site_id
 _symmetry_equiv_pos_as_xyz
  1  'x, y, z'
loop_
 _atom_site_type_symbol
 _atom_site_label
 _atom_site_symmetry_multiplicity
 _atom_site_fract_x
 _atom_site_fract_y
 _atom_site_fract_z
 _atom_site_occupancy
  Li  Li0  1  0.99778971  0.49924726  0.66711716  1
  Li  Li1  1  0.99883207  0.00032645  0.99959690  1
  Li  Li2  1  0.99883207  0.49967355  0.99959690  1
  Li  Li3  1  0.99889660  0.99952327  0.33307987  1
  Li  Li4  1  0.99889660  0.50047673  0.33307987  1
  Li  Li5  1  0.99778971  0.00075274  0.66711716  1
  Li  Li6  1  0.50184514  0.99979303  0.50062456  1
  Li  Li7  1  0.50184514  0.50020697  0.50062456  1
  Li  Li8  1  0.50087838  0.99977175  0.16652886  1
  Li  Li9  1  0.50087838  0.50022825  0.16652886  1
  Li  Li10  1  0.50150058  0.99920913  0.83299714  1
  Li  Li11  1  0.50150058  0.50079087  0.83299714  1
  Mn  Mn0  1  0.21885137  0.75000000  0.49338756  1
  Mn  Mn1  1  0.21863086  0.75000000  0.82662703  1
  Mn  Mn2  1  0.28098954  0.25000000  0.66009553  1
  Mn  Mn3  1  0.28042826  0.25000000  0.32609865  1
  Fe  Fe0  1  0.21877660  0.75000000  0.15929448  1
  Fe  Fe1  1  0.28117286  0.25000000  0.99224675  1
  Fe  Fe2  1  0.71973287  0.75000000  0.00837361  1
  Fe  Fe3  1  0.71977199  0.75000000  0.34141339  1
  Co  Co0  1  0.72395007  0.75000000  0.67447116  1
  Co  Co1  1  0.77709571  0.25000000  0.83995781  1
  Co  Co2  1  0.77970726  0.25000000  0.50581116  1
  Co  Co3  1  0.78194811  0.25000000  0.17268532  1
  P  P0  1  0.09080080  0.25000000  0.80646992  1
  P  P1  1  0.09250623  0.25000000  0.13852886  1
  P  P2  1  0.08966928  0.25000000  0.47208236  1
  P  P3  1  0.40782696  0.75000000  0.30432317  1
  P  P4  1  0.41023648  0.75000000  0.63894867  1
  P  P5  1  0.40744588  0.75000000  0.97371867  1
  P  P6  1  0.59632708  0.25000000  0.36053577  1
  P  P7  1  0.59575856  0.25000000  0.02746526  1
  P  P8  1  0.59700862  0.25000000  0.69383509  1
  P  P9  1  0.90353752  0.75000000  0.86110250  1
  P  P10  1  0.90430771  0.75000000  0.19398375  1
  P  P11  1  0.90331591  0.75000000  0.52826215  1
  O  O0  1  0.04192030  0.75000000  0.23581438  1
  O  O1  1  0.04048533  0.75000000  0.57060158  1
  O  O2  1  0.04078861  0.75000000  0.90304333  1
  O  O3  1  0.09385058  0.25000000  0.57961470  1
  O  O4  1  0.09657912  0.25000000  0.91398406  1
  O  O5  1  0.09466675  0.25000000  0.24593776  1
  O  O6  1  0.16384398  0.04685572  0.09443490  1
  O  O7  1  0.16384398  0.45314428  0.09443490  1
  O  O8  1  0.16026688  0.04798657  0.42724461  1
  O  O9  1  0.16026688  0.45201343  0.42724461  1
  O  O10  1  0.16107698  0.04809756  0.76090636  1
  O  O11  1  0.16107698  0.45190244  0.76090636  1
  O  O12  1  0.33932801  0.54811958  0.59404419  1
  O  O13  1  0.33932801  0.95188042  0.59404419  1
  O  O14  1  0.33703822  0.54818931  0.25948521  1
  O  O15  1  0.33703822  0.95181069  0.25948521  1
  O  O16  1  0.33656481  0.54656834  0.92972517  1
  O  O17  1  0.33656481  0.95343166  0.92972517  1
  O  O18  1  0.40487373  0.75000000  0.41194013  1
  O  O19  1  0.40488704  0.75000000  0.08119602  1
  O  O20  1  0.40525634  0.75000000  0.74648493  1
  O  O21  1  0.45911369  0.25000000  0.40282953  1
  O  O22  1  0.45800927  0.25000000  0.06857117  1
  O  O23  1  0.45967740  0.25000000  0.73630047  1
  O  O24  1  0.54574027  0.75000000  0.26374689  1
  O  O25  1  0.54439027  0.75000000  0.93134103  1
  O  O26  1  0.54824114  0.75000000  0.59848521  1
  O  O27  1  0.59867552  0.25000000  0.25303269  1
  O  O28  1  0.59916455  0.25000000  0.91973589  1
  O  O29  1  0.59892861  0.25000000  0.58631239  1
  O  O30  1  0.66677389  0.04794022  0.07240973  1
  O  O31  1  0.66727493  0.04775402  0.40547261  1
  O  O32  1  0.66752463  0.04620750  0.73825222  1
  O  O33  1  0.66752463  0.45379250  0.73825222  1
  O  O34  1  0.66677389  0.45205978  0.07240973  1
  O  O35  1  0.66727493  0.45224598  0.40547261  1
  O  O36  1  0.83350147  0.54548376  0.90483734  1
  O  O37  1  0.83350147  0.95451624  0.90483734  1
  O  O38  1  0.83380826  0.54570495  0.23828983  1
  O  O39  1  0.83232098  0.54586945  0.57267132  1
  O  O40  1  0.83380826  0.95429505  0.23828983  1
  O  O41  1  0.83232098  0.95413055  0.57267132  1
  O  O42  1  0.90183954  0.75000000  0.75320682  1
  O  O43  1  0.90274901  0.75000000  0.42087554  1
  O  O44  1  0.90316377  0.75000000  0.08636116  1
  O  O45  1  0.95261821  0.25000000  0.76655746  1
  O  O46  1  0.95471919  0.25000000  0.09740451  1
  O  O47  1  0.95173219  0.25000000  0.43147179  1
loop_
_geom_bond_atom_site_label_1
_geom_bond_atom_site_label_2
_geom_bond_distance
_geom_bond_site_symmetry_2
Li0 O1 2.104141 1_655
Li0 O45 2.130762 1_555
Li0 O11 2.191116 1_655
Li0 O42 2.200924 1_555
Li0 O3 2.206472 1_655
Li0 O39 2.214105 1_555
Li1 O2 2.100997 1_645
Li1 O46 2.114717 1_556
Li1 O4 2.201217 1_655
Li1 O44 2.203188 1_546
Li1 O6 2.213730 1_656
Li1 O37 2.215090 1_545
Li2 O2 2.100997 1_655
Li2 O46 2.114717 1_556
Li2 O4 2.201217 1_655
Li2 O44 2.203188 1_556
Li2 O7 2.213730 1_656
Li2 O36 2.215090 1_555
Li3 O0 2.106500 1_655
Li3 O47 2.130870 1_565
Li3 O8 2.179740 1_665
Li3 O5 2.207340 1_665
Li3 O43 2.210410 1_555
Li3 O40 2.212935 1_555
Li4 O0 2.106500 1_655
Li4 O47 2.130870 1_555
Li4 O9 2.179740 1_655
Li4 O5 2.207340 1_655
Li4 O43 2.210410 1_555
Li4 O38 2.212935 1_555
Li5 O1 2.104141 1_645
Li5 O45 2.130762 1_555
Li5 O10 2.191116 1_655
Li5 O42 2.200924 1_545
Li5 O3 2.206472 1_655
Li5 O41 2.214105 1_545
Li6 O21 2.114766 1_565
Li6 O26 2.122044 1_555
Li6 O13 2.178817 1_555
Li6 O29 2.202608 1_565
Li6 O31 2.217718 1_565
Li6 O18 2.224465 1_555
Li7 O21 2.114766 1_555
Li7 O26 2.122044 1_555
Li7 O12 2.178817 1_555
Li7 O29 2.202608 1_555
Li7 O35 2.217718 1_555
Li7 O18 2.224465 1_555
Li8 O24 2.112272 1_555
Li8 O22 2.116702 1_565
Li8 O15 2.185628 1_555
Li8 O19 2.192697 1_555
Li8 O27 2.212653 1_565
Li8 O30 2.212699 1_565
Li9 O24 2.112272 1_555
Li9 O22 2.116702 1_555
Li9 O14 2.185628 1_555
Li9 O19 2.192697 1_555
Li9 O27 2.212653 1_555
Li9 O34 2.212699 1_555
Li10 O23 2.104993 1_565
Li10 O25 2.115953 1_555
Li10 O20 2.200972 1_555
Li10 O28 2.216245 1_565
Li10 O32 2.218254 1_565
Li10 O17 2.225869 1_555
Li11 O23 2.104993 1_555
Li11 O25 2.115953 1_555
Li11 O20 2.200972 1_555
Li11 O28 2.216245 1_555
Li11 O33 2.218254 1_555
Li11 O16 2.225869 1_555
Mn0 O9 2.135011 1_555
Mn0 O8 2.135011 1_565
Mn0 O1 2.165421 1_555
Mn0 O18 2.265072 1_555
Mn0 O12 2.273789 1_555
Mn0 O13 2.273789 1_555
Mn1 O10 2.129841 1_565
Mn1 O11 2.129841 1_555
Mn1 O2 2.154928 1_555
Mn1 O20 2.261007 1_555
Mn1 O17 2.286634 1_555
Mn1 O16 2.286634 1_555
Mn2 O13 2.133540 1_545
Mn2 O12 2.133540 1_555
Mn2 O23 2.163967 1_555
Mn2 O11 2.269514 1_555
Mn2 O10 2.269514 1_555
Mn2 O3 2.271170 1_555
Mn3 O15 2.132386 1_545
Mn3 O14 2.132386 1_555
Mn3 O21 2.167746 1_555
Mn3 O5 2.256431 1_555
Mn3 O9 2.274351 1_555
Mn3 O8 2.274351 1_555
Fe0 O6 2.110348 1_565
Fe0 O7 2.110348 1_555
Fe0 O0 2.146798 1_555
Fe0 O19 2.241727 1_555
Fe0 O14 2.256552 1_555
Fe0 O15 2.256552 1_555
Fe1 O17 2.094929 1_545
Fe1 O16 2.094929 1_555
Fe1 O22 2.148128 1_556
Fe1 O4 2.232174 1_555
Fe1 O6 2.271438 1_556
Fe1 O7 2.271438 1_556
Fe2 O34 2.104583 1_555
Fe2 O30 2.104583 1_565
Fe2 O25 2.139885 1_554
Fe2 O44 2.219678 1_555
Fe2 O36 2.268678 1_554
Fe2 O37 2.268678 1_554
Fe3 O31 2.102488 1_565
Fe3 O35 2.102488 1_555
Fe3 O24 2.132853 1_555
Fe3 O43 2.226273 1_555
Fe3 O38 2.265572 1_555
Fe3 O40 2.265572 1_555
Co0 O32 2.103771 1_565
Co0 O33 2.103771 1_555
Co0 O26 2.135510 1_555
Co0 O42 2.175283 1_555
Co0 O41 2.222055 1_555
Co0 O39 2.222055 1_555
Co1 O36 2.107601 1_555
Co1 O37 2.107601 1_545
Co1 O45 2.112387 1_555
Co1 O28 2.180387 1_555
Co1 O32 2.228772 1_555
Co1 O33 2.228772 1_555
Co2 O47 2.087498 1_555
Co2 O39 2.111500 1_555
Co2 O41 2.111500 1_545
Co2 O29 2.211167 1_555
Co2 O35 2.226499 1_555
Co2 O31 2.226499 1_555
Co3 O38 2.100527 1_555
Co3 O40 2.100527 1_545
Co3 O46 2.101054 1_555
Co3 O27 2.232351 1_555
Co3 O30 2.240600 1_555
Co3 O34 2.240600 1_555
O0 P10 1.558953 1_455
O1 P11 1.557493 1_455
O2 P9 1.556070 1_455
O3 P2 1.537122 1_555
O4 P0 1.537454 1_555
O5 P1 1.534870 1_555
O6 P1 1.574797 1_555
O7 P1 1.574797 1_555
O8 P2 1.570041 1_555
O9 P2 1.570041 1_555
O10 P0 1.572194 1_555
O11 P0 1.572194 1_555
O12 P4 1.572267 1_555
O13 P4 1.572267 1_555
O14 P3 1.570956 1_555
O15 P3 1.570956 1_555
O16 P5 1.574268 1_555
O17 P5 1.574268 1_555
O18 P3 1.537903 1_555
O19 P5 1.535838 1_554
O20 P4 1.537289 1_555
O21 P6 1.555928 1_555
O22 P7 1.554627 1_555
O23 P8 1.558013 1_555
O24 P3 1.553385 1_555
O25 P5 1.553802 1_555
O26 P4 1.553673 1_555
O27 P6 1.536172 1_555
O28 P7 1.539604 1_556
O29 P8 1.536394 1_555
O30 P7 1.573881 1_555
O31 P6 1.574389 1_555
O32 P8 1.576632 1_555
O33 P8 1.576632 1_555
O34 P7 1.573881 1_555
O35 P6 1.574389 1_555
O36 P9 1.572951 1_555
O37 P9 1.572951 1_555
O38 P10 1.577398 1_555
O39 P11 1.579625 1_555
O40 P10 1.577398 1_555
O41 P11 1.579625 1_555
O42 P9 1.541754 1_555
O43 P11 1.534371 1_555
O44 P10 1.537787 1_555
O45 P0 1.554155 1_655
O46 P1 1.556786 1_655
O47 P2 1.555475 1_655
