# generated using pymatgen
data_Yb2S3
_symmetry_space_group_name_H-M   'P 1'
_cell_length_a   4.08589100
_cell_length_b   11.47808600
_cell_length_c   15.73498109
_cell_angle_alpha   73.42471162
_cell_angle_beta   90.00000000
_cell_angle_gamma   90.00000000
_symmetry_Int_Tables_number   1
_chemical_formula_structural   Yb2S3
_chemical_formula_sum   'Yb12 S18'
_cell_volume   707.27774142
_cell_formula_units_Z   6
loop_
 _symmetry_equiv_pos_site_id
 _symmetry_equiv_pos_as_xyz
  1  'x, y, z'
loop_
 _atom_site_type_symbol
 _atom_site_label
 _atom_site_symmetry_multiplicity
 _atom_site_fract_x
 _atom_site_fract_y
 _atom_site_fract_z
 _atom_site_occupancy
  Yb  Yb0  1  0.75000000  0.51230700  0.88754000  1
  Yb  Yb1  1  0.25000000  0.48769300  0.11246000  1
  Yb  Yb2  1  0.75000000  0.50648500  0.62347500  1
  Yb  Yb3  1  0.25000000  0.49351500  0.37652500  1
  Yb  Yb4  1  0.75000000  0.08909100  0.32626500  1
  Yb  Yb5  1  0.25000000  0.91090900  0.67373500  1
  Yb  Yb6  1  0.75000000  0.79797100  0.24410300  1
  Yb  Yb7  1  0.25000000  0.20202900  0.75589700  1
  Yb  Yb8  1  0.75000000  0.21037600  0.54625100  1
  Yb  Yb9  1  0.25000000  0.78962400  0.45374900  1
  Yb  Yb10  1  0.75000000  0.21923500  0.98743100  1
  Yb  Yb11  1  0.25000000  0.78076500  0.01256900  1
  S  S0  1  0.75000000  0.97386300  0.02966800  1
  S  S1  1  0.25000000  0.02613700  0.97033200  1
  S  S2  1  0.75000000  0.62823800  0.01657500  1
  S  S3  1  0.25000000  0.37176200  0.98342500  1
  S  S4  1  0.75000000  0.32005200  0.36803600  1
  S  S5  1  0.25000000  0.67994800  0.63196400  1
  S  S6  1  0.75000000  0.71326700  0.74659100  1
  S  S7  1  0.25000000  0.28673300  0.25340900  1
  S  S8  1  0.75000000  0.27944800  0.17012700  1
  S  S9  1  0.25000000  0.72055200  0.82987300  1
  S  S10  1  0.75000000  0.95945000  0.51123500  1
  S  S11  1  0.25000000  0.04055000  0.48876500  1
  S  S12  1  0.25000000  0.94669600  0.28623400  1
  S  S13  1  0.75000000  0.05330400  0.71376600  1
  S  S14  1  0.25000000  0.35798600  0.57561700  1
  S  S15  1  0.75000000  0.64201400  0.42438300  1
  S  S16  1  0.25000000  0.66448100  0.20220400  1
  S  S17  1  0.75000000  0.33551900  0.79779600  1
loop_
_geom_bond_atom_site_label_1
_geom_bond_atom_site_label_2
_geom_bond_distance
_geom_bond_site_symmetry_2
S0 S1 2.255153 1_664
S0 S1 2.255153 1_564
S0 Yb10 2.702936 1_564
S0 Yb11 3.081989 1_555
S0 Yb11 3.081989 1_655
S0 Yb6 3.402075 1_555
S1 Yb11 2.702936 1_546
S1 Yb10 3.081989 1_455
S1 Yb10 3.081989 1_555
S1 Yb7 3.402075 1_555
S2 Yb11 2.679487 1_555
S2 Yb11 2.679487 1_655
S2 Yb0 2.726632 1_554
S2 Yb1 2.768332 1_555
S2 Yb1 2.768332 1_655
S3 Yb10 2.679487 1_555
S3 Yb10 2.679487 1_455
S3 Yb1 2.726632 1_556
S3 Yb0 2.768332 1_455
S3 Yb0 2.768332 1_555
S4 Yb8 2.726578 1_555
S4 Yb3 2.882252 1_555
S4 Yb3 2.882252 1_655
S4 Yb4 2.907555 1_555
S5 Yb9 2.726578 1_555
S5 Yb2 2.882252 1_455
S5 Yb2 2.882252 1_555
S5 Yb5 2.907555 1_555
S6 S9 2.441391 1_555
S6 S9 2.441391 1_655
S6 Yb0 2.705654 1_555
S6 Yb5 3.024957 1_555
S6 Yb5 3.024957 1_655
S7 S8 2.441391 1_455
S7 S8 2.441391 1_555
S7 Yb1 2.705654 1_555
S7 Yb4 3.024957 1_455
S7 Yb4 3.024957 1_555
S8 Yb4 2.783384 1_555
S8 Yb1 3.077797 1_555
S8 Yb1 3.077797 1_655
S8 Yb10 3.142489 1_554
S9 Yb5 2.783384 1_555
S9 Yb0 3.077797 1_455
S9 Yb0 3.077797 1_555
S9 Yb11 3.142489 1_556
S10 S11 2.231004 1_565
S10 S11 2.231004 1_665
S10 Yb4 2.866050 1_565
S10 Yb8 3.082895 1_565
S10 Yb9 3.130096 1_555
S10 Yb9 3.130096 1_655
S10 Yb5 3.195176 1_655
S10 Yb5 3.195176 1_555
S11 Yb5 2.866050 1_545
S11 Yb9 3.082895 1_545
S11 Yb8 3.130096 1_455
S11 Yb8 3.130096 1_555
S11 Yb4 3.195176 1_455
S11 Yb4 3.195176 1_555
S12 Yb9 2.736193 1_555
S12 Yb4 2.798053 1_465
S12 Yb4 2.798053 1_565
S12 Yb6 2.858828 1_455
S12 Yb6 2.858828 1_555
S13 Yb8 2.736193 1_555
S13 Yb5 2.798053 1_645
S13 Yb5 2.798053 1_545
S13 Yb7 2.858828 1_555
S13 Yb7 2.858828 1_655
S14 Yb8 2.775680 1_455
S14 Yb8 2.775680 1_555
S14 Yb7 2.890341 1_555
S14 Yb2 2.894529 1_555
S14 Yb2 2.894529 1_455
S14 Yb3 3.074629 1_555
S15 Yb9 2.775680 1_655
S15 Yb9 2.775680 1_555
S15 Yb6 2.890341 1_555
S15 Yb3 2.894529 1_555
S15 Yb3 2.894529 1_655
S15 Yb2 3.074629 1_555
S16 Yb6 2.744501 1_455
S16 Yb6 2.744501 1_555
S16 Yb1 2.783267 1_555
S16 Yb3 2.881581 1_555
S16 Yb11 2.900489 1_555
S17 Yb7 2.744501 1_555
S17 Yb7 2.744501 1_655
S17 Yb0 2.783267 1_555
S17 Yb2 2.881581 1_555
S17 Yb10 2.900489 1_555
