# generated using pymatgen
data_NdZrO3
_symmetry_space_group_name_H-M   'P 1'
_cell_length_a   6.15001300
_cell_length_b   8.22635700
_cell_length_c   11.31666600
_cell_angle_alpha   90.00000000
_cell_angle_beta   90.00000000
_cell_angle_gamma   90.00000000
_symmetry_Int_Tables_number   1
_chemical_formula_structural   NdZrO3
_chemical_formula_sum   'Nd8 Zr8 O24'
_cell_volume   572.53505781
_cell_formula_units_Z   8
loop_
 _symmetry_equiv_pos_site_id
 _symmetry_equiv_pos_as_xyz
  1  'x, y, z'
loop_
 _atom_site_type_symbol
 _atom_site_label
 _atom_site_symmetry_multiplicity
 _atom_site_fract_x
 _atom_site_fract_y
 _atom_site_fract_z
 _atom_site_occupancy
  Nd  Nd0  1  0.26013600  0.50000000  0.35691600  1
  Nd  Nd1  1  0.24165700  0.00000000  0.39268900  1
  Nd  Nd2  1  0.25834300  0.00000000  0.89268900  1
  Nd  Nd3  1  0.23986400  0.50000000  0.85691600  1
  Nd  Nd4  1  0.74165700  0.00000000  0.10731100  1
  Nd  Nd5  1  0.76013600  0.50000000  0.14308400  1
  Nd  Nd6  1  0.75834300  0.00000000  0.60731100  1
  Nd  Nd7  1  0.73986400  0.50000000  0.64308400  1
  Zr  Zr0  1  0.25062300  0.24960900  0.12487400  1
  Zr  Zr1  1  0.25062300  0.75039100  0.12487400  1
  Zr  Zr2  1  0.24937700  0.24960900  0.62487400  1
  Zr  Zr3  1  0.24937700  0.75039100  0.62487400  1
  Zr  Zr4  1  0.75062300  0.75039100  0.37512600  1
  Zr  Zr5  1  0.75062300  0.24960900  0.37512600  1
  Zr  Zr6  1  0.74937700  0.24960900  0.87512600  1
  Zr  Zr7  1  0.74937700  0.75039100  0.87512600  1
  O  O0  1  0.00000000  0.17717000  0.00000000  1
  O  O1  1  0.00000000  0.82283000  0.00000000  1
  O  O2  1  0.00000000  0.18596100  0.50000000  1
  O  O3  1  0.00000000  0.81403900  0.50000000  1
  O  O4  1  0.00491800  0.31905200  0.25373700  1
  O  O5  1  0.00491800  0.68094800  0.25373700  1
  O  O6  1  0.25943500  0.50000000  0.56485800  1
  O  O7  1  0.22633700  0.00000000  0.68546000  1
  O  O8  1  0.27366300  0.00000000  0.18546000  1
  O  O9  1  0.24056500  0.50000000  0.06485800  1
  O  O10  1  0.49508200  0.31905200  0.75373700  1
  O  O11  1  0.49508200  0.68094800  0.75373700  1
  O  O12  1  0.50000000  0.18596100  0.00000000  1
  O  O13  1  0.50000000  0.81403900  0.00000000  1
  O  O14  1  0.50000000  0.82283000  0.50000000  1
  O  O15  1  0.50000000  0.17717000  0.50000000  1
  O  O16  1  0.50491800  0.31905200  0.24626300  1
  O  O17  1  0.50491800  0.68094800  0.24626300  1
  O  O18  1  0.75943500  0.50000000  0.93514200  1
  O  O19  1  0.72633700  0.00000000  0.81454000  1
  O  O20  1  0.77366300  0.00000000  0.31454000  1
  O  O21  1  0.74056500  0.50000000  0.43514200  1
  O  O22  1  0.99508200  0.31905200  0.74626300  1
  O  O23  1  0.99508200  0.68094800  0.74626300  1
loop_
_geom_bond_atom_site_label_1
_geom_bond_atom_site_label_2
_geom_bond_distance
_geom_bond_site_symmetry_2
Nd0 O6 2.353214 1_555
Nd0 O4 2.458205 1_555
Nd0 O5 2.458205 1_555
Nd0 O17 2.459693 1_555
Nd0 O16 2.459693 1_555
Nd1 O8 2.353388 1_555
Nd1 O2 2.454338 1_555
Nd1 O3 2.454338 1_545
Nd1 O15 2.474530 1_555
Nd1 O14 2.474530 1_545
Nd2 O7 2.353388 1_555
Nd2 O12 2.454338 1_556
Nd2 O13 2.454338 1_546
Nd2 O1 2.474530 1_546
Nd2 O0 2.474530 1_556
Nd3 O9 2.353214 1_556
Nd3 O11 2.458205 1_555
Nd3 O10 2.458205 1_555
Nd3 O22 2.459693 1_455
Nd3 O23 2.459693 1_455
Nd4 O20 2.353388 1_555
Nd4 O13 2.454338 1_545
Nd4 O12 2.454338 1_555
Nd4 O1 2.474530 1_645
Nd4 O0 2.474530 1_655
Nd5 O18 2.353214 1_554
Nd5 O16 2.458205 1_555
Nd5 O17 2.458205 1_555
Nd5 O4 2.459693 1_655
Nd5 O5 2.459693 1_655
Nd6 O19 2.353388 1_555
Nd6 O2 2.454338 1_655
Nd6 O3 2.454338 1_645
Nd6 O15 2.474530 1_555
Nd6 O14 2.474530 1_545
Nd7 O21 2.353214 1_555
Nd7 O22 2.458205 1_555
Nd7 O23 2.458205 1_555
Nd7 O11 2.459693 1_555
Nd7 O10 2.459693 1_555
O0 Zr6 2.174358 1_454
O0 Zr0 2.174358 1_555
O1 Zr7 2.174358 1_454
O1 Zr1 2.174358 1_555
O2 Zr5 2.150188 1_455
O2 Zr2 2.150188 1_555
O3 Zr4 2.150188 1_455
O3 Zr3 2.150188 1_555
O4 Zr5 2.158537 1_455
O4 Zr0 2.176320 1_555
O5 Zr4 2.158537 1_455
O5 Zr1 2.176320 1_555
O6 Zr2 2.169773 1_555
O6 Zr3 2.169773 1_555
O7 Zr3 2.169449 1_545
O7 Zr2 2.169449 1_555
O8 Zr1 2.169449 1_545
O8 Zr0 2.169449 1_555
O9 Zr1 2.169773 1_555
O9 Zr0 2.169773 1_555
O10 Zr6 2.158537 1_555
O10 Zr2 2.176320 1_555
O11 Zr7 2.158537 1_555
O11 Zr3 2.176320 1_555
O12 Zr0 2.150188 1_555
O12 Zr6 2.150188 1_554
O13 Zr7 2.150188 1_554
O13 Zr1 2.150188 1_555
O14 Zr4 2.174358 1_555
O14 Zr3 2.174358 1_555
O15 Zr5 2.174358 1_555
O15 Zr2 2.174358 1_555
O16 Zr0 2.158537 1_555
O16 Zr5 2.176320 1_555
O17 Zr1 2.158537 1_555
O17 Zr4 2.176320 1_555
O18 Zr6 2.169773 1_555
O18 Zr7 2.169773 1_555
O19 Zr7 2.169449 1_545
O19 Zr6 2.169449 1_555
O20 Zr4 2.169449 1_545
O20 Zr5 2.169449 1_555
O21 Zr5 2.169773 1_555
O21 Zr4 2.169773 1_555
O22 Zr2 2.158537 1_655
O22 Zr6 2.176320 1_555
O23 Zr3 2.158537 1_655
O23 Zr7 2.176320 1_555
