# generated using pymatgen
data_KLi2(RuO2)6
_symmetry_space_group_name_H-M   'P 1'
_cell_length_a   2.78199600
_cell_length_b   9.63094932
_cell_length_c   9.63031866
_cell_angle_alpha   60.02746917
_cell_angle_beta   90.00000000
_cell_angle_gamma   90.00000000
_symmetry_Int_Tables_number   1
_chemical_formula_structural   KLi2(RuO2)6
_chemical_formula_sum   'K1 Li2 Ru6 O12'
_cell_volume   223.52033172
_cell_formula_units_Z   1
loop_
 _symmetry_equiv_pos_site_id
 _symmetry_equiv_pos_as_xyz
  1  'x, y, z'
loop_
 _atom_site_type_symbol
 _atom_site_label
 _atom_site_symmetry_multiplicity
 _atom_site_fract_x
 _atom_site_fract_y
 _atom_site_fract_z
 _atom_site_occupancy
  K  K0  1  0.75000000  0.99995800  0.00004300  1
  Li  Li0  1  0.75000000  0.33342300  0.33328300  1
  Li  Li1  1  0.25000000  0.66660100  0.66665900  1
  Ru  Ru0  1  0.75000000  0.34313700  0.63961600  1
  Ru  Ru1  1  0.75000000  0.01707700  0.34341400  1
  Ru  Ru2  1  0.75000000  0.63971700  0.01698200  1
  Ru  Ru3  1  0.25000000  0.65682300  0.35975100  1
  Ru  Ru4  1  0.25000000  0.98351400  0.65675100  1
  Ru  Ru5  1  0.25000000  0.35963400  0.98360000  1
  O  O0  1  0.75000000  0.58817600  0.54458600  1
  O  O1  1  0.75000000  0.86717200  0.58822800  1
  O  O2  1  0.75000000  0.54450300  0.86718200  1
  O  O3  1  0.25000000  0.41257100  0.45537600  1
  O  O4  1  0.25000000  0.13220800  0.41252000  1
  O  O5  1  0.25000000  0.45535800  0.13217000  1
  O  O6  1  0.75000000  0.11300100  0.69257200  1
  O  O7  1  0.75000000  0.19461400  0.11283400  1
  O  O8  1  0.75000000  0.69257700  0.19455800  1
  O  O9  1  0.25000000  0.89161100  0.29887100  1
  O  O10  1  0.25000000  0.80932400  0.89170000  1
  O  O11  1  0.25000000  0.29900300  0.80930200  1
loop_
_geom_bond_atom_site_label_1
_geom_bond_atom_site_label_2
_geom_bond_distance
_geom_bond_site_symmetry_2
K0 O7 2.594051 1_565
K0 O8 2.594599 1_555
K0 O6 2.594615 1_564
K0 O9 2.881851 1_655
K0 O9 2.881851 1_555
K0 O10 2.882429 1_654
K0 O10 2.882429 1_554
K0 O11 2.884084 1_564
K0 O11 2.884084 1_664
Li0 O5 2.189184 1_555
Li0 O5 2.189184 1_655
Li0 O3 2.189510 1_655
Li0 O3 2.189510 1_555
Li0 O4 2.189761 1_555
Li0 O4 2.189761 1_655
Li1 O0 2.185087 1_455
Li1 O0 2.185087 1_555
Li1 O2 2.185836 1_455
Li1 O2 2.185836 1_555
Li1 O1 2.186087 1_555
Li1 O1 2.186087 1_455
O0 Ru0 2.061303 1_555
O0 Ru3 2.089160 1_655
O0 Ru3 2.089160 1_555
O1 Ru1 2.059573 1_565
O1 Ru4 2.089167 1_555
O1 Ru4 2.089167 1_655
O2 Ru2 2.060057 1_556
O2 Ru5 2.089831 1_655
O2 Ru5 2.089831 1_555
O3 Ru3 2.053591 1_555
O3 Ru0 2.084383 1_555
O3 Ru0 2.084383 1_455
O4 Ru4 2.053623 1_545
O4 Ru1 2.084368 1_455
O4 Ru1 2.084368 1_555
O5 Ru5 2.053047 1_554
O5 Ru2 2.085671 1_555
O5 Ru2 2.085671 1_455
O6 Ru4 2.009711 1_545
O6 Ru4 2.009711 1_645
O6 Ru0 2.010780 1_555
O7 Ru5 2.008319 1_654
O7 Ru5 2.008319 1_554
O7 Ru1 2.015142 1_555
O8 Ru3 2.009213 1_655
O8 Ru3 2.009213 1_555
O8 Ru2 2.013342 1_555
O9 Ru1 2.024085 1_565
O9 Ru1 2.024085 1_465
O9 Ru3 2.032797 1_555
O10 Ru2 2.022280 1_556
O10 Ru2 2.022280 1_456
O10 Ru4 2.035001 1_555
O11 Ru0 2.022848 1_555
O11 Ru0 2.022848 1_455
O11 Ru5 2.034168 1_555
