# generated using pymatgen
data_LiLa(CN2)2
_symmetry_space_group_name_H-M   'P 1'
_cell_length_a   3.81156100
_cell_length_b   5.46329700
_cell_length_c   10.17318107
_cell_angle_alpha   78.44286537
_cell_angle_beta   90.00000000
_cell_angle_gamma   90.00000000
_symmetry_Int_Tables_number   1
_chemical_formula_structural   LiLa(CN2)2
_chemical_formula_sum   'Li2 La2 C4 N8'
_cell_volume   207.54813340
_cell_formula_units_Z   2
loop_
 _symmetry_equiv_pos_site_id
 _symmetry_equiv_pos_as_xyz
  1  'x, y, z'
loop_
 _atom_site_type_symbol
 _atom_site_label
 _atom_site_symmetry_multiplicity
 _atom_site_fract_x
 _atom_site_fract_y
 _atom_site_fract_z
 _atom_site_occupancy
  Li  Li0  1  0.75000000  0.40466100  0.35630400  1
  Li  Li1  1  0.25000000  0.59533900  0.64369600  1
  La  La0  1  0.25000000  0.02019900  0.19336600  1
  La  La1  1  0.75000000  0.97980100  0.80663400  1
  C  C0  1  0.75000000  0.57423200  0.11001600  1
  C  C1  1  0.25000000  0.42576800  0.88998400  1
  C  C2  1  0.75000000  0.78172100  0.47295200  1
  C  C3  1  0.25000000  0.21827900  0.52704800  1
  N  N0  1  0.75000000  0.34874400  0.15884800  1
  N  N1  1  0.25000000  0.65125600  0.84115200  1
  N  N2  1  0.25000000  0.19728400  0.93370200  1
  N  N3  1  0.75000000  0.80271600  0.06629800  1
  N  N4  1  0.25000000  0.24318700  0.40437400  1
  N  N5  1  0.75000000  0.75681300  0.59562600  1
  N  N6  1  0.75000000  0.79431200  0.34900400  1
  N  N7  1  0.25000000  0.20568800  0.65099600  1
loop_
_geom_bond_atom_site_label_1
_geom_bond_atom_site_label_2
_geom_bond_distance
_geom_bond_site_symmetry_2
Li0 N0 2.091485 1_555
Li0 N6 2.115152 1_555
Li0 N4 2.115780 1_655
Li0 N4 2.115780 1_555
Li1 N1 2.091485 1_555
Li1 N7 2.115152 1_555
Li1 N5 2.115780 1_455
Li1 N5 2.115780 1_555
La0 N0 2.593176 1_555
La0 N0 2.593176 1_455
La0 N6 2.622781 1_445
La0 N6 2.622781 1_545
La0 N2 2.624892 1_554
La0 N4 2.672073 1_555
La0 N3 2.707439 1_445
La0 N3 2.707439 1_545
La1 N1 2.593176 1_655
La1 N1 2.593176 1_555
La1 N7 2.622781 1_565
La1 N7 2.622781 1_665
La1 N3 2.624892 1_556
La1 N5 2.672073 1_555
La1 N2 2.707439 1_565
La1 N2 2.707439 1_665
C0 N0 1.232546 1_555
C0 N3 1.238364 1_555
C1 N1 1.232546 1_555
C1 N2 1.238364 1_555
C2 N5 1.227981 1_555
C2 N6 1.248984 1_555
C3 N4 1.227981 1_555
C3 N7 1.248984 1_555
