# generated using pymatgen
data_Th3Mg
_symmetry_space_group_name_H-M   'P 1'
_cell_length_a   6.12889721
_cell_length_b   6.12889721
_cell_length_c   6.12889763
_cell_angle_alpha   132.59287954
_cell_angle_beta   132.59286882
_cell_angle_gamma   69.29423733
_symmetry_Int_Tables_number   1
_chemical_formula_structural   Th3Mg
_chemical_formula_sum   'Th3 Mg1'
_cell_volume   122.43188062
_cell_formula_units_Z   1
loop_
 _symmetry_equiv_pos_site_id
 _symmetry_equiv_pos_as_xyz
  1  'x, y, z'
loop_
 _atom_site_type_symbol
 _atom_site_label
 _atom_site_symmetry_multiplicity
 _atom_site_fract_x
 _atom_site_fract_y
 _atom_site_fract_z
 _atom_site_occupancy
  Th  Th0  1  0.50000000  0.50000000  -0.00000000  1
  Th  Th1  1  0.75000000  0.25000000  0.50000000  1
  Th  Th2  1  0.25000000  0.75000000  0.50000000  1
  Mg  Mg0  1  -0.00000000  -0.00000000  -0.00000000  1
loop_
_geom_bond_atom_site_label_1
_geom_bond_atom_site_label_2
_geom_bond_distance
_geom_bond_site_symmetry_2
Th0 Th2 3.525069 1_544
Th0 Th2 3.525069 1_555
Th0 Th1 3.525069 1_554
Th0 Th1 3.525069 1_565
Th0 Th1 3.525069 1_454
Th0 Th2 3.525069 1_554
Th0 Th2 3.525069 1_655
Th0 Th1 3.525069 1_555
Th1 Th2 3.484404 1_645
Th1 Th2 3.484404 1_555
Th1 Th2 3.484404 1_656
Th1 Th2 3.484404 1_544
Mg0 Th0 3.484404 1_545
Mg0 Th0 3.484404 1_455
Mg0 Th0 3.484404 1_444
Mg0 Th0 3.484404 1_556
Mg0 Th2 3.525069 1_544
Mg0 Th1 3.525069 1_455
Mg0 Th2 3.525069 1_555
Mg0 Th1 3.525069 1_444
Mg0 Th2 3.525069 1_545
Mg0 Th1 3.525069 1_454
Mg0 Th2 3.525069 1_444
Mg0 Th1 3.525069 1_555
