# generated using pymatgen
data_Y2Al3Ga3(BO3)8
_symmetry_space_group_name_H-M   'P 1'
_cell_length_a   5.98409700
_cell_length_b   6.00002128
_cell_length_c   11.30397080
_cell_angle_alpha   98.23334229
_cell_angle_beta   98.05324222
_cell_angle_gamma   104.12767599
_symmetry_Int_Tables_number   1
_chemical_formula_structural   Y2Al3Ga3(BO3)8
_chemical_formula_sum   'Y2 Al3 Ga3 B8 O24'
_cell_volume   382.99966919
_cell_formula_units_Z   1
loop_
 _symmetry_equiv_pos_site_id
 _symmetry_equiv_pos_as_xyz
  1  'x, y, z'
loop_
 _atom_site_type_symbol
 _atom_site_label
 _atom_site_symmetry_multiplicity
 _atom_site_fract_x
 _atom_site_fract_y
 _atom_site_fract_z
 _atom_site_occupancy
  Y  Y0  1  0.99993100  0.99967400  0.99989300  1
  Y  Y1  1  0.49983400  0.49996700  0.49995200  1
  Al  Al0  1  0.44628300  0.55404900  0.99905400  1
  Al  Al1  1  0.33083400  0.77584000  0.77804100  1
  Al  Al2  1  0.82969500  0.27645400  0.27620000  1
  Ga  Ga0  1  0.72283600  0.17234500  0.72521800  1
  Ga  Ga1  1  0.22355200  0.67100800  0.22327500  1
  Ga  Ga2  1  0.94820300  0.05176500  0.49891800  1
  B  B0  1  0.02850300  0.58173400  0.52814500  1
  B  B1  1  0.52756900  0.08372400  0.02765300  1
  B  B2  1  0.80590700  0.69600900  0.75027500  1
  B  B3  1  0.30609200  0.19618500  0.25000100  1
  B  B4  1  0.91697100  0.47355500  0.97316400  1
  B  B5  1  0.41852400  0.97246800  0.47257100  1
  B  B6  1  0.25182700  0.25171100  0.75247300  1
  B  B7  1  0.74891300  0.74890000  0.24787400  1
  O  O0  1  0.45390000  0.86216100  0.95407800  1
  O  O1  1  0.95550700  0.36556200  0.45070400  1
  O  O2  1  0.65368300  0.83713400  0.75289600  1
  O  O3  1  0.15401000  0.33750600  0.25190700  1
  O  O4  1  0.63729300  0.04562700  0.54583200  1
  O  O5  1  0.14088000  0.54739900  0.04230100  1
  O  O6  1  0.23557500  0.63648100  0.61028600  1
  O  O7  1  0.73575400  0.13747000  0.10966100  1
  O  O8  1  0.71297200  0.47284200  0.68314900  1
  O  O9  1  0.21368200  0.97314800  0.18274000  1
  O  O10  1  0.76766300  0.61316700  0.98612300  1
  O  O11  1  0.27560100  0.11889000  0.48414400  1
  O  O12  1  0.88176000  0.72560600  0.51516200  1
  O  O13  1  0.38748100  0.23368400  0.01313700  1
  O  O14  1  0.86415300  0.26061900  0.89590200  1
  O  O15  1  0.36472500  0.76085100  0.39510200  1
  O  O16  1  0.03197100  0.78507600  0.81339500  1
  O  O17  1  0.53225700  0.28583200  0.31297300  1
  O  O18  1  0.32678700  0.47338400  0.82495200  1
  O  O19  1  0.82123900  0.97204300  0.31843700  1
  O  O20  1  0.39138200  0.09765400  0.75247500  1
  O  O21  1  0.89132900  0.59794200  0.25230000  1
  O  O22  1  0.03308500  0.17998700  0.67808500  1
  O  O23  1  0.53183700  0.67454900  0.17155500  1
loop_
_geom_bond_atom_site_label_1
_geom_bond_atom_site_label_2
_geom_bond_distance
_geom_bond_site_symmetry_2
Al0 O10 1.899044 1_555
Al0 O13 1.901881 1_556
Al0 O23 1.929492 1_556
Al0 O18 1.944919 1_555
Al0 O5 1.949583 1_556
Al0 O0 1.978059 1_555
Al1 O16 1.898300 1_555
Al1 O6 1.905351 1_555
Al1 O2 1.945627 1_555
Al1 O20 1.946991 1_565
Al1 O18 1.957763 1_555
Al1 O0 1.969360 1_555
Al2 O7 1.892203 1_555
Al2 O17 1.895649 1_555
Al2 O21 1.938991 1_555
Al2 O19 1.943690 1_545
Al2 O3 1.951185 1_655
Al2 O1 1.956810 1_555
Ga0 O14 1.936435 1_555
Ga0 O8 1.941663 1_555
Ga0 O22 1.993833 1_655
Ga0 O20 2.001677 1_555
Ga0 O4 2.007381 1_555
Ga0 O2 2.030900 1_545
Ga1 O9 1.944852 1_555
Ga1 O15 1.948066 1_555
Ga1 O23 2.008031 1_555
Ga1 O21 2.012633 1_455
Ga1 O5 2.020536 1_555
Ga1 O3 2.024532 1_555
Ga2 O11 1.937585 1_655
Ga2 O12 1.940370 1_545
Ga2 O4 1.998174 1_555
Ga2 O22 2.006601 1_655
Ga2 O19 2.019172 1_545
Ga2 O1 2.025892 1_555
B0 O6 1.377347 1_555
B0 O12 1.381317 1_455
B0 O1 1.389428 1_455
B1 O7 1.382045 1_555
B1 O13 1.382462 1_555
B1 O0 1.395645 1_544
B2 O16 1.375555 1_655
B2 O8 1.380300 1_555
B2 O2 1.387286 1_555
B3 O17 1.375768 1_555
B3 O9 1.379947 1_545
B3 O3 1.387318 1_555
B4 O10 1.374170 1_555
B4 O14 1.378741 1_555
B4 O5 1.385648 1_656
B5 O11 1.373189 1_565
B5 O15 1.373196 1_555
B5 O4 1.379829 1_565
B6 O22 1.385156 1_555
B6 O20 1.388760 1_555
B6 O18 1.391100 1_555
B7 O23 1.386930 1_555
B7 O21 1.388178 1_555
B7 O19 1.389474 1_555
O6 Y1 2.370535 1_555
O7 Y0 2.369837 1_544
O8 Y1 2.323679 1_555
O9 Y0 2.320852 1_454
O10 Y0 2.365709 1_555
O11 Y1 2.319151 1_555
O12 Y1 2.323495 1_555
O13 Y0 2.371739 1_444
O14 Y0 2.318160 1_545
O15 Y1 2.321486 1_555
O16 Y0 2.365448 1_455
O17 Y1 2.369502 1_555
