# generated using pymatgen
data_YCuO3
_symmetry_space_group_name_H-M   'P 1'
_cell_length_a   6.18234441
_cell_length_b   6.18234395
_cell_length_c   11.02980383
_cell_angle_alpha   89.99989964
_cell_angle_beta   89.99999926
_cell_angle_gamma   119.99817990
_symmetry_Int_Tables_number   1
_chemical_formula_structural   YCuO3
_chemical_formula_sum   'Y6 Cu6 O18'
_cell_volume   365.10076529
_cell_formula_units_Z   6
loop_
 _symmetry_equiv_pos_site_id
 _symmetry_equiv_pos_as_xyz
  1  'x, y, z'
loop_
 _atom_site_type_symbol
 _atom_site_label
 _atom_site_symmetry_multiplicity
 _atom_site_fract_x
 _atom_site_fract_y
 _atom_site_fract_z
 _atom_site_occupancy
  Y  Y0  1  0.66666695  0.33333433  0.23641279  1
  Y  Y1  1  0.33333344  0.66666779  0.73638924  1
  Y  Y2  1  0.66666807  0.33333538  0.73638913  1
  Y  Y3  1  0.33333400  0.66666624  0.23641266  1
  Y  Y4  1  -0.00000213  -0.00000233  0.77393516  1
  Y  Y5  1  -0.00000012  -0.00000091  0.27395972  1
  Cu  Cu0  1  0.66669130  -0.00000305  0.50144407  1
  Cu  Cu1  1  0.66669285  0.66669302  0.00145611  1
  Cu  Cu2  1  0.00000259  0.33330734  0.00145495  1
  Cu  Cu3  1  -0.00000269  0.66669139  0.50144574  1
  Cu  Cu4  1  0.33330919  0.33330887  0.50144520  1
  Cu  Cu5  1  0.33330678  0.00000268  0.00145474  1
  O  O0  1  0.66666606  0.33333564  0.01525466  1
  O  O1  1  0.33333125  0.66666767  0.51525243  1
  O  O2  1  0.66667092  0.33333914  0.51525217  1
  O  O3  1  0.33333539  0.66666443  0.01525460  1
  O  O4  1  0.99999455  0.99999450  0.98483069  1
  O  O5  1  0.00000236  0.99999986  0.48483283  1
  O  O6  1  0.35325083  0.00000183  0.83790366  1
  O  O7  1  0.35324999  0.35325000  0.33789513  1
  O  O8  1  -0.00000205  0.64674418  0.33789446  1
  O  O9  1  0.00000184  0.35325157  0.83790298  1
  O  O10  1  0.64675095  0.64675095  0.83789927  1
  O  O11  1  0.64674633  -0.00000254  0.33789447  1
  O  O12  1  0.31281575  0.00000301  0.16494800  1
  O  O13  1  0.31280846  0.31280824  0.66496064  1
  O  O14  1  -0.00000321  0.68718979  0.66496290  1
  O  O15  1  0.00000308  0.31281532  0.16494875  1
  O  O16  1  0.68719000  0.68718994  0.16495188  1
  O  O17  1  0.68718826  -0.00000328  0.66496096  1
loop_
_geom_bond_atom_site_label_1
_geom_bond_atom_site_label_2
_geom_bond_distance
_geom_bond_site_symmetry_2
Cu0 O17 1.808005 1_555
Cu0 O11 1.808130 1_555
Cu0 O2 2.066519 1_555
Cu0 O1 2.066528 1_545
Cu0 O5 2.068764 1_645
Cu1 O16 1.807774 1_555
Cu1 O10 1.808208 1_554
Cu1 O3 2.066454 1_555
Cu1 O0 2.066459 1_555
Cu1 O4 2.068785 1_554
Cu2 O15 1.807749 1_555
Cu2 O9 1.808155 1_554
Cu2 O0 2.066502 1_455
Cu2 O3 2.066523 1_555
Cu2 O4 2.068772 1_444
Cu3 O14 1.808009 1_555
Cu3 O8 1.808149 1_555
Cu3 O1 2.066477 1_555
Cu3 O2 2.066493 1_455
Cu3 O5 2.068743 1_555
Cu4 O13 1.807991 1_555
Cu4 O7 1.808133 1_555
Cu4 O2 2.066483 1_555
Cu4 O1 2.066490 1_555
Cu4 O5 2.068812 1_545
Cu5 O12 1.807743 1_555
Cu5 O6 1.808145 1_554
Cu5 O3 2.066513 1_545
Cu5 O0 2.066531 1_555
Cu5 O4 2.068768 1_444
O0 Y0 2.439331 1_555
O1 Y1 2.439096 1_555
O2 Y2 2.439097 1_555
O3 Y3 2.439330 1_555
O4 Y4 2.326136 1_665
O5 Y5 2.325889 1_565
O6 Y1 2.293896 1_545
O6 Y2 2.293938 1_555
O6 Y4 2.295063 1_555
O7 Y3 2.293708 1_555
O7 Y0 2.293712 1_555
O7 Y5 2.295007 1_555
O8 Y3 2.293718 1_555
O8 Y0 2.293739 1_455
O8 Y5 2.294966 1_565
O9 Y2 2.293893 1_455
O9 Y1 2.293925 1_555
O9 Y4 2.295068 1_555
O10 Y2 2.293860 1_555
O10 Y1 2.293867 1_555
O10 Y4 2.295080 1_665
O11 Y0 2.293723 1_555
O11 Y3 2.293746 1_545
O11 Y5 2.294960 1_655
O12 Y3 2.268417 1_545
O12 Y0 2.268452 1_555
O12 Y5 2.277229 1_555
O13 Y2 2.268290 1_555
O13 Y1 2.268297 1_555
O13 Y4 2.277038 1_555
O14 Y1 2.268283 1_555
O14 Y2 2.268305 1_455
O14 Y4 2.276966 1_565
O15 Y0 2.268415 1_455
O15 Y3 2.268447 1_555
O15 Y5 2.277227 1_555
O16 Y0 2.268400 1_555
O16 Y3 2.268402 1_555
O16 Y5 2.277230 1_665
O17 Y2 2.268297 1_555
O17 Y1 2.268315 1_545
O17 Y4 2.276985 1_655
