# generated using pymatgen
data_Ba4CaV4Cu2F28
_symmetry_space_group_name_H-M   'P 1'
_cell_length_a   7.62074248
_cell_length_b   7.62074248
_cell_length_c   15.18423654
_cell_angle_alpha   88.69826267
_cell_angle_beta   88.69826267
_cell_angle_gamma   41.84321358
_symmetry_Int_Tables_number   1
_chemical_formula_structural   Ba4CaV4Cu2F28
_chemical_formula_sum   'Ba4 Ca1 V4 Cu2 F28'
_cell_volume   588.09356815
_cell_formula_units_Z   1
loop_
 _symmetry_equiv_pos_site_id
 _symmetry_equiv_pos_as_xyz
  1  'x, y, z'
loop_
 _atom_site_type_symbol
 _atom_site_label
 _atom_site_symmetry_multiplicity
 _atom_site_fract_x
 _atom_site_fract_y
 _atom_site_fract_z
 _atom_site_occupancy
  Ba  Ba0  1  0.09630500  0.26442400  0.62327700  1
  Ba  Ba1  1  0.26527800  0.10746400  0.12517400  1
  Ba  Ba2  1  0.73557600  0.90369500  0.37672300  1
  Ba  Ba3  1  0.89253600  0.73472200  0.87482600  1
  Ca  Ca0  1  0.57908100  0.42091900  0.00000000  1
  V  V0  1  0.14735900  0.10025800  0.87540100  1
  V  V1  1  0.89974200  0.85264100  0.12459900  1
  V  V2  1  0.10254500  0.14441300  0.37794100  1
  V  V3  1  0.85558700  0.89745500  0.62205900  1
  Cu  Cu0  1  0.50263700  0.50182900  0.74975400  1
  Cu  Cu1  1  0.49817100  0.49736300  0.25024600  1
  F  F0  1  0.39794200  0.89799700  0.29677100  1
  F  F1  1  0.17886600  0.59028800  0.03750000  1
  F  F2  1  0.58927700  0.16096000  0.54394200  1
  F  F3  1  0.12639000  0.70954200  0.23392700  1
  F  F4  1  0.64141600  0.03991000  0.02564000  1
  F  F5  1  0.92687500  0.08681800  0.09635000  1
  F  F6  1  0.49147000  0.61549400  0.13685000  1
  F  F7  1  0.50942200  0.37732800  0.35846300  1
  F  F8  1  0.06406500  0.93242900  0.60199900  1
  F  F9  1  0.29045800  0.87361000  0.76607300  1
  F  F10  1  0.62267200  0.49057800  0.64153700  1
  F  F11  1  0.06757100  0.93593500  0.39800100  1
  F  F12  1  0.35190300  0.99113700  0.46910500  1
  F  F13  1  0.85939800  0.63755500  0.14798000  1
  F  F14  1  0.91318200  0.07312500  0.90365000  1
  F  F15  1  0.36244500  0.14060200  0.85202000  1
  F  F16  1  0.13676000  0.35765100  0.34911300  1
  F  F17  1  0.40971200  0.82113400  0.96250000  1
  F  F18  1  0.59447200  0.11350500  0.20380600  1
  F  F19  1  0.83904000  0.41072300  0.45605800  1
  F  F20  1  0.10200300  0.60205800  0.70322900  1
  F  F21  1  0.38450600  0.50853000  0.86315000  1
  F  F22  1  0.70190200  0.12642000  0.72763000  1
  F  F23  1  0.64234900  0.86324000  0.65088700  1
  F  F24  1  0.00886300  0.64809700  0.53089500  1
  F  F25  1  0.96009000  0.35858400  0.97436000  1
  F  F26  1  0.88649500  0.40552800  0.79619400  1
  F  F27  1  0.87358000  0.29809800  0.27237000  1
loop_
_geom_bond_atom_site_label_1
_geom_bond_atom_site_label_2
_geom_bond_distance
_geom_bond_site_symmetry_2
Ba0 F10 2.604403 1_455
Ba0 F8 2.744598 1_545
Ba0 F12 2.753515 1_545
Ba0 F23 2.811500 1_545
Ba0 F24 2.813169 1_555
Ba0 F26 2.825328 1_455
Ba0 F19 2.893882 1_455
Ba0 F20 2.899472 1_555
Ba0 F9 3.007889 1_545
Ba0 F23 3.076968 1_455
Ba1 F13 2.721037 1_455
Ba1 F6 2.722823 1_545
Ba1 F5 2.743339 1_455
Ba1 F25 2.779730 1_454
Ba1 F0 2.808100 1_545
Ba1 F18 2.834067 1_555
Ba1 F4 2.899237 1_555
Ba1 F17 2.935475 1_544
Ba1 F13 3.049704 1_545
Ba1 F27 3.065874 1_455
Ba2 F7 2.604403 1_565
Ba2 F11 2.744598 1_655
Ba2 F24 2.753515 1_655
Ba2 F16 2.811500 1_655
Ba2 F12 2.813169 1_555
Ba2 F18 2.825328 1_565
Ba2 F2 2.893882 1_565
Ba2 F0 2.899472 1_555
Ba2 F3 3.007889 1_655
Ba2 F16 3.076968 1_565
Ba3 F15 2.721037 1_565
Ba3 F21 2.722823 1_655
Ba3 F14 2.743339 1_565
Ba3 F4 2.779730 1_566
Ba3 F20 2.808100 1_655
Ba3 F26 2.834067 1_555
Ba3 F25 2.899237 1_555
Ba3 F1 2.935475 1_656
Ba3 F15 3.049704 1_655
Ba3 F22 3.065874 1_565
Ca0 F1 2.319793 1_555
Ca0 F17 2.319793 1_554
Ca0 F21 2.358879 1_554
Ca0 F6 2.358879 1_555
Ca0 F5 2.366473 1_555
Ca0 F14 2.366473 1_554
Ca0 F4 2.590349 1_555
Ca0 F25 2.590349 1_554
Cu0 F10 1.834519 1_555
Cu0 F21 1.908619 1_555
Cu0 F9 1.972595 1_555
Cu0 F22 2.037430 1_555
Cu0 F26 2.542572 1_555
Cu1 F7 1.834519 1_555
Cu1 F6 1.908619 1_555
Cu1 F3 1.972595 1_555
Cu1 F27 2.037430 1_555
Cu1 F18 2.542572 1_555
F0 V2 1.947737 1_565
F1 V1 1.981645 1_455
F2 V3 1.867413 1_545
F3 V1 2.042045 1_455
F4 V1 2.005256 1_545
F5 V1 1.980541 1_545
F8 V3 1.814719 1_455
F9 V0 2.042045 1_565
F11 V2 1.814719 1_565
F12 V2 1.905392 1_565
F13 V1 1.904395 1_555
F14 V0 1.980541 1_655
F15 V0 1.904395 1_555
F16 V2 1.869260 1_555
F17 V0 1.981645 1_565
F18 V1 1.975198 1_545
F19 V2 1.867413 1_655
F20 V3 1.947737 1_455
F22 V3 1.995722 1_545
F23 V3 1.869260 1_555
F24 V3 1.905392 1_455
F25 V0 2.005256 1_655
F26 V0 1.975198 1_655
F27 V2 1.995722 1_655
