# generated using pymatgen
data_CaMg2MnFe2(P2O13)2
_symmetry_space_group_name_H-M   'P 1'
_cell_length_a   6.91403100
_cell_length_b   10.31335900
_cell_length_c   14.63862367
_cell_angle_alpha   69.91570763
_cell_angle_beta   90.00000000
_cell_angle_gamma   90.00000000
_symmetry_Int_Tables_number   1
_chemical_formula_structural   CaMg2MnFe2(P2O13)2
_chemical_formula_sum   'Ca2 Mg4 Mn2 Fe4 P8 O52'
_cell_volume   980.35741577
_cell_formula_units_Z   2
loop_
 _symmetry_equiv_pos_site_id
 _symmetry_equiv_pos_as_xyz
  1  'x, y, z'
loop_
 _atom_site_type_symbol
 _atom_site_label
 _atom_site_symmetry_multiplicity
 _atom_site_fract_x
 _atom_site_fract_y
 _atom_site_fract_z
 _atom_site_occupancy
  Ca  Ca0  1  0.02511600  0.00000000  0.25000000  1
  Ca  Ca1  1  0.97488400  0.00000000  0.75000000  1
  Mg  Mg0  1  0.00000000  0.50000000  0.00000000  1
  Mg  Mg1  1  0.00000000  0.50000000  0.50000000  1
  Mg  Mg2  1  0.50714000  0.50000000  0.25000000  1
  Mg  Mg3  1  0.49286000  0.50000000  0.75000000  1
  Mn  Mn0  1  0.52542500  0.00000000  0.25000000  1
  Mn  Mn1  1  0.47457500  0.00000000  0.75000000  1
  Fe  Fe0  1  0.00000000  0.00000000  0.50000000  1
  Fe  Fe1  1  0.00000000  0.00000000  0.00000000  1
  Fe  Fe2  1  0.50000000  0.00000000  0.50000000  1
  Fe  Fe3  1  0.50000000  0.00000000  0.00000000  1
  P  P0  1  0.72282200  0.18663700  0.30120100  1
  P  P1  1  0.72282200  0.81336300  0.19879900  1
  P  P2  1  0.27717800  0.81336300  0.69879900  1
  P  P3  1  0.27717800  0.18663700  0.80120100  1
  P  P4  1  0.25671500  0.80016600  0.42323200  1
  P  P5  1  0.25671500  0.19983400  0.07676800  1
  P  P6  1  0.74328500  0.19983400  0.57676800  1
  P  P7  1  0.74328500  0.80016600  0.92323200  1
  O  O0  1  0.72811900  0.13925300  0.20745300  1
  O  O1  1  0.72811900  0.86074700  0.29254700  1
  O  O2  1  0.27188100  0.86074700  0.79254700  1
  O  O3  1  0.27188100  0.13925300  0.70745300  1
  O  O4  1  0.67379600  0.33516200  0.27883800  1
  O  O5  1  0.67379600  0.66483800  0.22116200  1
  O  O6  1  0.32620400  0.66483800  0.72116200  1
  O  O7  1  0.32620400  0.33516200  0.77883800  1
  O  O8  1  0.91297100  0.13725400  0.35615900  1
  O  O9  1  0.91297100  0.86274600  0.14384100  1
  O  O10  1  0.08702900  0.86274600  0.64384100  1
  O  O11  1  0.08702900  0.13725400  0.85615900  1
  O  O12  1  0.54862200  0.08160300  0.35113300  1
  O  O13  1  0.54862200  0.91839700  0.14886700  1
  O  O14  1  0.45137800  0.91839700  0.64886700  1
  O  O15  1  0.45137800  0.08160300  0.85113300  1
  O  O16  1  0.32323400  0.87072900  0.31279900  1
  O  O17  1  0.32323400  0.12927100  0.18720100  1
  O  O18  1  0.67676600  0.12927100  0.68720100  1
  O  O19  1  0.67676600  0.87072900  0.81279900  1
  O  O20  1  0.20697800  0.65034000  0.44465100  1
  O  O21  1  0.20697800  0.34966000  0.05534900  1
  O  O22  1  0.79302200  0.34966000  0.55534900  1
  O  O23  1  0.79302200  0.65034000  0.94465100  1
  O  O24  1  0.06433800  0.88018400  0.42585100  1
  O  O25  1  0.06433800  0.11981600  0.07414900  1
  O  O26  1  0.93566200  0.11981600  0.57414900  1
  O  O27  1  0.93566200  0.88018400  0.92585100  1
  O  O28  1  0.41174100  0.82459400  0.49122300  1
  O  O29  1  0.41174100  0.17540600  0.00877700  1
  O  O30  1  0.58825900  0.17540600  0.50877700  1
  O  O31  1  0.58825900  0.82459400  0.99122300  1
  O  O32  1  0.24937400  0.06875000  0.48016500  1
  O  O33  1  0.24937400  0.93125000  0.01983500  1
  O  O34  1  0.75062600  0.93125000  0.51983500  1
  O  O35  1  0.75062600  0.06875000  0.98016500  1
  O  O36  1  0.24029400  0.37948600  0.29780700  1
  O  O37  1  0.24029400  0.62051400  0.20219300  1
  O  O38  1  0.75970600  0.62051400  0.70219300  1
  O  O39  1  0.75970600  0.37948600  0.79780700  1
  O  O40  1  0.76365600  0.36321100  0.00359700  1
  O  O41  1  0.76365600  0.63678900  0.49640300  1
  O  O42  1  0.23634400  0.63678900  0.99640300  1
  O  O43  1  0.23634400  0.36321100  0.50359700  1
  O  O44  1  0.93958600  0.45252100  0.87200100  1
  O  O45  1  0.93958600  0.54747900  0.62799900  1
  O  O46  1  0.06041400  0.54747900  0.12799900  1
  O  O47  1  0.06041400  0.45252100  0.37200100  1
  O  O48  1  0.40741000  0.54113100  0.10399800  1
  O  O49  1  0.40741000  0.45886900  0.39600200  1
  O  O50  1  0.59259000  0.45886900  0.89600200  1
  O  O51  1  0.59259000  0.54113100  0.60399800  1
loop_
_geom_bond_atom_site_label_1
_geom_bond_atom_site_label_2
_geom_bond_distance
_geom_bond_site_symmetry_2
Ca0 O16 2.455472 1_545
Ca0 O17 2.455472 1_555
Ca0 O24 2.458128 1_545
Ca0 O25 2.458128 1_555
Ca0 O0 2.460243 1_455
Ca0 O1 2.460243 1_445
Ca0 O8 2.555543 1_455
Ca0 O9 2.555543 1_445
Ca1 O19 2.455472 1_545
Ca1 O18 2.455472 1_555
Ca1 O26 2.458128 1_555
Ca1 O27 2.458128 1_545
Ca1 O3 2.460243 1_655
Ca1 O2 2.460243 1_645
Ca1 O11 2.555543 1_655
Ca1 O10 2.555543 1_645
Mg0 O21 2.060499 1_555
Mg0 O23 2.060499 1_454
Mg0 O46 2.134305 1_555
Mg0 O44 2.134305 1_454
Mg0 O42 2.147610 1_554
Mg0 O40 2.147610 1_455
Mg1 O22 2.060499 1_455
Mg1 O20 2.060499 1_555
Mg1 O45 2.134305 1_455
Mg1 O47 2.134305 1_555
Mg1 O41 2.147610 1_455
Mg1 O43 2.147610 1_555
Mg2 O5 1.975637 1_555
Mg2 O4 1.975637 1_555
Mg2 O49 2.144912 1_555
Mg2 O48 2.144912 1_555
Mg2 O36 2.200257 1_555
Mg2 O37 2.200257 1_555
Mg3 O6 1.975637 1_555
Mg3 O7 1.975637 1_555
Mg3 O50 2.144912 1_555
Mg3 O51 2.144912 1_555
Mg3 O39 2.200257 1_555
Mg3 O38 2.200257 1_555
Mn0 O16 1.932637 1_545
Mn0 O17 1.932637 1_555
Mn0 O12 1.944598 1_555
Mn0 O13 1.944598 1_545
Mn0 O0 1.949401 1_555
Mn0 O1 1.949401 1_545
Mn1 O19 1.932637 1_545
Mn1 O18 1.932637 1_555
Mn1 O15 1.944598 1_555
Mn1 O14 1.944598 1_545
Mn1 O3 1.949401 1_555
Mn1 O2 1.949401 1_545
Fe0 O32 1.848905 1_555
Fe0 O34 1.848905 1_445
Fe0 O26 1.955562 1_455
Fe0 O24 1.955562 1_545
Fe0 O8 2.180008 1_455
Fe0 O10 2.180008 1_545
Fe1 O33 1.848905 1_545
Fe1 O35 1.848905 1_454
Fe1 O25 1.955562 1_555
Fe1 O27 1.955562 1_444
Fe1 O11 2.180008 1_554
Fe1 O9 2.180008 1_445
Fe2 O34 1.856980 1_545
Fe2 O32 1.856980 1_555
Fe2 O30 1.954760 1_555
Fe2 O28 1.954760 1_545
Fe2 O12 2.076207 1_555
Fe2 O14 2.076207 1_545
Fe3 O35 1.856980 1_554
Fe3 O33 1.856980 1_545
Fe3 O29 1.954760 1_555
Fe3 O31 1.954760 1_544
Fe3 O13 2.076207 1_545
Fe3 O15 2.076207 1_554
O0 P0 1.607508 1_555
O1 P1 1.607508 1_555
O2 P2 1.607508 1_555
O3 P3 1.607508 1_555
O4 P0 1.491325 1_555
O5 P1 1.491325 1_555
O6 P2 1.491325 1_555
O7 P3 1.491325 1_555
O8 P0 1.534158 1_555
O9 P1 1.534158 1_555
O10 P2 1.534158 1_555
O11 P3 1.534158 1_555
O12 P0 1.616953 1_555
O13 P1 1.616953 1_555
O14 P2 1.616953 1_555
O15 P3 1.616953 1_555
O16 P4 1.595771 1_555
O17 P5 1.595771 1_555
O18 P6 1.595771 1_555
O19 P7 1.595771 1_555
O20 P4 1.507145 1_555
O21 P5 1.507145 1_555
O22 P6 1.507145 1_555
O23 P7 1.507145 1_555
O24 P4 1.572708 1_555
O25 P5 1.572708 1_555
O26 P6 1.572708 1_555
O27 P7 1.572708 1_555
O28 P4 1.541159 1_555
O29 P5 1.541159 1_555
O30 P6 1.541159 1_555
O31 P7 1.541159 1_555
