# generated using pymatgen
data_Sm6Ni20P13
_symmetry_space_group_name_H-M   'P 1'
_cell_length_a   12.78060782
_cell_length_b   12.78060782
_cell_length_c   3.81561500
_cell_angle_alpha   90.00000000
_cell_angle_beta   90.00000000
_cell_angle_gamma   119.99999909
_symmetry_Int_Tables_number   1
_chemical_formula_structural   Sm6Ni20P13
_chemical_formula_sum   'Sm6 Ni20 P13'
_cell_volume   539.75689685
_cell_formula_units_Z   1
loop_
 _symmetry_equiv_pos_site_id
 _symmetry_equiv_pos_as_xyz
  1  'x, y, z'
loop_
 _atom_site_type_symbol
 _atom_site_label
 _atom_site_symmetry_multiplicity
 _atom_site_fract_x
 _atom_site_fract_y
 _atom_site_fract_z
 _atom_site_occupancy
  Sm  Sm0  1  0.71821600  0.53107400  0.00000000  1
  Sm  Sm1  1  0.81285900  0.28178400  0.00000000  1
  Sm  Sm2  1  0.46892600  0.18714100  0.00000000  1
  Sm  Sm3  1  0.53164500  0.81298300  0.50000000  1
  Sm  Sm4  1  0.28133800  0.46835500  0.50000000  1
  Sm  Sm5  1  0.18701700  0.71866200  0.50000000  1
  Ni  Ni0  1  0.89616600  0.80622900  0.00000000  1
  Ni  Ni1  1  0.91006300  0.10383400  0.00000000  1
  Ni  Ni2  1  0.19377100  0.08993700  0.00000000  1
  Ni  Ni3  1  0.66666700  0.33333300  0.50000000  1
  Ni  Ni4  1  0.84808000  0.92856700  0.50000000  1
  Ni  Ni5  1  0.08048600  0.15192000  0.50000000  1
  Ni  Ni6  1  0.07143300  0.91951400  0.50000000  1
  Ni  Ni7  1  0.33333300  0.66666700  0.00000000  1
  Ni  Ni8  1  0.97811000  0.56277200  0.00000000  1
  Ni  Ni9  1  0.58466200  0.02189000  0.00000000  1
  Ni  Ni10  1  0.43722800  0.41533800  0.00000000  1
  Ni  Ni11  1  0.92978200  0.68532600  0.50000000  1
  Ni  Ni12  1  0.75554400  0.07021800  0.50000000  1
  Ni  Ni13  1  0.31467400  0.24445600  0.50000000  1
  Ni  Ni14  1  0.41112700  0.97692200  0.50000000  1
  Ni  Ni15  1  0.56579500  0.58887300  0.50000000  1
  Ni  Ni16  1  0.02307800  0.43420500  0.50000000  1
  Ni  Ni17  1  0.68210700  0.75913000  0.00000000  1
  Ni  Ni18  1  0.07702300  0.31789300  0.00000000  1
  Ni  Ni19  1  0.24087000  0.92297700  0.00000000  1
  P  P0  1  0.86551800  0.47860100  0.50000000  1
  P  P1  1  0.61308200  0.13448200  0.50000000  1
  P  P2  1  0.52139900  0.38691800  0.50000000  1
  P  P3  1  0.76891800  0.72441000  0.50000000  1
  P  P4  1  0.95549200  0.23108200  0.50000000  1
  P  P5  1  0.27559000  0.04450800  0.50000000  1
  P  P6  1  0.38575700  0.86473700  0.00000000  1
  P  P7  1  0.47898100  0.61424300  0.00000000  1
  P  P8  1  0.13526300  0.52101900  0.00000000  1
  P  P9  1  0.71957100  0.95356100  0.00000000  1
  P  P10  1  0.23399000  0.28042900  0.00000000  1
  P  P11  1  0.04643900  0.76601000  0.00000000  1
  P  P12  1  0.00000000  0.00000000  0.00000000  1
loop_
_geom_bond_atom_site_label_1
_geom_bond_atom_site_label_2
_geom_bond_distance
_geom_bond_site_symmetry_2
Ni0 P12 2.146559 1_665
Ni0 P11 2.222627 1_655
Ni0 P3 2.382742 1_554
Ni0 P3 2.382742 1_555
Ni0 Sm0 3.088908 1_555
Ni1 P12 2.146559 1_655
Ni1 P9 2.222627 1_545
Ni1 P4 2.382742 1_555
Ni1 P4 2.382742 1_554
Ni1 Sm1 3.088898 1_555
Ni2 P12 2.146559 1_555
Ni2 P10 2.222627 1_555
Ni2 P5 2.382742 1_555
Ni2 P5 2.382742 1_554
Ni2 Sm2 3.088910 1_555
Ni3 P1 2.277590 1_555
Ni3 P0 2.277597 1_555
Ni3 P2 2.277615 1_555
Ni3 Sm1 2.965764 1_555
Ni3 Sm1 2.965764 1_556
Ni3 Sm0 2.965764 1_556
Ni3 Sm0 2.965764 1_555
Ni3 Sm2 2.965764 1_555
Ni3 Sm2 2.965764 1_556
Ni4 P3 2.278579 1_555
Ni4 P12 2.543722 1_665
Ni4 P12 2.543722 1_666
Ni4 P9 2.638935 1_555
Ni4 P9 2.638935 1_556
Ni5 P4 2.278568 1_455
Ni5 P12 2.543722 1_556
Ni5 P12 2.543722 1_555
Ni5 P10 2.638940 1_555
Ni5 P10 2.638940 1_556
Ni6 P5 2.278578 1_565
Ni6 P12 2.543715 1_565
Ni6 P12 2.543715 1_566
Ni6 P11 2.638944 1_555
Ni6 P11 2.638944 1_556
Ni7 P6 2.271800 1_555
Ni7 P8 2.271807 1_555
Ni7 P7 2.271825 1_555
Ni7 Sm5 2.970004 1_555
Ni7 Sm5 2.970004 1_554
Ni7 Sm3 2.970011 1_554
Ni7 Sm3 2.970011 1_555
Ni7 Sm4 2.970014 1_555
Ni7 Sm4 2.970014 1_554
Ni8 P11 2.289388 1_655
Ni8 P0 2.306443 1_554
Ni8 P0 2.306443 1_555
Ni8 P8 2.321783 1_655
Ni8 Sm5 3.068941 1_655
Ni8 Sm5 3.068941 1_654
Ni8 Sm1 3.126122 1_555
Ni8 Sm0 3.138714 1_555
Ni9 P9 2.289388 1_545
Ni9 P1 2.306445 1_555
Ni9 P1 2.306445 1_554
Ni9 P6 2.321774 1_545
Ni9 Sm3 3.068941 1_545
Ni9 Sm3 3.068941 1_544
Ni9 Sm2 3.126112 1_555
Ni9 Sm1 3.138719 1_555
Ni10 P10 2.289388 1_555
Ni10 P2 2.306438 1_554
Ni10 P2 2.306438 1_555
Ni10 P7 2.321770 1_555
Ni10 Sm4 3.068941 1_555
Ni10 Sm4 3.068941 1_554
Ni10 Sm0 3.126123 1_555
Ni10 Sm2 3.138726 1_555
Ni11 P11 2.321326 1_655
Ni11 P11 2.321326 1_656
Ni11 P0 2.342031 1_555
Ni11 P3 2.345929 1_555
Ni11 Sm0 3.083333 1_556
Ni11 Sm0 3.083333 1_555
Ni11 Sm5 3.096653 1_655
Ni12 P9 2.321326 1_545
Ni12 P9 2.321326 1_546
Ni12 P1 2.342043 1_555
Ni12 P4 2.345929 1_555
Ni12 Sm1 3.083330 1_556
Ni12 Sm1 3.083330 1_555
Ni12 Sm3 3.096653 1_545
Ni13 P10 2.321326 1_555
Ni13 P10 2.321326 1_556
Ni13 P2 2.342033 1_555
Ni13 P5 2.345929 1_555
Ni13 Sm2 3.083340 1_555
Ni13 Sm2 3.083340 1_556
Ni13 Sm4 3.096653 1_555
Ni14 P5 2.289782 1_565
Ni14 P6 2.309919 1_556
Ni14 P6 2.309919 1_555
Ni14 P1 2.349371 1_565
Ni14 Sm2 3.069074 1_565
Ni14 Sm2 3.069074 1_566
Ni14 Sm5 3.105579 1_555
Ni14 Sm3 3.160667 1_555
Ni15 P3 2.289782 1_555
Ni15 P7 2.309912 1_556
Ni15 P7 2.309912 1_555
Ni15 P2 2.349368 1_555
Ni15 Sm0 3.069083 1_556
Ni15 Sm0 3.069083 1_555
Ni15 Sm3 3.105579 1_555
Ni15 Sm4 3.160667 1_555
Ni16 P4 2.289782 1_455
Ni16 P8 2.309917 1_555
Ni16 P8 2.309917 1_556
Ni16 P0 2.349380 1_455
Ni16 Sm1 3.069076 1_455
Ni16 Sm1 3.069076 1_456
Ni16 Sm4 3.105579 1_555
Ni16 Sm5 3.160667 1_555
Ni17 P9 2.283505 1_555
Ni17 P7 2.315446 1_555
Ni17 P3 2.357955 1_555
Ni17 P3 2.357955 1_554
Ni17 Sm3 3.022402 1_554
Ni17 Sm3 3.022402 1_555
Ni17 Sm0 3.170731 1_555
Ni18 P10 2.283505 1_555
Ni18 P8 2.315443 1_555
Ni18 P4 2.357955 1_455
Ni18 P4 2.357955 1_454
Ni18 Sm4 3.022402 1_555
Ni18 Sm4 3.022402 1_554
Ni18 Sm1 3.170719 1_455
Ni19 P11 2.283505 1_555
Ni19 P6 2.315455 1_555
Ni19 P5 2.357955 1_565
Ni19 P5 2.357955 1_564
Ni19 Sm5 3.022402 1_554
Ni19 Sm5 3.022402 1_555
Ni19 Sm2 3.170724 1_565
P0 Sm1 2.954182 1_556
P0 Sm1 2.954182 1_555
P0 Sm0 2.982658 1_556
P0 Sm0 2.982658 1_555
P1 Sm2 2.954163 1_555
P1 Sm2 2.954163 1_556
P1 Sm1 2.982672 1_556
P1 Sm1 2.982672 1_555
P2 Sm0 2.954177 1_556
P2 Sm0 2.954177 1_555
P2 Sm2 2.982677 1_555
P2 Sm2 2.982677 1_556
P3 Sm0 2.926441 1_556
P3 Sm0 2.926441 1_555
P4 Sm1 2.926431 1_555
P4 Sm1 2.926431 1_556
P5 Sm2 2.926438 1_555
P5 Sm2 2.926438 1_556
P6 Sm3 2.964293 1_554
P6 Sm3 2.964293 1_555
P6 Sm5 2.972341 1_554
P6 Sm5 2.972341 1_555
P7 Sm4 2.964300 1_555
P7 Sm4 2.964300 1_554
P7 Sm3 2.972343 1_554
P7 Sm3 2.972343 1_555
P8 Sm5 2.964303 1_554
P8 Sm5 2.964303 1_555
P8 Sm4 2.972334 1_555
P8 Sm4 2.972334 1_554
P9 Sm3 2.884646 1_554
P9 Sm3 2.884646 1_555
P10 Sm4 2.884646 1_555
P10 Sm4 2.884646 1_554
P11 Sm5 2.884646 1_555
P11 Sm5 2.884646 1_554
