# generated using pymatgen
data_Mg(MnS2)2
_symmetry_space_group_name_H-M   'P 1'
_cell_length_a   6.94905265
_cell_length_b   6.94905265
_cell_length_c   7.22518284
_cell_angle_alpha   60.06112029
_cell_angle_beta   60.06112029
_cell_angle_gamma   59.92793559
_symmetry_Int_Tables_number   1
_chemical_formula_structural   Mg(MnS2)2
_chemical_formula_sum   'Mg2 Mn4 S8'
_cell_volume   246.80168757
_cell_formula_units_Z   2
loop_
 _symmetry_equiv_pos_site_id
 _symmetry_equiv_pos_as_xyz
  1  'x, y, z'
loop_
 _atom_site_type_symbol
 _atom_site_label
 _atom_site_symmetry_multiplicity
 _atom_site_fract_x
 _atom_site_fract_y
 _atom_site_fract_z
 _atom_site_occupancy
  Mg  Mg0  1  0.00000000  0.00000000  0.00000000  1
  Mg  Mg1  1  0.00000000  0.00000000  0.50000000  1
  Mn  Mn0  1  0.50000000  0.00000000  0.50000000  1
  Mn  Mn1  1  0.50000000  0.50000000  0.00000000  1
  Mn  Mn2  1  0.00000000  0.50000000  0.50000000  1
  Mn  Mn3  1  0.50000000  0.50000000  0.50000000  1
  S  S0  1  0.26034400  0.26034400  0.71223700  1
  S  S1  1  0.72823300  0.25166600  0.27077100  1
  S  S2  1  0.25457400  0.25457400  0.27131000  1
  S  S3  1  0.74833400  0.27176700  0.72922900  1
  S  S4  1  0.74542600  0.74542600  0.72869000  1
  S  S5  1  0.27176700  0.74833400  0.72922900  1
  S  S6  1  0.25166600  0.72823300  0.27077100  1
  S  S7  1  0.73965600  0.73965600  0.28776300  1
loop_
_geom_bond_atom_site_label_1
_geom_bond_atom_site_label_2
_geom_bond_distance
_geom_bond_site_symmetry_2
Mg0 S7 2.576807 1_445
Mg0 S0 2.576807 1_554
Mg0 S5 2.621004 1_544
Mg0 S1 2.621004 1_455
Mg0 S3 2.621004 1_454
Mg0 S6 2.621004 1_545
Mg1 S6 2.507794 1_545
Mg1 S3 2.507794 1_455
Mg1 S1 2.507794 1_455
Mg1 S5 2.507794 1_545
Mg1 S4 2.508048 1_445
Mg1 S2 2.508048 1_555
Mn0 S5 2.362963 1_545
Mn0 S1 2.362963 1_555
Mn0 S7 2.366123 1_545
Mn0 S0 2.366123 1_555
Mn0 S2 2.374844 1_555
Mn0 S4 2.374844 1_545
Mn1 S2 2.429181 1_555
Mn1 S4 2.429181 1_554
Mn1 S3 2.510998 1_554
Mn1 S5 2.510998 1_554
Mn1 S1 2.510998 1_555
Mn1 S6 2.510998 1_555
Mn2 S3 2.362963 1_455
Mn2 S6 2.362963 1_555
Mn2 S0 2.366123 1_555
Mn2 S7 2.366123 1_455
Mn2 S2 2.374844 1_555
Mn2 S4 2.374844 1_455
Mn3 S0 2.362177 1_555
Mn3 S7 2.362177 1_555
Mn3 S6 2.392589 1_555
Mn3 S1 2.392589 1_555
Mn3 S5 2.392589 1_555
Mn3 S3 2.392589 1_555
