# generated using pymatgen
data_Eu(GaSe2)2
_symmetry_space_group_name_H-M   'P 1'
_cell_length_a   6.27035502
_cell_length_b   6.27035502
_cell_length_c   10.90317764
_cell_angle_alpha   90.00000000
_cell_angle_beta   90.00000000
_cell_angle_gamma   119.70705147
_symmetry_Int_Tables_number   1
_chemical_formula_structural   Eu(GaSe2)2
_chemical_formula_sum   'Eu2 Ga4 Se8'
_cell_volume   372.34235361
_cell_formula_units_Z   2
loop_
 _symmetry_equiv_pos_site_id
 _symmetry_equiv_pos_as_xyz
  1  'x, y, z'
loop_
 _atom_site_type_symbol
 _atom_site_label
 _atom_site_symmetry_multiplicity
 _atom_site_fract_x
 _atom_site_fract_y
 _atom_site_fract_z
 _atom_site_occupancy
  Eu  Eu0  1  0.50000000  0.50000000  0.75000000  1
  Eu  Eu1  1  0.50000000  0.50000000  0.25000000  1
  Ga  Ga0  1  0.76333762  0.23959327  0.50000000  1
  Ga  Ga1  1  0.23666238  0.76040673  0.50000000  1
  Ga  Ga2  1  0.76040673  0.23666238  0.00000000  1
  Ga  Ga3  1  0.23959327  0.76333762  0.00000000  1
  Se  Se0  1  0.34914371  0.18714514  0.50000000  1
  Se  Se1  1  0.65085629  0.81285486  0.50000000  1
  Se  Se2  1  0.81285486  0.65085629  0.00000000  1
  Se  Se3  1  0.18714514  0.34914371  -0.00000000  1
  Se  Se4  1  0.50000000  0.00000000  0.83035298  1
  Se  Se5  1  -0.00000000  0.50000000  0.66964702  1
  Se  Se6  1  0.50000000  0.00000000  0.16964702  1
  Se  Se7  1  -0.00000000  0.50000000  0.33035298  1
loop_
_geom_bond_atom_site_label_1
_geom_bond_atom_site_label_2
_geom_bond_distance
_geom_bond_site_symmetry_2
Eu0 Se3 3.214633 1_556
Eu0 Se0 3.214633 1_555
Eu0 Se1 3.214633 1_555
Eu0 Se2 3.214633 1_556
Eu0 Se4 3.255287 1_555
Eu0 Se4 3.255287 1_565
Eu0 Se5 3.255287 1_555
Eu0 Se5 3.255287 1_655
Eu1 Se0 3.214633 1_555
Eu1 Se3 3.214633 1_555
Eu1 Se1 3.214633 1_555
Eu1 Se2 3.214633 1_555
Eu1 Se7 3.255287 1_655
Eu1 Se7 3.255287 1_555
Eu1 Se6 3.255287 1_555
Eu1 Se6 3.255287 1_565
Ga0 Se1 2.405589 1_545
Ga0 Se5 2.426538 1_655
Ga0 Se7 2.426538 1_655
Ga0 Se0 2.450870 1_555
Ga1 Se0 2.405589 1_565
Ga1 Se7 2.426538 1_555
Ga1 Se5 2.426538 1_555
Ga1 Se1 2.450870 1_555
Ga2 Se3 2.405589 1_655
Ga2 Se4 2.426538 1_554
Ga2 Se6 2.426538 1_555
Ga2 Se2 2.450870 1_555
Ga3 Se2 2.405589 1_455
Ga3 Se4 2.426538 1_564
Ga3 Se6 2.426538 1_565
Ga3 Se3 2.450870 1_555
