# generated using pymatgen
data_Na2PtF6
_symmetry_space_group_name_H-M   'P 1'
_cell_length_a   9.25789372
_cell_length_b   9.25785699
_cell_length_c   5.09932315
_cell_angle_alpha   89.99993712
_cell_angle_beta   90.00012103
_cell_angle_gamma   120.00110215
_symmetry_Int_Tables_number   1
_chemical_formula_structural   Na2PtF6
_chemical_formula_sum   'Na6 Pt3 F18'
_cell_volume   378.49574506
_cell_formula_units_Z   3
loop_
 _symmetry_equiv_pos_site_id
 _symmetry_equiv_pos_as_xyz
  1  'x, y, z'
loop_
 _atom_site_type_symbol
 _atom_site_label
 _atom_site_symmetry_multiplicity
 _atom_site_fract_x
 _atom_site_fract_y
 _atom_site_fract_z
 _atom_site_occupancy
  Na  Na0  1  0.00001076  0.63192691  0.49996519  1
  Na  Na1  1  0.63191818  -0.00001166  0.49995842  1
  Na  Na2  1  0.36804499  0.36806098  0.49996230  1
  Na  Na3  1  0.29811149  0.99987545  -0.00002859  1
  Na  Na4  1  0.70177695  0.70189958  -0.00003260  1
  Na  Na5  1  0.00013175  0.29824813  -0.00003515  1
  Pt  Pt0  1  0.00000288  -0.00000622  0.50010658  1
  Pt  Pt1  1  0.33333360  0.66667198  0.00314665  1
  Pt  Pt2  1  0.66666333  0.33333603  0.99678675  1
  F  F0  1  0.09526100  0.89185133  0.29046685  1
  F  F1  1  0.79659813  0.90473307  0.29046575  1
  F  F2  1  0.10814807  0.20340450  0.29046817  1
  F  F3  1  0.90471816  0.79655975  0.70975311  1
  F  F4  1  0.89185527  0.09528049  0.70975172  1
  F  F5  1  0.20343827  0.10815448  0.70975110  1
  F  F6  1  0.21935204  0.75398805  0.78783161  1
  F  F7  1  0.53463411  0.78065367  0.78782315  1
  F  F8  1  0.24601184  0.46536788  0.78782425  1
  F  F9  1  0.78070465  0.53471249  0.21185834  1
  F  F10  1  0.75401001  0.21930114  0.21185180  1
  F  F11  1  0.46528543  0.24598835  0.21185476  1
  F  F12  1  0.41493319  0.86681425  0.21934115  1
  F  F13  1  0.45188139  0.58507026  0.21932813  1
  F  F14  1  0.13318682  0.54811668  0.21933154  1
  F  F15  1  0.58499400  0.45188279  0.78082574  1
  F  F16  1  0.86688195  0.41500346  0.78082172  1
  F  F17  1  0.54811172  0.13311517  0.78082256  1
loop_
_geom_bond_atom_site_label_1
_geom_bond_atom_site_label_2
_geom_bond_distance
_geom_bond_site_symmetry_2
F0 Pt0 1.950852 1_565
F0 Na3 2.200702 1_555
F0 Na0 2.363753 1_555
F1 Pt0 1.950861 1_665
F1 Na4 2.200606 1_555
F1 Na1 2.363849 1_565
F2 Pt0 1.950889 1_555
F2 Na5 2.200797 1_555
F2 Na2 2.363539 1_555
F3 Pt0 1.951067 1_665
F3 Na4 2.200333 1_556
F3 Na0 2.364404 1_655
F4 Pt0 1.951091 1_655
F4 Na5 2.200472 1_656
F4 Na1 2.364484 1_555
F5 Pt0 1.951075 1_555
F5 Na3 2.200429 1_546
F5 Na2 2.364213 1_555
F6 Pt1 1.955888 1_556
F6 Na3 2.285598 1_556
F6 Na0 2.293576 1_555
F7 Pt1 1.955912 1_556
F7 Na4 2.285715 1_556
F7 Na1 2.293526 1_565
F8 Pt1 1.955929 1_556
F8 Na5 2.285536 1_556
F8 Na2 2.293567 1_555
F9 Pt2 1.955700 1_554
F9 Na4 2.286501 1_555
F9 Na0 2.294171 1_655
F10 Pt2 1.955734 1_554
F10 Na5 2.286502 1_655
F10 Na1 2.294203 1_555
F11 Pt2 1.955703 1_554
F11 Na3 2.286416 1_545
F11 Na2 2.294227 1_555
F12 Pt1 1.954349 1_555
F12 Na1 2.264131 1_565
F12 Na3 2.295832 1_555
F13 Pt1 1.954381 1_555
F13 Na2 2.264326 1_555
F13 Na4 2.295878 1_555
F14 Pt1 1.954360 1_555
F14 Na0 2.264221 1_555
F14 Na5 2.295693 1_555
F15 Pt2 1.954157 1_555
F15 Na2 2.264684 1_555
F15 Na4 2.296206 1_556
F16 Pt2 1.954175 1_555
F16 Na0 2.264508 1_655
F16 Na5 2.296165 1_656
F17 Pt2 1.954175 1_555
F17 Na1 2.264615 1_555
F17 Na3 2.296118 1_546
