# generated using pymatgen
data_Mn2Be3(NF6)2
_symmetry_space_group_name_H-M   'P 1'
_cell_length_a   10.06984500
_cell_length_b   10.06984500
_cell_length_c   10.06984500
_cell_angle_alpha   90.00000000
_cell_angle_beta   90.00000000
_cell_angle_gamma   90.00000000
_symmetry_Int_Tables_number   1
_chemical_formula_structural   Mn2Be3(NF6)2
_chemical_formula_sum   'Mn8 Be12 N8 F48'
_cell_volume   1021.10019045
_cell_formula_units_Z   4
loop_
 _symmetry_equiv_pos_site_id
 _symmetry_equiv_pos_as_xyz
  1  'x, y, z'
loop_
 _atom_site_type_symbol
 _atom_site_label
 _atom_site_symmetry_multiplicity
 _atom_site_fract_x
 _atom_site_fract_y
 _atom_site_fract_z
 _atom_site_occupancy
  Mn  Mn0  1  0.33656400  0.33656400  0.33656400  1
  Mn  Mn1  1  0.16343600  0.66343600  0.83656400  1
  Mn  Mn2  1  0.66343600  0.83656400  0.16343600  1
  Mn  Mn3  1  0.83656400  0.16343600  0.66343600  1
  Mn  Mn4  1  0.60393600  0.60393600  0.60393600  1
  Mn  Mn5  1  0.89606400  0.39606400  0.10393600  1
  Mn  Mn6  1  0.39606400  0.10393600  0.89606400  1
  Mn  Mn7  1  0.10393600  0.89606400  0.39606400  1
  Be  Be0  1  0.01910200  0.21341700  0.37576000  1
  Be  Be1  1  0.48089800  0.78658300  0.87576000  1
  Be  Be2  1  0.98089800  0.71341700  0.12424000  1
  Be  Be3  1  0.37576000  0.01910200  0.21341700  1
  Be  Be4  1  0.51910200  0.28658300  0.62424000  1
  Be  Be5  1  0.87576000  0.48089800  0.78658300  1
  Be  Be6  1  0.12424000  0.98089800  0.71341700  1
  Be  Be7  1  0.62424000  0.51910200  0.28658300  1
  Be  Be8  1  0.21341700  0.37576000  0.01910200  1
  Be  Be9  1  0.71341700  0.12424000  0.98089800  1
  Be  Be10  1  0.28658300  0.62424000  0.51910200  1
  Be  Be11  1  0.78658300  0.87576000  0.48089800  1
  N  N0  1  0.04659300  0.04659300  0.04659300  1
  N  N1  1  0.45340700  0.95340700  0.54659300  1
  N  N2  1  0.95340700  0.54659300  0.45340700  1
  N  N3  1  0.54659300  0.45340700  0.95340700  1
  N  N4  1  0.81714000  0.81714000  0.81714000  1
  N  N5  1  0.68286000  0.18286000  0.31714000  1
  N  N6  1  0.18286000  0.31714000  0.68286000  1
  N  N7  1  0.31714000  0.68286000  0.18286000  1
  F  F0  1  0.01630700  0.06132400  0.33537500  1
  F  F1  1  0.48369300  0.93867600  0.83537500  1
  F  F2  1  0.98369300  0.56132400  0.16462500  1
  F  F3  1  0.33537500  0.01630700  0.06132400  1
  F  F4  1  0.51630700  0.43867600  0.66462500  1
  F  F5  1  0.83537500  0.48369300  0.93867600  1
  F  F6  1  0.16462500  0.98369300  0.56132400  1
  F  F7  1  0.66462500  0.51630700  0.43867600  1
  F  F8  1  0.06132400  0.33537500  0.01630700  1
  F  F9  1  0.56132400  0.16462500  0.98369300  1
  F  F10  1  0.43867600  0.66462500  0.51630700  1
  F  F11  1  0.93867600  0.83537500  0.48369300  1
  F  F12  1  0.27147700  0.49233700  0.43841900  1
  F  F13  1  0.22852300  0.50766300  0.93841900  1
  F  F14  1  0.72852300  0.99233700  0.06158100  1
  F  F15  1  0.43841900  0.27147700  0.49233700  1
  F  F16  1  0.77147700  0.00766300  0.56158100  1
  F  F17  1  0.93841900  0.22852300  0.50766300  1
  F  F18  1  0.06158100  0.72852300  0.99233700  1
  F  F19  1  0.56158100  0.77147700  0.00766300  1
  F  F20  1  0.49233700  0.43841900  0.27147700  1
  F  F21  1  0.99233700  0.06158100  0.72852300  1
  F  F22  1  0.00766300  0.56158100  0.77147700  1
  F  F23  1  0.50766300  0.93841900  0.22852300  1
  F  F24  1  0.04577200  0.80131900  0.23431900  1
  F  F25  1  0.45422800  0.19868100  0.73431900  1
  F  F26  1  0.95422800  0.30131900  0.26568100  1
  F  F27  1  0.23431900  0.04577200  0.80131900  1
  F  F28  1  0.54577200  0.69868100  0.76568100  1
  F  F29  1  0.73431900  0.45422800  0.19868100  1
  F  F30  1  0.26568100  0.95422800  0.30131900  1
  F  F31  1  0.76568100  0.54577200  0.69868100  1
  F  F32  1  0.80131900  0.23431900  0.04577200  1
  F  F33  1  0.30131900  0.26568100  0.95422800  1
  F  F34  1  0.69868100  0.76568100  0.54577200  1
  F  F35  1  0.19868100  0.73431900  0.45422800  1
  F  F36  1  0.16819900  0.25454700  0.39695400  1
  F  F37  1  0.33180100  0.74545300  0.89695400  1
  F  F38  1  0.83180100  0.75454700  0.10304600  1
  F  F39  1  0.39695400  0.16819900  0.25454700  1
  F  F40  1  0.66819900  0.24545300  0.60304600  1
  F  F41  1  0.89695400  0.33180100  0.74545300  1
  F  F42  1  0.10304600  0.83180100  0.75454700  1
  F  F43  1  0.60304600  0.66819900  0.24545300  1
  F  F44  1  0.25454700  0.39695400  0.16819900  1
  F  F45  1  0.75454700  0.10304600  0.83180100  1
  F  F46  1  0.24545300  0.60304600  0.66819900  1
  F  F47  1  0.74545300  0.89695400  0.33180100  1
loop_
_geom_bond_atom_site_label_1
_geom_bond_atom_site_label_2
_geom_bond_distance
_geom_bond_site_symmetry_2
Be0 F26 1.561728 1_455
Be0 F17 1.564438 1_455
Be0 F36 1.572018 1_555
Be0 F0 1.584875 1_555
Be1 F28 1.561728 1_555
Be1 F19 1.564438 1_556
Be1 F37 1.572018 1_555
Be1 F1 1.584875 1_555
Be2 F24 1.561728 1_655
Be2 F18 1.564438 1_654
Be2 F38 1.572018 1_555
Be2 F2 1.584875 1_555
Be3 F30 1.561728 1_545
Be3 F23 1.564438 1_545
Be3 F39 1.572018 1_555
Be3 F3 1.584875 1_555
Be4 F25 1.561728 1_555
Be4 F15 1.564438 1_555
Be4 F40 1.572018 1_555
Be4 F4 1.584875 1_555
Be5 F31 1.561728 1_555
Be5 F22 1.564438 1_655
Be5 F41 1.572018 1_555
Be5 F5 1.584875 1_555
Be6 F27 1.561728 1_565
Be6 F21 1.564438 1_465
Be6 F42 1.572018 1_555
Be6 F6 1.584875 1_555
Be7 F29 1.561728 1_555
Be7 F20 1.564438 1_555
Be7 F43 1.572018 1_555
Be7 F7 1.584875 1_555
Be8 F33 1.561728 1_554
Be8 F13 1.564438 1_554
Be8 F44 1.572018 1_555
Be8 F8 1.584875 1_555
Be9 F32 1.561728 1_556
Be9 F14 1.564438 1_546
Be9 F45 1.572018 1_555
Be9 F9 1.584875 1_555
Be10 F35 1.561728 1_555
Be10 F12 1.564438 1_555
Be10 F46 1.572018 1_555
Be10 F10 1.584875 1_555
Be11 F34 1.561728 1_555
Be11 F16 1.564438 1_565
Be11 F47 1.572018 1_555
Be11 F11 1.584875 1_555
F0 Mn7 1.980277 1_545
F1 Mn6 1.980277 1_565
F2 Mn5 1.980277 1_555
F3 Mn6 1.980277 1_554
F4 Mn4 1.980277 1_555
F5 Mn5 1.980277 1_556
F6 Mn7 1.980277 1_555
F7 Mn4 1.980277 1_555
F8 Mn5 1.980277 1_455
F9 Mn6 1.980277 1_555
F10 Mn4 1.980277 1_555
F11 Mn7 1.980277 1_655
F12 Mn0 1.985471 1_555
F13 Mn1 1.985471 1_555
F14 Mn2 1.985471 1_555
F15 Mn0 1.985471 1_555
F16 Mn3 1.985471 1_555
F17 Mn3 1.985471 1_555
F18 Mn1 1.985471 1_555
F19 Mn2 1.985471 1_555
F20 Mn0 1.985471 1_555
F21 Mn3 1.985471 1_555
F22 Mn1 1.985471 1_555
F23 Mn2 1.985471 1_555
F24 Mn7 1.976388 1_555
F25 Mn6 1.976388 1_555
F26 Mn5 1.976388 1_555
F27 Mn6 1.976388 1_555
F28 Mn4 1.976388 1_555
F29 Mn5 1.976388 1_555
F30 Mn7 1.976388 1_555
F31 Mn4 1.976388 1_555
F32 Mn5 1.976388 1_555
F33 Mn6 1.976388 1_555
F34 Mn4 1.976388 1_555
F35 Mn7 1.976388 1_555
F36 Mn0 1.981497 1_555
F37 Mn1 1.981497 1_555
F38 Mn2 1.981497 1_555
F39 Mn0 1.981497 1_555
F40 Mn3 1.981497 1_555
F41 Mn3 1.981497 1_555
F42 Mn1 1.981497 1_555
F43 Mn2 1.981497 1_555
F44 Mn0 1.981497 1_555
F45 Mn3 1.981497 1_555
F46 Mn1 1.981497 1_555
F47 Mn2 1.981497 1_555
