# generated using pymatgen
data_NdTm
_symmetry_space_group_name_H-M   'P 1'
_cell_length_a   7.28193699
_cell_length_b   7.28193699
_cell_length_c   11.48295048
_cell_angle_alpha   90.00000000
_cell_angle_beta   90.00000000
_cell_angle_gamma   119.99999878
_symmetry_Int_Tables_number   1
_chemical_formula_structural   NdTm
_chemical_formula_sum   'Nd8 Tm8'
_cell_volume   527.32451500
_cell_formula_units_Z   8
loop_
 _symmetry_equiv_pos_site_id
 _symmetry_equiv_pos_as_xyz
  1  'x, y, z'
loop_
 _atom_site_type_symbol
 _atom_site_label
 _atom_site_symmetry_multiplicity
 _atom_site_fract_x
 _atom_site_fract_y
 _atom_site_fract_z
 _atom_site_occupancy
  Nd  Nd0_0  1  0.33333350  0.16666650  0.25000000  1
  Nd  Nd0_1  1  0.33333350  0.16666650  0.75000000  1
  Nd  Nd0_2  1  0.33333350  0.66666650  0.25000000  1
  Nd  Nd0_3  1  0.33333350  0.66666650  0.75000000  1
  Nd  Nd0_4  1  0.83333350  0.16666650  0.25000000  1
  Nd  Nd0_5  1  0.83333350  0.16666650  0.75000000  1
  Nd  Nd0_6  1  0.83333350  0.66666650  0.25000000  1
  Nd  Nd0_7  1  0.83333350  0.66666650  0.75000000  1
  Tm  Tm0_0  1  0.16666650  0.33333350  0.00000000  1
  Tm  Tm0_1  1  0.16666650  0.33333350  0.50000000  1
  Tm  Tm0_2  1  0.16666650  0.83333350  0.00000000  1
  Tm  Tm0_3  1  0.16666650  0.83333350  0.50000000  1
  Tm  Tm0_4  1  0.66666650  0.33333350  0.00000000  1
  Tm  Tm0_5  1  0.66666650  0.33333350  0.50000000  1
  Tm  Tm0_6  1  0.66666650  0.83333350  0.00000000  1
  Tm  Tm0_7  1  0.66666650  0.83333350  0.50000000  1
loop_
_geom_bond_atom_site_label_1
_geom_bond_atom_site_label_2
_geom_bond_distance
_geom_bond_site_symmetry_2
Nd0_0 Tm0_2 3.558091 1_545
Nd0_0 Tm0_3 3.558091 1_545
Nd0_0 Tm0_4 3.558091 1_555
Nd0_0 Tm0_5 3.558091 1_555
Nd0_0 Tm0_1 3.558094 1_555
Nd0_0 Tm0_0 3.558094 1_555
Nd0_0 Nd0_2 3.640968 1_545
Nd0_0 Nd0_4 3.640968 1_555
Nd0_0 Nd0_4 3.640968 1_455
Nd0_0 Nd0_2 3.640968 1_555
Nd0_0 Nd0_6 3.640969 1_555
Nd0_0 Nd0_6 3.640969 1_445
Nd0_1 Tm0_2 3.558091 1_546
Nd0_1 Tm0_3 3.558091 1_545
Nd0_1 Tm0_4 3.558091 1_556
Nd0_1 Tm0_5 3.558091 1_555
Nd0_1 Tm0_1 3.558094 1_555
Nd0_1 Tm0_0 3.558094 1_556
Nd0_1 Nd0_3 3.640968 1_545
Nd0_1 Nd0_5 3.640968 1_555
Nd0_1 Nd0_5 3.640968 1_455
Nd0_1 Nd0_3 3.640968 1_555
Nd0_1 Nd0_7 3.640969 1_445
Nd0_1 Nd0_7 3.640969 1_555
Nd0_2 Tm0_7 3.558091 1_555
Nd0_2 Tm0_6 3.558091 1_555
Nd0_2 Tm0_1 3.558091 1_555
Nd0_2 Tm0_0 3.558091 1_555
Nd0_2 Tm0_3 3.558094 1_555
Nd0_2 Tm0_2 3.558094 1_555
Nd0_2 Nd0_6 3.640968 1_555
Nd0_2 Nd0_6 3.640968 1_455
Nd0_2 Nd0_4 3.640969 1_455
Nd0_2 Nd0_4 3.640969 1_565
Nd0_3 Tm0_6 3.558091 1_556
Nd0_3 Tm0_7 3.558091 1_555
Nd0_3 Tm0_1 3.558091 1_555
Nd0_3 Tm0_0 3.558091 1_556
Nd0_3 Tm0_3 3.558094 1_555
Nd0_3 Tm0_2 3.558094 1_556
Nd0_3 Nd0_7 3.640968 1_455
Nd0_3 Nd0_7 3.640968 1_555
Nd0_3 Nd0_5 3.640969 1_565
Nd0_3 Nd0_5 3.640969 1_455
Nd0_4 Tm0_7 3.558091 1_545
Nd0_4 Tm0_6 3.558091 1_545
Nd0_4 Tm0_0 3.558091 1_655
Nd0_4 Tm0_1 3.558091 1_655
Nd0_4 Tm0_5 3.558094 1_555
Nd0_4 Tm0_4 3.558094 1_555
Nd0_4 Nd0_6 3.640968 1_555
Nd0_4 Nd0_6 3.640968 1_545
Nd0_5 Tm0_7 3.558091 1_545
Nd0_5 Tm0_6 3.558091 1_546
Nd0_5 Tm0_0 3.558091 1_656
Nd0_5 Tm0_1 3.558091 1_655
Nd0_5 Tm0_5 3.558094 1_555
Nd0_5 Tm0_4 3.558094 1_556
Nd0_5 Nd0_7 3.640968 1_545
Nd0_5 Nd0_7 3.640968 1_555
Nd0_6 Tm0_2 3.558091 1_655
Nd0_6 Tm0_3 3.558091 1_655
Nd0_6 Tm0_4 3.558091 1_555
Nd0_6 Tm0_5 3.558091 1_555
Nd0_6 Tm0_7 3.558094 1_555
Nd0_6 Tm0_6 3.558094 1_555
Nd0_7 Tm0_2 3.558091 1_656
Nd0_7 Tm0_3 3.558091 1_655
Nd0_7 Tm0_4 3.558091 1_556
Nd0_7 Tm0_5 3.558091 1_555
Nd0_7 Tm0_6 3.558094 1_556
Nd0_7 Tm0_7 3.558094 1_555
Tm0_0 Tm0_2 3.640968 1_545
Tm0_0 Tm0_4 3.640968 1_455
Tm0_0 Tm0_4 3.640968 1_555
Tm0_0 Tm0_2 3.640968 1_555
Tm0_0 Tm0_6 3.640969 1_445
Tm0_0 Tm0_6 3.640969 1_555
Tm0_1 Tm0_3 3.640968 1_545
Tm0_1 Tm0_5 3.640968 1_455
Tm0_1 Tm0_5 3.640968 1_555
Tm0_1 Tm0_3 3.640968 1_555
Tm0_1 Tm0_7 3.640969 1_555
Tm0_1 Tm0_7 3.640969 1_445
Tm0_2 Tm0_6 3.640968 1_555
Tm0_2 Tm0_6 3.640968 1_455
Tm0_2 Tm0_4 3.640969 1_455
Tm0_2 Tm0_4 3.640969 1_565
Tm0_3 Tm0_7 3.640968 1_555
Tm0_3 Tm0_7 3.640968 1_455
Tm0_3 Tm0_5 3.640969 1_455
Tm0_3 Tm0_5 3.640969 1_565
Tm0_4 Tm0_6 3.640968 1_545
Tm0_4 Tm0_6 3.640968 1_555
Tm0_5 Tm0_7 3.640968 1_545
Tm0_5 Tm0_7 3.640968 1_555
