# generated using pymatgen
data_CsK2LaV2O8
_symmetry_space_group_name_H-M   'P 1'
_cell_length_a   6.09640800
_cell_length_b   7.96506200
_cell_length_c   10.20274463
_cell_angle_alpha   88.86476364
_cell_angle_beta   90.00000000
_cell_angle_gamma   90.00000000
_symmetry_Int_Tables_number   1
_chemical_formula_structural   CsK2LaV2O8
_chemical_formula_sum   'Cs2 K4 La2 V4 O16'
_cell_volume   495.33036075
_cell_formula_units_Z   2
loop_
 _symmetry_equiv_pos_site_id
 _symmetry_equiv_pos_as_xyz
  1  'x, y, z'
loop_
 _atom_site_type_symbol
 _atom_site_label
 _atom_site_symmetry_multiplicity
 _atom_site_fract_x
 _atom_site_fract_y
 _atom_site_fract_z
 _atom_site_occupancy
  Cs  Cs0  1  0.25000000  0.87470500  0.40921500  1
  Cs  Cs1  1  0.75000000  0.12529500  0.59078500  1
  K  K0  1  0.25000000  0.00356000  0.80973100  1
  K  K1  1  0.75000000  0.99644000  0.19026900  1
  K  K2  1  0.25000000  0.30428600  0.08089500  1
  K  K3  1  0.75000000  0.69571400  0.91910500  1
  La  La0  1  0.25000000  0.50572900  0.71151600  1
  La  La1  1  0.75000000  0.49427100  0.28848400  1
  V  V0  1  0.25000000  0.73483200  0.08384000  1
  V  V1  1  0.75000000  0.26516800  0.91616000  1
  V  V2  1  0.25000000  0.31357500  0.42213800  1
  V  V3  1  0.75000000  0.68642500  0.57786200  1
  O  O0  1  0.25000000  0.95020200  0.09022800  1
  O  O1  1  0.75000000  0.04979800  0.90977200  1
  O  O2  1  0.25000000  0.52446900  0.45423700  1
  O  O3  1  0.75000000  0.47553100  0.54576300  1
  O  O4  1  0.25000000  0.67282000  0.92058300  1
  O  O5  1  0.75000000  0.32718000  0.07941700  1
  O  O6  1  0.48800800  0.65740300  0.16226900  1
  O  O7  1  0.51199200  0.34259700  0.83773100  1
  O  O8  1  0.98800800  0.34259700  0.83773100  1
  O  O9  1  0.01199200  0.65740300  0.16226900  1
  O  O10  1  0.48620300  0.26088500  0.33357100  1
  O  O11  1  0.51379700  0.73911500  0.66642900  1
  O  O12  1  0.98620300  0.73911500  0.66642900  1
  O  O13  1  0.01379700  0.26088500  0.33357100  1
  O  O14  1  0.25000000  0.22281200  0.57955000  1
  O  O15  1  0.75000000  0.77718800  0.42045000  1
loop_
_geom_bond_atom_site_label_1
_geom_bond_atom_site_label_2
_geom_bond_distance
_geom_bond_site_symmetry_2
Cs0 O2 2.818223 1_555
Cs0 O15 3.147136 1_555
Cs0 O15 3.147136 1_455
Cs0 O11 3.244581 1_555
Cs0 O12 3.244581 1_455
Cs0 O0 3.297895 1_555
Cs0 O14 3.301365 1_565
Cs0 O6 3.409098 1_555
Cs0 O9 3.409098 1_555
Cs0 O13 3.469380 1_565
Cs0 O10 3.469380 1_565
Cs1 O3 2.818223 1_555
Cs1 O14 3.147136 1_655
Cs1 O14 3.147136 1_555
Cs1 O10 3.244581 1_555
Cs1 O13 3.244581 1_655
Cs1 O1 3.297895 1_555
Cs1 O15 3.301365 1_545
Cs1 O8 3.409098 1_555
Cs1 O7 3.409098 1_555
Cs1 O11 3.469380 1_545
Cs1 O12 3.469380 1_545
K0 O4 2.846220 1_545
K0 O0 2.884884 1_546
K0 O14 2.898723 1_555
K0 O11 3.046740 1_545
K0 O12 3.046740 1_445
K0 O8 3.155265 1_455
K0 O7 3.155265 1_555
K0 O1 3.237884 1_555
K0 O1 3.237884 1_455
K1 O5 2.846220 1_565
K1 O1 2.884884 1_564
K1 O15 2.898723 1_555
K1 O10 3.046740 1_565
K1 O13 3.046740 1_665
K1 O9 3.155265 1_655
K1 O6 3.155265 1_555
K1 O0 3.237884 1_555
K1 O0 3.237884 1_655
K2 O0 2.820022 1_545
K2 O7 2.961294 1_554
K2 O8 2.961294 1_454
K2 O13 2.967117 1_555
K2 O10 2.967117 1_555
K2 O5 3.053673 1_555
K2 O5 3.053673 1_455
K2 O6 3.286019 1_555
K2 O9 3.286019 1_555
K2 O4 3.331901 1_554
K3 O1 2.820022 1_565
K3 O9 2.961294 1_656
K3 O6 2.961294 1_556
K3 O11 2.967117 1_555
K3 O12 2.967117 1_555
K3 O4 3.053673 1_555
K3 O4 3.053673 1_655
K3 O7 3.286019 1_555
K3 O8 3.286019 1_555
K3 O5 3.331901 1_556
La0 O8 2.414825 1_455
La0 O7 2.414825 1_555
La0 O12 2.493935 1_455
La0 O11 2.493935 1_555
La0 O4 2.536472 1_555
La0 O2 2.626238 1_555
La0 O14 2.647849 1_555
La1 O6 2.414825 1_555
La1 O9 2.414825 1_655
La1 O10 2.493935 1_555
La1 O13 2.493935 1_655
La1 O5 2.536472 1_555
La1 O3 2.626238 1_555
La1 O15 2.647849 1_555
O0 V0 1.717963 1_555
O1 V1 1.717963 1_555
O2 V2 1.717768 1_555
O3 V3 1.717768 1_555
O4 V0 1.746717 1_556
O5 V1 1.746717 1_554
O6 V0 1.762523 1_555
O7 V1 1.762523 1_555
O8 V1 1.762523 1_555
O9 V0 1.762523 1_555
O10 V2 1.755354 1_555
O11 V3 1.755354 1_555
O12 V3 1.755354 1_555
O13 V2 1.755354 1_555
O14 V2 1.748134 1_555
O15 V3 1.748134 1_555
