# generated using pymatgen
data_CsYb(MoO4)2
_symmetry_space_group_name_H-M   'P 1'
_cell_length_a   7.69855374
_cell_length_b   7.69855374
_cell_length_c   7.77177118
_cell_angle_alpha   62.56581496
_cell_angle_beta   62.56581496
_cell_angle_gamma   89.55768980
_symmetry_Int_Tables_number   1
_chemical_formula_structural   CsYb(MoO4)2
_chemical_formula_sum   'Cs2 Yb2 Mo4 O16'
_cell_volume   350.39305977
_cell_formula_units_Z   2
loop_
 _symmetry_equiv_pos_site_id
 _symmetry_equiv_pos_as_xyz
  1  'x, y, z'
loop_
 _atom_site_type_symbol
 _atom_site_label
 _atom_site_symmetry_multiplicity
 _atom_site_fract_x
 _atom_site_fract_y
 _atom_site_fract_z
 _atom_site_occupancy
  Cs  Cs0  1  0.19683500  0.80316500  0.75000000  1
  Cs  Cs1  1  0.80316500  0.19683500  0.25000000  1
  Yb  Yb0  1  0.77038600  0.22961400  0.75000000  1
  Yb  Yb1  1  0.22961400  0.77038600  0.25000000  1
  Mo  Mo0  1  0.69658500  0.69245200  0.76563000  1
  Mo  Mo1  1  0.30341500  0.30754800  0.23437000  1
  Mo  Mo2  1  0.30754800  0.30341500  0.73437000  1
  Mo  Mo3  1  0.69245200  0.69658500  0.26563000  1
  O  O0  1  0.61847900  0.75626500  0.56283900  1
  O  O1  1  0.38152100  0.24373500  0.43716100  1
  O  O2  1  0.24373500  0.38152100  0.93716100  1
  O  O3  1  0.75626500  0.61847900  0.06283900  1
  O  O4  1  0.38241800  0.07341600  0.86651800  1
  O  O5  1  0.61758200  0.92658400  0.13348200  1
  O  O6  1  0.92658400  0.61758200  0.63348200  1
  O  O7  1  0.07341600  0.38241800  0.36651800  1
  O  O8  1  0.58105400  0.37226100  0.96786100  1
  O  O9  1  0.41894600  0.62773900  0.03213900  1
  O  O10  1  0.62773900  0.41894600  0.53213900  1
  O  O11  1  0.37226100  0.58105400  0.46786100  1
  O  O12  1  0.78428700  0.94322900  0.70285500  1
  O  O13  1  0.21571300  0.05677100  0.29714500  1
  O  O14  1  0.05677100  0.21571300  0.79714500  1
  O  O15  1  0.94322900  0.78428700  0.20285500  1
loop_
_geom_bond_atom_site_label_1
_geom_bond_atom_site_label_2
_geom_bond_distance
_geom_bond_site_symmetry_2
Cs0 O1 2.954180 1_565
Cs0 O3 2.954180 1_456
Cs0 O2 2.982961 1_555
Cs0 O0 2.982961 1_555
Cs0 O15 3.069376 1_456
Cs0 O13 3.069376 1_565
Cs0 O4 3.188109 1_565
Cs0 O6 3.188109 1_455
Cs0 O9 3.200991 1_556
Cs0 O11 3.200991 1_555
Cs0 O12 3.469791 1_455
Cs0 O14 3.469791 1_565
Cs1 O2 2.954180 1_654
Cs1 O0 2.954180 1_545
Cs1 O1 2.982961 1_555
Cs1 O3 2.982961 1_555
Cs1 O12 3.069376 1_545
Cs1 O14 3.069376 1_654
Cs1 O7 3.188109 1_655
Cs1 O5 3.188109 1_545
Cs1 O10 3.200991 1_555
Cs1 O8 3.200991 1_554
Cs1 O15 3.469791 1_545
Cs1 O13 3.469791 1_655
Mo0 O0 1.800574 1_555
Mo0 O12 1.808274 1_555
Mo0 O6 1.837464 1_555
Mo0 O9 2.023119 1_556
Mo0 O8 2.124464 1_555
Mo0 O3 2.373295 1_556
Mo1 O1 1.800574 1_555
Mo1 O13 1.808274 1_555
Mo1 O7 1.837464 1_555
Mo1 O8 2.023119 1_554
Mo1 O9 2.124464 1_555
Mo1 O2 2.373295 1_554
Mo2 O2 1.800574 1_555
Mo2 O14 1.808274 1_555
Mo2 O4 1.837464 1_555
Mo2 O11 2.023119 1_555
Mo2 O10 2.124464 1_555
Mo2 O1 2.373295 1_555
Mo3 O3 1.800574 1_555
Mo3 O15 1.808274 1_555
Mo3 O5 1.837464 1_555
Mo3 O10 2.023119 1_555
Mo3 O11 2.124464 1_555
Mo3 O0 2.373295 1_555
O4 Yb1 2.472583 1_546
O4 Yb0 2.783298 1_555
O5 Yb0 2.472583 1_564
O5 Yb1 2.783298 1_555
O6 Yb1 2.472583 1_655
O6 Yb0 2.783298 1_555
O7 Yb0 2.472583 1_455
O7 Yb1 2.783298 1_555
O8 Yb0 2.368943 1_555
O9 Yb1 2.368943 1_555
O10 Yb0 2.368943 1_555
O11 Yb1 2.368943 1_555
O12 Yb0 2.389817 1_565
O13 Yb1 2.389817 1_545
O14 Yb0 2.389817 1_455
O15 Yb1 2.389817 1_655
