# generated using pymatgen
data_BaMg6Ga
_symmetry_space_group_name_H-M   'P 1'
_cell_length_a   5.07655000
_cell_length_b   7.08235800
_cell_length_c   11.92813500
_cell_angle_alpha   90.00000000
_cell_angle_beta   90.00000000
_cell_angle_gamma   90.00000000
_symmetry_Int_Tables_number   1
_chemical_formula_structural   BaMg6Ga
_chemical_formula_sum   'Ba2 Mg12 Ga2'
_cell_volume   428.86350384
_cell_formula_units_Z   2
loop_
 _symmetry_equiv_pos_site_id
 _symmetry_equiv_pos_as_xyz
  1  'x, y, z'
loop_
 _atom_site_type_symbol
 _atom_site_label
 _atom_site_symmetry_multiplicity
 _atom_site_fract_x
 _atom_site_fract_y
 _atom_site_fract_z
 _atom_site_occupancy
  Ba  Ba0  1  0.00000000  0.50000000  0.32852600  1
  Ba  Ba1  1  0.00000000  0.00000000  0.82852600  1
  Mg  Mg0  1  0.00000000  0.26418700  0.07979700  1
  Mg  Mg1  1  0.00000000  0.73581300  0.07979700  1
  Mg  Mg2  1  0.00000000  0.50000000  0.83732700  1
  Mg  Mg3  1  0.50000000  0.28371100  0.92917000  1
  Mg  Mg4  1  0.50000000  0.71628900  0.92917000  1
  Mg  Mg5  1  0.50000000  0.50000000  0.66633400  1
  Mg  Mg6  1  0.00000000  0.76418700  0.57979700  1
  Mg  Mg7  1  0.00000000  0.23581300  0.57979700  1
  Mg  Mg8  1  0.00000000  0.00000000  0.33732700  1
  Mg  Mg9  1  0.50000000  0.78371100  0.42917000  1
  Mg  Mg10  1  0.50000000  0.21628900  0.42917000  1
  Mg  Mg11  1  0.50000000  0.00000000  0.16633400  1
  Ga  Ga0  1  0.50000000  0.50000000  0.14988000  1
  Ga  Ga1  1  0.50000000  0.00000000  0.64988000  1
loop_
_geom_bond_atom_site_label_1
_geom_bond_atom_site_label_2
_geom_bond_distance
_geom_bond_site_symmetry_2
Ba0 Ga0 3.314156 1_455
Ba0 Ga0 3.314156 1_555
Ba0 Mg1 3.404645 1_555
Ba0 Mg0 3.404645 1_555
Ba0 Mg9 3.452751 1_555
Ba0 Mg9 3.452751 1_455
Ba0 Mg10 3.452751 1_555
Ba0 Mg10 3.452751 1_455
Ba0 Mg6 3.533280 1_555
Ba0 Mg7 3.533280 1_555
Ba0 Mg8 3.542735 1_565
Ba0 Mg8 3.542735 1_555
Ba1 Ga1 3.314156 1_555
Ba1 Ga1 3.314156 1_455
Ba1 Mg6 3.404645 1_545
Ba1 Mg7 3.404645 1_555
Ba1 Mg3 3.452751 1_555
Ba1 Mg4 3.452751 1_545
Ba1 Mg3 3.452751 1_455
Ba1 Mg4 3.452751 1_445
Ba1 Mg0 3.533280 1_556
Ba1 Mg1 3.533280 1_546
Ba1 Mg2 3.542735 1_545
Ba1 Mg2 3.542735 1_555
Mg0 Mg3 3.112891 1_454
Mg0 Mg3 3.112891 1_554
Mg0 Mg11 3.318014 1_555
Mg0 Mg11 3.318014 1_455
Mg0 Mg2 3.339788 1_554
Mg0 Mg1 3.340224 1_555
Mg1 Mg4 3.112891 1_554
Mg1 Mg4 3.112891 1_454
Mg1 Mg11 3.318014 1_465
Mg1 Mg11 3.318014 1_565
Mg1 Mg2 3.339788 1_554
Mg2 Mg4 3.160620 1_455
Mg2 Mg4 3.160620 1_555
Mg2 Mg3 3.160620 1_555
Mg2 Mg3 3.160620 1_455
Mg2 Mg5 3.256213 1_455
Mg2 Mg5 3.256213 1_555
Mg3 Mg4 3.063672 1_555
Mg3 Mg5 3.489362 1_555
Mg4 Mg5 3.489362 1_555
Mg5 Mg6 3.318014 1_655
Mg5 Mg6 3.318014 1_555
Mg5 Mg7 3.318014 1_555
Mg5 Mg7 3.318014 1_655
Mg5 Mg9 3.469909 1_555
Mg6 Mg9 3.112891 1_555
Mg6 Mg9 3.112891 1_455
Mg6 Mg8 3.339788 1_565
Mg6 Mg7 3.340224 1_565
Mg7 Mg8 3.339788 1_555
Mg8 Mg9 3.160620 1_545
Mg8 Mg9 3.160620 1_445
Mg10 Mg9 3.063672 1_545
Mg10 Mg7 3.112891 1_555
Mg10 Mg7 3.112891 1_655
Mg10 Mg8 3.160620 1_555
Mg10 Mg8 3.160620 1_655
Mg10 Mg5 3.469909 1_555
Mg10 Mg11 3.489362 1_555
Mg11 Mg8 3.256213 1_655
Mg11 Mg8 3.256213 1_555
Mg11 Mg3 3.469909 1_554
Mg11 Mg4 3.469909 1_544
Mg11 Mg9 3.489362 1_545
Ga0 Mg4 3.045885 1_554
Ga0 Mg3 3.045885 1_554
Ga0 Mg1 3.151340 1_555
Ga0 Mg1 3.151340 1_655
Ga0 Mg0 3.151340 1_555
Ga0 Mg0 3.151340 1_655
Ga1 Mg10 3.045885 1_555
Ga1 Mg9 3.045885 1_545
Ga1 Mg7 3.151340 1_655
Ga1 Mg7 3.151340 1_555
Ga1 Mg6 3.151340 1_645
Ga1 Mg6 3.151340 1_545
