# generated using pymatgen
data_Mg(MoO2)2
_symmetry_space_group_name_H-M   'P 1'
_cell_length_a   5.40579173
_cell_length_b   5.40579173
_cell_length_c   10.33654700
_cell_angle_alpha   90.00000000
_cell_angle_beta   90.00000000
_cell_angle_gamma   146.47460789
_symmetry_Int_Tables_number   1
_chemical_formula_structural   Mg(MoO2)2
_chemical_formula_sum   'Mg2 Mo4 O8'
_cell_volume   166.83003811
_cell_formula_units_Z   2
loop_
 _symmetry_equiv_pos_site_id
 _symmetry_equiv_pos_as_xyz
  1  'x, y, z'
loop_
 _atom_site_type_symbol
 _atom_site_label
 _atom_site_symmetry_multiplicity
 _atom_site_fract_x
 _atom_site_fract_y
 _atom_site_fract_z
 _atom_site_occupancy
  Mg  Mg0  1  0.60795700  0.39204300  0.75000000  1
  Mg  Mg1  1  0.39204300  0.60795700  0.25000000  1
  Mo  Mo0  1  0.13235600  0.86764400  0.07377400  1
  Mo  Mo1  1  0.86764400  0.13235600  0.92622600  1
  Mo  Mo2  1  0.13235600  0.86764400  0.42622600  1
  Mo  Mo3  1  0.86764400  0.13235600  0.57377400  1
  O  O0  1  0.77160700  0.22839300  0.38364300  1
  O  O1  1  0.22839300  0.77160700  0.61635700  1
  O  O2  1  0.22839300  0.77160700  0.88364300  1
  O  O3  1  0.77160700  0.22839300  0.11635700  1
  O  O4  1  0.02280200  0.97719800  0.25000000  1
  O  O5  1  0.97719800  0.02280200  0.75000000  1
  O  O6  1  0.50000000  0.50000000  0.00000000  1
  O  O7  1  0.50000000  0.50000000  0.50000000  1
loop_
_geom_bond_atom_site_label_1
_geom_bond_atom_site_label_2
_geom_bond_distance
_geom_bond_site_symmetry_2
Mg0 O5 2.064717 1_455
Mg0 O5 2.064717 1_565
Mg0 O1 2.427643 1_655
Mg0 O1 2.427643 1_545
Mg0 O2 2.427643 1_655
Mg0 O2 2.427643 1_545
Mg1 O4 2.064717 1_545
Mg1 O4 2.064717 1_655
Mg1 O0 2.427643 1_565
Mg1 O0 2.427643 1_455
Mg1 O3 2.427643 1_455
Mg1 O3 2.427643 1_565
Mo0 O4 2.145773 1_555
Mo0 O3 2.168531 1_565
Mo0 O3 2.168531 1_455
Mo0 O2 2.202456 1_554
Mo0 O6 2.211244 1_455
Mo0 O6 2.211244 1_565
Mo1 O5 2.145773 1_555
Mo1 O2 2.168531 1_655
Mo1 O2 2.168531 1_545
Mo1 O3 2.202456 1_556
Mo1 O6 2.211244 1_656
Mo1 O6 2.211244 1_546
Mo2 O4 2.145773 1_555
Mo2 O0 2.168531 1_565
Mo2 O0 2.168531 1_455
Mo2 O1 2.202456 1_555
Mo2 O7 2.211244 1_455
Mo2 O7 2.211244 1_565
Mo3 O5 2.145773 1_555
Mo3 O1 2.168531 1_655
Mo3 O1 2.168531 1_545
Mo3 O0 2.202456 1_555
Mo3 O7 2.211244 1_545
Mo3 O7 2.211244 1_655
