# generated using pymatgen
data_Mo3Pt
_symmetry_space_group_name_H-M   'P 1'
_cell_length_a   3.97398400
_cell_length_b   3.97398400
_cell_length_c   3.97398400
_cell_angle_alpha   90.00000000
_cell_angle_beta   90.00000000
_cell_angle_gamma   90.00000000
_symmetry_Int_Tables_number   1
_chemical_formula_structural   Mo3Pt
_chemical_formula_sum   'Mo3 Pt1'
_cell_volume   62.75933638
_cell_formula_units_Z   1
loop_
 _symmetry_equiv_pos_site_id
 _symmetry_equiv_pos_as_xyz
  1  'x, y, z'
loop_
 _atom_site_type_symbol
 _atom_site_label
 _atom_site_symmetry_multiplicity
 _atom_site_fract_x
 _atom_site_fract_y
 _atom_site_fract_z
 _atom_site_occupancy
  Mo  Mo0  1  0.00000000  0.50000000  0.50000000  1
  Mo  Mo1  1  0.50000000  0.00000000  0.50000000  1
  Mo  Mo2  1  0.50000000  0.50000000  0.00000000  1
  Pt  Pt0  1  0.00000000  0.00000000  0.00000000  1
loop_
_geom_bond_atom_site_label_1
_geom_bond_atom_site_label_2
_geom_bond_distance
_geom_bond_site_symmetry_2
Mo0 Mo1 2.810031 1_465
Mo0 Mo1 2.810031 1_555
Mo0 Mo2 2.810031 1_556
Mo0 Pt0 2.810031 1_555
Mo0 Mo2 2.810031 1_455
Mo0 Mo2 2.810031 1_555
Mo0 Mo1 2.810031 1_565
Mo0 Pt0 2.810031 1_566
Mo0 Pt0 2.810031 1_556
Mo0 Mo1 2.810031 1_455
Mo0 Mo2 2.810031 1_456
Mo0 Pt0 2.810031 1_565
Mo1 Mo2 2.810031 1_546
Mo1 Mo2 2.810031 1_545
Mo1 Mo2 2.810031 1_555
Mo1 Pt0 2.810031 1_655
Mo1 Pt0 2.810031 1_555
Mo1 Pt0 2.810031 1_556
Mo1 Mo2 2.810031 1_556
Mo1 Pt0 2.810031 1_656
Mo2 Pt0 2.810031 1_665
Mo2 Pt0 2.810031 1_565
Mo2 Pt0 2.810031 1_555
Mo2 Pt0 2.810031 1_655
