# generated using pymatgen
data_SmFe10Mo2N
_symmetry_space_group_name_H-M   'P 1'
_cell_length_a   4.81821100
_cell_length_b   6.57702219
_cell_length_c   6.57702219
_cell_angle_alpha   98.21297369
_cell_angle_beta   111.48707307
_cell_angle_gamma   68.51292693
_symmetry_Int_Tables_number   1
_chemical_formula_structural   SmFe10Mo2N
_chemical_formula_sum   'Sm1 Fe10 Mo2 N1'
_cell_volume   180.44944797
_cell_formula_units_Z   1
loop_
 _symmetry_equiv_pos_site_id
 _symmetry_equiv_pos_as_xyz
  1  'x, y, z'
loop_
 _atom_site_type_symbol
 _atom_site_label
 _atom_site_symmetry_multiplicity
 _atom_site_fract_x
 _atom_site_fract_y
 _atom_site_fract_z
 _atom_site_occupancy
  Sm  Sm0  1  0.00000000  0.00000000  0.00000000  1
  Fe  Fe0  1  0.72021900  0.77978100  0.22021900  1
  Fe  Fe1  1  0.27978100  0.22021900  0.77978100  1
  Fe  Fe2  1  0.50000000  0.77751500  0.77751500  1
  Fe  Fe3  1  0.50000000  0.22248500  0.22248500  1
  Fe  Fe4  1  0.50000000  0.00000000  0.50000000  1
  Fe  Fe5  1  0.00000000  0.00000000  0.50000000  1
  Fe  Fe6  1  0.50000000  0.50000000  0.00000000  1
  Fe  Fe7  1  0.00000000  0.50000000  0.00000000  1
  Fe  Fe8  1  0.63889100  0.36110900  0.63889100  1
  Fe  Fe9  1  0.36110900  0.63889100  0.36110900  1
  Mo  Mo0  1  0.00000000  0.35985800  0.35985800  1
  Mo  Mo1  1  0.00000000  0.64014200  0.64014200  1
  N  N0  1  0.50000000  0.00000000  0.00000000  1
loop_
_geom_bond_atom_site_label_1
_geom_bond_atom_site_label_2
_geom_bond_distance
_geom_bond_site_symmetry_2
Fe0 N0 1.915502 1_565
Fe0 Fe7 2.480478 1_655
Fe0 Fe5 2.480478 1_665
Fe0 Fe6 2.480478 1_555
Fe0 Fe4 2.480478 1_565
Fe0 Fe9 2.702888 1_655
Fe0 Fe9 2.702888 1_555
Fe0 Mo1 2.716380 1_655
Fe0 Mo0 2.716380 1_655
Fe1 N0 1.915502 1_556
Fe1 Fe5 2.480478 1_555
Fe1 Fe7 2.480478 1_556
Fe1 Fe4 2.480478 1_555
Fe1 Fe6 2.480478 1_556
Fe1 Fe8 2.702888 1_455
Fe1 Fe8 2.702888 1_555
Fe1 Mo1 2.716380 1_555
Fe1 Mo0 2.716380 1_555
Fe2 N0 1.915899 1_566
Fe2 Fe5 2.497143 1_565
Fe2 Fe7 2.497143 1_656
Fe2 Fe4 2.497143 1_565
Fe2 Fe6 2.497143 1_556
Fe2 Fe9 2.677790 1_555
Fe2 Fe8 2.677790 1_555
Fe2 Mo1 2.683879 1_555
Fe2 Mo1 2.683879 1_655
Fe3 N0 1.915899 1_555
Fe3 Fe5 2.497143 1_655
Fe3 Fe7 2.497143 1_555
Fe3 Fe4 2.497143 1_555
Fe3 Fe6 2.497143 1_555
Fe3 Fe8 2.677790 1_555
Fe3 Fe9 2.677790 1_555
Fe3 Mo0 2.683879 1_655
Fe3 Mo0 2.683879 1_555
Fe4 Fe5 2.409105 1_655
Fe4 Fe5 2.409105 1_555
Fe4 Fe8 2.649469 1_555
Fe4 Fe9 2.649469 1_545
Fe4 Mo1 2.659802 1_645
Fe4 Mo0 2.659802 1_555
Fe4 Sm0 3.288511 1_656
Fe4 Sm0 3.288511 1_555
Fe5 Fe8 2.649469 1_455
Fe5 Fe9 2.649469 1_545
Fe5 Mo0 2.659802 1_555
Fe5 Mo1 2.659802 1_545
Fe5 Sm0 3.288511 1_556
Fe5 Sm0 3.288511 1_555
Fe6 Fe7 2.409105 1_655
Fe6 Fe7 2.409105 1_555
Fe6 Fe9 2.649469 1_555
Fe6 Fe8 2.649469 1_554
Fe6 Mo1 2.659802 1_554
Fe6 Mo0 2.659802 1_655
Fe6 Sm0 3.288511 1_655
Fe6 Sm0 3.288511 1_565
Fe7 Fe9 2.649469 1_555
Fe7 Fe8 2.649469 1_454
Fe7 Mo1 2.659802 1_554
Fe7 Mo0 2.659802 1_555
Fe7 Sm0 3.288511 1_565
Fe7 Sm0 3.288511 1_555
Fe8 Fe9 2.416195 1_555
Fe8 Mo0 2.952912 1_555
Fe8 Mo1 2.952912 1_555
Fe8 Mo0 2.952912 1_655
Fe8 Mo1 2.952912 1_655
Fe8 Sm0 3.140987 1_656
Fe9 Mo0 2.952912 1_655
Fe9 Mo1 2.952912 1_655
Fe9 Mo0 2.952912 1_555
Fe9 Mo1 2.952912 1_555
Fe9 Sm0 3.140987 1_565
Mo0 Mo1 2.413628 1_555
Mo0 Sm0 3.098868 1_555
Mo1 Sm0 3.098868 1_566
N0 Sm0 2.409105 1_555
N0 Sm0 2.409105 1_655
