# generated using pymatgen
data_MgCd4Cu4As4(HO5)4
_symmetry_space_group_name_H-M   'P 1'
_cell_length_a   6.24197960
_cell_length_b   7.98887467
_cell_length_c   9.28070393
_cell_angle_alpha   94.94886180
_cell_angle_beta   90.62458362
_cell_angle_gamma   85.99026124
_symmetry_Int_Tables_number   1
_chemical_formula_structural   MgCd4Cu4As4(HO5)4
_chemical_formula_sum   'Mg1 Cd4 Cu4 As4 H4 O20'
_cell_volume   459.93583305
_cell_formula_units_Z   1
loop_
 _symmetry_equiv_pos_site_id
 _symmetry_equiv_pos_as_xyz
  1  'x, y, z'
loop_
 _atom_site_type_symbol
 _atom_site_label
 _atom_site_symmetry_multiplicity
 _atom_site_fract_x
 _atom_site_fract_y
 _atom_site_fract_z
 _atom_site_occupancy
  Mg  Mg0  1  0.59387051  0.27724916  0.03272914  1
  Cd  Cd0  1  0.37324794  0.61149040  0.33038822  1
  Cd  Cd1  1  0.20535668  0.08403729  0.20457453  1
  Cd  Cd2  1  0.73874782  0.44919139  0.67290479  1
  Cd  Cd3  1  0.78169006  0.88156605  0.81217334  1
  Cu  Cu0  1  0.38821226  0.67213983  0.95991497  1
  Cu  Cu1  1  0.00311382  0.00886453  0.51284100  1
  Cu  Cu2  1  0.00517540  0.48022358  0.01695232  1
  Cu  Cu3  1  0.49817049  0.00022055  0.51522802  1
  As  As0  1  0.22886262  0.62855414  0.63954385  1
  As  As1  1  0.25912886  0.08190379  0.86050030  1
  As  As2  1  0.77435643  0.36037540  0.34693706  1
  As  As3  1  0.72304159  0.87669924  0.15116063  1
  H  H0  1  0.11501788  0.72915851  0.14815318  1
  H  H1  1  0.24110080  0.24621053  0.48460935  1
  H  H2  1  0.88464335  0.24840242  0.85292653  1
  H  H3  1  0.77792595  0.76894640  0.50680337  1
  O  O0  1  0.54295009  0.34590698  0.24009209  1
  O  O1  1  0.96188225  0.88181385  0.24506993  1
  O  O2  1  0.00147686  0.63518897  0.74569928  1
  O  O3  1  0.47831890  0.05109634  0.74809591  1
  O  O4  1  0.45598787  0.63015521  0.75378741  1
  O  O5  1  0.01930260  0.09107174  0.76553262  1
  O  O6  1  0.98245277  0.32802368  0.22615335  1
  O  O7  1  0.50618497  0.88757446  0.26806679  1
  O  O8  1  0.25975454  0.45362001  0.51992409  1
  O  O9  1  0.24264045  0.93125565  0.98226679  1
  O  O10  1  0.72861997  0.55972431  0.43680683  1
  O  O11  1  0.70933631  0.03902485  0.03759236  1
  O  O12  1  0.23324843  0.79388988  0.52923168  1
  O  O13  1  0.28614411  0.26856583  0.97054008  1
  O  O14  1  0.78363724  0.23093554  0.48953143  1
  O  O15  1  0.72143742  0.69842717  0.02756399  1
  O  O16  1  0.20562135  0.62338745  0.11710315  1
  O  O17  1  0.24588463  0.12348069  0.45107456  1
  O  O18  1  0.80002849  0.35396377  0.89458900  1
  O  O19  1  0.76426131  0.88194639  0.56008105  1
loop_
_geom_bond_atom_site_label_1
_geom_bond_atom_site_label_2
_geom_bond_distance
_geom_bond_site_symmetry_2
Mg0 O0 1.977956 1_555
Mg0 O18 1.989218 1_554
Mg0 O11 1.991415 1_555
Mg0 O13 2.003756 1_554
Cd0 O16 2.235036 1_555
Cd0 O12 2.384458 1_555
Cd0 O8 2.391979 1_555
Cd0 O0 2.392544 1_555
Cd0 O10 2.441596 1_555
Cd0 O7 2.524733 1_555
Cd1 O17 2.295863 1_555
Cd1 O6 2.309703 1_455
Cd1 O9 2.310164 1_544
Cd1 O1 2.349779 1_445
Cd1 O7 2.461681 1_545
Cd2 O18 2.273785 1_555
Cd2 O4 2.292046 1_555
Cd2 O14 2.333465 1_555
Cd2 O2 2.344615 1_655
Cd2 O10 2.430619 1_555
Cd3 O19 2.341191 1_555
Cd3 O3 2.351494 1_565
Cd3 O2 2.359690 1_655
Cd3 O11 2.376993 1_566
Cd3 O5 2.382153 1_665
Cd3 O15 2.622191 1_556
Cu0 O16 1.942982 1_556
Cu0 O4 1.959125 1_555
Cu0 O15 2.185058 1_556
Cu0 O9 2.195617 1_555
Cu1 O19 1.935317 1_445
Cu1 O17 1.940856 1_555
Cu1 O12 2.175185 1_545
Cu1 O14 2.188809 1_455
Cu1 O5 2.383205 1_555
Cu1 O1 2.619081 1_445
Cu2 O16 1.931015 1_555
Cu2 O18 1.974359 1_454
Cu2 O13 2.365712 1_554
Cu2 O6 2.388623 1_455
Cu2 O15 2.393242 1_455
Cu3 O19 1.912610 1_545
Cu3 O17 1.915168 1_555
Cu3 O3 2.167598 1_555
Cu3 O7 2.390410 1_545
Cu3 O12 2.427204 1_545
Cu3 O14 2.678356 1_555
As0 O8 1.709388 1_555
As0 O2 1.731732 1_555
As0 O12 1.741400 1_555
As0 O4 1.761149 1_555
As1 O3 1.720600 1_555
As1 O5 1.729217 1_555
As1 O9 1.729341 1_545
As1 O13 1.750365 1_555
As2 O6 1.716211 1_555
As2 O10 1.739503 1_555
As2 O14 1.746441 1_555
As2 O0 1.747959 1_555
As3 O1 1.719856 1_555
As3 O7 1.736748 1_555
As3 O11 1.737311 1_565
As3 O15 1.750448 1_555
H0 O16 1.005784 1_555
H0 O1 1.696011 1_455
H1 O17 1.001270 1_555
H1 O8 1.673013 1_555
H2 O18 1.012692 1_555
H2 O5 1.623381 1_655
H3 O19 0.989870 1_555
H3 O10 1.786256 1_555
