# generated using pymatgen
data_LaAl4Co
_symmetry_space_group_name_H-M   'P 1'
_cell_length_a   4.03607436
_cell_length_b   7.00463350
_cell_length_c   7.65665564
_cell_angle_alpha   90.00000000
_cell_angle_beta   90.00000000
_cell_angle_gamma   90.00000000
_symmetry_Int_Tables_number   1
_chemical_formula_structural   LaAl4Co
_chemical_formula_sum   'La2 Al8 Co2'
_cell_volume   216.46300885
_cell_formula_units_Z   2
loop_
 _symmetry_equiv_pos_site_id
 _symmetry_equiv_pos_as_xyz
  1  'x, y, z'
loop_
 _atom_site_type_symbol
 _atom_site_label
 _atom_site_symmetry_multiplicity
 _atom_site_fract_x
 _atom_site_fract_y
 _atom_site_fract_z
 _atom_site_occupancy
  La  La0  1  -0.00000000  0.61036053  0.75000000  1
  La  La1  1  -0.00000000  0.38963947  0.25000000  1
  Al  Al0  1  0.00000000  0.00000000  0.50000000  1
  Al  Al1  1  0.00000000  0.00000000  0.00000000  1
  Al  Al2  1  0.50000000  0.95543313  0.75000000  1
  Al  Al3  1  0.50000000  0.04456687  0.25000000  1
  Al  Al4  1  0.50000000  0.71439697  0.07160640  1
  Al  Al5  1  0.50000000  0.28560303  0.92839360  1
  Al  Al6  1  0.50000000  0.71439697  0.42839360  1
  Al  Al7  1  0.50000000  0.28560303  0.57160640  1
  Co  Co0  1  -0.00000000  0.18021847  0.75000000  1
  Co  Co1  1  -0.00000000  0.81978153  0.25000000  1
loop_
_geom_bond_atom_site_label_1
_geom_bond_atom_site_label_2
_geom_bond_distance
_geom_bond_site_symmetry_2
Al0 Co0 2.292943 1_555
Al0 Co1 2.292943 1_545
Al0 Al3 2.798920 1_555
Al0 Al2 2.798920 1_445
Al0 Al2 2.798920 1_545
Al0 Al3 2.798920 1_455
Al0 Al7 2.894002 1_455
Al0 Al7 2.894002 1_555
Al0 Al6 2.894002 1_445
Al0 Al6 2.894002 1_545
Al0 La0 3.333617 1_545
Al0 La1 3.333617 1_555
Al1 Co0 2.292943 1_554
Al1 Co1 2.292943 1_545
Al1 Al3 2.798920 1_555
Al1 Al2 2.798920 1_544
Al1 Al2 2.798920 1_444
Al1 Al3 2.798920 1_455
Al1 Al4 2.894002 1_445
Al1 Al4 2.894002 1_545
Al1 Al5 2.894002 1_454
Al1 Al5 2.894002 1_554
Al1 La1 3.333617 1_555
Al1 La0 3.333617 1_544
Al2 Co0 2.559619 1_665
Al2 Co0 2.559619 1_565
Al2 Al5 2.685954 1_565
Al2 Al7 2.685954 1_565
Al2 Al6 2.985658 1_555
Al2 Al4 2.985658 1_556
Al2 La0 3.148790 1_655
Al2 La0 3.148790 1_555
Al3 Co1 2.559619 1_545
Al3 Co1 2.559619 1_645
Al3 Al6 2.685954 1_545
Al3 Al4 2.685954 1_545
Al3 Al7 2.985658 1_555
Al3 Al5 2.985658 1_554
Al3 La1 3.148790 1_655
Al3 La1 3.148790 1_555
Al4 Co1 2.546186 1_655
Al4 Co1 2.546186 1_555
Al4 Al6 2.731797 1_555
Al4 Al5 3.197446 1_554
Al4 La0 3.266051 1_554
Al4 La0 3.266051 1_654
Al4 La1 3.333602 1_555
Al4 La1 3.333602 1_655
Al5 Co0 2.546186 1_555
Al5 Co0 2.546186 1_655
Al5 Al7 2.731797 1_555
Al5 La1 3.266051 1_656
Al5 La1 3.266051 1_556
Al5 La0 3.333602 1_655
Al5 La0 3.333602 1_555
Al6 Co1 2.546186 1_555
Al6 Co1 2.546186 1_655
Al6 Al7 3.197446 1_555
Al6 La0 3.266051 1_555
Al6 La0 3.266051 1_655
Al6 La1 3.333602 1_555
Al6 La1 3.333602 1_655
Al7 Co0 2.546186 1_555
Al7 Co0 2.546186 1_655
Al7 La1 3.266051 1_555
Al7 La1 3.266051 1_655
Al7 La0 3.333602 1_555
Al7 La0 3.333602 1_655
Co0 La0 3.012987 1_555
Co1 La1 3.012987 1_555
