# generated using pymatgen
data_Mg14VNi
_symmetry_space_group_name_H-M   'P 1'
_cell_length_a   6.22725205
_cell_length_b   6.22725156
_cell_length_c   9.90094357
_cell_angle_alpha   90.00000000
_cell_angle_beta   90.00000000
_cell_angle_gamma   120.00000254
_symmetry_Int_Tables_number   1
_chemical_formula_structural   Mg14VNi
_chemical_formula_sum   'Mg14 V1 Ni1'
_cell_volume   332.50643939
_cell_formula_units_Z   1
loop_
 _symmetry_equiv_pos_site_id
 _symmetry_equiv_pos_as_xyz
  1  'x, y, z'
loop_
 _atom_site_type_symbol
 _atom_site_label
 _atom_site_symmetry_multiplicity
 _atom_site_fract_x
 _atom_site_fract_y
 _atom_site_fract_z
 _atom_site_occupancy
  Mg  Mg0  1  0.16440552  0.83220226  0.12500000  1
  Mg  Mg1  1  0.17070495  0.83535198  0.62500000  1
  Mg  Mg2  1  0.66779774  0.33559448  0.12500000  1
  Mg  Mg3  1  0.66464802  0.32929505  0.62500000  1
  Mg  Mg4  1  0.66779774  0.83220226  0.12500000  1
  Mg  Mg5  1  0.66464802  0.83535198  0.62500000  1
  Mg  Mg6  1  0.32497474  0.17502526  0.36824921  1
  Mg  Mg7  1  0.32497474  0.17502526  0.88175079  1
  Mg  Mg8  1  0.32497474  0.64995047  0.36824921  1
  Mg  Mg9  1  0.32497474  0.64995047  0.88175079  1
  Mg  Mg10  1  0.85004953  0.17502526  0.36824921  1
  Mg  Mg11  1  0.85004953  0.17502526  0.88175079  1
  Mg  Mg12  1  0.83333300  0.66666700  0.37879832  1
  Mg  Mg13  1  0.83333300  0.66666700  0.87120168  1
  V  V0  1  0.16666700  0.33333300  0.62500000  1
  Ni  Ni0  1  0.16666700  0.33333300  0.12500000  1
loop_
_geom_bond_atom_site_label_1
_geom_bond_atom_site_label_2
_geom_bond_distance
_geom_bond_site_symmetry_2
Mg0 Mg9 3.036950 1_554
Mg0 Mg8 3.036950 1_555
Mg0 Mg6 3.036957 1_565
Mg0 Mg7 3.036957 1_564
Mg0 Mg13 3.082572 1_454
Mg0 Mg12 3.082572 1_455
Mg0 Mg2 3.092502 1_455
Mg0 Mg4 3.092502 1_455
Mg0 Ni0 3.113650 1_565
Mg0 Ni0 3.113650 1_555
Mg0 Mg2 3.134750 1_565
Mg0 Mg4 3.134750 1_555
Mg1 Mg12 3.041771 1_455
Mg1 Mg13 3.041771 1_455
Mg1 Mg3 3.075908 1_565
Mg1 Mg5 3.075908 1_555
Mg1 V0 3.113702 1_565
Mg1 V0 3.113702 1_555
Mg1 Mg9 3.134829 1_555
Mg1 Mg8 3.134829 1_555
Mg1 Mg6 3.134836 1_565
Mg1 Mg7 3.134836 1_565
Mg1 Mg3 3.151344 1_455
Mg1 Mg5 3.151344 1_455
Mg2 Mg7 3.036957 1_554
Mg2 Mg6 3.036957 1_555
Mg2 Mg4 3.092502 1_555
Mg2 Ni0 3.113650 1_655
Mg2 Ni0 3.113650 1_555
Mg2 Mg4 3.134750 1_545
Mg3 Mg5 3.075908 1_545
Mg3 V0 3.113702 1_555
Mg3 V0 3.113702 1_655
Mg3 Mg7 3.134836 1_555
Mg3 Mg6 3.134836 1_555
Mg3 Mg5 3.151344 1_555
Mg4 Mg8 3.036956 1_555
Mg4 Mg9 3.036956 1_554
Mg4 Ni0 3.113650 1_665
Mg4 Ni0 3.113650 1_555
Mg5 V0 3.113702 1_555
Mg5 V0 3.113702 1_665
Mg5 Mg8 3.134835 1_555
Mg5 Mg9 3.134835 1_555
Mg6 Ni0 2.952272 1_555
Mg6 Mg8 2.957479 1_555
Mg6 V0 3.062300 1_555
Mg6 Mg8 3.269773 1_545
Mg7 Ni0 2.952272 1_556
Mg7 Mg9 2.957479 1_555
Mg7 V0 3.062300 1_555
Mg7 Mg9 3.269773 1_545
Mg8 Ni0 2.952278 1_555
Mg8 V0 3.062306 1_555
Mg9 Ni0 2.952278 1_556
Mg9 V0 3.062306 1_555
Mg10 Ni0 2.952278 1_655
Mg10 Mg8 2.957479 1_655
Mg10 Mg6 2.957479 1_655
Mg10 Mg2 3.036950 1_555
Mg10 Mg4 3.036956 1_545
Mg10 V0 3.062306 1_655
Mg10 Mg12 3.116681 1_545
Mg10 Mg12 3.116681 1_555
Mg10 Mg3 3.134829 1_555
Mg10 Mg5 3.134835 1_545
Mg10 Mg8 3.269773 1_545
Mg10 Mg6 3.269773 1_555
Mg11 Ni0 2.952278 1_656
Mg11 Mg9 2.957479 1_655
Mg11 Mg7 2.957479 1_655
Mg11 Mg2 3.036950 1_556
Mg11 Mg4 3.036956 1_546
Mg11 V0 3.062306 1_655
Mg11 Mg13 3.116681 1_545
Mg11 Mg13 3.116681 1_555
Mg11 Mg3 3.134829 1_555
Mg11 Mg5 3.134835 1_545
Mg11 Mg9 3.269773 1_545
Mg11 Mg7 3.269773 1_555
Mg12 Mg5 3.041765 1_555
Mg12 Mg3 3.041771 1_555
Mg12 Mg4 3.082565 1_555
Mg12 Mg2 3.082572 1_555
Mg12 Mg6 3.116681 1_665
Mg12 Mg6 3.116681 1_555
Mg12 Mg8 3.116681 1_555
Mg12 Mg8 3.116681 1_655
Mg13 Mg5 3.041765 1_555
Mg13 Mg3 3.041771 1_555
Mg13 Mg4 3.082565 1_556
Mg13 Mg2 3.082572 1_556
Mg13 Mg7 3.116681 1_665
Mg13 Mg7 3.116681 1_555
Mg13 Mg9 3.116681 1_555
Mg13 Mg9 3.116681 1_655
