# generated using pymatgen
data_Mg6ZnSi
_symmetry_space_group_name_H-M   'P 1'
_cell_length_a   4.97884400
_cell_length_b   6.09615700
_cell_length_c   10.70127900
_cell_angle_alpha   90.00000000
_cell_angle_beta   90.00000000
_cell_angle_gamma   90.00000000
_symmetry_Int_Tables_number   1
_chemical_formula_structural   Mg6ZnSi
_chemical_formula_sum   'Mg12 Zn2 Si2'
_cell_volume   324.80323729
_cell_formula_units_Z   2
loop_
 _symmetry_equiv_pos_site_id
 _symmetry_equiv_pos_as_xyz
  1  'x, y, z'
loop_
 _atom_site_type_symbol
 _atom_site_label
 _atom_site_symmetry_multiplicity
 _atom_site_fract_x
 _atom_site_fract_y
 _atom_site_fract_z
 _atom_site_occupancy
  Mg  Mg0  1  0.00000000  0.25696900  0.08923300  1
  Mg  Mg1  1  0.00000000  0.74303100  0.08923300  1
  Mg  Mg2  1  0.00000000  0.00000000  0.33370300  1
  Mg  Mg3  1  0.50000000  0.74367400  0.40948300  1
  Mg  Mg4  1  0.50000000  0.25632600  0.40948300  1
  Mg  Mg5  1  0.50000000  0.00000000  0.16426400  1
  Mg  Mg6  1  0.00000000  0.75696900  0.58923300  1
  Mg  Mg7  1  0.00000000  0.24303100  0.58923300  1
  Mg  Mg8  1  0.00000000  0.50000000  0.83370300  1
  Mg  Mg9  1  0.50000000  0.24367400  0.90948300  1
  Mg  Mg10  1  0.50000000  0.75632600  0.90948300  1
  Mg  Mg11  1  0.50000000  0.50000000  0.66426400  1
  Zn  Zn0  1  0.00000000  0.50000000  0.34632100  1
  Zn  Zn1  1  0.00000000  0.00000000  0.84632100  1
  Si  Si0  1  0.50000000  0.50000000  0.15828000  1
  Si  Si1  1  0.50000000  0.00000000  0.65828000  1
loop_
_geom_bond_atom_site_label_1
_geom_bond_atom_site_label_2
_geom_bond_distance
_geom_bond_site_symmetry_2
Mg0 Mg1 2.963110 1_555
Mg0 Si0 2.989680 1_555
Mg0 Si0 2.989680 1_455
Mg0 Zn1 3.035002 1_554
Mg0 Mg5 3.048920 1_555
Mg0 Mg5 3.048920 1_455
Mg0 Mg2 3.049294 1_555
Mg0 Mg8 3.110062 1_554
Mg0 Zn0 3.124731 1_555
Mg0 Mg1 3.133047 1_545
Mg0 Mg9 3.147039 1_454
Mg0 Mg9 3.147039 1_554
Mg1 Si0 2.989680 1_555
Mg1 Si0 2.989680 1_455
Mg1 Zn1 3.035002 1_564
Mg1 Mg5 3.048920 1_465
Mg1 Mg5 3.048920 1_565
Mg1 Mg2 3.049294 1_565
Mg1 Mg8 3.110062 1_554
Mg1 Zn0 3.124731 1_555
Mg1 Mg10 3.147039 1_554
Mg1 Mg10 3.147039 1_454
Mg2 Mg4 3.049029 1_455
Mg2 Mg4 3.049029 1_555
Mg2 Mg3 3.049029 1_445
Mg2 Mg3 3.049029 1_545
Mg2 Zn0 3.051068 1_545
Mg2 Zn0 3.051068 1_555
Mg2 Mg5 3.079767 1_555
Mg2 Mg5 3.079767 1_455
Mg2 Mg6 3.110062 1_545
Mg2 Mg7 3.110062 1_555
Mg3 Mg4 2.970950 1_555
Mg3 Zn0 2.976696 1_555
Mg3 Zn0 2.976696 1_655
Mg3 Mg5 3.054166 1_565
Mg3 Si0 3.071322 1_555
Mg3 Si1 3.087126 1_565
Mg3 Mg4 3.125207 1_565
Mg3 Mg6 3.147039 1_555
Mg3 Mg6 3.147039 1_655
Mg4 Zn0 2.976696 1_555
Mg4 Zn0 2.976696 1_655
Mg4 Mg5 3.054166 1_555
Mg4 Si0 3.071322 1_555
Mg4 Si1 3.087126 1_555
Mg4 Mg7 3.147039 1_655
Mg4 Mg7 3.147039 1_555
Mg5 Si0 3.048751 1_545
Mg5 Si0 3.048751 1_555
Mg5 Mg9 3.104890 1_554
Mg6 Mg7 2.963110 1_565
Mg6 Si1 2.989680 1_565
Mg6 Si1 2.989680 1_465
Mg6 Zn0 3.035002 1_555
Mg6 Mg8 3.049294 1_555
Mg6 Zn1 3.124731 1_565
Mg6 Mg7 3.133047 1_555
Mg7 Si1 2.989680 1_455
Mg7 Si1 2.989680 1_555
Mg7 Zn0 3.035002 1_555
Mg7 Mg8 3.049294 1_555
Mg7 Zn1 3.124731 1_555
Mg8 Mg9 3.049029 1_555
Mg8 Mg9 3.049029 1_455
Mg8 Zn1 3.051068 1_555
Mg8 Zn1 3.051068 1_565
Mg9 Zn1 2.976696 1_555
Mg9 Zn1 2.976696 1_655
Mg9 Si1 3.071322 1_555
Mg9 Si0 3.087126 1_556
Mg10 Mg9 2.970950 1_565
Mg10 Zn1 2.976696 1_565
Mg10 Zn1 2.976696 1_665
Mg10 Mg8 3.049029 1_655
Mg10 Mg8 3.049029 1_555
Mg10 Mg11 3.054166 1_555
Mg10 Si1 3.071322 1_565
Mg10 Si0 3.087126 1_556
Mg10 Mg5 3.104890 1_566
Mg10 Mg9 3.125207 1_555
Mg11 Si1 3.048751 1_565
Mg11 Si1 3.048751 1_555
Mg11 Mg7 3.048920 1_655
Mg11 Mg6 3.048920 1_555
Mg11 Mg6 3.048920 1_655
Mg11 Mg7 3.048920 1_555
Mg11 Mg9 3.054166 1_555
Mg11 Mg8 3.079767 1_655
Mg11 Mg8 3.079767 1_555
Mg11 Mg3 3.104890 1_555
Mg11 Mg4 3.104890 1_555
