# generated using pymatgen
data_CoH13C2N4O9
_symmetry_space_group_name_H-M   'P 1'
_cell_length_a   7.81651800
_cell_length_b   10.12973700
_cell_length_c   14.07517854
_cell_angle_alpha   90.00000000
_cell_angle_beta   109.00677273
_cell_angle_gamma   90.00000000
_symmetry_Int_Tables_number   1
_chemical_formula_structural   CoH13C2N4O9
_chemical_formula_sum   'Co4 H52 C8 N16 O36'
_cell_volume   1053.70198972
_cell_formula_units_Z   4
loop_
 _symmetry_equiv_pos_site_id
 _symmetry_equiv_pos_as_xyz
  1  'x, y, z'
loop_
 _atom_site_type_symbol
 _atom_site_label
 _atom_site_symmetry_multiplicity
 _atom_site_fract_x
 _atom_site_fract_y
 _atom_site_fract_z
 _atom_site_occupancy
  Co  Co0  1  0.10766900  0.37082500  0.67739700  1
  Co  Co1  1  0.10766900  0.12917500  0.17739700  1
  Co  Co2  1  0.89233100  0.62917500  0.32260300  1
  Co  Co3  1  0.89233100  0.87082500  0.82260300  1
  H  H0  1  0.10680100  0.54438700  0.80211400  1
  H  H1  1  0.10680100  0.95561300  0.30211400  1
  H  H2  1  0.89319900  0.45561300  0.19788600  1
  H  H3  1  0.89319900  0.04438700  0.69788600  1
  H  H4  1  0.30167200  0.46107400  0.84319500  1
  H  H5  1  0.30167200  0.03892600  0.34319500  1
  H  H6  1  0.69832800  0.53892600  0.15680500  1
  H  H7  1  0.69832800  0.96107400  0.65680500  1
  H  H8  1  0.11303600  0.39634100  0.85395900  1
  H  H9  1  0.11303600  0.10365900  0.35395900  1
  H  H10  1  0.88696400  0.60365900  0.14604100  1
  H  H11  1  0.88696400  0.89634100  0.64604100  1
  H  H12  1  0.25615100  0.15271400  0.69809000  1
  H  H13  1  0.25615100  0.34728600  0.19809000  1
  H  H14  1  0.74384900  0.84728600  0.30191000  1
  H  H15  1  0.74384900  0.65271400  0.80191000  1
  H  H16  1  0.33994000  0.23685400  0.80408800  1
  H  H17  1  0.33994000  0.26314600  0.30408800  1
  H  H18  1  0.66006000  0.76314600  0.19591200  1
  H  H19  1  0.66006000  0.73685400  0.69591200  1
  H  H20  1  0.41961600  0.26227800  0.70971300  1
  H  H21  1  0.41961600  0.23772200  0.20971300  1
  H  H22  1  0.58038400  0.73772200  0.29028700  1
  H  H23  1  0.58038400  0.76227800  0.79028700  1
  H  H24  1  0.17163300  0.53856600  0.56923000  1
  H  H25  1  0.17163300  0.96143400  0.06923000  1
  H  H26  1  0.82836700  0.46143400  0.43077000  1
  H  H27  1  0.82836700  0.03856600  0.93077000  1
  H  H28  1  0.27570500  0.58430700  0.68697600  1
  H  H29  1  0.27570500  0.91569300  0.18697600  1
  H  H30  1  0.72429500  0.41569300  0.31302400  1
  H  H31  1  0.72429500  0.08430700  0.81302400  1
  H  H32  1  0.37462600  0.47623200  0.63301700  1
  H  H33  1  0.37462600  0.02376800  0.13301700  1
  H  H34  1  0.62537400  0.52376800  0.36698300  1
  H  H35  1  0.62537400  0.97623200  0.86698300  1
  H  H36  1  0.15006100  0.27178100  0.51924800  1
  H  H37  1  0.15006100  0.22821900  0.01924800  1
  H  H38  1  0.84993900  0.72821900  0.48075200  1
  H  H39  1  0.84993900  0.77178100  0.98075200  1
  H  H40  1  0.94094200  0.23420600  0.51751100  1
  H  H41  1  0.94094200  0.26579400  0.01751100  1
  H  H42  1  0.05905800  0.76579400  0.48248900  1
  H  H43  1  0.05905800  0.73420600  0.98248900  1
  H  H44  1  0.64086200  0.64997200  0.54491800  1
  H  H45  1  0.64086200  0.85002800  0.04491800  1
  H  H46  1  0.35913800  0.35002800  0.45508200  1
  H  H47  1  0.35913800  0.14997200  0.95508200  1
  H  H48  1  0.56178800  0.78420300  0.49231300  1
  H  H49  1  0.56178800  0.71579700  0.99231300  1
  H  H50  1  0.43821200  0.21579700  0.50768700  1
  H  H51  1  0.43821200  0.28420300  0.00768700  1
  C  C0  1  0.75696000  0.43616900  0.64019200  1
  C  C1  1  0.75696000  0.06383100  0.14019200  1
  C  C2  1  0.24304000  0.56383100  0.35980800  1
  C  C3  1  0.24304000  0.93616900  0.85980800  1
  C  C4  1  0.78298400  0.29829500  0.69060500  1
  C  C5  1  0.78298400  0.20170500  0.19060500  1
  C  C6  1  0.21701600  0.70170500  0.30939500  1
  C  C7  1  0.21701600  0.79829500  0.80939500  1
  N  N0  1  0.16435000  0.45197400  0.80882000  1
  N  N1  1  0.16435000  0.04802600  0.30882000  1
  N  N2  1  0.83565000  0.54802600  0.19118000  1
  N  N3  1  0.83565000  0.95197400  0.69118000  1
  N  N4  1  0.30358400  0.24415000  0.72737200  1
  N  N5  1  0.30358400  0.25585000  0.22737200  1
  N  N6  1  0.69641600  0.75585000  0.27262800  1
  N  N7  1  0.69641600  0.74415000  0.77262800  1
  N  N8  1  0.25138200  0.50501600  0.63833900  1
  N  N9  1  0.25138200  0.99498400  0.13833900  1
  N  N10  1  0.74861800  0.49498400  0.36166100  1
  N  N11  1  0.74861800  0.00501600  0.86166100  1
  N  N12  1  0.71619100  0.07603800  0.40936900  1
  N  N13  1  0.71619100  0.42396200  0.90936900  1
  N  N14  1  0.28380900  0.92396200  0.59063100  1
  N  N15  1  0.28380900  0.57603800  0.09063100  1
  O  O0  1  0.90096200  0.48431900  0.62759700  1
  O  O1  1  0.90096200  0.01568100  0.12759700  1
  O  O2  1  0.09903800  0.51568100  0.37240300  1
  O  O3  1  0.09903800  0.98431900  0.87240300  1
  O  O4  1  0.94517200  0.24995000  0.71051500  1
  O  O5  1  0.94517200  0.25005000  0.21051500  1
  O  O6  1  0.05482800  0.75005000  0.28948500  1
  O  O7  1  0.05482800  0.74995000  0.78948500  1
  O  O8  1  0.60770100  0.49368900  0.61292700  1
  O  O9  1  0.60770100  0.00631100  0.11292700  1
  O  O10  1  0.39229900  0.50631100  0.38707300  1
  O  O11  1  0.39229900  0.99368900  0.88707300  1
  O  O12  1  0.65698500  0.23907900  0.70822500  1
  O  O13  1  0.65698500  0.26092100  0.20822500  1
  O  O14  1  0.34301500  0.76092100  0.29177500  1
  O  O15  1  0.34301500  0.73907900  0.79177500  1
  O  O16  1  0.04705800  0.29695500  0.54281100  1
  O  O17  1  0.04705800  0.20304500  0.04281100  1
  O  O18  1  0.95294200  0.70304500  0.45718900  1
  O  O19  1  0.95294200  0.79695500  0.95718900  1
  O  O20  1  0.67507300  0.73878200  0.52766400  1
  O  O21  1  0.67507300  0.76121800  0.02766400  1
  O  O22  1  0.32492700  0.26121800  0.47233600  1
  O  O23  1  0.32492700  0.23878200  0.97233600  1
  O  O24  1  0.73603200  0.17381200  0.47029500  1
  O  O25  1  0.73603200  0.32618800  0.97029500  1
  O  O26  1  0.26396800  0.82618800  0.52970500  1
  O  O27  1  0.26396800  0.67381200  0.02970500  1
  O  O28  1  0.56425600  0.01946700  0.37637600  1
  O  O29  1  0.56425600  0.48053300  0.87637600  1
  O  O30  1  0.43574400  0.98053300  0.62362400  1
  O  O31  1  0.43574400  0.51946700  0.12362400  1
  O  O32  1  0.84809700  0.03703300  0.38342100  1
  O  O33  1  0.84809700  0.46296700  0.88342100  1
  O  O34  1  0.15190300  0.96296700  0.61657900  1
  O  O35  1  0.15190300  0.53703300  0.11657900  1
loop_
_geom_bond_atom_site_label_1
_geom_bond_atom_site_label_2
_geom_bond_distance
_geom_bond_site_symmetry_2
Co0 O0 1.919881 1_455
Co0 O4 1.927559 1_455
Co0 N0 1.939059 1_555
Co0 N4 1.945460 1_555
Co0 O16 1.946347 1_555
Co0 N8 1.952973 1_555
Co1 O1 1.919881 1_455
Co1 O5 1.927559 1_455
Co1 N1 1.939059 1_555
Co1 N5 1.945460 1_555
Co1 O17 1.946347 1_555
Co1 N9 1.952973 1_545
Co2 O2 1.919881 1_655
Co2 O6 1.927559 1_655
Co2 N2 1.939059 1_555
Co2 N6 1.945460 1_555
Co2 O18 1.946347 1_555
Co2 N10 1.952973 1_555
Co3 O3 1.919881 1_655
Co3 O7 1.927559 1_655
Co3 N3 1.939059 1_555
Co3 N7 1.945460 1_555
Co3 O19 1.946347 1_555
Co3 N11 1.952973 1_565
H0 N0 1.029525 1_555
H1 N1 1.029525 1_565
H2 N2 1.029525 1_555
H3 N3 1.029525 1_545
H4 N0 1.027843 1_555
H5 N1 1.027843 1_555
H6 N2 1.027843 1_555
H7 N3 1.027843 1_555
H8 N0 1.023772 1_555
H9 N1 1.023772 1_555
H10 N2 1.023772 1_555
H11 N3 1.023772 1_555
H12 N4 1.032320 1_555
H13 N5 1.032320 1_555
H14 N6 1.032320 1_555
H15 N7 1.032320 1_555
H16 N4 1.025815 1_555
H17 N5 1.025815 1_555
H18 N6 1.025815 1_555
H19 N7 1.025815 1_555
H20 N4 1.031951 1_555
H21 N5 1.031951 1_555
H22 N6 1.031951 1_555
H23 N7 1.031951 1_555
H24 N8 1.027282 1_555
H25 N9 1.027282 1_555
H26 N10 1.027282 1_555
H27 N11 1.027282 1_555
H28 N8 1.032055 1_555
H29 N9 1.032055 1_555
H30 N10 1.032055 1_555
H31 N11 1.032055 1_555
H32 N8 1.032304 1_555
H33 N9 1.032304 1_545
H34 N10 1.032304 1_555
H35 N11 1.032304 1_565
H36 O16 0.998587 1_555
H37 O17 0.998587 1_555
H38 O18 0.998587 1_555
H39 O19 0.998587 1_555
H40 O16 1.013135 1_655
H40 O24 1.639507 1_555
H41 O17 1.013135 1_655
H41 O25 1.639507 1_554
H42 O18 1.013135 1_455
H42 O26 1.639507 1_555
H43 O19 1.013135 1_455
H43 O27 1.639507 1_556
H44 O20 0.991013 1_555
H45 O21 0.991013 1_555
H46 O22 0.991013 1_555
H47 O23 0.991013 1_555
H48 O20 0.977949 1_555
H49 O21 0.977949 1_556
H50 O22 0.977949 1_555
H51 O23 0.977949 1_554
C0 O8 1.247514 1_555
C0 O0 1.290837 1_555
C1 O9 1.247514 1_555
C1 O1 1.290837 1_555
C2 O10 1.247514 1_555
C2 O2 1.290837 1_555
C3 O11 1.247514 1_555
C3 O3 1.290837 1_555
C4 O12 1.245146 1_555
C4 O4 1.301588 1_555
C5 O13 1.245146 1_555
C5 O5 1.301588 1_555
C6 O14 1.245146 1_555
C6 O6 1.301588 1_555
C7 O15 1.245146 1_555
C7 O7 1.301588 1_555
N12 O28 1.263016 1_555
N12 O32 1.264054 1_555
N12 O24 1.285982 1_555
N13 O29 1.263016 1_555
N13 O33 1.264054 1_555
N13 O25 1.285982 1_555
N14 O30 1.263016 1_555
N14 O34 1.264054 1_555
N14 O26 1.285982 1_555
N15 O31 1.263016 1_555
N15 O35 1.264054 1_555
N15 O27 1.285982 1_555
