# generated using pymatgen
data_La3MgAlS7
_symmetry_space_group_name_H-M   'P 1'
_cell_length_a   10.32703778
_cell_length_b   10.32703778
_cell_length_c   6.00804200
_cell_angle_alpha   90.00000000
_cell_angle_beta   90.00000000
_cell_angle_gamma   119.99999859
_symmetry_Int_Tables_number   1
_chemical_formula_structural   La3MgAlS7
_chemical_formula_sum   'La6 Mg2 Al2 S14'
_cell_volume   554.90051711
_cell_formula_units_Z   2
loop_
 _symmetry_equiv_pos_site_id
 _symmetry_equiv_pos_as_xyz
  1  'x, y, z'
loop_
 _atom_site_type_symbol
 _atom_site_label
 _atom_site_symmetry_multiplicity
 _atom_site_fract_x
 _atom_site_fract_y
 _atom_site_fract_z
 _atom_site_occupancy
  La  La0  1  0.75567200  0.12890000  0.24000200  1
  La  La1  1  0.37322800  0.24432800  0.24000200  1
  La  La2  1  0.87110000  0.62677200  0.24000200  1
  La  La3  1  0.24432800  0.87110000  0.74000200  1
  La  La4  1  0.62677200  0.75567200  0.74000200  1
  La  La5  1  0.12890000  0.37322800  0.74000200  1
  Mg  Mg0  1  0.00000000  0.00000000  0.99913100  1
  Mg  Mg1  1  0.00000000  0.00000000  0.49913100  1
  Al  Al0  1  0.66666700  0.33333300  0.65787700  1
  Al  Al1  1  0.33333300  0.66666700  0.15787700  1
  S  S0  1  0.84605300  0.07988700  0.75035500  1
  S  S1  1  0.23383400  0.15394700  0.75035500  1
  S  S2  1  0.92011300  0.76616600  0.75035500  1
  S  S3  1  0.15394700  0.92011300  0.25035500  1
  S  S4  1  0.76616600  0.84605300  0.25035500  1
  S  S5  1  0.07988700  0.23383400  0.25035500  1
  S  S6  1  0.89459100  0.40977400  0.50866800  1
  S  S7  1  0.51518300  0.10540900  0.50866800  1
  S  S8  1  0.59022600  0.48481700  0.50866800  1
  S  S9  1  0.10540900  0.59022600  0.00866800  1
  S  S10  1  0.48481700  0.89459100  0.00866800  1
  S  S11  1  0.40977400  0.51518300  0.00866800  1
  S  S12  1  0.66666700  0.33333300  0.02795800  1
  S  S13  1  0.33333300  0.66666700  0.52795800  1
loop_
_geom_bond_atom_site_label_1
_geom_bond_atom_site_label_2
_geom_bond_distance
_geom_bond_site_symmetry_2
La0 S7 2.868768 1_555
La0 S5 2.959766 1_655
La0 S10 2.973622 1_545
La0 S4 2.977287 1_545
La0 S12 2.977495 1_555
La0 S6 2.985941 1_555
La0 S0 3.202204 1_554
La0 S0 3.316855 1_555
La1 S8 2.868768 1_555
La1 S3 2.959766 1_545
La1 S11 2.973622 1_555
La1 S5 2.977287 1_555
La1 S12 2.977504 1_555
La1 S7 2.985941 1_555
La1 S1 3.202204 1_554
La1 S1 3.316855 1_555
La2 S6 2.868768 1_555
La2 S4 2.959766 1_555
La2 S9 2.973622 1_655
La2 S3 2.977287 1_655
La2 S12 2.977502 1_555
La2 S8 2.985941 1_555
La2 S2 3.202204 1_554
La2 S2 3.316855 1_555
La3 S10 2.868768 1_556
La3 S2 2.959766 1_455
La3 S7 2.973622 1_565
La3 S1 2.977287 1_565
La3 S13 2.977495 1_555
La3 S9 2.985941 1_556
La3 S3 3.202204 1_555
La3 S3 3.316855 1_556
La4 S11 2.868768 1_556
La4 S0 2.959766 1_565
La4 S8 2.973622 1_555
La4 S2 2.977287 1_555
La4 S13 2.977504 1_555
La4 S10 2.985941 1_556
La4 S4 3.202204 1_555
La4 S4 3.316855 1_556
La5 S9 2.868768 1_556
La5 S1 2.959766 1_555
La5 S6 2.973622 1_455
La5 S0 2.977287 1_455
La5 S13 2.977502 1_555
La5 S11 2.985941 1_556
La5 S5 3.202204 1_555
La5 S5 3.316855 1_556
Mg0 S0 2.598793 1_455
Mg0 S2 2.598793 1_445
Mg0 S1 2.598793 1_555
Mg0 S3 2.607280 1_546
Mg0 S5 2.607280 1_556
Mg0 S4 2.607280 1_446
Mg1 S3 2.598793 1_545
Mg1 S5 2.598793 1_555
Mg1 S4 2.598793 1_445
Mg1 S0 2.607280 1_455
Mg1 S2 2.607280 1_445
Mg1 S1 2.607280 1_555
Al0 S12 2.223462 1_556
Al0 S6 2.260305 1_555
Al0 S7 2.260307 1_555
Al0 S8 2.260314 1_555
Al1 S13 2.223462 1_555
Al1 S9 2.260305 1_555
Al1 S10 2.260307 1_555
Al1 S11 2.260314 1_555
