# generated using pymatgen
data_Li3Ge3(MoO6)2
_symmetry_space_group_name_H-M   'P 1'
_cell_length_a   10.71896616
_cell_length_b   10.71896616
_cell_length_c   10.71896616
_cell_angle_alpha   109.47122063
_cell_angle_beta   109.47122063
_cell_angle_gamma   109.47122063
_symmetry_Int_Tables_number   1
_chemical_formula_structural   Li3Ge3(MoO6)2
_chemical_formula_sum   'Li12 Ge12 Mo8 O48'
_cell_volume   948.06215193
_cell_formula_units_Z   4
loop_
 _symmetry_equiv_pos_site_id
 _symmetry_equiv_pos_as_xyz
  1  'x, y, z'
loop_
 _atom_site_type_symbol
 _atom_site_label
 _atom_site_symmetry_multiplicity
 _atom_site_fract_x
 _atom_site_fract_y
 _atom_site_fract_z
 _atom_site_occupancy
  Li  Li0  1  0.75000000  0.62500000  0.87500000  1
  Li  Li1  1  0.25000000  0.87500000  0.62500000  1
  Li  Li2  1  0.62500000  0.25000000  0.87500000  1
  Li  Li3  1  0.87500000  0.75000000  0.62500000  1
  Li  Li4  1  0.87500000  0.62500000  0.25000000  1
  Li  Li5  1  0.62500000  0.87500000  0.75000000  1
  Li  Li6  1  0.25000000  0.37500000  0.12500000  1
  Li  Li7  1  0.75000000  0.12500000  0.37500000  1
  Li  Li8  1  0.37500000  0.75000000  0.12500000  1
  Li  Li9  1  0.12500000  0.25000000  0.37500000  1
  Li  Li10  1  0.12500000  0.37500000  0.75000000  1
  Li  Li11  1  0.37500000  0.12500000  0.25000000  1
  Ge  Ge0  1  0.37500000  0.62500000  0.75000000  1
  Ge  Ge1  1  0.62500000  0.37500000  0.25000000  1
  Ge  Ge2  1  0.62500000  0.75000000  0.37500000  1
  Ge  Ge3  1  0.25000000  0.12500000  0.87500000  1
  Ge  Ge4  1  0.87500000  0.25000000  0.12500000  1
  Ge  Ge5  1  0.75000000  0.37500000  0.62500000  1
  Ge  Ge6  1  0.25000000  0.62500000  0.37500000  1
  Ge  Ge7  1  0.75000000  0.87500000  0.12500000  1
  Ge  Ge8  1  0.12500000  0.75000000  0.87500000  1
  Ge  Ge9  1  0.37500000  0.25000000  0.62500000  1
  Ge  Ge10  1  0.87500000  0.12500000  0.75000000  1
  Ge  Ge11  1  0.12500000  0.87500000  0.25000000  1
  Mo  Mo0  1  0.50000000  0.00000000  0.50000000  1
  Mo  Mo1  1  0.00000000  0.50000000  0.00000000  1
  Mo  Mo2  1  0.50000000  0.50000000  0.50000000  1
  Mo  Mo3  1  0.00000000  0.00000000  0.50000000  1
  Mo  Mo4  1  0.00000000  0.00000000  0.00000000  1
  Mo  Mo5  1  0.00000000  0.50000000  0.50000000  1
  Mo  Mo6  1  0.50000000  0.50000000  0.00000000  1
  Mo  Mo7  1  0.50000000  0.00000000  0.00000000  1
  O  O0  1  0.51674800  0.39806700  0.81467400  1
  O  O1  1  0.81467400  0.51674800  0.39806700  1
  O  O2  1  0.79792600  0.88131800  0.98325200  1
  O  O3  1  0.41660800  0.10193300  0.61868200  1
  O  O4  1  0.88131800  0.39806700  0.08339200  1
  O  O5  1  0.68532600  0.08339200  0.70207400  1
  O  O6  1  0.81467400  0.79792600  0.41660800  1
  O  O7  1  0.39806700  0.81467400  0.51674800  1
  O  O8  1  0.61868200  0.70207400  0.51674800  1
  O  O9  1  0.41660800  0.81467400  0.79792600  1
  O  O10  1  0.39806700  0.08339200  0.88131800  1
  O  O11  1  0.10193300  0.98325200  0.68532600  1
  O  O12  1  0.98325200  0.68532600  0.10193300  1
  O  O13  1  0.79792600  0.41660800  0.81467400  1
  O  O14  1  0.51674800  0.61868200  0.70207400  1
  O  O15  1  0.70207400  0.51674800  0.61868200  1
  O  O16  1  0.08339200  0.88131800  0.39806700  1
  O  O17  1  0.98325200  0.79792600  0.88131800  1
  O  O18  1  0.08339200  0.70207400  0.68532600  1
  O  O19  1  0.38131800  0.29792600  0.48325200  1
  O  O20  1  0.61868200  0.41660800  0.10193300  1
  O  O21  1  0.10193300  0.61868200  0.41660800  1
  O  O22  1  0.70207400  0.68532600  0.08339200  1
  O  O23  1  0.68532600  0.10193300  0.98325200  1
  O  O24  1  0.48325200  0.60193300  0.18532600  1
  O  O25  1  0.18532600  0.48325200  0.60193300  1
  O  O26  1  0.20207400  0.11868200  0.01674800  1
  O  O27  1  0.58339200  0.89806700  0.38131800  1
  O  O28  1  0.11868200  0.60193300  0.91660800  1
  O  O29  1  0.31467400  0.91660800  0.29792600  1
  O  O30  1  0.18532600  0.20207400  0.58339200  1
  O  O31  1  0.60193300  0.18532600  0.48325200  1
  O  O32  1  0.31467400  0.89806700  0.01674800  1
  O  O33  1  0.29792600  0.31467400  0.91660800  1
  O  O34  1  0.89806700  0.38131800  0.58339200  1
  O  O35  1  0.11868200  0.01674800  0.20207400  1
  O  O36  1  0.38131800  0.58339200  0.89806700  1
  O  O37  1  0.91660800  0.29792600  0.31467400  1
  O  O38  1  0.01674800  0.20207400  0.11868200  1
  O  O39  1  0.91660800  0.11868200  0.60193300  1
  O  O40  1  0.29792600  0.48325200  0.38131800  1
  O  O41  1  0.48325200  0.38131800  0.29792600  1
  O  O42  1  0.20207400  0.58339200  0.18532600  1
  O  O43  1  0.01674800  0.31467400  0.89806700  1
  O  O44  1  0.89806700  0.01674800  0.31467400  1
  O  O45  1  0.60193300  0.91660800  0.11868200  1
  O  O46  1  0.58339200  0.18532600  0.20207400  1
  O  O47  1  0.88131800  0.98325200  0.79792600  1
loop_
_geom_bond_atom_site_label_1
_geom_bond_atom_site_label_2
_geom_bond_distance
_geom_bond_site_symmetry_2
Li0 O22 2.386459 1_556
Li0 O2 2.386459 1_555
Li0 O15 2.386459 1_555
Li0 O13 2.386459 1_555
Li0 O0 2.530868 1_555
Li0 O12 2.530868 1_556
Li0 O17 2.530874 1_555
Li0 O14 2.530874 1_555
Li1 O10 2.386459 1_565
Li1 O21 2.386459 1_555
Li1 O11 2.386469 1_555
Li1 O7 2.386469 1_555
Li1 O16 2.530866 1_555
Li1 O3 2.530866 1_565
Li1 O18 2.530874 1_555
Li1 O9 2.530874 1_555
Li2 O4 2.386459 1_556
Li2 O3 2.386459 1_555
Li2 O0 2.386469 1_555
Li2 O23 2.386469 1_555
Li2 O10 2.530866 1_555
Li2 O20 2.530866 1_556
Li2 O13 2.530874 1_555
Li2 O5 2.530874 1_555
Li3 O18 2.386459 1_655
Li3 O8 2.386459 1_555
Li3 O6 2.386459 1_555
Li3 O17 2.386459 1_555
Li3 O1 2.530868 1_555
Li3 O11 2.530868 1_655
Li3 O15 2.530874 1_555
Li3 O47 2.530874 1_555
Li4 O16 2.386459 1_655
Li4 O20 2.386459 1_555
Li4 O1 2.386469 1_555
Li4 O12 2.386469 1_555
Li4 O4 2.530866 1_555
Li4 O21 2.530866 1_655
Li4 O6 2.530874 1_555
Li4 O22 2.530874 1_555
Li5 O5 2.386459 1_565
Li5 O47 2.386459 1_555
Li5 O14 2.386459 1_555
Li5 O9 2.386459 1_555
Li5 O23 2.530868 1_565
Li5 O7 2.530868 1_555
Li5 O8 2.530874 1_555
Li5 O2 2.530874 1_555
Li6 O33 2.386459 1_554
Li6 O40 2.386459 1_555
Li6 O26 2.386459 1_555
Li6 O42 2.386459 1_555
Li6 O43 2.530868 1_554
Li6 O24 2.530868 1_555
Li6 O38 2.530874 1_555
Li6 O41 2.530874 1_555
Li7 O34 2.386459 1_555
Li7 O45 2.386459 1_545
Li7 O44 2.386469 1_555
Li7 O31 2.386469 1_555
Li7 O39 2.530866 1_555
Li7 O27 2.530866 1_545
Li7 O46 2.530874 1_555
Li7 O37 2.530874 1_555
Li8 O27 2.386459 1_555
Li8 O28 2.386459 1_554
Li8 O32 2.386469 1_555
Li8 O24 2.386469 1_555
Li8 O36 2.530866 1_554
Li8 O45 2.530866 1_555
Li8 O42 2.530874 1_555
Li8 O29 2.530874 1_555
Li9 O38 2.386459 1_555
Li9 O19 2.386459 1_555
Li9 O30 2.386459 1_555
Li9 O37 2.386459 1_455
Li9 O44 2.530868 1_455
Li9 O25 2.530868 1_555
Li9 O40 2.530874 1_555
Li9 O35 2.530874 1_555
Li10 O39 2.386459 1_455
Li10 O36 2.386459 1_555
Li10 O43 2.386469 1_555
Li10 O25 2.386469 1_555
Li10 O34 2.530866 1_455
Li10 O28 2.530866 1_555
Li10 O30 2.530874 1_555
Li10 O33 2.530874 1_555
Li11 O46 2.386459 1_555
Li11 O35 2.386459 1_555
Li11 O41 2.386459 1_555
Li11 O29 2.386459 1_545
Li11 O31 2.530868 1_555
Li11 O32 2.530868 1_545
Li11 O26 2.530874 1_555
Li11 O19 2.530874 1_555
Ge0 O14 1.772796 1_555
Ge0 O9 1.772796 1_555
Ge0 O25 1.772799 1_555
Ge0 O36 1.772807 1_555
Ge1 O41 1.772796 1_555
Ge1 O46 1.772796 1_555
Ge1 O1 1.772799 1_555
Ge1 O20 1.772807 1_555
Ge2 O6 1.772796 1_555
Ge2 O8 1.772796 1_555
Ge2 O24 1.772799 1_555
Ge2 O27 1.772807 1_555
Ge3 O26 1.772796 1_556
Ge3 O33 1.772796 1_555
Ge3 O11 1.772799 1_545
Ge3 O10 1.772807 1_555
Ge4 O38 1.772796 1_655
Ge4 O37 1.772796 1_555
Ge4 O23 1.772799 1_554
Ge4 O4 1.772807 1_555
Ge5 O15 1.772796 1_555
Ge5 O13 1.772796 1_555
Ge5 O31 1.772799 1_555
Ge5 O34 1.772807 1_555
Ge6 O40 1.772796 1_555
Ge6 O42 1.772796 1_555
Ge6 O7 1.772799 1_555
Ge6 O21 1.772807 1_555
Ge7 O22 1.772796 1_555
Ge7 O2 1.772796 1_554
Ge7 O44 1.772799 1_565
Ge7 O45 1.772807 1_555
Ge8 O17 1.772796 1_455
Ge8 O18 1.772796 1_555
Ge8 O32 1.772799 1_556
Ge8 O28 1.772807 1_555
Ge9 O19 1.772796 1_555
Ge9 O30 1.772796 1_555
Ge9 O0 1.772799 1_555
Ge9 O3 1.772807 1_555
Ge10 O5 1.772796 1_555
Ge10 O47 1.772796 1_545
Ge10 O43 1.772799 1_655
Ge10 O39 1.772807 1_555
Ge11 O35 1.772796 1_565
Ge11 O29 1.772796 1_555
Ge11 O12 1.772799 1_455
Ge11 O16 1.772807 1_555
Mo0 O3 2.023300 1_555
Mo0 O27 2.023300 1_545
Mo0 O7 2.023303 1_545
Mo0 O31 2.023303 1_555
Mo0 O5 2.023305 1_555
Mo0 O29 2.023305 1_545
Mo1 O4 2.023300 1_455
Mo1 O28 2.023300 1_554
Mo1 O12 2.023303 1_455
Mo1 O43 2.023303 1_554
Mo1 O13 2.023305 1_454
Mo1 O42 2.023305 1_555
Mo2 O14 2.023305 1_555
Mo2 O40 2.023305 1_555
Mo2 O15 2.023305 1_555
Mo2 O41 2.023305 1_555
Mo2 O19 2.023305 1_555
Mo2 O8 2.023305 1_555
Mo3 O16 2.023300 1_545
Mo3 O39 2.023300 1_455
Mo3 O11 2.023303 1_545
Mo3 O44 2.023303 1_455
Mo3 O6 2.023305 1_445
Mo3 O30 2.023305 1_555
Mo4 O26 2.023305 1_555
Mo4 O2 2.023305 1_444
Mo4 O17 2.023305 1_444
Mo4 O38 2.023305 1_555
Mo4 O35 2.023305 1_555
Mo4 O47 2.023305 1_444
Mo5 O21 2.023300 1_555
Mo5 O34 2.023300 1_455
Mo5 O1 2.023303 1_455
Mo5 O25 2.023303 1_555
Mo5 O18 2.023305 1_555
Mo5 O37 2.023305 1_455
Mo6 O20 2.023300 1_555
Mo6 O36 2.023300 1_554
Mo6 O24 2.023303 1_555
Mo6 O0 2.023303 1_554
Mo6 O22 2.023305 1_555
Mo6 O33 2.023305 1_554
Mo7 O10 2.023300 1_554
Mo7 O45 2.023300 1_545
Mo7 O23 2.023303 1_554
Mo7 O32 2.023303 1_545
Mo7 O9 2.023305 1_544
Mo7 O46 2.023305 1_555
