# generated using pymatgen
data_La2CO5
_symmetry_space_group_name_H-M   'P 1'
_cell_length_a   4.09957479
_cell_length_b   4.09957479
_cell_length_c   15.98046000
_cell_angle_alpha   90.00000000
_cell_angle_beta   90.00000000
_cell_angle_gamma   119.24407791
_symmetry_Int_Tables_number   1
_chemical_formula_structural   La2CO5
_chemical_formula_sum   'La4 C2 O10'
_cell_volume   234.34488961
_cell_formula_units_Z   2
loop_
 _symmetry_equiv_pos_site_id
 _symmetry_equiv_pos_as_xyz
  1  'x, y, z'
loop_
 _atom_site_type_symbol
 _atom_site_label
 _atom_site_symmetry_multiplicity
 _atom_site_fract_x
 _atom_site_fract_y
 _atom_site_fract_z
 _atom_site_occupancy
  La  La0  1  0.66531600  0.33245100  0.40527600  1
  La  La1  1  0.33245100  0.66531600  0.59472400  1
  La  La2  1  0.33245100  0.66531600  0.90527600  1
  La  La3  1  0.66531600  0.33245100  0.09472400  1
  C  C0  1  0.13506500  0.06755000  0.25000000  1
  C  C1  1  0.06755000  0.13506500  0.75000000  1
  O  O0  1  0.96374100  0.98116700  0.32177600  1
  O  O1  1  0.98116700  0.96374100  0.67822400  1
  O  O2  1  0.98116700  0.96374100  0.82177600  1
  O  O3  1  0.96374100  0.98116700  0.17822400  1
  O  O4  1  0.66546300  0.33077900  0.94313300  1
  O  O5  1  0.33077900  0.66546300  0.05686700  1
  O  O6  1  0.33077900  0.66546300  0.44313300  1
  O  O7  1  0.66546300  0.33077900  0.55686700  1
  O  O8  1  0.49532600  0.24946400  0.25000000  1
  O  O9  1  0.24946400  0.49532600  0.75000000  1
loop_
_geom_bond_atom_site_label_1
_geom_bond_atom_site_label_2
_geom_bond_distance
_geom_bond_site_symmetry_2
La0 O7 2.422505 1_555
La0 O6 2.437225 1_555
La0 O6 2.456295 1_655
La0 O6 2.461626 1_545
La0 O8 2.554800 1_555
La0 O0 2.659448 1_545
La0 O0 2.677876 1_555
La0 O0 2.842494 1_445
La1 O6 2.422505 1_555
La1 O7 2.437225 1_555
La1 O7 2.456295 1_565
La1 O7 2.461626 1_455
La1 O9 2.554800 1_555
La1 O1 2.659448 1_455
La1 O1 2.677876 1_555
La1 O1 2.842494 1_445
La2 O5 2.422505 1_556
La2 O4 2.437225 1_555
La2 O4 2.456295 1_565
La2 O4 2.461626 1_455
La2 O9 2.554800 1_555
La2 O2 2.659448 1_455
La2 O2 2.677876 1_555
La2 O2 2.842494 1_445
La3 O4 2.422505 1_554
La3 O5 2.437225 1_555
La3 O5 2.456295 1_655
La3 O5 2.461626 1_545
La3 O8 2.554800 1_555
La3 O3 2.659448 1_545
La3 O3 2.677876 1_555
La3 O3 2.842494 1_445
C0 O8 1.288907 1_555
C0 O0 1.300512 1_445
C0 O3 1.300512 1_445
C1 O9 1.288907 1_555
C1 O2 1.300512 1_445
C1 O1 1.300512 1_445
