# generated using pymatgen
data_Ba4Si20Au3
_symmetry_space_group_name_H-M   'P 1'
_cell_length_a   10.51228300
_cell_length_b   10.51228300
_cell_length_c   10.51228300
_cell_angle_alpha   90.00000000
_cell_angle_beta   90.00000000
_cell_angle_gamma   90.00000000
_symmetry_Int_Tables_number   1
_chemical_formula_structural   Ba4Si20Au3
_chemical_formula_sum   'Ba8 Si40 Au6'
_cell_volume   1161.69235657
_cell_formula_units_Z   2
loop_
 _symmetry_equiv_pos_site_id
 _symmetry_equiv_pos_as_xyz
  1  'x, y, z'
loop_
 _atom_site_type_symbol
 _atom_site_label
 _atom_site_symmetry_multiplicity
 _atom_site_fract_x
 _atom_site_fract_y
 _atom_site_fract_z
 _atom_site_occupancy
  Ba  Ba0  1  0.50000000  0.50000000  0.50000000  1
  Ba  Ba1  1  0.00000000  0.00000000  0.00000000  1
  Ba  Ba2  1  0.00000000  0.50000000  0.75000000  1
  Ba  Ba3  1  0.50000000  0.25000000  0.00000000  1
  Ba  Ba4  1  0.75000000  0.00000000  0.50000000  1
  Ba  Ba5  1  0.00000000  0.50000000  0.25000000  1
  Ba  Ba6  1  0.50000000  0.75000000  0.00000000  1
  Ba  Ba7  1  0.25000000  0.00000000  0.50000000  1
  Si  Si0  1  0.68371900  0.31628100  0.68371900  1
  Si  Si1  1  0.31628100  0.68371900  0.31628100  1
  Si  Si2  1  0.68371900  0.68371900  0.31628100  1
  Si  Si3  1  0.31628100  0.31628100  0.68371900  1
  Si  Si4  1  0.31628100  0.68371900  0.68371900  1
  Si  Si5  1  0.68371900  0.31628100  0.31628100  1
  Si  Si6  1  0.31628100  0.31628100  0.31628100  1
  Si  Si7  1  0.68371900  0.68371900  0.68371900  1
  Si  Si8  1  0.18371900  0.18371900  0.81628100  1
  Si  Si9  1  0.81628100  0.81628100  0.18371900  1
  Si  Si10  1  0.18371900  0.81628100  0.18371900  1
  Si  Si11  1  0.81628100  0.18371900  0.81628100  1
  Si  Si12  1  0.81628100  0.18371900  0.18371900  1
  Si  Si13  1  0.18371900  0.81628100  0.81628100  1
  Si  Si14  1  0.81628100  0.81628100  0.81628100  1
  Si  Si15  1  0.18371900  0.18371900  0.18371900  1
  Si  Si16  1  0.80436800  0.38306200  0.50000000  1
  Si  Si17  1  0.61693800  0.50000000  0.80436800  1
  Si  Si18  1  0.50000000  0.19563200  0.61693800  1
  Si  Si19  1  0.19563200  0.61693800  0.50000000  1
  Si  Si20  1  0.38306200  0.50000000  0.19563200  1
  Si  Si21  1  0.50000000  0.80436800  0.38306200  1
  Si  Si22  1  0.80436800  0.61693800  0.50000000  1
  Si  Si23  1  0.61693800  0.50000000  0.19563200  1
  Si  Si24  1  0.19563200  0.38306200  0.50000000  1
  Si  Si25  1  0.38306200  0.50000000  0.80436800  1
  Si  Si26  1  0.50000000  0.80436800  0.61693800  1
  Si  Si27  1  0.50000000  0.19563200  0.38306200  1
  Si  Si28  1  0.30436800  0.00000000  0.88306200  1
  Si  Si29  1  0.11693800  0.30436800  0.00000000  1
  Si  Si30  1  0.00000000  0.11693800  0.69563200  1
  Si  Si31  1  0.69563200  0.00000000  0.11693800  1
  Si  Si32  1  0.88306200  0.69563200  0.00000000  1
  Si  Si33  1  0.00000000  0.88306200  0.30436800  1
  Si  Si34  1  0.30436800  0.00000000  0.11693800  1
  Si  Si35  1  0.11693800  0.69563200  0.00000000  1
  Si  Si36  1  0.69563200  0.00000000  0.88306200  1
  Si  Si37  1  0.88306200  0.30436800  0.00000000  1
  Si  Si38  1  0.00000000  0.11693800  0.30436800  1
  Si  Si39  1  0.00000000  0.88306200  0.69563200  1
  Au  Au0  1  0.50000000  0.00000000  0.75000000  1
  Au  Au1  1  0.00000000  0.25000000  0.50000000  1
  Au  Au2  1  0.75000000  0.50000000  0.00000000  1
  Au  Au3  1  0.50000000  0.00000000  0.25000000  1
  Au  Au4  1  0.00000000  0.75000000  0.50000000  1
  Au  Au5  1  0.25000000  0.50000000  0.00000000  1
loop_
_geom_bond_atom_site_label_1
_geom_bond_atom_site_label_2
_geom_bond_distance
_geom_bond_site_symmetry_2
Ba0 Si7 3.345120 1_555
Ba0 Si5 3.345120 1_555
Ba0 Si2 3.345120 1_555
Ba0 Si4 3.345120 1_555
Ba0 Si3 3.345120 1_555
Ba0 Si0 3.345120 1_555
Ba0 Si1 3.345120 1_555
Ba0 Si6 3.345120 1_555
Ba0 Si18 3.427623 1_555
Ba0 Si19 3.427623 1_555
Ba0 Si17 3.427623 1_555
Ba0 Si26 3.427623 1_555
Ba0 Si22 3.427623 1_555
Ba0 Si23 3.427623 1_555
Ba0 Si21 3.427623 1_555
Ba0 Si27 3.427623 1_555
Ba0 Si20 3.427623 1_555
Ba0 Si16 3.427623 1_555
Ba0 Si24 3.427623 1_555
Ba0 Si25 3.427623 1_555
Ba1 Si15 3.345120 1_555
Ba1 Si10 3.345120 1_545
Ba1 Si12 3.345120 1_455
Ba1 Si8 3.345120 1_554
Ba1 Si11 3.345120 1_454
Ba1 Si13 3.345120 1_544
Ba1 Si9 3.345120 1_445
Ba1 Si14 3.345120 1_444
Ba1 Si34 3.427623 1_555
Ba1 Si33 3.427623 1_545
Ba1 Si37 3.427623 1_455
Ba1 Si29 3.427623 1_555
Ba1 Si28 3.427623 1_554
Ba1 Si38 3.427623 1_555
Ba1 Si35 3.427623 1_545
Ba1 Si39 3.427623 1_544
Ba1 Si30 3.427623 1_554
Ba1 Si32 3.427623 1_445
Ba1 Si31 3.427623 1_455
Ba1 Si36 3.427623 1_454
Ba2 Si32 3.556297 1_456
Ba2 Si35 3.556297 1_556
Ba2 Si19 3.556297 1_555
Ba2 Si22 3.556297 1_455
Ba2 Si24 3.556297 1_555
Ba2 Si16 3.556297 1_455
Ba2 Si37 3.556297 1_456
Ba2 Si29 3.556297 1_556
Ba3 Si31 3.556297 1_555
Ba3 Si36 3.556297 1_554
Ba3 Si17 3.556297 1_554
Ba3 Si23 3.556297 1_555
Ba3 Si20 3.556297 1_555
Ba3 Si25 3.556297 1_554
Ba3 Si34 3.556297 1_555
Ba3 Si28 3.556297 1_554
Ba4 Si39 3.556297 1_645
Ba4 Si30 3.556297 1_655
Ba4 Si18 3.556297 1_555
Ba4 Si26 3.556297 1_545
Ba4 Si27 3.556297 1_555
Ba4 Si21 3.556297 1_545
Ba4 Si33 3.556297 1_645
Ba4 Si38 3.556297 1_655
Ba5 Si32 3.556297 1_455
Ba5 Si35 3.556297 1_555
Ba5 Si19 3.556297 1_555
Ba5 Si22 3.556297 1_455
Ba5 Si24 3.556297 1_555
Ba5 Si16 3.556297 1_455
Ba5 Si29 3.556297 1_555
Ba5 Si37 3.556297 1_455
Ba6 Si36 3.556297 1_564
Ba6 Si31 3.556297 1_565
Ba6 Si17 3.556297 1_554
Ba6 Si23 3.556297 1_555
Ba6 Si20 3.556297 1_555
Ba6 Si25 3.556297 1_554
Ba6 Si34 3.556297 1_565
Ba6 Si28 3.556297 1_564
Ba7 Si39 3.556297 1_545
Ba7 Si30 3.556297 1_555
Ba7 Si18 3.556297 1_555
Ba7 Si26 3.556297 1_545
Ba7 Si27 3.556297 1_555
Ba7 Si21 3.556297 1_545
Ba7 Si38 3.556297 1_555
Ba7 Si33 3.556297 1_545
Si0 Si11 2.413663 1_555
Si0 Si16 2.414819 1_555
Si0 Si18 2.414819 1_555
Si0 Si17 2.414819 1_555
Si1 Si10 2.413663 1_555
Si1 Si20 2.414819 1_555
Si1 Si21 2.414819 1_555
Si1 Si19 2.414819 1_555
Si2 Si9 2.413663 1_555
Si2 Si21 2.414819 1_555
Si2 Si23 2.414819 1_555
Si2 Si22 2.414819 1_555
Si3 Si8 2.413663 1_555
Si10 Si33 2.414819 1_555
Si10 Si35 2.414819 1_555
Si10 Si34 2.414819 1_565
Si11 Si36 2.414819 1_555
Si11 Si37 2.414819 1_556
Si11 Si30 2.414819 1_655
Si12 Si5 2.413663 1_555
Si12 Si37 2.414819 1_555
Si12 Si31 2.414819 1_555
Si12 Si38 2.414819 1_655
Si13 Si4 2.413663 1_555
Si13 Si39 2.414819 1_555
Si13 Si28 2.414819 1_565
Si13 Si35 2.414819 1_556
Si14 Si7 2.413663 1_555
Si14 Si32 2.414819 1_556
Si14 Si36 2.414819 1_565
Si14 Si39 2.414819 1_655
Si15 Si6 2.413663 1_555
Si15 Si34 2.414819 1_555
Si15 Si29 2.414819 1_555
Si15 Si38 2.414819 1_555
Si16 Si5 2.414819 1_555
Si17 Si7 2.414819 1_555
Si18 Si3 2.414819 1_555
Si19 Si4 2.414819 1_555
Si20 Si6 2.414819 1_555
Si22 Si7 2.414819 1_555
Si23 Si5 2.414819 1_555
Si24 Si3 2.414819 1_555
Si24 Si6 2.414819 1_555
Si25 Si4 2.414819 1_555
Si25 Si3 2.414819 1_555
Si26 Si7 2.414819 1_555
Si26 Si4 2.414819 1_555
Si27 Si5 2.414819 1_555
Si27 Si6 2.414819 1_555
Si28 Si8 2.414819 1_555
Si29 Si8 2.414819 1_554
Si30 Si8 2.414819 1_555
Si31 Si9 2.414819 1_545
Si32 Si9 2.414819 1_555
Si33 Si9 2.414819 1_455
Au0 Si36 2.487158 1_555
Au0 Si18 2.487158 1_555
Au0 Si26 2.487158 1_545
Au0 Si28 2.487158 1_555
Au0 Ba3 3.716653 1_556
Au0 Ba7 3.716653 1_555
Au0 Ba6 3.716653 1_546
Au0 Ba4 3.716653 1_555
Au1 Si30 2.487158 1_555
Au1 Si24 2.487158 1_555
Au1 Si16 2.487158 1_455
Au1 Si38 2.487158 1_555
Au1 Ba5 3.716653 1_555
Au1 Ba2 3.716653 1_555
Au1 Ba4 3.716653 1_455
Au1 Ba7 3.716653 1_555
Au2 Si32 2.487158 1_555
Au2 Si17 2.487158 1_554
Au2 Si23 2.487158 1_555
Au2 Si37 2.487158 1_555
Au2 Ba3 3.716653 1_555
Au2 Ba2 3.716653 1_654
Au2 Ba5 3.716653 1_655
Au2 Ba6 3.716653 1_555
Au3 Si31 2.487158 1_555
Au3 Si27 2.487158 1_555
Au3 Si21 2.487158 1_545
Au3 Si34 2.487158 1_555
Au3 Ba3 3.716653 1_555
Au3 Ba7 3.716653 1_555
Au3 Ba6 3.716653 1_545
Au3 Ba4 3.716653 1_555
Au4 Si39 2.487158 1_555
Au4 Si19 2.487158 1_555
Au4 Si22 2.487158 1_455
Au4 Si33 2.487158 1_555
Au4 Ba7 3.716653 1_565
Au4 Ba5 3.716653 1_555
Au4 Ba2 3.716653 1_555
Au4 Ba4 3.716653 1_465
Au5 Si35 2.487158 1_555
Au5 Si20 2.487158 1_555
Au5 Si25 2.487158 1_554
Au5 Si29 2.487158 1_555
Au5 Ba3 3.716653 1_555
Au5 Ba5 3.716653 1_555
Au5 Ba6 3.716653 1_555
Au5 Ba2 3.716653 1_554
