# generated using pymatgen
data_Li9Mn2Co5O16
_symmetry_space_group_name_H-M   'P 1'
_cell_length_a   5.72883200
_cell_length_b   5.82922047
_cell_length_c   9.77306951
_cell_angle_alpha   80.59589402
_cell_angle_beta   81.46338651
_cell_angle_gamma   60.77610934
_symmetry_Int_Tables_number   1
_chemical_formula_structural   Li9Mn2Co5O16
_chemical_formula_sum   'Li9 Mn2 Co5 O16'
_cell_volume   280.10435641
_cell_formula_units_Z   1
loop_
 _symmetry_equiv_pos_site_id
 _symmetry_equiv_pos_as_xyz
  1  'x, y, z'
loop_
 _atom_site_type_symbol
 _atom_site_label
 _atom_site_symmetry_multiplicity
 _atom_site_fract_x
 _atom_site_fract_y
 _atom_site_fract_z
 _atom_site_occupancy
  Li  Li0  1  0.87211200  0.87515900  0.25783000  1
  Li  Li1  1  0.63184200  0.13108500  0.73516400  1
  Li  Li2  1  0.37750500  0.37406200  0.26014600  1
  Li  Li3  1  0.86533100  0.37712400  0.26119200  1
  Li  Li4  1  0.62249500  0.62593800  0.73985400  1
  Li  Li5  1  0.36815800  0.86891500  0.26483600  1
  Li  Li6  1  0.13466900  0.62287600  0.73880800  1
  Li  Li7  1  0.12788800  0.12484100  0.74217000  1
  Li  Li8  1  0.50000000  0.50000000  0.50000000  1
  Mn  Mn0  1  0.75003300  0.74999500  0.99968100  1
  Mn  Mn1  1  0.24996700  0.25000500  0.00031900  1
  Co  Co0  1  0.50000000  0.00000000  0.50000000  1
  Co  Co1  1  0.00000000  0.50000000  0.50000000  1
  Co  Co2  1  0.75084200  0.25037500  0.99916500  1
  Co  Co3  1  0.24915800  0.74962500  0.00083500  1
  Co  Co4  1  0.00000000  0.00000000  0.50000000  1
  O  O0  1  0.05342800  0.58160700  0.11241400  1
  O  O1  1  0.80245100  0.81886800  0.61850100  1
  O  O2  1  0.55722700  0.08258100  0.11031700  1
  O  O3  1  0.06587600  0.05638700  0.10789700  1
  O  O4  1  0.82997200  0.31503300  0.61385900  1
  O  O5  1  0.56716900  0.55513500  0.10867200  1
  O  O6  1  0.32653900  0.28753100  0.61161800  1
  O  O7  1  0.30636800  0.83598700  0.61163700  1
  O  O8  1  0.69363200  0.16401300  0.38836300  1
  O  O9  1  0.43283100  0.44486500  0.89132800  1
  O  O10  1  0.17002800  0.68496700  0.38614100  1
  O  O11  1  0.67346100  0.71246900  0.38838200  1
  O  O12  1  0.44277300  0.91741900  0.88968300  1
  O  O13  1  0.19754900  0.18113200  0.38149900  1
  O  O14  1  0.93412400  0.94361300  0.89210300  1
  O  O15  1  0.94657200  0.41839300  0.88758600  1
loop_
_geom_bond_atom_site_label_1
_geom_bond_atom_site_label_2
_geom_bond_distance
_geom_bond_site_symmetry_2
Li0 O10 2.011953 1_655
Li0 O11 2.012402 1_555
Li0 O8 2.035110 1_565
Li0 O0 2.155843 1_655
Li0 O3 2.156761 1_665
Li0 O2 2.206157 1_565
Li1 O6 2.014521 1_555
Li1 O1 2.043996 1_545
Li1 O4 2.053554 1_555
Li1 O14 2.222271 1_545
Li1 O12 2.285168 1_545
Li1 O9 2.309578 1_555
Li2 O13 2.016792 1_555
Li2 O8 2.087188 1_555
Li2 O10 2.098792 1_555
Li2 O5 2.148927 1_555
Li2 O2 2.179095 1_555
Li2 O0 2.242066 1_555
Li3 O8 2.093112 1_555
Li3 O13 2.100508 1_655
Li3 O5 2.176235 1_555
Li3 O11 2.205662 1_555
Li3 O0 2.217836 1_655
Li3 O3 2.316668 1_655
Li4 O1 2.016792 1_555
Li4 O7 2.087188 1_555
Li4 O4 2.098792 1_555
Li4 O9 2.148927 1_555
Li4 O12 2.179095 1_555
Li4 O15 2.242066 1_555
Li5 O11 2.014521 1_555
Li5 O13 2.043996 1_565
Li5 O10 2.053554 1_555
Li5 O3 2.222271 1_565
Li5 O2 2.285168 1_565
Li5 O5 2.309578 1_555
Li6 O7 2.093112 1_555
Li6 O1 2.100508 1_455
Li6 O9 2.176235 1_555
Li6 O6 2.205662 1_555
Li6 O15 2.217836 1_455
Li6 O14 2.316668 1_455
Li7 O4 2.011953 1_455
Li7 O6 2.012402 1_555
Li7 O7 2.035110 1_545
Li7 O15 2.155843 1_455
Li7 O14 2.156761 1_445
Li7 O12 2.206157 1_545
Li8 O11 2.037116 1_555
Li8 O6 2.037116 1_555
Li8 O10 2.053390 1_555
Li8 O4 2.053390 1_555
Li8 O8 2.115265 1_555
Li8 O7 2.115265 1_555
Mn0 O0 1.935856 1_656
Mn0 O12 1.935994 1_555
Mn0 O14 1.984122 1_555
Mn0 O5 1.989355 1_556
Mn0 O2 2.094579 1_566
Mn0 O15 2.098801 1_555
Mn1 O15 1.935856 1_454
Mn1 O2 1.935994 1_555
Mn1 O3 1.984122 1_555
Mn1 O9 1.989355 1_554
Mn1 O12 2.094579 1_544
Mn1 O0 2.098801 1_555
Co0 O11 1.906838 1_545
Co0 O6 1.906838 1_555
Co0 O7 1.915809 1_545
Co0 O8 1.915809 1_555
Co0 O1 1.966734 1_545
Co0 O13 1.966734 1_555
Co1 O4 1.913426 1_455
Co1 O10 1.913426 1_555
Co1 O6 2.031099 1_555
Co1 O11 2.031099 1_455
Co1 O1 2.082620 1_455
Co1 O13 2.082620 1_555
Co2 O2 1.929105 1_556
Co2 O15 1.940623 1_555
Co2 O14 1.961324 1_545
Co2 O3 1.961901 1_656
Co2 O5 1.967302 1_556
Co2 O9 1.969227 1_555
Co3 O12 1.929105 1_554
Co3 O0 1.940623 1_555
Co3 O3 1.961324 1_565
Co3 O14 1.961901 1_454
Co3 O9 1.967302 1_554
Co3 O5 1.969227 1_555
Co4 O7 1.942687 1_545
Co4 O8 1.942687 1_455
Co4 O1 2.028535 1_445
Co4 O13 2.028535 1_555
Co4 O10 2.039297 1_545
Co4 O4 2.039297 1_455
