# generated using pymatgen
data_Li2O
_symmetry_space_group_name_H-M   'P 1'
_cell_length_a   10.72756752
_cell_length_b   10.40012540
_cell_length_c   9.37080382
_cell_angle_alpha   90.64512268
_cell_angle_beta   89.05603496
_cell_angle_gamma   93.60072808
_symmetry_Int_Tables_number   1
_chemical_formula_structural   Li2O
_chemical_formula_sum   'Li68 O34'
_cell_volume   1043.22205714
_cell_formula_units_Z   34
loop_
 _symmetry_equiv_pos_site_id
 _symmetry_equiv_pos_as_xyz
  1  'x, y, z'
loop_
 _atom_site_type_symbol
 _atom_site_label
 _atom_site_symmetry_multiplicity
 _atom_site_fract_x
 _atom_site_fract_y
 _atom_site_fract_z
 _atom_site_occupancy
  Li  Li0  1  0.54903000  0.27065200  0.79238100  1
  Li  Li1  1  0.58413700  0.98350100  0.25868100  1
  Li  Li2  1  0.49808300  0.79277200  0.72897100  1
  Li  Li3  1  0.62797800  0.49237700  0.87848600  1
  Li  Li4  1  0.62456100  0.05977800  0.89744400  1
  Li  Li5  1  0.17360700  0.48501100  0.47723500  1
  Li  Li6  1  0.78716500  0.87634500  0.17630100  1
  Li  Li7  1  0.10350200  0.30908700  0.35775700  1
  Li  Li8  1  0.62872100  0.32900800  0.32690800  1
  Li  Li9  1  0.87963300  0.45175500  0.39918000  1
  Li  Li10  1  0.69540000  0.70844000  0.82256500  1
  Li  Li11  1  0.34277800  0.34729300  0.66260000  1
  Li  Li12  1  0.86883600  0.02097000  0.01000600  1
  Li  Li13  1  0.93989400  0.14766600  0.22253300  1
  Li  Li14  1  0.33338900  0.29343800  0.41889400  1
  Li  Li15  1  0.62099200  0.62615800  0.40724200  1
  Li  Li16  1  0.27193100  0.69782900  0.34174700  1
  Li  Li17  1  0.35190600  0.67212100  0.10291700  1
  Li  Li18  1  0.27807300  0.15793800  0.94451500  1
  Li  Li19  1  0.85236900  0.89828600  0.75571500  1
  Li  Li20  1  0.78092400  0.24579200  0.44875300  1
  Li  Li21  1  0.38350100  0.35838500  0.89948200  1
  Li  Li22  1  0.92777100  0.36838900  0.16289700  1
  Li  Li23  1  0.21808000  0.37564400  0.09270100  1
  Li  Li24  1  0.24629800  0.68381900  0.73535800  1
  Li  Li25  1  0.45282900  0.59575700  0.89664000  1
  Li  Li26  1  0.32309600  0.92159900  0.87155300  1
  Li  Li27  1  0.08484100  0.93104600  0.65879900  1
  Li  Li28  1  0.72368400  0.14229600  0.15146700  1
  Li  Li29  1  0.99194700  0.26577200  0.56358500  1
  Li  Li30  1  0.73947100  0.03591400  0.67684400  1
  Li  Li31  1  0.59906900  0.16061800  0.56253200  1
  Li  Li32  1  0.06392300  0.94509900  0.08105900  1
  Li  Li33  1  0.49647800  0.80445200  0.39704900  1
  Li  Li34  1  0.22719700  0.50037600  0.90318200  1
  Li  Li35  1  0.20492000  0.76462700  0.97889900  1
  Li  Li36  1  0.28154800  0.92297500  0.50308600  1
  Li  Li37  1  0.83544100  0.65200400  0.28214000  1
  Li  Li38  1  0.95792700  0.50513100  0.81071700  1
  Li  Li39  1  0.68670100  0.82758400  0.56893500  1
  Li  Li40  1  0.82807400  0.57971500  0.58819900  1
  Li  Li41  1  0.59042100  0.83832200  0.96399300  1
  Li  Li42  1  0.07766400  0.59079500  0.07392400  1
  Li  Li43  1  0.82435900  0.23625800  0.85788300  1
  Li  Li44  1  0.06093700  0.83373000  0.28909100  1
  Li  Li45  1  0.27016700  0.90568500  0.20877800  1
  Li  Li46  1  0.41327700  0.04672900  0.09146100  1
  Li  Li47  1  0.51424700  0.53291000  0.14786900  1
  Li  Li48  1  0.40776400  0.10103600  0.73324300  1
  Li  Li49  1  0.88913700  0.80664600  0.45353700  1
  Li  Li50  1  0.09212100  0.71327700  0.52215000  1
  Li  Li51  1  0.47012700  0.12650100  0.38311000  1
  Li  Li52  1  0.77762600  0.99326900  0.38494400  1
  Li  Li53  1  0.61564300  0.54310300  0.64753200  1
  Li  Li54  1  0.99146500  0.00605600  0.43018300  1
  Li  Li55  1  0.24579900  0.14472500  0.59057000  1
  Li  Li56  1  0.05007400  0.58676300  0.28806400  1
  Li  Li57  1  0.13508500  0.01189400  0.87004900  1
  Li  Li58  1  0.53078300  0.36974500  0.53193300  1
  Li  Li59  1  0.12165000  0.33932500  0.72591700  1
  Li  Li60  1  0.98666500  0.73961400  0.89772600  1
  Li  Li61  1  0.34069900  0.48647400  0.25489700  1
  Li  Li62  1  0.02118600  0.26883600  0.92391700  1
  Li  Li63  1  0.45003300  0.30557500  0.10995000  1
  Li  Li64  1  0.78871700  0.57855500  0.00960700  1
  Li  Li65  1  0.59783900  0.73222000  0.18573000  1
  Li  Li66  1  0.77805800  0.36963600  0.68304400  1
  Li  Li67  1  0.41104100  0.61698200  0.50720700  1
  O  O0  1  0.93950700  0.96610800  0.23102400  1
  O  O1  1  0.55768600  0.69522500  0.57695400  1
  O  O2  1  0.70769200  0.43109900  0.48914400  1
  O  O3  1  0.24615300  0.64149000  0.53833500  1
  O  O4  1  0.90812500  0.54849900  0.14294400  1
  O  O5  1  0.36805200  0.48151400  0.04132500  1
  O  O6  1  0.49054600  0.43806900  0.75102400  1
  O  O7  1  0.68995100  0.19380100  0.73365000  1
  O  O8  1  0.78240100  0.55714500  0.78438900  1
  O  O9  1  0.10676200  0.62100800  0.87201600  1
  O  O10  1  0.45657800  0.18316100  0.94581300  1
  O  O11  1  0.65802700  0.13768000  0.35997800  1
  O  O12  1  0.88076000  0.20958200  0.04744900  1
  O  O13  1  0.94294800  0.63204900  0.44607000  1
  O  O14  1  0.41264400  0.95703900  0.32311000  1
  O  O15  1  0.71406600  0.78575500  0.33298100  1
  O  O16  1  0.20055400  0.31045600  0.89781100  1
  O  O17  1  0.42931100  0.20611700  0.57013400  1
  O  O18  1  0.61965900  0.64092900  0.00753400  1
  O  O19  1  0.18525700  0.30666500  0.54093100  1
  O  O20  1  0.94864900  0.32929200  0.74529900  1
  O  O21  1  0.98213600  0.91746500  0.88626100  1
  O  O22  1  0.16180100  0.44896600  0.26117400  1
  O  O23  1  0.46299100  0.35328500  0.29863200  1
  O  O24  1  0.44870300  0.65146500  0.28710800  1
  O  O25  1  0.25251900  0.00596900  0.71604900  1
  O  O26  1  0.93529700  0.27437400  0.36994200  1
  O  O27  1  0.23800200  0.99640100  0.03439700  1
  O  O28  1  0.85123800  0.95416000  0.56089000  1
  O  O29  1  0.66188000  0.88835900  0.77843700  1
  O  O30  1  0.37401800  0.75550800  0.88444600  1
  O  O31  1  0.10934200  0.89044900  0.46811400  1
  O  O32  1  0.17273300  0.73732500  0.17719500  1
  O  O33  1  0.66558700  0.97599700  0.07944300  1
loop_
_geom_bond_atom_site_label_1
_geom_bond_atom_site_label_2
_geom_bond_distance
_geom_bond_site_symmetry_2
Li0 O7 1.827981 1_555
Li0 O6 1.932838 1_555
Li0 O10 1.935956 1_555
Li1 O33 1.883581 1_555
Li1 O14 1.930884 1_555
Li1 O11 1.982770 1_565
Li2 O1 1.867143 1_555
Li2 O30 1.981969 1_555
Li2 O29 2.021815 1_555
Li3 O8 1.949511 1_555
Li3 O18 1.956763 1_556
Li3 O6 1.964048 1_555
Li4 O33 1.991967 1_546
Li4 O29 2.147649 1_545
Li4 O7 2.163481 1_555
Li4 O10 2.312977 1_555
Li5 O3 1.848387 1_555
Li5 O19 1.966915 1_555
Li5 O22 2.059425 1_555
Li6 O15 1.886438 1_555
Li6 O0 1.905380 1_555
Li6 O33 1.956762 1_555
Li7 O22 1.795358 1_555
Li7 O26 1.819796 1_455
Li7 O19 1.941520 1_555
Li8 O23 1.835272 1_555
Li8 O2 2.012309 1_555
Li8 O11 2.061549 1_555
Li9 O26 1.989087 1_555
Li9 O13 2.000410 1_555
Li9 O2 2.015476 1_555
Li10 O8 1.906748 1_555
Li10 O29 1.976980 1_555
Li10 O18 2.016646 1_556
Li11 O17 1.970864 1_555
Li11 O6 1.982017 1_555
Li11 O19 2.072891 1_555
Li12 O12 1.985388 1_555
Li12 O21 2.017547 1_544
Li12 O33 2.286518 1_545
Li12 O0 2.307057 1_545
Li13 O0 1.890538 1_545
Li13 O26 1.900527 1_555
Li13 O12 1.902179 1_555
Li14 O23 1.856306 1_555
Li14 O19 1.953452 1_555
Li14 O17 2.021529 1_555
Li15 O1 1.872512 1_555
Li15 O15 2.007775 1_555
Li15 O24 2.211090 1_555
Li15 O2 2.421783 1_555
Li16 O3 1.949516 1_555
Li16 O32 1.949897 1_555
Li16 O24 2.041580 1_555
Li17 O24 2.049141 1_555
Li17 O5 2.075295 1_555
Li17 O32 2.178940 1_555
Li17 O30 2.235561 1_554
Li18 O16 1.895374 1_555
Li18 O27 1.909408 1_546
Li18 O10 1.916637 1_555
Li19 O21 1.868138 1_555
Li19 O28 1.922599 1_555
Li19 O29 2.047310 1_555
Li20 O26 1.810823 1_555
Li20 O11 1.877044 1_555
Li20 O2 2.153727 1_555
Li21 O5 1.847996 1_556
Li21 O6 1.947973 1_555
Li21 O16 1.994588 1_555
Li21 O10 2.081464 1_555
Li22 O4 1.909686 1_555
Li22 O12 2.006404 1_555
Li22 O26 2.187381 1_555
Li23 O22 1.854100 1_555
Li23 O5 1.948430 1_555
Li23 O16 1.948766 1_554
Li24 O3 1.893198 1_555
Li24 O9 2.034739 1_555
Li24 O30 2.072738 1_555
Li25 O30 1.916269 1_555
Li25 O5 1.984172 1_556
Li25 O18 2.109077 1_556
Li25 O6 2.174847 1_555
Li26 O30 1.849919 1_555
Li26 O25 1.901362 1_565
Li26 O27 1.945170 1_556
Li27 O31 1.849793 1_555
Li27 O25 1.994218 1_565
Li27 O21 2.384746 1_455
Li28 O33 1.920262 1_545
Li28 O12 2.022944 1_555
Li28 O11 2.066085 1_555
Li29 O20 1.881185 1_555
Li29 O26 1.927921 1_555
Li29 O19 2.098359 1_655
Li30 O7 1.828235 1_555
Li30 O28 1.845394 1_545
Li30 O29 1.949477 1_545
Li31 O7 1.907264 1_555
Li31 O17 1.910122 1_555
Li31 O11 2.007211 1_555
Li32 O0 1.942132 1_455
Li32 O27 1.953565 1_555
Li32 O21 2.047878 1_454
Li33 O24 1.932268 1_555
Li33 O14 2.007922 1_555
Li33 O1 2.176458 1_555
Li33 O15 2.419691 1_555
Li34 O9 1.884877 1_555
Li34 O16 1.978113 1_555
Li34 O5 2.026045 1_556
Li35 O32 1.905559 1_556
Li35 O30 2.012423 1_555
Li35 O9 2.036290 1_555
Li35 O27 2.465202 1_556
Li36 O31 1.890369 1_555
Li36 O25 2.190675 1_565
Li36 O14 2.195536 1_555
Li37 O4 1.873084 1_555
Li37 O13 1.956665 1_555
Li37 O15 2.012318 1_555
Li38 O20 1.919354 1_555
Li38 O8 2.011297 1_555
Li38 O9 2.025958 1_655
Li39 O1 1.890937 1_555
Li39 O29 2.073775 1_555
Li39 O28 2.135443 1_555
Li39 O15 2.266559 1_555
Li40 O13 1.861909 1_555
Li40 O8 1.908057 1_555
Li40 O2 2.162120 1_555
Li41 O33 1.928631 1_556
Li41 O29 1.951476 1_555
Li41 O18 2.140854 1_556
Li41 O30 2.545216 1_555
Li42 O9 1.938452 1_554
Li42 O4 1.945968 1_455
Li42 O32 2.025605 1_555
Li43 O7 1.895522 1_555
Li43 O20 1.908291 1_555
Li43 O12 1.914730 1_556
Li44 O31 1.843869 1_555
Li44 O32 1.904985 1_555
Li44 O0 2.038112 1_455
Li45 O14 1.925552 1_555
Li45 O27 1.942578 1_555
Li45 O32 2.003651 1_555
Li46 O27 1.999637 1_545
Li46 O10 2.007933 1_554
Li46 O14 2.372036 1_545
Li47 O5 1.917399 1_555
Li47 O24 1.938953 1_555
Li47 O18 2.023576 1_555
Li47 O23 2.385991 1_555
Li48 O25 1.890899 1_555
Li48 O17 1.891614 1_555
Li48 O10 2.216184 1_555
Li49 O28 1.887080 1_555
Li49 O13 1.939803 1_555
Li49 O15 2.205397 1_555
Li50 O3 1.864553 1_555
Li50 O13 1.907090 1_455
Li50 O31 1.913352 1_555
Li51 O14 1.911839 1_545
Li51 O17 1.984034 1_555
Li51 O11 2.019982 1_555
Li51 O23 2.502431 1_555
Li52 O28 1.898885 1_555
Li52 O11 2.053377 1_565
Li52 O0 2.268443 1_555
Li52 O15 2.272039 1_555
Li53 O1 1.867521 1_555
Li53 O6 1.931723 1_555
Li53 O2 2.142929 1_555
Li53 O8 2.214674 1_555
Li54 O31 1.840212 1_645
Li54 O28 1.976515 1_545
Li54 O0 1.988470 1_545
Li55 O25 1.877324 1_555
Li55 O19 1.907796 1_555
Li55 O17 2.037724 1_555
Li56 O13 1.931581 1_455
Li56 O22 1.936878 1_555
Li56 O4 2.075191 1_455
Li56 O32 2.235064 1_555
Li57 O21 1.863445 1_445
Li57 O25 1.902956 1_555
Li57 O27 1.923712 1_546
Li58 O17 1.994302 1_555
Li58 O2 1.999543 1_555
Li58 O6 2.209698 1_555
Li58 O23 2.316475 1_555
Li59 O20 1.858269 1_455
Li59 O16 1.867882 1_555
Li59 O19 1.887528 1_555
Li60 O9 1.849904 1_655
Li60 O21 1.857721 1_555
Li61 O22 1.934294 1_555
Li61 O23 2.016560 1_555
Li61 O5 2.018504 1_555
Li61 O24 2.031762 1_555
Li62 O12 1.957324 1_456
Li62 O16 1.957535 1_555
Li62 O20 1.982547 1_455
Li63 O23 1.836135 1_555
Li63 O10 1.988738 1_554
Li63 O5 2.186863 1_555
Li64 O4 1.847045 1_555
Li64 O18 1.964555 1_555
Li64 O8 2.121439 1_554
Li65 O15 1.928935 1_555
Li65 O18 1.929747 1_555
Li65 O24 1.991618 1_555
Li66 O20 2.000628 1_555
Li66 O7 2.061567 1_555
Li66 O2 2.100441 1_555
Li66 O8 2.157630 1_555
Li67 O3 1.821216 1_555
Li67 O1 1.850739 1_555
Li67 O24 2.125270 1_555
