# generated using pymatgen
data_TaCr3(AgS4)2
_symmetry_space_group_name_H-M   'P 1'
_cell_length_a   7.19901855
_cell_length_b   7.19901855
_cell_length_c   7.19901850
_cell_angle_alpha   61.61527715
_cell_angle_beta   61.61527715
_cell_angle_gamma   61.61526892
_symmetry_Int_Tables_number   1
_chemical_formula_structural   TaCr3(AgS4)2
_chemical_formula_sum   'Ta1 Cr3 Ag2 S8'
_cell_volume   273.37624595
_cell_formula_units_Z   1
loop_
 _symmetry_equiv_pos_site_id
 _symmetry_equiv_pos_as_xyz
  1  'x, y, z'
loop_
 _atom_site_type_symbol
 _atom_site_label
 _atom_site_symmetry_multiplicity
 _atom_site_fract_x
 _atom_site_fract_y
 _atom_site_fract_z
 _atom_site_occupancy
  Ta  Ta0  1  0.50000000  0.50000000  0.50000000  1
  Cr  Cr0  1  0.50000000  0.00000000  0.50000000  1
  Cr  Cr1  1  0.50000000  0.50000000  0.00000000  1
  Cr  Cr2  1  0.00000000  0.50000000  0.50000000  1
  Ag  Ag0  1  0.12577300  0.12577300  0.12577300  1
  Ag  Ag1  1  0.87422700  0.87422700  0.87422700  1
  S  S0  1  0.26034100  0.71204900  0.26034100  1
  S  S1  1  0.73965900  0.73965900  0.28795100  1
  S  S2  1  0.28795100  0.73965900  0.73965900  1
  S  S3  1  0.73310900  0.73310900  0.73310900  1
  S  S4  1  0.71204900  0.26034100  0.26034100  1
  S  S5  1  0.26689100  0.26689100  0.26689100  1
  S  S6  1  0.73965900  0.28795100  0.73965900  1
  S  S7  1  0.26034100  0.26034100  0.71204900  1
loop_
_geom_bond_atom_site_label_1
_geom_bond_atom_site_label_2
_geom_bond_distance
_geom_bond_site_symmetry_2
Cr0 S5 2.422881 1_555
Cr0 S3 2.422881 1_545
Cr0 S1 2.441586 1_545
Cr0 S7 2.441586 1_555
Cr0 S2 2.441586 1_545
Cr0 S4 2.441586 1_555
Cr1 S3 2.422881 1_554
Cr1 S5 2.422881 1_555
Cr1 S2 2.441586 1_554
Cr1 S6 2.441586 1_554
Cr1 S0 2.441586 1_555
Cr1 S4 2.441586 1_555
Cr2 S5 2.422881 1_555
Cr2 S3 2.422881 1_455
Cr2 S1 2.441586 1_455
Cr2 S7 2.441586 1_555
Cr2 S6 2.441586 1_455
Cr2 S0 2.441586 1_555
Ag0 S5 2.457652 1_555
Ag0 S0 2.480628 1_545
Ag0 S4 2.480628 1_455
Ag0 S7 2.480628 1_554
Ag1 S3 2.457652 1_555
Ag1 S2 2.480628 1_655
Ag1 S6 2.480628 1_565
Ag1 S1 2.480628 1_556
S0 Ta0 2.470961 1_555
S1 Ta0 2.470962 1_555
S2 Ta0 2.470961 1_555
S4 Ta0 2.470961 1_555
S6 Ta0 2.470961 1_555
S7 Ta0 2.470962 1_555
