# generated using pymatgen
data_CaCr2O2
_symmetry_space_group_name_H-M   'P 1'
_cell_length_a   7.71516643
_cell_length_b   7.71516643
_cell_length_c   7.71516643
_cell_angle_alpha   125.43273533
_cell_angle_beta   125.43273533
_cell_angle_gamma   80.82249671
_symmetry_Int_Tables_number   1
_chemical_formula_structural   CaCr2O2
_chemical_formula_sum   'Ca4 Cr8 O8'
_cell_volume   293.89764575
_cell_formula_units_Z   4
loop_
 _symmetry_equiv_pos_site_id
 _symmetry_equiv_pos_as_xyz
  1  'x, y, z'
loop_
 _atom_site_type_symbol
 _atom_site_label
 _atom_site_symmetry_multiplicity
 _atom_site_fract_x
 _atom_site_fract_y
 _atom_site_fract_z
 _atom_site_occupancy
  Ca  Ca0  1  0.87500000  0.12500000  0.25000000  1
  Ca  Ca1  1  0.87500000  0.62500000  0.75000000  1
  Ca  Ca2  1  0.37500000  0.12500000  0.25000000  1
  Ca  Ca3  1  0.87500000  0.12500000  0.75000000  1
  Cr  Cr0  1  0.48394400  0.20408000  0.72013600  1
  Cr  Cr1  1  0.48394400  0.76380800  0.27986400  1
  Cr  Cr2  1  0.51380800  0.73394400  0.77986400  1
  Cr  Cr3  1  0.26605600  0.48619200  0.22013600  1
  Cr  Cr4  1  0.26605600  0.04592000  0.77986400  1
  Cr  Cr5  1  0.95408000  0.73394400  0.22013600  1
  Cr  Cr6  1  0.23619200  0.51605600  0.72013600  1
  Cr  Cr7  1  0.79592000  0.51605600  0.27986400  1
  O  O0  1  0.66482900  0.41847800  0.75364900  1
  O  O1  1  0.66482900  0.91118000  0.24635100  1
  O  O2  1  0.66118000  0.91482900  0.74635100  1
  O  O3  1  0.08517100  0.33882000  0.25364900  1
  O  O4  1  0.08517100  0.83152200  0.74635100  1
  O  O5  1  0.16847800  0.91482900  0.25364900  1
  O  O6  1  0.08882000  0.33517100  0.75364900  1
  O  O7  1  0.58152200  0.33517100  0.24635100  1
loop_
_geom_bond_atom_site_label_1
_geom_bond_atom_site_label_2
_geom_bond_distance
_geom_bond_site_symmetry_2
Ca0 O3 2.469397 1_655
Ca0 O1 2.469397 1_545
Ca0 O5 2.562164 1_645
Ca0 O6 2.562164 1_655
Ca0 O2 2.562164 1_544
Ca0 O7 2.562164 1_555
Ca1 O4 2.469397 1_655
Ca1 O0 2.469397 1_555
Ca1 O6 2.562164 1_655
Ca1 O7 2.562164 1_555
Ca1 O2 2.562164 1_555
Ca1 O5 2.562164 1_656
Ca2 O5 2.469397 1_545
Ca2 O7 2.469397 1_555
Ca2 O4 2.562164 1_544
Ca2 O3 2.562164 1_555
Ca2 O1 2.562164 1_545
Ca2 O0 2.562164 1_555
Ca3 O6 2.469397 1_655
Ca3 O2 2.469397 1_545
Ca3 O4 2.562164 1_645
Ca3 O3 2.562164 1_656
Ca3 O1 2.562164 1_545
Ca3 O0 2.562164 1_555
Cr0 O0 2.138366 1_555
Cr0 O5 2.473883 1_545
Cr0 O2 2.473883 1_545
Cr1 O1 2.138366 1_555
Cr1 O2 2.473883 1_555
Cr1 O5 2.473883 1_555
Cr2 O2 2.138366 1_555
Cr2 O0 2.473883 1_555
Cr2 O1 2.473883 1_556
Cr3 O3 2.138366 1_555
Cr3 O7 2.473883 1_555
Cr3 O6 2.473883 1_554
Cr4 O4 2.138366 1_545
Cr4 O6 2.473883 1_555
Cr4 O7 2.473883 1_556
Cr5 O5 2.138366 1_655
Cr5 O1 2.473883 1_555
Cr5 O0 2.473883 1_554
Cr6 O6 2.138366 1_555
Cr6 O4 2.473883 1_555
Cr6 O3 2.473883 1_555
Cr7 O7 2.138366 1_555
Cr7 O3 2.473883 1_655
Cr7 O4 2.473883 1_655
