# generated using pymatgen
data_Zn2NiP2(H2O3)4
_symmetry_space_group_name_H-M   'P 1'
_cell_length_a   5.04728900
_cell_length_b   10.63600300
_cell_length_c   18.93524600
_cell_angle_alpha   90.00000000
_cell_angle_beta   90.00000000
_cell_angle_gamma   90.00000000
_symmetry_Int_Tables_number   1
_chemical_formula_structural   Zn2NiP2(H2O3)4
_chemical_formula_sum   'Zn8 Ni4 P8 H32 O48'
_cell_volume   1016.50045022
_cell_formula_units_Z   4
loop_
 _symmetry_equiv_pos_site_id
 _symmetry_equiv_pos_as_xyz
  1  'x, y, z'
loop_
 _atom_site_type_symbol
 _atom_site_label
 _atom_site_symmetry_multiplicity
 _atom_site_fract_x
 _atom_site_fract_y
 _atom_site_fract_z
 _atom_site_occupancy
  Zn  Zn0  1  0.27506900  0.64226900  0.50188100  1
  Zn  Zn1  1  0.22493100  0.14226900  0.99811900  1
  Zn  Zn2  1  0.72493100  0.35773100  0.00188100  1
  Zn  Zn3  1  0.77506900  0.85773100  0.49811900  1
  Zn  Zn4  1  0.72493100  0.35773100  0.49811900  1
  Zn  Zn5  1  0.77506900  0.85773100  0.00188100  1
  Zn  Zn6  1  0.27506900  0.64226900  0.99811900  1
  Zn  Zn7  1  0.22493100  0.14226900  0.50188100  1
  Ni  Ni0  1  0.06413000  0.26602400  0.75000000  1
  Ni  Ni1  1  0.43587000  0.76602400  0.75000000  1
  Ni  Ni2  1  0.93587000  0.73397600  0.25000000  1
  Ni  Ni3  1  0.56413000  0.23397600  0.25000000  1
  P  P0  1  0.23074300  0.39821100  0.59446100  1
  P  P1  1  0.26925700  0.89821100  0.90553900  1
  P  P2  1  0.76925700  0.60178900  0.09446100  1
  P  P3  1  0.73074300  0.10178900  0.40553900  1
  P  P4  1  0.76925700  0.60178900  0.40553900  1
  P  P5  1  0.73074300  0.10178900  0.09446100  1
  P  P6  1  0.23074300  0.39821100  0.90553900  1
  P  P7  1  0.26925700  0.89821100  0.59446100  1
  H  H0  1  0.63549700  0.39585700  0.79007700  1
  H  H1  1  0.86450300  0.89585700  0.70992300  1
  H  H2  1  0.36450300  0.60414300  0.29007700  1
  H  H3  1  0.13549700  0.10414300  0.20992300  1
  H  H4  1  0.36450300  0.60414300  0.20992300  1
  H  H5  1  0.13549700  0.10414300  0.29007700  1
  H  H6  1  0.63549700  0.39585700  0.70992300  1
  H  H7  1  0.86450300  0.89585700  0.79007700  1
  H  H8  1  0.36396200  0.06817300  0.79058700  1
  H  H9  1  0.13603800  0.56817300  0.70941300  1
  H  H10  1  0.63603800  0.93182700  0.29058700  1
  H  H11  1  0.86396200  0.43182700  0.20941300  1
  H  H12  1  0.63603800  0.93182700  0.20941300  1
  H  H13  1  0.86396200  0.43182700  0.29058700  1
  H  H14  1  0.36396200  0.06817300  0.70941300  1
  H  H15  1  0.13603800  0.56817300  0.79058700  1
  H  H16  1  0.93898500  0.11634100  0.63621300  1
  H  H17  1  0.56101500  0.61634100  0.86378700  1
  H  H18  1  0.06101500  0.88365900  0.13621300  1
  H  H19  1  0.43898500  0.38365900  0.36378700  1
  H  H20  1  0.06101500  0.88365900  0.36378700  1
  H  H21  1  0.43898500  0.38365900  0.13621300  1
  H  H22  1  0.93898500  0.11634100  0.86378700  1
  H  H23  1  0.56101500  0.61634100  0.63621300  1
  H  H24  1  0.70303700  0.21306000  0.65296000  1
  H  H25  1  0.79696300  0.71306000  0.84704000  1
  H  H26  1  0.29696300  0.78694000  0.15296000  1
  H  H27  1  0.20303700  0.28694000  0.34704000  1
  H  H28  1  0.29696300  0.78694000  0.34704000  1
  H  H29  1  0.20303700  0.28694000  0.15296000  1
  H  H30  1  0.70303700  0.21306000  0.84704000  1
  H  H31  1  0.79696300  0.71306000  0.65296000  1
  O  O0  1  0.29302800  0.36070500  0.67089400  1
  O  O1  1  0.20697200  0.86070500  0.82910600  1
  O  O2  1  0.70697200  0.63929500  0.17089400  1
  O  O3  1  0.79302800  0.13929500  0.32910600  1
  O  O4  1  0.70697200  0.63929500  0.32910600  1
  O  O5  1  0.79302800  0.13929500  0.17089400  1
  O  O6  1  0.29302800  0.36070500  0.82910600  1
  O  O7  1  0.20697200  0.86070500  0.67089400  1
  O  O8  1  0.35153200  0.53135500  0.58038600  1
  O  O9  1  0.14846800  0.03135500  0.91961400  1
  O  O10  1  0.64846800  0.46864500  0.08038600  1
  O  O11  1  0.85153200  0.96864500  0.41961400  1
  O  O12  1  0.64846800  0.46864500  0.41961400  1
  O  O13  1  0.85153200  0.96864500  0.08038600  1
  O  O14  1  0.35153200  0.53135500  0.91961400  1
  O  O15  1  0.14846800  0.03135500  0.58038600  1
  O  O16  1  0.06897200  0.60108000  0.41991900  1
  O  O17  1  0.43102800  0.10108000  0.08008100  1
  O  O18  1  0.93102800  0.39892000  0.91991900  1
  O  O19  1  0.56897200  0.89892000  0.58008100  1
  O  O20  1  0.93102800  0.39892000  0.58008100  1
  O  O21  1  0.56897200  0.89892000  0.91991900  1
  O  O22  1  0.06897200  0.60108000  0.08008100  1
  O  O23  1  0.43102800  0.10108000  0.41991900  1
  O  O24  1  0.62955900  0.69474600  0.46009900  1
  O  O25  1  0.87044100  0.19474600  0.03990100  1
  O  O26  1  0.37044100  0.30525400  0.96009900  1
  O  O27  1  0.12955900  0.80525400  0.53990100  1
  O  O28  1  0.37044100  0.30525400  0.53990100  1
  O  O29  1  0.12955900  0.80525400  0.96009900  1
  O  O30  1  0.62955900  0.69474600  0.03990100  1
  O  O31  1  0.87044100  0.19474600  0.46009900  1
  O  O32  1  0.76063700  0.39768600  0.75000000  1
  O  O33  1  0.73936300  0.89768600  0.75000000  1
  O  O34  1  0.23936300  0.60231400  0.25000000  1
  O  O35  1  0.26063700  0.10231400  0.25000000  1
  O  O36  1  0.33952900  0.12341600  0.75000000  1
  O  O37  1  0.16047100  0.62341600  0.75000000  1
  O  O38  1  0.66047100  0.87658400  0.25000000  1
  O  O39  1  0.83952900  0.37658400  0.25000000  1
  O  O40  1  0.84828200  0.16578700  0.67358600  1
  O  O41  1  0.65171800  0.66578700  0.82641400  1
  O  O42  1  0.15171800  0.83421300  0.17358600  1
  O  O43  1  0.34828200  0.33421300  0.32641400  1
  O  O44  1  0.15171800  0.83421300  0.32641400  1
  O  O45  1  0.34828200  0.33421300  0.17358600  1
  O  O46  1  0.84828200  0.16578700  0.82641400  1
  O  O47  1  0.65171800  0.66578700  0.67358600  1
loop_
_geom_bond_atom_site_label_1
_geom_bond_atom_site_label_2
_geom_bond_distance
_geom_bond_site_symmetry_2
Ni0 O36 2.057370 1_555
Ni0 O32 2.075443 1_455
Ni0 O40 2.101685 1_455
Ni0 O46 2.101685 1_455
Ni0 O6 2.143020 1_555
Ni0 O0 2.143020 1_555
Ni1 O37 2.057370 1_555
Ni1 O33 2.075443 1_555
Ni1 O41 2.101685 1_555
Ni1 O47 2.101685 1_555
Ni1 O7 2.143020 1_555
Ni1 O1 2.143020 1_555
Ni2 O38 2.057370 1_555
Ni2 O34 2.075443 1_655
Ni2 O44 2.101685 1_655
Ni2 O42 2.101685 1_655
Ni2 O2 2.143020 1_555
Ni2 O4 2.143020 1_555
Ni3 O39 2.057370 1_555
Ni3 O35 2.075443 1_555
Ni3 O43 2.101685 1_555
Ni3 O45 2.101685 1_555
Ni3 O5 2.143020 1_555
Ni3 O3 2.143020 1_555
H0 O32 0.987522 1_555
H1 O33 0.987522 1_555
H2 O34 0.987522 1_555
H3 O35 0.987522 1_555
H4 O34 0.987522 1_555
H5 O35 0.987522 1_555
H6 O32 0.987522 1_555
H7 O33 0.987522 1_555
H8 O36 0.975229 1_555
H9 O37 0.975229 1_555
H10 O38 0.975229 1_555
H11 O39 0.975229 1_555
H12 O38 0.975229 1_555
H13 O39 0.975229 1_555
H14 O36 0.975229 1_555
H15 O37 0.975229 1_555
H16 O40 0.993457 1_555
H17 O41 0.993457 1_555
H18 O42 0.993457 1_555
H19 O43 0.993457 1_555
H20 O44 0.993457 1_555
H21 O45 0.993457 1_555
H22 O46 0.993457 1_555
H23 O47 0.993457 1_555
H24 O40 0.970961 1_555
H25 O41 0.970961 1_555
H26 O42 0.970961 1_555
H27 O43 0.970961 1_555
H28 O44 0.970961 1_555
H29 O45 0.970961 1_555
H30 O46 0.970961 1_555
H31 O47 0.970961 1_555
O0 P0 1.533810 1_555
O1 P1 1.533810 1_555
O2 P2 1.533810 1_555
O3 P3 1.533810 1_555
O4 P4 1.533810 1_555
O5 P5 1.533810 1_555
O6 P6 1.533810 1_555
O7 P7 1.533810 1_555
O8 P0 1.564643 1_555
O8 Zn0 1.936571 1_555
O9 P1 1.564643 1_545
O9 Zn1 1.936571 1_555
O10 P2 1.564643 1_555
O10 Zn2 1.936571 1_555
O11 P3 1.564643 1_565
O11 Zn3 1.936571 1_555
O12 P4 1.564643 1_555
O12 Zn4 1.936571 1_555
O13 P5 1.564643 1_565
O13 Zn5 1.936571 1_555
O14 P6 1.564643 1_555
O14 Zn6 1.936571 1_555
O15 P7 1.564643 1_545
O15 Zn7 1.936571 1_555
O16 P4 1.537077 1_455
O16 Zn0 1.919014 1_555
O17 P5 1.537077 1_555
O17 Zn1 1.919014 1_554
O18 P6 1.537077 1_655
O18 Zn2 1.919014 1_556
O19 P7 1.537077 1_555
O19 Zn3 1.919014 1_555
O20 P0 1.537077 1_655
O20 Zn4 1.919014 1_555
O21 P1 1.537077 1_555
O21 Zn5 1.919014 1_556
O22 P2 1.537077 1_455
O22 Zn6 1.919014 1_554
O23 P3 1.537077 1_555
O23 Zn7 1.919014 1_555
O24 P4 1.594359 1_555
O24 Zn3 2.015620 1_555
O24 Zn0 2.034388 1_555
O25 P5 1.594359 1_555
O25 Zn2 2.015620 1_555
O25 Zn1 2.034388 1_654
O26 P6 1.594359 1_555
O26 Zn1 2.015620 1_555
O26 Zn2 2.034388 1_556
O27 P7 1.594359 1_555
O27 Zn0 2.015620 1_555
O27 Zn3 2.034388 1_455
O28 P0 1.594359 1_555
O28 Zn7 2.015620 1_555
O28 Zn4 2.034388 1_555
O29 P1 1.594359 1_555
O29 Zn6 2.015620 1_555
O29 Zn5 2.034388 1_456
O30 P2 1.594359 1_555
O30 Zn5 2.015620 1_555
O30 Zn6 2.034388 1_554
O31 P3 1.594359 1_555
O31 Zn4 2.015620 1_555
O31 Zn7 2.034388 1_655
