# generated using pymatgen
data_BaLa2Ti3O10
_symmetry_space_group_name_H-M   'P 1'
_cell_length_a   14.49959710
_cell_length_b   14.49959710
_cell_length_c   7.74441300
_cell_angle_alpha   90.00000000
_cell_angle_beta   90.00000000
_cell_angle_gamma   164.45632388
_symmetry_Int_Tables_number   1
_chemical_formula_structural   BaLa2Ti3O10
_chemical_formula_sum   'Ba2 La4 Ti6 O20'
_cell_volume   436.30601079
_cell_formula_units_Z   2
loop_
 _symmetry_equiv_pos_site_id
 _symmetry_equiv_pos_as_xyz
  1  'x, y, z'
loop_
 _atom_site_type_symbol
 _atom_site_label
 _atom_site_symmetry_multiplicity
 _atom_site_fract_x
 _atom_site_fract_y
 _atom_site_fract_z
 _atom_site_occupancy
  Ba  Ba0  1  0.73498200  0.26501800  0.75000000  1
  Ba  Ba1  1  0.26501800  0.73498200  0.25000000  1
  La  La0  1  0.42305900  0.57694100  0.75000000  1
  La  La1  1  0.57694100  0.42305900  0.25000000  1
  La  La2  1  0.57449500  0.42550500  0.75000000  1
  La  La3  1  0.42550500  0.57449500  0.25000000  1
  Ti  Ti0  1  0.00000000  0.00000000  0.00000000  1
  Ti  Ti1  1  0.00000000  0.00000000  0.50000000  1
  Ti  Ti2  1  0.85322100  0.14677900  0.00076800  1
  Ti  Ti3  1  0.14677900  0.85322100  0.99923200  1
  Ti  Ti4  1  0.85322100  0.14677900  0.49923200  1
  Ti  Ti5  1  0.14677900  0.85322100  0.50076800  1
  O  O0  1  0.50000000  0.50000000  0.00000000  1
  O  O1  1  0.50000000  0.50000000  0.50000000  1
  O  O2  1  0.00368300  0.99631700  0.75000000  1
  O  O3  1  0.99631700  0.00368300  0.25000000  1
  O  O4  1  0.12917900  0.87082100  0.75000000  1
  O  O5  1  0.87082100  0.12917900  0.25000000  1
  O  O6  1  0.86308200  0.13691800  0.75000000  1
  O  O7  1  0.13691800  0.86308200  0.25000000  1
  O  O8  1  0.93242300  0.06757700  0.98672400  1
  O  O9  1  0.06757700  0.93242300  0.01327600  1
  O  O10  1  0.93242300  0.06757700  0.51327600  1
  O  O11  1  0.06757700  0.93242300  0.48672400  1
  O  O12  1  0.79209000  0.20791000  0.02778800  1
  O  O13  1  0.20791000  0.79209000  0.97221200  1
  O  O14  1  0.79209000  0.20791000  0.47221200  1
  O  O15  1  0.20791000  0.79209000  0.52778800  1
  O  O16  1  0.36711100  0.63288900  0.00366600  1
  O  O17  1  0.63288900  0.36711100  0.99633400  1
  O  O18  1  0.36711100  0.63288900  0.49633400  1
  O  O19  1  0.63288900  0.36711100  0.50366600  1
loop_
_geom_bond_atom_site_label_1
_geom_bond_atom_site_label_2
_geom_bond_distance
_geom_bond_site_symmetry_2
Ba0 O12 2.705657 1_556
Ba0 O14 2.705657 1_555
Ba0 O15 2.722341 1_655
Ba0 O15 2.722341 1_545
Ba0 O13 2.722341 1_545
Ba0 O13 2.722341 1_655
Ba1 O15 2.705657 1_555
Ba1 O13 2.705657 1_554
Ba1 O14 2.722341 1_565
Ba1 O12 2.722341 1_565
Ba1 O14 2.722341 1_455
Ba1 O12 2.722341 1_455
La0 O16 2.538392 1_556
La0 O18 2.538392 1_555
La0 O6 2.610435 1_455
La0 O6 2.610435 1_565
La0 O10 2.697761 1_565
La0 O8 2.697761 1_565
La0 O10 2.697761 1_455
La0 O8 2.697761 1_455
La0 O0 2.938679 1_556
La0 O1 2.938679 1_555
La0 O2 3.034964 1_655
La0 O2 3.034964 1_545
La1 O19 2.538392 1_555
La1 O17 2.538392 1_554
La1 O7 2.610435 1_545
La1 O7 2.610435 1_655
La1 O11 2.697761 1_655
La1 O9 2.697761 1_655
La1 O9 2.697761 1_545
La1 O11 2.697761 1_545
La1 O1 2.938679 1_555
La1 O0 2.938679 1_555
La1 O3 3.034964 1_455
La1 O3 3.034964 1_565
La2 O4 2.512634 1_545
La2 O4 2.512634 1_655
La2 O17 2.540563 1_555
La2 O19 2.540563 1_555
La2 O2 2.825649 1_655
La2 O2 2.825649 1_545
La2 O11 2.835715 1_545
La2 O11 2.835715 1_655
La2 O9 2.835715 1_546
La2 O9 2.835715 1_656
La2 O0 2.886179 1_556
La2 O1 2.886179 1_555
La3 O5 2.512634 1_565
La3 O5 2.512634 1_455
La3 O18 2.540563 1_555
La3 O16 2.540563 1_555
La3 O3 2.825649 1_565
La3 O3 2.825649 1_455
La3 O10 2.835715 1_455
La3 O8 2.835715 1_454
La3 O8 2.835715 1_564
La3 O10 2.835715 1_565
La3 O0 2.886179 1_555
La3 O1 2.886179 1_555
O0 Ti0 1.960760 1_665
O0 Ti0 1.960760 1_555
O1 Ti1 1.960760 1_665
O1 Ti1 1.960760 1_555
O2 Ti1 1.938993 1_565
O2 Ti0 1.938993 1_566
O3 Ti0 1.938993 1_655
O3 Ti1 1.938993 1_655
O4 Ti5 1.995302 1_555
O4 Ti3 1.995302 1_555
O5 Ti4 1.995302 1_555
O5 Ti2 1.995302 1_555
O6 Ti4 1.962611 1_555
O6 Ti2 1.962611 1_556
O7 Ti5 1.962611 1_555
O7 Ti3 1.962611 1_554
O8 Ti0 1.944398 1_656
O8 Ti2 2.278294 1_556
O9 Ti0 1.944398 1_565
O9 Ti3 2.278294 1_554
O10 Ti1 1.944398 1_655
O10 Ti4 2.278294 1_555
O11 Ti1 1.944398 1_565
O11 Ti5 2.278294 1_555
O12 Ti2 1.768887 1_555
O13 Ti3 1.768887 1_555
O14 Ti4 1.768887 1_555
O15 Ti5 1.768887 1_555
O16 Ti2 2.001091 1_565
O16 Ti2 2.001091 1_455
O17 Ti3 2.001091 1_655
O17 Ti3 2.001091 1_545
O18 Ti4 2.001091 1_565
O18 Ti4 2.001091 1_455
O19 Ti5 2.001091 1_655
O19 Ti5 2.001091 1_545
