# generated using pymatgen
data_K4H6W2S2O9
_symmetry_space_group_name_H-M   'P 1'
_cell_length_a   6.57171616
_cell_length_b   6.57171616
_cell_length_c   19.01911481
_cell_angle_alpha   82.89493883
_cell_angle_beta   82.89493883
_cell_angle_gamma   79.78925156
_symmetry_Int_Tables_number   1
_chemical_formula_structural   K4H6W2S2O9
_chemical_formula_sum   'K8 H12 W4 S4 O18'
_cell_volume   797.80400508
_cell_formula_units_Z   2
loop_
 _symmetry_equiv_pos_site_id
 _symmetry_equiv_pos_as_xyz
  1  'x, y, z'
loop_
 _atom_site_type_symbol
 _atom_site_label
 _atom_site_symmetry_multiplicity
 _atom_site_fract_x
 _atom_site_fract_y
 _atom_site_fract_z
 _atom_site_occupancy
  K  K0  1  0.19510300  0.22162200  0.71631600  1
  K  K1  1  0.77837800  0.80489700  0.78368400  1
  K  K2  1  0.80489700  0.77837800  0.28368400  1
  K  K3  1  0.22162200  0.19510300  0.21631600  1
  K  K4  1  0.12920900  0.73785600  0.56123200  1
  K  K5  1  0.26214400  0.87079100  0.93876800  1
  K  K6  1  0.87079100  0.26214400  0.43876800  1
  K  K7  1  0.73785600  0.12920900  0.06123200  1
  H  H0  1  0.79083800  0.71951800  0.96098300  1
  H  H1  1  0.28048200  0.20916200  0.53901700  1
  H  H2  1  0.20916200  0.28048200  0.03901700  1
  H  H3  1  0.71951800  0.79083800  0.46098300  1
  H  H4  1  0.93277900  0.55323700  0.91751600  1
  H  H5  1  0.44676300  0.06722100  0.58248400  1
  H  H6  1  0.06722100  0.44676300  0.08248400  1
  H  H7  1  0.55323700  0.93277900  0.41751600  1
  H  H8  1  0.29342300  0.72068500  0.78956500  1
  H  H9  1  0.27931500  0.70657700  0.71043500  1
  H  H10  1  0.70657700  0.27931500  0.21043500  1
  H  H11  1  0.72068500  0.29342300  0.28956500  1
  W  W0  1  0.69026600  0.45800400  0.62049400  1
  W  W1  1  0.54199600  0.30973400  0.87950600  1
  W  W2  1  0.30973400  0.54199600  0.37950600  1
  W  W3  1  0.45800400  0.69026600  0.12049400  1
  S  S0  1  0.10715400  0.75754400  0.12376100  1
  S  S1  1  0.24245600  0.89284600  0.37623900  1
  S  S2  1  0.89284600  0.24245600  0.87623900  1
  S  S3  1  0.75754400  0.10715400  0.62376100  1
  O  O0  1  0.85819400  0.53949800  0.67584500  1
  O  O1  1  0.46050200  0.14180600  0.82415500  1
  O  O2  1  0.14180600  0.46050200  0.32415500  1
  O  O3  1  0.53949800  0.85819400  0.17584500  1
  O  O4  1  0.75160000  0.56862200  0.53004400  1
  O  O5  1  0.43137800  0.24840000  0.96995600  1
  O  O6  1  0.24840000  0.43137800  0.46995600  1
  O  O7  1  0.56862200  0.75160000  0.03004400  1
  O  O8  1  0.41691600  0.54149400  0.64991200  1
  O  O9  1  0.45850600  0.58308400  0.85008800  1
  O  O10  1  0.58308400  0.45850600  0.35008800  1
  O  O11  1  0.54149400  0.41691600  0.14991200  1
  O  O12  1  0.91430900  0.70140600  0.92530700  1
  O  O13  1  0.29859400  0.08569100  0.57469300  1
  O  O14  1  0.08569100  0.29859400  0.07469300  1
  O  O15  1  0.70140600  0.91430900  0.42530700  1
  O  O16  1  0.21128200  0.78871800  0.75000000  1
  O  O17  1  0.78871800  0.21128200  0.25000000  1
loop_
_geom_bond_atom_site_label_1
_geom_bond_atom_site_label_2
_geom_bond_distance
_geom_bond_site_symmetry_2
K0 O1 2.796098 1_555
K0 O16 2.823836 1_545
K0 O8 2.848328 1_555
K0 O0 2.870971 1_455
K0 O13 2.905576 1_555
K0 S2 3.424564 1_455
K1 O0 2.796098 1_555
K1 O16 2.823836 1_655
K1 O9 2.848328 1_555
K1 O1 2.870971 1_565
K1 O12 2.905576 1_555
K1 S3 3.424564 1_565
K2 O3 2.796098 1_555
K2 O17 2.823836 1_565
K2 O10 2.848328 1_555
K2 O2 2.870971 1_655
K2 O15 2.905576 1_555
K2 S0 3.424564 1_655
K3 O2 2.796098 1_555
K3 O17 2.823836 1_455
K3 O11 2.848328 1_555
K3 O3 2.870971 1_545
K3 O14 2.905576 1_555
K3 S1 3.424564 1_545
K4 O8 2.733164 1_555
K4 O13 2.765369 1_565
K4 O6 2.766402 1_555
K4 O0 2.963579 1_455
K4 O4 3.041806 1_455
K4 S3 3.341223 1_465
K4 S1 3.564401 1_555
K5 O9 2.733164 1_555
K5 O12 2.765369 1_455
K5 O7 2.766402 1_556
K5 O1 2.963579 1_565
K5 O5 3.041806 1_565
K5 S2 3.341223 1_465
K5 S0 3.564401 1_556
K6 O10 2.733164 1_555
K6 O15 2.765369 1_545
K6 O4 2.766402 1_555
K6 O2 2.963579 1_655
K6 O6 3.041806 1_655
K6 S1 3.341223 1_645
K6 S3 3.564401 1_555
K7 O11 2.733164 1_555
K7 O14 2.765369 1_655
K7 O5 2.766402 1_554
K7 O3 2.963579 1_545
K7 O7 3.041806 1_545
K7 S0 3.341223 1_645
K7 S2 3.564401 1_554
H0 O12 0.991212 1_555
H1 O13 0.991212 1_555
H2 O14 0.991212 1_555
H3 O15 0.991212 1_555
H4 O12 0.987000 1_555
H5 O13 0.987000 1_555
H6 O14 0.987000 1_555
H7 O15 0.987000 1_555
H8 O16 0.994596 1_555
H8 O9 1.738766 1_555
H9 O16 0.994596 1_555
H9 O8 1.738766 1_555
H10 O17 0.994596 1_555
H10 O11 1.738766 1_555
H11 O17 0.994596 1_555
H11 O10 1.738766 1_555
S0 W3 2.263949 1_555
S1 W2 2.263949 1_555
S2 W1 2.263949 1_555
S3 W0 2.263949 1_555
O0 W0 1.802592 1_555
O1 W1 1.802592 1_555
O2 W2 1.802592 1_555
O3 W3 1.802592 1_555
O4 W0 1.809219 1_555
O5 W1 1.809219 1_555
O6 W2 1.809219 1_555
O7 W3 1.809219 1_555
O8 W0 1.821792 1_555
O9 W1 1.821792 1_555
O10 W2 1.821792 1_555
O11 W3 1.821792 1_555
