# generated using pymatgen
data_MnBP(HO3)2
_symmetry_space_group_name_H-M   'P 1'
_cell_length_a   7.69718633
_cell_length_b   7.69718633
_cell_length_c   12.96768200
_cell_angle_alpha   90.00000000
_cell_angle_beta   90.00000000
_cell_angle_gamma   120.00000288
_symmetry_Int_Tables_number   1
_chemical_formula_structural   MnBP(HO3)2
_chemical_formula_sum   'Mn6 B6 P6 H12 O36'
_cell_volume   665.36043344
_cell_formula_units_Z   6
loop_
 _symmetry_equiv_pos_site_id
 _symmetry_equiv_pos_as_xyz
  1  'x, y, z'
loop_
 _atom_site_type_symbol
 _atom_site_label
 _atom_site_symmetry_multiplicity
 _atom_site_fract_x
 _atom_site_fract_y
 _atom_site_fract_z
 _atom_site_occupancy
  Mn  Mn0  1  0.87729100  0.00000000  0.66666700  1
  Mn  Mn1  1  0.00000000  0.87729100  0.33333300  1
  Mn  Mn2  1  0.12270900  0.12270900  0.00000000  1
  Mn  Mn3  1  0.25434500  0.25434500  0.50000000  1
  Mn  Mn4  1  0.74565500  0.00000000  0.16666700  1
  Mn  Mn5  1  0.00000000  0.74565500  0.83333300  1
  B  B0  1  0.31276100  0.55512600  0.87252500  1
  B  B1  1  0.44487400  0.75763500  0.53919100  1
  B  B2  1  0.24236500  0.68723900  0.20585800  1
  B  B3  1  0.55512600  0.31276100  0.12747500  1
  B  B4  1  0.75763500  0.44487400  0.46080900  1
  B  B5  1  0.68723900  0.24236500  0.79414200  1
  P  P0  1  0.33005600  0.24953000  0.76521900  1
  P  P1  1  0.75047000  0.08052600  0.43188500  1
  P  P2  1  0.91947400  0.66994400  0.09855200  1
  P  P3  1  0.24953000  0.33005600  0.23478100  1
  P  P4  1  0.08052600  0.75047000  0.56811500  1
  P  P5  1  0.66994400  0.91947400  0.90144800  1
  H  H0  1  0.59464100  0.31307500  0.59426600  1
  H  H1  1  0.68692500  0.28156700  0.26093300  1
  H  H2  1  0.71843300  0.40535900  0.92759900  1
  H  H3  1  0.31307500  0.59464100  0.40573400  1
  H  H4  1  0.28156700  0.68692500  0.73906700  1
  H  H5  1  0.40535900  0.71843300  0.07240100  1
  H  H6  1  0.58137600  0.62853700  0.61874700  1
  H  H7  1  0.37146300  0.95283800  0.28541400  1
  H  H8  1  0.04716200  0.41862400  0.95208000  1
  H  H9  1  0.62853700  0.58137600  0.38125300  1
  H  H10  1  0.95283800  0.37146300  0.71458600  1
  H  H11  1  0.41862400  0.04716200  0.04792000  1
  O  O0  1  0.58091800  0.36905700  0.52821200  1
  O  O1  1  0.63094300  0.21186000  0.19487900  1
  O  O2  1  0.78814000  0.41908200  0.86154600  1
  O  O3  1  0.36905700  0.58091800  0.47178800  1
  O  O4  1  0.21186000  0.63094300  0.80512100  1
  O  O5  1  0.41908200  0.78814000  0.13845400  1
  O  O6  1  0.58719100  0.75741900  0.61383000  1
  O  O7  1  0.24258100  0.82977200  0.28049600  1
  O  O8  1  0.17022800  0.41280900  0.94716300  1
  O  O9  1  0.75741900  0.58719100  0.38617000  1
  O  O10  1  0.82977200  0.24258100  0.71950400  1
  O  O11  1  0.41280900  0.17022800  0.05283700  1
  O  O12  1  0.20862100  0.22685700  0.66648100  1
  O  O13  1  0.77314300  0.98176400  0.33314700  1
  O  O14  1  0.01823600  0.79137900  0.99981400  1
  O  O15  1  0.22685700  0.20862100  0.33351900  1
  O  O16  1  0.98176400  0.77314300  0.66685300  1
  O  O17  1  0.79137900  0.01823600  0.00018600  1
  O  O18  1  0.40919100  0.46189500  0.81328400  1
  O  O19  1  0.53810500  0.94729700  0.47995100  1
  O  O20  1  0.05270300  0.59080900  0.14661700  1
  O  O21  1  0.46189500  0.40919100  0.18671600  1
  O  O22  1  0.94729700  0.53810500  0.52004900  1
  O  O23  1  0.59080900  0.05270300  0.85338300  1
  O  O24  1  0.52261600  0.24443100  0.73088500  1
  O  O25  1  0.75556900  0.27818500  0.39755100  1
  O  O26  1  0.72181500  0.47738400  0.06421800  1
  O  O27  1  0.24443100  0.52261600  0.26911500  1
  O  O28  1  0.27818500  0.75556900  0.60244900  1
  O  O29  1  0.47738400  0.72181500  0.93578200  1
  O  O30  1  0.20779400  0.08381200  0.84371700  1
  O  O31  1  0.91618800  0.12398200  0.51038400  1
  O  O32  1  0.87601800  0.79220600  0.17705100  1
  O  O33  1  0.08381200  0.20779400  0.15628300  1
  O  O34  1  0.12398200  0.91618800  0.48961600  1
  O  O35  1  0.79220600  0.87601800  0.82294900  1
loop_
_geom_bond_atom_site_label_1
_geom_bond_atom_site_label_2
_geom_bond_distance
_geom_bond_site_symmetry_2
Mn0 O6 2.184627 1_545
Mn0 O10 2.184627 1_555
Mn0 O35 2.195860 1_545
Mn0 O31 2.195872 1_555
Mn0 O12 2.258298 1_655
Mn0 O16 2.258298 1_545
Mn1 O9 2.184627 1_455
Mn1 O7 2.184627 1_555
Mn1 O32 2.195860 1_455
Mn1 O34 2.195872 1_555
Mn1 O15 2.258298 1_565
Mn1 O13 2.258298 1_455
Mn2 O8 2.184627 1_554
Mn2 O11 2.184627 1_555
Mn2 O30 2.195872 1_554
Mn2 O33 2.195872 1_555
Mn2 O14 2.258298 1_544
Mn2 O17 2.258298 1_455
Mn3 O12 2.180573 1_555
Mn3 O15 2.180573 1_555
Mn3 O0 2.238889 1_555
Mn3 O3 2.238889 1_555
Mn3 O34 2.277737 1_545
Mn3 O31 2.277737 1_455
Mn4 O13 2.180560 1_545
Mn4 O17 2.180573 1_555
Mn4 O1 2.238882 1_555
Mn4 O5 2.238890 1_545
Mn4 O33 2.277737 1_655
Mn4 O32 2.277737 1_545
Mn5 O16 2.180560 1_455
Mn5 O14 2.180573 1_555
Mn5 O4 2.238882 1_555
Mn5 O2 2.238890 1_455
Mn5 O30 2.277737 1_565
Mn5 O35 2.277737 1_455
B0 O8 1.462398 1_555
B0 O4 1.470033 1_555
B0 O18 1.479424 1_555
B0 O29 1.516218 1_555
B1 O6 1.462407 1_555
B1 O3 1.470019 1_555
B1 O19 1.479423 1_555
B1 O28 1.516225 1_555
B2 O7 1.462398 1_555
B2 O5 1.470028 1_555
B2 O20 1.479430 1_555
B2 O27 1.516218 1_555
B3 O11 1.462398 1_555
B3 O1 1.470033 1_555
B3 O21 1.479424 1_555
B3 O26 1.516218 1_555
B4 O9 1.462407 1_555
B4 O0 1.470019 1_555
B4 O22 1.479423 1_555
B4 O25 1.516225 1_555
B5 O10 1.462398 1_555
B5 O2 1.470028 1_555
B5 O23 1.479430 1_555
B5 O24 1.516218 1_555
H0 O0 0.987957 1_555
H1 O1 0.987962 1_555
H2 O2 0.987953 1_555
H3 O3 0.987957 1_555
H4 O4 0.987962 1_555
H5 O5 0.987953 1_555
H6 O6 0.972516 1_555
H7 O7 0.972513 1_555
H8 O8 0.972509 1_555
H9 O9 0.972516 1_555
H10 O10 0.972513 1_555
H11 O11 0.972509 1_555
O12 P0 1.542869 1_555
O13 P1 1.542869 1_565
O14 P2 1.542869 1_456
O15 P3 1.542869 1_555
O16 P4 1.542869 1_655
O17 P5 1.542869 1_544
O18 P0 1.560707 1_555
O19 P1 1.560711 1_565
O20 P2 1.560700 1_455
O21 P3 1.560707 1_555
O22 P4 1.560711 1_655
O23 P5 1.560700 1_545
O24 P0 1.566772 1_555
O25 P1 1.566771 1_555
O26 P2 1.566771 1_555
O27 P3 1.566772 1_555
O28 P4 1.566771 1_555
O29 P5 1.566771 1_555
O30 P0 1.532474 1_555
O31 P1 1.532483 1_555
O32 P2 1.532483 1_555
O33 P3 1.532474 1_555
O34 P4 1.532483 1_555
O35 P5 1.532483 1_555
