# generated using pymatgen
data_Te2Mo3(SeS)2
_symmetry_space_group_name_H-M   'P 1'
_cell_length_a   3.34966030
_cell_length_b   3.34966030
_cell_length_c   30.90225300
_cell_angle_alpha   90.00000000
_cell_angle_beta   90.00000000
_cell_angle_gamma   120.00000592
_symmetry_Int_Tables_number   1
_chemical_formula_structural   Te2Mo3(SeS)2
_chemical_formula_sum   'Te2 Mo3 Se2 S2'
_cell_volume   300.27714750
_cell_formula_units_Z   1
loop_
 _symmetry_equiv_pos_site_id
 _symmetry_equiv_pos_as_xyz
  1  'x, y, z'
loop_
 _atom_site_type_symbol
 _atom_site_label
 _atom_site_symmetry_multiplicity
 _atom_site_fract_x
 _atom_site_fract_y
 _atom_site_fract_z
 _atom_site_occupancy
  Te  Te0  1  0.33333300  0.66666700  0.51709000  1
  Te  Te1  1  0.33333300  0.66666700  0.63952100  1
  Mo  Mo0  1  0.00000000  0.00000000  0.11566300  1
  Mo  Mo1  1  0.00000000  0.00000000  0.57833200  1
  Mo  Mo2  1  0.33333300  0.66666700  0.34699300  1
  Se  Se0  1  0.33333300  0.66666700  0.06185100  1
  Se  Se1  1  0.33333300  0.66666700  0.16944900  1
  S  S0  1  0.00000000  0.00000000  0.39603200  1
  S  S1  1  0.00000000  0.00000000  0.29791100  1
loop_
_geom_bond_atom_site_label_1
_geom_bond_atom_site_label_2
_geom_bond_distance
_geom_bond_site_symmetry_2
Mo0 Se1 2.550034 1_545
Mo0 Se1 2.550036 1_445
Mo0 Se1 2.550036 1_555
Mo0 Se0 2.550558 1_545
Mo0 Se0 2.550560 1_555
Mo0 Se0 2.550560 1_445
Mo1 Te1 2.704716 1_545
Mo1 Te1 2.704718 1_555
Mo1 Te1 2.704718 1_445
Mo1 Te0 2.705861 1_545
Mo1 Te0 2.705863 1_555
Mo1 Te0 2.705863 1_445
Mo2 S0 2.456940 1_565
Mo2 S0 2.456942 1_665
Mo2 S0 2.456942 1_555
Mo2 S1 2.457759 1_565
Mo2 S1 2.457761 1_665
Mo2 S1 2.457761 1_555
