# generated using pymatgen
data_Ba(TeMo)6
_symmetry_space_group_name_H-M   'P 1'
_cell_length_a   9.59032381
_cell_length_b   9.59032381
_cell_length_c   4.62605000
_cell_angle_alpha   90.00000000
_cell_angle_beta   90.00000000
_cell_angle_gamma   119.99999872
_symmetry_Int_Tables_number   1
_chemical_formula_structural   Ba(TeMo)6
_chemical_formula_sum   'Ba1 Te6 Mo6'
_cell_volume   368.47455432
_cell_formula_units_Z   1
loop_
 _symmetry_equiv_pos_site_id
 _symmetry_equiv_pos_as_xyz
  1  'x, y, z'
loop_
 _atom_site_type_symbol
 _atom_site_label
 _atom_site_symmetry_multiplicity
 _atom_site_fract_x
 _atom_site_fract_y
 _atom_site_fract_z
 _atom_site_occupancy
  Ba  Ba0  1  0.66666700  0.33333300  0.50000000  1
  Te  Te0  1  0.39730100  0.36154300  0.00000000  1
  Te  Te1  1  0.63845700  0.03575700  0.00000000  1
  Te  Te2  1  0.96424300  0.60269900  0.00000000  1
  Te  Te3  1  0.26011000  0.96538000  0.50000000  1
  Te  Te4  1  0.03462000  0.29473000  0.50000000  1
  Te  Te5  1  0.70527000  0.73989000  0.50000000  1
  Mo  Mo0  1  0.19035000  0.49193100  0.00000000  1
  Mo  Mo1  1  0.50806900  0.69841900  0.00000000  1
  Mo  Mo2  1  0.30158100  0.80965000  0.00000000  1
  Mo  Mo3  1  0.47373100  0.84093400  0.50000000  1
  Mo  Mo4  1  0.15906600  0.63279700  0.50000000  1
  Mo  Mo5  1  0.36720300  0.52626900  0.50000000  1
loop_
_geom_bond_atom_site_label_1
_geom_bond_atom_site_label_2
_geom_bond_distance
_geom_bond_site_symmetry_2
Ba0 Te0 3.577101 1_555
Ba0 Te0 3.577101 1_556
Ba0 Te1 3.577101 1_555
Ba0 Te1 3.577101 1_556
Ba0 Te2 3.577101 1_556
Ba0 Te2 3.577101 1_555
Ba0 Te4 3.727710 1_655
Ba0 Te3 3.727715 1_545
Ba0 Te5 3.727719 1_555
Mo0 Mo2 2.678045 1_555
Mo0 Mo1 2.678045 1_555
Mo0 Mo4 2.769564 1_555
Mo0 Mo4 2.769564 1_554
Mo0 Mo5 2.788668 1_554
Mo0 Mo5 2.788668 1_555
Mo0 Te0 2.825708 1_555
Mo0 Te2 2.852043 1_455
Mo0 Te4 2.886660 1_554
Mo0 Te4 2.886660 1_555
Mo1 Mo2 2.678045 1_555
Mo1 Mo5 2.769564 1_554
Mo1 Mo5 2.769564 1_555
Mo1 Mo3 2.788668 1_554
Mo1 Mo3 2.788668 1_555
Mo1 Te1 2.825700 1_565
Mo1 Te0 2.852052 1_555
Mo1 Te5 2.886660 1_554
Mo1 Te5 2.886660 1_555
Mo2 Mo3 2.769564 1_554
Mo2 Mo3 2.769564 1_555
Mo2 Mo4 2.788668 1_555
Mo2 Mo4 2.788668 1_554
Mo2 Te2 2.825701 1_455
Mo2 Te1 2.852050 1_565
Mo2 Te3 2.886660 1_554
Mo2 Te3 2.886660 1_555
Mo3 Mo5 2.658469 1_555
Mo3 Mo4 2.658469 1_555
Mo3 Te5 2.832246 1_555
Mo3 Te3 2.840178 1_555
Mo3 Te1 2.895699 1_565
Mo3 Te1 2.895699 1_566
Mo4 Mo5 2.658469 1_555
Mo4 Te3 2.832246 1_555
Mo4 Te4 2.840178 1_555
Mo4 Te2 2.895697 1_455
Mo4 Te2 2.895697 1_456
Mo5 Te4 2.832246 1_555
Mo5 Te5 2.840178 1_555
Mo5 Te0 2.895703 1_556
Mo5 Te0 2.895703 1_555
