# generated using pymatgen
data_Al4H12C15O31
_symmetry_space_group_name_H-M   'P 1'
_cell_length_a   10.02252239
_cell_length_b   10.02252239
_cell_length_c   10.02252239
_cell_angle_alpha   109.47122063
_cell_angle_beta   109.47122063
_cell_angle_gamma   109.47122063
_symmetry_Int_Tables_number   1
_chemical_formula_structural   Al4H12C15O31
_chemical_formula_sum   'Al4 H12 C15 O31'
_cell_volume   775.01340558
_cell_formula_units_Z   1
loop_
 _symmetry_equiv_pos_site_id
 _symmetry_equiv_pos_as_xyz
  1  'x, y, z'
loop_
 _atom_site_type_symbol
 _atom_site_label
 _atom_site_symmetry_multiplicity
 _atom_site_fract_x
 _atom_site_fract_y
 _atom_site_fract_z
 _atom_site_occupancy
  Al  Al0  1  0.00000000  0.00000000  0.50000000  1
  Al  Al1  1  0.50000000  0.00000000  0.00000000  1
  Al  Al2  1  0.00000000  0.50000000  0.00000000  1
  Al  Al3  1  0.50000000  0.50000000  0.50000000  1
  H  H0  1  0.78920100  0.66942400  0.45862400  1
  H  H1  1  0.78920100  0.33057600  0.11977700  1
  H  H2  1  0.21079900  0.66942400  0.88022300  1
  H  H3  1  0.21079900  0.33057600  0.54137600  1
  H  H4  1  0.66942400  0.45862400  0.78920100  1
  H  H5  1  0.33057600  0.11977700  0.78920100  1
  H  H6  1  0.66942400  0.88022300  0.21079900  1
  H  H7  1  0.33057600  0.54137600  0.21079900  1
  H  H8  1  0.45862400  0.78920100  0.66942400  1
  H  H9  1  0.11977700  0.78920100  0.33057600  1
  H  H10  1  0.88022300  0.21079900  0.66942400  1
  H  H11  1  0.54137600  0.21079900  0.33057600  1
  C  C0  1  0.74111600  0.75151300  0.49262900  1
  C  C1  1  0.74111600  0.24848700  0.98960300  1
  C  C2  1  0.25888400  0.75151300  0.01039700  1
  C  C3  1  0.25888400  0.24848700  0.50737100  1
  C  C4  1  0.75151300  0.49262900  0.74111600  1
  C  C5  1  0.24848700  0.98960300  0.74111600  1
  C  C6  1  0.75151300  0.01039700  0.25888400  1
  C  C7  1  0.24848700  0.50737100  0.25888400  1
  C  C8  1  0.49262900  0.74111600  0.75151300  1
  C  C9  1  0.98960300  0.74111600  0.24848700  1
  C  C10  1  0.01039700  0.25888400  0.75151300  1
  C  C11  1  0.50737100  0.25888400  0.24848700  1
  C  C12  1  0.50000000  0.50000000  0.00000000  1
  C  C13  1  0.50000000  0.00000000  0.50000000  1
  C  C14  1  0.00000000  0.50000000  0.50000000  1
  O  O0  1  0.80986000  0.89340500  0.51158200  1
  O  O1  1  0.61817700  0.10659500  0.91645500  1
  O  O2  1  0.19014000  0.70172200  0.08354500  1
  O  O3  1  0.38182300  0.29827800  0.48841800  1
  O  O4  1  0.89340500  0.51158200  0.80986000  1
  O  O5  1  0.10659500  0.91645500  0.61817700  1
  O  O6  1  0.70172200  0.08354500  0.19014000  1
  O  O7  1  0.29827800  0.48841800  0.38182300  1
  O  O8  1  0.51158200  0.80986000  0.89340500  1
  O  O9  1  0.91645500  0.61817700  0.10659500  1
  O  O10  1  0.08354500  0.19014000  0.70172200  1
  O  O11  1  0.48841800  0.38182300  0.29827800  1
  O  O12  1  0.19014000  0.10659500  0.48841800  1
  O  O13  1  0.38182300  0.89340500  0.08354500  1
  O  O14  1  0.80986000  0.29827800  0.91645500  1
  O  O15  1  0.61817700  0.70172200  0.51158200  1
  O  O16  1  0.10659500  0.48841800  0.19014000  1
  O  O17  1  0.89340500  0.08354500  0.38182300  1
  O  O18  1  0.29827800  0.91645500  0.80986000  1
  O  O19  1  0.70172200  0.51158200  0.61817700  1
  O  O20  1  0.48841800  0.19014000  0.10659500  1
  O  O21  1  0.08354500  0.38182300  0.89340500  1
  O  O22  1  0.91645500  0.80986000  0.29827800  1
  O  O23  1  0.51158200  0.61817700  0.70172200  1
  O  O24  1  0.50000000  0.60154000  0.10154000  1
  O  O25  1  0.50000000  0.39846000  0.89846000  1
  O  O26  1  0.60154000  0.10154000  0.50000000  1
  O  O27  1  0.39846000  0.89846000  0.50000000  1
  O  O28  1  0.10154000  0.50000000  0.60154000  1
  O  O29  1  0.89846000  0.50000000  0.39846000  1
  O  O30  1  0.00000000  0.00000000  0.00000000  1
loop_
_geom_bond_atom_site_label_1
_geom_bond_atom_site_label_2
_geom_bond_distance
_geom_bond_site_symmetry_2
Al0 O12 1.912939 1_555
Al0 O17 1.912939 1_455
Al0 O5 1.912939 1_545
Al0 O0 1.912939 1_445
Al0 O10 1.912939 1_555
Al0 O22 1.912939 1_445
Al1 O6 1.912939 1_555
Al1 O8 1.912939 1_544
Al1 O1 1.912939 1_554
Al1 O13 1.912939 1_545
Al1 O18 1.912939 1_544
Al1 O20 1.912939 1_555
Al2 O9 1.912939 1_455
Al2 O4 1.912939 1_454
Al2 O2 1.912939 1_555
Al2 O14 1.912939 1_454
Al2 O16 1.912939 1_555
Al2 O21 1.912939 1_554
Al3 O23 1.912939 1_555
Al3 O15 1.912939 1_555
Al3 O19 1.912939 1_555
Al3 O3 1.912939 1_555
Al3 O11 1.912939 1_555
Al3 O7 1.912939 1_555
C0 H0 1.101007 1_555
C0 O0 1.269898 1_555
C0 O15 1.269898 1_555
C1 H1 1.101005 1_556
C1 O14 1.269898 1_555
C1 O1 1.269898 1_555
C2 H2 1.101005 1_554
C2 O2 1.269898 1_555
C2 O13 1.269898 1_555
C3 H3 1.101007 1_555
C3 O3 1.269898 1_555
C3 O12 1.269898 1_555
C4 H4 1.101007 1_555
C4 O19 1.269898 1_555
C4 O4 1.269898 1_555
C5 H5 1.101005 1_565
C5 O18 1.269898 1_555
C5 O5 1.269898 1_555
C6 H6 1.101005 1_545
C6 O17 1.269898 1_555
C6 O6 1.269898 1_555
C7 H7 1.101007 1_555
C7 O7 1.269898 1_555
C7 O16 1.269898 1_555
C8 H8 1.101007 1_555
C8 O23 1.269898 1_555
C8 O8 1.269898 1_555
C9 H9 1.101005 1_655
C9 O22 1.269898 1_555
C9 O9 1.269898 1_555
C10 H10 1.101005 1_455
C10 O10 1.269898 1_555
C10 O21 1.269898 1_555
C11 H11 1.101007 1_555
C11 O11 1.269898 1_555
C11 O20 1.269898 1_555
C12 O24 1.175124 1_555
C12 O25 1.175124 1_554
C13 O26 1.175124 1_555
C13 O27 1.175124 1_545
C14 O29 1.175124 1_455
C14 O28 1.175124 1_555
