# generated using pymatgen
data_LaCrNiO6
_symmetry_space_group_name_H-M   'P 1'
_cell_length_a   5.14411800
_cell_length_b   5.33101853
_cell_length_c   5.51578723
_cell_angle_alpha   117.26255520
_cell_angle_beta   90.95036335
_cell_angle_gamma   118.57948360
_symmetry_Int_Tables_number   1
_chemical_formula_structural   LaCrNiO6
_chemical_formula_sum   'La1 Cr1 Ni1 O6'
_cell_volume   112.56381077
_cell_formula_units_Z   1
loop_
 _symmetry_equiv_pos_site_id
 _symmetry_equiv_pos_as_xyz
  1  'x, y, z'
loop_
 _atom_site_type_symbol
 _atom_site_label
 _atom_site_symmetry_multiplicity
 _atom_site_fract_x
 _atom_site_fract_y
 _atom_site_fract_z
 _atom_site_occupancy
  La  La0  1  0.49219800  0.75041800  0.27869200  1
  Cr  Cr0  1  0.96084900  0.99769400  0.56623100  1
  Ni  Ni0  1  0.99545300  0.49922600  0.01506900  1
  O  O0  1  0.48440300  0.29764400  0.25000700  1
  O  O1  1  0.96589300  0.21433800  0.29640200  1
  O  O2  1  0.08448200  0.79463100  0.68686100  1
  O  O3  1  0.95991200  0.21474300  0.77728400  1
  O  O4  1  0.03360300  0.77611700  0.22654100  1
  O  O5  1  0.52362000  0.71542700  0.74432500  1
loop_
_geom_bond_atom_site_label_1
_geom_bond_atom_site_label_2
_geom_bond_distance
_geom_bond_site_symmetry_2
La0 Ni0 2.292642 1_455
La0 O0 2.325968 1_555
La0 O4 2.447350 1_555
La0 O1 2.463479 1_565
La0 O5 2.666692 1_555
La0 O3 2.706487 1_565
La0 O4 2.748754 1_655
La0 O5 2.879125 1_554
La0 O3 2.886760 1_454
La0 O1 2.892852 1_455
La0 O0 3.011924 1_565
La0 O2 3.109103 1_555
Cr0 O3 1.210601 1_565
Cr0 O2 1.823077 1_655
Cr0 O4 1.861337 1_655
Cr0 La0 2.232107 1_555
Cr0 O1 2.257655 1_565
Cr0 O5 2.545077 1_555
Ni0 O4 1.309902 1_655
Ni0 O3 1.399335 1_554
Ni0 O1 2.585281 1_555
