# generated using pymatgen
data_Tb2Be2GeO7
_symmetry_space_group_name_H-M   'P 1'
_cell_length_a   7.46647400
_cell_length_b   7.46647400
_cell_length_c   4.83284200
_cell_angle_alpha   90.00000000
_cell_angle_beta   90.00000000
_cell_angle_gamma   90.00000000
_symmetry_Int_Tables_number   1
_chemical_formula_structural   Tb2Be2GeO7
_chemical_formula_sum   'Tb4 Be4 Ge2 O14'
_cell_volume   269.42240667
_cell_formula_units_Z   2
loop_
 _symmetry_equiv_pos_site_id
 _symmetry_equiv_pos_as_xyz
  1  'x, y, z'
loop_
 _atom_site_type_symbol
 _atom_site_label
 _atom_site_symmetry_multiplicity
 _atom_site_fract_x
 _atom_site_fract_y
 _atom_site_fract_z
 _atom_site_occupancy
  Tb  Tb0  1  0.15902800  0.34097200  0.50538400  1
  Tb  Tb1  1  0.84097200  0.65902800  0.50538400  1
  Tb  Tb2  1  0.65902800  0.15902800  0.49461600  1
  Tb  Tb3  1  0.34097200  0.84097200  0.49461600  1
  Be  Be0  1  0.63425400  0.86574600  0.95117900  1
  Be  Be1  1  0.36574600  0.13425400  0.95117900  1
  Be  Be2  1  0.13425400  0.63425400  0.04882100  1
  Be  Be3  1  0.86574600  0.36574600  0.04882100  1
  Ge  Ge0  1  0.00000000  0.00000000  0.00000000  1
  Ge  Ge1  1  0.50000000  0.50000000  0.00000000  1
  O  O0  1  0.00000000  0.50000000  0.18830400  1
  O  O1  1  0.50000000  0.00000000  0.81169600  1
  O  O2  1  0.64203200  0.85796800  0.27924200  1
  O  O3  1  0.35796800  0.14203200  0.27924200  1
  O  O4  1  0.14203200  0.64203200  0.72075800  1
  O  O5  1  0.85796800  0.35796800  0.72075800  1
  O  O6  1  0.07939000  0.82793200  0.21654100  1
  O  O7  1  0.92061000  0.17206800  0.21654100  1
  O  O8  1  0.17206800  0.07939000  0.78345900  1
  O  O9  1  0.42061000  0.32793200  0.78345900  1
  O  O10  1  0.82793200  0.92061000  0.78345900  1
  O  O11  1  0.57939000  0.67206800  0.78345900  1
  O  O12  1  0.32793200  0.57939000  0.21654100  1
  O  O13  1  0.67206800  0.42061000  0.21654100  1
loop_
_geom_bond_atom_site_label_1
_geom_bond_atom_site_label_2
_geom_bond_distance
_geom_bond_site_symmetry_2
Be0 O1 1.569725 1_565
Be0 O2 1.587602 1_556
Be0 O10 1.707630 1_555
Be0 O11 1.707630 1_555
Be1 O1 1.569725 1_555
Be1 O3 1.587602 1_556
Be1 O9 1.707630 1_555
Be1 O8 1.707630 1_555
Be2 O0 1.569725 1_555
Be2 O4 1.587602 1_554
Be2 O12 1.707630 1_555
Be2 O6 1.707630 1_555
Be3 O0 1.569725 1_655
Be3 O5 1.587602 1_554
Be3 O13 1.707630 1_555
Be3 O7 1.707630 1_555
Ge0 O10 1.759860 1_444
Ge0 O7 1.759860 1_455
Ge0 O6 1.759860 1_545
Ge0 O8 1.759860 1_554
Ge1 O11 1.759860 1_554
Ge1 O9 1.759860 1_554
Ge1 O12 1.759860 1_555
Ge1 O13 1.759860 1_555
O0 Tb1 2.273319 1_455
O0 Tb0 2.273319 1_555
O1 Tb2 2.273319 1_555
O1 Tb3 2.273319 1_545
O2 Tb1 2.367944 1_555
O2 Tb2 2.480397 1_565
O2 Tb3 2.480397 1_555
O3 Tb0 2.367944 1_555
O3 Tb3 2.480397 1_545
O3 Tb2 2.480397 1_555
O4 Tb3 2.367944 1_555
O4 Tb1 2.480397 1_455
O4 Tb0 2.480397 1_555
O5 Tb2 2.367944 1_555
O5 Tb1 2.480397 1_555
O5 Tb0 2.480397 1_655
O6 Tb3 2.372785 1_555
O6 Tb1 2.589971 1_455
O7 Tb2 2.372785 1_555
O7 Tb0 2.589971 1_655
O8 Tb0 2.372785 1_555
O8 Tb3 2.589971 1_545
O9 Tb0 2.372785 1_555
O9 Tb2 2.589971 1_555
O10 Tb1 2.372785 1_555
O10 Tb2 2.589971 1_565
O11 Tb1 2.372785 1_555
O11 Tb3 2.589971 1_555
O12 Tb3 2.372785 1_555
O12 Tb0 2.589971 1_555
O13 Tb2 2.372785 1_555
O13 Tb1 2.589971 1_555
