# generated using pymatgen
data_CrGeO3
_symmetry_space_group_name_H-M   'P 1'
_cell_length_a   3.74329200
_cell_length_b   3.74329200
_cell_length_c   3.74329200
_cell_angle_alpha   90.00000000
_cell_angle_beta   90.00000000
_cell_angle_gamma   90.00000000
_symmetry_Int_Tables_number   1
_chemical_formula_structural   CrGeO3
_chemical_formula_sum   'Cr1 Ge1 O3'
_cell_volume   52.45188717
_cell_formula_units_Z   1
loop_
 _symmetry_equiv_pos_site_id
 _symmetry_equiv_pos_as_xyz
  1  'x, y, z'
loop_
 _atom_site_type_symbol
 _atom_site_label
 _atom_site_symmetry_multiplicity
 _atom_site_fract_x
 _atom_site_fract_y
 _atom_site_fract_z
 _atom_site_occupancy
  Cr  Cr0  1  0.00000000  0.00000000  0.00000000  1
  Ge  Ge0  1  0.50000000  0.50000000  0.50000000  1
  O  O0  1  0.50000000  0.50000000  0.00000000  1
  O  O1  1  0.50000000  0.00000000  0.50000000  1
  O  O2  1  0.00000000  0.50000000  0.50000000  1
loop_
_geom_bond_atom_site_label_1
_geom_bond_atom_site_label_2
_geom_bond_distance
_geom_bond_site_symmetry_2
Cr0 O2 2.646907 1_544
Cr0 O2 2.646907 1_545
Cr0 O1 2.646907 1_555
Cr0 O1 2.646907 1_454
Cr0 O1 2.646907 1_455
Cr0 O1 2.646907 1_554
Cr0 O0 2.646907 1_545
Cr0 O2 2.646907 1_554
Cr0 O0 2.646907 1_555
Cr0 O0 2.646907 1_445
Cr0 O2 2.646907 1_555
Cr0 O0 2.646907 1_455
Ge0 O2 1.871646 1_655
Ge0 O0 1.871646 1_556
Ge0 O1 1.871646 1_555
Ge0 O0 1.871646 1_555
Ge0 O2 1.871646 1_555
Ge0 O1 1.871646 1_565
