# generated using pymatgen
data_Ba38Na58Li26H
_symmetry_space_group_name_H-M   'P 1'
_cell_length_a   19.38246809
_cell_length_b   19.38246809
_cell_length_c   19.38246809
_cell_angle_alpha   60.00000000
_cell_angle_beta   60.00000000
_cell_angle_gamma   60.00000000
_symmetry_Int_Tables_number   1
_chemical_formula_structural   Ba38Na58Li26H
_chemical_formula_sum   'Ba38 Na58 Li26 H1'
_cell_volume   5148.87365255
_cell_formula_units_Z   1
loop_
 _symmetry_equiv_pos_site_id
 _symmetry_equiv_pos_as_xyz
  1  'x, y, z'
loop_
 _atom_site_type_symbol
 _atom_site_label
 _atom_site_symmetry_multiplicity
 _atom_site_fract_x
 _atom_site_fract_y
 _atom_site_fract_z
 _atom_site_occupancy
  Ba  Ba0  1  0.00000000  -0.00000000  0.00000000  1
  Ba  Ba1  1  0.84379801  0.84379801  0.84379801  1
  Ba  Ba2  1  0.84379801  0.84379801  0.46860598  1
  Ba  Ba3  1  0.84379801  0.46860598  0.84379801  1
  Ba  Ba4  1  0.46860598  0.84379801  0.84379801  1
  Ba  Ba5  1  0.75000000  0.75000000  0.75000000  1
  Ba  Ba6  1  0.45791420  0.22572722  0.85844439  1
  Ba  Ba7  1  0.45791420  0.85844439  0.45791420  1
  Ba  Ba8  1  0.45791420  0.45791420  0.22572722  1
  Ba  Ba9  1  0.45791420  0.22572722  0.45791420  1
  Ba  Ba10  1  0.45791420  0.85844439  0.22572722  1
  Ba  Ba11  1  0.45791420  0.45791420  0.85844439  1
  Ba  Ba12  1  0.22572722  0.45791420  0.45791420  1
  Ba  Ba13  1  0.85844439  0.45791420  0.22572722  1
  Ba  Ba14  1  0.22572722  0.45791420  0.85844439  1
  Ba  Ba15  1  0.85844439  0.45791420  0.45791420  1
  Ba  Ba16  1  0.22572722  0.85844439  0.45791420  1
  Ba  Ba17  1  0.85844439  0.22572722  0.45791420  1
  Ba  Ba18  1  0.22191304  0.59269565  0.59269565  1
  Ba  Ba19  1  0.59269565  0.22191304  0.59269565  1
  Ba  Ba20  1  0.59269565  0.59269565  0.22191304  1
  Ba  Ba21  1  0.59269565  0.59269565  0.59269565  1
  Ba  Ba22  1  0.00309007  0.00309007  0.62071089  1
  Ba  Ba23  1  0.00309007  0.62071089  0.37310897  1
  Ba  Ba24  1  0.00309007  0.37310897  0.00309007  1
  Ba  Ba25  1  0.00309007  0.00309007  0.37310897  1
  Ba  Ba26  1  0.00309007  0.62071089  0.00309007  1
  Ba  Ba27  1  0.00309007  0.37310897  0.62071089  1
  Ba  Ba28  1  0.62071089  0.00309007  0.00309007  1
  Ba  Ba29  1  0.37310897  0.00309007  0.62071089  1
  Ba  Ba30  1  0.62071089  0.00309007  0.37310897  1
  Ba  Ba31  1  0.37310897  0.00309007  0.00309007  1
  Ba  Ba32  1  0.62071089  0.37310897  0.00309007  1
  Ba  Ba33  1  0.37310897  0.62071089  0.00309007  1
  Ba  Ba34  1  0.09471068  0.09471068  0.71586796  1
  Ba  Ba35  1  0.09471068  0.71586796  0.09471068  1
  Ba  Ba36  1  0.09471068  0.09471068  0.09471068  1
  Ba  Ba37  1  0.71586796  0.09471068  0.09471068  1
  Na  Na0  1  0.86049310  0.86049310  0.04435209  1
  Na  Na1  1  0.86049310  0.04435209  0.23466170  1
  Na  Na2  1  0.86049310  0.23466170  0.86049310  1
  Na  Na3  1  0.86049310  0.86049310  0.23466170  1
  Na  Na4  1  0.86049310  0.04435209  0.86049310  1
  Na  Na5  1  0.86049310  0.23466170  0.04435209  1
  Na  Na6  1  0.04435209  0.86049310  0.86049310  1
  Na  Na7  1  0.23466170  0.86049310  0.04435209  1
  Na  Na8  1  0.04435209  0.86049310  0.23466170  1
  Na  Na9  1  0.23466170  0.86049310  0.86049310  1
  Na  Na10  1  0.04435209  0.23466170  0.86049310  1
  Na  Na11  1  0.23466170  0.04435209  0.86049310  1
  Na  Na12  1  0.60591915  0.98663160  0.80153010  1
  Na  Na13  1  0.60591915  0.80153010  0.60591915  1
  Na  Na14  1  0.60591915  0.60591915  0.98663160  1
  Na  Na15  1  0.60591915  0.98663160  0.60591915  1
  Na  Na16  1  0.60591915  0.80153010  0.98663160  1
  Na  Na17  1  0.60591915  0.60591915  0.80153010  1
  Na  Na18  1  0.98663160  0.60591915  0.60591915  1
  Na  Na19  1  0.80153010  0.60591915  0.98663160  1
  Na  Na20  1  0.98663160  0.60591915  0.80153010  1
  Na  Na21  1  0.80153010  0.60591915  0.60591915  1
  Na  Na22  1  0.98663160  0.80153010  0.60591915  1
  Na  Na23  1  0.80153010  0.98663160  0.60591915  1
  Na  Na24  1  0.41816931  0.10764679  0.73709195  1
  Na  Na25  1  0.41816931  0.73709195  0.73709195  1
  Na  Na26  1  0.41816931  0.73709195  0.10764679  1
  Na  Na27  1  0.10764679  0.41816931  0.73709195  1
  Na  Na28  1  0.73709195  0.41816931  0.10764679  1
  Na  Na29  1  0.73709195  0.41816931  0.73709195  1
  Na  Na30  1  0.73709195  0.73709195  0.41816931  1
  Na  Na31  1  0.73709195  0.10764679  0.41816931  1
  Na  Na32  1  0.10764679  0.73709195  0.41816931  1
  Na  Na33  1  0.73709195  0.73709195  0.10764679  1
  Na  Na34  1  0.10764679  0.73709195  0.73709195  1
  Na  Na35  1  0.73709195  0.10764679  0.73709195  1
  Na  Na36  1  0.45005632  0.45005632  0.64983104  1
  Na  Na37  1  0.45005632  0.64983104  0.45005632  1
  Na  Na38  1  0.45005632  0.45005632  0.45005632  1
  Na  Na39  1  0.64983104  0.45005632  0.45005632  1
  Na  Na40  1  0.65867917  0.34132083  0.65867917  1
  Na  Na41  1  0.65867917  0.65867917  0.34132083  1
  Na  Na42  1  0.65867917  0.34132083  0.34132083  1
  Na  Na43  1  0.34132083  0.65867917  0.34132083  1
  Na  Na44  1  0.34132083  0.65867917  0.65867917  1
  Na  Na45  1  0.34132083  0.34132083  0.65867917  1
  Na  Na46  1  0.66845124  0.86666747  0.23244065  1
  Na  Na47  1  0.66845124  0.23244065  0.23244065  1
  Na  Na48  1  0.66845124  0.23244065  0.86666747  1
  Na  Na49  1  0.86666747  0.66845124  0.23244065  1
  Na  Na50  1  0.23244065  0.66845124  0.86666747  1
  Na  Na51  1  0.23244065  0.66845124  0.23244065  1
  Na  Na52  1  0.23244065  0.23244065  0.66845124  1
  Na  Na53  1  0.23244065  0.86666747  0.66845124  1
  Na  Na54  1  0.86666747  0.23244065  0.66845124  1
  Na  Na55  1  0.23244065  0.23244065  0.86666747  1
  Na  Na56  1  0.86666747  0.23244065  0.23244065  1
  Na  Na57  1  0.23244065  0.86666747  0.23244065  1
  Li  Li0  1  0.11283424  0.11283424  0.38716576  1
  Li  Li1  1  0.11283424  0.38716576  0.38716576  1
  Li  Li2  1  0.11283424  0.38716576  0.11283424  1
  Li  Li3  1  0.38716576  0.11283424  0.11283424  1
  Li  Li4  1  0.38716576  0.11283424  0.38716576  1
  Li  Li5  1  0.38716576  0.38716576  0.11283424  1
  Li  Li6  1  0.50320776  0.04187912  0.22745656  1
  Li  Li7  1  0.50320776  0.22745656  0.22745656  1
  Li  Li8  1  0.50320776  0.22745656  0.04187912  1
  Li  Li9  1  0.04187912  0.50320776  0.22745656  1
  Li  Li10  1  0.22745656  0.50320776  0.04187912  1
  Li  Li11  1  0.22745656  0.50320776  0.22745656  1
  Li  Li12  1  0.22745656  0.22745656  0.50320776  1
  Li  Li13  1  0.22745656  0.04187912  0.50320776  1
  Li  Li14  1  0.04187912  0.22745656  0.50320776  1
  Li  Li15  1  0.22745656  0.22745656  0.04187912  1
  Li  Li16  1  0.04187912  0.22745656  0.22745656  1
  Li  Li17  1  0.22745656  0.04187912  0.22745656  1
  Li  Li18  1  0.31845952  0.31845952  0.04462143  1
  Li  Li19  1  0.31845952  0.04462143  0.31845952  1
  Li  Li20  1  0.31845952  0.31845952  0.31845952  1
  Li  Li21  1  0.04462143  0.31845952  0.31845952  1
  Li  Li22  1  0.36727056  0.21090981  0.21090981  1
  Li  Li23  1  0.21090981  0.36727056  0.21090981  1
  Li  Li24  1  0.21090981  0.21090981  0.36727056  1
  Li  Li25  1  0.21090981  0.21090981  0.21090981  1
  H  H0  1  0.25000000  0.25000000  0.25000000  1
loop_
_geom_bond_atom_site_label_1
_geom_bond_atom_site_label_2
_geom_bond_distance
_geom_bond_site_symmetry_2
Ba0 Na5 4.245547 1_455
Ba0 Na11 4.245547 1_554
Ba0 Na8 4.245547 1_545
Ba0 Na1 4.245547 1_455
Ba0 Na7 4.245547 1_545
Ba0 Na10 4.245547 1_554
Ba0 Na9 4.245548 1_544
Ba0 Na2 4.245548 1_454
Ba0 Na3 4.245548 1_445
Ba0 Na6 4.245548 1_544
Ba0 Na4 4.245548 1_454
Ba0 Na0 4.245548 1_445
Ba0 Ba36 4.496594 1_555
Ba0 Ba37 4.496594 1_455
Ba0 Ba34 4.496594 1_554
Ba0 Ba35 4.496594 1_545
Ba1 Na35 4.222808 1_565
Ba1 Na34 4.222808 1_655
Ba1 Na33 4.222808 1_556
Ba1 Na6 4.235619 1_655
Ba1 Na4 4.235619 1_565
Ba1 Na0 4.235619 1_556
Ba1 Na22 4.282369 1_555
Ba1 Na16 4.282369 1_555
Ba1 Na19 4.282369 1_555
Ba1 Na20 4.282369 1_555
Ba1 Na23 4.282369 1_555
Ba1 Na12 4.282369 1_555
Ba1 Ba5 4.453263 1_555
Ba1 Ba28 4.538053 1_566
Ba1 Ba26 4.538053 1_656
Ba1 Ba22 4.538053 1_665
Ba2 Na31 4.222808 1_565
Ba2 Na32 4.222808 1_655
Ba2 Na30 4.222808 1_555
Ba2 Na1 4.235620 1_565
Ba2 Na8 4.235620 1_655
Ba2 Na3 4.235620 1_555
Ba2 Na22 4.282369 1_555
Ba2 Na23 4.282369 1_555
Ba2 Na15 4.282369 1_555
Ba2 Na18 4.282369 1_555
Ba2 Na21 4.282369 1_555
Ba2 Na13 4.282369 1_555
Ba2 Ba5 4.453263 1_555
Ba2 Ba25 4.538053 1_665
Ba2 Ba23 4.538054 1_655
Ba2 Ba30 4.538054 1_565
Ba3 Na27 4.222808 1_655
Ba3 Na28 4.222808 1_556
Ba3 Na29 4.222808 1_555
Ba3 Na5 4.235620 1_556
Ba3 Na10 4.235620 1_655
Ba3 Na2 4.235620 1_555
Ba3 Na19 4.282369 1_555
Ba3 Na20 4.282369 1_555
Ba3 Na18 4.282369 1_555
Ba3 Na14 4.282369 1_555
Ba3 Na17 4.282369 1_555
Ba3 Na21 4.282369 1_555
Ba3 Ba5 4.453263 1_555
Ba3 Ba32 4.538054 1_556
Ba4 Na26 4.222808 1_556
Ba4 Na24 4.222808 1_565
Ba4 Na25 4.222808 1_555
Ba4 Na11 4.235620 1_565
Ba4 Na7 4.235620 1_556
Ba4 Na9 4.235620 1_555
Ba4 Na12 4.282369 1_555
Ba4 Na16 4.282369 1_555
Ba4 Na15 4.282369 1_555
Ba4 Na14 4.282369 1_555
Ba4 Na13 4.282369 1_555
Ba4 Na17 4.282369 1_555
Ba4 Ba5 4.453263 1_555
Ba5 Na12 4.337700 1_555
Ba5 Na22 4.337700 1_555
Ba5 Na16 4.337700 1_555
Ba5 Na19 4.337700 1_555
Ba5 Na23 4.337700 1_555
Ba5 Na20 4.337700 1_555
Ba5 Na14 4.337700 1_555
Ba5 Na15 4.337700 1_555
Ba5 Na18 4.337700 1_555
Ba5 Na13 4.337700 1_555
Ba5 Na17 4.337700 1_555
Ba5 Na21 4.337700 1_555
Ba6 Li18 3.928391 1_556
Ba6 Li3 4.053432 1_556
Ba6 Li8 4.084450 1_556
Ba6 Li15 4.084450 1_556
Ba6 Na36 4.201272 1_555
Ba6 Na48 4.230462 1_555
Ba6 Na55 4.230462 1_555
Ba6 Na12 4.424489 1_545
Ba6 Na40 4.486709 1_555
Ba6 Na45 4.486709 1_555
Ba6 Na35 4.508024 1_555
Ba6 Na24 4.508024 1_555
Ba7 Li19 3.928391 1_565
Ba7 Li4 4.053432 1_565
Ba7 Li6 4.084450 1_565
Ba7 Li13 4.084450 1_565
Ba7 Na37 4.201272 1_555
Ba7 Na46 4.230462 1_555
Ba7 Na53 4.230462 1_555
Ba7 Na13 4.424489 1_555
Ba7 Na41 4.486709 1_555
Ba7 Na44 4.486709 1_555
Ba7 Na30 4.508024 1_555
Ba7 Na25 4.508024 1_555
Ba8 Li20 3.928391 1_555
Ba8 Li5 4.053432 1_555
Ba8 Li7 4.084450 1_555
Ba8 Li11 4.084450 1_555
Ba8 Na38 4.201272 1_555
Ba8 Na51 4.230462 1_555
Ba8 Na47 4.230462 1_555
Ba8 Na14 4.424489 1_554
Ba8 Na42 4.486709 1_555
Ba8 Na43 4.486709 1_555
Ba8 Ba9 4.500357 1_555
Ba8 Na26 4.508024 1_555
Ba8 Na28 4.508024 1_555
Ba9 Li20 3.928391 1_555
Ba9 Li4 4.053432 1_555
Ba9 Li12 4.084450 1_555
Ba9 Li7 4.084450 1_555
Ba9 Na38 4.201272 1_555
Ba9 Na52 4.230462 1_555
Ba9 Na47 4.230462 1_555
Ba9 Na15 4.424489 1_545
Ba9 Na45 4.486709 1_555
Ba9 Na42 4.486709 1_555
Ba9 Na31 4.508024 1_555
Ba9 Na24 4.508024 1_555
Ba10 Li19 3.928391 1_565
Ba10 Li3 4.053432 1_565
Ba10 Li6 4.084450 1_565
Ba10 Li17 4.084450 1_565
Ba10 Na37 4.201272 1_555
Ba10 Na46 4.230462 1_555
Ba10 Na57 4.230462 1_555
Ba10 Ba28 4.423799 1_565
Ba10 Ba31 4.423799 1_565
Ba10 Na16 4.424489 1_554
Ba10 Ba20 4.482529 1_555
Ba10 Na41 4.486709 1_555
Ba10 Na43 4.486709 1_555
Ba10 Ba16 4.500357 1_555
Ba10 Ba7 4.500357 1_555
Ba10 Na33 4.508024 1_555
Ba10 Na26 4.508024 1_555
Ba11 Li18 3.928391 1_556
Ba11 Li5 4.053432 1_556
Ba11 Li8 4.084450 1_556
Ba11 Li10 4.084450 1_556
Ba11 Na36 4.201272 1_555
Ba11 Na50 4.230462 1_555
Ba11 Na48 4.230462 1_555
Ba11 Ba33 4.423799 1_556
Ba11 Ba32 4.423799 1_556
Ba11 Na17 4.424489 1_555
Ba11 Ba21 4.482529 1_555
Ba11 Na40 4.486709 1_555
Ba11 Na44 4.486709 1_555
Ba11 Ba6 4.500357 1_555
Ba11 Ba14 4.500357 1_555
Ba11 Na25 4.508024 1_555
Ba11 Na29 4.508024 1_555
Ba12 Li20 3.928391 1_555
Ba12 Li1 4.053432 1_555
Ba12 Li11 4.084450 1_555
Ba12 Li12 4.084450 1_555
Ba12 Na38 4.201272 1_555
Ba12 Na52 4.230462 1_555
Ba12 Na51 4.230462 1_555
Ba12 Ba23 4.423799 1_555
Ba12 Ba27 4.423799 1_555
Ba12 Na18 4.424489 1_455
Ba12 Ba18 4.482529 1_555
Ba12 Na45 4.486709 1_555
Ba12 Na43 4.486709 1_555
Ba12 Ba9 4.500357 1_555
Ba12 Ba8 4.500357 1_555
Ba12 Na32 4.508024 1_555
Ba12 Na27 4.508024 1_555
Ba13 Li21 3.928391 1_655
Ba13 Li2 4.053432 1_655
Ba13 Li9 4.084450 1_655
Ba13 Li16 4.084450 1_655
Ba13 Na39 4.201272 1_555
Ba13 Na49 4.230462 1_555
Ba13 Na56 4.230462 1_555
Ba13 Ba26 4.423799 1_655
Ba13 Ba24 4.423799 1_655
Ba13 Na19 4.424489 1_554
Ba13 Ba20 4.482529 1_555
Ba13 Na41 4.486709 1_555
Ba13 Na42 4.486709 1_555
Ba13 Ba17 4.500357 1_555
Ba13 Ba15 4.500357 1_555
Ba13 Na33 4.508024 1_555
Ba13 Na28 4.508024 1_555
Ba14 Li18 3.928391 1_556
Ba14 Li2 4.053432 1_556
Ba14 Li10 4.084450 1_556
Ba14 Li15 4.084450 1_556
Ba14 Na36 4.201272 1_555
Ba14 Na50 4.230462 1_555
Ba14 Na55 4.230462 1_555
Ba14 Ba26 4.423799 1_556
Ba14 Ba24 4.423799 1_556
Ba14 Na20 4.424489 1_455
Ba14 Ba18 4.482529 1_555
Ba14 Na44 4.486709 1_555
Ba14 Na45 4.486709 1_555
Ba14 Ba6 4.500357 1_555
Ba14 Na34 4.508024 1_555
Ba14 Na27 4.508024 1_555
Ba15 Li21 3.928391 1_655
Ba15 Li1 4.053432 1_655
Ba15 Li14 4.084450 1_655
Ba15 Li9 4.084450 1_655
Ba15 Na39 4.201272 1_555
Ba15 Na54 4.230462 1_555
Ba15 Na49 4.230462 1_555
Ba15 Ba23 4.423799 1_655
Ba15 Ba27 4.423799 1_655
Ba15 Na21 4.424489 1_555
Ba15 Ba21 4.482529 1_555
Ba15 Na40 4.486709 1_555
Ba15 Na41 4.486709 1_555
Ba15 Ba17 4.500357 1_555
Ba15 Na30 4.508024 1_555
Ba15 Na29 4.508024 1_555
Ba16 Li19 3.928391 1_565
Ba16 Li0 4.053432 1_565
Ba16 Li13 4.084450 1_565
Ba16 Li17 4.084450 1_565
Ba16 Na37 4.201272 1_555
Ba16 Na53 4.230462 1_555
Ba16 Na57 4.230462 1_555
Ba16 Ba22 4.423799 1_565
Ba16 Ba25 4.423799 1_565
Ba16 Na22 4.424489 1_455
Ba16 Ba18 4.482529 1_555
Ba16 Na44 4.486709 1_555
Ba16 Na43 4.486709 1_555
Ba16 Ba7 4.500357 1_555
Ba16 Na34 4.508024 1_555
Ba16 Na32 4.508024 1_555
Ba17 Li21 3.928391 1_655
Ba17 Li0 4.053432 1_655
Ba17 Li14 4.084450 1_655
Ba17 Li16 4.084450 1_655
Ba17 Na39 4.201272 1_555
Ba17 Na54 4.230462 1_555
Ba17 Na56 4.230462 1_555
Ba17 Ba22 4.423799 1_655
Ba17 Ba25 4.423799 1_655
Ba17 Na23 4.424489 1_545
Ba17 Ba19 4.482529 1_555
Ba17 Na40 4.486709 1_555
Ba17 Na42 4.486709 1_555
Ba17 Na35 4.508024 1_555
Ba17 Na31 4.508024 1_555
Ba18 Na27 4.000891 1_555
Ba18 Na32 4.000891 1_555
Ba18 Na34 4.000891 1_555
Ba18 Na43 4.022858 1_555
Ba18 Na45 4.022858 1_555
Ba18 Na44 4.022859 1_555
Ba18 Na38 4.246613 1_555
Ba18 Na36 4.246614 1_555
Ba18 Na37 4.246614 1_555
Ba18 Na18 4.319267 1_455
Ba18 Na22 4.319267 1_455
Ba18 Na20 4.319267 1_455
Ba19 Na31 4.000891 1_555
Ba19 Na24 4.000891 1_555
Ba19 Na35 4.000891 1_555
Ba19 Na42 4.022858 1_555
Ba19 Na45 4.022858 1_555
Ba19 Na40 4.022859 1_555
Ba19 Na38 4.246613 1_555
Ba19 Na36 4.246614 1_555
Ba19 Na39 4.246614 1_555
Ba19 Na15 4.319267 1_545
Ba19 Na12 4.319267 1_545
Ba19 Na23 4.319267 1_545
Ba19 Ba9 4.482529 1_555
Ba19 Ba6 4.482529 1_555
Ba20 Na28 4.000891 1_555
Ba20 Na26 4.000891 1_555
Ba20 Na33 4.000891 1_555
Ba20 Na42 4.022858 1_555
Ba20 Na43 4.022858 1_555
Ba20 Na41 4.022859 1_555
Ba20 Na38 4.246613 1_555
Ba20 Na39 4.246614 1_555
Ba20 Na37 4.246614 1_555
Ba20 Na14 4.319267 1_554
Ba20 Na19 4.319267 1_554
Ba20 Na16 4.319267 1_554
Ba20 Ba8 4.482529 1_555
Ba21 Na25 4.000891 1_555
Ba21 Na29 4.000891 1_555
Ba21 Na30 4.000891 1_555
Ba21 Na41 4.022858 1_555
Ba21 Na40 4.022858 1_555
Ba21 Na44 4.022858 1_555
Ba21 Na39 4.246613 1_555
Ba21 Na37 4.246613 1_555
Ba21 Na36 4.246613 1_555
Ba21 Na17 4.319267 1_555
Ba21 Na21 4.319267 1_555
Ba21 Na13 4.319267 1_555
Ba21 Ba7 4.482529 1_555
Ba22 Li0 3.848005 1_555
Ba22 Li14 4.039432 1_555
Ba22 Li13 4.039432 1_555
Ba22 Na53 4.185885 1_545
Ba22 Na54 4.185885 1_455
Ba22 Na22 4.231346 1_445
Ba22 Na23 4.231346 1_445
Ba22 Na35 4.274309 1_455
Ba22 Na34 4.274309 1_545
Ba22 Na4 4.305779 1_455
Ba22 Na6 4.305779 1_545
Ba22 Ba34 4.406031 1_555
Ba22 Ba25 4.799136 1_555
Ba23 Li1 3.848005 1_555
Ba23 Li9 4.039432 1_555
Ba23 Li11 4.039432 1_555
Ba23 Na49 4.185885 1_455
Ba23 Na51 4.185885 1_555
Ba23 Na18 4.231346 1_455
Ba23 Na21 4.231346 1_455
Ba23 Na30 4.274309 1_455
Ba23 Na32 4.274309 1_555
Ba23 Na8 4.305779 1_555
Ba23 Na3 4.305780 1_455
Ba23 Ba35 4.406031 1_555
Ba23 Ba27 4.799136 1_555
Ba24 Li2 3.848005 1_555
Ba24 Li16 4.039432 1_555
Ba24 Li15 4.039432 1_555
Ba24 Na56 4.185885 1_455
Ba24 Na55 4.185885 1_554
Ba24 Na19 4.231346 1_454
Ba24 Na20 4.231346 1_454
Ba24 Na27 4.274309 1_554
Ba24 Na28 4.274309 1_455
Ba24 Na5 4.305780 1_455
Ba24 Na10 4.305780 1_554
Ba24 Ba36 4.406031 1_555
Ba24 Ba3 4.538053 1_454
Ba24 Ba26 4.799136 1_555
Ba25 Li0 3.848005 1_555
Ba25 Li16 4.039432 1_555
Ba25 Li17 4.039432 1_555
Ba25 Na56 4.185885 1_455
Ba25 Na57 4.185885 1_545
Ba25 Na22 4.231346 1_445
Ba25 Na23 4.231346 1_445
Ba25 Na32 4.274309 1_545
Ba25 Na31 4.274309 1_455
Ba25 Na8 4.305780 1_545
Ba25 Na1 4.305780 1_455
Ba25 Ba36 4.406031 1_555
Ba26 Li2 3.848005 1_555
Ba26 Li9 4.039432 1_555
Ba26 Li10 4.039432 1_555
Ba26 Na49 4.185885 1_455
Ba26 Na50 4.185885 1_554
Ba26 Na20 4.231346 1_454
Ba26 Na19 4.231346 1_454
Ba26 Na34 4.274309 1_554
Ba26 Na33 4.274309 1_455
Ba26 Na0 4.305779 1_455
Ba26 Na6 4.305779 1_554
Ba26 Ba35 4.406031 1_555
Ba27 Li1 3.848005 1_555
Ba27 Li14 4.039432 1_555
Ba27 Li12 4.039432 1_555
Ba27 Na54 4.185885 1_455
Ba27 Na52 4.185885 1_555
Ba27 Na18 4.231346 1_455
Ba27 Na21 4.231346 1_455
Ba27 Na29 4.274309 1_455
Ba27 Na27 4.274309 1_555
Ba27 Na10 4.305779 1_555
Ba27 Na2 4.305780 1_455
Ba27 Ba34 4.406031 1_555
Ba27 Ba3 4.538054 1_455
Ba28 Li3 3.848005 1_555
Ba28 Li6 4.039432 1_555
Ba28 Li8 4.039432 1_555
Ba28 Na48 4.185885 1_554
Ba28 Na46 4.185885 1_545
Ba28 Na12 4.231346 1_544
Ba28 Na16 4.231346 1_544
Ba28 Na33 4.274309 1_545
Ba28 Na35 4.274309 1_554
Ba28 Na4 4.305779 1_554
Ba28 Na0 4.305779 1_545
Ba28 Ba37 4.406031 1_555
Ba28 Ba6 4.423799 1_554
Ba28 Ba31 4.799136 1_555
Ba29 Li4 3.848005 1_555
Ba29 Li13 4.039432 1_555
Ba29 Li12 4.039432 1_555
Ba29 Na53 4.185885 1_545
Ba29 Na52 4.185885 1_555
Ba29 Na15 4.231346 1_545
Ba29 Na13 4.231346 1_545
Ba29 Na25 4.274309 1_545
Ba29 Na24 4.274309 1_555
Ba29 Na11 4.305779 1_555
Ba29 Na9 4.305780 1_545
Ba29 Ba34 4.406031 1_555
Ba29 Ba7 4.423799 1_545
Ba29 Ba9 4.423799 1_555
Ba29 Ba4 4.538054 1_545
Ba29 Ba30 4.799136 1_555
Ba30 Li4 3.848005 1_555
Ba30 Li6 4.039432 1_555
Ba30 Li7 4.039432 1_555
Ba30 Na46 4.185885 1_545
Ba30 Na47 4.185885 1_555
Ba30 Na15 4.231346 1_545
Ba30 Na13 4.231346 1_545
Ba30 Na30 4.274309 1_545
Ba30 Na31 4.274309 1_555
Ba30 Na1 4.305779 1_555
Ba30 Na3 4.305780 1_545
Ba30 Ba37 4.406031 1_555
Ba30 Ba7 4.423799 1_545
Ba30 Ba9 4.423799 1_555
Ba31 Li3 3.848005 1_555
Ba31 Li17 4.039432 1_555
Ba31 Li15 4.039432 1_555
Ba31 Na57 4.185885 1_545
Ba31 Na55 4.185885 1_554
Ba31 Na12 4.231346 1_544
Ba31 Na16 4.231346 1_544
Ba31 Na26 4.274309 1_545
Ba31 Na24 4.274309 1_554
Ba31 Na7 4.305780 1_545
Ba31 Na11 4.305780 1_554
Ba31 Ba36 4.406031 1_555
Ba31 Ba6 4.423799 1_554
Ba31 Ba4 4.538053 1_544
Ba32 Li5 3.848005 1_555
Ba32 Li7 4.039432 1_555
Ba32 Li8 4.039432 1_555
Ba32 Na48 4.185885 1_554
Ba32 Na47 4.185885 1_555
Ba32 Na14 4.231346 1_554
Ba32 Na17 4.231346 1_554
Ba32 Na29 4.274309 1_554
Ba32 Na28 4.274309 1_555
Ba32 Na5 4.305779 1_555
Ba32 Na2 4.305780 1_554
Ba32 Ba37 4.406031 1_555
Ba32 Ba8 4.423799 1_555
Ba32 Ba33 4.799136 1_555
Ba33 Li5 3.848005 1_555
Ba33 Li10 4.039432 1_555
Ba33 Li11 4.039432 1_555
Ba33 Na50 4.185885 1_554
Ba33 Na51 4.185885 1_555
Ba33 Na14 4.231346 1_554
Ba33 Na17 4.231346 1_554
Ba33 Na25 4.274309 1_554
Ba33 Na26 4.274309 1_555
Ba33 Na7 4.305779 1_555
Ba33 Na9 4.305780 1_554
Ba33 Ba35 4.406031 1_555
Ba33 Ba8 4.423799 1_555
Ba33 Ba4 4.538054 1_554
Ba34 Li14 3.954652 1_555
Ba34 Li12 3.954652 1_555
Ba34 Li13 3.954652 1_555
Ba34 Na53 4.161392 1_545
Ba34 Na54 4.161392 1_455
Ba34 Na52 4.161393 1_555
Ba34 Na10 4.288228 1_555
Ba34 Na11 4.288228 1_555
Ba34 Na9 4.288228 1_545
Ba34 Na2 4.288228 1_455
Ba34 Na4 4.288228 1_455
Ba34 Na6 4.288228 1_545
Ba35 Li11 3.954652 1_555
Ba35 Li9 3.954652 1_555
Ba35 Li10 3.954652 1_555
Ba35 Na50 4.161392 1_554
Ba35 Na49 4.161392 1_455
Ba35 Na51 4.161393 1_555
Ba35 Na8 4.288228 1_555
Ba35 Na7 4.288228 1_555
Ba35 Na9 4.288228 1_554
Ba35 Na3 4.288228 1_455
Ba35 Na6 4.288228 1_554
Ba35 Na0 4.288228 1_455
Ba36 Li17 3.954652 1_555
Ba36 Li15 3.954652 1_555
Ba36 Li16 3.954652 1_555
Ba36 Na56 4.161392 1_455
Ba36 Na57 4.161392 1_545
Ba36 Na55 4.161392 1_554
Ba36 Na10 4.288228 1_554
Ba36 Na5 4.288228 1_455
Ba36 Na11 4.288228 1_554
Ba36 Na8 4.288228 1_545
Ba36 Na1 4.288228 1_455
Ba36 Na7 4.288228 1_545
Ba37 Li8 3.954652 1_555
Ba37 Li6 3.954652 1_555
Ba37 Li7 3.954652 1_555
Ba37 Na48 4.161392 1_554
Ba37 Na46 4.161392 1_545
Ba37 Na47 4.161393 1_555
Ba37 Na1 4.288228 1_555
Ba37 Na5 4.288228 1_555
Ba37 Na2 4.288228 1_554
Ba37 Na3 4.288228 1_545
Ba37 Na4 4.288228 1_554
Ba37 Na0 4.288228 1_545
Na0 Na6 3.563641 1_654
Na0 Na4 3.563641 1_564
Na0 Na33 3.577548 1_555
Na0 Na49 3.685230 1_555
Na0 Na46 3.685230 1_555
Na0 Na3 3.688670 1_555
Na1 Na3 3.563641 1_545
Na1 Na8 3.563641 1_645
Na1 Na31 3.577548 1_555
Na1 Na47 3.685230 1_555
Na1 Na56 3.685230 1_555
Na1 Na5 3.688670 1_555
Na2 Na5 3.563641 1_556
Na2 Na29 3.577548 1_555
Na2 Na54 3.685229 1_555
Na2 Na48 3.685229 1_555
Na2 Na4 3.688670 1_555
Na3 Na8 3.563641 1_655
Na3 Na30 3.577548 1_555
Na3 Na46 3.685229 1_555
Na3 Na49 3.685229 1_555
Na4 Na6 3.563641 1_645
Na4 Na54 3.685230 1_555
Na4 Na48 3.685230 1_555
Na5 Na56 3.685230 1_555
Na6 Na9 3.688670 1_555
Na7 Na9 3.563641 1_554
Na7 Na8 3.688670 1_555
Na10 Na2 3.563641 1_455
Na10 Na5 3.563641 1_456
Na10 Na27 3.577548 1_555
Na10 Na52 3.685230 1_555
Na10 Na55 3.685230 1_555
Na10 Na11 3.688670 1_555
Na11 Na9 3.563641 1_545
Na11 Na7 3.563641 1_546
Na11 Na24 3.577548 1_555
Na11 Na52 3.685230 1_555
Na11 Na55 3.685230 1_555
Na12 Na16 3.587724 1_555
Na12 Na24 3.658444 1_565
Na12 Na35 3.658444 1_565
Na12 Na23 3.791423 1_555
Na12 Na15 3.791423 1_555
Na13 Na15 3.587724 1_555
Na13 Na25 3.658444 1_555
Na13 Na30 3.658444 1_555
Na13 Na17 3.791423 1_555
Na13 Na21 3.791423 1_555
Na14 Na17 3.587724 1_555
Na14 Na28 3.658444 1_556
Na14 Na26 3.658444 1_556
Na14 Na16 3.791423 1_555
Na14 Na19 3.791423 1_555
Na15 Na24 3.658444 1_565
Na15 Na31 3.658444 1_565
Na15 Na23 3.791423 1_555
Na16 Na26 3.658444 1_556
Na16 Na33 3.658444 1_556
Na16 Na19 3.791423 1_555
Na17 Na29 3.658444 1_555
Na17 Na25 3.658444 1_555
Na17 Na21 3.791423 1_555
Na18 Na21 3.587724 1_555
Na18 Na32 3.658444 1_655
Na18 Na27 3.658444 1_655
Na18 Na20 3.791423 1_555
Na18 Na22 3.791423 1_555
Na19 Na20 3.587724 1_555
Na19 Na28 3.658444 1_556
Na19 Na33 3.658444 1_556
Na20 Na27 3.658444 1_655
Na20 Na34 3.658444 1_655
Na20 Na22 3.791423 1_555
Na21 Na30 3.658444 1_555
Na21 Na29 3.658444 1_555
Na22 Na23 3.587724 1_555
Na22 Na32 3.658444 1_655
Na22 Na34 3.658444 1_655
Na23 Na31 3.658444 1_565
Na23 Na35 3.658444 1_565
Na24 Na52 3.666567 1_555
Na24 Na55 3.666567 1_555
Na24 Na45 3.698101 1_555
Na25 Na9 3.577548 1_555
Na25 Na50 3.666567 1_555
Na25 Na53 3.666567 1_555
Na25 Na44 3.698101 1_555
Na26 Na7 3.577548 1_555
Na26 Na51 3.666567 1_555
Na26 Na57 3.666567 1_555
Na26 Na43 3.698101 1_555
Na27 Na52 3.666567 1_555
Na27 Na55 3.666567 1_555
Na27 Na45 3.698101 1_555
Na28 Na5 3.577548 1_555
Na28 Na47 3.666567 1_555
Na28 Na56 3.666567 1_555
Na28 Na42 3.698101 1_555
Na29 Na48 3.666567 1_555
Na29 Na54 3.666567 1_555
Na29 Na40 3.698101 1_555
Na30 Na49 3.666567 1_555
Na30 Na46 3.666567 1_555
Na30 Na41 3.698101 1_555
Na31 Na47 3.666567 1_555
Na31 Na56 3.666567 1_555
Na31 Na42 3.698101 1_555
Na32 Na8 3.577548 1_555
Na32 Na51 3.666567 1_555
Na32 Na57 3.666567 1_555
Na32 Na43 3.698101 1_555
Na33 Na49 3.666567 1_555
Na33 Na46 3.666567 1_555
Na33 Na41 3.698101 1_555
Na34 Na6 3.577548 1_555
Na34 Na53 3.666567 1_555
Na34 Na50 3.666567 1_555
Na34 Na44 3.698101 1_555
Na35 Na4 3.577548 1_555
Na35 Na54 3.666567 1_555
Na35 Na48 3.666567 1_555
Na35 Na40 3.698101 1_555
Na36 Na44 3.554150 1_555
Na36 Na40 3.554150 1_555
Na36 Na45 3.554150 1_555
Na36 Na38 3.872127 1_555
Na36 Na37 3.872127 1_555
Na36 Na39 3.872127 1_555
Na37 Na41 3.554150 1_555
Na37 Na44 3.554150 1_555
Na37 Na43 3.554150 1_555
Na37 Na38 3.872127 1_555
Na37 Na39 3.872127 1_555
Na38 Na45 3.554150 1_555
Na38 Na42 3.554150 1_555
Na38 Na43 3.554150 1_555
Na38 Na39 3.872127 1_555
Na39 Na41 3.554150 1_555
Na39 Na40 3.554150 1_555
Na39 Na42 3.554150 1_555
Na40 Na48 3.549279 1_555
Na40 Na54 3.549279 1_555
Na41 Na49 3.549279 1_555
Na41 Na46 3.549279 1_555
Na42 Na47 3.549279 1_555
Na42 Na56 3.549279 1_555
Na43 Na51 3.549279 1_555
Na43 Na57 3.549279 1_555
Na44 Na53 3.549279 1_555
Na44 Na50 3.549279 1_555
Na45 Na52 3.549279 1_555
Na45 Na55 3.549279 1_555
Na46 Na49 3.841920 1_555
Na47 Na5 3.685230 1_555
Na47 Na56 3.841920 1_555
Na48 Na54 3.841920 1_555
Na50 Na9 3.685229 1_555
Na50 Na6 3.685230 1_555
Na50 Na53 3.841920 1_555
Na51 Na7 3.685230 1_555
Na51 Na8 3.685230 1_555
Na51 Na57 3.841920 1_555
Na52 Na55 3.841920 1_555
Na53 Na9 3.685229 1_555
Na53 Na6 3.685230 1_555
Na57 Na8 3.685230 1_555
Na57 Na7 3.685230 1_555
Li0 Li24 3.086003 1_555
Li0 Li25 3.086003 1_555
Li0 Li19 3.254173 1_555
Li0 Li21 3.254173 1_555
Li0 Li13 3.276316 1_555
Li0 Li14 3.276316 1_555
Li0 Li17 3.276316 1_555
Li0 Li16 3.276316 1_555
Li1 Li24 3.086003 1_555
Li1 Li23 3.086003 1_555
Li1 Li20 3.254173 1_555
Li1 Li21 3.254173 1_555
Li1 Li12 3.276316 1_555
Li1 Li11 3.276316 1_555
Li1 Li14 3.276316 1_555
Li1 Li9 3.276316 1_555
Li2 Li23 3.086003 1_555
Li2 Li25 3.086003 1_555
Li2 Li21 3.254173 1_555
Li2 Li9 3.276316 1_555
Li3 Li8 3.276316 1_555
Li3 Li6 3.276316 1_555
Li4 Li7 3.276316 1_555
Li4 Li6 3.276316 1_555
Li5 Li7 3.276316 1_555
Li5 Li8 3.276316 1_555
Li6 Na46 3.302258 1_545
Li7 Na47 3.302258 1_555
Li8 Na48 3.302258 1_554
Li9 Na49 3.302258 1_455
Li10 Li23 2.990115 1_555
Li10 Li18 3.086092 1_555
Li10 Li2 3.276316 1_555
Li10 Li5 3.276316 1_555
Li10 Na50 3.302258 1_554
Li11 Li23 2.990115 1_555
Li11 Li20 3.086092 1_555
Li11 Li5 3.276316 1_555
Li11 Na51 3.302258 1_555
Li12 Li24 2.990115 1_555
Li12 Li20 3.086092 1_555
Li12 Li4 3.276316 1_555
Li12 Na52 3.302258 1_555
Li13 Li24 2.990115 1_555
Li13 Li19 3.086092 1_555
Li13 Li4 3.276316 1_555
Li13 Na53 3.302258 1_545
Li14 Li24 2.990115 1_555
Li14 Li21 3.086092 1_555
Li14 Na54 3.302258 1_455
Li15 Li25 2.990115 1_555
Li15 Li18 3.086091 1_555
Li15 Li2 3.276316 1_555
Li15 Li3 3.276316 1_555
Li15 Na55 3.302258 1_554
Li16 Li25 2.990115 1_555
Li16 Li21 3.086091 1_555
Li16 Li2 3.276316 1_555
Li16 Na56 3.302258 1_455
Li17 Li25 2.990115 1_555
Li17 Li19 3.086091 1_555
Li17 Li3 3.276316 1_555
Li17 Na57 3.302258 1_545
Li18 Li8 3.086092 1_555
Li18 Li25 3.160241 1_555
Li18 Li22 3.160241 1_555
Li18 Li23 3.160241 1_555
Li18 Li3 3.254173 1_555
Li18 Li2 3.254173 1_555
Li18 Li5 3.254173 1_555
Li19 Li6 3.086092 1_555
Li19 Li25 3.160241 1_555
Li19 Li24 3.160241 1_555
Li19 Li22 3.160241 1_555
Li19 Li3 3.254173 1_555
Li19 Li4 3.254173 1_555
Li20 Li7 3.086092 1_555
Li20 Li23 3.160241 1_555
Li20 Li24 3.160241 1_555
Li20 Li22 3.160241 1_555
Li20 Li4 3.254173 1_555
Li20 Li5 3.254173 1_555
Li21 Li9 3.086092 1_555
Li21 Li23 3.160241 1_555
Li21 Li24 3.160241 1_555
Li21 Li25 3.160241 1_555
Li22 Li6 2.990115 1_555
Li22 Li8 2.990115 1_555
Li22 Li7 2.990115 1_555
Li22 Li3 3.086003 1_555
Li22 Li4 3.086003 1_555
Li22 Li5 3.086003 1_555
Li23 Li9 2.990115 1_555
Li23 Li5 3.086003 1_555
Li24 Li4 3.086003 1_555
Li25 Li3 3.086003 1_555
H0 Li22 1.855891 1_555
H0 Li23 1.855891 1_555
H0 Li24 1.855891 1_555
H0 Li25 1.855891 1_555
