# generated using pymatgen
data_Li3Ti3VO8
_symmetry_space_group_name_H-M   'P 1'
_cell_length_a   5.91505115
_cell_length_b   8.44166285
_cell_length_c   6.03160257
_cell_angle_alpha   88.36570080
_cell_angle_beta   89.98958349
_cell_angle_gamma   89.99939958
_symmetry_Int_Tables_number   1
_chemical_formula_structural   Li3Ti3VO8
_chemical_formula_sum   'Li6 Ti6 V2 O16'
_cell_volume   301.05269563
_cell_formula_units_Z   2
loop_
 _symmetry_equiv_pos_site_id
 _symmetry_equiv_pos_as_xyz
  1  'x, y, z'
loop_
 _atom_site_type_symbol
 _atom_site_label
 _atom_site_symmetry_multiplicity
 _atom_site_fract_x
 _atom_site_fract_y
 _atom_site_fract_z
 _atom_site_occupancy
  Li  Li0  1  0.24956700  0.75295700  0.74820300  1
  Li  Li1  1  0.75064200  0.24722700  0.25237800  1
  Li  Li2  1  0.24933700  0.24742100  0.25235400  1
  Li  Li3  1  0.75037900  0.75266400  0.74808500  1
  Li  Li4  1  0.49997900  0.50036100  0.99957100  1
  Li  Li5  1  0.99991400  0.99979900  0.49824500  1
  Ti  Ti0  1  0.75147700  0.75317300  0.24672900  1
  Ti  Ti1  1  0.24835400  0.24536200  0.75337100  1
  Ti  Ti2  1  0.24754100  0.75222200  0.24711200  1
  Ti  Ti3  1  0.75254800  0.24615200  0.75312200  1
  Ti  Ti4  1  0.50019500  0.99554900  0.00895600  1
  Ti  Ti5  1  0.00019400  0.50482300  0.49347400  1
  V  V0  1  0.99999100  0.00078100  0.00066100  1
  V  V1  1  0.50000200  0.49895100  0.49903600  1
  O  O0  1  0.49970700  0.75482800  0.00628500  1
  O  O1  1  0.00017800  0.25561500  0.51508500  1
  O  O2  1  0.50014800  0.24388600  0.98787800  1
  O  O3  1  0.99965800  0.74631900  0.49115200  1
  O  O4  1  0.24944700  0.50845200  0.26999200  1
  O  O5  1  0.74314000  0.01351100  0.76636900  1
  O  O6  1  0.75129900  0.50857500  0.27071200  1
  O  O7  1  0.25628300  0.01323300  0.76567300  1
  O  O8  1  0.50020600  0.25980500  0.52419700  1
  O  O9  1  0.99973800  0.75456000  0.02002600  1
  O  O10  1  0.75155700  0.48730900  0.72650000  1
  O  O11  1  0.25629900  0.99180000  0.23609800  1
  O  O12  1  0.24787300  0.48727900  0.72583600  1
  O  O13  1  0.74433900  0.99206500  0.23686400  1
  O  O14  1  0.49976300  0.73863300  0.47593400  1
  O  O15  1  0.00024400  0.24668900  0.98010500  1
loop_
_geom_bond_atom_site_label_1
_geom_bond_atom_site_label_2
_geom_bond_distance
_geom_bond_site_symmetry_2
Li0 O3 2.144274 1_455
Li0 O0 2.148216 1_556
Li0 O7 2.203046 1_565
Li0 O9 2.207344 1_456
Li0 O14 2.216328 1_555
Li0 O12 2.250678 1_555
Li1 O13 2.159010 1_545
Li1 O1 2.168335 1_655
Li1 O2 2.178252 1_554
Li1 O15 2.208236 1_654
Li1 O6 2.212133 1_555
Li1 O8 2.214196 1_555
Li2 O11 2.163276 1_545
Li2 O1 2.166443 1_555
Li2 O2 2.179083 1_554
Li2 O15 2.206555 1_554
Li2 O4 2.209131 1_555
Li2 O8 2.216306 1_555
Li3 O3 2.140687 1_555
Li3 O0 2.150581 1_556
Li3 O9 2.206482 1_556
Li3 O5 2.208296 1_565
Li3 O14 2.217675 1_555
Li3 O10 2.247532 1_555
Li4 O0 2.149661 1_556
Li4 O2 2.168234 1_555
Li4 O4 2.206035 1_556
Li4 O6 2.212834 1_556
Li4 O10 2.224595 1_555
Li4 O12 2.230075 1_555
Li5 O3 2.141440 1_555
Li5 O1 2.164792 1_665
Li5 O13 2.186746 1_555
Li5 O11 2.193109 1_655
Li5 O7 2.219369 1_665
Li5 O5 2.223830 1_565
O0 Ti4 2.032611 1_555
O0 Ti0 2.078677 1_555
O0 Ti2 2.081499 1_555
O1 Ti3 2.050833 1_455
O1 Ti1 2.054698 1_555
O1 Ti5 2.104051 1_555
O2 Ti1 2.053979 1_555
O2 Ti3 2.057160 1_555
O2 Ti4 2.096606 1_546
O3 Ti5 2.038279 1_655
O3 Ti2 2.077022 1_655
O3 Ti0 2.080325 1_555
O4 Ti5 1.997131 1_555
O4 V1 2.026293 1_555
O4 Ti2 2.058546 1_555
O5 Ti3 1.964012 1_555
O5 Ti4 2.053182 1_546
O5 V0 2.075790 1_556
O6 Ti5 1.992997 1_655
O6 V1 2.026212 1_555
O6 Ti0 2.065755 1_555
O7 Ti1 1.959404 1_555
O7 Ti4 2.060415 1_546
O7 V0 2.075780 1_456
O8 V1 2.020166 1_555
O8 Ti1 2.033342 1_555
O8 Ti3 2.034556 1_555
O9 Ti2 2.006018 1_655
O9 Ti0 2.006154 1_555
O9 V0 2.078466 1_565
O10 V1 2.024609 1_555
O10 Ti5 2.036592 1_655
O10 Ti3 2.037527 1_555
O11 Ti4 1.988983 1_555
O11 Ti2 2.022297 1_555
O11 V0 2.077366 1_465
O12 V1 2.024045 1_555
O12 Ti5 2.030125 1_555
O12 Ti1 2.044199 1_555
O13 Ti4 1.993599 1_555
O13 Ti0 2.016268 1_555
O13 V0 2.077283 1_565
O14 V1 2.024139 1_555
O14 Ti0 2.032905 1_555
O14 Ti2 2.033595 1_555
O15 Ti3 2.005512 1_455
O15 Ti1 2.006070 1_555
O15 V0 2.076040 1_456
