# generated using pymatgen
data_In5(GeN3)3
_symmetry_space_group_name_H-M   'P 1'
_cell_length_a   7.84630392
_cell_length_b   11.26145960
_cell_length_c   16.13228800
_cell_angle_alpha   90.00000000
_cell_angle_beta   90.00000000
_cell_angle_gamma   135.85901722
_symmetry_Int_Tables_number   1
_chemical_formula_structural   In5(GeN3)3
_chemical_formula_sum   'In20 Ge12 N36'
_cell_volume   992.72950268
_cell_formula_units_Z   4
loop_
 _symmetry_equiv_pos_site_id
 _symmetry_equiv_pos_as_xyz
  1  'x, y, z'
loop_
 _atom_site_type_symbol
 _atom_site_label
 _atom_site_symmetry_multiplicity
 _atom_site_fract_x
 _atom_site_fract_y
 _atom_site_fract_z
 _atom_site_occupancy
  In  In0  1  0.00000000  0.54454700  0.84008100  1
  In  In1  1  0.00000000  0.45545300  0.15991900  1
  In  In2  1  0.00000000  0.95545300  0.34008100  1
  In  In3  1  0.00000000  0.04454700  0.65991900  1
  In  In4  1  0.38517800  0.01903400  0.84487800  1
  In  In5  1  0.38517800  0.36614400  0.15512200  1
  In  In6  1  0.38517800  0.86614400  0.34487800  1
  In  In7  1  0.38517800  0.51903400  0.65512200  1
  In  In8  1  0.61482200  0.98096600  0.15512200  1
  In  In9  1  0.61482200  0.63385600  0.84487800  1
  In  In10  1  0.61482200  0.13385600  0.65512200  1
  In  In11  1  0.61482200  0.48096600  0.34487800  1
  In  In12  1  0.00000000  0.50499100  0.60060300  1
  In  In13  1  0.00000000  0.49500900  0.39939700  1
  In  In14  1  0.00000000  0.99500900  0.10060300  1
  In  In15  1  0.00000000  0.00499100  0.89939700  1
  In  In16  1  0.60621900  0.30310900  0.00000000  1
  In  In17  1  0.60621900  0.80310900  0.50000000  1
  In  In18  1  0.39378100  0.69689100  0.00000000  1
  In  In19  1  0.39378100  0.19689100  0.50000000  1
  Ge  Ge0  1  0.00000000  0.76973300  0.00082300  1
  Ge  Ge1  1  0.00000000  0.23026700  0.99917700  1
  Ge  Ge2  1  0.00000000  0.73026700  0.50082300  1
  Ge  Ge3  1  0.00000000  0.26973300  0.49917700  1
  Ge  Ge4  1  0.00000000  0.26107200  0.78324300  1
  Ge  Ge5  1  0.00000000  0.73892800  0.21675700  1
  Ge  Ge6  1  0.00000000  0.23892800  0.28324300  1
  Ge  Ge7  1  0.00000000  0.76107200  0.71675700  1
  Ge  Ge8  1  0.50000000  0.82313000  0.75000000  1
  Ge  Ge9  1  0.50000000  0.67687000  0.25000000  1
  Ge  Ge10  1  0.50000000  0.17687000  0.25000000  1
  Ge  Ge11  1  0.50000000  0.32313000  0.75000000  1
  N  N0  1  0.00000000  0.41140300  0.73047400  1
  N  N1  1  0.00000000  0.58859700  0.26952600  1
  N  N2  1  0.00000000  0.08859700  0.23047400  1
  N  N3  1  0.00000000  0.91140300  0.76952600  1
  N  N4  1  0.00000000  0.19660900  0.88690500  1
  N  N5  1  0.00000000  0.80339100  0.11309500  1
  N  N6  1  0.00000000  0.30339100  0.38690500  1
  N  N7  1  0.00000000  0.69660900  0.61309500  1
  N  N8  1  0.00000000  0.61196800  0.97100400  1
  N  N9  1  0.00000000  0.38803200  0.02899600  1
  N  N10  1  0.00000000  0.88803200  0.47100400  1
  N  N11  1  0.00000000  0.11196800  0.52899600  1
  N  N12  1  0.74554400  0.55753000  0.77175100  1
  N  N13  1  0.74554400  0.18801400  0.22824900  1
  N  N14  1  0.74554400  0.68801300  0.27175100  1
  N  N15  1  0.74554400  0.05753000  0.72824900  1
  N  N16  1  0.25445600  0.44247000  0.22824900  1
  N  N17  1  0.25445600  0.81198700  0.77175100  1
  N  N18  1  0.25445600  0.31198600  0.72824900  1
  N  N19  1  0.25445600  0.94247000  0.27175100  1
  N  N20  1  0.58424200  0.27895500  0.84676400  1
  N  N21  1  0.58424200  0.30528700  0.15323600  1
  N  N22  1  0.58424200  0.80528700  0.34676400  1
  N  N23  1  0.58424200  0.77895500  0.65323600  1
  N  N24  1  0.41575800  0.72104500  0.15323600  1
  N  N25  1  0.41575800  0.69471300  0.84676400  1
  N  N26  1  0.41575800  0.19471300  0.65323600  1
  N  N27  1  0.41575800  0.22104500  0.34676400  1
  N  N28  1  0.25763300  0.00273600  0.96425300  1
  N  N29  1  0.25763300  0.25489600  0.03574700  1
  N  N30  1  0.25763300  0.75489600  0.46425300  1
  N  N31  1  0.25763300  0.50273600  0.53574700  1
  N  N32  1  0.74236700  0.99726400  0.03574700  1
  N  N33  1  0.74236700  0.74510400  0.96425300  1
  N  N34  1  0.74236700  0.24510400  0.53574700  1
  N  N35  1  0.74236700  0.49726400  0.46425300  1
loop_
_geom_bond_atom_site_label_1
_geom_bond_atom_site_label_2
_geom_bond_distance
_geom_bond_site_symmetry_2
In0 N8 2.244413 1_555
In0 N0 2.318353 1_555
In0 N20 2.365453 1_455
In0 N25 2.365453 1_555
In0 N12 2.375209 1_455
In0 N17 2.375216 1_555
In1 N9 2.244413 1_555
In1 N1 2.318353 1_555
In1 N24 2.365453 1_555
In1 N21 2.365453 1_455
In1 N13 2.375209 1_455
In1 N16 2.375209 1_555
In2 N10 2.244413 1_555
In2 N2 2.318353 1_565
In2 N27 2.365453 1_565
In2 N22 2.365453 1_455
In2 N19 2.375209 1_555
In2 N14 2.375216 1_455
In3 N11 2.244413 1_555
In3 N3 2.318353 1_545
In3 N23 2.365453 1_445
In3 N26 2.365453 1_555
In3 N18 2.375209 1_555
In3 N15 2.375209 1_455
In4 N20 2.108686 1_555
In4 N17 2.108995 1_545
In4 N28 2.116660 1_555
In4 N3 2.612098 1_545
In5 N21 2.108686 1_555
In5 N16 2.109004 1_555
In5 N29 2.116663 1_555
In5 N2 2.612098 1_555
In6 N22 2.108686 1_555
In6 N19 2.109004 1_555
In6 N30 2.116663 1_555
In6 N1 2.612098 1_555
In7 N23 2.108686 1_555
In7 N18 2.109004 1_555
In7 N31 2.116660 1_555
In7 N0 2.612098 1_555
In8 N24 2.108686 1_555
In8 N13 2.109004 1_565
In8 N32 2.116660 1_555
In8 N2 2.612098 1_665
In9 N25 2.108686 1_555
In9 N12 2.109004 1_555
In9 N33 2.116663 1_555
In9 N3 2.612098 1_655
In10 N26 2.108686 1_555
In10 N15 2.109004 1_555
In10 N34 2.116663 1_555
In10 N0 2.612098 1_655
In11 N27 2.108686 1_555
In11 N14 2.108995 1_555
In11 N35 2.116660 1_555
In11 N1 2.612098 1_655
In12 N7 2.167288 1_555
In12 N34 2.292446 1_455
In12 N31 2.292454 1_555
In12 N0 2.345271 1_555
In13 N6 2.167288 1_555
In13 N30 2.292446 1_555
In13 N35 2.292454 1_455
In13 N1 2.345271 1_555
In14 N5 2.167288 1_555
In14 N29 2.292446 1_565
In14 N32 2.292454 1_455
In14 N2 2.345271 1_565
In15 N4 2.167288 1_555
In15 N33 2.292446 1_445
In15 N28 2.292454 1_555
In15 N3 2.345271 1_545
In16 N28 2.444749 1_554
In16 N29 2.444749 1_555
In16 N20 2.479399 1_554
In16 N21 2.479400 1_555
In16 N9 2.537483 1_655
In16 N8 2.537489 1_654
In17 N31 2.444749 1_555
In17 N30 2.444749 1_555
In17 N23 2.479399 1_555
In17 N22 2.479400 1_555
In17 N10 2.537483 1_655
In17 N11 2.537489 1_665
In18 N32 2.444749 1_555
In18 N33 2.444749 1_554
In18 N24 2.479399 1_555
In18 N25 2.479400 1_554
In18 N8 2.537483 1_554
In18 N9 2.537489 1_555
In19 N35 2.444749 1_555
In19 N34 2.444749 1_555
In19 N27 2.479399 1_555
In19 N26 2.479400 1_555
In19 N11 2.537483 1_555
In19 N10 2.537489 1_545
Ge0 N8 1.840637 1_554
Ge0 N5 1.850441 1_555
Ge0 N28 1.925246 1_564
Ge0 N33 1.925253 1_454
Ge1 N9 1.840637 1_556
Ge1 N4 1.850441 1_555
Ge1 N32 1.925246 1_446
Ge1 N29 1.925253 1_556
Ge2 N10 1.840637 1_555
Ge2 N7 1.850441 1_555
Ge2 N35 1.925246 1_455
Ge2 N30 1.925253 1_555
Ge3 N11 1.840637 1_555
Ge3 N6 1.850441 1_555
Ge3 N31 1.925246 1_555
Ge3 N34 1.925253 1_455
Ge4 N4 1.823076 1_555
Ge4 N15 1.859838 1_455
Ge4 N18 1.859838 1_555
Ge4 N0 1.894928 1_555
Ge5 N5 1.823076 1_555
Ge5 N14 1.859833 1_455
Ge5 N19 1.859838 1_555
Ge5 N1 1.894928 1_555
Ge6 N6 1.823076 1_555
Ge6 N16 1.859838 1_555
Ge6 N13 1.859838 1_455
Ge6 N2 1.894928 1_555
Ge7 N7 1.823076 1_555
Ge7 N17 1.859833 1_555
Ge7 N12 1.859838 1_455
Ge7 N3 1.894928 1_555
Ge8 N15 1.871814 1_565
Ge8 N17 1.871822 1_555
Ge8 N25 1.895556 1_555
Ge8 N23 1.895556 1_555
Ge9 N16 1.871814 1_555
Ge9 N14 1.871822 1_555
Ge9 N22 1.895556 1_555
Ge9 N24 1.895556 1_555
Ge10 N19 1.871814 1_545
Ge10 N13 1.871814 1_555
Ge10 N21 1.895556 1_555
Ge10 N27 1.895556 1_555
Ge11 N12 1.871814 1_555
Ge11 N18 1.871814 1_555
Ge11 N26 1.895556 1_555
Ge11 N20 1.895556 1_555
