# generated using pymatgen
data_TiS5(ClO3)2
_symmetry_space_group_name_H-M   'P 1'
_cell_length_a   8.90468302
_cell_length_b   8.52153344
_cell_length_c   11.60998690
_cell_angle_alpha   68.78035602
_cell_angle_beta   85.93407779
_cell_angle_gamma   91.34908410
_symmetry_Int_Tables_number   1
_chemical_formula_structural   TiS5(ClO3)2
_chemical_formula_sum   'Ti2 S10 Cl4 O12'
_cell_volume   818.03810201
_cell_formula_units_Z   2
loop_
 _symmetry_equiv_pos_site_id
 _symmetry_equiv_pos_as_xyz
  1  'x, y, z'
loop_
 _atom_site_type_symbol
 _atom_site_label
 _atom_site_symmetry_multiplicity
 _atom_site_fract_x
 _atom_site_fract_y
 _atom_site_fract_z
 _atom_site_occupancy
  Ti  Ti0  1  0.75225800  0.06890800  0.83457200  1
  Ti  Ti1  1  0.24774200  0.93109200  0.16542800  1
  S  S0  1  0.07033600  0.32672100  0.83155000  1
  S  S1  1  0.92966400  0.67327900  0.16845000  1
  S  S2  1  0.42946000  0.92158200  0.74759800  1
  S  S3  1  0.57054000  0.07841800  0.25240200  1
  S  S4  1  0.03097000  0.92402200  0.68359500  1
  S  S5  1  0.96903000  0.07597800  0.31640500  1
  S  S6  1  0.51793400  0.38093000  0.86053300  1
  S  S7  1  0.48206600  0.61907000  0.13946700  1
  S  S8  1  0.76340900  0.35632200  0.48776500  1
  S  S9  1  0.23659100  0.64367800  0.51223500  1
  Cl  Cl0  1  0.27147500  0.61977300  0.78559000  1
  Cl  Cl1  1  0.72852500  0.38022700  0.21441000  1
  Cl  Cl2  1  0.15693000  0.13585900  0.56420700  1
  Cl  Cl3  1  0.84307000  0.86414100  0.43579300  1
  O  O0  1  0.94448500  0.19193300  0.85527800  1
  O  O1  1  0.05551500  0.80806700  0.14472200  1
  O  O2  1  0.56627700  0.02893800  0.75559500  1
  O  O3  1  0.43372300  0.97106200  0.24440500  1
  O  O4  1  0.88372100  0.98450400  0.72470800  1
  O  O5  1  0.11627900  0.01549600  0.27529200  1
  O  O6  1  0.63306900  0.24603800  0.88096600  1
  O  O7  1  0.36693100  0.75396200  0.11903400  1
  O  O8  1  0.76548300  0.32823300  0.62340800  1
  O  O9  1  0.23451700  0.67176700  0.37659200  1
  O  O10  1  0.73605900  0.90686100  0.96702300  1
  O  O11  1  0.26394100  0.09313900  0.03297700  1
loop_
_geom_bond_atom_site_label_1
_geom_bond_atom_site_label_2
_geom_bond_distance
_geom_bond_site_symmetry_2
Cl0 S2 2.776445 1_555
Cl1 S3 2.776445 1_555
Cl2 S4 2.076270 1_545
Cl3 S5 2.076270 1_565
O0 S0 1.522372 1_655
O0 Ti0 2.059886 1_555
O1 S1 1.522372 1_455
O1 Ti1 2.059886 1_555
O2 S2 1.534561 1_545
O2 Ti0 2.028370 1_555
O3 S3 1.534561 1_565
O3 Ti1 2.028370 1_555
O4 S4 1.527706 1_655
O4 Ti0 2.001668 1_565
O5 S5 1.527706 1_455
O5 Ti1 2.001668 1_545
O6 S6 1.523582 1_555
O6 Ti0 2.068289 1_555
O7 S7 1.523582 1_555
O7 Ti1 2.068289 1_555
O8 S8 1.506365 1_555
O8 Ti0 2.633001 1_555
O9 S9 1.506365 1_555
O9 Ti1 2.633001 1_555
O10 Ti0 1.647532 1_565
O11 Ti1 1.647532 1_545
