# generated using pymatgen
data_Be46Ir7
_symmetry_space_group_name_H-M   'P 1'
_cell_length_a   4.17684759
_cell_length_b   4.17684759
_cell_length_c   33.02418000
_cell_angle_alpha   90.00000000
_cell_angle_beta   90.00000000
_cell_angle_gamma   119.99999347
_symmetry_Int_Tables_number   1
_chemical_formula_structural   Be46Ir7
_chemical_formula_sum   'Be46 Ir7'
_cell_volume   498.95336919
_cell_formula_units_Z   1
loop_
 _symmetry_equiv_pos_site_id
 _symmetry_equiv_pos_as_xyz
  1  'x, y, z'
loop_
 _atom_site_type_symbol
 _atom_site_label
 _atom_site_symmetry_multiplicity
 _atom_site_fract_x
 _atom_site_fract_y
 _atom_site_fract_z
 _atom_site_occupancy
  Be  Be0  1  0.33333300  0.66666700  0.12504900  1
  Be  Be1  1  0.33333300  0.66666700  0.45832700  1
  Be  Be2  1  0.33333300  0.66666700  0.79163600  1
  Be  Be3  1  0.33333300  0.66666700  0.20798000  1
  Be  Be4  1  0.33333300  0.66666700  0.54134700  1
  Be  Be5  1  0.33333300  0.66666700  0.87558800  1
  Be  Be6  1  0.66666700  0.33333300  0.11407600  1
  Be  Be7  1  0.66666700  0.33333300  0.44749400  1
  Be  Be8  1  0.66666700  0.33333300  0.78139300  1
  Be  Be9  1  0.66666700  0.33333300  0.21902500  1
  Be  Be10  1  0.66666700  0.33333300  0.55214400  1
  Be  Be11  1  0.66666700  0.33333300  0.88595500  1
  Be  Be12  1  0.00274500  0.50137200  0.06111800  1
  Be  Be13  1  0.00096400  0.50048200  0.39388800  1
  Be  Be14  1  0.00582000  0.50291000  0.72971100  1
  Be  Be15  1  0.49862800  0.99725500  0.06111800  1
  Be  Be16  1  0.49951800  0.99903600  0.39388800  1
  Be  Be17  1  0.49709000  0.99418000  0.72971100  1
  Be  Be18  1  0.49862800  0.50137200  0.06111800  1
  Be  Be19  1  0.49951800  0.50048200  0.39388800  1
  Be  Be20  1  0.49709000  0.50291000  0.72971100  1
  Be  Be21  1  0.00113300  0.50056700  0.27277400  1
  Be  Be22  1  0.00533900  0.50266900  0.60372100  1
  Be  Be23  1  0.00292400  0.50146200  0.93895800  1
  Be  Be24  1  0.49943300  0.99886700  0.27277400  1
  Be  Be25  1  0.49733100  0.99466100  0.60372100  1
  Be  Be26  1  0.49853800  0.99707600  0.93895800  1
  Be  Be27  1  0.49943300  0.50056700  0.27277400  1
  Be  Be28  1  0.49733100  0.50266900  0.60372100  1
  Be  Be29  1  0.49853800  0.50146200  0.93895800  1
  Be  Be30  1  0.00000000  0.00000000  0.03285500  1
  Be  Be31  1  0.00000000  0.00000000  0.36528100  1
  Be  Be32  1  0.00000000  0.00000000  0.69852900  1
  Be  Be33  1  0.00000000  0.00000000  0.30134300  1
  Be  Be34  1  0.00000000  0.00000000  0.63486800  1
  Be  Be35  1  0.00000000  0.00000000  0.96688100  1
  Be  Be36  1  0.32675500  0.16337700  0.16661200  1
  Be  Be37  1  0.32670200  0.16335100  0.49997600  1
  Be  Be38  1  0.32681200  0.16340600  0.83336300  1
  Be  Be39  1  0.83662300  0.67324500  0.16661200  1
  Be  Be40  1  0.83664900  0.67329800  0.49997600  1
  Be  Be41  1  0.83659400  0.67318800  0.83336300  1
  Be  Be42  1  0.83662300  0.16337700  0.16661200  1
  Be  Be43  1  0.83664900  0.16335100  0.49997600  1
  Be  Be44  1  0.83659400  0.16340600  0.83336300  1
  Be  Be45  1  0.66666700  0.33333300  0.33330400  1
  Ir  Ir0  1  0.00000000  0.00000000  0.10341100  1
  Ir  Ir1  1  0.00000000  0.00000000  0.43624000  1
  Ir  Ir2  1  0.00000000  0.00000000  0.77021600  1
  Ir  Ir3  1  0.00000000  0.00000000  0.23051500  1
  Ir  Ir4  1  0.00000000  0.00000000  0.56306800  1
  Ir  Ir5  1  0.00000000  0.00000000  0.89641300  1
  Ir  Ir6  1  0.33333300  0.66666700  0.66669800  1
loop_
_geom_bond_atom_site_label_1
_geom_bond_atom_site_label_2
_geom_bond_distance
_geom_bond_site_symmetry_2
Be0 Be15 2.426406 1_555
Be0 Be12 2.426406 1_555
Be0 Be18 2.426409 1_555
Be0 Be6 2.438577 1_455
Be0 Be6 2.438577 1_565
Be0 Be6 2.438584 1_555
Be0 Be39 2.499210 1_455
Be0 Be36 2.499210 1_565
Be0 Be42 2.499214 1_455
Be0 Be42 2.499214 1_565
Be0 Be36 2.499217 1_555
Be0 Be39 2.499217 1_555
Be0 Ir0 2.515146 1_565
Be0 Ir0 2.515150 1_665
Be0 Ir0 2.515150 1_555
Be1 Be7 2.437894 1_455
Be1 Be7 2.437894 1_565
Be1 Be7 2.437901 1_555
Be1 Be16 2.444180 1_555
Be1 Be13 2.444180 1_555
Be1 Be19 2.444181 1_555
Be1 Be40 2.500774 1_455
Be1 Be37 2.500774 1_565
Be1 Be43 2.500776 1_455
Be1 Be43 2.500776 1_565
Be1 Be40 2.500778 1_555
Be1 Be37 2.500778 1_555
Be1 Ir1 2.519399 1_565
Be1 Ir1 2.519403 1_665
Be1 Ir1 2.519403 1_555
Be2 Be20 2.363395 1_555
Be2 Be8 2.435111 1_455
Be2 Be8 2.435111 1_565
Be2 Be8 2.435118 1_555
Be2 Be38 2.502188 1_565
Be2 Be41 2.502188 1_455
Be2 Be44 2.502190 1_565
Be2 Be44 2.502190 1_455
Be2 Be41 2.502192 1_555
Be2 Be38 2.502192 1_555
Be2 Ir2 2.513110 1_565
Be2 Ir2 2.513114 1_555
Be2 Ir2 2.513114 1_665
Be3 Be9 2.438931 1_455
Be3 Be9 2.438931 1_565
Be3 Be9 2.438938 1_555
Be3 Be39 2.495679 1_455
Be3 Be36 2.495679 1_565
Be3 Be42 2.495683 1_455
Be3 Be42 2.495683 1_565
Be3 Be36 2.495686 1_555
Be3 Be39 2.495686 1_555
Be3 Ir3 2.523722 1_565
Be3 Ir3 2.523726 1_665
Be3 Ir3 2.523726 1_555
Be4 Be40 2.495737 1_455
Be4 Be43 2.495739 1_565
Be4 Be43 2.495739 1_455
Be4 Be40 2.495740 1_555
Be4 Ir4 2.515926 1_565
Be4 Ir4 2.515930 1_555
Be4 Ir4 2.515930 1_665
Be5 Ir5 2.507650 1_565
Be5 Ir5 2.507654 1_665
Be5 Ir5 2.507654 1_555
Be6 Ir0 2.437086 1_655
Be6 Ir0 2.437090 1_665
Be6 Ir0 2.437090 1_555
Be7 Ir1 2.439973 1_655
Be7 Ir1 2.439976 1_665
Be7 Ir1 2.439976 1_555
Be8 Ir2 2.439587 1_655
Be8 Ir2 2.439590 1_555
Be8 Ir2 2.439590 1_665
Be9 Ir3 2.441172 1_655
Be9 Ir3 2.441176 1_555
Be9 Ir3 2.441176 1_665
Be10 Be28 2.098087 1_555
Be10 Be22 2.098087 1_655
Be10 Be25 2.098087 1_545
Be10 Be43 2.116675 1_555
Be10 Be37 2.116677 1_555
Be10 Be40 2.116677 1_555
Be10 Be4 2.437720 1_545
Be10 Be4 2.437720 1_655
Be10 Be4 2.437727 1_555
Be10 Ir4 2.438337 1_655
Be10 Ir4 2.438340 1_555
Be10 Ir4 2.438340 1_665
Be11 Be44 2.127857 1_555
Be11 Be41 2.127859 1_555
Be11 Be38 2.127859 1_555
Be11 Be23 2.131498 1_655
Be11 Be26 2.131498 1_545
Be11 Be29 2.131500 1_555
Be11 Be5 2.435683 1_545
Be11 Be5 2.435683 1_655
Be11 Be5 2.435690 1_555
Be11 Ir5 2.436107 1_655
Be11 Ir5 2.436111 1_665
Be11 Ir5 2.436111 1_555
Be12 Be18 2.071228 1_555
Be12 Be15 2.071228 1_555
Be12 Be18 2.105620 1_455
Be12 Be15 2.105620 1_445
Be12 Be6 2.129909 1_455
Be12 Be30 2.287525 1_555
Be12 Be30 2.287528 1_565
Be12 Ir0 2.512439 1_555
Be12 Ir0 2.512443 1_565
Be13 Be19 2.082384 1_555
Be13 Be16 2.082384 1_555
Be13 Be19 2.094464 1_455
Be13 Be16 2.094464 1_445
Be13 Be7 2.143875 1_455
Be13 Be31 2.292166 1_565
Be13 Be31 2.292166 1_555
Be13 Be45 2.337778 1_455
Be13 Ir1 2.513508 1_565
Be13 Ir1 2.513508 1_555
Be14 Be20 2.051960 1_555
Be14 Be17 2.051960 1_555
Be14 Be8 2.101918 1_455
Be14 Be20 2.124888 1_455
Be14 Be17 2.124888 1_445
Be14 Be32 2.328597 1_565
Be14 Be32 2.328597 1_555
Be14 Be2 2.363393 1_555
Be14 Ir6 2.394551 1_555
Be14 Ir2 2.480171 1_565
Be14 Ir2 2.480171 1_555
Be15 Be18 2.071228 1_555
Be15 Be18 2.105620 1_565
Be15 Be6 2.129909 1_565
Be15 Be30 2.287525 1_665
Be15 Be30 2.287528 1_565
Be15 Ir0 2.512439 1_665
Be15 Ir0 2.512443 1_565
Be16 Be19 2.082384 1_555
Be16 Be19 2.094464 1_565
Be16 Be7 2.143875 1_565
Be16 Be31 2.292166 1_565
Be16 Be31 2.292166 1_665
Be16 Be45 2.337778 1_565
Be16 Ir1 2.513508 1_565
Be16 Ir1 2.513508 1_665
Be17 Be20 2.051960 1_555
Be17 Be8 2.101918 1_565
Be17 Be20 2.124888 1_565
Be17 Be32 2.328597 1_565
Be17 Be32 2.328597 1_665
Be17 Be2 2.363393 1_555
Be17 Ir6 2.394551 1_555
Be17 Ir2 2.480171 1_565
Be17 Ir2 2.480171 1_665
Be18 Be6 2.129909 1_555
Be18 Be30 2.287527 1_555
Be18 Be30 2.287527 1_665
Be18 Ir0 2.512441 1_555
Be18 Ir0 2.512441 1_665
Be19 Be7 2.143876 1_555
Be19 Be31 2.292167 1_555
Be19 Be31 2.292167 1_665
Be19 Be45 2.337780 1_555
Be19 Ir1 2.513508 1_555
Be19 Ir1 2.513508 1_665
Be20 Be8 2.101921 1_555
Be20 Be32 2.328597 1_665
Be20 Be32 2.328597 1_555
Be20 Ir6 2.394553 1_555
Be20 Ir2 2.480171 1_665
Be20 Ir2 2.480171 1_555
Be21 Be27 2.081323 1_555
Be21 Be24 2.081323 1_555
Be21 Be27 2.095524 1_455
Be21 Be24 2.095525 1_445
Be21 Be9 2.148120 1_455
Be21 Be33 2.291649 1_565
Be21 Be33 2.291652 1_555
Be21 Be45 2.336568 1_455
Be21 Be3 2.454094 1_555
Be21 Ir3 2.511799 1_565
Be21 Ir3 2.511803 1_555
Be22 Be28 2.054976 1_555
Be22 Be25 2.054976 1_555
Be22 Be28 2.121872 1_455
Be22 Be25 2.121872 1_445
Be22 Be34 2.328069 1_555
Be22 Be34 2.328073 1_565
Be22 Be4 2.377103 1_555
Be22 Ir6 2.394380 1_555
Be22 Ir4 2.482795 1_555
Be22 Ir4 2.482798 1_565
Be23 Be29 2.070104 1_555
Be23 Be26 2.070104 1_555
Be23 Be29 2.106743 1_455
Be23 Be26 2.106744 1_445
Be23 Be35 2.282971 1_565
Be23 Be35 2.282971 1_555
Be23 Be5 2.409982 1_555
Be23 Ir5 2.517080 1_565
Be23 Ir5 2.517080 1_555
Be24 Be27 2.081323 1_555
Be24 Be27 2.095524 1_565
Be24 Be9 2.148120 1_565
Be24 Be33 2.291649 1_565
Be24 Be33 2.291652 1_665
Be24 Be45 2.336568 1_565
Be24 Be3 2.454094 1_555
Be24 Ir3 2.511799 1_565
Be24 Ir3 2.511803 1_665
Be25 Be28 2.054976 1_555
Be25 Be28 2.121872 1_565
Be25 Be34 2.328069 1_665
Be25 Be34 2.328073 1_565
Be25 Be4 2.377103 1_555
Be25 Ir6 2.394380 1_555
Be25 Ir4 2.482795 1_665
Be25 Ir4 2.482798 1_565
Be26 Be29 2.070104 1_555
Be26 Be29 2.106743 1_565
Be26 Be35 2.282971 1_565
Be26 Be35 2.282971 1_665
Be26 Be5 2.409982 1_555
Be26 Ir5 2.517080 1_565
Be26 Ir5 2.517080 1_665
Be27 Be9 2.148124 1_555
Be27 Be33 2.291651 1_555
Be27 Be33 2.291651 1_665
Be27 Be45 2.336572 1_555
Be27 Be3 2.454094 1_555
Be27 Ir3 2.511801 1_555
Be27 Ir3 2.511801 1_665
Be28 Be34 2.328071 1_555
Be28 Be34 2.328071 1_665
Be28 Be4 2.377107 1_555
Be28 Ir6 2.394383 1_555
Be28 Ir4 2.482797 1_555
Be28 Ir4 2.482797 1_665
Be29 Be35 2.282971 1_555
Be29 Be35 2.282971 1_665
Be29 Be5 2.409983 1_555
Be29 Ir5 2.517080 1_555
Be29 Ir5 2.517080 1_665
Be30 Be35 2.178737 1_554
Be30 Ir0 2.330054 1_555
Be31 Be33 2.111500 1_555
Be31 Ir1 2.343363 1_555
Be32 Be34 2.102352 1_555
Be32 Ir2 2.367404 1_555
Be32 Ir6 2.630655 1_545
Be32 Ir6 2.630659 1_555
Be32 Ir6 2.630659 1_445
Be33 Ir3 2.339037 1_555
Be34 Ir4 2.371136 1_555
Be34 Ir6 2.630642 1_545
Be34 Ir6 2.630645 1_555
Be34 Ir6 2.630645 1_445
Be35 Ir5 2.327148 1_555
Be36 Be42 2.047207 1_455
Be36 Be39 2.047207 1_445
Be36 Be9 2.123156 1_555
Be36 Be6 2.126469 1_555
Be36 Be42 2.129641 1_555
Be36 Be39 2.129641 1_555
Be36 Ir0 2.398596 1_555
Be36 Ir3 2.418796 1_555
Be37 Be43 2.046877 1_455
Be37 Be40 2.046877 1_445
Be37 Be7 2.125125 1_555
Be37 Be43 2.129971 1_555
Be37 Be40 2.129971 1_555
Be37 Ir4 2.395370 1_555
Be37 Ir1 2.413892 1_555
Be37 Be4 2.495737 1_545
Be37 Be4 2.495740 1_555
Be38 Be44 2.047566 1_455
Be38 Be41 2.047566 1_445
Be38 Be8 2.111126 1_555
Be38 Be44 2.129282 1_555
Be38 Be41 2.129282 1_555
Be38 Ir5 2.394360 1_555
Be38 Ir2 2.397146 1_555
Be38 Be5 2.511283 1_545
Be38 Be5 2.511286 1_555
Be39 Be42 2.047207 1_565
Be39 Be9 2.123156 1_555
Be39 Be6 2.126469 1_555
Be39 Be42 2.129641 1_555
Be39 Ir0 2.398596 1_665
Be39 Ir3 2.418796 1_665
Be40 Be43 2.046877 1_565
Be40 Be7 2.125125 1_555
Be40 Be43 2.129971 1_555
Be40 Ir4 2.395370 1_665
Be40 Ir1 2.413892 1_665
Be41 Be44 2.047566 1_565
Be41 Be8 2.111126 1_555
Be41 Be44 2.129282 1_555
Be41 Ir5 2.394360 1_665
Be41 Ir2 2.397146 1_665
Be41 Be5 2.511283 1_655
Be41 Be5 2.511286 1_555
Be42 Be9 2.123156 1_555
Be42 Be6 2.126469 1_555
Be42 Ir0 2.398594 1_655
Be42 Ir3 2.418794 1_655
Be43 Be7 2.125123 1_555
Be43 Ir4 2.395370 1_655
Be43 Ir1 2.413892 1_655
Be44 Be8 2.111124 1_555
Be44 Ir5 2.394360 1_655
Be44 Ir2 2.397146 1_655
Be44 Be5 2.511285 1_545
Be44 Be5 2.511285 1_655
