# generated using pymatgen
data_Li7Mn5O12
_symmetry_space_group_name_H-M   'P 1'
_cell_length_a   5.82360552
_cell_length_b   6.00592492
_cell_length_c   14.45911539
_cell_angle_alpha   93.72764670
_cell_angle_beta   90.41336509
_cell_angle_gamma   118.94126641
_symmetry_Int_Tables_number   1
_chemical_formula_structural   Li7Mn5O12
_chemical_formula_sum   'Li14 Mn10 O24'
_cell_volume   441.19763747
_cell_formula_units_Z   2
loop_
 _symmetry_equiv_pos_site_id
 _symmetry_equiv_pos_as_xyz
  1  'x, y, z'
loop_
 _atom_site_type_symbol
 _atom_site_label
 _atom_site_symmetry_multiplicity
 _atom_site_fract_x
 _atom_site_fract_y
 _atom_site_fract_z
 _atom_site_occupancy
  Li  Li0  1  0.66682000  0.33345400  0.16662000  1
  Li  Li1  1  0.16852900  0.33655600  0.66625300  1
  Li  Li2  1  0.16645000  0.83328800  0.16669000  1
  Li  Li3  1  0.66754900  0.83378900  0.66674000  1
  Li  Li4  1  0.66671000  0.83326700  0.16668000  1
  Li  Li5  1  0.16659000  0.83365600  0.66661900  1
  Li  Li6  1  0.34239200  0.17968300  0.32903700  1
  Li  Li7  1  0.83728400  0.17304800  0.83350600  1
  Li  Li8  1  0.99092900  0.48686000  0.00421900  1
  Li  Li9  1  0.49610700  0.49345300  0.49975400  1
  Li  Li10  1  0.84824400  0.69814000  0.31761800  1
  Li  Li11  1  0.32466600  0.65842600  0.83757600  1
  Li  Li12  1  0.48483500  0.96806000  0.01595600  1
  Li  Li13  1  0.00888500  0.00832600  0.49588000  1
  Mn  Mn0  1  0.16673700  0.33349800  0.16661800  1
  Mn  Mn1  1  0.49093300  0.98619400  0.50306200  1
  Mn  Mn2  1  0.84229600  0.68007200  0.83034800  1
  Mn  Mn3  1  0.50385300  0.49944900  0.00229400  1
  Mn  Mn4  1  0.82924300  0.16690700  0.33093800  1
  Mn  Mn5  1  0.66678400  0.33343700  0.66673800  1
  Mn  Mn6  1  0.99125000  0.98732800  0.00356900  1
  Mn  Mn7  1  0.34208200  0.67945000  0.32973000  1
  Mn  Mn8  1  0.99597700  0.49613900  0.50184200  1
  Mn  Mn9  1  0.33695300  0.17013600  0.83145100  1
  O  O0  1  0.01172700  0.04493900  0.24568600  1
  O  O1  1  0.51051100  0.04834200  0.74527200  1
  O  O2  1  0.32170400  0.62189700  0.08756700  1
  O  O3  1  0.82256100  0.61821500  0.58810500  1
  O  O4  1  0.64410400  0.82619900  0.42057600  1
  O  O5  1  0.14628700  0.82912200  0.91532300  1
  O  O6  1  0.18687400  0.83714700  0.41809900  1
  O  O7  1  0.68905700  0.84012100  0.91282500  1
  O  O8  1  0.47807200  0.50089800  0.25087800  1
  O  O9  1  0.97821600  0.50231300  0.75032600  1
  O  O10  1  0.85527700  0.16588900  0.08243300  1
  O  O11  1  0.35512900  0.16417600  0.58306500  1
  O  O12  1  0.13714500  0.32871800  0.41867300  1
  O  O13  1  0.67142200  0.37516600  0.90552700  1
  O  O14  1  0.66152500  0.29090300  0.42780700  1
  O  O15  1  0.19582500  0.33774100  0.91465500  1
  O  O16  1  0.30556600  0.15413200  0.08672400  1
  O  O17  1  0.80279900  0.15015100  0.58869500  1
  O  O18  1  0.02768800  0.51257900  0.24658300  1
  O  O19  1  0.53044800  0.51645900  0.74470500  1
  O  O20  1  0.81247300  0.65077000  0.07866000  1
  O  O21  1  0.33284600  0.68793700  0.57216000  1
  O  O22  1  0.52066100  0.01570700  0.25456500  1
  O  O23  1  0.99998800  0.97786600  0.76135800  1
loop_
_geom_bond_atom_site_label_1
_geom_bond_atom_site_label_2
_geom_bond_distance
_geom_bond_site_symmetry_2
Li0 O18 2.127382 1_655
Li0 O16 2.128548 1_555
Li0 O10 2.151281 1_555
Li0 O8 2.152598 1_555
Li0 O20 2.176055 1_555
Li0 O22 2.177706 1_555
Li1 O19 2.120984 1_555
Li1 O17 2.131156 1_455
Li1 O9 2.151065 1_455
Li1 O11 2.155298 1_555
Li1 O21 2.378645 1_555
Li1 O23 2.419397 1_445
Li2 O18 2.119879 1_555
Li2 O16 2.121023 1_565
Li2 O22 2.159568 1_565
Li2 O20 2.159842 1_455
Li2 O0 2.160315 1_565
Li2 O2 2.162225 1_555
Li3 O17 2.084993 1_565
Li3 O19 2.088115 1_555
Li3 O23 2.134251 1_555
Li3 O21 2.142447 1_555
Li3 O3 2.176821 1_555
Li3 O1 2.179783 1_565
Li4 O0 2.064973 1_665
Li4 O2 2.065517 1_555
Li4 O22 2.067679 1_565
Li4 O20 2.067935 1_555
Li4 O8 2.210573 1_555
Li4 O10 2.212042 1_565
Li5 O3 2.060148 1_455
Li5 O1 2.060196 1_565
Li5 O23 2.060619 1_455
Li5 O21 2.062160 1_555
Li5 O11 2.197081 1_565
Li5 O9 2.201822 1_455
Li6 O22 2.018647 1_555
Li6 O0 2.036422 1_555
Li6 O8 2.108160 1_555
Li6 O14 2.139146 1_555
Li6 O12 2.194679 1_555
Li6 O6 2.295404 1_545
Li7 O1 2.066706 1_555
Li7 O23 2.071346 1_545
Li7 O13 2.115641 1_555
Li7 O15 2.128320 1_655
Li7 O7 2.168085 1_545
Li7 O9 2.187114 1_555
Li8 O20 2.018964 1_555
Li8 O2 2.036704 1_655
Li8 O10 2.107520 1_555
Li8 O13 2.139546 1_554
Li8 O15 2.192882 1_654
Li8 O5 2.292723 1_654
Li9 O3 2.066283 1_555
Li9 O21 2.072328 1_555
Li9 O14 2.115224 1_555
Li9 O12 2.129648 1_555
Li9 O4 2.166108 1_555
Li9 O11 2.188312 1_555
Li10 O8 2.081232 1_555
Li10 O18 2.093521 1_655
Li10 O0 2.168687 1_665
Li10 O6 2.214568 1_655
Li10 O4 2.232176 1_555
Li11 O5 2.071608 1_555
Li11 O15 2.099319 1_555
Li11 O7 2.109247 1_555
Li11 O9 2.126012 1_455
Li11 O19 2.197639 1_555
Li11 O1 2.531981 1_565
Li12 O10 2.080968 1_565
Li12 O16 2.093254 1_565
Li12 O2 2.163227 1_555
Li12 O5 2.215647 1_554
Li12 O7 2.233733 1_554
Li13 O6 2.072208 1_545
Li13 O12 2.099328 1_555
Li13 O4 2.111325 1_445
Li13 O11 2.124701 1_555
Li13 O17 2.197945 1_455
Li13 O3 2.532144 1_445
Mn0 O10 1.956181 1_455
Mn0 O8 1.956290 1_555
Mn0 O16 1.960409 1_555
Mn0 O18 1.960639 1_555
Mn0 O2 1.969907 1_555
Mn0 O0 1.970742 1_555
Mn1 O21 1.924695 1_555
Mn1 O6 1.933259 1_555
Mn1 O11 1.943414 1_565
Mn1 O4 1.958931 1_555
Mn1 O17 1.969621 1_565
Mn1 O14 2.008735 1_565
Mn2 O23 1.921673 1_555
Mn2 O5 1.933090 1_655
Mn2 O9 1.943078 1_555
Mn2 O7 1.959350 1_555
Mn2 O19 1.969610 1_555
Mn2 O13 2.009003 1_555
Mn3 O20 1.880273 1_555
Mn3 O2 1.960164 1_555
Mn3 O15 1.971771 1_554
Mn3 O13 2.013951 1_554
Mn3 O16 2.270844 1_555
Mn3 O7 2.291645 1_554
Mn4 O22 1.880183 1_555
Mn4 O0 1.959681 1_655
Mn4 O12 1.972127 1_655
Mn4 O14 2.014562 1_555
Mn4 O18 2.271755 1_655
Mn4 O4 2.293311 1_545
Mn5 O19 1.950895 1_555
Mn5 O3 1.951163 1_555
Mn5 O9 1.951270 1_555
Mn5 O17 1.951362 1_555
Mn5 O1 1.951687 1_555
Mn5 O11 1.952925 1_555
Mn6 O10 1.937348 1_565
Mn6 O16 1.958744 1_665
Mn6 O7 1.977444 1_554
Mn6 O5 2.008817 1_654
Mn6 O20 2.147914 1_555
Mn6 O15 2.334224 1_664
Mn7 O8 1.937280 1_555
Mn7 O18 1.958995 1_555
Mn7 O4 1.977780 1_555
Mn7 O6 2.008596 1_555
Mn7 O22 2.147150 1_565
Mn7 O12 2.335968 1_555
Mn8 O3 1.931081 1_555
Mn8 O12 1.946827 1_655
Mn8 O21 1.959876 1_655
Mn8 O14 1.983351 1_555
Mn8 O6 2.243862 1_655
Mn8 O17 2.293007 1_555
Mn9 O1 1.929910 1_555
Mn9 O15 1.947719 1_555
Mn9 O23 1.958937 1_445
Mn9 O13 1.983573 1_555
Mn9 O5 2.244935 1_545
Mn9 O19 2.293585 1_555
