# generated using pymatgen
data_YbLuB24
_symmetry_space_group_name_H-M   'P 1'
_cell_length_a   5.28576416
_cell_length_b   5.28576417
_cell_length_c   9.15295059
_cell_angle_alpha   73.21707175
_cell_angle_beta   90.00000000
_cell_angle_gamma   120.00000004
_symmetry_Int_Tables_number   1
_chemical_formula_structural   YbLuB24
_chemical_formula_sum   'Yb1 Lu1 B24'
_cell_volume   208.79381109
_cell_formula_units_Z   1
loop_
 _symmetry_equiv_pos_site_id
 _symmetry_equiv_pos_as_xyz
  1  'x, y, z'
loop_
 _atom_site_type_symbol
 _atom_site_label
 _atom_site_symmetry_multiplicity
 _atom_site_fract_x
 _atom_site_fract_y
 _atom_site_fract_z
 _atom_site_occupancy
  Yb  Yb0  1  0.50000000  -0.00000000  0.50000000  1
  Lu  Lu0  1  0.00000000  -0.00000000  0.00000000  1
  B  B0  1  0.91264403  0.49983015  0.24976781  1
  B  B1  1  0.41281387  0.50016985  0.75023219  1
  B  B2  1  0.08138775  0.50024998  0.41836228  1
  B  B3  1  0.58134763  0.49973654  0.91891583  1
  B  B4  1  0.25040204  0.83758817  0.24976781  1
  B  B5  1  0.74959796  0.83695394  0.75023219  1
  B  B6  1  0.08138775  0.16277549  0.41836228  1
  B  B7  1  0.58134763  0.16269526  0.91891583  1
  B  B8  1  0.91264403  0.16304606  0.24976781  1
  B  B9  1  0.41281387  0.16241183  0.75023219  1
  B  B10  1  0.25040204  0.16304606  0.24976781  1
  B  B11  1  0.74959796  0.16241183  0.75023219  1
  B  B12  1  0.41865237  0.83730474  0.08108417  1
  B  B13  1  0.91861225  0.83722451  0.58163772  1
  B  B14  1  0.41865237  0.50026346  0.08108417  1
  B  B15  1  0.91861225  0.49975002  0.58163772  1
  B  B16  1  0.08161109  0.50026346  0.08108417  1
  B  B17  1  0.58113777  0.49975002  0.58163772  1
  B  B18  1  0.58718613  0.49983015  0.24976781  1
  B  B19  1  0.08735597  0.50016985  0.75023219  1
  B  B20  1  0.58718613  0.83758817  0.24976781  1
  B  B21  1  0.08735597  0.83695394  0.75023219  1
  B  B22  1  0.41886223  0.50024998  0.41836228  1
  B  B23  1  0.91838891  0.49973654  0.91891583  1
loop_
_geom_bond_atom_site_label_1
_geom_bond_atom_site_label_2
_geom_bond_distance
_geom_bond_site_symmetry_2
B0 B18 1.720294 1_555
B0 B8 1.780161 1_555
B0 B2 1.782367 1_655
B0 B16 1.782518 1_655
B0 B4 1.785309 1_655
B0 Lu0 2.778126 1_665
B0 Yb0 2.779605 1_555
B1 B19 1.720294 1_555
B1 B5 1.780161 1_555
B1 B17 1.782367 1_555
B1 B3 1.782518 1_555
B1 B9 1.785309 1_555
B1 Lu0 2.778126 1_556
B1 Yb0 2.779605 1_565
B2 B4 1.782366 1_555
B2 B22 1.783811 1_555
B2 B6 1.783811 1_555
B2 Yb0 2.779767 1_455
B2 Yb0 2.779767 1_565
B3 B7 1.781521 1_555
B3 B5 1.782518 1_555
B3 Lu0 2.778797 1_556
B3 Lu0 2.778797 1_666
B4 Lu0 2.778126 1_565
B4 Yb0 2.779606 1_565
B5 Lu0 2.778127 1_666
B5 Yb0 2.779605 1_565
B6 B8 1.782367 1_455
B6 Yb0 2.779767 1_555
B6 Yb0 2.779767 1_455
B7 B9 1.782518 1_555
B7 Lu0 2.778797 1_556
B7 Lu0 2.778797 1_656
B8 Lu0 2.778127 1_655
B8 Yb0 2.779605 1_555
B9 Lu0 2.778126 1_556
B9 Yb0 2.779606 1_555
B10 B4 1.720294 1_545
B10 B18 1.780161 1_555
B10 B6 1.782367 1_555
B10 B14 1.782518 1_555
B10 B8 1.785309 1_455
B10 Lu0 2.778127 1_555
B10 Yb0 2.779605 1_555
B11 B5 1.720294 1_545
B11 B9 1.780161 1_555
B11 B15 1.782366 1_555
B11 B7 1.782518 1_555
B11 B19 1.785309 1_655
B11 Lu0 2.778126 1_656
B11 Yb0 2.779606 1_555
B12 B7 1.716840 1_564
B12 B16 1.781521 1_555
B12 B14 1.781521 1_555
B12 B20 1.782518 1_555
B12 B4 1.782518 1_555
B12 Lu0 2.778797 1_665
B12 Lu0 2.778797 1_565
B13 B6 1.723112 1_665
B13 B5 1.782367 1_555
B13 B21 1.782367 1_655
B13 B17 1.783811 1_555
B13 B15 1.783811 1_555
B13 Yb0 2.779767 1_565
B13 Yb0 2.779767 1_665
B14 B3 1.716840 1_554
B14 B16 1.781521 1_555
B14 B18 1.782518 1_555
B14 Lu0 2.778797 1_665
B14 Lu0 2.778797 1_555
B15 B2 1.723112 1_655
B15 B19 1.782367 1_655
B15 B17 1.783811 1_555
B15 Yb0 2.779767 1_665
B15 Yb0 2.779767 1_555
B16 B23 1.716840 1_454
B16 B8 1.782518 1_455
B16 Lu0 2.778797 1_565
B16 Lu0 2.778797 1_555
B17 B22 1.723112 1_555
B17 B9 1.782366 1_555
B17 Yb0 2.779767 1_565
B17 Yb0 2.779767 1_555
B18 B22 1.782367 1_555
B18 B20 1.785309 1_555
B18 Lu0 2.778126 1_665
B18 Yb0 2.779605 1_555
B19 B21 1.780161 1_555
B19 B23 1.782518 1_455
B19 Lu0 2.778126 1_556
B19 Yb0 2.779605 1_565
B20 B8 1.720294 1_565
B20 B4 1.780161 1_555
B20 B22 1.782366 1_555
B20 Lu0 2.778126 1_665
B20 Yb0 2.779606 1_565
B21 B9 1.720294 1_565
B21 B23 1.782518 1_455
B21 B5 1.785309 1_455
B21 Lu0 2.778127 1_566
B21 Yb0 2.779605 1_565
B22 B6 1.783811 1_555
B22 Yb0 2.779767 1_555
B22 Yb0 2.779767 1_565
B23 B3 1.781521 1_555
B23 B7 1.781521 1_555
B23 Lu0 2.778797 1_656
B23 Lu0 2.778797 1_666
