# generated using pymatgen
data_Li6Zn3(PS4)4
_symmetry_space_group_name_H-M   'P 1'
_cell_length_a   9.34976524
_cell_length_b   11.60542345
_cell_length_c   23.10993790
_cell_angle_alpha   89.95831016
_cell_angle_beta   89.96117996
_cell_angle_gamma   90.07831655
_symmetry_Int_Tables_number   1
_chemical_formula_structural   Li6Zn3(PS4)4
_chemical_formula_sum   'Li24 Zn12 P16 S64'
_cell_volume   2507.60920491
_cell_formula_units_Z   4
loop_
 _symmetry_equiv_pos_site_id
 _symmetry_equiv_pos_as_xyz
  1  'x, y, z'
loop_
 _atom_site_type_symbol
 _atom_site_label
 _atom_site_symmetry_multiplicity
 _atom_site_fract_x
 _atom_site_fract_y
 _atom_site_fract_z
 _atom_site_occupancy
  Li  Li0  1  0.74224618  0.49665621  0.87736114  1
  Li  Li1  1  0.75030582  0.00617095  0.87246714  1
  Li  Li2  1  0.25118787  0.75753185  0.75280884  1
  Li  Li3  1  0.24477420  0.74167630  0.99611498  1
  Li  Li4  1  0.50602023  0.49791823  0.25034435  1
  Li  Li5  1  0.50491958  0.99767199  0.25182687  1
  Li  Li6  1  0.50133354  0.49987872  0.49961041  1
  Li  Li7  1  0.50541613  0.00202994  0.49874244  1
  Li  Li8  1  0.00279406  0.75015466  0.37493516  1
  Li  Li9  1  0.00113763  0.24976781  0.37467246  1
  Li  Li10  1  0.49695046  0.49787642  0.74789627  1
  Li  Li11  1  0.50269775  0.00441181  0.74890168  1
  Li  Li12  1  0.99837741  0.75174556  0.62276663  1
  Li  Li13  1  0.00323317  0.25039518  0.62421265  1
  Li  Li14  1  0.49457193  0.49620196  0.99970812  1
  Li  Li15  1  0.99228060  0.74861591  0.87517333  1
  Li  Li16  1  0.01239761  0.24938810  0.87498573  1
  Li  Li17  1  0.99815396  0.74949441  0.12771192  1
  Li  Li18  1  0.00314877  0.25045122  0.12477585  1
  Li  Li19  1  0.48227464  0.24870421  0.87432913  1
  Li  Li20  1  0.50240693  0.74922256  0.87567269  1
  Li  Li21  1  0.00286494  0.00305716  0.74920872  1
  Li  Li22  1  0.99292370  0.49855077  0.00266921  1
  Li  Li23  1  0.99997062  0.00274306  0.00038361  1
  Zn  Zn0  1  0.49742414  0.00161491  0.00186518  1
  Zn  Zn1  1  0.49600092  0.25120177  0.12440774  1
  Zn  Zn2  1  0.50925065  0.74786549  0.12716369  1
  Zn  Zn3  1  0.49921141  0.25024476  0.37483089  1
  Zn  Zn4  1  0.49792447  0.74975384  0.37513314  1
  Zn  Zn5  1  0.99967080  0.49996372  0.25032920  1
  Zn  Zn6  1  0.00078586  0.99959043  0.24936927  1
  Zn  Zn7  1  0.49978825  0.24910763  0.62613342  1
  Zn  Zn8  1  0.50688356  0.75177334  0.62308131  1
  Zn  Zn9  1  0.99874399  0.49945162  0.49956008  1
  Zn  Zn10  1  0.99956786  0.00023371  0.49975800  1
  Zn  Zn11  1  0.99898379  0.49968217  0.74987644  1
  P  P0  1  0.75083134  0.24899992  0.24952090  1
  P  P1  1  0.75135843  0.74964984  0.25064715  1
  P  P2  1  0.75002768  0.25062063  0.50001892  1
  P  P3  1  0.75089171  0.74981608  0.49931209  1
  P  P4  1  0.25000617  0.49979063  0.37506209  1
  P  P5  1  0.24984405  0.99995969  0.37483372  1
  P  P6  1  0.75040915  0.24804361  0.74812709  1
  P  P7  1  0.74967392  0.74407170  0.75192350  1
  P  P8  1  0.24770928  0.50099605  0.62512553  1
  P  P9  1  0.25437038  0.99435263  0.62390369  1
  P  P10  1  0.74804090  0.25154562  0.99697525  1
  P  P11  1  0.75021494  0.75536419  0.00223951  1
  P  P12  1  0.24787678  0.50124830  0.87427532  1
  P  P13  1  0.24954850  0.98970957  0.87647648  1
  P  P14  1  0.25336869  0.50632758  0.12619433  1
  P  P15  1  0.24872169  0.00755415  0.12552797  1
  S  S0  1  0.86046026  0.35117714  0.05233794  1
  S  S1  1  0.87046439  0.85641645  0.05395462  1
  S  S2  1  0.86437053  0.36072654  0.30185824  1
  S  S3  1  0.86728671  0.86073482  0.30223217  1
  S  S4  1  0.37112171  0.61318377  0.17953264  1
  S  S5  1  0.37478780  0.10801064  0.17813910  1
  S  S6  1  0.86420000  0.36208449  0.55214416  1
  S  S7  1  0.86198515  0.86262661  0.55160136  1
  S  S8  1  0.36364746  0.61119780  0.42742333  1
  S  S9  1  0.36413061  0.11140164  0.42690354  1
  S  S10  1  0.86809574  0.36007539  0.80235800  1
  S  S11  1  0.86728956  0.85575510  0.80215278  1
  S  S12  1  0.36829241  0.61390243  0.67611812  1
  S  S13  1  0.36372311  0.10831193  0.67648289  1
  S  S14  1  0.36803607  0.60841534  0.92682370  1
  S  S15  1  0.36715194  0.09750152  0.93021420  1
  S  S16  1  0.63558889  0.64663189  0.30641780  1
  S  S17  1  0.63664931  0.14604894  0.30609767  1
  S  S18  1  0.63935649  0.64408927  0.55536650  1
  S  S19  1  0.63503535  0.14721436  0.55577652  1
  S  S20  1  0.13525210  0.89613881  0.43068626  1
  S  S21  1  0.13595817  0.39545812  0.43094164  1
  S  S22  1  0.62767096  0.63922096  0.80377210  1
  S  S23  1  0.63049542  0.14862456  0.80363046  1
  S  S24  1  0.13428041  0.89228011  0.67800251  1
  S  S25  1  0.13726690  0.39653379  0.68135369  1
  S  S26  1  0.62371036  0.64835525  0.05251324  1
  S  S27  1  0.62847929  0.14291380  0.05324665  1
  S  S28  1  0.12796719  0.88558178  0.92969695  1
  S  S29  1  0.12061672  0.40434199  0.92593052  1
  S  S30  1  0.14032990  0.89714981  0.18022173  1
  S  S31  1  0.13652927  0.40072589  0.18064472  1
  S  S32  1  0.86530237  0.13771481  0.19749562  1
  S  S33  1  0.86219746  0.63690901  0.19839682  1
  S  S34  1  0.86442028  0.13919165  0.44793461  1
  S  S35  1  0.86624672  0.63918822  0.44730981  1
  S  S36  1  0.36429390  0.38879902  0.32278570  1
  S  S37  1  0.36329513  0.88780335  0.32283941  1
  S  S38  1  0.87128495  0.14599617  0.69720619  1
  S  S39  1  0.87034857  0.64106811  0.69777398  1
  S  S40  1  0.36618763  0.39141627  0.57409083  1
  S  S41  1  0.37305602  0.88840438  0.57062005  1
  S  S42  1  0.86551865  0.14296308  0.94541298  1
  S  S43  1  0.86042348  0.64547333  0.94840258  1
  S  S44  1  0.36645809  0.39933023  0.82191481  1
  S  S45  1  0.37690450  0.89113436  0.82264634  1
  S  S46  1  0.36296845  0.39228192  0.07372577  1
  S  S47  1  0.37008153  0.89008592  0.07328308  1
  S  S48  1  0.63745886  0.35249456  0.19327927  1
  S  S49  1  0.64034993  0.85575099  0.19472553  1
  S  S50  1  0.63598421  0.35423649  0.44389802  1
  S  S51  1  0.63592369  0.85309887  0.44355269  1
  S  S52  1  0.13557821  0.60384465  0.31948432  1
  S  S53  1  0.13609546  0.10372526  0.31881917  1
  S  S54  1  0.63151364  0.35478121  0.69505571  1
  S  S55  1  0.63232659  0.84913525  0.69705619  1
  S  S56  1  0.13447984  0.60439458  0.56909857  1
  S  S57  1  0.13745418  0.09946140  0.56933671  1
  S  S58  1  0.62147348  0.35281675  0.94520636  1
  S  S59  1  0.62786483  0.86287553  0.94824148  1
  S  S60  1  0.12716499  0.61041995  0.81889756  1
  S  S61  1  0.13321669  0.09664787  0.82553407  1
  S  S62  1  0.13303758  0.60807907  0.07226224  1
  S  S63  1  0.14133385  0.10881022  0.07018556  1
loop_
_geom_bond_atom_site_label_1
_geom_bond_atom_site_label_2
_geom_bond_distance
_geom_bond_site_symmetry_2
Li0 S58 2.551206 1_555
Li0 S22 2.603924 1_555
Li0 S43 2.626871 1_555
Li0 S10 2.628257 1_555
Li1 S23 2.553891 1_555
Li1 S42 2.554242 1_555
Li1 S11 2.625077 1_545
Li1 S59 2.670294 1_545
Li2 S45 2.528189 1_555
Li2 S60 2.565259 1_555
Li2 S24 2.575310 1_555
Li2 S12 2.669282 1_555
Li3 S14 2.508026 1_555
Li3 S28 2.518213 1_555
Li3 S62 2.565382 1_556
Li3 S47 2.742493 1_556
Li4 S4 2.462207 1_555
Li4 S48 2.470720 1_555
Li4 S16 2.474906 1_555
Li4 S36 2.480242 1_555
Li5 S5 2.454372 1_565
Li5 S17 2.460608 1_565
Li5 S37 2.462069 1_555
Li5 S49 2.462543 1_555
Li6 S50 2.471101 1_555
Li6 S8 2.472567 1_555
Li6 S18 2.475103 1_555
Li6 S40 2.476552 1_555
Li7 S41 2.453399 1_545
Li7 S19 2.458614 1_555
Li7 S51 2.471823 1_545
Li7 S9 2.473230 1_555
Li8 S20 2.462456 1_555
Li8 S52 2.464431 1_555
Li8 S35 2.464826 1_455
Li8 S3 2.465616 1_455
Li9 S2 2.475734 1_455
Li9 S34 2.477248 1_455
Li9 S53 2.477446 1_555
Li9 S21 2.477566 1_555
Li10 S44 2.390209 1_555
Li10 S54 2.416305 1_555
Li10 S22 2.419037 1_555
Li10 S12 2.452678 1_555
Li11 S23 2.414159 1_555
Li11 S13 2.438763 1_555
Li11 S45 2.450667 1_545
Li11 S55 2.481739 1_545
Li12 S24 2.429738 1_655
Li12 S7 2.447688 1_555
Li12 S39 2.465200 1_555
Li12 S56 2.467553 1_655
Li13 S38 2.413630 1_455
Li13 S6 2.479563 1_455
Li13 S25 2.488045 1_555
Li13 S57 2.501701 1_555
Li14 S58 2.402015 1_555
Li14 S46 2.425821 1_556
Li14 S14 2.436471 1_555
Li14 S26 2.462601 1_556
Li15 S28 2.392355 1_655
Li15 S11 2.400624 1_555
Li15 S43 2.409744 1_555
Li15 S60 2.420833 1_655
Li16 S29 2.375609 1_555
Li16 S61 2.393940 1_555
Li16 S42 2.459632 1_455
Li16 S10 2.508427 1_455
Li17 S1 2.423682 1_555
Li17 S62 2.435683 1_655
Li17 S33 2.445608 1_555
Li17 S30 2.484969 1_655
Li18 S0 2.439909 1_455
Li18 S63 2.443265 1_555
Li18 S32 2.487243 1_455
Li18 S31 2.502650 1_555
Li19 S44 2.387354 1_555
Li19 S58 2.416230 1_555
Li19 S15 2.428049 1_555
Li19 S23 2.437839 1_555
Li20 S45 2.365445 1_555
Li20 S14 2.373956 1_555
Li20 S22 2.401446 1_555
Li20 S59 2.435130 1_555
Li21 S38 2.390457 1_455
Li21 S61 2.403840 1_555
Li21 S24 2.423856 1_545
Li21 S11 2.452584 1_445
Li22 S0 2.401269 1_555
Li22 S29 2.401944 1_654
Li22 S62 2.433066 1_655
Li22 S43 2.453494 1_554
Li23 S42 2.418060 1_554
Li23 S63 2.421912 1_655
Li23 S1 2.423216 1_545
Li23 S28 2.440194 1_644
P0 S48 2.063650 1_555
P0 S32 2.064780 1_555
P0 S17 2.066182 1_555
P0 S2 2.066727 1_555
P1 S33 2.061129 1_555
P1 S16 2.062641 1_555
P1 S3 2.063537 1_555
P1 S49 2.065579 1_555
P2 S19 2.061273 1_555
P2 S6 2.064996 1_555
P2 S50 2.065953 1_555
P2 S34 2.066241 1_555
P3 S7 2.062390 1_555
P3 S51 2.062967 1_555
P3 S35 2.064009 1_555
P3 S18 2.064821 1_555
P4 S52 2.062941 1_555
P4 S21 2.064729 1_555
P4 S36 2.065148 1_555
P4 S8 2.065219 1_555
P5 S20 2.063499 1_555
P5 S53 2.063999 1_565
P5 S9 2.064641 1_565
P5 S37 2.065798 1_555
P6 S38 2.017060 1_555
P6 S23 2.055698 1_555
P6 S54 2.068300 1_555
P6 S10 2.114765 1_555
P7 S22 2.051791 1_555
P7 S11 2.058330 1_555
P7 S39 2.066865 1_555
P7 S55 2.074020 1_555
P8 S25 2.053536 1_555
P8 S40 2.059038 1_555
P8 S56 2.059190 1_555
P8 S12 2.092071 1_555
P9 S24 2.054101 1_555
P9 S41 2.064856 1_555
P9 S13 2.066706 1_565
P9 S57 2.067955 1_565
P10 S0 2.019738 1_556
P10 S58 2.053457 1_555
P10 S42 2.053908 1_555
P10 S27 2.126489 1_556
P11 S1 2.016931 1_555
P11 S43 2.059213 1_554
P11 S26 2.069570 1_555
P11 S59 2.103855 1_554
P12 S44 2.023937 1_555
P12 S29 2.024366 1_555
P12 S14 2.069776 1_555
P12 S60 2.126119 1_555
P13 S61 2.027944 1_565
P13 S28 2.063360 1_555
P13 S45 2.068329 1_555
P13 S15 2.077637 1_565
P14 S62 2.053546 1_555
P14 S4 2.066335 1_555
P14 S31 2.066647 1_555
P14 S46 2.067965 1_555
P15 S63 2.006873 1_555
P15 S5 2.055968 1_555
P15 S30 2.063670 1_545
P15 S47 2.146751 1_545
S2 Zn5 2.370463 1_555
S3 Zn6 2.374205 1_655
S4 Zn2 2.359087 1_555
S5 Zn1 2.361735 1_555
S6 Zn9 2.364384 1_555
S7 Zn10 2.372774 1_565
S8 Zn4 2.368909 1_555
S9 Zn3 2.372596 1_555
S10 Zn11 2.362913 1_555
S12 Zn8 2.393921 1_555
S13 Zn7 2.373145 1_555
S15 Zn0 2.338266 1_556
S16 Zn4 2.369588 1_555
S17 Zn3 2.375051 1_555
S18 Zn8 2.355679 1_555
S19 Zn7 2.375956 1_555
S20 Zn10 2.370876 1_465
S21 Zn9 2.370946 1_455
S25 Zn11 2.369915 1_455
S26 Zn2 2.336438 1_555
S27 Zn0 2.366386 1_555
S27 Zn1 2.413001 1_555
S30 Zn6 2.381895 1_555
S31 Zn5 2.358199 1_455
S32 Zn6 2.369839 1_645
S33 Zn5 2.371345 1_555
S34 Zn10 2.374134 1_555
S35 Zn9 2.372197 1_555
S36 Zn3 2.372398 1_555
S37 Zn4 2.369915 1_555
S39 Zn11 2.364990 1_555
S40 Zn7 2.395670 1_555
S41 Zn8 2.356799 1_555
S46 Zn1 2.367366 1_555
S47 Zn0 2.409761 1_565
S47 Zn2 2.443953 1_555
S48 Zn1 2.380282 1_555
S49 Zn2 2.347160 1_555
S50 Zn3 2.375047 1_555
S51 Zn4 2.367412 1_555
S52 Zn5 2.371419 1_455
S53 Zn6 2.374535 1_545
S54 Zn7 2.357799 1_555
S55 Zn8 2.361530 1_555
S56 Zn9 2.382822 1_455
S57 Zn10 2.361178 1_455
S59 Zn0 2.371045 1_566
S60 Zn11 2.373515 1_455
