# generated using pymatgen
data_NaHf2TiF11
_symmetry_space_group_name_H-M   'P 1'
_cell_length_a   5.81516965
_cell_length_b   5.81516965
_cell_length_c   7.83393096
_cell_angle_alpha   67.94418955
_cell_angle_beta   67.94418955
_cell_angle_gamma   72.70118422
_symmetry_Int_Tables_number   1
_chemical_formula_structural   NaHf2TiF11
_chemical_formula_sum   'Na1 Hf2 Ti1 F11'
_cell_volume   223.75784057
_cell_formula_units_Z   1
loop_
 _symmetry_equiv_pos_site_id
 _symmetry_equiv_pos_as_xyz
  1  'x, y, z'
loop_
 _atom_site_type_symbol
 _atom_site_label
 _atom_site_symmetry_multiplicity
 _atom_site_fract_x
 _atom_site_fract_y
 _atom_site_fract_z
 _atom_site_occupancy
  Na  Na0  1  0.00596600  0.00596600  0.00021200  1
  Hf  Hf0  1  0.50804300  0.50804300  0.22895500  1
  Hf  Hf1  1  0.51124200  0.51124200  0.76250800  1
  Ti  Ti0  1  0.00982500  0.00982500  0.49779300  1
  F  F0  1  0.78260100  0.20786600  0.30551800  1
  F  F1  1  0.20786600  0.78260100  0.30551800  1
  F  F2  1  0.23074000  0.80591700  0.69126000  1
  F  F3  1  0.80591700  0.23074000  0.69126000  1
  F  F4  1  0.74342200  0.74342200  0.07489400  1
  F  F5  1  0.27537200  0.27537200  0.87687100  1
  F  F6  1  0.75639300  0.75639300  0.64351300  1
  F  F7  1  0.26242400  0.26242400  0.36105700  1
  F  F8  1  0.66886800  0.33469400  0.99998400  1
  F  F9  1  0.33469400  0.66886800  0.99998400  1
  F  F10  1  0.53652800  0.53652800  0.47957200  1
loop_
_geom_bond_atom_site_label_1
_geom_bond_atom_site_label_2
_geom_bond_distance
_geom_bond_site_symmetry_2
F0 Hf0 2.057029 1_555
F0 Ti0 2.151296 1_655
F0 Na0 2.766752 1_655
F1 Hf0 2.057029 1_555
F1 Ti0 2.151296 1_565
F1 Na0 2.766752 1_565
F2 Hf1 2.052258 1_555
F2 Ti0 2.135437 1_565
F2 Na0 2.784612 1_566
F3 Hf1 2.052258 1_555
F3 Ti0 2.135437 1_655
F3 Na0 2.784612 1_656
F4 Hf0 1.958712 1_555
F4 Na0 2.246935 1_665
F5 Hf1 1.959193 1_555
F5 Na0 2.242381 1_556
F6 Hf1 2.036213 1_555
F6 Ti0 2.100410 1_665
F7 Hf0 2.035730 1_555
F7 Ti0 2.093464 1_555
F8 Hf1 2.154485 1_555
F8 Hf0 2.155406 1_556
F8 Na0 2.295315 1_656
F9 Hf1 2.154485 1_555
F9 Hf0 2.155406 1_556
F9 Na0 2.295315 1_566
F10 Hf0 2.101021 1_555
F10 Hf1 2.116468 1_555
