# generated using pymatgen
data_CsGd2Cu3Se5
_symmetry_space_group_name_H-M   'P 1'
_cell_length_a   7.66163650
_cell_length_b   7.66163650
_cell_length_c   17.56886900
_cell_angle_alpha   90.00000000
_cell_angle_beta   90.00000000
_cell_angle_gamma   148.45340935
_symmetry_Int_Tables_number   1
_chemical_formula_structural   CsGd2Cu3Se5
_chemical_formula_sum   'Cs2 Gd4 Cu6 Se10'
_cell_volume   539.56995325
_cell_formula_units_Z   2
loop_
 _symmetry_equiv_pos_site_id
 _symmetry_equiv_pos_as_xyz
  1  'x, y, z'
loop_
 _atom_site_type_symbol
 _atom_site_label
 _atom_site_symmetry_multiplicity
 _atom_site_fract_x
 _atom_site_fract_y
 _atom_site_fract_z
 _atom_site_occupancy
  Cs  Cs0  1  0.56109000  0.43891000  0.25000000  1
  Cs  Cs1  1  0.43891000  0.56109000  0.75000000  1
  Gd  Gd0  1  0.69219400  0.30780600  0.90865500  1
  Gd  Gd1  1  0.30780600  0.69219400  0.09134500  1
  Gd  Gd2  1  0.69219400  0.30780600  0.59134500  1
  Gd  Gd3  1  0.30780600  0.69219400  0.40865500  1
  Cu  Cu0  1  0.84157300  0.15842700  0.25000000  1
  Cu  Cu1  1  0.15842700  0.84157300  0.75000000  1
  Cu  Cu2  1  0.91643700  0.08356300  0.96842700  1
  Cu  Cu3  1  0.08356300  0.91643700  0.03157300  1
  Cu  Cu4  1  0.91643700  0.08356300  0.53157300  1
  Cu  Cu5  1  0.08356300  0.91643700  0.46842700  1
  Se  Se0  1  0.93981400  0.06018600  0.38883900  1
  Se  Se1  1  0.06018600  0.93981400  0.61116100  1
  Se  Se2  1  0.93981400  0.06018600  0.11116100  1
  Se  Se3  1  0.06018600  0.93981400  0.88883900  1
  Se  Se4  1  0.26352600  0.73647400  0.25000000  1
  Se  Se5  1  0.73647400  0.26352600  0.75000000  1
  Se  Se6  1  0.66720000  0.33280000  0.43015600  1
  Se  Se7  1  0.33280000  0.66720000  0.56984400  1
  Se  Se8  1  0.66720000  0.33280000  0.06984400  1
  Se  Se9  1  0.33280000  0.66720000  0.93015600  1
loop_
_geom_bond_atom_site_label_1
_geom_bond_atom_site_label_2
_geom_bond_distance
_geom_bond_site_symmetry_2
Cs0 Se8 3.530788 1_555
Cs0 Se6 3.530788 1_555
Cs0 Se4 3.639892 1_655
Cs0 Se4 3.639892 1_545
Cs0 Se0 3.672290 1_455
Cs0 Se2 3.672290 1_455
Cs0 Se0 3.672290 1_565
Cs0 Se2 3.672290 1_565
Cs1 Se7 3.530788 1_555
Cs1 Se9 3.530788 1_555
Cs1 Se5 3.639892 1_565
Cs1 Se5 3.639892 1_455
Cs1 Se3 3.672290 1_545
Cs1 Se1 3.672290 1_545
Cs1 Se3 3.672290 1_655
Cs1 Se1 3.672290 1_655
Gd0 Se8 2.855792 1_556
Gd0 Se5 2.862848 1_555
Gd0 Se3 2.871950 1_655
Gd0 Se3 2.871950 1_545
Gd0 Se9 2.962985 1_545
Gd0 Se9 2.962985 1_655
Gd1 Se9 2.855792 1_554
Gd1 Se4 2.862848 1_555
Gd1 Se2 2.871950 1_565
Gd1 Se2 2.871950 1_455
Gd1 Se8 2.962985 1_565
Gd1 Se8 2.962985 1_455
Gd2 Se6 2.855792 1_555
Gd2 Se5 2.862848 1_555
Gd2 Se1 2.871950 1_655
Gd2 Se1 2.871950 1_545
Gd2 Se7 2.962985 1_655
Gd2 Se7 2.962985 1_545
Gd3 Se7 2.855792 1_555
Gd3 Se4 2.862848 1_555
Gd3 Se0 2.871950 1_565
Gd3 Se0 2.871950 1_455
Gd3 Se6 2.962985 1_565
Gd3 Se6 2.962985 1_455
Cu0 Se4 2.379520 1_545
Cu0 Se4 2.379520 1_655
Cu0 Se0 2.837007 1_555
Cu0 Se2 2.837007 1_555
Cu1 Se5 2.379520 1_565
Cu1 Se5 2.379520 1_455
Cu1 Se3 2.837007 1_555
Cu1 Se1 2.837007 1_555
Cu2 Se9 2.512119 1_545
Cu2 Se9 2.512119 1_655
Cu2 Se2 2.531258 1_556
Cu2 Se3 2.539400 1_645
Cu3 Se8 2.512119 1_565
Cu3 Se8 2.512119 1_455
Cu3 Se3 2.531258 1_554
Cu3 Se2 2.539400 1_465
Cu4 Se7 2.512119 1_545
Cu4 Se7 2.512119 1_655
Cu4 Se0 2.531258 1_555
Cu4 Se1 2.539400 1_645
Cu5 Se6 2.512119 1_455
Cu5 Se6 2.512119 1_565
Cu5 Se1 2.531258 1_555
Cu5 Se0 2.539400 1_465
