# generated using pymatgen
data_Pr2(TlIn)3
_symmetry_space_group_name_H-M   'P 1'
_cell_length_a   4.76510786
_cell_length_b   4.82092991
_cell_length_c   9.46055151
_cell_angle_alpha   90.00000000
_cell_angle_beta   90.00000000
_cell_angle_gamma   90.00000000
_symmetry_Int_Tables_number   1
_chemical_formula_structural   Pr2(TlIn)3
_chemical_formula_sum   'Pr2 Tl3 In3'
_cell_volume   217.33016395
_cell_formula_units_Z   1
loop_
 _symmetry_equiv_pos_site_id
 _symmetry_equiv_pos_as_xyz
  1  'x, y, z'
loop_
 _atom_site_type_symbol
 _atom_site_label
 _atom_site_symmetry_multiplicity
 _atom_site_fract_x
 _atom_site_fract_y
 _atom_site_fract_z
 _atom_site_occupancy
  Pr  Pr0  1  -0.00000000  0.00000000  0.25122369  1
  Pr  Pr1  1  0.00000000  0.00000000  0.74877631  1
  Tl  Tl0  1  0.00000000  0.50000000  -0.00000000  1
  Tl  Tl1  1  0.50000000  0.00000000  0.50000000  1
  Tl  Tl2  1  0.50000000  0.00000000  -0.00000000  1
  In  In0  1  0.50000000  0.50000000  0.25415912  1
  In  In1  1  0.50000000  0.50000000  0.74584088  1
  In  In2  1  -0.00000000  0.50000000  0.50000000  1
loop_
_geom_bond_atom_site_label_1
_geom_bond_atom_site_label_2
_geom_bond_distance
_geom_bond_site_symmetry_2
Pr0 Tl1 3.349002 1_455
Pr0 Tl1 3.349002 1_555
Pr0 Tl2 3.365314 1_555
Pr0 Tl2 3.365314 1_455
Pr0 Tl0 3.385131 1_555
Pr0 Tl0 3.385131 1_545
Pr1 Tl1 3.349002 1_455
Pr1 Tl1 3.349002 1_555
Pr1 Tl2 3.365314 1_556
Pr1 Tl2 3.365314 1_456
Pr1 Tl0 3.385131 1_546
Pr1 Tl0 3.385131 1_556
Tl0 Tl2 3.389234 1_455
Tl0 Tl2 3.389234 1_555
Tl0 Tl2 3.389234 1_565
Tl0 Tl2 3.389234 1_465
In0 In2 3.329544 1_555
In0 In2 3.329544 1_655
In0 Tl1 3.349573 1_555
In0 Tl1 3.349573 1_565
In0 Tl0 3.384984 1_655
In0 Tl0 3.384984 1_555
In0 Pr0 3.389347 1_555
In0 Pr0 3.389347 1_655
In0 Pr0 3.389347 1_565
In0 Pr0 3.389347 1_665
In0 Tl2 3.404687 1_555
In0 Tl2 3.404687 1_565
In1 In2 3.329544 1_555
In1 In2 3.329544 1_655
In1 Tl1 3.349573 1_555
In1 Tl1 3.349573 1_565
In1 Tl0 3.384984 1_556
In1 Tl0 3.384984 1_656
In1 Pr1 3.389347 1_665
In1 Pr1 3.389347 1_655
In1 Pr1 3.389347 1_565
In1 Pr1 3.389347 1_555
In1 Tl2 3.404687 1_566
In1 Tl2 3.404687 1_556
In2 Pr1 3.368915 1_565
In2 Pr1 3.368915 1_555
In2 Pr0 3.368915 1_555
In2 Pr0 3.368915 1_565
In2 Tl1 3.389234 1_555
In2 Tl1 3.389234 1_455
In2 Tl1 3.389234 1_465
In2 Tl1 3.389234 1_565
