# generated using pymatgen
data_Sr2EuNb(CuO4)2
_symmetry_space_group_name_H-M   'P 1'
_cell_length_a   12.47769590
_cell_length_b   12.47769590
_cell_length_c   12.47769590
_cell_angle_alpha   154.46965620
_cell_angle_beta   154.46965620
_cell_angle_gamma   36.41732545
_symmetry_Int_Tables_number   1
_chemical_formula_structural   Sr2EuNb(CuO4)2
_chemical_formula_sum   'Sr4 Eu2 Nb2 Cu4 O16'
_cell_volume   360.38177956
_cell_formula_units_Z   2
loop_
 _symmetry_equiv_pos_site_id
 _symmetry_equiv_pos_as_xyz
  1  'x, y, z'
loop_
 _atom_site_type_symbol
 _atom_site_label
 _atom_site_symmetry_multiplicity
 _atom_site_fract_x
 _atom_site_fract_y
 _atom_site_fract_z
 _atom_site_occupancy
  Sr  Sr0  1  0.60001800  0.10001800  0.50000000  1
  Sr  Sr1  1  0.39998200  0.89998200  0.50000000  1
  Sr  Sr2  1  0.10001800  0.60001800  0.50000000  1
  Sr  Sr3  1  0.89998200  0.39998200  0.50000000  1
  Eu  Eu0  1  0.25000000  0.75000000  0.50000000  1
  Eu  Eu1  1  0.75000000  0.25000000  0.50000000  1
  Nb  Nb0  1  0.50000000  0.50000000  0.00000000  1
  Nb  Nb1  1  0.00000000  0.00000000  0.00000000  1
  Cu  Cu0  1  0.67844500  0.67844500  0.00000000  1
  Cu  Cu1  1  0.82155500  0.82155500  0.00000000  1
  Cu  Cu2  1  0.32155500  0.32155500  0.00000000  1
  Cu  Cu3  1  0.17844500  0.17844500  0.00000000  1
  O  O0  1  0.68061800  0.81938200  0.50000000  1
  O  O1  1  0.81938200  0.31938200  0.13876400  1
  O  O2  1  0.18061800  0.68061800  0.86123600  1
  O  O3  1  0.31938200  0.18061800  0.50000000  1
  O  O4  1  0.93596800  0.93264400  0.50000000  1
  O  O5  1  0.06403200  0.06735600  0.50000000  1
  O  O6  1  0.56735600  0.56403200  0.50000000  1
  O  O7  1  0.56403200  0.06403200  0.99667600  1
  O  O8  1  0.06735600  0.56735600  0.00332400  1
  O  O9  1  0.93264400  0.43264400  0.99667600  1
  O  O10  1  0.43596800  0.93596800  0.00332400  1
  O  O11  1  0.43264400  0.43596800  0.50000000  1
  O  O12  1  0.08368200  0.08368200  0.00000000  1
  O  O13  1  0.41631800  0.41631800  0.00000000  1
  O  O14  1  0.91631800  0.91631800  0.00000000  1
  O  O15  1  0.58368200  0.58368200  0.00000000  1
loop_
_geom_bond_atom_site_label_1
_geom_bond_atom_site_label_2
_geom_bond_distance
_geom_bond_site_symmetry_2
Eu0 O8 2.485050 1_555
Eu0 O4 2.485050 1_455
Eu0 O11 2.485050 1_555
Eu0 O7 2.485050 1_565
Eu0 O5 2.505302 1_565
Eu0 O6 2.505302 1_555
Eu0 O9 2.505302 1_454
Eu0 O10 2.505302 1_556
Eu1 O6 2.485050 1_555
Eu1 O10 2.485050 1_545
Eu1 O9 2.485050 1_555
Eu1 O5 2.485050 1_655
Eu1 O8 2.505302 1_656
Eu1 O4 2.505302 1_545
Eu1 O7 2.505302 1_554
Eu1 O11 2.505302 1_555
Nb0 O13 1.983744 1_555
Nb0 O15 1.983744 1_555
Nb0 O0 2.023191 1_555
Nb0 O2 2.023191 1_554
Nb0 O3 2.023191 1_554
Nb0 O1 2.023191 1_555
Nb1 O12 1.983744 1_555
Nb1 O14 1.983744 1_445
Nb1 O1 2.023191 1_455
Nb1 O3 2.023191 1_555
Nb1 O2 2.023191 1_544
Nb1 O0 2.023191 1_444
Cu0 O11 1.954494 1_554
Cu0 O9 1.954494 1_554
Cu0 O10 1.954494 1_555
Cu0 O4 1.954494 1_555
Cu0 O15 2.246428 1_555
Cu1 O5 1.954494 1_665
Cu1 O8 1.954494 1_655
Cu1 O6 1.954494 1_554
Cu1 O7 1.954494 1_564
Cu1 O14 2.246428 1_555
Cu2 O7 1.954494 1_554
Cu2 O8 1.954494 1_555
Cu2 O5 1.954494 1_554
Cu2 O6 1.954494 1_555
Cu2 O13 2.246428 1_555
Cu3 O9 1.954494 1_454
Cu3 O11 1.954494 1_555
Cu3 O4 1.954494 1_444
Cu3 O10 1.954494 1_545
Cu3 O12 2.246428 1_555
O0 Sr0 2.757792 1_565
O0 Sr1 2.757792 1_555
O1 Sr2 2.757792 1_655
O1 Sr3 2.757792 1_555
O2 Sr3 2.757792 1_455
O2 Sr2 2.757792 1_555
O3 Sr1 2.757792 1_545
O3 Sr0 2.757792 1_555
O4 Sr2 2.782562 1_655
O4 Sr0 2.800664 1_565
O5 Sr3 2.782562 1_455
O5 Sr1 2.800664 1_545
O6 Sr3 2.782562 1_555
O6 Sr1 2.800664 1_555
O7 Sr1 2.782562 1_545
O7 Sr3 2.800664 1_556
O8 Sr1 2.782562 1_555
O8 Sr3 2.800664 1_454
O9 Sr0 2.782562 1_555
O9 Sr2 2.800664 1_656
O10 Sr0 2.782562 1_565
O10 Sr2 2.800664 1_554
O11 Sr2 2.782562 1_555
O11 Sr0 2.800664 1_555
O12 Sr0 2.784083 1_454
O12 Sr0 2.784083 1_555
O12 Sr2 2.784083 1_544
O12 Sr2 2.784083 1_555
O13 Sr1 2.784083 1_555
O13 Sr3 2.784083 1_555
O13 Sr1 2.784083 1_544
O13 Sr3 2.784083 1_454
O14 Sr3 2.784083 1_554
O14 Sr1 2.784083 1_554
O14 Sr3 2.784083 1_565
O14 Sr1 2.784083 1_655
O15 Sr0 2.784083 1_565
O15 Sr2 2.784083 1_655
O15 Sr0 2.784083 1_554
O15 Sr2 2.784083 1_554
