# generated using pymatgen
data_Ca7MgTiMn7O20
_symmetry_space_group_name_H-M   'P 1'
_cell_length_a   10.92458152
_cell_length_b   11.17449762
_cell_length_c   16.94339874
_cell_angle_alpha   108.98419167
_cell_angle_beta   109.21151176
_cell_angle_gamma   90.50018247
_symmetry_Int_Tables_number   1
_chemical_formula_structural   Ca7MgTiMn7O20
_chemical_formula_sum   'Ca28 Mg4 Ti4 Mn28 O80'
_cell_volume   1831.37831239
_cell_formula_units_Z   4
loop_
 _symmetry_equiv_pos_site_id
 _symmetry_equiv_pos_as_xyz
  1  'x, y, z'
loop_
 _atom_site_type_symbol
 _atom_site_label
 _atom_site_symmetry_multiplicity
 _atom_site_fract_x
 _atom_site_fract_y
 _atom_site_fract_z
 _atom_site_occupancy
  Ca  Ca0  1  0.30628016  0.06474601  0.60548785  1
  Ca  Ca1  1  0.30834293  0.56519038  0.60789759  1
  Ca  Ca2  1  0.80808159  0.06263047  0.60526125  1
  Ca  Ca3  1  0.80192739  0.55911077  0.11042714  1
  Ca  Ca4  1  0.80628108  0.56495991  0.60860255  1
  Ca  Ca5  1  0.19551215  0.43279282  0.38969994  1
  Ca  Ca6  1  0.20229563  0.43681308  0.89481263  1
  Ca  Ca7  1  0.19399353  0.93549812  0.38759738  1
  Ca  Ca8  1  0.19247860  0.94105134  0.89324711  1
  Ca  Ca9  1  0.69504803  0.43326555  0.39167344  1
  Ca  Ca10  1  0.68874096  0.42959924  0.89025962  1
  Ca  Ca11  1  0.69121171  0.93389163  0.38969002  1
  Ca  Ca12  1  0.69306213  0.93914112  0.88964829  1
  Ca  Ca13  1  0.05405958  0.29479528  0.11213031  1
  Ca  Ca14  1  0.05179684  0.29008749  0.60567349  1
  Ca  Ca15  1  0.05661599  0.79508627  0.60865057  1
  Ca  Ca16  1  0.55503345  0.29992550  0.11166669  1
  Ca  Ca17  1  0.55730033  0.29299814  0.60658065  1
  Ca  Ca18  1  0.54610108  0.78426505  0.11244549  1
  Ca  Ca19  1  0.55667836  0.79233001  0.60727980  1
  Ca  Ca20  1  0.44221845  0.20314176  0.38652729  1
  Ca  Ca21  1  0.44833863  0.20961808  0.89255310  1
  Ca  Ca22  1  0.44323819  0.70622548  0.38739164  1
  Ca  Ca23  1  0.43254477  0.70245371  0.88542247  1
  Ca  Ca24  1  0.94027896  0.20307289  0.38687136  1
  Ca  Ca25  1  0.94834825  0.20131962  0.89131658  1
  Ca  Ca26  1  0.95284319  0.70641674  0.39056930  1
  Ca  Ca27  1  0.94883548  0.70596753  0.89031673  1
  Mg  Mg0  1  0.28239062  0.08271223  0.12273490  1
  Mg  Mg1  1  0.27965408  0.58067999  0.11862642  1
  Mg  Mg2  1  0.77688938  0.08846428  0.12237709  1
  Mg  Mg3  1  0.03265703  0.78578227  0.12299477  1
  Ti  Ti0  1  0.01258151  0.99633535  0.00836209  1
  Ti  Ti1  1  0.00510504  0.50259935  0.99755688  1
  Ti  Ti2  1  0.50355783  0.00328480  0.00276640  1
  Ti  Ti3  1  0.75626759  0.75540711  0.00381961  1
  Mn  Mn0  1  0.00527867  0.99636916  0.49665069  1
  Mn  Mn1  1  0.00813722  0.49979033  0.49970124  1
  Mn  Mn2  1  0.50416295  0.99722053  0.49725666  1
  Mn  Mn3  1  0.50458486  0.50064307  0.00124339  1
  Mn  Mn4  1  0.50746514  0.49899911  0.49872326  1
  Mn  Mn5  1  0.26078544  0.25265919  0.00521852  1
  Mn  Mn6  1  0.25477915  0.25104200  0.49841228  1
  Mn  Mn7  1  0.26039759  0.75166662  0.00199031  1
  Mn  Mn8  1  0.25920754  0.75057588  0.50016113  1
  Mn  Mn9  1  0.75956939  0.24408842  0.00107934  1
  Mn  Mn10  1  0.75615119  0.24891038  0.49860257  1
  Mn  Mn11  1  0.75575686  0.74668926  0.49813642  1
  Mn  Mn12  1  0.09290935  0.08885803  0.24469515  1
  Mn  Mn13  1  0.10952960  0.10307458  0.75185432  1
  Mn  Mn14  1  0.10854122  0.59870456  0.24920175  1
  Mn  Mn15  1  0.10552518  0.59071382  0.74998710  1
  Mn  Mn16  1  0.59564646  0.08896083  0.24630614  1
  Mn  Mn17  1  0.61017809  0.09901353  0.74904914  1
  Mn  Mn18  1  0.59980274  0.59568573  0.24702329  1
  Mn  Mn19  1  0.61431730  0.59211844  0.75158077  1
  Mn  Mn20  1  0.35445994  0.40590048  0.24588148  1
  Mn  Mn21  1  0.35618456  0.40134539  0.74906134  1
  Mn  Mn22  1  0.33989023  0.89957206  0.24052474  1
  Mn  Mn23  1  0.36262301  0.91057872  0.75074789  1
  Mn  Mn24  1  0.85842170  0.40540145  0.25102954  1
  Mn  Mn25  1  0.85811244  0.40094196  0.75056918  1
  Mn  Mn26  1  0.85190435  0.90620487  0.24561247  1
  Mn  Mn27  1  0.86439632  0.90648616  0.75069072  1
  O  O0  1  0.12349047  0.12114349  0.48881537  1
  O  O1  1  0.12513486  0.13003317  0.98394358  1
  O  O2  1  0.12449302  0.61803662  0.48239605  1
  O  O3  1  0.12250823  0.62218783  0.97809342  1
  O  O4  1  0.62028133  0.11731611  0.48360918  1
  O  O5  1  0.62488832  0.11783670  0.98003399  1
  O  O6  1  0.62309457  0.61688421  0.48294647  1
  O  O7  1  0.62283724  0.62615992  0.98768631  1
  O  O8  1  0.16181200  0.39428796  0.03263590  1
  O  O9  1  0.13998808  0.38296518  0.51793198  1
  O  O10  1  0.17139134  0.90659180  0.02690145  1
  O  O11  1  0.14044754  0.88104799  0.51760052  1
  O  O12  1  0.64248057  0.37086218  0.01050868  1
  O  O13  1  0.63949459  0.38140910  0.51693044  1
  O  O14  1  0.66953716  0.90003129  0.02898787  1
  O  O15  1  0.63694449  0.87850855  0.51243426  1
  O  O16  1  0.37255356  0.11828141  0.48804690  1
  O  O17  1  0.37521339  0.11490979  0.98150249  1
  O  O18  1  0.37391913  0.61497813  0.48153253  1
  O  O19  1  0.36883189  0.61949331  0.97968410  1
  O  O20  1  0.87076991  0.11237813  0.48162870  1
  O  O21  1  0.87690241  0.10601344  0.98736819  1
  O  O22  1  0.87294254  0.61351232  0.48014883  1
  O  O23  1  0.86989373  0.60165662  0.97944896  1
  O  O24  1  0.39233007  0.38154083  0.01677937  1
  O  O25  1  0.38804536  0.38413067  0.51426439  1
  O  O26  1  0.40542888  0.88001489  0.01839278  1
  O  O27  1  0.39075820  0.88610039  0.51847575  1
  O  O28  1  0.89549269  0.37957201  0.01739133  1
  O  O29  1  0.88909997  0.38480895  0.51571357  1
  O  O30  1  0.92435547  0.86607846  0.02554046  1
  O  O31  1  0.88468455  0.87883581  0.50807054  1
  O  O32  1  0.10121087  0.10719821  0.13151181  1
  O  O33  1  0.07520710  0.09255474  0.63280125  1
  O  O34  1  0.09238049  0.61276081  0.12706024  1
  O  O35  1  0.08290431  0.60011700  0.62972001  1
  O  O36  1  0.59448346  0.10599393  0.12877991  1
  O  O37  1  0.58167450  0.09448355  0.63230497  1
  O  O38  1  0.59210873  0.58815877  0.13079869  1
  O  O39  1  0.58223258  0.59818805  0.62920499  1
  O  O40  1  0.45216898  0.40123795  0.36863963  1
  O  O41  1  0.44609147  0.40708588  0.86928911  1
  O  O42  1  0.43986064  0.90533010  0.36749027  1
  O  O43  1  0.46321384  0.90134231  0.87459946  1
  O  O44  1  0.95313552  0.39874158  0.37085446  1
  O  O45  1  0.96804289  0.39761109  0.87552684  1
  O  O46  1  0.95556208  0.90460193  0.36852632  1
  O  O47  1  0.96208345  0.90604746  0.87666771  1
  O  O48  1  0.33813581  0.26245930  0.12674893  1
  O  O49  1  0.33049043  0.28850495  0.63347524  1
  O  O50  1  0.33781760  0.75971365  0.12698974  1
  O  O51  1  0.33673329  0.78130060  0.63075541  1
  O  O52  1  0.82753997  0.26977846  0.12882438  1
  O  O53  1  0.83237162  0.27819150  0.62765690  1
  O  O54  1  0.84894883  0.76897242  0.12942819  1
  O  O55  1  0.83507081  0.78358715  0.62796085  1
  O  O56  1  0.19443596  0.21173291  0.36932440  1
  O  O57  1  0.19981483  0.21795406  0.87316447  1
  O  O58  1  0.20200190  0.72291234  0.37221401  1
  O  O59  1  0.20271178  0.72720588  0.87173750  1
  O  O60  1  0.69520990  0.21666732  0.36894507  1
  O  O61  1  0.70590022  0.21061158  0.86825451  1
  O  O62  1  0.68180402  0.71071685  0.36441839  1
  O  O63  1  0.71100546  0.72665505  0.87732016  1
  O  O64  1  0.40008199  0.07482324  0.23768917  1
  O  O65  1  0.42840929  0.08750876  0.75119403  1
  O  O66  1  0.40818731  0.57940257  0.23580036  1
  O  O67  1  0.42324499  0.56572433  0.75042056  1
  O  O68  1  0.89813690  0.08109001  0.23664084  1
  O  O69  1  0.92685892  0.08242987  0.75050016  1
  O  O70  1  0.91969671  0.57602321  0.24844048  1
  O  O71  1  0.91688810  0.57701060  0.75097274  1
  O  O72  1  0.16865149  0.42482915  0.24895449  1
  O  O73  1  0.17441329  0.41630243  0.75062129  1
  O  O74  1  0.14692169  0.90907485  0.23847563  1
  O  O75  1  0.17618779  0.94026048  0.75256434  1
  O  O76  1  0.66895696  0.43667861  0.25079679  1
  O  O77  1  0.66850020  0.41598562  0.75260058  1
  O  O78  1  0.66292293  0.91649599  0.24773686  1
  O  O79  1  0.67623354  0.93646171  0.75022420  1
loop_
_geom_bond_atom_site_label_1
_geom_bond_atom_site_label_2
_geom_bond_distance
_geom_bond_site_symmetry_2
Ca0 O65 2.314601 1_555
Ca0 O49 2.383543 1_555
Ca0 O11 2.425723 1_545
Ca0 O27 2.454206 1_545
Ca0 O0 2.554846 1_555
Ca0 O16 2.560589 1_555
Ca0 O33 2.715174 1_555
Ca0 O37 2.890159 1_555
Ca1 O51 2.318924 1_555
Ca1 O67 2.324368 1_555
Ca1 O9 2.433670 1_555
Ca1 O25 2.494004 1_555
Ca1 O35 2.622349 1_555
Ca1 O2 2.632751 1_555
Ca1 O18 2.680361 1_555
Ca1 O39 2.898683 1_555
Ca2 O69 2.308187 1_555
Ca2 O53 2.311827 1_555
Ca2 O15 2.468717 1_545
Ca2 O31 2.523238 1_545
Ca2 O20 2.619378 1_555
Ca2 O4 2.624790 1_555
Ca2 O37 2.666365 1_555
Ca2 O33 2.798380 1_655
Ca3 O70 2.210757 1_555
Ca3 O54 2.290401 1_555
Ca3 O38 2.437083 1_555
Ca3 O12 2.450228 1_555
Ca3 O28 2.567750 1_555
Ca3 O7 2.660028 1_554
Ca3 O23 2.732576 1_554
Ca4 O71 2.272585 1_555
Ca4 O55 2.360581 1_555
Ca4 O13 2.436992 1_555
Ca4 O29 2.501148 1_555
Ca4 O39 2.597014 1_555
Ca4 O6 2.625717 1_555
Ca4 O22 2.714051 1_555
Ca4 O35 2.931044 1_655
Ca5 O72 2.276356 1_555
Ca5 O56 2.379780 1_555
Ca5 O2 2.463407 1_555
Ca5 O18 2.497658 1_555
Ca5 O44 2.569992 1_455
Ca5 O25 2.649398 1_555
Ca5 O9 2.654626 1_555
Ca5 O40 2.950795 1_555
Ca6 O73 2.293192 1_555
Ca6 O57 2.350552 1_555
Ca6 O19 2.418372 1_555
Ca6 O3 2.445624 1_555
Ca6 O45 2.486905 1_455
Ca6 O24 2.644119 1_556
Ca6 O8 2.696764 1_556
Ca6 O41 2.840929 1_555
Ca7 O58 2.309669 1_555
Ca7 O74 2.322148 1_555
Ca7 O16 2.521410 1_565
Ca7 O46 2.523134 1_455
Ca7 O0 2.533852 1_565
Ca7 O11 2.697779 1_555
Ca7 O27 2.742779 1_555
Ca7 O42 2.826232 1_555
Ca8 O59 2.306610 1_555
Ca8 O75 2.328217 1_555
Ca8 O47 2.452154 1_455
Ca8 O1 2.454002 1_565
Ca8 O17 2.464400 1_565
Ca8 O10 2.497738 1_556
Ca8 O26 2.845279 1_556
Ca9 O76 2.322025 1_555
Ca9 O60 2.323924 1_555
Ca9 O6 2.446067 1_555
Ca9 O22 2.476062 1_555
Ca9 O40 2.555724 1_555
Ca9 O13 2.617216 1_555
Ca9 O29 2.651906 1_555
Ca9 O44 2.967796 1_555
Ca10 O77 2.222909 1_555
Ca10 O61 2.371232 1_555
Ca10 O23 2.443729 1_555
Ca10 O12 2.525712 1_556
Ca10 O7 2.553142 1_555
Ca10 O41 2.554770 1_555
Ca10 O28 2.767241 1_556
Ca11 O78 2.263564 1_555
Ca11 O62 2.384342 1_555
Ca11 O4 2.459885 1_565
Ca11 O20 2.480276 1_565
Ca11 O15 2.588833 1_555
Ca11 O31 2.627641 1_555
Ca11 O42 2.647679 1_555
Ca12 O79 2.298545 1_555
Ca12 O63 2.330738 1_555
Ca12 O5 2.382085 1_565
Ca12 O21 2.447363 1_565
Ca12 O43 2.457352 1_555
Ca12 O14 2.626685 1_556
Ca13 O72 2.218009 1_555
Ca13 O32 2.263421 1_555
Ca13 O28 2.379693 1_455
Ca13 O8 2.535894 1_555
Ca13 O52 2.604223 1_455
Ca13 O21 2.645623 1_454
Ca13 O1 2.691292 1_554
Ca14 O73 2.315905 1_555
Ca14 O33 2.396156 1_555
Ca14 O29 2.429471 1_455
Ca14 O9 2.478811 1_555
Ca14 O53 2.552820 1_455
Ca14 O0 2.590793 1_555
Ca14 O20 2.598535 1_455
Ca14 O49 2.924785 1_555
Ca15 O35 2.325093 1_555
Ca15 O75 2.361554 1_555
Ca15 O11 2.453558 1_555
Ca15 O31 2.503942 1_455
Ca15 O55 2.554295 1_455
Ca15 O22 2.657653 1_455
Ca15 O2 2.712228 1_555
Ca15 O51 2.969865 1_555
Ca16 O76 2.265712 1_555
Ca16 O36 2.304120 1_555
Ca16 O24 2.382750 1_555
Ca16 O48 2.511170 1_555
Ca16 O12 2.535143 1_555
Ca16 O17 2.666207 1_554
Ca16 O5 2.809185 1_554
Ca16 O52 2.927851 1_555
Ca17 O77 2.294829 1_555
Ca17 O37 2.396815 1_555
Ca17 O13 2.438880 1_555
Ca17 O25 2.463415 1_555
Ca17 O16 2.575114 1_555
Ca17 O4 2.640906 1_555
Ca17 O49 2.665608 1_555
Ca17 O53 2.919940 1_555
Ca18 O78 2.214674 1_555
Ca18 O38 2.347602 1_555
Ca18 O26 2.360577 1_555
Ca18 O50 2.390731 1_555
Ca18 O19 2.564501 1_554
Ca18 O7 2.656081 1_554
Ca18 O14 2.811770 1_555
Ca19 O39 2.321437 1_555
Ca19 O79 2.347200 1_555
Ca19 O27 2.431358 1_555
Ca19 O15 2.489626 1_555
Ca19 O51 2.569551 1_555
Ca19 O18 2.614862 1_555
Ca19 O6 2.674255 1_555
Ca19 O55 2.950944 1_555
Ca20 O40 2.336191 1_555
Ca20 O64 2.345082 1_555
Ca20 O16 2.519382 1_555
Ca20 O4 2.522435 1_555
Ca20 O56 2.631555 1_555
Ca20 O25 2.672222 1_555
Ca20 O13 2.724409 1_555
Ca20 O60 2.883432 1_555
Ca21 O65 2.274014 1_555
Ca21 O41 2.363375 1_555
Ca21 O17 2.417622 1_555
Ca21 O5 2.472052 1_555
Ca21 O12 2.557323 1_556
Ca21 O24 2.594739 1_556
Ca21 O57 2.631591 1_555
Ca21 O61 2.975168 1_555
Ca22 O42 2.355116 1_555
Ca22 O66 2.393138 1_555
Ca22 O18 2.448879 1_555
Ca22 O6 2.543796 1_555
Ca22 O58 2.576824 1_555
Ca22 O15 2.645314 1_555
Ca22 O27 2.693576 1_555
Ca22 O62 2.761256 1_555
Ca23 O67 2.268798 1_555
Ca23 O43 2.319029 1_555
Ca23 O19 2.361833 1_555
Ca23 O59 2.470878 1_555
Ca23 O26 2.577126 1_556
Ca23 O7 2.583067 1_555
Ca24 O44 2.297811 1_555
Ca24 O68 2.347242 1_555
Ca24 O20 2.455392 1_555
Ca24 O0 2.571643 1_655
Ca24 O60 2.604823 1_555
Ca24 O29 2.672283 1_555
Ca24 O9 2.750048 1_655
Ca24 O56 2.892114 1_655
Ca25 O69 2.253068 1_555
Ca25 O45 2.310965 1_555
Ca25 O1 2.381826 1_655
Ca25 O21 2.518154 1_555
Ca25 O61 2.555163 1_555
Ca25 O28 2.632033 1_556
Ca25 O57 2.874091 1_655
Ca25 O8 2.949484 1_656
Ca26 O70 2.277578 1_555
Ca26 O46 2.364150 1_555
Ca26 O2 2.454467 1_655
Ca26 O22 2.454508 1_555
Ca26 O31 2.595221 1_555
Ca26 O11 2.633530 1_655
Ca26 O62 2.849387 1_555
Ca26 O58 2.850506 1_655
Ca27 O71 2.237837 1_555
Ca27 O47 2.329372 1_555
Ca27 O3 2.401658 1_655
Ca27 O30 2.503310 1_556
Ca27 O23 2.523491 1_555
Ca27 O63 2.553354 1_555
Ca27 O59 2.908502 1_655
Mg0 O64 1.979922 1_555
Mg0 O32 2.047280 1_555
Mg0 O48 2.066981 1_555
Mg0 O10 2.136269 1_545
Mg0 O1 2.631948 1_554
Mg1 O66 2.024243 1_555
Mg1 O50 2.039700 1_555
Mg1 O34 2.122842 1_555
Mg1 O8 2.205157 1_555
Mg1 O3 2.621887 1_554
Mg2 O68 1.981790 1_555
Mg2 O36 2.038697 1_555
Mg2 O52 2.054220 1_555
Mg2 O14 2.209251 1_545
Mg2 O5 2.563337 1_554
Mg3 O74 1.973195 1_555
Mg3 O54 2.055643 1_455
Mg3 O34 2.060990 1_555
Mg3 O30 2.151322 1_455
Mg3 O23 2.672948 1_454
Mn0 O31 1.949599 1_455
Mn0 O46 1.955802 1_455
Mn0 O0 1.957356 1_565
Mn0 O20 1.976452 1_465
Mn0 O11 1.988226 1_555
Mn0 O33 2.067154 1_565
Mn1 O29 1.960970 1_455
Mn1 O9 1.968963 1_555
Mn1 O22 1.972480 1_455
Mn1 O2 1.978822 1_555
Mn1 O44 1.980668 1_455
Mn1 O35 1.992494 1_555
Mn2 O27 1.939768 1_555
Mn2 O4 1.956752 1_565
Mn2 O42 1.970818 1_555
Mn2 O15 1.984967 1_555
Mn2 O16 1.986267 1_565
Mn2 O37 2.055435 1_565
Mn3 O24 1.938142 1_555
Mn3 O38 1.973530 1_555
Mn3 O41 2.006809 1_554
Mn3 O7 2.015485 1_554
Mn3 O19 2.022420 1_554
Mn3 O12 2.104248 1_555
Mn4 O6 1.955686 1_555
Mn4 O25 1.958499 1_555
Mn4 O18 1.972793 1_555
Mn4 O13 1.976411 1_555
Mn4 O40 1.990453 1_555
Mn4 O39 1.996206 1_555
Mn5 O1 1.869583 1_554
Mn5 O48 1.916416 1_555
Mn5 O8 1.942089 1_555
Mn5 O24 1.942357 1_555
Mn5 O57 2.012553 1_554
Mn5 O17 2.013777 1_554
Mn6 O56 1.957623 1_555
Mn6 O9 1.960414 1_555
Mn6 O0 1.961424 1_555
Mn6 O25 1.961747 1_555
Mn6 O16 1.974758 1_555
Mn6 O49 2.054569 1_555
Mn7 O19 1.920825 1_554
Mn7 O3 1.925081 1_554
Mn7 O50 1.976079 1_555
Mn7 O10 1.986151 1_555
Mn7 O59 2.007884 1_554
Mn7 O26 2.013901 1_555
Mn8 O27 1.953938 1_555
Mn8 O2 1.957142 1_555
Mn8 O58 1.963350 1_555
Mn8 O11 1.975158 1_555
Mn8 O18 1.987038 1_555
Mn8 O51 1.999650 1_555
Mn9 O5 1.890373 1_554
Mn9 O12 1.920278 1_555
Mn9 O52 1.962873 1_555
Mn9 O28 1.997957 1_555
Mn9 O21 2.018641 1_554
Mn9 O61 2.031876 1_554
Mn10 O29 1.974238 1_555
Mn10 O4 1.975045 1_555
Mn10 O13 1.976624 1_555
Mn10 O53 1.978183 1_555
Mn10 O60 1.979256 1_555
Mn10 O20 1.990777 1_555
Mn11 O6 1.935344 1_555
Mn11 O31 1.959251 1_555
Mn11 O55 1.977035 1_555
Mn11 O15 1.980240 1_555
Mn11 O22 1.985309 1_555
Mn11 O62 2.035825 1_555
Mn12 O32 2.024272 1_555
Mn12 O56 2.029819 1_555
Mn12 O74 2.078265 1_545
Mn12 O68 2.086071 1_455
Mn13 O33 1.889590 1_555
Mn13 O57 1.942288 1_555
Mn13 O75 1.967775 1_545
Mn13 O69 1.998638 1_455
Mn14 O58 2.001405 1_555
Mn14 O72 2.055522 1_555
Mn14 O70 2.071666 1_455
Mn14 O34 2.076092 1_555
Mn15 O35 2.008189 1_555
Mn15 O59 2.047504 1_555
Mn15 O71 2.071074 1_455
Mn15 O73 2.097341 1_555
Mn16 O60 2.023244 1_555
Mn16 O36 2.057091 1_555
Mn16 O78 2.073233 1_545
Mn16 O64 2.093933 1_555
Mn17 O37 1.881861 1_555
Mn17 O61 1.917436 1_555
Mn17 O79 1.964062 1_545
Mn17 O65 2.001779 1_555
Mn18 O62 1.885458 1_555
Mn18 O38 1.917088 1_555
Mn18 O76 1.948719 1_555
Mn18 O66 2.039638 1_555
Mn19 O39 2.010054 1_555
Mn19 O77 2.064026 1_555
Mn19 O63 2.078978 1_555
Mn19 O67 2.098339 1_555
Mn20 O40 2.019558 1_555
Mn20 O72 2.058579 1_555
Mn20 O48 2.080507 1_555
Mn20 O66 2.096234 1_555
Mn21 O49 1.878709 1_555
Mn21 O41 1.927588 1_555
Mn21 O67 1.961925 1_555
Mn21 O73 2.002348 1_555
Mn22 O50 2.039170 1_555
Mn22 O42 2.046266 1_555
Mn22 O64 2.080706 1_565
Mn22 O74 2.101121 1_555
Mn23 O51 2.000974 1_555
Mn23 O43 2.060847 1_555
Mn23 O75 2.074999 1_555
Mn23 O65 2.094613 1_565
Mn24 O44 1.978683 1_555
Mn24 O70 2.033877 1_555
Mn24 O52 2.046364 1_555
Mn24 O76 2.101069 1_555
Mn25 O53 2.011694 1_555
Mn25 O71 2.061459 1_555
Mn25 O45 2.074831 1_555
Mn25 O77 2.090340 1_555
Mn26 O46 2.022965 1_555
Mn26 O54 2.054539 1_555
Mn26 O68 2.079394 1_565
Mn26 O78 2.080196 1_555
Mn27 O55 2.002176 1_555
Mn27 O47 2.050050 1_555
Mn27 O69 2.076845 1_565
Mn27 O79 2.083459 1_555
O1 Ti0 2.149424 1_546
O3 Ti1 2.018596 1_555
O5 Ti2 2.042291 1_556
O7 Ti3 1.931217 1_556
O8 Ti1 2.140915 1_554
O10 Ti0 1.997753 1_555
O14 Ti3 1.880330 1_555
O14 Ti2 2.157873 1_565
O17 Ti2 1.908422 1_556
O21 Ti0 1.947823 1_646
O23 Ti1 1.858103 1_655
O23 Ti3 2.139202 1_556
O26 Ti2 1.874851 1_565
O28 Ti1 1.993376 1_654
O30 Ti0 1.888940 1_655
O30 Ti3 2.063081 1_555
O32 Ti0 1.947737 1_545
O34 Ti1 2.020982 1_554
O36 Ti2 1.962807 1_555
O43 Ti2 1.989870 1_566
O45 Ti1 1.917778 1_655
O47 Ti0 2.004159 1_656
O54 Ti3 1.986662 1_555
O63 Ti3 1.947642 1_556
