# generated using pymatgen
data_Ba3(AlN2)2
_symmetry_space_group_name_H-M   'P 1'
_cell_length_a   6.24592260
_cell_length_b   10.14239301
_cell_length_c   10.23240050
_cell_angle_alpha   90.00000000
_cell_angle_beta   90.00000000
_cell_angle_gamma   90.00000000
_symmetry_Int_Tables_number   1
_chemical_formula_structural   Ba3(AlN2)2
_chemical_formula_sum   'Ba12 Al8 N16'
_cell_volume   648.20826391
_cell_formula_units_Z   4
loop_
 _symmetry_equiv_pos_site_id
 _symmetry_equiv_pos_as_xyz
  1  'x, y, z'
loop_
 _atom_site_type_symbol
 _atom_site_label
 _atom_site_symmetry_multiplicity
 _atom_site_fract_x
 _atom_site_fract_y
 _atom_site_fract_z
 _atom_site_occupancy
  Ba  Ba0  1  0.25000000  0.90806118  0.50000000  1
  Ba  Ba1  1  0.25000000  0.59193882  0.00000000  1
  Ba  Ba2  1  0.75000000  0.09193882  0.50000000  1
  Ba  Ba3  1  0.75000000  0.40806118  0.00000000  1
  Ba  Ba4  1  0.11632852  0.91370866  0.15524102  1
  Ba  Ba5  1  0.11632852  0.58629134  0.34475898  1
  Ba  Ba6  1  0.38367148  0.58629134  0.65524102  1
  Ba  Ba7  1  0.38367148  0.91370866  0.84475898  1
  Ba  Ba8  1  0.88367148  0.08629134  0.84475898  1
  Ba  Ba9  1  0.88367148  0.41370866  0.65524102  1
  Ba  Ba10  1  0.61632852  0.41370866  0.34475898  1
  Ba  Ba11  1  0.61632852  0.08629134  0.15524102  1
  Al  Al0  1  0.25000000  0.26784104  0.00000000  1
  Al  Al1  1  0.25000000  0.23215896  0.50000000  1
  Al  Al2  1  0.75000000  0.73215896  0.00000000  1
  Al  Al3  1  0.75000000  0.76784104  0.50000000  1
  Al  Al4  1  0.82593366  0.75000000  0.75000000  1
  Al  Al5  1  0.32593366  0.25000000  0.75000000  1
  Al  Al6  1  0.17406634  0.25000000  0.25000000  1
  Al  Al7  1  0.67406634  0.75000000  0.25000000  1
  N  N0  1  0.85577020  0.63454447  0.14490117  1
  N  N1  1  0.85577020  0.86545553  0.35509883  1
  N  N2  1  0.64422980  0.86545553  0.64490117  1
  N  N3  1  0.64422980  0.63454447  0.85509883  1
  N  N4  1  0.14422980  0.36545553  0.85509883  1
  N  N5  1  0.14422980  0.13454447  0.64490117  1
  N  N6  1  0.35577020  0.13454447  0.35509883  1
  N  N7  1  0.35577020  0.36545553  0.14490117  1
  N  N8  1  0.53646114  0.82723114  0.09931369  1
  N  N9  1  0.53646114  0.67276886  0.40068631  1
  N  N10  1  0.96353886  0.67276886  0.59931369  1
  N  N11  1  0.96353886  0.82723114  0.90068631  1
  N  N12  1  0.46353886  0.32723114  0.59931369  1
  N  N13  1  0.03646114  0.32723114  0.40068631  1
  N  N14  1  0.03646114  0.17276886  0.09931369  1
  N  N15  1  0.46353886  0.17276886  0.90068631  1
loop_
_geom_bond_atom_site_label_1
_geom_bond_atom_site_label_2
_geom_bond_distance
_geom_bond_site_symmetry_2
Ba0 N5 2.812718 1_565
Ba0 N6 2.812718 1_565
Ba0 N2 2.906571 1_555
Ba0 N1 2.906571 1_455
Ba0 N9 3.151035 1_555
Ba0 N10 3.151035 1_455
Ba1 N7 2.812718 1_555
Ba1 N4 2.812718 1_554
Ba1 N3 2.906571 1_554
Ba1 N0 2.906571 1_455
Ba1 N11 3.151035 1_454
Ba1 N8 3.151035 1_555
Ba2 N1 2.812718 1_545
Ba2 N2 2.812718 1_545
Ba2 N5 2.906571 1_655
Ba2 N6 2.906571 1_555
Ba2 N12 3.151035 1_555
Ba2 N13 3.151035 1_655
Ba3 N0 2.812718 1_555
Ba3 N3 2.812718 1_554
Ba3 N4 2.906571 1_654
Ba3 N7 2.906571 1_555
Ba3 N15 3.151035 1_554
Ba3 N14 3.151035 1_655
Ba4 N1 2.658978 1_455
Ba4 N14 2.734967 1_565
Ba4 N8 2.825378 1_555
Ba4 N11 2.909380 1_454
Ba4 N0 3.267491 1_455
Ba4 N6 3.381637 1_565
Ba5 N0 2.658978 1_455
Ba5 N13 2.734967 1_555
Ba5 N9 2.825378 1_555
Ba5 N10 2.909380 1_455
Ba5 N1 3.267491 1_455
Ba5 N7 3.381637 1_555
Ba6 N3 2.658978 1_555
Ba6 N12 2.734967 1_555
Ba6 N10 2.825378 1_455
Ba6 N9 2.909380 1_555
Ba6 N2 3.267491 1_555
Ba6 N4 3.381637 1_555
Ba7 N2 2.658978 1_555
Ba7 N15 2.734967 1_565
Ba7 N11 2.825378 1_455
Ba7 N8 2.909380 1_556
Ba7 N3 3.267491 1_555
Ba7 N5 3.381637 1_565
Ba8 N5 2.658978 1_655
Ba8 N11 2.734967 1_545
Ba8 N15 2.825378 1_555
Ba8 N14 2.909380 1_656
Ba8 N4 3.267491 1_655
Ba8 N2 3.381637 1_545
Ba9 N4 2.658978 1_655
Ba9 N10 2.734967 1_555
Ba9 N12 2.825378 1_555
Ba9 N13 2.909380 1_655
Ba9 N5 3.267491 1_655
Ba9 N3 3.381637 1_555
Ba10 N7 2.658978 1_555
Ba10 N9 2.734967 1_555
Ba10 N13 2.825378 1_655
Ba10 N12 2.909380 1_555
Ba10 N6 3.267491 1_555
Ba10 N0 3.381637 1_555
Ba11 N6 2.658978 1_555
Ba11 N8 2.734967 1_545
Ba11 N14 2.825378 1_655
Ba11 N15 2.909380 1_554
Ba11 N7 3.267491 1_555
Ba11 N1 3.381637 1_545
Al0 N7 1.901311 1_555
Al0 N4 1.901311 1_554
Al0 N14 1.934264 1_555
Al0 N15 1.934264 1_554
Al1 N5 1.901311 1_555
Al1 N6 1.901311 1_555
Al1 N12 1.934264 1_555
Al1 N13 1.934264 1_555
Al2 N3 1.901311 1_554
Al2 N0 1.901311 1_555
Al2 N8 1.934264 1_555
Al2 N11 1.934264 1_554
Al3 N1 1.901311 1_555
Al3 N2 1.901311 1_555
Al3 N9 1.934264 1_555
Al3 N10 1.934264 1_555
Al4 N10 1.931234 1_555
Al4 N11 1.931234 1_555
Al4 N2 1.953397 1_555
Al4 N3 1.953397 1_555
Al5 N12 1.931234 1_555
Al5 N15 1.931234 1_555
Al5 N4 1.953397 1_555
Al5 N5 1.953397 1_555
Al6 N14 1.931234 1_555
Al6 N13 1.931234 1_555
Al6 N7 1.953397 1_555
Al6 N6 1.953397 1_555
Al7 N8 1.931234 1_555
Al7 N9 1.931234 1_555
Al7 N1 1.953397 1_555
Al7 N0 1.953397 1_555
