# generated using pymatgen
data_LaMg
_symmetry_space_group_name_H-M   'P 1'
_cell_length_a   7.60291808
_cell_length_b   11.23094662
_cell_length_c   11.57802218
_cell_angle_alpha   90.00000000
_cell_angle_beta   90.00000000
_cell_angle_gamma   90.00000000
_symmetry_Int_Tables_number   1
_chemical_formula_structural   LaMg
_chemical_formula_sum   'La16 Mg16'
_cell_volume   988.62377714
_cell_formula_units_Z   16
loop_
 _symmetry_equiv_pos_site_id
 _symmetry_equiv_pos_as_xyz
  1  'x, y, z'
loop_
 _atom_site_type_symbol
 _atom_site_label
 _atom_site_symmetry_multiplicity
 _atom_site_fract_x
 _atom_site_fract_y
 _atom_site_fract_z
 _atom_site_occupancy
  La  La0_0  1  0.00000000  0.37500000  0.10344826  1
  La  La0_1  1  0.00000000  0.37500000  0.60344826  1
  La  La0_2  1  0.00000000  0.87500000  0.10344826  1
  La  La0_3  1  0.00000000  0.87500000  0.60344826  1
  La  La0_4  1  0.50000000  0.37500000  0.10344826  1
  La  La0_5  1  0.50000000  0.37500000  0.60344826  1
  La  La0_6  1  0.50000000  0.87500000  0.10344826  1
  La  La0_7  1  0.50000000  0.87500000  0.60344826  1
  La  La1_0  1  0.00000000  0.12500000  0.39655174  1
  La  La1_1  1  0.00000000  0.12500000  0.89655174  1
  La  La1_2  1  0.00000000  0.62500000  0.39655174  1
  La  La1_3  1  0.00000000  0.62500000  0.89655174  1
  La  La1_4  1  0.50000000  0.12500000  0.39655174  1
  La  La1_5  1  0.50000000  0.12500000  0.89655174  1
  La  La1_6  1  0.50000000  0.62500000  0.39655174  1
  La  La1_7  1  0.50000000  0.62500000  0.89655174  1
  Mg  Mg0_0  1  0.25000000  0.12500000  0.15337952  1
  Mg  Mg0_1  1  0.25000000  0.12500000  0.65337952  1
  Mg  Mg0_2  1  0.25000000  0.62500000  0.15337952  1
  Mg  Mg0_3  1  0.25000000  0.62500000  0.65337952  1
  Mg  Mg0_4  1  0.75000000  0.12500000  0.15337952  1
  Mg  Mg0_5  1  0.75000000  0.12500000  0.65337952  1
  Mg  Mg0_6  1  0.75000000  0.62500000  0.15337952  1
  Mg  Mg0_7  1  0.75000000  0.62500000  0.65337952  1
  Mg  Mg1_0  1  0.25000000  0.37500000  0.34662047  1
  Mg  Mg1_1  1  0.25000000  0.37500000  0.84662047  1
  Mg  Mg1_2  1  0.25000000  0.87500000  0.34662047  1
  Mg  Mg1_3  1  0.25000000  0.87500000  0.84662047  1
  Mg  Mg1_4  1  0.75000000  0.37500000  0.34662047  1
  Mg  Mg1_5  1  0.75000000  0.37500000  0.84662047  1
  Mg  Mg1_6  1  0.75000000  0.87500000  0.34662047  1
  Mg  Mg1_7  1  0.75000000  0.87500000  0.84662047  1
loop_
_geom_bond_atom_site_label_1
_geom_bond_atom_site_label_2
_geom_bond_distance
_geom_bond_site_symmetry_2
La0_0 Mg1_0 3.396991 1_555
La0_0 Mg1_4 3.396991 1_455
La0_0 Mg0_2 3.439530 1_555
La0_0 Mg0_6 3.439530 1_455
La0_0 Mg0_0 3.439530 1_555
La0_0 Mg0_4 3.439530 1_455
La0_0 Mg1_1 3.529139 1_554
La0_0 Mg1_5 3.529139 1_454
La0_0 La1_3 3.690742 1_554
La0_0 La1_1 3.690742 1_554
La0_0 La0_4 3.801459 1_555
La0_0 La0_4 3.801459 1_455
La0_1 Mg1_1 3.396991 1_555
La0_1 Mg1_5 3.396991 1_455
La0_1 Mg0_3 3.439530 1_555
La0_1 Mg0_7 3.439530 1_455
La0_1 Mg0_1 3.439530 1_555
La0_1 Mg0_5 3.439530 1_455
La0_1 Mg1_0 3.529139 1_555
La0_1 Mg1_4 3.529139 1_455
La0_1 La1_2 3.690742 1_555
La0_1 La1_0 3.690742 1_555
La0_1 La0_5 3.801459 1_555
La0_1 La0_5 3.801459 1_455
La0_2 Mg1_2 3.396991 1_555
La0_2 Mg1_6 3.396991 1_455
La0_2 Mg0_0 3.439530 1_565
La0_2 Mg0_2 3.439530 1_555
La0_2 Mg0_4 3.439530 1_465
La0_2 Mg0_6 3.439530 1_455
La0_2 Mg1_3 3.529139 1_554
La0_2 Mg1_7 3.529139 1_454
La0_2 La1_3 3.690742 1_554
La0_2 La1_1 3.690742 1_564
La0_2 La0_6 3.801459 1_555
La0_2 La0_6 3.801459 1_455
La0_3 Mg1_3 3.396991 1_555
La0_3 Mg1_7 3.396991 1_455
La0_3 Mg0_3 3.439530 1_555
La0_3 Mg0_1 3.439530 1_565
La0_3 Mg0_7 3.439530 1_455
La0_3 Mg0_5 3.439530 1_465
La0_3 Mg1_2 3.529139 1_555
La0_3 Mg1_6 3.529139 1_455
La0_3 La1_0 3.690742 1_565
La0_3 La1_2 3.690742 1_555
La0_3 La0_7 3.801459 1_555
La0_3 La0_7 3.801459 1_455
La0_4 Mg1_0 3.396991 1_555
La0_4 Mg1_4 3.396991 1_555
La0_4 Mg0_2 3.439530 1_555
La0_4 Mg0_6 3.439530 1_555
La0_4 Mg0_0 3.439530 1_555
La0_4 Mg0_4 3.439530 1_555
La0_4 Mg1_1 3.529139 1_554
La0_4 Mg1_5 3.529139 1_554
La0_4 La1_7 3.690742 1_554
La0_4 La1_5 3.690742 1_554
La0_5 Mg1_1 3.396991 1_555
La0_5 Mg1_5 3.396991 1_555
La0_5 Mg0_7 3.439530 1_555
La0_5 Mg0_3 3.439530 1_555
La0_5 Mg0_5 3.439530 1_555
La0_5 Mg0_1 3.439530 1_555
La0_5 Mg1_0 3.529139 1_555
La0_5 Mg1_4 3.529139 1_555
La0_5 La1_6 3.690742 1_555
La0_5 La1_4 3.690742 1_555
La0_6 Mg1_6 3.396991 1_555
La0_6 Mg1_2 3.396991 1_555
La0_6 Mg0_0 3.439530 1_565
La0_6 Mg0_2 3.439530 1_555
La0_6 Mg0_4 3.439530 1_565
La0_6 Mg0_6 3.439530 1_555
La0_6 Mg1_7 3.529139 1_554
La0_6 Mg1_3 3.529139 1_554
La0_6 La1_5 3.690742 1_564
La0_6 La1_7 3.690742 1_554
La0_7 Mg1_7 3.396991 1_555
La0_7 Mg1_3 3.396991 1_555
La0_7 Mg0_3 3.439530 1_555
La0_7 Mg0_1 3.439530 1_565
La0_7 Mg0_5 3.439530 1_565
La0_7 Mg0_7 3.439530 1_555
La0_7 Mg1_6 3.529139 1_555
La0_7 Mg1_2 3.529139 1_555
La0_7 La1_6 3.690742 1_555
La0_7 La1_4 3.690742 1_565
La1_0 Mg0_0 3.396991 1_555
La1_0 Mg0_4 3.396991 1_455
La1_0 Mg1_0 3.439530 1_555
La1_0 Mg1_2 3.439530 1_545
La1_0 Mg1_6 3.439530 1_445
La1_0 Mg1_4 3.439530 1_455
La1_0 Mg0_1 3.529139 1_555
La1_0 Mg0_5 3.529139 1_455
La1_0 La1_4 3.801459 1_555
La1_0 La1_4 3.801459 1_455
La1_1 Mg0_1 3.396991 1_555
La1_1 Mg0_5 3.396991 1_455
La1_1 Mg1_3 3.439530 1_545
La1_1 Mg1_1 3.439530 1_555
La1_1 Mg1_7 3.439530 1_445
La1_1 Mg1_5 3.439530 1_455
La1_1 Mg0_0 3.529139 1_556
La1_1 Mg0_4 3.529139 1_456
La1_1 La1_5 3.801459 1_555
La1_1 La1_5 3.801459 1_455
La1_2 Mg0_2 3.396991 1_555
La1_2 Mg0_6 3.396991 1_455
La1_2 Mg1_0 3.439530 1_555
La1_2 Mg1_4 3.439530 1_455
La1_2 Mg1_2 3.439530 1_555
La1_2 Mg1_6 3.439530 1_455
La1_2 Mg0_3 3.529139 1_555
La1_2 Mg0_7 3.529139 1_455
La1_2 La1_6 3.801459 1_555
La1_2 La1_6 3.801459 1_455
La1_3 Mg0_3 3.396991 1_555
La1_3 Mg0_7 3.396991 1_455
La1_3 Mg1_3 3.439530 1_555
La1_3 Mg1_1 3.439530 1_555
La1_3 Mg1_5 3.439530 1_455
La1_3 Mg1_7 3.439530 1_455
La1_3 Mg0_2 3.529139 1_556
La1_3 Mg0_6 3.529139 1_456
La1_3 La1_7 3.801459 1_555
La1_3 La1_7 3.801459 1_455
La1_4 Mg0_0 3.396991 1_555
La1_4 Mg0_4 3.396991 1_555
La1_4 Mg1_0 3.439530 1_555
La1_4 Mg1_4 3.439530 1_555
La1_4 Mg1_6 3.439530 1_545
La1_4 Mg1_2 3.439530 1_545
La1_4 Mg0_5 3.529139 1_555
La1_4 Mg0_1 3.529139 1_555
La1_5 Mg0_5 3.396991 1_555
La1_5 Mg0_1 3.396991 1_555
La1_5 Mg1_7 3.439530 1_545
La1_5 Mg1_3 3.439530 1_545
La1_5 Mg1_5 3.439530 1_555
La1_5 Mg1_1 3.439530 1_555
La1_5 Mg0_4 3.529139 1_556
La1_5 Mg0_0 3.529139 1_556
La1_6 Mg0_2 3.396991 1_555
La1_6 Mg0_6 3.396991 1_555
La1_6 Mg1_0 3.439530 1_555
La1_6 Mg1_4 3.439530 1_555
La1_6 Mg1_2 3.439530 1_555
La1_6 Mg1_6 3.439530 1_555
La1_6 Mg0_7 3.529139 1_555
La1_6 Mg0_3 3.529139 1_555
La1_7 Mg0_3 3.396991 1_555
La1_7 Mg0_7 3.396991 1_555
La1_7 Mg1_5 3.439530 1_555
La1_7 Mg1_3 3.439530 1_555
La1_7 Mg1_1 3.439530 1_555
La1_7 Mg1_7 3.439530 1_555
La1_7 Mg0_2 3.529139 1_556
La1_7 Mg0_6 3.529139 1_556
