# generated using pymatgen
data_BiO2
_symmetry_space_group_name_H-M   'P 1'
_cell_length_a   3.56528802
_cell_length_b   3.56528802
_cell_length_c   11.14223800
_cell_angle_alpha   90.00000000
_cell_angle_beta   90.00000000
_cell_angle_gamma   120.00000032
_symmetry_Int_Tables_number   1
_chemical_formula_structural   BiO2
_chemical_formula_sum   'Bi2 O4'
_cell_volume   122.65698924
_cell_formula_units_Z   2
loop_
 _symmetry_equiv_pos_site_id
 _symmetry_equiv_pos_as_xyz
  1  'x, y, z'
loop_
 _atom_site_type_symbol
 _atom_site_label
 _atom_site_symmetry_multiplicity
 _atom_site_fract_x
 _atom_site_fract_y
 _atom_site_fract_z
 _atom_site_occupancy
  Bi  Bi0  1  0.00000000  0.00000000  0.50000000  1
  Bi  Bi1  1  0.00000000  0.00000000  0.00000000  1
  O  O0  1  0.33333300  0.66666700  0.58730600  1
  O  O1  1  0.33333300  0.66666700  0.91269400  1
  O  O2  1  0.66666700  0.33333300  0.41269400  1
  O  O3  1  0.66666700  0.33333300  0.08730600  1
loop_
_geom_bond_atom_site_label_1
_geom_bond_atom_site_label_2
_geom_bond_distance
_geom_bond_site_symmetry_2
Bi0 O0 2.276707 1_545
Bi0 O2 2.276707 1_455
Bi0 O0 2.276710 1_445
Bi0 O2 2.276710 1_445
Bi0 O0 2.276710 1_555
Bi0 O2 2.276710 1_555
Bi1 O1 2.276707 1_544
Bi1 O3 2.276707 1_455
Bi1 O1 2.276710 1_444
Bi1 O3 2.276710 1_555
Bi1 O1 2.276710 1_554
Bi1 O3 2.276710 1_445
