# generated using pymatgen
data_Nb3Pd
_symmetry_space_group_name_H-M   'P 1'
_cell_length_a   5.61569980
_cell_length_b   5.61569980
_cell_length_c   18.15342794
_cell_angle_alpha   90.00000000
_cell_angle_beta   90.00000000
_cell_angle_gamma   104.31519606
_symmetry_Int_Tables_number   1
_chemical_formula_structural   Nb3Pd
_chemical_formula_sum   'Nb24 Pd8'
_cell_volume   554.71238778
_cell_formula_units_Z   8
loop_
 _symmetry_equiv_pos_site_id
 _symmetry_equiv_pos_as_xyz
  1  'x, y, z'
loop_
 _atom_site_type_symbol
 _atom_site_label
 _atom_site_symmetry_multiplicity
 _atom_site_fract_x
 _atom_site_fract_y
 _atom_site_fract_z
 _atom_site_occupancy
  Nb  Nb0_0  1  0.25000000  0.25000000  0.38010285  1
  Nb  Nb0_1  1  0.25000000  0.25000000  0.88010285  1
  Nb  Nb0_2  1  0.25000000  0.75000000  0.38010285  1
  Nb  Nb0_3  1  0.25000000  0.75000000  0.88010285  1
  Nb  Nb0_4  1  0.75000000  0.25000000  0.38010285  1
  Nb  Nb0_5  1  0.75000000  0.25000000  0.88010285  1
  Nb  Nb0_6  1  0.75000000  0.75000000  0.38010285  1
  Nb  Nb0_7  1  0.75000000  0.75000000  0.88010285  1
  Nb  Nb1_0  1  0.00000000  0.00000000  0.25000000  1
  Nb  Nb1_1  1  0.00000000  0.00000000  0.75000000  1
  Nb  Nb1_2  1  0.00000000  0.50000000  0.25000000  1
  Nb  Nb1_3  1  0.00000000  0.50000000  0.75000000  1
  Nb  Nb1_4  1  0.50000000  0.00000000  0.25000000  1
  Nb  Nb1_5  1  0.50000000  0.00000000  0.75000000  1
  Nb  Nb1_6  1  0.50000000  0.50000000  0.25000000  1
  Nb  Nb1_7  1  0.50000000  0.50000000  0.75000000  1
  Nb  Nb2_0  1  0.25000000  0.25000000  0.11989715  1
  Nb  Nb2_1  1  0.25000000  0.25000000  0.61989715  1
  Nb  Nb2_2  1  0.25000000  0.75000000  0.11989715  1
  Nb  Nb2_3  1  0.25000000  0.75000000  0.61989715  1
  Nb  Nb2_4  1  0.75000000  0.25000000  0.11989715  1
  Nb  Nb2_5  1  0.75000000  0.25000000  0.61989715  1
  Nb  Nb2_6  1  0.75000000  0.75000000  0.11989715  1
  Nb  Nb2_7  1  0.75000000  0.75000000  0.61989715  1
  Pd  Pd0_0  1  0.00000000  0.00000000  0.00000000  1
  Pd  Pd0_1  1  0.00000000  0.00000000  0.50000000  1
  Pd  Pd0_2  1  0.00000000  0.50000000  0.00000000  1
  Pd  Pd0_3  1  0.00000000  0.50000000  0.50000000  1
  Pd  Pd0_4  1  0.50000000  0.00000000  0.00000000  1
  Pd  Pd0_5  1  0.50000000  0.00000000  0.50000000  1
  Pd  Pd0_6  1  0.50000000  0.50000000  0.00000000  1
  Pd  Pd0_7  1  0.50000000  0.50000000  0.50000000  1
loop_
_geom_bond_atom_site_label_1
_geom_bond_atom_site_label_2
_geom_bond_distance
_geom_bond_site_symmetry_2
Nb0_0 Pd0_1 2.775729 1_555
Nb0_0 Pd0_7 2.775729 1_555
Nb0_0 Nb1_6 2.923266 1_555
Nb0_0 Nb1_0 2.923266 1_555
Nb0_0 Pd0_3 3.107095 1_555
Nb0_0 Pd0_5 3.107095 1_555
Nb0_1 Pd0_6 2.775729 1_556
Nb0_1 Pd0_0 2.775729 1_556
Nb0_1 Nb1_7 2.923266 1_555
Nb0_1 Nb1_1 2.923266 1_555
Nb0_1 Pd0_2 3.107095 1_556
Nb0_1 Pd0_4 3.107095 1_556
Nb0_2 Pd0_3 2.775729 1_555
Nb0_2 Pd0_5 2.775729 1_565
Nb0_2 Nb1_4 2.923266 1_565
Nb0_2 Nb1_2 2.923266 1_555
Nb0_2 Pd0_1 3.107095 1_565
Nb0_2 Pd0_7 3.107095 1_555
Nb0_3 Pd0_2 2.775729 1_556
Nb0_3 Pd0_4 2.775729 1_566
Nb0_3 Nb1_3 2.923266 1_555
Nb0_3 Nb1_5 2.923266 1_565
Nb0_3 Pd0_0 3.107095 1_566
Nb0_3 Pd0_6 3.107095 1_556
Nb0_4 Pd0_5 2.775729 1_555
Nb0_4 Pd0_3 2.775729 1_655
Nb0_4 Nb1_4 2.923266 1_555
Nb0_4 Nb1_2 2.923266 1_655
Nb0_4 Pd0_1 3.107095 1_655
Nb0_4 Pd0_7 3.107095 1_555
Nb0_5 Pd0_2 2.775729 1_656
Nb0_5 Pd0_4 2.775729 1_556
Nb0_5 Nb1_5 2.923266 1_555
Nb0_5 Nb1_3 2.923266 1_655
Nb0_5 Pd0_6 3.107095 1_556
Nb0_5 Pd0_0 3.107095 1_656
Nb0_6 Pd0_7 2.775729 1_555
Nb0_6 Pd0_1 2.775729 1_665
Nb0_6 Nb1_0 2.923266 1_665
Nb0_6 Nb1_6 2.923266 1_555
Nb0_6 Pd0_5 3.107095 1_565
Nb0_6 Pd0_3 3.107095 1_655
Nb0_7 Pd0_0 2.775729 1_666
Nb0_7 Pd0_6 2.775729 1_556
Nb0_7 Nb1_7 2.923266 1_555
Nb0_7 Nb1_1 2.923266 1_665
Nb0_7 Pd0_4 3.107095 1_566
Nb0_7 Pd0_2 3.107095 1_656
Nb1_0 Nb1_2 2.807850 1_555
Nb1_0 Nb1_2 2.807850 1_545
Nb1_0 Nb1_4 2.807850 1_555
Nb1_0 Nb1_4 2.807850 1_455
Nb1_0 Nb2_6 2.923266 1_445
Nb1_0 Nb2_0 2.923266 1_555
Nb1_1 Nb1_5 2.807850 1_555
Nb1_1 Nb1_3 2.807850 1_555
Nb1_1 Nb1_5 2.807850 1_455
Nb1_1 Nb1_3 2.807850 1_545
Nb1_1 Nb2_1 2.923266 1_555
Nb1_1 Nb2_7 2.923266 1_445
Nb1_2 Nb1_6 2.807850 1_555
Nb1_2 Nb1_6 2.807850 1_455
Nb1_2 Nb2_2 2.923266 1_555
Nb1_2 Nb2_4 2.923266 1_455
Nb1_3 Nb1_7 2.807850 1_455
Nb1_3 Nb1_7 2.807850 1_555
Nb1_3 Nb2_3 2.923266 1_555
Nb1_3 Nb2_5 2.923266 1_455
Nb1_4 Nb1_6 2.807850 1_555
Nb1_4 Nb1_6 2.807850 1_545
Nb1_4 Nb2_2 2.923266 1_545
Nb1_4 Nb2_4 2.923266 1_555
Nb1_5 Nb1_7 2.807850 1_545
Nb1_5 Nb1_7 2.807850 1_555
Nb1_5 Nb2_3 2.923266 1_545
Nb1_5 Nb2_5 2.923266 1_555
Nb1_6 Nb2_6 2.923266 1_555
Nb1_6 Nb2_0 2.923266 1_555
Nb1_7 Nb2_7 2.923266 1_555
Nb1_7 Nb2_1 2.923266 1_555
Nb2_0 Pd0_0 2.775729 1_555
Nb2_0 Pd0_6 2.775729 1_555
Nb2_0 Pd0_4 3.107095 1_555
Nb2_0 Pd0_2 3.107095 1_555
Nb2_1 Pd0_7 2.775729 1_555
Nb2_1 Pd0_1 2.775729 1_555
Nb2_1 Pd0_3 3.107095 1_555
Nb2_1 Pd0_5 3.107095 1_555
Nb2_2 Pd0_4 2.775729 1_565
Nb2_2 Pd0_2 2.775729 1_555
Nb2_2 Pd0_6 3.107095 1_555
Nb2_2 Pd0_0 3.107095 1_565
Nb2_3 Pd0_5 2.775729 1_565
Nb2_3 Pd0_3 2.775729 1_555
Nb2_3 Pd0_1 3.107095 1_565
Nb2_3 Pd0_7 3.107095 1_555
Nb2_4 Pd0_2 2.775729 1_655
Nb2_4 Pd0_4 2.775729 1_555
Nb2_4 Pd0_6 3.107095 1_555
Nb2_4 Pd0_0 3.107095 1_655
Nb2_5 Pd0_5 2.775729 1_555
Nb2_5 Pd0_3 2.775729 1_655
Nb2_5 Pd0_1 3.107095 1_655
Nb2_5 Pd0_7 3.107095 1_555
Nb2_6 Pd0_6 2.775729 1_555
Nb2_6 Pd0_0 2.775729 1_665
Nb2_6 Pd0_4 3.107095 1_565
Nb2_6 Pd0_2 3.107095 1_655
Nb2_7 Pd0_1 2.775729 1_665
Nb2_7 Pd0_7 2.775729 1_555
Nb2_7 Pd0_3 3.107095 1_655
Nb2_7 Pd0_5 3.107095 1_565
Pd0_0 Pd0_4 2.807850 1_555
Pd0_0 Pd0_2 2.807850 1_545
Pd0_0 Pd0_2 2.807850 1_555
Pd0_0 Pd0_4 2.807850 1_455
Pd0_1 Pd0_3 2.807850 1_545
Pd0_1 Pd0_3 2.807850 1_555
Pd0_1 Pd0_5 2.807850 1_455
Pd0_1 Pd0_5 2.807850 1_555
Pd0_2 Pd0_6 2.807850 1_555
Pd0_2 Pd0_6 2.807850 1_455
Pd0_3 Pd0_7 2.807850 1_455
Pd0_3 Pd0_7 2.807850 1_555
Pd0_4 Pd0_6 2.807850 1_555
Pd0_4 Pd0_6 2.807850 1_545
Pd0_5 Pd0_7 2.807850 1_555
Pd0_5 Pd0_7 2.807850 1_545
