# generated using pymatgen
data_Y3Pb3N5
_symmetry_space_group_name_H-M   'P 1'
_cell_length_a   6.44214963
_cell_length_b   7.00381322
_cell_length_c   10.33679044
_cell_angle_alpha   106.92347983
_cell_angle_beta   91.14886512
_cell_angle_gamma   88.07961868
_symmetry_Int_Tables_number   1
_chemical_formula_structural   Y3Pb3N5
_chemical_formula_sum   'Y6 Pb6 N10'
_cell_volume   445.91813149
_cell_formula_units_Z   2
loop_
 _symmetry_equiv_pos_site_id
 _symmetry_equiv_pos_as_xyz
  1  'x, y, z'
loop_
 _atom_site_type_symbol
 _atom_site_label
 _atom_site_symmetry_multiplicity
 _atom_site_fract_x
 _atom_site_fract_y
 _atom_site_fract_z
 _atom_site_occupancy
  Y  Y0  1  0.81850900  0.33841300  0.92551800  1
  Y  Y1  1  0.18149100  0.66158700  0.07448200  1
  Y  Y2  1  0.72571000  0.96032400  0.57409800  1
  Y  Y3  1  0.27429000  0.03967600  0.42590200  1
  Y  Y4  1  0.16056600  0.95007600  0.77023300  1
  Y  Y5  1  0.83943400  0.04992400  0.22976700  1
  Pb  Pb0  1  0.78301400  0.42698400  0.55874500  1
  Pb  Pb1  1  0.21698600  0.57301600  0.44125500  1
  Pb  Pb2  1  0.65185700  0.81824600  0.89694100  1
  Pb  Pb3  1  0.34814300  0.18175400  0.10305900  1
  Pb  Pb4  1  0.74830000  0.62958000  0.26235000  1
  Pb  Pb5  1  0.25170000  0.37042000  0.73765000  1
  N  N0  1  0.91771800  0.20894400  0.70320100  1
  N  N1  1  0.08228200  0.79105600  0.29679900  1
  N  N2  1  0.96741400  0.72188200  0.60804200  1
  N  N3  1  0.03258600  0.27811800  0.39195800  1
  N  N4  1  0.82370800  0.67413500  0.05015400  1
  N  N5  1  0.17629200  0.32586500  0.94984600  1
  N  N6  1  0.39065800  0.03895000  0.64328300  1
  N  N7  1  0.60934200  0.96105000  0.35671700  1
  N  N8  1  0.29487200  0.86279900  0.95914200  1
  N  N9  1  0.70512800  0.13720100  0.04085800  1
loop_
_geom_bond_atom_site_label_1
_geom_bond_atom_site_label_2
_geom_bond_distance
_geom_bond_site_symmetry_2
N0 Y2 2.251294 1_545
N0 Y0 2.306211 1_555
N0 Pb5 2.435768 1_655
N0 Pb0 2.549820 1_555
N0 Y4 2.590879 1_645
N1 Y3 2.251294 1_565
N1 Y1 2.306211 1_555
N1 Pb4 2.435768 1_455
N1 Pb1 2.549820 1_555
N1 Y5 2.590879 1_465
N2 Y4 2.324453 1_655
N2 Pb0 2.337562 1_555
N2 Y2 2.341263 1_555
N2 Pb1 2.365725 1_655
N3 Y5 2.324453 1_455
N3 Pb1 2.337562 1_555
N3 Y3 2.341263 1_555
N3 Pb0 2.365725 1_455
N4 Y1 2.315067 1_655
N4 Y0 2.330155 1_554
N4 Pb2 2.353300 1_554
N4 Pb4 2.365558 1_555
N4 Y5 2.747715 1_565
N5 Y0 2.315067 1_455
N5 Y1 2.330155 1_556
N5 Pb3 2.353300 1_556
N5 Pb5 2.365558 1_555
N5 Y4 2.747715 1_545
N6 Y4 2.218564 1_545
N6 Y2 2.286171 1_545
N6 Y3 2.355838 1_555
N6 Pb5 2.391612 1_555
N7 Y5 2.218564 1_565
N7 Y3 2.286171 1_565
N7 Y2 2.355838 1_555
N7 Pb4 2.391612 1_555
N8 Y1 2.241213 1_556
N8 Pb3 2.327513 1_566
N8 Y4 2.350972 1_555
N8 Pb2 2.386213 1_555
N9 Y0 2.241213 1_554
N9 Pb2 2.327513 1_544
N9 Y5 2.350972 1_555
N9 Pb3 2.386213 1_555
