# generated using pymatgen
data_GdFe4(BiO4)3
_symmetry_space_group_name_H-M   'P 1'
_cell_length_a   7.86325600
_cell_length_b   5.48036900
_cell_length_c   5.71003792
_cell_angle_alpha   89.83414414
_cell_angle_beta   90.00000000
_cell_angle_gamma   90.00000000
_symmetry_Int_Tables_number   1
_chemical_formula_structural   GdFe4(BiO4)3
_chemical_formula_sum   'Gd1 Fe4 Bi3 O12'
_cell_volume   246.06474196
_cell_formula_units_Z   1
loop_
 _symmetry_equiv_pos_site_id
 _symmetry_equiv_pos_as_xyz
  1  'x, y, z'
loop_
 _atom_site_type_symbol
 _atom_site_label
 _atom_site_symmetry_multiplicity
 _atom_site_fract_x
 _atom_site_fract_y
 _atom_site_fract_z
 _atom_site_occupancy
  Gd  Gd0  1  0.50000000  0.48799700  0.55901800  1
  Fe  Fe0  1  0.25240200  0.99976500  0.49981900  1
  Fe  Fe1  1  0.74889900  0.49893000  0.00248000  1
  Fe  Fe2  1  0.74759800  0.99976500  0.49981900  1
  Fe  Fe3  1  0.25110100  0.49893000  0.00248000  1
  Bi  Bi0  1  0.50000000  0.00964200  0.05196200  1
  Bi  Bi1  1  0.00000000  0.50590300  0.45113500  1
  Bi  Bi2  1  0.00000000  0.98744400  0.94964100  1
  O  O0  1  0.50000000  0.59852200  0.96212400  1
  O  O1  1  0.50000000  0.89712700  0.47301400  1
  O  O2  1  0.00000000  0.39991400  0.03073400  1
  O  O3  1  0.00000000  0.09584000  0.52845200  1
  O  O4  1  0.79481300  0.69307100  0.69522900  1
  O  O5  1  0.20304400  0.80834100  0.19621700  1
  O  O6  1  0.30201900  0.30880200  0.30681100  1
  O  O7  1  0.69636500  0.19989700  0.79640600  1
  O  O8  1  0.69798100  0.30880200  0.30681100  1
  O  O9  1  0.30363500  0.19989700  0.79640600  1
  O  O10  1  0.20518700  0.69307100  0.69522900  1
  O  O11  1  0.79695600  0.80834100  0.19621700  1
loop_
_geom_bond_atom_site_label_1
_geom_bond_atom_site_label_2
_geom_bond_distance
_geom_bond_site_symmetry_2
Gd0 O1 2.293944 1_555
Gd0 O8 2.338822 1_555
Gd0 O6 2.338822 1_555
Gd0 O0 2.381811 1_555
Gd0 O9 2.588828 1_555
Gd0 O7 2.588828 1_555
Gd0 O10 2.692044 1_555
Gd0 O4 2.692044 1_555
Fe0 O1 2.032449 1_555
Fe0 O10 2.048673 1_555
Fe0 O6 2.055336 1_565
Fe0 O3 2.059976 1_565
Fe0 O9 2.060105 1_565
Fe0 O5 2.065675 1_555
Fe1 O0 2.044684 1_554
Fe1 O2 2.053904 1_655
Fe1 O7 2.062064 1_554
Fe1 O11 2.062229 1_555
Fe1 O8 2.062831 1_555
Fe1 O4 2.080752 1_554
Fe2 O1 2.032449 1_555
Fe2 O4 2.048673 1_555
Fe2 O8 2.055336 1_565
Fe2 O3 2.059976 1_665
Fe2 O7 2.060105 1_565
Fe2 O11 2.065675 1_555
Fe3 O0 2.044684 1_554
Fe3 O2 2.053904 1_555
Fe3 O9 2.062064 1_554
Fe3 O5 2.062229 1_555
Fe3 O6 2.062831 1_555
Fe3 O10 2.080752 1_554
Bi0 O0 2.312196 1_544
Bi0 O7 2.364711 1_554
Bi0 O9 2.364711 1_554
Bi0 O1 2.480308 1_545
Bi0 O8 2.691272 1_555
Bi0 O6 2.691272 1_555
Bi0 O11 2.709741 1_545
Bi0 O5 2.709741 1_545
Bi1 O3 2.288997 1_555
Bi1 O10 2.367754 1_555
Bi1 O4 2.367754 1_455
Bi1 O2 2.471416 1_555
Bi1 O11 2.720493 1_455
Bi1 O5 2.720493 1_555
Bi1 O8 2.736972 1_455
Bi1 O6 2.736972 1_555
Bi2 O2 2.308739 1_566
Bi2 O11 2.342408 1_456
Bi2 O5 2.342408 1_556
Bi2 O3 2.475616 1_565
Bi2 O10 2.707350 1_555
Bi2 O4 2.707350 1_455
Bi2 O7 2.795670 1_465
Bi2 O9 2.795670 1_565
