# generated using pymatgen
data_Sr3Yb2(GeO4)3
_symmetry_space_group_name_H-M   'P 1'
_cell_length_a   11.48717597
_cell_length_b   11.48717597
_cell_length_c   11.48717597
_cell_angle_alpha   109.47122063
_cell_angle_beta   109.47122063
_cell_angle_gamma   109.47122063
_symmetry_Int_Tables_number   1
_chemical_formula_structural   Sr3Yb2(GeO4)3
_chemical_formula_sum   'Sr12 Yb8 Ge12 O48'
_cell_volume   1166.85779433
_cell_formula_units_Z   4
loop_
 _symmetry_equiv_pos_site_id
 _symmetry_equiv_pos_as_xyz
  1  'x, y, z'
loop_
 _atom_site_type_symbol
 _atom_site_label
 _atom_site_symmetry_multiplicity
 _atom_site_fract_x
 _atom_site_fract_y
 _atom_site_fract_z
 _atom_site_occupancy
  Sr  Sr0  1  0.87500000  0.62500000  0.75000000  1
  Sr  Sr1  1  0.12500000  0.37500000  0.25000000  1
  Sr  Sr2  1  0.62500000  0.87500000  0.25000000  1
  Sr  Sr3  1  0.62500000  0.75000000  0.87500000  1
  Sr  Sr4  1  0.87500000  0.25000000  0.62500000  1
  Sr  Sr5  1  0.37500000  0.12500000  0.75000000  1
  Sr  Sr6  1  0.37500000  0.25000000  0.12500000  1
  Sr  Sr7  1  0.12500000  0.75000000  0.37500000  1
  Sr  Sr8  1  0.75000000  0.87500000  0.62500000  1
  Sr  Sr9  1  0.25000000  0.12500000  0.37500000  1
  Sr  Sr10  1  0.25000000  0.62500000  0.87500000  1
  Sr  Sr11  1  0.75000000  0.37500000  0.12500000  1
  Yb  Yb0  1  -0.00000000  -0.00000000  -0.00000000  1
  Yb  Yb1  1  0.50000000  -0.00000000  0.50000000  1
  Yb  Yb2  1  0.50000000  0.50000000  -0.00000000  1
  Yb  Yb3  1  -0.00000000  -0.00000000  0.50000000  1
  Yb  Yb4  1  -0.00000000  0.50000000  0.50000000  1
  Yb  Yb5  1  0.50000000  0.50000000  0.50000000  1
  Yb  Yb6  1  0.50000000  -0.00000000  -0.00000000  1
  Yb  Yb7  1  -0.00000000  0.50000000  -0.00000000  1
  Ge  Ge0  1  0.62500000  0.37500000  0.75000000  1
  Ge  Ge1  1  0.37500000  0.62500000  0.25000000  1
  Ge  Ge2  1  0.87500000  0.12500000  0.25000000  1
  Ge  Ge3  1  0.37500000  0.75000000  0.62500000  1
  Ge  Ge4  1  0.62500000  0.25000000  0.37500000  1
  Ge  Ge5  1  0.12500000  0.87500000  0.75000000  1
  Ge  Ge6  1  0.12500000  0.25000000  0.87500000  1
  Ge  Ge7  1  0.87500000  0.75000000  0.12500000  1
  Ge  Ge8  1  0.75000000  0.62500000  0.37500000  1
  Ge  Ge9  1  0.25000000  0.37500000  0.62500000  1
  Ge  Ge10  1  0.25000000  0.87500000  0.12500000  1
  Ge  Ge11  1  0.75000000  0.12500000  0.87500000  1
  O  O0  1  0.71439093  0.62222892  0.51458191  1
  O  O1  1  0.28560907  0.37777108  0.48541809  1
  O  O2  1  0.78560907  0.80019098  0.40783799  1
  O  O3  1  0.39235299  0.87777108  0.09216201  1
  O  O4  1  0.62222892  0.51458191  0.71439093  1
  O  O5  1  0.71439093  0.09216201  0.69980902  1
  O  O6  1  0.21439093  0.19980902  0.59216201  1
  O  O7  1  0.60764701  0.12222892  0.90783799  1
  O  O8  1  0.37777108  0.48541809  0.28560907  1
  O  O9  1  0.28560907  0.90783799  0.30019098  1
  O  O10  1  0.10764701  0.69980902  0.98541809  1
  O  O11  1  0.80019098  0.40783799  0.78560907  1
  O  O12  1  0.78560907  0.98541809  0.87777108  1
  O  O13  1  0.89235299  0.30019098  0.01458191  1
  O  O14  1  0.19980902  0.59216201  0.21439093  1
  O  O15  1  0.21439093  0.01458191  0.12222892  1
  O  O16  1  0.87777108  0.09216201  0.39235299  1
  O  O17  1  0.39235299  0.51458191  0.80019098  1
  O  O18  1  0.12222892  0.90783799  0.60764701  1
  O  O19  1  0.60764701  0.48541809  0.19980902  1
  O  O20  1  0.69980902  0.98541809  0.10764701  1
  O  O21  1  0.10764701  0.40783799  0.62222892  1
  O  O22  1  0.30019098  0.01458191  0.89235299  1
  O  O23  1  0.89235299  0.59216201  0.37777108  1
  O  O24  1  0.51458191  0.71439093  0.62222892  1
  O  O25  1  0.62222892  0.10764701  0.40783799  1
  O  O26  1  0.48541809  0.28560907  0.37777108  1
  O  O27  1  0.37777108  0.89235299  0.59216201  1
  O  O28  1  0.09216201  0.39235299  0.87777108  1
  O  O29  1  0.87777108  0.78560907  0.98541809  1
  O  O30  1  0.90783799  0.60764701  0.12222892  1
  O  O31  1  0.12222892  0.21439093  0.01458191  1
  O  O32  1  0.98541809  0.10764701  0.69980902  1
  O  O33  1  0.69980902  0.71439093  0.09216201  1
  O  O34  1  0.01458191  0.89235299  0.30019098  1
  O  O35  1  0.30019098  0.28560907  0.90783799  1
  O  O36  1  0.40783799  0.78560907  0.80019098  1
  O  O37  1  0.80019098  0.39235299  0.51458191  1
  O  O38  1  0.59216201  0.21439093  0.19980902  1
  O  O39  1  0.19980902  0.60764701  0.48541809  1
  O  O40  1  0.09216201  0.69980902  0.71439093  1
  O  O41  1  0.90783799  0.30019098  0.28560907  1
  O  O42  1  0.98541809  0.87777108  0.78560907  1
  O  O43  1  0.01458191  0.12222892  0.21439093  1
  O  O44  1  0.40783799  0.62222892  0.10764701  1
  O  O45  1  0.59216201  0.37777108  0.89235299  1
  O  O46  1  0.51458191  0.80019098  0.39235299  1
  O  O47  1  0.48541809  0.19980902  0.60764701  1
loop_
_geom_bond_atom_site_label_1
_geom_bond_atom_site_label_2
_geom_bond_distance
_geom_bond_site_symmetry_2
Ge0 O47 1.789364 1_555
Ge0 O11 1.789364 1_555
Ge0 O45 1.789364 1_555
Ge0 O4 1.789364 1_555
Ge1 O46 1.789364 1_555
Ge1 O44 1.789364 1_555
Ge1 O8 1.789364 1_555
Ge1 O14 1.789364 1_555
Ge2 O43 1.789364 1_655
Ge2 O41 1.789364 1_555
Ge2 O20 1.789364 1_545
Ge2 O16 1.789364 1_555
Ge3 O36 1.789364 1_555
Ge3 O39 1.789364 1_555
Ge3 O24 1.789364 1_555
Ge3 O27 1.789364 1_555
Ge4 O25 1.789364 1_555
Ge4 O37 1.789364 1_555
Ge4 O38 1.789364 1_555
Ge4 O26 1.789364 1_555
Ge5 O40 1.789364 1_555
Ge5 O22 1.789364 1_565
Ge5 O18 1.789364 1_555
Ge5 O42 1.789364 1_455
Ge6 O31 1.789364 1_556
Ge6 O32 1.789364 1_455
Ge6 O28 1.789364 1_555
Ge6 O35 1.789364 1_555
Ge7 O34 1.789364 1_655
Ge7 O30 1.789364 1_555
Ge7 O33 1.789364 1_555
Ge7 O29 1.789364 1_554
Ge8 O0 1.789364 1_555
Ge8 O2 1.789364 1_555
Ge8 O19 1.789364 1_555
Ge8 O23 1.789364 1_555
Ge9 O1 1.789364 1_555
Ge9 O21 1.789364 1_555
Ge9 O17 1.789364 1_555
Ge9 O6 1.789364 1_555
Ge10 O9 1.789364 1_555
Ge10 O15 1.789364 1_565
Ge10 O3 1.789364 1_555
Ge10 O10 1.789364 1_554
Ge11 O7 1.789364 1_555
Ge11 O12 1.789364 1_545
Ge11 O13 1.789364 1_556
Ge11 O5 1.789364 1_555
O0 Yb5 2.308145 1_555
O0 Sr8 2.571806 1_555
O0 Sr0 2.700981 1_555
O1 Yb5 2.308145 1_555
O1 Sr9 2.571806 1_555
O1 Sr1 2.700981 1_555
O2 Yb3 2.308145 1_665
O2 Sr8 2.571806 1_555
O2 Sr2 2.700981 1_555
O3 Yb6 2.308145 1_565
O3 Sr10 2.571806 1_554
O3 Sr2 2.700981 1_555
O4 Yb5 2.308145 1_555
O4 Sr0 2.571806 1_555
O4 Sr3 2.700981 1_555
O5 Yb1 2.308145 1_555
O5 Sr8 2.571806 1_545
O5 Sr4 2.700981 1_555
O6 Yb3 2.308145 1_555
O6 Sr9 2.571806 1_555
O6 Sr5 2.700981 1_555
O7 Yb6 2.308145 1_556
O7 Sr11 2.571806 1_556
O7 Sr5 2.700981 1_555
O8 Yb5 2.308145 1_555
O8 Sr1 2.571806 1_555
O8 Sr6 2.700981 1_555
O9 Yb1 2.308145 1_565
O9 Sr9 2.571806 1_565
O9 Sr7 2.700981 1_555
O10 Yb7 2.308145 1_556
O10 Sr10 2.571806 1_555
O10 Sr0 2.700981 1_455
O11 Yb7 2.308145 1_656
O11 Sr0 2.571806 1_555
O11 Sr4 2.700981 1_555
O12 Yb0 2.308145 1_666
O12 Sr8 2.571806 1_555
O12 Sr3 2.700981 1_555
O13 Yb7 2.308145 1_655
O13 Sr11 2.571806 1_555
O13 Sr1 2.700981 1_655
O14 Yb7 2.308145 1_555
O14 Sr1 2.571806 1_555
O14 Sr7 2.700981 1_555
O15 Yb0 2.308145 1_555
O15 Sr9 2.571806 1_555
O15 Sr6 2.700981 1_555
O16 Yb3 2.308145 1_655
O16 Sr2 2.571806 1_545
O16 Sr4 2.700981 1_555
O17 Yb2 2.308145 1_556
O17 Sr10 2.571806 1_555
O17 Sr3 2.700981 1_555
O18 Yb3 2.308145 1_565
O18 Sr5 2.571806 1_565
O18 Sr7 2.700981 1_555
O19 Yb2 2.308145 1_555
O19 Sr11 2.571806 1_555
O19 Sr6 2.700981 1_555
O20 Yb6 2.308145 1_565
O20 Sr2 2.571806 1_555
O20 Sr3 2.700981 1_554
O21 Yb4 2.308145 1_555
O21 Sr10 2.571806 1_555
O21 Sr4 2.700981 1_455
O22 Yb6 2.308145 1_556
O22 Sr5 2.571806 1_555
O22 Sr6 2.700981 1_556
O23 Yb4 2.308145 1_655
O23 Sr11 2.571806 1_555
O23 Sr7 2.700981 1_655
O24 Yb5 2.308145 1_555
O24 Sr3 2.571806 1_555
O24 Sr8 2.700981 1_555
O25 Yb1 2.308145 1_555
O25 Sr4 2.571806 1_555
O25 Sr2 2.700981 1_545
O26 Yb5 2.308145 1_555
O26 Sr6 2.571806 1_555
O26 Sr9 2.700981 1_555
O27 Yb1 2.308145 1_565
O27 Sr7 2.571806 1_555
O27 Sr5 2.700981 1_565
O28 Yb7 2.308145 1_556
O28 Sr4 2.571806 1_455
O28 Sr10 2.700981 1_555
O29 Yb0 2.308145 1_666
O29 Sr3 2.571806 1_555
O29 Sr0 2.700981 1_555
O30 Yb7 2.308145 1_655
O30 Sr7 2.571806 1_655
O30 Sr11 2.700981 1_555
O31 Yb0 2.308145 1_555
O31 Sr6 2.571806 1_555
O31 Sr1 2.700981 1_555
O32 Yb3 2.308145 1_655
O32 Sr4 2.571806 1_555
O32 Sr8 2.700981 1_545
O33 Yb2 2.308145 1_555
O33 Sr3 2.571806 1_554
O33 Sr2 2.700981 1_555
O34 Yb3 2.308145 1_565
O34 Sr7 2.571806 1_555
O34 Sr9 2.700981 1_565
O35 Yb2 2.308145 1_556
O35 Sr6 2.571806 1_556
O35 Sr5 2.700981 1_555
O36 Yb6 2.308145 1_566
O36 Sr3 2.571806 1_555
O36 Sr10 2.700981 1_555
O37 Yb4 2.308145 1_655
O37 Sr4 2.571806 1_555
O37 Sr0 2.700981 1_555
O38 Yb6 2.308145 1_555
O38 Sr6 2.571806 1_555
O38 Sr11 2.700981 1_555
O39 Yb4 2.308145 1_555
O39 Sr7 2.571806 1_555
O39 Sr1 2.700981 1_555
O40 Yb4 2.308145 1_555
O40 Sr0 2.571806 1_455
O40 Sr10 2.700981 1_555
O41 Yb4 2.308145 1_655
O41 Sr1 2.571806 1_655
O41 Sr11 2.700981 1_555
O42 Yb0 2.308145 1_666
O42 Sr0 2.571806 1_555
O42 Sr8 2.700981 1_555
O43 Yb0 2.308145 1_555
O43 Sr1 2.571806 1_555
O43 Sr9 2.700981 1_555
O44 Yb2 2.308145 1_555
O44 Sr2 2.571806 1_555
O44 Sr10 2.700981 1_554
O45 Yb2 2.308145 1_556
O45 Sr5 2.571806 1_555
O45 Sr11 2.700981 1_556
O46 Yb1 2.308145 1_565
O46 Sr2 2.571806 1_555
O46 Sr8 2.700981 1_555
O47 Yb1 2.308145 1_555
O47 Sr5 2.571806 1_555
O47 Sr9 2.700981 1_555
