# generated using pymatgen
data_TmGePd2
_symmetry_space_group_name_H-M   'P 1'
_cell_length_a   5.53240282
_cell_length_b   7.07808485
_cell_length_c   7.25403304
_cell_angle_alpha   90.00000000
_cell_angle_beta   90.00000000
_cell_angle_gamma   90.00000000
_symmetry_Int_Tables_number   1
_chemical_formula_structural   TmGePd2
_chemical_formula_sum   'Tm4 Ge4 Pd8'
_cell_volume   284.05934931
_cell_formula_units_Z   4
loop_
 _symmetry_equiv_pos_site_id
 _symmetry_equiv_pos_as_xyz
  1  'x, y, z'
loop_
 _atom_site_type_symbol
 _atom_site_label
 _atom_site_symmetry_multiplicity
 _atom_site_fract_x
 _atom_site_fract_y
 _atom_site_fract_z
 _atom_site_occupancy
  Tm  Tm0  1  0.35460983  0.75000000  0.02675164  1
  Tm  Tm1  1  0.14539017  0.75000000  0.52675064  1
  Tm  Tm2  1  0.64539017  0.25000000  0.97324836  1
  Tm  Tm3  1  0.85460983  0.25000000  0.47324936  1
  Ge  Ge0  1  0.64279733  0.75000000  0.38023177  1
  Ge  Ge1  1  0.85720267  0.75000000  0.88023177  1
  Ge  Ge2  1  0.35720267  0.25000000  0.61976823  1
  Ge  Ge3  1  0.14279733  0.25000000  0.11976823  1
  Pd  Pd0  1  0.91426499  0.55121632  0.18404834  1
  Pd  Pd1  1  0.58573501  0.94878368  0.68404834  1
  Pd  Pd2  1  0.08573501  0.05121632  0.81595166  1
  Pd  Pd3  1  0.41426499  0.44878368  0.31595166  1
  Pd  Pd4  1  0.08573501  0.44878368  0.81595166  1
  Pd  Pd5  1  0.41426499  0.05121632  0.31595166  1
  Pd  Pd6  1  0.91426499  0.94878368  0.18404834  1
  Pd  Pd7  1  0.58573501  0.55121632  0.68404834  1
loop_
_geom_bond_atom_site_label_1
_geom_bond_atom_site_label_2
_geom_bond_distance
_geom_bond_site_symmetry_2
Ge0 Pd0 2.502110 1_555
Ge0 Pd6 2.502110 1_555
Ge0 Pd3 2.522209 1_555
Ge0 Pd5 2.522209 1_565
Ge0 Pd1 2.633721 1_555
Ge0 Pd7 2.633721 1_555
Ge0 Tm1 2.949978 1_555
Ge0 Tm1 2.976759 1_655
Ge0 Tm0 3.019423 1_555
Ge1 Pd1 2.502110 1_555
Ge1 Pd7 2.502110 1_555
Ge1 Pd4 2.522209 1_655
Ge1 Pd2 2.522209 1_665
Ge1 Pd0 2.633721 1_556
Ge1 Pd6 2.633721 1_556
Ge1 Tm0 2.949981 1_656
Ge1 Tm0 2.976761 1_556
Ge1 Tm1 3.019429 1_655
Ge2 Pd2 2.502110 1_555
Ge2 Pd4 2.502110 1_555
Ge2 Pd7 2.522209 1_555
Ge2 Pd1 2.522209 1_545
Ge2 Pd5 2.633721 1_555
Ge2 Pd3 2.633721 1_555
Ge2 Tm3 2.949978 1_555
Ge2 Tm3 2.976759 1_455
Ge2 Tm2 3.019423 1_555
Ge3 Pd3 2.502110 1_555
Ge3 Pd5 2.502110 1_555
Ge3 Pd0 2.522209 1_455
Ge3 Pd6 2.522209 1_445
Ge3 Pd2 2.633721 1_554
Ge3 Pd4 2.633721 1_554
Ge3 Tm2 2.949981 1_454
Ge3 Tm2 2.976761 1_554
Ge3 Tm3 3.019429 1_455
Pd0 Tm3 3.009247 1_555
Pd0 Tm2 3.016057 1_554
Pd0 Tm0 3.035874 1_655
Pd0 Tm1 3.129657 1_655
Pd1 Tm2 3.009242 1_565
Pd1 Tm3 3.016053 1_565
Pd1 Tm1 3.035877 1_555
Pd1 Tm0 3.129663 1_556
Pd2 Tm1 3.009247 1_545
Pd2 Tm0 3.016057 1_546
Pd2 Tm2 3.035874 1_455
Pd2 Tm3 3.129657 1_455
Pd3 Tm0 3.009242 1_555
Pd3 Tm1 3.016053 1_555
Pd3 Tm3 3.035877 1_555
Pd3 Tm2 3.129663 1_554
Pd4 Tm1 3.009247 1_555
Pd4 Tm0 3.016057 1_556
Pd4 Tm2 3.035874 1_455
Pd4 Tm3 3.129657 1_455
Pd5 Tm0 3.009242 1_545
Pd5 Tm1 3.016053 1_545
Pd5 Tm3 3.035877 1_555
Pd5 Tm2 3.129663 1_554
Pd6 Tm3 3.009247 1_565
Pd6 Tm2 3.016057 1_564
Pd6 Tm0 3.035874 1_655
Pd6 Tm1 3.129657 1_655
Pd7 Tm2 3.009242 1_555
Pd7 Tm3 3.016053 1_555
Pd7 Tm1 3.035877 1_555
Pd7 Tm0 3.129663 1_556
