# generated using pymatgen
data_Li7MnAs4
_symmetry_space_group_name_H-M   'P 1'
_cell_length_a   6.03118500
_cell_length_b   6.16981500
_cell_length_c   6.16981500
_cell_angle_alpha   90.00000000
_cell_angle_beta   90.00000000
_cell_angle_gamma   90.00000000
_symmetry_Int_Tables_number   1
_chemical_formula_structural   Li7MnAs4
_chemical_formula_sum   'Li7 Mn1 As4'
_cell_volume   229.58681026
_cell_formula_units_Z   1
loop_
 _symmetry_equiv_pos_site_id
 _symmetry_equiv_pos_as_xyz
  1  'x, y, z'
loop_
 _atom_site_type_symbol
 _atom_site_label
 _atom_site_symmetry_multiplicity
 _atom_site_fract_x
 _atom_site_fract_y
 _atom_site_fract_z
 _atom_site_occupancy
  Li  Li0  1  0.51948000  0.00000000  0.00000000  1
  Li  Li1  1  0.98052000  0.00000000  0.00000000  1
  Li  Li2  1  0.25000000  0.50000000  0.00000000  1
  Li  Li3  1  0.75000000  0.50000000  0.00000000  1
  Li  Li4  1  0.25000000  0.00000000  0.50000000  1
  Li  Li5  1  0.75000000  0.00000000  0.50000000  1
  Li  Li6  1  0.25000000  0.50000000  0.50000000  1
  Mn  Mn0  1  0.75000000  0.50000000  0.50000000  1
  As  As0  1  0.52403600  0.71838600  0.28161400  1
  As  As1  1  0.52403600  0.28161400  0.71838600  1
  As  As2  1  0.97596400  0.71838600  0.71838600  1
  As  As3  1  0.97596400  0.28161400  0.28161400  1
loop_
_geom_bond_atom_site_label_1
_geom_bond_atom_site_label_2
_geom_bond_distance
_geom_bond_site_symmetry_2
As0 Mn0 2.342709 1_555
As0 Li0 2.457359 1_565
As0 Li6 2.522420 1_555
As0 Li3 2.586837 1_555
As0 Li5 2.586837 1_565
As0 Li2 2.750644 1_555
As0 Li4 2.750644 1_565
As1 Mn0 2.342709 1_555
As1 Li0 2.457359 1_556
As1 Li6 2.522420 1_555
As1 Li5 2.586837 1_555
As1 Li3 2.586837 1_556
As1 Li4 2.750644 1_555
As1 Li2 2.750644 1_556
As2 Mn0 2.342709 1_555
As2 Li1 2.457359 1_566
As2 Li6 2.522420 1_655
As2 Li3 2.586837 1_556
As2 Li5 2.586837 1_565
As2 Li2 2.750644 1_656
As2 Li4 2.750644 1_665
As3 Mn0 2.342709 1_555
As3 Li1 2.457359 1_555
As3 Li6 2.522420 1_655
As3 Li3 2.586837 1_555
As3 Li5 2.586837 1_555
As3 Li4 2.750644 1_655
As3 Li2 2.750644 1_655
