# generated using pymatgen
data_CoNi5S8
_symmetry_space_group_name_H-M   'P 1'
_cell_length_a   6.66269102
_cell_length_b   6.66269102
_cell_length_c   6.66269102
_cell_angle_alpha   60.00000000
_cell_angle_beta   60.00000000
_cell_angle_gamma   60.00000000
_symmetry_Int_Tables_number   1
_chemical_formula_structural   CoNi5S8
_chemical_formula_sum   'Co1 Ni5 S8'
_cell_volume   209.13851611
_cell_formula_units_Z   1
loop_
 _symmetry_equiv_pos_site_id
 _symmetry_equiv_pos_as_xyz
  1  'x, y, z'
loop_
 _atom_site_type_symbol
 _atom_site_label
 _atom_site_symmetry_multiplicity
 _atom_site_fract_x
 _atom_site_fract_y
 _atom_site_fract_z
 _atom_site_occupancy
  Co  Co0  1  0.25000000  0.25000000  0.25000000  1
  Ni  Ni0  1  0.12566100  0.62478000  0.62478000  1
  Ni  Ni1  1  0.62478000  0.12566100  0.62478000  1
  Ni  Ni2  1  0.62478000  0.62478000  0.12566100  1
  Ni  Ni3  1  0.62478000  0.62478000  0.62478000  1
  Ni  Ni4  1  0.00000000  0.00000000  0.00000000  1
  S  S0  1  0.39978400  0.86673900  0.86673900  1
  S  S1  1  0.86673900  0.39978400  0.86673900  1
  S  S2  1  0.86673900  0.86673900  0.39978400  1
  S  S3  1  0.86673900  0.86673900  0.86673900  1
  S  S4  1  0.85506100  0.38164600  0.38164600  1
  S  S5  1  0.38164600  0.85506100  0.38164600  1
  S  S6  1  0.38164600  0.38164600  0.85506100  1
  S  S7  1  0.38164600  0.38164600  0.38164600  1
loop_
_geom_bond_atom_site_label_1
_geom_bond_atom_site_label_2
_geom_bond_distance
_geom_bond_site_symmetry_2
Co0 S7 2.148488 1_555
Co0 S4 2.148494 1_455
Co0 S6 2.148494 1_554
Co0 S5 2.148494 1_545
Ni0 S3 2.282651 1_455
Ni0 S1 2.282651 1_455
Ni0 S2 2.282651 1_455
Ni0 S5 2.292513 1_555
Ni0 S6 2.292513 1_555
Ni0 S7 2.292522 1_555
Ni1 S3 2.282651 1_545
Ni1 S0 2.282651 1_545
Ni1 S2 2.282651 1_545
Ni1 S6 2.292513 1_555
Ni1 S4 2.292513 1_555
Ni1 S7 2.292522 1_555
Ni2 S3 2.282651 1_554
Ni2 S1 2.282651 1_554
Ni2 S0 2.282651 1_554
Ni2 S5 2.292513 1_555
Ni2 S4 2.292513 1_555
Ni2 S7 2.292522 1_555
Ni3 S0 2.282651 1_555
Ni3 S1 2.282651 1_555
Ni3 S2 2.282651 1_555
Ni3 S6 2.292522 1_555
Ni3 S4 2.292522 1_555
Ni3 S5 2.292522 1_555
Ni4 S3 2.174845 1_444
Ni4 S2 2.174851 1_445
Ni4 S1 2.174851 1_454
Ni4 S0 2.174851 1_544
