# generated using pymatgen
data_DyAlCu
_symmetry_space_group_name_H-M   'P 1'
_cell_length_a   6.99392503
_cell_length_b   6.99392503
_cell_length_c   3.98825793
_cell_angle_alpha   90.00000000
_cell_angle_beta   90.00000000
_cell_angle_gamma   119.99999480
_symmetry_Int_Tables_number   1
_chemical_formula_structural   DyAlCu
_chemical_formula_sum   'Dy3 Al3 Cu3'
_cell_volume   168.94908235
_cell_formula_units_Z   3
loop_
 _symmetry_equiv_pos_site_id
 _symmetry_equiv_pos_as_xyz
  1  'x, y, z'
loop_
 _atom_site_type_symbol
 _atom_site_label
 _atom_site_symmetry_multiplicity
 _atom_site_fract_x
 _atom_site_fract_y
 _atom_site_fract_z
 _atom_site_occupancy
  Dy  Dy0  1  -0.00000000  0.41489452  0.50000000  1
  Dy  Dy1  1  0.58510548  0.58510548  0.50000000  1
  Dy  Dy2  1  0.41489452  -0.00000000  0.50000000  1
  Al  Al0  1  0.00000000  0.76666973  0.00000000  1
  Al  Al1  1  0.23333027  0.23333027  -0.00000000  1
  Al  Al2  1  0.76666973  0.00000000  0.00000000  1
  Cu  Cu0  1  0.33333300  0.66666700  0.00000000  1
  Cu  Cu1  1  0.66666700  0.33333300  0.00000000  1
  Cu  Cu2  1  0.00000000  0.00000000  0.50000000  1
loop_
_geom_bond_atom_site_label_1
_geom_bond_atom_site_label_2
_geom_bond_distance
_geom_bond_site_symmetry_2
Al0 Cu2 2.576748 1_564
Al0 Cu2 2.576748 1_565
Al0 Cu0 2.748583 1_555
Al0 Cu1 2.748588 1_455
Al0 Al2 2.826524 1_465
Al0 Al1 2.826524 1_565
Al0 Dy0 3.166950 1_554
Al0 Dy0 3.166950 1_555
Al0 Dy1 3.213160 1_455
Al0 Dy1 3.213160 1_454
Al0 Dy2 3.213160 1_565
Al0 Dy2 3.213160 1_564
Al1 Cu2 2.576748 1_554
Al1 Cu2 2.576748 1_555
Al1 Cu1 2.748590 1_555
Al1 Cu0 2.748590 1_555
Al1 Al2 2.826524 1_455
Al1 Dy1 3.166950 1_554
Al1 Dy1 3.166950 1_555
Al1 Dy0 3.213160 1_554
Al1 Dy2 3.213160 1_555
Al1 Dy0 3.213160 1_555
Al1 Dy2 3.213160 1_554
Al2 Cu2 2.576748 1_654
Al2 Cu2 2.576748 1_655
Al2 Cu1 2.748583 1_555
Al2 Cu0 2.748588 1_545
Al2 Dy2 3.166950 1_555
Al2 Dy2 3.166950 1_554
Al2 Dy1 3.213160 1_545
Al2 Dy1 3.213160 1_544
Al2 Dy0 3.213160 1_655
Al2 Dy0 3.213160 1_654
Cu0 Dy2 2.899496 1_564
Cu0 Dy2 2.899496 1_565
Cu0 Dy0 2.899497 1_555
Cu0 Dy0 2.899497 1_554
Cu0 Dy1 2.899501 1_555
Cu0 Dy1 2.899501 1_554
Cu1 Dy0 2.899496 1_655
Cu1 Dy0 2.899496 1_654
Cu1 Dy2 2.899497 1_554
Cu1 Dy2 2.899497 1_555
Cu1 Dy1 2.899501 1_555
Cu1 Dy1 2.899501 1_554
Cu2 Dy2 2.901741 1_555
Cu2 Dy0 2.901741 1_555
Cu2 Dy1 2.901741 1_445
