# generated using pymatgen
data_NaTa4O8
_symmetry_space_group_name_H-M   'P 1'
_cell_length_a   7.04638635
_cell_length_b   7.04639805
_cell_length_c   9.61929915
_cell_angle_alpha   86.07857200
_cell_angle_beta   93.92152654
_cell_angle_gamma   86.18994912
_symmetry_Int_Tables_number   1
_chemical_formula_structural   NaTa4O8
_chemical_formula_sum   'Na3 Ta12 O24'
_cell_volume   474.16482940
_cell_formula_units_Z   3
loop_
 _symmetry_equiv_pos_site_id
 _symmetry_equiv_pos_as_xyz
  1  'x, y, z'
loop_
 _atom_site_type_symbol
 _atom_site_label
 _atom_site_symmetry_multiplicity
 _atom_site_fract_x
 _atom_site_fract_y
 _atom_site_fract_z
 _atom_site_occupancy
  Na  Na0  1  0.62072750  0.37927224  0.11315894  1
  Na  Na1  1  0.90759347  0.09240528  0.40593537  1
  Na  Na2  1  0.37822205  0.62177874  0.88441461  1
  Ta  Ta0  1  0.10145485  0.89854853  0.10040974  1
  Ta  Ta1  1  0.60201870  0.39797944  0.60364618  1
  Ta  Ta2  1  0.39614517  0.60385148  0.39643376  1
  Ta  Ta3  1  0.89857172  0.10143113  0.89739633  1
  Ta  Ta4  1  0.59611036  0.83836555  0.61952835  1
  Ta  Ta5  1  0.10638217  0.33163393  0.11277349  1
  Ta  Ta6  1  0.66837212  0.89361380  0.11277571  1
  Ta  Ta7  1  0.16163460  0.40388939  0.61952706  1
  Ta  Ta8  1  0.33011419  0.10644735  0.88543234  1
  Ta  Ta9  1  0.83831137  0.59887415  0.38149262  1
  Ta  Ta10  1  0.40112656  0.16168719  0.38149261  1
  Ta  Ta11  1  0.89355514  0.66988514  0.88543306  1
  O  O0  1  0.58993541  0.08369939  0.25019305  1
  O  O1  1  0.08160412  0.58219802  0.75317709  1
  O  O2  1  0.41780232  0.91839883  0.75317727  1
  O  O3  1  0.91629901  0.41006324  0.25019233  1
  O  O4  1  0.80882223  0.80989177  0.49962485  1
  O  O5  1  0.32848306  0.32882376  0.99963754  1
  O  O6  1  0.19010536  0.19117461  0.49962651  1
  O  O7  1  0.67118292  0.67151801  0.99963621  1
  O  O8  1  0.18116029  0.09083902  0.23617513  1
  O  O9  1  0.67731515  0.59296967  0.73493908  1
  O  O10  1  0.12861153  0.59592826  0.45208545  1
  O  O11  1  0.62857107  0.10155275  0.95832601  1
  O  O12  1  0.09066970  0.18578491  0.76523027  1
  O  O13  1  0.59336252  0.67690145  0.26426970  1
  O  O14  1  0.59997743  0.12949746  0.54530932  1
  O  O15  1  0.10008104  0.62834731  0.04236261  1
  O  O16  1  0.81421563  0.90933302  0.76522944  1
  O  O17  1  0.32309914  0.40663144  0.26427109  1
  O  O18  1  0.87049962  0.40002214  0.54530851  1
  O  O19  1  0.37165465  0.89992091  0.04236169  1
  O  O20  1  0.90915875  0.81883979  0.23617243  1
  O  O21  1  0.40702882  0.32268673  0.73493826  1
  O  O22  1  0.40407016  0.87138543  0.45208496  1
  O  O23  1  0.89845108  0.37142975  0.95832699  1
loop_
_geom_bond_atom_site_label_1
_geom_bond_atom_site_label_2
_geom_bond_distance
_geom_bond_site_symmetry_2
Na0 O5 2.324264 1_554
Na0 O7 2.324294 1_554
Na0 O3 2.417846 1_555
Na0 O0 2.417864 1_555
Na0 O11 2.538976 1_554
Na0 O23 2.538993 1_554
Na0 O17 2.636273 1_555
Na0 O13 2.636273 1_555
Na1 O6 2.298688 1_655
Na1 O4 2.298702 1_545
Na1 O8 2.610132 1_655
Na1 O20 2.610142 1_545
Na1 O0 2.613519 1_555
Na1 O3 2.613527 1_555
Na1 O14 2.633300 1_555
Na1 O18 2.633303 1_555
Na2 O5 2.334286 1_555
Na2 O7 2.334312 1_555
Na2 O1 2.409285 1_555
Na2 O2 2.409301 1_555
Na2 O15 2.560584 1_556
Na2 O19 2.560585 1_556
Na2 O21 2.635873 1_555
Na2 O9 2.635875 1_555
O0 Ta10 1.973526 1_555
O0 Ta6 2.022508 1_545
O1 Ta7 1.943037 1_555
O1 Ta11 1.996341 1_455
O2 Ta4 1.943032 1_555
O2 Ta8 1.996336 1_565
O3 Ta9 1.973541 1_555
O3 Ta5 2.022492 1_655
O4 Ta9 1.941062 1_555
O4 Ta4 1.960932 1_555
O5 Ta5 1.966166 1_556
O5 Ta8 1.974113 1_555
O6 Ta10 1.941091 1_555
O6 Ta7 1.960929 1_555
O7 Ta6 1.966157 1_556
O7 Ta11 1.974075 1_555
O8 Ta5 2.021328 1_555
O8 Ta0 2.024779 1_545
O8 Ta10 2.123098 1_555
O9 Ta1 2.001730 1_555
O9 Ta4 2.017159 1_555
O9 Ta11 2.150922 1_555
O10 Ta2 1.997850 1_555
O10 Ta7 2.021952 1_555
O10 Ta9 2.109105 1_455
O11 Ta6 2.005860 1_546
O11 Ta3 2.028670 1_555
O11 Ta8 2.168177 1_555
O12 Ta8 2.003888 1_555
O12 Ta3 2.010172 1_455
O12 Ta7 2.116533 1_555
O13 Ta2 2.014849 1_555
O13 Ta9 2.018848 1_555
O13 Ta6 2.154782 1_555
O14 Ta1 2.010435 1_555
O14 Ta10 2.026024 1_555
O14 Ta4 2.128047 1_545
O15 Ta11 2.016106 1_454
O15 Ta0 2.020891 1_555
O15 Ta5 2.149850 1_555
O16 Ta11 2.003920 1_555
O16 Ta3 2.010182 1_565
O16 Ta4 2.116526 1_555
O17 Ta2 2.014847 1_555
O17 Ta10 2.018819 1_555
O17 Ta5 2.154794 1_555
O18 Ta1 2.010429 1_555
O18 Ta9 2.026026 1_555
O18 Ta7 2.128062 1_655
O19 Ta8 2.016111 1_564
O19 Ta0 2.020882 1_555
O19 Ta6 2.149877 1_555
O20 Ta6 2.021250 1_555
O20 Ta0 2.024798 1_655
O20 Ta9 2.123113 1_555
O21 Ta1 2.001716 1_555
O21 Ta7 2.017146 1_555
O21 Ta8 2.150922 1_555
O22 Ta2 1.997853 1_555
O22 Ta4 2.021967 1_555
O22 Ta10 2.109120 1_565
O23 Ta5 2.005797 1_656
O23 Ta3 2.028662 1_555
O23 Ta11 2.168172 1_555
