# generated using pymatgen
data_Nb4B20Mo11
_symmetry_space_group_name_H-M   'P 1'
_cell_length_a   3.10418615
_cell_length_b   3.20735904
_cell_length_c   35.06401339
_cell_angle_alpha   92.62138080
_cell_angle_beta   92.53700132
_cell_angle_gamma   90.00000000
_symmetry_Int_Tables_number   1
_chemical_formula_structural   Nb4B20Mo11
_chemical_formula_sum   'Nb4 B20 Mo11'
_cell_volume   348.39786480
_cell_formula_units_Z   1
loop_
 _symmetry_equiv_pos_site_id
 _symmetry_equiv_pos_as_xyz
  1  'x, y, z'
loop_
 _atom_site_type_symbol
 _atom_site_label
 _atom_site_symmetry_multiplicity
 _atom_site_fract_x
 _atom_site_fract_y
 _atom_site_fract_z
 _atom_site_occupancy
  Nb  Nb0  1  0.09998292  0.59998292  0.19996584  1
  Nb  Nb1  1  0.70000149  0.20000149  0.40000299  1
  Nb  Nb2  1  0.29999851  0.79999851  0.59999701  1
  Nb  Nb3  1  0.90001708  0.40001708  0.80003416  1
  B  B0  1  0.07285188  0.07285188  0.14570377  1
  B  B1  1  0.67302987  0.67302987  0.34605974  1
  B  B2  1  0.27302975  0.27302975  0.54605950  1
  B  B3  1  0.87303858  0.87303858  0.74607716  1
  B  B4  1  0.47304230  0.47304230  0.94608459  1
  B  B5  1  0.52695770  0.52695770  0.05391541  1
  B  B6  1  0.12696142  0.12696142  0.25392284  1
  B  B7  1  0.72697025  0.72697025  0.45394050  1
  B  B8  1  0.32697013  0.32697013  0.65394026  1
  B  B9  1  0.92714812  0.92714812  0.85429623  1
  B  B10  1  0.58673697  0.08673697  0.17347394  1
  B  B11  1  0.18677113  0.68677113  0.37354226  1
  B  B12  1  0.78676159  0.28676159  0.57352317  1
  B  B13  1  0.38679626  0.88679626  0.77359252  1
  B  B14  1  0.98707589  0.48707589  0.97415178  1
  B  B15  1  0.01292411  0.51292411  0.02584822  1
  B  B16  1  0.61320374  0.11320374  0.22640748  1
  B  B17  1  0.21323841  0.71323841  0.42647683  1
  B  B18  1  0.81322887  0.31322887  0.62645774  1
  B  B19  1  0.41326303  0.91326303  0.82652606  1
  Mo  Mo0  1  0.03652770  0.03652770  0.07305539  1
  Mo  Mo1  1  0.63706542  0.63706542  0.27413084  1
  Mo  Mo2  1  0.23707554  0.23707554  0.47415107  1
  Mo  Mo3  1  0.83712393  0.83712393  0.67424786  1
  Mo  Mo4  1  0.43715488  0.43715488  0.87430976  1
  Mo  Mo5  1  0.56284512  0.56284512  0.12569024  1
  Mo  Mo6  1  0.16287607  0.16287607  0.32575214  1
  Mo  Mo7  1  0.76292446  0.76292446  0.52584893  1
  Mo  Mo8  1  0.36293458  0.36293458  0.72586916  1
  Mo  Mo9  1  0.96347230  0.96347230  0.92694461  1
  Mo  Mo10  1  0.50000000  -0.00000000  -0.00000000  1
loop_
_geom_bond_atom_site_label_1
_geom_bond_atom_site_label_2
_geom_bond_distance
_geom_bond_site_symmetry_2
B0 B10 1.831204 1_455
B0 B10 1.831204 1_555
B0 Mo5 2.339069 1_445
B0 Mo5 2.339069 1_545
B0 Mo5 2.339069 1_455
B0 Mo5 2.339069 1_555
B0 Nb0 2.485394 1_545
B0 Nb0 2.485394 1_555
B0 Mo0 2.542179 1_555
B1 B11 1.825883 1_555
B1 B11 1.825883 1_655
B1 Mo6 2.342171 1_655
B1 Mo6 2.342171 1_665
B1 Mo6 2.342171 1_555
B1 Mo6 2.342171 1_565
B1 Nb1 2.476881 1_565
B1 Nb1 2.476881 1_555
B1 Mo1 2.517002 1_555
B2 Mo7 2.341143 1_555
B2 Mo7 2.341143 1_455
B2 Mo7 2.341143 1_545
B2 Mo7 2.341143 1_445
B2 Nb2 2.476728 1_545
B2 Nb2 2.476728 1_555
B2 Mo2 2.516286 1_555
B3 Mo8 2.341116 1_655
B3 Mo8 2.341116 1_665
B3 Mo8 2.341116 1_555
B3 Mo8 2.341116 1_565
B3 Nb3 2.477248 1_565
B3 Nb3 2.477248 1_555
B3 Mo3 2.513517 1_555
B4 Mo9 2.330100 1_555
B4 Mo9 2.330100 1_455
B4 Mo9 2.330100 1_545
B4 Mo9 2.330100 1_445
B4 Mo10 2.476139 1_566
B4 Mo10 2.476139 1_556
B4 Mo4 2.511611 1_555
B5 Mo0 2.330100 1_555
B5 Mo0 2.330100 1_655
B5 Mo0 2.330100 1_565
B5 Mo0 2.330100 1_665
B5 Mo10 2.476139 1_555
B5 Mo10 2.476139 1_565
B5 Mo5 2.511611 1_555
B6 Mo1 2.341116 1_445
B6 Mo1 2.341116 1_455
B6 Mo1 2.341116 1_545
B6 Mo1 2.341116 1_555
B6 Nb0 2.477248 1_555
B6 Nb0 2.477248 1_545
B6 Mo6 2.513517 1_555
B7 Mo2 2.341143 1_555
B7 Mo2 2.341143 1_655
B7 Mo2 2.341143 1_565
B7 Mo2 2.341143 1_665
B7 Nb1 2.476728 1_565
B7 Nb1 2.476728 1_555
B7 Mo7 2.516286 1_555
B8 Mo3 2.342171 1_455
B8 Mo3 2.342171 1_445
B8 Mo3 2.342171 1_555
B8 Mo3 2.342171 1_545
B8 Nb2 2.476881 1_545
B8 Nb2 2.476881 1_555
B8 Mo8 2.517002 1_555
B9 Mo4 2.339069 1_665
B9 Mo4 2.339069 1_565
B9 Mo4 2.339069 1_655
B9 Mo4 2.339069 1_555
B9 Nb3 2.485394 1_565
B9 Nb3 2.485394 1_555
B9 Mo9 2.542179 1_555
B10 B16 1.852299 1_555
B10 Mo5 2.316825 1_555
B10 Mo5 2.316825 1_545
B10 Nb0 2.416643 1_555
B10 Nb0 2.416643 1_545
B10 Nb0 2.416643 1_655
B10 Nb0 2.416643 1_645
B11 B17 1.852335 1_555
B11 Mo6 2.316987 1_565
B11 Mo6 2.316987 1_555
B11 Nb1 2.416225 1_565
B11 Nb1 2.416225 1_465
B11 Nb1 2.416225 1_555
B11 Nb1 2.416225 1_455
B12 B2 1.825535 1_655
B12 B2 1.825535 1_555
B12 B18 1.852335 1_555
B12 Mo7 2.314062 1_555
B12 Mo7 2.314062 1_545
B12 Nb2 2.416401 1_555
B12 Nb2 2.416401 1_545
B12 Nb2 2.416401 1_645
B12 Nb2 2.416401 1_655
B13 B3 1.826488 1_555
B13 B3 1.826488 1_455
B13 B19 1.852299 1_555
B13 Mo8 2.315301 1_565
B13 Mo8 2.315301 1_555
B13 Nb3 2.415969 1_465
B13 Nb3 2.415969 1_455
B13 Nb3 2.415969 1_565
B13 Nb3 2.415969 1_555
B14 B15 1.809009 1_656
B14 B4 1.836741 1_555
B14 B4 1.836741 1_655
B14 Mo9 2.302307 1_555
B14 Mo9 2.302307 1_545
B14 Mo10 2.408093 1_566
B14 Mo10 2.408093 1_556
B14 Mo10 2.408093 1_656
B14 Mo10 2.408093 1_666
B15 B5 1.836741 1_555
B15 B5 1.836741 1_455
B15 Mo0 2.302307 1_555
B15 Mo0 2.302307 1_565
B15 Mo10 2.408093 1_565
B15 Mo10 2.408093 1_555
B15 Mo10 2.408093 1_465
B15 Mo10 2.408093 1_455
B16 B6 1.826488 1_555
B16 B6 1.826488 1_655
B16 Mo1 2.315301 1_545
B16 Mo1 2.315301 1_555
B16 Nb0 2.415969 1_655
B16 Nb0 2.415969 1_645
B16 Nb0 2.415969 1_555
B16 Nb0 2.415969 1_545
B17 B7 1.825535 1_455
B17 B7 1.825535 1_555
B17 Mo2 2.314062 1_555
B17 Mo2 2.314062 1_565
B17 Nb1 2.416401 1_555
B17 Nb1 2.416401 1_565
B17 Nb1 2.416401 1_465
B17 Nb1 2.416401 1_455
B18 B8 1.825883 1_555
B18 B8 1.825883 1_655
B18 Mo3 2.316987 1_545
B18 Mo3 2.316987 1_555
B18 Nb2 2.416225 1_545
B18 Nb2 2.416225 1_645
B18 Nb2 2.416225 1_555
B18 Nb2 2.416225 1_655
B19 B9 1.831204 1_455
B19 B9 1.831204 1_555
B19 Mo4 2.316825 1_565
B19 Mo4 2.316825 1_555
B19 Nb3 2.416643 1_555
B19 Nb3 2.416643 1_565
B19 Nb3 2.416643 1_455
B19 Nb3 2.416643 1_465
