# generated using pymatgen
data_TmSe2
_symmetry_space_group_name_H-M   'P 1'
_cell_length_a   4.02437824
_cell_length_b   4.02437824
_cell_length_c   8.19277653
_cell_angle_alpha   90.00000000
_cell_angle_beta   90.00000000
_cell_angle_gamma   90.00000000
_symmetry_Int_Tables_number   1
_chemical_formula_structural   TmSe2
_chemical_formula_sum   'Tm2 Se4'
_cell_volume   132.68709722
_cell_formula_units_Z   2
loop_
 _symmetry_equiv_pos_site_id
 _symmetry_equiv_pos_as_xyz
  1  'x, y, z'
loop_
 _atom_site_type_symbol
 _atom_site_label
 _atom_site_symmetry_multiplicity
 _atom_site_fract_x
 _atom_site_fract_y
 _atom_site_fract_z
 _atom_site_occupancy
  Tm  Tm0  1  0.75000000  0.75000000  0.72693442  1
  Tm  Tm1  1  0.25000000  0.25000000  0.27306558  1
  Se  Se0  1  0.75000000  0.25000000  0.00000000  1
  Se  Se1  1  0.25000000  0.75000000  0.00000000  1
  Se  Se2  1  0.75000000  0.75000000  0.37056989  1
  Se  Se3  1  0.25000000  0.25000000  0.62943011  1
loop_
_geom_bond_atom_site_label_1
_geom_bond_atom_site_label_2
_geom_bond_distance
_geom_bond_site_symmetry_2
Se0 Se1 2.845665 1_555
Se0 Se1 2.845665 1_545
Se0 Se1 2.845665 1_655
Se0 Se1 2.845665 1_645
Se0 Tm0 3.008956 1_544
Se0 Tm1 3.008956 1_655
Se0 Tm1 3.008956 1_555
Se0 Tm0 3.008956 1_554
Se1 Tm0 3.008956 1_454
Se1 Tm1 3.008956 1_565
Se1 Tm1 3.008956 1_555
Se1 Tm0 3.008956 1_554
Se2 Tm0 2.919615 1_555
Se2 Tm1 2.955663 1_565
Se2 Tm1 2.955663 1_655
Se2 Tm1 2.955663 1_665
Se2 Tm1 2.955663 1_555
Se3 Tm1 2.919615 1_555
Se3 Tm0 2.955663 1_545
Se3 Tm0 2.955663 1_445
Se3 Tm0 2.955663 1_455
Se3 Tm0 2.955663 1_555
