# generated using pymatgen
data_Sr4CaMn2(GaO5)2
_symmetry_space_group_name_H-M   'P 1'
_cell_length_a   5.85210637
_cell_length_b   5.85272285
_cell_length_c   9.39077318
_cell_angle_alpha   71.30591551
_cell_angle_beta   71.32007268
_cell_angle_gamma   88.81321335
_symmetry_Int_Tables_number   1
_chemical_formula_structural   Sr4CaMn2(GaO5)2
_chemical_formula_sum   'Sr4 Ca1 Mn2 Ga2 O10'
_cell_volume   287.41711064
_cell_formula_units_Z   1
loop_
 _symmetry_equiv_pos_site_id
 _symmetry_equiv_pos_as_xyz
  1  'x, y, z'
loop_
 _atom_site_type_symbol
 _atom_site_label
 _atom_site_symmetry_multiplicity
 _atom_site_fract_x
 _atom_site_fract_y
 _atom_site_fract_z
 _atom_site_occupancy
  Sr  Sr0  1  0.08701700  0.59586800  0.82084300  1
  Sr  Sr1  1  0.90236700  0.39373400  0.20367500  1
  Sr  Sr2  1  0.59279600  0.08759300  0.82522000  1
  Sr  Sr3  1  0.38981300  0.90183900  0.20809400  1
  Ca  Ca0  1  0.98194900  0.99833900  0.51656000  1
  Mn  Mn0  1  0.49719600  0.49828500  0.00739900  1
  Mn  Mn1  1  0.99539400  0.99621400  0.00821000  1
  Ga  Ga0  1  0.65850900  0.65232600  0.51569300  1
  Ga  Ga1  1  0.32746900  0.32466100  0.51638800  1
  O  O0  1  0.25198400  0.25370700  0.99558100  1
  O  O1  1  0.24421300  0.74517100  0.01201600  1
  O  O2  1  0.74343200  0.24441500  0.01391400  1
  O  O3  1  0.73279000  0.73476300  0.03352700  1
  O  O4  1  0.69472200  0.68890100  0.69839500  1
  O  O5  1  0.28595300  0.28556300  0.33680400  1
  O  O6  1  0.10505500  0.10566600  0.69850500  1
  O  O7  1  0.87870400  0.87427900  0.33609600  1
  O  O8  1  0.32535000  0.65789800  0.51580600  1
  O  O9  1  0.66243100  0.31792000  0.51584500  1
loop_
_geom_bond_atom_site_label_1
_geom_bond_atom_site_label_2
_geom_bond_distance
_geom_bond_site_symmetry_2
Ca0 O5 2.285087 1_665
Ca0 O7 2.286289 1_555
Ca0 O4 2.307864 1_555
Ca0 O6 2.308280 1_665
Ca0 O9 2.617247 1_565
Ca0 O8 2.800493 1_655
Mn0 O1 2.047446 1_555
Mn0 O2 2.048762 1_555
Mn0 O3 2.095249 1_555
Mn0 O0 2.099891 1_554
Mn0 O4 2.613572 1_554
Mn0 O5 2.791526 1_555
Mn1 O1 2.047290 1_655
Mn1 O2 2.048853 1_565
Mn1 O3 2.095212 1_555
Mn1 O0 2.098832 1_664
Mn1 O6 2.628304 1_664
Mn1 O7 2.778704 1_555
Ga0 O7 1.861512 1_555
Ga0 O4 1.872064 1_555
Ga0 O8 1.948945 1_555
Ga0 O9 1.956393 1_555
Ga1 O5 1.862145 1_555
Ga1 O6 1.870788 1_555
Ga1 O8 1.948392 1_555
Ga1 O9 1.958218 1_555
O0 Sr2 2.520984 1_555
O0 Sr0 2.542270 1_555
O0 Sr1 2.659428 1_456
O0 Sr3 2.683670 1_546
O1 Sr2 2.622688 1_564
O1 Sr0 2.632418 1_554
O1 Sr1 2.638768 1_455
O1 Sr3 2.660248 1_555
O2 Sr2 2.614601 1_554
O2 Sr1 2.626411 1_555
O2 Sr0 2.647014 1_654
O2 Sr3 2.653045 1_545
O3 Sr1 2.531989 1_555
O3 Sr3 2.551620 1_555
O3 Sr2 2.670037 1_564
O3 Sr0 2.695551 1_654
O4 Sr0 2.850795 1_655
O4 Sr2 2.913403 1_565
O5 Sr3 2.843774 1_545
O5 Sr1 2.869542 1_455
O6 Sr0 2.823389 1_545
O6 Sr2 2.839253 1_455
O7 Sr3 2.830197 1_655
O7 Sr1 2.879612 1_565
O8 Sr0 2.660408 1_555
O8 Sr3 2.685178 1_555
O9 Sr2 2.679124 1_555
O9 Sr1 2.705095 1_555
