# generated using pymatgen
data_FeRu(NF)6
_symmetry_space_group_name_H-M   'P 1'
_cell_length_a   8.86844100
_cell_length_b   8.86844100
_cell_length_c   8.86844100
_cell_angle_alpha   90.00000000
_cell_angle_beta   90.00000000
_cell_angle_gamma   90.00000000
_symmetry_Int_Tables_number   1
_chemical_formula_structural   FeRu(NF)6
_chemical_formula_sum   'Fe4 Ru4 N24 F24'
_cell_volume   697.49619581
_cell_formula_units_Z   4
loop_
 _symmetry_equiv_pos_site_id
 _symmetry_equiv_pos_as_xyz
  1  'x, y, z'
loop_
 _atom_site_type_symbol
 _atom_site_label
 _atom_site_symmetry_multiplicity
 _atom_site_fract_x
 _atom_site_fract_y
 _atom_site_fract_z
 _atom_site_occupancy
  Fe  Fe0  1  0.50000000  0.50000000  0.50000000  1
  Fe  Fe1  1  0.00000000  0.50000000  0.00000000  1
  Fe  Fe2  1  0.50000000  0.00000000  0.00000000  1
  Fe  Fe3  1  0.00000000  0.00000000  0.50000000  1
  Ru  Ru0  1  0.00000000  0.00000000  0.00000000  1
  Ru  Ru1  1  0.50000000  0.00000000  0.50000000  1
  Ru  Ru2  1  0.00000000  0.50000000  0.50000000  1
  Ru  Ru3  1  0.50000000  0.50000000  0.00000000  1
  N  N0  1  0.17603400  0.38671400  0.43153700  1
  N  N1  1  0.82396600  0.61328600  0.56846300  1
  N  N2  1  0.32396600  0.61328600  0.93153700  1
  N  N3  1  0.82396600  0.88671400  0.06846300  1
  N  N4  1  0.43153700  0.17603400  0.38671400  1
  N  N5  1  0.67603400  0.38671400  0.06846300  1
  N  N6  1  0.17603400  0.11328600  0.93153700  1
  N  N7  1  0.56846300  0.82396600  0.61328600  1
  N  N8  1  0.67603400  0.11328600  0.56846300  1
  N  N9  1  0.93153700  0.32396600  0.61328600  1
  N  N10  1  0.32396600  0.88671400  0.43153700  1
  N  N11  1  0.06846300  0.67603400  0.38671400  1
  N  N12  1  0.06846300  0.82396600  0.88671400  1
  N  N13  1  0.93153700  0.17603400  0.11328600  1
  N  N14  1  0.56846300  0.67603400  0.11328600  1
  N  N15  1  0.43153700  0.32396600  0.88671400  1
  N  N16  1  0.38671400  0.43153700  0.17603400  1
  N  N17  1  0.61328600  0.56846300  0.82396600  1
  N  N18  1  0.88671400  0.06846300  0.82396600  1
  N  N19  1  0.11328600  0.93153700  0.17603400  1
  N  N20  1  0.11328600  0.56846300  0.67603400  1
  N  N21  1  0.88671400  0.43153700  0.32396600  1
  N  N22  1  0.61328600  0.93153700  0.32396600  1
  N  N23  1  0.38671400  0.06846300  0.67603400  1
  F  F0  1  0.05008200  0.30463400  0.11116000  1
  F  F1  1  0.94991800  0.69536600  0.88884000  1
  F  F2  1  0.44991800  0.69536600  0.61116000  1
  F  F3  1  0.94991800  0.80463400  0.38884000  1
  F  F4  1  0.11116000  0.05008200  0.30463400  1
  F  F5  1  0.55008200  0.30463400  0.38884000  1
  F  F6  1  0.05008200  0.19536600  0.61116000  1
  F  F7  1  0.88884000  0.94991800  0.69536600  1
  F  F8  1  0.55008200  0.19536600  0.88884000  1
  F  F9  1  0.61116000  0.44991800  0.69536600  1
  F  F10  1  0.44991800  0.80463400  0.11116000  1
  F  F11  1  0.38884000  0.55008200  0.30463400  1
  F  F12  1  0.38884000  0.94991800  0.80463400  1
  F  F13  1  0.61116000  0.05008200  0.19536600  1
  F  F14  1  0.88884000  0.55008200  0.19536600  1
  F  F15  1  0.11116000  0.44991800  0.80463400  1
  F  F16  1  0.30463400  0.11116000  0.05008200  1
  F  F17  1  0.69536600  0.88884000  0.94991800  1
  F  F18  1  0.80463400  0.38884000  0.94991800  1
  F  F19  1  0.19536600  0.61116000  0.05008200  1
  F  F20  1  0.19536600  0.88884000  0.55008200  1
  F  F21  1  0.80463400  0.11116000  0.44991800  1
  F  F22  1  0.69536600  0.61116000  0.44991800  1
  F  F23  1  0.30463400  0.38884000  0.55008200  1
loop_
_geom_bond_atom_site_label_1
_geom_bond_atom_site_label_2
_geom_bond_distance
_geom_bond_site_symmetry_2
N0 Ru2 1.953250 1_555
N1 Ru2 1.953250 1_655
N2 Ru3 1.953250 1_556
N3 Ru0 1.953250 1_665
N4 Ru1 1.953250 1_555
N5 Ru3 1.953250 1_555
N6 Ru0 1.953250 1_556
N7 Ru1 1.953250 1_565
N8 Ru1 1.953250 1_555
N9 Ru2 1.953250 1_655
N10 Ru1 1.953250 1_565
N11 Ru2 1.953250 1_555
N12 Ru0 1.953250 1_566
N13 Ru0 1.953250 1_655
N14 Ru3 1.953250 1_555
N15 Ru3 1.953250 1_556
N16 Ru3 1.953250 1_555
N17 Ru3 1.953250 1_556
N18 Ru0 1.953250 1_656
N19 Ru0 1.953250 1_565
N20 Ru2 1.953250 1_555
N21 Ru2 1.953250 1_655
N22 Ru1 1.953250 1_565
N23 Ru1 1.953250 1_555
F0 N13 1.551227 1_455
F0 Fe1 2.042297 1_555
F1 N12 1.551227 1_655
F1 Fe1 2.042297 1_656
F2 N7 1.551227 1_555
F2 Fe0 2.042297 1_555
F3 N11 1.551227 1_655
F3 Fe3 2.042297 1_665
F4 N19 1.551227 1_545
F4 Fe3 2.042297 1_555
F5 N4 1.551227 1_555
F5 Fe0 2.042297 1_555
F6 N9 1.551227 1_455
F6 Fe3 2.042297 1_555
F7 N18 1.551227 1_565
F7 Fe3 2.042297 1_665
F8 N15 1.551227 1_555
F8 Fe2 2.042297 1_556
F9 N17 1.551227 1_555
F9 Fe0 2.042297 1_555
F10 N14 1.551227 1_555
F10 Fe2 2.042297 1_565
F11 N16 1.551227 1_555
F11 Fe0 2.042297 1_555
F12 N23 1.551227 1_565
F12 Fe2 2.042297 1_566
F13 N22 1.551227 1_545
F13 Fe2 2.042297 1_555
F14 N21 1.551227 1_555
F14 Fe1 2.042297 1_655
F15 N20 1.551227 1_555
F15 Fe1 2.042297 1_556
F16 N6 1.551227 1_554
F16 Fe2 2.042297 1_555
F17 N3 1.551227 1_556
F17 Fe2 2.042297 1_566
F18 N5 1.551227 1_556
F18 Fe1 2.042297 1_656
F19 N2 1.551227 1_554
F19 Fe1 2.042297 1_555
F20 N10 1.551227 1_555
F20 Fe3 2.042297 1_565
F21 N8 1.551227 1_555
F21 Fe3 2.042297 1_655
F22 N1 1.551227 1_555
F22 Fe0 2.042297 1_555
F23 N0 1.551227 1_555
F23 Fe0 2.042297 1_555
