# generated using pymatgen
data_Sr8Mn3N8
_symmetry_space_group_name_H-M   'P 1'
_cell_length_a   9.78532430
_cell_length_b   5.33334710
_cell_length_c   7.54439214
_cell_angle_alpha   90.00000215
_cell_angle_beta   74.17106705
_cell_angle_gamma   74.18586572
_symmetry_Int_Tables_number   1
_chemical_formula_structural   Sr8Mn3N8
_chemical_formula_sum   'Sr8 Mn3 N8'
_cell_volume   363.28629066
_cell_formula_units_Z   1
loop_
 _symmetry_equiv_pos_site_id
 _symmetry_equiv_pos_as_xyz
  1  'x, y, z'
loop_
 _atom_site_type_symbol
 _atom_site_label
 _atom_site_symmetry_multiplicity
 _atom_site_fract_x
 _atom_site_fract_y
 _atom_site_fract_z
 _atom_site_occupancy
  Sr  Sr0  1  0.05742100  0.97128900  0.73386900  1
  Sr  Sr1  1  0.94257900  0.02871100  0.26613100  1
  Sr  Sr2  1  0.66399900  0.66800000  0.47169000  1
  Sr  Sr3  1  0.33600100  0.33200000  0.52831000  1
  Sr  Sr4  1  0.80041700  0.59979200  0.95307300  1
  Sr  Sr5  1  0.19958300  0.40020800  0.04692700  1
  Sr  Sr6  1  0.39990600  0.80004800  0.19580900  1
  Sr  Sr7  1  0.60009400  0.19995200  0.80419100  1
  Mn  Mn0  1  0.00000000  0.50000000  0.50000000  1
  Mn  Mn1  1  0.37138100  0.81431000  0.79674600  1
  Mn  Mn2  1  0.62861900  0.18569000  0.20325400  1
  N  N0  1  0.21035500  0.89482300  0.98792400  1
  N  N1  1  0.78964500  0.10517700  0.01207600  1
  N  N2  1  0.35505800  0.82247100  0.57349400  1
  N  N3  1  0.64494200  0.17752900  0.42650600  1
  N  N4  1  0.54783900  0.72608100  0.83187800  1
  N  N5  1  0.45216100  0.27391900  0.16812200  1
  N  N6  1  0.95083100  0.52458500  0.29511700  1
  N  N7  1  0.04916900  0.47541500  0.70488300  1
loop_
_geom_bond_atom_site_label_1
_geom_bond_atom_site_label_2
_geom_bond_distance
_geom_bond_site_symmetry_2
Mn0 N6 1.734720 1_455
Mn0 N7 1.734720 1_555
Mn1 N2 1.734142 1_555
Mn1 N4 1.754989 1_555
Mn1 N0 1.771695 1_555
Mn2 N3 1.734142 1_555
Mn2 N5 1.754989 1_555
Mn2 N1 1.771695 1_555
N0 Sr6 2.689162 1_556
N0 Sr5 2.700733 1_566
N0 Sr5 2.700744 1_556
N0 Sr0 2.704014 1_555
N0 Sr1 2.785870 1_466
N1 Sr7 2.689162 1_554
N1 Sr4 2.700733 1_544
N1 Sr4 2.700744 1_554
N1 Sr1 2.704014 1_555
N1 Sr0 2.785870 1_644
N2 Sr3 2.700779 1_555
N2 Sr3 2.700784 1_565
N2 Sr0 2.719206 1_555
N2 Sr6 2.759569 1_555
N2 Sr2 2.789907 1_555
N3 Sr2 2.700779 1_555
N3 Sr2 2.700784 1_545
N3 Sr1 2.719206 1_555
N3 Sr7 2.759569 1_555
N3 Sr3 2.789907 1_555
N4 Sr2 2.625888 1_555
N4 Sr6 2.703729 1_556
N4 Sr7 2.708969 1_565
N4 Sr7 2.708985 1_555
N4 Sr4 2.779169 1_555
N5 Sr3 2.625888 1_555
N5 Sr7 2.703729 1_554
N5 Sr6 2.708969 1_545
N5 Sr6 2.708985 1_555
N5 Sr5 2.779169 1_555
N6 Sr5 2.550403 1_655
N6 Sr2 2.650966 1_555
N6 Sr1 2.678552 1_555
N6 Sr1 2.678552 1_565
N6 Sr4 3.276662 1_554
N7 Sr4 2.550403 1_455
N7 Sr3 2.650966 1_555
N7 Sr0 2.678552 1_555
N7 Sr0 2.678552 1_545
N7 Sr5 3.276662 1_556
