# generated using pymatgen
data_Ba4Ir3N7
_symmetry_space_group_name_H-M   'P 1'
_cell_length_a   15.66102977
_cell_length_b   6.43196800
_cell_length_c   10.79400982
_cell_angle_alpha   90.00000000
_cell_angle_beta   93.96346623
_cell_angle_gamma   90.00000000
_symmetry_Int_Tables_number   1
_chemical_formula_structural   Ba4Ir3N7
_chemical_formula_sum   'Ba16 Ir12 N28'
_cell_volume   1084.69356685
_cell_formula_units_Z   4
loop_
 _symmetry_equiv_pos_site_id
 _symmetry_equiv_pos_as_xyz
  1  'x, y, z'
loop_
 _atom_site_type_symbol
 _atom_site_label
 _atom_site_symmetry_multiplicity
 _atom_site_fract_x
 _atom_site_fract_y
 _atom_site_fract_z
 _atom_site_occupancy
  Ba  Ba0  1  0.42391300  0.23586700  0.55702400  1
  Ba  Ba1  1  0.57608700  0.76413300  0.44297600  1
  Ba  Ba2  1  0.07608700  0.23586700  0.94297600  1
  Ba  Ba3  1  0.92391300  0.76413300  0.05702400  1
  Ba  Ba4  1  0.47407500  0.72232300  0.75949800  1
  Ba  Ba5  1  0.52592500  0.27767700  0.24050200  1
  Ba  Ba6  1  0.02592500  0.72232300  0.74050200  1
  Ba  Ba7  1  0.97407500  0.27767700  0.25949800  1
  Ba  Ba8  1  0.62079600  0.17053500  0.90430300  1
  Ba  Ba9  1  0.37920400  0.82946500  0.09569700  1
  Ba  Ba10  1  0.87920400  0.17053500  0.59569700  1
  Ba  Ba11  1  0.12079600  0.82946500  0.40430300  1
  Ba  Ba12  1  0.25000000  0.32918500  0.25000000  1
  Ba  Ba13  1  0.75000000  0.67081500  0.75000000  1
  Ba  Ba14  1  0.25000000  0.09228100  0.75000000  1
  Ba  Ba15  1  0.75000000  0.90771900  0.25000000  1
  Ir  Ir0  1  0.25915300  0.58964800  0.60999300  1
  Ir  Ir1  1  0.74084700  0.41035200  0.39000700  1
  Ir  Ir2  1  0.24084700  0.58964800  0.89000700  1
  Ir  Ir3  1  0.75915300  0.41035200  0.10999300  1
  Ir  Ir4  1  0.41359100  0.30780000  0.96177100  1
  Ir  Ir5  1  0.58640900  0.69220000  0.03822900  1
  Ir  Ir6  1  0.08640900  0.30780000  0.53822900  1
  Ir  Ir7  1  0.91359100  0.69220000  0.46177100  1
  Ir  Ir8  1  0.64886400  0.22909600  0.60364200  1
  Ir  Ir9  1  0.35113600  0.77090400  0.39635800  1
  Ir  Ir10  1  0.85113600  0.22909600  0.89635800  1
  Ir  Ir11  1  0.14886400  0.77090400  0.10364200  1
  N  N0  1  0.59073900  0.98724600  0.65948300  1
  N  N1  1  0.40926100  0.01275400  0.34051700  1
  N  N2  1  0.90926100  0.98724600  0.84051700  1
  N  N3  1  0.09073900  0.01275400  0.15948300  1
  N  N4  1  0.08279300  0.07143600  0.63105300  1
  N  N5  1  0.91720700  0.92856400  0.36894700  1
  N  N6  1  0.41720700  0.07143600  0.86894700  1
  N  N7  1  0.58279300  0.92856400  0.13105300  1
  N  N8  1  0.75000000  0.24534400  0.75000000  1
  N  N9  1  0.25000000  0.75465600  0.25000000  1
  N  N10  1  0.08320600  0.53709000  0.12926100  1
  N  N11  1  0.91679400  0.46291000  0.87073900  1
  N  N12  1  0.41679400  0.53709000  0.37073900  1
  N  N13  1  0.58320600  0.46291000  0.62926100  1
  N  N14  1  0.32682800  0.49940800  0.75492500  1
  N  N15  1  0.67317200  0.50059200  0.24507500  1
  N  N16  1  0.17317200  0.49940800  0.74507500  1
  N  N17  1  0.82682800  0.50059200  0.25492500  1
  N  N18  1  0.20224400  0.85386100  0.95402500  1
  N  N19  1  0.79775600  0.14613900  0.04597500  1
  N  N20  1  0.29775600  0.85386100  0.54597500  1
  N  N21  1  0.70224400  0.14613900  0.45402500  1
  N  N22  1  0.00000000  0.50000000  0.50000000  1
  N  N23  1  0.50000000  0.50000000  0.00000000  1
  N  N24  1  0.19750700  0.39337400  0.49679800  1
  N  N25  1  0.80249300  0.60662600  0.50320200  1
  N  N26  1  0.30249300  0.39337400  0.00320200  1
  N  N27  1  0.69750700  0.60662600  0.99679800  1
loop_
_geom_bond_atom_site_label_1
_geom_bond_atom_site_label_2
_geom_bond_distance
_geom_bond_site_symmetry_2
Ba0 N1 2.738499 1_555
Ba0 N12 2.788968 1_555
Ba0 N13 2.948751 1_555
Ba0 N20 3.149973 1_545
Ba0 N14 3.193306 1_555
Ba0 N0 3.194822 1_545
Ba0 N6 3.537581 1_555
Ba1 N0 2.738499 1_555
Ba1 N13 2.788968 1_555
Ba1 N12 2.948751 1_555
Ba1 N21 3.149973 1_565
Ba1 N15 3.193306 1_555
Ba1 N1 3.194822 1_565
Ba1 N7 3.537581 1_555
Ba2 N3 2.738499 1_556
Ba2 N10 2.788968 1_556
Ba2 N11 2.948751 1_455
Ba2 N18 3.149973 1_545
Ba2 N16 3.193306 1_555
Ba2 N2 3.194822 1_445
Ba2 N4 3.537581 1_555
Ba3 N2 2.738499 1_554
Ba3 N11 2.788968 1_554
Ba3 N10 2.948751 1_655
Ba3 N19 3.149973 1_565
Ba3 N17 3.193306 1_555
Ba3 N3 3.194822 1_665
Ba3 N5 3.537581 1_555
Ba4 N14 2.712978 1_555
Ba4 N6 2.715976 1_565
Ba4 N0 2.771259 1_555
Ba4 N13 2.830796 1_555
Ba4 N23 2.966999 1_556
Ba5 N15 2.712978 1_555
Ba5 N7 2.715976 1_545
Ba5 N1 2.771259 1_555
Ba5 N12 2.830796 1_555
Ba5 N23 2.966999 1_555
Ba6 N16 2.712978 1_555
Ba6 N4 2.715976 1_565
Ba6 N2 2.771259 1_455
Ba6 N11 2.830796 1_455
Ba6 N22 2.966999 1_555
Ba7 N17 2.712978 1_555
Ba7 N5 2.715976 1_545
Ba7 N3 2.771259 1_655
Ba7 N10 2.830796 1_655
Ba7 N22 2.966999 1_655
Ba8 N8 2.750617 1_555
Ba8 N0 2.902193 1_545
Ba8 N7 2.994709 1_546
Ba8 N23 3.067022 1_556
Ba8 N19 3.075347 1_556
Ba8 N27 3.184630 1_555
Ba8 N6 3.248029 1_555
Ba9 N9 2.750617 1_555
Ba9 N1 2.902193 1_565
Ba9 N6 2.994709 1_564
Ba9 N23 3.067022 1_555
Ba9 N18 3.075347 1_554
Ba9 N26 3.184630 1_555
Ba9 N7 3.248029 1_555
Ba10 N8 2.750617 1_555
Ba10 N2 2.902193 1_545
Ba10 N5 2.994709 1_545
Ba10 N22 3.067022 1_655
Ba10 N21 3.075347 1_555
Ba10 N25 3.184630 1_555
Ba10 N4 3.248029 1_655
Ba11 N9 2.750617 1_555
Ba11 N3 2.902193 1_565
Ba11 N4 2.994709 1_565
Ba11 N22 3.067022 1_555
Ba11 N20 3.075347 1_555
Ba11 N24 3.184630 1_555
Ba11 N5 3.248029 1_455
Ba12 N9 2.736616 1_555
Ba12 N26 2.871519 1_555
Ba12 N24 2.871519 1_555
Ba12 N10 3.136795 1_555
Ba12 N12 3.136795 1_555
Ba12 N1 3.313768 1_555
Ba12 N3 3.313768 1_555
Ba13 N8 2.736616 1_555
Ba13 N25 2.871519 1_555
Ba13 N27 2.871519 1_555
Ba13 N13 3.136795 1_555
Ba13 N11 3.136795 1_555
Ba13 N0 3.313768 1_555
Ba13 N2 3.313768 1_555
Ba14 N18 2.826413 1_545
Ba14 N20 2.826413 1_545
Ba14 N6 2.838816 1_555
Ba14 N4 2.838816 1_555
Ba14 N14 2.880781 1_555
Ba14 N16 2.880781 1_555
Ba15 N21 2.826413 1_565
Ba15 N19 2.826413 1_565
Ba15 N7 2.838816 1_555
Ba15 N5 2.838816 1_555
Ba15 N15 2.880781 1_555
Ba15 N17 2.880781 1_555
Ir0 N14 1.917895 1_555
Ir0 N20 1.946468 1_555
Ir0 N24 1.963566 1_555
Ir0 N16 2.132485 1_555
Ir1 N15 1.917895 1_555
Ir1 N21 1.946468 1_555
Ir1 N25 1.963566 1_555
Ir1 N17 2.132485 1_555
Ir2 N16 1.917895 1_555
Ir2 N18 1.946468 1_555
Ir2 N26 1.963566 1_556
Ir2 N14 2.132485 1_555
Ir3 N17 1.917895 1_555
Ir3 N19 1.946468 1_555
Ir3 N27 1.963566 1_554
Ir3 N15 2.132485 1_555
Ir4 N6 1.823790 1_555
Ir4 N23 1.858124 1_556
Ir4 N26 1.907300 1_556
Ir4 N14 2.816155 1_555
Ir5 N7 1.823790 1_555
Ir5 N23 1.858124 1_555
Ir5 N27 1.907300 1_554
Ir5 N15 2.816155 1_555
Ir6 N4 1.823790 1_555
Ir6 N22 1.858124 1_555
Ir6 N24 1.907300 1_555
Ir6 N16 2.816155 1_555
Ir7 N5 1.823790 1_555
Ir7 N22 1.858124 1_655
Ir7 N25 1.907300 1_555
Ir7 N17 2.816155 1_555
Ir8 N13 1.853318 1_555
Ir8 N0 1.920312 1_545
Ir8 N21 1.943794 1_555
Ir8 N8 2.160895 1_555
Ir9 N12 1.853318 1_555
Ir9 N1 1.920312 1_565
Ir9 N20 1.943794 1_555
Ir9 N9 2.160895 1_555
Ir10 N11 1.853318 1_555
Ir10 N2 1.920312 1_545
Ir10 N19 1.943794 1_556
Ir10 N8 2.160895 1_555
Ir11 N10 1.853318 1_555
Ir11 N3 1.920312 1_565
Ir11 N18 1.943794 1_554
Ir11 N9 2.160895 1_555
