# generated using pymatgen
data_FeH9C4(NO2)3
_symmetry_space_group_name_H-M   'P 1'
_cell_length_a   8.66010600
_cell_length_b   9.02618600
_cell_length_c   12.01350300
_cell_angle_alpha   90.00000000
_cell_angle_beta   90.00000000
_cell_angle_gamma   90.00000000
_symmetry_Int_Tables_number   1
_chemical_formula_structural   FeH9C4(NO2)3
_chemical_formula_sum   'Fe4 H36 C16 N12 O24'
_cell_volume   939.06822925
_cell_formula_units_Z   4
loop_
 _symmetry_equiv_pos_site_id
 _symmetry_equiv_pos_as_xyz
  1  'x, y, z'
loop_
 _atom_site_type_symbol
 _atom_site_label
 _atom_site_symmetry_multiplicity
 _atom_site_fract_x
 _atom_site_fract_y
 _atom_site_fract_z
 _atom_site_occupancy
  Fe  Fe0  1  0.25008800  0.25000000  0.75000000  1
  Fe  Fe1  1  0.24991200  0.25000000  0.25000000  1
  Fe  Fe2  1  0.74991200  0.75000000  0.25000000  1
  Fe  Fe3  1  0.75008800  0.75000000  0.75000000  1
  H  H0  1  0.25000000  0.31847800  0.00000000  1
  H  H1  1  0.25000000  0.18152200  0.50000000  1
  H  H2  1  0.75000000  0.68152200  0.00000000  1
  H  H3  1  0.75000000  0.81847800  0.50000000  1
  H  H4  1  0.90935700  0.07338300  0.78421000  1
  H  H5  1  0.59064300  0.07338300  0.21579000  1
  H  H6  1  0.90935700  0.42661700  0.71579000  1
  H  H7  1  0.59064300  0.42661700  0.28421000  1
  H  H8  1  0.09064300  0.92661700  0.21579000  1
  H  H9  1  0.40935700  0.92661700  0.78421000  1
  H  H10  1  0.09064300  0.57338300  0.28421000  1
  H  H11  1  0.40935700  0.57338300  0.71579000  1
  H  H12  1  0.17253700  0.92709100  0.92083400  1
  H  H13  1  0.32746300  0.92709100  0.07916600  1
  H  H14  1  0.17253700  0.57290900  0.57916600  1
  H  H15  1  0.32746300  0.57290900  0.42083400  1
  H  H16  1  0.82746300  0.07290900  0.07916600  1
  H  H17  1  0.67253700  0.07290900  0.92083400  1
  H  H18  1  0.82746300  0.42709100  0.42083400  1
  H  H19  1  0.67253700  0.42709100  0.57916600  1
  H  H20  1  0.08691500  0.75666200  0.87732200  1
  H  H21  1  0.41308500  0.75666200  0.12267800  1
  H  H22  1  0.08691500  0.74333800  0.62267800  1
  H  H23  1  0.41308500  0.74333800  0.37732200  1
  H  H24  1  0.91308500  0.24333800  0.12267800  1
  H  H25  1  0.58691500  0.24333800  0.87732200  1
  H  H26  1  0.91308500  0.25666200  0.37732200  1
  H  H27  1  0.58691500  0.25666200  0.62267800  1
  H  H28  1  0.30954900  0.53517700  0.06018400  1
  H  H29  1  0.19045100  0.53517700  0.93981600  1
  H  H30  1  0.30954900  0.96482300  0.43981600  1
  H  H31  1  0.19045100  0.96482300  0.56018400  1
  H  H32  1  0.69045100  0.46482300  0.93981600  1
  H  H33  1  0.80954900  0.46482300  0.06018400  1
  H  H34  1  0.69045100  0.03517700  0.56018400  1
  H  H35  1  0.80954900  0.03517700  0.43981600  1
  C  C0  1  0.25000000  0.19642500  0.00000000  1
  C  C1  1  0.25000000  0.30357500  0.50000000  1
  C  C2  1  0.75000000  0.80357500  0.00000000  1
  C  C3  1  0.75000000  0.69642500  0.50000000  1
  C  C4  1  0.98178800  0.01456800  0.72210500  1
  C  C5  1  0.51821200  0.01456800  0.27789500  1
  C  C6  1  0.98178800  0.48543200  0.77789500  1
  C  C7  1  0.51821200  0.48543200  0.22210500  1
  C  C8  1  0.01821200  0.98543200  0.27789500  1
  C  C9  1  0.48178800  0.98543200  0.72210500  1
  C  C10  1  0.01821200  0.51456800  0.22210500  1
  C  C11  1  0.48178800  0.51456800  0.77789500  1
  C  C12  1  0.25000000  0.74014600  0.00000000  1
  C  C13  1  0.25000000  0.75985400  0.50000000  1
  C  C14  1  0.75000000  0.25985400  0.00000000  1
  C  C15  1  0.75000000  0.24014600  0.50000000  1
  N  N0  1  0.16204100  0.81428700  0.92697700  1
  N  N1  1  0.33795900  0.81428700  0.07302300  1
  N  N2  1  0.16204100  0.68571300  0.57302300  1
  N  N3  1  0.33795900  0.68571300  0.42697700  1
  N  N4  1  0.83795900  0.18571300  0.07302300  1
  N  N5  1  0.66204100  0.18571300  0.92697700  1
  N  N6  1  0.83795900  0.31428700  0.42697700  1
  N  N7  1  0.66204100  0.31428700  0.57302300  1
  N  N8  1  0.25000000  0.59216600  0.00000000  1
  N  N9  1  0.25000000  0.90783400  0.50000000  1
  N  N10  1  0.75000000  0.40783400  0.00000000  1
  N  N11  1  0.75000000  0.09216600  0.50000000  1
  O  O0  1  0.24204000  0.13053600  0.90664300  1
  O  O1  1  0.25796000  0.13053600  0.09335700  1
  O  O2  1  0.24204000  0.36946400  0.59335700  1
  O  O3  1  0.25796000  0.36946400  0.40664300  1
  O  O4  1  0.75796000  0.86946400  0.09335700  1
  O  O5  1  0.74204000  0.86946400  0.90664300  1
  O  O6  1  0.75796000  0.63053600  0.40664300  1
  O  O7  1  0.74204000  0.63053600  0.59335700  1
  O  O8  1  0.10042100  0.08037400  0.68426700  1
  O  O9  1  0.39957900  0.08037400  0.31573300  1
  O  O10  1  0.10042100  0.41962600  0.81573300  1
  O  O11  1  0.39957900  0.41962600  0.18426700  1
  O  O12  1  0.89957900  0.91962600  0.31573300  1
  O  O13  1  0.60042100  0.91962600  0.68426700  1
  O  O14  1  0.89957900  0.58037400  0.18426700  1
  O  O15  1  0.60042100  0.58037400  0.81573300  1
  O  O16  1  0.94138400  0.88500000  0.69329900  1
  O  O17  1  0.55861600  0.88500000  0.30670100  1
  O  O18  1  0.94138400  0.61500000  0.80670100  1
  O  O19  1  0.55861600  0.61500000  0.19329900  1
  O  O20  1  0.05861600  0.11500000  0.30670100  1
  O  O21  1  0.44138400  0.11500000  0.69329900  1
  O  O22  1  0.05861600  0.38500000  0.19329900  1
  O  O23  1  0.44138400  0.38500000  0.80670100  1
loop_
_geom_bond_atom_site_label_1
_geom_bond_atom_site_label_2
_geom_bond_distance
_geom_bond_site_symmetry_2
Fe0 O10 2.155865 1_555
Fe0 O8 2.155865 1_555
Fe0 O21 2.166402 1_555
Fe0 O23 2.166402 1_555
Fe0 O2 2.169997 1_555
Fe0 O0 2.169997 1_555
Fe1 O9 2.155865 1_555
Fe1 O11 2.155865 1_555
Fe1 O22 2.166402 1_555
Fe1 O20 2.166402 1_555
Fe1 O1 2.169997 1_555
Fe1 O3 2.169997 1_555
Fe2 O14 2.155865 1_555
Fe2 O12 2.155865 1_555
Fe2 O19 2.166402 1_555
Fe2 O17 2.166402 1_555
Fe2 O6 2.169997 1_555
Fe2 O4 2.169997 1_555
Fe3 O13 2.155865 1_555
Fe3 O15 2.155865 1_555
Fe3 O16 2.166402 1_555
Fe3 O18 2.166402 1_555
Fe3 O7 2.169997 1_555
Fe3 O5 2.169997 1_555
H12 N0 1.024900 1_555
H13 N1 1.024900 1_555
H14 N2 1.024900 1_555
H15 N3 1.024900 1_555
H16 N4 1.024900 1_555
H17 N5 1.024900 1_555
H18 N6 1.024900 1_555
H19 N7 1.024900 1_555
H20 N0 1.024533 1_555
H21 N1 1.024533 1_555
H22 N2 1.024533 1_555
H23 N3 1.024533 1_555
H24 N4 1.024533 1_555
H25 N5 1.024533 1_555
H26 N6 1.024533 1_555
H27 N7 1.024533 1_555
H28 N8 1.026307 1_555
H29 N8 1.026307 1_556
H30 N9 1.026307 1_555
H31 N9 1.026307 1_555
H32 N10 1.026307 1_556
H33 N10 1.026307 1_555
H34 N11 1.026307 1_555
H35 N11 1.026307 1_555
C0 H0 1.101673 1_555
C0 O1 1.271343 1_555
C0 O0 1.271343 1_554
C1 H1 1.101673 1_555
C1 O3 1.271343 1_555
C1 O2 1.271343 1_555
C2 H2 1.101673 1_555
C2 O4 1.271343 1_555
C2 O5 1.271343 1_554
C3 H3 1.101673 1_555
C3 O7 1.271343 1_555
C3 O6 1.271343 1_555
C4 H4 1.109931 1_555
C4 O16 1.268831 1_545
C4 O8 1.270802 1_655
C5 H5 1.109931 1_555
C5 O17 1.268831 1_545
C5 O9 1.270802 1_555
C6 H6 1.109931 1_555
C6 O18 1.268831 1_555
C6 O10 1.270802 1_655
C7 H7 1.109931 1_555
C7 O19 1.268831 1_555
C7 O11 1.270802 1_555
C8 H8 1.109931 1_555
C8 O20 1.268831 1_565
C8 O12 1.270802 1_455
C9 H9 1.109931 1_555
C9 O21 1.268831 1_565
C9 O13 1.270802 1_555
C10 H10 1.109931 1_555
C10 O22 1.268831 1_555
C10 O14 1.270802 1_455
C11 H11 1.109931 1_555
C11 O23 1.268831 1_555
C11 O15 1.270802 1_555
C12 N8 1.335695 1_555
C12 N0 1.340772 1_554
C12 N1 1.340772 1_555
C13 N9 1.335695 1_555
C13 N2 1.340772 1_555
C13 N3 1.340772 1_555
C14 N10 1.335695 1_555
C14 N5 1.340772 1_554
C14 N4 1.340772 1_555
C15 N11 1.335695 1_555
C15 N7 1.340772 1_555
C15 N6 1.340772 1_555
