# generated using pymatgen
data_MgSiO3
_symmetry_space_group_name_H-M   'P 1'
_cell_length_a   3.52721800
_cell_length_b   3.52721800
_cell_length_c   3.52721800
_cell_angle_alpha   90.00000000
_cell_angle_beta   90.00000000
_cell_angle_gamma   90.00000000
_symmetry_Int_Tables_number   1
_chemical_formula_structural   MgSiO3
_chemical_formula_sum   'Mg1 Si1 O3'
_cell_volume   43.88306027
_cell_formula_units_Z   1
loop_
 _symmetry_equiv_pos_site_id
 _symmetry_equiv_pos_as_xyz
  1  'x, y, z'
loop_
 _atom_site_type_symbol
 _atom_site_label
 _atom_site_symmetry_multiplicity
 _atom_site_fract_x
 _atom_site_fract_y
 _atom_site_fract_z
 _atom_site_occupancy
  Mg  Mg0  1  0.00000000  0.00000000  0.00000000  1
  Si  Si0  1  0.50000000  0.50000000  0.50000000  1
  O  O0  1  0.50000000  0.50000000  0.00000000  1
  O  O1  1  0.50000000  0.00000000  0.50000000  1
  O  O2  1  0.00000000  0.50000000  0.50000000  1
loop_
_geom_bond_atom_site_label_1
_geom_bond_atom_site_label_2
_geom_bond_distance
_geom_bond_site_symmetry_2
Mg0 O1 2.494120 1_455
Mg0 O2 2.494120 1_545
Mg0 O1 2.494120 1_555
Mg0 O1 2.494120 1_454
Mg0 O0 2.494120 1_555
Mg0 O1 2.494120 1_554
Mg0 O0 2.494120 1_545
Mg0 O2 2.494120 1_554
Mg0 O2 2.494120 1_555
Mg0 O0 2.494120 1_445
Mg0 O0 2.494120 1_455
Mg0 O2 2.494120 1_544
O0 Si0 1.763609 1_555
O0 Si0 1.763609 1_554
O1 Si0 1.763609 1_545
O1 Si0 1.763609 1_555
O2 Si0 1.763609 1_455
O2 Si0 1.763609 1_555
