# generated using pymatgen
data_Re2Te4Cl22O
_symmetry_space_group_name_H-M   'P 1'
_cell_length_a   9.50866200
_cell_length_b   11.74053200
_cell_length_c   18.60954455
_cell_angle_alpha   63.99721292
_cell_angle_beta   90.00000000
_cell_angle_gamma   90.00000000
_symmetry_Int_Tables_number   1
_chemical_formula_structural   Re2Te4Cl22O
_chemical_formula_sum   'Re4 Te8 Cl44 O2'
_cell_volume   1867.20849111
_cell_formula_units_Z   2
loop_
 _symmetry_equiv_pos_site_id
 _symmetry_equiv_pos_as_xyz
  1  'x, y, z'
loop_
 _atom_site_type_symbol
 _atom_site_label
 _atom_site_symmetry_multiplicity
 _atom_site_fract_x
 _atom_site_fract_y
 _atom_site_fract_z
 _atom_site_occupancy
  Re  Re0  1  0.14361600  0.00899000  0.56520900  1
  Re  Re1  1  0.64361600  0.99101000  0.93479100  1
  Re  Re2  1  0.85638400  0.99101000  0.43479100  1
  Re  Re3  1  0.35638400  0.00899000  0.06520900  1
  Te  Te0  1  0.17076800  0.24300100  0.31522900  1
  Te  Te1  1  0.67076800  0.75699900  0.18477100  1
  Te  Te2  1  0.82923200  0.75699900  0.68477100  1
  Te  Te3  1  0.32923200  0.24300100  0.81522900  1
  Te  Te4  1  0.80568300  0.26372200  0.51972200  1
  Te  Te5  1  0.30568300  0.73627800  0.98027800  1
  Te  Te6  1  0.19431700  0.73627800  0.48027800  1
  Te  Te7  1  0.69431700  0.26372200  0.01972200  1
  Cl  Cl0  1  0.30678700  0.04228100  0.46074500  1
  Cl  Cl1  1  0.80678700  0.95771900  0.03925500  1
  Cl  Cl2  1  0.69321300  0.95771900  0.53925500  1
  Cl  Cl3  1  0.19321300  0.04228100  0.96074500  1
  Cl  Cl4  1  0.17722100  0.78161700  0.62006000  1
  Cl  Cl5  1  0.67722100  0.21838300  0.87994000  1
  Cl  Cl6  1  0.82277900  0.21838300  0.37994000  1
  Cl  Cl7  1  0.32277900  0.78161700  0.12006000  1
  Cl  Cl8  1  0.10949700  0.23400200  0.51466700  1
  Cl  Cl9  1  0.60949700  0.76599800  0.98533300  1
  Cl  Cl10  1  0.89050300  0.76599800  0.48533300  1
  Cl  Cl11  1  0.39050300  0.23400200  0.01466700  1
  Cl  Cl12  1  0.32337600  0.01621100  0.64642100  1
  Cl  Cl13  1  0.82337600  0.98378900  0.85357900  1
  Cl  Cl14  1  0.67662400  0.98378900  0.35357900  1
  Cl  Cl15  1  0.17662400  0.01621100  0.14642100  1
  Cl  Cl16  1  0.97592900  0.98018900  0.66849700  1
  Cl  Cl17  1  0.47592900  0.01981100  0.83150300  1
  Cl  Cl18  1  0.02407100  0.01981100  0.33150300  1
  Cl  Cl19  1  0.52407100  0.98018900  0.16849700  1
  Cl  Cl20  1  0.05171700  0.35830900  0.19315300  1
  Cl  Cl21  1  0.55171700  0.64169100  0.30684700  1
  Cl  Cl22  1  0.94828300  0.64169100  0.80684700  1
  Cl  Cl23  1  0.44828300  0.35830900  0.69315300  1
  Cl  Cl24  1  0.35382800  0.18567900  0.25506600  1
  Cl  Cl25  1  0.85382800  0.81432100  0.24493400  1
  Cl  Cl26  1  0.64617200  0.81432100  0.74493400  1
  Cl  Cl27  1  0.14617200  0.18567900  0.75506600  1
  Cl  Cl28  1  0.28526200  0.42634200  0.30963500  1
  Cl  Cl29  1  0.78526200  0.57365800  0.19036500  1
  Cl  Cl30  1  0.71473800  0.57365800  0.69036500  1
  Cl  Cl31  1  0.21473800  0.42634200  0.80963500  1
  Cl  Cl32  1  0.86033900  0.47222300  0.43226100  1
  Cl  Cl33  1  0.36033900  0.52777700  0.06773900  1
  Cl  Cl34  1  0.13966100  0.52777700  0.56773900  1
  Cl  Cl35  1  0.63966100  0.47222300  0.93226100  1
  Cl  Cl36  1  0.81238600  0.30104300  0.63566900  1
  Cl  Cl37  1  0.31238600  0.69895700  0.86433100  1
  Cl  Cl38  1  0.18761400  0.69895700  0.36433100  1
  Cl  Cl39  1  0.68761400  0.30104300  0.13566900  1
  Cl  Cl40  1  0.55965800  0.29868400  0.50403100  1
  Cl  Cl41  1  0.05965800  0.70131600  0.99596900  1
  Cl  Cl42  1  0.44034200  0.70131600  0.49596900  1
  Cl  Cl43  1  0.94034200  0.29868400  0.00403100  1
  O  O0  1  0.00000000  0.00000000  0.50000000  1
  O  O1  1  0.50000000  0.00000000  0.00000000  1
loop_
_geom_bond_atom_site_label_1
_geom_bond_atom_site_label_2
_geom_bond_distance
_geom_bond_site_symmetry_2
Cl0 Re0 2.381814 1_555
Cl0 Te0 2.993965 1_555
Cl1 Re1 2.381814 1_554
Cl1 Te1 2.993965 1_555
Cl2 Re2 2.381814 1_555
Cl2 Te2 2.993965 1_555
Cl3 Re3 2.381814 1_556
Cl3 Te3 2.993965 1_555
Cl4 Re0 2.425059 1_565
Cl4 Te6 2.879331 1_555
Cl5 Re1 2.425059 1_545
Cl5 Te7 2.879331 1_556
Cl6 Re2 2.425059 1_545
Cl6 Te4 2.879331 1_555
Cl7 Re3 2.425059 1_565
Cl7 Te5 2.879331 1_554
Cl8 Re0 2.406266 1_555
Cl8 Te4 2.916320 1_455
Cl9 Re1 2.406266 1_555
Cl9 Te5 2.916320 1_555
Cl10 Re2 2.406266 1_555
Cl10 Te6 2.916320 1_655
Cl11 Re3 2.406266 1_555
Cl11 Te7 2.916320 1_555
Cl12 Re0 2.307649 1_555
Cl13 Re1 2.307649 1_555
Cl14 Re2 2.307649 1_555
Cl15 Re3 2.307649 1_555
Cl16 Re0 2.404462 1_665
Cl16 Te2 2.864950 1_555
Cl17 Re1 2.404462 1_545
Cl17 Te3 2.864950 1_555
Cl18 Re2 2.404462 1_445
Cl18 Te0 2.864950 1_555
Cl19 Re3 2.404462 1_565
Cl19 Te1 2.864950 1_555
Cl20 Te0 2.361880 1_555
Cl21 Te1 2.361880 1_555
Cl22 Te2 2.361880 1_555
Cl23 Te3 2.361880 1_555
Cl24 Te0 2.323143 1_555
Cl25 Te1 2.323143 1_555
Cl26 Te2 2.323143 1_555
Cl27 Te3 2.323143 1_555
Cl28 Te0 2.373381 1_555
Cl29 Te1 2.373381 1_555
Cl30 Te2 2.373381 1_555
Cl31 Te3 2.373381 1_555
Cl32 Te4 2.327655 1_555
Cl33 Te5 2.327655 1_554
Cl34 Te6 2.327655 1_555
Cl35 Te7 2.327655 1_556
Cl36 Te4 2.383444 1_555
Cl37 Te5 2.383444 1_555
Cl38 Te6 2.383444 1_555
Cl39 Te7 2.383444 1_555
Cl40 Te4 2.370929 1_555
Cl41 Te5 2.370929 1_555
Cl42 Te6 2.370929 1_555
Cl43 Te7 2.370929 1_555
O0 Re0 1.860351 1_555
O0 Re2 1.860351 1_445
O1 Re1 1.860351 1_544
O1 Re3 1.860351 1_555
