# generated using pymatgen
data_Sr2PrTlCu2O7
_symmetry_space_group_name_H-M   'P 1'
_cell_length_a   3.86703800
_cell_length_b   3.86703800
_cell_length_c   12.33872600
_cell_angle_alpha   90.00000000
_cell_angle_beta   90.00000000
_cell_angle_gamma   90.00000000
_symmetry_Int_Tables_number   1
_chemical_formula_structural   Sr2PrTlCu2O7
_chemical_formula_sum   'Sr2 Pr1 Tl1 Cu2 O7'
_cell_volume   184.51309753
_cell_formula_units_Z   1
loop_
 _symmetry_equiv_pos_site_id
 _symmetry_equiv_pos_as_xyz
  1  'x, y, z'
loop_
 _atom_site_type_symbol
 _atom_site_label
 _atom_site_symmetry_multiplicity
 _atom_site_fract_x
 _atom_site_fract_y
 _atom_site_fract_z
 _atom_site_occupancy
  Sr  Sr0  1  0.50000000  0.50000000  0.20308900  1
  Sr  Sr1  1  0.50000000  0.50000000  0.79691100  1
  Pr  Pr0  1  0.50000000  0.50000000  0.50000000  1
  Tl  Tl0  1  0.00000000  0.00000000  0.00000000  1
  Cu  Cu0  1  0.00000000  0.00000000  0.35489900  1
  Cu  Cu1  1  0.00000000  0.00000000  0.64510100  1
  O  O0  1  0.00000000  0.00000000  0.17150200  1
  O  O1  1  0.00000000  0.00000000  0.82849800  1
  O  O2  1  0.00000000  0.50000000  0.37199300  1
  O  O3  1  0.00000000  0.50000000  0.62800700  1
  O  O4  1  0.50000000  0.00000000  0.37199300  1
  O  O5  1  0.50000000  0.00000000  0.62800700  1
  O  O6  1  0.50000000  0.50000000  0.00000000  1
loop_
_geom_bond_atom_site_label_1
_geom_bond_atom_site_label_2
_geom_bond_distance
_geom_bond_site_symmetry_2
Cu0 O4 1.944989 1_555
Cu0 O2 1.944989 1_555
Cu0 O4 1.944989 1_455
Cu0 O2 1.944989 1_545
Cu0 O0 2.262885 1_555
Cu1 O5 1.944989 1_555
Cu1 O3 1.944989 1_555
Cu1 O5 1.944989 1_455
Cu1 O3 1.944989 1_545
Cu1 O1 2.262885 1_555
O0 Tl0 2.116116 1_555
O0 Sr0 2.762045 1_545
O0 Sr0 2.762045 1_455
O0 Sr0 2.762045 1_555
O0 Sr0 2.762045 1_445
O1 Tl0 2.116116 1_556
O1 Sr1 2.762045 1_545
O1 Sr1 2.762045 1_455
O1 Sr1 2.762045 1_555
O1 Sr1 2.762045 1_445
O2 Pr0 2.496625 1_555
O2 Pr0 2.496625 1_455
O2 Sr0 2.842851 1_455
O2 Sr0 2.842851 1_555
O3 Pr0 2.496625 1_555
O3 Pr0 2.496625 1_455
O3 Sr1 2.842851 1_455
O3 Sr1 2.842851 1_555
O4 Pr0 2.496625 1_555
O4 Pr0 2.496625 1_545
O4 Sr0 2.842851 1_555
O4 Sr0 2.842851 1_545
O5 Pr0 2.496625 1_555
O5 Pr0 2.496625 1_545
O5 Sr1 2.842851 1_555
O5 Sr1 2.842851 1_545
O6 Sr1 2.505860 1_554
O6 Sr0 2.505860 1_555
O6 Tl0 2.734409 1_565
O6 Tl0 2.734409 1_655
O6 Tl0 2.734409 1_665
O6 Tl0 2.734409 1_555
