# generated using pymatgen
data_Gd2Se3
_symmetry_space_group_name_H-M   'P 1'
_cell_length_a   4.07105522
_cell_length_b   11.06228277
_cell_length_c   11.22471960
_cell_angle_alpha   90.00000000
_cell_angle_beta   90.00000000
_cell_angle_gamma   90.00000000
_symmetry_Int_Tables_number   1
_chemical_formula_structural   Gd2Se3
_chemical_formula_sum   'Gd8 Se12'
_cell_volume   505.50708822
_cell_formula_units_Z   4
loop_
 _symmetry_equiv_pos_site_id
 _symmetry_equiv_pos_as_xyz
  1  'x, y, z'
loop_
 _atom_site_type_symbol
 _atom_site_label
 _atom_site_symmetry_multiplicity
 _atom_site_fract_x
 _atom_site_fract_y
 _atom_site_fract_z
 _atom_site_occupancy
  Gd  Gd0  1  0.25000000  0.18724445  0.48908529  1
  Gd  Gd1  1  0.25000000  0.31275555  0.98908529  1
  Gd  Gd2  1  0.75000000  0.81275555  0.51091471  1
  Gd  Gd3  1  0.75000000  0.68724445  0.01091471  1
  Gd  Gd4  1  0.75000000  0.49640386  0.69273546  1
  Gd  Gd5  1  0.75000000  0.00359614  0.19273546  1
  Gd  Gd6  1  0.25000000  0.50359614  0.30726454  1
  Gd  Gd7  1  0.25000000  0.99640386  0.80726454  1
  Se  Se0  1  0.25000000  0.62636658  0.54566757  1
  Se  Se1  1  0.25000000  0.87363342  0.04566757  1
  Se  Se2  1  0.75000000  0.37363342  0.45433243  1
  Se  Se3  1  0.75000000  0.12636658  0.95433243  1
  Se  Se4  1  0.75000000  0.05580546  0.61935666  1
  Se  Se5  1  0.75000000  0.44419454  0.11935666  1
  Se  Se6  1  0.25000000  0.94419454  0.38064334  1
  Se  Se7  1  0.25000000  0.55580546  0.88064334  1
  Se  Se8  1  0.25000000  0.30323160  0.72724253  1
  Se  Se9  1  0.25000000  0.19676840  0.22724253  1
  Se  Se10  1  0.75000000  0.69676840  0.27275747  1
  Se  Se11  1  0.75000000  0.80323160  0.77275747  1
loop_
_geom_bond_atom_site_label_1
_geom_bond_atom_site_label_2
_geom_bond_distance
_geom_bond_site_symmetry_2
Gd0 Se4 2.897540 1_455
Gd0 Se4 2.897540 1_555
Gd0 Se2 2.923512 1_455
Gd0 Se2 2.923512 1_555
Gd0 Se9 2.940999 1_555
Gd0 Se6 2.951387 1_545
Gd0 Se8 2.965225 1_555
Gd1 Se5 2.897540 1_556
Gd1 Se5 2.897540 1_456
Gd1 Se3 2.923512 1_555
Gd1 Se3 2.923512 1_455
Gd1 Se8 2.940999 1_555
Gd1 Se7 2.951387 1_555
Gd1 Se9 2.965225 1_556
Gd2 Se6 2.897540 1_655
Gd2 Se6 2.897540 1_555
Gd2 Se0 2.923512 1_555
Gd2 Se0 2.923512 1_655
Gd2 Se11 2.940999 1_555
Gd2 Se4 2.951387 1_565
Gd2 Se10 2.965225 1_555
Gd3 Se7 2.897540 1_654
Gd3 Se7 2.897540 1_554
Gd3 Se1 2.923512 1_655
Gd3 Se1 2.923512 1_555
Gd3 Se10 2.940999 1_555
Gd3 Se5 2.951387 1_555
Gd3 Se11 2.965225 1_554
Gd4 Se8 2.976550 1_655
Gd4 Se8 2.976550 1_555
Gd4 Se0 2.989220 1_655
Gd4 Se0 2.989220 1_555
Gd4 Se2 3.000918 1_555
Gd4 Se7 3.003990 1_555
Gd4 Se7 3.003990 1_655
Gd4 Se11 3.511055 1_555
Gd5 Se9 2.976550 1_655
Gd5 Se9 2.976550 1_555
Gd5 Se1 2.989220 1_545
Gd5 Se1 2.989220 1_645
Gd5 Se3 3.000918 1_554
Gd5 Se6 3.003990 1_645
Gd5 Se6 3.003990 1_545
Gd5 Se10 3.511055 1_545
Gd6 Se10 2.976550 1_555
Gd6 Se10 2.976550 1_455
Gd6 Se2 2.989220 1_455
Gd6 Se2 2.989220 1_555
Gd6 Se0 3.000918 1_555
Gd6 Se5 3.003990 1_455
Gd6 Se5 3.003990 1_555
Gd6 Se9 3.511055 1_555
Gd7 Se11 2.976550 1_555
Gd7 Se11 2.976550 1_455
Gd7 Se3 2.989220 1_465
Gd7 Se3 2.989220 1_565
Gd7 Se1 3.000918 1_556
Gd7 Se4 3.003990 1_465
Gd7 Se4 3.003990 1_565
Gd7 Se8 3.511055 1_565
