# generated using pymatgen
data_TiZnN2
_symmetry_space_group_name_H-M   'P 1'
_cell_length_a   5.66132140
_cell_length_b   6.53018836
_cell_length_c   5.20594811
_cell_angle_alpha   90.00000000
_cell_angle_beta   90.00000000
_cell_angle_gamma   90.00000000
_symmetry_Int_Tables_number   1
_chemical_formula_structural   TiZnN2
_chemical_formula_sum   'Ti4 Zn4 N8'
_cell_volume   192.46127319
_cell_formula_units_Z   4
loop_
 _symmetry_equiv_pos_site_id
 _symmetry_equiv_pos_as_xyz
  1  'x, y, z'
loop_
 _atom_site_type_symbol
 _atom_site_label
 _atom_site_symmetry_multiplicity
 _atom_site_fract_x
 _atom_site_fract_y
 _atom_site_fract_z
 _atom_site_occupancy
  Ti  Ti0  1  0.08291970  0.62579678  0.99610079  1
  Ti  Ti1  1  0.91708030  0.37420322  0.49610079  1
  Ti  Ti2  1  0.58291970  0.87420322  0.99610079  1
  Ti  Ti3  1  0.41708030  0.12579678  0.49610079  1
  Zn  Zn0  1  0.08644394  0.12429049  0.99770952  1
  Zn  Zn1  1  0.91355606  0.87570951  0.49770952  1
  Zn  Zn2  1  0.58644394  0.37570951  0.99770952  1
  Zn  Zn3  1  0.41355606  0.62429049  0.49770952  1
  N  N0  1  0.09014108  0.13440055  0.39067117  1
  N  N1  1  0.90985892  0.86559945  0.89067117  1
  N  N2  1  0.59014108  0.36559945  0.39067117  1
  N  N3  1  0.40985892  0.63440055  0.89067117  1
  N  N4  1  0.07150564  0.61483112  0.36651851  1
  N  N5  1  0.92849436  0.38516888  0.86651851  1
  N  N6  1  0.57150564  0.88516888  0.36651851  1
  N  N7  1  0.42849436  0.11483112  0.86651851  1
loop_
_geom_bond_atom_site_label_1
_geom_bond_atom_site_label_2
_geom_bond_distance
_geom_bond_site_symmetry_2
N0 Ti1 1.927014 1_455
N0 Ti3 1.931390 1_555
N0 Zn1 2.040505 1_445
N0 Zn0 2.046910 1_554
N1 Ti0 1.927014 1_655
N1 Ti2 1.931390 1_555
N1 Zn0 2.040505 1_665
N1 Zn1 2.046910 1_555
N2 Ti3 1.927014 1_555
N2 Ti1 1.931390 1_555
N2 Zn3 2.040505 1_555
N2 Zn2 2.046910 1_554
N3 Ti2 1.927014 1_555
N3 Ti0 1.931390 1_555
N3 Zn2 2.040505 1_555
N3 Zn3 2.046910 1_555
N4 Ti1 1.920553 1_455
N4 Ti0 1.930786 1_554
N4 Zn1 2.041630 1_455
N4 Zn3 2.054297 1_555
N5 Ti0 1.920553 1_655
N5 Ti1 1.930786 1_555
N5 Zn0 2.041630 1_655
N5 Zn2 2.054297 1_555
N6 Ti3 1.920553 1_565
N6 Ti2 1.930786 1_554
N6 Zn3 2.041630 1_555
N6 Zn1 2.054297 1_555
N7 Ti2 1.920553 1_545
N7 Ti3 1.930786 1_555
N7 Zn2 2.041630 1_555
N7 Zn0 2.054297 1_555
