# generated using pymatgen
data_Li5Co3(NiO5)2
_symmetry_space_group_name_H-M   'P 1'
_cell_length_a   5.11433708
_cell_length_b   10.15974698
_cell_length_c   7.71389237
_cell_angle_alpha   108.17344087
_cell_angle_beta   104.71901354
_cell_angle_gamma   98.23962961
_symmetry_Int_Tables_number   1
_chemical_formula_structural   Li5Co3(NiO5)2
_chemical_formula_sum   'Li10 Co6 Ni4 O20'
_cell_volume   357.35972318
_cell_formula_units_Z   2
loop_
 _symmetry_equiv_pos_site_id
 _symmetry_equiv_pos_as_xyz
  1  'x, y, z'
loop_
 _atom_site_type_symbol
 _atom_site_label
 _atom_site_symmetry_multiplicity
 _atom_site_fract_x
 _atom_site_fract_y
 _atom_site_fract_z
 _atom_site_occupancy
  Li  Li0  1  0.50029600  0.24991800  0.50025200  1
  Li  Li1  1  0.50004500  0.75018500  0.49804000  1
  Li  Li2  1  0.19809800  0.45404900  0.41322000  1
  Li  Li3  1  0.19128500  0.95305800  0.41363400  1
  Li  Li4  1  0.79879500  0.04780700  0.58817100  1
  Li  Li5  1  0.80638500  0.54561600  0.58495500  1
  Li  Li6  1  0.38784100  0.14888400  0.78587400  1
  Li  Li7  1  0.38682500  0.65053400  0.79334200  1
  Li  Li8  1  0.61150200  0.35045200  0.21455400  1
  Li  Li9  1  0.61312600  0.85159800  0.20651300  1
  Co  Co0  1  0.00298000  0.75088100  0.99991400  1
  Co  Co1  1  0.68932200  0.45062500  0.88889000  1
  Co  Co2  1  0.31280500  0.04881000  0.11200900  1
  Co  Co3  1  0.99993300  0.24987000  0.00091500  1
  Co  Co4  1  0.68439100  0.95102700  0.88706300  1
  Co  Co5  1  0.31311700  0.54845300  0.11416700  1
  Ni  Ni0  1  0.09800000  0.34529300  0.69467500  1
  Ni  Ni1  1  0.90234500  0.15470300  0.30600600  1
  Ni  Ni2  1  0.10273900  0.84905200  0.69349600  1
  Ni  Ni3  1  0.89599800  0.65130600  0.30527300  1
  O  O0  1  0.05684700  0.05918100  0.87091500  1
  O  O1  1  0.04404800  0.55878400  0.86868200  1
  O  O2  1  0.94371300  0.44584000  0.13298800  1
  O  O3  1  0.96092800  0.94213800  0.13084700  1
  O  O4  1  0.33885600  0.35403800  0.93830300  1
  O  O5  1  0.35687200  0.85768300  0.95017000  1
  O  O6  1  0.66088400  0.14662600  0.06223400  1
  O  O7  1  0.65261700  0.64279500  0.06018200  1
  O  O8  1  0.13692800  0.15085400  0.53449600  1
  O  O9  1  0.13697200  0.65485900  0.53578700  1
  O  O10  1  0.86292400  0.34835300  0.46648600  1
  O  O11  1  0.84993000  0.83613300  0.44339300  1
  O  O12  1  0.21117500  0.23750200  0.23508400  1
  O  O13  1  0.21661900  0.74202000  0.22010700  1
  O  O14  1  0.78857000  0.26309000  0.76631600  1
  O  O15  1  0.78047200  0.75640200  0.78056600  1
  O  O16  1  0.43175700  0.44582300  0.66756300  1
  O  O17  1  0.46784200  0.95300000  0.66227100  1
  O  O18  1  0.57069500  0.05736100  0.33621000  1
  O  O19  1  0.53552200  0.54539800  0.33643400  1
loop_
_geom_bond_atom_site_label_1
_geom_bond_atom_site_label_2
_geom_bond_distance
_geom_bond_site_symmetry_2
Li0 O10 2.093772 1_555
Li0 O8 2.101319 1_555
Li0 O18 2.108861 1_555
Li0 O16 2.139517 1_555
Li0 O12 2.152895 1_555
Li0 O14 2.153682 1_555
Li1 O11 2.075406 1_555
Li1 O9 2.099035 1_555
Li1 O17 2.110181 1_555
Li1 O19 2.126270 1_555
Li1 O13 2.231573 1_555
Li1 O15 2.260626 1_555
Li2 O16 2.055206 1_555
Li2 O9 2.069719 1_555
Li2 O10 2.089489 1_455
Li2 O19 2.143243 1_555
Li2 O2 2.190834 1_455
Li2 O12 2.221717 1_555
Li3 O8 2.026809 1_565
Li3 O11 2.071480 1_455
Li3 O17 2.074015 1_555
Li3 O3 2.159716 1_455
Li3 O13 2.241384 1_555
Li3 O18 2.374707 1_565
Li4 O18 2.036141 1_555
Li4 O8 2.091262 1_655
Li4 O17 2.118302 1_545
Li4 O11 2.179900 1_545
Li4 O0 2.201928 1_655
Li4 O14 2.206689 1_555
Li5 O10 2.023178 1_555
Li5 O19 2.059398 1_555
Li5 O9 2.069988 1_655
Li5 O1 2.168954 1_655
Li5 O15 2.246736 1_555
Li5 O16 2.360422 1_555
Li6 O8 2.043123 1_555
Li6 O17 2.070048 1_545
Li6 O4 2.135478 1_555
Li6 O0 2.149783 1_555
Li6 O6 2.241006 1_556
Li6 O14 2.270261 1_555
Li7 O16 2.076374 1_555
Li7 O9 2.088646 1_555
Li7 O5 2.124767 1_555
Li7 O1 2.160373 1_555
Li7 O15 2.183125 1_555
Li7 O7 2.191041 1_556
Li8 O10 2.048040 1_555
Li8 O19 2.049974 1_555
Li8 O6 2.124988 1_555
Li8 O2 2.161816 1_555
Li8 O4 2.244940 1_554
Li8 O12 2.266829 1_555
Li9 O11 1.984798 1_555
Li9 O18 2.086608 1_565
Li9 O5 2.100979 1_554
Li9 O7 2.135453 1_555
Li9 O3 2.178162 1_555
Li9 O13 2.212792 1_555
Co0 O15 1.805587 1_455
Co0 O13 1.807619 1_556
Co0 O3 1.961639 1_456
Co0 O1 1.967481 1_555
Co0 O5 2.156431 1_555
Co0 O7 2.193309 1_456
Co1 O16 1.854516 1_555
Co1 O2 2.017649 1_556
Co1 O14 2.044304 1_555
Co1 O1 2.049937 1_655
Co1 O7 2.053017 1_556
Co1 O4 2.096972 1_555
Co2 O18 1.858085 1_555
Co2 O3 2.026420 1_445
Co2 O0 2.026850 1_554
Co2 O5 2.033755 1_544
Co2 O12 2.060988 1_555
Co2 O6 2.093418 1_555
Co3 O12 1.906491 1_655
Co3 O14 1.913279 1_554
Co3 O0 1.985384 1_654
Co3 O2 2.032819 1_555
Co3 O6 2.129728 1_555
Co3 O4 2.139238 1_654
Co4 O17 1.812721 1_555
Co4 O5 2.046737 1_555
Co4 O6 2.065293 1_566
Co4 O15 2.072816 1_555
Co4 O3 2.082262 1_556
Co4 O0 2.111266 1_665
Co5 O19 1.812932 1_555
Co5 O7 2.060660 1_555
Co5 O4 2.062261 1_554
Co5 O13 2.063859 1_555
Co5 O1 2.081292 1_554
Co5 O2 2.084821 1_455
Ni0 O10 1.874632 1_455
Ni0 O4 1.935256 1_555
Ni0 O16 1.953336 1_555
Ni0 O14 1.964887 1_455
Ni0 O8 2.045459 1_555
Ni0 O1 2.264089 1_555
Ni1 O8 1.878660 1_655
Ni1 O6 1.939700 1_555
Ni1 O18 1.942443 1_555
Ni1 O12 1.961374 1_655
Ni1 O10 2.040874 1_555
Ni1 O3 2.269422 1_545
Ni2 O11 1.984149 1_455
Ni2 O9 2.028105 1_555
Ni2 O5 2.041698 1_555
Ni2 O17 2.117072 1_555
Ni2 O15 2.136793 1_455
Ni2 O0 2.229359 1_565
Ni3 O9 1.875002 1_655
Ni3 O11 1.929550 1_555
Ni3 O7 1.950013 1_555
Ni3 O19 2.105312 1_555
Ni3 O13 2.112290 1_655
Ni3 O2 2.182571 1_555
