# generated using pymatgen
data_Li7Mn5O12
_symmetry_space_group_name_H-M   'P 1'
_cell_length_a   6.00441473
_cell_length_b   10.23602725
_cell_length_c   7.79102147
_cell_angle_alpha   106.47668356
_cell_angle_beta   103.91738908
_cell_angle_gamma   92.48325615
_symmetry_Int_Tables_number   1
_chemical_formula_structural   Li7Mn5O12
_chemical_formula_sum   'Li14 Mn10 O24'
_cell_volume   442.49088495
_cell_formula_units_Z   2
loop_
 _symmetry_equiv_pos_site_id
 _symmetry_equiv_pos_as_xyz
  1  'x, y, z'
loop_
 _atom_site_type_symbol
 _atom_site_label
 _atom_site_symmetry_multiplicity
 _atom_site_fract_x
 _atom_site_fract_y
 _atom_site_fract_z
 _atom_site_occupancy
  Li  Li0  1  0.57101200  0.26565300  0.34897600  1
  Li  Li1  1  0.09548200  0.73429700  0.31766700  1
  Li  Li2  1  0.83331700  0.00006100  0.33325700  1
  Li  Li3  1  0.33332300  0.49997000  0.33329100  1
  Li  Li4  1  0.08608700  0.25101700  0.33798200  1
  Li  Li5  1  0.58062500  0.74890100  0.32862400  1
  Li  Li6  1  0.67212500  0.49644500  0.66468500  1
  Li  Li7  1  0.16911600  0.99925400  0.66357500  1
  Li  Li8  1  0.49762700  0.00075000  0.00294900  1
  Li  Li9  1  0.99443600  0.50378500  0.00226900  1
  Li  Li10  1  0.91799600  0.25843900  0.67023400  1
  Li  Li11  1  0.43008500  0.73577700  0.64582700  1
  Li  Li12  1  0.74838600  0.74188800  0.99690200  1
  Li  Li13  1  0.23700900  0.26400500  0.02060000  1
  Mn  Mn0  1  0.83344200  0.49985600  0.33344400  1
  Mn  Mn1  1  0.33332000  0.99996200  0.33338000  1
  Mn  Mn2  1  0.99547800  0.00446300  0.00487100  1
  Mn  Mn3  1  0.49257400  0.50450000  0.00689000  1
  Mn  Mn4  1  0.67133100  0.99553000  0.66168900  1
  Mn  Mn5  1  0.17385100  0.49545200  0.65966600  1
  Mn  Mn6  1  0.75319700  0.25102900  0.00361200  1
  Mn  Mn7  1  0.24723600  0.75091300  0.00526700  1
  Mn  Mn8  1  0.91362600  0.74913800  0.66318600  1
  Mn  Mn9  1  0.41940500  0.24907200  0.66126500  1
  O  O0  1  0.65981300  0.61688400  0.49001900  1
  O  O1  1  0.16512400  0.11659300  0.49052300  1
  O  O2  1  0.50144200  0.88339500  0.17617000  1
  O  O3  1  0.00701700  0.38313800  0.17689500  1
  O  O4  1  0.21900500  0.38222700  0.83784100  1
  O  O5  1  0.71023200  0.88949700  0.83518800  1
  O  O6  1  0.95648100  0.11050600  0.83138600  1
  O  O7  1  0.44753500  0.61773300  0.82865400  1
  O  O8  1  0.88885400  0.38686400  0.49935500  1
  O  O9  1  0.38702200  0.88864400  0.50420500  1
  O  O10  1  0.27967900  0.11123500  0.16256100  1
  O  O11  1  0.77761900  0.61298700  0.16737900  1
  O  O12  1  0.96446800  0.63794200  0.83232600  1
  O  O13  1  0.49461200  0.12113700  0.81502100  1
  O  O14  1  0.70212100  0.36216900  0.83440800  1
  O  O15  1  0.17224500  0.87894500  0.85155700  1
  O  O16  1  0.54899000  0.38569800  0.17559400  1
  O  O17  1  0.04082300  0.89436200  0.17479500  1
  O  O18  1  0.62570800  0.10560200  0.49177500  1
  O  O19  1  0.11768800  0.61420100  0.49109500  1
  O  O20  1  0.81316800  0.11901400  0.14096800  1
  O  O21  1  0.28476600  0.63224400  0.15594200  1
  O  O22  1  0.85363300  0.88101900  0.52564300  1
  O  O23  1  0.38187200  0.36780800  0.51059300  1
loop_
_geom_bond_atom_site_label_1
_geom_bond_atom_site_label_2
_geom_bond_distance
_geom_bond_site_symmetry_2
Li0 O23 2.003142 1_555
Li0 O16 2.054710 1_555
Li0 O8 2.109239 1_555
Li0 O10 2.214451 1_555
Li0 O18 2.221347 1_555
Li1 O21 2.003918 1_555
Li1 O19 2.055337 1_555
Li1 O11 2.109609 1_455
Li1 O9 2.215092 1_555
Li1 O17 2.221844 1_555
Li2 O17 2.084766 1_645
Li2 O18 2.084886 1_555
Li2 O1 2.164284 1_655
Li2 O2 2.164814 1_545
Li2 O20 2.168387 1_555
Li2 O22 2.169626 1_545
Li3 O3 2.139062 1_555
Li3 O0 2.140690 1_555
Li3 O16 2.153136 1_555
Li3 O19 2.153287 1_555
Li3 O23 2.173419 1_555
Li3 O21 2.174632 1_555
Li4 O23 2.036428 1_555
Li4 O1 2.060048 1_555
Li4 O20 2.070945 1_455
Li4 O3 2.088368 1_555
Li4 O8 2.187241 1_455
Li4 O10 2.250643 1_555
Li5 O21 2.036395 1_555
Li5 O2 2.060276 1_555
Li5 O22 2.071752 1_555
Li5 O0 2.089318 1_555
Li5 O11 2.186044 1_555
Li5 O9 2.251182 1_555
Li6 O23 2.027406 1_555
Li6 O0 2.070822 1_555
Li6 O12 2.118643 1_555
Li6 O14 2.146606 1_555
Li6 O8 2.173487 1_555
Li6 O7 2.250772 1_555
Li7 O1 2.041200 1_565
Li7 O22 2.071769 1_455
Li7 O13 2.147744 1_565
Li7 O9 2.155904 1_555
Li7 O15 2.161884 1_555
Li7 O6 2.172709 1_465
Li8 O2 2.042543 1_545
Li8 O20 2.072244 1_555
Li8 O15 2.146851 1_544
Li8 O10 2.156683 1_555
Li8 O13 2.162229 1_554
Li8 O5 2.172345 1_544
Li9 O21 2.026261 1_655
Li9 O3 2.072080 1_655
Li9 O14 2.119493 1_554
Li9 O12 2.146949 1_554
Li9 O11 2.171431 1_555
Li9 O4 2.253814 1_654
Li10 O4 2.074849 1_655
Li10 O8 2.105167 1_555
Li10 O14 2.142429 1_555
Li10 O18 2.194338 1_555
Li10 O6 2.211770 1_555
Li10 O1 2.510634 1_655
Li11 O19 2.092697 1_555
Li11 O7 2.101284 1_555
Li11 O9 2.147076 1_555
Li11 O5 2.177608 1_555
Li11 O0 2.229410 1_555
Li12 O7 2.076911 1_555
Li12 O11 2.106611 1_556
Li12 O12 2.146052 1_555
Li12 O17 2.191988 1_656
Li12 O5 2.212188 1_555
Li12 O2 2.506410 1_556
Li13 O16 2.091733 1_555
Li13 O4 2.101956 1_554
Li13 O10 2.147965 1_555
Li13 O6 2.177481 1_454
Li13 O3 2.233707 1_555
Mn0 O8 1.947760 1_555
Mn0 O19 1.947942 1_655
Mn0 O16 1.948459 1_555
Mn0 O11 1.949925 1_555
Mn0 O3 1.973323 1_655
Mn0 O0 1.975106 1_555
Mn1 O18 1.952106 1_565
Mn1 O2 1.952709 1_555
Mn1 O17 1.952825 1_555
Mn1 O1 1.953015 1_565
Mn1 O10 1.964094 1_565
Mn1 O9 1.964500 1_555
Mn2 O20 1.913580 1_555
Mn2 O10 1.919394 1_655
Mn2 O6 1.939575 1_554
Mn2 O17 1.948449 1_645
Mn2 O5 1.979812 1_544
Mn2 O15 2.015321 1_644
Mn3 O11 1.934975 1_555
Mn3 O4 1.960971 1_554
Mn3 O16 2.012293 1_555
Mn3 O7 2.025926 1_554
Mn3 O21 2.142970 1_555
Mn3 O14 2.317997 1_554
Mn4 O22 1.913143 1_555
Mn4 O9 1.919839 1_555
Mn4 O5 1.939600 1_555
Mn4 O18 1.948158 1_565
Mn4 O6 1.979490 1_565
Mn4 O13 2.015644 1_565
Mn5 O8 1.934762 1_455
Mn5 O7 1.961315 1_555
Mn5 O19 2.010992 1_555
Mn5 O4 2.025471 1_555
Mn5 O23 2.143506 1_555
Mn5 O12 2.318831 1_455
Mn6 O3 1.941656 1_655
Mn6 O20 1.943708 1_555
Mn6 O14 1.952579 1_554
Mn6 O13 1.988195 1_554
Mn6 O16 2.255671 1_555
Mn6 O6 2.281338 1_554
Mn7 O21 1.899916 1_555
Mn7 O2 1.939172 1_555
Mn7 O12 1.970010 1_454
Mn7 O15 2.009083 1_554
Mn7 O7 2.252177 1_554
Mn7 O17 2.298190 1_555
Mn8 O0 1.942044 1_555
Mn8 O22 1.943566 1_555
Mn8 O12 1.952598 1_555
Mn8 O15 1.987323 1_655
Mn8 O19 2.256798 1_655
Mn8 O5 2.280047 1_555
Mn9 O23 1.900460 1_555
Mn9 O1 1.939050 1_555
Mn9 O14 1.970748 1_555
Mn9 O13 2.008661 1_555
Mn9 O4 2.252326 1_555
Mn9 O18 2.297677 1_555
