# generated using pymatgen
data_YCuSi2Ni
_symmetry_space_group_name_H-M   'P 1'
_cell_length_a   5.65514348
_cell_length_b   5.65514348
_cell_length_c   5.65514348
_cell_angle_alpha   138.77993226
_cell_angle_beta   138.77993226
_cell_angle_gamma   59.71057126
_symmetry_Int_Tables_number   1
_chemical_formula_structural   YCuSi2Ni
_chemical_formula_sum   'Y1 Cu1 Si2 Ni1'
_cell_volume   77.74134249
_cell_formula_units_Z   1
loop_
 _symmetry_equiv_pos_site_id
 _symmetry_equiv_pos_as_xyz
  1  'x, y, z'
loop_
 _atom_site_type_symbol
 _atom_site_label
 _atom_site_symmetry_multiplicity
 _atom_site_fract_x
 _atom_site_fract_y
 _atom_site_fract_z
 _atom_site_occupancy
  Y  Y0  1  0.00000000  0.00000000  0.00000000  1
  Cu  Cu0  1  0.25000000  0.75000000  0.50000000  1
  Si  Si0  1  0.62207800  0.62207800  0.00000000  1
  Si  Si1  1  0.37792200  0.37792200  0.00000000  1
  Ni  Ni0  1  0.75000000  0.25000000  0.50000000  1
loop_
_geom_bond_atom_site_label_1
_geom_bond_atom_site_label_2
_geom_bond_distance
_geom_bond_site_symmetry_2
Cu0 Si1 2.353131 1_566
Cu0 Si0 2.353131 1_556
Cu0 Si1 2.353131 1_555
Cu0 Si0 2.353131 1_455
Cu0 Ni0 2.815193 1_555
Cu0 Ni0 2.815193 1_454
Cu0 Ni0 2.815193 1_566
Cu0 Ni0 2.815193 1_465
Cu0 Y0 3.158558 1_666
Cu0 Y0 3.158558 1_565
Cu0 Y0 3.158558 1_555
Cu0 Y0 3.158558 1_566
Si0 Si1 2.394987 1_555
Si0 Y0 3.059298 1_655
Si0 Y0 3.059298 1_666
Si0 Y0 3.059298 1_554
Si0 Y0 3.059298 1_565
Si1 Y0 3.059298 1_655
Si1 Y0 3.059298 1_554
Si1 Y0 3.059298 1_666
Si1 Y0 3.059298 1_565
Ni0 Si1 2.353131 1_656
Ni0 Si0 2.353131 1_545
Ni0 Si0 2.353131 1_556
Ni0 Si1 2.353131 1_555
Ni0 Y0 3.158558 1_655
Ni0 Y0 3.158558 1_666
Ni0 Y0 3.158558 1_555
Ni0 Y0 3.158558 1_656
