# generated using pymatgen
data_ErAlPd
_symmetry_space_group_name_H-M   'P 1'
_cell_length_a   4.40212268
_cell_length_b   6.82965651
_cell_length_c   7.68973138
_cell_angle_alpha   90.00000000
_cell_angle_beta   90.00000000
_cell_angle_gamma   90.00000000
_symmetry_Int_Tables_number   1
_chemical_formula_structural   ErAlPd
_chemical_formula_sum   'Er4 Al4 Pd4'
_cell_volume   231.19166489
_cell_formula_units_Z   4
loop_
 _symmetry_equiv_pos_site_id
 _symmetry_equiv_pos_as_xyz
  1  'x, y, z'
loop_
 _atom_site_type_symbol
 _atom_site_label
 _atom_site_symmetry_multiplicity
 _atom_site_fract_x
 _atom_site_fract_y
 _atom_site_fract_z
 _atom_site_occupancy
  Er  Er0  1  0.75000000  0.46816795  0.18001431  1
  Er  Er1  1  0.75000000  0.96816795  0.31998569  1
  Er  Er2  1  0.25000000  0.53183205  0.81998569  1
  Er  Er3  1  0.25000000  0.03183205  0.68001431  1
  Al  Al0  1  0.75000000  0.35660197  0.56172446  1
  Al  Al1  1  0.75000000  0.85660197  0.93827554  1
  Al  Al2  1  0.25000000  0.64339803  0.43827554  1
  Al  Al3  1  0.25000000  0.14339803  0.06172446  1
  Pd  Pd0  1  0.75000000  0.22917815  0.88084994  1
  Pd  Pd1  1  0.75000000  0.72917815  0.61915006  1
  Pd  Pd2  1  0.25000000  0.77082185  0.11915006  1
  Pd  Pd3  1  0.25000000  0.27082185  0.38084994  1
loop_
_geom_bond_atom_site_label_1
_geom_bond_atom_site_label_2
_geom_bond_distance
_geom_bond_site_symmetry_2
Er0 Pd0 2.820710 1_554
Er0 Pd3 3.007713 1_555
Er0 Pd3 3.007713 1_655
Er0 Pd2 3.055537 1_655
Er0 Pd2 3.055537 1_555
Er0 Er2 3.563488 1_554
Er0 Er2 3.563488 1_654
Er0 Er1 3.580442 1_555
Er0 Er1 3.580442 1_545
Er1 Pd1 2.820710 1_555
Er1 Pd2 3.007713 1_655
Er1 Pd2 3.007713 1_555
Er1 Pd3 3.055537 1_565
Er1 Pd3 3.055537 1_665
Er1 Er3 3.563488 1_665
Er1 Er3 3.563488 1_565
Er2 Pd2 2.820710 1_556
Er2 Pd1 3.007713 1_455
Er2 Pd1 3.007713 1_555
Er2 Pd0 3.055537 1_555
Er2 Pd0 3.055537 1_455
Er2 Er3 3.580442 1_565
Er2 Er3 3.580442 1_555
Er3 Pd3 2.820710 1_555
Er3 Pd0 3.007713 1_455
Er3 Pd0 3.007713 1_555
Er3 Pd1 3.055537 1_445
Er3 Pd1 3.055537 1_545
Al0 Pd1 2.582600 1_555
Al0 Pd0 2.603731 1_555
Al0 Pd3 2.668788 1_655
Al0 Pd3 2.668788 1_555
Al0 Er0 3.032534 1_555
Al0 Er2 3.197021 1_555
Al0 Er2 3.197021 1_655
Al0 Er1 3.239330 1_545
Al0 Er3 3.254519 1_655
Al0 Er3 3.254519 1_555
Al1 Pd0 2.582600 1_565
Al1 Pd1 2.603731 1_555
Al1 Pd2 2.668788 1_556
Al1 Pd2 2.668788 1_656
Al1 Er1 3.032534 1_556
Al1 Er3 3.197021 1_665
Al1 Er3 3.197021 1_565
Al1 Er0 3.239330 1_556
Al1 Er2 3.254519 1_655
Al1 Er2 3.254519 1_555
Al2 Pd3 2.582600 1_555
Al2 Pd2 2.603731 1_555
Al2 Pd1 2.668788 1_455
Al2 Pd1 2.668788 1_555
Al2 Er2 3.032534 1_555
Al2 Er0 3.197021 1_555
Al2 Er0 3.197021 1_455
Al2 Er3 3.239330 1_565
Al2 Er1 3.254519 1_555
Al2 Er1 3.254519 1_455
Al3 Pd2 2.582600 1_545
Al3 Pd3 2.603731 1_555
Al3 Pd0 2.668788 1_554
Al3 Pd0 2.668788 1_454
Al3 Er3 3.032534 1_554
Al3 Er1 3.197021 1_545
Al3 Er1 3.197021 1_445
Al3 Er2 3.239330 1_554
Al3 Er0 3.254519 1_455
Al3 Er0 3.254519 1_555
