# generated using pymatgen
data_HoIn7Cu5
_symmetry_space_group_name_H-M   'P 1'
_cell_length_a   7.22130649
_cell_length_b   7.22130649
_cell_length_c   7.22130649
_cell_angle_alpha   134.23511001
_cell_angle_beta   98.70750936
_cell_angle_gamma   98.68519208
_symmetry_Int_Tables_number   1
_chemical_formula_structural   HoIn7Cu5
_chemical_formula_sum   'Ho1 In7 Cu5'
_cell_volume   248.57451668
_cell_formula_units_Z   1
loop_
 _symmetry_equiv_pos_site_id
 _symmetry_equiv_pos_as_xyz
  1  'x, y, z'
loop_
 _atom_site_type_symbol
 _atom_site_label
 _atom_site_symmetry_multiplicity
 _atom_site_fract_x
 _atom_site_fract_y
 _atom_site_fract_z
 _atom_site_occupancy
  Ho  Ho0  1  0.99862500  0.00000000  0.99862500  1
  In  In0  1  0.34311300  0.00000000  0.34311300  1
  In  In1  1  0.66486600  0.00000000  0.66486600  1
  In  In2  1  0.67429100  0.66170200  0.01258900  1
  In  In3  1  0.35088700  0.33829800  0.01258900  1
  In  In4  1  0.22900300  0.50000000  0.72900300  1
  In  In5  1  0.18261200  0.69558300  0.48702900  1
  In  In6  1  0.79144600  0.30441700  0.48702900  1
  Cu  Cu0  1  0.50506900  0.00151400  0.99407800  1
  Cu  Cu1  1  0.50506900  0.51099100  0.50355500  1
  Cu  Cu2  1  0.99256400  0.48900900  0.99407800  1
  Cu  Cu3  1  0.99256400  0.99848600  0.50355500  1
  Cu  Cu4  1  0.76989000  0.50000000  0.26989000  1
loop_
_geom_bond_atom_site_label_1
_geom_bond_atom_site_label_2
_geom_bond_distance
_geom_bond_site_symmetry_2
Ho0 In1 3.139914 1_555
Ho0 In3 3.186047 1_656
Ho0 In2 3.186047 1_546
Ho0 In0 3.240849 1_656
Ho0 In5 3.359101 1_645
Ho0 In6 3.359101 1_556
Ho0 In5 3.359101 1_656
Ho0 In6 3.359101 1_545
Ho0 In4 3.547096 1_645
Ho0 In4 3.547096 1_656
In0 In4 3.006159 1_544
In0 In4 3.006159 1_555
In0 In1 3.026965 1_555
In0 In5 3.168374 1_545
In0 In6 3.168374 1_555
In1 In6 3.317312 1_555
In1 In5 3.317312 1_545
In2 In3 3.043187 1_555
In2 In4 3.071309 1_554
In2 In6 3.121832 1_565
In2 In6 3.121832 1_554
In3 In4 3.071309 1_554
In3 In5 3.121832 1_555
In3 In5 3.121832 1_544
In4 In6 2.927323 1_455
In4 In5 2.927323 1_555
Cu0 In6 2.697078 1_556
Cu0 Cu4 2.710464 1_556
Cu0 In3 2.753455 1_556
Cu0 Cu1 2.754723 1_545
Cu0 In4 2.783207 1_545
Cu0 In1 2.789556 1_555
Cu0 Cu1 2.861167 1_556
Cu0 In5 2.878985 1_545
Cu0 In0 2.940734 1_556
Cu0 In2 2.974314 1_546
Cu0 Ho0 3.561036 1_555
Cu0 Ho0 3.660738 1_455
Cu1 In6 2.697078 1_555
Cu1 Cu4 2.710464 1_555
Cu1 In3 2.753455 1_555
Cu1 In4 2.783207 1_555
Cu1 In1 2.789556 1_565
Cu1 In5 2.878985 1_555
Cu1 In0 2.940734 1_555
Cu1 In2 2.974314 1_556
Cu1 Ho0 3.561036 1_565
Cu1 Ho0 3.660738 1_454
Cu2 In5 2.697078 1_656
Cu2 Cu4 2.710464 1_556
Cu2 In2 2.753455 1_556
Cu2 Cu3 2.754723 1_545
Cu2 In4 2.783207 1_655
Cu2 In1 2.789556 1_555
Cu2 Cu3 2.861167 1_556
Cu2 In6 2.878985 1_555
Cu2 In0 2.940734 1_666
Cu2 In3 2.974314 1_656
Cu2 Ho0 3.561036 1_555
Cu2 Ho0 3.660738 1_565
Cu3 In5 2.697078 1_655
Cu3 Cu4 2.710464 1_555
Cu3 In2 2.753455 1_555
Cu3 In4 2.783207 1_665
Cu3 In1 2.789556 1_565
Cu3 In6 2.878985 1_565
Cu3 In0 2.940734 1_665
Cu3 In3 2.974314 1_666
Cu3 Ho0 3.561036 1_565
Cu3 Ho0 3.660738 1_564
Cu4 In5 2.749559 1_655
Cu4 In6 2.749559 1_555
Cu4 In2 2.859132 1_555
Cu4 In3 2.859132 1_555
Cu4 In1 2.976705 1_554
Cu4 In1 2.976705 1_565
Cu4 Ho0 3.537673 1_554
Cu4 Ho0 3.537673 1_565
