# generated using pymatgen
data_GdMn2
_symmetry_space_group_name_H-M   'P 1'
_cell_length_a   5.14448043
_cell_length_b   5.14448043
_cell_length_c   5.14448043
_cell_angle_alpha   60.00000000
_cell_angle_beta   60.00000000
_cell_angle_gamma   60.00000000
_symmetry_Int_Tables_number   1
_chemical_formula_structural   GdMn2
_chemical_formula_sum   'Gd2 Mn4'
_cell_volume   96.27412084
_cell_formula_units_Z   2
loop_
 _symmetry_equiv_pos_site_id
 _symmetry_equiv_pos_as_xyz
  1  'x, y, z'
loop_
 _atom_site_type_symbol
 _atom_site_label
 _atom_site_symmetry_multiplicity
 _atom_site_fract_x
 _atom_site_fract_y
 _atom_site_fract_z
 _atom_site_occupancy
  Gd  Gd0  1  0.25000000  0.25000000  0.25000000  1
  Gd  Gd1  1  0.00000000  0.00000000  0.00000000  1
  Mn  Mn0  1  0.62500000  0.62500000  0.12500000  1
  Mn  Mn1  1  0.62500000  0.12500000  0.62500000  1
  Mn  Mn2  1  0.12500000  0.62500000  0.62500000  1
  Mn  Mn3  1  0.62500000  0.62500000  0.62500000  1
loop_
_geom_bond_atom_site_label_1
_geom_bond_atom_site_label_2
_geom_bond_distance
_geom_bond_site_symmetry_2
Gd0 Mn3 3.016219 1_455
Gd0 Mn0 3.016219 1_455
Gd0 Mn1 3.016219 1_554
Gd0 Mn3 3.016219 1_545
Gd0 Mn0 3.016219 1_555
Gd0 Mn2 3.016219 1_545
Gd0 Mn1 3.016219 1_455
Gd0 Mn1 3.016219 1_555
Gd0 Mn0 3.016219 1_545
Gd0 Mn2 3.016219 1_554
Gd0 Mn3 3.016219 1_554
Gd0 Mn2 3.016219 1_555
Gd0 Gd1 3.150338 1_565
Gd0 Gd1 3.150338 1_555
Gd0 Gd1 3.150338 1_556
Gd0 Gd1 3.150338 1_655
Gd1 Mn1 3.016219 1_554
Gd1 Mn0 3.016219 1_455
Gd1 Mn3 3.016219 1_544
Gd1 Mn3 3.016219 1_454
Gd1 Mn0 3.016219 1_445
Gd1 Mn2 3.016219 1_545
Gd1 Mn3 3.016219 1_445
Gd1 Mn1 3.016219 1_454
Gd1 Mn1 3.016219 1_455
Gd1 Mn0 3.016219 1_545
Gd1 Mn2 3.016219 1_554
Gd1 Mn2 3.016219 1_544
Mn0 Mn3 2.572240 1_554
Mn0 Mn1 2.572240 1_564
Mn0 Mn2 2.572240 1_555
Mn0 Mn3 2.572240 1_555
Mn0 Mn2 2.572240 1_654
Mn0 Mn1 2.572240 1_555
Mn1 Mn2 2.572240 1_645
Mn1 Mn2 2.572240 1_555
Mn1 Mn3 2.572240 1_555
Mn1 Mn3 2.572240 1_545
Mn2 Mn3 2.572240 1_455
Mn2 Mn3 2.572240 1_555
