# generated using pymatgen
data_CaMnO2
_symmetry_space_group_name_H-M   'P 1'
_cell_length_a   3.30914236
_cell_length_b   5.71485612
_cell_length_c   5.71485612
_cell_angle_alpha   109.36118360
_cell_angle_beta   90.00000709
_cell_angle_gamma   90.00000709
_symmetry_Int_Tables_number   1
_chemical_formula_structural   CaMnO2
_chemical_formula_sum   'Ca2 Mn2 O4'
_cell_volume   101.96327534
_cell_formula_units_Z   2
loop_
 _symmetry_equiv_pos_site_id
 _symmetry_equiv_pos_as_xyz
  1  'x, y, z'
loop_
 _atom_site_type_symbol
 _atom_site_label
 _atom_site_symmetry_multiplicity
 _atom_site_fract_x
 _atom_site_fract_y
 _atom_site_fract_z
 _atom_site_occupancy
  Ca  Ca0  1  0.00000000  0.25000000  0.75000000  1
  Ca  Ca1  1  0.00000000  0.75000000  0.25000000  1
  Mn  Mn0  1  0.50000000  0.74999800  0.74999900  1
  Mn  Mn1  1  0.50000000  0.25000100  0.25000000  1
  O  O0  1  0.00000000  0.00000000  0.00000000  1
  O  O1  1  0.00000000  0.50000000  0.50000000  1
  O  O2  1  0.50000000  0.50000000  0.00000100  1
  O  O3  1  0.50000000  0.00000100  0.50000000  1
loop_
_geom_bond_atom_site_label_1
_geom_bond_atom_site_label_2
_geom_bond_distance
_geom_bond_site_symmetry_2
Ca0 O0 2.331495 1_556
Ca0 O1 2.331495 1_555
Ca0 O3 2.338080 1_455
Ca0 O3 2.338081 1_555
Ca0 O2 2.338085 1_556
Ca0 O2 2.338086 1_456
Ca1 O1 2.331495 1_555
Ca1 O0 2.331495 1_565
Ca1 O2 2.338080 1_455
Ca1 O2 2.338081 1_555
Ca1 O3 2.338085 1_565
Ca1 O3 2.338086 1_465
Mn0 O2 2.331495 1_556
Mn0 O3 2.331504 1_565
Mn0 O1 2.338076 1_555
Mn0 O1 2.338076 1_655
Mn0 O0 2.338090 1_666
Mn0 O0 2.338090 1_566
Mn1 O2 2.331486 1_555
Mn1 O3 2.331495 1_555
Mn1 O1 2.338080 1_655
Mn1 O1 2.338081 1_555
Mn1 O0 2.338085 1_555
Mn1 O0 2.338086 1_655
