# generated using pymatgen
data_Te3As2O11
_symmetry_space_group_name_H-M   'P 1'
_cell_length_a   6.68276800
_cell_length_b   7.83925533
_cell_length_c   10.66320986
_cell_angle_alpha   111.55088464
_cell_angle_beta   89.79038482
_cell_angle_gamma   102.48617023
_symmetry_Int_Tables_number   1
_chemical_formula_structural   Te3As2O11
_chemical_formula_sum   'Te6 As4 O22'
_cell_volume   505.51382163
_cell_formula_units_Z   2
loop_
 _symmetry_equiv_pos_site_id
 _symmetry_equiv_pos_as_xyz
  1  'x, y, z'
loop_
 _atom_site_type_symbol
 _atom_site_label
 _atom_site_symmetry_multiplicity
 _atom_site_fract_x
 _atom_site_fract_y
 _atom_site_fract_z
 _atom_site_occupancy
  Te  Te0  1  0.31261000  0.24933100  0.52163800  1
  Te  Te1  1  0.68739000  0.75066900  0.47836200  1
  Te  Te2  1  0.20692600  0.53733800  0.80002200  1
  Te  Te3  1  0.79307400  0.46266200  0.19997800  1
  Te  Te4  1  0.23252100  0.10958100  0.84067900  1
  Te  Te5  1  0.76747900  0.89041900  0.15932100  1
  As  As0  1  0.68475500  0.40491000  0.88790300  1
  As  As1  1  0.31524500  0.59509000  0.11209700  1
  As  As2  1  0.81123700  0.11396900  0.60594900  1
  As  As3  1  0.18876300  0.88603100  0.39405100  1
  O  O0  1  0.79799300  0.35393900  0.05400000  1
  O  O1  1  0.20200700  0.64606100  0.94600000  1
  O  O2  1  0.25777700  0.34873200  0.68883500  1
  O  O3  1  0.74222300  0.65126800  0.31116500  1
  O  O4  1  0.52543100  0.56778100  0.84742900  1
  O  O5  1  0.47456900  0.43221900  0.15257100  1
  O  O6  1  0.29721300  0.03405800  0.68340900  1
  O  O7  1  0.70278700  0.96594200  0.31659100  1
  O  O8  1  0.91392000  0.06796000  0.77035900  1
  O  O9  1  0.08608000  0.93204000  0.22964100  1
  O  O10  1  0.99407200  0.20565000  0.48743500  1
  O  O11  1  0.00592800  0.79435000  0.51256500  1
  O  O12  1  0.17088200  0.28912000  0.92829700  1
  O  O13  1  0.82911800  0.71088000  0.07170300  1
  O  O14  1  0.55590300  0.19044100  0.88522600  1
  O  O15  1  0.44409700  0.80955900  0.11477400  1
  O  O16  1  0.64936100  0.27459600  0.55478300  1
  O  O17  1  0.35063900  0.72540400  0.44521700  1
  O  O18  1  0.87119100  0.50419300  0.77522900  1
  O  O19  1  0.12880900  0.49580700  0.22477100  1
  O  O20  1  0.67668600  0.90285900  0.59454300  1
  O  O21  1  0.32331400  0.09714100  0.40545700  1
loop_
_geom_bond_atom_site_label_1
_geom_bond_atom_site_label_2
_geom_bond_distance
_geom_bond_site_symmetry_2
As0 O14 1.705255 1_555
As0 O18 1.964253 1_555
As0 O4 1.986480 1_555
As0 O0 2.128305 1_556
As0 O13 2.466729 1_556
As1 O15 1.705255 1_555
As1 O19 1.964253 1_555
As1 O5 1.986480 1_555
As1 O1 2.128305 1_554
As1 O12 2.466729 1_554
As2 O20 1.664817 1_545
As2 O10 1.970464 1_555
As2 O16 2.037533 1_555
As2 O8 2.062721 1_555
As3 O21 1.664817 1_565
As3 O11 1.970464 1_555
As3 O17 2.037533 1_555
As3 O9 2.062721 1_555
O0 Te3 1.479044 1_555
O1 Te2 1.479044 1_555
O2 Te2 1.622867 1_555
O2 Te0 1.737273 1_555
O3 Te3 1.622867 1_555
O3 Te1 1.737273 1_555
O4 Te2 2.131333 1_555
O5 Te3 2.131333 1_555
O6 Te4 1.650975 1_555
O7 Te5 1.650975 1_555
O8 Te4 2.175659 1_655
O9 Te5 2.175659 1_455
O10 Te0 2.092950 1_655
O11 Te1 2.092950 1_455
O12 Te4 1.518329 1_555
O13 Te5 1.518329 1_555
O14 Te4 2.119363 1_555
O15 Te5 2.119363 1_555
O16 Te0 2.233883 1_555
O17 Te1 2.233883 1_555
O18 Te2 2.207514 1_655
O19 Te3 2.207514 1_455
O20 Te1 1.383362 1_555
O21 Te0 1.383362 1_555
