# generated using pymatgen
data_Y2CdPb
_symmetry_space_group_name_H-M   'P 1'
_cell_length_a   12.83308272
_cell_length_b   12.83308272
_cell_length_c   12.83308272
_cell_angle_alpha   122.40770079
_cell_angle_beta   119.36448931
_cell_angle_gamma   88.49271963
_symmetry_Int_Tables_number   1
_chemical_formula_structural   Y2CdPb
_chemical_formula_sum   'Y2 Cd1 Pb1'
_cell_volume   1472.52643917
_cell_formula_units_Z   1
loop_
 _symmetry_equiv_pos_site_id
 _symmetry_equiv_pos_as_xyz
  1  'x, y, z'
loop_
 _atom_site_type_symbol
 _atom_site_label
 _atom_site_symmetry_multiplicity
 _atom_site_fract_x
 _atom_site_fract_y
 _atom_site_fract_z
 _atom_site_occupancy
  Y  Y0  1  0.00000000  0.26990200  0.26990200  1
  Y  Y1  1  0.00000000  0.73009800  0.73009800  1
  Cd  Cd0  1  0.00000000  0.00000000  0.00000000  1
  Pb  Pb0  1  0.00000000  0.50000000  0.50000000  1
loop_
_geom_bond_atom_site_label_1
_geom_bond_atom_site_label_2
_geom_bond_distance
_geom_bond_site_symmetry_2
Cd0 Y1 3.336868 1_544
Cd0 Y0 3.336868 1_555
Pb0 Y1 2.844761 1_555
Pb0 Y0 2.844761 1_555
