# generated using pymatgen
data_Te2MoW3(Se2S)2
_symmetry_space_group_name_H-M   'P 1'
_cell_length_a   3.34474736
_cell_length_b   3.34474736
_cell_length_c   38.10734300
_cell_angle_alpha   90.00000000
_cell_angle_beta   90.00000000
_cell_angle_gamma   119.99998737
_symmetry_Int_Tables_number   1
_chemical_formula_structural   Te2MoW3(Se2S)2
_chemical_formula_sum   'Te2 Mo1 W3 Se4 S2'
_cell_volume   369.20365830
_cell_formula_units_Z   1
loop_
 _symmetry_equiv_pos_site_id
 _symmetry_equiv_pos_as_xyz
  1  'x, y, z'
loop_
 _atom_site_type_symbol
 _atom_site_label
 _atom_site_symmetry_multiplicity
 _atom_site_fract_x
 _atom_site_fract_y
 _atom_site_fract_z
 _atom_site_occupancy
  Te  Te0  1  0.66666700  0.33333300  0.41954900  1
  Te  Te1  1  0.66666700  0.33333300  0.51969300  1
  Mo  Mo0  1  0.66666700  0.33333300  0.28178800  1
  W  W0  1  0.33333300  0.66666700  0.09391700  1
  W  W1  1  0.33333300  0.66666700  0.46962700  1
  W  W2  1  0.66666700  0.33333300  0.65758600  1
  Se  Se0  1  0.33333300  0.66666700  0.70148900  1
  Se  Se1  1  0.66666700  0.33333300  0.05000600  1
  Se  Se2  1  0.66666700  0.33333300  0.13784400  1
  Se  Se3  1  0.33333300  0.66666700  0.61365800  1
  S  S0  1  0.33333300  0.66666700  0.32160900  1
  S  S1  1  0.33333300  0.66666700  0.24198200  1
loop_
_geom_bond_atom_site_label_1
_geom_bond_atom_site_label_2
_geom_bond_distance
_geom_bond_site_symmetry_2
Te0 W1 2.714934 1_545
Te0 W1 2.714934 1_655
Te0 W1 2.714938 1_555
Te1 W1 2.714612 1_545
Te1 W1 2.714612 1_655
Te1 W1 2.714616 1_555
Mo0 S1 2.455625 1_545
Mo0 S1 2.455625 1_655
Mo0 S1 2.455629 1_555
Mo0 S0 2.455978 1_545
Mo0 S0 2.455978 1_655
Mo0 S0 2.455982 1_555
Se0 W2 2.555019 1_565
Se0 W2 2.555019 1_455
Se0 W2 2.555023 1_555
Se1 W0 2.555219 1_545
Se1 W0 2.555219 1_655
Se1 W0 2.555223 1_555
Se2 W0 2.555618 1_655
Se2 W0 2.555618 1_545
Se2 W0 2.555622 1_555
Se3 W2 2.555643 1_455
Se3 W2 2.555643 1_565
Se3 W2 2.555647 1_555
