# generated using pymatgen
data_Zr2Re
_symmetry_space_group_name_H-M   'P 1'
_cell_length_a   10.22281100
_cell_length_b   10.22281100
_cell_length_c   5.68209900
_cell_angle_alpha   90.00000000
_cell_angle_beta   90.00000000
_cell_angle_gamma   90.00000000
_symmetry_Int_Tables_number   1
_chemical_formula_structural   Zr2Re
_chemical_formula_sum   'Zr20 Re10'
_cell_volume   593.81266954
_cell_formula_units_Z   10
loop_
 _symmetry_equiv_pos_site_id
 _symmetry_equiv_pos_as_xyz
  1  'x, y, z'
loop_
 _atom_site_type_symbol
 _atom_site_label
 _atom_site_symmetry_multiplicity
 _atom_site_fract_x
 _atom_site_fract_y
 _atom_site_fract_z
 _atom_site_occupancy
  Zr  Zr0  1  0.89862400  0.10137600  0.50000000  1
  Zr  Zr1  1  0.10137600  0.89862400  0.50000000  1
  Zr  Zr2  1  0.39862400  0.39862400  0.00000000  1
  Zr  Zr3  1  0.60137600  0.60137600  0.00000000  1
  Zr  Zr4  1  0.96530900  0.37009600  0.50000000  1
  Zr  Zr5  1  0.03469100  0.62990400  0.50000000  1
  Zr  Zr6  1  0.46530900  0.12990400  0.00000000  1
  Zr  Zr7  1  0.53469100  0.87009600  0.00000000  1
  Zr  Zr8  1  0.37009600  0.96530900  0.50000000  1
  Zr  Zr9  1  0.62990400  0.03469100  0.50000000  1
  Zr  Zr10  1  0.12990400  0.46530900  0.00000000  1
  Zr  Zr11  1  0.87009600  0.53469100  0.00000000  1
  Zr  Zr12  1  0.68191100  0.31808900  0.24925900  1
  Zr  Zr13  1  0.31808900  0.68191100  0.24925900  1
  Zr  Zr14  1  0.18191100  0.18191100  0.74925900  1
  Zr  Zr15  1  0.81808900  0.81808900  0.74925900  1
  Zr  Zr16  1  0.31808900  0.68191100  0.75074100  1
  Zr  Zr17  1  0.68191100  0.31808900  0.75074100  1
  Zr  Zr18  1  0.81808900  0.81808900  0.25074100  1
  Zr  Zr19  1  0.18191100  0.18191100  0.25074100  1
  Re  Re0  1  0.50000000  0.50000000  0.50000000  1
  Re  Re1  1  0.00000000  0.00000000  0.00000000  1
  Re  Re2  1  0.25154900  0.43080200  0.50000000  1
  Re  Re3  1  0.74845100  0.56919800  0.50000000  1
  Re  Re4  1  0.75154900  0.06919800  0.00000000  1
  Re  Re5  1  0.24845100  0.93080200  0.00000000  1
  Re  Re6  1  0.43080200  0.25154900  0.50000000  1
  Re  Re7  1  0.56919800  0.74845100  0.50000000  1
  Re  Re8  1  0.06919800  0.75154900  0.00000000  1
  Re  Re9  1  0.93080200  0.24845100  0.00000000  1
loop_
_geom_bond_atom_site_label_1
_geom_bond_atom_site_label_2
_geom_bond_distance
_geom_bond_site_symmetry_2
Zr0 Zr4 2.830396 1_555
Zr0 Zr9 2.830396 1_555
Zr0 Zr1 2.931234 1_645
Zr1 Zr5 2.830396 1_555
Zr1 Zr8 2.830396 1_555
Zr2 Zr6 2.830396 1_555
Zr2 Zr3 2.931234 1_555
Zr3 Zr7 2.830396 1_555
Zr4 Zr5 2.749044 1_655
Zr6 Zr7 2.749044 1_545
Zr8 Zr9 2.749044 1_565
Zr10 Zr11 2.749044 1_455
Zr10 Zr2 2.830396 1_555
Zr11 Zr3 2.830396 1_555
Zr12 Zr17 2.832629 1_554
Zr12 Zr17 2.849470 1_555
Zr13 Zr16 2.832629 1_554
Zr13 Zr16 2.849470 1_555
Zr14 Zr19 2.832629 1_555
Zr14 Zr19 2.849470 1_556
Zr15 Zr18 2.832629 1_555
Zr15 Zr18 2.849470 1_556
Re0 Re7 2.636539 1_555
Re0 Re3 2.636539 1_555
Re0 Re2 2.636539 1_555
Re0 Re6 2.636539 1_555
Re0 Zr17 2.991054 1_555
Re0 Zr16 2.991054 1_555
Re0 Zr12 2.991054 1_555
Re0 Zr13 2.991054 1_555
Re0 Zr3 3.196810 1_555
Re0 Zr2 3.196810 1_556
Re0 Zr2 3.196810 1_555
Re0 Zr3 3.196810 1_556
Re1 Re5 2.636539 1_545
Re1 Re9 2.636539 1_455
Re1 Re4 2.636539 1_455
Re1 Re8 2.636539 1_545
Re1 Zr19 2.991054 1_555
Re1 Zr14 2.991054 1_554
Re1 Zr15 2.991054 1_444
Re1 Zr18 2.991054 1_445
Re1 Zr1 3.196810 1_544
Re1 Zr0 3.196810 1_455
Re1 Zr1 3.196810 1_545
Re1 Zr0 3.196810 1_454
Re2 Re6 2.591503 1_555
Re2 Zr4 2.991261 1_455
Re2 Zr19 2.997756 1_555
Re2 Zr14 2.997756 1_555
Re2 Zr5 3.009555 1_555
Re2 Zr16 3.013681 1_555
Re2 Zr13 3.013681 1_555
Re2 Zr10 3.121286 1_556
Re2 Zr10 3.121286 1_555
Re2 Zr2 3.231152 1_556
Re2 Zr2 3.231152 1_555
Re3 Re7 2.591503 1_555
Re3 Zr5 2.991261 1_655
Re3 Zr18 2.997756 1_555
Re3 Zr15 2.997756 1_555
Re3 Zr4 3.009555 1_555
Re3 Zr17 3.013681 1_555
Re3 Zr12 3.013681 1_555
Re3 Zr11 3.121286 1_555
Re3 Zr11 3.121286 1_556
Re3 Zr3 3.231152 1_555
Re3 Zr3 3.231152 1_556
Re4 Re9 2.591503 1_555
Re4 Zr6 2.991261 1_555
Re4 Zr12 2.997756 1_555
Re4 Zr17 2.997756 1_554
Re4 Zr7 3.009555 1_545
Re4 Zr18 3.013681 1_545
Re4 Zr15 3.013681 1_544
Re4 Zr9 3.121286 1_555
Re4 Zr9 3.121286 1_554
Re4 Zr0 3.231152 1_555
Re4 Zr0 3.231152 1_554
Re5 Re8 2.591503 1_555
Re5 Zr7 2.991261 1_555
Re5 Zr13 2.997756 1_555
Re5 Zr16 2.997756 1_554
Re5 Zr6 3.009555 1_565
Re5 Zr14 3.013681 1_564
Re5 Zr19 3.013681 1_565
Re5 Zr8 3.121286 1_554
Re5 Zr8 3.121286 1_555
Re5 Zr1 3.231152 1_555
Re5 Zr1 3.231152 1_554
Re6 Zr8 2.991261 1_545
Re6 Zr19 2.997756 1_555
Re6 Zr14 2.997756 1_555
Re6 Zr9 3.009555 1_555
Re6 Zr17 3.013681 1_555
Re6 Zr12 3.013681 1_555
Re6 Zr6 3.121286 1_556
Re6 Zr6 3.121286 1_555
Re6 Zr2 3.231152 1_556
Re6 Zr2 3.231152 1_555
Re7 Zr9 2.991261 1_565
Re7 Zr15 2.997756 1_555
Re7 Zr18 2.997756 1_555
Re7 Zr8 3.009555 1_555
Re7 Zr16 3.013681 1_555
Re7 Zr13 3.013681 1_555
Re7 Zr7 3.121286 1_555
Re7 Zr7 3.121286 1_556
Re7 Zr3 3.231152 1_555
Re7 Zr3 3.231152 1_556
Re8 Zr10 2.991261 1_555
Re8 Zr13 2.997756 1_555
Re8 Zr16 2.997756 1_554
Re8 Zr11 3.009555 1_455
Re8 Zr15 3.013681 1_454
Re8 Zr18 3.013681 1_455
Re8 Zr5 3.121286 1_554
Re8 Zr5 3.121286 1_555
Re8 Zr1 3.231152 1_555
Re8 Zr1 3.231152 1_554
Re9 Zr11 2.991261 1_555
Re9 Zr12 2.997756 1_555
Re9 Zr17 2.997756 1_554
Re9 Zr10 3.009555 1_655
Re9 Zr14 3.013681 1_654
Re9 Zr19 3.013681 1_655
Re9 Zr4 3.121286 1_555
Re9 Zr4 3.121286 1_554
Re9 Zr0 3.231152 1_555
Re9 Zr0 3.231152 1_554
