# generated using pymatgen
data_ZrTiCuO5
_symmetry_space_group_name_H-M   'P 1'
_cell_length_a   3.61945700
_cell_length_b   6.79750400
_cell_length_c   14.82989300
_cell_angle_alpha   90.00000000
_cell_angle_beta   90.00000000
_cell_angle_gamma   90.00000000
_symmetry_Int_Tables_number   1
_chemical_formula_structural   ZrTiCuO5
_chemical_formula_sum   'Zr4 Ti4 Cu4 O20'
_cell_volume   364.86391250
_cell_formula_units_Z   4
loop_
 _symmetry_equiv_pos_site_id
 _symmetry_equiv_pos_as_xyz
  1  'x, y, z'
loop_
 _atom_site_type_symbol
 _atom_site_label
 _atom_site_symmetry_multiplicity
 _atom_site_fract_x
 _atom_site_fract_y
 _atom_site_fract_z
 _atom_site_occupancy
  Zr  Zr0  1  0.92432100  0.83769500  0.90420500  1
  Zr  Zr1  1  0.57567900  0.16230500  0.40420500  1
  Zr  Zr2  1  0.42432100  0.66230500  0.09579500  1
  Zr  Zr3  1  0.07567900  0.33769500  0.59579500  1
  Ti  Ti0  1  0.40849800  0.14583500  0.07509600  1
  Ti  Ti1  1  0.09150200  0.85416500  0.57509600  1
  Ti  Ti2  1  0.90849800  0.35416500  0.92490400  1
  Ti  Ti3  1  0.59150200  0.64583500  0.42490400  1
  Cu  Cu0  1  0.50084900  0.09917800  0.75412800  1
  Cu  Cu1  1  0.99915100  0.90082200  0.25412800  1
  Cu  Cu2  1  0.00084900  0.40082200  0.24587200  1
  Cu  Cu3  1  0.49915100  0.59917800  0.74587200  1
  O  O0  1  0.42992200  0.84481300  0.80912800  1
  O  O1  1  0.07007800  0.15518700  0.30912800  1
  O  O2  1  0.92992200  0.65518700  0.19087200  1
  O  O3  1  0.57007800  0.34481300  0.69087200  1
  O  O4  1  0.88898900  0.13521900  0.85085700  1
  O  O5  1  0.61101100  0.86478100  0.35085700  1
  O  O6  1  0.38898900  0.36478100  0.14914300  1
  O  O7  1  0.11101100  0.63521900  0.64914300  1
  O  O8  1  0.42261700  0.88202700  0.98294000  1
  O  O9  1  0.07738300  0.11797300  0.48294000  1
  O  O10  1  0.92261700  0.61797300  0.01706000  1
  O  O11  1  0.57738300  0.38202700  0.51706000  1
  O  O12  1  0.90891800  0.14764500  0.03644400  1
  O  O13  1  0.59108200  0.85235500  0.53644400  1
  O  O14  1  0.40891800  0.35235500  0.96355600  1
  O  O15  1  0.09108200  0.64764500  0.46355600  1
  O  O16  1  0.39110000  0.93991100  0.15875900  1
  O  O17  1  0.10890000  0.06008900  0.65875900  1
  O  O18  1  0.89110000  0.56008900  0.84124100  1
  O  O19  1  0.60890000  0.43991100  0.34124100  1
loop_
_geom_bond_atom_site_label_1
_geom_bond_atom_site_label_2
_geom_bond_distance
_geom_bond_site_symmetry_2
Cu0 O0 1.928933 1_545
Cu0 O3 1.931500 1_555
Cu0 O17 2.020749 1_555
Cu0 O4 2.022715 1_555
Cu1 O1 1.928933 1_665
Cu1 O2 1.931500 1_555
Cu1 O16 2.020749 1_655
Cu1 O5 2.022715 1_555
Cu2 O2 1.928933 1_455
Cu2 O1 1.931500 1_555
Cu2 O19 2.020749 1_455
Cu2 O6 2.022715 1_555
Cu3 O3 1.928933 1_555
Cu3 O0 1.931500 1_555
Cu3 O18 2.020749 1_555
Cu3 O7 2.022715 1_555
O0 Zr0 2.278715 1_555
O0 Zr0 2.310691 1_455
O1 Zr1 2.278715 1_455
O1 Zr1 2.310691 1_555
O2 Zr2 2.278715 1_655
O2 Zr2 2.310691 1_555
O3 Zr3 2.278715 1_555
O3 Zr3 2.310691 1_655
O4 Ti2 1.850899 1_555
O4 Zr0 2.175419 1_545
O5 Ti3 1.850899 1_555
O5 Zr1 2.175419 1_565
O6 Ti0 1.850899 1_555
O6 Zr2 2.175419 1_555
O7 Ti1 1.850899 1_555
O7 Zr3 2.175419 1_555
O8 Zr0 2.169563 1_455
O8 Zr0 2.179828 1_555
O8 Zr2 2.243166 1_556
O8 Ti0 2.255233 1_566
O9 Zr1 2.169563 1_555
O9 Zr1 2.179828 1_455
O9 Zr3 2.243166 1_555
O9 Ti1 2.255233 1_545
O10 Zr2 2.169563 1_555
O10 Zr2 2.179828 1_655
O10 Zr0 2.243166 1_554
O10 Ti2 2.255233 1_554
O11 Zr3 2.169563 1_655
O11 Zr3 2.179828 1_555
O11 Zr1 2.243166 1_555
O11 Ti3 2.255233 1_555
O12 Ti0 1.896927 1_655
O12 Ti0 1.899826 1_555
O12 Ti2 2.169527 1_554
O13 Ti1 1.896927 1_555
O13 Ti1 1.899826 1_655
O13 Ti3 2.169527 1_555
O14 Ti2 1.896927 1_555
O14 Ti2 1.899826 1_455
O14 Ti0 2.169527 1_556
O15 Ti3 1.896927 1_455
O15 Ti3 1.899826 1_555
O15 Ti1 2.169527 1_555
O16 Ti0 1.871547 1_565
O16 Zr2 2.108843 1_555
O17 Ti1 1.871547 1_545
O17 Zr3 2.108843 1_555
O18 Ti2 1.871547 1_555
O18 Zr0 2.108843 1_555
O19 Ti3 1.871547 1_555
O19 Zr1 2.108843 1_555
