# generated using pymatgen
data_LaSiPd
_symmetry_space_group_name_H-M   'P 1'
_cell_length_a   5.97400691
_cell_length_b   7.94836876
_cell_length_c   10.95576261
_cell_angle_alpha   87.36965102
_cell_angle_beta   90.00000000
_cell_angle_gamma   90.00000000
_symmetry_Int_Tables_number   1
_chemical_formula_structural   LaSiPd
_chemical_formula_sum   'La8 Si8 Pd8'
_cell_volume   519.67105570
_cell_formula_units_Z   8
loop_
 _symmetry_equiv_pos_site_id
 _symmetry_equiv_pos_as_xyz
  1  'x, y, z'
loop_
 _atom_site_type_symbol
 _atom_site_label
 _atom_site_symmetry_multiplicity
 _atom_site_fract_x
 _atom_site_fract_y
 _atom_site_fract_z
 _atom_site_occupancy
  La  La0  1  0.36111332  0.96861763  0.14068410  1
  La  La1  1  0.63888668  0.03138237  0.85931590  1
  La  La2  1  0.86111332  0.53138237  0.85931590  1
  La  La3  1  0.13888668  0.46861763  0.14068410  1
  La  La4  1  0.86763243  0.82872277  0.37046775  1
  La  La5  1  0.13236757  0.17127723  0.62953225  1
  La  La6  1  0.36763243  0.67127723  0.62953225  1
  La  La7  1  0.63236757  0.32872277  0.37046775  1
  Si  Si0  1  0.87041133  0.53190706  0.57810070  1
  Si  Si1  1  0.12958867  0.46809294  0.42189930  1
  Si  Si2  1  0.37041133  0.96809294  0.42189930  1
  Si  Si3  1  0.62958867  0.03190706  0.57810070  1
  Si  Si4  1  0.64175414  0.63055229  0.14002190  1
  Si  Si5  1  0.35824586  0.36944771  0.85997810  1
  Si  Si6  1  0.14175414  0.86944771  0.85997810  1
  Si  Si7  1  0.85824586  0.13055229  0.14002190  1
  Pd  Pd0  1  0.89990126  0.84289206  0.05333566  1
  Pd  Pd1  1  0.10009874  0.15710794  0.94666434  1
  Pd  Pd2  1  0.39990126  0.65710794  0.94666434  1
  Pd  Pd3  1  0.60009874  0.34289206  0.05333566  1
  Pd  Pd4  1  0.89112514  0.81915861  0.67072409  1
  Pd  Pd5  1  0.10887486  0.18084139  0.32927591  1
  Pd  Pd6  1  0.39112514  0.68084139  0.32927591  1
  Pd  Pd7  1  0.60887486  0.31915861  0.67072409  1
loop_
_geom_bond_atom_site_label_1
_geom_bond_atom_site_label_2
_geom_bond_distance
_geom_bond_site_symmetry_2
La0 Pd1 2.983626 1_564
La0 Pd6 3.016520 1_555
La0 Si2 3.081239 1_555
La0 Pd0 3.097383 1_455
La0 Pd5 3.115287 1_565
La0 Si4 3.167491 1_555
La0 Si7 3.236667 1_565
La0 Si7 3.268131 1_465
La0 Pd2 3.344492 1_554
La0 Pd3 3.397452 1_565
La0 Si6 3.466824 1_554
La0 Pd0 3.516016 1_555
La0 La1 3.516226 1_564
La1 Pd0 2.983626 1_546
La1 Pd7 3.016520 1_555
La1 Si3 3.081239 1_555
La1 Pd1 3.097383 1_655
La1 Pd4 3.115287 1_545
La1 Si5 3.167491 1_555
La1 Si6 3.236667 1_545
La1 Si6 3.268131 1_645
La1 Pd3 3.344492 1_556
La1 Pd2 3.397452 1_545
La1 Si7 3.466824 1_556
La1 Pd1 3.516016 1_555
La2 Pd3 2.983626 1_556
La2 Pd4 3.016520 1_555
La2 Si0 3.081239 1_555
La2 Pd2 3.097383 1_555
La2 Pd7 3.115287 1_555
La2 Si6 3.167491 1_655
La2 Si5 3.236667 1_655
La2 Si5 3.268131 1_555
La2 Pd0 3.344492 1_556
La2 Pd1 3.397452 1_655
La2 Si4 3.466824 1_556
La2 Pd2 3.516016 1_655
La2 La3 3.516226 1_656
La3 Pd2 2.983626 1_554
La3 Pd5 3.016520 1_555
La3 Si1 3.081239 1_555
La3 Pd3 3.097383 1_555
La3 Pd6 3.115287 1_555
La3 Si7 3.167491 1_455
La3 Si4 3.236667 1_455
La3 Si4 3.268131 1_555
La3 Pd1 3.344492 1_554
La3 Pd0 3.397452 1_455
La3 Si5 3.466824 1_554
La3 Pd3 3.516016 1_455
La4 Pd6 3.120482 1_555
La4 Pd5 3.161938 1_665
La4 Si3 3.184693 1_565
La4 Si0 3.201272 1_555
La4 Si2 3.228812 1_555
La4 Si2 3.259383 1_655
La4 Pd4 3.289921 1_555
La4 Si1 3.291597 1_655
La4 Si4 3.322812 1_555
La4 Pd6 3.378500 1_655
La4 Si7 3.402474 1_565
La4 Pd0 3.476428 1_555
La5 Pd7 3.120482 1_555
La5 Pd4 3.161938 1_445
La5 Si2 3.184693 1_545
La5 Si1 3.201272 1_555
La5 Si3 3.228812 1_555
La5 Si3 3.259383 1_455
La5 Pd5 3.289921 1_555
La5 Si0 3.291597 1_455
La5 Si5 3.322812 1_555
La5 Pd7 3.378500 1_455
La5 Si6 3.402474 1_545
La5 Pd1 3.476428 1_555
La6 Pd4 3.120482 1_455
La6 Pd7 3.161938 1_555
La6 Si1 3.184693 1_555
La6 Si2 3.201272 1_555
La6 Si0 3.228812 1_455
La6 Si0 3.259383 1_555
La6 Pd6 3.289921 1_555
La6 Si3 3.291597 1_565
La6 Si6 3.322812 1_555
La6 Pd4 3.378500 1_555
La6 Si5 3.402474 1_555
La6 Pd2 3.476428 1_555
La7 Pd5 3.120482 1_655
La7 Pd6 3.161938 1_555
La7 Si0 3.184693 1_555
La7 Si3 3.201272 1_555
La7 Si1 3.228812 1_655
La7 Si1 3.259383 1_555
La7 Pd7 3.289921 1_555
La7 Si2 3.291597 1_545
La7 Si7 3.322812 1_555
La7 Pd5 3.378500 1_555
La7 Si4 3.402474 1_555
La7 Pd3 3.476428 1_555
Si0 Si1 2.379669 1_655
Si2 Si3 2.379669 1_565
Pd0 Si4 2.445741 1_555
Pd0 Si7 2.528032 1_565
Pd0 Si6 2.564874 1_654
Pd1 Si5 2.445741 1_555
Pd1 Si6 2.528032 1_545
Pd1 Si7 2.564874 1_456
Pd2 Si6 2.445741 1_555
Pd2 Si5 2.528032 1_555
Pd2 Si4 2.564874 1_556
Pd3 Si7 2.445741 1_555
Pd3 Si4 2.528032 1_555
Pd3 Si5 2.564874 1_554
Pd4 Si3 2.484530 1_565
Pd4 Si0 2.543741 1_555
Pd4 Si6 2.603211 1_655
Pd5 Si2 2.484530 1_545
Pd5 Si1 2.543741 1_555
Pd5 Si7 2.603211 1_455
Pd6 Si1 2.484530 1_555
Pd6 Si2 2.543741 1_555
Pd6 Si4 2.603211 1_555
Pd7 Si0 2.484530 1_555
Pd7 Si3 2.543741 1_555
Pd7 Si5 2.603211 1_555
