# generated using pymatgen
data_HfMnAl
_symmetry_space_group_name_H-M   'P 1'
_cell_length_a   5.23520912
_cell_length_b   5.25407840
_cell_length_c   8.40369386
_cell_angle_alpha   89.99993426
_cell_angle_beta   89.99988975
_cell_angle_gamma   120.11947406
_symmetry_Int_Tables_number   1
_chemical_formula_structural   HfMnAl
_chemical_formula_sum   'Hf4 Mn4 Al4'
_cell_volume   199.94351854
_cell_formula_units_Z   4
loop_
 _symmetry_equiv_pos_site_id
 _symmetry_equiv_pos_as_xyz
  1  'x, y, z'
loop_
 _atom_site_type_symbol
 _atom_site_label
 _atom_site_symmetry_multiplicity
 _atom_site_fract_x
 _atom_site_fract_y
 _atom_site_fract_z
 _atom_site_occupancy
  Hf  Hf0  1  0.66467074  0.33234256  0.55487433  1
  Hf  Hf1  1  0.33769237  0.66885362  0.43201763  1
  Hf  Hf2  1  0.33769198  0.66885278  0.06798245  1
  Hf  Hf3  1  0.66467064  0.33234273  0.94512572  1
  Mn  Mn0  1  0.66095421  0.83047181  0.74999989  1
  Mn  Mn1  1  0.82870079  0.65513639  0.25000031  1
  Mn  Mn2  1  0.82868903  0.17357460  0.24999998  1
  Mn  Mn3  1  0.33835583  0.16918160  0.25000024  1
  Al  Al0  1  0.99605121  0.99802654  0.49416818  1
  Al  Al1  1  0.99605296  0.99802939  0.00583134  1
  Al  Al2  1  0.17323420  0.34382630  0.74999926  1
  Al  Al3  1  0.17323503  0.82936269  0.75000067  1
loop_
_geom_bond_atom_site_label_1
_geom_bond_atom_site_label_2
_geom_bond_distance
_geom_bond_site_symmetry_2
Hf0 Mn2 2.952328 1_555
Hf0 Mn1 2.952339 1_555
Hf0 Mn3 2.957655 1_555
Hf0 Mn0 3.096796 1_555
Hf0 Mn0 3.096904 1_545
Hf0 Hf1 3.187424 1_545
Hf0 Hf1 3.187431 1_555
Hf0 Hf1 3.217809 1_655
Hf0 Hf3 3.279553 1_555
Hf1 Mn2 3.022948 1_565
Hf1 Mn1 3.022991 1_555
Hf1 Mn3 3.039895 1_565
Hf1 Mn3 3.039932 1_555
Hf1 Mn1 3.041826 1_455
Hf1 Mn2 3.041861 1_455
Hf1 Mn0 3.046909 1_555
Hf1 Hf2 3.059240 1_555
Hf2 Mn2 3.022959 1_565
Hf2 Mn1 3.022998 1_555
Hf2 Mn3 3.039903 1_565
Hf2 Mn3 3.039928 1_555
Hf2 Mn1 3.041823 1_455
Hf2 Mn2 3.041849 1_455
Hf2 Mn0 3.046904 1_554
Hf2 Hf3 3.187423 1_564
Hf2 Hf3 3.187427 1_554
Hf2 Hf3 3.217814 1_454
Hf3 Mn2 2.952329 1_556
Hf3 Mn1 2.952349 1_556
Hf3 Mn3 2.957651 1_556
Hf3 Mn0 3.096793 1_555
Hf3 Mn0 3.096910 1_545
Mn1 Mn2 2.530133 1_555
Mn1 Mn3 2.555555 1_555
Mn1 Mn3 2.679793 1_665
Mn1 Mn2 2.723946 1_565
Mn2 Mn3 2.555493 1_555
Mn2 Mn3 2.679869 1_655
Al0 Mn3 2.571588 1_665
Al0 Mn1 2.576726 1_555
Al0 Mn2 2.576783 1_565
Al0 Mn0 2.631503 1_555
Al0 Al2 2.663121 1_665
Al0 Al3 2.663259 1_655
Al0 Hf1 3.026690 1_555
Al0 Hf0 3.068097 1_555
Al0 Hf0 3.068162 1_565
Al0 Hf0 3.070427 1_665
Al0 Hf1 3.093122 1_655
Al0 Hf1 3.093171 1_665
Al1 Mn3 2.571597 1_665
Al1 Mn1 2.576735 1_555
Al1 Mn2 2.576782 1_565
Al1 Mn0 2.631512 1_554
Al1 Al2 2.663114 1_664
Al1 Al3 2.663248 1_654
Al1 Hf2 3.026697 1_555
Al1 Hf3 3.068110 1_554
Al1 Hf3 3.068158 1_564
Al1 Hf3 3.070415 1_664
Al1 Hf2 3.093130 1_655
Al1 Hf2 3.093158 1_665
Al2 Mn0 2.550481 1_555
Al2 Al3 2.551044 1_555
Al2 Mn0 2.684723 1_445
Al2 Al3 2.703034 1_545
Al2 Hf1 3.053312 1_555
Al2 Hf2 3.053328 1_556
Al2 Hf0 3.076918 1_555
Al2 Hf3 3.076929 1_555
Al2 Hf0 3.101588 1_455
Al2 Hf3 3.101590 1_455
Al3 Mn0 2.550393 1_555
Al3 Mn0 2.684826 1_455
Al3 Hf2 3.053186 1_556
Al3 Hf1 3.053193 1_555
Al3 Hf0 3.077053 1_565
Al3 Hf3 3.077055 1_565
Al3 Hf3 3.101449 1_455
Al3 Hf0 3.101463 1_455
