# generated using pymatgen
data_CsMg14Co
_symmetry_space_group_name_H-M   'P 1'
_cell_length_a   6.55760238
_cell_length_b   6.33488309
_cell_length_c   10.66318141
_cell_angle_alpha   90.00000000
_cell_angle_beta   90.00000000
_cell_angle_gamma   118.88271971
_symmetry_Int_Tables_number   1
_chemical_formula_structural   CsMg14Co
_chemical_formula_sum   'Cs1 Mg14 Co1'
_cell_volume   387.86564684
_cell_formula_units_Z   1
loop_
 _symmetry_equiv_pos_site_id
 _symmetry_equiv_pos_as_xyz
  1  'x, y, z'
loop_
 _atom_site_type_symbol
 _atom_site_label
 _atom_site_symmetry_multiplicity
 _atom_site_fract_x
 _atom_site_fract_y
 _atom_site_fract_z
 _atom_site_occupancy
  Cs  Cs0  1  0.09370369  0.79685134  0.12500000  1
  Mg  Mg0  1  0.16427057  0.33213478  0.62500000  1
  Mg  Mg1  1  0.17871418  0.83935659  0.62500000  1
  Mg  Mg2  1  0.60083476  0.30221218  0.12500000  1
  Mg  Mg3  1  0.66519665  0.32545880  0.62500000  1
  Mg  Mg4  1  0.60083476  0.79862158  0.12500000  1
  Mg  Mg5  1  0.66519665  0.83973685  0.62500000  1
  Mg  Mg6  1  0.34963983  0.18481832  0.38087204  1
  Mg  Mg7  1  0.34963983  0.18481832  0.86912796  1
  Mg  Mg8  1  0.34963983  0.66482251  0.38087204  1
  Mg  Mg9  1  0.34963983  0.66482251  0.86912796  1
  Mg  Mg10  1  0.86774784  0.18387442  0.34366399  1
  Mg  Mg11  1  0.86774784  0.18387442  0.90633601  1
  Mg  Mg12  1  0.83046858  0.66523479  0.40620177  1
  Mg  Mg13  1  0.83046858  0.66523479  0.84379823  1
  Co  Co0  1  0.23625657  0.36812779  0.12500000  1
loop_
_geom_bond_atom_site_label_1
_geom_bond_atom_site_label_2
_geom_bond_distance
_geom_bond_site_symmetry_2
Cs0 Mg2 3.237470 1_455
Cs0 Mg4 3.237470 1_455
Cs0 Mg2 3.320161 1_565
Cs0 Mg4 3.320162 1_555
Cs0 Mg13 3.357913 1_454
Cs0 Mg12 3.357913 1_455
Cs0 Mg9 3.509502 1_554
Cs0 Mg8 3.509502 1_555
Cs0 Mg7 3.509508 1_564
Cs0 Mg6 3.509508 1_565
Mg0 Mg1 3.168527 1_545
Mg0 Mg1 3.168527 1_555
Mg0 Mg6 3.197028 1_555
Mg0 Mg7 3.197028 1_555
Mg0 Mg8 3.197034 1_555
Mg0 Mg9 3.197034 1_555
Mg0 Mg5 3.252511 1_445
Mg0 Mg3 3.252512 1_455
Mg0 Mg5 3.305509 1_555
Mg0 Mg3 3.305509 1_555
Mg0 Mg11 3.449418 1_455
Mg0 Mg10 3.449418 1_455
Mg1 Mg12 3.072728 1_455
Mg1 Mg13 3.072728 1_455
Mg1 Mg3 3.188995 1_565
Mg1 Mg5 3.188996 1_555
Mg1 Mg8 3.233040 1_555
Mg1 Mg9 3.233040 1_555
Mg1 Mg6 3.233046 1_565
Mg1 Mg7 3.233046 1_565
Mg1 Mg3 3.368608 1_455
Mg1 Mg5 3.368608 1_455
Mg2 Mg7 3.086626 1_554
Mg2 Mg6 3.086626 1_555
Mg3 Mg5 3.076992 1_545
Mg3 Mg6 3.173532 1_555
Mg3 Mg7 3.173532 1_555
Mg3 Mg5 3.257891 1_555
Mg4 Mg9 3.086625 1_554
Mg4 Mg8 3.086625 1_555
Mg5 Mg8 3.173532 1_555
Mg5 Mg9 3.173532 1_555
Mg6 Mg8 3.040770 1_555
Mg6 Mg8 3.294113 1_545
Mg7 Mg9 3.040770 1_555
Mg7 Mg9 3.294113 1_545
Mg10 Mg8 3.182004 1_655
Mg10 Mg6 3.182004 1_655
Mg10 Mg12 3.243948 1_545
Mg10 Mg12 3.243948 1_555
Mg10 Mg8 3.423506 1_545
Mg10 Mg6 3.423507 1_555
Mg11 Mg9 3.182004 1_655
Mg11 Mg7 3.182004 1_655
Mg11 Mg13 3.243948 1_545
Mg11 Mg13 3.243948 1_555
Mg11 Mg9 3.423506 1_545
Mg11 Mg7 3.423507 1_555
Mg12 Mg5 2.999547 1_555
Mg12 Mg3 2.999554 1_555
Mg12 Mg6 3.163375 1_555
Mg12 Mg8 3.163375 1_555
Mg12 Mg6 3.416474 1_665
Mg12 Mg8 3.416474 1_655
Mg13 Mg5 2.999547 1_555
Mg13 Mg3 2.999554 1_555
Mg13 Mg7 3.163375 1_555
Mg13 Mg9 3.163375 1_555
Mg13 Mg7 3.416474 1_665
Mg13 Mg9 3.416474 1_655
Co0 Mg4 2.618107 1_555
Co0 Mg2 2.618108 1_555
Co0 Mg11 3.148622 1_454
Co0 Mg10 3.148622 1_455
Co0 Mg7 3.190552 1_554
Co0 Mg6 3.190552 1_555
Co0 Mg9 3.190558 1_554
Co0 Mg8 3.190558 1_555
Co0 Cs0 3.271493 1_545
Co0 Cs0 3.271493 1_555
