# generated using pymatgen
data_MnNbH8(OF)5
_symmetry_space_group_name_H-M   'P 1'
_cell_length_a   10.68908400
_cell_length_b   5.72794200
_cell_length_c   7.70480976
_cell_angle_alpha   71.99084486
_cell_angle_beta   90.00000000
_cell_angle_gamma   90.00000000
_symmetry_Int_Tables_number   1
_chemical_formula_structural   MnNbH8(OF)5
_chemical_formula_sum   'Mn2 Nb2 H16 O10 F10'
_cell_volume   448.62636599
_cell_formula_units_Z   2
loop_
 _symmetry_equiv_pos_site_id
 _symmetry_equiv_pos_as_xyz
  1  'x, y, z'
loop_
 _atom_site_type_symbol
 _atom_site_label
 _atom_site_symmetry_multiplicity
 _atom_site_fract_x
 _atom_site_fract_y
 _atom_site_fract_z
 _atom_site_occupancy
  Mn  Mn0  1  0.50041100  0.49917300  0.25155200  1
  Mn  Mn1  1  0.00041100  0.50082700  0.74844800  1
  Nb  Nb0  1  0.50292800  0.98008300  0.77079800  1
  Nb  Nb1  1  0.00292800  0.01991700  0.22920200  1
  H  H0  1  0.63662700  0.25366300  0.04882300  1
  H  H1  1  0.13662700  0.74633700  0.95117700  1
  H  H2  1  0.36364800  0.74744800  0.45116700  1
  H  H3  1  0.86364800  0.25255200  0.54883300  1
  H  H4  1  0.35035300  0.29223400  0.03178100  1
  H  H5  1  0.85035300  0.70776600  0.96821900  1
  H  H6  1  0.64941400  0.70784300  0.46841900  1
  H  H7  1  0.14941400  0.29215700  0.53158100  1
  H  H8  1  0.72110700  0.25735300  0.21505200  1
  H  H9  1  0.22110700  0.74264700  0.78494800  1
  H  H10  1  0.27874300  0.74175000  0.28587400  1
  H  H11  1  0.77874300  0.25825000  0.71412600  1
  H  H12  1  0.27246300  0.28194000  0.20676100  1
  H  H13  1  0.77246300  0.71806000  0.79323900  1
  H  H14  1  0.72776000  0.71760100  0.29418700  1
  H  H15  1  0.22776000  0.28239900  0.70581300  1
  O  O0  1  0.63365400  0.25074800  0.17696400  1
  O  O1  1  0.13365400  0.74925200  0.82303600  1
  O  O2  1  0.36632600  0.74787300  0.32357200  1
  O  O3  1  0.86632600  0.25212700  0.67642800  1
  O  O4  1  0.33806600  0.37521800  0.12482400  1
  O  O5  1  0.83806600  0.62478200  0.87517600  1
  O  O6  1  0.66194600  0.62434300  0.37586300  1
  O  O7  1  0.16194600  0.37565700  0.62413700  1
  O  O8  1  0.53337800  0.76559700  0.98904000  1
  O  O9  1  0.03337800  0.23440300  0.01096000  1
  F  F0  1  0.35825500  0.14006200  0.85358800  1
  F  F1  1  0.85825500  0.85993800  0.14641200  1
  F  F2  1  0.64126400  0.86330800  0.64461300  1
  F  F3  1  0.14126400  0.13669200  0.35538700  1
  F  F4  1  0.61818700  0.23491700  0.80730000  1
  F  F5  1  0.11818700  0.76508300  0.19270000  1
  F  F6  1  0.38170800  0.76990300  0.69034800  1
  F  F7  1  0.88170800  0.23009700  0.30965200  1
  F  F8  1  0.46579900  0.23386800  0.51186800  1
  F  F9  1  0.96579900  0.76613200  0.48813200  1
loop_
_geom_bond_atom_site_label_1
_geom_bond_atom_site_label_2
_geom_bond_distance
_geom_bond_site_symmetry_2
Mn0 O8 2.152997 1_554
Mn0 O6 2.199405 1_555
Mn0 O2 2.209118 1_555
Mn0 O0 2.211157 1_555
Mn0 O4 2.213030 1_555
Mn1 O9 2.152997 1_556
Mn1 O7 2.199405 1_555
Mn1 O3 2.209118 1_455
Mn1 O1 2.211157 1_555
Mn1 O5 2.213030 1_455
Nb0 O8 1.779158 1_555
Nb1 O9 1.779158 1_555
H0 O0 0.982782 1_555
H1 O1 0.982782 1_555
H2 O2 0.982762 1_555
H3 O3 0.982762 1_555
H4 O4 0.983769 1_555
H5 O5 0.983769 1_555
H6 O6 0.982929 1_555
H7 O7 0.982929 1_555
H8 O0 0.983998 1_555
H9 O1 0.983998 1_555
H10 O2 0.984038 1_555
H11 O3 0.984038 1_555
H12 O4 0.983454 1_555
H13 O5 0.983454 1_555
H14 O6 0.984074 1_555
H15 O7 0.984074 1_555
F0 Nb0 1.999861 1_545
F1 Nb1 1.999861 1_665
F2 Nb0 1.995308 1_555
F3 Nb1 1.995308 1_555
F4 Nb0 1.995355 1_545
F5 Nb1 1.995355 1_565
F6 Nb0 1.993473 1_555
F7 Nb1 1.993473 1_655
F8 Nb0 2.111274 1_545
F8 Mn0 2.141106 1_555
F9 Nb1 2.111274 1_665
F9 Mn1 2.141106 1_655
