# generated using pymatgen
data_Sr4CaYFeCu4PbO14
_symmetry_space_group_name_H-M   'P 1'
_cell_length_a   5.39058329
_cell_length_b   5.39058329
_cell_length_c   12.66085003
_cell_angle_alpha   77.70858770
_cell_angle_beta   77.70858770
_cell_angle_gamma   90.00000000
_symmetry_Int_Tables_number   1
_chemical_formula_structural   Sr4CaYFeCu4PbO14
_chemical_formula_sum   'Sr4 Ca1 Y1 Fe1 Cu4 Pb1 O14'
_cell_volume   350.83467765
_cell_formula_units_Z   1
loop_
 _symmetry_equiv_pos_site_id
 _symmetry_equiv_pos_as_xyz
  1  'x, y, z'
loop_
 _atom_site_type_symbol
 _atom_site_label
 _atom_site_symmetry_multiplicity
 _atom_site_fract_x
 _atom_site_fract_y
 _atom_site_fract_z
 _atom_site_occupancy
  Sr  Sr0  1  0.10470500  0.60470500  0.79059000  1
  Sr  Sr1  1  0.60600400  0.10600400  0.78799200  1
  Sr  Sr2  1  0.39529600  0.89529600  0.20941000  1
  Sr  Sr3  1  0.89399700  0.39399600  0.21200800  1
  Ca  Ca0  1  0.75000000  0.25000000  0.50000000  1
  Y  Y0  1  0.25000000  0.75000000  0.50000000  1
  Fe  Fe0  1  0.00000000  0.00000000  0.00000000  1
  Cu  Cu0  1  0.18169300  0.18169400  0.63661300  1
  Cu  Cu1  1  0.67879600  0.67879600  0.64240900  1
  Cu  Cu2  1  0.32120400  0.32120500  0.35759100  1
  Cu  Cu3  1  0.81830600  0.81830600  0.36338700  1
  Pb  Pb0  1  0.50000000  0.50000000  0.00000000  1
  O  O0  1  0.43108600  0.93341600  0.62663900  1
  O  O1  1  0.94227400  0.43994500  0.62663900  1
  O  O2  1  0.94227400  0.93341600  0.62663900  1
  O  O3  1  0.43108600  0.43994500  0.62663900  1
  O  O4  1  0.56005400  0.05772600  0.37336100  1
  O  O5  1  0.06658500  0.56891400  0.37336100  1
  O  O6  1  0.06658400  0.05772600  0.37336100  1
  O  O7  1  0.56005500  0.56891300  0.37336100  1
  O  O8  1  0.07628100  0.07628100  0.84743800  1
  O  O9  1  0.58924300  0.58924300  0.82151300  1
  O  O10  1  0.41075700  0.41075700  0.17848700  1
  O  O11  1  0.92371900  0.92371900  0.15256200  1
  O  O12  1  0.50057100  0.00057100  0.99885900  1
  O  O13  1  0.99942900  0.49942900  0.00114100  1
loop_
_geom_bond_atom_site_label_1
_geom_bond_atom_site_label_2
_geom_bond_distance
_geom_bond_site_symmetry_2
Ca0 O6 2.469810 1_655
Ca0 O1 2.469810 1_555
Ca0 O7 2.469810 1_555
Ca0 O2 2.469810 1_545
Ca0 O4 2.469813 1_555
Ca0 O3 2.469813 1_555
Ca0 O0 2.469813 1_545
Ca0 O5 2.469816 1_655
Fe0 O11 1.841948 1_445
Fe0 O8 1.841948 1_554
Fe0 O13 2.695324 1_455
Fe0 O12 2.695324 1_454
Fe0 O12 2.695330 1_554
Fe0 O13 2.695330 1_445
Cu0 O3 1.901096 1_555
Cu0 O1 1.901096 1_455
Cu0 O0 1.901100 1_545
Cu0 O2 1.901100 1_445
Cu0 O8 2.545383 1_555
Cu1 O2 1.924472 1_555
Cu1 O1 1.924476 1_555
Cu1 O0 1.924480 1_555
Cu1 O3 1.924484 1_555
Cu1 O9 2.162401 1_555
Cu2 O5 1.924472 1_555
Cu2 O7 1.924476 1_555
Cu2 O4 1.924476 1_555
Cu2 O6 1.924476 1_555
Cu2 O10 2.162401 1_555
Cu3 O7 1.901096 1_555
Cu3 O5 1.901100 1_655
Cu3 O6 1.901103 1_665
Cu3 O4 1.901103 1_565
Cu3 O11 2.545383 1_555
O0 Y0 2.417136 1_555
O0 Sr0 2.724525 1_555
O0 Sr1 2.749049 1_565
O1 Y0 2.417139 1_655
O1 Sr0 2.724527 1_655
O1 Sr1 2.749046 1_555
O2 Y0 2.417139 1_655
O2 Sr0 2.724527 1_655
O2 Sr1 2.749046 1_565
O3 Y0 2.417136 1_555
O3 Sr0 2.724525 1_555
O3 Sr1 2.749049 1_555
O4 Y0 2.417136 1_545
O4 Sr2 2.724520 1_545
O4 Sr3 2.749051 1_555
O5 Y0 2.417133 1_555
O5 Sr2 2.724527 1_555
O5 Sr3 2.749049 1_455
O6 Y0 2.417139 1_545
O6 Sr2 2.724527 1_545
O6 Sr3 2.749043 1_455
O7 Y0 2.417139 1_555
O7 Sr2 2.724527 1_555
O7 Sr3 2.749049 1_555
O8 Sr0 2.781308 1_555
O8 Sr0 2.781308 1_545
O8 Sr1 2.789214 1_455
O8 Sr1 2.789214 1_555
O9 Pb0 2.154952 1_556
O9 Sr0 2.721024 1_555
O9 Sr0 2.721029 1_655
O9 Sr1 2.725505 1_555
O9 Sr1 2.725510 1_565
O10 Pb0 2.154952 1_555
O10 Sr2 2.721024 1_545
O10 Sr2 2.721029 1_555
O10 Sr3 2.725505 1_455
O10 Sr3 2.725510 1_555
O11 Sr2 2.781303 1_555
O11 Sr2 2.781313 1_655
O11 Sr3 2.789214 1_565
O11 Sr3 2.789214 1_555
O12 Sr2 2.542075 1_546
O12 Sr1 2.545890 1_555
O12 Pb0 2.695324 1_556
O12 Pb0 2.695330 1_546
O13 Sr0 2.542075 1_654
O13 Sr3 2.545890 1_555
O13 Pb0 2.695324 1_555
O13 Pb0 2.695330 1_655
