# generated using pymatgen
data_NaSn2Pd3
_symmetry_space_group_name_H-M   'P 1'
_cell_length_a   5.77111480
_cell_length_b   5.77111480
_cell_length_c   4.26243922
_cell_angle_alpha   90.00000000
_cell_angle_beta   90.00000000
_cell_angle_gamma   120.00000369
_symmetry_Int_Tables_number   1
_chemical_formula_structural   NaSn2Pd3
_chemical_formula_sum   'Na1 Sn2 Pd3'
_cell_volume   122.94425568
_cell_formula_units_Z   1
loop_
 _symmetry_equiv_pos_site_id
 _symmetry_equiv_pos_as_xyz
  1  'x, y, z'
loop_
 _atom_site_type_symbol
 _atom_site_label
 _atom_site_symmetry_multiplicity
 _atom_site_fract_x
 _atom_site_fract_y
 _atom_site_fract_z
 _atom_site_occupancy
  Na  Na0  1  0.00000000  0.00000000  0.19263026  1
  Sn  Sn0  1  0.33333300  0.66666700  0.49614772  1
  Sn  Sn1  1  0.66666700  0.33333300  0.49614772  1
  Pd  Pd0  1  0.50000000  0.00000000  0.99502310  1
  Pd  Pd1  1  0.50000000  0.50000000  0.99502310  1
  Pd  Pd2  1  0.00000000  0.50000000  0.99502310  1
loop_
_geom_bond_atom_site_label_1
_geom_bond_atom_site_label_2
_geom_bond_distance
_geom_bond_site_symmetry_2
Na0 Pd1 3.005976 1_554
Na0 Pd1 3.005976 1_444
Na0 Pd0 3.005976 1_454
Na0 Pd2 3.005976 1_554
Na0 Pd0 3.005976 1_554
Na0 Pd2 3.005976 1_544
Pd0 Sn0 2.701326 1_545
Pd0 Sn1 2.701326 1_555
Pd0 Sn1 2.708879 1_556
Pd0 Sn0 2.708879 1_546
Pd1 Sn0 2.701329 1_555
Pd1 Sn1 2.701329 1_555
Pd1 Sn0 2.708882 1_556
Pd1 Sn1 2.708882 1_556
Pd2 Sn0 2.701326 1_555
Pd2 Sn1 2.701326 1_455
Pd2 Sn0 2.708879 1_556
Pd2 Sn1 2.708879 1_456
