# generated using pymatgen
data_LiHfMg30O31
_symmetry_space_group_name_H-M   'P 1'
_cell_length_a   8.54081900
_cell_length_b   8.57206900
_cell_length_c   8.57498300
_cell_angle_alpha   90.00000000
_cell_angle_beta   90.00000000
_cell_angle_gamma   90.00000000
_symmetry_Int_Tables_number   1
_chemical_formula_structural   LiHfMg30O31
_chemical_formula_sum   'Li1 Hf1 Mg30 O31'
_cell_volume   627.79585529
_cell_formula_units_Z   1
loop_
 _symmetry_equiv_pos_site_id
 _symmetry_equiv_pos_as_xyz
  1  'x, y, z'
loop_
 _atom_site_type_symbol
 _atom_site_label
 _atom_site_symmetry_multiplicity
 _atom_site_fract_x
 _atom_site_fract_y
 _atom_site_fract_z
 _atom_site_occupancy
  Li  Li0  1  0.00000000  0.00025800  0.00000000  1
  Hf  Hf0  1  0.50000000  0.99996000  0.50000000  1
  Mg  Mg0  1  0.50000000  0.00192400  0.00000000  1
  Mg  Mg1  1  0.00000000  0.00006200  0.50000000  1
  Mg  Mg2  1  0.00000000  0.49942100  0.00000000  1
  Mg  Mg3  1  0.50000000  0.49846800  0.00000000  1
  Mg  Mg4  1  0.00000000  0.49993100  0.50000000  1
  Mg  Mg5  1  0.50000000  0.49958600  0.50000000  1
  Mg  Mg6  1  0.24203700  0.99991500  0.23994800  1
  Mg  Mg7  1  0.75796300  0.99991500  0.23994800  1
  Mg  Mg8  1  0.24203700  0.99991500  0.76005200  1
  Mg  Mg9  1  0.75796300  0.99991500  0.76005200  1
  Mg  Mg10  1  0.24894700  0.50007800  0.24795800  1
  Mg  Mg11  1  0.75105300  0.50007800  0.24795800  1
  Mg  Mg12  1  0.24894700  0.50007800  0.75204200  1
  Mg  Mg13  1  0.75105300  0.50007800  0.75204200  1
  Mg  Mg14  1  0.24450100  0.75200200  0.00000000  1
  Mg  Mg15  1  0.75549900  0.75200200  0.00000000  1
  Mg  Mg16  1  0.24419900  0.74404500  0.50000000  1
  Mg  Mg17  1  0.75580100  0.74404500  0.50000000  1
  Mg  Mg18  1  0.24606800  0.24812300  0.00000000  1
  Mg  Mg19  1  0.75393200  0.24812300  0.00000000  1
  Mg  Mg20  1  0.24452900  0.25597100  0.50000000  1
  Mg  Mg21  1  0.75547100  0.25597100  0.50000000  1
  Mg  Mg22  1  0.00000000  0.75216100  0.24645000  1
  Mg  Mg23  1  0.50000000  0.74681400  0.24643100  1
  Mg  Mg24  1  0.00000000  0.75216100  0.75355000  1
  Mg  Mg25  1  0.50000000  0.74681400  0.75356900  1
  Mg  Mg26  1  0.00000000  0.24782100  0.24584800  1
  Mg  Mg27  1  0.50000000  0.25282900  0.24574400  1
  Mg  Mg28  1  0.00000000  0.24782100  0.75415200  1
  Mg  Mg29  1  0.50000000  0.25282900  0.75425600  1
  O  O0  1  0.00000000  0.74372200  0.00000000  1
  O  O1  1  0.00000000  0.75006000  0.50000000  1
  O  O2  1  0.50000000  0.74474600  0.50000000  1
  O  O3  1  0.00000000  0.25607700  0.00000000  1
  O  O4  1  0.50000000  0.25144100  0.00000000  1
  O  O5  1  0.00000000  0.24995400  0.50000000  1
  O  O6  1  0.50000000  0.25527600  0.50000000  1
  O  O7  1  0.25001700  0.75086900  0.25229500  1
  O  O8  1  0.74998300  0.75086900  0.25229500  1
  O  O9  1  0.25001700  0.75086900  0.74770500  1
  O  O10  1  0.74998300  0.75086900  0.74770500  1
  O  O11  1  0.25077400  0.24913900  0.25145400  1
  O  O12  1  0.74922600  0.24913900  0.25145400  1
  O  O13  1  0.25077400  0.24913900  0.74854600  1
  O  O14  1  0.74922600  0.24913900  0.74854600  1
  O  O15  1  0.25586200  0.00038200  0.00000000  1
  O  O16  1  0.74413800  0.00038200  0.00000000  1
  O  O17  1  0.25432800  0.00001500  0.50000000  1
  O  O18  1  0.74567200  0.00001500  0.50000000  1
  O  O19  1  0.25070500  0.49926700  0.00000000  1
  O  O20  1  0.74929500  0.49926700  0.00000000  1
  O  O21  1  0.25032400  0.50001400  0.50000000  1
  O  O22  1  0.74967600  0.50001400  0.50000000  1
  O  O23  1  0.00000000  0.99997500  0.25845300  1
  O  O24  1  0.50000000  0.00095200  0.24644900  1
  O  O25  1  0.00000000  0.99997500  0.74154700  1
  O  O26  1  0.50000000  0.00095200  0.75355100  1
  O  O27  1  0.00000000  0.50003500  0.25195200  1
  O  O28  1  0.50000000  0.49915000  0.25132400  1
  O  O29  1  0.00000000  0.50003500  0.74804800  1
  O  O30  1  0.50000000  0.49915000  0.74867600  1
loop_
_geom_bond_atom_site_label_1
_geom_bond_atom_site_label_2
_geom_bond_distance
_geom_bond_site_symmetry_2
Li0 O15 2.185271 1_555
Li0 O16 2.185271 1_455
Li0 O3 2.192898 1_555
Li0 O0 2.199044 1_545
Li0 O23 2.216231 1_545
Li0 O25 2.216231 1_544
Hf0 O18 2.098240 1_565
Hf0 O17 2.098240 1_565
Hf0 O24 2.174212 1_565
Hf0 O26 2.174212 1_565
Hf0 O2 2.187712 1_555
Hf0 O6 2.188586 1_565
Mg0 O16 2.085180 1_555
Mg0 O15 2.085180 1_555
Mg0 O24 2.113312 1_555
Mg0 O26 2.113312 1_554
Mg0 O4 2.138877 1_555
Mg1 O25 2.071262 1_545
Mg1 O23 2.071262 1_545
Mg1 O5 2.142091 1_555
Mg1 O1 2.143034 1_545
Mg1 O18 2.172169 1_455
Mg1 O17 2.172169 1_555
Mg2 O3 2.085962 1_555
Mg2 O0 2.094165 1_555
Mg2 O19 2.141226 1_555
Mg2 O20 2.141226 1_455
Mg2 O27 2.160491 1_555
Mg2 O29 2.160491 1_554
Mg3 O4 2.117532 1_555
Mg3 O20 2.129194 1_555
Mg3 O19 2.129194 1_555
Mg3 O28 2.155107 1_555
Mg3 O30 2.155107 1_554
Mg4 O29 2.127008 1_555
Mg4 O27 2.127008 1_555
Mg4 O22 2.137972 1_455
Mg4 O21 2.137972 1_555
Mg4 O5 2.142820 1_555
Mg4 O1 2.144123 1_555
Mg5 O6 2.094242 1_555
Mg5 O2 2.101528 1_555
Mg5 O28 2.132396 1_555
Mg5 O30 2.132396 1_555
Mg5 O22 2.132441 1_555
Mg5 O21 2.132441 1_555
Mg6 O15 2.060939 1_565
Mg6 O23 2.073276 1_555
Mg6 O7 2.138550 1_555
Mg6 O11 2.139944 1_565
Mg6 O24 2.203938 1_565
Mg6 O17 2.232411 1_565
Mg7 O16 2.060939 1_565
Mg7 O23 2.073276 1_655
Mg7 O8 2.138550 1_555
Mg7 O12 2.139944 1_565
Mg7 O24 2.203938 1_565
Mg7 O18 2.232411 1_565
Mg8 O15 2.060939 1_566
Mg8 O25 2.073276 1_555
Mg8 O9 2.138550 1_555
Mg8 O13 2.139944 1_565
Mg8 O26 2.203938 1_565
Mg8 O17 2.232411 1_565
Mg9 O16 2.060939 1_566
Mg9 O25 2.073276 1_655
Mg9 O10 2.138550 1_555
Mg9 O14 2.139944 1_565
Mg9 O26 2.203938 1_565
Mg9 O18 2.232411 1_565
Mg10 O19 2.126300 1_555
Mg10 O27 2.126487 1_555
Mg10 O28 2.144407 1_555
Mg10 O7 2.150139 1_555
Mg10 O11 2.151332 1_555
Mg10 O21 2.161288 1_555
Mg11 O20 2.126300 1_555
Mg11 O27 2.126487 1_655
Mg11 O28 2.144407 1_555
Mg11 O8 2.150139 1_555
Mg11 O12 2.151332 1_555
Mg11 O22 2.161288 1_555
Mg12 O19 2.126300 1_556
Mg12 O29 2.126487 1_555
Mg12 O30 2.144407 1_555
Mg12 O9 2.150139 1_555
Mg12 O13 2.151332 1_555
Mg12 O21 2.161288 1_555
Mg13 O20 2.126300 1_556
Mg13 O29 2.126487 1_655
Mg13 O30 2.144407 1_555
Mg13 O10 2.150139 1_555
Mg13 O14 2.151332 1_555
Mg13 O22 2.161288 1_555
Mg14 O0 2.089445 1_555
Mg14 O15 2.131340 1_565
Mg14 O7 2.163960 1_555
Mg14 O9 2.163960 1_554
Mg14 O19 2.167110 1_555
Mg15 O0 2.089445 1_655
Mg15 O16 2.131340 1_565
Mg15 O8 2.163960 1_555
Mg15 O10 2.163960 1_554
Mg15 O20 2.167110 1_555
Mg16 O1 2.086297 1_555
Mg16 O21 2.092505 1_555
Mg16 O9 2.125452 1_555
Mg16 O7 2.125452 1_555
Mg16 O2 2.184758 1_555
Mg16 O17 2.195897 1_565
Mg17 O1 2.086297 1_655
Mg17 O22 2.092505 1_555
Mg17 O10 2.125452 1_555
Mg17 O8 2.125452 1_555
Mg17 O2 2.184758 1_555
Mg17 O18 2.195897 1_565
Mg18 O3 2.102728 1_555
Mg18 O15 2.125300 1_555
Mg18 O19 2.153188 1_555
Mg18 O11 2.156606 1_555
Mg18 O13 2.156606 1_554
Mg18 O4 2.168974 1_555
Mg19 O3 2.102728 1_655
Mg19 O16 2.125300 1_555
Mg19 O20 2.153188 1_555
Mg19 O12 2.156606 1_555
Mg19 O14 2.156606 1_554
Mg19 O4 2.168974 1_555
Mg20 O5 2.089115 1_555
Mg20 O21 2.092539 1_555
Mg20 O13 2.132749 1_555
Mg20 O11 2.132749 1_555
Mg20 O6 2.181940 1_555
Mg20 O17 2.195668 1_555
Mg21 O5 2.089115 1_655
Mg21 O22 2.092539 1_555
Mg21 O14 2.132749 1_555
Mg21 O12 2.132749 1_555
Mg21 O6 2.181940 1_555
Mg21 O18 2.195668 1_555
Mg22 O0 2.114542 1_555
Mg22 O23 2.126771 1_555
Mg22 O7 2.135967 1_555
Mg22 O8 2.135967 1_455
Mg22 O27 2.161756 1_555
Mg22 O1 2.174262 1_555
Mg23 O28 2.123407 1_555
Mg23 O8 2.135934 1_555
Mg23 O7 2.135934 1_555
Mg23 O2 2.174422 1_555
Mg23 O24 2.178488 1_565
Mg24 O0 2.114542 1_556
Mg24 O25 2.126771 1_555
Mg24 O9 2.135967 1_555
Mg24 O10 2.135967 1_455
Mg24 O29 2.161756 1_555
Mg24 O1 2.174262 1_555
Mg25 O30 2.123407 1_555
Mg25 O10 2.135934 1_555
Mg25 O9 2.135934 1_555
Mg25 O2 2.174422 1_555
Mg25 O26 2.178488 1_565
Mg26 O3 2.109330 1_555
Mg26 O23 2.127301 1_545
Mg26 O11 2.142385 1_555
Mg26 O12 2.142385 1_455
Mg26 O27 2.162629 1_555
Mg26 O5 2.179426 1_555
Mg27 O4 2.107284 1_555
Mg27 O28 2.112023 1_555
Mg27 O12 2.129392 1_555
Mg27 O11 2.129392 1_555
Mg27 O24 2.159115 1_555
Mg27 O6 2.180342 1_555
Mg28 O3 2.109330 1_556
Mg28 O25 2.127301 1_545
Mg28 O13 2.142385 1_555
Mg28 O14 2.142385 1_455
Mg28 O29 2.162629 1_555
Mg28 O5 2.179426 1_555
Mg29 O4 2.107284 1_556
Mg29 O30 2.112023 1_555
Mg29 O14 2.129392 1_555
Mg29 O13 2.129392 1_555
Mg29 O26 2.159115 1_555
Mg29 O6 2.180342 1_555
