# generated using pymatgen
data_Li9Mn2Co5O16
_symmetry_space_group_name_H-M   'P 1'
_cell_length_a   2.89929800
_cell_length_b   5.12814309
_cell_length_c   19.43183730
_cell_angle_alpha   94.60742141
_cell_angle_beta   91.06550883
_cell_angle_gamma   91.58338902
_symmetry_Int_Tables_number   1
_chemical_formula_structural   Li9Mn2Co5O16
_chemical_formula_sum   'Li9 Mn2 Co5 O16'
_cell_volume   287.80643911
_cell_formula_units_Z   1
loop_
 _symmetry_equiv_pos_site_id
 _symmetry_equiv_pos_as_xyz
  1  'x, y, z'
loop_
 _atom_site_type_symbol
 _atom_site_label
 _atom_site_symmetry_multiplicity
 _atom_site_fract_x
 _atom_site_fract_y
 _atom_site_fract_z
 _atom_site_occupancy
  Li  Li0  1  0.99835500  0.39142800  0.11495100  1
  Li  Li1  1  0.49980000  0.63193800  0.37820800  1
  Li  Li2  1  0.99892000  0.87927100  0.62615500  1
  Li  Li3  1  0.49069800  0.12444100  0.87790000  1
  Li  Li4  1  0.51189000  0.86993100  0.11715600  1
  Li  Li5  1  0.00168700  0.11913800  0.37756200  1
  Li  Li6  1  0.50196900  0.37342700  0.62665900  1
  Li  Li7  1  0.00430900  0.61102600  0.88092000  1
  Li  Li8  1  0.49973700  0.50169200  0.99973600  1
  Mn  Mn0  1  0.99928100  0.00020300  0.99978300  1
  Mn  Mn1  1  0.50138300  0.25053300  0.25017600  1
  Co  Co0  1  0.00020100  0.49994400  0.50092900  1
  Co  Co1  1  0.49865500  0.74954900  0.75020600  1
  Co  Co2  1  0.00125500  0.74987700  0.24937700  1
  Co  Co3  1  0.49785300  0.00028900  0.50018600  1
  Co  Co4  1  0.99860700  0.25002800  0.75042400  1
  O  O0  1  0.51241600  0.16917900  0.05578900  1
  O  O1  1  0.01170500  0.41796100  0.30663500  1
  O  O2  1  0.49235500  0.69472900  0.55520800  1
  O  O3  1  0.98354600  0.92384200  0.80635200  1
  O  O4  1  0.99641800  0.71553900  0.05946300  1
  O  O5  1  0.49783000  0.95462700  0.30694200  1
  O  O6  1  0.96135500  0.18397500  0.55702800  1
  O  O7  1  0.48288700  0.42689900  0.80767300  1
  O  O8  1  0.50447200  0.54263300  0.19391200  1
  O  O9  1  0.03708600  0.81363800  0.44147700  1
  O  O10  1  0.51268400  0.07352200  0.69162300  1
  O  O11  1  0.00279400  0.28405700  0.94189600  1
  O  O12  1  0.98863500  0.08595400  0.19590800  1
  O  O13  1  0.51084600  0.30735800  0.44440000  1
  O  O14  1  0.01506700  0.57178300  0.69069800  1
  O  O15  1  0.48530300  0.83158900  0.94466900  1
loop_
_geom_bond_atom_site_label_1
_geom_bond_atom_site_label_2
_geom_bond_distance
_geom_bond_site_symmetry_2
Li0 O4 2.052647 1_555
Li0 O0 2.060603 1_555
Li0 O8 2.184253 1_655
Li0 O0 2.188390 1_655
Li0 O8 2.226614 1_555
Li0 O12 2.307523 1_555
Li1 O9 2.031219 1_555
Li1 O9 2.114435 1_655
Li1 O1 2.176418 1_555
Li1 O13 2.184335 1_555
Li1 O5 2.241544 1_555
Li1 O1 2.294063 1_655
Li2 O14 2.093139 1_655
Li2 O10 2.115044 1_665
Li2 O10 2.130445 1_565
Li2 O2 2.142785 1_555
Li2 O6 2.144529 1_565
Li2 O2 2.186651 1_655
Li3 O11 2.030140 1_655
Li3 O11 2.045325 1_555
Li3 O15 2.061908 1_545
Li3 O7 2.146938 1_555
Li3 O3 2.182618 1_445
Li3 O3 2.226729 1_545
Li4 O4 1.958203 1_555
Li4 O4 1.961359 1_455
Li4 O0 2.017643 1_565
Li4 O12 2.245869 1_565
Li4 O8 2.333148 1_555
Li4 O12 2.403621 1_465
Li5 O9 2.079469 1_545
Li5 O5 2.097674 1_445
Li5 O13 2.108606 1_555
Li5 O13 2.141714 1_455
Li5 O1 2.141729 1_555
Li5 O5 2.149078 1_545
Li6 O10 2.067109 1_555
Li6 O14 2.107227 1_655
Li6 O6 2.115643 1_555
Li6 O14 2.125410 1_555
Li6 O6 2.203901 1_455
Li6 O2 2.238746 1_555
Li7 O15 2.093347 1_555
Li7 O11 2.129410 1_555
Li7 O7 2.184635 1_555
Li7 O7 2.197273 1_455
Li7 O15 2.239739 1_455
Li7 O3 2.247683 1_455
Li8 O11 2.057689 1_555
Li8 O4 2.066250 1_556
Li8 O15 2.074100 1_555
Li8 O0 2.096596 1_556
Li8 O11 2.141376 1_655
Li8 O4 2.150824 1_456
Mn0 O11 1.909700 1_655
Mn0 O4 1.935880 1_546
Mn0 O15 1.958551 1_545
Mn0 O15 1.963402 1_645
Mn0 O0 1.966126 1_656
Mn0 O0 1.975100 1_556
Mn1 O8 1.924043 1_555
Mn1 O12 1.940030 1_455
Mn1 O5 1.946275 1_545
Mn1 O12 1.948932 1_555
Mn1 O1 1.961646 1_655
Mn1 O1 1.982521 1_555
Co0 O2 1.960177 1_555
Co0 O13 1.971106 1_455
Co0 O6 2.026019 1_455
Co0 O9 2.056097 1_555
Co0 O2 2.061062 1_455
Co0 O13 2.083484 1_555
Co1 O3 1.918971 1_555
Co1 O14 1.957978 1_555
Co1 O3 2.048734 1_455
Co1 O7 2.069137 1_555
Co1 O10 2.087958 1_565
Co1 O14 2.092928 1_655
Co2 O8 2.009800 1_455
Co2 O5 2.023459 1_555
Co2 O12 2.083482 1_465
Co2 O8 2.092816 1_555
Co2 O5 2.107325 1_455
Co2 O1 2.107581 1_555
Co3 O6 1.902864 1_555
Co3 O9 1.923412 1_545
Co3 O2 1.966508 1_545
Co3 O13 1.982087 1_555
Co3 O6 2.122385 1_455
Co3 O9 2.153014 1_645
Co4 O7 1.934187 1_655
Co4 O10 1.952735 1_555
Co4 O7 2.066554 1_555
Co4 O3 2.066594 1_545
Co4 O10 2.077996 1_655
Co4 O14 2.092156 1_655
