# generated using pymatgen
data_LaCeMg14
_symmetry_space_group_name_H-M   'P 1'
_cell_length_a   6.72363419
_cell_length_b   6.71795718
_cell_length_c   10.28583835
_cell_angle_alpha   89.68296942
_cell_angle_beta   90.41895728
_cell_angle_gamma   120.17113021
_symmetry_Int_Tables_number   1
_chemical_formula_structural   LaCeMg14
_chemical_formula_sum   'La1 Ce1 Mg14'
_cell_volume   401.64977546
_cell_formula_units_Z   1
loop_
 _symmetry_equiv_pos_site_id
 _symmetry_equiv_pos_as_xyz
  1  'x, y, z'
loop_
 _atom_site_type_symbol
 _atom_site_label
 _atom_site_symmetry_multiplicity
 _atom_site_fract_x
 _atom_site_fract_y
 _atom_site_fract_z
 _atom_site_occupancy
  La  La0  1  0.16733699  0.33317071  0.12500621  1
  Ce  Ce0  1  0.16621314  0.33291039  0.62499365  1
  Mg  Mg0  1  0.17371406  0.83676071  0.12490666  1
  Mg  Mg1  1  0.17318205  0.83661420  0.62495085  1
  Mg  Mg2  1  0.66285581  0.32587719  0.12501038  1
  Mg  Mg3  1  0.66287007  0.32629176  0.62501904  1
  Mg  Mg4  1  0.66272370  0.83694384  0.12499221  1
  Mg  Mg5  1  0.66268510  0.83676445  0.62499460  1
  Mg  Mg6  1  0.33966134  0.16083712  0.37660134  1
  Mg  Mg7  1  0.33967895  0.16086055  0.87373775  1
  Mg  Mg8  1  0.33959109  0.67872902  0.37633823  1
  Mg  Mg9  1  0.33942876  0.67858803  0.87353568  1
  Mg  Mg10  1  0.82167233  0.16089275  0.37622492  1
  Mg  Mg11  1  0.82159378  0.16079025  0.87360644  1
  Mg  Mg12  1  0.83343450  0.66701587  0.37506984  1
  Mg  Mg13  1  0.83335832  0.66695316  0.87501219  1
loop_
_geom_bond_atom_site_label_1
_geom_bond_atom_site_label_2
_geom_bond_distance
_geom_bond_site_symmetry_2
La0 Mg6 3.263615 1_555
La0 Mg11 3.266649 1_454
La0 Mg9 3.269929 1_554
La0 Mg8 3.276221 1_555
La0 Mg10 3.281622 1_455
La0 Mg7 3.284444 1_554
La0 Mg4 3.349196 1_555
La0 Mg4 3.354922 1_445
La0 Mg2 3.356580 1_555
La0 Mg0 3.356621 1_545
La0 Mg0 3.361746 1_555
La0 Mg2 3.367588 1_455
Ce0 Mg10 3.241064 1_455
Ce0 Mg7 3.243614 1_555
Ce0 Mg8 3.248578 1_555
Ce0 Mg9 3.253970 1_555
Ce0 Mg11 3.256687 1_455
Ce0 Mg6 3.264243 1_555
Ce0 Mg5 3.350928 1_445
Ce0 Mg5 3.353029 1_555
Ce0 Mg1 3.357893 1_545
Ce0 Mg1 3.360553 1_555
Ce0 Mg3 3.361904 1_555
Ce0 Mg3 3.362170 1_455
Mg0 Mg8 3.190133 1_555
Mg0 Mg7 3.193418 1_564
Mg0 Mg6 3.203997 1_565
Mg0 Mg9 3.212211 1_554
Mg0 Mg13 3.235343 1_454
Mg0 Mg12 3.253784 1_455
Mg0 Mg2 3.278829 1_565
Mg0 Mg4 3.287297 1_555
Mg0 Mg2 3.424577 1_455
Mg0 Mg4 3.436337 1_455
Mg1 Mg9 3.167833 1_555
Mg1 Mg6 3.170502 1_565
Mg1 Mg7 3.180433 1_565
Mg1 Mg8 3.190744 1_555
Mg1 Mg12 3.233089 1_455
Mg1 Mg13 3.251323 1_455
Mg1 Mg3 3.282541 1_565
Mg1 Mg5 3.290729 1_555
Mg1 Mg3 3.420865 1_455
Mg1 Mg5 3.432905 1_455
Mg2 Mg7 3.187273 1_554
Mg2 Mg6 3.205767 1_555
Mg2 Mg4 3.284188 1_545
Mg2 Mg4 3.433769 1_555
Mg3 Mg6 3.163736 1_555
Mg3 Mg7 3.181867 1_555
Mg3 Mg5 3.288000 1_545
Mg3 Mg5 3.429958 1_555
Mg4 Mg9 3.189086 1_554
Mg4 Mg8 3.203806 1_555
Mg5 Mg8 3.165181 1_555
Mg5 Mg9 3.180917 1_555
Mg6 Mg8 3.238560 1_545
Mg6 Mg8 3.479399 1_555
Mg7 Mg9 3.239053 1_545
Mg7 Mg9 3.478906 1_555
Mg10 Mg5 3.173365 1_545
Mg10 Mg2 3.187965 1_555
Mg10 Mg3 3.191772 1_555
Mg10 Mg4 3.200017 1_545
Mg10 Mg8 3.231865 1_545
Mg10 Mg6 3.240708 1_555
Mg10 Mg12 3.358374 1_545
Mg10 Mg12 3.361019 1_555
Mg10 Mg8 3.471542 1_655
Mg10 Mg6 3.482930 1_655
Mg11 Mg3 3.167695 1_555
Mg11 Mg5 3.178524 1_545
Mg11 Mg4 3.194105 1_546
Mg11 Mg2 3.212146 1_556
Mg11 Mg9 3.232271 1_545
Mg11 Mg7 3.240467 1_555
Mg11 Mg13 3.357977 1_545
Mg11 Mg13 3.361431 1_555
Mg11 Mg9 3.471135 1_655
Mg11 Mg7 3.483168 1_655
Mg12 Mg4 3.237054 1_555
Mg12 Mg3 3.240939 1_555
Mg12 Mg2 3.250102 1_555
Mg12 Mg5 3.258598 1_555
Mg12 Mg6 3.352313 1_555
Mg12 Mg6 3.352720 1_665
Mg12 Mg8 3.360780 1_555
Mg12 Mg8 3.364283 1_655
Mg13 Mg5 3.236020 1_555
Mg13 Mg2 3.242576 1_556
Mg13 Mg3 3.247860 1_555
Mg13 Mg4 3.259501 1_556
Mg13 Mg7 3.351652 1_555
Mg13 Mg7 3.353369 1_665
Mg13 Mg9 3.360887 1_555
Mg13 Mg9 3.364173 1_655
