# generated using pymatgen
data_Ho5Cl11
_symmetry_space_group_name_H-M   'P 1'
_cell_length_a   33.55319500
_cell_length_b   6.63795600
_cell_length_c   6.89170843
_cell_angle_alpha   86.75861988
_cell_angle_beta   90.00000000
_cell_angle_gamma   90.00000000
_symmetry_Int_Tables_number   1
_chemical_formula_structural   Ho5Cl11
_chemical_formula_sum   'Ho20 Cl44'
_cell_volume   1532.49758956
_cell_formula_units_Z   4
loop_
 _symmetry_equiv_pos_site_id
 _symmetry_equiv_pos_as_xyz
  1  'x, y, z'
loop_
 _atom_site_type_symbol
 _atom_site_label
 _atom_site_symmetry_multiplicity
 _atom_site_fract_x
 _atom_site_fract_y
 _atom_site_fract_z
 _atom_site_occupancy
  Ho  Ho0  1  0.93789700  0.42603100  0.13847300  1
  Ho  Ho1  1  0.06210300  0.57396900  0.86152700  1
  Ho  Ho2  1  0.43789700  0.57396900  0.86152700  1
  Ho  Ho3  1  0.56210300  0.42603100  0.13847300  1
  Ho  Ho4  1  0.44182400  0.96353900  0.39339000  1
  Ho  Ho5  1  0.55817600  0.03646100  0.60661000  1
  Ho  Ho6  1  0.94182400  0.03646100  0.60661000  1
  Ho  Ho7  1  0.05817600  0.96353900  0.39339000  1
  Ho  Ho8  1  0.35197100  0.52405500  0.17522800  1
  Ho  Ho9  1  0.64802900  0.47594500  0.82477200  1
  Ho  Ho10  1  0.85197100  0.47594500  0.82477200  1
  Ho  Ho11  1  0.14802900  0.52405500  0.17522800  1
  Ho  Ho12  1  0.25000000  0.99782300  0.32311400  1
  Ho  Ho13  1  0.75000000  0.00217700  0.67688600  1
  Ho  Ho14  1  0.36260700  0.93887000  0.69885800  1
  Ho  Ho15  1  0.63739300  0.06113000  0.30114200  1
  Ho  Ho16  1  0.86260700  0.06113000  0.30114200  1
  Ho  Ho17  1  0.13739300  0.93887000  0.69885800  1
  Ho  Ho18  1  0.25000000  0.49168200  0.81946500  1
  Ho  Ho19  1  0.75000000  0.50831800  0.18053500  1
  Cl  Cl0  1  0.82853000  0.84616000  0.62845300  1
  Cl  Cl1  1  0.17147000  0.15384000  0.37154700  1
  Cl  Cl2  1  0.32853000  0.15384000  0.37154700  1
  Cl  Cl3  1  0.67147000  0.84616000  0.62845300  1
  Cl  Cl4  1  0.29794600  0.70025900  0.52750500  1
  Cl  Cl5  1  0.70205400  0.29974100  0.47249500  1
  Cl  Cl6  1  0.79794600  0.29974100  0.47249500  1
  Cl  Cl7  1  0.20205400  0.70025900  0.52750500  1
  Cl  Cl8  1  0.29773800  0.79537800  0.01980000  1
  Cl  Cl9  1  0.70226200  0.20462200  0.98020000  1
  Cl  Cl10  1  0.79773800  0.20462200  0.98020000  1
  Cl  Cl11  1  0.20226200  0.79537800  0.01980000  1
  Cl  Cl12  1  0.82528100  0.68107800  0.12312500  1
  Cl  Cl13  1  0.17471900  0.31892200  0.87687500  1
  Cl  Cl14  1  0.32528100  0.31892200  0.87687500  1
  Cl  Cl15  1  0.67471900  0.68107800  0.12312500  1
  Cl  Cl16  1  0.39619700  0.85991400  0.06580700  1
  Cl  Cl17  1  0.60380300  0.14008600  0.93419300  1
  Cl  Cl18  1  0.89619700  0.14008600  0.93419300  1
  Cl  Cl19  1  0.10380300  0.85991400  0.06580700  1
  Cl  Cl20  1  0.25000000  0.12828400  0.67278700  1
  Cl  Cl21  1  0.75000000  0.87171600  0.32721300  1
  Cl  Cl22  1  0.41825700  0.31661000  0.16005200  1
  Cl  Cl23  1  0.58174300  0.68339000  0.83994800  1
  Cl  Cl24  1  0.91825700  0.68339000  0.83994800  1
  Cl  Cl25  1  0.08174300  0.31661000  0.16005200  1
  Cl  Cl26  1  0.48747600  0.71010500  0.13802400  1
  Cl  Cl27  1  0.51252400  0.28989500  0.86197600  1
  Cl  Cl28  1  0.98747600  0.28989500  0.86197600  1
  Cl  Cl29  1  0.01252400  0.71010500  0.13802400  1
  Cl  Cl30  1  0.92146600  0.79354600  0.32034200  1
  Cl  Cl31  1  0.07853400  0.20645400  0.67965800  1
  Cl  Cl32  1  0.42146600  0.20645400  0.67965800  1
  Cl  Cl33  1  0.57853400  0.79354600  0.32034200  1
  Cl  Cl34  1  0.49213400  0.77687400  0.63390800  1
  Cl  Cl35  1  0.50786600  0.22312600  0.36609200  1
  Cl  Cl36  1  0.99213400  0.22312600  0.36609200  1
  Cl  Cl37  1  0.00786600  0.77687400  0.63390800  1
  Cl  Cl38  1  0.25000000  0.38499900  0.19542700  1
  Cl  Cl39  1  0.75000000  0.61500100  0.80457300  1
  Cl  Cl40  1  0.39527100  0.63531600  0.49894400  1
  Cl  Cl41  1  0.60472900  0.36468400  0.50105600  1
  Cl  Cl42  1  0.89527100  0.36468400  0.50105600  1
  Cl  Cl43  1  0.10472900  0.63531600  0.49894400  1
loop_
_geom_bond_atom_site_label_1
_geom_bond_atom_site_label_2
_geom_bond_distance
_geom_bond_site_symmetry_2
Cl0 Ho16 2.840403 1_565
Cl0 Ho10 2.848213 1_555
Cl0 Ho13 2.857606 1_565
Cl1 Ho17 2.840403 1_545
Cl1 Ho11 2.848213 1_555
Cl1 Ho12 2.857606 1_545
Cl2 Ho14 2.840403 1_545
Cl2 Ho8 2.848213 1_555
Cl2 Ho12 2.857606 1_545
Cl3 Ho15 2.840403 1_565
Cl3 Ho9 2.848213 1_555
Cl3 Ho13 2.857606 1_565
Cl4 Ho12 2.856406 1_555
Cl4 Ho18 2.870276 1_555
Cl4 Ho14 2.970164 1_555
Cl4 Ho8 3.296855 1_555
Cl5 Ho13 2.856406 1_555
Cl5 Ho19 2.870276 1_555
Cl5 Ho15 2.970164 1_555
Cl5 Ho9 3.296855 1_555
Cl6 Ho13 2.856406 1_555
Cl6 Ho19 2.870276 1_555
Cl6 Ho16 2.970164 1_555
Cl6 Ho10 3.296855 1_555
Cl7 Ho12 2.856406 1_555
Cl7 Ho18 2.870276 1_555
Cl7 Ho17 2.970164 1_555
Cl7 Ho11 3.296855 1_555
Cl8 Ho8 2.735729 1_555
Cl8 Ho18 2.974983 1_554
Cl8 Ho12 3.009773 1_555
Cl8 Ho14 3.209152 1_554
Cl9 Ho9 2.735729 1_555
Cl9 Ho19 2.974983 1_556
Cl9 Ho13 3.009773 1_555
Cl9 Ho15 3.209152 1_556
Cl10 Ho10 2.735729 1_555
Cl10 Ho19 2.974983 1_556
Cl10 Ho13 3.009773 1_555
Cl10 Ho16 3.209152 1_556
Cl11 Ho11 2.735729 1_555
Cl11 Ho18 2.974983 1_554
Cl11 Ho12 3.009773 1_555
Cl11 Ho17 3.209152 1_554
Cl12 Ho10 2.683380 1_554
Cl12 Ho19 2.792952 1_555
Cl12 Ho16 3.128582 1_565
Cl13 Ho11 2.683380 1_556
Cl13 Ho18 2.792952 1_555
Cl13 Ho17 3.128582 1_545
Cl14 Ho8 2.683380 1_556
Cl14 Ho18 2.792952 1_555
Cl14 Ho14 3.128582 1_545
Cl15 Ho9 2.683380 1_554
Cl15 Ho19 2.792952 1_555
Cl15 Ho15 3.128582 1_565
Cl16 Ho8 2.747886 1_555
Cl16 Ho14 2.791131 1_554
Cl16 Ho2 2.800824 1_554
Cl16 Ho4 2.844169 1_555
Cl17 Ho9 2.747886 1_555
Cl17 Ho15 2.791131 1_556
Cl17 Ho3 2.800824 1_556
Cl17 Ho5 2.844169 1_555
Cl18 Ho10 2.747886 1_555
Cl18 Ho16 2.791131 1_556
Cl18 Ho0 2.800824 1_556
Cl18 Ho6 2.844169 1_555
Cl19 Ho11 2.747886 1_555
Cl19 Ho17 2.791131 1_554
Cl19 Ho1 2.800824 1_554
Cl19 Ho7 2.844169 1_555
Cl20 Ho12 2.606395 1_545
Cl20 Ho18 2.667657 1_555
Cl21 Ho13 2.606395 1_565
Cl21 Ho19 2.667657 1_555
Cl22 Ho8 2.621075 1_555
Cl22 Ho2 2.681026 1_554
Cl22 Ho4 2.877125 1_545
Cl23 Ho9 2.621075 1_555
Cl23 Ho3 2.681026 1_556
Cl23 Ho5 2.877125 1_565
Cl24 Ho10 2.621075 1_555
Cl24 Ho0 2.681026 1_556
Cl24 Ho6 2.877125 1_565
Cl25 Ho11 2.621075 1_555
Cl25 Ho1 2.681026 1_554
Cl25 Ho7 2.877125 1_545
Cl26 Ho2 2.722086 1_554
Cl26 Ho4 2.934022 1_555
Cl26 Ho3 3.134484 1_555
Cl27 Ho3 2.722086 1_556
Cl27 Ho5 2.934022 1_555
Cl27 Ho2 3.134484 1_555
Cl28 Ho0 2.722086 1_556
Cl28 Ho6 2.934022 1_555
Cl28 Ho1 3.134484 1_655
Cl29 Ho1 2.722086 1_554
Cl29 Ho7 2.934022 1_555
Cl29 Ho0 3.134484 1_455
Cl30 Ho16 2.654452 1_565
Cl30 Ho6 2.705291 1_565
Cl30 Ho0 2.858689 1_555
Cl31 Ho17 2.654452 1_545
Cl31 Ho7 2.705291 1_545
Cl31 Ho1 2.858689 1_555
Cl32 Ho14 2.654452 1_545
Cl32 Ho4 2.705291 1_545
Cl32 Ho2 2.858689 1_555
Cl33 Ho15 2.654452 1_565
Cl33 Ho5 2.705291 1_565
Cl33 Ho3 2.858689 1_555
Cl34 Ho4 2.626816 1_555
Cl34 Ho2 2.710659 1_555
Cl34 Ho5 2.806814 1_565
Cl35 Ho5 2.626816 1_555
Cl35 Ho3 2.710659 1_555
Cl35 Ho4 2.806814 1_545
Cl36 Ho6 2.626816 1_555
Cl36 Ho0 2.710659 1_555
Cl36 Ho7 2.806814 1_645
Cl37 Ho7 2.626816 1_555
Cl37 Ho1 2.710659 1_555
Cl37 Ho6 2.806814 1_465
Cl38 Ho18 2.647146 1_554
Cl38 Ho12 2.669046 1_545
Cl39 Ho19 2.647146 1_556
Cl39 Ho13 2.669046 1_565
Cl40 Ho14 2.733760 1_555
Cl40 Ho4 2.745298 1_555
Cl40 Ho8 2.796377 1_555
Cl40 Ho2 2.887979 1_555
Cl41 Ho15 2.733760 1_555
Cl41 Ho5 2.745298 1_555
Cl41 Ho9 2.796377 1_555
Cl41 Ho3 2.887979 1_555
Cl42 Ho16 2.733760 1_555
Cl42 Ho6 2.745298 1_555
Cl42 Ho10 2.796377 1_555
Cl42 Ho0 2.887979 1_555
Cl43 Ho17 2.733760 1_555
Cl43 Ho7 2.745298 1_555
Cl43 Ho11 2.796377 1_555
Cl43 Ho1 2.887979 1_555
