# generated using pymatgen
data_Li9Mn2Co5O16
_symmetry_space_group_name_H-M   'P 1'
_cell_length_a   5.10612394
_cell_length_b   5.84302032
_cell_length_c   10.20365205
_cell_angle_alpha   73.36222733
_cell_angle_beta   99.41420419
_cell_angle_gamma   89.99999767
_symmetry_Int_Tables_number   1
_chemical_formula_structural   Li9Mn2Co5O16
_chemical_formula_sum   'Li9 Mn2 Co5 O16'
_cell_volume   287.40077381
_cell_formula_units_Z   1
loop_
 _symmetry_equiv_pos_site_id
 _symmetry_equiv_pos_as_xyz
  1  'x, y, z'
loop_
 _atom_site_type_symbol
 _atom_site_label
 _atom_site_symmetry_multiplicity
 _atom_site_fract_x
 _atom_site_fract_y
 _atom_site_fract_z
 _atom_site_occupancy
  Li  Li0  1  0.24696951  0.61912601  0.26174799  1
  Li  Li1  1  0.75303049  0.38087399  0.73825201  1
  Li  Li2  1  0.25753389  0.12054908  0.25890184  1
  Li  Li3  1  0.75861560  0.37099729  0.26943521  1
  Li  Li4  1  0.24138440  0.14043250  0.73056479  1
  Li  Li5  1  0.75861560  0.85956750  0.26943521  1
  Li  Li6  1  0.74246611  0.87945092  0.74109816  1
  Li  Li7  1  0.24138440  0.62900271  0.73056479  1
  Li  Li8  1  0.00000000  0.50000000  0.50000000  1
  Mn  Mn0  1  0.00000000  0.00000000  0.00000000  1
  Mn  Mn1  1  0.00000000  0.50000000  0.00000000  1
  Co  Co0  1  0.50000000  0.74474144  0.50000000  1
  Co  Co1  1  0.50000000  0.25525856  0.50000000  1
  Co  Co2  1  0.50029159  0.25078516  -0.00157032  1
  Co  Co3  1  0.00000000  0.00000000  0.50000000  1
  Co  Co4  1  0.49970841  0.74921484  0.00157032  1
  O  O0  1  0.90082797  0.69217054  0.11565892  1
  O  O1  1  0.39468402  0.43933930  0.62132139  1
  O  O2  1  0.89827548  0.19379404  0.11241193  1
  O  O3  1  0.35753007  0.44400612  0.10816300  1
  O  O4  1  0.86473980  0.17467511  0.60793027  1
  O  O5  1  0.35753007  0.94783088  0.10816300  1
  O  O6  1  0.35230096  0.94263418  0.61473165  1
  O  O7  1  0.86473980  0.71739462  0.60793027  1
  O  O8  1  0.60531598  0.56066070  0.37867861  1
  O  O9  1  0.09917203  0.30782946  0.88434108  1
  O  O10  1  0.64769904  0.05736582  0.38526835  1
  O  O11  1  0.13526020  0.28260538  0.39206973  1
  O  O12  1  0.64246993  0.05216912  0.89183700  1
  O  O13  1  0.13526020  0.82532489  0.39206973  1
  O  O14  1  0.10172452  0.80620596  0.88758807  1
  O  O15  1  0.64246993  0.55599388  0.89183700  1
loop_
_geom_bond_atom_site_label_1
_geom_bond_atom_site_label_2
_geom_bond_distance
_geom_bond_site_symmetry_2
Li0 O8 1.985112 1_555
Li0 O0 2.074081 1_455
Li0 O13 2.170436 1_555
Li0 O11 2.170436 1_555
Li0 O5 2.242600 1_555
Li0 O3 2.242600 1_555
Li1 O1 1.985112 1_555
Li1 O9 2.074081 1_655
Li1 O4 2.170436 1_555
Li1 O7 2.170436 1_555
Li1 O12 2.242600 1_555
Li1 O15 2.242600 1_555
Li2 O13 2.036437 1_545
Li2 O11 2.036437 1_555
Li2 O2 2.125828 1_455
Li2 O10 2.157519 1_555
Li2 O3 2.188762 1_555
Li2 O5 2.188762 1_545
Li3 O10 2.013612 1_555
Li3 O8 2.018957 1_555
Li3 O11 2.091379 1_655
Li3 O0 2.279821 1_555
Li3 O2 2.339109 1_555
Li3 O3 2.362129 1_555
Li4 O6 2.013612 1_545
Li4 O1 2.018957 1_555
Li4 O4 2.091379 1_455
Li4 O9 2.279821 1_555
Li4 O14 2.339109 1_545
Li4 O12 2.362129 1_555
Li5 O10 2.013612 1_565
Li5 O8 2.018957 1_555
Li5 O13 2.091379 1_655
Li5 O0 2.279821 1_555
Li5 O2 2.339109 1_565
Li5 O5 2.362129 1_555
Li6 O4 2.036437 1_565
Li6 O7 2.036437 1_555
Li6 O14 2.125828 1_655
Li6 O6 2.157519 1_555
Li6 O15 2.188762 1_555
Li6 O12 2.188762 1_565
Li7 O6 2.013612 1_555
Li7 O1 2.018957 1_555
Li7 O7 2.091379 1_455
Li7 O9 2.279821 1_555
Li7 O14 2.339109 1_555
Li7 O15 2.362129 1_555
Li8 O13 2.086440 1_555
Li8 O4 2.086440 1_455
Li8 O7 2.086440 1_455
Li8 O11 2.086440 1_555
Li8 O8 2.156879 1_455
Li8 O1 2.156879 1_555
Mn0 O5 1.947302 1_545
Mn0 O12 1.947302 1_454
Mn0 O14 1.950971 1_544
Mn0 O2 1.950971 1_455
Mn0 O0 1.965781 1_445
Mn0 O9 1.965781 1_554
Mn1 O15 1.947302 1_454
Mn1 O3 1.947302 1_555
Mn1 O14 1.950971 1_554
Mn1 O2 1.950971 1_455
Mn1 O0 1.965781 1_455
Mn1 O9 1.965781 1_554
Co0 O13 1.983726 1_555
Co0 O7 1.983726 1_555
Co0 O8 1.989664 1_555
Co0 O1 1.989664 1_555
Co0 O10 2.083329 1_565
Co0 O6 2.083329 1_555
Co1 O4 1.983726 1_555
Co1 O11 1.983726 1_555
Co1 O1 1.989664 1_555
Co1 O8 1.989664 1_555
Co1 O6 2.083329 1_545
Co1 O10 2.083329 1_555
Co2 O15 2.009454 1_554
Co2 O12 2.009454 1_554
Co2 O5 2.012607 1_545
Co2 O3 2.012607 1_555
Co2 O2 2.144348 1_555
Co2 O9 2.158485 1_554
Co3 O11 1.903678 1_555
Co3 O7 1.903678 1_445
Co3 O13 1.903678 1_545
Co3 O4 1.903678 1_455
Co3 O6 1.950698 1_545
Co3 O10 1.950698 1_455
Co4 O3 2.009454 1_555
Co4 O5 2.009454 1_555
Co4 O12 2.012607 1_564
Co4 O15 2.012607 1_554
Co4 O14 2.144348 1_554
Co4 O0 2.158485 1_555
