# generated using pymatgen
data_Sr2NiRuO6
_symmetry_space_group_name_H-M   'P 1'
_cell_length_a   5.61076715
_cell_length_b   7.93407300
_cell_length_c   5.61082018
_cell_angle_alpha   89.99970895
_cell_angle_beta   89.99807205
_cell_angle_gamma   89.99969874
_symmetry_Int_Tables_number   1
_chemical_formula_structural   Sr2NiRuO6
_chemical_formula_sum   'Sr4 Ni2 Ru2 O12'
_cell_volume   249.77259628
_cell_formula_units_Z   2
loop_
 _symmetry_equiv_pos_site_id
 _symmetry_equiv_pos_as_xyz
  1  'x, y, z'
loop_
 _atom_site_type_symbol
 _atom_site_label
 _atom_site_symmetry_multiplicity
 _atom_site_fract_x
 _atom_site_fract_y
 _atom_site_fract_z
 _atom_site_occupancy
  Sr  Sr0  1  0.50000000  0.25002000  0.00000000  1
  Sr  Sr1  1  0.00000000  0.74998000  0.50000000  1
  Sr  Sr2  1  0.50000000  0.74998000  0.00000000  1
  Sr  Sr3  1  0.00000000  0.25002000  0.50000000  1
  Ni  Ni0  1  0.00000000  0.00000000  0.00000000  1
  Ni  Ni1  1  0.50000000  0.50000000  0.50000000  1
  Ru  Ru0  1  0.50000000  0.00000000  0.50000000  1
  Ru  Ru1  1  0.00000000  0.50000000  0.00000000  1
  O  O0  1  0.00000000  0.25628300  0.00000000  1
  O  O1  1  0.50000000  0.75629100  0.50000000  1
  O  O2  1  0.24371500  0.50000000  0.24371500  1
  O  O3  1  0.74368700  0.00000000  0.74368800  1
  O  O4  1  0.24372000  0.50000000  0.75628000  1
  O  O5  1  0.74369300  0.00000000  0.25630700  1
  O  O6  1  0.00000000  0.74371700  0.00000000  1
  O  O7  1  0.50000000  0.24370900  0.50000000  1
  O  O8  1  0.75628500  0.50000000  0.75628500  1
  O  O9  1  0.25631300  0.00000000  0.25631200  1
  O  O10  1  0.75628000  0.50000000  0.24372000  1
  O  O11  1  0.25630700  0.00000000  0.74369300  1
loop_
_geom_bond_atom_site_label_1
_geom_bond_atom_site_label_2
_geom_bond_distance
_geom_bond_site_symmetry_2
Ni0 O0 2.033368 1_555
Ni0 O6 2.033368 1_545
Ni0 O5 2.033726 1_455
Ni0 O11 2.033726 1_554
Ni0 O9 2.033838 1_555
Ni0 O3 2.033838 1_454
Ni1 O7 2.033432 1_555
Ni1 O1 2.033432 1_555
Ni1 O10 2.033512 1_555
Ni1 O4 2.033512 1_555
Ni1 O8 2.033620 1_555
Ni1 O2 2.033620 1_555
O0 Ru1 1.933668 1_555
O0 Sr0 2.805823 1_555
O0 Sr0 2.805824 1_455
O0 Sr3 2.805850 1_555
O0 Sr3 2.805850 1_554
O1 Ru0 1.933605 1_565
O1 Sr1 2.805830 1_655
O1 Sr1 2.805831 1_555
O1 Sr2 2.805857 1_556
O1 Sr2 2.805857 1_555
O2 Ru1 1.933877 1_555
O2 Sr0 2.805564 1_555
O2 Sr2 2.805565 1_555
O2 Sr3 2.805565 1_555
O2 Sr1 2.805566 1_555
O3 Ru0 1.933659 1_555
O3 Sr2 2.805791 1_546
O3 Sr0 2.805791 1_556
O3 Sr1 2.805795 1_645
O3 Sr3 2.805796 1_655
O4 Ru1 1.933852 1_556
O4 Sr0 2.805601 1_556
O4 Sr1 2.805602 1_555
O4 Sr2 2.805622 1_556
O4 Sr3 2.805622 1_555
O5 Ru0 1.933637 1_555
O5 Sr1 2.805829 1_645
O5 Sr0 2.805830 1_555
O5 Sr3 2.805850 1_655
O5 Sr2 2.805850 1_545
O6 Ru1 1.933668 1_555
O6 Sr2 2.805823 1_455
O6 Sr2 2.805824 1_555
O6 Sr1 2.805850 1_554
O6 Sr1 2.805850 1_555
O7 Ru0 1.933605 1_555
O7 Sr3 2.805830 1_555
O7 Sr3 2.805831 1_655
O7 Sr0 2.805857 1_555
O7 Sr0 2.805857 1_556
O8 Ru1 1.933877 1_656
O8 Sr2 2.805564 1_556
O8 Sr0 2.805565 1_556
O8 Sr1 2.805565 1_655
O8 Sr3 2.805566 1_655
O9 Ru0 1.933659 1_555
O9 Sr0 2.805791 1_555
O9 Sr2 2.805791 1_545
O9 Sr3 2.805795 1_555
O9 Sr1 2.805796 1_545
O10 Ru1 1.933852 1_655
O10 Sr2 2.805601 1_555
O10 Sr3 2.805602 1_655
O10 Sr0 2.805622 1_555
O10 Sr1 2.805622 1_655
O11 Ru0 1.933637 1_555
O11 Sr3 2.805829 1_555
O11 Sr2 2.805830 1_546
O11 Sr1 2.805850 1_545
O11 Sr0 2.805850 1_556
