# generated using pymatgen
data_Y3Sb5O12
_symmetry_space_group_name_H-M   'P 1'
_cell_length_a   9.32175329
_cell_length_b   9.32188147
_cell_length_c   9.32199724
_cell_angle_alpha   109.47164502
_cell_angle_beta   109.47132703
_cell_angle_gamma   109.47060368
_symmetry_Int_Tables_number   1
_chemical_formula_structural   Y3Sb5O12
_chemical_formula_sum   'Y6 Sb10 O24'
_cell_volume   623.57503780
_cell_formula_units_Z   2
loop_
 _symmetry_equiv_pos_site_id
 _symmetry_equiv_pos_as_xyz
  1  'x, y, z'
loop_
 _atom_site_type_symbol
 _atom_site_label
 _atom_site_symmetry_multiplicity
 _atom_site_fract_x
 _atom_site_fract_y
 _atom_site_fract_z
 _atom_site_occupancy
  Y  Y0  1  0.25000174  0.75000270  0.50000438  1
  Y  Y1  1  0.74999678  0.24999770  0.49999395  1
  Y  Y2  1  0.75000008  0.49999747  0.24999749  1
  Y  Y3  1  0.24999952  0.49999805  0.74999935  1
  Y  Y4  1  0.50000420  0.25000264  0.75000324  1
  Y  Y5  1  0.50000038  0.74999860  0.25000156  1
  Sb  Sb0  1  0.51566709  0.51567037  0.51567015  1
  Sb  Sb1  1  0.48433672  0.00001336  0.00000455  1
  Sb  Sb2  1  0.00000188  0.48433096  0.00000340  1
  Sb  Sb3  1  -0.00000154  -0.00000178  0.48432405  1
  Sb  Sb4  1  0.71875982  0.71873719  0.00000336  1
  Sb  Sb5  1  0.28125023  0.28124211  -0.00000766  1
  Sb  Sb6  1  0.71874507  0.00000640  0.71874152  1
  Sb  Sb7  1  0.28126242  0.00001649  0.28126237  1
  Sb  Sb8  1  -0.00001884  0.71874031  0.71874229  1
  Sb  Sb9  1  -0.00000689  0.28124899  0.28125577  1
  O  O0  1  0.79931175  0.50354855  0.50354378  1
  O  O1  1  0.20067314  0.70423472  0.70423208  1
  O  O2  1  -0.00000035  0.49645056  0.29577337  1
  O  O3  1  0.50354993  0.50355201  0.79932052  1
  O  O4  1  -0.00000078  0.29576673  0.49645058  1
  O  O5  1  0.70423466  0.70423353  0.20068204  1
  O  O6  1  0.49645186  0.29576724  0.00000172  1
  O  O7  1  0.29577126  0.49644438  0.00000244  1
  O  O8  1  0.50355310  0.79931807  0.50354536  1
  O  O9  1  0.29576934  0.00000652  0.49644970  1
  O  O10  1  0.49645003  0.00000331  0.29577422  1
  O  O11  1  0.70423134  0.20068398  0.70422240  1
  O  O12  1  0.27774720  0.47763519  0.47763898  1
  O  O13  1  0.72225767  0.19989588  0.19989605  1
  O  O14  1  0.00000094  0.52236560  0.80010822  1
  O  O15  1  0.47763240  0.47763056  0.27774043  1
  O  O16  1  0.00000303  0.80011159  0.52236983  1
  O  O17  1  0.19988697  0.19988973  0.72225278  1
  O  O18  1  0.52236854  0.80010580  0.00000066  1
  O  O19  1  0.80010848  0.52235777  -0.00000053  1
  O  O20  1  0.47763561  0.27774006  0.47763477  1
  O  O21  1  0.80010621  -0.00000011  0.52235972  1
  O  O22  1  0.52236935  0.00000158  0.80010564  1
  O  O23  1  0.19989269  0.72225619  0.19989546  1
loop_
_geom_bond_atom_site_label_1
_geom_bond_atom_site_label_2
_geom_bond_distance
_geom_bond_site_symmetry_2
O0 Sb8 1.965043 1_655
O0 Y2 2.238791 1_555
O0 Y1 2.238809 1_555
O1 Sb8 1.965102 1_555
O1 Y0 2.238818 1_555
O1 Y3 2.238862 1_555
O2 Sb9 1.965096 1_555
O2 Y2 2.238730 1_455
O2 Y0 2.238804 1_555
O3 Sb4 1.965090 1_556
O3 Y3 2.238742 1_555
O3 Y4 2.238799 1_555
O4 Sb9 1.965060 1_555
O4 Y1 2.238759 1_455
O4 Y3 2.238788 1_555
O5 Sb4 1.965073 1_555
O5 Y5 2.238780 1_555
O5 Y2 2.238807 1_555
O6 Sb5 1.965043 1_555
O6 Y2 2.238766 1_555
O6 Y4 2.238816 1_554
O7 Sb5 1.965085 1_555
O7 Y5 2.238808 1_555
O7 Y3 2.238857 1_554
O8 Sb6 1.965081 1_565
O8 Y5 2.238748 1_555
O8 Y0 2.238814 1_555
O9 Sb7 1.965073 1_555
O9 Y4 2.238802 1_555
O9 Y0 2.238851 1_545
O10 Sb7 1.965021 1_555
O10 Y1 2.238737 1_555
O10 Y5 2.238825 1_545
O11 Sb6 1.965052 1_555
O11 Y1 2.238757 1_555
O11 Y4 2.238770 1_555
O12 Sb0 2.009468 1_555
O12 Sb9 2.202816 1_555
O12 Y3 2.584084 1_555
O12 Y0 2.584101 1_555
O13 Sb1 2.009499 1_555
O13 Sb9 2.202672 1_655
O13 Y2 2.584029 1_555
O13 Y1 2.584037 1_555
O14 Sb2 2.009604 1_556
O14 Sb8 2.202759 1_555
O14 Y3 2.584042 1_555
O14 Y1 2.584126 1_455
O15 Sb0 2.009594 1_555
O15 Sb5 2.202807 1_555
O15 Y2 2.584064 1_555
O15 Y5 2.584085 1_555
O16 Sb3 2.009568 1_565
O16 Sb8 2.202789 1_555
O16 Y0 2.584032 1_555
O16 Y2 2.584134 1_455
O17 Sb3 2.009559 1_555
O17 Sb5 2.202761 1_556
O17 Y3 2.584061 1_555
O17 Y4 2.584092 1_555
O18 Sb1 2.009667 1_565
O18 Sb4 2.202846 1_555
O18 Y3 2.584089 1_554
O18 Y5 2.584120 1_555
O19 Sb2 2.009492 1_655
O19 Sb4 2.202642 1_555
O19 Y4 2.584017 1_554
O19 Y2 2.584072 1_555
O20 Sb0 2.009593 1_555
O20 Sb7 2.202618 1_555
O20 Y1 2.584010 1_555
O20 Y4 2.584108 1_555
O21 Sb3 2.009540 1_655
O21 Sb6 2.202760 1_555
O21 Y5 2.584044 1_545
O21 Y1 2.584057 1_555
O22 Sb1 2.009600 1_556
O22 Sb6 2.202693 1_555
O22 Y0 2.584057 1_545
O22 Y4 2.584063 1_555
O23 Sb2 2.009546 1_555
O23 Sb7 2.202888 1_565
O23 Y5 2.584039 1_555
O23 Y0 2.584103 1_555
