# generated using pymatgen
data_Ba3Ti(FeO4)2
_symmetry_space_group_name_H-M   'P 1'
_cell_length_a   5.79986736
_cell_length_b   5.79986736
_cell_length_c   14.31381400
_cell_angle_alpha   90.00000000
_cell_angle_beta   90.00000000
_cell_angle_gamma   119.89700578
_symmetry_Int_Tables_number   1
_chemical_formula_structural   Ba3Ti(FeO4)2
_chemical_formula_sum   'Ba6 Ti2 Fe4 O16'
_cell_volume   417.41871490
_cell_formula_units_Z   2
loop_
 _symmetry_equiv_pos_site_id
 _symmetry_equiv_pos_as_xyz
  1  'x, y, z'
loop_
 _atom_site_type_symbol
 _atom_site_label
 _atom_site_symmetry_multiplicity
 _atom_site_fract_x
 _atom_site_fract_y
 _atom_site_fract_z
 _atom_site_occupancy
  Ba  Ba0  1  0.32745400  0.65842500  0.91595300  1
  Ba  Ba1  1  0.65842500  0.32745400  0.08404700  1
  Ba  Ba2  1  0.65842500  0.32745400  0.41595300  1
  Ba  Ba3  1  0.32745400  0.65842500  0.58404700  1
  Ba  Ba4  1  0.00938300  0.01984200  0.75000000  1
  Ba  Ba5  1  0.01984200  0.00938300  0.25000000  1
  Ti  Ti0  1  0.00638400  0.00638400  0.00000000  1
  Ti  Ti1  1  0.00638400  0.00638400  0.50000000  1
  Fe  Fe0  1  0.36273000  0.68433400  0.14903600  1
  Fe  Fe1  1  0.68433400  0.36273000  0.85096400  1
  Fe  Fe2  1  0.68433400  0.36273000  0.64903600  1
  Fe  Fe3  1  0.36273000  0.68433400  0.35096400  1
  O  O0  1  0.82574600  0.15017100  0.91504900  1
  O  O1  1  0.33097900  0.15443000  0.92167800  1
  O  O2  1  0.84283100  0.68116400  0.92124300  1
  O  O3  1  0.15017100  0.82574600  0.08495100  1
  O  O4  1  0.68116400  0.84283100  0.07875700  1
  O  O5  1  0.15443000  0.33097900  0.07832200  1
  O  O6  1  0.15017100  0.82574600  0.41504900  1
  O  O7  1  0.68116400  0.84283100  0.42124300  1
  O  O8  1  0.15443000  0.33097900  0.42167800  1
  O  O9  1  0.82574600  0.15017100  0.58495100  1
  O  O10  1  0.33097900  0.15443000  0.57832200  1
  O  O11  1  0.84283100  0.68116400  0.57875700  1
  O  O12  1  0.49332200  0.44071400  0.75000000  1
  O  O13  1  0.95821900  0.45739200  0.75000000  1
  O  O14  1  0.44071400  0.49332200  0.25000000  1
  O  O15  1  0.45739200  0.95821900  0.25000000  1
loop_
_geom_bond_atom_site_label_1
_geom_bond_atom_site_label_2
_geom_bond_distance
_geom_bond_site_symmetry_2
Ba0 O5 2.848761 1_556
Ba0 O1 2.867799 1_565
Ba0 O0 2.875730 1_565
Ba0 O2 2.879752 1_455
Ba0 O2 2.926597 1_555
Ba0 O4 2.931837 1_556
Ba0 O0 2.933594 1_455
Ba0 O1 2.934493 1_555
Ba0 O3 2.974103 1_556
Ba0 O13 3.016459 1_455
Ba0 O12 3.061606 1_555
Ba1 O1 2.848761 1_554
Ba1 O5 2.867799 1_655
Ba1 O3 2.875730 1_655
Ba1 O4 2.879752 1_545
Ba1 O4 2.926597 1_555
Ba1 O2 2.931837 1_554
Ba1 O3 2.933594 1_545
Ba1 O5 2.934493 1_555
Ba1 O0 2.974103 1_554
Ba1 O15 3.016459 1_545
Ba1 O14 3.061606 1_555
Ba2 O10 2.848761 1_555
Ba2 O8 2.867799 1_655
Ba2 O6 2.875730 1_655
Ba2 O7 2.879752 1_545
Ba2 O7 2.926597 1_555
Ba2 O11 2.931837 1_555
Ba2 O6 2.933594 1_545
Ba2 O8 2.934493 1_555
Ba2 O9 2.974103 1_555
Ba2 O15 3.016459 1_545
Ba2 O14 3.061606 1_555
Ba3 O8 2.848761 1_555
Ba3 O10 2.867799 1_565
Ba3 O9 2.875730 1_565
Ba3 O11 2.879752 1_455
Ba3 O11 2.926597 1_555
Ba3 O7 2.931837 1_555
Ba3 O9 2.933594 1_455
Ba3 O10 2.934493 1_555
Ba3 O6 2.974103 1_555
Ba3 O13 3.016459 1_455
Ba3 O12 3.061606 1_555
Ba4 O12 2.646979 1_555
Ba4 O13 2.697935 1_455
Ba4 O9 2.844227 1_455
Ba4 O0 2.844227 1_455
Ba4 O10 2.945431 1_555
Ba4 O1 2.945431 1_555
Ba4 O2 2.984641 1_445
Ba4 O11 2.984641 1_445
Ba4 O13 3.124833 1_445
Ba4 O12 3.196636 1_445
Ba5 O14 2.646979 1_555
Ba5 O15 2.697935 1_545
Ba5 O6 2.844227 1_545
Ba5 O3 2.844227 1_545
Ba5 O8 2.945431 1_555
Ba5 O5 2.945431 1_555
Ba5 O7 2.984641 1_445
Ba5 O4 2.984641 1_445
Ba5 O15 3.124833 1_445
Ba5 O14 3.196636 1_445
Fe0 O4 1.890892 1_555
Fe0 O14 2.004981 1_555
Fe0 O3 2.010453 1_555
Fe0 O15 2.010942 1_555
Fe0 O5 2.053276 1_555
Fe1 O2 1.890892 1_555
Fe1 O12 2.004981 1_555
Fe1 O0 2.010453 1_555
Fe1 O13 2.010942 1_555
Fe1 O1 2.053276 1_555
Fe2 O11 1.890892 1_555
Fe2 O12 2.004981 1_555
Fe2 O9 2.010453 1_555
Fe2 O13 2.010942 1_555
Fe2 O10 2.053276 1_555
Fe3 O7 1.890892 1_555
Fe3 O14 2.004981 1_555
Fe3 O6 2.010453 1_555
Fe3 O15 2.010942 1_555
Fe3 O8 2.053276 1_555
O0 Ti0 2.035354 1_656
O1 Ti0 1.981631 1_556
O2 Ti0 1.986163 1_666
O3 Ti0 2.035354 1_565
O4 Ti0 1.986163 1_665
O5 Ti0 1.981631 1_555
O6 Ti1 2.035354 1_565
O7 Ti1 1.986163 1_665
O8 Ti1 1.981631 1_555
O9 Ti1 2.035354 1_655
O10 Ti1 1.981631 1_555
O11 Ti1 1.986163 1_665
