# generated using pymatgen
data_CaAl2(SiO5)2
_symmetry_space_group_name_H-M   'P 1'
_cell_length_a   13.98693800
_cell_length_b   4.76203400
_cell_length_c   5.11773074
_cell_angle_alpha   76.81949374
_cell_angle_beta   90.00000000
_cell_angle_gamma   90.00000000
_symmetry_Int_Tables_number   1
_chemical_formula_structural   CaAl2(SiO5)2
_chemical_formula_sum   'Ca2 Al4 Si4 O20'
_cell_volume   331.89320354
_cell_formula_units_Z   2
loop_
 _symmetry_equiv_pos_site_id
 _symmetry_equiv_pos_as_xyz
  1  'x, y, z'
loop_
 _atom_site_type_symbol
 _atom_site_label
 _atom_site_symmetry_multiplicity
 _atom_site_fract_x
 _atom_site_fract_y
 _atom_site_fract_z
 _atom_site_occupancy
  Ca  Ca0  1  0.25000000  0.08961700  0.31593600  1
  Ca  Ca1  1  0.75000000  0.91038300  0.68406400  1
  Al  Al0  1  0.50000000  0.00000000  0.50000000  1
  Al  Al1  1  0.00000000  0.00000000  0.50000000  1
  Al  Al2  1  0.50000000  0.50000000  0.00000000  1
  Al  Al3  1  0.00000000  0.50000000  0.00000000  1
  Si  Si0  1  0.65719500  0.60545400  0.27259000  1
  Si  Si1  1  0.15719500  0.39454600  0.72741000  1
  Si  Si2  1  0.34280500  0.39454600  0.72741000  1
  Si  Si3  1  0.84280500  0.60545400  0.27259000  1
  O  O0  1  0.25000000  0.15692500  0.86825200  1
  O  O1  1  0.75000000  0.84307500  0.13174800  1
  O  O2  1  0.63228000  0.52004000  0.97436900  1
  O  O3  1  0.13228000  0.47996000  0.02563100  1
  O  O4  1  0.36772000  0.47996000  0.02563100  1
  O  O5  1  0.86772000  0.52004000  0.97436900  1
  O  O6  1  0.88542200  0.84327600  0.44173800  1
  O  O7  1  0.38542200  0.15672400  0.55826200  1
  O  O8  1  0.11457800  0.15672400  0.55826200  1
  O  O9  1  0.61457800  0.84327600  0.44173800  1
  O  O10  1  0.52325100  0.91783900  0.92067600  1
  O  O11  1  0.02325100  0.08216100  0.07932400  1
  O  O12  1  0.47674900  0.08216100  0.07932400  1
  O  O13  1  0.97674900  0.91783900  0.92067600  1
  O  O14  1  0.54916900  0.38505800  0.36992500  1
  O  O15  1  0.04916900  0.61494200  0.63007500  1
  O  O16  1  0.45083100  0.61494200  0.63007500  1
  O  O17  1  0.95083100  0.38505800  0.36992500  1
  O  O18  1  0.25000000  0.59586700  0.54836000  1
  O  O19  1  0.75000000  0.40413300  0.45164000  1
loop_
_geom_bond_atom_site_label_1
_geom_bond_atom_site_label_2
_geom_bond_distance
_geom_bond_site_symmetry_2
Ca0 O0 2.239888 1_554
Ca0 O8 2.325643 1_555
Ca0 O7 2.325643 1_555
Ca0 O18 2.380720 1_545
Ca1 O1 2.239888 1_556
Ca1 O6 2.325643 1_555
Ca1 O9 2.325643 1_555
Ca1 O19 2.380720 1_565
Al0 O7 1.820907 1_555
Al0 O9 1.820907 1_545
Al0 O14 1.929184 1_555
Al0 O16 1.929184 1_545
Al0 O10 2.123608 1_545
Al0 O12 2.123608 1_555
Al1 O8 1.820907 1_555
Al1 O6 1.820907 1_445
Al1 O17 1.929184 1_455
Al1 O15 1.929184 1_545
Al1 O13 2.123608 1_445
Al1 O11 2.123608 1_555
Al2 O4 1.855752 1_555
Al2 O2 1.855752 1_554
Al2 O10 1.965032 1_554
Al2 O12 1.965032 1_555
Al2 O14 1.970815 1_555
Al2 O16 1.970815 1_554
Al3 O3 1.855752 1_555
Al3 O5 1.855752 1_454
Al3 O11 1.965032 1_555
Al3 O13 1.965032 1_454
Al3 O17 1.970815 1_455
Al3 O15 1.970815 1_554
O0 Si2 1.764360 1_555
O0 Si1 1.764360 1_555
O1 Si3 1.764360 1_555
O1 Si0 1.764360 1_555
O2 Si0 1.702737 1_556
O3 Si1 1.702737 1_554
O4 Si2 1.702737 1_554
O5 Si3 1.702737 1_556
O6 Si3 1.683553 1_555
O7 Si2 1.683553 1_555
O8 Si1 1.683553 1_555
O9 Si0 1.683553 1_555
O10 O12 1.408656 1_566
O11 O13 1.408656 1_444
O14 Si0 1.842340 1_555
O15 Si1 1.842340 1_555
O16 Si2 1.842340 1_555
O17 Si3 1.842340 1_555
O18 Si2 1.744446 1_555
O18 Si1 1.744446 1_555
O19 Si3 1.744446 1_555
O19 Si0 1.744446 1_555
