# generated using pymatgen
data_BaSrI4
_symmetry_space_group_name_H-M   'P 1'
_cell_length_a   10.29408900
_cell_length_b   11.23137400
_cell_length_c   11.25234300
_cell_angle_alpha   90.00000000
_cell_angle_beta   90.00000000
_cell_angle_gamma   90.00000000
_symmetry_Int_Tables_number   1
_chemical_formula_structural   BaSrI4
_chemical_formula_sum   'Ba4 Sr4 I16'
_cell_volume   1300.95948000
_cell_formula_units_Z   4
loop_
 _symmetry_equiv_pos_site_id
 _symmetry_equiv_pos_as_xyz
  1  'x, y, z'
loop_
 _atom_site_type_symbol
 _atom_site_label
 _atom_site_symmetry_multiplicity
 _atom_site_fract_x
 _atom_site_fract_y
 _atom_site_fract_z
 _atom_site_occupancy
  Ba  Ba0  1  0.00176900  0.74455900  0.25000000  1
  Ba  Ba1  1  0.49823100  0.24455900  0.75000000  1
  Ba  Ba2  1  0.50176900  0.75544100  0.25000000  1
  Ba  Ba3  1  0.99823100  0.25544100  0.75000000  1
  Sr  Sr0  1  0.26019400  0.25030100  0.25000000  1
  Sr  Sr1  1  0.23980600  0.75030100  0.75000000  1
  Sr  Sr2  1  0.76019400  0.24969900  0.25000000  1
  Sr  Sr3  1  0.73980600  0.74969900  0.75000000  1
  I  I0  1  0.99040700  0.75665600  0.93879100  1
  I  I1  1  0.99040700  0.75665600  0.56120900  1
  I  I2  1  0.25174000  0.45503400  0.75000000  1
  I  I3  1  0.25569400  0.54526900  0.25000000  1
  I  I4  1  0.24430600  0.04526900  0.75000000  1
  I  I5  1  0.24826000  0.95503400  0.25000000  1
  I  I6  1  0.50959300  0.25665600  0.43879100  1
  I  I7  1  0.50959300  0.25665600  0.06120900  1
  I  I8  1  0.49040700  0.74334400  0.93879100  1
  I  I9  1  0.49040700  0.74334400  0.56120900  1
  I  I10  1  0.75174000  0.04496600  0.75000000  1
  I  I11  1  0.75569400  0.95473100  0.25000000  1
  I  I12  1  0.74430600  0.45473100  0.75000000  1
  I  I13  1  0.74826000  0.54496600  0.25000000  1
  I  I14  1  0.00959300  0.24334400  0.43879100  1
  I  I15  1  0.00959300  0.24334400  0.06120900  1
loop_
_geom_bond_atom_site_label_1
_geom_bond_atom_site_label_2
_geom_bond_distance
_geom_bond_site_symmetry_2
Ba0 I13 3.440273 1_455
Ba0 I3 3.441308 1_555
Ba0 I11 3.462476 1_455
Ba0 I5 3.467929 1_555
Ba0 I0 3.506416 1_454
Ba0 I1 3.506416 1_455
Ba1 I10 3.440273 1_555
Ba1 I4 3.441308 1_555
Ba1 I12 3.462476 1_555
Ba1 I2 3.467929 1_555
Ba1 I6 3.506416 1_555
Ba1 I7 3.506416 1_556
Ba2 I5 3.440273 1_555
Ba2 I11 3.441308 1_555
Ba2 I3 3.462476 1_555
Ba2 I13 3.467929 1_555
Ba2 I9 3.506416 1_555
Ba2 I8 3.506416 1_554
Ba3 I2 3.440273 1_655
Ba3 I12 3.441308 1_555
Ba3 I4 3.462476 1_655
Ba3 I10 3.467929 1_555
Ba3 I14 3.506416 1_655
Ba3 I15 3.506416 1_656
I0 Sr1 3.333036 1_655
I0 Sr3 3.342728 1_555
I1 Sr1 3.333036 1_655
I1 Sr3 3.342728 1_555
I2 Sr1 3.318529 1_555
I3 Sr0 3.313220 1_555
I4 Sr1 3.313220 1_545
I5 Sr0 3.318529 1_565
I6 Sr0 3.333036 1_555
I6 Sr2 3.342728 1_555
I7 Sr0 3.333036 1_555
I7 Sr2 3.342728 1_555
I8 Sr3 3.333036 1_555
I8 Sr1 3.342728 1_555
I9 Sr3 3.333036 1_555
I9 Sr1 3.342728 1_555
I10 Sr3 3.318529 1_545
I11 Sr2 3.313220 1_565
I12 Sr3 3.313220 1_555
I13 Sr2 3.318529 1_555
I14 Sr2 3.333036 1_455
I14 Sr0 3.342728 1_555
I15 Sr2 3.333036 1_455
I15 Sr0 3.342728 1_555
