# generated using pymatgen
data_NiP6(N2O11)2
_symmetry_space_group_name_H-M   'P 1'
_cell_length_a   13.17058400
_cell_length_b   9.10518100
_cell_length_c   9.46043892
_cell_angle_alpha   83.33318652
_cell_angle_beta   90.00000000
_cell_angle_gamma   90.00000000
_symmetry_Int_Tables_number   1
_chemical_formula_structural   NiP6(N2O11)2
_chemical_formula_sum   'Ni2 P12 N8 O44'
_cell_volume   1126.82962185
_cell_formula_units_Z   2
loop_
 _symmetry_equiv_pos_site_id
 _symmetry_equiv_pos_as_xyz
  1  'x, y, z'
loop_
 _atom_site_type_symbol
 _atom_site_label
 _atom_site_symmetry_multiplicity
 _atom_site_fract_x
 _atom_site_fract_y
 _atom_site_fract_z
 _atom_site_occupancy
  Ni  Ni0  1  0.50000000  0.50000000  0.00000000  1
  Ni  Ni1  1  0.00000000  0.00000000  0.00000000  1
  P  P0  1  0.83305400  0.19604400  0.14470700  1
  P  P1  1  0.33305400  0.30395600  0.85529300  1
  P  P2  1  0.16694600  0.80395600  0.85529300  1
  P  P3  1  0.66694600  0.69604400  0.14470700  1
  P  P4  1  0.83953900  0.23168500  0.45157500  1
  P  P5  1  0.33953900  0.26831500  0.54842500  1
  P  P6  1  0.16046100  0.76831500  0.54842500  1
  P  P7  1  0.66046100  0.73168500  0.45157500  1
  P  P8  1  0.94651800  0.44967900  0.24831700  1
  P  P9  1  0.44651800  0.05032100  0.75168300  1
  P  P10  1  0.05348200  0.55032100  0.75168300  1
  P  P11  1  0.55348200  0.94967900  0.24831700  1
  N  N0  1  0.14837600  0.18961800  0.50742600  1
  N  N1  1  0.64837600  0.31038200  0.49257400  1
  N  N2  1  0.85162400  0.81038200  0.49257400  1
  N  N3  1  0.35162400  0.68961800  0.50742600  1
  N  N4  1  0.64381500  0.03566300  0.77886200  1
  N  N5  1  0.14381500  0.46433700  0.22113800  1
  N  N6  1  0.35618500  0.96433700  0.22113800  1
  N  N7  1  0.85618500  0.53566300  0.77886200  1
  O  O0  1  0.91509300  0.08194800  0.15308900  1
  O  O1  1  0.41509300  0.41805200  0.84691100  1
  O  O2  1  0.08490700  0.91805200  0.84691100  1
  O  O3  1  0.58490700  0.58194800  0.15308900  1
  O  O4  1  0.89182400  0.36271600  0.13832300  1
  O  O5  1  0.39182400  0.13728400  0.86167700  1
  O  O6  1  0.10817600  0.63728400  0.86167700  1
  O  O7  1  0.60817600  0.86271600  0.13832300  1
  O  O8  1  0.78846500  0.18970900  0.31258000  1
  O  O9  1  0.28846500  0.31029100  0.68742000  1
  O  O10  1  0.21153500  0.81029100  0.68742000  1
  O  O11  1  0.71153500  0.68970900  0.31258000  1
  O  O12  1  0.74749600  0.21093700  0.04592700  1
  O  O13  1  0.24749600  0.28906300  0.95407300  1
  O  O14  1  0.25250400  0.78906300  0.95407300  1
  O  O15  1  0.75250400  0.71093700  0.04592700  1
  O  O16  1  0.74254400  0.32014800  0.52837900  1
  O  O17  1  0.24254400  0.17985200  0.47162100  1
  O  O18  1  0.25745600  0.67985200  0.47162100  1
  O  O19  1  0.75745600  0.82014800  0.52837900  1
  O  O20  1  0.55099300  0.11028700  0.22853700  1
  O  O21  1  0.05099300  0.38971300  0.77146300  1
  O  O22  1  0.44900700  0.88971300  0.77146300  1
  O  O23  1  0.94900700  0.61028700  0.22853700  1
  O  O24  1  0.88504500  0.12084400  0.55527400  1
  O  O25  1  0.38504500  0.37915600  0.44472600  1
  O  O26  1  0.11495500  0.87915600  0.44472600  1
  O  O27  1  0.61495500  0.62084400  0.55527400  1
  O  O28  1  0.56761300  0.12340800  0.75097400  1
  O  O29  1  0.06761300  0.37659200  0.24902600  1
  O  O30  1  0.43238700  0.87659200  0.24902600  1
  O  O31  1  0.93238700  0.62340800  0.75097400  1
  O  O32  1  0.90930100  0.37500500  0.40287800  1
  O  O33  1  0.40930100  0.12499500  0.59712200  1
  O  O34  1  0.09069900  0.62499500  0.59712200  1
  O  O35  1  0.59069900  0.87500500  0.40287800  1
  O  O36  1  0.90691600  0.08232100  0.85217100  1
  O  O37  1  0.40691600  0.41767900  0.14782900  1
  O  O38  1  0.09308400  0.91767900  0.14782900  1
  O  O39  1  0.59308400  0.58232100  0.85217100  1
  O  O40  1  0.62052100  0.44725800  0.89094900  1
  O  O41  1  0.12052100  0.05274200  0.10905100  1
  O  O42  1  0.37947900  0.55274200  0.10905100  1
  O  O43  1  0.87947900  0.94725800  0.89094900  1
loop_
_geom_bond_atom_site_label_1
_geom_bond_atom_site_label_2
_geom_bond_distance
_geom_bond_site_symmetry_2
Ni0 O39 1.943530 1_554
Ni0 O37 1.943530 1_555
Ni0 O42 1.982326 1_555
Ni0 O40 1.982326 1_554
Ni0 O3 2.038563 1_555
Ni0 O1 2.038563 1_554
Ni1 O36 1.943530 1_454
Ni1 O38 1.943530 1_545
Ni1 O43 1.982326 1_444
Ni1 O41 1.982326 1_555
Ni1 O0 2.038563 1_455
Ni1 O2 2.038563 1_544
N0 O17 1.291454 1_555
N1 O16 1.291454 1_555
N2 O19 1.291454 1_555
N3 O18 1.291454 1_555
N4 O28 1.290823 1_555
N5 O29 1.290823 1_555
N6 O30 1.290823 1_555
N7 O31 1.290823 1_555
O0 P0 1.494618 1_555
O1 P1 1.494618 1_555
O2 P2 1.494618 1_555
O3 P3 1.494618 1_555
O4 P8 1.555642 1_555
O4 P0 1.698394 1_555
O5 P9 1.555642 1_555
O5 P1 1.698394 1_555
O6 P10 1.555642 1_555
O6 P2 1.698394 1_555
O7 P11 1.555642 1_555
O7 P3 1.698394 1_555
O8 P4 1.563446 1_555
O8 P0 1.687946 1_555
O9 P5 1.563446 1_555
O9 P1 1.687946 1_555
O10 P6 1.563446 1_555
O10 P2 1.687946 1_555
O11 P7 1.563446 1_555
O11 P3 1.687946 1_555
O12 P0 1.460153 1_555
O13 P1 1.460153 1_555
O14 P2 1.460153 1_555
O15 P3 1.460153 1_555
O16 P4 1.715978 1_555
O17 P5 1.715978 1_555
O18 P6 1.715978 1_555
O19 P7 1.715978 1_555
O20 P11 1.452950 1_545
O21 P10 1.452950 1_555
O22 P9 1.452950 1_565
O23 P8 1.452950 1_555
O24 P4 1.452685 1_555
O25 P5 1.452685 1_555
O26 P6 1.452685 1_555
O27 P7 1.452685 1_555
O28 P9 1.727871 1_555
O29 P8 1.727871 1_455
O30 P11 1.727871 1_555
O31 P10 1.727871 1_655
O32 P8 1.615484 1_555
O32 P4 1.618568 1_555
O33 P9 1.615484 1_555
O33 P5 1.618568 1_555
O34 P10 1.615484 1_555
O34 P6 1.618568 1_555
O35 P11 1.615484 1_555
O35 P7 1.618568 1_555
O36 O43 1.293350 1_545
O37 O42 1.293350 1_555
O38 O41 1.293350 1_565
O39 O40 1.293350 1_555
