# generated using pymatgen
data_Ca6Si6O19
_symmetry_space_group_name_H-M   'P 1'
_cell_length_a   8.01824099
_cell_length_b   8.01824099
_cell_length_c   16.63296093
_cell_angle_alpha   88.79951247
_cell_angle_beta   88.79951247
_cell_angle_gamma   55.17972576
_symmetry_Int_Tables_number   1
_chemical_formula_structural   Ca6Si6O19
_chemical_formula_sum   'Ca12 Si12 O38'
_cell_volume   877.65055419
_cell_formula_units_Z   2
loop_
 _symmetry_equiv_pos_site_id
 _symmetry_equiv_pos_as_xyz
  1  'x, y, z'
loop_
 _atom_site_type_symbol
 _atom_site_label
 _atom_site_symmetry_multiplicity
 _atom_site_fract_x
 _atom_site_fract_y
 _atom_site_fract_z
 _atom_site_occupancy
  Ca  Ca0  1  0.87959000  0.62587400  0.75047600  1
  Ca  Ca1  1  0.62587400  0.87959000  0.25047600  1
  Ca  Ca2  1  0.12041000  0.37412600  0.24952400  1
  Ca  Ca3  1  0.37412600  0.12041000  0.74952400  1
  Ca  Ca4  1  0.53625500  0.79078800  0.57351000  1
  Ca  Ca5  1  0.79078800  0.53625500  0.07351000  1
  Ca  Ca6  1  0.46374500  0.20921200  0.42649000  1
  Ca  Ca7  1  0.20921200  0.46374400  0.92649000  1
  Ca  Ca8  1  0.04246300  0.28382000  0.57498400  1
  Ca  Ca9  1  0.28382000  0.04246300  0.07498400  1
  Ca  Ca10  1  0.95753700  0.71618000  0.42501600  1
  Ca  Ca11  1  0.71618000  0.95753700  0.92501600  1
  Si  Si0  1  0.21947400  0.54350600  0.60307500  1
  Si  Si1  1  0.54350600  0.21947400  0.10307500  1
  Si  Si2  1  0.78052600  0.45649400  0.39692500  1
  Si  Si3  1  0.45649400  0.78052600  0.89692500  1
  Si  Si4  1  0.79336100  0.96874500  0.60503300  1
  Si  Si5  1  0.96874500  0.79336100  0.10503300  1
  Si  Si6  1  0.20663900  0.03125500  0.39496700  1
  Si  Si7  1  0.03125500  0.20663900  0.89496700  1
  Si  Si8  1  0.64278300  0.39377100  0.67779300  1
  Si  Si9  1  0.39377100  0.64278300  0.17779300  1
  Si  Si10  1  0.35721700  0.60622900  0.32220700  1
  Si  Si11  1  0.60622900  0.35721700  0.82220700  1
  O  O0  1  0.11622200  0.88377800  0.75000000  1
  O  O1  1  0.88377800  0.11622200  0.25000000  1
  O  O2  1  0.03997400  0.78966100  0.60539900  1
  O  O3  1  0.78966100  0.03997400  0.10539900  1
  O  O4  1  0.96002600  0.21033900  0.39460100  1
  O  O5  1  0.21033900  0.96002600  0.89460100  1
  O  O6  1  0.67240900  0.92250300  0.67113900  1
  O  O7  1  0.92250300  0.67240900  0.17113900  1
  O  O8  1  0.32759100  0.07749700  0.32886100  1
  O  O9  1  0.07749700  0.32759100  0.82886100  1
  O  O10  1  0.17500500  0.41824100  0.66795700  1
  O  O11  1  0.41824100  0.17500500  0.16795700  1
  O  O12  1  0.82499500  0.58175900  0.33204300  1
  O  O13  1  0.58175900  0.82499500  0.83204300  1
  O  O14  1  0.42663400  0.53098800  0.62669800  1
  O  O15  1  0.53098800  0.42663400  0.12669800  1
  O  O16  1  0.57336600  0.46901200  0.37330200  1
  O  O17  1  0.46901200  0.57336600  0.87330200  1
  O  O18  1  0.78047600  0.17667400  0.62733700  1
  O  O19  1  0.17667400  0.78047600  0.12733700  1
  O  O20  1  0.21952400  0.82332600  0.37266300  1
  O  O21  1  0.82332600  0.21952400  0.87266300  1
  O  O22  1  0.70793400  0.97014200  0.51688100  1
  O  O23  1  0.97014200  0.70793400  0.01688100  1
  O  O24  1  0.29206600  0.02985800  0.48311900  1
  O  O25  1  0.02985800  0.29206600  0.98311900  1
  O  O26  1  0.22055900  0.46312200  0.51384700  1
  O  O27  1  0.46312200  0.22055900  0.01384700  1
  O  O28  1  0.77944100  0.53687800  0.48615300  1
  O  O29  1  0.53687800  0.77944100  0.98615300  1
  O  O30  1  0.75617300  0.50556800  0.66145700  1
  O  O31  1  0.50556800  0.75617300  0.16145700  1
  O  O32  1  0.24382700  0.49443200  0.33854300  1
  O  O33  1  0.49443200  0.24382700  0.83854300  1
  O  O34  1  0.25367000  0.00114600  0.65954700  1
  O  O35  1  0.00114600  0.25367000  0.15954700  1
  O  O36  1  0.74633000  0.99885400  0.34045300  1
  O  O37  1  0.99885400  0.74633000  0.84045300  1
loop_
_geom_bond_atom_site_label_1
_geom_bond_atom_site_label_2
_geom_bond_distance
_geom_bond_site_symmetry_2
Ca0 O37 2.293999 1_555
Ca0 O30 2.305113 1_555
Ca0 O9 2.357960 1_655
Ca0 O6 2.367731 1_555
Ca0 O13 2.386094 1_555
Ca0 O10 2.392137 1_655
Ca1 O36 2.293999 1_555
Ca1 O31 2.305113 1_555
Ca1 O8 2.357960 1_565
Ca1 O7 2.367731 1_555
Ca1 O12 2.386094 1_555
Ca1 O11 2.392137 1_565
Ca2 O35 2.293999 1_555
Ca2 O32 2.305113 1_555
Ca2 O7 2.357960 1_455
Ca2 O8 2.367731 1_555
Ca2 O11 2.386094 1_555
Ca2 O12 2.392137 1_455
Ca3 O34 2.293999 1_555
Ca3 O33 2.305113 1_555
Ca3 O6 2.357960 1_545
Ca3 O9 2.367731 1_555
Ca3 O10 2.386094 1_555
Ca3 O13 2.392137 1_545
Ca4 O24 2.342000 1_565
Ca4 O28 2.351589 1_555
Ca4 O34 2.372263 1_565
Ca4 O30 2.417014 1_555
Ca4 O6 2.531209 1_555
Ca4 O22 2.645740 1_555
Ca4 O14 2.806408 1_555
Ca5 O25 2.342000 1_654
Ca5 O29 2.351589 1_554
Ca5 O35 2.372263 1_655
Ca5 O31 2.417014 1_555
Ca5 O7 2.531209 1_555
Ca5 O23 2.645740 1_555
Ca5 O15 2.806408 1_555
Ca6 O22 2.342000 1_545
Ca6 O26 2.351589 1_555
Ca6 O36 2.372263 1_545
Ca6 O32 2.417014 1_555
Ca6 O8 2.531209 1_555
Ca6 O24 2.645740 1_555
Ca6 O16 2.806408 1_555
Ca7 O23 2.342003 1_456
Ca7 O27 2.351587 1_556
Ca7 O37 2.372268 1_455
Ca7 O33 2.417013 1_555
Ca7 O9 2.531204 1_555
Ca7 O25 2.645733 1_555
Ca7 O17 2.806414 1_555
Ca8 O34 2.359294 1_555
Ca8 O30 2.409828 1_455
Ca8 O24 2.415557 1_555
Ca8 O28 2.421980 1_455
Ca8 O10 2.475757 1_555
Ca8 O26 2.713433 1_555
Ca8 O18 2.803965 1_455
Ca9 O35 2.359294 1_555
Ca9 O31 2.409828 1_545
Ca9 O25 2.415557 1_554
Ca9 O29 2.421980 1_544
Ca9 O11 2.475757 1_555
Ca9 O27 2.713433 1_555
Ca9 O19 2.803965 1_545
Ca10 O36 2.359294 1_555
Ca10 O32 2.409828 1_655
Ca10 O22 2.415557 1_555
Ca10 O26 2.421980 1_655
Ca10 O12 2.475757 1_555
Ca10 O28 2.713433 1_555
Ca10 O20 2.803965 1_655
Ca11 O37 2.359294 1_555
Ca11 O33 2.409828 1_565
Ca11 O23 2.415557 1_556
Ca11 O27 2.421980 1_566
Ca11 O13 2.475757 1_555
Ca11 O29 2.713433 1_555
Ca11 O21 2.803965 1_565
O2 Si0 1.650858 1_555
O2 Si4 1.652139 1_455
O3 Si1 1.650858 1_555
O3 Si5 1.652139 1_545
O4 Si2 1.650858 1_555
O4 Si6 1.652139 1_655
O5 Si3 1.650858 1_555
O5 Si7 1.652139 1_565
O6 Si4 1.623548 1_555
O7 Si5 1.623548 1_555
O8 Si6 1.623548 1_555
O9 Si7 1.623548 1_555
O10 Si0 1.627281 1_555
O11 Si1 1.627281 1_555
O12 Si2 1.627281 1_555
O13 Si3 1.627281 1_555
O14 Si0 1.660985 1_555
O14 Si8 1.667762 1_555
O15 Si1 1.660985 1_555
O15 Si9 1.667762 1_555
O16 Si2 1.660985 1_555
O16 Si10 1.667762 1_555
O17 Si3 1.660985 1_555
O17 Si11 1.667762 1_555
O18 Si4 1.659982 1_545
O18 Si8 1.667636 1_555
O19 Si5 1.659982 1_455
O19 Si9 1.667636 1_555
O20 Si6 1.659982 1_565
O20 Si10 1.667636 1_555
O21 Si7 1.659982 1_655
O21 Si11 1.667636 1_555
O22 Si4 1.628427 1_555
O23 Si5 1.628427 1_555
O24 Si6 1.628427 1_555
O25 Si7 1.628427 1_555
O26 Si0 1.628273 1_555
O27 Si1 1.628273 1_555
O28 Si2 1.628273 1_555
O29 Si3 1.628273 1_555
O30 Si8 1.616850 1_555
O31 Si9 1.616850 1_555
O32 Si10 1.616850 1_555
O33 Si11 1.616850 1_555
