# generated using pymatgen
data_Ba4SrRe3ClO15
_symmetry_space_group_name_H-M   'P 1'
_cell_length_a   11.00376746
_cell_length_b   11.00376746
_cell_length_c   7.89237200
_cell_angle_alpha   90.00000000
_cell_angle_beta   90.00000000
_cell_angle_gamma   119.99999674
_symmetry_Int_Tables_number   1
_chemical_formula_structural   Ba4SrRe3ClO15
_chemical_formula_sum   'Ba8 Sr2 Re6 Cl2 O30'
_cell_volume   827.60098887
_cell_formula_units_Z   2
loop_
 _symmetry_equiv_pos_site_id
 _symmetry_equiv_pos_as_xyz
  1  'x, y, z'
loop_
 _atom_site_type_symbol
 _atom_site_label
 _atom_site_symmetry_multiplicity
 _atom_site_fract_x
 _atom_site_fract_y
 _atom_site_fract_z
 _atom_site_occupancy
  Ba  Ba0  1  0.73599400  0.00000000  0.76068700  1
  Ba  Ba1  1  0.26400600  0.26400600  0.76068700  1
  Ba  Ba2  1  0.00000000  0.73599400  0.76068700  1
  Ba  Ba3  1  0.26386000  0.00000000  0.26030500  1
  Ba  Ba4  1  0.73614000  0.73614000  0.26030500  1
  Ba  Ba5  1  0.00000000  0.26386000  0.26030500  1
  Ba  Ba6  1  0.33333300  0.66666700  0.50149800  1
  Ba  Ba7  1  0.66666700  0.33333300  0.50149800  1
  Sr  Sr0  1  0.66666700  0.33333300  0.00478100  1
  Sr  Sr1  1  0.33333300  0.66666700  0.00478100  1
  Re  Re0  1  0.60904200  0.00000000  0.20168000  1
  Re  Re1  1  0.39095800  0.39095800  0.20168000  1
  Re  Re2  1  0.00000000  0.60904200  0.20168000  1
  Re  Re3  1  0.39043300  0.00000000  0.70588400  1
  Re  Re4  1  0.60956700  0.60956700  0.70588400  1
  Re  Re5  1  0.00000000  0.39043300  0.70588400  1
  Cl  Cl0  1  0.00000000  0.00000000  0.03530300  1
  Cl  Cl1  1  0.00000000  0.00000000  0.53529400  1
  O  O0  1  0.60810700  0.86587800  0.05996200  1
  O  O1  1  0.25777100  0.39189300  0.05996200  1
  O  O2  1  0.13412200  0.74222900  0.05996200  1
  O  O3  1  0.74222900  0.13412200  0.05996200  1
  O  O4  1  0.86587800  0.60810700  0.05996200  1
  O  O5  1  0.39189300  0.25777100  0.05996200  1
  O  O6  1  0.38969100  0.13243700  0.56172600  1
  O  O7  1  0.74274600  0.61030900  0.56172600  1
  O  O8  1  0.86756300  0.25725400  0.56172600  1
  O  O9  1  0.25725400  0.86756300  0.56172600  1
  O  O10  1  0.13243700  0.38969100  0.56172600  1
  O  O11  1  0.61030900  0.74274600  0.56172600  1
  O  O12  1  0.42092300  0.86662300  0.24223900  1
  O  O13  1  0.44570000  0.57907700  0.24223900  1
  O  O14  1  0.13337700  0.55430000  0.24223900  1
  O  O15  1  0.55430000  0.13337700  0.24223900  1
  O  O16  1  0.86662300  0.42092300  0.24223900  1
  O  O17  1  0.57907700  0.44570000  0.24223900  1
  O  O18  1  0.57781800  0.13352000  0.75006800  1
  O  O19  1  0.55570200  0.42218200  0.75006800  1
  O  O20  1  0.86648000  0.44429800  0.75006800  1
  O  O21  1  0.44429800  0.86648000  0.75006800  1
  O  O22  1  0.13352000  0.57781800  0.75006800  1
  O  O23  1  0.42218200  0.55570200  0.75006800  1
  O  O24  1  0.70652600  0.00000000  0.37963300  1
  O  O25  1  0.29347400  0.29347400  0.37963300  1
  O  O26  1  0.00000000  0.70652600  0.37963300  1
  O  O27  1  0.29168400  0.00000000  0.88123900  1
  O  O28  1  0.70831600  0.70831600  0.88123900  1
  O  O29  1  0.00000000  0.29168400  0.88123900  1
loop_
_geom_bond_atom_site_label_1
_geom_bond_atom_site_label_2
_geom_bond_distance
_geom_bond_site_symmetry_2
Ba0 O3 2.767774 1_556
Ba0 O0 2.767774 1_546
Ba0 O18 2.784299 1_555
Ba0 O21 2.784299 1_545
Ba0 O11 2.911482 1_545
Ba0 O8 2.911482 1_555
Ba0 O24 3.024850 1_555
Ba0 O28 3.212810 1_545
Ba0 O29 3.212810 1_655
Ba0 Cl1 3.406437 1_655
Ba0 Cl0 3.624483 1_656
Ba1 O1 2.767774 1_556
Ba1 O5 2.767774 1_556
Ba1 O23 2.784299 1_555
Ba1 O19 2.784299 1_555
Ba1 O6 2.911481 1_555
Ba1 O10 2.911481 1_555
Ba1 O25 3.024850 1_555
Ba1 O27 3.212810 1_555
Ba1 O29 3.212810 1_555
Ba1 Cl1 3.406437 1_555
Ba1 Cl0 3.624483 1_556
Ba2 O2 2.767774 1_556
Ba2 O4 2.767774 1_456
Ba2 O22 2.784299 1_555
Ba2 O20 2.784299 1_455
Ba2 O7 2.911482 1_455
Ba2 O9 2.911482 1_555
Ba2 O26 3.024850 1_555
Ba2 O28 3.212810 1_455
Ba2 O27 3.212810 1_565
Ba2 Cl1 3.406437 1_565
Ba2 Cl0 3.624483 1_566
Ba3 O9 2.771711 1_545
Ba3 O6 2.771711 1_555
Ba3 O12 2.774493 1_545
Ba3 O15 2.774493 1_555
Ba3 O5 2.921356 1_555
Ba3 O2 2.921356 1_545
Ba3 O27 3.007355 1_554
Ba3 O25 3.220143 1_555
Ba3 O26 3.220143 1_545
Ba3 Cl0 3.403456 1_555
Ba3 Cl1 3.624957 1_555
Ba4 O7 2.771711 1_555
Ba4 O11 2.771711 1_555
Ba4 O13 2.774493 1_555
Ba4 O17 2.774493 1_555
Ba4 O4 2.921356 1_555
Ba4 O0 2.921356 1_555
Ba4 O28 3.007355 1_554
Ba4 O26 3.220143 1_655
Ba4 O24 3.220143 1_565
Ba4 Cl0 3.403456 1_665
Ba4 Cl1 3.624957 1_665
Ba5 O8 2.771711 1_455
Ba5 O10 2.771711 1_555
Ba5 O16 2.774493 1_455
Ba5 O14 2.774493 1_555
Ba5 O1 2.921356 1_555
Ba5 O3 2.921356 1_455
Ba5 O29 3.007355 1_554
Ba5 O25 3.220143 1_555
Ba5 O24 3.220143 1_455
Ba5 Cl0 3.403456 1_555
Ba5 Cl1 3.624957 1_555
Ba6 O22 2.736638 1_555
Ba6 O21 2.736639 1_555
Ba6 O23 2.736645 1_555
Ba6 O9 2.768432 1_555
Ba6 O10 2.768440 1_555
Ba6 O11 2.768442 1_555
Ba6 O12 2.799335 1_555
Ba6 O14 2.799335 1_555
Ba6 O13 2.799342 1_555
Ba7 O18 2.736638 1_555
Ba7 O20 2.736639 1_555
Ba7 O19 2.736645 1_555
Ba7 O8 2.768432 1_555
Ba7 O6 2.768440 1_555
Ba7 O7 2.768442 1_555
Ba7 O16 2.799335 1_555
Ba7 O15 2.799335 1_555
Ba7 O17 2.799342 1_555
O0 Re0 1.847720 1_565
O0 Sr1 2.740230 1_555
O1 Re1 1.847720 1_555
O1 Sr1 2.740233 1_555
O2 Re2 1.847720 1_555
O2 Sr1 2.740222 1_555
O3 Re0 1.847720 1_555
O3 Sr0 2.740222 1_555
O4 Re2 1.847720 1_655
O4 Sr0 2.740230 1_555
O5 Re1 1.847720 1_555
O5 Sr0 2.740233 1_555
O6 Re3 1.852074 1_555
O7 Re4 1.852074 1_555
O8 Re5 1.852074 1_655
O9 Re3 1.852074 1_565
O10 Re5 1.852074 1_555
O11 Re4 1.852074 1_555
O12 Re0 1.871731 1_565
O12 Sr1 2.676144 1_555
O13 Re1 1.871731 1_555
O13 Sr1 2.676151 1_555
O14 Re2 1.871731 1_555
O14 Sr1 2.676145 1_555
O15 Re0 1.871731 1_555
O15 Sr0 2.676145 1_555
O16 Re2 1.871731 1_655
O16 Sr0 2.676144 1_555
O17 Re1 1.871731 1_555
O17 Sr0 2.676151 1_555
O18 Re3 1.871462 1_555
O18 Sr0 2.771600 1_556
O19 Re4 1.871462 1_555
O19 Sr0 2.771607 1_556
O20 Re5 1.871462 1_655
O20 Sr0 2.771601 1_556
O21 Re3 1.871462 1_565
O21 Sr1 2.771601 1_556
O22 Re5 1.871462 1_555
O22 Sr1 2.771600 1_556
O23 Re4 1.871462 1_555
O23 Sr1 2.771607 1_556
O24 Re0 1.767259 1_555
O25 Re1 1.767260 1_555
O26 Re2 1.767259 1_555
O27 Re3 1.759570 1_555
O28 Re4 1.759570 1_555
O29 Re5 1.759570 1_555
