# generated using pymatgen
data_ZrFeGe2
_symmetry_space_group_name_H-M   'P 1'
_cell_length_a   7.98878100
_cell_length_b   9.23268900
_cell_length_c   10.24036200
_cell_angle_alpha   90.00000000
_cell_angle_beta   90.00000000
_cell_angle_gamma   90.00000000
_symmetry_Int_Tables_number   1
_chemical_formula_structural   ZrFeGe2
_chemical_formula_sum   'Zr12 Fe12 Ge24'
_cell_volume   755.30790830
_cell_formula_units_Z   12
loop_
 _symmetry_equiv_pos_site_id
 _symmetry_equiv_pos_as_xyz
  1  'x, y, z'
loop_
 _atom_site_type_symbol
 _atom_site_label
 _atom_site_symmetry_multiplicity
 _atom_site_fract_x
 _atom_site_fract_y
 _atom_site_fract_z
 _atom_site_occupancy
  Zr  Zr0  1  0.74645700  0.82690900  0.04896800  1
  Zr  Zr1  1  0.74645700  0.17309100  0.95103200  1
  Zr  Zr2  1  0.25354300  0.67309100  0.54896800  1
  Zr  Zr3  1  0.25354300  0.32690900  0.45103200  1
  Zr  Zr4  1  0.25354300  0.17309100  0.95103200  1
  Zr  Zr5  1  0.25354300  0.82690900  0.04896800  1
  Zr  Zr6  1  0.74645700  0.32690900  0.45103200  1
  Zr  Zr7  1  0.74645700  0.67309100  0.54896800  1
  Zr  Zr8  1  0.50000000  0.83575800  0.32225500  1
  Zr  Zr9  1  0.50000000  0.16424200  0.67774500  1
  Zr  Zr10  1  0.50000000  0.66424200  0.82225500  1
  Zr  Zr11  1  0.50000000  0.33575800  0.17774500  1
  Fe  Fe0  1  0.74925200  0.59209800  0.25209700  1
  Fe  Fe1  1  0.74925200  0.40790200  0.74790300  1
  Fe  Fe2  1  0.25074800  0.90790200  0.75209700  1
  Fe  Fe3  1  0.25074800  0.09209800  0.24790300  1
  Fe  Fe4  1  0.25074800  0.40790200  0.74790300  1
  Fe  Fe5  1  0.25074800  0.59209800  0.25209700  1
  Fe  Fe6  1  0.74925200  0.09209800  0.24790300  1
  Fe  Fe7  1  0.74925200  0.90790200  0.75209700  1
  Fe  Fe8  1  0.74627500  0.00000000  0.50000000  1
  Fe  Fe9  1  0.25372500  0.50000000  0.00000000  1
  Fe  Fe10  1  0.25372500  0.00000000  0.50000000  1
  Fe  Fe11  1  0.74627500  0.50000000  0.00000000  1
  Ge  Ge0  1  0.84371800  0.84285900  0.31943100  1
  Ge  Ge1  1  0.84371800  0.15714100  0.68056900  1
  Ge  Ge2  1  0.15628200  0.65714100  0.81943100  1
  Ge  Ge3  1  0.15628200  0.34285900  0.18056900  1
  Ge  Ge4  1  0.15628200  0.15714100  0.68056900  1
  Ge  Ge5  1  0.15628200  0.84285900  0.31943100  1
  Ge  Ge6  1  0.84371800  0.34285900  0.18056900  1
  Ge  Ge7  1  0.84371800  0.65714100  0.81943100  1
  Ge  Ge8  1  0.50000000  0.54001600  0.37905300  1
  Ge  Ge9  1  0.50000000  0.45998400  0.62094700  1
  Ge  Ge10  1  0.50000000  0.95998400  0.87905300  1
  Ge  Ge11  1  0.50000000  0.04001600  0.12094700  1
  Ge  Ge12  1  0.00000000  0.55268500  0.37940200  1
  Ge  Ge13  1  0.00000000  0.44731500  0.62059800  1
  Ge  Ge14  1  0.00000000  0.94731500  0.87940200  1
  Ge  Ge15  1  0.00000000  0.05268500  0.12059800  1
  Ge  Ge16  1  0.50000000  0.62878800  0.10299400  1
  Ge  Ge17  1  0.50000000  0.37121200  0.89700600  1
  Ge  Ge18  1  0.50000000  0.87121200  0.60299400  1
  Ge  Ge19  1  0.50000000  0.12878800  0.39700600  1
  Ge  Ge20  1  0.00000000  0.62278400  0.10140600  1
  Ge  Ge21  1  0.00000000  0.37721600  0.89859400  1
  Ge  Ge22  1  0.00000000  0.87721600  0.60140600  1
  Ge  Ge23  1  0.00000000  0.12278400  0.39859400  1
loop_
_geom_bond_atom_site_label_1
_geom_bond_atom_site_label_2
_geom_bond_distance
_geom_bond_site_symmetry_2
Fe0 Ge12 2.417563 1_655
Fe0 Ge8 2.426185 1_555
Fe0 Ge6 2.530082 1_555
Fe0 Ge0 2.530832 1_555
Fe0 Ge16 2.532002 1_555
Fe0 Ge20 2.544447 1_655
Fe1 Ge13 2.417563 1_655
Fe1 Ge9 2.426185 1_555
Fe1 Ge7 2.530082 1_555
Fe1 Ge1 2.530832 1_555
Fe1 Ge17 2.532002 1_555
Fe1 Ge21 2.544447 1_655
Fe2 Ge14 2.417563 1_555
Fe2 Ge10 2.426185 1_555
Fe2 Ge4 2.530082 1_565
Fe2 Ge2 2.530832 1_555
Fe2 Ge18 2.532002 1_555
Fe2 Ge22 2.544447 1_555
Fe3 Ge15 2.417563 1_555
Fe3 Ge11 2.426185 1_555
Fe3 Ge5 2.530082 1_545
Fe3 Ge3 2.530832 1_555
Fe3 Ge19 2.532002 1_555
Fe3 Ge23 2.544447 1_555
Fe4 Ge13 2.417563 1_555
Fe4 Ge9 2.426185 1_555
Fe4 Ge2 2.530082 1_555
Fe4 Ge4 2.530832 1_555
Fe4 Ge17 2.532002 1_555
Fe4 Ge21 2.544447 1_555
Fe5 Ge12 2.417563 1_555
Fe5 Ge8 2.426185 1_555
Fe5 Ge3 2.530082 1_555
Fe5 Ge5 2.530832 1_555
Fe5 Ge16 2.532002 1_555
Fe5 Ge20 2.544447 1_555
Fe6 Ge15 2.417563 1_655
Fe6 Ge11 2.426185 1_555
Fe6 Ge0 2.530082 1_545
Fe6 Ge6 2.530832 1_555
Fe6 Ge19 2.532002 1_555
Fe6 Ge23 2.544447 1_655
Fe7 Ge14 2.417563 1_655
Fe7 Ge10 2.426185 1_555
Fe7 Ge1 2.530082 1_565
Fe7 Ge7 2.530832 1_555
Fe7 Ge18 2.532002 1_555
Fe7 Ge22 2.544447 1_655
Fe8 Ge1 2.475893 1_555
Fe8 Ge0 2.475893 1_545
Fe8 Ge18 2.529240 1_545
Fe8 Ge19 2.529240 1_555
Fe8 Ge23 2.544012 1_655
Fe8 Ge22 2.544012 1_645
Fe9 Ge3 2.475893 1_555
Fe9 Ge2 2.475893 1_554
Fe9 Ge16 2.529240 1_555
Fe9 Ge17 2.529240 1_554
Fe9 Ge20 2.544012 1_555
Fe9 Ge21 2.544012 1_554
Fe10 Ge4 2.475893 1_555
Fe10 Ge5 2.475893 1_545
Fe10 Ge18 2.529240 1_545
Fe10 Ge19 2.529240 1_555
Fe10 Ge23 2.544012 1_555
Fe10 Ge22 2.544012 1_545
Fe11 Ge6 2.475893 1_555
Fe11 Ge7 2.475893 1_554
Fe11 Ge16 2.529240 1_555
Fe11 Ge17 2.529240 1_554
Fe11 Ge21 2.544012 1_654
Fe11 Ge20 2.544012 1_655
Ge0 Ge5 2.497005 1_655
Ge0 Zr8 2.746823 1_555
Ge0 Zr0 2.880332 1_555
Ge0 Zr7 2.930113 1_555
Ge1 Ge4 2.497005 1_655
Ge1 Zr9 2.746823 1_555
Ge1 Zr1 2.880332 1_555
Ge1 Zr6 2.930113 1_555
Ge2 Ge7 2.497005 1_455
Ge2 Zr10 2.746823 1_555
Ge2 Zr2 2.880332 1_555
Ge2 Zr5 2.930113 1_556
Ge3 Ge6 2.497005 1_455
Ge3 Zr11 2.746823 1_555
Ge3 Zr3 2.880332 1_555
Ge3 Zr4 2.930113 1_554
Ge4 Zr9 2.746823 1_555
Ge4 Zr4 2.880332 1_555
Ge4 Zr3 2.930113 1_555
Ge5 Zr8 2.746823 1_555
Ge5 Zr5 2.880332 1_555
Ge5 Zr2 2.930113 1_555
Ge6 Zr11 2.746823 1_555
Ge6 Zr6 2.880332 1_555
Ge6 Zr1 2.930113 1_554
Ge7 Zr10 2.746823 1_555
Ge7 Zr7 2.880332 1_555
Ge7 Zr0 2.930113 1_556
Ge8 Ge9 2.584942 1_555
Ge8 Zr8 2.791754 1_555
Ge8 Zr11 2.793936 1_555
Ge8 Zr6 2.879425 1_555
Ge8 Zr3 2.879425 1_555
Ge8 Zr7 2.900630 1_555
Ge8 Zr2 2.900630 1_555
Ge9 Zr9 2.791754 1_555
Ge9 Zr10 2.793936 1_555
Ge9 Zr7 2.879425 1_555
Ge9 Zr2 2.879425 1_555
Ge9 Zr6 2.900630 1_555
Ge9 Zr3 2.900630 1_555
Ge10 Ge11 2.584942 1_566
Ge10 Zr10 2.791754 1_555
Ge10 Zr9 2.793936 1_565
Ge10 Zr1 2.879425 1_565
Ge10 Zr4 2.879425 1_565
Ge10 Zr0 2.900630 1_556
Ge10 Zr5 2.900630 1_556
Ge11 Zr11 2.791754 1_555
Ge11 Zr8 2.793936 1_545
Ge11 Zr0 2.879425 1_545
Ge11 Zr5 2.879425 1_545
Ge11 Zr1 2.900630 1_554
Ge11 Zr4 2.900630 1_554
Ge12 Ge13 2.654620 1_555
Ge12 Zr2 2.890260 1_555
Ge12 Zr7 2.890260 1_455
Ge12 Zr3 2.997652 1_555
Ge12 Zr6 2.997652 1_455
Ge13 Zr3 2.890260 1_555
Ge13 Zr6 2.890260 1_455
Ge13 Zr2 2.997652 1_555
Ge13 Zr7 2.997652 1_455
Ge14 Ge15 2.654620 1_566
Ge14 Zr5 2.890260 1_556
Ge14 Zr0 2.890260 1_456
Ge14 Zr4 2.997652 1_565
Ge14 Zr1 2.997652 1_465
Ge15 Zr4 2.890260 1_554
Ge15 Zr1 2.890260 1_454
Ge15 Zr5 2.997652 1_545
Ge15 Zr0 2.997652 1_445
Ge16 Zr0 2.743820 1_555
Ge16 Zr5 2.743820 1_555
Ge16 Zr11 2.811662 1_555
Ge16 Zr10 2.893444 1_554
Ge16 Zr8 2.948377 1_555
Ge17 Zr1 2.743820 1_555
Ge17 Zr4 2.743820 1_555
Ge17 Zr10 2.811662 1_555
Ge17 Zr11 2.893444 1_556
Ge17 Zr9 2.948377 1_555
Ge18 Zr7 2.743820 1_555
Ge18 Zr2 2.743820 1_555
Ge18 Zr9 2.811662 1_565
Ge18 Zr8 2.893444 1_555
Ge18 Zr10 2.948377 1_555
Ge19 Zr6 2.743820 1_555
Ge19 Zr3 2.743820 1_555
Ge19 Zr8 2.811662 1_545
Ge19 Zr9 2.893444 1_555
Ge19 Zr11 2.948377 1_555
Ge20 Zr5 2.818298 1_555
Ge20 Zr0 2.818298 1_455
Ge21 Zr4 2.818298 1_555
Ge21 Zr1 2.818298 1_455
Ge22 Zr2 2.818298 1_555
Ge22 Zr7 2.818298 1_455
Ge23 Zr3 2.818298 1_555
Ge23 Zr6 2.818298 1_455
