# generated using pymatgen
data_Li3Mn2(PO4)3
_symmetry_space_group_name_H-M   'P 1'
_cell_length_a   8.54287314
_cell_length_b   12.50763515
_cell_length_c   8.64288037
_cell_angle_alpha   90.02659637
_cell_angle_beta   90.00638818
_cell_angle_gamma   92.05654028
_symmetry_Int_Tables_number   1
_chemical_formula_structural   Li3Mn2(PO4)3
_chemical_formula_sum   'Li12 Mn8 P12 O48'
_cell_volume   922.90669071
_cell_formula_units_Z   4
loop_
 _symmetry_equiv_pos_site_id
 _symmetry_equiv_pos_as_xyz
  1  'x, y, z'
loop_
 _atom_site_type_symbol
 _atom_site_label
 _atom_site_symmetry_multiplicity
 _atom_site_fract_x
 _atom_site_fract_y
 _atom_site_fract_z
 _atom_site_occupancy
  Li  Li0  1  0.08253867  0.69641483  0.09120326  1
  Li  Li1  1  0.08123207  0.75911528  0.69559045  1
  Li  Li2  1  0.21097849  0.17111520  0.78210279  1
  Li  Li3  1  0.28899030  0.32928545  0.28212543  1
  Li  Li4  1  0.41762383  0.73926482  0.19423095  1
  Li  Li5  1  0.41667072  0.80225926  0.59047934  1
  Li  Li6  1  0.58251511  0.19714857  0.40824421  1
  Li  Li7  1  0.58087872  0.26096653  0.80455604  1
  Li  Li8  1  0.71101651  0.67062868  0.71675430  1
  Li  Li9  1  0.78878916  0.82938232  0.21566672  1
  Li  Li10  1  0.91743462  0.23999730  0.30560908  1
  Li  Li11  1  0.91663281  0.30325860  0.90992550  1
  Mn  Mn0  1  0.24815554  0.90233011  0.03923856  1
  Mn  Mn1  1  0.25178410  0.59635807  0.53944557  1
  Mn  Mn2  1  0.25300698  0.39082850  0.95753506  1
  Mn  Mn3  1  0.24817265  0.11189401  0.45502957  1
  Mn  Mn4  1  0.75332516  0.89024184  0.54313580  1
  Mn  Mn5  1  0.74808300  0.61061138  0.04357823  1
  Mn  Mn6  1  0.74889370  0.40304506  0.46071791  1
  Mn  Mn7  1  0.74999260  0.09708791  0.95938024  1
  P  P0  1  0.96216260  0.50378484  0.75080891  1
  P  P1  1  0.89810890  0.13509968  0.61374076  1
  P  P2  1  0.90022677  0.84120854  0.90504183  1
  P  P3  1  0.60311003  0.36522692  0.11378337  1
  P  P4  1  0.60009269  0.65681069  0.40280698  1
  P  P5  1  0.53720188  0.99788168  0.24580705  1
  P  P6  1  0.46109780  0.00380806  0.74865111  1
  P  P7  1  0.39925891  0.34344825  0.59562359  1
  P  P8  1  0.03763299  0.49777084  0.25473022  1
  P  P9  1  0.10313305  0.86438695  0.38679470  1
  P  P10  1  0.39851829  0.63497766  0.88519968  1
  P  P11  1  0.10028095  0.15672346  0.09716463  1
  O  O0  1  0.17201825  0.44010197  0.17823697  1
  O  O1  1  0.91668542  0.14906904  0.10708675  1
  O  O2  1  0.92758517  0.40587411  0.32138080  1
  O  O3  1  0.92455651  0.83649842  0.40802452  1
  O  O4  1  0.89636835  0.42390831  0.62932264  1
  O  O5  1  0.87009500  0.01267022  0.61276782  1
  O  O6  1  0.86177732  0.17385975  0.78393991  1
  O  O7  1  0.85145955  0.80093329  0.74267389  1
  O  O8  1  0.05059267  0.43233535  0.86593891  1
  O  O9  1  0.08422548  0.85111142  0.89476260  1
  O  O10  1  0.07293289  0.59358763  0.68268213  1
  O  O11  1  0.07566504  0.16371353  0.59000336  1
  O  O12  1  0.10154154  0.57719100  0.37799681  1
  O  O13  1  0.13289400  0.98578451  0.39136736  1
  O  O14  1  0.14000628  0.82519378  0.21683571  1
  O  O15  1  0.13712453  0.24931983  0.97794237  1
  O  O16  1  0.15204701  0.19320157  0.26220297  1
  O  O17  1  0.94871321  0.56829931  0.13976626  1
  O  O18  1  0.17558021  0.05791044  0.03537213  1
  O  O19  1  0.19776910  0.80389697  0.50866106  1
  O  O20  1  0.30163137  0.69312264  0.00725324  1
  O  O21  1  0.32303584  0.44462843  0.53923306  1
  O  O22  1  0.32751850  0.06100500  0.66667320  1
  O  O23  1  0.36204854  0.67223510  0.71459468  1
  O  O24  1  0.35015091  0.30230455  0.75705909  1
  O  O25  1  0.37091413  0.51250032  0.88835068  1
  O  O26  1  0.36277322  0.25376595  0.47195198  1
  O  O27  1  0.39619226  0.92467869  0.87098955  1
  O  O28  1  0.42702876  0.90622501  0.17915723  1
  O  O29  1  0.41635670  0.64806065  0.39410155  1
  O  O30  1  0.42487965  0.33651341  0.09180324  1
  O  O31  1  0.44833498  0.06853482  0.36182929  1
  O  O32  1  0.55061458  0.93247530  0.63447793  1
  O  O33  1  0.57590963  0.66374020  0.90883301  1
  O  O34  1  0.58286303  0.35267101  0.60482323  1
  O  O35  1  0.57065688  0.09516658  0.81627250  1
  O  O36  1  0.59864442  0.07889266  0.12343880  1
  O  O37  1  0.63624214  0.74964146  0.52236389  1
  O  O38  1  0.63122787  0.48687399  0.11120521  1
  O  O39  1  0.65105593  0.69367352  0.23816235  1
  O  O40  1  0.64002341  0.32567428  0.28342270  1
  O  O41  1  0.67185522  0.94076789  0.32208793  1
  O  O42  1  0.67634752  0.55843968  0.46495957  1
  O  O43  1  0.69808546  0.30635219  0.99094055  1
  O  O44  1  0.80121257  0.19278050  0.49174558  1
  O  O45  1  0.82392818  0.94117447  0.96291393  1
  O  O46  1  0.82759304  0.56067508  0.83227789  1
  O  O47  1  0.86569714  0.75060389  0.02741433  1
loop_
_geom_bond_atom_site_label_1
_geom_bond_atom_site_label_2
_geom_bond_distance
_geom_bond_site_symmetry_2
Li0 O17 1.979950 1_455
Li0 O14 1.988960 1_555
Li0 O20 2.009265 1_555
Li0 O47 2.070057 1_455
Li1 O19 1.968816 1_555
Li1 O9 2.069780 1_555
Li1 O10 2.071982 1_555
Li1 O7 2.089470 1_455
Li2 O22 1.995137 1_555
Li2 O24 2.003305 1_555
Li2 O11 2.023153 1_555
Li2 O15 2.064656 1_555
Li3 O0 1.956087 1_555
Li3 O26 2.006285 1_555
Li3 O30 2.013619 1_555
Li3 O16 2.037685 1_555
Li4 O20 1.970850 1_555
Li4 O29 2.070382 1_555
Li4 O28 2.091063 1_555
Li4 O39 2.127850 1_555
Li5 O23 1.990115 1_555
Li5 O32 1.993030 1_555
Li5 O19 2.000006 1_555
Li5 O37 2.094449 1_555
Li6 O31 1.982326 1_555
Li6 O40 1.983552 1_555
Li6 O44 2.005355 1_555
Li6 O26 2.103311 1_555
Li7 O43 1.969214 1_555
Li7 O34 2.072765 1_555
Li7 O35 2.074990 1_555
Li7 O24 2.096225 1_555
Li8 O46 1.994849 1_555
Li8 O7 2.001297 1_555
Li8 O33 2.022128 1_555
Li8 O37 2.062532 1_555
Li9 O41 1.970719 1_555
Li9 O47 2.023618 1_555
Li9 O3 2.027109 1_555
Li9 O39 2.039717 1_555
Li10 O44 1.970232 1_555
Li10 O1 2.057945 1_555
Li10 O2 2.077839 1_555
Li10 O16 2.141157 1_655
Li11 O8 1.982090 1_655
Li11 O6 1.992118 1_555
Li11 O43 1.995747 1_555
Li11 O15 2.107161 1_655
Mn0 O27 1.941001 1_554
Mn0 O28 1.947828 1_555
Mn0 O9 1.966040 1_554
Mn0 O14 2.019460 1_555
Mn0 O18 2.063700 1_565
Mn1 O12 1.905033 1_555
Mn1 O10 1.965944 1_555
Mn1 O29 1.977049 1_555
Mn1 O23 2.003435 1_555
Mn1 O21 2.013699 1_555
Mn2 O25 1.891838 1_555
Mn2 O8 1.987681 1_555
Mn2 O15 2.004596 1_555
Mn2 O30 2.008981 1_556
Mn2 O0 2.127645 1_556
Mn2 O24 2.231897 1_555
Mn3 O13 1.910016 1_545
Mn3 O31 1.983280 1_555
Mn3 O26 2.000924 1_555
Mn3 O11 2.005246 1_555
Mn3 O22 2.059705 1_555
Mn3 O16 2.132430 1_555
Mn4 O5 1.895130 1_565
Mn4 O32 1.991670 1_555
Mn4 O37 1.999675 1_555
Mn4 O3 2.006372 1_555
Mn4 O41 2.136853 1_555
Mn4 O7 2.234608 1_555
Mn5 O38 1.903558 1_555
Mn5 O47 1.992227 1_555
Mn5 O17 1.993503 1_555
Mn5 O33 2.007921 1_554
Mn5 O46 2.053366 1_554
Mn5 O39 2.157598 1_555
Mn6 O4 1.937653 1_555
Mn6 O2 1.943816 1_555
Mn6 O34 1.974080 1_555
Mn6 O40 2.020716 1_555
Mn6 O42 2.061428 1_555
Mn7 O36 1.927083 1_556
Mn7 O35 1.968367 1_555
Mn7 O1 2.003171 1_556
Mn7 O6 2.017191 1_555
Mn7 O45 2.071535 1_545
O0 P8 1.527908 1_555
O1 P11 1.570275 1_655
O2 P8 1.568438 1_655
O3 P9 1.563520 1_655
O4 P0 1.541146 1_555
O5 P1 1.541402 1_555
O6 P1 1.582869 1_555
O7 P2 1.542986 1_555
O8 P0 1.551961 1_455
O9 P2 1.574834 1_455
O10 P0 1.558285 1_455
O11 P1 1.559537 1_455
O12 P8 1.542670 1_555
O13 P9 1.531001 1_555
O14 P9 1.583611 1_555
O15 P11 1.573911 1_556
O16 P11 1.556646 1_555
O17 P8 1.546362 1_655
O18 P11 1.510973 1_555
O19 P9 1.542686 1_555
O20 P10 1.539306 1_554
O21 P7 1.524057 1_555
O22 P6 1.541075 1_555
O23 P10 1.580945 1_555
O24 P7 1.540421 1_555
O25 P10 1.541813 1_555
O26 P7 1.572137 1_555
O27 P6 1.538413 1_565
O28 P5 1.566446 1_555
O29 P4 1.571313 1_555
O30 P3 1.563331 1_555
O31 P5 1.552521 1_545
O32 P6 1.550131 1_565
O33 P10 1.558336 1_555
O34 P7 1.570611 1_555
O35 P6 1.563902 1_555
O36 P5 1.543923 1_545
O37 P4 1.576176 1_555
O38 P3 1.531996 1_555
O39 P4 1.553516 1_555
O40 P3 1.582912 1_555
O41 P5 1.525603 1_555
O42 P4 1.511571 1_555
O43 P3 1.539532 1_556
O44 P1 1.536493 1_555
O45 P2 1.515376 1_555
O46 P0 1.543420 1_555
O47 P2 1.570696 1_554
