# generated using pymatgen
data_NaGdSiO4
_symmetry_space_group_name_H-M   'P 1'
_cell_length_a   8.77864779
_cell_length_b   8.77864779
_cell_length_c   8.77864779
_cell_angle_alpha   95.40626186
_cell_angle_beta   95.40626186
_cell_angle_gamma   144.24919412
_symmetry_Int_Tables_number   1
_chemical_formula_structural   NaGdSiO4
_chemical_formula_sum   'Na4 Gd4 Si4 O16'
_cell_volume   376.18535771
_cell_formula_units_Z   4
loop_
 _symmetry_equiv_pos_site_id
 _symmetry_equiv_pos_as_xyz
  1  'x, y, z'
loop_
 _atom_site_type_symbol
 _atom_site_label
 _atom_site_symmetry_multiplicity
 _atom_site_fract_x
 _atom_site_fract_y
 _atom_site_fract_z
 _atom_site_occupancy
  Na  Na0  1  0.39297900  0.08660900  0.47958800  1
  Na  Na1  1  0.08660900  0.60702100  0.69363000  1
  Na  Na2  1  0.91339100  0.39297900  0.30637000  1
  Na  Na3  1  0.60702100  0.91339100  0.52041200  1
  Gd  Gd0  1  0.87910900  0.80907500  0.68818400  1
  Gd  Gd1  1  0.80907500  0.12089000  0.92996500  1
  Gd  Gd2  1  0.19092600  0.87910900  0.07003500  1
  Gd  Gd3  1  0.12089100  0.19092500  0.31181600  1
  Si  Si0  1  0.26217600  0.40166800  0.66384300  1
  Si  Si1  1  0.40166800  0.73782400  0.13949200  1
  Si  Si2  1  0.59833300  0.26217600  0.86050800  1
  Si  Si3  1  0.73782400  0.59833300  0.33615700  1
  O  O0  1  0.43576200  0.28332200  0.23286900  1
  O  O1  1  0.28332200  0.05045300  0.84756000  1
  O  O2  1  0.20289300  0.43576200  0.15244000  1
  O  O3  1  0.05045300  0.20289300  0.76713100  1
  O  O4  1  0.56423800  0.71667800  0.76713100  1
  O  O5  1  0.71667800  0.94954700  0.15244000  1
  O  O6  1  0.79710700  0.56423800  0.84756000  1
  O  O7  1  0.94954700  0.79710700  0.23286900  1
  O  O8  1  0.30493100  0.26782500  0.57275500  1
  O  O9  1  0.26782500  0.69506900  0.96289400  1
  O  O10  1  0.73217500  0.30493100  0.03710600  1
  O  O11  1  0.69507000  0.73217500  0.42724500  1
  O  O12  1  0.12118900  0.39634800  0.51753600  1
  O  O13  1  0.39634800  0.87881100  0.27515900  1
  O  O14  1  0.60365200  0.12118800  0.72484100  1
  O  O15  1  0.87881100  0.60365200  0.48246400  1
loop_
_geom_bond_atom_site_label_1
_geom_bond_atom_site_label_2
_geom_bond_distance
_geom_bond_site_symmetry_2
Na0 O8 2.380525 1_555
Na0 O13 2.455574 1_545
Na0 O14 2.522536 1_555
Na0 O15 2.707281 1_555
Na0 O15 2.707286 1_445
Na0 O0 2.760332 1_555
Na0 O7 2.760332 1_445
Na1 O9 2.380528 1_555
Na1 O15 2.455568 1_455
Na1 O12 2.522536 1_555
Na1 O14 2.707281 1_565
Na1 O14 2.707286 1_455
Na1 O6 2.760332 1_455
Na1 O1 2.760332 1_565
Na2 O10 2.380528 1_555
Na2 O12 2.455568 1_655
Na2 O15 2.522536 1_555
Na2 O13 2.707284 1_545
Na2 O13 2.707284 1_655
Na2 O2 2.760332 1_655
Na2 O5 2.760332 1_545
Na3 O11 2.380533 1_555
Na3 O14 2.455568 1_565
Na3 O13 2.522531 1_555
Na3 O12 2.707281 1_555
Na3 O12 2.707286 1_665
Na3 O3 2.760332 1_665
Na3 O4 2.760332 1_555
Gd0 O1 2.310936 1_665
Gd0 O6 2.310936 1_555
Gd0 O11 2.356724 1_555
Gd0 O4 2.367799 1_555
Gd0 O3 2.367799 1_665
Gd0 O15 2.427186 1_555
Gd0 O8 2.875159 1_555
Gd0 O8 2.875164 1_665
Gd1 O3 2.310926 1_655
Gd1 O4 2.310926 1_545
Gd1 O10 2.356746 1_556
Gd1 O2 2.367803 1_656
Gd1 O5 2.367803 1_546
Gd1 O14 2.427186 1_555
Gd1 O9 2.875162 1_655
Gd1 O9 2.875162 1_545
Gd2 O0 2.310936 1_565
Gd2 O7 2.310936 1_455
Gd2 O9 2.356730 1_554
Gd2 O6 2.367808 1_454
Gd2 O1 2.367808 1_564
Gd2 O13 2.427181 1_555
Gd2 O10 2.875156 1_455
Gd2 O10 2.875156 1_565
Gd3 O2 2.310936 1_555
Gd3 O5 2.310936 1_445
Gd3 O8 2.356727 1_555
Gd3 O7 2.367799 1_445
Gd3 O0 2.367799 1_555
Gd3 O12 2.427186 1_555
Gd3 O11 2.875162 1_445
Gd3 O11 2.875162 1_555
O0 Si3 1.634954 1_555
O1 Si2 1.634955 1_555
O2 Si1 1.634949 1_555
O3 Si0 1.634955 1_555
O4 Si0 1.634951 1_555
O5 Si1 1.634949 1_555
O6 Si2 1.634951 1_555
O7 Si3 1.634954 1_555
O8 Si0 1.660159 1_555
O9 Si1 1.660159 1_556
O10 Si2 1.660155 1_554
O11 Si3 1.660144 1_555
O12 Si0 1.667027 1_555
O13 Si1 1.667027 1_555
O14 Si2 1.667027 1_555
O15 Si3 1.667033 1_555
