# generated using pymatgen
data_UH24C8N2(Cl2O)2
_symmetry_space_group_name_H-M   'P 1'
_cell_length_a   9.33421200
_cell_length_b   9.33421200
_cell_length_c   12.24277200
_cell_angle_alpha   90.00000000
_cell_angle_beta   90.00000000
_cell_angle_gamma   90.00000000
_symmetry_Int_Tables_number   1
_chemical_formula_structural   UH24C8N2(Cl2O)2
_chemical_formula_sum   'U2 H48 C16 N4 Cl8 O4'
_cell_volume   1066.68228468
_cell_formula_units_Z   2
loop_
 _symmetry_equiv_pos_site_id
 _symmetry_equiv_pos_as_xyz
  1  'x, y, z'
loop_
 _atom_site_type_symbol
 _atom_site_label
 _atom_site_symmetry_multiplicity
 _atom_site_fract_x
 _atom_site_fract_y
 _atom_site_fract_z
 _atom_site_occupancy
  U  U0  1  0.50000000  0.50000000  0.50000000  1
  U  U1  1  0.00000000  0.00000000  0.00000000  1
  H  H0  1  0.47201100  0.15567700  0.12627600  1
  H  H1  1  0.52798900  0.84432300  0.12627600  1
  H  H2  1  0.02798900  0.65567700  0.62627600  1
  H  H3  1  0.97201100  0.34432300  0.62627600  1
  H  H4  1  0.52798900  0.84432300  0.87372400  1
  H  H5  1  0.47201100  0.15567700  0.87372400  1
  H  H6  1  0.97201100  0.34432300  0.37372400  1
  H  H7  1  0.02798900  0.65567700  0.37372400  1
  H  H8  1  0.15567700  0.47201100  0.12627600  1
  H  H9  1  0.84432300  0.52798900  0.12627600  1
  H  H10  1  0.65567700  0.02798900  0.62627600  1
  H  H11  1  0.34432300  0.97201100  0.62627600  1
  H  H12  1  0.84432300  0.52798900  0.87372400  1
  H  H13  1  0.15567700  0.47201100  0.87372400  1
  H  H14  1  0.34432300  0.97201100  0.37372400  1
  H  H15  1  0.65567700  0.02798900  0.37372400  1
  H  H16  1  0.59830400  0.20327300  0.23087100  1
  H  H17  1  0.40169600  0.79672700  0.23087100  1
  H  H18  1  0.90169600  0.70327300  0.73087100  1
  H  H19  1  0.09830400  0.29672700  0.73087100  1
  H  H20  1  0.40169600  0.79672700  0.76912900  1
  H  H21  1  0.59830400  0.20327300  0.76912900  1
  H  H22  1  0.09830400  0.29672700  0.26912900  1
  H  H23  1  0.90169600  0.70327300  0.26912900  1
  H  H24  1  0.20327300  0.59830400  0.23087100  1
  H  H25  1  0.79672700  0.40169600  0.23087100  1
  H  H26  1  0.70327300  0.90169600  0.73087100  1
  H  H27  1  0.29672700  0.09830400  0.73087100  1
  H  H28  1  0.79672700  0.40169600  0.76912900  1
  H  H29  1  0.20327300  0.59830400  0.76912900  1
  H  H30  1  0.29672700  0.09830400  0.26912900  1
  H  H31  1  0.70327300  0.90169600  0.26912900  1
  H  H32  1  0.64568300  0.07173000  0.12898900  1
  H  H33  1  0.35431700  0.92827000  0.12898900  1
  H  H34  1  0.85431700  0.57173000  0.62898900  1
  H  H35  1  0.14568300  0.42827000  0.62898900  1
  H  H36  1  0.35431700  0.92827000  0.87101100  1
  H  H37  1  0.64568300  0.07173000  0.87101100  1
  H  H38  1  0.14568300  0.42827000  0.37101100  1
  H  H39  1  0.85431700  0.57173000  0.37101100  1
  H  H40  1  0.07173000  0.64568300  0.12898900  1
  H  H41  1  0.92827000  0.35431700  0.12898900  1
  H  H42  1  0.57173000  0.85431700  0.62898900  1
  H  H43  1  0.42827000  0.14568300  0.62898900  1
  H  H44  1  0.92827000  0.35431700  0.87101100  1
  H  H45  1  0.07173000  0.64568300  0.87101100  1
  H  H46  1  0.42827000  0.14568300  0.37101100  1
  H  H47  1  0.57173000  0.85431700  0.37101100  1
  C  C0  1  0.55908900  0.11669200  0.17860400  1
  C  C1  1  0.44091100  0.88330800  0.17860400  1
  C  C2  1  0.94091100  0.61669200  0.67860400  1
  C  C3  1  0.05908900  0.38330800  0.67860400  1
  C  C4  1  0.44091100  0.88330800  0.82139600  1
  C  C5  1  0.55908900  0.11669200  0.82139600  1
  C  C6  1  0.05908900  0.38330800  0.32139600  1
  C  C7  1  0.94091100  0.61669200  0.32139600  1
  C  C8  1  0.11669200  0.55908900  0.17860400  1
  C  C9  1  0.88330800  0.44091100  0.17860400  1
  C  C10  1  0.61669200  0.94091100  0.67860400  1
  C  C11  1  0.38330800  0.05908900  0.67860400  1
  C  C12  1  0.88330800  0.44091100  0.82139600  1
  C  C13  1  0.11669200  0.55908900  0.82139600  1
  C  C14  1  0.38330800  0.05908900  0.32139600  1
  C  C15  1  0.61669200  0.94091100  0.32139600  1
  N  N0  1  0.50000000  0.00000000  0.25000000  1
  N  N1  1  0.00000000  0.50000000  0.75000000  1
  N  N2  1  0.50000000  0.00000000  0.75000000  1
  N  N3  1  0.00000000  0.50000000  0.25000000  1
  Cl  Cl0  1  0.50000000  0.50000000  0.28292000  1
  Cl  Cl1  1  0.00000000  0.00000000  0.78292000  1
  Cl  Cl2  1  0.50000000  0.50000000  0.71708000  1
  Cl  Cl3  1  0.00000000  0.00000000  0.21708000  1
  Cl  Cl4  1  0.70397300  0.29602700  0.50000000  1
  Cl  Cl5  1  0.29602700  0.70397300  0.50000000  1
  Cl  Cl6  1  0.79602700  0.79602700  0.00000000  1
  Cl  Cl7  1  0.20397300  0.20397300  0.00000000  1
  O  O0  1  0.36226300  0.36226300  0.50000000  1
  O  O1  1  0.63773700  0.63773700  0.50000000  1
  O  O2  1  0.13773700  0.86226300  0.00000000  1
  O  O3  1  0.86226300  0.13773700  0.00000000  1
loop_
_geom_bond_atom_site_label_1
_geom_bond_atom_site_label_2
_geom_bond_distance
_geom_bond_site_symmetry_2
C0 H16 1.093883 1_555
C0 H32 1.094727 1_555
C0 H0 1.097037 1_555
C0 N0 1.501549 1_555
C1 H17 1.093883 1_555
C1 H33 1.094727 1_555
C1 H1 1.097037 1_555
C1 N0 1.501549 1_565
C2 H18 1.093883 1_555
C2 H34 1.094727 1_555
C2 H2 1.097037 1_655
C2 N1 1.501549 1_655
C3 H19 1.093883 1_555
C3 H35 1.094727 1_555
C3 H3 1.097037 1_455
C3 N1 1.501549 1_555
C4 H20 1.093883 1_555
C4 H36 1.094727 1_555
C4 H4 1.097037 1_555
C4 N2 1.501549 1_565
C5 H21 1.093883 1_555
C5 H37 1.094727 1_555
C5 H5 1.097037 1_555
C5 N2 1.501549 1_555
C6 H22 1.093883 1_555
C6 H38 1.094727 1_555
C6 H6 1.097037 1_455
C6 N3 1.501549 1_555
C7 H23 1.093883 1_555
C7 H39 1.094727 1_555
C7 H7 1.097037 1_655
C7 N3 1.501549 1_655
C8 H24 1.093883 1_555
C8 H40 1.094727 1_555
C8 H8 1.097037 1_555
C8 N3 1.501549 1_555
C9 H25 1.093883 1_555
C9 H41 1.094727 1_555
C9 H9 1.097037 1_555
C9 N3 1.501549 1_655
C10 H26 1.093883 1_555
C10 H42 1.094727 1_555
C10 H10 1.097037 1_565
C10 N2 1.501549 1_565
C11 H27 1.093883 1_555
C11 H43 1.094727 1_555
C11 H11 1.097037 1_545
C11 N2 1.501549 1_555
C12 H28 1.093883 1_555
C12 H44 1.094727 1_555
C12 H12 1.097037 1_555
C12 N1 1.501549 1_655
C13 H29 1.093883 1_555
C13 H45 1.094727 1_555
C13 H13 1.097037 1_555
C13 N1 1.501549 1_555
C14 H30 1.093883 1_555
C14 H46 1.094727 1_555
C14 H14 1.097037 1_545
C14 N0 1.501549 1_555
C15 H31 1.093883 1_555
C15 H47 1.094727 1_555
C15 H15 1.097037 1_565
C15 N0 1.501549 1_565
Cl0 U0 2.657661 1_555
Cl1 U1 2.657661 1_556
Cl2 U0 2.657661 1_555
Cl3 U1 2.657661 1_555
Cl4 U0 2.692560 1_555
Cl5 U0 2.692560 1_555
Cl6 U1 2.692560 1_665
Cl7 U1 2.692560 1_555
O0 U0 1.818207 1_555
O1 U0 1.818207 1_555
O2 U1 1.818207 1_565
O3 U1 1.818207 1_655
