# generated using pymatgen
data_V2H15(NO4)3
_symmetry_space_group_name_H-M   'P 1'
_cell_length_a   10.65949000
_cell_length_b   8.14240200
_cell_length_c   17.62585003
_cell_angle_alpha   85.39833749
_cell_angle_beta   90.00000000
_cell_angle_gamma   90.00000000
_symmetry_Int_Tables_number   1
_chemical_formula_structural   V2H15(NO4)3
_chemical_formula_sum   'V8 H60 N12 O48'
_cell_volume   1524.88414899
_cell_formula_units_Z   4
loop_
 _symmetry_equiv_pos_site_id
 _symmetry_equiv_pos_as_xyz
  1  'x, y, z'
loop_
 _atom_site_type_symbol
 _atom_site_label
 _atom_site_symmetry_multiplicity
 _atom_site_fract_x
 _atom_site_fract_y
 _atom_site_fract_z
 _atom_site_occupancy
  V  V0  1  0.19110200  0.77450700  0.93490900  1
  V  V1  1  0.69110200  0.22549300  0.56509100  1
  V  V2  1  0.80889800  0.22549300  0.06509100  1
  V  V3  1  0.30889800  0.77450700  0.43490900  1
  V  V4  1  0.40139400  0.72112500  0.80689700  1
  V  V5  1  0.90139400  0.27887500  0.69310300  1
  V  V6  1  0.59860600  0.27887500  0.19310300  1
  V  V7  1  0.09860600  0.72112500  0.30689700  1
  H  H0  1  0.33575200  0.64561500  0.68295600  1
  H  H1  1  0.83575200  0.35438500  0.81704400  1
  H  H2  1  0.66424800  0.35438500  0.31704400  1
  H  H3  1  0.16424800  0.64561500  0.18295600  1
  H  H4  1  0.25520800  0.29330300  0.61535400  1
  H  H5  1  0.75520800  0.70669700  0.88464600  1
  H  H6  1  0.74479200  0.70669700  0.38464600  1
  H  H7  1  0.24479200  0.29330300  0.11535400  1
  H  H8  1  0.41566600  0.24610800  0.60281000  1
  H  H9  1  0.91566600  0.75389200  0.89719000  1
  H  H10  1  0.58433400  0.75389200  0.39719000  1
  H  H11  1  0.08433400  0.24610800  0.10281000  1
  H  H12  1  0.08211900  0.04418800  0.83060500  1
  H  H13  1  0.58211900  0.95581200  0.66939500  1
  H  H14  1  0.91788100  0.95581200  0.16939500  1
  H  H15  1  0.41788100  0.04418800  0.33060500  1
  H  H16  1  0.64452200  0.77587800  0.72965800  1
  H  H17  1  0.14452200  0.22412200  0.77034200  1
  H  H18  1  0.35547800  0.22412200  0.27034200  1
  H  H19  1  0.85547800  0.77587800  0.22965800  1
  H  H20  1  0.34773100  0.42818500  0.55740500  1
  H  H21  1  0.84773100  0.57181500  0.94259500  1
  H  H22  1  0.65226900  0.57181500  0.44259500  1
  H  H23  1  0.15226900  0.42818500  0.05740500  1
  H  H24  1  0.60473400  0.93039000  0.49869000  1
  H  H25  1  0.10473400  0.06961000  0.00131000  1
  H  H26  1  0.39526600  0.06961000  0.50131000  1
  H  H27  1  0.89526600  0.93039000  0.99869000  1
  H  H28  1  0.79517900  0.54587000  0.64544400  1
  H  H29  1  0.29517900  0.45413000  0.85455600  1
  H  H30  1  0.20482100  0.45413000  0.35455600  1
  H  H31  1  0.70482100  0.54587000  0.14544400  1
  H  H32  1  0.09675800  0.17546700  0.65455300  1
  H  H33  1  0.59675800  0.82453300  0.84544700  1
  H  H34  1  0.90324200  0.82453300  0.34544700  1
  H  H35  1  0.40324200  0.17546700  0.15455300  1
  H  H36  1  0.09984300  0.79536000  0.60585600  1
  H  H37  1  0.59984300  0.20464000  0.89414400  1
  H  H38  1  0.90015700  0.20464000  0.39414400  1
  H  H39  1  0.40015700  0.79536000  0.10585600  1
  H  H40  1  0.15529500  0.67765500  0.79765900  1
  H  H41  1  0.65529500  0.32234500  0.70234100  1
  H  H42  1  0.84470500  0.32234500  0.20234100  1
  H  H43  1  0.34470500  0.67765500  0.29765900  1
  H  H44  1  0.88872600  0.62823400  0.69763500  1
  H  H45  1  0.38872600  0.37176600  0.80236500  1
  H  H46  1  0.11127400  0.37176600  0.30236500  1
  H  H47  1  0.61127400  0.62823400  0.19763500  1
  H  H48  1  0.41543300  0.28426000  0.93855500  1
  H  H49  1  0.91543300  0.71574000  0.56144500  1
  H  H50  1  0.58456700  0.71574000  0.06144500  1
  H  H51  1  0.08456700  0.28426000  0.43855500  1
  H  H52  1  0.38223000  0.11554500  0.98509300  1
  H  H53  1  0.88223000  0.88445500  0.51490700  1
  H  H54  1  0.61777000  0.88445500  0.01490700  1
  H  H55  1  0.11777000  0.11554500  0.48509300  1
  H  H56  1  0.55331200  0.24210300  0.04615000  1
  H  H57  1  0.05331200  0.75789700  0.45385000  1
  H  H58  1  0.44668800  0.75789700  0.95385000  1
  H  H59  1  0.94668800  0.24210300  0.54615000  1
  N  N0  1  0.34111000  0.32538900  0.59463900  1
  N  N1  1  0.84111000  0.67461100  0.90536100  1
  N  N2  1  0.65889000  0.67461100  0.40536100  1
  N  N3  1  0.15889000  0.32538900  0.09463900  1
  N  N4  1  0.65459100  0.87184800  0.68687600  1
  N  N5  1  0.15459100  0.12815200  0.81312400  1
  N  N6  1  0.34540900  0.12815200  0.31312400  1
  N  N7  1  0.84540900  0.87184800  0.18687600  1
  N  N8  1  0.14800800  0.75044000  0.65517000  1
  N  N9  1  0.64800800  0.24956000  0.84483000  1
  N  N10  1  0.85199200  0.24956000  0.34483000  1
  N  N11  1  0.35199200  0.75044000  0.15517000  1
  O  O0  1  0.06302100  0.87408100  0.89579000  1
  O  O1  1  0.56302100  0.12591900  0.60421000  1
  O  O2  1  0.93697900  0.12591900  0.10421000  1
  O  O3  1  0.43697900  0.87408100  0.39579000  1
  O  O4  1  0.21907600  0.65853400  0.83711600  1
  O  O5  1  0.71907600  0.34146600  0.66288400  1
  O  O6  1  0.78092400  0.34146600  0.16288400  1
  O  O7  1  0.28092400  0.65853400  0.33711600  1
  O  O8  1  0.15597000  0.00440400  0.03950500  1
  O  O9  1  0.65597000  0.99559600  0.46049500  1
  O  O10  1  0.84403000  0.99559600  0.96049500  1
  O  O11  1  0.34403000  0.00440400  0.53950500  1
  O  O12  1  0.25799100  0.94516500  0.99475100  1
  O  O13  1  0.75799100  0.05483500  0.50524900  1
  O  O14  1  0.74200900  0.05483500  0.00524900  1
  O  O15  1  0.24200900  0.94516500  0.49475100  1
  O  O16  1  0.38784100  0.59741200  0.72501700  1
  O  O17  1  0.88784100  0.40258800  0.77498300  1
  O  O18  1  0.61215900  0.40258800  0.27498300  1
  O  O19  1  0.11215900  0.59741200  0.22501700  1
  O  O20  1  0.38156000  0.41030800  0.85336900  1
  O  O21  1  0.88156000  0.58969200  0.64663100  1
  O  O22  1  0.61844000  0.58969200  0.14663100  1
  O  O23  1  0.11844000  0.41030800  0.35336900  1
  O  O24  1  0.38303300  0.90482800  0.76637900  1
  O  O25  1  0.88303300  0.09517200  0.73362100  1
  O  O26  1  0.61696700  0.09517200  0.23362100  1
  O  O27  1  0.11696700  0.90482800  0.26637900  1
  O  O28  1  0.25940400  0.09616700  0.84148400  1
  O  O29  1  0.75940400  0.90383300  0.65851600  1
  O  O30  1  0.74059600  0.90383300  0.15851600  1
  O  O31  1  0.24059600  0.09616700  0.34148400  1
  O  O32  1  0.14112700  0.62777300  0.99705700  1
  O  O33  1  0.64112700  0.37222700  0.50294300  1
  O  O34  1  0.85887300  0.37222700  0.00294300  1
  O  O35  1  0.35887300  0.62777300  0.49705700  1
  O  O36  1  0.57548300  0.71947900  0.82534400  1
  O  O37  1  0.07548300  0.28052100  0.67465600  1
  O  O38  1  0.42451700  0.28052100  0.17465600  1
  O  O39  1  0.92451700  0.71947900  0.32534400  1
  O  O40  1  0.44384500  0.20635800  0.98118200  1
  O  O41  1  0.94384500  0.79364200  0.51881800  1
  O  O42  1  0.55615500  0.79364200  0.01881800  1
  O  O43  1  0.05615500  0.20635800  0.48118200  1
  O  O44  1  0.37698000  0.74405200  0.91642200  1
  O  O45  1  0.87698000  0.25594800  0.58357800  1
  O  O46  1  0.62302000  0.25594800  0.08357800  1
  O  O47  1  0.12302000  0.74405200  0.41642200  1
loop_
_geom_bond_atom_site_label_1
_geom_bond_atom_site_label_2
_geom_bond_distance
_geom_bond_site_symmetry_2
H0 O16 0.982481 1_555
H1 O17 0.982481 1_555
H2 O18 0.982481 1_555
H3 O19 0.982481 1_555
H4 N0 1.012283 1_555
H5 N1 1.012283 1_555
H6 N2 1.012283 1_555
H7 N3 1.012283 1_555
H8 N0 1.026712 1_555
H9 N1 1.026712 1_555
H10 N2 1.026712 1_555
H11 N3 1.026712 1_555
H12 N5 1.060810 1_555
H13 N4 1.060810 1_555
H14 N7 1.060810 1_555
H15 N6 1.060810 1_555
H16 N4 1.047005 1_555
H17 N5 1.047005 1_555
H18 N6 1.047005 1_555
H19 N7 1.047005 1_555
H20 N0 1.023780 1_555
H21 N1 1.023780 1_555
H22 N2 1.023780 1_555
H23 N3 1.023780 1_555
H24 O9 0.987948 1_555
H25 O8 0.987948 1_555
H26 O11 0.987948 1_555
H27 O10 0.987948 1_555
H28 O21 0.988324 1_555
H29 O20 0.988324 1_555
H30 O23 0.988324 1_555
H31 O22 0.988324 1_555
H32 O37 0.978422 1_555
H33 O36 0.978422 1_555
H34 O39 0.978422 1_555
H35 O38 0.978422 1_555
H36 N8 1.049701 1_555
H37 N9 1.049701 1_555
H38 N10 1.049701 1_555
H39 N11 1.049701 1_555
H40 O4 0.976095 1_555
H41 O5 0.976095 1_555
H42 O6 0.976095 1_555
H43 O7 0.976095 1_555
H44 O21 0.978657 1_555
H45 O20 0.978657 1_555
H46 O23 0.978657 1_555
H47 O22 0.978657 1_555
H48 O40 0.991014 1_555
H49 O41 0.991014 1_555
H50 O42 0.991014 1_555
H51 O43 0.991014 1_555
H52 O40 0.987271 1_555
H53 O41 0.987271 1_555
H54 O42 0.987271 1_555
H55 O43 0.987271 1_555
H56 O46 1.005968 1_555
H56 O40 1.676618 1_554
H57 O47 1.005968 1_555
H57 O41 1.676618 1_455
H58 O44 1.005968 1_555
H58 O42 1.676618 1_556
H59 O45 1.005968 1_555
H59 O43 1.676618 1_655
N4 O29 1.243005 1_555
N5 O28 1.243005 1_555
N6 O31 1.243005 1_555
N7 O30 1.243005 1_555
O0 V0 1.705008 1_555
O1 V1 1.705008 1_555
O2 V2 1.705008 1_555
O3 V3 1.705008 1_555
O4 V0 2.052529 1_555
O4 V4 2.068030 1_555
O5 V1 2.052529 1_555
O5 V5 2.068030 1_555
O6 V2 2.052529 1_555
O6 V6 2.068030 1_555
O7 V3 2.052529 1_555
O7 V7 2.068030 1_555
O10 O14 1.448654 1_566
O11 O15 1.448654 1_545
O12 O8 1.448654 1_566
O12 V0 1.946015 1_555
O13 O9 1.448654 1_545
O13 V1 1.946015 1_555
O14 V2 1.946015 1_555
O15 V3 1.946015 1_555
O16 V4 1.830757 1_555
O17 V5 1.830757 1_555
O18 V6 1.830757 1_555
O19 V7 1.830757 1_555
O24 V4 1.616880 1_555
O25 V5 1.616880 1_555
O26 V6 1.616880 1_555
O27 V7 1.616880 1_555
O32 V0 1.643525 1_555
O33 V1 1.643525 1_555
O34 V2 1.643525 1_555
O35 V3 1.643525 1_555
O36 V4 1.883832 1_555
O37 V5 1.883832 1_455
O38 V6 1.883832 1_555
O39 V7 1.883832 1_655
O44 V4 1.971578 1_555
O44 V0 2.026436 1_555
O45 V5 1.971578 1_555
O45 V1 2.026436 1_555
O46 V6 1.971578 1_555
O46 V2 2.026436 1_555
O47 V7 1.971578 1_555
O47 V3 2.026436 1_555
