# generated using pymatgen
data_Nd2SbO2
_symmetry_space_group_name_H-M   'P 1'
_cell_length_a   7.43798139
_cell_length_b   7.43798139
_cell_length_c   7.43798139
_cell_angle_alpha   148.94827450
_cell_angle_beta   148.94827450
_cell_angle_gamma   44.48744902
_symmetry_Int_Tables_number   1
_chemical_formula_structural   Nd2SbO2
_chemical_formula_sum   'Nd2 Sb1 O2'
_cell_volume   109.15668026
_cell_formula_units_Z   1
loop_
 _symmetry_equiv_pos_site_id
 _symmetry_equiv_pos_as_xyz
  1  'x, y, z'
loop_
 _atom_site_type_symbol
 _atom_site_label
 _atom_site_symmetry_multiplicity
 _atom_site_fract_x
 _atom_site_fract_y
 _atom_site_fract_z
 _atom_site_occupancy
  Nd  Nd0  1  0.66330467  0.66330467  0.00000000  1
  Nd  Nd1  1  0.33669533  0.33669533  -0.00000000  1
  Sb  Sb0  1  0.00000000  0.00000000  0.00000000  1
  O  O0  1  0.75000000  0.25000000  0.50000000  1
  O  O1  1  0.25000000  0.75000000  0.50000000  1
loop_
_geom_bond_atom_site_label_1
_geom_bond_atom_site_label_2
_geom_bond_distance
_geom_bond_site_symmetry_2
Nd0 O1 2.321379 1_554
Nd0 O1 2.321379 1_655
Nd0 O0 2.321379 1_554
Nd0 O0 2.321379 1_565
Nd0 Sb0 3.603282 1_565
Nd0 Sb0 3.603282 1_655
Nd0 Sb0 3.603282 1_666
Nd0 Sb0 3.603282 1_554
Nd1 O1 2.321379 1_544
Nd1 O0 2.321379 1_454
Nd1 O1 2.321379 1_555
Nd1 O0 2.321379 1_555
Nd1 Sb0 3.603282 1_565
Nd1 Sb0 3.603282 1_655
Nd1 Sb0 3.603282 1_666
Nd1 Sb0 3.603282 1_554
