# generated using pymatgen
data_CaTl4(NiO3)4
_symmetry_space_group_name_H-M   'P 1'
_cell_length_a   5.87491646
_cell_length_b   6.25458603
_cell_length_c   7.39288567
_cell_angle_alpha   87.88317136
_cell_angle_beta   95.85391388
_cell_angle_gamma   90.04857219
_symmetry_Int_Tables_number   1
_chemical_formula_structural   CaTl4(NiO3)4
_chemical_formula_sum   'Ca1 Tl4 Ni4 O12'
_cell_volume   270.05064532
_cell_formula_units_Z   1
loop_
 _symmetry_equiv_pos_site_id
 _symmetry_equiv_pos_as_xyz
  1  'x, y, z'
loop_
 _atom_site_type_symbol
 _atom_site_label
 _atom_site_symmetry_multiplicity
 _atom_site_fract_x
 _atom_site_fract_y
 _atom_site_fract_z
 _atom_site_occupancy
  Ca  Ca0  1  0.96473400  0.29361700  0.61747200  1
  Tl  Tl0  1  0.44600300  0.53817600  0.23337500  1
  Tl  Tl1  1  0.08139700  0.84792100  0.76534100  1
  Tl  Tl2  1  0.47528100  0.41727400  0.75503300  1
  Tl  Tl3  1  0.10181800  0.05914800  0.22471300  1
  Ni  Ni0  1  0.57493200  0.01714700  0.01985200  1
  Ni  Ni1  1  0.55643500  0.99865400  0.51168900  1
  Ni  Ni2  1  0.93316800  0.66545600  0.38157100  1
  Ni  Ni3  1  0.94042100  0.49949500  0.02759500  1
  O  O0  1  0.67757200  0.48226200  0.46051900  1
  O  O1  1  0.66894200  0.33185800  0.05459900  1
  O  O2  1  0.28333000  0.11875300  0.52703600  1
  O  O3  1  0.86022600  0.94391700  0.48821700  1
  O  O4  1  0.85278600  0.80450700  0.12175000  1
  O  O5  1  0.45698600  0.92082800  0.26515500  1
  O  O6  1  0.21905700  0.11323700  0.92628700  1
  O  O7  1  0.65885100  0.08659000  0.75089400  1
  O  O8  1  0.82590300  0.57011900  0.79583400  1
  O  O9  1  0.24519500  0.59290000  0.97301700  1
  O  O10  1  0.07400000  0.41372100  0.25872100  1
  O  O11  1  0.20296400  0.60584900  0.58299700  1
loop_
_geom_bond_atom_site_label_1
_geom_bond_atom_site_label_2
_geom_bond_distance
_geom_bond_site_symmetry_2
Ca0 O0 2.255572 1_555
Ca0 O2 2.336514 1_655
Ca0 O8 2.405213 1_555
Ca0 O11 2.422580 1_655
Ca0 O3 2.471132 1_545
Ca0 O7 2.478353 1_555
Ca0 O6 2.798974 1_655
Ca0 O10 2.865285 1_655
Ni0 O1 2.062072 1_555
Ni0 O5 2.075272 1_545
Ni0 O7 2.126301 1_554
Ni0 O4 2.163280 1_545
Ni0 O6 2.210717 1_554
Ni1 O2 1.787994 1_565
Ni1 O3 1.844245 1_555
Ni1 O7 1.909468 1_565
Ni1 O5 1.935976 1_555
Ni2 O3 2.002559 1_555
Ni2 O0 2.008678 1_555
Ni2 O10 2.061451 1_655
Ni2 O11 2.085020 1_655
Ni2 O4 2.088355 1_555
Ni3 O8 1.814632 1_554
Ni3 O10 1.866213 1_655
Ni3 O1 1.931222 1_555
Ni3 O9 1.959147 1_654
Ni3 O4 2.135853 1_555
O0 Tl0 2.069883 1_555
O0 Tl2 2.603828 1_555
O1 Tl0 2.368426 1_555
O1 Tl2 2.425741 1_554
O2 Tl3 2.417898 1_555
O2 Tl2 2.727663 1_555
O2 Tl1 2.753745 1_545
O3 Tl1 2.369310 1_655
O3 Tl3 2.605267 1_665
O4 Tl3 2.261628 1_665
O5 Tl3 2.246858 1_565
O5 Tl0 2.413623 1_555
O6 Tl1 2.184230 1_545
O6 Tl3 2.389715 1_556
O6 Tl2 2.773273 1_555
O7 Tl2 2.336028 1_555
O8 Tl2 2.266979 1_555
O8 Tl1 2.314851 1_655
O9 Tl0 2.168543 1_556
O9 Tl1 2.312519 1_555
O9 Tl2 2.491686 1_555
O10 Tl3 2.249073 1_555
O10 Tl0 2.342492 1_555
O11 Tl1 2.229056 1_555
O11 Tl2 2.246223 1_555
