# generated using pymatgen
data_Cu2S
_symmetry_space_group_name_H-M   'P 1'
_cell_length_a   3.93325001
_cell_length_b   3.93325001
_cell_length_c   7.17376784
_cell_angle_alpha   88.85331854
_cell_angle_beta   88.85331854
_cell_angle_gamma   118.84570471
_symmetry_Int_Tables_number   1
_chemical_formula_structural   Cu2S
_chemical_formula_sum   'Cu4 S2'
_cell_volume   97.13586027
_cell_formula_units_Z   2
loop_
 _symmetry_equiv_pos_site_id
 _symmetry_equiv_pos_as_xyz
  1  'x, y, z'
loop_
 _atom_site_type_symbol
 _atom_site_label
 _atom_site_symmetry_multiplicity
 _atom_site_fract_x
 _atom_site_fract_y
 _atom_site_fract_z
 _atom_site_occupancy
  Cu  Cu0  1  0.00000000  0.50000000  0.50000000  1
  Cu  Cu1  1  0.50000000  -0.00000000  0.00000000  1
  Cu  Cu2  1  0.01769423  0.98230577  0.25000000  1
  Cu  Cu3  1  0.98230577  0.01769423  0.75000000  1
  S  S0  1  0.36670425  0.63329575  0.25000000  1
  S  S1  1  0.63329575  0.36670425  0.75000000  1
loop_
_geom_bond_atom_site_label_1
_geom_bond_atom_site_label_2
_geom_bond_distance
_geom_bond_site_symmetry_2
Cu0 S1 2.168139 1_455
Cu0 S0 2.168139 1_555
Cu1 S0 2.168139 1_545
Cu1 S1 2.168139 1_554
Cu2 S0 2.247010 1_455
Cu2 S0 2.247010 1_565
Cu2 S0 2.363714 1_555
Cu3 S1 2.247010 1_545
Cu3 S1 2.247010 1_655
Cu3 S1 2.363714 1_555
