# generated using pymatgen
data_Zr5(SiN3)3
_symmetry_space_group_name_H-M   'P 1'
_cell_length_a   7.41139516
_cell_length_b   10.91745009
_cell_length_c   14.59468900
_cell_angle_alpha   90.00000000
_cell_angle_beta   90.00000000
_cell_angle_gamma   137.43677449
_symmetry_Int_Tables_number   1
_chemical_formula_structural   Zr5(SiN3)3
_chemical_formula_sum   'Zr20 Si12 N36'
_cell_volume   798.77009495
_cell_formula_units_Z   4
loop_
 _symmetry_equiv_pos_site_id
 _symmetry_equiv_pos_as_xyz
  1  'x, y, z'
loop_
 _atom_site_type_symbol
 _atom_site_label
 _atom_site_symmetry_multiplicity
 _atom_site_fract_x
 _atom_site_fract_y
 _atom_site_fract_z
 _atom_site_occupancy
  Zr  Zr0  1  0.00000000  0.49864500  0.82772000  1
  Zr  Zr1  1  0.00000000  0.50135500  0.17228000  1
  Zr  Zr2  1  0.00000000  0.00135500  0.32772000  1
  Zr  Zr3  1  0.00000000  0.99864500  0.67228000  1
  Zr  Zr4  1  0.38382300  0.95373100  0.86810300  1
  Zr  Zr5  1  0.38382300  0.43009200  0.13189700  1
  Zr  Zr6  1  0.38382300  0.93009200  0.36810300  1
  Zr  Zr7  1  0.38382300  0.45373100  0.63189700  1
  Zr  Zr8  1  0.61617700  0.04626900  0.13189700  1
  Zr  Zr9  1  0.61617700  0.56990800  0.86810300  1
  Zr  Zr10  1  0.61617700  0.06990800  0.63189700  1
  Zr  Zr11  1  0.61617700  0.54626900  0.36810300  1
  Zr  Zr12  1  0.00000000  0.49880800  0.59655200  1
  Zr  Zr13  1  0.00000000  0.50119200  0.40344800  1
  Zr  Zr14  1  0.00000000  0.00119200  0.09655200  1
  Zr  Zr15  1  0.00000000  0.99880800  0.90344800  1
  Zr  Zr16  1  0.61421400  0.30710700  0.00000000  1
  Zr  Zr17  1  0.61421400  0.80710700  0.50000000  1
  Zr  Zr18  1  0.38578600  0.69289300  0.00000000  1
  Zr  Zr19  1  0.38578600  0.19289300  0.50000000  1
  Si  Si0  1  0.00000000  0.75858500  0.01502300  1
  Si  Si1  1  0.00000000  0.24141500  0.98497700  1
  Si  Si2  1  0.00000000  0.74141500  0.51502300  1
  Si  Si3  1  0.00000000  0.25858500  0.48497700  1
  Si  Si4  1  0.00000000  0.23849300  0.78179800  1
  Si  Si5  1  0.00000000  0.76150700  0.21820200  1
  Si  Si6  1  0.00000000  0.26150700  0.28179800  1
  Si  Si7  1  0.00000000  0.73849300  0.71820200  1
  Si  Si8  1  0.50000000  0.78137100  0.75000000  1
  Si  Si9  1  0.50000000  0.71862900  0.25000000  1
  Si  Si10  1  0.50000000  0.21862900  0.25000000  1
  Si  Si11  1  0.50000000  0.28137100  0.75000000  1
  N  N0  1  0.00000000  0.34681100  0.69658200  1
  N  N1  1  0.00000000  0.65318900  0.30341800  1
  N  N2  1  0.00000000  0.15318900  0.19658200  1
  N  N3  1  0.00000000  0.84681100  0.80341800  1
  N  N4  1  0.00000000  0.31021100  0.88287800  1
  N  N5  1  0.00000000  0.68978900  0.11712200  1
  N  N6  1  0.00000000  0.18978900  0.38287800  1
  N  N7  1  0.00000000  0.81021100  0.61712200  1
  N  N8  1  0.74256800  0.51130100  0.73203700  1
  N  N9  1  0.74256800  0.23126900  0.26796300  1
  N  N10  1  0.74256800  0.73126900  0.23203700  1
  N  N11  1  0.74256800  0.01130100  0.76796300  1
  N  N12  1  0.25743200  0.48869900  0.26796300  1
  N  N13  1  0.25743200  0.76873100  0.73203700  1
  N  N14  1  0.25743200  0.26873100  0.76796300  1
  N  N15  1  0.25743200  0.98869900  0.23203700  1
  N  N16  1  0.54889600  0.22624400  0.84910000  1
  N  N17  1  0.54889600  0.32265300  0.15090000  1
  N  N18  1  0.54889600  0.82265300  0.34910000  1
  N  N19  1  0.54889600  0.72624400  0.65090000  1
  N  N20  1  0.45110400  0.77375600  0.15090000  1
  N  N21  1  0.45110400  0.67734700  0.84910000  1
  N  N22  1  0.45110400  0.17734700  0.65090000  1
  N  N23  1  0.45110400  0.27375600  0.34910000  1
  N  N24  1  0.26520200  0.99579000  0.00060500  1
  N  N25  1  0.26520200  0.26941100  0.99939500  1
  N  N26  1  0.26520200  0.76941100  0.50060500  1
  N  N27  1  0.26520200  0.49579000  0.49939500  1
  N  N28  1  0.73479800  0.00421000  0.99939500  1
  N  N29  1  0.73479800  0.73058900  0.00060500  1
  N  N30  1  0.73479800  0.23058900  0.49939500  1
  N  N31  1  0.73479800  0.50421000  0.50060500  1
  N  N32  1  0.00000000  0.64248700  0.93333900  1
  N  N33  1  0.00000000  0.35751300  0.06666100  1
  N  N34  1  0.00000000  0.85751300  0.43333900  1
  N  N35  1  0.00000000  0.14248700  0.56666100  1
loop_
_geom_bond_atom_site_label_1
_geom_bond_atom_site_label_2
_geom_bond_distance
_geom_bond_site_symmetry_2
N0 Si4 1.716168 1_555
N0 Zr12 2.210204 1_555
N0 Zr10 2.335496 1_455
N0 Zr7 2.335496 1_555
N0 Zr0 2.531966 1_555
N1 Si5 1.716168 1_555
N1 Zr13 2.210204 1_555
N1 Zr6 2.335496 1_555
N1 Zr11 2.335496 1_455
N1 Zr1 2.531966 1_555
N2 Si6 1.716168 1_555
N2 Zr14 2.210204 1_555
N2 Zr5 2.335496 1_555
N2 Zr8 2.335496 1_455
N2 Zr2 2.531966 1_555
N3 Si7 1.716168 1_555
N3 Zr15 2.210204 1_555
N3 Zr9 2.335496 1_455
N3 Zr4 2.335496 1_555
N3 Zr3 2.531966 1_555
N4 Si1 1.668689 1_555
N4 Si4 1.670138 1_555
N4 Zr0 2.209117 1_555
N5 Si0 1.668689 1_555
N5 Si5 1.670138 1_555
N5 Zr1 2.209117 1_555
N6 Si3 1.668689 1_555
N6 Si6 1.670138 1_555
N6 Zr2 2.209117 1_555
N7 Si2 1.668689 1_555
N7 Si7 1.670138 1_555
N7 Zr3 2.209117 1_555
N8 Si7 1.691773 1_655
N8 Si11 1.718821 1_555
N8 Zr0 2.449026 1_655
N8 Zr9 2.472513 1_555
N8 Zr7 2.671822 1_555
N8 Zr12 2.819945 1_655
N9 Si6 1.691786 1_655
N9 Si10 1.718806 1_555
N9 Zr1 2.449013 1_655
N9 Zr8 2.472525 1_555
N9 Zr6 2.671833 1_545
N9 Zr13 2.819933 1_655
N10 Si5 1.691786 1_655
N10 Si9 1.718806 1_555
N10 Zr2 2.449013 1_665
N10 Zr11 2.472525 1_555
N10 Zr5 2.671833 1_555
N10 Zr14 2.819933 1_665
N11 Si4 1.691773 1_655
N11 Si8 1.718821 1_545
N11 Zr3 2.449026 1_645
N11 Zr10 2.472513 1_555
N11 Zr4 2.671822 1_545
N11 Zr15 2.819945 1_645
N12 Si6 1.691773 1_555
N12 Si9 1.718821 1_555
N12 Zr1 2.449026 1_555
N12 Zr5 2.472513 1_555
N12 Zr11 2.671822 1_555
N12 Zr13 2.819945 1_555
N13 Si7 1.691786 1_555
N13 Si8 1.718806 1_555
N13 Zr0 2.449013 1_555
N13 Zr4 2.472525 1_555
N13 Zr10 2.671833 1_565
N13 Zr12 2.819933 1_555
N14 Si4 1.691786 1_555
N14 Si11 1.718806 1_555
N14 Zr3 2.449013 1_545
N14 Zr7 2.472525 1_555
N14 Zr9 2.671833 1_555
N14 Zr15 2.819933 1_545
N15 Si5 1.691773 1_555
N15 Si10 1.718821 1_565
N15 Zr2 2.449026 1_565
N15 Zr6 2.472513 1_555
N15 Zr8 2.671822 1_565
N15 Zr14 2.819945 1_565
N16 Si11 1.704905 1_555
N16 Zr4 2.250209 1_545
N16 Zr16 2.287896 1_556
N16 Zr0 2.339448 1_655
N16 Zr15 2.909338 1_545
N17 Si10 1.704911 1_555
N17 Zr5 2.250199 1_555
N17 Zr16 2.287899 1_555
N17 Zr1 2.339450 1_655
N17 Zr14 2.909340 1_555
N18 Si9 1.704911 1_555
N18 Zr6 2.250199 1_555
N18 Zr17 2.287899 1_555
N18 Zr2 2.339450 1_665
N18 Zr13 2.909340 1_555
N19 Si8 1.704905 1_555
N19 Zr7 2.250209 1_555
N19 Zr17 2.287896 1_555
N19 Zr3 2.339448 1_655
N19 Zr12 2.909338 1_555
N20 Si9 1.704905 1_555
N20 Zr8 2.250209 1_565
N20 Zr18 2.287896 1_555
N20 Zr1 2.339448 1_555
N20 Zr14 2.909338 1_665
N21 Si8 1.704911 1_555
N21 Zr9 2.250199 1_555
N21 Zr18 2.287899 1_556
N21 Zr0 2.339450 1_555
N21 Zr15 2.909340 1_655
N22 Si11 1.704911 1_555
N22 Zr10 2.250199 1_555
N22 Zr19 2.287899 1_555
N22 Zr3 2.339450 1_545
N22 Zr12 2.909340 1_655
N23 Si10 1.704905 1_555
N23 Zr11 2.250209 1_555
N23 Zr19 2.287896 1_555
N23 Zr2 2.339448 1_555
N23 Zr13 2.909338 1_655
N24 Si0 1.765216 1_555
N24 Zr16 2.300479 1_565
N24 Zr4 2.306095 1_554
N24 Zr15 2.443439 1_554
N24 Zr14 2.449158 1_565
N24 Zr8 2.937692 1_565
N25 Si1 1.765223 1_555
N25 Zr16 2.300472 1_556
N25 Zr5 2.306101 1_556
N25 Zr14 2.443433 1_556
N25 Zr15 2.449152 1_545
N25 Zr9 2.937697 1_555
N26 Si2 1.765223 1_555
N26 Zr17 2.300472 1_555
N26 Zr6 2.306101 1_555
N26 Zr13 2.443433 1_555
N26 Zr12 2.449152 1_555
N26 Zr10 2.937697 1_565
N27 Si3 1.765216 1_555
N27 Zr17 2.300479 1_555
N27 Zr7 2.306095 1_555
N27 Zr12 2.443439 1_555
N27 Zr13 2.449158 1_555
N27 Zr11 2.937692 1_555
N28 Si1 1.765216 1_655
N28 Zr18 2.300479 1_546
N28 Zr8 2.306095 1_556
N28 Zr14 2.443439 1_656
N28 Zr15 2.449158 1_645
N28 Zr4 2.937692 1_545
N29 Si0 1.765223 1_655
N29 Zr18 2.300472 1_555
N29 Zr9 2.306101 1_554
N29 Zr15 2.443433 1_654
N29 Zr14 2.449152 1_665
N29 Zr5 2.937697 1_555
N30 Si3 1.765223 1_655
N30 Zr19 2.300472 1_555
N30 Zr10 2.306101 1_555
N30 Zr12 2.443433 1_655
N30 Zr13 2.449152 1_655
N30 Zr6 2.937697 1_545
N31 Si2 1.765216 1_655
N31 Zr19 2.300479 1_555
N31 Zr11 2.306095 1_555
N31 Zr13 2.443439 1_655
N31 Zr12 2.449158 1_655
N31 Zr7 2.937692 1_555
N32 Si0 1.740049 1_556
N32 Zr0 2.200515 1_555
N32 Zr4 2.511198 1_555
N32 Zr9 2.511198 1_455
N32 Zr16 2.665837 1_456
N32 Zr18 2.665837 1_556
N33 Si1 1.740049 1_554
N33 Zr1 2.200515 1_555
N33 Zr8 2.511198 1_455
N33 Zr5 2.511198 1_555
N33 Zr18 2.665837 1_555
N33 Zr16 2.665837 1_455
N34 Si2 1.740049 1_555
N34 Zr2 2.200515 1_565
N34 Zr11 2.511198 1_455
N34 Zr6 2.511198 1_555
N34 Zr19 2.665837 1_565
N34 Zr17 2.665837 1_455
N35 Si3 1.740049 1_555
N35 Zr3 2.200515 1_545
N35 Zr7 2.511198 1_555
N35 Zr10 2.511198 1_455
N35 Zr17 2.665837 1_445
N35 Zr19 2.665837 1_555
