# generated using pymatgen
data_Ba3(SiAs2)2
_symmetry_space_group_name_H-M   'P 1'
_cell_length_a   7.79736261
_cell_length_b   8.52483089
_cell_length_c   10.04998830
_cell_angle_alpha   107.83200529
_cell_angle_beta   105.03519189
_cell_angle_gamma   107.69498826
_symmetry_Int_Tables_number   1
_chemical_formula_structural   Ba3(SiAs2)2
_chemical_formula_sum   'Ba6 Si4 As8'
_cell_volume   558.22041902
_cell_formula_units_Z   2
loop_
 _symmetry_equiv_pos_site_id
 _symmetry_equiv_pos_as_xyz
  1  'x, y, z'
loop_
 _atom_site_type_symbol
 _atom_site_label
 _atom_site_symmetry_multiplicity
 _atom_site_fract_x
 _atom_site_fract_y
 _atom_site_fract_z
 _atom_site_occupancy
  Ba  Ba0  1  0.69295663  0.94298217  0.88594529  1
  Ba  Ba1  1  0.30704461  0.05702083  0.11405652  1
  Ba  Ba2  1  0.81537206  0.56535617  0.13059888  1
  Ba  Ba3  1  0.18462890  0.43464662  0.86940373  1
  Ba  Ba4  1  0.05978374  0.80979117  0.61953573  1
  Ba  Ba5  1  0.94021729  0.19021314  0.38046722  1
  Si  Si0  1  0.62230256  0.46579880  0.63657225  1
  Si  Si1  1  0.51425503  0.17073676  0.63646052  1
  Si  Si2  1  0.37769120  0.53419848  0.36342444  1
  Si  Si3  1  0.48574508  0.82926720  0.36354128  1
  As  As0  1  0.64750377  0.44498479  0.39716300  1
  As  As1  1  0.24951445  0.95205761  0.39708427  1
  As  As2  1  0.44346831  0.18857583  0.85328501  1
  As  As3  1  0.91001346  0.66502642  0.85340850  1
  As  As4  1  0.55653292  0.81142913  0.14671781  1
  As  As5  1  0.08998658  0.33494730  0.14657804  1
  As  As6  1  0.75048637  0.04794669  0.60291819  1
  As  As7  1  0.35249702  0.55502089  0.60283933  1
loop_
_geom_bond_atom_site_label_1
_geom_bond_atom_site_label_2
_geom_bond_distance
_geom_bond_site_symmetry_2
Si0 Si1 2.397152 1_555
Si2 Si3 2.397186 1_555
As0 Si0 2.421621 1_555
As0 Si2 2.424861 1_555
As0 Ba4 3.307394 1_655
As0 Ba1 3.325917 1_555
As0 Ba2 3.553811 1_555
As0 Ba5 3.597704 1_555
As1 Si1 2.421042 1_565
As1 Si3 2.424950 1_555
As1 Ba4 3.308083 1_555
As1 Ba1 3.327077 1_565
As1 Ba2 3.550293 1_455
As1 Ba5 3.597391 1_465
As2 Si1 2.355475 1_555
As2 Ba4 3.275843 1_545
As2 Ba0 3.292563 1_545
As2 Ba3 3.321931 1_555
As2 Ba2 3.340002 1_556
As2 Ba1 3.432036 1_556
As3 Si0 2.355173 1_555
As3 Ba4 3.276545 1_655
As3 Ba0 3.291886 1_555
As3 Ba3 3.322530 1_655
As3 Ba2 3.340967 1_556
As3 Ba1 3.428595 1_666
As4 Si3 2.355471 1_555
As4 Ba5 3.275840 1_565
As4 Ba1 3.292550 1_565
As4 Ba2 3.321944 1_555
As4 Ba3 3.340012 1_554
As4 Ba0 3.432038 1_554
As5 Si2 2.355225 1_555
As5 Ba5 3.276568 1_455
As5 Ba1 3.291681 1_555
As5 Ba2 3.322713 1_455
As5 Ba3 3.340923 1_554
As5 Ba0 3.428439 1_444
As6 Si3 2.421048 1_545
As6 Si1 2.424952 1_555
As6 Ba5 3.308079 1_555
As6 Ba0 3.327075 1_545
As6 Ba3 3.550289 1_655
As6 Ba4 3.597392 1_645
As7 Si2 2.421642 1_555
As7 Si0 2.424854 1_555
As7 Ba5 3.307397 1_455
As7 Ba0 3.325905 1_555
As7 Ba3 3.553823 1_555
As7 Ba4 3.597694 1_555
