# generated using pymatgen
data_Li9Mn2Co5O16
_symmetry_space_group_name_H-M   'P 1'
_cell_length_a   2.95823700
_cell_length_b   9.85459009
_cell_length_c   10.10175491
_cell_angle_alpha   78.87520916
_cell_angle_beta   87.13327063
_cell_angle_gamma   86.95285392
_symmetry_Int_Tables_number   1
_chemical_formula_structural   Li9Mn2Co5O16
_chemical_formula_sum   'Li9 Mn2 Co5 O16'
_cell_volume   288.30869264
_cell_formula_units_Z   1
loop_
 _symmetry_equiv_pos_site_id
 _symmetry_equiv_pos_as_xyz
  1  'x, y, z'
loop_
 _atom_site_type_symbol
 _atom_site_label
 _atom_site_symmetry_multiplicity
 _atom_site_fract_x
 _atom_site_fract_y
 _atom_site_fract_z
 _atom_site_occupancy
  Li  Li0  1  0.00265000  0.25015400  0.12639900  1
  Li  Li1  1  0.50200600  0.74656400  0.12754700  1
  Li  Li2  1  0.50667500  0.25189500  0.37183500  1
  Li  Li3  1  0.99808800  0.74082400  0.38022500  1
  Li  Li4  1  0.98983300  0.25262500  0.61896300  1
  Li  Li5  1  0.48721000  0.74417100  0.61841300  1
  Li  Li6  1  0.50396500  0.25284300  0.87674000  1
  Li  Li7  1  0.00473400  0.75431900  0.87680600  1
  Li  Li8  1  0.51275800  0.50915300  0.49943200  1
  Mn  Mn0  1  0.99804500  0.99792600  0.00250600  1
  Mn  Mn1  1  0.99557900  0.50104500  0.74435700  1
  Co  Co0  1  0.48988300  0.49696000  0.00239100  1
  Co  Co1  1  0.50423900  0.00054900  0.24975700  1
  Co  Co2  1  0.00438700  0.49838200  0.25959600  1
  Co  Co3  1  0.99864000  0.00326800  0.49683300  1
  Co  Co4  1  0.49843700  0.99860700  0.74969400  1
  O  O0  1  0.53051200  0.11642500  0.06970700  1
  O  O1  1  0.02330800  0.60683500  0.07216900  1
  O  O2  1  0.03526800  0.11496900  0.31100900  1
  O  O3  1  0.53038600  0.61493700  0.30544400  1
  O  O4  1  0.51096400  0.11998200  0.56056000  1
  O  O5  1  0.00556000  0.61919100  0.57886000  1
  O  O6  1  0.01674000  0.11507300  0.81537800  1
  O  O7  1  0.47043200  0.60437800  0.81582200  1
  O  O8  1  0.47878100  0.38908600  0.18143800  1
  O  O9  1  0.97067300  0.88499800  0.18603000  1
  O  O10  1  0.99797400  0.38445500  0.41518900  1
  O  O11  1  0.49381100  0.88876500  0.43192900  1
  O  O12  1  0.52161700  0.39088300  0.69537800  1
  O  O13  1  0.98563500  0.88628600  0.68845600  1
  O  O14  1  0.96646600  0.38713600  0.93340700  1
  O  O15  1  0.46474400  0.87731600  0.93772900  1
loop_
_geom_bond_atom_site_label_1
_geom_bond_atom_site_label_2
_geom_bond_distance
_geom_bond_site_symmetry_2
Li0 O2 2.075444 1_555
Li0 O0 2.118042 1_555
Li0 O8 2.137114 1_455
Li0 O0 2.140650 1_455
Li0 O14 2.150447 1_454
Li0 O8 2.178211 1_555
Li1 O3 2.005753 1_555
Li1 O15 2.098047 1_554
Li1 O1 2.138312 1_655
Li1 O9 2.161211 1_455
Li1 O9 2.174005 1_555
Li1 O1 2.190466 1_555
Li2 O10 2.027001 1_455
Li2 O4 2.090192 1_555
Li2 O10 2.120586 1_555
Li2 O8 2.129423 1_555
Li2 O2 2.154757 1_655
Li2 O2 2.179157 1_555
Li3 O5 2.130027 1_655
Li3 O11 2.146703 1_555
Li3 O3 2.150394 1_655
Li3 O3 2.161620 1_555
Li3 O9 2.191258 1_555
Li3 O11 2.268599 1_655
Li4 O4 2.103732 1_655
Li4 O12 2.113994 1_555
Li4 O4 2.154419 1_555
Li4 O6 2.178765 1_655
Li4 O10 2.211796 1_555
Li4 O12 2.383733 1_655
Li5 O5 1.988894 1_655
Li5 O5 2.034727 1_555
Li5 O11 2.131422 1_555
Li5 O13 2.172567 1_455
Li5 O7 2.194139 1_555
Li5 O13 2.311343 1_555
Li6 O12 2.060574 1_555
Li6 O14 2.124663 1_555
Li6 O6 2.130788 1_655
Li6 O14 2.141241 1_455
Li6 O0 2.146173 1_556
Li6 O6 2.219702 1_555
Li7 O15 2.060757 1_555
Li7 O13 2.088701 1_455
Li7 O15 2.093639 1_455
Li7 O7 2.123841 1_555
Li7 O1 2.214863 1_556
Li7 O7 2.399598 1_455
Li8 O5 2.028116 1_555
Li8 O3 2.033911 1_555
Li8 O10 2.094860 1_555
Li8 O12 2.094944 1_555
Li8 O5 2.136759 1_655
Li8 O10 2.299018 1_455
Mn0 O0 1.943624 1_565
Mn0 O15 1.944800 1_654
Mn0 O9 1.969879 1_555
Mn0 O6 2.015765 1_664
Mn0 O0 2.216768 1_665
Mn0 O15 2.220930 1_554
Mn1 O5 1.843628 1_655
Mn1 O12 1.948223 1_655
Mn1 O12 1.956446 1_555
Mn1 O7 1.993696 1_555
Mn1 O7 2.017071 1_655
Mn1 O14 2.020186 1_555
Co0 O1 1.900693 1_555
Co0 O8 1.912673 1_555
Co0 O14 1.917063 1_554
Co0 O7 1.977462 1_554
Co0 O14 2.152107 1_454
Co0 O1 2.178707 1_655
Co1 O2 1.896309 1_555
Co1 O9 1.908394 1_545
Co1 O0 1.952417 1_555
Co1 O11 1.953622 1_545
Co1 O2 2.162587 1_655
Co1 O9 2.185880 1_445
Co2 O10 1.746307 1_455
Co2 O3 1.862544 1_455
Co2 O8 1.951797 1_555
Co2 O1 1.986207 1_555
Co2 O3 2.102950 1_555
Co2 O8 2.197736 1_455
Co3 O4 1.958315 1_555
Co3 O11 1.965336 1_645
Co3 O2 1.985467 1_655
Co3 O13 2.052713 1_545
Co3 O11 2.120366 1_545
Co3 O4 2.145442 1_655
Co4 O13 1.921067 1_555
Co4 O6 1.952821 1_565
Co4 O15 2.040648 1_555
Co4 O4 2.048935 1_565
Co4 O13 2.108490 1_455
Co4 O6 2.165908 1_665
