# generated using pymatgen
data_Pm3Al
_symmetry_space_group_name_H-M   'P 1'
_cell_length_a   7.05963679
_cell_length_b   7.05963628
_cell_length_c   5.33159975
_cell_angle_alpha   90.00000000
_cell_angle_beta   90.00000000
_cell_angle_gamma   119.99999242
_symmetry_Int_Tables_number   1
_chemical_formula_structural   Pm3Al
_chemical_formula_sum   'Pm6 Al2'
_cell_volume   230.11921720
_cell_formula_units_Z   2
loop_
 _symmetry_equiv_pos_site_id
 _symmetry_equiv_pos_as_xyz
  1  'x, y, z'
loop_
 _atom_site_type_symbol
 _atom_site_label
 _atom_site_symmetry_multiplicity
 _atom_site_fract_x
 _atom_site_fract_y
 _atom_site_fract_z
 _atom_site_occupancy
  Pm  Pm0  1  0.35710181  0.17855141  0.75000100  1
  Pm  Pm1  1  0.82144959  0.64289719  0.75000100  1
  Pm  Pm2  1  0.17855141  0.82144859  0.25000100  1
  Pm  Pm3  1  0.64289719  0.82144859  0.25000100  1
  Pm  Pm4  1  0.17855141  0.35710181  0.25000100  1
  Pm  Pm5  1  0.82144759  0.17855141  0.75000100  1
  Al  Al0  1  0.66666700  0.33333400  0.25000100  1
  Al  Al1  1  0.33333400  0.66666700  0.75000100  1
loop_
_geom_bond_atom_site_label_1
_geom_bond_atom_site_label_2
_geom_bond_distance
_geom_bond_site_symmetry_2
Pm0 Pm5 3.278113 1_555
Pm0 Pm1 3.278120 1_555
Pm0 Pm4 3.445733 1_555
Pm0 Pm4 3.445733 1_556
Pm0 Pm2 3.445741 1_545
Pm0 Pm2 3.445741 1_546
Pm0 Pm1 3.781517 1_445
Pm0 Pm5 3.781524 1_455
Pm1 Pm5 3.278105 1_555
Pm1 Pm2 3.445737 1_655
Pm1 Pm2 3.445737 1_656
Pm1 Pm3 3.445745 1_555
Pm1 Pm3 3.445745 1_556
Pm1 Pm5 3.781531 1_565
Pm2 Pm3 3.278113 1_555
Pm2 Pm4 3.278119 1_555
Pm2 Pm4 3.781517 1_565
Pm2 Pm3 3.781524 1_455
Pm3 Pm4 3.278116 1_555
Pm3 Pm5 3.445741 1_565
Pm3 Pm5 3.445741 1_564
Pm3 Pm4 3.781521 1_665
Pm4 Pm5 3.445745 1_455
Pm4 Pm5 3.445745 1_454
Al0 Pm5 3.269324 1_555
Al0 Pm5 3.269324 1_554
Al0 Pm1 3.269324 1_555
Al0 Pm1 3.269324 1_554
Al0 Pm0 3.269331 1_555
Al0 Pm0 3.269331 1_554
Al0 Pm4 3.532805 1_555
Al0 Pm3 3.532805 1_555
Al0 Pm2 3.532805 1_655
Al0 Pm4 3.532812 1_655
Al0 Pm3 3.532812 1_545
Al0 Pm2 3.532812 1_545
Al1 Pm3 3.269324 1_555
Al1 Pm3 3.269324 1_556
Al1 Pm2 3.269328 1_555
Al1 Pm2 3.269328 1_556
Al1 Pm4 3.269331 1_555
Al1 Pm4 3.269331 1_556
Al1 Pm5 3.532802 1_565
Al1 Pm0 3.532804 1_555
Al1 Pm1 3.532805 1_455
Al1 Pm0 3.532811 1_565
Al1 Pm1 3.532812 1_555
Al1 Pm5 3.532816 1_455
