# generated using pymatgen
data_Yb5Mg
_symmetry_space_group_name_H-M   'P 1'
_cell_length_a   7.18782262
_cell_length_b   7.18782262
_cell_length_c   7.18782316
_cell_angle_alpha   53.57105371
_cell_angle_beta   53.57105371
_cell_angle_gamma   53.57105300
_symmetry_Int_Tables_number   1
_chemical_formula_structural   Yb5Mg
_chemical_formula_sum   'Yb5 Mg1'
_cell_volume   223.09703667
_cell_formula_units_Z   1
loop_
 _symmetry_equiv_pos_site_id
 _symmetry_equiv_pos_as_xyz
  1  'x, y, z'
loop_
 _atom_site_type_symbol
 _atom_site_label
 _atom_site_symmetry_multiplicity
 _atom_site_fract_x
 _atom_site_fract_y
 _atom_site_fract_z
 _atom_site_occupancy
  Yb  Yb0  1  0.84006100  0.50000000  0.15993900  1
  Yb  Yb1  1  0.50000000  0.15993900  0.84006100  1
  Yb  Yb2  1  0.15993900  0.84006100  0.50000000  1
  Yb  Yb3  1  0.66545100  0.66545100  0.66545100  1
  Yb  Yb4  1  0.33454900  0.33454900  0.33454900  1
  Mg  Mg0  1  0.00000000  0.00000000  0.00000000  1
loop_
_geom_bond_atom_site_label_1
_geom_bond_atom_site_label_2
_geom_bond_distance
_geom_bond_site_symmetry_2
Yb0 Yb1 3.703146 1_564
Yb0 Yb1 3.703146 1_654
Yb0 Yb2 3.703146 1_645
Yb0 Yb2 3.703146 1_654
Yb0 Yb4 3.758685 1_655
Yb0 Yb3 3.758685 1_554
Yb0 Yb4 3.759690 1_555
Yb0 Yb3 3.759690 1_555
Yb0 Yb2 3.815805 1_555
Yb0 Yb1 3.815805 1_555
Yb1 Yb2 3.703146 1_645
Yb1 Yb2 3.703146 1_546
Yb1 Yb3 3.758685 1_545
Yb1 Yb4 3.758685 1_556
Yb1 Yb3 3.759690 1_555
Yb1 Yb4 3.759690 1_555
Yb1 Yb2 3.815805 1_555
Yb2 Yb3 3.758684 1_455
Yb2 Yb4 3.758684 1_565
Yb2 Yb4 3.759690 1_555
Yb2 Yb3 3.759690 1_555
Yb3 Yb4 3.740582 1_565
Yb3 Yb4 3.740582 1_655
Yb3 Yb4 3.740582 1_556
Mg0 Yb1 3.740295 1_554
Mg0 Yb0 3.740295 1_445
Mg0 Yb0 3.740295 1_455
Mg0 Yb1 3.740295 1_454
Mg0 Yb2 3.740295 1_545
Mg0 Yb2 3.740295 1_544
Mg0 Yb4 3.740381 1_455
Mg0 Yb3 3.740381 1_544
Mg0 Yb4 3.740381 1_545
Mg0 Yb3 3.740381 1_454
Mg0 Yb3 3.740381 1_445
Mg0 Yb4 3.740381 1_554
