# generated using pymatgen
data_Te6Mo3WSe2
_symmetry_space_group_name_H-M   'P 1'
_cell_length_a   3.49676720
_cell_length_b   3.49676720
_cell_length_c   39.64073200
_cell_angle_alpha   90.00000000
_cell_angle_beta   90.00000000
_cell_angle_gamma   119.99998494
_symmetry_Int_Tables_number   1
_chemical_formula_structural   Te6Mo3WSe2
_chemical_formula_sum   'Te6 Mo3 W1 Se2'
_cell_volume   419.76459344
_cell_formula_units_Z   1
loop_
 _symmetry_equiv_pos_site_id
 _symmetry_equiv_pos_as_xyz
  1  'x, y, z'
loop_
 _atom_site_type_symbol
 _atom_site_label
 _atom_site_symmetry_multiplicity
 _atom_site_fract_x
 _atom_site_fract_y
 _atom_site_fract_z
 _atom_site_occupancy
  Te  Te0  1  0.33333300  0.66666700  0.32807800  1
  Te  Te1  1  0.66666700  0.33333300  0.04764200  1
  Te  Te2  1  0.66666700  0.33333300  0.42339100  1
  Te  Te3  1  0.66666700  0.33333300  0.14020600  1
  Te  Te4  1  0.66666700  0.33333300  0.51594200  1
  Te  Te5  1  0.33333300  0.66666700  0.23552100  1
  Mo  Mo0  1  0.33333300  0.66666700  0.09390300  1
  Mo  Mo1  1  0.33333300  0.66666700  0.46968600  1
  Mo  Mo2  1  0.66666700  0.33333300  0.28180100  1
  W  W0  1  0.66666700  0.33333300  0.65753900  1
  Se  Se0  1  0.33333300  0.66666700  0.69847200  1
  Se  Se1  1  0.33333300  0.66666700  0.61656800  1
loop_
_geom_bond_atom_site_label_1
_geom_bond_atom_site_label_2
_geom_bond_distance
_geom_bond_site_symmetry_2
Mo0 Te1 2.727395 1_455
Mo0 Te1 2.727395 1_565
Mo0 Te1 2.727399 1_555
Mo0 Te3 2.728514 1_455
Mo0 Te3 2.728514 1_565
Mo0 Te3 2.728519 1_555
Mo1 Te4 2.727261 1_565
Mo1 Te4 2.727261 1_455
Mo1 Te4 2.727266 1_555
Mo1 Te2 2.728301 1_455
Mo1 Te2 2.728301 1_565
Mo1 Te2 2.728305 1_555
Mo2 Te0 2.727821 1_545
Mo2 Te0 2.727821 1_655
Mo2 Te0 2.727825 1_555
Mo2 Te5 2.727901 1_545
Mo2 Te5 2.727901 1_655
Mo2 Te5 2.727905 1_555
Se0 W0 2.590109 1_565
Se0 W0 2.590109 1_455
Se0 W0 2.590113 1_555
Se1 W0 2.591053 1_455
Se1 W0 2.591053 1_565
Se1 W0 2.591057 1_555
