# generated using pymatgen
data_Eu3Tm
_symmetry_space_group_name_H-M   'P 1'
_cell_length_a   7.65046918
_cell_length_b   7.65046918
_cell_length_c   6.11462500
_cell_angle_alpha   90.00000000
_cell_angle_beta   90.00000000
_cell_angle_gamma   120.00001019
_symmetry_Int_Tables_number   1
_chemical_formula_structural   Eu3Tm
_chemical_formula_sum   'Eu6 Tm2'
_cell_volume   309.93923333
_cell_formula_units_Z   2
loop_
 _symmetry_equiv_pos_site_id
 _symmetry_equiv_pos_as_xyz
  1  'x, y, z'
loop_
 _atom_site_type_symbol
 _atom_site_label
 _atom_site_symmetry_multiplicity
 _atom_site_fract_x
 _atom_site_fract_y
 _atom_site_fract_z
 _atom_site_occupancy
  Eu  Eu0  1  0.17001900  0.34003700  0.25000000  1
  Eu  Eu1  1  0.65996300  0.82998100  0.25000000  1
  Eu  Eu2  1  0.17001900  0.82998100  0.25000000  1
  Eu  Eu3  1  0.82998100  0.65996300  0.75000000  1
  Eu  Eu4  1  0.34003700  0.17001900  0.75000000  1
  Eu  Eu5  1  0.82998100  0.17001900  0.75000000  1
  Tm  Tm0  1  0.33333300  0.66666700  0.75000000  1
  Tm  Tm1  1  0.66666700  0.33333300  0.25000000  1
loop_
_geom_bond_atom_site_label_1
_geom_bond_atom_site_label_2
_geom_bond_distance
_geom_bond_site_symmetry_2
Eu0 Tm0 3.745722 1_554
Eu0 Tm0 3.745722 1_555
Eu0 Eu1 3.748301 1_555
Eu0 Eu2 3.748301 1_555
Eu0 Eu4 3.797731 1_555
Eu0 Eu4 3.797731 1_554
Eu0 Eu5 3.797738 1_455
Eu0 Eu5 3.797738 1_454
Eu0 Tm1 3.825492 1_455
Eu0 Tm1 3.825492 1_555
Eu0 Eu1 3.902167 1_445
Eu0 Eu2 3.902168 1_545
Eu1 Tm0 3.745722 1_554
Eu1 Tm0 3.745722 1_555
Eu1 Eu2 3.748301 1_555
Eu1 Eu3 3.797731 1_554
Eu1 Eu3 3.797731 1_555
Eu1 Eu5 3.797738 1_564
Eu1 Eu5 3.797738 1_565
Eu1 Tm1 3.825492 1_565
Eu1 Tm1 3.825492 1_555
Eu1 Eu2 3.902168 1_655
Eu2 Tm0 3.745714 1_555
Eu2 Tm0 3.745714 1_554
Eu2 Eu4 3.797738 1_565
Eu2 Eu4 3.797738 1_564
Eu2 Eu3 3.797738 1_455
Eu2 Eu3 3.797738 1_454
Eu2 Tm1 3.825492 1_455
Eu2 Tm1 3.825492 1_565
Eu3 Tm1 3.745722 1_556
Eu3 Tm1 3.745722 1_555
Eu3 Eu4 3.748301 1_555
Eu3 Eu5 3.748301 1_555
Eu3 Tm0 3.825492 1_655
Eu3 Tm0 3.825492 1_555
Eu3 Eu4 3.902167 1_665
Eu3 Eu5 3.902168 1_565
Eu4 Tm1 3.745722 1_555
Eu4 Tm1 3.745722 1_556
Eu4 Eu5 3.748301 1_555
Eu4 Tm0 3.825492 1_545
Eu4 Tm0 3.825492 1_555
Eu4 Eu5 3.902168 1_455
Eu5 Tm1 3.745714 1_555
Eu5 Tm1 3.745714 1_556
Eu5 Tm0 3.825492 1_545
Eu5 Tm0 3.825492 1_655
