# generated using pymatgen
data_Na4Ca2SnP4
_symmetry_space_group_name_H-M   'P 1'
_cell_length_a   9.45621714
_cell_length_b   9.45621714
_cell_length_c   7.13186230
_cell_angle_alpha   88.81697127
_cell_angle_beta   88.81697127
_cell_angle_gamma   120.04627675
_symmetry_Int_Tables_number   1
_chemical_formula_structural   Na4Ca2SnP4
_chemical_formula_sum   'Na8 Ca4 Sn2 P8'
_cell_volume   551.56240704
_cell_formula_units_Z   2
loop_
 _symmetry_equiv_pos_site_id
 _symmetry_equiv_pos_as_xyz
  1  'x, y, z'
loop_
 _atom_site_type_symbol
 _atom_site_label
 _atom_site_symmetry_multiplicity
 _atom_site_fract_x
 _atom_site_fract_y
 _atom_site_fract_z
 _atom_site_occupancy
  Na  Na0  1  0.46986600  0.93313100  0.38045700  1
  Na  Na1  1  0.93313100  0.46986600  0.88045700  1
  Na  Na2  1  0.86131500  0.71508500  0.18796400  1
  Na  Na3  1  0.29366100  0.13930900  0.22407500  1
  Na  Na4  1  0.85018300  0.13962400  0.20748800  1
  Na  Na5  1  0.13930900  0.29366100  0.72407500  1
  Na  Na6  1  0.71508500  0.86131500  0.68796400  1
  Na  Na7  1  0.13962400  0.85018300  0.70748800  1
  Ca  Ca0  1  0.05981100  0.53137900  0.38695000  1
  Ca  Ca1  1  0.47975000  0.53488400  0.37927600  1
  Ca  Ca2  1  0.53137900  0.05981100  0.88695000  1
  Ca  Ca3  1  0.53488400  0.47975000  0.87927600  1
  Sn  Sn0  1  0.66143200  0.32664700  0.49763600  1
  Sn  Sn1  1  0.32664700  0.66143200  0.99763600  1
  P  P0  1  0.19584000  0.37563300  0.14117800  1
  P  P1  1  0.62482600  0.80724700  0.08947100  1
  P  P2  1  0.19363200  0.81643300  0.11227600  1
  P  P3  1  0.80724700  0.62482600  0.58947100  1
  P  P4  1  0.37563300  0.19584000  0.64117800  1
  P  P5  1  0.81643300  0.19363200  0.61227600  1
  P  P6  1  0.65720200  0.33312700  0.14135600  1
  P  P7  1  0.33312700  0.65720200  0.64135600  1
loop_
_geom_bond_atom_site_label_1
_geom_bond_atom_site_label_2
_geom_bond_distance
_geom_bond_site_symmetry_2
Na0 P7 2.874700 1_555
Na0 P2 3.017617 1_555
Na0 P1 3.097447 1_555
Na1 P6 2.874700 1_556
Na1 P5 3.017617 1_555
Na1 P3 3.097447 1_555
Na2 P2 2.824475 1_655
Na2 P1 2.871443 1_555
Na2 P3 2.931059 1_555
Na2 P6 3.158557 1_555
Na3 P2 2.844650 1_545
Na3 P0 2.870068 1_555
Na3 P6 3.014508 1_555
Na3 P4 3.079206 1_555
Na4 P0 2.911327 1_655
Na4 P1 2.933323 1_545
Na4 P5 2.980417 1_555
Na4 P6 3.200707 1_555
Na5 P5 2.844650 1_455
Na5 P4 2.870068 1_555
Na5 P7 3.014508 1_555
Na5 P0 3.079206 1_556
Na6 P5 2.824475 1_565
Na6 P3 2.871443 1_555
Na6 P1 2.931059 1_556
Na6 P7 3.158557 1_555
Na7 P4 2.911327 1_565
Na7 P3 2.933323 1_455
Na7 P2 2.980417 1_556
Na7 P7 3.200707 1_555
Ca0 P7 2.931015 1_555
Ca0 P0 2.967593 1_555
Ca0 P2 2.994739 1_555
Ca0 P5 3.217791 1_455
Ca0 P3 3.254938 1_455
Ca1 P7 2.888266 1_555
Ca1 P0 2.933289 1_555
Ca1 P1 2.985314 1_555
Ca1 P3 3.188735 1_555
Ca1 Sn0 3.304640 1_555
Ca1 P4 3.354539 1_555
Ca2 P6 2.931015 1_556
Ca2 P4 2.967593 1_555
Ca2 P5 2.994739 1_555
Ca2 P2 3.217791 1_546
Ca2 P1 3.254938 1_546
Ca3 P6 2.888266 1_556
Ca3 P4 2.933289 1_555
Ca3 P3 2.985314 1_555
Ca3 P1 3.188735 1_556
Ca3 Sn1 3.304640 1_555
Ca3 P0 3.354539 1_556
P0 Sn1 2.523454 1_554
P1 Sn1 2.549673 1_554
P2 Sn1 2.500426 1_554
P3 Sn0 2.549673 1_555
P4 Sn0 2.523454 1_555
P5 Sn0 2.500426 1_555
P6 Sn0 2.542037 1_555
P7 Sn1 2.542037 1_555
