# generated using pymatgen
data_YbV4O8
_symmetry_space_group_name_H-M   'P 1'
_cell_length_a   5.78918600
_cell_length_b   7.99461027
_cell_length_c   7.62909620
_cell_angle_alpha   82.04050093
_cell_angle_beta   91.57305186
_cell_angle_gamma   84.07803864
_symmetry_Int_Tables_number   1
_chemical_formula_structural   YbV4O8
_chemical_formula_sum   'Yb2 V8 O16'
_cell_volume   347.51185924
_cell_formula_units_Z   2
loop_
 _symmetry_equiv_pos_site_id
 _symmetry_equiv_pos_as_xyz
  1  'x, y, z'
loop_
 _atom_site_type_symbol
 _atom_site_label
 _atom_site_symmetry_multiplicity
 _atom_site_fract_x
 _atom_site_fract_y
 _atom_site_fract_z
 _atom_site_occupancy
  Yb  Yb0  1  0.12323200  0.19850900  0.83895300  1
  Yb  Yb1  1  0.87676800  0.80149100  0.16104700  1
  V  V0  1  0.33613700  0.78433300  0.91547900  1
  V  V1  1  0.15939900  0.41670600  0.17367000  1
  V  V2  1  0.31139200  0.99219000  0.28620700  1
  V  V3  1  0.25291500  0.56997600  0.50508900  1
  V  V4  1  0.74708500  0.43002400  0.49491100  1
  V  V5  1  0.68860800  0.00781000  0.71379300  1
  V  V6  1  0.84060100  0.58329400  0.82633000  1
  V  V7  1  0.66386300  0.21566700  0.08452100  1
  O  O0  1  0.25058600  0.81459700  0.42921100  1
  O  O1  1  0.43112100  0.45448200  0.34319900  1
  O  O2  1  0.38642600  0.98803800  0.74172800  1
  O  O3  1  0.15276800  0.17350700  0.32685200  1
  O  O4  1  0.04272500  0.45290200  0.66665200  1
  O  O5  1  0.10143600  0.63861200  0.98065600  1
  O  O6  1  0.20584100  0.94661800  0.07735900  1
  O  O7  1  0.37088400  0.30511900  0.01227200  1
  O  O8  1  0.62911600  0.69488100  0.98772800  1
  O  O9  1  0.79415900  0.05338200  0.92264100  1
  O  O10  1  0.89856400  0.36138800  0.01934400  1
  O  O11  1  0.95727500  0.54709800  0.33334800  1
  O  O12  1  0.84723200  0.82649300  0.67314800  1
  O  O13  1  0.61357400  0.01196200  0.25827200  1
  O  O14  1  0.56887900  0.54551800  0.65680100  1
  O  O15  1  0.74941400  0.18540300  0.57078900  1
loop_
_geom_bond_atom_site_label_1
_geom_bond_atom_site_label_2
_geom_bond_distance
_geom_bond_site_symmetry_2
O0 V2 1.739312 1_555
O0 V3 1.959707 1_555
O0 Yb1 2.956838 1_455
O1 V3 1.905651 1_555
O1 V1 2.081575 1_555
O1 V4 2.114481 1_555
O2 V5 1.788565 1_565
O2 V0 2.003795 1_555
O2 Yb0 2.362562 1_565
O3 V2 1.704727 1_545
O3 V1 2.129793 1_555
O4 V3 1.968199 1_555
O4 V6 2.029320 1_455
O4 V4 2.165012 1_455
O4 Yb0 2.260918 1_555
O5 V0 1.911509 1_555
O5 V6 2.011551 1_455
O5 V1 2.134184 1_556
O5 Yb1 2.350822 1_456
O6 V2 1.788309 1_555
O6 V0 2.017527 1_554
O6 Yb1 2.387629 1_455
O6 Yb0 2.516197 1_564
O7 V7 1.811419 1_555
O7 V1 1.993129 1_555
O7 Yb0 2.233942 1_554
O8 V0 1.811419 1_555
O8 V6 1.993129 1_555
O8 Yb1 2.233942 1_556
O9 V5 1.788309 1_555
O9 V7 2.017527 1_556
O9 Yb0 2.387629 1_655
O9 Yb1 2.516197 1_546
O10 V7 1.911509 1_555
O10 V1 2.011551 1_655
O10 V6 2.134184 1_554
O10 Yb0 2.350822 1_654
O11 V4 1.968199 1_555
O11 V1 2.029320 1_655
O11 V3 2.165012 1_655
O11 Yb1 2.260918 1_555
O12 V5 1.704727 1_565
O12 V6 2.129793 1_555
O13 V2 1.788565 1_545
O13 V7 2.003795 1_555
O13 Yb1 2.362562 1_545
O14 V4 1.905651 1_555
O14 V6 2.081575 1_555
O14 V3 2.114481 1_555
O15 V5 1.739312 1_555
O15 V4 1.959707 1_555
O15 Yb0 2.956838 1_655
