# generated using pymatgen
data_Li3Cr(CoO3)2
_symmetry_space_group_name_H-M   'P 1'
_cell_length_a   2.95608631
_cell_length_b   11.86697506
_cell_length_c   6.58614433
_cell_angle_alpha   104.16060286
_cell_angle_beta   77.32984372
_cell_angle_gamma   91.92836521
_symmetry_Int_Tables_number   1
_chemical_formula_structural   Li3Cr(CoO3)2
_chemical_formula_sum   'Li6 Cr2 Co4 O12'
_cell_volume   218.51616622
_cell_formula_units_Z   2
loop_
 _symmetry_equiv_pos_site_id
 _symmetry_equiv_pos_as_xyz
  1  'x, y, z'
loop_
 _atom_site_type_symbol
 _atom_site_label
 _atom_site_symmetry_multiplicity
 _atom_site_fract_x
 _atom_site_fract_y
 _atom_site_fract_z
 _atom_site_occupancy
  Li  Li0  1  0.33570400  0.41761700  0.32942900  1
  Li  Li1  1  0.33233000  0.91820000  0.33221700  1
  Li  Li2  1  0.99498000  0.24957800  0.99482200  1
  Li  Li3  1  0.00818100  0.75111000  0.99586700  1
  Li  Li4  1  0.65713200  0.08392100  0.66805400  1
  Li  Li5  1  0.65931400  0.58385300  0.67627800  1
  Cr  Cr0  1  0.32082600  0.16834300  0.33916800  1
  Cr  Cr1  1  0.33854500  0.66723400  0.32826000  1
  Co  Co0  1  0.99394400  0.00020300  0.00054900  1
  Co  Co1  1  0.67109700  0.33400000  0.67109300  1
  Co  Co2  1  0.66838700  0.83373800  0.66161300  1
  Co  Co3  1  0.99915200  0.50080500  0.99550200  1
  O  O0  1  0.46692700  0.12004400  0.01300800  1
  O  O1  1  0.46066700  0.61914900  0.00690000  1
  O  O2  1  0.16567700  0.21357400  0.66135200  1
  O  O3  1  0.18795900  0.71408800  0.65400300  1
  O  O4  1  0.82875800  0.28803500  0.34899700  1
  O  O5  1  0.84919200  0.78372700  0.33543700  1
  O  O6  1  0.81123900  0.05185300  0.32901800  1
  O  O7  1  0.83225100  0.54784100  0.31110100  1
  O  O8  1  0.16398800  0.45602500  0.68336500  1
  O  O9  1  0.15477100  0.95038300  0.66992800  1
  O  O10  1  0.53909600  0.38104500  0.98628000  1
  O  O11  1  0.51499400  0.88329100  0.99269000  1
loop_
_geom_bond_atom_site_label_1
_geom_bond_atom_site_label_2
_geom_bond_distance
_geom_bond_site_symmetry_2
Li0 O7 2.101940 1_555
Li0 O4 2.117583 1_455
Li0 O10 2.144561 1_554
Li0 O4 2.199049 1_555
Li0 O8 2.208158 1_555
Li0 O7 2.223168 1_455
Li1 O6 2.091021 1_565
Li1 O5 2.106330 1_455
Li1 O9 2.110502 1_555
Li1 O11 2.120323 1_554
Li1 O5 2.253063 1_555
Li1 O6 2.254736 1_465
Li2 O2 2.080875 1_655
Li2 O10 2.114459 1_555
Li2 O0 2.152051 1_656
Li2 O0 2.158812 1_556
Li2 O10 2.204227 1_655
Li2 O4 2.209612 1_556
Li3 O1 2.118016 1_556
Li3 O5 2.121331 1_456
Li3 O11 2.132982 1_555
Li3 O3 2.133496 1_555
Li3 O11 2.183973 1_455
Li3 O1 2.215991 1_456
Li4 O2 2.116030 1_655
Li4 O6 2.118499 1_555
Li4 O9 2.135379 1_545
Li4 O0 2.154261 1_556
Li4 O2 2.166004 1_555
Li4 O9 2.202238 1_645
Li5 O1 2.066699 1_556
Li5 O8 2.074223 1_555
Li5 O3 2.167276 1_555
Li5 O3 2.167948 1_655
Li5 O8 2.178623 1_655
Li5 O7 2.280561 1_555
Cr0 O2 2.008357 1_555
Cr0 O6 2.010835 1_455
Cr0 O6 2.015995 1_555
Cr0 O4 2.032307 1_555
Cr0 O0 2.033910 1_555
Cr0 O4 2.047016 1_455
Cr1 O1 2.005833 1_555
Cr1 O5 2.012672 1_555
Cr1 O5 2.019529 1_455
Cr1 O7 2.028125 1_455
Cr1 O3 2.030782 1_555
Cr1 O7 2.034358 1_555
Co0 O11 1.948561 1_544
Co0 O0 1.960500 1_655
Co0 O6 2.051436 1_555
Co0 O9 2.062046 1_644
Co0 O11 2.091332 1_644
Co0 O0 2.119493 1_555
Co1 O10 1.966075 1_555
Co1 O4 2.008031 1_555
Co1 O8 2.019595 1_655
Co1 O2 2.032768 1_555
Co1 O2 2.058770 1_655
Co1 O8 2.094345 1_555
Co2 O9 1.962099 1_655
Co2 O3 1.973881 1_555
Co2 O5 2.036342 1_555
Co2 O11 2.064681 1_555
Co2 O9 2.071754 1_555
Co2 O3 2.110864 1_655
Co3 O1 1.924471 1_656
Co3 O10 1.933106 1_555
Co3 O8 1.946672 1_655
Co3 O7 1.968875 1_556
Co3 O1 2.135002 1_556
Co3 O10 2.153827 1_655
