# generated using pymatgen
data_Li7Mn2(CoO4)3
_symmetry_space_group_name_H-M   'P 1'
_cell_length_a   5.90126210
_cell_length_b   11.78653592
_cell_length_c   6.49429611
_cell_angle_alpha   103.06229872
_cell_angle_beta   103.77199484
_cell_angle_gamma   89.74897425
_symmetry_Int_Tables_number   1
_chemical_formula_structural   Li7Mn2(CoO4)3
_chemical_formula_sum   'Li14 Mn4 Co6 O24'
_cell_volume   426.79158137
_cell_formula_units_Z   2
loop_
 _symmetry_equiv_pos_site_id
 _symmetry_equiv_pos_as_xyz
  1  'x, y, z'
loop_
 _atom_site_type_symbol
 _atom_site_label
 _atom_site_symmetry_multiplicity
 _atom_site_fract_x
 _atom_site_fract_y
 _atom_site_fract_z
 _atom_site_occupancy
  Li  Li0  1  0.16668700  0.08331700  0.66666300  1
  Li  Li1  1  0.16665100  0.58335100  0.66667500  1
  Li  Li2  1  0.16666700  0.33333400  0.66666800  1
  Li  Li3  1  0.16667000  0.83333300  0.66666800  1
  Li  Li4  1  0.66661800  0.08332200  0.66664500  1
  Li  Li5  1  0.66671500  0.58334600  0.66668900  1
  Li  Li6  1  0.82880900  0.16568100  0.33507700  1
  Li  Li7  1  0.82887200  0.66569800  0.33509700  1
  Li  Li8  1  0.50446100  0.00096900  0.99823800  1
  Li  Li9  1  0.50452300  0.50098800  0.99825800  1
  Li  Li10  1  0.50278400  0.24598500  0.99091500  1
  Li  Li11  1  0.50280300  0.74598500  0.99093700  1
  Li  Li12  1  0.83055100  0.42068100  0.34242000  1
  Li  Li13  1  0.83053200  0.92068200  0.34239300  1
  Mn  Mn0  1  0.99445600  0.50150600  0.99626800  1
  Mn  Mn1  1  0.33888200  0.16516100  0.33708200  1
  Mn  Mn2  1  0.99445900  0.00147700  0.99622600  1
  Mn  Mn3  1  0.33888600  0.66519000  0.33708700  1
  Co  Co0  1  0.66666200  0.83333100  0.66666400  1
  Co  Co1  1  0.99195700  0.24773600  0.99363500  1
  Co  Co2  1  0.34138100  0.41892900  0.33970500  1
  Co  Co3  1  0.66666700  0.33333400  0.66666300  1
  Co  Co4  1  0.99200600  0.74772900  0.99368700  1
  Co  Co5  1  0.34132100  0.91893500  0.33964600  1
  O  O0  1  0.91877600  0.45826700  0.68871800  1
  O  O1  1  0.91871500  0.95827900  0.68867800  1
  O  O2  1  0.41455600  0.20839900  0.64462300  1
  O  O3  1  0.41461900  0.70838700  0.64464400  1
  O  O4  1  0.55887100  0.04736200  0.33248400  1
  O  O5  1  0.55896500  0.54734300  0.33248600  1
  O  O6  1  0.77436600  0.11932500  0.00084200  1
  O  O7  1  0.77446600  0.61930300  0.00085500  1
  O  O8  1  0.23488800  0.11996900  0.00987800  1
  O  O9  1  0.23496000  0.61995200  0.00991000  1
  O  O10  1  0.09836600  0.04671200  0.32342200  1
  O  O11  1  0.09844500  0.54669800  0.32345700  1
  O  O12  1  0.90591200  0.22119000  0.68882300  1
  O  O13  1  0.90594600  0.72120100  0.68880200  1
  O  O14  1  0.42742100  0.44547800  0.64451300  1
  O  O15  1  0.42738700  0.94546900  0.64453000  1
  O  O16  1  0.56454200  0.28179300  0.32862500  1
  O  O17  1  0.56457800  0.78180000  0.32866700  1
  O  O18  1  0.76878400  0.38487100  0.00471300  1
  O  O19  1  0.76875200  0.88487000  0.00466200  1
  O  O20  1  0.23396900  0.38277400  0.01664200  1
  O  O21  1  0.23392700  0.88280200  0.01664700  1
  O  O22  1  0.09936600  0.28389300  0.31669300  1
  O  O23  1  0.09940700  0.78386800  0.31668200  1
loop_
_geom_bond_atom_site_label_1
_geom_bond_atom_site_label_2
_geom_bond_distance
_geom_bond_site_symmetry_2
Li0 O8 2.110908 1_556
Li0 O10 2.111047 1_555
Li0 O1 2.132502 1_445
Li0 O2 2.132504 1_555
Li0 O15 2.237219 1_545
Li0 O12 2.237749 1_455
Li1 O11 2.110925 1_555
Li1 O9 2.111016 1_556
Li1 O3 2.132509 1_555
Li1 O0 2.132553 1_455
Li1 O13 2.237254 1_455
Li1 O14 2.237729 1_555
Li2 O0 2.077108 1_455
Li2 O2 2.077113 1_555
Li2 O14 2.084434 1_555
Li2 O12 2.084439 1_455
Li2 O20 2.153289 1_556
Li2 O22 2.153296 1_555
Li3 O3 2.077447 1_555
Li3 O1 2.077465 1_455
Li3 O13 2.084155 1_455
Li3 O15 2.084164 1_555
Li3 O21 2.153349 1_556
Li3 O23 2.153388 1_555
Li4 O4 2.055009 1_555
Li4 O6 2.055213 1_556
Li4 O1 2.092992 1_545
Li4 O2 2.093132 1_555
Li4 O15 2.114661 1_545
Li4 O12 2.114930 1_555
Li5 O7 2.055042 1_556
Li5 O5 2.055250 1_555
Li5 O3 2.092975 1_555
Li5 O0 2.093148 1_555
Li5 O13 2.114683 1_555
Li5 O14 2.114934 1_555
Li6 O6 2.060767 1_555
Li6 O16 2.069513 1_555
Li6 O4 2.116308 1_555
Li6 O10 2.119481 1_655
Li6 O22 2.165694 1_655
Li6 O12 2.176771 1_555
Li7 O7 2.060844 1_555
Li7 O17 2.069555 1_555
Li7 O5 2.116413 1_555
Li7 O11 2.119784 1_655
Li7 O23 2.165346 1_655
Li7 O13 2.176523 1_555
Li8 O4 2.060866 1_556
Li8 O19 2.069519 1_546
Li8 O6 2.116426 1_556
Li8 O8 2.119784 1_556
Li8 O21 2.165304 1_546
Li8 O15 2.176539 1_545
Li9 O5 2.060724 1_556
Li9 O18 2.069525 1_556
Li9 O7 2.116291 1_556
Li9 O9 2.119468 1_556
Li9 O20 2.165697 1_556
Li9 O14 2.176765 1_555
Li10 O16 2.079280 1_556
Li10 O2 2.125835 1_555
Li10 O6 2.185125 1_556
Li10 O8 2.217326 1_556
Li10 O18 2.245230 1_556
Li10 O20 2.264032 1_556
Li11 O17 2.079395 1_556
Li11 O3 2.125839 1_555
Li11 O7 2.185649 1_556
Li11 O9 2.217260 1_556
Li11 O19 2.245151 1_556
Li11 O21 2.264509 1_556
Li12 O18 2.079256 1_555
Li12 O0 2.125873 1_555
Li12 O5 2.185159 1_555
Li12 O11 2.217326 1_655
Li12 O16 2.245290 1_555
Li12 O22 2.264024 1_655
Li13 O19 2.079400 1_555
Li13 O1 2.125790 1_555
Li13 O4 2.185623 1_565
Li13 O10 2.217192 1_665
Li13 O17 2.245144 1_555
Li13 O23 2.264481 1_655
Mn0 O0 1.888293 1_555
Mn0 O7 1.896810 1_556
Mn0 O18 1.936834 1_556
Mn0 O9 1.967940 1_656
Mn0 O20 1.987723 1_656
Mn0 O11 2.011410 1_656
Mn1 O2 1.888238 1_555
Mn1 O4 1.896824 1_555
Mn1 O16 1.936786 1_555
Mn1 O10 1.967982 1_555
Mn1 O22 1.987741 1_555
Mn1 O8 2.011502 1_555
Mn2 O1 1.888260 1_545
Mn2 O6 1.897665 1_556
Mn2 O19 1.936720 1_546
Mn2 O8 1.967987 1_656
Mn2 O21 1.987075 1_646
Mn2 O10 2.011439 1_656
Mn3 O3 1.888316 1_555
Mn3 O5 1.897599 1_555
Mn3 O17 1.936647 1_555
Mn3 O11 1.968078 1_555
Mn3 O23 1.987140 1_555
Mn3 O9 2.011333 1_555
Co0 O13 1.932408 1_555
Co0 O15 1.932435 1_555
Co0 O3 2.055279 1_555
Co0 O1 2.055365 1_555
Co0 O17 2.078712 1_555
Co0 O19 2.078724 1_556
Co1 O12 1.875409 1_555
Co1 O22 1.987506 1_656
Co1 O6 2.004848 1_556
Co1 O8 2.077270 1_656
Co1 O18 2.079938 1_556
Co1 O20 2.099077 1_656
Co2 O14 1.875381 1_555
Co2 O20 1.987538 1_555
Co2 O5 2.004875 1_555
Co2 O11 2.077308 1_555
Co2 O16 2.079902 1_555
Co2 O22 2.099062 1_555
Co3 O12 1.932368 1_555
Co3 O14 1.932368 1_555
Co3 O0 2.055404 1_555
Co3 O2 2.055455 1_555
Co3 O16 2.078973 1_555
Co3 O18 2.079040 1_556
Co4 O13 1.875878 1_555
Co4 O23 1.987127 1_656
Co4 O7 2.004700 1_556
Co4 O9 2.077441 1_656
Co4 O19 2.080291 1_556
Co4 O21 2.099106 1_656
Co5 O15 1.875867 1_555
Co5 O21 1.987150 1_555
Co5 O4 2.004733 1_565
Co5 O10 2.077445 1_565
Co5 O17 2.080248 1_555
Co5 O23 2.099019 1_555
