# generated using pymatgen
data_CsCa(PO3)3
_symmetry_space_group_name_H-M   'P 1'
_cell_length_a   7.69321300
_cell_length_b   10.01983800
_cell_length_c   12.93753900
_cell_angle_alpha   90.00000000
_cell_angle_beta   90.00000000
_cell_angle_gamma   90.00000000
_symmetry_Int_Tables_number   1
_chemical_formula_structural   CsCa(PO3)3
_chemical_formula_sum   'Cs4 Ca4 P12 O36'
_cell_volume   997.28693303
_cell_formula_units_Z   4
loop_
 _symmetry_equiv_pos_site_id
 _symmetry_equiv_pos_as_xyz
  1  'x, y, z'
loop_
 _atom_site_type_symbol
 _atom_site_label
 _atom_site_symmetry_multiplicity
 _atom_site_fract_x
 _atom_site_fract_y
 _atom_site_fract_z
 _atom_site_occupancy
  Cs  Cs0  1  0.25000000  0.89027900  0.41476100  1
  Cs  Cs1  1  0.25000000  0.39027900  0.08523900  1
  Cs  Cs2  1  0.75000000  0.10972100  0.58523900  1
  Cs  Cs3  1  0.75000000  0.60972100  0.91476100  1
  Ca  Ca0  1  0.75000000  0.98708900  0.27536000  1
  Ca  Ca1  1  0.75000000  0.48708900  0.22464000  1
  Ca  Ca2  1  0.25000000  0.01291100  0.72464000  1
  Ca  Ca3  1  0.25000000  0.51291100  0.77536000  1
  P  P0  1  0.55403300  0.74863600  0.64782600  1
  P  P1  1  0.94596700  0.24863600  0.85217400  1
  P  P2  1  0.05403300  0.25136400  0.35217400  1
  P  P3  1  0.44596700  0.75136400  0.14782600  1
  P  P4  1  0.44596700  0.25136400  0.35217400  1
  P  P5  1  0.05403300  0.75136400  0.14782600  1
  P  P6  1  0.94596700  0.74863600  0.64782600  1
  P  P7  1  0.55403300  0.24863600  0.85217400  1
  P  P8  1  0.75000000  0.71004100  0.45785600  1
  P  P9  1  0.75000000  0.21004100  0.04214400  1
  P  P10  1  0.25000000  0.28995900  0.54214400  1
  P  P11  1  0.25000000  0.78995900  0.95785600  1
  O  O0  1  0.58639100  0.68118500  0.53525200  1
  O  O1  1  0.91360900  0.18118500  0.96474800  1
  O  O2  1  0.08639100  0.31881500  0.46474800  1
  O  O3  1  0.41360900  0.81881500  0.03525200  1
  O  O4  1  0.41360900  0.31881500  0.46474800  1
  O  O5  1  0.08639100  0.81881500  0.03525200  1
  O  O6  1  0.91360900  0.68118500  0.53525200  1
  O  O7  1  0.58639100  0.18118500  0.96474800  1
  O  O8  1  0.48443900  0.64363600  0.71868000  1
  O  O9  1  0.01556100  0.14363600  0.78132000  1
  O  O10  1  0.98443900  0.35636400  0.28132000  1
  O  O11  1  0.51556100  0.85636400  0.21868000  1
  O  O12  1  0.51556100  0.35636400  0.28132000  1
  O  O13  1  0.98443900  0.85636400  0.21868000  1
  O  O14  1  0.01556100  0.64363600  0.71868000  1
  O  O15  1  0.48443900  0.14363600  0.78132000  1
  O  O16  1  0.45739800  0.87781000  0.63469300  1
  O  O17  1  0.04260200  0.37781000  0.86530700  1
  O  O18  1  0.95739800  0.12219000  0.36530700  1
  O  O19  1  0.54260200  0.62219000  0.13469300  1
  O  O20  1  0.54260200  0.12219000  0.36530700  1
  O  O21  1  0.95739800  0.62219000  0.13469300  1
  O  O22  1  0.04260200  0.87781000  0.63469300  1
  O  O23  1  0.45739800  0.37781000  0.86530700  1
  O  O24  1  0.75000000  0.85513700  0.42842500  1
  O  O25  1  0.75000000  0.35513700  0.07157500  1
  O  O26  1  0.25000000  0.14486300  0.57157500  1
  O  O27  1  0.25000000  0.64486300  0.92842500  1
  O  O28  1  0.75000000  0.78852500  0.68481200  1
  O  O29  1  0.75000000  0.28852500  0.81518800  1
  O  O30  1  0.25000000  0.21147500  0.31518800  1
  O  O31  1  0.25000000  0.71147500  0.18481200  1
  O  O32  1  0.75000000  0.60413500  0.37745200  1
  O  O33  1  0.75000000  0.10413500  0.12254800  1
  O  O34  1  0.25000000  0.39586500  0.62254800  1
  O  O35  1  0.25000000  0.89586500  0.87745200  1
loop_
_geom_bond_atom_site_label_1
_geom_bond_atom_site_label_2
_geom_bond_distance
_geom_bond_site_symmetry_2
Cs0 O26 3.259297 1_565
Cs0 O16 3.264597 1_555
Cs0 O22 3.264597 1_555
Cs0 O11 3.274871 1_555
Cs0 O13 3.274871 1_455
Cs0 O20 3.297911 1_565
Cs0 O18 3.297911 1_465
Cs0 O30 3.466583 1_565
Cs0 O31 3.472788 1_555
Cs0 O0 3.676520 1_555
Cs0 O6 3.676520 1_455
Cs1 O27 3.259297 1_554
Cs1 O23 3.264597 1_554
Cs1 O17 3.264597 1_554
Cs1 O12 3.274871 1_555
Cs1 O10 3.274871 1_455
Cs1 O21 3.297911 1_455
Cs1 O19 3.297911 1_555
Cs1 O31 3.466583 1_555
Cs1 O30 3.472788 1_555
Cs1 O7 3.676520 1_554
Cs1 O1 3.676520 1_454
Cs2 O24 3.259297 1_545
Cs2 O20 3.264597 1_555
Cs2 O18 3.264597 1_555
Cs2 O9 3.274871 1_655
Cs2 O15 3.274871 1_555
Cs2 O22 3.297911 1_645
Cs2 O16 3.297911 1_545
Cs2 O28 3.466583 1_545
Cs2 O29 3.472788 1_555
Cs2 O2 3.676520 1_655
Cs2 O4 3.676520 1_555
Cs3 O25 3.259297 1_556
Cs3 O21 3.264597 1_556
Cs3 O19 3.264597 1_556
Cs3 O14 3.274871 1_655
Cs3 O8 3.274871 1_555
Cs3 O17 3.297911 1_655
Cs3 O23 3.297911 1_555
Cs3 O29 3.466583 1_555
Cs3 O28 3.472788 1_555
Cs3 O5 3.676520 1_656
Cs3 O3 3.676520 1_556
Ca0 O33 2.298693 1_565
Ca0 O13 2.346562 1_555
Ca0 O11 2.346562 1_555
Ca0 O24 2.381087 1_555
Ca0 O20 2.394256 1_565
Ca0 O18 2.394256 1_565
Ca1 O32 2.298693 1_555
Ca1 O10 2.346562 1_555
Ca1 O12 2.346562 1_555
Ca1 O25 2.381087 1_555
Ca1 O21 2.394256 1_555
Ca1 O19 2.394256 1_555
Ca2 O35 2.298693 1_545
Ca2 O15 2.346562 1_555
Ca2 O9 2.346562 1_555
Ca2 O26 2.381087 1_555
Ca2 O16 2.394256 1_545
Ca2 O22 2.394256 1_545
Ca3 O34 2.298693 1_555
Ca3 O8 2.346562 1_555
Ca3 O14 2.346562 1_555
Ca3 O27 2.381087 1_555
Ca3 O23 2.394256 1_555
Ca3 O17 2.394256 1_555
O0 P0 1.624786 1_555
O0 P8 1.634166 1_555
O1 P1 1.624786 1_555
O1 P9 1.634166 1_556
O2 P2 1.624786 1_555
O2 P10 1.634166 1_555
O3 P3 1.624786 1_555
O3 P11 1.634166 1_554
O4 P4 1.624786 1_555
O4 P10 1.634166 1_555
O5 P5 1.624786 1_555
O5 P11 1.634166 1_554
O6 P6 1.624786 1_555
O6 P8 1.634166 1_555
O7 P7 1.624786 1_555
O7 P9 1.634166 1_556
O8 P0 1.494600 1_555
O9 P1 1.494600 1_455
O10 P2 1.494600 1_655
O11 P3 1.494600 1_555
O12 P4 1.494600 1_555
O13 P5 1.494600 1_655
O14 P6 1.494600 1_455
O15 P7 1.494600 1_555
O16 P0 1.502259 1_555
O17 P1 1.502259 1_455
O18 P2 1.502259 1_655
O19 P3 1.502259 1_555
O20 P4 1.502259 1_555
O21 P5 1.502259 1_655
O22 P6 1.502259 1_455
O23 P7 1.502259 1_555
O24 P8 1.502873 1_555
O25 P9 1.502873 1_555
O26 P10 1.502873 1_555
O27 P11 1.502873 1_555
O28 P6 1.631447 1_555
O28 P0 1.631447 1_555
O29 P7 1.631447 1_555
O29 P1 1.631447 1_555
O30 P4 1.631447 1_555
O30 P2 1.631447 1_555
O31 P3 1.631447 1_555
O31 P5 1.631447 1_555
O32 P8 1.485981 1_555
O33 P9 1.485981 1_555
O34 P10 1.485981 1_555
O35 P11 1.485981 1_555
