# generated using pymatgen
data_K2PbCl5
_symmetry_space_group_name_H-M   'P 1'
_cell_length_a   8.18978400
_cell_length_b   8.87211400
_cell_length_c   12.86296600
_cell_angle_alpha   90.00000000
_cell_angle_beta   90.00000000
_cell_angle_gamma   90.00000000
_symmetry_Int_Tables_number   1
_chemical_formula_structural   K2PbCl5
_chemical_formula_sum   'K8 Pb4 Cl20'
_cell_volume   934.63207869
_cell_formula_units_Z   4
loop_
 _symmetry_equiv_pos_site_id
 _symmetry_equiv_pos_as_xyz
  1  'x, y, z'
loop_
 _atom_site_type_symbol
 _atom_site_label
 _atom_site_symmetry_multiplicity
 _atom_site_fract_x
 _atom_site_fract_y
 _atom_site_fract_z
 _atom_site_occupancy
  K  K0  1  0.54620300  0.49952500  0.82774800  1
  K  K1  1  0.45379700  0.50047500  0.17225200  1
  K  K2  1  0.04620300  0.50047500  0.67225200  1
  K  K3  1  0.45379700  0.99952500  0.17225200  1
  K  K4  1  0.95379700  0.49952500  0.32774800  1
  K  K5  1  0.54620300  0.00047500  0.82774800  1
  K  K6  1  0.95379700  0.00047500  0.32774800  1
  K  K7  1  0.04620300  0.99952500  0.67225200  1
  Pb  Pb0  1  0.57009200  0.75000000  0.50293200  1
  Pb  Pb1  1  0.42990800  0.25000000  0.49706800  1
  Pb  Pb2  1  0.07009200  0.25000000  0.99706800  1
  Pb  Pb3  1  0.92990800  0.75000000  0.00293200  1
  Cl  Cl0  1  0.92209400  0.75000000  0.51326900  1
  Cl  Cl1  1  0.07790600  0.25000000  0.48673100  1
  Cl  Cl2  1  0.42209400  0.25000000  0.98673100  1
  Cl  Cl3  1  0.57790600  0.75000000  0.01326900  1
  Cl  Cl4  1  0.66423400  0.04172300  0.58162000  1
  Cl  Cl5  1  0.33576600  0.95827700  0.41838000  1
  Cl  Cl6  1  0.16423400  0.95827700  0.91838000  1
  Cl  Cl7  1  0.33576600  0.54172300  0.41838000  1
  Cl  Cl8  1  0.83576600  0.04172300  0.08162000  1
  Cl  Cl9  1  0.66423400  0.45827700  0.58162000  1
  Cl  Cl10  1  0.83576600  0.45827700  0.08162000  1
  Cl  Cl11  1  0.16423400  0.54172300  0.91838000  1
  Cl  Cl12  1  0.83241300  0.75000000  0.79729800  1
  Cl  Cl13  1  0.16758700  0.25000000  0.20270200  1
  Cl  Cl14  1  0.33241300  0.25000000  0.70270200  1
  Cl  Cl15  1  0.66758700  0.75000000  0.29729800  1
  Cl  Cl16  1  0.36817700  0.75000000  0.67528400  1
  Cl  Cl17  1  0.63182300  0.25000000  0.32471600  1
  Cl  Cl18  1  0.86817700  0.25000000  0.82471600  1
  Cl  Cl19  1  0.13182300  0.75000000  0.17528400  1
loop_
_geom_bond_atom_site_label_1
_geom_bond_atom_site_label_2
_geom_bond_distance
_geom_bond_site_symmetry_2
Cl0 Pb0 2.885885 1_555
Cl0 K7 3.180580 1_655
Cl0 K2 3.180580 1_655
Cl0 K6 3.271153 1_565
Cl0 K4 3.271153 1_555
Cl1 Pb1 2.885885 1_555
Cl1 K6 3.180580 1_455
Cl1 K4 3.180580 1_455
Cl1 K7 3.271153 1_545
Cl1 K2 3.271153 1_555
Cl2 Pb2 2.885885 1_555
Cl2 K0 3.180580 1_555
Cl2 K5 3.180580 1_555
Cl2 K3 3.271153 1_546
Cl2 K1 3.271153 1_556
Cl3 Pb3 2.885885 1_555
Cl3 K1 3.180580 1_555
Cl3 K3 3.180580 1_555
Cl3 K0 3.271153 1_554
Cl3 K5 3.271153 1_564
Cl4 Pb1 2.877550 1_555
Cl4 Pb0 2.884041 1_545
Cl4 K5 3.330388 1_555
Cl4 K7 3.359338 1_645
Cl5 Pb0 2.877550 1_555
Cl5 Pb1 2.884041 1_565
Cl5 K3 3.330388 1_555
Cl5 K6 3.359338 1_465
Cl6 Pb3 2.877550 1_456
Cl6 Pb2 2.884041 1_565
Cl6 K7 3.330388 1_555
Cl6 K5 3.359338 1_565
Cl7 Pb0 2.877550 1_555
Cl7 Pb1 2.884041 1_555
Cl7 K1 3.330388 1_555
Cl7 K4 3.359338 1_455
Cl8 Pb2 2.877550 1_654
Cl8 Pb3 2.884041 1_545
Cl8 K6 3.330388 1_555
Cl8 K3 3.359338 1_545
Cl9 Pb1 2.877550 1_555
Cl9 Pb0 2.884041 1_555
Cl9 K0 3.330388 1_555
Cl9 K2 3.359338 1_655
Cl10 Pb2 2.877550 1_654
Cl10 Pb3 2.884041 1_555
Cl10 K4 3.330388 1_555
Cl10 K1 3.359338 1_555
Cl11 Pb3 2.877550 1_456
Cl11 Pb2 2.884041 1_555
Cl11 K2 3.330388 1_555
Cl11 K0 3.359338 1_555
Cl12 Pb3 2.762952 1_556
Cl12 K2 3.248654 1_655
Cl12 K7 3.248654 1_655
Cl12 K0 3.253629 1_555
Cl12 K5 3.253629 1_565
Cl13 Pb2 2.762952 1_554
Cl13 K4 3.248654 1_455
Cl13 K6 3.248654 1_455
Cl13 K1 3.253629 1_555
Cl13 K3 3.253629 1_545
Cl14 Pb1 2.762952 1_555
Cl14 K0 3.248654 1_555
Cl14 K5 3.248654 1_555
Cl14 K7 3.253629 1_545
Cl14 K2 3.253629 1_555
Cl15 Pb0 2.762952 1_555
Cl15 K1 3.248654 1_555
Cl15 K3 3.248654 1_555
Cl15 K6 3.253629 1_565
Cl15 K4 3.253629 1_555
Cl16 Pb0 2.765760 1_555
Cl16 K5 3.303056 1_565
Cl16 K0 3.303056 1_555
Cl16 K7 3.443214 1_555
Cl16 K2 3.443214 1_555
Cl17 Pb1 2.765760 1_555
Cl17 K3 3.303056 1_545
Cl17 K1 3.303056 1_555
Cl17 K4 3.443214 1_555
Cl17 K6 3.443214 1_555
Cl18 Pb2 2.765760 1_655
Cl18 K7 3.303056 1_645
Cl18 K2 3.303056 1_655
Cl18 K5 3.443214 1_555
Cl18 K0 3.443214 1_555
Cl19 Pb3 2.765760 1_455
Cl19 K4 3.303056 1_455
Cl19 K6 3.303056 1_465
Cl19 K1 3.443214 1_555
Cl19 K3 3.443214 1_555
