# generated using pymatgen
data_K2Sm2Mg(MoO4)4
_symmetry_space_group_name_H-M   'P 1'
_cell_length_a   7.46263638
_cell_length_b   7.97225214
_cell_length_c   7.78817390
_cell_angle_alpha   114.90762189
_cell_angle_beta   116.15869615
_cell_angle_gamma   93.80788599
_symmetry_Int_Tables_number   1
_chemical_formula_structural   K2Sm2Mg(MoO4)4
_chemical_formula_sum   'K2 Sm2 Mg1 Mo4 O16'
_cell_volume   358.66952258
_cell_formula_units_Z   1
loop_
 _symmetry_equiv_pos_site_id
 _symmetry_equiv_pos_as_xyz
  1  'x, y, z'
loop_
 _atom_site_type_symbol
 _atom_site_label
 _atom_site_symmetry_multiplicity
 _atom_site_fract_x
 _atom_site_fract_y
 _atom_site_fract_z
 _atom_site_occupancy
  K  K0  1  0.35519853  0.13142719  0.19663179  1
  K  K1  1  0.55594359  0.85045116  0.74813402  1
  Sm  Sm0  1  0.00424815  0.79142047  0.25018645  1
  Sm  Sm1  1  0.98732506  0.18556953  0.73098129  1
  Mg  Mg0  1  0.68691992  0.46105696  0.62109233  1
  Mo  Mo0  1  0.93708099  0.31348503  0.26062039  1
  Mo  Mo1  1  0.08639121  0.69446623  0.74507324  1
  Mo  Mo2  1  0.52282542  0.67039327  0.22657766  1
  Mo  Mo3  1  0.47665165  0.30907046  0.78232551  1
  O  O0  1  0.65983233  0.23252474  0.06284330  1
  O  O1  1  0.35893040  0.77305824  0.94417140  1
  O  O2  1  0.61609579  0.58055742  0.41753508  1
  O  O3  1  0.39990755  0.41554483  0.59194043  1
  O  O4  1  0.74827325  0.89303880  0.36991982  1
  O  O5  1  0.25780206  0.08150965  0.62404601  1
  O  O6  1  0.04684471  0.33288557  0.10216956  1
  O  O7  1  0.92820621  0.68155691  0.89151261  1
  O  O8  1  0.05419356  0.61370706  0.44646629  1
  O  O9  1  0.92523103  0.39311196  0.54882309  1
  O  O10  1  0.67418127  0.56811814  0.05000113  1
  O  O11  1  0.31645973  0.42710300  0.95708408  1
  O  O12  1  0.98099762  0.08961709  0.24768919  1
  O  O13  1  0.03565719  0.93479719  0.78482181  1
  O  O14  1  0.34165561  0.78145005  0.29486858  1
  O  O15  1  0.67707618  0.24050803  0.68781793  1
loop_
_geom_bond_atom_site_label_1
_geom_bond_atom_site_label_2
_geom_bond_distance
_geom_bond_site_symmetry_2
K0 O13 2.637308 1_544
K0 O1 2.712272 1_544
K0 O3 2.800078 1_555
K0 O6 2.899896 1_555
K0 Mg0 2.926633 1_555
K0 O12 3.005748 1_455
K0 O0 3.075079 1_555
K0 O15 3.158881 1_555
K0 O14 3.195160 1_545
K0 O2 3.240835 1_555
K1 O1 2.743266 1_555
K1 O0 2.758429 1_566
K1 O2 2.818066 1_555
K1 O14 2.931141 1_555
K1 O5 3.070079 1_565
K1 O3 3.085326 1_555
K1 O7 3.131388 1_555
K1 O8 3.266815 1_555
K1 O12 3.301660 1_566
Mg0 O7 1.971145 1_555
Mg0 O15 2.037920 1_555
Mg0 O3 2.041915 1_555
Mg0 O2 2.073769 1_555
Mg0 O9 2.127615 1_555
Mo0 O0 1.801445 1_555
Mo0 O6 1.803598 1_655
Mo0 O12 1.805052 1_555
Mo0 O8 2.067891 1_655
Mo0 O9 2.105039 1_555
Mo1 O1 1.779117 1_555
Mo1 O13 1.900065 1_555
Mo1 O7 1.993655 1_455
Mo1 O8 2.026387 1_555
Mo1 O9 2.111129 1_455
Mo2 O2 1.805510 1_555
Mo2 O14 1.814126 1_555
Mo2 O4 1.872340 1_555
Mo2 O11 1.965493 1_554
Mo2 O10 2.092665 1_555
Mo2 O1 2.506131 1_554
Mo3 O5 1.850879 1_555
Mo3 O3 1.903434 1_555
Mo3 O15 1.953975 1_555
Mo3 O10 2.010878 1_556
Mo3 O11 2.161546 1_555
Mo3 O0 2.369518 1_556
O4 Sm1 2.455428 1_565
O4 Sm0 2.512918 1_655
O5 Sm0 2.509133 1_545
O5 Sm1 2.564900 1_455
O6 Sm1 2.423330 1_454
O7 Sm0 2.316847 1_656
O8 Sm0 2.423841 1_555
O9 Sm1 2.542517 1_555
O10 Sm0 2.315343 1_655
O11 Sm1 2.354514 1_455
O12 Sm0 2.402663 1_645
O13 Sm1 2.229652 1_465
O14 Sm0 2.396828 1_555
O15 Sm1 2.288621 1_555
