# generated using pymatgen
data_ZrTiB4
_symmetry_space_group_name_H-M   'P 1'
_cell_length_a   3.09712428
_cell_length_b   3.09712428
_cell_length_c   6.79450025
_cell_angle_alpha   90.00000000
_cell_angle_beta   90.00000000
_cell_angle_gamma   119.99998251
_symmetry_Int_Tables_number   1
_chemical_formula_structural   ZrTiB4
_chemical_formula_sum   'Zr1 Ti1 B4'
_cell_volume   56.44240274
_cell_formula_units_Z   1
loop_
 _symmetry_equiv_pos_site_id
 _symmetry_equiv_pos_as_xyz
  1  'x, y, z'
loop_
 _atom_site_type_symbol
 _atom_site_label
 _atom_site_symmetry_multiplicity
 _atom_site_fract_x
 _atom_site_fract_y
 _atom_site_fract_z
 _atom_site_occupancy
  Zr  Zr0  1  -0.00000000  -0.00000000  0.50000000  1
  Ti  Ti0  1  -0.00000000  -0.00000000  0.00000000  1
  B  B0  1  0.66666700  0.33333300  0.76642941  1
  B  B1  1  0.66666700  0.33333300  0.23357059  1
  B  B2  1  0.33333300  0.66666700  0.76642941  1
  B  B3  1  0.33333300  0.66666700  0.23357059  1
loop_
_geom_bond_atom_site_label_1
_geom_bond_atom_site_label_2
_geom_bond_distance
_geom_bond_site_symmetry_2
B0 B2 1.788124 1_545
B0 B2 1.788124 1_655
B0 B2 1.788129 1_555
B0 Ti0 2.390803 1_656
B0 Ti0 2.390806 1_666
B0 Ti0 2.390806 1_556
B0 Zr0 2.544486 1_655
B0 Zr0 2.544488 1_555
B0 Zr0 2.544488 1_665
B1 B3 1.788124 1_545
B1 B3 1.788124 1_655
B1 B3 1.788129 1_555
B1 Ti0 2.390803 1_655
B1 Ti0 2.390806 1_555
B1 Ti0 2.390806 1_665
B1 Zr0 2.544486 1_655
B1 Zr0 2.544488 1_555
B1 Zr0 2.544488 1_665
B2 Ti0 2.390803 1_566
B2 Ti0 2.390806 1_666
B2 Ti0 2.390806 1_556
B2 Zr0 2.544486 1_565
B2 Zr0 2.544488 1_555
B2 Zr0 2.544488 1_665
B3 Ti0 2.390803 1_565
B3 Ti0 2.390806 1_555
B3 Ti0 2.390806 1_665
B3 Zr0 2.544486 1_565
B3 Zr0 2.544488 1_555
B3 Zr0 2.544488 1_665
