# generated using pymatgen
data_Mg15Fe
_symmetry_space_group_name_H-M   'P 1'
_cell_length_a   6.30486006
_cell_length_b   6.30486006
_cell_length_c   9.93962000
_cell_angle_alpha   90.00000000
_cell_angle_beta   90.00000000
_cell_angle_gamma   120.00000066
_symmetry_Int_Tables_number   1
_chemical_formula_structural   Mg15Fe
_chemical_formula_sum   'Mg15 Fe1'
_cell_volume   342.17739342
_cell_formula_units_Z   1
loop_
 _symmetry_equiv_pos_site_id
 _symmetry_equiv_pos_as_xyz
  1  'x, y, z'
loop_
 _atom_site_type_symbol
 _atom_site_label
 _atom_site_symmetry_multiplicity
 _atom_site_fract_x
 _atom_site_fract_y
 _atom_site_fract_z
 _atom_site_occupancy
  Mg  Mg0  1  0.00000000  0.00000000  0.00000000  1
  Mg  Mg1  1  0.99485200  0.49742600  0.50000000  1
  Mg  Mg2  1  0.00354400  0.50177200  0.00000000  1
  Mg  Mg3  1  0.50257400  0.49742600  0.50000000  1
  Mg  Mg4  1  0.49822800  0.50177200  0.00000000  1
  Mg  Mg5  1  0.50257400  0.00514800  0.50000000  1
  Mg  Mg6  1  0.49822800  0.99645600  0.00000000  1
  Mg  Mg7  1  0.15929200  0.31858400  0.26584900  1
  Mg  Mg8  1  0.15929200  0.31858400  0.73415100  1
  Mg  Mg9  1  0.15929200  0.84070800  0.26584900  1
  Mg  Mg10  1  0.15929200  0.84070800  0.73415100  1
  Mg  Mg11  1  0.68141600  0.84070800  0.26584900  1
  Mg  Mg12  1  0.68141600  0.84070800  0.73415100  1
  Mg  Mg13  1  0.66666700  0.33333300  0.24719600  1
  Mg  Mg14  1  0.66666700  0.33333300  0.75280400  1
  Fe  Fe0  1  0.00000000  0.00000000  0.50000000  1
loop_
_geom_bond_atom_site_label_1
_geom_bond_atom_site_label_2
_geom_bond_distance
_geom_bond_site_symmetry_2
Mg0 Mg4 3.152489 1_555
Mg0 Mg4 3.152489 1_445
Mg0 Mg2 3.152489 1_555
Mg0 Mg6 3.152489 1_445
Mg0 Mg6 3.152489 1_545
Mg0 Mg2 3.152489 1_545
Mg0 Mg8 3.163608 1_554
Mg0 Mg7 3.163608 1_555
Mg0 Mg11 3.163608 1_445
Mg0 Mg12 3.163608 1_444
Mg0 Mg10 3.163608 1_544
Mg0 Mg9 3.163608 1_545
Mg1 Mg9 2.988647 1_655
Mg1 Mg10 2.988647 1_655
Mg1 Mg7 2.988647 1_655
Mg1 Mg8 2.988647 1_655
Mg1 Mg14 3.086278 1_555
Mg1 Mg13 3.086278 1_555
Mg1 Mg5 3.103744 1_555
Mg1 Mg3 3.103744 1_555
Mg1 Mg5 3.201116 1_665
Mg1 Mg3 3.201116 1_655
Mg2 Mg6 3.118913 1_555
Mg2 Mg4 3.118913 1_555
Mg2 Mg6 3.185947 1_445
Mg2 Mg4 3.185947 1_455
Mg2 Mg9 3.227206 1_555
Mg2 Mg8 3.227206 1_554
Mg2 Mg7 3.227206 1_555
Mg3 Mg7 2.988647 1_555
Mg3 Mg8 2.988647 1_555
Mg3 Mg5 3.103744 1_555
Mg3 Mg5 3.201116 1_565
Mg4 Mg6 3.118913 1_555
Mg4 Mg6 3.185947 1_545
Mg4 Mg8 3.227206 1_554
Mg4 Mg7 3.227206 1_555
Mg5 Mg9 2.988647 1_545
Mg6 Mg9 3.227206 1_555
Mg10 Mg5 2.988647 1_565
Mg10 Mg14 3.158904 1_455
Mg10 Mg14 3.158904 1_565
Mg10 Mg2 3.227206 1_556
Mg10 Mg6 3.227206 1_556
Mg11 Mg3 2.988647 1_555
Mg11 Mg5 2.988647 1_565
Mg11 Mg13 3.158901 1_565
Mg11 Mg13 3.158907 1_555
Mg11 Mg4 3.227206 1_555
Mg11 Mg6 3.227206 1_555
Mg12 Mg3 2.988647 1_555
Mg12 Mg5 2.988647 1_565
Mg12 Mg14 3.158901 1_565
Mg12 Mg14 3.158907 1_555
Mg12 Mg4 3.227206 1_556
Mg12 Mg6 3.227206 1_556
Mg13 Mg2 3.069272 1_655
Mg13 Mg6 3.069272 1_545
Mg13 Mg4 3.069275 1_555
Mg13 Mg5 3.086278 1_555
Mg13 Mg3 3.086281 1_555
Mg13 Mg7 3.158901 1_655
Mg13 Mg9 3.158904 1_545
Mg13 Mg9 3.158904 1_655
Mg13 Mg7 3.158907 1_555
Mg14 Mg2 3.069272 1_656
Mg14 Mg6 3.069272 1_546
Mg14 Mg4 3.069275 1_556
Mg14 Mg5 3.086278 1_555
Mg14 Mg3 3.086281 1_555
Mg14 Mg8 3.158901 1_655
Mg14 Mg8 3.158907 1_555
Fe0 Mg7 2.905615 1_555
Fe0 Mg11 2.905615 1_445
Fe0 Mg8 2.905615 1_555
Fe0 Mg12 2.905615 1_445
Fe0 Mg9 2.905615 1_545
Fe0 Mg10 2.905615 1_545
Fe0 Mg3 3.152555 1_555
Fe0 Mg3 3.152555 1_445
Fe0 Mg5 3.152555 1_555
Fe0 Mg1 3.152555 1_445
Fe0 Mg1 3.152555 1_455
Fe0 Mg5 3.152555 1_455
