# generated using pymatgen
data_NaLa(NiO3)4
_symmetry_space_group_name_H-M   'P 1'
_cell_length_a   5.34554192
_cell_length_b   5.34554192
_cell_length_c   7.72757153
_cell_angle_alpha   90.00000000
_cell_angle_beta   90.00000000
_cell_angle_gamma   89.88506218
_symmetry_Int_Tables_number   1
_chemical_formula_structural   NaLa(NiO3)4
_chemical_formula_sum   'Na1 La1 Ni4 O12'
_cell_volume   220.81350906
_cell_formula_units_Z   1
loop_
 _symmetry_equiv_pos_site_id
 _symmetry_equiv_pos_as_xyz
  1  'x, y, z'
loop_
 _atom_site_type_symbol
 _atom_site_label
 _atom_site_symmetry_multiplicity
 _atom_site_fract_x
 _atom_site_fract_y
 _atom_site_fract_z
 _atom_site_occupancy
  Na  Na0  1  0.98918746  0.01081254  0.00000000  1
  La  La0  1  0.51236785  0.48763215  0.50000000  1
  Ni  Ni0  1  0.49700434  0.99468521  0.24286606  1
  Ni  Ni1  1  0.49700434  0.99468521  0.75713394  1
  Ni  Ni2  1  0.00531479  0.50299566  0.75713394  1
  Ni  Ni3  1  0.00531479  0.50299566  0.24286606  1
  O  O0  1  0.28501177  0.28058680  0.25762647  1
  O  O1  1  0.71941320  0.71498823  0.25762647  1
  O  O2  1  0.71941320  0.71498823  0.74237353  1
  O  O3  1  0.28501177  0.28058680  0.74237353  1
  O  O4  1  0.21367348  0.78632652  0.21179743  1
  O  O5  1  0.75592761  0.24407239  0.27584843  1
  O  O6  1  0.75592761  0.24407239  0.72415157  1
  O  O7  1  0.21367348  0.78632652  0.78820257  1
  O  O8  1  0.54632401  0.00673806  0.00000000  1
  O  O9  1  0.47868548  0.96751712  0.50000000  1
  O  O10  1  0.99326194  0.45367599  0.00000000  1
  O  O11  1  0.03248288  0.52131452  0.50000000  1
loop_
_geom_bond_atom_site_label_1
_geom_bond_atom_site_label_2
_geom_bond_distance
_geom_bond_site_symmetry_2
Na0 O7 2.356468 1_644
Na0 O4 2.356468 1_645
Na0 O8 2.367489 1_555
Na0 O10 2.367489 1_555
Na0 O5 2.765351 1_555
Na0 O6 2.765351 1_554
La0 O3 2.493063 1_555
La0 O1 2.493063 1_555
La0 O0 2.493063 1_555
La0 O2 2.493063 1_555
La0 O6 2.526604 1_555
La0 O5 2.526604 1_555
La0 O11 2.571196 1_555
La0 O9 2.571196 1_555
La0 O9 2.786481 1_545
La0 O11 2.786481 1_655
Ni0 O8 1.896305 1_565
Ni0 O4 1.897056 1_555
Ni0 O0 1.904189 1_565
Ni0 O1 1.911746 1_555
Ni0 O5 1.940422 1_565
Ni0 O9 1.994740 1_555
Ni1 O8 1.896305 1_566
Ni1 O7 1.897056 1_555
Ni1 O3 1.904189 1_565
Ni1 O2 1.911746 1_555
Ni1 O6 1.940422 1_565
Ni1 O9 1.994740 1_555
Ni2 O10 1.896305 1_456
Ni2 O7 1.897056 1_555
Ni2 O2 1.904189 1_455
Ni2 O3 1.911746 1_555
Ni2 O6 1.940422 1_455
Ni2 O11 1.994740 1_555
Ni3 O10 1.896305 1_455
Ni3 O4 1.897056 1_555
Ni3 O1 1.904189 1_455
Ni3 O0 1.911746 1_555
Ni3 O5 1.940422 1_455
Ni3 O11 1.994740 1_555
