# generated using pymatgen
data_SrCaV(PO4)2
_symmetry_space_group_name_H-M   'P 1'
_cell_length_a   5.74496871
_cell_length_b   6.98154288
_cell_length_c   9.63758281
_cell_angle_alpha   109.92494194
_cell_angle_beta   101.06915176
_cell_angle_gamma   98.27141263
_symmetry_Int_Tables_number   1
_chemical_formula_structural   SrCaV(PO4)2
_chemical_formula_sum   'Sr2 Ca2 V2 P4 O16'
_cell_volume   347.35449182
_cell_formula_units_Z   2
loop_
 _symmetry_equiv_pos_site_id
 _symmetry_equiv_pos_as_xyz
  1  'x, y, z'
loop_
 _atom_site_type_symbol
 _atom_site_label
 _atom_site_symmetry_multiplicity
 _atom_site_fract_x
 _atom_site_fract_y
 _atom_site_fract_z
 _atom_site_occupancy
  Sr  Sr0  1  0.25883300  0.80699900  0.05466700  1
  Sr  Sr1  1  0.74116700  0.19300100  0.94533300  1
  Ca  Ca0  1  0.99962000  0.41848900  0.66132600  1
  Ca  Ca1  1  0.00038000  0.58151100  0.33867400  1
  V  V0  1  0.65291500  0.85241500  0.56363000  1
  V  V1  1  0.34708400  0.14758500  0.43637000  1
  P  P0  1  0.39010800  0.41530500  0.22317000  1
  P  P1  1  0.60989200  0.58469500  0.77683000  1
  P  P2  1  0.83823400  0.02996500  0.29770100  1
  P  P3  1  0.16176600  0.97003500  0.70229900  1
  O  O0  1  0.83670600  0.55485600  0.87964700  1
  O  O1  1  0.62314700  0.45012000  0.16907300  1
  O  O2  1  0.66449800  0.80531400  0.77130600  1
  O  O3  1  0.96869400  0.10943500  0.70219000  1
  O  O4  1  0.37685300  0.54988000  0.83092700  1
  O  O5  1  0.00806000  0.74197400  0.59400900  1
  O  O6  1  0.99194000  0.25802600  0.40599100  1
  O  O7  1  0.27271600  0.99306300  0.86521100  1
  O  O8  1  0.33550200  0.19468600  0.22869400  1
  O  O9  1  0.72728400  0.00693700  0.13478900  1
  O  O10  1  0.16329400  0.44514400  0.12035300  1
  O  O11  1  0.41633700  0.58105500  0.38653800  1
  O  O12  1  0.58366300  0.41894500  0.61346200  1
  O  O13  1  0.63682300  0.96890700  0.37439100  1
  O  O14  1  0.03130600  0.89056500  0.29781000  1
  O  O15  1  0.36317700  0.03109300  0.62560900  1
loop_
_geom_bond_atom_site_label_1
_geom_bond_atom_site_label_2
_geom_bond_distance
_geom_bond_site_symmetry_2
Ca0 O4 2.292542 1_655
Ca0 O3 2.310404 1_555
Ca0 O6 2.318984 1_555
Ca0 O12 2.345887 1_555
Ca0 O0 2.420080 1_555
Ca0 O5 2.550090 1_655
Ca1 O1 2.292542 1_455
Ca1 O14 2.310404 1_555
Ca1 O5 2.318984 1_555
Ca1 O11 2.345887 1_555
Ca1 O10 2.420080 1_555
Ca1 O6 2.550090 1_455
O0 P1 1.564035 1_555
O0 Sr0 2.646187 1_656
O0 Sr1 2.812248 1_555
O1 P0 1.544039 1_555
O1 Sr1 2.570038 1_554
O2 P1 1.548201 1_555
O2 V0 2.126567 1_555
O2 Sr1 2.571420 1_565
O3 P3 1.577443 1_645
O3 V0 2.189554 1_545
O3 Sr1 2.829110 1_555
O4 P1 1.544039 1_555
O4 Sr0 2.570038 1_556
O5 P3 1.585281 1_555
O5 V0 2.284770 1_455
O6 P2 1.585281 1_555
O6 V1 2.284765 1_655
O7 P3 1.520349 1_555
O7 Sr0 2.582716 1_556
O7 Sr1 2.678430 1_565
O8 P0 1.548201 1_555
O8 V1 2.126568 1_555
O8 Sr0 2.571420 1_545
O9 P2 1.520349 1_555
O9 Sr1 2.582716 1_554
O9 Sr0 2.678430 1_545
O10 P0 1.564035 1_555
O10 Sr1 2.646187 1_454
O10 Sr0 2.812248 1_555
O11 P0 1.567698 1_555
O11 V0 2.124605 1_555
O12 P1 1.567698 1_555
O12 V1 2.124607 1_555
O13 P2 1.571015 1_565
O13 V0 2.228033 1_555
O13 V1 2.270460 1_565
O13 Sr0 3.136640 1_555
O14 P2 1.577443 1_465
O14 V1 2.189551 1_565
O14 Sr0 2.829110 1_555
O15 P3 1.571015 1_545
O15 V1 2.228033 1_555
O15 V0 2.270455 1_545
O15 Sr1 3.136640 1_555
