# generated using pymatgen
data_Pr2Y2O5
_symmetry_space_group_name_H-M   'P 1'
_cell_length_a   3.92196100
_cell_length_b   3.92196100
_cell_length_c   10.73724900
_cell_angle_alpha   90.00000000
_cell_angle_beta   90.00000000
_cell_angle_gamma   90.00000000
_symmetry_Int_Tables_number   1
_chemical_formula_structural   Pr2Y2O5
_chemical_formula_sum   'Pr2 Y2 O5'
_cell_volume   165.15798137
_cell_formula_units_Z   1
loop_
 _symmetry_equiv_pos_site_id
 _symmetry_equiv_pos_as_xyz
  1  'x, y, z'
loop_
 _atom_site_type_symbol
 _atom_site_label
 _atom_site_symmetry_multiplicity
 _atom_site_fract_x
 _atom_site_fract_y
 _atom_site_fract_z
 _atom_site_occupancy
  Pr  Pr0  1  0.00000000  0.00000000  0.23262600  1
  Pr  Pr1  1  0.00000000  0.00000000  0.76737400  1
  Y  Y0  1  0.50000000  0.50000000  0.00000000  1
  Y  Y1  1  0.50000000  0.50000000  0.50000000  1
  O  O0  1  0.00000000  0.50000000  0.12907900  1
  O  O1  1  0.00000000  0.50000000  0.87092100  1
  O  O2  1  0.00000000  0.00000000  0.50000000  1
  O  O3  1  0.50000000  0.00000000  0.12907900  1
  O  O4  1  0.50000000  0.00000000  0.87092100  1
loop_
_geom_bond_atom_site_label_1
_geom_bond_atom_site_label_2
_geom_bond_distance
_geom_bond_site_symmetry_2
O0 Pr0 2.254233 1_565
O0 Pr0 2.254233 1_555
O0 Y0 2.401314 1_455
O0 Y0 2.401314 1_555
O1 Pr1 2.254233 1_555
O1 Pr1 2.254233 1_565
O1 Y0 2.401314 1_456
O1 Y0 2.401314 1_556
O2 Y1 2.773245 1_545
O2 Y1 2.773245 1_555
O2 Y1 2.773245 1_445
O2 Y1 2.773245 1_455
O2 Pr1 2.870861 1_555
O2 Pr0 2.870861 1_555
O3 Pr0 2.254233 1_555
O3 Pr0 2.254233 1_655
O3 Y0 2.401314 1_555
O3 Y0 2.401314 1_545
O4 Pr1 2.254233 1_555
O4 Pr1 2.254233 1_655
O4 Y0 2.401314 1_556
O4 Y0 2.401314 1_546
