# generated using pymatgen
data_Pr2Mn12Co5
_symmetry_space_group_name_H-M   'P 1'
_cell_length_a   8.68467956
_cell_length_b   8.68467956
_cell_length_c   8.01751600
_cell_angle_alpha   90.00000000
_cell_angle_beta   90.00000000
_cell_angle_gamma   119.99999668
_symmetry_Int_Tables_number   1
_chemical_formula_structural   Pr2Mn12Co5
_chemical_formula_sum   'Pr4 Mn24 Co10'
_cell_volume   523.69458051
_cell_formula_units_Z   2
loop_
 _symmetry_equiv_pos_site_id
 _symmetry_equiv_pos_as_xyz
  1  'x, y, z'
loop_
 _atom_site_type_symbol
 _atom_site_label
 _atom_site_symmetry_multiplicity
 _atom_site_fract_x
 _atom_site_fract_y
 _atom_site_fract_z
 _atom_site_occupancy
  Pr  Pr0  1  0.00000000  0.00000000  0.25000000  1
  Pr  Pr1  1  0.00000000  0.00000000  0.75000000  1
  Pr  Pr2  1  0.33333300  0.66666700  0.75000000  1
  Pr  Pr3  1  0.66666700  0.33333300  0.25000000  1
  Mn  Mn0  1  0.32700100  0.39237000  0.25000000  1
  Mn  Mn1  1  0.60763000  0.93463100  0.25000000  1
  Mn  Mn2  1  0.06536900  0.67299900  0.25000000  1
  Mn  Mn3  1  0.60763000  0.67299900  0.25000000  1
  Mn  Mn4  1  0.06536900  0.39237000  0.25000000  1
  Mn  Mn5  1  0.32700100  0.93463100  0.25000000  1
  Mn  Mn6  1  0.67299900  0.60763000  0.75000000  1
  Mn  Mn7  1  0.39237000  0.06536900  0.75000000  1
  Mn  Mn8  1  0.93463100  0.32700100  0.75000000  1
  Mn  Mn9  1  0.39237000  0.32700100  0.75000000  1
  Mn  Mn10  1  0.93463100  0.60763000  0.75000000  1
  Mn  Mn11  1  0.67299900  0.06536900  0.75000000  1
  Mn  Mn12  1  0.17244400  0.82755600  0.53335600  1
  Mn  Mn13  1  0.17244400  0.34488800  0.53335600  1
  Mn  Mn14  1  0.65511200  0.82755600  0.53335600  1
  Mn  Mn15  1  0.82755600  0.17244400  0.46664400  1
  Mn  Mn16  1  0.82755600  0.65511200  0.46664400  1
  Mn  Mn17  1  0.34488800  0.17244400  0.46664400  1
  Mn  Mn18  1  0.82755600  0.17244400  0.03335600  1
  Mn  Mn19  1  0.82755600  0.65511200  0.03335600  1
  Mn  Mn20  1  0.34488800  0.17244400  0.03335600  1
  Mn  Mn21  1  0.17244400  0.82755600  0.96664400  1
  Mn  Mn22  1  0.17244400  0.34488800  0.96664400  1
  Mn  Mn23  1  0.65511200  0.82755600  0.96664400  1
  Co  Co0  1  0.33333300  0.66666700  0.39571600  1
  Co  Co1  1  0.66666700  0.33333300  0.60428400  1
  Co  Co2  1  0.66666700  0.33333300  0.89571600  1
  Co  Co3  1  0.33333300  0.66666700  0.10428400  1
  Co  Co4  1  0.50000000  0.50000000  0.50000000  1
  Co  Co5  1  0.50000000  0.00000000  0.50000000  1
  Co  Co6  1  0.00000000  0.50000000  0.50000000  1
  Co  Co7  1  0.50000000  0.50000000  0.00000000  1
  Co  Co8  1  0.50000000  0.00000000  0.00000000  1
  Co  Co9  1  0.00000000  0.50000000  0.00000000  1
loop_
_geom_bond_atom_site_label_1
_geom_bond_atom_site_label_2
_geom_bond_distance
_geom_bond_site_symmetry_2
Mn0 Mn4 2.272190 1_555
Mn0 Mn3 2.437173 1_555
Mn0 Mn13 2.565029 1_555
Mn0 Mn22 2.565029 1_554
Mn0 Mn20 2.643079 1_555
Mn0 Mn17 2.643079 1_555
Mn0 Pr0 3.162207 1_555
Mn0 Pr3 3.236849 1_555
Mn1 Mn3 2.272190 1_555
Mn1 Mn5 2.437173 1_555
Mn1 Mn14 2.565029 1_555
Mn1 Mn23 2.565029 1_554
Mn1 Mn18 2.643079 1_565
Mn1 Mn15 2.643079 1_565
Mn1 Pr0 3.162207 1_665
Mn1 Pr3 3.236841 1_565
Mn2 Mn5 2.272190 1_555
Mn2 Mn4 2.437173 1_555
Mn2 Mn21 2.565029 1_554
Mn2 Pr0 3.162207 1_565
Mn2 Pr3 3.236844 1_455
Mn3 Pr0 3.162207 1_665
Mn3 Pr3 3.236849 1_555
Mn4 Pr0 3.162207 1_555
Mn4 Pr3 3.236841 1_455
Mn5 Pr0 3.162207 1_565
Mn5 Pr3 3.236844 1_565
Mn6 Mn9 2.437173 1_555
Mn6 Pr1 3.162207 1_665
Mn6 Pr2 3.236849 1_555
Mn7 Mn9 2.272190 1_555
Mn7 Pr1 3.162207 1_555
Mn7 Pr2 3.236841 1_545
Mn8 Pr1 3.162207 1_655
Mn8 Pr2 3.236844 1_655
Mn9 Pr1 3.162207 1_555
Mn9 Pr2 3.236849 1_555
Mn10 Mn6 2.272190 1_555
Mn10 Mn8 2.437173 1_555
Mn10 Mn19 2.565029 1_556
Mn10 Mn16 2.565029 1_555
Mn10 Mn21 2.643079 1_655
Mn10 Mn12 2.643079 1_655
Mn10 Pr1 3.162207 1_665
Mn10 Pr2 3.236841 1_655
Mn11 Mn8 2.272190 1_555
Mn11 Mn7 2.437173 1_555
Mn11 Mn18 2.565029 1_556
Mn11 Mn15 2.565029 1_555
Mn11 Mn23 2.643079 1_545
Mn11 Mn14 2.643079 1_545
Mn11 Pr1 3.162207 1_655
Mn11 Pr2 3.236844 1_545
Mn12 Mn5 2.565029 1_555
Mn12 Mn2 2.565029 1_555
Mn12 Mn7 2.643079 1_565
Mn12 Mn16 2.648525 1_455
Mn12 Mn17 2.648525 1_565
Mn12 Pr2 2.978938 1_555
Mn12 Pr1 3.121793 1_565
Mn13 Mn4 2.565029 1_555
Mn13 Mn9 2.643079 1_555
Mn13 Mn8 2.643079 1_455
Mn13 Mn17 2.648525 1_555
Mn13 Mn15 2.648525 1_455
Mn13 Pr2 2.978944 1_555
Mn13 Pr1 3.121793 1_555
Mn14 Mn3 2.565029 1_555
Mn14 Mn6 2.643079 1_555
Mn14 Mn16 2.648525 1_555
Mn14 Mn15 2.648525 1_565
Mn14 Pr2 2.978944 1_555
Mn14 Pr1 3.121793 1_665
Mn15 Mn8 2.565029 1_555
Mn15 Mn4 2.643079 1_655
Mn15 Pr3 2.978938 1_555
Mn15 Pr0 3.121793 1_655
Mn16 Mn6 2.565029 1_555
Mn16 Mn3 2.643079 1_555
Mn16 Mn2 2.643079 1_655
Mn16 Pr3 2.978944 1_555
Mn16 Pr0 3.121793 1_665
Mn17 Mn7 2.565029 1_555
Mn17 Mn9 2.565029 1_555
Mn17 Mn5 2.643079 1_545
Mn17 Pr3 2.978944 1_555
Mn17 Pr0 3.121793 1_555
Mn18 Mn8 2.565029 1_554
Mn18 Mn4 2.643079 1_655
Mn18 Mn23 2.648525 1_544
Mn18 Mn22 2.648525 1_654
Mn18 Pr3 2.978938 1_555
Mn18 Pr0 3.121793 1_655
Mn19 Mn6 2.565029 1_554
Mn19 Mn3 2.643079 1_555
Mn19 Mn2 2.643079 1_655
Mn19 Mn23 2.648525 1_554
Mn19 Mn21 2.648525 1_654
Mn19 Pr3 2.978944 1_555
Mn19 Pr0 3.121793 1_665
Mn20 Mn7 2.565029 1_554
Mn20 Mn9 2.565029 1_554
Mn20 Mn5 2.643079 1_545
Mn20 Mn22 2.648525 1_554
Mn20 Mn21 2.648525 1_544
Mn20 Pr3 2.978944 1_555
Mn20 Pr0 3.121793 1_555
Mn21 Mn5 2.565029 1_556
Mn21 Mn7 2.643079 1_565
Mn21 Pr2 2.978938 1_555
Mn21 Pr1 3.121793 1_565
Mn22 Mn4 2.565029 1_556
Mn22 Mn9 2.643079 1_555
Mn22 Mn8 2.643079 1_455
Mn22 Pr2 2.978944 1_555
Mn22 Pr1 3.121793 1_555
Mn23 Mn3 2.565029 1_556
Mn23 Mn6 2.643079 1_555
Mn23 Pr2 2.978944 1_555
Mn23 Pr1 3.121793 1_665
Co0 Co3 2.336561 1_555
Co0 Mn5 2.629002 1_555
Co0 Mn2 2.629002 1_555
Co0 Mn4 2.629006 1_555
Co0 Mn1 2.629006 1_555
Co0 Mn0 2.629010 1_555
Co0 Mn3 2.629010 1_555
Co0 Co5 2.642793 1_565
Co0 Co6 2.642793 1_555
Co0 Co4 2.642800 1_555
Co0 Mn12 2.659862 1_555
Co0 Mn14 2.659869 1_555
Co0 Mn13 2.659869 1_555
Co0 Pr2 2.840478 1_555
Co1 Co2 2.336561 1_555
Co1 Mn8 2.629002 1_555
Co1 Mn11 2.629002 1_555
Co1 Mn7 2.629006 1_555
Co1 Mn10 2.629006 1_555
Co1 Mn9 2.629010 1_555
Co1 Mn6 2.629010 1_555
Co1 Co6 2.642793 1_655
Co1 Co5 2.642793 1_555
Co1 Co4 2.642800 1_555
Co1 Mn15 2.659862 1_555
Co1 Mn16 2.659869 1_555
Co1 Mn17 2.659869 1_555
Co1 Pr3 2.840478 1_555
Co2 Mn11 2.629002 1_555
Co2 Mn8 2.629002 1_555
Co2 Mn7 2.629006 1_555
Co2 Mn10 2.629006 1_555
Co2 Mn9 2.629010 1_555
Co2 Mn6 2.629010 1_555
Co2 Co9 2.642793 1_656
Co2 Co8 2.642793 1_556
Co2 Co7 2.642800 1_556
Co2 Mn18 2.659862 1_556
Co2 Mn19 2.659869 1_556
Co2 Mn20 2.659869 1_556
Co2 Pr3 2.840478 1_556
Co3 Mn5 2.629002 1_555
Co3 Mn2 2.629002 1_555
Co3 Mn1 2.629006 1_555
Co3 Mn4 2.629006 1_555
Co3 Mn0 2.629010 1_555
Co3 Mn3 2.629010 1_555
Co3 Co8 2.642793 1_565
Co3 Co9 2.642793 1_555
Co3 Co7 2.642800 1_555
Co3 Mn21 2.659862 1_554
Co3 Mn23 2.659869 1_554
Co3 Mn22 2.659869 1_554
Co3 Pr2 2.840478 1_554
Co4 Mn9 2.396708 1_555
Co4 Mn6 2.396708 1_555
Co4 Mn0 2.396708 1_555
Co4 Mn3 2.396708 1_555
Co4 Mn14 2.479214 1_555
Co4 Mn13 2.479214 1_555
Co4 Mn16 2.479214 1_555
Co4 Mn17 2.479214 1_555
Co4 Pr3 3.209808 1_555
Co4 Pr2 3.209808 1_555
Co5 Mn7 2.396708 1_555
Co5 Mn1 2.396708 1_545
Co5 Mn11 2.396708 1_555
Co5 Mn5 2.396708 1_545
Co5 Mn14 2.479214 1_545
Co5 Mn17 2.479214 1_555
Co5 Mn15 2.479214 1_555
Co5 Mn12 2.479214 1_545
Co5 Pr3 3.209802 1_555
Co5 Pr2 3.209802 1_545
Co6 Mn4 2.396708 1_555
Co6 Mn10 2.396708 1_455
Co6 Mn8 2.396708 1_455
Co6 Mn2 2.396708 1_555
Co6 Mn16 2.479214 1_455
Co6 Mn13 2.479214 1_555
Co6 Mn12 2.479214 1_555
Co6 Mn15 2.479214 1_455
Co6 Pr3 3.209802 1_455
Co6 Pr2 3.209802 1_555
Co7 Mn9 2.396708 1_554
Co7 Mn0 2.396708 1_555
Co7 Mn3 2.396708 1_555
Co7 Mn6 2.396708 1_554
Co7 Mn20 2.479214 1_555
Co7 Mn23 2.479214 1_554
Co7 Mn19 2.479214 1_555
Co7 Mn22 2.479214 1_554
Co7 Pr3 3.209808 1_555
Co7 Pr2 3.209808 1_554
Co8 Mn7 2.396708 1_554
Co8 Mn1 2.396708 1_545
Co8 Mn11 2.396708 1_554
Co8 Mn5 2.396708 1_545
Co8 Mn23 2.479214 1_544
Co8 Mn20 2.479214 1_555
Co8 Mn18 2.479214 1_555
Co8 Mn21 2.479214 1_544
Co8 Pr3 3.209802 1_555
Co8 Pr2 3.209802 1_544
Co9 Mn4 2.396708 1_555
Co9 Mn10 2.396708 1_454
Co9 Mn8 2.396708 1_454
Co9 Mn2 2.396708 1_555
Co9 Mn19 2.479214 1_455
Co9 Mn22 2.479214 1_554
Co9 Mn21 2.479214 1_554
Co9 Mn18 2.479214 1_455
Co9 Pr2 3.209802 1_554
Co9 Pr3 3.209802 1_455
