# generated using pymatgen
data_BaCo4O7
_symmetry_space_group_name_H-M   'P 1'
_cell_length_a   6.36254696
_cell_length_b   6.36254696
_cell_length_c   10.13896100
_cell_angle_alpha   90.00000000
_cell_angle_beta   90.00000000
_cell_angle_gamma   119.99998919
_symmetry_Int_Tables_number   1
_chemical_formula_structural   BaCo4O7
_chemical_formula_sum   'Ba2 Co8 O14'
_cell_volume   355.45623216
_cell_formula_units_Z   2
loop_
 _symmetry_equiv_pos_site_id
 _symmetry_equiv_pos_as_xyz
  1  'x, y, z'
loop_
 _atom_site_type_symbol
 _atom_site_label
 _atom_site_symmetry_multiplicity
 _atom_site_fract_x
 _atom_site_fract_y
 _atom_site_fract_z
 _atom_site_occupancy
  Ba  Ba0  1  0.66666700  0.33333300  0.49641900  1
  Ba  Ba1  1  0.33333300  0.66666700  0.99641900  1
  Co  Co0  1  0.82686900  0.17313100  0.18718600  1
  Co  Co1  1  0.65373800  0.82686900  0.68718600  1
  Co  Co2  1  0.17313100  0.34626200  0.68718600  1
  Co  Co3  1  0.82686900  0.65373800  0.18718600  1
  Co  Co4  1  0.34626200  0.17313100  0.18718600  1
  Co  Co5  1  0.17313100  0.82686900  0.68718600  1
  Co  Co6  1  0.00000000  0.00000000  0.43801900  1
  Co  Co7  1  0.00000000  0.00000000  0.93801900  1
  O  O0  1  0.85029200  0.14970800  0.01312400  1
  O  O1  1  0.70058400  0.85029200  0.51312400  1
  O  O2  1  0.14970800  0.29941600  0.51312400  1
  O  O3  1  0.85029200  0.70058400  0.01312400  1
  O  O4  1  0.29941600  0.14970800  0.01312400  1
  O  O5  1  0.14970800  0.85029200  0.51312400  1
  O  O6  1  0.00000000  0.00000000  0.75059100  1
  O  O7  1  0.00000000  0.00000000  0.25059100  1
  O  O8  1  0.51589300  0.48410700  0.25603100  1
  O  O9  1  0.03178600  0.51589300  0.75603100  1
  O  O10  1  0.48410700  0.96821400  0.75603100  1
  O  O11  1  0.51589300  0.03178600  0.25603100  1
  O  O12  1  0.48410700  0.51589300  0.75603100  1
  O  O13  1  0.96821400  0.48410700  0.25603100  1
loop_
_geom_bond_atom_site_label_1
_geom_bond_atom_site_label_2
_geom_bond_distance
_geom_bond_site_symmetry_2
Ba0 O13 2.949771 1_555
Ba0 O11 2.949771 1_555
Ba0 O8 2.949773 1_555
Ba0 O1 3.191253 1_545
Ba0 O2 3.191253 1_655
Ba0 O5 3.191257 1_655
Ba0 O5 3.191257 1_545
Ba0 O2 3.191259 1_555
Ba0 O1 3.191259 1_555
Ba0 O10 3.313006 1_545
Ba0 O9 3.313006 1_655
Ba0 O12 3.313009 1_555
Ba1 O9 2.949771 1_555
Ba1 O10 2.949771 1_555
Ba1 O12 2.949773 1_555
Ba1 O3 3.191253 1_456
Ba1 O4 3.191253 1_566
Ba1 O0 3.191257 1_566
Ba1 O0 3.191257 1_456
Ba1 O4 3.191259 1_556
Ba1 O3 3.191259 1_556
Ba1 O11 3.313006 1_566
Ba1 O13 3.313006 1_456
Ba1 O8 3.313009 1_556
Co0 O0 1.783585 1_555
Co0 O11 1.852422 1_555
Co0 O13 1.852422 1_555
Co0 O7 2.013339 1_655
Co1 O1 1.783585 1_555
Co1 O10 1.852422 1_555
Co1 O12 1.852422 1_555
Co1 O6 2.013339 1_665
Co2 O2 1.783585 1_555
Co2 O9 1.852422 1_555
Co2 O12 1.852422 1_555
Co2 O6 2.013339 1_555
Co3 O3 1.783585 1_555
Co3 O13 1.852422 1_555
Co3 O8 1.852422 1_555
Co3 O7 2.013339 1_665
Co4 O4 1.783585 1_555
Co4 O11 1.852422 1_555
Co4 O8 1.852422 1_555
Co4 O7 2.013339 1_555
Co5 O5 1.783585 1_555
Co5 O9 1.852422 1_555
Co5 O10 1.852422 1_555
Co5 O6 2.013339 1_565
Co6 O5 1.817077 1_545
Co6 O1 1.817077 1_445
Co6 O2 1.817077 1_555
Co6 O7 1.900325 1_555
Co7 O0 1.817077 1_456
Co7 O3 1.817077 1_446
Co7 O4 1.817077 1_556
Co7 O6 1.900325 1_555
