# generated using pymatgen
data_YbS2
_symmetry_space_group_name_H-M   'P 1'
_cell_length_a   5.53990303
_cell_length_b   5.53990303
_cell_length_c   5.53990303
_cell_angle_alpha   60.00000000
_cell_angle_beta   60.00000000
_cell_angle_gamma   60.00000000
_symmetry_Int_Tables_number   1
_chemical_formula_structural   YbS2
_chemical_formula_sum   'Yb2 S4'
_cell_volume   120.22408796
_cell_formula_units_Z   2
loop_
 _symmetry_equiv_pos_site_id
 _symmetry_equiv_pos_as_xyz
  1  'x, y, z'
loop_
 _atom_site_type_symbol
 _atom_site_label
 _atom_site_symmetry_multiplicity
 _atom_site_fract_x
 _atom_site_fract_y
 _atom_site_fract_z
 _atom_site_occupancy
  Yb  Yb0  1  0.75000000  0.75000000  0.75000000  1
  Yb  Yb1  1  0.50000000  0.50000000  0.50000000  1
  S  S0  1  0.12500000  0.12500000  0.62500000  1
  S  S1  1  0.12500000  0.62500000  0.12500000  1
  S  S2  1  0.12500000  0.12500000  0.12500000  1
  S  S3  1  0.62500000  0.12500000  0.12500000  1
loop_
_geom_bond_atom_site_label_1
_geom_bond_atom_site_label_2
_geom_bond_distance
_geom_bond_site_symmetry_2
S0 S1 2.769952 1_546
S0 S2 2.769952 1_556
S0 S1 2.769952 1_555
S0 S3 2.769952 1_456
S0 S2 2.769952 1_555
S0 S3 2.769952 1_555
S0 Yb0 3.248056 1_455
S0 Yb0 3.248056 1_545
S0 Yb1 3.248056 1_455
S0 Yb0 3.248056 1_445
S0 Yb1 3.248056 1_555
S0 Yb1 3.248056 1_545
S1 S2 2.769952 1_565
S1 S2 2.769952 1_555
S1 S3 2.769952 1_465
S1 S3 2.769952 1_555
S1 Yb0 3.248056 1_455
S1 Yb0 3.248056 1_454
S1 Yb1 3.248056 1_455
S1 Yb0 3.248056 1_554
S1 Yb1 3.248056 1_555
S1 Yb1 3.248056 1_554
S2 S3 2.769952 1_455
S2 S3 2.769952 1_555
S2 Yb1 3.248056 1_455
S2 Yb0 3.248056 1_544
S2 Yb1 3.248056 1_554
S2 Yb0 3.248056 1_445
S2 Yb1 3.248056 1_545
S2 Yb0 3.248056 1_454
S3 Yb0 3.248056 1_554
S3 Yb1 3.248056 1_545
S3 Yb1 3.248056 1_554
S3 Yb0 3.248056 1_544
S3 Yb1 3.248056 1_555
S3 Yb0 3.248056 1_545
