# generated using pymatgen
data_Cs2MgZr(PO4)3
_symmetry_space_group_name_H-M   'P 1'
_cell_length_a   10.44449217
_cell_length_b   10.44449217
_cell_length_c   10.44449217
_cell_angle_alpha   90.00000000
_cell_angle_beta   90.00000000
_cell_angle_gamma   90.00000000
_symmetry_Int_Tables_number   1
_chemical_formula_structural   Cs2MgZr(PO4)3
_chemical_formula_sum   'Cs8 Mg4 Zr4 P12 O48'
_cell_volume   1139.36266946
_cell_formula_units_Z   4
loop_
 _symmetry_equiv_pos_site_id
 _symmetry_equiv_pos_as_xyz
  1  'x, y, z'
loop_
 _atom_site_type_symbol
 _atom_site_label
 _atom_site_symmetry_multiplicity
 _atom_site_fract_x
 _atom_site_fract_y
 _atom_site_fract_z
 _atom_site_occupancy
  Cs  Cs0  1  0.81631690  0.81631690  0.81631690  1
  Cs  Cs1  1  0.68368310  0.18368310  0.31631690  1
  Cs  Cs2  1  0.18368310  0.31631690  0.68368310  1
  Cs  Cs3  1  0.31631690  0.68368310  0.18368310  1
  Cs  Cs4  1  0.04141774  0.04141774  0.04141774  1
  Cs  Cs5  1  0.45858226  0.95858226  0.54141774  1
  Cs  Cs6  1  0.95858226  0.54141774  0.45858226  1
  Cs  Cs7  1  0.54141774  0.45858226  0.95858226  1
  Mg  Mg0  1  0.60777088  0.60777088  0.60777088  1
  Mg  Mg1  1  0.89222912  0.39222912  0.10777088  1
  Mg  Mg2  1  0.39222912  0.10777088  0.89222912  1
  Mg  Mg3  1  0.10777088  0.89222912  0.39222912  1
  Zr  Zr0  1  0.33629200  0.33629200  0.33629200  1
  Zr  Zr1  1  0.16370800  0.66370800  0.83629200  1
  Zr  Zr2  1  0.66370800  0.83629200  0.16370800  1
  Zr  Zr3  1  0.83629200  0.16370800  0.66370800  1
  P  P0  1  0.02102555  0.20584096  0.37250887  1
  P  P1  1  0.47897445  0.79415904  0.87250887  1
  P  P2  1  0.97897445  0.70584096  0.12749113  1
  P  P3  1  0.37250887  0.02102555  0.20584096  1
  P  P4  1  0.52102555  0.29415904  0.62749113  1
  P  P5  1  0.87250887  0.47897445  0.79415904  1
  P  P6  1  0.12749113  0.97897445  0.70584096  1
  P  P7  1  0.62749113  0.52102555  0.29415904  1
  P  P8  1  0.20584096  0.37250887  0.02102555  1
  P  P9  1  0.70584096  0.12749113  0.97897445  1
  P  P10  1  0.29415904  0.62749113  0.52102555  1
  P  P11  1  0.79415904  0.87250887  0.47897445  1
  O  O0  1  0.16118882  0.25764363  0.39241956  1
  O  O1  1  0.33881118  0.74235637  0.89241956  1
  O  O2  1  0.83881118  0.75764363  0.10758044  1
  O  O3  1  0.39241956  0.16118882  0.25764363  1
  O  O4  1  0.66118882  0.24235637  0.60758044  1
  O  O5  1  0.89241956  0.33881118  0.74235637  1
  O  O6  1  0.10758044  0.83881118  0.75764363  1
  O  O7  1  0.60758044  0.66118882  0.24235637  1
  O  O8  1  0.25764363  0.39241956  0.16118882  1
  O  O9  1  0.75764363  0.10758044  0.83881118  1
  O  O10  1  0.24235637  0.60758044  0.66118882  1
  O  O11  1  0.74235637  0.89241956  0.33881118  1
  O  O12  1  0.02150337  0.06433896  0.33530148  1
  O  O13  1  0.47849663  0.93566104  0.83530148  1
  O  O14  1  0.97849663  0.56433896  0.16469852  1
  O  O15  1  0.33530148  0.02150337  0.06433896  1
  O  O16  1  0.52150337  0.43566104  0.66469852  1
  O  O17  1  0.83530148  0.47849663  0.93566104  1
  O  O18  1  0.16469852  0.97849663  0.56433896  1
  O  O19  1  0.66469852  0.52150337  0.43566104  1
  O  O20  1  0.06433896  0.33530148  0.02150337  1
  O  O21  1  0.56433896  0.16469852  0.97849663  1
  O  O22  1  0.43566104  0.66469852  0.52150337  1
  O  O23  1  0.93566104  0.83530148  0.47849663  1
  O  O24  1  0.27654692  0.49611133  0.44969443  1
  O  O25  1  0.22345308  0.50388867  0.94969443  1
  O  O26  1  0.72345308  0.99611133  0.05030557  1
  O  O27  1  0.44969443  0.27654692  0.49611133  1
  O  O28  1  0.77654692  0.00388867  0.55030557  1
  O  O29  1  0.94969443  0.22345308  0.50388867  1
  O  O30  1  0.05030557  0.72345308  0.99611133  1
  O  O31  1  0.55030557  0.77654692  0.00388867  1
  O  O32  1  0.49611133  0.44969443  0.27654692  1
  O  O33  1  0.99611133  0.05030557  0.72345308  1
  O  O34  1  0.00388867  0.55030557  0.77654692  1
  O  O35  1  0.50388867  0.94969443  0.22345308  1
  O  O36  1  0.04700377  0.78846416  0.22778727  1
  O  O37  1  0.45299623  0.21153584  0.72778727  1
  O  O38  1  0.95299623  0.28846416  0.27221273  1
  O  O39  1  0.22778727  0.04700377  0.78846416  1
  O  O40  1  0.54700377  0.71153584  0.77221273  1
  O  O41  1  0.72778727  0.45299623  0.21153584  1
  O  O42  1  0.27221273  0.95299623  0.28846416  1
  O  O43  1  0.77221273  0.54700377  0.71153584  1
  O  O44  1  0.78846416  0.22778727  0.04700377  1
  O  O45  1  0.28846416  0.27221273  0.95299623  1
  O  O46  1  0.71153584  0.77221273  0.54700377  1
  O  O47  1  0.21153584  0.72778727  0.45299623  1
loop_
_geom_bond_atom_site_label_1
_geom_bond_atom_site_label_2
_geom_bond_distance
_geom_bond_site_symmetry_2
Cs0 O46 3.053184 1_555
Cs0 O43 3.053184 1_555
Cs0 O40 3.053184 1_555
Cs0 O2 3.112091 1_556
Cs0 O9 3.112091 1_565
Cs0 O6 3.112091 1_655
Cs0 O33 3.231054 1_565
Cs0 O30 3.231054 1_655
Cs0 O26 3.231054 1_556
Cs0 O31 3.424883 1_556
Cs0 O34 3.424883 1_655
Cs0 O28 3.424883 1_565
Cs1 O41 3.053184 1_555
Cs1 O44 3.053184 1_555
Cs1 O38 3.053184 1_555
Cs1 O3 3.112091 1_555
Cs1 O11 3.112091 1_545
Cs1 O4 3.112091 1_555
Cs1 O27 3.231054 1_555
Cs1 O35 3.231054 1_545
Cs1 O28 3.231054 1_555
Cs1 O26 3.424883 1_545
Cs1 O32 3.424883 1_555
Cs1 O29 3.424883 1_555
Cs2 O45 3.053184 1_555
Cs2 O39 3.053184 1_555
Cs2 O37 3.053184 1_555
Cs2 O10 3.112091 1_555
Cs2 O0 3.112091 1_555
Cs2 O5 3.112091 1_455
Cs2 O34 3.231054 1_555
Cs2 O29 3.231054 1_455
Cs2 O24 3.231054 1_555
Cs2 O33 3.424883 1_455
Cs2 O27 3.424883 1_555
Cs2 O25 3.424883 1_555
Cs3 O47 3.053184 1_555
Cs3 O36 3.053184 1_555
Cs3 O42 3.053184 1_555
Cs3 O1 3.112091 1_554
Cs3 O7 3.112091 1_555
Cs3 O8 3.112091 1_555
Cs3 O25 3.231054 1_554
Cs3 O31 3.231054 1_555
Cs3 O32 3.231054 1_555
Cs3 O30 3.424883 1_554
Cs3 O24 3.424883 1_555
Cs3 O35 3.424883 1_555
Cs4 O12 3.085806 1_555
Cs4 O15 3.085806 1_555
Cs4 O20 3.085806 1_555
Cs4 O44 3.282136 1_455
Cs4 O39 3.282136 1_554
Cs4 O36 3.282136 1_545
Cs4 O33 3.355807 1_454
Cs4 O30 3.355807 1_544
Cs4 O26 3.355807 1_445
Cs5 O18 3.085806 1_555
Cs5 O13 3.085806 1_555
Cs5 O22 3.085806 1_555
Cs5 O42 3.282136 1_555
Cs5 O37 3.282136 1_565
Cs5 O46 3.282136 1_555
Cs5 O27 3.355807 1_565
Cs5 O35 3.355807 1_555
Cs5 O28 3.355807 1_565
Cs6 O14 3.085806 1_555
Cs6 O19 3.085806 1_555
Cs6 O23 3.085806 1_555
Cs6 O38 3.282136 1_555
Cs6 O43 3.282136 1_555
Cs6 O47 3.282136 1_655
Cs6 O24 3.355807 1_655
Cs6 O29 3.355807 1_555
Cs6 O34 3.355807 1_655
Cs7 O21 3.085806 1_555
Cs7 O17 3.085806 1_555
Cs7 O16 3.085806 1_555
Cs7 O45 3.282136 1_555
Cs7 O40 3.282136 1_555
Cs7 O41 3.282136 1_556
Cs7 O32 3.355807 1_556
Cs7 O25 3.355807 1_555
Cs7 O31 3.355807 1_556
Mg0 O22 2.096838 1_555
Mg0 O16 2.096838 1_555
Mg0 O19 2.096838 1_555
Mg0 O43 2.127729 1_555
Mg0 O46 2.127729 1_555
Mg0 O40 2.127729 1_555
Mg1 O17 2.096838 1_554
Mg1 O20 2.096838 1_655
Mg1 O14 2.096838 1_555
Mg1 O38 2.127729 1_555
Mg1 O41 2.127729 1_555
Mg1 O44 2.127729 1_555
Mg2 O15 2.096838 1_556
Mg2 O13 2.096838 1_545
Mg2 O21 2.096838 1_555
Mg2 O45 2.127729 1_555
Mg2 O39 2.127729 1_555
Mg2 O37 2.127729 1_555
Mg3 O12 2.096838 1_565
Mg3 O23 2.096838 1_455
Mg3 O18 2.096838 1_555
Mg3 O42 2.127729 1_555
Mg3 O36 2.127729 1_555
Mg3 O47 2.127729 1_555
O0 P0 1.574512 1_555
O0 Zr0 2.088820 1_555
O1 P1 1.574512 1_555
O1 Zr1 2.088820 1_555
O2 P2 1.574512 1_555
O2 Zr2 2.088820 1_555
O3 P3 1.574512 1_555
O3 Zr0 2.088820 1_555
O4 P4 1.574512 1_555
O4 Zr3 2.088820 1_555
O5 P5 1.574512 1_555
O5 Zr3 2.088820 1_555
O6 P6 1.574512 1_555
O6 Zr1 2.088820 1_555
O7 P7 1.574512 1_555
O7 Zr2 2.088820 1_555
O8 P8 1.574512 1_555
O8 Zr0 2.088820 1_555
O9 P9 1.574512 1_555
O9 Zr3 2.088820 1_555
O10 P10 1.574512 1_555
O10 Zr1 2.088820 1_555
O11 P11 1.574512 1_555
O11 Zr2 2.088820 1_555
O12 P0 1.528163 1_555
O13 P1 1.528163 1_555
O14 P2 1.528163 1_555
O15 P3 1.528163 1_555
O16 P4 1.528163 1_555
O17 P5 1.528163 1_555
O18 P6 1.528163 1_555
O19 P7 1.528163 1_555
O20 P8 1.528163 1_555
O21 P9 1.528163 1_555
O22 P10 1.528163 1_555
O23 P11 1.528163 1_555
O24 P10 1.572199 1_555
O24 Zr0 2.139765 1_555
O25 P8 1.572199 1_556
O25 Zr1 2.139765 1_555
O26 P9 1.572199 1_564
O26 Zr2 2.139765 1_555
O27 P4 1.572199 1_555
O27 Zr0 2.139765 1_555
O28 P11 1.572199 1_545
O28 Zr3 2.139765 1_555
O29 P0 1.572199 1_655
O29 Zr3 2.139765 1_555
O30 P2 1.572199 1_456
O30 Zr1 2.139765 1_555
O31 P1 1.572199 1_554
O31 Zr2 2.139765 1_555
O32 P7 1.572199 1_555
O32 Zr0 2.139765 1_555
O33 P6 1.572199 1_645
O33 Zr3 2.139765 1_555
O34 P5 1.572199 1_455
O34 Zr1 2.139765 1_555
O35 P3 1.572199 1_565
O35 Zr2 2.139765 1_555
O36 P2 1.531958 1_455
O37 P4 1.531958 1_555
O38 P0 1.531958 1_655
O39 P6 1.531958 1_545
O40 P1 1.531958 1_555
O41 P7 1.531958 1_555
O42 P3 1.531958 1_565
O43 P5 1.531958 1_555
O44 P9 1.531958 1_554
O45 P8 1.531958 1_556
O46 P11 1.531958 1_555
O47 P10 1.531958 1_555
