# generated using pymatgen
data_Cr4CdFeS8
_symmetry_space_group_name_H-M   'P 1'
_cell_length_a   7.20559063
_cell_length_b   7.20559063
_cell_length_c   7.20559063
_cell_angle_alpha   60.00000000
_cell_angle_beta   60.00000000
_cell_angle_gamma   60.00000000
_symmetry_Int_Tables_number   1
_chemical_formula_structural   Cr4CdFeS8
_chemical_formula_sum   'Cr4 Cd1 Fe1 S8'
_cell_volume   264.54146721
_cell_formula_units_Z   1
loop_
 _symmetry_equiv_pos_site_id
 _symmetry_equiv_pos_as_xyz
  1  'x, y, z'
loop_
 _atom_site_type_symbol
 _atom_site_label
 _atom_site_symmetry_multiplicity
 _atom_site_fract_x
 _atom_site_fract_y
 _atom_site_fract_z
 _atom_site_occupancy
  Cr  Cr0  1  0.62387000  0.12537700  0.12537700  1
  Cr  Cr1  1  0.12537700  0.62387000  0.12537700  1
  Cr  Cr2  1  0.12537700  0.12537700  0.62387000  1
  Cr  Cr3  1  0.12537700  0.12537700  0.12537700  1
  Cd  Cd0  1  0.75000000  0.75000000  0.75000000  1
  Fe  Fe0  1  0.50000000  0.50000000  0.50000000  1
  S  S0  1  0.32652400  0.89115900  0.89115900  1
  S  S1  1  0.89115900  0.32652400  0.89115900  1
  S  S2  1  0.89115900  0.89115900  0.32652400  1
  S  S3  1  0.89115900  0.89115900  0.89115900  1
  S  S4  1  0.89957100  0.36681000  0.36681000  1
  S  S5  1  0.36681000  0.89957100  0.36681000  1
  S  S6  1  0.36681000  0.36681000  0.89957100  1
  S  S7  1  0.36681000  0.36681000  0.36681000  1
loop_
_geom_bond_atom_site_label_1
_geom_bond_atom_site_label_2
_geom_bond_distance
_geom_bond_site_symmetry_2
Cr0 S1 2.398605 1_554
Cr0 S2 2.398605 1_545
Cr0 S3 2.398605 1_544
Cr0 S6 2.462837 1_554
Cr0 S5 2.462837 1_545
Cr0 S7 2.462837 1_555
Cr1 S2 2.398605 1_455
Cr1 S0 2.398605 1_554
Cr1 S3 2.398605 1_454
Cr1 S6 2.462837 1_554
Cr1 S4 2.462837 1_455
Cr1 S7 2.462837 1_555
Cr2 S0 2.398605 1_545
Cr2 S1 2.398605 1_455
Cr2 S3 2.398605 1_445
Cr2 S5 2.462837 1_545
Cr2 S7 2.462837 1_555
Cr2 S4 2.462837 1_455
Cr3 S0 2.398605 1_544
Cr3 S1 2.398605 1_454
Cr3 S2 2.398605 1_445
Cr3 S4 2.462837 1_455
Cr3 S6 2.462837 1_554
Cr3 S5 2.462837 1_545
Cd0 S2 2.491453 1_555
Cd0 S1 2.491453 1_555
Cd0 S0 2.491453 1_555
Cd0 S3 2.491459 1_555
Fe0 S7 2.350806 1_555
Fe0 S6 2.350812 1_555
Fe0 S5 2.350812 1_555
Fe0 S4 2.350812 1_555
