# generated using pymatgen
data_Pu2US5
_symmetry_space_group_name_H-M   'P 1'
_cell_length_a   7.45048562
_cell_length_b   8.05522394
_cell_length_c   11.81225839
_cell_angle_alpha   89.99236120
_cell_angle_beta   89.99826118
_cell_angle_gamma   90.00059786
_symmetry_Int_Tables_number   1
_chemical_formula_structural   Pu2US5
_chemical_formula_sum   'Pu8 U4 S20'
_cell_volume   708.91658074
_cell_formula_units_Z   4
loop_
 _symmetry_equiv_pos_site_id
 _symmetry_equiv_pos_as_xyz
  1  'x, y, z'
loop_
 _atom_site_type_symbol
 _atom_site_label
 _atom_site_symmetry_multiplicity
 _atom_site_fract_x
 _atom_site_fract_y
 _atom_site_fract_z
 _atom_site_occupancy
  Pu  Pu0  1  0.52260821  0.50265005  0.32366102  1
  Pu  Pu1  1  0.97731825  0.99738520  0.82365231  1
  Pu  Pu2  1  0.47733039  0.00260645  0.67632804  1
  Pu  Pu3  1  0.02260194  0.49735484  0.17637180  1
  Pu  Pu4  1  0.47737792  0.49734974  0.67631764  1
  Pu  Pu5  1  0.02267627  0.00261389  0.17637284  1
  Pu  Pu6  1  0.52266759  0.99739522  0.32364091  1
  Pu  Pu7  1  0.97739399  0.50264967  0.82365086  1
  U  U0  1  0.07388194  0.75002145  0.48971410  1
  U  U1  1  0.42609572  0.75002827  0.98973309  1
  U  U2  1  0.92609516  0.24997667  0.51026643  1
  U  U3  1  0.57388131  0.24997522  0.01028652  1
  S  S0  1  0.83708081  0.95728390  0.59810551  1
  S  S1  1  0.66286354  0.54274963  0.09821158  1
  S  S2  1  0.16286988  0.45726921  0.40179547  1
  S  S3  1  0.33705379  0.04270988  0.90190975  1
  S  S4  1  0.16294508  0.04273069  0.40183782  1
  S  S5  1  0.33716683  0.45726346  0.90186150  1
  S  S6  1  0.83716482  0.54270453  0.59814636  1
  S  S7  1  0.66298511  0.95726758  0.09813805  1
  S  S8  1  0.83112072  0.74999818  0.31301731  1
  S  S9  1  0.66889827  0.74996964  0.81303970  1
  S  S10  1  0.16888540  0.25001375  0.68696002  1
  S  S11  1  0.33109836  0.25002520  0.18698724  1
  S  S12  1  0.45991152  0.75000038  0.49886764  1
  S  S13  1  0.04003745  0.74999882  -0.00104894  1
  S  S14  1  0.54005608  0.24999492  0.50105003  1
  S  S15  1  0.95994967  0.25000369  0.00112301  1
  S  S16  1  0.20125279  0.75002147  0.71481003  1
  S  S17  1  0.29876997  0.75002698  0.21488205  1
  S  S18  1  0.79873902  0.24998308  0.28515967  1
  S  S19  1  0.70122420  0.24997830  0.78515265  1
loop_
_geom_bond_atom_site_label_1
_geom_bond_atom_site_label_2
_geom_bond_distance
_geom_bond_site_symmetry_2
Pu0 S2 2.858112 1_555
Pu0 S1 2.878857 1_555
Pu0 S17 2.898714 1_555
Pu0 S12 2.910731 1_555
Pu0 S14 2.923756 1_555
Pu0 S18 2.929510 1_555
Pu0 S11 2.963819 1_555
Pu0 S8 3.044483 1_555
Pu1 S3 2.858588 1_665
Pu1 S0 2.880013 1_555
Pu1 S16 2.899576 1_655
Pu1 S13 2.911373 1_656
Pu1 S15 2.924600 1_566
Pu1 S19 2.928836 1_565
Pu1 S10 2.963821 1_665
Pu1 S9 3.044331 1_555
Pu2 S0 2.858511 1_545
Pu2 S3 2.880446 1_555
Pu2 S19 2.899375 1_555
Pu2 S14 2.911191 1_555
Pu2 S12 2.924463 1_545
Pu2 S16 2.928623 1_545
Pu2 S9 2.964062 1_545
Pu2 S10 3.044463 1_555
Pu3 S1 2.858284 1_455
Pu3 S2 2.878658 1_555
Pu3 S18 2.898769 1_455
Pu3 S15 2.911050 1_455
Pu3 S13 2.923951 1_555
Pu3 S17 2.929740 1_555
Pu3 S8 2.963610 1_455
Pu3 S11 3.044319 1_555
Pu4 S6 2.858565 1_555
Pu4 S5 2.879758 1_555
Pu4 S19 2.899012 1_555
Pu4 S14 2.911246 1_555
Pu4 S12 2.924254 1_555
Pu4 S16 2.929491 1_555
Pu4 S9 2.964140 1_555
Pu4 S10 3.044306 1_555
Pu5 S7 2.858214 1_445
Pu5 S4 2.879218 1_555
Pu5 S18 2.899328 1_455
Pu5 S15 2.910990 1_455
Pu5 S13 2.924164 1_545
Pu5 S17 2.928817 1_545
Pu5 S8 2.963401 1_445
Pu5 S11 3.044321 1_555
Pu6 S4 2.858231 1_565
Pu6 S7 2.879717 1_555
Pu6 S17 2.899027 1_555
Pu6 S12 2.910832 1_555
Pu6 S14 2.923983 1_565
Pu6 S18 2.928606 1_565
Pu6 S11 2.963656 1_565
Pu6 S8 3.044451 1_555
Pu7 S5 2.858709 1_655
Pu7 S6 2.879409 1_555
Pu7 S16 2.899029 1_655
Pu7 S13 2.911460 1_656
Pu7 S15 2.924400 1_556
Pu7 S19 2.929723 1_555
Pu7 S10 2.963897 1_655
Pu7 S9 3.044262 1_555
S0 U2 2.659784 1_565
S0 U0 2.745881 1_655
S1 U3 2.660965 1_555
S1 U1 2.746123 1_554
S2 U0 2.660784 1_555
S2 U2 2.746110 1_455
S3 U1 2.659711 1_545
S3 U3 2.745968 1_556
S4 U0 2.660164 1_545
S4 U2 2.746239 1_455
S5 U1 2.660551 1_555
S5 U3 2.745620 1_556
S6 U2 2.660325 1_555
S6 U0 2.745741 1_655
S7 U3 2.660142 1_565
S7 U1 2.746292 1_554
S8 U0 2.761872 1_655
S9 U1 2.761961 1_555
S10 U2 2.761986 1_455
S11 U3 2.761931 1_555
S12 U0 2.878143 1_555
S13 U1 2.878379 1_554
S14 U2 2.878242 1_555
S15 U3 2.878429 1_555
S16 U0 2.823191 1_555
S17 U1 2.823614 1_554
S18 U2 2.823275 1_555
S19 U3 2.823489 1_556
