# generated using pymatgen
data_Ta19(Ni9Mo)2
_symmetry_space_group_name_H-M   'P 1'
_cell_length_a   4.91702117
_cell_length_b   4.91702117
_cell_length_c   27.07050900
_cell_angle_alpha   90.00000000
_cell_angle_beta   90.00000000
_cell_angle_gamma   119.99998878
_symmetry_Int_Tables_number   1
_chemical_formula_structural   Ta19(Ni9Mo)2
_chemical_formula_sum   'Ta19 Ni18 Mo2'
_cell_volume   566.80184877
_cell_formula_units_Z   1
loop_
 _symmetry_equiv_pos_site_id
 _symmetry_equiv_pos_as_xyz
  1  'x, y, z'
loop_
 _atom_site_type_symbol
 _atom_site_label
 _atom_site_symmetry_multiplicity
 _atom_site_fract_x
 _atom_site_fract_y
 _atom_site_fract_z
 _atom_site_occupancy
  Ta  Ta0  1  0.66666700  0.33333300  0.32094800  1
  Ta  Ta1  1  0.00000000  0.00000000  0.65431100  1
  Ta  Ta2  1  0.33333300  0.66666700  0.98762900  1
  Ta  Ta3  1  0.66666700  0.33333300  0.01237100  1
  Ta  Ta4  1  0.00000000  0.00000000  0.34568900  1
  Ta  Ta5  1  0.33333300  0.66666700  0.67905200  1
  Ta  Ta6  1  0.66666700  0.33333300  0.21591400  1
  Ta  Ta7  1  0.00000000  0.00000000  0.54905000  1
  Ta  Ta8  1  0.33333300  0.66666700  0.88225400  1
  Ta  Ta9  1  0.66666700  0.33333300  0.11774600  1
  Ta  Ta10  1  0.00000000  0.00000000  0.45095000  1
  Ta  Ta11  1  0.33333300  0.66666700  0.78408600  1
  Ta  Ta12  1  0.33333300  0.66666700  0.16912000  1
  Ta  Ta13  1  0.66666700  0.33333300  0.50276900  1
  Ta  Ta14  1  0.00000000  0.00000000  0.83552400  1
  Ta  Ta15  1  0.00000000  0.00000000  0.16447600  1
  Ta  Ta16  1  0.33333300  0.66666700  0.49723100  1
  Ta  Ta17  1  0.66666700  0.33333300  0.83088000  1
  Ta  Ta18  1  0.00000000  0.00000000  0.00000000  1
  Ni  Ni0  1  0.16944100  0.83055900  0.07820500  1
  Ni  Ni1  1  0.50153200  0.49846800  0.41125200  1
  Ni  Ni2  1  0.83483200  0.16516800  0.74446700  1
  Ni  Ni3  1  0.66111800  0.83055900  0.07820500  1
  Ni  Ni4  1  0.99693600  0.49846800  0.41125200  1
  Ni  Ni5  1  0.33033600  0.16516800  0.74446700  1
  Ni  Ni6  1  0.16944100  0.33888200  0.07820500  1
  Ni  Ni7  1  0.50153200  0.00306400  0.41125200  1
  Ni  Ni8  1  0.83483200  0.66966400  0.74446700  1
  Ni  Ni9  1  0.16516800  0.83483200  0.25553300  1
  Ni  Ni10  1  0.49846800  0.50153200  0.58874800  1
  Ni  Ni11  1  0.83055900  0.16944100  0.92179500  1
  Ni  Ni12  1  0.66966400  0.83483200  0.25553300  1
  Ni  Ni13  1  0.00306400  0.50153200  0.58874800  1
  Ni  Ni14  1  0.33888200  0.16944100  0.92179500  1
  Ni  Ni15  1  0.16516800  0.33033600  0.25553300  1
  Ni  Ni16  1  0.49846800  0.99693600  0.58874800  1
  Ni  Ni17  1  0.83055900  0.66111800  0.92179500  1
  Mo  Mo0  1  0.33333300  0.66666700  0.33338400  1
  Mo  Mo1  1  0.66666700  0.33333300  0.66661600  1
loop_
_geom_bond_atom_site_label_1
_geom_bond_atom_site_label_2
_geom_bond_distance
_geom_bond_site_symmetry_2
Ta0 Ta6 2.843324 1_555
Ta0 Ta4 2.916776 1_655
Ta0 Ta4 2.916781 1_665
Ta0 Ta4 2.916781 1_555
Ta1 Ta7 2.849469 1_555
Ta1 Ta5 2.916776 1_545
Ta1 Ta5 2.916781 1_555
Ta1 Ta5 2.916781 1_445
Ta2 Ta8 2.852555 1_555
Ta2 Ta3 2.916783 1_456
Ta2 Ta3 2.916783 1_566
Ta2 Ta3 2.916791 1_556
Ta3 Ta9 2.852555 1_555
Ta6 Ta9 2.657458 1_555
Ta10 Ta7 2.655617 1_555
Ta10 Ta4 2.849469 1_555
Ta10 Ta16 3.103006 1_545
Ta10 Ta16 3.103011 1_445
Ta10 Ta16 3.103011 1_555
Ta10 Ta13 3.166508 1_455
Ta10 Ta13 3.166512 1_445
Ta10 Ta13 3.166512 1_555
Ta11 Ta8 2.657458 1_555
Ta11 Ta5 2.843324 1_555
Ta11 Ta17 3.108640 1_455
Ta11 Ta17 3.108640 1_565
Ta11 Ta17 3.108647 1_555
Ta11 Ta14 3.161952 1_565
Ta11 Ta14 3.161956 1_665
Ta11 Ta14 3.161956 1_555
Ta12 Ta15 2.841623 1_565
Ta12 Ta15 2.841627 1_555
Ta12 Ta15 2.841627 1_665
Ta12 Ta6 3.108640 1_455
Ta12 Ta6 3.108640 1_565
Ta12 Ta6 3.108647 1_555
Ta12 Ta9 3.161190 1_455
Ta12 Ta9 3.161190 1_565
Ta12 Ta9 3.161197 1_555
Ta13 Ta16 2.842797 1_545
Ta13 Ta16 2.842797 1_655
Ta13 Ta16 2.842805 1_555
Ta13 Ta7 3.103006 1_655
Ta13 Ta7 3.103011 1_665
Ta13 Ta7 3.103011 1_555
Ta14 Ta17 2.841623 1_455
Ta14 Ta17 2.841627 1_445
Ta14 Ta17 2.841627 1_555
Ta14 Ta8 3.107934 1_545
Ta14 Ta8 3.107938 1_445
Ta14 Ta8 3.107938 1_555
Ta15 Ta9 3.107934 1_455
Ta15 Ta9 3.107938 1_555
Ta15 Ta9 3.107938 1_445
Ta15 Ta6 3.161952 1_455
Ta15 Ta6 3.161956 1_555
Ta15 Ta6 3.161956 1_445
Ta16 Ta7 3.166508 1_565
Ta16 Ta7 3.166512 1_555
Ta16 Ta7 3.166512 1_665
Ta17 Ta8 3.161190 1_545
Ta17 Ta8 3.161190 1_655
Ta17 Ta8 3.161197 1_555
Ta18 Ta3 2.858525 1_455
Ta18 Ta2 2.858525 1_544
Ta18 Ta3 2.858530 1_555
Ta18 Ta2 2.858530 1_554
Ta18 Ta3 2.858530 1_445
Ta18 Ta2 2.858530 1_444
Ni0 Ni6 2.417586 1_555
Ni0 Ni3 2.417586 1_555
Ni0 Ni3 2.499435 1_455
Ni0 Ni6 2.499435 1_565
Ni0 Ta18 2.562087 1_565
Ni0 Ta9 2.681526 1_455
Ni0 Ta9 2.681526 1_565
Ni0 Ta15 2.745266 1_565
Ni0 Ta2 2.821389 1_554
Ni0 Ta12 2.829368 1_555
Ni0 Ta3 3.036598 1_455
Ni0 Ta3 3.036598 1_565
Ni1 Ni7 2.435912 1_555
Ni1 Ni4 2.435912 1_555
Ni1 Ni4 2.481109 1_455
Ni1 Ni7 2.481109 1_565
Ni1 Ta10 2.683153 1_555
Ni1 Ta10 2.683153 1_665
Ni1 Ta16 2.732986 1_555
Ni1 Ta0 2.820256 1_555
Ni1 Ta13 2.848766 1_555
Ni1 Ta4 3.032234 1_555
Ni1 Ta4 3.032234 1_665
Ni2 Ni8 2.436404 1_545
Ni2 Ni5 2.436404 1_655
Ni2 Ni5 2.480618 1_555
Ni2 Ni8 2.480618 1_555
Ni2 Ta11 2.682296 1_545
Ni2 Ta11 2.682296 1_655
Ni2 Ta17 2.742847 1_555
Ni2 Ta1 2.816924 1_655
Ni2 Ta14 2.838082 1_655
Ni2 Ta5 3.029890 1_545
Ni2 Ta5 3.029890 1_655
Ni3 Ni6 2.417587 1_555
Ni3 Ni6 2.499435 1_665
Ni3 Ta18 2.562087 1_665
Ni3 Ta9 2.681523 1_565
Ni3 Ta9 2.681528 1_555
Ni3 Ta15 2.745266 1_665
Ni3 Ta2 2.821391 1_554
Ni3 Ta12 2.829370 1_555
Ni3 Ta3 3.036596 1_565
Ni3 Ta3 3.036600 1_555
Ni4 Ni7 2.435912 1_555
Ni4 Ni7 2.481110 1_665
Ni4 Ta10 2.683152 1_655
Ni4 Ta10 2.683152 1_665
Ni4 Ta16 2.732983 1_655
Ni4 Ta0 2.820254 1_555
Ni4 Ta13 2.848764 1_555
Ni4 Ta4 3.032234 1_655
Ni4 Ta4 3.032234 1_665
Ni5 Ni8 2.436404 1_445
Ni5 Ni8 2.480618 1_555
Ni5 Ta11 2.682293 1_545
Ni5 Ta11 2.682297 1_555
Ni5 Ta17 2.742849 1_555
Ni5 Ta1 2.816925 1_555
Ni5 Ta14 2.838083 1_555
Ni5 Ta5 3.029888 1_545
Ni5 Ta5 3.029892 1_555
Ni6 Ta18 2.562087 1_555
Ni6 Ta9 2.681523 1_455
Ni6 Ta9 2.681528 1_555
Ni6 Ta15 2.745266 1_555
Ni6 Ta2 2.821391 1_554
Ni6 Ta12 2.829370 1_555
Ni6 Ta3 3.036596 1_455
Ni6 Ta3 3.036600 1_555
Ni7 Ta10 2.683152 1_655
Ni7 Ta10 2.683152 1_555
Ni7 Ta16 2.732983 1_545
Ni7 Ta0 2.820254 1_555
Ni7 Ta13 2.848764 1_555
Ni7 Ta4 3.032234 1_655
Ni7 Ta4 3.032234 1_555
Ni8 Ta11 2.682293 1_655
Ni8 Ta11 2.682297 1_555
Ni8 Ta17 2.742849 1_555
Ni8 Ta1 2.816925 1_665
Ni8 Ta14 2.838083 1_665
Ni8 Ta5 3.029888 1_655
Ni8 Ta5 3.029892 1_555
Ni9 Ta6 2.682296 1_455
Ni9 Ta6 2.682296 1_565
Ni9 Ta12 2.742847 1_555
Ni9 Ta4 2.816924 1_565
Ni9 Ta15 2.838082 1_565
Ni9 Ta0 3.029890 1_455
Ni9 Ta0 3.029890 1_565
Ni10 Ni16 2.435912 1_555
Ni10 Ni13 2.435912 1_555
Ni10 Ni16 2.481109 1_545
Ni10 Ni13 2.481109 1_655
Ni10 Ta7 2.683153 1_555
Ni10 Ta7 2.683153 1_665
Ni10 Ta13 2.732986 1_555
Ni10 Ta5 2.820256 1_555
Ni10 Ta16 2.848766 1_555
Ni10 Ta1 3.032234 1_555
Ni10 Ta1 3.032234 1_665
Ni11 Ni14 2.417586 1_555
Ni11 Ni17 2.417586 1_555
Ni11 Ni17 2.499435 1_545
Ni11 Ni14 2.499435 1_655
Ni11 Ta18 2.562087 1_656
Ni11 Ta8 2.681526 1_545
Ni11 Ta8 2.681526 1_655
Ni11 Ta14 2.745266 1_655
Ni11 Ta3 2.821389 1_556
Ni11 Ta17 2.829368 1_555
Ni11 Ta2 3.036598 1_545
Ni11 Ta2 3.036598 1_655
Ni12 Ni9 2.436404 1_655
Ni12 Ni15 2.436404 1_665
Ni12 Ni9 2.480618 1_555
Ni12 Ni15 2.480618 1_555
Ni12 Ta6 2.682293 1_565
Ni12 Ta6 2.682297 1_555
Ni12 Ta12 2.742849 1_555
Ni12 Ta4 2.816925 1_665
Ni12 Ta15 2.838083 1_665
Ni12 Ta0 3.029888 1_565
Ni12 Ta0 3.029892 1_555
Ni13 Ni16 2.435912 1_555
Ni13 Ni16 2.481110 1_445
Ni13 Ta7 2.683152 1_565
Ni13 Ta7 2.683152 1_555
Ni13 Ta13 2.732983 1_455
Ni13 Ta5 2.820254 1_555
Ni13 Ta16 2.848764 1_555
Ni13 Ta1 3.032234 1_565
Ni13 Ta1 3.032234 1_555
Ni14 Ni17 2.417587 1_555
Ni14 Ni17 2.499435 1_445
Ni14 Ta18 2.562087 1_556
Ni14 Ta8 2.681523 1_545
Ni14 Ta8 2.681528 1_555
Ni14 Ta14 2.745266 1_555
Ni14 Ta3 2.821391 1_556
Ni14 Ta17 2.829370 1_555
Ni14 Ta2 3.036596 1_545
Ni14 Ta2 3.036600 1_555
Ni15 Ni9 2.436404 1_545
Ni15 Ni9 2.480618 1_555
Ni15 Ta6 2.682293 1_455
Ni15 Ta6 2.682297 1_555
Ni15 Ta12 2.742849 1_555
Ni15 Ta4 2.816925 1_555
Ni15 Ta15 2.838083 1_555
Ni15 Ta0 3.029888 1_455
Ni15 Ta0 3.029892 1_555
Ni16 Ta7 2.683152 1_565
Ni16 Ta7 2.683152 1_665
Ni16 Ta13 2.732983 1_565
Ni16 Ta5 2.820254 1_555
Ni16 Ta16 2.848764 1_555
Ni16 Ta1 3.032234 1_565
Ni16 Ta1 3.032234 1_665
Ni17 Ta18 2.562087 1_666
Ni17 Ta8 2.681523 1_655
Ni17 Ta8 2.681528 1_555
Ni17 Ta14 2.745266 1_665
Ni17 Ta3 2.821391 1_556
Ni17 Ta17 2.829370 1_555
Ni17 Ta2 3.036596 1_655
Ni17 Ta2 3.036600 1_555
Mo0 Ni9 2.548050 1_555
Mo0 Ni12 2.548053 1_555
Mo0 Ni15 2.548053 1_555
Mo0 Ni7 2.548591 1_565
Mo0 Ni4 2.548591 1_455
Mo0 Ni1 2.548594 1_555
Mo0 Ta4 2.858316 1_565
Mo0 Ta4 2.858321 1_665
Mo0 Ta4 2.858321 1_555
Mo0 Ta0 2.858732 1_455
Mo0 Ta0 2.858732 1_565
Mo0 Ta0 2.858740 1_555
Mo1 Ni2 2.548050 1_555
Mo1 Ni8 2.548053 1_555
Mo1 Ni5 2.548053 1_555
Mo1 Ni13 2.548591 1_655
Mo1 Ni16 2.548591 1_545
Mo1 Ni10 2.548594 1_555
Mo1 Ta1 2.858316 1_655
Mo1 Ta1 2.858321 1_665
Mo1 Ta1 2.858321 1_555
Mo1 Ta5 2.858732 1_545
Mo1 Ta5 2.858732 1_655
Mo1 Ta5 2.858740 1_555
