# generated using pymatgen
data_TlTe
_symmetry_space_group_name_H-M   'P 1'
_cell_length_a   9.83209894
_cell_length_b   9.83209894
_cell_length_c   9.83209894
_cell_angle_alpha   95.74774260
_cell_angle_beta   95.74774260
_cell_angle_gamma   143.10168144
_symmetry_Int_Tables_number   1
_chemical_formula_structural   TlTe
_chemical_formula_sum   'Tl8 Te8'
_cell_volume   541.33037164
_cell_formula_units_Z   8
loop_
 _symmetry_equiv_pos_site_id
 _symmetry_equiv_pos_as_xyz
  1  'x, y, z'
loop_
 _atom_site_type_symbol
 _atom_site_label
 _atom_site_symmetry_multiplicity
 _atom_site_fract_x
 _atom_site_fract_y
 _atom_site_fract_z
 _atom_site_occupancy
  Tl  Tl0  1  0.27597500  0.41715600  0.69313000  1
  Tl  Tl1  1  0.72402500  0.58284500  0.30687000  1
  Tl  Tl2  1  0.58284400  0.27597500  0.85881900  1
  Tl  Tl3  1  0.41715600  0.72402500  0.14118100  1
  Tl  Tl4  1  0.77597500  0.08284400  0.85881900  1
  Tl  Tl5  1  0.91715600  0.77597500  0.69313000  1
  Tl  Tl6  1  0.08284400  0.22402500  0.30687000  1
  Tl  Tl7  1  0.22402500  0.91715600  0.14118100  1
  Te  Te0  1  0.75000000  0.75000000  0.00000000  1
  Te  Te1  1  0.25000000  0.25000000  0.00000000  1
  Te  Te2  1  0.25000000  0.75000000  0.50000000  1
  Te  Te3  1  0.75000000  0.25000000  0.50000000  1
  Te  Te4  1  0.33797500  0.16202500  0.50000000  1
  Te  Te5  1  0.83797500  0.33797500  0.17595100  1
  Te  Te6  1  0.16202500  0.66202500  0.82404900  1
  Te  Te7  1  0.66202500  0.83797500  0.50000000  1
loop_
_geom_bond_atom_site_label_1
_geom_bond_atom_site_label_2
_geom_bond_distance
_geom_bond_site_symmetry_2
Tl0 Tl6 3.602561 1_555
Tl1 Tl5 3.602561 1_555
Tl2 Tl4 3.602579 1_555
Tl3 Tl7 3.602579 1_555
Te0 Te1 3.111496 1_555
Te0 Te1 3.111496 1_665
Te0 Tl4 3.513663 1_564
Te0 Tl7 3.513663 1_655
Te0 Tl3 3.513663 1_555
Te0 Tl2 3.513663 1_554
Te0 Tl1 3.513667 1_555
Te0 Tl0 3.513669 1_554
Te0 Tl6 3.513669 1_665
Te0 Tl5 3.513672 1_554
Te1 Tl4 3.513663 1_454
Te1 Tl3 3.513663 1_555
Te1 Tl7 3.513663 1_545
Te1 Tl2 3.513663 1_554
Te1 Tl1 3.513667 1_555
Te1 Tl5 3.513669 1_444
Te1 Tl6 3.513672 1_555
Te1 Tl0 3.513672 1_554
Te2 Te3 3.111496 1_565
Te2 Te3 3.111496 1_455
Te2 Te6 3.399241 1_555
Te2 Te5 3.399243 1_455
Te2 Te7 3.399250 1_555
Te2 Te4 3.399250 1_565
Te3 Te5 3.399241 1_555
Te3 Te6 3.399243 1_655
Te3 Te4 3.399250 1_555
Te3 Te7 3.399250 1_545
Te4 Tl0 3.463127 1_555
Te4 Tl6 3.463127 1_555
Te4 Tl7 3.562424 1_545
Te4 Tl2 3.562424 1_555
Te4 Tl5 3.609870 1_445
Te4 Tl1 3.609873 1_445
Te4 Tl1 3.609873 1_555
Te4 Tl5 3.609875 1_555
Te5 Tl4 3.463140 1_554
Te5 Tl2 3.463140 1_554
Te5 Tl6 3.562424 1_655
Te5 Tl1 3.562433 1_555
Te5 Tl3 3.609875 1_545
Te5 Tl7 3.609875 1_545
Te5 Tl7 3.609880 1_655
Te5 Tl3 3.609880 1_655
Te6 Tl3 3.463140 1_556
Te6 Tl7 3.463140 1_556
Te6 Tl5 3.562424 1_455
Te6 Tl0 3.562424 1_555
Te6 Tl2 3.609875 1_565
Te6 Tl4 3.609875 1_565
Te6 Tl2 3.609880 1_455
Te6 Tl4 3.609880 1_455
Te7 Tl1 3.463119 1_555
Te7 Tl5 3.463127 1_555
Te7 Tl4 3.562424 1_565
Te7 Tl3 3.562424 1_555
Te7 Tl0 3.609870 1_555
Te7 Tl6 3.609870 1_665
Te7 Tl6 3.609875 1_555
Te7 Tl0 3.609875 1_665
