# generated using pymatgen
data_BaO
_symmetry_space_group_name_H-M   'P 1'
_cell_length_a   3.94621003
_cell_length_b   3.94620947
_cell_length_c   3.94621046
_cell_angle_alpha   59.99999174
_cell_angle_beta   59.99999639
_cell_angle_gamma   59.99999294
_symmetry_Int_Tables_number   1
_chemical_formula_structural   BaO
_chemical_formula_sum   'Ba1 O1'
_cell_volume   43.45357521
_cell_formula_units_Z   1
loop_
 _symmetry_equiv_pos_site_id
 _symmetry_equiv_pos_as_xyz
  1  'x, y, z'
loop_
 _atom_site_type_symbol
 _atom_site_label
 _atom_site_symmetry_multiplicity
 _atom_site_fract_x
 _atom_site_fract_y
 _atom_site_fract_z
 _atom_site_occupancy
  Ba  Ba0  1  -0.00000000  -0.00000000  -0.00000000  1
  O  O0  1  0.50000000  0.50000000  0.50000000  1
loop_
_geom_bond_atom_site_label_1
_geom_bond_atom_site_label_2
_geom_bond_distance
_geom_bond_site_symmetry_2
Ba0 O0 2.790392 1_445
Ba0 O0 2.790392 1_554
Ba0 O0 2.790392 1_454
Ba0 O0 2.790392 1_544
Ba0 O0 2.790392 1_545
Ba0 O0 2.790392 1_455
