# generated using pymatgen
data_Ni3BO5
_symmetry_space_group_name_H-M   'P 1'
_cell_length_a   2.93868872
_cell_length_b   9.04421823
_cell_length_c   12.15503722
_cell_angle_alpha   90.00000000
_cell_angle_beta   90.00000000
_cell_angle_gamma   90.00000000
_symmetry_Int_Tables_number   1
_chemical_formula_structural   Ni3BO5
_chemical_formula_sum   'Ni12 B4 O20'
_cell_volume   323.05830639
_cell_formula_units_Z   4
loop_
 _symmetry_equiv_pos_site_id
 _symmetry_equiv_pos_as_xyz
  1  'x, y, z'
loop_
 _atom_site_type_symbol
 _atom_site_label
 _atom_site_symmetry_multiplicity
 _atom_site_fract_x
 _atom_site_fract_y
 _atom_site_fract_z
 _atom_site_occupancy
  Ni  Ni0  1  0.50000000  0.00000000  0.50000000  1
  Ni  Ni1  1  0.50000000  0.50000000  -0.00000000  1
  Ni  Ni2  1  0.00000000  0.24108783  0.38620604  1
  Ni  Ni3  1  -0.00000000  0.75891217  0.61379396  1
  Ni  Ni4  1  0.00000000  0.25891217  0.88620604  1
  Ni  Ni5  1  0.00000000  0.74108783  0.11379396  1
  Ni  Ni6  1  0.00000000  0.00000000  -0.00000000  1
  Ni  Ni7  1  0.00000000  0.50000000  0.50000000  1
  Ni  Ni8  1  0.50000000  0.00140414  0.21999062  1
  Ni  Ni9  1  0.50000000  0.99859586  0.78000938  1
  Ni  Ni10  1  0.50000000  0.49859586  0.71999062  1
  Ni  Ni11  1  0.50000000  0.50140414  0.28000938  1
  B  B0  1  0.00000000  0.27630057  0.13912839  1
  B  B1  1  0.00000000  0.72369943  0.86087161  1
  B  B2  1  0.00000000  0.22369943  0.63912839  1
  B  B3  1  0.00000000  0.77630057  0.36087161  1
  O  O0  1  0.00000000  0.35196108  0.04121333  1
  O  O1  1  0.00000000  0.64803892  0.95878667  1
  O  O2  1  0.00000000  0.14803892  0.54121333  1
  O  O3  1  0.00000000  0.85196108  0.45878667  1
  O  O4  1  0.50000000  0.11041880  0.35658809  1
  O  O5  1  0.50000000  0.88958120  0.64341191  1
  O  O6  1  0.50000000  0.38958120  0.85658809  1
  O  O7  1  0.50000000  0.61041880  0.14341191  1
  O  O8  1  -0.00000000  0.35285559  0.23698535  1
  O  O9  1  0.00000000  0.64714441  0.76301465  1
  O  O10  1  0.00000000  0.14714441  0.73698535  1
  O  O11  1  0.00000000  0.85285559  0.26301465  1
  O  O12  1  0.50000000  0.38560646  0.42039305  1
  O  O13  1  0.50000000  0.61439354  0.57960695  1
  O  O14  1  0.50000000  0.11439354  0.92039305  1
  O  O15  1  0.50000000  0.88560646  0.07960695  1
  O  O16  1  -0.00000000  0.12372299  0.14070099  1
  O  O17  1  0.00000000  0.87627701  0.85929901  1
  O  O18  1  -0.00000000  0.37627701  0.64070099  1
  O  O19  1  0.00000000  0.62372299  0.35929901  1
loop_
_geom_bond_atom_site_label_1
_geom_bond_atom_site_label_2
_geom_bond_distance
_geom_bond_site_symmetry_2
Ni0 O4 2.008973 1_555
Ni0 O5 2.008973 1_545
Ni0 O3 2.050016 1_545
Ni0 O3 2.050016 1_645
Ni0 O2 2.050016 1_555
Ni0 O2 2.050016 1_655
Ni1 O6 2.008973 1_554
Ni1 O7 2.008973 1_555
Ni1 O1 2.050016 1_654
Ni1 O0 2.050016 1_555
Ni1 O1 2.050016 1_554
Ni1 O0 2.050016 1_655
Ni2 O4 1.919695 1_455
Ni2 O4 1.919695 1_555
Ni2 O12 2.009988 1_455
Ni2 O12 2.009988 1_555
Ni2 O2 2.063521 1_555
Ni2 O8 2.076447 1_555
Ni3 O5 1.919695 1_455
Ni3 O5 1.919695 1_555
Ni3 O13 2.009988 1_555
Ni3 O13 2.009988 1_455
Ni3 O3 2.063521 1_555
Ni3 O9 2.076447 1_555
Ni4 O6 1.919695 1_455
Ni4 O6 1.919695 1_555
Ni4 O14 2.009988 1_455
Ni4 O14 2.009988 1_555
Ni4 O0 2.063521 1_556
Ni4 O10 2.076447 1_555
Ni5 O7 1.919695 1_555
Ni5 O7 1.919695 1_455
Ni5 O15 2.009988 1_555
Ni5 O15 2.009988 1_455
Ni5 O1 2.063521 1_554
Ni5 O11 2.076447 1_555
Ni6 O14 2.040997 1_454
Ni6 O14 2.040997 1_554
Ni6 O15 2.040997 1_545
Ni6 O15 2.040997 1_445
Ni6 O17 2.043767 1_544
Ni6 O16 2.043767 1_555
Ni7 O13 2.040997 1_555
Ni7 O12 2.040997 1_455
Ni7 O13 2.040997 1_455
Ni7 O12 2.040997 1_555
Ni7 O18 2.043767 1_555
Ni7 O19 2.043767 1_555
Ni8 O4 1.931024 1_555
Ni8 O15 2.002131 1_545
Ni8 O11 2.058511 1_545
Ni8 O11 2.058511 1_645
Ni8 O16 2.076457 1_555
Ni8 O16 2.076457 1_655
Ni9 O5 1.931024 1_555
Ni9 O14 2.002131 1_565
Ni9 O10 2.058511 1_565
Ni9 O10 2.058511 1_665
Ni9 O17 2.076457 1_655
Ni9 O17 2.076457 1_555
Ni10 O6 1.931024 1_555
Ni10 O13 2.002131 1_555
Ni10 O9 2.058511 1_555
Ni10 O9 2.058511 1_655
Ni10 O18 2.076457 1_555
Ni10 O18 2.076457 1_655
Ni11 O7 1.931024 1_555
Ni11 O12 2.002131 1_555
Ni11 O8 2.058511 1_555
Ni11 O8 2.058511 1_655
Ni11 O19 2.076457 1_555
Ni11 O19 2.076457 1_655
B0 O0 1.372857 1_555
B0 O8 1.376297 1_555
B0 O16 1.380077 1_555
B1 O1 1.372857 1_555
B1 O9 1.376297 1_555
B1 O17 1.380077 1_555
B2 O2 1.372857 1_555
B2 O10 1.376297 1_555
B2 O18 1.380077 1_555
B3 O3 1.372857 1_555
B3 O11 1.376297 1_555
B3 O19 1.380077 1_555
