# generated using pymatgen
data_Na2Ca(CO3)2
_symmetry_space_group_name_H-M   'P 1'
_cell_length_a   5.22188966
_cell_length_b   5.22188966
_cell_length_c   11.53808000
_cell_angle_alpha   90.00000000
_cell_angle_beta   90.00000000
_cell_angle_gamma   119.99999566
_symmetry_Int_Tables_number   1
_chemical_formula_structural   Na2Ca(CO3)2
_chemical_formula_sum   'Na4 Ca2 C4 O12'
_cell_volume   272.47055585
_cell_formula_units_Z   2
loop_
 _symmetry_equiv_pos_site_id
 _symmetry_equiv_pos_as_xyz
  1  'x, y, z'
loop_
 _atom_site_type_symbol
 _atom_site_label
 _atom_site_symmetry_multiplicity
 _atom_site_fract_x
 _atom_site_fract_y
 _atom_site_fract_z
 _atom_site_occupancy
  Na  Na0  1  0.66666700  0.33333300  0.69266200  1
  Na  Na1  1  0.33333300  0.66666700  0.19266200  1
  Na  Na2  1  0.66666700  0.33333300  0.36195900  1
  Na  Na3  1  0.33333300  0.66666700  0.86195900  1
  Ca  Ca0  1  0.00000000  0.00000000  0.02099600  1
  Ca  Ca1  1  0.00000000  0.00000000  0.52099600  1
  C  C0  1  0.66666700  0.33333300  0.00285600  1
  C  C1  1  0.33333300  0.66666700  0.50285600  1
  C  C2  1  0.00000000  0.00000000  0.74479800  1
  C  C3  1  0.00000000  0.00000000  0.24479800  1
  O  O0  1  0.52267200  0.04534500  0.00240300  1
  O  O1  1  0.52267200  0.47732800  0.00240300  1
  O  O2  1  0.47732800  0.95465500  0.50240300  1
  O  O3  1  0.95465500  0.47732800  0.00240300  1
  O  O4  1  0.47732800  0.52267200  0.50240300  1
  O  O5  1  0.04534500  0.52267200  0.50240300  1
  O  O6  1  0.14341900  0.28683700  0.73984000  1
  O  O7  1  0.14341900  0.85658100  0.73984000  1
  O  O8  1  0.85658100  0.71316300  0.23984000  1
  O  O9  1  0.71316300  0.85658100  0.73984000  1
  O  O10  1  0.85658100  0.14341900  0.23984000  1
  O  O11  1  0.28683700  0.14341900  0.23984000  1
loop_
_geom_bond_atom_site_label_1
_geom_bond_atom_site_label_2
_geom_bond_distance
_geom_bond_site_symmetry_2
Na0 O9 2.675361 1_545
Na0 O6 2.675361 1_655
Na0 O6 2.675361 1_555
Na0 O9 2.675361 1_555
Na0 O7 2.675361 1_655
Na0 O7 2.675361 1_545
Na0 O4 2.784175 1_555
Na0 O5 2.784176 1_655
Na0 O2 2.784176 1_545
Na1 O11 2.675361 1_565
Na1 O8 2.675361 1_455
Na1 O8 2.675361 1_555
Na1 O11 2.675361 1_555
Na1 O10 2.675361 1_565
Na1 O10 2.675361 1_455
Na1 O1 2.784175 1_555
Na1 O3 2.784176 1_455
Na1 O0 2.784176 1_565
Na2 O10 2.221666 1_555
Na2 O8 2.221673 1_555
Na2 O11 2.221673 1_555
Na2 O4 2.357647 1_555
Na2 O5 2.357647 1_655
Na2 O2 2.357647 1_545
Na3 O7 2.221666 1_555
Na3 O6 2.221673 1_555
Na3 O9 2.221673 1_555
Na3 O1 2.357647 1_556
Na3 O0 2.357647 1_566
Na3 O3 2.357647 1_456
Ca0 O0 2.627754 1_555
Ca0 O3 2.627754 1_445
Ca0 O1 2.627757 1_555
Ca0 O1 2.627757 1_445
Ca0 O3 2.627759 1_455
Ca0 O0 2.627759 1_455
Ca0 O11 2.838741 1_555
Ca0 O8 2.838741 1_445
Ca0 O10 2.838743 1_455
Ca1 O2 2.627754 1_445
Ca1 O5 2.627754 1_555
Ca1 O4 2.627757 1_555
Ca1 O4 2.627757 1_445
Ca1 O2 2.627759 1_545
Ca1 O5 2.627759 1_545
Ca1 O6 2.838741 1_555
Ca1 O9 2.838741 1_445
Ca1 O7 2.838743 1_545
C0 O0 1.302376 1_555
C0 O3 1.302376 1_555
C0 O1 1.302384 1_555
C1 O5 1.302376 1_555
C1 O2 1.302376 1_555
C1 O4 1.302384 1_555
C2 O6 1.298421 1_555
C2 O9 1.298421 1_445
C2 O7 1.298425 1_545
C2 Ca1 2.582245 1_555
C2 Ca0 3.186795 1_556
C3 O11 1.298421 1_555
C3 O8 1.298421 1_445
C3 O10 1.298425 1_455
C3 Ca0 2.582245 1_555
C3 Ca1 3.186795 1_555
