# generated using pymatgen
data_KCa2Cd2Sb3
_symmetry_space_group_name_H-M   'P 1'
_cell_length_a   4.84284800
_cell_length_b   12.48523000
_cell_length_c   16.09790900
_cell_angle_alpha   90.00000000
_cell_angle_beta   90.00000000
_cell_angle_gamma   90.00000000
_symmetry_Int_Tables_number   1
_chemical_formula_structural   KCa2Cd2Sb3
_chemical_formula_sum   'K4 Ca8 Cd8 Sb12'
_cell_volume   973.34511490
_cell_formula_units_Z   4
loop_
 _symmetry_equiv_pos_site_id
 _symmetry_equiv_pos_as_xyz
  1  'x, y, z'
loop_
 _atom_site_type_symbol
 _atom_site_label
 _atom_site_symmetry_multiplicity
 _atom_site_fract_x
 _atom_site_fract_y
 _atom_site_fract_z
 _atom_site_occupancy
  K  K0  1  0.75000000  0.08970600  0.03929700  1
  K  K1  1  0.75000000  0.58970600  0.46070300  1
  K  K2  1  0.25000000  0.91029400  0.96070300  1
  K  K3  1  0.25000000  0.41029400  0.53929700  1
  Ca  Ca0  1  0.75000000  0.39980300  0.92265000  1
  Ca  Ca1  1  0.75000000  0.89980300  0.57735000  1
  Ca  Ca2  1  0.25000000  0.60019700  0.07735000  1
  Ca  Ca3  1  0.25000000  0.10019700  0.42265000  1
  Ca  Ca4  1  0.75000000  0.14347800  0.77727500  1
  Ca  Ca5  1  0.75000000  0.64347800  0.72272500  1
  Ca  Ca6  1  0.25000000  0.85652200  0.22272500  1
  Ca  Ca7  1  0.25000000  0.35652200  0.27727500  1
  Cd  Cd0  1  0.75000000  0.20162400  0.57302900  1
  Cd  Cd1  1  0.75000000  0.70162400  0.92697100  1
  Cd  Cd2  1  0.25000000  0.79837600  0.42697100  1
  Cd  Cd3  1  0.25000000  0.29837600  0.07302900  1
  Cd  Cd4  1  0.75000000  0.12319800  0.27923400  1
  Cd  Cd5  1  0.75000000  0.62319800  0.22076600  1
  Cd  Cd6  1  0.25000000  0.87680200  0.72076600  1
  Cd  Cd7  1  0.25000000  0.37680200  0.77923400  1
  Sb  Sb0  1  0.75000000  0.41843600  0.12456200  1
  Sb  Sb1  1  0.75000000  0.91843600  0.37543800  1
  Sb  Sb2  1  0.25000000  0.58156400  0.87543800  1
  Sb  Sb3  1  0.25000000  0.08156400  0.62456200  1
  Sb  Sb4  1  0.75000000  0.38962800  0.68886100  1
  Sb  Sb5  1  0.75000000  0.88962800  0.81113900  1
  Sb  Sb6  1  0.25000000  0.61037200  0.31113900  1
  Sb  Sb7  1  0.25000000  0.11037200  0.18886100  1
  Sb  Sb8  1  0.75000000  0.79045300  0.09312500  1
  Sb  Sb9  1  0.75000000  0.29045300  0.40687500  1
  Sb  Sb10  1  0.25000000  0.20954700  0.90687500  1
  Sb  Sb11  1  0.25000000  0.70954700  0.59312500  1
loop_
_geom_bond_atom_site_label_1
_geom_bond_atom_site_label_2
_geom_bond_distance
_geom_bond_site_symmetry_2
K0 Sb7 3.424432 1_655
K0 Sb7 3.424432 1_555
K0 Sb10 3.556157 1_654
K0 Sb10 3.556157 1_554
K0 Sb8 3.835409 1_545
K1 Sb6 3.424432 1_555
K1 Sb6 3.424432 1_655
K1 Sb11 3.556157 1_555
K1 Sb11 3.556157 1_655
K1 Sb9 3.835409 1_555
K2 Sb5 3.424432 1_455
K2 Sb5 3.424432 1_555
K2 Sb8 3.556157 1_556
K2 Sb8 3.556157 1_456
K2 Sb10 3.835409 1_565
K3 Sb4 3.424432 1_455
K3 Sb4 3.424432 1_555
K3 Sb9 3.556157 1_455
K3 Sb9 3.556157 1_555
K3 Sb11 3.835409 1_555
Ca0 Sb0 3.258676 1_556
Ca0 Cd7 3.357953 1_555
Ca0 Cd7 3.357953 1_655
Ca0 Sb10 3.401508 1_655
Ca0 Sb10 3.401508 1_555
Ca0 Sb2 3.404521 1_555
Ca0 Sb2 3.404521 1_655
Ca0 Cd3 3.650633 1_556
Ca0 Cd3 3.650633 1_656
Ca0 Sb4 3.765658 1_555
Ca0 Cd1 3.768947 1_555
Ca1 Sb1 3.258676 1_555
Ca1 Cd6 3.357953 1_655
Ca1 Cd6 3.357953 1_555
Ca1 Sb11 3.401508 1_555
Ca1 Sb11 3.401508 1_655
Ca1 Sb3 3.404521 1_565
Ca1 Sb3 3.404521 1_665
Ca1 Cd2 3.650633 1_555
Ca1 Cd2 3.650633 1_655
Ca1 Sb5 3.765658 1_555
Ca1 Cd0 3.768947 1_565
Ca2 Sb2 3.258676 1_554
Ca2 Cd5 3.357953 1_455
Ca2 Cd5 3.357953 1_555
Ca2 Sb8 3.401508 1_455
Ca2 Sb8 3.401508 1_555
Ca2 Sb0 3.404521 1_455
Ca2 Sb0 3.404521 1_555
Ca2 Cd1 3.650633 1_454
Ca2 Cd1 3.650633 1_554
Ca2 Sb6 3.765658 1_555
Ca2 Cd3 3.768947 1_555
Ca3 Sb3 3.258676 1_555
Ca3 Cd4 3.357953 1_455
Ca3 Cd4 3.357953 1_555
Ca3 Sb9 3.401508 1_455
Ca3 Sb9 3.401508 1_555
Ca3 Sb1 3.404521 1_445
Ca3 Sb1 3.404521 1_545
Ca3 Cd0 3.650633 1_455
Ca3 Cd0 3.650633 1_555
Ca3 Sb7 3.765658 1_555
Ca3 Cd2 3.768947 1_545
Ca4 Sb5 3.215917 1_545
Ca4 Sb10 3.300960 1_655
Ca4 Sb10 3.300960 1_555
Ca4 Cd0 3.367125 1_555
Ca4 Sb4 3.386817 1_555
Ca4 Sb3 3.536152 1_655
Ca4 Sb3 3.536152 1_555
Ca5 Sb4 3.215917 1_555
Ca5 Sb11 3.300960 1_655
Ca5 Sb11 3.300960 1_555
Ca5 Cd1 3.367125 1_555
Ca5 Sb5 3.386817 1_555
Ca5 Sb2 3.536152 1_555
Ca5 Sb2 3.536152 1_655
Ca6 Sb7 3.215917 1_565
Ca6 Sb8 3.300960 1_455
Ca6 Sb8 3.300960 1_555
Ca6 Cd2 3.367125 1_555
Ca6 Sb6 3.386817 1_555
Ca6 Sb1 3.536152 1_455
Ca6 Sb1 3.536152 1_555
Ca7 Sb6 3.215917 1_555
Ca7 Sb9 3.300960 1_555
Ca7 Sb9 3.300960 1_455
Ca7 Cd3 3.367125 1_555
Ca7 Sb7 3.386817 1_555
Ca7 Sb0 3.536152 1_455
Ca7 Sb0 3.536152 1_555
Cd0 Sb9 2.895546 1_555
Cd0 Sb3 2.966213 1_555
Cd0 Sb3 2.966213 1_655
Cd0 Sb4 2.997770 1_555
Cd0 K3 3.598015 1_555
Cd0 K3 3.598015 1_655
Cd1 Sb8 2.895546 1_556
Cd1 Sb2 2.966213 1_555
Cd1 Sb2 2.966213 1_655
Cd1 Sb5 2.997770 1_555
Cd1 K2 3.598015 1_555
Cd1 K2 3.598015 1_655
Cd2 Sb11 2.895546 1_555
Cd2 Sb1 2.966213 1_455
Cd2 Sb1 2.966213 1_555
Cd2 Sb6 2.997770 1_555
Cd2 K1 3.598015 1_455
Cd2 K1 3.598015 1_555
Cd3 Sb10 2.895546 1_554
Cd3 Sb0 2.966213 1_555
Cd3 Sb0 2.966213 1_455
Cd3 Sb7 2.997770 1_555
Cd3 K0 3.598015 1_555
Cd3 K0 3.598015 1_455
Cd4 Sb7 2.829387 1_555
Cd4 Sb7 2.829387 1_655
Cd4 Sb9 2.929618 1_555
Cd4 Sb1 2.988999 1_545
Cd5 Sb6 2.829387 1_655
Cd5 Sb6 2.829387 1_555
Cd5 Sb8 2.929618 1_555
Cd5 Sb0 2.988999 1_555
Cd6 Sb5 2.829387 1_455
Cd6 Sb5 2.829387 1_555
Cd6 Sb11 2.929618 1_555
Cd6 Sb3 2.988999 1_565
Cd7 Sb4 2.829387 1_555
Cd7 Sb4 2.829387 1_455
Cd7 Sb10 2.929618 1_555
Cd7 Sb2 2.988999 1_555
