# generated using pymatgen
data_TbSiNi4
_symmetry_space_group_name_H-M   'P 1'
_cell_length_a   4.77035019
_cell_length_b   4.77035019
_cell_length_c   3.91340464
_cell_angle_alpha   90.00000000
_cell_angle_beta   90.00000000
_cell_angle_gamma   116.42473443
_symmetry_Int_Tables_number   1
_chemical_formula_structural   TbSiNi4
_chemical_formula_sum   'Tb1 Si1 Ni4'
_cell_volume   79.74995332
_cell_formula_units_Z   1
loop_
 _symmetry_equiv_pos_site_id
 _symmetry_equiv_pos_as_xyz
  1  'x, y, z'
loop_
 _atom_site_type_symbol
 _atom_site_label
 _atom_site_symmetry_multiplicity
 _atom_site_fract_x
 _atom_site_fract_y
 _atom_site_fract_z
 _atom_site_occupancy
  Tb  Tb0  1  0.00000000  -0.00000000  -0.00000000  1
  Si  Si0  1  0.50000000  0.50000000  0.50000000  1
  Ni  Ni0  1  0.34109073  0.65890927  0.00000000  1
  Ni  Ni1  1  0.65890927  0.34109073  -0.00000000  1
  Ni  Ni2  1  0.50000000  -0.00000000  0.50000000  1
  Ni  Ni3  1  0.00000000  0.50000000  0.50000000  1
loop_
_geom_bond_atom_site_label_1
_geom_bond_atom_site_label_2
_geom_bond_distance
_geom_bond_site_symmetry_2
Si0 Tb0 3.184854 1_665
Si0 Tb0 3.184854 1_555
Si0 Tb0 3.184854 1_556
Si0 Tb0 3.184854 1_666
Ni0 Si0 2.342953 1_555
Ni0 Si0 2.342953 1_554
Ni0 Ni2 2.439884 1_565
Ni0 Ni3 2.439884 1_555
Ni0 Ni2 2.439884 1_564
Ni0 Ni3 2.439884 1_554
Ni0 Ni1 2.577399 1_555
Ni0 Tb0 2.766129 1_565
Ni0 Tb0 2.824067 1_555
Ni0 Tb0 2.824067 1_665
Ni0 Ni1 2.915031 1_565
Ni0 Ni1 2.915031 1_455
Ni1 Si0 2.342953 1_555
Ni1 Si0 2.342953 1_554
Ni1 Ni3 2.439884 1_654
Ni1 Ni2 2.439884 1_554
Ni1 Ni3 2.439884 1_655
Ni1 Ni2 2.439884 1_555
Ni1 Tb0 2.766129 1_655
Ni1 Tb0 2.824067 1_555
Ni1 Tb0 2.824067 1_665
Ni2 Si0 2.385175 1_545
Ni2 Si0 2.385175 1_555
Ni2 Ni3 2.512889 1_655
Ni2 Ni3 2.512889 1_545
Ni2 Tb0 3.085084 1_555
Ni2 Tb0 3.085084 1_556
Ni2 Tb0 3.085084 1_656
Ni2 Tb0 3.085084 1_655
Ni3 Si0 2.385175 1_455
Ni3 Si0 2.385175 1_555
Ni3 Tb0 3.085084 1_555
Ni3 Tb0 3.085084 1_556
Ni3 Tb0 3.085084 1_565
Ni3 Tb0 3.085084 1_566
