# generated using pymatgen
data_Si12CO24
_symmetry_space_group_name_H-M   'P 1'
_cell_length_a   11.28548997
_cell_length_b   11.28548997
_cell_length_c   5.12774027
_cell_angle_alpha   89.82124499
_cell_angle_beta   89.82124499
_cell_angle_gamma   77.91499506
_symmetry_Int_Tables_number   1
_chemical_formula_structural   Si12CO24
_chemical_formula_sum   'Si12 C1 O24'
_cell_volume   638.60203857
_cell_formula_units_Z   1
loop_
 _symmetry_equiv_pos_site_id
 _symmetry_equiv_pos_as_xyz
  1  'x, y, z'
loop_
 _atom_site_type_symbol
 _atom_site_label
 _atom_site_symmetry_multiplicity
 _atom_site_fract_x
 _atom_site_fract_y
 _atom_site_fract_z
 _atom_site_occupancy
  Si  Si0  1  0.65516200  0.24713600  0.94750400  1
  Si  Si1  1  0.24713600  0.65516200  0.94750400  1
  Si  Si2  1  0.34523600  0.75164100  0.44678700  1
  Si  Si3  1  0.75164100  0.34523600  0.44678700  1
  Si  Si4  1  0.58544900  0.99288100  0.02712200  1
  Si  Si5  1  0.99288100  0.58544900  0.02712200  1
  Si  Si6  1  0.41931400  0.00264000  0.52876100  1
  Si  Si7  1  0.00264000  0.41931400  0.52876100  1
  Si  Si8  1  0.37727200  0.37727200  0.91318800  1
  Si  Si9  1  0.62318200  0.62318200  0.42416500  1
  Si  Si10  1  0.26882200  0.26882200  0.43314300  1
  Si  Si11  1  0.72669200  0.72669200  0.92346300  1
  C  C0  1  0.20809400  0.20809400  0.00026200  1
  O  O0  1  0.74484500  0.29425800  0.15188000  1
  O  O1  1  0.29425800  0.74484500  0.15188000  1
  O  O2  1  0.25404100  0.70538600  0.65179300  1
  O  O3  1  0.70538600  0.25404100  0.65179300  1
  O  O4  1  0.30230400  0.30230400  0.12101600  1
  O  O5  1  0.69465300  0.69465300  0.62546900  1
  O  O6  1  0.47630200  0.00809700  0.81713400  1
  O  O7  1  0.00809700  0.47630200  0.81713400  1
  O  O8  1  0.52942300  0.98485800  0.31719300  1
  O  O9  1  0.98485800  0.52942300  0.31719300  1
  O  O10  1  0.34595400  0.34595400  0.61584400  1
  O  O11  1  0.65433200  0.65433200  0.12465800  1
  O  O12  1  0.65054700  0.10802300  0.01375100  1
  O  O13  1  0.10802300  0.65054700  0.01375100  1
  O  O14  1  0.35044000  0.89048500  0.51227800  1
  O  O15  1  0.89048500  0.35044000  0.51227800  1
  O  O16  1  0.32118900  0.12653500  0.47899000  1
  O  O17  1  0.12653500  0.32118900  0.47899000  1
  O  O18  1  0.68726600  0.87174000  0.96889500  1
  O  O19  1  0.87174000  0.68726600  0.96889500  1
  O  O20  1  0.52020000  0.33463400  0.97328500  1
  O  O21  1  0.33463400  0.52020000  0.97328500  1
  O  O22  1  0.47820600  0.66276400  0.47302300  1
  O  O23  1  0.66276400  0.47820600  0.47302300  1
loop_
_geom_bond_atom_site_label_1
_geom_bond_atom_site_label_2
_geom_bond_distance
_geom_bond_site_symmetry_2
C0 O4 1.767983 1_555
O0 Si0 1.625095 1_554
O0 Si3 1.627348 1_555
O1 Si1 1.625095 1_554
O1 Si2 1.627348 1_555
O2 Si1 1.624496 1_555
O2 Si2 1.628357 1_555
O3 Si0 1.624496 1_555
O3 Si3 1.628357 1_555
O4 Si8 1.689901 1_554
O4 Si10 1.702767 1_555
O5 Si9 1.627720 1_555
O5 Si11 1.630339 1_555
O6 Si4 1.620104 1_546
O6 Si6 1.620822 1_555
O7 Si5 1.620104 1_456
O7 Si7 1.620822 1_555
O8 Si4 1.624077 1_555
O8 Si6 1.627843 1_565
O9 Si5 1.624077 1_555
O9 Si7 1.627843 1_655
O10 Si8 1.622834 1_555
O10 Si10 1.649416 1_555
O11 Si9 1.628139 1_555
O11 Si11 1.633035 1_554
O12 Si0 1.616687 1_554
O12 Si4 1.622289 1_545
O13 Si1 1.616687 1_554
O13 Si5 1.622289 1_455
O14 Si2 1.616605 1_555
O14 Si6 1.620613 1_565
O15 Si3 1.616605 1_555
O15 Si7 1.620613 1_655
O16 Si10 1.607545 1_555
O16 Si6 1.611722 1_555
O17 Si10 1.607545 1_555
O17 Si7 1.611722 1_555
O18 Si4 1.618999 1_556
O18 Si11 1.621286 1_555
O19 Si5 1.618999 1_556
O19 Si11 1.621286 1_555
O20 Si8 1.614154 1_555
O20 Si0 1.637746 1_555
O21 Si8 1.614154 1_555
O21 Si1 1.637746 1_555
O22 Si9 1.622136 1_555
O22 Si2 1.626718 1_555
O23 Si9 1.622136 1_555
O23 Si3 1.626718 1_555
