# generated using pymatgen
data_CrB6H36(C4O)2
_symmetry_space_group_name_H-M   'P 1'
_cell_length_a   7.45157100
_cell_length_b   17.82627000
_cell_length_c   8.49505389
_cell_angle_alpha   90.00000000
_cell_angle_beta   110.39653645
_cell_angle_gamma   90.00000000
_symmetry_Int_Tables_number   1
_chemical_formula_structural   CrB6H36(C4O)2
_chemical_formula_sum   'Cr2 B12 H72 C16 O4'
_cell_volume   1057.68049817
_cell_formula_units_Z   2
loop_
 _symmetry_equiv_pos_site_id
 _symmetry_equiv_pos_as_xyz
  1  'x, y, z'
loop_
 _atom_site_type_symbol
 _atom_site_label
 _atom_site_symmetry_multiplicity
 _atom_site_fract_x
 _atom_site_fract_y
 _atom_site_fract_z
 _atom_site_occupancy
  Cr  Cr0  1  0.50000000  0.50000000  0.50000000  1
  Cr  Cr1  1  0.50000000  0.00000000  0.00000000  1
  B  B0  1  0.25878800  0.46168900  0.65250400  1
  B  B1  1  0.74121200  0.96168900  0.84749600  1
  B  B2  1  0.74121200  0.53831100  0.34749600  1
  B  B3  1  0.25878800  0.03831100  0.15250400  1
  B  B4  1  0.48817800  0.42012800  0.75303100  1
  B  B5  1  0.51182200  0.92012800  0.74696900  1
  B  B6  1  0.51182200  0.57987200  0.24696900  1
  B  B7  1  0.48817800  0.07987200  0.25303100  1
  B  B8  1  0.27789000  0.36196300  0.68440500  1
  B  B9  1  0.72211000  0.86196300  0.81559500  1
  B  B10  1  0.72211000  0.63803700  0.31559500  1
  B  B11  1  0.27789000  0.13803700  0.18440500  1
  H  H0  1  0.23120200  0.49107200  0.51452900  1
  H  H1  1  0.76879800  0.99107200  0.98547100  1
  H  H2  1  0.76879800  0.50892800  0.48547100  1
  H  H3  1  0.23120200  0.00892800  0.01452900  1
  H  H4  1  0.21159300  0.50225400  0.74444600  1
  H  H5  1  0.78840700  0.00225400  0.75555400  1
  H  H6  1  0.78840700  0.49774600  0.25555400  1
  H  H7  1  0.21159300  0.99774600  0.24444600  1
  H  H8  1  0.12581000  0.41332200  0.60140900  1
  H  H9  1  0.87419000  0.91332200  0.89859100  1
  H  H10  1  0.87419000  0.58667800  0.39859100  1
  H  H11  1  0.12581000  0.08667800  0.10140900  1
  H  H12  1  0.60015600  0.42057500  0.67442800  1
  H  H13  1  0.39984400  0.92057500  0.82557200  1
  H  H14  1  0.39984400  0.57942500  0.32557200  1
  H  H15  1  0.60015600  0.07942500  0.17442800  1
  H  H16  1  0.56240900  0.44347000  0.89371300  1
  H  H17  1  0.43759100  0.94347000  0.60628700  1
  H  H18  1  0.43759100  0.55653000  0.10628700  1
  H  H19  1  0.56240900  0.05653000  0.39371300  1
  H  H20  1  0.48238200  0.34965900  0.76897100  1
  H  H21  1  0.51761800  0.84965900  0.73102900  1
  H  H22  1  0.51761800  0.65034100  0.23102900  1
  H  H23  1  0.48238200  0.15034100  0.26897100  1
  H  H24  1  0.22233200  0.33826900  0.79239900  1
  H  H25  1  0.77766800  0.83826900  0.70760100  1
  H  H26  1  0.77766800  0.66173100  0.20760100  1
  H  H27  1  0.22233200  0.16173100  0.29239900  1
  H  H28  1  0.25595000  0.32040000  0.56719800  1
  H  H29  1  0.74405000  0.82040000  0.93280200  1
  H  H30  1  0.74405000  0.67960000  0.43280200  1
  H  H31  1  0.25595000  0.17960000  0.06719800  1
  H  H32  1  0.40558900  0.32032300  0.18791500  1
  H  H33  1  0.59441100  0.82032300  0.31208500  1
  H  H34  1  0.59441100  0.67967700  0.81208500  1
  H  H35  1  0.40558900  0.17967700  0.68791500  1
  H  H36  1  0.56554200  0.39473100  0.18737500  1
  H  H37  1  0.43445800  0.89473100  0.31262500  1
  H  H38  1  0.43445800  0.60526900  0.81262500  1
  H  H39  1  0.56554200  0.10526900  0.68737500  1
  H  H40  1  0.73210000  0.28322300  0.36361500  1
  H  H41  1  0.26790000  0.78322300  0.13638500  1
  H  H42  1  0.26790000  0.71677700  0.63638500  1
  H  H43  1  0.73210000  0.21677700  0.86361500  1
  H  H44  1  0.76132600  0.36359000  0.49291500  1
  H  H45  1  0.23867400  0.86359000  0.00708500  1
  H  H46  1  0.23867400  0.63641000  0.50708500  1
  H  H47  1  0.76132600  0.13641000  0.99291500  1
  H  H48  1  0.58974800  0.29361700  0.49190000  1
  H  H49  1  0.41025200  0.79361700  0.00810000  1
  H  H50  1  0.41025200  0.70638300  0.50810000  1
  H  H51  1  0.58974800  0.20638300  0.99190000  1
  H  H52  1  0.15301900  0.48196700  0.21672400  1
  H  H53  1  0.84698100  0.98196700  0.28327600  1
  H  H54  1  0.84698100  0.51803300  0.78327600  1
  H  H55  1  0.15301900  0.01803300  0.71672400  1
  H  H56  1  0.24471600  0.43853900  0.07240400  1
  H  H57  1  0.75528400  0.93853900  0.42759600  1
  H  H58  1  0.75528400  0.56146100  0.92759600  1
  H  H59  1  0.24471600  0.06146100  0.57240400  1
  H  H60  1  0.92915900  0.38375000  0.05908400  1
  H  H61  1  0.07084100  0.88375000  0.44091600  1
  H  H62  1  0.07084100  0.61625000  0.94091600  1
  H  H63  1  0.92915900  0.11625000  0.55908400  1
  H  H64  1  0.10857500  0.31366100  0.12126100  1
  H  H65  1  0.89142500  0.81366100  0.37873900  1
  H  H66  1  0.89142500  0.68633900  0.87873900  1
  H  H67  1  0.10857500  0.18633900  0.62126100  1
  H  H68  1  0.02737800  0.35692800  0.27413500  1
  H  H69  1  0.97262200  0.85692800  0.22586500  1
  H  H70  1  0.97262200  0.64307200  0.72586500  1
  H  H71  1  0.02737800  0.14307200  0.77413500  1
  C  C0  1  0.50460800  0.36203400  0.26675500  1
  C  C1  1  0.49539200  0.86203400  0.23324500  1
  C  C2  1  0.49539200  0.63796600  0.73324500  1
  C  C3  1  0.50460800  0.13796600  0.76675500  1
  C  C4  1  0.65517900  0.32420400  0.41352900  1
  C  C5  1  0.34482100  0.82420400  0.08647100  1
  C  C6  1  0.34482100  0.67579600  0.58647100  1
  C  C7  1  0.65517900  0.17579600  0.91352900  1
  C  C8  1  0.20714800  0.42896200  0.18503000  1
  C  C9  1  0.79285200  0.92896200  0.31497000  1
  C  C10  1  0.79285200  0.57103800  0.81497000  1
  C  C11  1  0.20714800  0.07103800  0.68503000  1
  C  C12  1  0.06160000  0.36657200  0.16039900  1
  C  C13  1  0.93840000  0.86657200  0.33960100  1
  C  C14  1  0.93840000  0.63342800  0.83960100  1
  C  C15  1  0.06160000  0.13342800  0.66039900  1
  O  O0  1  0.38667800  0.41344800  0.32390200  1
  O  O1  1  0.61332200  0.91344800  0.17609800  1
  O  O2  1  0.61332200  0.58655200  0.67609800  1
  O  O3  1  0.38667800  0.08655200  0.82390200  1
loop_
_geom_bond_atom_site_label_1
_geom_bond_atom_site_label_2
_geom_bond_distance
_geom_bond_site_symmetry_2
Cr0 H14 1.996611 1_555
Cr0 H12 1.996611 1_555
Cr0 H2 2.055422 1_555
Cr0 H0 2.055422 1_555
Cr0 O2 2.109736 1_555
Cr0 O0 2.109736 1_555
Cr1 H13 1.996611 1_544
Cr1 H15 1.996611 1_555
Cr1 H3 2.055422 1_555
Cr1 H1 2.055422 1_544
Cr1 O1 2.109736 1_545
Cr1 O3 2.109736 1_554
B0 H4 1.203364 1_555
B0 H0 1.233896 1_555
B0 H8 1.270384 1_555
B1 H5 1.203364 1_565
B1 H1 1.233896 1_555
B1 H9 1.270384 1_555
B2 H6 1.203364 1_555
B2 H2 1.233896 1_555
B2 H10 1.270384 1_555
B3 H7 1.203364 1_545
B3 H3 1.233896 1_555
B3 H11 1.270384 1_555
B4 H16 1.202743 1_555
B4 H12 1.237151 1_555
B4 H20 1.265826 1_555
B5 H17 1.202743 1_555
B5 H13 1.237151 1_555
B5 H21 1.265826 1_555
B6 H18 1.202743 1_555
B6 H14 1.237151 1_555
B6 H22 1.265826 1_555
B7 H19 1.202743 1_555
B7 H15 1.237151 1_555
B7 H23 1.265826 1_555
B8 H28 1.205651 1_555
B8 H24 1.206722 1_555
B8 H8 1.436180 1_555
B8 H20 1.457085 1_555
B9 H29 1.205651 1_555
B9 H25 1.206722 1_555
B9 H9 1.436180 1_555
B9 H21 1.457085 1_555
B10 H30 1.205651 1_555
B10 H26 1.206722 1_555
B10 H10 1.436180 1_555
B10 H22 1.457085 1_555
B11 H31 1.205651 1_555
B11 H27 1.206722 1_555
B11 H11 1.436180 1_555
B11 H23 1.457085 1_555
C0 H32 1.096083 1_555
C0 H36 1.101839 1_555
C0 O0 1.464675 1_555
C1 H33 1.096083 1_555
C1 H37 1.101839 1_555
C1 O1 1.464675 1_555
C2 H34 1.096083 1_555
C2 H38 1.101839 1_555
C2 O2 1.464675 1_555
C3 H35 1.096083 1_555
C3 H39 1.101839 1_555
C3 O3 1.464675 1_555
C4 H44 1.096159 1_555
C4 H48 1.097507 1_555
C4 H40 1.100648 1_555
C5 H45 1.096159 1_555
C5 H49 1.097507 1_555
C5 H41 1.100648 1_555
C6 H46 1.096159 1_555
C6 H50 1.097507 1_555
C6 H42 1.100648 1_555
C7 H47 1.096159 1_555
C7 H51 1.097507 1_555
C7 H43 1.100648 1_555
C8 H52 1.097122 1_555
C8 H56 1.099819 1_555
C8 O0 1.468955 1_555
C9 H53 1.097122 1_555
C9 H57 1.099819 1_555
C9 O1 1.468955 1_555
C10 H54 1.097122 1_555
C10 H58 1.099819 1_555
C10 O2 1.468955 1_555
C11 H55 1.097122 1_555
C11 H59 1.099819 1_555
C11 O3 1.468955 1_555
C12 H68 1.095378 1_555
C12 H64 1.097190 1_555
C12 H60 1.102922 1_455
C13 H69 1.095378 1_555
C13 H65 1.097190 1_555
C13 H61 1.102922 1_655
C14 H70 1.095378 1_555
C14 H66 1.097190 1_555
C14 H62 1.102922 1_655
C15 H71 1.095378 1_555
C15 H67 1.097190 1_555
C15 H63 1.102922 1_455
