# generated using pymatgen
data_RbLiSO4
_symmetry_space_group_name_H-M   'P 1'
_cell_length_a   5.32398707
_cell_length_b   9.56269512
_cell_length_c   44.28296597
_cell_angle_alpha   90.00000000
_cell_angle_beta   89.89131655
_cell_angle_gamma   90.00000000
_symmetry_Int_Tables_number   1
_chemical_formula_structural   RbLiSO4
_chemical_formula_sum   'Rb20 Li20 S20 O80'
_cell_volume   2254.51547842
_cell_formula_units_Z   20
loop_
 _symmetry_equiv_pos_site_id
 _symmetry_equiv_pos_as_xyz
  1  'x, y, z'
loop_
 _atom_site_type_symbol
 _atom_site_label
 _atom_site_symmetry_multiplicity
 _atom_site_fract_x
 _atom_site_fract_y
 _atom_site_fract_z
 _atom_site_occupancy
  Rb  Rb0  1  0.27648329  0.75750183  0.60087841  1
  Rb  Rb1  1  0.77648329  0.24249817  0.10087841  1
  Rb  Rb2  1  0.23491536  0.74684024  0.70014895  1
  Rb  Rb3  1  0.73491536  0.25315976  0.20014895  1
  Rb  Rb4  1  0.27440239  0.75712623  0.80001894  1
  Rb  Rb5  1  0.77440239  0.24287377  0.30001894  1
  Rb  Rb6  1  0.27715083  0.74118518  0.90085147  1
  Rb  Rb7  1  0.77715083  0.25881482  0.40085147  1
  Rb  Rb8  1  0.22967620  0.75412367  0.00067474  1
  Rb  Rb9  1  0.72967620  0.24587633  0.50067474  1
  Rb  Rb10  1  0.22625433  0.74167044  0.09994448  1
  Rb  Rb11  1  0.72625433  0.25832956  0.59994448  1
  Rb  Rb12  1  0.26984732  0.75571913  0.19988307  1
  Rb  Rb13  1  0.76984732  0.24428087  0.69988307  1
  Rb  Rb14  1  0.23002542  0.74359686  0.30032652  1
  Rb  Rb15  1  0.73002542  0.25640314  0.80032652  1
  Rb  Rb16  1  0.23013630  0.75735717  0.39973363  1
  Rb  Rb17  1  0.73013630  0.24264283  0.89973363  1
  Rb  Rb18  1  0.27377095  0.74372244  0.49979267  1
  Rb  Rb19  1  0.77377095  0.25627756  0.99979267  1
  Li  Li0  1  0.72391498  0.58588030  0.56399395  1
  Li  Li1  1  0.22391498  0.41411970  0.06399395  1
  Li  Li2  1  0.71740234  0.91458113  0.66416757  1
  Li  Li3  1  0.21740234  0.08541887  0.16416757  1
  Li  Li4  1  0.78963960  0.58590047  0.76376692  1
  Li  Li5  1  0.28963960  0.41409953  0.26376692  1
  Li  Li6  1  0.72642424  0.91467765  0.86417067  1
  Li  Li7  1  0.22642424  0.08532235  0.36417067  1
  Li  Li8  1  0.71214943  0.58626964  0.96409219  1
  Li  Li9  1  0.21214943  0.41373036  0.46409219  1
  Li  Li10  1  0.77508325  0.91747670  0.06401070  1
  Li  Li11  1  0.27508325  0.08252330  0.56401070  1
  Li  Li12  1  0.78880794  0.58469261  0.16415681  1
  Li  Li13  1  0.28880794  0.41530739  0.66415681  1
  Li  Li14  1  0.71655152  0.91177304  0.26426740  1
  Li  Li15  1  0.21655152  0.08822696  0.76426740  1
  Li  Li16  1  0.77614685  0.58404005  0.36417647  1
  Li  Li17  1  0.27614685  0.41595995  0.86417647  1
  Li  Li18  1  0.78878686  0.91696461  0.46406491  1
  Li  Li19  1  0.28878686  0.08303539  0.96406491  1
  S  S0  1  0.77898445  0.91785530  0.54162281  1
  S  S1  1  0.27898445  0.08214470  0.04162281  1
  S  S2  1  0.78541764  0.58249682  0.64153747  1
  S  S3  1  0.28541764  0.41750318  0.14153747  1
  S  S4  1  0.72046254  0.92098351  0.74174571  1
  S  S5  1  0.22046254  0.07901649  0.24174571  1
  S  S6  1  0.77980925  0.58237846  0.84159240  1
  S  S7  1  0.27980925  0.41762154  0.34159240  1
  S  S8  1  0.78395343  0.91709226  0.94155196  1
  S  S9  1  0.28395343  0.08290774  0.44155196  1
  S  S10  1  0.71923191  0.58137571  0.04161153  1
  S  S11  1  0.21923191  0.41862429  0.54161153  1
  S  S12  1  0.71785620  0.91802605  0.14153801  1
  S  S13  1  0.21785620  0.08197395  0.64153801  1
  S  S14  1  0.78322861  0.58036346  0.24175000  1
  S  S15  1  0.28322861  0.41963654  0.74175000  1
  S  S16  1  0.72165027  0.91873033  0.34191724  1
  S  S17  1  0.22165027  0.08126967  0.84191724  1
  S  S18  1  0.71399312  0.58240018  0.44169010  1
  S  S19  1  0.21399312  0.41759982  0.94169010  1
  O  O0  1  0.76819581  0.91802796  0.50806024  1
  O  O1  1  0.26819581  0.08197204  0.00806024  1
  O  O2  1  0.77532336  0.59462127  0.60802736  1
  O  O3  1  0.27532336  0.40537873  0.10802736  1
  O  O4  1  0.74730039  0.90751985  0.70830892  1
  O  O5  1  0.24730039  0.09248015  0.20830892  1
  O  O6  1  0.77067487  0.58403667  0.80790334  1
  O  O7  1  0.27067487  0.41596333  0.30790334  1
  O  O8  1  0.77609861  0.90134925  0.90804292  1
  O  O9  1  0.27609861  0.09865075  0.40804292  1
  O  O10  1  0.75033211  0.58221772  0.00816963  1
  O  O11  1  0.25033211  0.41778228  0.50816963  1
  O  O12  1  0.73704789  0.90831437  0.10802630  1
  O  O13  1  0.23704789  0.09168563  0.60802630  1
  O  O14  1  0.76437374  0.59756316  0.20835193  1
  O  O15  1  0.26437374  0.40243684  0.70835193  1
  O  O16  1  0.75136677  0.91932676  0.30835703  1
  O  O17  1  0.25136677  0.08067324  0.80835703  1
  O  O18  1  0.74424324  0.59771771  0.40833308  1
  O  O19  1  0.24424324  0.40228229  0.90833308  1
  O  O20  1  0.68097677  0.78234383  0.55320494  1
  O  O21  1  0.18097677  0.21765617  0.05320494  1
  O  O22  1  0.69184603  0.71434039  0.65543771  1
  O  O23  1  0.19184603  0.28565961  0.15543771  1
  O  O24  1  0.80249246  0.78879516  0.75643516  1
  O  O25  1  0.30249246  0.21120484  0.25643516  1
  O  O26  1  0.68509426  0.71823530  0.85330970  1
  O  O27  1  0.18509426  0.28176470  0.35330970  1
  O  O28  1  0.68531544  0.78769803  0.95599118  1
  O  O29  1  0.18531544  0.21230197  0.45599118  1
  O  O30  1  0.80078961  0.71883552  0.05401415  1
  O  O31  1  0.30078961  0.28116448  0.55401415  1
  O  O32  1  0.80480364  0.78469654  0.15526662  1
  O  O33  1  0.30480364  0.21530346  0.65526662  1
  O  O34  1  0.69279154  0.70966998  0.25692973  1
  O  O35  1  0.19279154  0.29033002  0.75692973  1
  O  O36  1  0.80663879  0.78158313  0.35396582  1
  O  O37  1  0.30663879  0.21841687  0.85396582  1
  O  O38  1  0.79076987  0.71453017  0.45683265  1
  O  O39  1  0.29076987  0.28546983  0.95683265  1
  O  O40  1  0.04522838  0.93632151  0.55136306  1
  O  O41  1  0.54522838  0.06367849  0.05136306  1
  O  O42  1  0.05114320  0.55808351  0.65093138  1
  O  O43  1  0.55114320  0.44191649  0.15093138  1
  O  O44  1  0.87636057  0.04034560  0.75238333  1
  O  O45  1  0.37636057  0.95965440  0.25238333  1
  O  O46  1  0.04485634  0.56116266  0.85144421  1
  O  O47  1  0.54485634  0.43883734  0.35144421  1
  O  O48  1  0.04966900  0.94011099  0.95102520  1
  O  O49  1  0.54966900  0.05988901  0.45102520  1
  O  O50  1  0.87436089  0.46695646  0.05470954  1
  O  O51  1  0.37436089  0.53304354  0.55470954  1
  O  O52  1  0.87484704  0.03666212  0.15242108  1
  O  O53  1  0.37484704  0.96333788  0.65242108  1
  O  O54  1  0.05119211  0.55483133  0.24998377  1
  O  O55  1  0.55119211  0.44516867  0.74998377  1
  O  O56  1  0.87487356  0.03368524  0.35504474  1
  O  O57  1  0.37487356  0.96631476  0.85504474  1
  O  O58  1  0.87102617  0.46382897  0.45246861  1
  O  O59  1  0.37102617  0.53617103  0.95246861  1
  O  O60  1  0.62281823  0.03532234  0.55347780  1
  O  O61  1  0.12281823  0.96467766  0.05347780  1
  O  O62  1  0.62735054  0.46231449  0.65147171  1
  O  O63  1  0.12735054  0.53768551  0.15147171  1
  O  O64  1  0.45113914  0.94805996  0.74923507  1
  O  O65  1  0.95113914  0.05194004  0.24923507  1
  O  O66  1  0.62034017  0.46579813  0.85300075  1
  O  O67  1  0.12034017  0.53420187  0.35300075  1
  O  O68  1  0.62847700  0.03981099  0.95064062  1
  O  O69  1  0.12847700  0.96018901  0.45064062  1
  O  O70  1  0.44883976  0.55805968  0.04913158  1
  O  O71  1  0.94883976  0.44194032  0.54913158  1
  O  O72  1  0.44985586  0.94311143  0.15002036  1
  O  O73  1  0.94985586  0.05688857  0.65002036  1
  O  O74  1  0.62824899  0.45822907  0.25124583  1
  O  O75  1  0.12824899  0.54177093  0.75124583  1
  O  O76  1  0.45101995  0.94009525  0.34957027  1
  O  O77  1  0.95101995  0.05990475  0.84957027  1
  O  O78  1  0.44422110  0.55340372  0.44858496  1
  O  O79  1  0.94422110  0.44659628  0.94858496  1
loop_
_geom_bond_atom_site_label_1
_geom_bond_atom_site_label_2
_geom_bond_distance
_geom_bond_site_symmetry_2
Li0 O71 1.938761 1_555
Li0 O20 1.952058 1_555
Li0 O2 1.971332 1_555
Li0 O51 1.972468 1_555
Li1 O70 1.938761 1_555
Li1 O21 1.952058 1_555
Li1 O3 1.971332 1_555
Li1 O50 1.972468 1_455
Li2 O73 1.942429 1_565
Li2 O53 1.953884 1_555
Li2 O22 1.958258 1_555
Li2 O4 1.962643 1_555
Li3 O72 1.942429 1_545
Li3 O52 1.953884 1_455
Li3 O23 1.958258 1_555
Li3 O5 1.962643 1_555
Li4 O75 1.931746 1_655
Li4 O55 1.948896 1_555
Li4 O6 1.956988 1_555
Li4 O24 1.968366 1_555
Li5 O74 1.931746 1_555
Li5 O54 1.948896 1_555
Li5 O7 1.956988 1_555
Li5 O25 1.968366 1_555
Li6 O77 1.942565 1_565
Li6 O26 1.951658 1_555
Li6 O8 1.965345 1_555
Li6 O57 1.978154 1_555
Li7 O76 1.942565 1_545
Li7 O27 1.951658 1_555
Li7 O9 1.965345 1_555
Li7 O56 1.978154 1_455
Li8 O79 1.943937 1_555
Li8 O59 1.948424 1_555
Li8 O10 1.963203 1_556
Li8 O28 1.964570 1_555
Li9 O78 1.943937 1_555
Li9 O58 1.948424 1_455
Li9 O11 1.963203 1_555
Li9 O29 1.964570 1_555
Li10 O41 1.941255 1_565
Li10 O30 1.955182 1_555
Li10 O61 1.960984 1_655
Li10 O12 1.961208 1_555
Li11 O40 1.941255 1_545
Li11 O31 1.955182 1_555
Li11 O60 1.960984 1_555
Li11 O13 1.961208 1_555
Li12 O63 1.939691 1_655
Li12 O43 1.952170 1_555
Li12 O32 1.954498 1_555
Li12 O14 1.965022 1_555
Li13 O62 1.939691 1_555
Li13 O42 1.952170 1_555
Li13 O33 1.954498 1_555
Li13 O15 1.965022 1_555
Li14 O45 1.941793 1_555
Li14 O65 1.948443 1_565
Li14 O16 1.962878 1_555
Li14 O34 1.963893 1_555
Li15 O44 1.941793 1_455
Li15 O64 1.948443 1_545
Li15 O17 1.962878 1_555
Li15 O35 1.963893 1_555
Li16 O47 1.940324 1_555
Li16 O36 1.949105 1_555
Li16 O67 1.956170 1_655
Li16 O18 1.966782 1_555
Li17 O46 1.940324 1_555
Li17 O37 1.949105 1_555
Li17 O66 1.956170 1_555
Li17 O19 1.966782 1_555
Li18 O69 1.947013 1_655
Li18 O0 1.951144 1_555
Li18 O49 1.955733 1_565
Li18 O38 1.962158 1_555
Li19 O68 1.947013 1_555
Li19 O1 1.951144 1_556
Li19 O48 1.955733 1_545
Li19 O39 1.962158 1_555
O0 S0 1.487469 1_555
O0 Rb18 3.137687 1_555
O0 Rb9 3.158831 1_565
O0 Rb18 3.186494 1_655
O1 S1 1.487469 1_555
O1 Rb19 3.137687 1_454
O1 Rb8 3.158831 1_545
O1 Rb19 3.186494 1_554
O2 S2 1.489521 1_555
O2 Rb0 3.095614 1_555
O2 Rb0 3.105187 1_655
O2 Rb11 3.246297 1_555
O3 S3 1.489521 1_555
O3 Rb1 3.095614 1_455
O3 Rb1 3.105187 1_555
O3 Rb10 3.246297 1_555
O4 S4 1.492851 1_555
O4 Rb2 3.037671 1_655
O4 Rb2 3.152276 1_555
O4 Rb13 3.244082 1_565
O5 S5 1.492851 1_555
O5 Rb3 3.037671 1_555
O5 Rb3 3.152276 1_455
O5 Rb12 3.244082 1_545
O6 S6 1.492820 1_555
O6 Rb4 3.137841 1_555
O6 Rb15 3.158441 1_555
O6 Rb4 3.170222 1_655
O7 S7 1.492820 1_555
O7 Rb5 3.137841 1_455
O7 Rb14 3.158441 1_555
O7 Rb5 3.170222 1_555
O8 S8 1.492162 1_555
O8 Rb6 3.083316 1_555
O8 Rb6 3.091934 1_655
O8 Rb17 3.293519 1_565
O9 S9 1.492162 1_555
O9 Rb7 3.083316 1_455
O9 Rb7 3.091934 1_555
O9 Rb16 3.293519 1_545
O10 S10 1.489844 1_555
O10 Rb8 3.053213 1_655
O10 Rb19 3.141315 1_554
O10 Rb8 3.240338 1_555
O11 S11 1.489844 1_555
O11 Rb9 3.053213 1_555
O11 Rb18 3.141315 1_555
O11 Rb9 3.240338 1_455
O12 S12 1.490215 1_555
O12 Rb10 3.073689 1_655
O12 Rb10 3.172803 1_555
O12 Rb1 3.218152 1_565
O13 S13 1.490215 1_555
O13 Rb11 3.073689 1_555
O13 Rb11 3.172803 1_455
O13 Rb0 3.218152 1_545
O14 S14 1.491654 1_555
O14 Rb12 3.060008 1_555
O14 Rb12 3.109078 1_655
O14 Rb3 3.317139 1_555
O15 S15 1.491654 1_555
O15 Rb13 3.060008 1_455
O15 Rb13 3.109078 1_555
O15 Rb2 3.317139 1_555
O16 S16 1.494256 1_555
O16 Rb14 3.072644 1_655
O16 Rb5 3.118321 1_565
O16 Rb14 3.264684 1_555
O17 S17 1.494256 1_555
O17 Rb15 3.072644 1_555
O17 Rb4 3.118321 1_545
O17 Rb15 3.264684 1_455
O18 S18 1.492801 1_555
O18 Rb16 3.027165 1_655
O18 Rb16 3.157711 1_555
O18 Rb7 3.262390 1_555
O19 S19 1.492801 1_555
O19 Rb17 3.027165 1_555
O19 Rb17 3.157711 1_455
O19 Rb6 3.262390 1_555
O20 S0 1.487800 1_555
O20 Rb0 3.022195 1_555
O20 Rb18 3.232696 1_555
O21 S1 1.487800 1_555
O21 Rb1 3.022195 1_455
O21 Rb19 3.232696 1_454
O22 S2 1.488447 1_555
O22 Rb2 3.149047 1_555
O22 Rb0 3.304260 1_555
O23 S3 1.488447 1_555
O23 Rb3 3.149047 1_455
O23 Rb1 3.304260 1_455
O24 S4 1.487561 1_555
O24 Rb4 3.185506 1_655
O24 Rb2 3.413508 1_655
O24 Rb4 3.420655 1_555
O25 S5 1.487561 1_555
O25 Rb5 3.185506 1_555
O25 Rb3 3.413508 1_555
O25 Rb5 3.420655 1_455
O26 S6 1.486718 1_555
O26 Rb6 3.029877 1_555
O26 Rb4 3.241566 1_555
O27 S7 1.486718 1_555
O27 Rb7 3.029877 1_455
O27 Rb5 3.241566 1_455
O28 S8 1.488088 1_555
O28 Rb8 3.144009 1_556
O28 Rb6 3.301865 1_555
O29 S9 1.488088 1_555
O29 Rb9 3.144009 1_455
O29 Rb7 3.301865 1_455
O30 S10 1.489620 1_555
O30 Rb10 3.055000 1_655
O30 Rb8 3.299460 1_655
O31 S11 1.489620 1_555
O31 Rb11 3.055000 1_555
O31 Rb9 3.299460 1_555
O32 S12 1.486790 1_555
O32 Rb12 3.182600 1_655
O32 Rb10 3.344357 1_655
O32 Rb12 3.474291 1_555
O33 S13 1.486790 1_555
O33 Rb13 3.182600 1_555
O33 Rb11 3.344357 1_555
O33 Rb13 3.474291 1_455
O34 S14 1.487090 1_555
O34 Rb14 3.138549 1_555
O34 Rb12 3.415777 1_555
O34 Rb14 3.464114 1_655
O35 S15 1.487090 1_555
O35 Rb15 3.138549 1_455
O35 Rb13 3.415777 1_455
O35 Rb15 3.464114 1_555
O36 S16 1.486724 1_555
O36 Rb16 3.043404 1_655
O36 Rb14 3.291612 1_655
O37 S17 1.486724 1_555
O37 Rb17 3.043404 1_555
O37 Rb15 3.291612 1_555
O38 S18 1.488036 1_555
O38 Rb18 3.213747 1_655
O38 Rb18 3.354610 1_555
O38 Rb16 3.465608 1_655
O39 S19 1.488036 1_555
O39 Rb19 3.213747 1_555
O39 Rb19 3.354610 1_455
O39 Rb17 3.465608 1_555
O40 S0 1.492914 1_455
O40 Rb0 3.042706 1_555
O40 Rb18 3.174476 1_555
O41 S1 1.492914 1_555
O41 Rb1 3.042706 1_555
O41 Rb19 3.174476 1_554
O42 S2 1.493725 1_455
O42 Rb2 2.995611 1_555
O42 Rb0 3.158895 1_555
O43 S3 1.493725 1_555
O43 Rb3 2.995611 1_555
O43 Rb1 3.158895 1_555
O44 S4 1.488332 1_545
O44 Rb15 3.062164 1_555
O44 Rb13 3.087839 1_555
O45 S5 1.488332 1_565
O45 Rb14 3.062164 1_555
O45 Rb12 3.087839 1_555
O46 S6 1.491660 1_455
O46 Rb6 3.047990 1_555
O46 Rb4 3.190697 1_555
O47 S7 1.491660 1_555
O47 Rb7 3.047990 1_555
O47 Rb5 3.190697 1_555
O48 S8 1.492638 1_455
O48 Rb8 2.987242 1_556
O48 Rb6 3.164140 1_555
O49 S9 1.492638 1_555
O49 Rb9 2.987242 1_555
O49 Rb7 3.164140 1_555
O50 S10 1.489139 1_555
O50 Rb1 3.009087 1_555
O50 Rb19 3.203848 1_554
O51 S11 1.489139 1_555
O51 Rb0 3.009087 1_555
O51 Rb18 3.203848 1_555
O52 S12 1.489774 1_545
O52 Rb3 3.049952 1_555
O52 Rb1 3.059871 1_555
O53 S13 1.489774 1_565
O53 Rb2 3.049952 1_555
O53 Rb0 3.059871 1_555
O54 S14 1.493257 1_455
O54 Rb14 3.023717 1_555
O54 Rb12 3.155621 1_555
O55 S15 1.493257 1_555
O55 Rb15 3.023717 1_555
O55 Rb13 3.155621 1_555
O56 S16 1.487822 1_545
O56 Rb7 3.002677 1_555
O56 Rb5 3.198473 1_555
O57 S17 1.487822 1_565
O57 Rb6 3.002677 1_555
O57 Rb4 3.198473 1_555
O58 S18 1.487931 1_555
O58 Rb7 3.053250 1_555
O58 Rb9 3.075901 1_555
O59 S19 1.487931 1_555
O59 Rb6 3.053250 1_555
O59 Rb8 3.075901 1_556
O60 S0 1.492320 1_545
O60 Rb11 3.014861 1_555
O60 Rb9 3.136907 1_555
O61 S1 1.492320 1_565
O61 Rb10 3.014861 1_555
O61 Rb8 3.136907 1_555
O62 S2 1.490349 1_555
O62 Rb11 3.047005 1_555
O62 Rb13 3.086223 1_555
O63 S3 1.490349 1_555
O63 Rb10 3.047005 1_555
O63 Rb12 3.086223 1_555
O64 S4 1.493729 1_555
O64 Rb4 3.044407 1_555
O64 Rb2 3.124440 1_555
O65 S5 1.493729 1_655
O65 Rb5 3.044407 1_555
O65 Rb3 3.124440 1_555
O66 S6 1.489041 1_555
O66 Rb17 3.030315 1_555
O66 Rb15 3.128300 1_555
O67 S7 1.489041 1_555
O67 Rb16 3.030315 1_555
O67 Rb14 3.128300 1_555
O68 S8 1.490990 1_545
O68 Rb17 3.021978 1_555
O68 Rb19 3.102782 1_555
O69 S9 1.490990 1_565
O69 Rb16 3.021978 1_555
O69 Rb18 3.102782 1_555
O70 S10 1.493699 1_555
O70 Rb8 3.080704 1_555
O70 Rb10 3.088729 1_555
O71 S11 1.493699 1_655
O71 Rb9 3.080704 1_555
O71 Rb11 3.088729 1_555
O72 S12 1.494138 1_555
O72 Rb12 2.999529 1_555
O72 Rb10 3.171000 1_555
O73 S13 1.494138 1_655
O73 Rb13 2.999529 1_555
O73 Rb11 3.171000 1_555
O74 S14 1.490095 1_555
O74 Rb3 3.046820 1_555
O74 Rb5 3.085076 1_555
O75 S15 1.490095 1_555
O75 Rb2 3.046820 1_555
O75 Rb4 3.085076 1_555
O76 S16 1.493566 1_555
O76 Rb16 3.059609 1_555
O76 Rb14 3.111298 1_555
O77 S17 1.493566 1_655
O77 Rb17 3.059609 1_555
O77 Rb15 3.111298 1_555
O78 S18 1.493753 1_555
O78 Rb18 3.044684 1_555
O78 Rb16 3.129232 1_555
O79 S19 1.493753 1_655
O79 Rb19 3.044684 1_555
O79 Rb17 3.129232 1_555
