# generated using pymatgen
data_Nb2AgS4
_symmetry_space_group_name_H-M   'P 1'
_cell_length_a   3.39760489
_cell_length_b   3.39760489
_cell_length_c   13.60598317
_cell_angle_alpha   90.00000000
_cell_angle_beta   90.00000000
_cell_angle_gamma   120.00001894
_symmetry_Int_Tables_number   1
_chemical_formula_structural   Nb2AgS4
_chemical_formula_sum   'Nb2 Ag1 S4'
_cell_volume   136.02108195
_cell_formula_units_Z   1
loop_
 _symmetry_equiv_pos_site_id
 _symmetry_equiv_pos_as_xyz
  1  'x, y, z'
loop_
 _atom_site_type_symbol
 _atom_site_label
 _atom_site_symmetry_multiplicity
 _atom_site_fract_x
 _atom_site_fract_y
 _atom_site_fract_z
 _atom_site_occupancy
  Nb  Nb0  1  -0.00000000  0.00000000  0.77319684  1
  Nb  Nb1  1  0.66666700  0.33333300  0.23121332  1
  Ag  Ag0  1  -0.00000000  -0.00000000  0.52244633  1
  S  S0  1  0.00000000  -0.00000000  0.34562002  1
  S  S1  1  0.66666700  0.33333300  0.65714113  1
  S  S2  1  0.66666700  0.33333300  0.88392704  1
  S  S3  1  0.00000000  -0.00000000  0.12045532  1
loop_
_geom_bond_atom_site_label_1
_geom_bond_atom_site_label_2
_geom_bond_distance
_geom_bond_site_symmetry_2
Nb0 S2 2.473403 1_455
Nb0 S2 2.473405 1_445
Nb0 S2 2.473405 1_555
Nb0 S1 2.518195 1_455
Nb0 S1 2.518197 1_445
Nb0 S1 2.518197 1_555
Nb1 S3 2.473633 1_655
Nb1 S3 2.473635 1_555
Nb1 S3 2.473635 1_665
Nb1 S0 2.504187 1_655
Nb1 S0 2.504189 1_665
Nb1 S0 2.504189 1_555
Ag0 S0 2.405896 1_555
Ag0 S1 2.684497 1_455
Ag0 S1 2.684499 1_445
Ag0 S1 2.684499 1_555
