# generated using pymatgen
data_Li4Mn3CoO8
_symmetry_space_group_name_H-M   'P 1'
_cell_length_a   5.95672014
_cell_length_b   5.95672014
_cell_length_c   5.04336480
_cell_angle_alpha   76.16199364
_cell_angle_beta   76.16199364
_cell_angle_gamma   62.18630754
_symmetry_Int_Tables_number   1
_chemical_formula_structural   Li4Mn3CoO8
_chemical_formula_sum   'Li4 Mn3 Co1 O8'
_cell_volume   151.97786268
_cell_formula_units_Z   1
loop_
 _symmetry_equiv_pos_site_id
 _symmetry_equiv_pos_as_xyz
  1  'x, y, z'
loop_
 _atom_site_type_symbol
 _atom_site_label
 _atom_site_symmetry_multiplicity
 _atom_site_fract_x
 _atom_site_fract_y
 _atom_site_fract_z
 _atom_site_occupancy
  Li  Li0  1  0.75219800  0.75219800  0.49503700  1
  Li  Li1  1  0.00000000  0.50000000  0.00000000  1
  Li  Li2  1  0.24780200  0.24780200  0.50496300  1
  Li  Li3  1  0.50000000  0.00000000  0.00000000  1
  Mn  Mn0  1  0.24865900  0.75134100  0.50000000  1
  Mn  Mn1  1  0.50000000  0.50000000  0.00000000  1
  Mn  Mn2  1  0.75134100  0.24865900  0.50000000  1
  Co  Co0  1  0.00000000  0.00000000  0.00000000  1
  O  O0  1  0.11533200  0.11533200  0.24236200  1
  O  O1  1  0.36149000  0.86666700  0.74619900  1
  O  O2  1  0.61465200  0.61465200  0.24534600  1
  O  O3  1  0.86666700  0.36149000  0.74619900  1
  O  O4  1  0.38534800  0.38534800  0.75465400  1
  O  O5  1  0.63851000  0.13333300  0.25380100  1
  O  O6  1  0.88466800  0.88466800  0.75763800  1
  O  O7  1  0.13333300  0.63851000  0.25380100  1
loop_
_geom_bond_atom_site_label_1
_geom_bond_atom_site_label_2
_geom_bond_distance
_geom_bond_site_symmetry_2
Li0 O2 2.131177 1_555
Li0 O6 2.140143 1_555
Li0 O7 2.175137 1_655
Li0 O5 2.175137 1_565
Li0 O1 2.237859 1_555
Li0 O3 2.237859 1_555
Li1 O7 2.133768 1_555
Li1 O3 2.133768 1_454
Li1 O6 2.193008 1_454
Li1 O0 2.193008 1_555
Li1 O4 2.202060 1_554
Li1 O2 2.202060 1_455
Li2 O4 2.131177 1_555
Li2 O0 2.140143 1_555
Li2 O3 2.175137 1_455
Li2 O1 2.175137 1_545
Li2 O5 2.237859 1_555
Li2 O7 2.237859 1_555
Li3 O5 2.133768 1_555
Li3 O1 2.133768 1_544
Li3 O0 2.193008 1_555
Li3 O6 2.193008 1_544
Li3 O2 2.202060 1_545
Li3 O4 2.202060 1_554
Mn0 O1 1.924445 1_555
Mn0 O7 1.924445 1_555
Mn0 O6 2.135227 1_455
Mn0 O0 2.135227 1_565
Mn0 O4 2.137678 1_555
Mn0 O2 2.137678 1_555
Mn1 O4 1.925530 1_554
Mn1 O2 1.925530 1_555
Mn1 O7 2.139105 1_555
Mn1 O1 2.139105 1_554
Mn1 O5 2.139105 1_555
Mn1 O3 2.139105 1_554
Mn2 O3 1.924445 1_555
Mn2 O5 1.924445 1_555
Mn2 O0 2.135227 1_655
Mn2 O6 2.135227 1_545
Mn2 O2 2.137678 1_555
Mn2 O4 2.137678 1_555
Co0 O6 1.918809 1_444
Co0 O0 1.918809 1_555
Co0 O5 2.116079 1_455
Co0 O3 2.116079 1_454
Co0 O1 2.116079 1_544
Co0 O7 2.116079 1_545
