# generated using pymatgen
data_La2P3(HO2)5
_symmetry_space_group_name_H-M   'P 1'
_cell_length_a   6.69180771
_cell_length_b   10.93781078
_cell_length_c   14.10270968
_cell_angle_alpha   100.69231715
_cell_angle_beta   90.00536896
_cell_angle_gamma   107.81573596
_symmetry_Int_Tables_number   1
_chemical_formula_structural   La2P3(HO2)5
_chemical_formula_sum   'La8 P12 H20 O40'
_cell_volume   963.88198314
_cell_formula_units_Z   4
loop_
 _symmetry_equiv_pos_site_id
 _symmetry_equiv_pos_as_xyz
  1  'x, y, z'
loop_
 _atom_site_type_symbol
 _atom_site_label
 _atom_site_symmetry_multiplicity
 _atom_site_fract_x
 _atom_site_fract_y
 _atom_site_fract_z
 _atom_site_occupancy
  La  La0  1  0.73080578  0.22607510  0.65671276  1
  La  La1  1  0.50484781  0.77390205  0.84333840  1
  La  La2  1  0.26919022  0.77392590  0.34328724  1
  La  La3  1  0.49514619  0.22609795  0.15666360  1
  La  La4  1  0.71608782  0.43324685  0.91619821  1
  La  La5  1  0.28263129  0.56660509  0.58379183  1
  La  La6  1  0.28391718  0.56675615  0.08380479  1
  La  La7  1  0.71736371  0.43339491  0.41620617  1
  P  P0  1  0.99825729  0.73386974  0.94643758  1
  P  P1  1  0.26420035  0.26614807  0.55351664  1
  P  P2  1  0.00174071  0.26612826  0.05356442  1
  P  P3  1  0.73579665  0.73385293  0.44648336  1
  P  P4  1  0.22296279  0.43175466  0.81485560  1
  P  P5  1  0.79125036  0.56822884  0.68516035  1
  P  P6  1  0.77703921  0.56824434  0.18514640  1
  P  P7  1  0.20874764  0.43177016  0.31483765  1
  P  P8  1  0.48209433  0.11911605  0.88318805  1
  P  P9  1  0.36301829  0.88080331  0.61682230  1
  P  P10  1  0.51790367  0.88088395  0.11681295  1
  P  P11  1  0.63697971  0.11919769  0.38317770  1
  H  H0  1  0.99858353  0.81684991  0.03485638  1
  H  H1  1  0.18160832  0.18323188  0.46506858  1
  H  H2  1  0.00142047  0.18315309  0.96514362  1
  H  H3  1  0.81839368  0.81676712  0.53493242  1
  H  H4  1  0.30639065  0.34351236  0.75814751  1
  H  H5  1  0.96295565  0.65644420  0.74186478  1
  H  H6  1  0.69361235  0.65648764  0.24185249  1
  H  H7  1  0.03704135  0.34355680  0.25813322  1
  H  H8  1  0.26510146  0.06459617  0.86374710  1
  H  H9  1  0.20046580  0.93524821  0.63622928  1
  H  H10  1  0.73489754  0.93540383  0.13625190  1
  H  H11  1  0.79953120  0.06475179  0.36377172  1
  H  H12  1  0.91133116  0.00648949  0.67739956  1
  H  H13  1  0.90494963  0.99346486  0.82249698  1
  H  H14  1  0.08867284  0.99351051  0.32260044  1
  H  H15  1  0.09505037  0.00653414  0.17750202  1
  H  H16  1  0.12178804  0.12356659  0.67442238  1
  H  H17  1  -0.00167893  0.87642911  0.82555758  1
  H  H18  1  0.87821296  0.87643341  0.32557662  1
  H  H19  1  0.00167693  0.12357189  0.17444142  1
  O  O0  1  0.51814537  0.21369560  0.98089701  1
  O  O1  1  0.30477660  0.78630167  0.51907388  1
  O  O2  1  0.48185363  0.78630240  0.01910199  1
  O  O3  1  0.69522240  0.21369733  0.48092812  1
  O  O4  1  0.77176646  0.67907839  0.90219739  1
  O  O5  1  0.09240236  0.32085247  0.59772561  1
  O  O6  1  0.22823654  0.32092361  0.09780361  1
  O  O7  1  0.90759564  0.67914753  0.40227239  1
  O  O8  1  0.15213217  0.81050109  0.88375357  1
  O  O9  1  0.34135304  0.18950336  0.61622379  1
  O  O10  1  0.84787183  0.18950191  0.11624443  1
  O  O11  1  0.65864596  0.81049564  0.38377621  1
  O  O12  1  0.35553570  0.47187033  0.91208788  1
  O  O13  1  0.88368877  0.52813502  0.58793377  1
  O  O14  1  0.64447230  0.52813067  0.08791212  1
  O  O15  1  0.11630523  0.47186498  0.41206423  1
  O  O16  1  0.25792150  0.55093538  0.76666438  1
  O  O17  1  0.70699127  0.44903031  0.73331967  1
  O  O18  1  0.74208050  0.44906462  0.23333662  1
  O  O19  1  0.29300873  0.55097169  0.26668033  1
  O  O20  1  0.05560025  0.61591392  0.96753291  1
  O  O21  1  0.43948746  0.38413428  0.53245479  1
  O  O22  1  0.94440275  0.38408708  0.03246509  1
  O  O23  1  0.56051354  0.61586172  0.46754421  1
  O  O24  1  0.57624602  0.00967718  0.87748614  1
  O  O25  1  0.56651009  0.99035395  0.62261995  1
  O  O26  1  0.42375398  0.99032082  0.12251286  1
  O  O27  1  0.43348791  0.00964305  0.37738105  1
  O  O28  1  0.56208981  0.20695308  0.80898154  1
  O  O29  1  0.35517228  0.79294324  0.69101443  1
  O  O30  1  0.43791119  0.79304692  0.19101846  1
  O  O31  1  0.64482772  0.20705676  0.30898857  1
  O  O32  1  0.99152518  0.36093025  0.82175078  1
  O  O33  1  0.63062070  0.63903121  0.67824859  1
  O  O34  1  0.00848082  0.63906975  0.17825022  1
  O  O35  1  0.36937930  0.36097179  0.32175141  1
  O  O36  1  0.97659386  0.10016370  0.69625526  1
  O  O37  1  0.87638284  0.89975978  0.80383934  1
  O  O38  1  0.02340714  0.89983430  0.30374474  1
  O  O39  1  0.12361616  0.10023822  0.19615966  1
loop_
_geom_bond_atom_site_label_1
_geom_bond_atom_site_label_2
_geom_bond_distance
_geom_bond_site_symmetry_2
La0 O25 2.427503 1_545
La0 O28 2.439749 1_555
La0 O3 2.465013 1_555
La0 O17 2.529776 1_555
La0 O5 2.531250 1_655
La0 O9 2.560290 1_555
La0 O36 2.565891 1_555
La0 O32 2.790589 1_555
La1 O24 2.428145 1_565
La1 O29 2.440188 1_555
La1 O2 2.464615 1_556
La1 O16 2.530305 1_555
La1 O4 2.531384 1_555
La1 O8 2.559279 1_555
La1 O37 2.564610 1_555
La1 O33 2.791199 1_555
La2 O27 2.427466 1_565
La2 O30 2.439763 1_555
La2 O1 2.465046 1_555
La2 O19 2.529776 1_555
La2 O7 2.531230 1_455
La2 O11 2.560314 1_555
La2 O38 2.565839 1_555
La2 O34 2.790549 1_555
La3 O26 2.428171 1_545
La3 O31 2.440218 1_555
La3 O0 2.464658 1_554
La3 O18 2.530321 1_555
La3 O6 2.531355 1_555
La3 O10 2.559342 1_555
La3 O39 2.564576 1_555
La3 O35 2.791175 1_555
La4 O22 2.478174 1_556
La4 O32 2.509724 1_555
La4 O20 2.522516 1_655
La4 O28 2.554372 1_555
La4 O14 2.557933 1_556
La4 O12 2.576032 1_555
La4 O17 2.618548 1_555
La4 O4 2.644192 1_555
La4 O0 2.687135 1_555
La5 O23 2.480133 1_555
La5 O33 2.510736 1_555
La5 O21 2.520942 1_555
La5 O29 2.554679 1_555
La5 O15 2.557412 1_555
La5 O13 2.574733 1_455
La5 O16 2.618150 1_555
La5 O5 2.643224 1_555
La5 O1 2.688000 1_555
La6 O20 2.478221 1_554
La6 O34 2.509691 1_555
La6 O22 2.522545 1_455
La6 O30 2.554328 1_555
La6 O12 2.557982 1_554
La6 O14 2.576060 1_555
La6 O19 2.618507 1_555
La6 O6 2.644193 1_555
La6 O2 2.687111 1_555
La7 O21 2.480120 1_555
La7 O35 2.510698 1_555
La7 O23 2.520879 1_555
La7 O31 2.554654 1_555
La7 O13 2.557410 1_555
La7 O15 2.574726 1_655
La7 O18 2.618110 1_555
La7 O7 2.643227 1_555
La7 O3 2.688044 1_555
H0 P0 1.399100 1_554
H1 P1 1.399017 1_555
H2 P2 1.399103 1_556
H3 P3 1.399027 1_555
H4 P4 1.387881 1_555
H5 P5 1.387747 1_555
H6 P6 1.387872 1_555
H7 P7 1.387743 1_555
H8 P8 1.395955 1_555
H9 P9 1.395973 1_555
H10 P10 1.395958 1_555
H11 P11 1.395972 1_555
H12 O36 0.967624 1_555
H13 O37 0.967618 1_555
H14 O38 0.967645 1_555
H15 O39 0.967608 1_555
H16 O36 0.990692 1_455
H16 O9 1.709982 1_555
H17 O37 0.990525 1_455
H18 O38 0.990686 1_655
H18 O11 1.710003 1_555
H19 O39 0.990550 1_555
O0 P8 1.531476 1_555
O1 P9 1.531430 1_555
O2 P10 1.531509 1_555
O3 P11 1.531442 1_555
O4 P0 1.533241 1_555
O5 P1 1.533307 1_555
O6 P2 1.533266 1_555
O7 P3 1.533328 1_555
O8 P0 1.513705 1_455
O9 P1 1.513693 1_555
O10 P2 1.513621 1_655
O11 P3 1.513669 1_555
O12 P4 1.548605 1_555
O13 P5 1.548567 1_555
O14 P6 1.548610 1_555
O15 P7 1.548583 1_555
O16 P4 1.535611 1_555
O17 P5 1.535526 1_555
O18 P6 1.535593 1_555
O19 P7 1.535537 1_555
O20 P0 1.531557 1_455
O21 P1 1.531523 1_555
O22 P2 1.531591 1_655
O23 P3 1.531539 1_555
O24 P8 1.504017 1_555
O25 P9 1.503979 1_555
O26 P10 1.503991 1_555
O27 P11 1.504003 1_555
O28 P8 1.537291 1_555
O29 P9 1.537297 1_555
O30 P10 1.537277 1_555
O31 P11 1.537253 1_555
O32 P4 1.517228 1_655
O33 P5 1.517239 1_555
O34 P6 1.517256 1_455
O35 P7 1.517223 1_555
