# generated using pymatgen
data_Nb3V5(B2Ir)4
_symmetry_space_group_name_H-M   'P 1'
_cell_length_a   3.21678500
_cell_length_b   7.31841700
_cell_length_c   9.35885874
_cell_angle_alpha   89.86049579
_cell_angle_beta   90.00000000
_cell_angle_gamma   90.00000000
_symmetry_Int_Tables_number   1
_chemical_formula_structural   Nb3V5(B2Ir)4
_chemical_formula_sum   'Nb3 V5 B8 Ir4'
_cell_volume   220.32348458
_cell_formula_units_Z   1
loop_
 _symmetry_equiv_pos_site_id
 _symmetry_equiv_pos_as_xyz
  1  'x, y, z'
loop_
 _atom_site_type_symbol
 _atom_site_label
 _atom_site_symmetry_multiplicity
 _atom_site_fract_x
 _atom_site_fract_y
 _atom_site_fract_z
 _atom_site_occupancy
  Nb  Nb0  1  0.50000000  0.32185100  0.12899600  1
  Nb  Nb1  1  0.50000000  0.67767400  0.87040100  1
  Nb  Nb2  1  0.00000000  0.82309400  0.37216300  1
  V  V0  1  0.00000000  0.18523100  0.63037000  1
  V  V1  1  0.50000000  0.07215700  0.86078300  1
  V  V2  1  0.50000000  0.93104500  0.13461300  1
  V  V3  1  0.00000000  0.56906300  0.63494000  1
  V  V4  1  0.00000000  0.42812500  0.36610200  1
  B  B0  1  0.50000000  0.38208900  0.53984300  1
  B  B1  1  0.50000000  0.60886800  0.46346300  1
  B  B2  1  0.00000000  0.89054300  0.96023700  1
  B  B3  1  0.00000000  0.11068300  0.03713400  1
  B  B4  1  0.50000000  0.37245800  0.72928200  1
  B  B5  1  0.50000000  0.61775800  0.26950500  1
  B  B6  1  0.00000000  0.88389900  0.76561600  1
  B  B7  1  0.00000000  0.11957100  0.23409100  1
  Ir  Ir0  1  0.50000000  0.87359100  0.60934300  1
  Ir  Ir1  1  0.50000000  0.13454700  0.39613700  1
  Ir  Ir2  1  0.00000000  0.36417300  0.88742500  1
  Ir  Ir3  1  0.00000000  0.63357900  0.10955500  1
loop_
_geom_bond_atom_site_label_1
_geom_bond_atom_site_label_2
_geom_bond_distance
_geom_bond_site_symmetry_2
B0 B4 1.774162 1_555
B0 B1 1.805460 1_555
B0 Ir1 2.258902 1_555
B0 V3 2.292891 1_655
B0 V3 2.292891 1_555
B0 V4 2.311212 1_555
B0 V4 2.311212 1_655
B0 V0 2.318268 1_655
B0 V0 2.318268 1_555
B1 B5 1.816233 1_555
B1 V4 2.274364 1_555
B1 V4 2.274364 1_655
B1 V3 2.290194 1_555
B1 V3 2.290194 1_655
B1 Ir0 2.372800 1_555
B1 Nb2 2.401769 1_555
B1 Nb2 2.401769 1_655
B2 B3 1.766107 1_566
B2 B6 1.822198 1_555
B2 V1 2.283380 1_565
B2 V1 2.283380 1_465
B2 V2 2.310938 1_556
B2 V2 2.310938 1_456
B2 Ir3 2.340214 1_556
B2 Nb1 2.393142 1_455
B2 Nb1 2.393142 1_555
B3 B7 1.844598 1_555
B3 V2 2.267534 1_545
B3 V2 2.267534 1_445
B3 Ir2 2.322069 1_554
B3 V1 2.322209 1_554
B3 V1 2.322209 1_454
B3 Nb0 2.391826 1_455
B3 Nb0 2.391826 1_555
B4 Ir2 2.186476 1_655
B4 Ir2 2.186476 1_555
B4 V0 2.308136 1_555
B4 V0 2.308136 1_655
B4 V3 2.330357 1_555
B4 V3 2.330357 1_655
B4 V1 2.516239 1_555
B4 Nb1 2.597702 1_555
B5 Ir3 2.200079 1_655
B5 Ir3 2.200079 1_555
B5 V4 2.307407 1_555
B5 V4 2.307407 1_655
B5 Nb2 2.403171 1_655
B5 Nb2 2.403171 1_555
B5 Nb0 2.536296 1_555
B5 V2 2.614655 1_555
B6 Ir0 2.175355 1_555
B6 Ir0 2.175355 1_455
B6 V1 2.298774 1_565
B6 V1 2.298774 1_465
B6 Nb1 2.412309 1_455
B6 Nb1 2.412309 1_555
B6 V0 2.540031 1_565
B6 V3 2.611184 1_555
B7 Ir1 2.213531 1_455
B7 Ir1 2.213531 1_555
B7 V2 2.315934 1_445
B7 V2 2.315934 1_545
B7 Nb0 2.395566 1_455
B7 Nb0 2.395566 1_555
B7 Nb2 2.522677 1_545
B7 V4 2.576648 1_555
Ir0 V3 2.758379 1_655
Ir0 V3 2.758379 1_555
Ir0 Ir1 2.758659 1_565
Ir0 Nb2 2.766715 1_655
Ir0 Nb2 2.766715 1_555
Ir0 V1 2.768740 1_565
Ir0 V0 2.798121 1_565
Ir0 V0 2.798121 1_665
Ir0 Nb1 2.829838 1_555
Ir1 V4 2.697993 1_555
Ir1 V4 2.697993 1_655
Ir1 V0 2.744815 1_555
Ir1 V0 2.744815 1_655
Ir1 Nb2 2.799136 1_645
Ir1 Nb2 2.799136 1_545
Ir1 Nb0 2.848332 1_555
Ir1 V2 2.868167 1_545
Ir2 V1 2.686795 1_455
Ir2 V1 2.686795 1_555
Ir2 V0 2.741881 1_555
Ir2 Nb0 2.791200 1_556
Ir2 Nb0 2.791200 1_456
Ir2 V3 2.795495 1_555
Ir2 Nb1 2.806151 1_555
Ir2 Nb1 2.806151 1_455
Ir2 Ir3 2.868627 1_556
Ir3 V2 2.717288 1_455
Ir3 V2 2.717288 1_555
Ir3 Nb1 2.774369 1_454
Ir3 Nb1 2.774369 1_554
Ir3 Nb0 2.796890 1_455
Ir3 Nb0 2.796890 1_555
Ir3 Nb2 2.824991 1_555
Ir3 V4 2.829835 1_555
