# generated using pymatgen
data_MgMnCoS4
_symmetry_space_group_name_H-M   'P 1'
_cell_length_a   7.06748084
_cell_length_b   7.00965191
_cell_length_c   6.99354115
_cell_angle_alpha   59.68608039
_cell_angle_beta   59.72743486
_cell_angle_gamma   59.80717570
_symmetry_Int_Tables_number   1
_chemical_formula_structural   MgMnCoS4
_chemical_formula_sum   'Mg2 Mn2 Co2 S8'
_cell_volume   243.54131753
_cell_formula_units_Z   2
loop_
 _symmetry_equiv_pos_site_id
 _symmetry_equiv_pos_as_xyz
  1  'x, y, z'
loop_
 _atom_site_type_symbol
 _atom_site_label
 _atom_site_symmetry_multiplicity
 _atom_site_fract_x
 _atom_site_fract_y
 _atom_site_fract_z
 _atom_site_occupancy
  Mg  Mg0  1  0.87409500  0.87607700  0.87585800  1
  Mg  Mg1  1  0.12591400  0.12392400  0.12414400  1
  Mn  Mn0  1  0.50000100  0.50000500  0.00000100  1
  Mn  Mn1  1  0.49996700  0.99999100  0.50000600  1
  Co  Co0  1  0.50000600  0.50000400  0.49999200  1
  Co  Co1  1  0.00000400  0.49999900  0.50000400  1
  S  S0  1  0.74072300  0.73028800  0.73068800  1
  S  S1  1  0.26451600  0.27355900  0.69741000  1
  S  S2  1  0.26468900  0.69731700  0.27330600  1
  S  S3  1  0.70175200  0.26970900  0.26929700  1
  S  S4  1  0.73531200  0.30268500  0.72668600  1
  S  S5  1  0.29824700  0.73027800  0.73070700  1
  S  S6  1  0.25927600  0.26971400  0.26931600  1
  S  S7  1  0.73550300  0.72644400  0.30258800  1
loop_
_geom_bond_atom_site_label_1
_geom_bond_atom_site_label_2
_geom_bond_distance
_geom_bond_site_symmetry_2
Mg0 S7 2.427382 1_556
Mg0 S4 2.434134 1_565
Mg0 S0 2.438169 1_555
Mg0 S5 2.441072 1_655
Mg1 S1 2.427405 1_554
Mg1 S2 2.434127 1_545
Mg1 S6 2.438129 1_555
Mg1 S3 2.441128 1_455
Mn0 S2 2.341420 1_555
Mn0 S4 2.341509 1_554
Mn0 S3 2.347178 1_555
Mn0 S5 2.347185 1_554
Mn0 S0 2.347325 1_554
Mn0 S6 2.347377 1_555
Mn1 S7 2.344924 1_555
Mn1 S1 2.344972 1_565
Mn1 S5 2.350033 1_555
Mn1 S6 2.350333 1_565
Mn1 S3 2.350364 1_565
Mn1 S0 2.350589 1_555
Co0 S5 2.288346 1_555
Co0 S3 2.288360 1_555
Co0 S4 2.307215 1_555
Co0 S2 2.307238 1_555
Co0 S1 2.307341 1_555
Co0 S7 2.307363 1_555
Co1 S6 2.288983 1_555
Co1 S0 2.288989 1_455
Co1 S2 2.307508 1_555
Co1 S4 2.307530 1_455
Co1 S7 2.307716 1_455
Co1 S1 2.307730 1_555
