# generated using pymatgen
data_Ce12(ReC3)5
_symmetry_space_group_name_H-M   'P 1'
_cell_length_a   10.84515000
_cell_length_b   10.84515051
_cell_length_c   5.21423700
_cell_angle_alpha   90.00000000
_cell_angle_beta   90.00000000
_cell_angle_gamma   119.99999844
_symmetry_Int_Tables_number   1
_chemical_formula_structural   Ce12(ReC3)5
_chemical_formula_sum   'Ce12 Re5 C15'
_cell_volume   531.11987376
_cell_formula_units_Z   1
loop_
 _symmetry_equiv_pos_site_id
 _symmetry_equiv_pos_as_xyz
  1  'x, y, z'
loop_
 _atom_site_type_symbol
 _atom_site_label
 _atom_site_symmetry_multiplicity
 _atom_site_fract_x
 _atom_site_fract_y
 _atom_site_fract_z
 _atom_site_occupancy
  Ce  Ce0  1  0.72693200  0.18988100  0.00000000  1
  Ce  Ce1  1  0.81011900  0.53705000  0.00000000  1
  Ce  Ce2  1  0.46295000  0.27306800  0.00000000  1
  Ce  Ce3  1  0.18988100  0.72693200  0.00000000  1
  Ce  Ce4  1  0.53705000  0.81011900  0.00000000  1
  Ce  Ce5  1  0.27306800  0.46295000  0.00000000  1
  Ce  Ce6  1  0.57344900  0.57344900  0.50000000  1
  Ce  Ce7  1  0.42655100  0.00000000  0.50000000  1
  Ce  Ce8  1  0.00000000  0.42655100  0.50000000  1
  Ce  Ce9  1  0.20902500  0.20902500  0.50000000  1
  Ce  Ce10  1  0.79097500  0.00000000  0.50000000  1
  Ce  Ce11  1  0.00000000  0.79097500  0.50000000  1
  Re  Re0  1  0.84921100  0.84921100  0.00000000  1
  Re  Re1  1  0.15078900  0.00000000  0.00000000  1
  Re  Re2  1  0.00000000  0.15078900  0.00000000  1
  Re  Re3  1  0.66666700  0.33333300  0.50000000  1
  Re  Re4  1  0.33333300  0.66666700  0.50000000  1
  C  C0  1  0.71953700  0.18474500  0.50000000  1
  C  C1  1  0.81525500  0.53479100  0.50000000  1
  C  C2  1  0.46520900  0.28046300  0.50000000  1
  C  C3  1  0.18474500  0.71953700  0.50000000  1
  C  C4  1  0.53479100  0.81525500  0.50000000  1
  C  C5  1  0.28046300  0.46520900  0.50000000  1
  C  C6  1  0.67139100  0.67139100  0.00000000  1
  C  C7  1  0.32860900  0.00000000  0.00000000  1
  C  C8  1  0.00000000  0.32860900  0.00000000  1
  C  C9  1  0.54648700  0.54648700  0.00000000  1
  C  C10  1  0.45351300  0.00000000  0.00000000  1
  C  C11  1  0.00000000  0.45351300  0.00000000  1
  C  C12  1  0.21528500  0.21528500  0.00000000  1
  C  C13  1  0.78471500  0.00000000  0.00000000  1
  C  C14  1  0.00000000  0.78471500  0.00000000  1
loop_
_geom_bond_atom_site_label_1
_geom_bond_atom_site_label_2
_geom_bond_distance
_geom_bond_site_symmetry_2
C0 Re3 1.962028 1_555
C0 Ce10 2.483324 1_555
C0 Ce0 2.608090 1_556
C0 Ce0 2.608090 1_555
C0 Ce7 2.782871 1_555
C0 Ce8 2.855221 1_655
C1 Re3 1.962028 1_555
C1 Ce11 2.483332 1_655
C1 Ce1 2.608090 1_555
C1 Ce1 2.608090 1_556
C1 Ce8 2.782862 1_655
C1 Ce6 2.855228 1_555
C2 Re3 1.962028 1_555
C2 Ce9 2.483335 1_555
C2 Ce2 2.608090 1_555
C2 Ce2 2.608090 1_556
C2 Ce6 2.782873 1_555
C2 Ce7 2.855217 1_555
C3 Re4 1.962028 1_555
C3 Ce11 2.483324 1_555
C3 Ce3 2.608090 1_555
C3 Ce3 2.608090 1_556
C3 Ce8 2.782871 1_555
C3 Ce7 2.855221 1_565
C4 Re4 1.962028 1_555
C4 Ce10 2.483332 1_565
C4 Ce4 2.608090 1_555
C4 Ce4 2.608090 1_556
C4 Ce7 2.782862 1_565
C4 Ce6 2.855228 1_555
C5 Re4 1.962028 1_555
C5 Ce9 2.483335 1_555
C5 Ce5 2.608090 1_555
C5 Ce5 2.608090 1_556
C5 Ce6 2.782872 1_555
C5 Ce8 2.855217 1_555
C6 C9 1.354603 1_555
C6 Re0 1.928485 1_555
C6 Ce1 2.564822 1_555
C6 Ce4 2.564822 1_555
C6 Ce6 2.815196 1_555
C6 Ce6 2.815196 1_554
C7 Re1 1.928485 1_555
C7 Ce2 2.564813 1_555
C7 Ce3 2.564813 1_545
C7 Ce7 2.815196 1_555
C7 Ce7 2.815196 1_554
C8 Re2 1.928485 1_555
C8 Ce5 2.564813 1_555
C8 Ce0 2.564813 1_455
C8 Ce8 2.815196 1_555
C8 Ce8 2.815196 1_554
C9 Ce6 2.623465 1_555
C9 Ce6 2.623465 1_554
C9 Ce5 2.631950 1_555
C9 Ce2 2.631950 1_555
C10 C7 1.354603 1_555
C10 Ce7 2.623465 1_555
C10 Ce7 2.623465 1_554
C10 Ce4 2.631940 1_545
C10 Ce0 2.631948 1_555
C11 C8 1.354603 1_555
C11 Ce8 2.623465 1_555
C11 Ce8 2.623465 1_554
C11 Ce1 2.631940 1_455
C11 Ce3 2.631948 1_555
C12 Re2 2.075433 1_555
C12 Re1 2.075433 1_555
C12 Ce2 2.433909 1_555
C12 Ce5 2.433909 1_555
C12 Ce9 2.608002 1_554
C12 Ce9 2.608002 1_555
C13 Re0 2.075433 1_545
C13 Re2 2.075433 1_655
C13 Ce0 2.433898 1_555
C13 Ce4 2.433906 1_545
C13 Ce10 2.608002 1_555
C13 Ce10 2.608002 1_554
C14 Re0 2.075433 1_455
C14 Re1 2.075433 1_565
C14 Ce3 2.433898 1_555
C14 Ce1 2.433906 1_455
C14 Ce11 2.608002 1_554
C14 Ce11 2.608002 1_555
