# generated using pymatgen
data_NaCa9Mn(PO4)7
_symmetry_space_group_name_H-M   'P 1'
_cell_length_a   13.87873819
_cell_length_b   13.87873819
_cell_length_c   13.87873833
_cell_angle_alpha   44.37285670
_cell_angle_beta   44.37285670
_cell_angle_gamma   44.37286158
_symmetry_Int_Tables_number   1
_chemical_formula_structural   NaCa9Mn(PO4)7
_chemical_formula_sum   'Na2 Ca18 Mn2 P14 O56'
_cell_volume   1188.39670152
_cell_formula_units_Z   2
loop_
 _symmetry_equiv_pos_site_id
 _symmetry_equiv_pos_as_xyz
  1  'x, y, z'
loop_
 _atom_site_type_symbol
 _atom_site_label
 _atom_site_symmetry_multiplicity
 _atom_site_fract_x
 _atom_site_fract_y
 _atom_site_fract_z
 _atom_site_occupancy
  Na  Na0  1  0.68683000  0.68683000  0.68683000  1
  Na  Na1  1  0.18683000  0.18683000  0.18683000  1
  Ca  Ca0  1  0.94708500  0.55931500  0.97206600  1
  Ca  Ca1  1  0.16028600  0.56423500  0.57519600  1
  Ca  Ca2  1  0.57519600  0.16028600  0.56423500  1
  Ca  Ca3  1  0.55931500  0.97206600  0.94708500  1
  Ca  Ca4  1  0.97206600  0.94708500  0.55931500  1
  Ca  Ca5  1  0.47206600  0.05931500  0.44708500  1
  Ca  Ca6  1  0.05931500  0.44708500  0.47206600  1
  Ca  Ca7  1  0.44708500  0.47206600  0.05931500  1
  Ca  Ca8  1  0.34862700  0.90768600  0.93967500  1
  Ca  Ca9  1  0.90768600  0.93967500  0.34862700  1
  Ca  Ca10  1  0.56423500  0.57519600  0.16028600  1
  Ca  Ca11  1  0.43967500  0.40768600  0.84862700  1
  Ca  Ca12  1  0.40768600  0.84862700  0.43967500  1
  Ca  Ca13  1  0.84862700  0.43967500  0.40768600  1
  Ca  Ca14  1  0.66028600  0.07519600  0.06423500  1
  Ca  Ca15  1  0.07519600  0.06423500  0.66028600  1
  Ca  Ca16  1  0.06423500  0.66028600  0.07519600  1
  Ca  Ca17  1  0.93967500  0.34862700  0.90768600  1
  Mn  Mn0  1  0.00104400  0.00104400  0.00104400  1
  Mn  Mn1  1  0.50104400  0.50104400  0.50104400  1
  P  P0  1  0.80923900  0.32552200  0.77064200  1
  P  P1  1  0.22678400  0.18384400  0.68613800  1
  P  P2  1  0.18384400  0.68613800  0.22678400  1
  P  P3  1  0.68613800  0.22678400  0.18384400  1
  P  P4  1  0.32552200  0.77064200  0.80923900  1
  P  P5  1  0.77064200  0.80923900  0.32552200  1
  P  P6  1  0.72678400  0.18613800  0.68384400  1
  P  P7  1  0.30923900  0.27064200  0.82552200  1
  P  P8  1  0.27064200  0.82552200  0.30923900  1
  P  P9  1  0.82552200  0.30923900  0.27064200  1
  P  P10  1  0.76650200  0.76650200  0.76650200  1
  P  P11  1  0.26650200  0.26650200  0.26650200  1
  P  P12  1  0.68384400  0.72678400  0.18613800  1
  P  P13  1  0.18613800  0.68384400  0.72678400  1
  O  O0  1  0.11432600  0.67068900  0.69023600  1
  O  O1  1  0.67068900  0.69023600  0.11432600  1
  O  O2  1  0.69023600  0.11432600  0.67068900  1
  O  O3  1  0.19023600  0.17068900  0.61432600  1
  O  O4  1  0.17068900  0.61432600  0.19023600  1
  O  O5  1  0.61432600  0.19023600  0.17068900  1
  O  O6  1  0.36282000  0.61827300  0.64005800  1
  O  O7  1  0.61827300  0.64005800  0.36282000  1
  O  O8  1  0.64005800  0.36282000  0.61827300  1
  O  O9  1  0.14005800  0.11827300  0.86282000  1
  O  O10  1  0.11827300  0.86282000  0.14005800  1
  O  O11  1  0.86282000  0.14005800  0.11827300  1
  O  O12  1  0.12660500  0.85402000  0.67306100  1
  O  O13  1  0.85402000  0.67306100  0.12660500  1
  O  O14  1  0.67306100  0.12660500  0.85402000  1
  O  O15  1  0.17306100  0.35402000  0.62660500  1
  O  O16  1  0.35402000  0.62660500  0.17306100  1
  O  O17  1  0.62660500  0.17306100  0.35402000  1
  O  O18  1  0.14487300  0.58885800  0.89945900  1
  O  O19  1  0.58885800  0.89945900  0.14487300  1
  O  O20  1  0.89945900  0.14487300  0.58885800  1
  O  O21  1  0.39945900  0.08885800  0.64487300  1
  O  O22  1  0.38296000  0.84456700  0.63558400  1
  O  O23  1  0.08885800  0.64487300  0.39945900  1
  O  O24  1  0.14950400  0.86942100  0.87555300  1
  O  O25  1  0.86942100  0.87555300  0.14950400  1
  O  O26  1  0.87555300  0.14950400  0.86942100  1
  O  O27  1  0.37555300  0.36942100  0.64950400  1
  O  O28  1  0.36942100  0.64950400  0.37555300  1
  O  O29  1  0.64950400  0.37555300  0.36942100  1
  O  O30  1  0.33807300  0.60827500  0.89253900  1
  O  O31  1  0.60827500  0.89253900  0.33807300  1
  O  O32  1  0.89253900  0.33807300  0.60827500  1
  O  O33  1  0.39253900  0.10827500  0.83807300  1
  O  O34  1  0.10827500  0.83807300  0.39253900  1
  O  O35  1  0.83807300  0.39253900  0.10827500  1
  O  O36  1  0.30785700  0.30785700  0.30785700  1
  O  O37  1  0.80785700  0.80785700  0.80785700  1
  O  O38  1  0.25472800  0.11133400  0.39206600  1
  O  O39  1  0.39206600  0.25472800  0.11133400  1
  O  O40  1  0.11133400  0.39206600  0.25472800  1
  O  O41  1  0.61133400  0.75472800  0.89206600  1
  O  O42  1  0.89206600  0.61133400  0.75472800  1
  O  O43  1  0.75472800  0.89206600  0.61133400  1
  O  O44  1  0.91488900  0.35155300  0.25540100  1
  O  O45  1  0.25540100  0.91488900  0.35155300  1
  O  O46  1  0.35155300  0.25540100  0.91488900  1
  O  O47  1  0.85155300  0.41488900  0.75540100  1
  O  O48  1  0.75540100  0.85155300  0.41488900  1
  O  O49  1  0.41488900  0.75540100  0.85155300  1
  O  O50  1  0.88296000  0.13558400  0.34456700  1
  O  O51  1  0.34456700  0.88296000  0.13558400  1
  O  O52  1  0.13558400  0.34456700  0.88296000  1
  O  O53  1  0.63558400  0.38296000  0.84456700  1
  O  O54  1  0.84456700  0.63558400  0.38296000  1
  O  O55  1  0.64487300  0.39945900  0.08885800  1
loop_
_geom_bond_atom_site_label_1
_geom_bond_atom_site_label_2
_geom_bond_distance
_geom_bond_site_symmetry_2
Na0 O48 2.452959 1_555
Na0 O49 2.452959 1_555
Na0 O47 2.452959 1_555
Na0 O43 2.873739 1_555
Na0 O41 2.873740 1_555
Na0 O42 2.873740 1_555
Na1 O46 2.452959 1_554
Na1 O45 2.452959 1_545
Na1 O44 2.452959 1_455
Na1 O39 2.873739 1_555
Na1 O38 2.873740 1_555
Na1 O40 2.873740 1_555
Ca0 O18 2.404724 1_655
Ca0 O35 2.425363 1_556
Ca0 O1 2.500292 1_556
Ca0 O37 2.520817 1_555
Ca0 O0 2.565668 1_655
Ca0 O13 2.593398 1_556
Ca0 O52 2.598773 1_655
Ca0 O44 2.664076 1_556
Ca1 O15 2.349012 1_555
Ca1 O0 2.389136 1_555
Ca1 O42 2.466316 1_455
Ca1 O23 2.480368 1_555
Ca1 O27 2.483996 1_555
Ca1 O28 2.495596 1_555
Ca1 O34 2.512375 1_555
Ca1 O52 2.905331 1_555
Ca2 O17 2.349012 1_555
Ca2 O2 2.389136 1_555
Ca2 O43 2.466316 1_545
Ca2 O21 2.480367 1_555
Ca2 O29 2.483995 1_555
Ca2 O27 2.495596 1_555
Ca2 O33 2.512375 1_555
Ca2 O50 2.905331 1_555
Ca3 O19 2.404724 1_556
Ca3 O33 2.425363 1_565
Ca3 O2 2.500291 1_565
Ca3 O37 2.520817 1_555
Ca3 O1 2.565668 1_556
Ca3 O14 2.593397 1_565
Ca3 O51 2.598773 1_556
Ca3 O46 2.664076 1_565
Ca4 O20 2.404724 1_565
Ca4 O34 2.425363 1_655
Ca4 O0 2.500292 1_655
Ca4 O37 2.520817 1_555
Ca4 O2 2.565668 1_565
Ca4 O12 2.593398 1_655
Ca4 O50 2.598773 1_565
Ca4 O45 2.664076 1_655
Ca5 O21 2.404724 1_555
Ca5 O31 2.425363 1_545
Ca5 O5 2.500291 1_555
Ca5 O36 2.520817 1_555
Ca5 O3 2.565668 1_555
Ca5 O17 2.593397 1_555
Ca5 O22 2.598773 1_545
Ca5 O48 2.664076 1_545
Ca6 O23 2.404724 1_555
Ca6 O32 2.425363 1_455
Ca6 O3 2.500292 1_555
Ca6 O36 2.520817 1_555
Ca6 O4 2.565668 1_555
Ca6 O15 2.593398 1_555
Ca6 O54 2.598773 1_455
Ca6 O47 2.664076 1_455
Ca7 O55 2.404724 1_555
Ca7 O30 2.425363 1_554
Ca7 O4 2.500292 1_555
Ca7 O36 2.520817 1_555
Ca7 O5 2.565668 1_555
Ca7 O16 2.593398 1_555
Ca7 O53 2.598773 1_554
Ca7 O49 2.664076 1_554
Ca8 O33 2.386397 1_565
Ca8 O41 2.394307 1_555
Ca8 O9 2.433404 1_565
Ca8 O51 2.447130 1_556
Ca8 O10 2.449993 1_556
Ca8 O49 2.473309 1_555
Ca8 O21 2.694862 1_565
Ca8 O16 2.753246 1_556
Ca9 O34 2.386397 1_655
Ca9 O43 2.394307 1_555
Ca9 O10 2.433404 1_655
Ca9 O50 2.447130 1_565
Ca9 O11 2.449993 1_565
Ca9 O48 2.473309 1_555
Ca9 O23 2.694862 1_655
Ca9 O17 2.753246 1_565
Ca10 O16 2.349012 1_555
Ca10 O1 2.389136 1_555
Ca10 O41 2.466316 1_554
Ca10 O55 2.480368 1_555
Ca10 O28 2.483995 1_555
Ca10 O29 2.495596 1_555
Ca10 O35 2.512375 1_555
Ca10 O51 2.905332 1_555
Ca11 O30 2.386397 1_555
Ca11 O39 2.394307 1_556
Ca11 O6 2.433404 1_555
Ca11 O53 2.447130 1_555
Ca11 O8 2.449993 1_555
Ca11 O46 2.473309 1_555
Ca11 O18 2.694862 1_555
Ca11 O14 2.753246 1_555
Ca12 O31 2.386397 1_555
Ca12 O38 2.394307 1_565
Ca12 O7 2.433404 1_555
Ca12 O22 2.447130 1_555
Ca12 O6 2.449993 1_555
Ca12 O45 2.473309 1_555
Ca12 O19 2.694862 1_555
Ca12 O12 2.753246 1_555
Ca13 O32 2.386397 1_555
Ca13 O40 2.394307 1_655
Ca13 O8 2.433404 1_555
Ca13 O54 2.447130 1_555
Ca13 O7 2.449993 1_555
Ca13 O44 2.473309 1_555
Ca13 O20 2.694862 1_555
Ca13 O13 2.753246 1_555
Ca14 O14 2.349012 1_554
Ca14 O5 2.389136 1_555
Ca14 O39 2.466316 1_555
Ca14 O19 2.480367 1_545
Ca14 O26 2.483995 1_554
Ca14 O25 2.495596 1_545
Ca14 O31 2.512375 1_545
Ca14 O53 2.905331 1_554
Ca15 O12 2.349012 1_545
Ca15 O3 2.389136 1_555
Ca15 O38 2.466316 1_555
Ca15 O20 2.480368 1_455
Ca15 O24 2.483995 1_545
Ca15 O26 2.495596 1_455
Ca15 O32 2.512375 1_455
Ca15 O22 2.905332 1_545
Ca16 O13 2.349012 1_455
Ca16 O4 2.389136 1_555
Ca16 O40 2.466316 1_555
Ca16 O18 2.480368 1_554
Ca16 O25 2.483996 1_455
Ca16 O24 2.495596 1_554
Ca16 O30 2.512375 1_554
Ca16 O54 2.905331 1_455
Ca17 O35 2.386397 1_556
Ca17 O42 2.394307 1_555
Ca17 O11 2.433404 1_556
Ca17 O52 2.447130 1_655
Ca17 O9 2.449993 1_655
Ca17 O47 2.473309 1_555
Ca17 O55 2.694862 1_556
Ca17 O15 2.753246 1_655
Mn0 O25 2.157095 1_445
Mn0 O26 2.157095 1_454
Mn0 O24 2.157095 1_544
Mn0 O9 2.187202 1_554
Mn0 O10 2.187202 1_545
Mn0 O11 2.187202 1_455
Mn1 O27 2.157095 1_555
Mn1 O29 2.157095 1_555
Mn1 O28 2.157095 1_555
Mn1 O7 2.187202 1_555
Mn1 O6 2.187202 1_555
Mn1 O8 2.187202 1_555
O0 P13 1.548943 1_555
O1 P12 1.548943 1_555
O2 P6 1.548943 1_555
O3 P1 1.548943 1_555
O4 P2 1.548943 1_555
O5 P3 1.548943 1_555
O6 P13 1.564003 1_555
O7 P12 1.564003 1_555
O8 P6 1.564003 1_555
O9 P1 1.564003 1_555
O10 P2 1.564003 1_555
O11 P3 1.564003 1_555
O12 P13 1.546033 1_555
O13 P12 1.546033 1_555
O14 P6 1.546033 1_555
O15 P1 1.546033 1_555
O16 P2 1.546033 1_555
O17 P3 1.546033 1_555
O18 P13 1.552354 1_555
O19 P12 1.552354 1_555
O20 P6 1.552354 1_555
O21 P1 1.552354 1_555
O22 P4 1.544122 1_555
O23 P2 1.552354 1_555
O24 P4 1.579877 1_555
O25 P5 1.579877 1_555
O26 P0 1.579877 1_555
O27 P7 1.579877 1_555
O28 P8 1.579877 1_555
O29 P9 1.579877 1_555
O30 P4 1.564366 1_555
O31 P5 1.564366 1_555
O32 P0 1.564366 1_555
O33 P7 1.564366 1_555
O34 P8 1.564366 1_555
O35 P9 1.564366 1_555
O36 P11 1.549554 1_555
O37 P10 1.549554 1_555
O38 P11 1.559526 1_555
O39 P11 1.559526 1_555
O40 P11 1.559526 1_555
O41 P10 1.559526 1_555
O42 P10 1.559526 1_555
O43 P10 1.559526 1_555
O44 P9 1.554549 1_555
O45 P8 1.554549 1_555
O46 P7 1.554549 1_555
O47 P0 1.554549 1_555
O48 P5 1.554549 1_555
O49 P4 1.554549 1_555
O50 P9 1.544122 1_555
O51 P8 1.544122 1_555
O52 P7 1.544122 1_555
O53 P0 1.544122 1_555
O54 P5 1.544122 1_555
O55 P3 1.552354 1_555
