# generated using pymatgen
data_Sm4InSbS9
_symmetry_space_group_name_H-M   'P 1'
_cell_length_a   10.12114079
_cell_length_b   10.12114079
_cell_length_c   27.87139646
_cell_angle_alpha   90.00000000
_cell_angle_beta   90.00000000
_cell_angle_gamma   90.00000000
_symmetry_Int_Tables_number   1
_chemical_formula_structural   Sm4InSbS9
_chemical_formula_sum   'Sm32 In8 Sb8 S72'
_cell_volume   2855.07592099
_cell_formula_units_Z   8
loop_
 _symmetry_equiv_pos_site_id
 _symmetry_equiv_pos_as_xyz
  1  'x, y, z'
loop_
 _atom_site_type_symbol
 _atom_site_label
 _atom_site_symmetry_multiplicity
 _atom_site_fract_x
 _atom_site_fract_y
 _atom_site_fract_z
 _atom_site_occupancy
  Sm  Sm0  1  0.06035117  0.72453221  0.16163883  1
  Sm  Sm1  1  0.93964883  0.27546779  0.66163883  1
  Sm  Sm2  1  0.22453221  0.43964883  0.41163883  1
  Sm  Sm3  1  0.77546779  0.56035117  0.91163883  1
  Sm  Sm4  1  0.27546779  0.93964883  0.33836117  1
  Sm  Sm5  1  0.72453221  0.06035117  0.83836117  1
  Sm  Sm6  1  0.43964883  0.22453221  0.58836117  1
  Sm  Sm7  1  0.56035117  0.77546779  0.08836117  1
  Sm  Sm8  1  0.34770514  0.98912620  0.19707152  1
  Sm  Sm9  1  0.65229486  0.01087380  0.69707152  1
  Sm  Sm10  1  0.48912620  0.15229486  0.44707152  1
  Sm  Sm11  1  0.51087380  0.84770514  0.94707152  1
  Sm  Sm12  1  0.01087380  0.65229486  0.30292848  1
  Sm  Sm13  1  0.98912620  0.34770514  0.80292848  1
  Sm  Sm14  1  0.15229486  0.48912620  0.55292848  1
  Sm  Sm15  1  0.84770514  0.51087380  0.05292848  1
  Sm  Sm16  1  0.73369689  0.50010568  0.19942524  1
  Sm  Sm17  1  0.26630311  0.49989432  0.69942524  1
  Sm  Sm18  1  0.00010568  0.76630311  0.44942524  1
  Sm  Sm19  1  0.99989432  0.23369689  0.94942524  1
  Sm  Sm20  1  0.49989432  0.26630311  0.30057476  1
  Sm  Sm21  1  0.50010568  0.73369689  0.80057476  1
  Sm  Sm22  1  0.76630311  0.00010568  0.55057476  1
  Sm  Sm23  1  0.23369689  0.99989432  0.05057476  1
  Sm  Sm24  1  0.05695010  0.27274021  0.15670004  1
  Sm  Sm25  1  0.94304990  0.72725979  0.65670004  1
  Sm  Sm26  1  0.77274021  0.44304990  0.40670004  1
  Sm  Sm27  1  0.22725979  0.55695010  0.90670004  1
  Sm  Sm28  1  0.72725979  0.94304990  0.34329996  1
  Sm  Sm29  1  0.27274021  0.05695010  0.84329996  1
  Sm  Sm30  1  0.44304990  0.77274021  0.59329996  1
  Sm  Sm31  1  0.55695010  0.22725979  0.09329996  1
  In  In0  1  0.79554467  0.98636320  0.20346909  1
  In  In1  1  0.20445533  0.01363680  0.70346909  1
  In  In2  1  0.48636320  0.70445533  0.45346909  1
  In  In3  1  0.51363680  0.29554467  0.95346909  1
  In  In4  1  0.01363680  0.20445533  0.29653091  1
  In  In5  1  0.98636320  0.79554467  0.79653091  1
  In  In6  1  0.70445533  0.48636320  0.54653091  1
  In  In7  1  0.29554467  0.51363680  0.04653091  1
  Sb  Sb0  1  0.85798468  0.01001010  0.05573126  1
  Sb  Sb1  1  0.14201532  0.98998990  0.55573126  1
  Sb  Sb2  1  0.51001010  0.64201532  0.30573126  1
  Sb  Sb3  1  0.48998990  0.35798468  0.80573126  1
  Sb  Sb4  1  0.98998990  0.14201532  0.44426874  1
  Sb  Sb5  1  0.01001010  0.85798468  0.94426874  1
  Sb  Sb6  1  0.64201532  0.51001010  0.69426874  1
  Sb  Sb7  1  0.35798468  0.48998990  0.19426874  1
  S  S0  1  0.20635232  0.19964124  0.24170867  1
  S  S1  1  0.79364768  0.80035876  0.74170867  1
  S  S2  1  0.69964124  0.29364768  0.49170867  1
  S  S3  1  0.30035876  0.70635232  0.99170867  1
  S  S4  1  0.80035876  0.79364768  0.25829133  1
  S  S5  1  0.19964124  0.20635232  0.75829133  1
  S  S6  1  0.29364768  0.69964124  0.50829133  1
  S  S7  1  0.70635232  0.30035876  0.00829133  1
  S  S8  1  0.79841180  0.68928597  0.12801980  1
  S  S9  1  0.20158820  0.31071403  0.62801980  1
  S  S10  1  0.18928597  0.70158820  0.37801980  1
  S  S11  1  0.81071403  0.29841180  0.87801980  1
  S  S12  1  0.31071403  0.20158820  0.37198020  1
  S  S13  1  0.68928597  0.79841180  0.87198020  1
  S  S14  1  0.70158820  0.18928597  0.62198020  1
  S  S15  1  0.29841180  0.81071403  0.12198020  1
  S  S16  1  0.29856742  0.17474063  0.12342141  1
  S  S17  1  0.70143258  0.82525937  0.62342141  1
  S  S18  1  0.67474063  0.20143258  0.37342141  1
  S  S19  1  0.32525937  0.79856742  0.87342141  1
  S  S20  1  0.82525937  0.70143258  0.37657859  1
  S  S21  1  0.17474063  0.29856742  0.87657859  1
  S  S22  1  0.20143258  0.67474063  0.62657859  1
  S  S23  1  0.79856742  0.32525937  0.12657859  1
  S  S24  1  0.80275778  0.19724222  0.25000000  1
  S  S25  1  0.19724222  0.80275778  0.75000000  1
  S  S26  1  0.69724222  0.69724222  0.50000000  1
  S  S27  1  0.30275778  0.30275778  -0.00000000  1
  S  S28  1  0.59917458  0.99530091  0.15035275  1
  S  S29  1  0.40082542  0.00469909  0.65035275  1
  S  S30  1  0.49530091  0.90082542  0.40035275  1
  S  S31  1  0.50469909  0.09917458  0.90035275  1
  S  S32  1  0.00469909  0.40082542  0.34964725  1
  S  S33  1  0.99530091  0.59917458  0.84964725  1
  S  S34  1  0.90082542  0.49530091  0.59964725  1
  S  S35  1  0.09917458  0.50469909  0.09964725  1
  S  S36  1  0.02348566  0.18810218  0.04977048  1
  S  S37  1  0.97651434  0.81189782  0.54977048  1
  S  S38  1  0.68810218  0.47651434  0.29977048  1
  S  S39  1  0.31189782  0.52348566  0.79977048  1
  S  S40  1  0.81189782  0.97651434  0.45022952  1
  S  S41  1  0.18810218  0.02348566  0.95022952  1
  S  S42  1  0.47651434  0.68810218  0.70022952  1
  S  S43  1  0.52348566  0.31189782  0.20022952  1
  S  S44  1  0.00298592  0.50172178  0.21834684  1
  S  S45  1  0.99701408  0.49827822  0.71834684  1
  S  S46  1  0.00172178  0.49701408  0.46834684  1
  S  S47  1  0.99827822  0.50298592  0.96834684  1
  S  S48  1  0.49827822  0.99701408  0.28165316  1
  S  S49  1  0.50172178  0.00298592  0.78165316  1
  S  S50  1  0.49701408  0.00172178  0.53165316  1
  S  S51  1  0.50298592  0.99827822  0.03165316  1
  S  S52  1  0.82442625  0.01358995  0.96167824  1
  S  S53  1  0.17557375  0.98641005  0.46167824  1
  S  S54  1  0.51358995  0.67557375  0.21167824  1
  S  S55  1  0.48641005  0.32442625  0.71167824  1
  S  S56  1  0.98641005  0.17557375  0.53832176  1
  S  S57  1  0.01358995  0.82442625  0.03832176  1
  S  S58  1  0.67557375  0.51358995  0.78832176  1
  S  S59  1  0.32442625  0.48641005  0.28832176  1
  S  S60  1  0.99147081  0.99495016  0.14844737  1
  S  S61  1  0.00852919  0.00504984  0.64844737  1
  S  S62  1  0.49495016  0.50852919  0.39844737  1
  S  S63  1  0.50504984  0.49147081  0.89844737  1
  S  S64  1  0.00504984  0.00852919  0.35155263  1
  S  S65  1  0.99495016  0.99147081  0.85155263  1
  S  S66  1  0.50852919  0.49495016  0.60155263  1
  S  S67  1  0.49147081  0.50504984  0.10155263  1
  S  S68  1  0.18328370  0.81671630  0.25000000  1
  S  S69  1  0.81671630  0.18328370  0.75000000  1
  S  S70  1  0.31671630  0.31671630  0.50000000  1
  S  S71  1  0.68328370  0.68328370  -0.00000000  1
loop_
_geom_bond_atom_site_label_1
_geom_bond_atom_site_label_2
_geom_bond_distance
_geom_bond_site_symmetry_2
In0 S4 2.478211 1_555
In0 S28 2.479911 1_555
In0 S24 2.498524 1_565
In0 S60 2.508296 1_555
In1 S5 2.478211 1_555
In1 S29 2.479911 1_555
In1 S25 2.498524 1_545
In1 S61 2.508296 1_555
In2 S6 2.478211 1_555
In2 S30 2.479911 1_555
In2 S26 2.498524 1_555
In2 S62 2.508296 1_555
In3 S7 2.478211 1_556
In3 S31 2.479911 1_555
In3 S27 2.498524 1_556
In3 S63 2.508296 1_555
In4 S0 2.478211 1_555
In4 S32 2.479911 1_555
In4 S24 2.498524 1_455
In4 S64 2.508296 1_555
In5 S1 2.478211 1_555
In5 S33 2.479911 1_555
In5 S25 2.498524 1_655
In5 S65 2.508296 1_555
In6 S2 2.478211 1_555
In6 S34 2.479911 1_555
In6 S26 2.498524 1_555
In6 S66 2.508296 1_555
In7 S3 2.478211 1_554
In7 S35 2.479911 1_555
In7 S27 2.498524 1_555
In7 S67 2.508296 1_555
S0 Sm8 2.852057 1_545
S0 Sm24 2.906459 1_555
S1 Sm9 2.852057 1_565
S1 Sm25 2.906459 1_555
S2 Sm10 2.852057 1_555
S2 Sm26 2.906459 1_555
S3 Sm11 2.852057 1_555
S3 Sm27 2.906459 1_555
S4 Sm12 2.852057 1_655
S4 Sm28 2.906459 1_555
S5 Sm13 2.852057 1_455
S5 Sm29 2.906459 1_555
S6 Sm14 2.852057 1_555
S6 Sm30 2.906459 1_555
S7 Sm15 2.852057 1_555
S7 Sm31 2.906459 1_555
S8 Sm7 2.790706 1_555
S8 Sm15 2.808881 1_555
S8 Sm0 2.834380 1_655
S8 Sm16 2.838298 1_555
S9 Sm6 2.790706 1_555
S9 Sm14 2.808881 1_555
S9 Sm1 2.834380 1_455
S9 Sm17 2.838298 1_555
S10 Sm4 2.790706 1_555
S10 Sm12 2.808881 1_555
S10 Sm2 2.834380 1_555
S10 Sm18 2.838298 1_555
S11 Sm5 2.790706 1_555
S11 Sm13 2.808881 1_555
S11 Sm3 2.834380 1_555
S11 Sm19 2.838298 1_555
S12 Sm2 2.790706 1_555
S12 Sm10 2.808881 1_555
S12 Sm4 2.834380 1_545
S12 Sm20 2.838298 1_555
S13 Sm3 2.790706 1_555
S13 Sm11 2.808881 1_555
S13 Sm5 2.834380 1_565
S13 Sm21 2.838298 1_555
S14 Sm1 2.790706 1_555
S14 Sm9 2.808881 1_555
S14 Sm6 2.834380 1_555
S14 Sm22 2.838298 1_555
S15 Sm0 2.790706 1_555
S15 Sm8 2.808881 1_555
S15 Sm7 2.834380 1_555
S15 Sm23 2.838298 1_555
S16 Sm23 2.772181 1_545
S16 Sm24 2.797193 1_555
S16 Sm31 2.797543 1_555
S16 Sm8 2.826711 1_545
S17 Sm22 2.772181 1_565
S17 Sm25 2.797193 1_555
S17 Sm30 2.797543 1_555
S17 Sm9 2.826711 1_565
S18 Sm20 2.772181 1_555
S18 Sm26 2.797193 1_555
S18 Sm28 2.797543 1_545
S18 Sm10 2.826711 1_555
S19 Sm21 2.772181 1_555
S19 Sm27 2.797193 1_555
S19 Sm29 2.797543 1_565
S19 Sm11 2.826711 1_555
S20 Sm18 2.772181 1_655
S20 Sm28 2.797193 1_555
S20 Sm26 2.797543 1_555
S20 Sm12 2.826711 1_655
S21 Sm19 2.772181 1_455
S21 Sm29 2.797193 1_555
S21 Sm27 2.797543 1_555
S21 Sm13 2.826711 1_455
S22 Sm17 2.772181 1_555
S22 Sm30 2.797193 1_555
S22 Sm25 2.797543 1_455
S22 Sm14 2.826711 1_555
S23 Sm16 2.772181 1_555
S23 Sm31 2.797193 1_555
S23 Sm24 2.797543 1_655
S23 Sm15 2.826711 1_555
S28 Sm7 2.844314 1_555
S28 Sm8 2.859588 1_555
S28 Sm31 2.867547 1_565
S29 Sm6 2.844314 1_555
S29 Sm9 2.859588 1_555
S29 Sm30 2.867547 1_545
S30 Sm4 2.844314 1_555
S30 Sm10 2.859588 1_565
S30 Sm28 2.867547 1_555
S31 Sm5 2.844314 1_555
S31 Sm11 2.859588 1_545
S31 Sm29 2.867547 1_555
S32 Sm2 2.844314 1_555
S32 Sm12 2.859588 1_555
S32 Sm26 2.867547 1_455
S33 Sm3 2.844314 1_555
S33 Sm13 2.859588 1_555
S33 Sm27 2.867547 1_655
S34 Sm1 2.844314 1_555
S34 Sm14 2.859588 1_655
S34 Sm25 2.867547 1_555
S35 Sm0 2.844314 1_555
S35 Sm15 2.859588 1_455
S35 Sm24 2.867547 1_555
S36 Sb0 2.466254 1_455
S36 Sm19 2.844617 1_454
S36 Sm23 2.855810 1_545
S36 Sm24 3.119388 1_555
S37 Sb1 2.466254 1_655
S37 Sm18 2.844617 1_655
S37 Sm22 2.855810 1_565
S37 Sm25 3.119388 1_555
S38 Sb2 2.466254 1_555
S38 Sm16 2.844617 1_555
S38 Sm20 2.855810 1_555
S38 Sm26 3.119388 1_555
S39 Sb3 2.466254 1_555
S39 Sm17 2.844617 1_555
S39 Sm21 2.855810 1_555
S39 Sm27 3.119388 1_555
S40 Sb4 2.466254 1_565
S40 Sm22 2.844617 1_565
S40 Sm18 2.855810 1_655
S40 Sm28 3.119388 1_555
S41 Sb5 2.466254 1_545
S41 Sm23 2.844617 1_546
S41 Sm19 2.855810 1_455
S41 Sm29 3.119388 1_555
S42 Sb6 2.466254 1_555
S42 Sm21 2.844617 1_555
S42 Sm17 2.855810 1_555
S42 Sm30 3.119388 1_555
S43 Sb7 2.466254 1_555
S43 Sm20 2.844617 1_555
S43 Sm16 2.855810 1_555
S43 Sm31 3.119388 1_555
S44 Sm16 2.776113 1_455
S44 Sm12 2.808244 1_555
S44 Sm0 2.814362 1_555
S44 Sm24 2.936243 1_555
S45 Sm17 2.776113 1_655
S45 Sm13 2.808244 1_555
S45 Sm1 2.814362 1_555
S45 Sm25 2.936243 1_555
S46 Sm18 2.776113 1_555
S46 Sm14 2.808244 1_555
S46 Sm2 2.814362 1_555
S46 Sm26 2.936243 1_455
S47 Sm19 2.776113 1_555
S47 Sm15 2.808244 1_556
S47 Sm3 2.814362 1_555
S47 Sm27 2.936243 1_655
S48 Sm20 2.776113 1_565
S48 Sm8 2.808244 1_555
S48 Sm4 2.814362 1_555
S48 Sm28 2.936243 1_555
S49 Sm21 2.776113 1_545
S49 Sm9 2.808244 1_555
S49 Sm5 2.814362 1_555
S49 Sm29 2.936243 1_555
S50 Sm22 2.776113 1_555
S50 Sm10 2.808244 1_555
S50 Sm6 2.814362 1_555
S50 Sm30 2.936243 1_545
S51 Sm23 2.776113 1_555
S51 Sm11 2.808244 1_554
S51 Sm7 2.814362 1_555
S51 Sm31 2.936243 1_565
S52 Sb5 2.498770 1_645
S52 Sb0 2.643550 1_556
S52 Sm19 2.869386 1_555
S53 Sb4 2.498770 1_465
S53 Sb1 2.643550 1_555
S53 Sm18 2.869386 1_555
S54 Sb7 2.498770 1_555
S54 Sb2 2.643550 1_555
S54 Sm16 2.869386 1_555
S55 Sb6 2.498770 1_555
S55 Sb3 2.643550 1_555
S55 Sm17 2.869386 1_555
S56 Sb1 2.498770 1_645
S56 Sb4 2.643550 1_555
S56 Sm22 2.869386 1_555
S57 Sb0 2.498770 1_465
S57 Sb5 2.643550 1_554
S57 Sm23 2.869386 1_555
S58 Sb3 2.498770 1_555
S58 Sb6 2.643550 1_555
S58 Sm21 2.869386 1_555
S59 Sb2 2.498770 1_555
S59 Sb7 2.643550 1_555
S59 Sm20 2.869386 1_555
S60 Sm0 2.848161 1_655
S60 Sm24 2.897747 1_665
S60 Sb0 2.919972 1_565
S61 Sm1 2.848161 1_455
S61 Sm25 2.897747 1_445
S61 Sb1 2.919972 1_545
S62 Sm2 2.848161 1_555
S62 Sm26 2.897747 1_555
S62 Sb2 2.919972 1_555
S63 Sm3 2.848161 1_555
S63 Sm27 2.897747 1_555
S63 Sb3 2.919972 1_555
S64 Sm4 2.848161 1_545
S64 Sm28 2.897747 1_445
S64 Sb4 2.919972 1_455
S65 Sm5 2.848161 1_565
S65 Sm29 2.897747 1_665
S65 Sb5 2.919972 1_655
S66 Sm6 2.848161 1_555
S66 Sm30 2.897747 1_555
S66 Sb6 2.919972 1_555
S67 Sm7 2.848161 1_555
S67 Sm31 2.897747 1_555
S67 Sb7 2.919972 1_555
S68 Sm12 2.826747 1_555
S68 Sm8 2.826747 1_555
S68 Sm4 2.912682 1_555
S68 Sm0 2.912682 1_555
S69 Sm9 2.826747 1_555
S69 Sm13 2.826747 1_555
S69 Sm1 2.912682 1_555
S69 Sm5 2.912682 1_555
S70 Sm10 2.826747 1_555
S70 Sm14 2.826747 1_555
S70 Sm2 2.912682 1_555
S70 Sm6 2.912682 1_555
S71 Sm11 2.826747 1_554
S71 Sm15 2.826747 1_555
S71 Sm3 2.912682 1_554
S71 Sm7 2.912682 1_555
