# generated using pymatgen
data_Pr(MnAl2)4
_symmetry_space_group_name_H-M   'P 1'
_cell_length_a   5.21292900
_cell_length_b   6.82931819
_cell_length_c   6.82931819
_cell_angle_alpha   81.62433546
_cell_angle_beta   67.56357841
_cell_angle_gamma   67.56357841
_symmetry_Int_Tables_number   1
_chemical_formula_structural   Pr(MnAl2)4
_chemical_formula_sum   'Pr1 Mn4 Al8'
_cell_volume   207.71401607
_cell_formula_units_Z   1
loop_
 _symmetry_equiv_pos_site_id
 _symmetry_equiv_pos_as_xyz
  1  'x, y, z'
loop_
 _atom_site_type_symbol
 _atom_site_label
 _atom_site_symmetry_multiplicity
 _atom_site_fract_x
 _atom_site_fract_y
 _atom_site_fract_z
 _atom_site_occupancy
  Pr  Pr0  1  0.00000000  0.00000000  0.00000000  1
  Mn  Mn0  1  0.00000000  0.00000000  0.50000000  1
  Mn  Mn1  1  0.50000000  0.00000000  0.50000000  1
  Mn  Mn2  1  0.50000000  0.50000000  0.00000000  1
  Mn  Mn3  1  0.00000000  0.50000000  0.00000000  1
  Al  Al0  1  0.00000000  0.34080200  0.65919800  1
  Al  Al1  1  0.00000000  0.65919800  0.34080200  1
  Al  Al2  1  0.65919800  0.34080200  0.34080200  1
  Al  Al3  1  0.34080200  0.65919800  0.65919800  1
  Al  Al4  1  0.50000000  0.77173800  0.22826200  1
  Al  Al5  1  0.50000000  0.22826200  0.77173800  1
  Al  Al6  1  0.72826200  0.77173800  0.77173800  1
  Al  Al7  1  0.27173800  0.22826200  0.22826200  1
loop_
_geom_bond_atom_site_label_1
_geom_bond_atom_site_label_2
_geom_bond_distance
_geom_bond_site_symmetry_2
Mn0 Mn1 2.606464 1_555
Mn0 Mn1 2.606464 1_455
Mn0 Pr0 3.414659 1_555
Mn0 Pr0 3.414659 1_556
Mn1 Pr0 3.414659 1_655
Mn1 Pr0 3.414659 1_556
Mn2 Mn3 2.606464 1_655
Mn2 Mn3 2.606464 1_555
Mn2 Pr0 3.414659 1_565
Mn2 Pr0 3.414659 1_655
Mn3 Pr0 3.414659 1_565
Mn3 Pr0 3.414659 1_555
Al0 Mn0 2.708545 1_555
Al0 Mn3 2.708545 1_556
Al0 Mn1 2.708545 1_555
Al0 Mn2 2.708545 1_456
Al0 Al5 2.793381 1_455
Al0 Al5 2.793381 1_555
Al0 Al6 2.811455 1_455
Al0 Al7 2.811455 1_555
Al0 Al1 2.842331 1_555
Al0 Pr0 3.042350 1_556
Al1 Mn3 2.708545 1_555
Al1 Mn0 2.708545 1_565
Al1 Mn2 2.708545 1_555
Al1 Mn1 2.708545 1_465
Al1 Al4 2.793381 1_455
Al1 Al4 2.793381 1_555
Al1 Al6 2.811455 1_455
Al1 Al7 2.811455 1_555
Al1 Pr0 3.042350 1_565
Al2 Mn1 2.708545 1_555
Al2 Mn2 2.708545 1_555
Al2 Mn0 2.708545 1_655
Al2 Mn3 2.708545 1_655
Al2 Al7 2.793380 1_555
Al2 Al7 2.793381 1_655
Al2 Al4 2.811455 1_555
Al2 Al5 2.811455 1_555
Al2 Al3 2.842331 1_555
Al2 Pr0 3.042350 1_655
Al3 Mn2 2.708545 1_556
Al3 Mn1 2.708545 1_565
Al3 Mn3 2.708545 1_556
Al3 Mn0 2.708545 1_565
Al3 Al6 2.793380 1_555
Al3 Al6 2.793381 1_455
Al3 Al5 2.811455 1_555
Al3 Al4 2.811455 1_555
Al3 Pr0 3.042350 1_566
Al4 Mn1 2.591681 1_565
Al4 Mn2 2.591681 1_555
Al4 Mn0 2.591682 1_565
Al4 Mn3 2.591682 1_655
Al4 Al6 2.881745 1_554
Al4 Al7 2.881745 1_565
Al4 Pr0 3.308457 1_565
Al4 Pr0 3.308457 1_665
Al5 Mn2 2.591681 1_556
Al5 Mn1 2.591681 1_555
Al5 Mn3 2.591682 1_556
Al5 Mn0 2.591682 1_655
Al5 Al6 2.881745 1_545
Al5 Al7 2.881745 1_556
Al5 Pr0 3.308457 1_656
Al5 Pr0 3.308457 1_556
Al6 Mn2 2.591682 1_556
Al6 Mn1 2.591682 1_565
Al6 Mn3 2.591682 1_656
Al6 Mn0 2.591682 1_665
Al6 Pr0 3.308456 1_666
Al6 Pr0 3.308457 1_566
Al7 Mn1 2.591682 1_555
Al7 Mn2 2.591682 1_555
Al7 Mn0 2.591682 1_555
Al7 Mn3 2.591682 1_555
Al7 Pr0 3.308456 1_555
Al7 Pr0 3.308457 1_655
