# generated using pymatgen
data_Tm2CdPd2
_symmetry_space_group_name_H-M   'P 1'
_cell_length_a   15.37308444
_cell_length_b   15.37308444
_cell_length_c   7.13402062
_cell_angle_alpha   90.00000000
_cell_angle_beta   90.00000000
_cell_angle_gamma   90.00000000
_symmetry_Int_Tables_number   1
_chemical_formula_structural   Tm2CdPd2
_chemical_formula_sum   'Tm32 Cd16 Pd32'
_cell_volume   1685.99540073
_cell_formula_units_Z   16
loop_
 _symmetry_equiv_pos_site_id
 _symmetry_equiv_pos_as_xyz
  1  'x, y, z'
loop_
 _atom_site_type_symbol
 _atom_site_label
 _atom_site_symmetry_multiplicity
 _atom_site_fract_x
 _atom_site_fract_y
 _atom_site_fract_z
 _atom_site_occupancy
  Tm  Tm0_0  1  0.33445473  0.08445473  0.25000000  1
  Tm  Tm0_1  1  0.33445473  0.08445473  0.75000000  1
  Tm  Tm0_2  1  0.33445473  0.58445473  0.25000000  1
  Tm  Tm0_3  1  0.33445473  0.58445473  0.75000000  1
  Tm  Tm0_4  1  0.83445473  0.08445473  0.25000000  1
  Tm  Tm0_5  1  0.83445473  0.08445473  0.75000000  1
  Tm  Tm0_6  1  0.83445473  0.58445473  0.25000000  1
  Tm  Tm0_7  1  0.83445473  0.58445473  0.75000000  1
  Tm  Tm1_0  1  0.16554527  0.41554527  0.25000000  1
  Tm  Tm1_1  1  0.16554527  0.41554527  0.75000000  1
  Tm  Tm1_2  1  0.16554527  0.91554527  0.25000000  1
  Tm  Tm1_3  1  0.16554527  0.91554527  0.75000000  1
  Tm  Tm1_4  1  0.66554527  0.41554527  0.25000000  1
  Tm  Tm1_5  1  0.66554527  0.41554527  0.75000000  1
  Tm  Tm1_6  1  0.66554527  0.91554527  0.25000000  1
  Tm  Tm1_7  1  0.66554527  0.91554527  0.75000000  1
  Tm  Tm2_0  1  0.08445473  0.16554527  0.25000000  1
  Tm  Tm2_1  1  0.08445473  0.16554527  0.75000000  1
  Tm  Tm2_2  1  0.08445473  0.66554527  0.25000000  1
  Tm  Tm2_3  1  0.08445473  0.66554527  0.75000000  1
  Tm  Tm2_4  1  0.58445473  0.16554527  0.25000000  1
  Tm  Tm2_5  1  0.58445473  0.16554527  0.75000000  1
  Tm  Tm2_6  1  0.58445473  0.66554527  0.25000000  1
  Tm  Tm2_7  1  0.58445473  0.66554527  0.75000000  1
  Tm  Tm3_0  1  0.41554527  0.33445473  0.25000000  1
  Tm  Tm3_1  1  0.41554527  0.33445473  0.75000000  1
  Tm  Tm3_2  1  0.41554527  0.83445473  0.25000000  1
  Tm  Tm3_3  1  0.41554527  0.83445473  0.75000000  1
  Tm  Tm3_4  1  0.91554527  0.33445473  0.25000000  1
  Tm  Tm3_5  1  0.91554527  0.33445473  0.75000000  1
  Tm  Tm3_6  1  0.91554527  0.83445473  0.25000000  1
  Tm  Tm3_7  1  0.91554527  0.83445473  0.75000000  1
  Cd  Cd0_0  1  0.00000000  0.00000000  0.00000000  1
  Cd  Cd0_1  1  0.00000000  0.00000000  0.50000000  1
  Cd  Cd0_2  1  0.00000000  0.50000000  0.00000000  1
  Cd  Cd0_3  1  0.00000000  0.50000000  0.50000000  1
  Cd  Cd0_4  1  0.50000000  0.00000000  0.00000000  1
  Cd  Cd0_5  1  0.50000000  0.00000000  0.50000000  1
  Cd  Cd0_6  1  0.50000000  0.50000000  0.00000000  1
  Cd  Cd0_7  1  0.50000000  0.50000000  0.50000000  1
  Cd  Cd1_0  1  0.25000000  0.25000000  0.00000000  1
  Cd  Cd1_1  1  0.25000000  0.25000000  0.50000000  1
  Cd  Cd1_2  1  0.25000000  0.75000000  0.00000000  1
  Cd  Cd1_3  1  0.25000000  0.75000000  0.50000000  1
  Cd  Cd1_4  1  0.75000000  0.25000000  0.00000000  1
  Cd  Cd1_5  1  0.75000000  0.25000000  0.50000000  1
  Cd  Cd1_6  1  0.75000000  0.75000000  0.00000000  1
  Cd  Cd1_7  1  0.75000000  0.75000000  0.50000000  1
  Pd  Pd0_0  1  0.06548722  0.31548723  0.00000000  1
  Pd  Pd0_1  1  0.06548722  0.31548723  0.50000000  1
  Pd  Pd0_2  1  0.06548722  0.81548723  0.00000000  1
  Pd  Pd0_3  1  0.06548722  0.81548723  0.50000000  1
  Pd  Pd0_4  1  0.56548723  0.31548723  0.00000000  1
  Pd  Pd0_5  1  0.56548723  0.31548723  0.50000000  1
  Pd  Pd0_6  1  0.56548723  0.81548723  0.00000000  1
  Pd  Pd0_7  1  0.56548723  0.81548723  0.50000000  1
  Pd  Pd1_0  1  0.43451278  0.18451277  0.00000000  1
  Pd  Pd1_1  1  0.43451278  0.18451277  0.50000000  1
  Pd  Pd1_2  1  0.43451278  0.68451277  0.00000000  1
  Pd  Pd1_3  1  0.43451278  0.68451277  0.50000000  1
  Pd  Pd1_4  1  0.93451278  0.18451277  0.00000000  1
  Pd  Pd1_5  1  0.93451278  0.18451277  0.50000000  1
  Pd  Pd1_6  1  0.93451278  0.68451277  0.00000000  1
  Pd  Pd1_7  1  0.93451278  0.68451277  0.50000000  1
  Pd  Pd2_0  1  0.31548723  0.43451278  0.00000000  1
  Pd  Pd2_1  1  0.31548723  0.43451278  0.50000000  1
  Pd  Pd2_2  1  0.31548723  0.93451278  0.00000000  1
  Pd  Pd2_3  1  0.31548723  0.93451278  0.50000000  1
  Pd  Pd2_4  1  0.81548723  0.43451278  0.00000000  1
  Pd  Pd2_5  1  0.81548723  0.43451278  0.50000000  1
  Pd  Pd2_6  1  0.81548723  0.93451278  0.00000000  1
  Pd  Pd2_7  1  0.81548723  0.93451278  0.50000000  1
  Pd  Pd3_0  1  0.18451277  0.06548722  0.00000000  1
  Pd  Pd3_1  1  0.18451277  0.06548722  0.50000000  1
  Pd  Pd3_2  1  0.18451277  0.56548723  0.00000000  1
  Pd  Pd3_3  1  0.18451277  0.56548723  0.50000000  1
  Pd  Pd3_4  1  0.68451277  0.06548722  0.00000000  1
  Pd  Pd3_5  1  0.68451277  0.06548722  0.50000000  1
  Pd  Pd3_6  1  0.68451277  0.56548723  0.00000000  1
  Pd  Pd3_7  1  0.68451277  0.56548723  0.50000000  1
loop_
_geom_bond_atom_site_label_1
_geom_bond_atom_site_label_2
_geom_bond_distance
_geom_bond_site_symmetry_2
Cd0_0 Pd2_6 3.009889 1_445
Cd0_0 Pd0_2 3.009889 1_545
Cd0_0 Pd1_4 3.009889 1_455
Cd0_0 Pd3_0 3.009889 1_555
Cd0_0 Tm3_7 3.367978 1_444
Cd0_0 Tm3_6 3.367978 1_445
Cd0_0 Tm0_5 3.367978 1_454
Cd0_0 Tm0_4 3.367978 1_455
Cd0_0 Tm1_2 3.367978 1_545
Cd0_0 Tm1_3 3.367978 1_544
Cd0_0 Tm2_1 3.367978 1_554
Cd0_0 Tm2_0 3.367978 1_555
Cd0_0 Cd0_1 3.567010 1_555
Cd0_0 Cd0_1 3.567010 1_554
Cd0_1 Pd2_7 3.009889 1_445
Cd0_1 Pd0_3 3.009889 1_545
Cd0_1 Pd1_5 3.009889 1_455
Cd0_1 Pd3_1 3.009889 1_555
Cd0_1 Tm3_7 3.367978 1_445
Cd0_1 Tm3_6 3.367978 1_445
Cd0_1 Tm0_4 3.367978 1_455
Cd0_1 Tm0_5 3.367978 1_455
Cd0_1 Tm1_2 3.367978 1_545
Cd0_1 Tm1_3 3.367978 1_545
Cd0_1 Tm2_1 3.367978 1_555
Cd0_1 Tm2_0 3.367978 1_555
Cd0_2 Pd2_4 3.009889 1_455
Cd0_2 Pd1_6 3.009889 1_455
Cd0_2 Pd0_0 3.009889 1_555
Cd0_2 Pd3_2 3.009889 1_555
Cd0_2 Tm3_5 3.367978 1_454
Cd0_2 Tm3_4 3.367978 1_455
Cd0_2 Tm0_6 3.367978 1_455
Cd0_2 Tm0_7 3.367978 1_454
Cd0_2 Tm1_0 3.367978 1_555
Cd0_2 Tm2_3 3.367978 1_554
Cd0_2 Tm2_2 3.367978 1_555
Cd0_2 Tm1_1 3.367978 1_554
Cd0_2 Cd0_3 3.567010 1_555
Cd0_2 Cd0_3 3.567010 1_554
Cd0_3 Pd2_5 3.009889 1_455
Cd0_3 Pd1_7 3.009889 1_455
Cd0_3 Pd0_1 3.009889 1_555
Cd0_3 Pd3_3 3.009889 1_555
Cd0_3 Tm3_5 3.367978 1_455
Cd0_3 Tm3_4 3.367978 1_455
Cd0_3 Tm0_6 3.367978 1_455
Cd0_3 Tm0_7 3.367978 1_455
Cd0_3 Tm1_1 3.367978 1_555
Cd0_3 Tm1_0 3.367978 1_555
Cd0_3 Tm2_3 3.367978 1_555
Cd0_3 Tm2_2 3.367978 1_555
Cd0_4 Pd0_6 3.009889 1_545
Cd0_4 Pd3_4 3.009889 1_555
Cd0_4 Pd2_2 3.009889 1_545
Cd0_4 Pd1_0 3.009889 1_555
Cd0_4 Tm3_2 3.367978 1_545
Cd0_4 Tm3_3 3.367978 1_544
Cd0_4 Tm1_6 3.367978 1_545
Cd0_4 Tm1_7 3.367978 1_544
Cd0_4 Tm0_1 3.367978 1_554
Cd0_4 Tm0_0 3.367978 1_555
Cd0_4 Tm2_4 3.367978 1_555
Cd0_4 Tm2_5 3.367978 1_554
Cd0_4 Cd0_5 3.567010 1_555
Cd0_4 Cd0_5 3.567010 1_554
Cd0_5 Pd0_7 3.009889 1_545
Cd0_5 Pd2_3 3.009889 1_545
Cd0_5 Pd3_5 3.009889 1_555
Cd0_5 Pd1_1 3.009889 1_555
Cd0_5 Tm3_2 3.367978 1_545
Cd0_5 Tm3_3 3.367978 1_545
Cd0_5 Tm1_7 3.367978 1_545
Cd0_5 Tm1_6 3.367978 1_545
Cd0_5 Tm0_1 3.367978 1_555
Cd0_5 Tm0_0 3.367978 1_555
Cd0_5 Tm2_4 3.367978 1_555
Cd0_5 Tm2_5 3.367978 1_555
Cd0_6 Pd2_0 3.009889 1_555
Cd0_6 Pd1_2 3.009889 1_555
Cd0_6 Pd0_4 3.009889 1_555
Cd0_6 Pd3_6 3.009889 1_555
Cd0_6 Tm3_0 3.367978 1_555
Cd0_6 Tm3_1 3.367978 1_554
Cd0_6 Tm0_3 3.367978 1_554
Cd0_6 Tm1_5 3.367978 1_554
Cd0_6 Tm1_4 3.367978 1_555
Cd0_6 Tm0_2 3.367978 1_555
Cd0_6 Tm2_7 3.367978 1_554
Cd0_6 Tm2_6 3.367978 1_555
Cd0_6 Cd0_7 3.567010 1_554
Cd0_6 Cd0_7 3.567010 1_555
Cd0_7 Pd0_5 3.009889 1_555
Cd0_7 Pd2_1 3.009889 1_555
Cd0_7 Pd1_3 3.009889 1_555
Cd0_7 Pd3_7 3.009889 1_555
Cd0_7 Tm3_0 3.367978 1_555
Cd0_7 Tm3_1 3.367978 1_555
Cd0_7 Tm0_3 3.367978 1_555
Cd0_7 Tm1_5 3.367978 1_555
Cd0_7 Tm1_4 3.367978 1_555
Cd0_7 Tm0_2 3.367978 1_555
Cd0_7 Tm2_7 3.367978 1_555
Cd0_7 Tm2_6 3.367978 1_555
Cd1_0 Pd2_0 3.009889 1_555
Cd1_0 Pd0_0 3.009889 1_555
Cd1_0 Pd1_0 3.009889 1_555
Cd1_0 Pd3_0 3.009889 1_555
Cd1_0 Tm2_1 3.367978 1_554
Cd1_0 Tm2_0 3.367978 1_555
Cd1_0 Tm0_0 3.367978 1_555
Cd1_0 Tm0_1 3.367978 1_554
Cd1_0 Tm1_1 3.367978 1_554
Cd1_0 Tm1_0 3.367978 1_555
Cd1_0 Tm3_0 3.367978 1_555
Cd1_0 Tm3_1 3.367978 1_554
Cd1_0 Cd1_1 3.567010 1_554
Cd1_0 Cd1_1 3.567010 1_555
Cd1_1 Pd3_1 3.009889 1_555
Cd1_1 Pd0_1 3.009889 1_555
Cd1_1 Pd2_1 3.009889 1_555
Cd1_1 Pd1_1 3.009889 1_555
Cd1_1 Tm2_1 3.367978 1_555
Cd1_1 Tm2_0 3.367978 1_555
Cd1_1 Tm0_1 3.367978 1_555
Cd1_1 Tm0_0 3.367978 1_555
Cd1_1 Tm1_1 3.367978 1_555
Cd1_1 Tm1_0 3.367978 1_555
Cd1_1 Tm3_0 3.367978 1_555
Cd1_1 Tm3_1 3.367978 1_555
Cd1_2 Pd3_2 3.009889 1_555
Cd1_2 Pd1_2 3.009889 1_555
Cd1_2 Pd2_2 3.009889 1_555
Cd1_2 Pd0_2 3.009889 1_555
Cd1_2 Tm2_2 3.367978 1_555
Cd1_2 Tm2_3 3.367978 1_554
Cd1_2 Tm0_3 3.367978 1_554
Cd1_2 Tm0_2 3.367978 1_555
Cd1_2 Tm3_2 3.367978 1_555
Cd1_2 Tm3_3 3.367978 1_554
Cd1_2 Tm1_3 3.367978 1_554
Cd1_2 Tm1_2 3.367978 1_555
Cd1_2 Cd1_3 3.567010 1_554
Cd1_2 Cd1_3 3.567010 1_555
Cd1_3 Pd3_3 3.009889 1_555
Cd1_3 Pd1_3 3.009889 1_555
Cd1_3 Pd2_3 3.009889 1_555
Cd1_3 Pd0_3 3.009889 1_555
Cd1_3 Tm2_3 3.367978 1_555
Cd1_3 Tm2_2 3.367978 1_555
Cd1_3 Tm0_3 3.367978 1_555
Cd1_3 Tm0_2 3.367978 1_555
Cd1_3 Tm3_3 3.367978 1_555
Cd1_3 Tm3_2 3.367978 1_555
Cd1_3 Tm1_2 3.367978 1_555
Cd1_3 Tm1_3 3.367978 1_555
Cd1_4 Pd0_4 3.009889 1_555
Cd1_4 Pd3_4 3.009889 1_555
Cd1_4 Pd2_4 3.009889 1_555
Cd1_4 Pd1_4 3.009889 1_555
Cd1_4 Tm2_4 3.367978 1_555
Cd1_4 Tm2_5 3.367978 1_554
Cd1_4 Tm0_5 3.367978 1_554
Cd1_4 Tm0_4 3.367978 1_555
Cd1_4 Tm1_4 3.367978 1_555
Cd1_4 Tm1_5 3.367978 1_554
Cd1_4 Tm3_4 3.367978 1_555
Cd1_4 Tm3_5 3.367978 1_554
Cd1_4 Cd1_5 3.567010 1_554
Cd1_4 Cd1_5 3.567010 1_555
Cd1_5 Pd0_5 3.009889 1_555
Cd1_5 Pd3_5 3.009889 1_555
Cd1_5 Pd1_5 3.009889 1_555
Cd1_5 Pd2_5 3.009889 1_555
Cd1_5 Tm2_4 3.367978 1_555
Cd1_5 Tm2_5 3.367978 1_555
Cd1_5 Tm0_5 3.367978 1_555
Cd1_5 Tm0_4 3.367978 1_555
Cd1_5 Tm1_4 3.367978 1_555
Cd1_5 Tm1_5 3.367978 1_555
Cd1_5 Tm3_4 3.367978 1_555
Cd1_5 Tm3_5 3.367978 1_555
Cd1_6 Pd3_6 3.009889 1_555
Cd1_6 Pd0_6 3.009889 1_555
Cd1_6 Pd1_6 3.009889 1_555
Cd1_6 Pd2_6 3.009889 1_555
Cd1_6 Tm2_7 3.367978 1_554
Cd1_6 Tm2_6 3.367978 1_555
Cd1_6 Tm0_7 3.367978 1_554
Cd1_6 Tm0_6 3.367978 1_555
Cd1_6 Tm1_6 3.367978 1_555
Cd1_6 Tm1_7 3.367978 1_554
Cd1_6 Tm3_6 3.367978 1_555
Cd1_6 Tm3_7 3.367978 1_554
Cd1_6 Cd1_7 3.567010 1_555
Cd1_6 Cd1_7 3.567010 1_554
Cd1_7 Pd3_7 3.009889 1_555
Cd1_7 Pd0_7 3.009889 1_555
Cd1_7 Pd1_7 3.009889 1_555
Cd1_7 Pd2_7 3.009889 1_555
Cd1_7 Tm2_7 3.367978 1_555
Cd1_7 Tm2_6 3.367978 1_555
Cd1_7 Tm0_6 3.367978 1_555
Cd1_7 Tm0_7 3.367978 1_555
Cd1_7 Tm1_7 3.367978 1_555
Cd1_7 Tm1_6 3.367978 1_555
Cd1_7 Tm3_6 3.367978 1_555
Cd1_7 Tm3_7 3.367978 1_555
Pd0_0 Tm1_0 2.813008 1_555
Pd0_0 Tm1_1 2.813008 1_554
Pd0_0 Pd1_4 2.847493 1_455
Pd0_0 Tm3_5 2.929038 1_454
Pd0_0 Tm3_4 2.929038 1_455
Pd0_0 Tm2_0 2.929038 1_555
Pd0_0 Tm2_1 2.929038 1_554
Pd0_1 Tm1_1 2.813008 1_555
Pd0_1 Tm1_0 2.813008 1_555
Pd0_1 Pd1_5 2.847493 1_455
Pd0_1 Tm3_4 2.929038 1_455
Pd0_1 Tm3_5 2.929038 1_455
Pd0_1 Tm2_0 2.929038 1_555
Pd0_1 Tm2_1 2.929038 1_555
Pd0_2 Tm1_3 2.813008 1_554
Pd0_2 Tm1_2 2.813008 1_555
Pd0_2 Pd1_6 2.847493 1_455
Pd0_2 Tm3_7 2.929038 1_454
Pd0_2 Tm3_6 2.929038 1_455
Pd0_2 Tm2_3 2.929038 1_554
Pd0_2 Tm2_2 2.929038 1_555
Pd0_3 Tm1_3 2.813008 1_555
Pd0_3 Tm1_2 2.813008 1_555
Pd0_3 Pd1_7 2.847493 1_455
Pd0_3 Tm3_7 2.929038 1_455
Pd0_3 Tm3_6 2.929038 1_455
Pd0_3 Tm2_3 2.929038 1_555
Pd0_3 Tm2_2 2.929038 1_555
Pd0_4 Tm1_4 2.813008 1_555
Pd0_4 Tm1_5 2.813008 1_554
Pd0_4 Pd1_0 2.847493 1_555
Pd0_4 Tm3_0 2.929038 1_555
Pd0_4 Tm3_1 2.929038 1_554
Pd0_4 Tm2_5 2.929038 1_554
Pd0_4 Tm2_4 2.929038 1_555
Pd0_5 Tm1_5 2.813008 1_555
Pd0_5 Tm1_4 2.813008 1_555
Pd0_5 Pd1_1 2.847493 1_555
Pd0_5 Tm3_0 2.929038 1_555
Pd0_5 Tm3_1 2.929038 1_555
Pd0_5 Tm2_5 2.929038 1_555
Pd0_5 Tm2_4 2.929038 1_555
Pd0_6 Tm1_7 2.813008 1_554
Pd0_6 Tm1_6 2.813008 1_555
Pd0_6 Pd1_2 2.847493 1_555
Pd0_6 Tm3_3 2.929038 1_554
Pd0_6 Tm3_2 2.929038 1_555
Pd0_6 Tm2_7 2.929038 1_554
Pd0_6 Tm2_6 2.929038 1_555
Pd0_7 Tm1_7 2.813008 1_555
Pd0_7 Tm1_6 2.813008 1_555
Pd0_7 Pd1_3 2.847493 1_555
Pd0_7 Tm3_3 2.929038 1_555
Pd0_7 Tm3_2 2.929038 1_555
Pd0_7 Tm2_6 2.929038 1_555
Pd0_7 Tm2_7 2.929038 1_555
Pd1_0 Tm0_1 2.813008 1_554
Pd1_0 Tm0_0 2.813008 1_555
Pd1_0 Tm2_5 2.929038 1_554
Pd1_0 Tm2_4 2.929038 1_555
Pd1_0 Tm3_0 2.929038 1_555
Pd1_0 Tm3_1 2.929038 1_554
Pd1_1 Tm0_1 2.813008 1_555
Pd1_1 Tm0_0 2.813008 1_555
Pd1_1 Tm2_5 2.929038 1_555
Pd1_1 Tm2_4 2.929038 1_555
Pd1_1 Tm3_0 2.929038 1_555
Pd1_1 Tm3_1 2.929038 1_555
Pd1_2 Tm0_2 2.813008 1_555
Pd1_2 Tm0_3 2.813008 1_554
Pd1_2 Tm2_6 2.929038 1_555
Pd1_2 Tm2_7 2.929038 1_554
Pd1_2 Tm3_2 2.929038 1_555
Pd1_2 Tm3_3 2.929038 1_554
Pd1_3 Tm0_3 2.813008 1_555
Pd1_3 Tm0_2 2.813008 1_555
Pd1_3 Tm2_7 2.929038 1_555
Pd1_3 Tm2_6 2.929038 1_555
Pd1_3 Tm3_3 2.929038 1_555
Pd1_3 Tm3_2 2.929038 1_555
Pd1_4 Tm0_5 2.813008 1_554
Pd1_4 Tm0_4 2.813008 1_555
Pd1_4 Tm2_0 2.929038 1_655
Pd1_4 Tm2_1 2.929038 1_654
Pd1_4 Tm3_4 2.929038 1_555
Pd1_4 Tm3_5 2.929038 1_554
Pd1_5 Tm0_5 2.813008 1_555
Pd1_5 Tm0_4 2.813008 1_555
Pd1_5 Tm2_0 2.929038 1_655
Pd1_5 Tm2_1 2.929038 1_655
Pd1_5 Tm3_4 2.929038 1_555
Pd1_5 Tm3_5 2.929038 1_555
Pd1_6 Tm0_6 2.813008 1_555
Pd1_6 Tm0_7 2.813008 1_554
Pd1_6 Tm2_2 2.929038 1_655
Pd1_6 Tm2_3 2.929038 1_654
Pd1_6 Tm3_6 2.929038 1_555
Pd1_6 Tm3_7 2.929038 1_554
Pd1_7 Tm0_6 2.813008 1_555
Pd1_7 Tm0_7 2.813008 1_555
Pd1_7 Tm2_2 2.929038 1_655
Pd1_7 Tm2_3 2.929038 1_655
Pd1_7 Tm3_6 2.929038 1_555
Pd1_7 Tm3_7 2.929038 1_555
Pd2_0 Tm3_0 2.813008 1_555
Pd2_0 Tm3_1 2.813008 1_554
Pd2_0 Pd3_2 2.847493 1_555
Pd2_0 Tm1_1 2.929038 1_554
Pd2_0 Tm0_3 2.929038 1_554
Pd2_0 Tm1_0 2.929038 1_555
Pd2_0 Tm0_2 2.929038 1_555
Pd2_1 Tm3_0 2.813008 1_555
Pd2_1 Tm3_1 2.813008 1_555
Pd2_1 Pd3_3 2.847493 1_555
Pd2_1 Tm1_1 2.929038 1_555
Pd2_1 Tm1_0 2.929038 1_555
Pd2_1 Tm0_2 2.929038 1_555
Pd2_1 Tm0_3 2.929038 1_555
Pd2_2 Tm3_2 2.813008 1_555
Pd2_2 Tm3_3 2.813008 1_554
Pd2_2 Pd3_0 2.847493 1_565
Pd2_2 Tm0_0 2.929038 1_565
Pd2_2 Tm0_1 2.929038 1_564
Pd2_2 Tm1_2 2.929038 1_555
Pd2_2 Tm1_3 2.929038 1_554
Pd2_3 Tm3_2 2.813008 1_555
Pd2_3 Tm3_3 2.813008 1_555
Pd2_3 Pd3_1 2.847493 1_565
Pd2_3 Tm0_1 2.929038 1_565
Pd2_3 Tm0_0 2.929038 1_565
Pd2_3 Tm1_2 2.929038 1_555
Pd2_3 Tm1_3 2.929038 1_555
Pd2_4 Tm3_4 2.813008 1_555
Pd2_4 Tm3_5 2.813008 1_554
Pd2_4 Pd3_6 2.847493 1_555
Pd2_4 Tm0_7 2.929038 1_554
Pd2_4 Tm0_6 2.929038 1_555
Pd2_4 Tm1_5 2.929038 1_554
Pd2_4 Tm1_4 2.929038 1_555
Pd2_5 Tm3_4 2.813008 1_555
Pd2_5 Tm3_5 2.813008 1_555
Pd2_5 Pd3_7 2.847493 1_555
Pd2_5 Tm0_7 2.929038 1_555
Pd2_5 Tm0_6 2.929038 1_555
Pd2_5 Tm1_4 2.929038 1_555
Pd2_5 Tm1_5 2.929038 1_555
Pd2_6 Tm3_6 2.813008 1_555
Pd2_6 Tm3_7 2.813008 1_554
Pd2_6 Pd3_4 2.847493 1_565
Pd2_6 Tm0_4 2.929038 1_565
Pd2_6 Tm0_5 2.929038 1_564
Pd2_6 Tm1_7 2.929038 1_554
Pd2_6 Tm1_6 2.929038 1_555
Pd2_7 Tm3_6 2.813008 1_555
Pd2_7 Tm3_7 2.813008 1_555
Pd2_7 Pd3_5 2.847493 1_565
Pd2_7 Tm0_5 2.929038 1_565
Pd2_7 Tm0_4 2.929038 1_565
Pd2_7 Tm1_7 2.929038 1_555
Pd2_7 Tm1_6 2.929038 1_555
Pd3_0 Tm2_1 2.813008 1_554
Pd3_0 Tm2_0 2.813008 1_555
Pd3_0 Tm1_2 2.929038 1_545
Pd3_0 Tm1_3 2.929038 1_544
Pd3_0 Tm0_0 2.929038 1_555
Pd3_0 Tm0_1 2.929038 1_554
Pd3_1 Tm2_0 2.813008 1_555
Pd3_1 Tm2_1 2.813008 1_555
Pd3_1 Tm1_2 2.929038 1_545
Pd3_1 Tm1_3 2.929038 1_545
Pd3_1 Tm0_1 2.929038 1_555
Pd3_1 Tm0_0 2.929038 1_555
Pd3_2 Tm2_3 2.813008 1_554
Pd3_2 Tm2_2 2.813008 1_555
Pd3_2 Tm1_1 2.929038 1_554
Pd3_2 Tm1_0 2.929038 1_555
Pd3_2 Tm0_2 2.929038 1_555
Pd3_2 Tm0_3 2.929038 1_554
Pd3_3 Tm2_2 2.813008 1_555
Pd3_3 Tm2_3 2.813008 1_555
Pd3_3 Tm1_1 2.929038 1_555
Pd3_3 Tm1_0 2.929038 1_555
Pd3_3 Tm0_2 2.929038 1_555
Pd3_3 Tm0_3 2.929038 1_555
Pd3_4 Tm2_4 2.813008 1_555
Pd3_4 Tm2_5 2.813008 1_554
Pd3_4 Tm1_6 2.929038 1_545
Pd3_4 Tm1_7 2.929038 1_544
Pd3_4 Tm0_5 2.929038 1_554
Pd3_4 Tm0_4 2.929038 1_555
Pd3_5 Tm2_4 2.813008 1_555
Pd3_5 Tm2_5 2.813008 1_555
Pd3_5 Tm1_6 2.929038 1_545
Pd3_5 Tm1_7 2.929038 1_545
Pd3_5 Tm0_5 2.929038 1_555
Pd3_5 Tm0_4 2.929038 1_555
Pd3_6 Tm2_7 2.813008 1_554
Pd3_6 Tm2_6 2.813008 1_555
Pd3_6 Tm1_5 2.929038 1_554
Pd3_6 Tm1_4 2.929038 1_555
Pd3_6 Tm0_7 2.929038 1_554
Pd3_6 Tm0_6 2.929038 1_555
Pd3_7 Tm2_6 2.813008 1_555
Pd3_7 Tm2_7 2.813008 1_555
Pd3_7 Tm1_5 2.929038 1_555
Pd3_7 Tm1_4 2.929038 1_555
Pd3_7 Tm0_6 2.929038 1_555
Pd3_7 Tm0_7 2.929038 1_555
