# generated using pymatgen
data_ZrIr3
_symmetry_space_group_name_H-M   'P 1'
_cell_length_a   3.95968420
_cell_length_b   3.95968420
_cell_length_c   3.95968420
_cell_angle_alpha   90.00000000
_cell_angle_beta   90.00000000
_cell_angle_gamma   90.00000000
_symmetry_Int_Tables_number   1
_chemical_formula_structural   ZrIr3
_chemical_formula_sum   'Zr1 Ir3'
_cell_volume   62.08428044
_cell_formula_units_Z   1
loop_
 _symmetry_equiv_pos_site_id
 _symmetry_equiv_pos_as_xyz
  1  'x, y, z'
loop_
 _atom_site_type_symbol
 _atom_site_label
 _atom_site_symmetry_multiplicity
 _atom_site_fract_x
 _atom_site_fract_y
 _atom_site_fract_z
 _atom_site_occupancy
  Zr  Zr0  1  -0.00000000  -0.00000000  -0.00000000  1
  Ir  Ir0  1  0.50000000  0.50000000  -0.00000000  1
  Ir  Ir1  1  0.50000000  -0.00000000  0.50000000  1
  Ir  Ir2  1  -0.00000000  0.50000000  0.50000000  1
loop_
_geom_bond_atom_site_label_1
_geom_bond_atom_site_label_2
_geom_bond_distance
_geom_bond_site_symmetry_2
Ir0 Zr0 2.799920 1_655
Ir0 Zr0 2.799920 1_565
Ir0 Zr0 2.799920 1_555
Ir0 Zr0 2.799920 1_665
Ir1 Zr0 2.799920 1_556
Ir1 Zr0 2.799920 1_655
Ir1 Zr0 2.799920 1_656
Ir1 Zr0 2.799920 1_555
Ir2 Zr0 2.799920 1_556
Ir2 Zr0 2.799920 1_565
Ir2 Zr0 2.799920 1_566
Ir2 Zr0 2.799920 1_555
