# generated using pymatgen
data_Y3SOF5
_symmetry_space_group_name_H-M   'P 1'
_cell_length_a   3.68986800
_cell_length_b   9.42693800
_cell_length_c   9.48421238
_cell_angle_alpha   60.48205322
_cell_angle_beta   90.00000000
_cell_angle_gamma   90.00000000
_symmetry_Int_Tables_number   1
_chemical_formula_structural   Y3SOF5
_chemical_formula_sum   'Y6 S2 O2 F10'
_cell_volume   287.07973383
_cell_formula_units_Z   2
loop_
 _symmetry_equiv_pos_site_id
 _symmetry_equiv_pos_as_xyz
  1  'x, y, z'
loop_
 _atom_site_type_symbol
 _atom_site_label
 _atom_site_symmetry_multiplicity
 _atom_site_fract_x
 _atom_site_fract_y
 _atom_site_fract_z
 _atom_site_occupancy
  Y  Y0  1  0.00000000  0.58248900  0.13457100  1
  Y  Y1  1  0.00000000  0.13314100  0.27038100  1
  Y  Y2  1  0.00000000  0.29859100  0.58538900  1
  Y  Y3  1  0.50000000  0.40485400  0.89641000  1
  Y  Y4  1  0.50000000  0.87635300  0.71525700  1
  Y  Y5  1  0.50000000  0.70423900  0.40231100  1
  S  S0  1  0.00000000  0.67104600  0.66713400  1
  S  S1  1  0.50000000  0.32626900  0.33867900  1
  O  O0  1  0.00000000  0.56392000  0.38707100  1
  O  O1  1  0.00000000  0.38437900  0.05160400  1
  F  F0  1  0.00000000  0.84124000  0.88049900  1
  F  F1  1  0.00000000  0.88829500  0.27300800  1
  F  F2  1  0.00000000  0.27449100  0.83748000  1
  F  F3  1  0.50000000  0.14492100  0.11739000  1
  F  F4  1  0.50000000  0.12056900  0.71603500  1
  F  F5  1  0.50000000  0.72884900  0.14851100  1
  F  F6  1  0.00000000  0.04741400  0.56683400  1
  F  F7  1  0.50000000  0.43047700  0.62584100  1
  F  F8  1  0.50000000  0.62240000  0.95289500  1
  F  F9  1  0.50000000  0.95606200  0.43270100  1
loop_
_geom_bond_atom_site_label_1
_geom_bond_atom_site_label_2
_geom_bond_distance
_geom_bond_site_symmetry_2
S0 Y4 2.868513 1_455
S0 Y4 2.868513 1_555
S0 Y5 3.005925 1_555
S0 Y5 3.005925 1_455
S0 Y3 3.008700 1_555
S0 Y3 3.008700 1_455
S1 Y1 2.880980 1_555
S1 Y1 2.880980 1_655
S1 Y2 2.888800 1_555
S1 Y2 2.888800 1_655
S1 Y0 2.894434 1_555
S1 Y0 2.894434 1_655
O0 Y2 2.271148 1_555
O0 Y0 2.313538 1_555
O0 Y5 2.315776 1_455
O0 Y5 2.315776 1_555
O1 Y1 2.252151 1_555
O1 Y3 2.308150 1_554
O1 Y3 2.308150 1_454
O1 Y0 2.356921 1_555
F0 Y4 2.336292 1_455
F0 Y4 2.336292 1_555
F0 Y0 2.442228 1_556
F1 Y1 2.295975 1_565
F1 Y5 2.412776 1_455
F1 Y5 2.412776 1_555
F2 Y2 2.287509 1_555
F2 Y3 2.429656 1_455
F2 Y3 2.429656 1_555
F3 Y3 2.310036 1_554
F3 Y1 2.315758 1_555
F3 Y1 2.315758 1_655
F4 Y4 2.305853 1_545
F4 Y2 2.388809 1_655
F4 Y2 2.388809 1_555
F5 Y5 2.301660 1_555
F5 Y0 2.346200 1_555
F5 Y0 2.346200 1_655
F6 Y4 2.397690 1_445
F6 Y4 2.397690 1_545
F6 Y2 2.459307 1_555
F6 Y1 2.513825 1_555
F7 Y2 2.359395 1_555
F7 Y2 2.359395 1_655
F7 Y5 2.400703 1_555
F7 Y3 2.456136 1_555
F8 Y4 2.343947 1_555
F8 Y3 2.361215 1_555
F8 Y0 2.423931 1_556
F8 Y0 2.423931 1_656
F9 Y4 2.400380 1_555
F9 Y1 2.455208 1_665
F9 Y1 2.455208 1_565
F9 Y5 2.528398 1_555
