# generated using pymatgen
data_Mg6SnBi
_symmetry_space_group_name_H-M   'P 1'
_cell_length_a   5.31849400
_cell_length_b   6.62875400
_cell_length_c   11.12567700
_cell_angle_alpha   90.00000000
_cell_angle_beta   90.00000000
_cell_angle_gamma   90.00000000
_symmetry_Int_Tables_number   1
_chemical_formula_structural   Mg6SnBi
_chemical_formula_sum   'Mg12 Sn2 Bi2'
_cell_volume   392.23561332
_cell_formula_units_Z   2
loop_
 _symmetry_equiv_pos_site_id
 _symmetry_equiv_pos_as_xyz
  1  'x, y, z'
loop_
 _atom_site_type_symbol
 _atom_site_label
 _atom_site_symmetry_multiplicity
 _atom_site_fract_x
 _atom_site_fract_y
 _atom_site_fract_z
 _atom_site_occupancy
  Mg  Mg0  1  0.50000000  0.24987500  0.58382500  1
  Mg  Mg1  1  0.50000000  0.75012500  0.58382500  1
  Mg  Mg2  1  0.00000000  0.25292700  0.41821400  1
  Mg  Mg3  1  0.00000000  0.74707300  0.41821400  1
  Mg  Mg4  1  0.00000000  0.00000000  0.66611300  1
  Mg  Mg5  1  0.00000000  0.00000000  0.16440500  1
  Mg  Mg6  1  0.50000000  0.74987500  0.08382500  1
  Mg  Mg7  1  0.50000000  0.25012500  0.08382500  1
  Mg  Mg8  1  0.00000000  0.75292700  0.91821400  1
  Mg  Mg9  1  0.00000000  0.24707300  0.91821400  1
  Mg  Mg10  1  0.00000000  0.50000000  0.16611300  1
  Mg  Mg11  1  0.00000000  0.50000000  0.66440500  1
  Sn  Sn0  1  0.50000000  0.00000000  0.83255500  1
  Sn  Sn1  1  0.50000000  0.50000000  0.33255500  1
  Bi  Bi0  1  0.50000000  0.00000000  0.33285400  1
  Bi  Bi1  1  0.50000000  0.50000000  0.83285400  1
loop_
_geom_bond_atom_site_label_1
_geom_bond_atom_site_label_2
_geom_bond_distance
_geom_bond_site_symmetry_2
Mg0 Sn0 3.225123 1_555
Mg0 Mg2 3.235265 1_555
Mg0 Mg2 3.235265 1_655
Mg0 Sn1 3.250248 1_555
Mg0 Mg11 3.259500 1_655
Mg0 Mg11 3.259500 1_555
Mg0 Mg4 3.263936 1_655
Mg0 Mg4 3.263936 1_555
Mg0 Mg1 3.312720 1_545
Mg0 Mg1 3.316034 1_555
Mg1 Sn0 3.225123 1_565
Mg1 Mg3 3.235265 1_555
Mg1 Mg3 3.235265 1_655
Mg1 Sn1 3.250248 1_555
Mg1 Mg11 3.259500 1_555
Mg1 Mg11 3.259500 1_655
Mg1 Mg4 3.263936 1_565
Mg1 Mg4 3.263936 1_665
Mg2 Mg4 3.227656 1_555
Mg2 Sn1 3.265299 1_555
Mg2 Sn1 3.265299 1_455
Mg2 Mg3 3.275572 1_555
Mg2 Mg5 3.284020 1_555
Mg2 Mg3 3.353182 1_545
Mg3 Mg4 3.227656 1_565
Mg3 Sn1 3.265299 1_555
Mg3 Sn1 3.265299 1_455
Mg3 Mg5 3.284020 1_565
Mg4 Sn0 3.240476 1_555
Mg4 Sn0 3.240476 1_455
Mg4 Mg8 3.247955 1_545
Mg4 Mg9 3.247955 1_555
Mg5 Mg8 3.191346 1_544
Mg5 Mg9 3.191346 1_554
Mg5 Mg7 3.259500 1_455
Mg5 Mg6 3.259500 1_545
Mg5 Mg7 3.259500 1_555
Mg5 Mg6 3.259500 1_445
Mg6 Sn1 3.225123 1_555
Mg6 Mg8 3.235265 1_654
Mg6 Mg8 3.235265 1_554
Mg6 Sn0 3.250248 1_564
Mg6 Mg7 3.312720 1_555
Mg6 Mg7 3.316034 1_565
Mg7 Sn1 3.225123 1_555
Mg7 Mg9 3.235265 1_654
Mg7 Mg9 3.235265 1_554
Mg7 Sn0 3.250248 1_554
Mg8 Sn0 3.265299 1_465
Mg8 Sn0 3.265299 1_565
Mg8 Mg9 3.275572 1_565
Mg8 Mg9 3.353182 1_555
Mg9 Sn0 3.265299 1_455
Mg9 Sn0 3.265299 1_555
Mg10 Mg8 3.227656 1_554
Mg10 Mg9 3.227656 1_554
Mg10 Sn1 3.240476 1_555
Mg10 Sn1 3.240476 1_455
Mg10 Mg2 3.247955 1_555
Mg10 Mg3 3.247955 1_555
Mg10 Mg6 3.263936 1_455
Mg10 Mg6 3.263936 1_555
Mg10 Mg7 3.263936 1_555
Mg10 Mg7 3.263936 1_455
Mg10 Mg5 3.314431 1_555
Mg10 Mg5 3.314431 1_565
Mg11 Mg3 3.191346 1_555
Mg11 Mg2 3.191346 1_555
Mg11 Mg8 3.284020 1_555
Mg11 Mg9 3.284020 1_555
Mg11 Mg4 3.314431 1_565
Mg11 Mg4 3.314431 1_555
Bi0 Mg6 3.228829 1_545
Bi0 Mg7 3.228829 1_555
Bi0 Mg0 3.246542 1_555
Bi0 Mg1 3.246542 1_545
Bi0 Mg5 3.253288 1_655
Bi0 Mg5 3.253288 1_555
Bi0 Mg2 3.283970 1_555
Bi0 Mg3 3.283970 1_545
Bi0 Mg3 3.283970 1_645
Bi0 Mg2 3.283970 1_655
Bi0 Sn1 3.314379 1_545
Bi0 Sn1 3.314379 1_555
Bi1 Mg1 3.228829 1_555
Bi1 Mg0 3.228829 1_555
Bi1 Mg6 3.246542 1_556
Bi1 Mg7 3.246542 1_556
Bi1 Mg11 3.253288 1_655
Bi1 Mg11 3.253288 1_555
Bi1 Mg9 3.283970 1_655
Bi1 Mg8 3.283970 1_555
Bi1 Mg9 3.283970 1_555
Bi1 Mg8 3.283970 1_655
Bi1 Sn0 3.314379 1_565
Bi1 Sn0 3.314379 1_555
