# generated using pymatgen
data_Yb10Ti6O27
_symmetry_space_group_name_H-M   'P 1'
_cell_length_a   7.26662900
_cell_length_b   7.40002897
_cell_length_c   11.94125517
_cell_angle_alpha   101.63386613
_cell_angle_beta   90.80893521
_cell_angle_gamma   118.49906038
_symmetry_Int_Tables_number   1
_chemical_formula_structural   Yb10Ti6O27
_chemical_formula_sum   'Yb10 Ti6 O27'
_cell_volume   548.15848318
_cell_formula_units_Z   1
loop_
 _symmetry_equiv_pos_site_id
 _symmetry_equiv_pos_as_xyz
  1  'x, y, z'
loop_
 _atom_site_type_symbol
 _atom_site_label
 _atom_site_symmetry_multiplicity
 _atom_site_fract_x
 _atom_site_fract_y
 _atom_site_fract_z
 _atom_site_occupancy
  Yb  Yb0  1  0.02155800  0.06258200  0.05532300  1
  Yb  Yb1  1  0.02100600  0.54917000  0.02173000  1
  Yb  Yb2  1  0.69313100  0.37924200  0.75583400  1
  Yb  Yb3  1  0.16201300  0.39063500  0.76922800  1
  Yb  Yb4  1  0.20769500  0.91324100  0.74138200  1
  Yb  Yb5  1  0.55282100  0.03829400  0.00625000  1
  Yb  Yb6  1  0.47544100  0.41630400  0.45816700  1
  Yb  Yb7  1  0.21089600  0.50661000  0.26930400  1
  Yb  Yb8  1  0.70520300  0.93845300  0.73951000  1
  Yb  Yb9  1  0.75529500  0.03810500  0.28010400  1
  Ti  Ti0  1  0.49211100  0.53012800  0.00585100  1
  Ti  Ti1  1  0.02106000  0.50556600  0.52513100  1
  Ti  Ti2  1  0.40765400  0.91539300  0.49028700  1
  Ti  Ti3  1  0.76511400  0.42774500  0.21936700  1
  Ti  Ti4  1  0.03096100  0.04751400  0.53093000  1
  Ti  Ti5  1  0.25189400  0.98083100  0.24837700  1
  O  O0  1  0.84537400  0.24934900  0.86306200  1
  O  O1  1  0.50535700  0.03891900  0.65120900  1
  O  O2  1  0.86462000  0.69453000  0.91743800  1
  O  O3  1  0.01751800  0.04566200  0.68222300  1
  O  O4  1  0.16766500  0.34123300  0.56570800  1
  O  O5  1  0.41902100  0.34746200  0.85744200  1
  O  O6  1  0.10056500  0.12834100  0.25535100  1
  O  O7  1  0.27708400  0.07719900  0.44533100  1
  O  O8  1  0.32092500  0.67561500  0.92253600  1
  O  O9  1  0.01557900  0.55906200  0.69737800  1
  O  O10  1  0.41562200  0.78144300  0.82997700  1
  O  O11  1  0.33460700  0.63383900  0.46703600  1
  O  O12  1  0.52061400  0.25379400  0.27762200  1
  O  O13  1  0.74584300  0.46485800  0.57234600  1
  O  O14  1  0.84916000  0.24591500  0.14159600  1
  O  O15  1  0.91475600  0.39799600  0.36989600  1
  O  O16  1  0.64472200  0.41863500  0.07306000  1
  O  O17  1  0.67326100  0.65209600  0.32166100  1
  O  O18  1  0.67055500  0.82384100  0.07066900  1
  O  O19  1  0.91581700  0.85098800  0.85871200  1
  O  O20  1  0.76107300  0.01665900  0.49505700  1
  O  O21  1  0.85842600  0.82147700  0.36366400  1
  O  O22  1  0.03080000  0.67216400  0.21889100  1
  O  O23  1  0.25277700  0.43213300  0.07455800  1
  O  O24  1  0.11614900  0.79714000  0.54266700  1
  O  O25  1  0.42407400  0.87361200  0.31932100  1
  O  O26  1  0.25168100  0.94122500  0.09131800  1
loop_
_geom_bond_atom_site_label_1
_geom_bond_atom_site_label_2
_geom_bond_distance
_geom_bond_site_symmetry_2
O0 Yb8 2.204426 1_545
O0 Yb2 2.293141 1_555
O0 Yb1 2.382306 1_656
O0 Yb3 2.427419 1_655
O0 Yb5 2.809518 1_556
O1 Ti2 1.914666 1_545
O1 Yb8 2.253143 1_545
O1 Yb2 2.273476 1_555
O1 Yb4 2.291927 1_545
O2 Yb1 2.380392 1_656
O2 Yb2 2.462127 1_555
O2 Yb0 2.569793 1_666
O2 Ti0 2.716254 1_556
O3 Ti4 1.813099 1_555
O3 Yb8 2.189162 1_445
O3 Yb4 2.216525 1_545
O3 Yb3 2.245072 1_555
O4 Ti4 1.856706 1_555
O4 Ti1 2.075543 1_555
O4 Yb3 2.387558 1_555
O4 Yb6 2.478467 1_555
O5 Ti0 1.889997 1_556
O5 Yb2 2.287195 1_555
O5 Yb3 2.312816 1_555
O5 Yb4 2.835294 1_545
O6 Ti5 1.875932 1_545
O6 Yb9 2.308649 1_455
O6 Yb0 2.344704 1_555
O6 Yb7 2.484464 1_555
O7 Ti2 1.987739 1_545
O7 Ti4 2.014697 1_555
O7 Yb6 2.187484 1_555
O7 Ti5 2.293519 1_545
O8 Yb3 2.278492 1_555
O8 Ti0 2.317617 1_556
O8 Yb5 2.365676 1_566
O8 Yb1 2.366899 1_556
O9 Ti1 2.019375 1_555
O9 Yb4 2.241986 1_555
O9 Yb3 2.256754 1_555
O9 Yb2 2.278931 1_455
O10 O8 1.471308 1_555
O10 Yb8 2.276451 1_555
O10 Yb5 2.357149 1_566
O10 Yb4 2.476011 1_555
O10 Yb3 2.513209 1_555
O11 Ti2 1.845804 1_555
O11 Ti1 2.195418 1_555
O11 Yb6 2.270748 1_555
O11 Yb7 2.346374 1_555
O12 Ti3 1.873791 1_555
O12 Ti5 1.986788 1_545
O12 Yb6 2.356486 1_555
O12 Yb9 2.841082 1_555
O13 Ti1 1.983343 1_655
O13 Yb6 2.214045 1_555
O13 Yb2 2.387660 1_555
O14 Ti3 1.828164 1_555
O14 Yb5 2.313595 1_555
O14 Yb0 2.359216 1_655
O14 Yb9 2.371150 1_555
O14 Yb7 2.611109 1_655
O14 Yb1 2.704780 1_655
O15 Ti1 1.855860 1_655
O15 Ti3 2.189693 1_555
O15 Yb9 2.335239 1_555
O15 Yb7 2.351923 1_655
O16 Ti0 1.915640 1_555
O16 Ti3 1.917101 1_555
O16 Yb5 2.507936 1_555
O16 Yb1 2.559468 1_655
O17 O21 1.323272 1_555
O17 Ti3 2.226314 1_555
O17 Yb6 2.566653 1_555
O17 Yb9 2.777802 1_565
O17 Yb7 3.009287 1_555
O18 Ti0 1.899524 1_555
O18 Yb0 2.346059 1_665
O18 Yb5 2.368860 1_565
O18 Yb9 2.563841 1_565
O19 O2 1.376387 1_555
O19 Yb0 2.423325 1_666
O19 Yb8 2.458190 1_555
O19 Yb4 2.466887 1_655
O20 Ti4 1.895087 1_655
O20 Ti2 2.302692 1_545
O20 Yb9 2.604431 1_555
O21 Ti4 2.222565 1_665
O21 Yb9 2.428471 1_565
O22 Ti3 1.915971 1_455
O22 Ti5 2.019942 1_555
O22 Yb7 2.319730 1_555
O22 Yb1 2.333589 1_555
O23 Ti0 1.816692 1_555
O23 Yb7 2.338269 1_555
O23 Yb1 2.359420 1_555
O23 Yb0 2.388581 1_555
O24 Ti1 1.888843 1_555
O24 Ti2 2.033043 1_555
O24 Ti4 2.243299 1_565
O24 Yb4 2.323607 1_555
O25 Ti2 2.016249 1_555
O25 Ti5 2.025121 1_555
O25 Yb9 2.227079 1_565
O25 Yb7 2.331745 1_555
O26 Ti5 1.838784 1_555
O26 Yb5 2.278912 1_565
O26 Yb0 2.314307 1_565
O26 Yb1 2.502971 1_555
