# generated using pymatgen
data_HoP2H7O10
_symmetry_space_group_name_H-M   'P 1'
_cell_length_a   7.33647300
_cell_length_b   10.10584400
_cell_length_c   11.32605600
_cell_angle_alpha   90.00000000
_cell_angle_beta   90.00000000
_cell_angle_gamma   90.00000000
_symmetry_Int_Tables_number   1
_chemical_formula_structural   HoP2H7O10
_chemical_formula_sum   'Ho4 P8 H28 O40'
_cell_volume   839.72796808
_cell_formula_units_Z   4
loop_
 _symmetry_equiv_pos_site_id
 _symmetry_equiv_pos_as_xyz
  1  'x, y, z'
loop_
 _atom_site_type_symbol
 _atom_site_label
 _atom_site_symmetry_multiplicity
 _atom_site_fract_x
 _atom_site_fract_y
 _atom_site_fract_z
 _atom_site_occupancy
  Ho  Ho0  1  0.75000000  0.24798600  0.25000000  1
  Ho  Ho1  1  0.75000000  0.25201400  0.75000000  1
  Ho  Ho2  1  0.25000000  0.75201400  0.75000000  1
  Ho  Ho3  1  0.25000000  0.74798600  0.25000000  1
  P  P0  1  0.91119500  0.53221400  0.42293900  1
  P  P1  1  0.91119500  0.96778600  0.57706100  1
  P  P2  1  0.58880500  0.53221400  0.07706100  1
  P  P3  1  0.58880500  0.96778600  0.92293900  1
  P  P4  1  0.08880500  0.46778600  0.57706100  1
  P  P5  1  0.08880500  0.03221400  0.42293900  1
  P  P6  1  0.41119500  0.46778600  0.92293900  1
  P  P7  1  0.41119500  0.03221400  0.07706100  1
  H  H0  1  0.56274200  0.94351300  0.26891500  1
  H  H1  1  0.56274200  0.55648700  0.73108600  1
  H  H2  1  0.93725800  0.94351300  0.23108500  1
  H  H3  1  0.93725800  0.55648700  0.76891400  1
  H  H4  1  0.43725800  0.05648700  0.73108600  1
  H  H5  1  0.43725800  0.44351300  0.26891500  1
  H  H6  1  0.06274200  0.05648700  0.76891400  1
  H  H7  1  0.06274200  0.44351300  0.23108500  1
  H  H8  1  0.80644600  0.75000000  0.50000000  1
  H  H9  1  0.69355400  0.75000000  0.00000000  1
  H  H10  1  0.19355400  0.25000000  0.50000000  1
  H  H11  1  0.30644600  0.25000000  0.00000000  1
  H  H12  1  0.52432200  0.62887900  0.42566000  1
  H  H13  1  0.52432200  0.87112100  0.57434000  1
  H  H14  1  0.97567800  0.62887900  0.07434000  1
  H  H15  1  0.97567800  0.87112100  0.92566000  1
  H  H16  1  0.47567800  0.37112100  0.57434000  1
  H  H17  1  0.47567800  0.12887900  0.42566000  1
  H  H18  1  0.02432200  0.37112100  0.92566000  1
  H  H19  1  0.02432200  0.12887900  0.07434000  1
  H  H20  1  0.64574100  0.83460800  0.34841500  1
  H  H21  1  0.64574100  0.66539200  0.65158500  1
  H  H22  1  0.85425900  0.83460800  0.15158500  1
  H  H23  1  0.85425900  0.66539200  0.84841500  1
  H  H24  1  0.35425900  0.16539200  0.65158500  1
  H  H25  1  0.35425900  0.33460800  0.34841500  1
  H  H26  1  0.14574100  0.16539200  0.84841500  1
  H  H27  1  0.14574100  0.33460800  0.15158500  1
  O  O0  1  0.45506000  0.58957300  0.16823400  1
  O  O1  1  0.45506000  0.91042700  0.83176600  1
  O  O2  1  0.04494000  0.58957300  0.33176600  1
  O  O3  1  0.04494000  0.91042700  0.66823400  1
  O  O4  1  0.54494000  0.41042700  0.83176600  1
  O  O5  1  0.54494000  0.08957300  0.16823400  1
  O  O6  1  0.95506000  0.41042700  0.66823400  1
  O  O7  1  0.95506000  0.08957300  0.33176600  1
  O  O8  1  0.72271700  0.63696600  0.02756300  1
  O  O9  1  0.72271700  0.86303400  0.97243700  1
  O  O10  1  0.77728300  0.63696600  0.47243700  1
  O  O11  1  0.77728300  0.86303400  0.52756300  1
  O  O12  1  0.27728300  0.36303400  0.97243700  1
  O  O13  1  0.27728300  0.13696600  0.02756300  1
  O  O14  1  0.22271700  0.36303400  0.52756300  1
  O  O15  1  0.22271700  0.13696600  0.47243700  1
  O  O16  1  0.55471500  0.84801400  0.28702700  1
  O  O17  1  0.55471500  0.65198600  0.71297300  1
  O  O18  1  0.94528500  0.84801400  0.21297300  1
  O  O19  1  0.94528500  0.65198600  0.78702700  1
  O  O20  1  0.44528500  0.15198600  0.71297300  1
  O  O21  1  0.44528500  0.34801400  0.28702700  1
  O  O22  1  0.05471500  0.15198600  0.78702700  1
  O  O23  1  0.05471500  0.34801400  0.21297300  1
  O  O24  1  0.18872100  0.90745500  0.38525300  1
  O  O25  1  0.18872100  0.59254500  0.61474700  1
  O  O26  1  0.31127900  0.90745500  0.11474700  1
  O  O27  1  0.31127900  0.59254500  0.88525300  1
  O  O28  1  0.81127900  0.09254500  0.61474700  1
  O  O29  1  0.81127900  0.40745500  0.38525300  1
  O  O30  1  0.68872100  0.09254500  0.88525300  1
  O  O31  1  0.68872100  0.40745500  0.11474700  1
  O  O32  1  0.40364600  0.61715700  0.38770900  1
  O  O33  1  0.40364600  0.88284300  0.61229100  1
  O  O34  1  0.09635400  0.61715700  0.11229100  1
  O  O35  1  0.09635400  0.88284300  0.88770900  1
  O  O36  1  0.59635400  0.38284300  0.61229100  1
  O  O37  1  0.59635400  0.11715700  0.38770900  1
  O  O38  1  0.90364600  0.38284300  0.88770900  1
  O  O39  1  0.90364600  0.11715700  0.11229100  1
loop_
_geom_bond_atom_site_label_1
_geom_bond_atom_site_label_2
_geom_bond_distance
_geom_bond_site_symmetry_2
Ho0 O29 2.268465 1_555
Ho0 O31 2.268465 1_555
Ho0 O37 2.334810 1_555
Ho0 O39 2.334810 1_555
Ho0 O5 2.384068 1_555
Ho0 O7 2.384068 1_555
Ho0 O21 2.489043 1_555
Ho0 O23 2.489043 1_655
Ho1 O30 2.268465 1_555
Ho1 O28 2.268465 1_555
Ho1 O38 2.334810 1_555
Ho1 O36 2.334810 1_555
Ho1 O4 2.384068 1_555
Ho1 O6 2.384068 1_555
Ho1 O22 2.489043 1_655
Ho1 O20 2.489043 1_555
Ho2 O27 2.268465 1_555
Ho2 O25 2.268465 1_555
Ho2 O35 2.334810 1_555
Ho2 O33 2.334810 1_555
Ho2 O1 2.384068 1_555
Ho2 O3 2.384068 1_555
Ho2 O17 2.489043 1_555
Ho2 O19 2.489043 1_455
Ho3 O24 2.268465 1_555
Ho3 O26 2.268465 1_555
Ho3 O32 2.334810 1_555
Ho3 O34 2.334810 1_555
Ho3 O2 2.384068 1_555
Ho3 O0 2.384068 1_555
Ho3 O16 2.489043 1_555
Ho3 O18 2.489043 1_455
H0 O16 0.988415 1_555
H1 O17 0.988417 1_555
H2 O18 0.988415 1_555
H3 O19 0.988417 1_555
H4 O20 0.988417 1_555
H5 O21 0.988415 1_555
H6 O22 0.988417 1_555
H7 O23 0.988415 1_555
H8 O11 1.203366 1_555
H8 O10 1.203366 1_555
H9 O9 1.203366 1_554
H9 O8 1.203366 1_555
H10 O14 1.203366 1_555
H10 O15 1.203366 1_555
H11 O12 1.203366 1_554
H11 O13 1.203366 1_555
H12 O32 0.991268 1_555
H13 O33 0.991268 1_555
H14 O34 0.991268 1_655
H15 O35 0.991268 1_655
H16 O36 0.991268 1_555
H17 O37 0.991268 1_555
H18 O38 0.991268 1_455
H19 O39 0.991268 1_455
H20 O16 0.973522 1_555
H21 O17 0.973522 1_555
H22 O18 0.973522 1_555
H23 O19 0.973522 1_555
H24 O20 0.973522 1_555
H25 O21 0.973522 1_555
H26 O22 0.973522 1_555
H27 O23 0.973522 1_555
O0 P2 1.537894 1_555
O1 P3 1.537894 1_555
O2 P0 1.537894 1_455
O3 P1 1.537894 1_455
O4 P6 1.537894 1_555
O5 P7 1.537894 1_555
O6 P4 1.537894 1_655
O7 P5 1.537894 1_655
O8 P2 1.549236 1_555
O9 P3 1.549236 1_555
O10 P0 1.549236 1_555
O11 P1 1.549236 1_555
O12 P6 1.549236 1_555
O13 P7 1.549236 1_555
O14 P4 1.549236 1_555
O15 P5 1.549236 1_555
O24 P5 1.519581 1_565
O25 P4 1.519581 1_555
O26 P7 1.519581 1_565
O27 P6 1.519581 1_555
O28 P1 1.519581 1_545
O29 P0 1.519581 1_555
O30 P3 1.519581 1_545
O31 P2 1.519581 1_555
