# generated using pymatgen
data_Y5Al3
_symmetry_space_group_name_H-M   'P 1'
_cell_length_a   8.86408879
_cell_length_b   8.86408959
_cell_length_c   6.48062000
_cell_angle_alpha   90.00000000
_cell_angle_beta   90.00000000
_cell_angle_gamma   120.07279177
_symmetry_Int_Tables_number   1
_chemical_formula_structural   Y5Al3
_chemical_formula_sum   'Y10 Al6'
_cell_volume   440.65266512
_cell_formula_units_Z   2
loop_
 _symmetry_equiv_pos_site_id
 _symmetry_equiv_pos_as_xyz
  1  'x, y, z'
loop_
 _atom_site_type_symbol
 _atom_site_label
 _atom_site_symmetry_multiplicity
 _atom_site_fract_x
 _atom_site_fract_y
 _atom_site_fract_z
 _atom_site_occupancy
  Y  Y0  1  0.66678800  0.33324800  0.50000000  1
  Y  Y1  1  0.33324800  0.66678800  0.50000000  1
  Y  Y2  1  0.33321200  0.66675200  0.00000000  1
  Y  Y3  1  0.66675200  0.33321200  0.00000000  1
  Y  Y4  1  0.75376400  0.75376400  0.24999300  1
  Y  Y5  1  0.24624200  0.99982400  0.25000300  1
  Y  Y6  1  0.99982400  0.24624200  0.25000300  1
  Y  Y7  1  0.24623600  0.24623600  0.74999300  1
  Y  Y8  1  0.75375800  0.00017600  0.75000300  1
  Y  Y9  1  0.00017600  0.75375800  0.75000300  1
  Al  Al0  1  0.39662000  0.39662000  0.25000700  1
  Al  Al1  1  0.60346400  0.00000400  0.24999700  1
  Al  Al2  1  0.00000400  0.60346400  0.24999700  1
  Al  Al3  1  0.60338000  0.60338000  0.75000700  1
  Al  Al4  1  0.39653600  0.99999600  0.74999700  1
  Al  Al5  1  0.99999600  0.39653600  0.74999700  1
loop_
_geom_bond_atom_site_label_1
_geom_bond_atom_site_label_2
_geom_bond_distance
_geom_bond_site_symmetry_2
Y0 Y3 3.240310 1_556
Y0 Y3 3.240310 1_555
Y0 Y9 3.769930 1_655
Y0 Y5 3.770195 1_545
Y0 Y6 3.770414 1_555
Y0 Y8 3.770523 1_555
Y0 Y4 3.772737 1_555
Y0 Y7 3.772888 1_555
Y1 Y2 3.240310 1_555
Y1 Y2 3.240310 1_556
Y1 Y8 3.769930 1_565
Y1 Y6 3.770195 1_455
Y1 Y5 3.770414 1_555
Y1 Y9 3.770522 1_555
Y1 Y4 3.772737 1_555
Y1 Y7 3.772888 1_555
Y2 Y6 3.769930 1_455
Y2 Y8 3.770195 1_564
Y2 Y9 3.770414 1_554
Y2 Y5 3.770523 1_555
Y2 Y7 3.772737 1_554
Y2 Y4 3.772888 1_555
Y3 Y5 3.769930 1_545
Y3 Y9 3.770195 1_654
Y3 Y8 3.770414 1_554
Y3 Y6 3.770522 1_555
Y3 Y7 3.772737 1_554
Y3 Y4 3.772888 1_555
Y4 Y5 3.777750 1_655
Y4 Y6 3.777750 1_565
Y4 Y9 3.907699 1_654
Y4 Y8 3.907699 1_564
Y4 Y9 3.907807 1_655
Y4 Y8 3.907807 1_565
Y5 Y6 3.784655 1_465
Y5 Y9 3.904685 1_555
Y5 Y9 3.904685 1_554
Y5 Y7 3.907699 1_565
Y5 Y7 3.907807 1_564
Y6 Y8 3.904685 1_555
Y6 Y8 3.904685 1_554
Y6 Y7 3.907699 1_655
Y6 Y7 3.907807 1_654
Y7 Y8 3.777750 1_455
Y7 Y9 3.777750 1_545
Y8 Y9 3.784655 1_645
Al0 Y6 3.073935 1_455
Al0 Y5 3.073935 1_545
Al0 Y4 3.162273 1_555
Al0 Y3 3.165951 1_555
Al0 Y2 3.165951 1_555
Al0 Y0 3.165997 1_555
Al0 Y1 3.165997 1_555
Al0 Y7 3.503148 1_555
Al0 Y7 3.503316 1_554
Al1 Y6 3.069597 1_555
Al1 Y4 3.074645 1_545
Al1 Y1 3.161631 1_545
Al1 Y2 3.161880 1_545
Al1 Y3 3.162695 1_555
Al1 Y0 3.162892 1_555
Al1 Y5 3.165648 1_545
Al1 Y8 3.503160 1_554
Al1 Y8 3.503232 1_555
Al2 Y5 3.069597 1_555
Al2 Y4 3.074645 1_455
Al2 Y0 3.161631 1_455
Al2 Y3 3.161880 1_455
Al2 Y2 3.162695 1_555
Al2 Y1 3.162892 1_555
Al2 Y6 3.165649 1_455
Al2 Y9 3.503160 1_554
Al2 Y9 3.503232 1_555
Al3 Y9 3.073935 1_655
Al3 Y8 3.073935 1_565
Al3 Y7 3.162273 1_555
Al3 Y1 3.165951 1_555
Al3 Y0 3.165951 1_555
Al3 Y2 3.165997 1_556
Al3 Y3 3.165997 1_556
Al3 Y4 3.503148 1_556
Al3 Y4 3.503316 1_555
Al4 Y9 3.069597 1_555
Al4 Y7 3.074645 1_565
Al4 Y3 3.161631 1_566
Al4 Y0 3.161880 1_565
Al4 Y1 3.162695 1_555
Al4 Y2 3.162892 1_556
Al4 Y8 3.165648 1_565
Al4 Y5 3.503160 1_555
Al4 Y5 3.503232 1_556
Al5 Y8 3.069597 1_555
Al5 Y7 3.074645 1_655
Al5 Y2 3.161631 1_656
Al5 Y1 3.161880 1_655
Al5 Y0 3.162695 1_555
Al5 Y3 3.162892 1_556
Al5 Y9 3.165649 1_655
Al5 Y6 3.503160 1_555
Al5 Y6 3.503232 1_556
