# generated using pymatgen
data_K2YbGe4O11
_symmetry_space_group_name_H-M   'P 1'
_cell_length_a   8.77996800
_cell_length_b   12.16861200
_cell_length_c   12.43848383
_cell_angle_alpha   67.26834038
_cell_angle_beta   90.00000000
_cell_angle_gamma   90.00000000
_symmetry_Int_Tables_number   1
_chemical_formula_structural   K2YbGe4O11
_chemical_formula_sum   'K8 Yb4 Ge16 O44'
_cell_volume   1225.70305057
_cell_formula_units_Z   4
loop_
 _symmetry_equiv_pos_site_id
 _symmetry_equiv_pos_as_xyz
  1  'x, y, z'
loop_
 _atom_site_type_symbol
 _atom_site_label
 _atom_site_symmetry_multiplicity
 _atom_site_fract_x
 _atom_site_fract_y
 _atom_site_fract_z
 _atom_site_occupancy
  K  K0  1  0.25000000  0.40984700  0.08114400  1
  K  K1  1  0.75000000  0.59015300  0.91885600  1
  K  K2  1  0.25000000  0.92964600  0.43340200  1
  K  K3  1  0.75000000  0.07035400  0.56659800  1
  K  K4  1  0.25000000  0.01446700  0.04632700  1
  K  K5  1  0.75000000  0.98553300  0.95367300  1
  K  K6  1  0.25000000  0.49351100  0.47948300  1
  K  K7  1  0.75000000  0.50648900  0.52051700  1
  Yb  Yb0  1  0.00737000  0.78640100  0.28619300  1
  Yb  Yb1  1  0.99263000  0.21359900  0.71380700  1
  Yb  Yb2  1  0.50737000  0.21359900  0.71380700  1
  Yb  Yb3  1  0.49263000  0.78640100  0.28619300  1
  Ge  Ge0  1  0.93025800  0.50301100  0.25215300  1
  Ge  Ge1  1  0.06974200  0.49698900  0.74784700  1
  Ge  Ge2  1  0.43025800  0.49698900  0.74784700  1
  Ge  Ge3  1  0.56974200  0.50301100  0.25215300  1
  Ge  Ge4  1  0.43553200  0.71692000  0.03389000  1
  Ge  Ge5  1  0.56446800  0.28308000  0.96611000  1
  Ge  Ge6  1  0.93553200  0.28308000  0.96611000  1
  Ge  Ge7  1  0.06446800  0.71692000  0.03389000  1
  Ge  Ge8  1  0.44050200  0.89362500  0.77120600  1
  Ge  Ge9  1  0.55949800  0.10637500  0.22879400  1
  Ge  Ge10  1  0.94050200  0.10637500  0.22879400  1
  Ge  Ge11  1  0.05949800  0.89362500  0.77120600  1
  Ge  Ge12  1  0.43632200  0.23923800  0.39042900  1
  Ge  Ge13  1  0.56367800  0.76076200  0.60957100  1
  Ge  Ge14  1  0.93632200  0.76076200  0.60957100  1
  Ge  Ge15  1  0.06367800  0.23923800  0.39042900  1
  O  O0  1  0.25000000  0.18125200  0.38308100  1
  O  O1  1  0.75000000  0.81874800  0.61691900  1
  O  O2  1  0.49093700  0.23727200  0.11127400  1
  O  O3  1  0.50906300  0.76272800  0.88872600  1
  O  O4  1  0.99093700  0.76272800  0.88872600  1
  O  O5  1  0.00906300  0.23727200  0.11127400  1
  O  O6  1  0.98498500  0.76502400  0.47375600  1
  O  O7  1  0.01501500  0.23497600  0.52624400  1
  O  O8  1  0.48498500  0.23497600  0.52624400  1
  O  O9  1  0.51501500  0.76502400  0.47375600  1
  O  O10  1  0.44998400  0.98383500  0.24463100  1
  O  O11  1  0.55001600  0.01616500  0.75536900  1
  O  O12  1  0.94998400  0.01616500  0.75536900  1
  O  O13  1  0.05001600  0.98383500  0.24463100  1
  O  O14  1  0.25000000  0.65304100  0.04143200  1
  O  O15  1  0.75000000  0.34695900  0.95856800  1
  O  O16  1  0.43300500  0.38589300  0.27907400  1
  O  O17  1  0.56699500  0.61410700  0.72092600  1
  O  O18  1  0.93300500  0.61410700  0.72092600  1
  O  O19  1  0.06699500  0.38589300  0.27907400  1
  O  O20  1  0.25000000  0.91587200  0.80804700  1
  O  O21  1  0.75000000  0.08412800  0.19195300  1
  O  O22  1  0.96188600  0.58555900  0.33609700  1
  O  O23  1  0.03811400  0.41444100  0.66390300  1
  O  O24  1  0.46188600  0.41444100  0.66390300  1
  O  O25  1  0.53811400  0.58555900  0.33609700  1
  O  O26  1  0.25000000  0.56993000  0.72492200  1
  O  O27  1  0.75000000  0.43007000  0.27507800  1
  O  O28  1  0.25000000  0.21076100  0.75763900  1
  O  O29  1  0.75000000  0.78923900  0.24236100  1
  O  O30  1  0.94749100  0.58679200  0.09875900  1
  O  O31  1  0.05250900  0.41320800  0.90124100  1
  O  O32  1  0.44749100  0.41320800  0.90124100  1
  O  O33  1  0.55250900  0.58679200  0.09875900  1
  O  O34  1  0.45010400  0.82335100  0.09318600  1
  O  O35  1  0.54989600  0.17664900  0.90681400  1
  O  O36  1  0.95010400  0.17664900  0.90681400  1
  O  O37  1  0.04989600  0.82335100  0.09318600  1
  O  O38  1  0.43967600  0.85941300  0.64319200  1
  O  O39  1  0.56032400  0.14058700  0.35680800  1
  O  O40  1  0.93967600  0.14058700  0.35680800  1
  O  O41  1  0.06032400  0.85941300  0.64319200  1
  O  O42  1  0.25000000  0.72732500  0.35818500  1
  O  O43  1  0.75000000  0.27267500  0.64181500  1
loop_
_geom_bond_atom_site_label_1
_geom_bond_atom_site_label_2
_geom_bond_distance
_geom_bond_site_symmetry_2
K0 O14 2.805697 1_555
K0 O31 2.818682 1_554
K0 O32 2.818682 1_554
K0 O16 2.858897 1_555
K0 O19 2.858897 1_555
K0 O5 2.901243 1_555
K0 O2 2.901243 1_555
K1 O15 2.805697 1_555
K1 O30 2.818682 1_556
K1 O33 2.818682 1_556
K1 O18 2.858897 1_555
K1 O17 2.858897 1_555
K1 O4 2.901243 1_555
K1 O3 2.901243 1_555
K2 O13 2.799014 1_555
K2 O10 2.799014 1_555
K2 O0 2.878320 1_565
K2 O38 2.930801 1_555
K2 O41 2.930801 1_555
K2 O42 2.952409 1_555
K2 O9 2.983599 1_555
K2 O6 2.983599 1_455
K3 O12 2.799014 1_555
K3 O11 2.799014 1_555
K3 O1 2.878320 1_545
K3 O39 2.930801 1_555
K3 O40 2.930801 1_555
K3 O43 2.952409 1_555
K3 O8 2.983599 1_555
K3 O7 2.983599 1_655
K4 O37 2.790585 1_545
K4 O34 2.790585 1_545
K4 O10 2.931812 1_545
K4 O13 2.931812 1_545
K5 O35 2.790585 1_565
K5 O36 2.790585 1_565
K5 O11 2.931812 1_565
K5 O12 2.931812 1_565
K6 O42 2.655924 1_555
K6 O24 2.818323 1_555
K6 O23 2.818323 1_555
K6 O25 3.048058 1_555
K6 O22 3.048058 1_455
K7 O43 2.655924 1_555
K7 O25 2.818323 1_555
K7 O22 2.818323 1_555
K7 O24 3.048058 1_555
K7 O23 3.048058 1_655
Ge0 O22 1.728268 1_555
Ge0 O27 1.782789 1_555
Ge0 O30 1.788683 1_555
Ge0 O19 1.793242 1_655
Ge1 O23 1.728268 1_555
Ge1 O26 1.782789 1_555
Ge1 O31 1.788683 1_555
Ge1 O18 1.793242 1_455
Ge2 O24 1.728268 1_555
Ge2 O26 1.782789 1_555
Ge2 O32 1.788683 1_555
Ge2 O17 1.793242 1_555
Ge3 O25 1.728268 1_555
Ge3 O27 1.782789 1_555
Ge3 O33 1.788683 1_555
Ge3 O16 1.793242 1_555
Ge4 O34 1.725081 1_555
Ge4 O3 1.791629 1_554
Ge4 O14 1.791702 1_555
Ge4 O33 1.796069 1_555
Ge5 O35 1.725081 1_555
Ge5 O2 1.791629 1_556
Ge5 O15 1.791702 1_555
Ge5 O32 1.796069 1_555
Ge6 O36 1.725081 1_555
Ge6 O5 1.791629 1_656
Ge6 O15 1.791702 1_555
Ge6 O31 1.796069 1_655
Ge7 O37 1.725081 1_555
Ge7 O4 1.791629 1_454
Ge7 O14 1.791702 1_555
Ge7 O30 1.796069 1_455
Ge8 O11 1.720418 1_565
Ge8 O20 1.782343 1_555
Ge8 O38 1.794741 1_555
Ge8 O3 1.799118 1_555
Ge9 O10 1.720418 1_545
Ge9 O21 1.782343 1_555
Ge9 O39 1.794741 1_555
Ge9 O2 1.799118 1_555
Ge10 O13 1.720418 1_645
Ge10 O21 1.782343 1_555
Ge10 O40 1.794741 1_555
Ge10 O5 1.799118 1_655
Ge11 O12 1.720418 1_465
Ge11 O20 1.782343 1_555
Ge11 O41 1.794741 1_555
Ge11 O4 1.799118 1_455
Ge12 O8 1.723768 1_555
Ge12 O39 1.785854 1_555
Ge12 O16 1.787114 1_555
Ge12 O0 1.797846 1_555
Ge13 O9 1.723768 1_555
Ge13 O38 1.785854 1_555
Ge13 O17 1.787114 1_555
Ge13 O1 1.797846 1_555
Ge14 O6 1.723768 1_555
Ge14 O41 1.785854 1_655
Ge14 O18 1.787114 1_555
Ge14 O1 1.797846 1_555
Ge15 O7 1.723768 1_555
Ge15 O40 1.785854 1_455
Ge15 O19 1.787114 1_555
Ge15 O0 1.797846 1_555
O6 Yb0 2.253922 1_655
O7 Yb1 2.253922 1_455
O8 Yb2 2.253922 1_555
O9 Yb3 2.253922 1_555
O10 Yb3 2.284640 1_555
O11 Yb2 2.284640 1_555
O12 Yb1 2.284640 1_555
O13 Yb0 2.284640 1_555
O22 Yb0 2.312000 1_655
O23 Yb1 2.312000 1_455
O24 Yb2 2.312000 1_555
O25 Yb3 2.312000 1_555
O28 Yb1 2.321666 1_455
O28 Yb2 2.321666 1_555
O29 Yb3 2.321666 1_555
O29 Yb0 2.321666 1_655
O34 Yb3 2.295819 1_555
O35 Yb2 2.295819 1_555
O36 Yb1 2.295819 1_555
O37 Yb0 2.295819 1_555
O42 Yb0 2.315008 1_555
O42 Yb3 2.315008 1_555
O43 Yb2 2.315008 1_555
O43 Yb1 2.315008 1_555
