# generated using pymatgen
data_Pr3NbSb5
_symmetry_space_group_name_H-M   'P 1'
_cell_length_a   9.51279600
_cell_length_b   9.51279600
_cell_length_c   6.27766800
_cell_angle_alpha   90.00000000
_cell_angle_beta   90.00000000
_cell_angle_gamma   120.00000002
_symmetry_Int_Tables_number   1
_chemical_formula_structural   Pr3NbSb5
_chemical_formula_sum   'Pr6 Nb2 Sb10'
_cell_volume   491.97761495
_cell_formula_units_Z   2
loop_
 _symmetry_equiv_pos_site_id
 _symmetry_equiv_pos_as_xyz
  1  'x, y, z'
loop_
 _atom_site_type_symbol
 _atom_site_label
 _atom_site_symmetry_multiplicity
 _atom_site_fract_x
 _atom_site_fract_y
 _atom_site_fract_z
 _atom_site_occupancy
  Pr  Pr0  1  0.62004000  0.00000000  0.25000000  1
  Pr  Pr1  1  0.37996000  0.00000000  0.75000000  1
  Pr  Pr2  1  0.00000000  0.62004000  0.25000000  1
  Pr  Pr3  1  0.00000000  0.37996000  0.75000000  1
  Pr  Pr4  1  0.37996000  0.37996000  0.25000000  1
  Pr  Pr5  1  0.62004000  0.62004000  0.75000000  1
  Nb  Nb0  1  0.00000000  0.00000000  0.00000000  1
  Nb  Nb1  1  0.00000000  0.00000000  0.50000000  1
  Sb  Sb0  1  0.25945600  0.00000000  0.25000000  1
  Sb  Sb1  1  0.74054400  0.00000000  0.75000000  1
  Sb  Sb2  1  0.00000000  0.25945600  0.25000000  1
  Sb  Sb3  1  0.00000000  0.74054400  0.75000000  1
  Sb  Sb4  1  0.74054400  0.74054400  0.25000000  1
  Sb  Sb5  1  0.25945600  0.25945600  0.75000000  1
  Sb  Sb6  1  0.33333300  0.66666700  0.00000000  1
  Sb  Sb7  1  0.66666700  0.33333300  0.00000000  1
  Sb  Sb8  1  0.66666700  0.33333300  0.50000000  1
  Sb  Sb9  1  0.33333300  0.66666700  0.50000000  1
loop_
_geom_bond_atom_site_label_1
_geom_bond_atom_site_label_2
_geom_bond_distance
_geom_bond_site_symmetry_2
Pr0 Sb2 3.199244 1_655
Pr0 Sb4 3.199244 1_545
Pr0 Sb1 3.341609 1_554
Pr0 Sb1 3.341609 1_555
Pr0 Sb7 3.362755 1_555
Pr0 Sb8 3.362755 1_555
Pr0 Sb6 3.362759 1_545
Pr0 Sb9 3.362759 1_545
Pr0 Sb0 3.430162 1_555
Pr1 Sb3 3.199244 1_545
Pr1 Sb5 3.199244 1_555
Pr1 Sb0 3.341609 1_556
Pr1 Sb0 3.341609 1_555
Pr1 Sb6 3.362755 1_546
Pr1 Sb9 3.362755 1_545
Pr1 Sb7 3.362759 1_556
Pr1 Sb8 3.362759 1_555
Pr1 Sb1 3.430162 1_555
Pr2 Sb0 3.199244 1_565
Pr2 Sb4 3.199244 1_455
Pr2 Sb3 3.341609 1_554
Pr2 Sb3 3.341609 1_555
Pr2 Sb9 3.362755 1_555
Pr2 Sb6 3.362755 1_555
Pr2 Sb7 3.362759 1_455
Pr2 Sb8 3.362759 1_455
Pr2 Sb2 3.430162 1_555
Pr3 Sb1 3.199244 1_455
Pr3 Sb5 3.199244 1_555
Pr3 Sb2 3.341609 1_555
Pr3 Sb2 3.341609 1_556
Pr3 Sb8 3.362755 1_455
Pr3 Sb7 3.362755 1_456
Pr3 Sb9 3.362759 1_555
Pr3 Sb6 3.362759 1_556
Pr3 Sb3 3.430162 1_555
Pr4 Sb2 3.199244 1_555
Pr4 Sb0 3.199244 1_555
Pr4 Sb5 3.341609 1_554
Pr4 Sb5 3.341609 1_555
Pr4 Sb7 3.362764 1_555
Pr4 Sb8 3.362764 1_555
Pr4 Sb9 3.362764 1_555
Pr4 Sb6 3.362764 1_555
Pr4 Sb4 3.430162 1_555
Pr5 Sb3 3.199244 1_655
Pr5 Sb1 3.199244 1_565
Pr5 Sb4 3.341609 1_556
Pr5 Sb4 3.341609 1_555
Pr5 Sb7 3.362764 1_556
Pr5 Sb9 3.362764 1_555
Pr5 Sb8 3.362764 1_555
Pr5 Sb6 3.362764 1_556
Pr5 Sb5 3.430162 1_555
Nb0 Sb5 2.924866 1_554
Nb0 Sb4 2.924866 1_445
Nb0 Sb2 2.924866 1_555
Nb0 Sb0 2.924866 1_555
Nb0 Sb1 2.924866 1_454
Nb0 Sb3 2.924866 1_544
Nb1 Sb5 2.924866 1_555
Nb1 Sb4 2.924866 1_445
Nb1 Sb2 2.924866 1_555
Nb1 Sb0 2.924866 1_555
Nb1 Sb3 2.924866 1_545
Nb1 Sb1 2.924866 1_455
Sb6 Sb9 3.138834 1_555
Sb6 Sb9 3.138834 1_554
Sb7 Sb8 3.138834 1_554
Sb7 Sb8 3.138834 1_555
