# generated using pymatgen
data_Sm(Mn2Ni)4
_symmetry_space_group_name_H-M   'P 1'
_cell_length_a   4.83593500
_cell_length_b   6.45204587
_cell_length_c   6.45204587
_cell_angle_alpha   81.92641087
_cell_angle_beta   67.99053623
_cell_angle_gamma   67.99053623
_symmetry_Int_Tables_number   1
_chemical_formula_structural   Sm(Mn2Ni)4
_chemical_formula_sum   'Sm1 Mn8 Ni4'
_cell_volume   173.04102921
_cell_formula_units_Z   1
loop_
 _symmetry_equiv_pos_site_id
 _symmetry_equiv_pos_as_xyz
  1  'x, y, z'
loop_
 _atom_site_type_symbol
 _atom_site_label
 _atom_site_symmetry_multiplicity
 _atom_site_fract_x
 _atom_site_fract_y
 _atom_site_fract_z
 _atom_site_occupancy
  Sm  Sm0  1  0.00000000  0.00000000  0.00000000  1
  Mn  Mn0  1  0.00000000  0.00000000  0.50000000  1
  Mn  Mn1  1  0.50000000  0.00000000  0.50000000  1
  Mn  Mn2  1  0.50000000  0.50000000  0.00000000  1
  Mn  Mn3  1  0.00000000  0.50000000  0.00000000  1
  Mn  Mn4  1  0.50000000  0.76126400  0.23873600  1
  Mn  Mn5  1  0.50000000  0.23873600  0.76126400  1
  Mn  Mn6  1  0.73873600  0.76126400  0.76126400  1
  Mn  Mn7  1  0.26126400  0.23873600  0.23873600  1
  Ni  Ni0  1  0.00000000  0.34919000  0.65081000  1
  Ni  Ni1  1  0.00000000  0.65081000  0.34919000  1
  Ni  Ni2  1  0.65081000  0.34919000  0.34919000  1
  Ni  Ni3  1  0.34919000  0.65081000  0.65081000  1
loop_
_geom_bond_atom_site_label_1
_geom_bond_atom_site_label_2
_geom_bond_distance
_geom_bond_site_symmetry_2
Mn0 Mn1 2.417968 1_555
Mn0 Mn1 2.417968 1_455
Mn0 Mn6 2.437932 1_445
Mn0 Mn7 2.437932 1_555
Mn0 Mn4 2.437932 1_545
Mn0 Mn5 2.437932 1_455
Mn0 Ni0 2.576535 1_555
Mn0 Ni1 2.576535 1_545
Mn0 Ni2 2.576535 1_455
Mn0 Ni3 2.576535 1_545
Mn0 Sm0 3.226023 1_555
Mn0 Sm0 3.226023 1_556
Mn1 Mn4 2.437932 1_545
Mn1 Mn5 2.437932 1_555
Mn1 Mn7 2.437932 1_555
Mn1 Mn6 2.437932 1_545
Mn1 Ni2 2.576535 1_555
Mn1 Ni3 2.576535 1_545
Mn1 Ni0 2.576535 1_555
Mn1 Ni1 2.576535 1_645
Mn1 Sm0 3.226023 1_655
Mn1 Sm0 3.226023 1_556
Mn2 Mn3 2.417968 1_555
Mn2 Mn3 2.417968 1_655
Mn2 Mn5 2.437932 1_554
Mn2 Mn4 2.437932 1_555
Mn2 Mn7 2.437932 1_555
Mn2 Mn6 2.437932 1_554
Mn2 Ni2 2.576535 1_555
Mn2 Ni3 2.576535 1_554
Mn2 Ni0 2.576535 1_654
Mn2 Ni1 2.576535 1_555
Mn2 Sm0 3.226023 1_655
Mn2 Sm0 3.226023 1_565
Mn3 Mn6 2.437932 1_454
Mn3 Mn7 2.437932 1_555
Mn3 Mn5 2.437932 1_554
Mn3 Mn4 2.437932 1_455
Mn3 Ni0 2.576535 1_554
Mn3 Ni1 2.576535 1_555
Mn3 Ni2 2.576535 1_455
Mn3 Ni3 2.576535 1_554
Mn3 Sm0 3.226023 1_555
Mn3 Sm0 3.226023 1_565
Mn4 Ni3 2.551973 1_555
Mn4 Ni2 2.551973 1_555
Mn4 Ni1 2.592231 1_655
Mn4 Ni1 2.592231 1_555
Mn4 Mn6 2.856158 1_554
Mn4 Mn7 2.856158 1_565
Mn4 Sm0 3.150458 1_665
Mn4 Sm0 3.150458 1_565
Mn5 Ni3 2.551973 1_555
Mn5 Ni2 2.551973 1_555
Mn5 Ni0 2.592231 1_555
Mn5 Ni0 2.592231 1_655
Mn5 Mn7 2.856158 1_556
Mn5 Mn6 2.856158 1_545
Mn5 Sm0 3.150458 1_556
Mn5 Sm0 3.150458 1_656
Mn6 Ni0 2.551973 1_655
Mn6 Ni1 2.551973 1_655
Mn6 Ni3 2.592231 1_555
Mn6 Ni3 2.592231 1_655
Mn6 Sm0 3.150458 1_666
Mn6 Sm0 3.150458 1_566
Mn7 Ni1 2.551973 1_555
Mn7 Ni0 2.551973 1_555
Mn7 Ni2 2.592231 1_555
Mn7 Ni2 2.592231 1_455
Mn7 Sm0 3.150458 1_555
Mn7 Sm0 3.150458 1_655
Ni0 Ni1 2.551582 1_555
Ni0 Sm0 2.954004 1_556
Ni1 Sm0 2.954004 1_565
Ni2 Ni3 2.551582 1_555
Ni2 Sm0 2.954004 1_655
Ni3 Sm0 2.954004 1_566
