# generated using pymatgen
data_YRh5
_symmetry_space_group_name_H-M   'P 1'
_cell_length_a   4.33105200
_cell_length_b   5.25319584
_cell_length_c   5.25319584
_cell_angle_alpha   119.99999796
_cell_angle_beta   90.00000000
_cell_angle_gamma   90.00000000
_symmetry_Int_Tables_number   1
_chemical_formula_structural   YRh5
_chemical_formula_sum   'Y1 Rh5'
_cell_volume   103.50735757
_cell_formula_units_Z   1
loop_
 _symmetry_equiv_pos_site_id
 _symmetry_equiv_pos_as_xyz
  1  'x, y, z'
loop_
 _atom_site_type_symbol
 _atom_site_label
 _atom_site_symmetry_multiplicity
 _atom_site_fract_x
 _atom_site_fract_y
 _atom_site_fract_z
 _atom_site_occupancy
  Y  Y0  1  0.00000000  0.00000000  0.00000000  1
  Rh  Rh0  1  0.00000000  0.66666700  0.33333300  1
  Rh  Rh1  1  0.50000000  0.00000000  0.50000000  1
  Rh  Rh2  1  0.50000000  0.50000000  0.50000000  1
  Rh  Rh3  1  0.50000000  0.50000000  0.00000000  1
  Rh  Rh4  1  0.00000000  0.33333300  0.66666700  1
loop_
_geom_bond_atom_site_label_1
_geom_bond_atom_site_label_2
_geom_bond_distance
_geom_bond_site_symmetry_2
Rh0 Rh1 2.643704 1_565
Rh0 Rh3 2.643704 1_555
Rh0 Rh3 2.643704 1_455
Rh0 Rh1 2.643704 1_465
Rh0 Rh2 2.643707 1_555
Rh0 Rh2 2.643707 1_455
Rh0 Y0 3.032931 1_565
Rh0 Rh4 3.032931 1_554
Rh0 Rh4 3.032931 1_565
Rh0 Y0 3.032936 1_555
Rh0 Y0 3.032936 1_566
Rh0 Rh4 3.032940 1_555
Rh1 Rh2 2.626598 1_545
Rh1 Rh2 2.626598 1_555
Rh1 Rh3 2.626598 1_556
Rh1 Rh3 2.626598 1_545
Rh1 Rh4 2.643704 1_655
Rh1 Rh4 2.643704 1_555
Rh1 Y0 3.404191 1_556
Rh1 Y0 3.404191 1_555
Rh1 Y0 3.404191 1_656
Rh1 Y0 3.404191 1_655
Rh2 Rh3 2.626598 1_555
Rh2 Rh3 2.626598 1_556
Rh2 Rh4 2.643707 1_655
Rh2 Rh4 2.643707 1_555
Rh2 Y0 3.404192 1_655
Rh2 Y0 3.404192 1_666
Rh2 Y0 3.404192 1_555
Rh2 Y0 3.404192 1_566
Rh3 Rh4 2.643704 1_654
Rh3 Rh4 2.643704 1_554
Rh3 Y0 3.404191 1_555
Rh3 Y0 3.404191 1_565
Rh3 Y0 3.404191 1_665
Rh3 Y0 3.404191 1_655
Rh4 Y0 3.032931 1_556
Rh4 Y0 3.032936 1_566
Rh4 Y0 3.032936 1_555
