# generated using pymatgen
data_Mg(FeS2)4
_symmetry_space_group_name_H-M   'P 1'
_cell_length_a   6.77277848
_cell_length_b   6.77277848
_cell_length_c   6.77277875
_cell_angle_alpha   59.67809981
_cell_angle_beta   59.67809981
_cell_angle_gamma   59.67809289
_symmetry_Int_Tables_number   1
_chemical_formula_structural   Mg(FeS2)4
_chemical_formula_sum   'Mg1 Fe4 S8'
_cell_volume   218.07103322
_cell_formula_units_Z   1
loop_
 _symmetry_equiv_pos_site_id
 _symmetry_equiv_pos_as_xyz
  1  'x, y, z'
loop_
 _atom_site_type_symbol
 _atom_site_label
 _atom_site_symmetry_multiplicity
 _atom_site_fract_x
 _atom_site_fract_y
 _atom_site_fract_z
 _atom_site_occupancy
  Mg  Mg0  1  0.00000000  0.00000000  0.00000000  1
  Fe  Fe0  1  0.50000000  0.50000000  0.50000000  1
  Fe  Fe1  1  0.00000000  0.50000000  0.50000000  1
  Fe  Fe2  1  0.50000000  0.00000000  0.50000000  1
  Fe  Fe3  1  0.50000000  0.50000000  0.00000000  1
  S  S0  1  0.26222400  0.71755200  0.26222400  1
  S  S1  1  0.71755200  0.26222400  0.26222400  1
  S  S2  1  0.26222400  0.26222400  0.71755200  1
  S  S3  1  0.25935000  0.25935000  0.25935000  1
  S  S4  1  0.74065000  0.74065000  0.74065000  1
  S  S5  1  0.28244800  0.73777600  0.73777600  1
  S  S6  1  0.73777600  0.73777600  0.28244800  1
  S  S7  1  0.73777600  0.28244800  0.73777600  1
loop_
_geom_bond_atom_site_label_1
_geom_bond_atom_site_label_2
_geom_bond_distance
_geom_bond_site_symmetry_2
Mg0 S5 2.508314 1_544
Mg0 S7 2.508314 1_454
Mg0 S0 2.508314 1_545
Mg0 S1 2.508314 1_455
Mg0 S6 2.508314 1_445
Mg0 S2 2.508314 1_554
Fe0 S5 2.276984 1_555
Fe0 S0 2.276984 1_555
Fe0 S7 2.276984 1_555
Fe0 S1 2.276984 1_555
Fe0 S2 2.276984 1_555
Fe0 S6 2.276984 1_555
Fe1 S2 2.297178 1_555
Fe1 S6 2.297178 1_455
Fe1 S0 2.297178 1_555
Fe1 S7 2.297178 1_455
Fe1 S3 2.301992 1_555
Fe1 S4 2.301992 1_455
Fe2 S2 2.297178 1_555
Fe2 S6 2.297178 1_545
Fe2 S1 2.297178 1_555
Fe2 S5 2.297178 1_545
Fe2 S3 2.301992 1_555
Fe2 S4 2.301992 1_545
Fe3 S1 2.297178 1_555
Fe3 S0 2.297178 1_555
Fe3 S5 2.297178 1_554
Fe3 S7 2.297178 1_554
Fe3 S3 2.301992 1_555
Fe3 S4 2.301992 1_554
