# generated using pymatgen
data_Ti5Al11
_symmetry_space_group_name_H-M   'P 1'
_cell_length_a   3.90683164
_cell_length_b   3.90683164
_cell_length_c   16.40950586
_cell_angle_alpha   90.00000000
_cell_angle_beta   90.00000000
_cell_angle_gamma   90.00000000
_symmetry_Int_Tables_number   1
_chemical_formula_structural   Ti5Al11
_chemical_formula_sum   'Ti5 Al11'
_cell_volume   250.46375991
_cell_formula_units_Z   1
loop_
 _symmetry_equiv_pos_site_id
 _symmetry_equiv_pos_as_xyz
  1  'x, y, z'
loop_
 _atom_site_type_symbol
 _atom_site_label
 _atom_site_symmetry_multiplicity
 _atom_site_fract_x
 _atom_site_fract_y
 _atom_site_fract_z
 _atom_site_occupancy
  Ti  Ti0  1  0.50000000  0.50000000  0.37641989  1
  Ti  Ti1  1  0.00000000  -0.00000000  0.87959604  1
  Ti  Ti2  1  0.00000000  -0.00000000  0.11914919  1
  Ti  Ti3  1  0.50000000  0.50000000  0.61679206  1
  Ti  Ti4  1  0.50000000  0.50000000  0.13379091  1
  Al  Al0  1  0.50000000  -0.00000000  0.00193078  1
  Al  Al1  1  0.00000000  0.50000000  0.49844789  1
  Al  Al2  1  0.50000000  -0.00000000  0.49844789  1
  Al  Al3  1  0.00000000  0.50000000  0.00193078  1
  Al  Al4  1  -0.00000000  0.50000000  0.25000873  1
  Al  Al5  1  0.50000000  -0.00000000  0.74939139  1
  Al  Al6  1  0.50000000  0.00000000  0.25000873  1
  Al  Al7  1  0.00000000  0.50000000  0.74939139  1
  Al  Al8  1  0.00000000  -0.00000000  0.62450941  1
  Al  Al9  1  0.00000000  -0.00000000  0.37426049  1
  Al  Al10  1  0.50000000  0.50000000  0.87592541  1
loop_
_geom_bond_atom_site_label_1
_geom_bond_atom_site_label_2
_geom_bond_distance
_geom_bond_site_symmetry_2
Ti2 Ti4 2.772976 1_555
Ti2 Ti4 2.772976 1_445
Ti2 Ti4 2.772976 1_545
Ti2 Ti4 2.772976 1_455
Al0 Ti2 2.741472 1_555
Al0 Ti2 2.741472 1_655
Al0 Al3 2.762547 1_545
Al0 Al3 2.762547 1_555
Al0 Al3 2.762547 1_655
Al0 Al3 2.762547 1_645
Al0 Ti1 2.801018 1_554
Al0 Ti1 2.801018 1_654
Al0 Al10 2.844496 1_554
Al0 Al10 2.844496 1_544
Al0 Ti4 2.915080 1_545
Al0 Ti4 2.915080 1_555
Al1 Ti3 2.754465 1_455
Al1 Ti3 2.754465 1_555
Al1 Al2 2.762547 1_455
Al1 Al2 2.762547 1_565
Al1 Al2 2.762547 1_555
Al1 Al2 2.762547 1_465
Al1 Ti0 2.797412 1_555
Al1 Ti0 2.797412 1_455
Al1 Al9 2.822885 1_565
Al1 Al9 2.822885 1_555
Al1 Al8 2.845166 1_555
Al1 Al8 2.845166 1_565
Al2 Ti3 2.754465 1_545
Al2 Ti3 2.754465 1_555
Al2 Ti0 2.797412 1_555
Al2 Ti0 2.797412 1_545
Al2 Al9 2.822885 1_655
Al2 Al9 2.822885 1_555
Al2 Al8 2.845166 1_555
Al2 Al8 2.845166 1_655
Al3 Ti2 2.741472 1_555
Al3 Ti2 2.741472 1_565
Al3 Ti1 2.801018 1_554
Al3 Ti1 2.801018 1_564
Al3 Ti4 2.915080 1_455
Al3 Ti4 2.915080 1_555
Al4 Ti4 2.729977 1_455
Al4 Ti4 2.729977 1_555
Al4 Al6 2.762547 1_555
Al4 Al6 2.762547 1_455
Al4 Al6 2.762547 1_465
Al4 Al6 2.762547 1_565
Al4 Al9 2.823648 1_565
Al4 Al9 2.823648 1_555
Al4 Ti0 2.849340 1_455
Al4 Ti0 2.849340 1_555
Al4 Ti2 2.902913 1_555
Al4 Ti2 2.902913 1_565
Al5 Al7 2.762547 1_555
Al5 Al7 2.762547 1_655
Al5 Al7 2.762547 1_545
Al5 Al7 2.762547 1_645
Al5 Al8 2.831124 1_555
Al5 Al8 2.831124 1_655
Al5 Ti1 2.894973 1_655
Al5 Ti1 2.894973 1_555
Al5 Ti3 2.924094 1_555
Al5 Ti3 2.924094 1_545
Al6 Ti4 2.729977 1_555
Al6 Ti4 2.729977 1_545
Al6 Al9 2.823648 1_655
Al6 Al9 2.823648 1_555
Al6 Ti0 2.849340 1_555
Al6 Ti0 2.849340 1_545
Al6 Ti2 2.902913 1_655
Al6 Ti2 2.902913 1_555
Al7 Al8 2.831124 1_555
Al7 Al8 2.831124 1_565
Al7 Ti1 2.894973 1_565
Al7 Ti1 2.894973 1_555
Al7 Ti3 2.924094 1_455
Al7 Ti3 2.924094 1_555
Al8 Ti3 2.765448 1_555
Al8 Ti3 2.765448 1_545
Al8 Ti3 2.765448 1_445
Al8 Ti3 2.765448 1_455
Al9 Ti0 2.762774 1_555
Al9 Ti0 2.762774 1_545
Al9 Ti0 2.762774 1_445
Al9 Ti0 2.762774 1_455
Al10 Ti1 2.763204 1_565
Al10 Ti1 2.763204 1_655
Al10 Ti1 2.763204 1_665
Al10 Ti1 2.763204 1_555
Al10 Al3 2.844496 1_556
Al10 Al3 2.844496 1_656
Al10 Al7 2.850808 1_555
Al10 Al5 2.850808 1_565
Al10 Al5 2.850808 1_555
Al10 Al7 2.850808 1_655
