# generated using pymatgen
data_MoP2H18(C3Cl)2
_symmetry_space_group_name_H-M   'P 1'
_cell_length_a   13.06563937
_cell_length_b   13.06563937
_cell_length_c   21.18061413
_cell_angle_alpha   90.00000000
_cell_angle_beta   90.00000000
_cell_angle_gamma   90.00000000
_symmetry_Int_Tables_number   1
_chemical_formula_structural   MoP2H18(C3Cl)2
_chemical_formula_sum   'Mo8 P16 H144 C48 Cl16'
_cell_volume   3615.76238158
_cell_formula_units_Z   8
loop_
 _symmetry_equiv_pos_site_id
 _symmetry_equiv_pos_as_xyz
  1  'x, y, z'
loop_
 _atom_site_type_symbol
 _atom_site_label
 _atom_site_symmetry_multiplicity
 _atom_site_fract_x
 _atom_site_fract_y
 _atom_site_fract_z
 _atom_site_occupancy
  Mo  Mo0  1  0.24721208  0.32189399  0.23620374  1
  Mo  Mo1  1  0.75278792  0.67810601  0.73620374  1
  Mo  Mo2  1  0.82189399  0.25278792  0.48620374  1
  Mo  Mo3  1  0.17810601  0.74721208  0.98620374  1
  Mo  Mo4  1  0.67810601  0.75278792  0.26379626  1
  Mo  Mo5  1  0.32189399  0.24721208  0.76379626  1
  Mo  Mo6  1  0.25278792  0.82189399  0.51379626  1
  Mo  Mo7  1  0.74721208  0.17810601  0.01379626  1
  P  P0  1  0.12390353  0.21080411  0.17481420  1
  P  P1  1  0.87609647  0.78919589  0.67481420  1
  P  P2  1  0.71080411  0.37609647  0.42481420  1
  P  P3  1  0.28919589  0.62390353  0.92481420  1
  P  P4  1  0.78919589  0.87609647  0.32518580  1
  P  P5  1  0.21080411  0.12390353  0.82518580  1
  P  P6  1  0.37609647  0.71080411  0.57518580  1
  P  P7  1  0.62390353  0.28919589  0.07518580  1
  P  P8  1  0.21991401  0.43750350  0.33032018  1
  P  P9  1  0.78008599  0.56249650  0.83032018  1
  P  P10  1  0.93750350  0.28008599  0.58032018  1
  P  P11  1  0.06249650  0.71991401  0.08032018  1
  P  P12  1  0.56249650  0.78008599  0.16967982  1
  P  P13  1  0.43750350  0.21991401  0.66967982  1
  P  P14  1  0.28008599  0.93750350  0.41967982  1
  P  P15  1  0.71991401  0.06249650  0.91967982  1
  H  H0  1  0.20764797  0.19478214  0.07247184  1
  H  H1  1  0.79235203  0.80521786  0.57247184  1
  H  H2  1  0.69478214  0.29235203  0.32247184  1
  H  H3  1  0.30521786  0.70764797  0.82247184  1
  H  H4  1  0.80521786  0.79235203  0.42752816  1
  H  H5  1  0.19478214  0.20764797  0.92752816  1
  H  H6  1  0.29235203  0.69478214  0.67752816  1
  H  H7  1  0.70764797  0.30521786  0.17752816  1
  H  H8  1  0.09282736  0.26788474  0.06709904  1
  H  H9  1  0.90717264  0.73211526  0.56709904  1
  H  H10  1  0.76788474  0.40717264  0.31709904  1
  H  H11  1  0.23211526  0.59282736  0.81709904  1
  H  H12  1  0.73211526  0.90717264  0.43290096  1
  H  H13  1  0.26788474  0.09282736  0.93290096  1
  H  H14  1  0.40717264  0.76788474  0.68290096  1
  H  H15  1  0.59282736  0.23211526  0.18290096  1
  H  H16  1  0.08603795  0.13138051  0.07168636  1
  H  H17  1  0.91396205  0.86861949  0.57168636  1
  H  H18  1  0.63138051  0.41396205  0.32168636  1
  H  H19  1  0.36861949  0.58603795  0.82168636  1
  H  H20  1  0.86861949  0.91396205  0.42831364  1
  H  H21  1  0.13138051  0.08603795  0.92831364  1
  H  H22  1  0.41396205  0.63138051  0.67831364  1
  H  H23  1  0.58603795  0.36861949  0.17831364  1
  H  H24  1  0.99913601  0.33899476  0.20921987  1
  H  H25  1  0.00086399  0.66100524  0.70921987  1
  H  H26  1  0.83899476  0.50086399  0.45921987  1
  H  H27  1  0.16100524  0.49913601  0.95921987  1
  H  H28  1  0.66100524  0.00086399  0.29078013  1
  H  H29  1  0.33899476  0.99913601  0.79078013  1
  H  H30  1  0.50086399  0.83899476  0.54078013  1
  H  H31  1  0.49913601  0.16100524  0.04078013  1
  H  H32  1  0.95379001  0.21321113  0.22484473  1
  H  H33  1  0.04620999  0.78678887  0.72484473  1
  H  H34  1  0.71321113  0.54620999  0.47484473  1
  H  H35  1  0.28678887  0.45379001  0.97484473  1
  H  H36  1  0.78678887  0.04620999  0.27515527  1
  H  H37  1  0.21321113  0.95379001  0.77515527  1
  H  H38  1  0.54620999  0.71321113  0.52515527  1
  H  H39  1  0.45379001  0.28678887  0.02515527  1
  H  H40  1  0.94811179  0.26353509  0.14648091  1
  H  H41  1  0.05188821  0.73646491  0.64648091  1
  H  H42  1  0.76353509  0.55188821  0.39648091  1
  H  H43  1  0.23646491  0.44811179  0.89648091  1
  H  H44  1  0.73646491  0.05188821  0.35351909  1
  H  H45  1  0.26353509  0.94811179  0.85351909  1
  H  H46  1  0.55188821  0.76353509  0.60351909  1
  H  H47  1  0.44811179  0.23646491  0.10351909  1
  H  H48  1  0.12558586  0.07769572  0.25379145  1
  H  H49  1  0.87441414  0.92230428  0.75379145  1
  H  H50  1  0.57769572  0.37441414  0.50379145  1
  H  H51  1  0.42230428  0.62558586  0.00379145  1
  H  H52  1  0.92230428  0.87441414  0.24620855  1
  H  H53  1  0.07769572  0.12558586  0.74620855  1
  H  H54  1  0.37441414  0.57769572  0.49620855  1
  H  H55  1  0.62558586  0.42230428  0.99620855  1
  H  H56  1  0.17884094  0.03303039  0.18174370  1
  H  H57  1  0.82115906  0.96696961  0.68174370  1
  H  H58  1  0.53303039  0.32115906  0.43174370  1
  H  H59  1  0.46696961  0.67884094  0.93174370  1
  H  H60  1  0.96696961  0.82115906  0.31825630  1
  H  H61  1  0.03303039  0.17884094  0.81825630  1
  H  H62  1  0.32115906  0.53303039  0.56825630  1
  H  H63  1  0.67884094  0.46696961  0.06825630  1
  H  H64  1  0.04220877  0.04234889  0.18990720  1
  H  H65  1  0.95779123  0.95765111  0.68990720  1
  H  H66  1  0.54234889  0.45779123  0.43990720  1
  H  H67  1  0.45765111  0.54220877  0.93990720  1
  H  H68  1  0.95765111  0.95779123  0.31009280  1
  H  H69  1  0.04234889  0.04220877  0.81009280  1
  H  H70  1  0.45779123  0.54234889  0.56009280  1
  H  H71  1  0.54220877  0.45765111  0.06009280  1
  H  H72  1  0.30806664  0.38302092  0.42624336  1
  H  H73  1  0.69193336  0.61697908  0.92624336  1
  H  H74  1  0.88302092  0.19193336  0.67624336  1
  H  H75  1  0.11697908  0.80806664  0.17624336  1
  H  H76  1  0.61697908  0.69193336  0.07375664  1
  H  H77  1  0.38302092  0.30806664  0.57375664  1
  H  H78  1  0.19193336  0.88302092  0.32375664  1
  H  H79  1  0.80806664  0.11697908  0.82375664  1
  H  H80  1  0.20408613  0.30069871  0.40687115  1
  H  H81  1  0.79591387  0.69930129  0.90687115  1
  H  H82  1  0.80069871  0.29591387  0.65687115  1
  H  H83  1  0.19930129  0.70408613  0.15687115  1
  H  H84  1  0.69930129  0.79591387  0.09312885  1
  H  H85  1  0.30069871  0.20408613  0.59312885  1
  H  H86  1  0.29591387  0.80069871  0.34312885  1
  H  H87  1  0.70408613  0.19930129  0.84312885  1
  H  H88  1  0.17934327  0.42151338  0.44314277  1
  H  H89  1  0.82065673  0.57848662  0.94314277  1
  H  H90  1  0.92151338  0.32065673  0.69314277  1
  H  H91  1  0.07848662  0.67934327  0.19314277  1
  H  H92  1  0.57848662  0.82065673  0.05685723  1
  H  H93  1  0.42151338  0.17934327  0.55685723  1
  H  H94  1  0.32065673  0.92151338  0.30685723  1
  H  H95  1  0.67934327  0.07848662  0.80685723  1
  H  H96  1  0.03705795  0.42239918  0.34780765  1
  H  H97  1  0.96294205  0.57760082  0.84780765  1
  H  H98  1  0.92239918  0.46294205  0.59780765  1
  H  H99  1  0.07760082  0.53705795  0.09780765  1
  H  H100  1  0.57760082  0.96294205  0.15219235  1
  H  H101  1  0.42239918  0.03705795  0.65219235  1
  H  H102  1  0.46294205  0.92239918  0.40219235  1
  H  H103  1  0.53705795  0.07760082  0.90219235  1
  H  H104  1  0.06300613  0.49733987  0.27915297  1
  H  H105  1  0.93699387  0.50266013  0.77915297  1
  H  H106  1  0.99733987  0.43699387  0.52915297  1
  H  H107  1  0.00266013  0.56300613  0.02915297  1
  H  H108  1  0.50266013  0.93699387  0.22084703  1
  H  H109  1  0.49733987  0.06300613  0.72084703  1
  H  H110  1  0.43699387  0.99733987  0.47084703  1
  H  H111  1  0.56300613  0.00266013  0.97084703  1
  H  H112  1  0.07723329  0.55264055  0.35607236  1
  H  H113  1  0.92276671  0.44735945  0.85607236  1
  H  H114  1  0.05264055  0.42276671  0.60607236  1
  H  H115  1  0.94735945  0.57723329  0.10607236  1
  H  H116  1  0.44735945  0.92276671  0.14392764  1
  H  H117  1  0.55264055  0.07723329  0.64392764  1
  H  H118  1  0.42276671  0.05264055  0.39392764  1
  H  H119  1  0.57723329  0.94735945  0.89392764  1
  H  H120  1  0.29708830  0.59052467  0.28820901  1
  H  H121  1  0.70291170  0.40947533  0.78820901  1
  H  H122  1  0.09052467  0.20291170  0.53820901  1
  H  H123  1  0.90947533  0.79708830  0.03820901  1
  H  H124  1  0.40947533  0.70291170  0.21179099  1
  H  H125  1  0.59052467  0.29708830  0.71179099  1
  H  H126  1  0.20291170  0.09052467  0.46179099  1
  H  H127  1  0.79708830  0.90947533  0.96179099  1
  H  H128  1  0.37459862  0.53617516  0.34818124  1
  H  H129  1  0.62540138  0.46382484  0.84818124  1
  H  H130  1  0.03617516  0.12540138  0.59818124  1
  H  H131  1  0.96382484  0.87459862  0.09818124  1
  H  H132  1  0.46382484  0.62540138  0.15181876  1
  H  H133  1  0.53617516  0.37459862  0.65181876  1
  H  H134  1  0.12540138  0.03617516  0.40181876  1
  H  H135  1  0.87459862  0.96382484  0.90181876  1
  H  H136  1  0.26349387  0.60888979  0.36985125  1
  H  H137  1  0.73650613  0.39111021  0.86985125  1
  H  H138  1  0.10888979  0.23650613  0.61985125  1
  H  H139  1  0.89111021  0.76349387  0.11985125  1
  H  H140  1  0.39111021  0.73650613  0.13014875  1
  H  H141  1  0.60888979  0.26349387  0.63014875  1
  H  H142  1  0.23650613  0.10888979  0.38014875  1
  H  H143  1  0.76349387  0.89111021  0.88014875  1
  C  C0  1  0.12770405  0.19936120  0.08826589  1
  C  C1  1  0.87229595  0.80063880  0.58826589  1
  C  C2  1  0.69936120  0.37229595  0.33826589  1
  C  C3  1  0.30063880  0.62770405  0.83826589  1
  C  C4  1  0.80063880  0.87229595  0.41173411  1
  C  C5  1  0.19936120  0.12770405  0.91173411  1
  C  C6  1  0.37229595  0.69936120  0.66173411  1
  C  C7  1  0.62770405  0.30063880  0.16173411  1
  C  C8  1  0.99363243  0.26116731  0.19007129  1
  C  C9  1  0.00636757  0.73883269  0.69007129  1
  C  C10  1  0.76116731  0.50636757  0.44007129  1
  C  C11  1  0.23883269  0.49363243  0.94007129  1
  C  C12  1  0.73883269  0.00636757  0.30992871  1
  C  C13  1  0.26116731  0.99363243  0.80992871  1
  C  C14  1  0.50636757  0.76116731  0.55992871  1
  C  C15  1  0.49363243  0.23883269  0.05992871  1
  C  C16  1  0.11586727  0.07784159  0.20229080  1
  C  C17  1  0.88413273  0.92215841  0.70229080  1
  C  C18  1  0.57784159  0.38413273  0.45229080  1
  C  C19  1  0.42215841  0.61586727  0.95229080  1
  C  C20  1  0.92215841  0.88413273  0.29770920  1
  C  C21  1  0.07784159  0.11586727  0.79770920  1
  C  C22  1  0.38413273  0.57784159  0.54770920  1
  C  C23  1  0.61586727  0.42215841  0.04770920  1
  C  C24  1  0.22868975  0.38069501  0.40960639  1
  C  C25  1  0.77131025  0.61930499  0.90960639  1
  C  C26  1  0.88069501  0.27131025  0.65960639  1
  C  C27  1  0.11930499  0.72868975  0.15960639  1
  C  C28  1  0.61930499  0.77131025  0.09039361  1
  C  C29  1  0.38069501  0.22868975  0.59039361  1
  C  C30  1  0.27131025  0.88069501  0.34039361  1
  C  C31  1  0.72868975  0.11930499  0.84039361  1
  C  C32  1  0.08624366  0.48245578  0.32795147  1
  C  C33  1  0.91375634  0.51754422  0.82795147  1
  C  C34  1  0.98245578  0.41375634  0.57795147  1
  C  C35  1  0.01754422  0.58624366  0.07795147  1
  C  C36  1  0.51754422  0.91375634  0.17204853  1
  C  C37  1  0.48245578  0.08624366  0.67204853  1
  C  C38  1  0.41375634  0.98245578  0.42204853  1
  C  C39  1  0.58624366  0.01754422  0.92204853  1
  C  C40  1  0.29571387  0.55522084  0.33510382  1
  C  C41  1  0.70428613  0.44477916  0.83510382  1
  C  C42  1  0.05522084  0.20428613  0.58510382  1
  C  C43  1  0.94477916  0.79571387  0.08510382  1
  C  C44  1  0.44477916  0.70428613  0.16489618  1
  C  C45  1  0.55522084  0.29571387  0.66489618  1
  C  C46  1  0.20428613  0.05522084  0.41489618  1
  C  C47  1  0.79571387  0.94477916  0.91489618  1
  Cl  Cl0  1  0.34373610  0.18873815  0.28630061  1
  Cl  Cl1  1  0.65626390  0.81126185  0.78630061  1
  Cl  Cl2  1  0.68873815  0.15626390  0.53630061  1
  Cl  Cl3  1  0.31126185  0.84373610  0.03630061  1
  Cl  Cl4  1  0.81126185  0.65626390  0.21369939  1
  Cl  Cl5  1  0.18873815  0.34373610  0.71369939  1
  Cl  Cl6  1  0.15626390  0.68873815  0.46369939  1
  Cl  Cl7  1  0.84373610  0.31126185  0.96369939  1
  Cl  Cl8  1  0.24578525  0.45950333  0.16143106  1
  Cl  Cl9  1  0.75421475  0.54049667  0.66143106  1
  Cl  Cl10  1  0.95950333  0.25421475  0.41143106  1
  Cl  Cl11  1  0.04049667  0.74578525  0.91143106  1
  Cl  Cl12  1  0.54049667  0.75421475  0.33856894  1
  Cl  Cl13  1  0.45950333  0.24578525  0.83856894  1
  Cl  Cl14  1  0.25421475  0.95950333  0.58856894  1
  Cl  Cl15  1  0.74578525  0.04049667  0.08856894  1
loop_
_geom_bond_atom_site_label_1
_geom_bond_atom_site_label_2
_geom_bond_distance
_geom_bond_site_symmetry_2
Mo0 P8 2.526396 1_555
Mo0 P0 2.528457 1_555
Mo1 P9 2.526396 1_555
Mo1 P1 2.528457 1_555
Mo2 P10 2.526396 1_555
Mo2 P2 2.528457 1_555
Mo3 P11 2.526396 1_556
Mo3 P3 2.528457 1_555
Mo4 P12 2.526396 1_555
Mo4 P4 2.528457 1_555
Mo5 P13 2.526396 1_555
Mo5 P5 2.528457 1_555
Mo6 P14 2.526396 1_555
Mo6 P6 2.528457 1_555
Mo7 P15 2.526396 1_554
Mo7 P7 2.528457 1_555
C0 H0 1.098411 1_555
C0 H16 1.099364 1_555
C0 H8 1.100098 1_555
C0 P0 1.839903 1_555
C1 H1 1.098411 1_555
C1 H17 1.099364 1_555
C1 H9 1.100098 1_555
C1 P1 1.839903 1_555
C2 H2 1.098411 1_555
C2 H18 1.099364 1_555
C2 H10 1.100098 1_555
C2 P2 1.839903 1_555
C3 H3 1.098411 1_555
C3 H19 1.099364 1_555
C3 H11 1.100098 1_555
C3 P3 1.839903 1_555
C4 H4 1.098411 1_555
C4 H20 1.099364 1_555
C4 H12 1.100098 1_555
C4 P4 1.839903 1_555
C5 H5 1.098411 1_555
C5 H21 1.099364 1_555
C5 H13 1.100098 1_555
C5 P5 1.839903 1_555
C6 H6 1.098411 1_555
C6 H22 1.099364 1_555
C6 H14 1.100098 1_555
C6 P6 1.839903 1_555
C7 H7 1.098411 1_555
C7 H23 1.099364 1_555
C7 H15 1.100098 1_555
C7 P7 1.839903 1_555
C8 H24 1.097124 1_555
C8 H32 1.098206 1_555
C8 H40 1.098691 1_555
C8 P0 1.853237 1_655
C9 H25 1.097124 1_555
C9 H33 1.098206 1_555
C9 H41 1.098691 1_555
C9 P1 1.853237 1_455
C10 H26 1.097124 1_555
C10 H34 1.098206 1_555
C10 H42 1.098691 1_555
C10 P2 1.853237 1_555
C11 H27 1.097124 1_555
C11 H35 1.098206 1_555
C11 H43 1.098691 1_555
C11 P3 1.853237 1_555
C12 H28 1.097124 1_555
C12 H36 1.098206 1_555
C12 H44 1.098691 1_555
C12 P4 1.853237 1_545
C13 H29 1.097124 1_555
C13 H37 1.098206 1_555
C13 H45 1.098691 1_555
C13 P5 1.853237 1_565
C14 H30 1.097124 1_555
C14 H38 1.098206 1_555
C14 H46 1.098691 1_555
C14 P6 1.853237 1_555
C15 H31 1.097124 1_555
C15 H39 1.098206 1_555
C15 H47 1.098691 1_555
C15 P7 1.853237 1_555
C16 H48 1.098183 1_555
C16 H56 1.099627 1_555
C16 H64 1.100024 1_555
C16 P0 1.835135 1_555
C17 H49 1.098183 1_555
C17 H57 1.099627 1_555
C17 H65 1.100024 1_555
C17 P1 1.835135 1_555
C18 H50 1.098183 1_555
C18 H58 1.099627 1_555
C18 H66 1.100024 1_555
C18 P2 1.835135 1_555
C19 H51 1.098183 1_556
C19 H59 1.099627 1_555
C19 H67 1.100024 1_555
C19 P3 1.835135 1_555
C20 H52 1.098183 1_555
C20 H60 1.099627 1_555
C20 H68 1.100024 1_555
C20 P4 1.835135 1_555
C21 H53 1.098183 1_555
C21 H61 1.099627 1_555
C21 H69 1.100024 1_555
C21 P5 1.835135 1_555
C22 H54 1.098183 1_555
C22 H62 1.099627 1_555
C22 H70 1.100024 1_555
C22 P6 1.835135 1_555
C23 H55 1.098183 1_554
C23 H63 1.099627 1_555
C23 H71 1.100024 1_555
C23 P7 1.835135 1_555
C24 H80 1.095054 1_555
C24 H72 1.095761 1_555
C24 H88 1.097578 1_555
C24 P8 1.839624 1_555
C25 H81 1.095054 1_555
C25 H73 1.095761 1_555
C25 H89 1.097578 1_555
C25 P9 1.839624 1_555
C26 H82 1.095054 1_555
C26 H74 1.095761 1_555
C26 H90 1.097578 1_555
C26 P10 1.839624 1_555
C27 H83 1.095054 1_555
C27 H75 1.095761 1_555
C27 H91 1.097578 1_555
C27 P11 1.839624 1_555
C28 H84 1.095054 1_555
C28 H76 1.095761 1_555
C28 H92 1.097578 1_555
C28 P12 1.839624 1_555
C29 H85 1.095054 1_555
C29 H77 1.095761 1_555
C29 H93 1.097578 1_555
C29 P13 1.839624 1_555
C30 H86 1.095054 1_555
C30 H78 1.095761 1_555
C30 H94 1.097578 1_555
C30 P14 1.839624 1_555
C31 H87 1.095054 1_555
C31 H79 1.095761 1_555
C31 H95 1.097578 1_555
C31 P15 1.839624 1_555
C32 H104 1.094665 1_555
C32 H96 1.097991 1_555
C32 H112 1.099784 1_555
C32 P8 1.843284 1_555
C33 H105 1.094665 1_555
C33 H97 1.097991 1_555
C33 H113 1.099784 1_555
C33 P9 1.843284 1_555
C34 H106 1.094665 1_555
C34 H98 1.097991 1_555
C34 H114 1.099784 1_655
C34 P10 1.843284 1_555
C35 H107 1.094665 1_555
C35 H99 1.097991 1_555
C35 H115 1.099784 1_455
C35 P11 1.843284 1_555
C36 H108 1.094665 1_555
C36 H100 1.097991 1_555
C36 H116 1.099784 1_555
C36 P12 1.843284 1_555
C37 H109 1.094665 1_555
C37 H101 1.097991 1_555
C37 H117 1.099784 1_555
C37 P13 1.843284 1_555
C38 H110 1.094665 1_555
C38 H102 1.097991 1_555
C38 H118 1.099784 1_565
C38 P14 1.843284 1_555
C39 H111 1.094665 1_555
C39 H103 1.097991 1_555
C39 H119 1.099784 1_545
C39 P15 1.843284 1_555
C40 H120 1.095289 1_555
C40 H128 1.095877 1_555
C40 H136 1.100265 1_555
C40 P8 1.832133 1_555
C41 H121 1.095289 1_555
C41 H129 1.095877 1_555
C41 H137 1.100265 1_555
C41 P9 1.832133 1_555
C42 H122 1.095289 1_555
C42 H130 1.095877 1_555
C42 H138 1.100265 1_555
C42 P10 1.832133 1_455
C43 H123 1.095289 1_555
C43 H131 1.095877 1_555
C43 H139 1.100265 1_555
C43 P11 1.832133 1_655
C44 H124 1.095289 1_555
C44 H132 1.095877 1_555
C44 H140 1.100265 1_555
C44 P12 1.832133 1_555
C45 H125 1.095289 1_555
C45 H133 1.095877 1_555
C45 H141 1.100265 1_555
C45 P13 1.832133 1_555
C46 H126 1.095289 1_555
C46 H134 1.095877 1_555
C46 H142 1.100265 1_555
C46 P14 1.832133 1_545
C47 H127 1.095289 1_555
C47 H135 1.095877 1_555
C47 H143 1.100265 1_555
C47 P15 1.832133 1_565
Cl0 Mo0 2.396493 1_555
Cl1 Mo1 2.396493 1_555
Cl2 Mo2 2.396493 1_555
Cl3 Mo3 2.396493 1_554
Cl4 Mo4 2.396493 1_555
Cl5 Mo5 2.396493 1_555
Cl6 Mo6 2.396493 1_555
Cl7 Mo7 2.396493 1_556
Cl8 Mo0 2.396078 1_555
Cl9 Mo1 2.396078 1_555
Cl10 Mo2 2.396078 1_555
Cl11 Mo3 2.396078 1_555
Cl12 Mo4 2.396078 1_555
Cl13 Mo5 2.396078 1_555
Cl14 Mo6 2.396078 1_555
Cl15 Mo7 2.396078 1_555
