# generated using pymatgen
data_Ta10SeS3
_symmetry_space_group_name_H-M   'P 1'
_cell_length_a   3.33283300
_cell_length_b   3.33283300
_cell_length_c   22.16089700
_cell_angle_alpha   90.00000000
_cell_angle_beta   90.00000000
_cell_angle_gamma   90.00000000
_symmetry_Int_Tables_number   1
_chemical_formula_structural   Ta10SeS3
_chemical_formula_sum   'Ta10 Se1 S3'
_cell_volume   246.15827553
_cell_formula_units_Z   1
loop_
 _symmetry_equiv_pos_site_id
 _symmetry_equiv_pos_as_xyz
  1  'x, y, z'
loop_
 _atom_site_type_symbol
 _atom_site_label
 _atom_site_symmetry_multiplicity
 _atom_site_fract_x
 _atom_site_fract_y
 _atom_site_fract_z
 _atom_site_occupancy
  Ta  Ta0  1  0.50000000  0.50000000  0.34813100  1
  Ta  Ta1  1  0.00000000  0.00000000  0.84768400  1
  Ta  Ta2  1  0.00000000  0.00000000  0.14727000  1
  Ta  Ta3  1  0.50000000  0.50000000  0.65209200  1
  Ta  Ta4  1  0.50000000  0.50000000  0.07149300  1
  Ta  Ta5  1  0.00000000  0.00000000  0.57373400  1
  Ta  Ta6  1  0.00000000  0.00000000  0.42674900  1
  Ta  Ta7  1  0.50000000  0.50000000  0.92539000  1
  Ta  Ta8  1  0.00000000  0.00000000  0.99826800  1
  Ta  Ta9  1  0.50000000  0.50000000  0.50029300  1
  Se  Se0  1  0.50000000  0.50000000  0.20330600  1
  S  S0  1  0.00000000  0.00000000  0.69704100  1
  S  S1  1  0.00000000  0.00000000  0.30571200  1
  S  S2  1  0.50000000  0.50000000  0.80283700  1
loop_
_geom_bond_atom_site_label_1
_geom_bond_atom_site_label_2
_geom_bond_distance
_geom_bond_site_symmetry_2
Ta4 Ta8 2.861319 1_564
Ta4 Ta8 2.861319 1_654
Ta4 Ta8 2.861319 1_554
Ta4 Ta8 2.861319 1_664
Ta5 Ta9 2.864036 1_545
Ta5 Ta9 2.864036 1_445
Ta5 Ta9 2.864036 1_455
Ta5 Ta9 2.864036 1_555
Ta6 Ta9 2.865334 1_455
Ta6 Ta9 2.865334 1_445
Ta6 Ta9 2.865334 1_555
Ta6 Ta9 2.865334 1_545
Ta7 Ta8 2.856965 1_565
Ta7 Ta8 2.856965 1_655
Ta7 Ta8 2.856965 1_555
Ta7 Ta8 2.856965 1_665
Se0 Ta2 2.663827 1_555
Se0 Ta2 2.663827 1_565
Se0 Ta2 2.663827 1_655
Se0 Ta2 2.663827 1_665
Se0 Ta4 2.921094 1_555
Se0 Ta0 3.209452 1_555
S0 Ta3 2.558539 1_445
S0 Ta3 2.558539 1_455
S0 Ta3 2.558539 1_545
S0 Ta3 2.558539 1_555
S0 Ta5 2.732594 1_555
S1 Ta0 2.537236 1_455
S1 Ta0 2.537236 1_445
S1 Ta0 2.537236 1_545
S1 Ta0 2.537236 1_555
S1 Ta6 2.682288 1_555
S2 Ta1 2.557660 1_565
S2 Ta1 2.557660 1_655
S2 Ta1 2.557660 1_665
S2 Ta1 2.557660 1_555
S2 Ta7 2.715884 1_555
