# generated using pymatgen
data_BaSrEuNbO6
_symmetry_space_group_name_H-M   'P 1'
_cell_length_a   6.00320231
_cell_length_b   6.06989656
_cell_length_c   8.52283832
_cell_angle_alpha   90.34732937
_cell_angle_beta   90.34316328
_cell_angle_gamma   90.21830755
_symmetry_Int_Tables_number   1
_chemical_formula_structural   BaSrEuNbO6
_chemical_formula_sum   'Ba2 Sr2 Eu2 Nb2 O12'
_cell_volume   310.54857210
_cell_formula_units_Z   2
loop_
 _symmetry_equiv_pos_site_id
 _symmetry_equiv_pos_as_xyz
  1  'x, y, z'
loop_
 _atom_site_type_symbol
 _atom_site_label
 _atom_site_symmetry_multiplicity
 _atom_site_fract_x
 _atom_site_fract_y
 _atom_site_fract_z
 _atom_site_occupancy
  Ba  Ba0  1  0.50644592  0.53044252  0.25040918  1
  Ba  Ba1  1  0.49355408  0.46955748  0.74959082  1
  Sr  Sr0  1  0.99147581  0.03925713  0.25129422  1
  Sr  Sr1  1  0.00852419  0.96074287  0.74870578  1
  Eu  Eu0  1  -0.00000000  0.50000000  -0.00000000  1
  Eu  Eu1  1  0.50000000  -0.00000000  0.50000000  1
  Nb  Nb0  1  0.50000000  -0.00000000  -0.00000000  1
  Nb  Nb1  1  -0.00000000  0.50000000  0.50000000  1
  O  O0  1  0.23193506  0.19449651  0.95624580  1
  O  O1  1  0.26557099  0.69983805  0.53296977  1
  O  O2  1  0.76806494  0.80550349  0.04375420  1
  O  O3  1  0.73442901  0.30016195  0.46703023  1
  O  O4  1  0.30085575  0.73525626  0.96101154  1
  O  O5  1  0.19043117  0.22770344  0.54265772  1
  O  O6  1  0.69914425  0.26474374  0.03898846  1
  O  O7  1  0.80956883  0.77229656  0.45734228  1
  O  O8  1  0.41656160  0.99181615  0.23196350  1
  O  O9  1  0.06434096  0.46762757  0.26762109  1
  O  O10  1  0.58343840  0.00818385  0.76803650  1
  O  O11  1  0.93565904  0.53237243  0.73237891  1
loop_
_geom_bond_atom_site_label_1
_geom_bond_atom_site_label_2
_geom_bond_distance
_geom_bond_site_symmetry_2
Ba0 O6 2.681422 1_555
Ba0 O9 2.684862 1_555
Ba0 O3 2.692783 1_555
Ba0 O8 2.859101 1_555
Ba0 O2 2.899156 1_555
Ba0 O7 2.913202 1_555
Ba0 O1 2.995119 1_555
Ba0 O4 3.027336 1_554
Ba1 O4 2.681422 1_555
Ba1 O11 2.684862 1_555
Ba1 O1 2.692783 1_555
Ba1 O10 2.859101 1_555
Ba1 O0 2.899156 1_555
Ba1 O5 2.913202 1_555
Ba1 O3 2.995119 1_555
Ba1 O6 3.027336 1_556
Eu0 O11 2.320717 1_454
Eu0 O9 2.320717 1_555
Eu0 O6 2.324828 1_455
Eu0 O4 2.324828 1_554
Eu0 O0 2.352430 1_554
Eu0 O2 2.352430 1_455
Eu1 O1 2.317420 1_545
Eu1 O3 2.317420 1_555
Eu1 O10 2.335963 1_555
Eu1 O8 2.335963 1_545
Eu1 O5 2.348983 1_555
Eu1 O7 2.348983 1_545
Nb0 O6 2.023887 1_555
Nb0 O4 2.023887 1_544
Nb0 O0 2.033500 1_554
Nb0 O2 2.033500 1_545
Nb0 O8 2.043210 1_545
Nb0 O10 2.043210 1_554
Nb1 O3 2.016879 1_455
Nb1 O1 2.016879 1_555
Nb1 O9 2.028624 1_555
Nb1 O11 2.028624 1_455
Nb1 O7 2.046356 1_455
Nb1 O5 2.046356 1_555
O0 Sr1 2.620562 1_545
O0 Sr0 3.058918 1_456
O1 Sr1 2.878754 1_555
O2 Sr0 2.620562 1_565
O2 Sr1 3.058918 1_654
O3 Sr0 2.878754 1_555
O4 Sr1 2.870094 1_555
O5 Sr1 2.635567 1_545
O5 Sr0 2.970023 1_455
O6 Sr0 2.870094 1_555
O7 Sr0 2.635567 1_565
O7 Sr1 2.970023 1_655
O8 Sr0 2.575305 1_465
O9 Sr0 2.637759 1_455
O10 Sr1 2.575305 1_645
O11 Sr1 2.637759 1_655
