# generated using pymatgen
data_Zr2N2O
_symmetry_space_group_name_H-M   'P 1'
_cell_length_a   8.85381900
_cell_length_b   8.87996651
_cell_length_c   8.88360714
_cell_angle_alpha   109.53115587
_cell_angle_beta   109.26607430
_cell_angle_gamma   109.51897006
_symmetry_Int_Tables_number   1
_chemical_formula_structural   Zr2N2O
_chemical_formula_sum   'Zr16 N16 O8'
_cell_volume   538.30507586
_cell_formula_units_Z   8
loop_
 _symmetry_equiv_pos_site_id
 _symmetry_equiv_pos_as_xyz
  1  'x, y, z'
loop_
 _atom_site_type_symbol
 _atom_site_label
 _atom_site_symmetry_multiplicity
 _atom_site_fract_x
 _atom_site_fract_y
 _atom_site_fract_z
 _atom_site_occupancy
  Zr  Zr0  1  0.01091100  0.99814400  0.50073200  1
  Zr  Zr1  1  0.74785300  0.29483900  0.46392800  1
  Zr  Zr2  1  0.22150000  0.47136000  0.24929700  1
  Zr  Zr3  1  0.71493700  0.95859200  0.24964600  1
  Zr  Zr4  1  0.25904900  0.21114500  0.03456500  1
  Zr  Zr5  1  0.96777300  0.74237100  0.28548900  1
  Zr  Zr6  1  0.45749000  0.74730900  0.78493100  1
  Zr  Zr7  1  0.03379900  0.25045200  0.71343400  1
  Zr  Zr8  1  0.99557200  0.50783800  0.99527900  1
  Zr  Zr9  1  0.50047300  0.99937000  0.00031800  1
  Zr  Zr10  1  0.53330100  0.25791000  0.21210700  1
  Zr  Zr11  1  0.50874100  0.50820700  0.49091300  1
  Zr  Zr12  1  0.74944200  0.78950100  0.96869100  1
  Zr  Zr13  1  0.78889500  0.53371800  0.75060500  1
  Zr  Zr14  1  0.27831800  0.03148500  0.75016500  1
  Zr  Zr15  1  0.24381200  0.70588000  0.54230800  1
  N  N0  1  0.03511500  0.99312800  0.73370900  1
  N  N1  1  0.26753100  0.23790700  0.27208500  1
  N  N2  1  0.77097000  0.04713300  0.96833000  1
  N  N3  1  0.46521000  0.72814700  0.03965100  1
  N  N4  1  0.48808500  0.25684900  0.46996900  1
  N  N5  1  0.01038700  0.53778000  0.22985600  1
  N  N6  1  0.51422700  0.74124600  0.53347800  1
  N  N7  1  0.74053900  0.72830900  0.22830400  1
  N  N8  1  0.22788000  0.77041400  0.76842900  1
  N  N9  1  0.22801600  0.95851800  0.03062800  1
  N  N10  1  0.53237500  0.27066600  0.95586700  1
  N  N11  1  0.75979100  0.53300800  0.01453100  1
  N  N12  1  0.98853200  0.45509200  0.77416700  1
  N  N13  1  0.26912100  0.50645700  0.45732100  1
  N  N14  1  0.72617800  0.48493000  0.54840900  1
  N  N15  1  0.04978000  0.77971700  0.48540100  1
  O  O0  1  0.96174400  0.01483100  0.26357400  1
  O  O1  1  0.55223600  0.03442000  0.72642500  1
  O  O2  1  0.94378400  0.21914000  0.51835900  1
  O  O3  1  0.25706500  0.27489000  0.77645900  1
  O  O4  1  0.24098800  0.46380700  0.98055700  1
  O  O5  1  0.45735800  0.96654500  0.27055600  1
  O  O6  1  0.77232300  0.22442800  0.23662100  1
  O  O7  1  0.72890000  0.76451800  0.72490500  1
loop_
_geom_bond_atom_site_label_1
_geom_bond_atom_site_label_2
_geom_bond_distance
_geom_bond_site_symmetry_2
Zr6 Zr9 2.214172 1_556
Zr10 Zr4 2.217441 1_555
Zr12 Zr6 2.376169 1_555
Zr15 Zr6 2.161928 1_555
N0 Zr14 2.010685 1_565
N0 Zr0 2.026523 1_555
N0 Zr4 2.302317 1_566
N0 Zr7 2.354895 1_565
N1 Zr4 2.015585 1_555
N1 N4 2.061377 1_555
N1 Zr11 2.194578 1_555
N1 Zr2 2.301168 1_555
N2 Zr12 2.232514 1_545
N2 Zr9 2.418111 1_546
N2 Zr6 2.573689 1_545
N3 Zr3 2.063593 1_555
N3 Zr6 2.305904 1_554
N3 Zr9 2.480407 1_555
N3 Zr12 2.717994 1_554
N4 Zr11 2.115939 1_555
N4 Zr1 2.231924 1_555
N4 Zr10 2.454579 1_555
N4 Zr13 2.549038 1_555
N5 Zr5 1.915195 1_455
N5 Zr8 1.963755 1_454
N5 Zr2 2.112633 1_555
N5 Zr15 2.363569 1_555
N6 Zr11 1.955805 1_555
N6 O7 1.979080 1_555
N6 Zr15 2.339863 1_555
N6 Zr6 2.433786 1_555
N6 Zr2 2.514004 1_555
N7 Zr5 1.853807 1_555
N7 Zr3 2.085148 1_555
N7 Zr0 2.407367 1_655
N8 Zr15 1.963354 1_555
N8 Zr6 2.073291 1_555
N8 Zr9 2.200406 1_556
N8 Zr14 2.282055 1_565
N9 Zr4 2.153720 1_565
N9 Zr9 2.435651 1_555
N9 Zr10 2.535671 1_565
N10 Zr14 2.099969 1_555
N10 Zr10 2.314155 1_556
N10 Zr9 2.508876 1_546
N10 Zr4 2.670816 1_556
N11 Zr5 2.106266 1_555
N11 Zr8 2.226873 1_554
N11 Zr13 2.443594 1_554
N11 Zr12 2.469195 1_554
N12 Zr8 1.834710 1_555
N12 Zr7 1.930738 1_655
N12 Zr13 2.081768 1_555
N12 Zr1 2.374304 1_555
N13 Zr2 1.644057 1_555
N13 Zr15 1.799737 1_555
N13 Zr11 2.036504 1_555
N13 Zr6 2.465217 1_555
N14 Zr13 1.543756 1_555
N14 Zr1 1.707008 1_555
N14 Zr11 1.922865 1_555
N14 N4 2.065270 1_555
N15 Zr5 1.544503 1_455
N15 Zr15 2.009465 1_555
N15 Zr0 2.049261 1_555
N15 Zr14 2.223765 1_565
O0 Zr3 2.022564 1_545
O0 Zr0 2.072863 1_645
O0 Zr12 2.265347 1_544
O0 Zr5 2.507750 1_545
O1 Zr14 2.495158 1_555
O1 Zr15 2.679887 1_545
O1 Zr6 2.686732 1_545
O1 Zr9 2.715527 1_546
O2 Zr7 1.527735 1_655
O2 Zr1 2.034209 1_555
O2 Zr0 2.205502 1_645
O2 Zr3 2.267041 1_545
O3 Zr7 1.780414 1_555
O3 Zr14 2.173695 1_555
O3 Zr0 2.379534 1_545
O3 Zr4 2.534970 1_556
O4 Zr7 2.093926 1_555
O4 Zr8 2.369051 1_455
O4 Zr2 2.430300 1_556
O4 Zr4 2.489683 1_556
O5 Zr3 2.370411 1_555
O5 Zr1 2.605792 1_565
O5 Zr9 2.644292 1_555
O5 Zr10 2.716991 1_565
O6 Zr1 2.012584 1_555
O6 Zr10 2.184947 1_555
O6 Zr9 2.200038 1_545
O6 Zr3 2.294339 1_545
O7 Zr12 2.040687 1_555
O7 Zr11 2.121050 1_555
O7 Zr13 2.344150 1_555
O7 Zr6 2.595553 1_555
