# generated using pymatgen
data_UGaFe
_symmetry_space_group_name_H-M   'P 1'
_cell_length_a   6.56270230
_cell_length_b   6.56270230
_cell_length_c   3.96890700
_cell_angle_alpha   90.00000000
_cell_angle_beta   90.00000000
_cell_angle_gamma   120.00000306
_symmetry_Int_Tables_number   1
_chemical_formula_structural   UGaFe
_chemical_formula_sum   'U3 Ga3 Fe3'
_cell_volume   148.03586629
_cell_formula_units_Z   3
loop_
 _symmetry_equiv_pos_site_id
 _symmetry_equiv_pos_as_xyz
  1  'x, y, z'
loop_
 _atom_site_type_symbol
 _atom_site_label
 _atom_site_symmetry_multiplicity
 _atom_site_fract_x
 _atom_site_fract_y
 _atom_site_fract_z
 _atom_site_occupancy
  U  U0  1  0.42180000  0.00000000  0.50000000  1
  U  U1  1  0.00000000  0.42180000  0.50000000  1
  U  U2  1  0.57820000  0.57820000  0.50000000  1
  Ga  Ga0  1  0.76161800  0.00000000  0.00000000  1
  Ga  Ga1  1  0.00000000  0.76161800  0.00000000  1
  Ga  Ga2  1  0.23838200  0.23838200  0.00000000  1
  Fe  Fe0  1  0.33333300  0.66666700  0.00000000  1
  Fe  Fe1  1  0.66666700  0.33333300  0.00000000  1
  Fe  Fe2  1  0.00000000  0.00000000  0.50000000  1
loop_
_geom_bond_atom_site_label_1
_geom_bond_atom_site_label_2
_geom_bond_distance
_geom_bond_site_symmetry_2
U0 U1 3.399617 1_545
U0 U1 3.399617 1_655
U0 U2 3.399617 1_555
U0 U2 3.399617 1_545
U1 U2 3.399617 1_555
U1 U2 3.399617 1_455
Ga0 Ga2 2.709672 1_655
Ga0 Ga1 2.709672 1_645
Ga0 U0 2.985215 1_555
Ga0 U0 2.985215 1_554
Ga0 U1 3.117301 1_655
Ga0 U1 3.117301 1_654
Ga0 U2 3.117301 1_544
Ga0 U2 3.117301 1_545
Ga1 Ga2 2.709672 1_565
Ga1 U1 2.985215 1_554
Ga1 U1 2.985215 1_555
Ga1 U0 3.117301 1_565
Ga1 U0 3.117301 1_564
Ga1 U2 3.117301 1_455
Ga1 U2 3.117301 1_454
Ga2 U2 2.985215 1_554
Ga2 U2 2.985215 1_555
Ga2 U1 3.117301 1_554
Ga2 U0 3.117301 1_555
Ga2 U1 3.117301 1_555
Ga2 U0 3.117301 1_554
Fe0 Ga1 2.556734 1_555
Fe0 Ga0 2.556738 1_565
Fe0 Ga2 2.556740 1_555
Fe0 U0 2.791149 1_565
Fe0 U0 2.791149 1_564
Fe0 U1 2.791150 1_554
Fe0 U1 2.791150 1_555
Fe0 U2 2.791153 1_555
Fe0 U2 2.791153 1_554
Fe1 Ga0 2.556734 1_555
Fe1 Ga1 2.556738 1_655
Fe1 Ga2 2.556740 1_555
Fe1 U1 2.791149 1_655
Fe1 U1 2.791149 1_654
Fe1 U0 2.791150 1_555
Fe1 U0 2.791150 1_554
Fe1 U2 2.791153 1_555
Fe1 U2 2.791153 1_554
Fe2 Ga2 2.526954 1_556
Fe2 Ga2 2.526954 1_555
Fe2 Ga1 2.526954 1_545
Fe2 Ga0 2.526954 1_456
Fe2 Ga0 2.526954 1_455
Fe2 Ga1 2.526954 1_546
Fe2 U2 2.768148 1_445
Fe2 U0 2.768148 1_555
Fe2 U1 2.768148 1_555
