# generated using pymatgen
data_Mg4Si3
_symmetry_space_group_name_H-M   'P 1'
_cell_length_a   5.70323900
_cell_length_b   6.40340305
_cell_length_c   8.18261042
_cell_angle_alpha   68.99555410
_cell_angle_beta   80.34249840
_cell_angle_gamma   78.19433847
_symmetry_Int_Tables_number   1
_chemical_formula_structural   Mg4Si3
_chemical_formula_sum   'Mg8 Si6'
_cell_volume   271.61077336
_cell_formula_units_Z   2
loop_
 _symmetry_equiv_pos_site_id
 _symmetry_equiv_pos_as_xyz
  1  'x, y, z'
loop_
 _atom_site_type_symbol
 _atom_site_label
 _atom_site_symmetry_multiplicity
 _atom_site_fract_x
 _atom_site_fract_y
 _atom_site_fract_z
 _atom_site_occupancy
  Mg  Mg0  1  0.85402200  0.49685600  0.16540700  1
  Mg  Mg1  1  0.50000000  0.00000000  0.00000000  1
  Mg  Mg2  1  0.60417400  0.81879900  0.67633800  1
  Mg  Mg3  1  0.39582600  0.18120100  0.32366200  1
  Mg  Mg4  1  0.14597800  0.50314400  0.83459300  1
  Mg  Mg5  1  0.25069200  0.65758300  0.40769600  1
  Mg  Mg6  1  0.74930800  0.34241700  0.59230400  1
  Mg  Mg7  1  0.00000000  0.00000000  0.00000000  1
  Si  Si0  1  0.93381100  0.06413400  0.35677400  1
  Si  Si1  1  0.33530300  0.59276700  0.08102300  1
  Si  Si2  1  0.06618900  0.93586600  0.64322600  1
  Si  Si3  1  0.71275900  0.79195600  0.33266300  1
  Si  Si4  1  0.66469700  0.40723300  0.91897700  1
  Si  Si5  1  0.28724100  0.20804400  0.66733700  1
loop_
_geom_bond_atom_site_label_1
_geom_bond_atom_site_label_2
_geom_bond_distance
_geom_bond_site_symmetry_2
Mg0 Si0 2.636204 1_555
Mg0 Si3 2.637034 1_555
Mg0 Si4 2.715684 1_554
Mg0 Si1 2.852737 1_655
Mg0 Si1 3.040372 1_555
Mg1 Si4 2.770518 1_554
Mg1 Si1 2.770518 1_545
Mg1 Si3 2.916129 1_545
Mg1 Si5 2.916129 1_554
Mg2 Si4 2.667054 1_555
Mg2 Si5 2.748586 1_565
Mg2 Si2 2.828708 1_655
Mg2 Si3 2.835480 1_555
Mg2 Si2 3.040020 1_555
Mg2 Si0 3.074760 1_565
Mg3 Si1 2.667054 1_555
Mg3 Si3 2.748586 1_545
Mg3 Si0 2.828708 1_455
Mg3 Si5 2.835480 1_555
Mg3 Si0 3.040020 1_555
Mg3 Si2 3.074760 1_545
Mg4 Si2 2.636204 1_555
Mg4 Si5 2.637034 1_555
Mg4 Si1 2.715684 1_556
Mg4 Si4 2.852737 1_455
Mg4 Si4 3.040372 1_555
Mg5 Si0 2.786910 1_465
Mg5 Si1 2.798365 1_555
Mg5 Si3 2.840470 1_555
Mg5 Si5 2.891748 1_555
Mg5 Si2 3.001869 1_555
Mg5 Si3 3.114931 1_455
Mg6 Si2 2.786910 1_645
Mg6 Si4 2.798365 1_555
Mg6 Si5 2.840470 1_555
Mg6 Si3 2.891748 1_555
Mg6 Si0 3.001869 1_555
Mg6 Si5 3.114931 1_655
Mg7 Si4 2.835839 1_454
Mg7 Si1 2.835839 1_545
Mg7 Si5 2.943677 1_554
Mg7 Si3 2.943677 1_445
Mg7 Si0 3.043025 1_455
Mg7 Si2 3.043025 1_544
Si0 Si2 2.387148 1_645
Si0 Si3 2.427949 1_545
Si1 Si4 2.465584 1_554
Si2 Si5 2.427949 1_565
