# generated using pymatgen
data_BaCaEuWO6
_symmetry_space_group_name_H-M   'P 1'
_cell_length_a   5.92610731
_cell_length_b   5.92610731
_cell_length_c   8.69621163
_cell_angle_alpha   90.00000000
_cell_angle_beta   90.00000000
_cell_angle_gamma   90.00000000
_symmetry_Int_Tables_number   1
_chemical_formula_structural   BaCaEuWO6
_chemical_formula_sum   'Ba2 Ca2 Eu2 W2 O12'
_cell_volume   305.40006348
_cell_formula_units_Z   2
loop_
 _symmetry_equiv_pos_site_id
 _symmetry_equiv_pos_as_xyz
  1  'x, y, z'
loop_
 _atom_site_type_symbol
 _atom_site_label
 _atom_site_symmetry_multiplicity
 _atom_site_fract_x
 _atom_site_fract_y
 _atom_site_fract_z
 _atom_site_occupancy
  Ba  Ba0  1  0.00000000  0.50000000  0.25000000  1
  Ba  Ba1  1  0.50000000  0.00000000  0.75000000  1
  Ca  Ca0  1  0.50000000  0.00000000  0.25000000  1
  Ca  Ca1  1  0.00000000  0.50000000  0.75000000  1
  Eu  Eu0  1  -0.00000000  -0.00000000  -0.00000000  1
  Eu  Eu1  1  0.50000000  0.50000000  0.50000000  1
  W  W0  1  0.00000000  0.00000000  0.50000000  1
  W  W1  1  0.50000000  0.50000000  -0.00000000  1
  O  O0  1  0.00000000  0.00000000  0.27134466  1
  O  O1  1  0.50000000  0.50000000  0.22865534  1
  O  O2  1  -0.00000000  0.00000000  0.72865534  1
  O  O3  1  0.50000000  0.50000000  0.77134466  1
  O  O4  1  0.35040449  0.20491373  0.02196869  1
  O  O5  1  0.64959551  0.79508627  0.02196869  1
  O  O6  1  0.79508627  0.35040449  0.97803131  1
  O  O7  1  0.20491373  0.64959551  0.97803131  1
  O  O8  1  0.85040449  0.29508627  0.52196869  1
  O  O9  1  0.14959551  0.70491373  0.52196869  1
  O  O10  1  0.29508627  0.14959551  0.47803131  1
  O  O11  1  0.70491373  0.85040449  0.47803131  1
loop_
_geom_bond_atom_site_label_1
_geom_bond_atom_site_label_2
_geom_bond_distance
_geom_bond_site_symmetry_2
Ba0 O8 2.802539 1_455
Ba0 O9 2.802539 1_555
Ba0 O7 2.802539 1_554
Ba0 O6 2.802539 1_454
Ba0 O1 2.968862 1_555
Ba0 O1 2.968862 1_455
Ba0 O0 2.968862 1_565
Ba0 O0 2.968862 1_555
Ba1 O10 2.802539 1_555
Ba1 O5 2.802539 1_546
Ba1 O11 2.802539 1_545
Ba1 O4 2.802539 1_556
Ba1 O3 2.968862 1_545
Ba1 O2 2.968862 1_555
Ba1 O3 2.968862 1_555
Ba1 O2 2.968862 1_655
Ca0 O10 2.488546 1_555
Ca0 O11 2.488546 1_545
Ca0 O5 2.488546 1_545
Ca0 O4 2.488546 1_555
Ca0 O1 2.968862 1_555
Ca0 O0 2.968862 1_655
Ca0 O1 2.968862 1_545
Ca0 O0 2.968862 1_555
Ca1 O8 2.488546 1_455
Ca1 O6 2.488546 1_455
Ca1 O9 2.488546 1_555
Ca1 O7 2.488546 1_555
Ca1 O2 2.968862 1_565
Ca1 O2 2.968862 1_555
Ca1 O3 2.968862 1_555
Ca1 O3 2.968862 1_455
Eu0 O0 2.359671 1_555
Eu0 O2 2.359671 1_554
Eu0 O7 2.413114 1_544
Eu0 O5 2.413114 1_445
Eu0 O4 2.413114 1_555
Eu0 O6 2.413114 1_454
Eu1 O3 2.359671 1_555
Eu1 O1 2.359671 1_555
Eu1 O10 2.413114 1_555
Eu1 O9 2.413114 1_555
Eu1 O8 2.413114 1_555
Eu1 O11 2.413114 1_555
O0 W0 1.988435 1_555
O1 W1 1.988435 1_555
O2 W0 1.988435 1_555
O3 W1 1.988435 1_556
O4 W1 1.969876 1_555
O5 W1 1.969876 1_555
O6 W1 1.969876 1_556
O7 W1 1.969876 1_556
O8 W0 1.969876 1_655
O9 W0 1.969876 1_565
O10 W0 1.969876 1_555
O11 W0 1.969876 1_665
