# generated using pymatgen
data_PrY3
_symmetry_space_group_name_H-M   'P 1'
_cell_length_a   7.38082280
_cell_length_b   7.38082280
_cell_length_c   5.91622495
_cell_angle_alpha   90.00000000
_cell_angle_beta   90.00000000
_cell_angle_gamma   119.99999162
_symmetry_Int_Tables_number   1
_chemical_formula_structural   PrY3
_chemical_formula_sum   'Pr2 Y6'
_cell_volume   279.11611095
_cell_formula_units_Z   2
loop_
 _symmetry_equiv_pos_site_id
 _symmetry_equiv_pos_as_xyz
  1  'x, y, z'
loop_
 _atom_site_type_symbol
 _atom_site_label
 _atom_site_symmetry_multiplicity
 _atom_site_fract_x
 _atom_site_fract_y
 _atom_site_fract_z
 _atom_site_occupancy
  Pr  Pr0  1  0.66666700  0.33333300  0.25000000  1
  Pr  Pr1  1  0.33333300  0.66666700  0.75000000  1
  Y  Y0  1  0.67132360  0.83566180  0.25000000  1
  Y  Y1  1  0.16433820  0.32867640  0.25000000  1
  Y  Y2  1  0.83566180  0.16433820  0.75000000  1
  Y  Y3  1  0.83566180  0.67132360  0.75000000  1
  Y  Y4  1  0.32867640  0.16433820  0.75000000  1
  Y  Y5  1  0.16433820  0.83566180  0.25000000  1
loop_
_geom_bond_atom_site_label_1
_geom_bond_atom_site_label_2
_geom_bond_distance
_geom_bond_site_symmetry_2
Pr0 Y2 3.663039 1_554
Pr0 Y2 3.663039 1_555
Pr0 Y4 3.663043 1_554
Pr0 Y3 3.663043 1_555
Pr0 Y4 3.663043 1_555
Pr0 Y3 3.663043 1_554
Pr0 Y0 3.690528 1_545
Pr0 Y1 3.690528 1_655
Pr0 Y5 3.690532 1_545
Pr0 Y5 3.690532 1_655
Pr0 Y1 3.690535 1_555
Pr0 Y0 3.690535 1_555
Pr1 Y5 3.663039 1_556
Pr1 Y5 3.663039 1_555
Pr1 Y0 3.663043 1_556
Pr1 Y1 3.663043 1_556
Pr1 Y0 3.663043 1_555
Pr1 Y1 3.663043 1_555
Pr1 Y4 3.690528 1_565
Pr1 Y3 3.690528 1_455
Pr1 Y2 3.690532 1_565
Pr1 Y2 3.690532 1_455
Pr1 Y3 3.690535 1_555
Pr1 Y4 3.690535 1_555
Y0 Y3 3.628248 1_555
Y0 Y3 3.628248 1_554
Y0 Y2 3.628248 1_564
Y0 Y2 3.628248 1_565
Y0 Y5 3.638853 1_655
Y0 Y1 3.638854 1_665
Y0 Y5 3.741969 1_555
Y0 Y1 3.741970 1_555
Y1 Y4 3.628248 1_555
Y1 Y4 3.628248 1_554
Y1 Y2 3.628248 1_455
Y1 Y2 3.628248 1_454
Y1 Y5 3.638853 1_545
Y1 Y5 3.741969 1_555
Y2 Y3 3.638853 1_545
Y2 Y4 3.638853 1_655
Y2 Y4 3.741969 1_555
Y2 Y3 3.741969 1_555
Y3 Y5 3.628248 1_656
Y3 Y5 3.628248 1_655
Y3 Y4 3.638854 1_665
Y3 Y4 3.741970 1_555
Y4 Y5 3.628248 1_545
Y4 Y5 3.628248 1_546
