# generated using pymatgen
data_K2ThF6
_symmetry_space_group_name_H-M   'P 1'
_cell_length_a   6.55229769
_cell_length_b   6.55229836
_cell_length_c   3.80921491
_cell_angle_alpha   90.00000000
_cell_angle_beta   90.00000000
_cell_angle_gamma   120.00000675
_symmetry_Int_Tables_number   1
_chemical_formula_structural   K2ThF6
_chemical_formula_sum   'K2 Th1 F6'
_cell_volume   141.62938304
_cell_formula_units_Z   1
loop_
 _symmetry_equiv_pos_site_id
 _symmetry_equiv_pos_as_xyz
  1  'x, y, z'
loop_
 _atom_site_type_symbol
 _atom_site_label
 _atom_site_symmetry_multiplicity
 _atom_site_fract_x
 _atom_site_fract_y
 _atom_site_fract_z
 _atom_site_occupancy
  K  K0  1  0.33333300  0.66666700  0.50000000  1
  K  K1  1  0.66666700  0.33333300  0.50000000  1
  Th  Th0  1  0.00000000  0.00000000  -0.00000000  1
  F  F0  1  -0.00000000  0.23017147  0.50000000  1
  F  F1  1  0.76982853  0.76982853  0.50000000  1
  F  F2  1  0.23017147  -0.00000000  0.50000000  1
  F  F3  1  0.64954065  0.00000000  -0.00000000  1
  F  F4  1  0.35045935  0.35045935  -0.00000000  1
  F  F5  1  0.00000000  0.64954065  0.00000000  1
loop_
_geom_bond_atom_site_label_1
_geom_bond_atom_site_label_2
_geom_bond_distance
_geom_bond_site_symmetry_2
F0 Th0 2.429414 1_555
F0 Th0 2.429414 1_556
F0 K1 2.589114 1_455
F0 K0 2.589118 1_555
F1 Th0 2.429414 1_665
F1 Th0 2.429414 1_666
F1 K0 2.589120 1_555
F1 K1 2.589121 1_555
F2 Th0 2.429414 1_555
F2 Th0 2.429414 1_556
F2 K0 2.589114 1_545
F2 K1 2.589118 1_555
F3 Th0 2.296314 1_655
F3 K1 2.857501 1_555
F3 K1 2.857501 1_554
F3 K0 2.857503 1_544
F3 K0 2.857503 1_545
F4 Th0 2.296314 1_555
F4 K1 2.857505 1_555
F4 K1 2.857505 1_554
F4 K0 2.857506 1_554
F4 K0 2.857506 1_555
F5 Th0 2.296314 1_565
F5 K0 2.857501 1_555
F5 K0 2.857501 1_554
F5 K1 2.857503 1_455
F5 K1 2.857503 1_454
