# generated using pymatgen
data_ZrMn3
_symmetry_space_group_name_H-M   'P 1'
_cell_length_a   5.55997200
_cell_length_b   5.55997200
_cell_length_c   4.37683000
_cell_angle_alpha   90.00000000
_cell_angle_beta   90.00000000
_cell_angle_gamma   120.00000004
_symmetry_Int_Tables_number   1
_chemical_formula_structural   ZrMn3
_chemical_formula_sum   'Zr2 Mn6'
_cell_volume   117.17515038
_cell_formula_units_Z   2
loop_
 _symmetry_equiv_pos_site_id
 _symmetry_equiv_pos_as_xyz
  1  'x, y, z'
loop_
 _atom_site_type_symbol
 _atom_site_label
 _atom_site_symmetry_multiplicity
 _atom_site_fract_x
 _atom_site_fract_y
 _atom_site_fract_z
 _atom_site_occupancy
  Zr  Zr0  1  0.33333300  0.66666700  0.75000000  1
  Zr  Zr1  1  0.66666700  0.33333300  0.25000000  1
  Mn  Mn0  1  0.14878200  0.29756500  0.25000000  1
  Mn  Mn1  1  0.70243500  0.85121800  0.25000000  1
  Mn  Mn2  1  0.14878200  0.85121800  0.25000000  1
  Mn  Mn3  1  0.85121800  0.70243500  0.75000000  1
  Mn  Mn4  1  0.29756500  0.14878200  0.75000000  1
  Mn  Mn5  1  0.85121800  0.14878200  0.75000000  1
loop_
_geom_bond_atom_site_label_1
_geom_bond_atom_site_label_2
_geom_bond_distance
_geom_bond_site_symmetry_2
Mn0 Mn1 2.481677 1_445
Mn0 Mn2 2.481677 1_545
Mn0 Mn5 2.615733 1_455
Mn0 Mn5 2.615733 1_454
Mn0 Mn4 2.615738 1_554
Mn0 Mn4 2.615738 1_555
Mn0 Zr1 2.785310 1_455
Mn0 Zr1 2.785321 1_555
Mn0 Zr0 2.819183 1_555
Mn0 Zr0 2.819183 1_554
Mn0 Mn1 3.078295 1_555
Mn0 Mn2 3.078295 1_555
Mn1 Mn2 2.481677 1_655
Mn1 Mn5 2.615733 1_565
Mn1 Mn5 2.615733 1_564
Mn1 Mn3 2.615738 1_554
Mn1 Mn3 2.615738 1_555
Mn1 Zr1 2.785310 1_565
Mn1 Zr1 2.785321 1_555
Mn1 Zr0 2.819183 1_555
Mn1 Zr0 2.819183 1_554
Mn1 Mn2 3.078295 1_555
Mn2 Mn4 2.615733 1_564
Mn2 Mn4 2.615733 1_565
Mn2 Mn3 2.615733 1_455
Mn2 Mn3 2.615733 1_454
Mn2 Zr1 2.785316 1_455
Mn2 Zr1 2.785316 1_565
Mn2 Zr0 2.819183 1_555
Mn2 Zr0 2.819183 1_554
Mn3 Mn4 2.481677 1_665
Mn3 Mn5 2.481677 1_565
Mn3 Zr0 2.785310 1_655
Mn3 Zr0 2.785321 1_555
Mn3 Zr1 2.819183 1_555
Mn3 Zr1 2.819183 1_556
Mn3 Mn4 3.078295 1_555
Mn3 Mn5 3.078295 1_555
Mn4 Mn5 2.481677 1_455
Mn4 Zr0 2.785310 1_545
Mn4 Zr0 2.785321 1_555
Mn4 Zr1 2.819183 1_555
Mn4 Zr1 2.819183 1_556
Mn4 Mn5 3.078295 1_555
Mn5 Zr0 2.785316 1_545
Mn5 Zr0 2.785316 1_655
Mn5 Zr1 2.819183 1_555
Mn5 Zr1 2.819183 1_556
