# generated using pymatgen
data_Ho2VFeO6
_symmetry_space_group_name_H-M   'P 1'
_cell_length_a   5.62167500
_cell_length_b   5.27090900
_cell_length_c   9.23098512
_cell_angle_alpha   55.10815063
_cell_angle_beta   90.00000000
_cell_angle_gamma   90.00000000
_symmetry_Int_Tables_number   1
_chemical_formula_structural   Ho2VFeO6
_chemical_formula_sum   'Ho4 V2 Fe2 O12'
_cell_volume   224.35547828
_cell_formula_units_Z   2
loop_
 _symmetry_equiv_pos_site_id
 _symmetry_equiv_pos_as_xyz
  1  'x, y, z'
loop_
 _atom_site_type_symbol
 _atom_site_label
 _atom_site_symmetry_multiplicity
 _atom_site_fract_x
 _atom_site_fract_y
 _atom_site_fract_z
 _atom_site_occupancy
  Ho  Ho0  1  0.56757900  0.73195300  0.74913900  1
  Ho  Ho1  1  0.06757900  0.26804700  0.75086100  1
  Ho  Ho2  1  0.43242100  0.26804700  0.25086100  1
  Ho  Ho3  1  0.93242100  0.73195300  0.24913900  1
  V  V0  1  0.00000000  0.50000000  0.00000000  1
  V  V1  1  0.50000000  0.50000000  0.50000000  1
  Fe  Fe0  1  0.00000000  0.00000000  0.50000000  1
  Fe  Fe1  1  0.50000000  0.00000000  0.00000000  1
  O  O0  1  0.95599700  0.86389900  0.74867100  1
  O  O1  1  0.45599700  0.13610100  0.75132900  1
  O  O2  1  0.04400300  0.13610100  0.25132900  1
  O  O3  1  0.54400300  0.86389900  0.24867100  1
  O  O4  1  0.80205900  0.24749600  0.94333800  1
  O  O5  1  0.30205900  0.75250400  0.55666200  1
  O  O6  1  0.18950100  0.35979400  0.44392100  1
  O  O7  1  0.68950100  0.64020600  0.05607900  1
  O  O8  1  0.19794100  0.75250400  0.05666200  1
  O  O9  1  0.69794100  0.24749600  0.44333800  1
  O  O10  1  0.81049900  0.64020600  0.55607900  1
  O  O11  1  0.31049900  0.35979400  0.94392100  1
loop_
_geom_bond_atom_site_label_1
_geom_bond_atom_site_label_2
_geom_bond_distance
_geom_bond_site_symmetry_2
Ho0 O1 2.231820 1_565
Ho0 O11 2.265914 1_555
Ho0 O5 2.275181 1_555
Ho0 O0 2.290895 1_555
Ho0 O4 2.496929 1_555
Ho0 O10 2.502148 1_555
Ho0 O9 2.667190 1_565
Ho0 O7 2.676563 1_556
Ho1 O0 2.231820 1_445
Ho1 O10 2.265914 1_455
Ho1 O4 2.275181 1_455
Ho1 O1 2.290895 1_555
Ho1 O5 2.496929 1_555
Ho1 O11 2.502148 1_555
Ho1 O8 2.667190 1_546
Ho1 O6 2.676563 1_555
Ho2 O3 2.231820 1_545
Ho2 O7 2.265914 1_555
Ho2 O9 2.275181 1_555
Ho2 O2 2.290895 1_555
Ho2 O8 2.496929 1_555
Ho2 O6 2.502148 1_555
Ho2 O5 2.667190 1_545
Ho2 O11 2.676563 1_554
Ho3 O2 2.231820 1_665
Ho3 O6 2.265914 1_655
Ho3 O8 2.275181 1_655
Ho3 O3 2.290895 1_555
Ho3 O9 2.496929 1_555
Ho3 O7 2.502148 1_555
Ho3 O4 2.667190 1_564
Ho3 O10 2.676563 1_555
Fe0 O6 1.968810 1_555
Fe0 O10 1.968810 1_445
Fe0 O0 1.990250 1_445
Fe0 O2 1.990250 1_555
Fe0 O5 2.019459 1_545
Fe0 O9 2.019459 1_455
Fe1 O7 1.968810 1_545
Fe1 O11 1.968810 1_554
Fe1 O3 1.990250 1_545
Fe1 O1 1.990250 1_554
Fe1 O4 2.019459 1_554
Fe1 O8 2.019459 1_545
O0 V0 2.007899 1_656
O1 V1 2.007899 1_555
O2 V0 2.007899 1_555
O3 V1 2.007899 1_555
O4 V0 2.019801 1_656
O5 V1 2.019801 1_555
O6 V1 2.073317 1_555
O7 V0 2.073317 1_655
O8 V0 2.019801 1_555
O9 V1 2.019801 1_555
O10 V1 2.073317 1_555
O11 V0 2.073317 1_556
