# generated using pymatgen
data_TbSiOs2C
_symmetry_space_group_name_H-M   'P 1'
_cell_length_a   5.87055642
_cell_length_b   5.87055642
_cell_length_c   7.09310765
_cell_angle_alpha   90.00000000
_cell_angle_beta   90.00000000
_cell_angle_gamma   141.48924871
_symmetry_Int_Tables_number   1
_chemical_formula_structural   TbSiOs2C
_chemical_formula_sum   'Tb2 Si2 Os4 C2'
_cell_volume   152.21136526
_cell_formula_units_Z   2
loop_
 _symmetry_equiv_pos_site_id
 _symmetry_equiv_pos_as_xyz
  1  'x, y, z'
loop_
 _atom_site_type_symbol
 _atom_site_label
 _atom_site_symmetry_multiplicity
 _atom_site_fract_x
 _atom_site_fract_y
 _atom_site_fract_z
 _atom_site_occupancy
  Tb  Tb0  1  0.54825200  0.45174800  0.24999984  1
  Tb  Tb1  1  0.45174800  0.54825200  0.74999984  1
  Si  Si0  1  0.26926470  0.73073530  0.25000004  1
  Si  Si1  1  0.73073530  0.26926470  0.75000004  1
  Os  Os0  1  0.83469407  0.16530593  0.05844873  1
  Os  Os1  1  0.16530663  0.83469337  0.94155125  1
  Os  Os2  1  0.16530593  0.83469407  0.55844873  1
  Os  Os3  1  0.83469337  0.16530663  0.44155125  1
  C  C0  1  -0.00000073  0.00000073  0.00000013  1
  C  C1  1  0.00000073  -0.00000073  0.50000013  1
loop_
_geom_bond_atom_site_label_1
_geom_bond_atom_site_label_2
_geom_bond_distance
_geom_bond_site_symmetry_2
Si0 Tb0 3.092377 1_555
Si0 Tb0 3.122406 1_455
Si0 Tb0 3.122406 1_565
Si1 Tb1 3.092377 1_555
Si1 Tb1 3.122406 1_545
Si1 Tb1 3.122406 1_655
Os0 Si1 2.472761 1_554
Os0 Si0 2.473877 1_545
Os0 Si0 2.473877 1_655
Os1 Si0 2.472758 1_556
Os1 Si1 2.473874 1_565
Os1 Si1 2.473874 1_455
Os2 Si0 2.472761 1_555
Os2 Si1 2.473877 1_565
Os2 Si1 2.473877 1_455
Os3 Si1 2.472758 1_555
Os3 Si0 2.473874 1_545
Os3 Si0 2.473874 1_655
C0 Os0 1.878608 1_455
C0 Os1 1.878632 1_544
C0 Tb1 2.679293 1_554
C0 Tb1 2.679293 1_444
C0 Tb0 2.679293 1_445
C0 Tb0 2.679293 1_555
C1 Os2 1.878608 1_545
C1 Os3 1.878632 1_455
C1 Tb0 2.679293 1_555
C1 Tb0 2.679293 1_445
C1 Tb1 2.679293 1_555
C1 Tb1 2.679293 1_445
