# generated using pymatgen
data_Y2Mg
_symmetry_space_group_name_H-M   'P 1'
_cell_length_a   17.82275967
_cell_length_b   17.82275967
_cell_length_c   11.14989400
_cell_angle_alpha   90.00000000
_cell_angle_beta   90.00000000
_cell_angle_gamma   155.92516675
_symmetry_Int_Tables_number   1
_chemical_formula_structural   Y2Mg
_chemical_formula_sum   'Y32 Mg16'
_cell_volume   1444.79329191
_cell_formula_units_Z   16
loop_
 _symmetry_equiv_pos_site_id
 _symmetry_equiv_pos_as_xyz
  1  'x, y, z'
loop_
 _atom_site_type_symbol
 _atom_site_label
 _atom_site_symmetry_multiplicity
 _atom_site_fract_x
 _atom_site_fract_y
 _atom_site_fract_z
 _atom_site_occupancy
  Y  Y0_0  1  0.05767400  0.44232600  0.12500000  1
  Y  Y0_1  1  0.05767400  0.44232600  0.62500000  1
  Y  Y0_2  1  0.05767400  0.94232600  0.12500000  1
  Y  Y0_3  1  0.05767400  0.94232600  0.62500000  1
  Y  Y0_4  1  0.55767400  0.44232600  0.12500000  1
  Y  Y0_5  1  0.55767400  0.44232600  0.62500000  1
  Y  Y0_6  1  0.55767400  0.94232600  0.12500000  1
  Y  Y0_7  1  0.55767400  0.94232600  0.62500000  1
  Y  Y1_0  1  0.21994200  0.28005800  0.12500000  1
  Y  Y1_1  1  0.21994200  0.28005800  0.62500000  1
  Y  Y1_2  1  0.21994200  0.78005800  0.12500000  1
  Y  Y1_3  1  0.21994200  0.78005800  0.62500000  1
  Y  Y1_4  1  0.71994200  0.28005800  0.12500000  1
  Y  Y1_5  1  0.71994200  0.28005800  0.62500000  1
  Y  Y1_6  1  0.71994200  0.78005800  0.12500000  1
  Y  Y1_7  1  0.71994200  0.78005800  0.62500000  1
  Y  Y2_0  1  0.28005800  0.21994200  0.37500000  1
  Y  Y2_1  1  0.28005800  0.21994200  0.87500000  1
  Y  Y2_2  1  0.28005800  0.71994200  0.37500000  1
  Y  Y2_3  1  0.28005800  0.71994200  0.87500000  1
  Y  Y2_4  1  0.78005800  0.21994200  0.37500000  1
  Y  Y2_5  1  0.78005800  0.21994200  0.87500000  1
  Y  Y2_6  1  0.78005800  0.71994200  0.37500000  1
  Y  Y2_7  1  0.78005800  0.71994200  0.87500000  1
  Y  Y3_0  1  0.44232600  0.05767400  0.37500000  1
  Y  Y3_1  1  0.44232600  0.05767400  0.87500000  1
  Y  Y3_2  1  0.44232600  0.55767400  0.37500000  1
  Y  Y3_3  1  0.44232600  0.55767400  0.87500000  1
  Y  Y3_4  1  0.94232600  0.05767400  0.37500000  1
  Y  Y3_5  1  0.94232600  0.05767400  0.87500000  1
  Y  Y3_6  1  0.94232600  0.55767400  0.37500000  1
  Y  Y3_7  1  0.94232600  0.55767400  0.87500000  1
  Mg  Mg0_0  1  0.38864500  0.11135500  0.12500000  1
  Mg  Mg0_1  1  0.38864500  0.11135500  0.62500000  1
  Mg  Mg0_2  1  0.38864500  0.61135500  0.12500000  1
  Mg  Mg0_3  1  0.38864500  0.61135500  0.62500000  1
  Mg  Mg0_4  1  0.88864500  0.11135500  0.12500000  1
  Mg  Mg0_5  1  0.88864500  0.11135500  0.62500000  1
  Mg  Mg0_6  1  0.88864500  0.61135500  0.12500000  1
  Mg  Mg0_7  1  0.88864500  0.61135500  0.62500000  1
  Mg  Mg1_0  1  0.11135500  0.38864500  0.37500000  1
  Mg  Mg1_1  1  0.11135500  0.38864500  0.87500000  1
  Mg  Mg1_2  1  0.11135500  0.88864500  0.37500000  1
  Mg  Mg1_3  1  0.11135500  0.88864500  0.87500000  1
  Mg  Mg1_4  1  0.61135500  0.38864500  0.37500000  1
  Mg  Mg1_5  1  0.61135500  0.38864500  0.87500000  1
  Mg  Mg1_6  1  0.61135500  0.88864500  0.37500000  1
  Mg  Mg1_7  1  0.61135500  0.88864500  0.87500000  1
loop_
_geom_bond_atom_site_label_1
_geom_bond_atom_site_label_2
_geom_bond_distance
_geom_bond_site_symmetry_2
Y0_0 Y2_5 3.485799 1_454
Y0_0 Y2_4 3.485799 1_455
Y0_0 Y2_2 3.485799 1_555
Y0_0 Y2_3 3.485799 1_554
Y0_0 Y1_2 3.578865 1_555
Y0_0 Y1_4 3.578865 1_455
Y0_0 Y0_6 3.716944 1_555
Y0_0 Y0_6 3.716944 1_445
Y0_1 Y2_5 3.485799 1_455
Y0_1 Y2_3 3.485799 1_555
Y0_1 Y2_4 3.485799 1_455
Y0_1 Y2_2 3.485799 1_555
Y0_1 Y1_3 3.578865 1_555
Y0_1 Y1_5 3.578865 1_455
Y0_1 Y0_7 3.716944 1_445
Y0_1 Y0_7 3.716944 1_555
Y0_2 Y2_6 3.485799 1_455
Y0_2 Y2_7 3.485799 1_454
Y0_2 Y2_0 3.485799 1_565
Y0_2 Y2_1 3.485799 1_564
Y0_2 Y1_6 3.578865 1_455
Y0_2 Y1_0 3.578865 1_565
Y0_2 Y0_4 3.716944 1_565
Y0_2 Y0_4 3.716944 1_455
Y0_3 Y2_7 3.485799 1_455
Y0_3 Y2_6 3.485799 1_455
Y0_3 Y2_1 3.485799 1_565
Y0_3 Y2_0 3.485799 1_565
Y0_3 Y1_7 3.578865 1_455
Y0_3 Y1_1 3.578865 1_565
Y0_3 Y0_5 3.716944 1_565
Y0_3 Y0_5 3.716944 1_455
Y0_4 Y2_0 3.485799 1_555
Y0_4 Y2_1 3.485799 1_554
Y0_4 Y2_7 3.485799 1_554
Y0_4 Y2_6 3.485799 1_555
Y0_4 Y1_0 3.578865 1_555
Y0_4 Y1_6 3.578865 1_555
Y0_5 Y2_1 3.485799 1_555
Y0_5 Y2_7 3.485799 1_555
Y0_5 Y2_0 3.485799 1_555
Y0_5 Y2_6 3.485799 1_555
Y0_5 Y1_1 3.578865 1_555
Y0_5 Y1_7 3.578865 1_555
Y0_6 Y2_3 3.485799 1_554
Y0_6 Y2_2 3.485799 1_555
Y0_6 Y2_5 3.485799 1_564
Y0_6 Y2_4 3.485799 1_565
Y0_6 Y1_2 3.578865 1_555
Y0_6 Y1_4 3.578865 1_565
Y0_7 Y2_3 3.485799 1_555
Y0_7 Y2_5 3.485799 1_565
Y0_7 Y2_2 3.485799 1_555
Y0_7 Y2_4 3.485799 1_565
Y0_7 Y1_3 3.578865 1_555
Y0_7 Y1_5 3.578865 1_565
Y1_0 Y3_3 3.485799 1_554
Y1_0 Y3_2 3.485799 1_555
Y1_0 Y3_4 3.485799 1_455
Y1_0 Y3_5 3.485799 1_454
Y1_0 Y2_1 3.487430 1_554
Y1_0 Y2_0 3.487430 1_555
Y1_0 Y1_6 3.716944 1_445
Y1_0 Y1_6 3.716944 1_555
Y1_1 Y3_3 3.485799 1_555
Y1_1 Y3_2 3.485799 1_555
Y1_1 Y3_5 3.485799 1_455
Y1_1 Y3_4 3.485799 1_455
Y1_1 Y2_1 3.487430 1_555
Y1_1 Y2_0 3.487430 1_555
Y1_1 Y1_7 3.716944 1_445
Y1_1 Y1_7 3.716944 1_555
Y1_2 Y3_0 3.485799 1_565
Y1_2 Y3_1 3.485799 1_564
Y1_2 Y3_6 3.485799 1_455
Y1_2 Y3_7 3.485799 1_454
Y1_2 Y2_3 3.487430 1_554
Y1_2 Y2_2 3.487430 1_555
Y1_2 Y1_4 3.716944 1_565
Y1_2 Y1_4 3.716944 1_455
Y1_3 Y3_1 3.485799 1_565
Y1_3 Y3_7 3.485799 1_455
Y1_3 Y3_0 3.485799 1_565
Y1_3 Y3_6 3.485799 1_455
Y1_3 Y2_3 3.487430 1_555
Y1_3 Y2_2 3.487430 1_555
Y1_3 Y1_5 3.716944 1_565
Y1_3 Y1_5 3.716944 1_455
Y1_4 Y3_6 3.485799 1_555
Y1_4 Y3_7 3.485799 1_554
Y1_4 Y3_1 3.485799 1_554
Y1_4 Y3_0 3.485799 1_555
Y1_4 Y2_4 3.487430 1_555
Y1_4 Y2_5 3.487430 1_554
Y1_5 Y3_7 3.485799 1_555
Y1_5 Y3_6 3.485799 1_555
Y1_5 Y3_1 3.485799 1_555
Y1_5 Y3_0 3.485799 1_555
Y1_5 Y2_5 3.487430 1_555
Y1_5 Y2_4 3.487430 1_555
Y1_6 Y3_4 3.485799 1_565
Y1_6 Y3_5 3.485799 1_564
Y1_6 Y3_2 3.485799 1_555
Y1_6 Y3_3 3.485799 1_554
Y1_6 Y2_6 3.487430 1_555
Y1_6 Y2_7 3.487430 1_554
Y1_7 Y3_5 3.485799 1_565
Y1_7 Y3_3 3.485799 1_555
Y1_7 Y3_4 3.485799 1_565
Y1_7 Y3_2 3.485799 1_555
Y1_7 Y2_7 3.487430 1_555
Y1_7 Y2_6 3.487430 1_555
Y2_0 Y3_2 3.578865 1_555
Y2_0 Y3_4 3.578865 1_455
Y2_0 Y2_6 3.716944 1_555
Y2_0 Y2_6 3.716944 1_445
Y2_1 Y3_3 3.578865 1_555
Y2_1 Y3_5 3.578865 1_455
Y2_1 Y2_7 3.716944 1_555
Y2_1 Y2_7 3.716944 1_445
Y2_2 Y3_6 3.578865 1_455
Y2_2 Y3_0 3.578865 1_565
Y2_2 Y2_4 3.716944 1_565
Y2_2 Y2_4 3.716944 1_455
Y2_3 Y3_7 3.578865 1_455
Y2_3 Y3_1 3.578865 1_565
Y2_3 Y2_5 3.716944 1_565
Y2_3 Y2_5 3.716944 1_455
Y2_4 Y3_6 3.578865 1_555
Y2_4 Y3_0 3.578865 1_555
Y2_5 Y3_7 3.578865 1_555
Y2_5 Y3_1 3.578865 1_555
Y2_6 Y3_2 3.578865 1_555
Y2_6 Y3_4 3.578865 1_565
Y2_7 Y3_3 3.578865 1_555
Y2_7 Y3_5 3.578865 1_565
Y3_0 Y3_6 3.716944 1_445
Y3_0 Y3_6 3.716944 1_555
Y3_1 Y3_7 3.716944 1_445
Y3_1 Y3_7 3.716944 1_555
Y3_2 Y3_4 3.716944 1_565
Y3_2 Y3_4 3.716944 1_455
Y3_3 Y3_5 3.716944 1_565
Y3_3 Y3_5 3.716944 1_455
Mg0_0 Y3_1 3.357409 1_554
Mg0_0 Y3_0 3.357409 1_555
Mg0_0 Y0_2 3.379653 1_545
Mg0_0 Y0_4 3.379653 1_555
Mg0_0 Y1_4 3.389152 1_555
Mg0_0 Y1_2 3.389152 1_545
Mg0_0 Mg1_2 3.482678 1_545
Mg0_0 Mg1_3 3.482678 1_544
Mg0_0 Mg1_5 3.482678 1_554
Mg0_0 Mg1_4 3.482678 1_555
Mg0_1 Y3_1 3.357409 1_555
Mg0_1 Y3_0 3.357409 1_555
Mg0_1 Y0_3 3.379653 1_545
Mg0_1 Y0_5 3.379653 1_555
Mg0_1 Y1_5 3.389152 1_555
Mg0_1 Y1_3 3.389152 1_545
Mg0_1 Mg1_3 3.482678 1_545
Mg0_1 Mg1_5 3.482678 1_555
Mg0_1 Mg1_2 3.482678 1_545
Mg0_1 Mg1_4 3.482678 1_555
Mg0_2 Y3_2 3.357409 1_555
Mg0_2 Y3_3 3.357409 1_554
Mg0_2 Y0_6 3.379653 1_555
Mg0_2 Y0_0 3.379653 1_555
Mg0_2 Y1_0 3.389152 1_555
Mg0_2 Y1_6 3.389152 1_555
Mg0_2 Mg1_7 3.482678 1_554
Mg0_2 Mg1_6 3.482678 1_555
Mg0_2 Mg1_1 3.482678 1_554
Mg0_2 Mg1_0 3.482678 1_555
Mg0_3 Y3_3 3.357409 1_555
Mg0_3 Y3_2 3.357409 1_555
Mg0_3 Y0_7 3.379653 1_555
Mg0_3 Y0_1 3.379653 1_555
Mg0_3 Y1_1 3.389152 1_555
Mg0_3 Y1_7 3.389152 1_555
Mg0_3 Mg1_7 3.482678 1_555
Mg0_3 Mg1_1 3.482678 1_555
Mg0_3 Mg1_6 3.482678 1_555
Mg0_3 Mg1_0 3.482678 1_555
Mg0_4 Y3_5 3.357409 1_554
Mg0_4 Y3_4 3.357409 1_555
Mg0_4 Y0_6 3.379653 1_545
Mg0_4 Y0_0 3.379653 1_655
Mg0_4 Y1_6 3.389152 1_545
Mg0_4 Y1_0 3.389152 1_655
Mg0_4 Mg1_6 3.482678 1_545
Mg0_4 Mg1_7 3.482678 1_544
Mg0_4 Mg1_0 3.482678 1_655
Mg0_4 Mg1_1 3.482678 1_654
Mg0_5 Y3_5 3.357409 1_555
Mg0_5 Y3_4 3.357409 1_555
Mg0_5 Y0_7 3.379653 1_545
Mg0_5 Y0_1 3.379653 1_655
Mg0_5 Y1_7 3.389152 1_545
Mg0_5 Y1_1 3.389152 1_655
Mg0_5 Mg1_7 3.482678 1_545
Mg0_5 Mg1_1 3.482678 1_655
Mg0_5 Mg1_6 3.482678 1_545
Mg0_5 Mg1_0 3.482678 1_655
Mg0_6 Y3_7 3.357409 1_554
Mg0_6 Y3_6 3.357409 1_555
Mg0_6 Y0_2 3.379653 1_655
Mg0_6 Y0_4 3.379653 1_555
Mg0_6 Y1_4 3.389152 1_555
Mg0_6 Y1_2 3.389152 1_655
Mg0_6 Mg1_2 3.482678 1_655
Mg0_6 Mg1_5 3.482678 1_554
Mg0_6 Mg1_3 3.482678 1_654
Mg0_6 Mg1_4 3.482678 1_555
Mg0_7 Y3_7 3.357409 1_555
Mg0_7 Y3_6 3.357409 1_555
Mg0_7 Y0_3 3.379653 1_655
Mg0_7 Y0_5 3.379653 1_555
Mg0_7 Y1_5 3.389152 1_555
Mg0_7 Y1_3 3.389152 1_655
Mg0_7 Mg1_3 3.482678 1_655
Mg0_7 Mg1_5 3.482678 1_555
Mg0_7 Mg1_2 3.482678 1_655
Mg0_7 Mg1_4 3.482678 1_555
Mg1_0 Y0_0 3.357409 1_555
Mg1_0 Y0_1 3.357409 1_555
Mg1_0 Y3_4 3.379653 1_455
Mg1_0 Y3_2 3.379653 1_555
Mg1_0 Y2_2 3.389152 1_555
Mg1_0 Y2_4 3.389152 1_455
Mg1_1 Y0_1 3.357409 1_555
Mg1_1 Y0_0 3.357409 1_556
Mg1_1 Y3_5 3.379653 1_455
Mg1_1 Y3_3 3.379653 1_555
Mg1_1 Y2_3 3.389152 1_555
Mg1_1 Y2_5 3.389152 1_455
Mg1_2 Y0_2 3.357409 1_555
Mg1_2 Y0_3 3.357409 1_555
Mg1_2 Y3_0 3.379653 1_565
Mg1_2 Y3_6 3.379653 1_455
Mg1_2 Y2_6 3.389152 1_455
Mg1_2 Y2_0 3.389152 1_565
Mg1_3 Y0_3 3.357409 1_555
Mg1_3 Y0_2 3.357409 1_556
Mg1_3 Y3_1 3.379653 1_565
Mg1_3 Y3_7 3.379653 1_455
Mg1_3 Y2_7 3.389152 1_455
Mg1_3 Y2_1 3.389152 1_565
Mg1_4 Y0_4 3.357409 1_555
Mg1_4 Y0_5 3.357409 1_555
Mg1_4 Y3_6 3.379653 1_555
Mg1_4 Y3_0 3.379653 1_555
Mg1_4 Y2_6 3.389152 1_555
Mg1_4 Y2_0 3.389152 1_555
Mg1_5 Y0_5 3.357409 1_555
Mg1_5 Y0_4 3.357409 1_556
Mg1_5 Y3_7 3.379653 1_555
Mg1_5 Y3_1 3.379653 1_555
Mg1_5 Y2_7 3.389152 1_555
Mg1_5 Y2_1 3.389152 1_555
Mg1_6 Y0_6 3.357409 1_555
Mg1_6 Y0_7 3.357409 1_555
Mg1_6 Y3_4 3.379653 1_565
Mg1_6 Y3_2 3.379653 1_555
Mg1_6 Y2_4 3.389152 1_565
Mg1_6 Y2_2 3.389152 1_555
Mg1_7 Y0_7 3.357409 1_555
Mg1_7 Y0_6 3.357409 1_556
Mg1_7 Y3_5 3.379653 1_565
Mg1_7 Y3_3 3.379653 1_555
Mg1_7 Y2_5 3.389152 1_565
Mg1_7 Y2_3 3.389152 1_555
