# generated using pymatgen
data_Dy2ReC2
_symmetry_space_group_name_H-M   'P 1'
_cell_length_a   5.13182400
_cell_length_b   6.57041900
_cell_length_c   9.84865900
_cell_angle_alpha   90.00000000
_cell_angle_beta   90.00000000
_cell_angle_gamma   90.00000000
_symmetry_Int_Tables_number   1
_chemical_formula_structural   Dy2ReC2
_chemical_formula_sum   'Dy8 Re4 C8'
_cell_volume   332.07938790
_cell_formula_units_Z   4
loop_
 _symmetry_equiv_pos_site_id
 _symmetry_equiv_pos_as_xyz
  1  'x, y, z'
loop_
 _atom_site_type_symbol
 _atom_site_label
 _atom_site_symmetry_multiplicity
 _atom_site_fract_x
 _atom_site_fract_y
 _atom_site_fract_z
 _atom_site_occupancy
  Dy  Dy0  1  0.25000000  0.81834700  0.94496800  1
  Dy  Dy1  1  0.25000000  0.31834700  0.55503200  1
  Dy  Dy2  1  0.75000000  0.18165300  0.05503200  1
  Dy  Dy3  1  0.75000000  0.68165300  0.44496800  1
  Dy  Dy4  1  0.25000000  0.46825400  0.21679800  1
  Dy  Dy5  1  0.25000000  0.96825400  0.28320200  1
  Dy  Dy6  1  0.75000000  0.53174600  0.78320200  1
  Dy  Dy7  1  0.75000000  0.03174600  0.71679800  1
  Re  Re0  1  0.25000000  0.27823100  0.86595100  1
  Re  Re1  1  0.25000000  0.77823100  0.63404900  1
  Re  Re2  1  0.75000000  0.72176900  0.13404900  1
  Re  Re3  1  0.75000000  0.22176900  0.36595100  1
  C  C0  1  0.25000000  0.04471400  0.74106300  1
  C  C1  1  0.25000000  0.54471400  0.75893700  1
  C  C2  1  0.75000000  0.95528600  0.25893700  1
  C  C3  1  0.75000000  0.45528600  0.24106300  1
  C  C4  1  0.25000000  0.67653900  0.45014300  1
  C  C5  1  0.25000000  0.17653900  0.04985700  1
  C  C6  1  0.75000000  0.32346100  0.54985700  1
  C  C7  1  0.75000000  0.82346100  0.95014300  1
loop_
_geom_bond_atom_site_label_1
_geom_bond_atom_site_label_2
_geom_bond_distance
_geom_bond_site_symmetry_2
C0 Re0 1.966454 1_555
C0 Re1 2.043641 1_545
C0 Dy0 2.498994 1_545
C0 Dy1 2.566940 1_555
C0 Dy7 2.578425 1_555
C0 Dy7 2.578425 1_455
C1 Re1 1.966454 1_555
C1 Re0 2.043641 1_555
C1 Dy1 2.498994 1_555
C1 Dy0 2.566940 1_555
C1 Dy6 2.578425 1_455
C1 Dy6 2.578425 1_555
C2 Re2 1.966454 1_555
C2 Re3 2.043641 1_565
C2 Dy2 2.498994 1_565
C2 Dy3 2.566940 1_555
C2 Dy5 2.578425 1_555
C2 Dy5 2.578425 1_655
C3 Re3 1.966454 1_555
C3 Re2 2.043641 1_555
C3 Dy3 2.498994 1_555
C3 Dy2 2.566940 1_555
C3 Dy4 2.578425 1_555
C3 Dy4 2.578425 1_655
C4 Re1 1.930539 1_555
C4 Dy5 2.525255 1_555
C4 Dy3 2.566638 1_455
C4 Dy3 2.566638 1_555
C4 Dy1 2.570204 1_555
C4 Dy4 2.674747 1_555
C5 Re0 1.930539 1_554
C5 Dy4 2.525255 1_555
C5 Dy2 2.566638 1_555
C5 Dy2 2.566638 1_455
C5 Dy0 2.570204 1_544
C5 Dy5 2.674747 1_545
C6 Re3 1.930539 1_555
C6 Dy7 2.525255 1_555
C6 Dy1 2.566638 1_655
C6 Dy1 2.566638 1_555
C6 Dy3 2.570204 1_555
C6 Dy6 2.674747 1_555
C7 Re2 1.930539 1_556
C7 Dy6 2.525255 1_555
C7 Dy0 2.566638 1_655
C7 Dy0 2.566638 1_555
C7 Dy2 2.570204 1_566
C7 Dy7 2.674747 1_565
