# generated using pymatgen
data_K2PdN2(ClO2)2
_symmetry_space_group_name_H-M   'P 1'
_cell_length_a   4.73235900
_cell_length_b   7.05971384
_cell_length_c   7.87766620
_cell_angle_alpha   67.34221710
_cell_angle_beta   75.08665789
_cell_angle_gamma   81.19090223
_symmetry_Int_Tables_number   1
_chemical_formula_structural   K2PdN2(ClO2)2
_chemical_formula_sum   'K2 Pd1 N2 Cl2 O4'
_cell_volume   234.26199229
_cell_formula_units_Z   1
loop_
 _symmetry_equiv_pos_site_id
 _symmetry_equiv_pos_as_xyz
  1  'x, y, z'
loop_
 _atom_site_type_symbol
 _atom_site_label
 _atom_site_symmetry_multiplicity
 _atom_site_fract_x
 _atom_site_fract_y
 _atom_site_fract_z
 _atom_site_occupancy
  K  K0  1  0.85671300  0.32340500  0.33207800  1
  K  K1  1  0.14328700  0.67659500  0.66792200  1
  Pd  Pd0  1  0.50000000  0.00000000  0.00000000  1
  N  N0  1  0.69982900  0.27433600  0.87240200  1
  N  N1  1  0.30017100  0.72566400  0.12759800  1
  Cl  Cl0  1  0.43594900  0.02886500  0.29316600  1
  Cl  Cl1  1  0.56405100  0.97113500  0.70683400  1
  O  O0  1  0.66472700  0.39688500  0.71263900  1
  O  O1  1  0.13894300  0.68022900  0.04756200  1
  O  O2  1  0.86105700  0.31977100  0.95243800  1
  O  O3  1  0.33527300  0.60311500  0.28736100  1
loop_
_geom_bond_atom_site_label_1
_geom_bond_atom_site_label_2
_geom_bond_distance
_geom_bond_site_symmetry_2
K0 O1 2.879720 1_655
K0 O3 2.920908 1_555
K0 O2 2.995419 1_554
K0 O3 3.094436 1_655
K0 O0 3.119940 1_555
K1 O2 2.879720 1_455
K1 O0 2.920908 1_555
K1 O1 2.995419 1_556
K1 O0 3.094436 1_455
K1 O3 3.119940 1_555
N0 O2 1.249379 1_555
N0 O0 1.258868 1_555
N0 Pd0 2.056065 1_556
N1 O1 1.249379 1_555
N1 O3 1.258868 1_555
N1 Pd0 2.056065 1_565
Cl0 Pd0 2.334605 1_555
Cl0 K1 3.179983 1_545
Cl0 K0 3.200697 1_455
Cl0 K0 3.233582 1_555
Cl1 Pd0 2.334605 1_566
Cl1 K0 3.179983 1_565
Cl1 K1 3.200697 1_655
Cl1 K1 3.233582 1_555
