# generated using pymatgen
data_CsFeCoF6
_symmetry_space_group_name_H-M   'P 1'
_cell_length_a   7.46864622
_cell_length_b   7.46864622
_cell_length_c   7.46864622
_cell_angle_alpha   120.69858215
_cell_angle_beta   119.40738052
_cell_angle_gamma   89.91190116
_symmetry_Int_Tables_number   1
_chemical_formula_structural   CsFeCoF6
_chemical_formula_sum   'Cs2 Fe2 Co2 F12'
_cell_volume   294.30193563
_cell_formula_units_Z   2
loop_
 _symmetry_equiv_pos_site_id
 _symmetry_equiv_pos_as_xyz
  1  'x, y, z'
loop_
 _atom_site_type_symbol
 _atom_site_label
 _atom_site_symmetry_multiplicity
 _atom_site_fract_x
 _atom_site_fract_y
 _atom_site_fract_z
 _atom_site_occupancy
  Cs  Cs0  1  0.37292000  0.62292000  0.75000000  1
  Cs  Cs1  1  0.62708000  0.37708000  0.25000000  1
  Fe  Fe0  1  0.00000000  0.00000000  0.00000000  1
  Fe  Fe1  1  0.50000000  0.00000000  0.50000000  1
  Co  Co0  1  0.00000000  0.00000000  0.50000000  1
  Co  Co1  1  0.00000000  0.50000000  0.00000000  1
  F  F0  1  0.31675200  0.06675200  0.25000000  1
  F  F1  1  0.92767100  0.67767100  0.25000000  1
  F  F2  1  0.32929900  0.68904000  0.26011600  1
  F  F3  1  0.92892400  0.06918300  0.23988400  1
  F  F4  1  0.32929900  0.06918300  0.64025900  1
  F  F5  1  0.92892400  0.68904000  0.85974100  1
  F  F6  1  0.68324800  0.93324800  0.75000000  1
  F  F7  1  0.07232900  0.32232900  0.75000000  1
  F  F8  1  0.67070100  0.31096000  0.73988400  1
  F  F9  1  0.07107600  0.93081700  0.76011600  1
  F  F10  1  0.67070100  0.93081700  0.35974100  1
  F  F11  1  0.07107600  0.31096000  0.14025900  1
loop_
_geom_bond_atom_site_label_1
_geom_bond_atom_site_label_2
_geom_bond_distance
_geom_bond_site_symmetry_2
Cs0 F7 3.177360 1_555
Cs0 F11 3.217117 1_555
Cs0 F9 3.217117 1_555
Cs0 F8 3.217117 1_555
Cs0 F10 3.217117 1_556
Cs0 F6 3.280284 1_555
Cs1 F1 3.177360 1_555
Cs1 F2 3.217117 1_555
Cs1 F5 3.217117 1_555
Cs1 F3 3.217117 1_555
Cs1 F4 3.217117 1_554
Cs1 F0 3.280284 1_555
Co0 F7 1.999364 1_555
Co0 F1 1.999364 1_445
Co0 F9 2.081888 1_545
Co0 F4 2.081888 1_555
Co0 F10 2.081888 1_445
Co0 F3 2.081888 1_455
Co1 F7 1.999364 1_554
Co1 F1 1.999364 1_455
Co1 F8 2.081888 1_454
Co1 F11 2.081888 1_555
Co1 F5 2.081888 1_454
Co1 F2 2.081888 1_555
F0 Fe1 2.011665 1_555
F0 Fe0 2.011665 1_555
F2 Fe1 1.935602 1_565
F3 Fe0 1.935602 1_655
F4 Fe1 1.935602 1_555
F5 Fe0 1.935602 1_666
F6 Fe1 2.011665 1_565
F6 Fe0 2.011665 1_666
F8 Fe1 1.935602 1_555
F9 Fe0 1.935602 1_566
F10 Fe1 1.935602 1_565
F11 Fe0 1.935602 1_555
