# generated using pymatgen
data_Ca2Al2(SiO4)3
_symmetry_space_group_name_H-M   'P 1'
_cell_length_a   4.67359600
_cell_length_b   5.54428600
_cell_length_c   18.73220000
_cell_angle_alpha   90.00000000
_cell_angle_beta   90.00000000
_cell_angle_gamma   90.00000000
_symmetry_Int_Tables_number   1
_chemical_formula_structural   Ca2Al2(SiO4)3
_chemical_formula_sum   'Ca4 Al4 Si6 O24'
_cell_volume   485.38413716
_cell_formula_units_Z   2
loop_
 _symmetry_equiv_pos_site_id
 _symmetry_equiv_pos_as_xyz
  1  'x, y, z'
loop_
 _atom_site_type_symbol
 _atom_site_label
 _atom_site_symmetry_multiplicity
 _atom_site_fract_x
 _atom_site_fract_y
 _atom_site_fract_z
 _atom_site_occupancy
  Ca  Ca0  1  0.00981200  0.24099200  0.35136400  1
  Ca  Ca1  1  0.00981200  0.75900800  0.64863600  1
  Ca  Ca2  1  0.00981200  0.24099200  0.14863600  1
  Ca  Ca3  1  0.00981200  0.75900800  0.85136400  1
  Al  Al0  1  0.20284600  0.00000000  0.50000000  1
  Al  Al1  1  0.20284600  0.00000000  0.00000000  1
  Al  Al2  1  0.01418500  0.73896500  0.25000000  1
  Al  Al3  1  0.01418500  0.26103500  0.75000000  1
  Si  Si0  1  0.81951900  0.50000000  0.50000000  1
  Si  Si1  1  0.81951900  0.50000000  0.00000000  1
  Si  Si2  1  0.50776600  0.75113100  0.36923300  1
  Si  Si3  1  0.50776600  0.24886900  0.63076700  1
  Si  Si4  1  0.50776600  0.75113100  0.13076700  1
  Si  Si5  1  0.50776600  0.24886900  0.86923300  1
  O  O0  1  0.00399300  0.26119200  0.48036100  1
  O  O1  1  0.00399300  0.73880800  0.51963900  1
  O  O2  1  0.00399300  0.26119200  0.01963900  1
  O  O3  1  0.00399300  0.73880800  0.98036100  1
  O  O4  1  0.63685500  0.54170500  0.42590700  1
  O  O5  1  0.63685500  0.45829500  0.57409300  1
  O  O6  1  0.63685500  0.54170500  0.07409300  1
  O  O7  1  0.63685500  0.45829500  0.92590700  1
  O  O8  1  0.37386300  0.97255300  0.41729700  1
  O  O9  1  0.37386300  0.02744700  0.58270300  1
  O  O10  1  0.37386300  0.97255300  0.08270300  1
  O  O11  1  0.37386300  0.02744700  0.91729700  1
  O  O12  1  0.26053700  0.61012600  0.32433200  1
  O  O13  1  0.26053700  0.38987400  0.67566800  1
  O  O14  1  0.26053700  0.61012600  0.17566800  1
  O  O15  1  0.26053700  0.38987400  0.82433200  1
  O  O16  1  0.76941800  0.86751900  0.32354700  1
  O  O17  1  0.76941800  0.13248100  0.67645300  1
  O  O18  1  0.76941800  0.86751900  0.17645300  1
  O  O19  1  0.76941800  0.13248100  0.82354700  1
  O  O20  1  0.18601100  0.04919900  0.25000000  1
  O  O21  1  0.18601100  0.95080100  0.75000000  1
  O  O22  1  0.83295200  0.43376500  0.25000000  1
  O  O23  1  0.83295200  0.56623500  0.75000000  1
loop_
_geom_bond_atom_site_label_1
_geom_bond_atom_site_label_2
_geom_bond_distance
_geom_bond_site_symmetry_2
Ca0 O20 2.326839 1_555
Ca0 O22 2.330421 1_455
Ca0 O12 2.412054 1_555
Ca0 O16 2.412744 1_445
Ca0 O0 2.419144 1_555
Ca0 O8 2.575907 1_545
Ca0 O4 2.787062 1_455
Ca1 O21 2.326839 1_555
Ca1 O23 2.330421 1_455
Ca1 O13 2.412054 1_555
Ca1 O17 2.412744 1_465
Ca1 O1 2.419144 1_555
Ca1 O9 2.575907 1_565
Ca1 O5 2.787062 1_455
Ca2 O20 2.326839 1_555
Ca2 O22 2.330421 1_455
Ca2 O14 2.412054 1_555
Ca2 O18 2.412744 1_445
Ca2 O2 2.419144 1_555
Ca2 O10 2.575907 1_545
Ca2 O6 2.787062 1_455
Ca3 O21 2.326839 1_555
Ca3 O23 2.330421 1_455
Ca3 O15 2.412054 1_555
Ca3 O19 2.412744 1_465
Ca3 O3 2.419144 1_555
Ca3 O11 2.575907 1_565
Ca3 O7 2.787062 1_455
Al0 O9 1.749866 1_555
Al0 O8 1.749866 1_545
Al0 O1 1.759575 1_545
Al0 O0 1.759575 1_555
Al1 O10 1.749866 1_545
Al1 O11 1.749866 1_554
Al1 O2 1.759575 1_555
Al1 O3 1.759575 1_544
Al2 O22 1.892269 1_455
Al2 O20 1.898255 1_565
Al2 O16 1.927343 1_455
Al2 O18 1.927343 1_455
Al2 O12 1.942844 1_555
Al2 O14 1.942844 1_555
Al3 O23 1.892269 1_455
Al3 O21 1.898255 1_545
Al3 O19 1.927343 1_455
Al3 O17 1.927343 1_455
Al3 O15 1.942844 1_555
Al3 O13 1.942844 1_555
O0 Si0 1.622245 1_455
O1 Si0 1.622245 1_455
O2 Si1 1.622245 1_455
O3 Si1 1.622245 1_456
O4 Si0 1.645783 1_555
O4 Si2 1.685002 1_555
O5 Si0 1.645783 1_555
O5 Si3 1.685002 1_555
O6 Si1 1.645783 1_555
O6 Si4 1.685002 1_555
O7 Si1 1.645783 1_556
O7 Si5 1.685002 1_555
O8 Si2 1.646003 1_555
O9 Si3 1.646003 1_555
O10 Si4 1.646003 1_555
O11 Si5 1.646003 1_555
O12 Si2 1.629008 1_555
O13 Si3 1.629008 1_555
O14 Si4 1.629008 1_555
O15 Si5 1.629008 1_555
O16 Si2 1.626089 1_555
O17 Si3 1.626089 1_555
O18 Si4 1.626089 1_555
O19 Si5 1.626089 1_555
