# generated using pymatgen
data_CaFe2Cu3(SbO6)2
_symmetry_space_group_name_H-M   'P 1'
_cell_length_a   7.60117000
_cell_length_b   7.60117000
_cell_length_c   7.60117000
_cell_angle_alpha   90.00000000
_cell_angle_beta   90.00000000
_cell_angle_gamma   90.00000000
_symmetry_Int_Tables_number   1
_chemical_formula_structural   CaFe2Cu3(SbO6)2
_chemical_formula_sum   'Ca2 Fe4 Cu6 Sb4 O24'
_cell_volume   439.17876881
_cell_formula_units_Z   2
loop_
 _symmetry_equiv_pos_site_id
 _symmetry_equiv_pos_as_xyz
  1  'x, y, z'
loop_
 _atom_site_type_symbol
 _atom_site_label
 _atom_site_symmetry_multiplicity
 _atom_site_fract_x
 _atom_site_fract_y
 _atom_site_fract_z
 _atom_site_occupancy
  Ca  Ca0  1  0.50000000  0.50000000  0.50000000  1
  Ca  Ca1  1  0.00000000  0.00000000  0.00000000  1
  Fe  Fe0  1  0.75000000  0.25000000  0.25000000  1
  Fe  Fe1  1  0.25000000  0.25000000  0.75000000  1
  Fe  Fe2  1  0.25000000  0.75000000  0.25000000  1
  Fe  Fe3  1  0.75000000  0.75000000  0.75000000  1
  Cu  Cu0  1  0.00000000  0.50000000  0.00000000  1
  Cu  Cu1  1  0.00000000  0.00000000  0.50000000  1
  Cu  Cu2  1  0.50000000  0.00000000  0.00000000  1
  Cu  Cu3  1  0.50000000  0.00000000  0.50000000  1
  Cu  Cu4  1  0.50000000  0.50000000  0.00000000  1
  Cu  Cu5  1  0.00000000  0.50000000  0.50000000  1
  Sb  Sb0  1  0.25000000  0.75000000  0.75000000  1
  Sb  Sb1  1  0.75000000  0.75000000  0.25000000  1
  Sb  Sb2  1  0.75000000  0.25000000  0.75000000  1
  Sb  Sb3  1  0.25000000  0.25000000  0.25000000  1
  O  O0  1  0.69507900  0.99805500  0.17496800  1
  O  O1  1  0.30492100  0.99805500  0.82503200  1
  O  O2  1  0.30492100  0.00194500  0.17496800  1
  O  O3  1  0.69507900  0.00194500  0.82503200  1
  O  O4  1  0.17496800  0.69507900  0.99805500  1
  O  O5  1  0.82503200  0.30492100  0.99805500  1
  O  O6  1  0.17496800  0.30492100  0.00194500  1
  O  O7  1  0.82503200  0.69507900  0.00194500  1
  O  O8  1  0.99805500  0.17496800  0.69507900  1
  O  O9  1  0.99805500  0.82503200  0.30492100  1
  O  O10  1  0.00194500  0.17496800  0.30492100  1
  O  O11  1  0.00194500  0.82503200  0.69507900  1
  O  O12  1  0.80492100  0.50194500  0.32503200  1
  O  O13  1  0.19507900  0.50194500  0.67496800  1
  O  O14  1  0.19507900  0.49805500  0.32503200  1
  O  O15  1  0.80492100  0.49805500  0.67496800  1
  O  O16  1  0.32503200  0.80492100  0.50194500  1
  O  O17  1  0.67496800  0.19507900  0.50194500  1
  O  O18  1  0.32503200  0.19507900  0.49805500  1
  O  O19  1  0.67496800  0.80492100  0.49805500  1
  O  O20  1  0.50194500  0.32503200  0.80492100  1
  O  O21  1  0.50194500  0.67496800  0.19507900  1
  O  O22  1  0.49805500  0.32503200  0.19507900  1
  O  O23  1  0.49805500  0.67496800  0.80492100  1
loop_
_geom_bond_atom_site_label_1
_geom_bond_atom_site_label_2
_geom_bond_distance
_geom_bond_site_symmetry_2
Ca0 O23 2.672267 1_555
Ca0 O15 2.672267 1_555
Ca0 O21 2.672267 1_555
Ca0 O14 2.672267 1_555
Ca0 O18 2.672267 1_555
Ca0 O22 2.672267 1_555
Ca0 O19 2.672267 1_555
Ca0 O16 2.672267 1_555
Ca0 O12 2.672267 1_555
Ca0 O13 2.672267 1_555
Ca0 O20 2.672267 1_555
Ca0 O17 2.672267 1_555
Ca1 O4 2.672267 1_544
Ca1 O0 2.672267 1_445
Ca1 O7 2.672267 1_445
Ca1 O11 2.672267 1_544
Ca1 O5 2.672267 1_454
Ca1 O6 2.672267 1_555
Ca1 O2 2.672267 1_555
Ca1 O10 2.672267 1_555
Ca1 O1 2.672267 1_544
Ca1 O3 2.672267 1_454
Ca1 O8 2.672267 1_454
Ca1 O9 2.672267 1_445
Fe0 O0 2.041341 1_545
Fe0 O22 2.041341 1_555
Fe0 O12 2.041341 1_555
Fe0 O17 2.041341 1_555
Fe0 O5 2.041341 1_554
Fe0 O10 2.041341 1_655
Fe1 O18 2.041341 1_555
Fe1 O1 2.041341 1_545
Fe1 O13 2.041341 1_555
Fe1 O8 2.041341 1_455
Fe1 O20 2.041341 1_555
Fe1 O6 2.041341 1_556
Fe2 O14 2.041341 1_555
Fe2 O16 2.041341 1_555
Fe2 O4 2.041341 1_554
Fe2 O21 2.041341 1_555
Fe2 O9 2.041341 1_455
Fe2 O2 2.041341 1_565
Fe3 O15 2.041341 1_555
Fe3 O19 2.041341 1_555
Fe3 O23 2.041341 1_555
Fe3 O3 2.041341 1_565
Fe3 O7 2.041341 1_556
Fe3 O11 2.041341 1_655
Cu0 O4 1.991933 1_554
Cu0 O5 1.991933 1_454
Cu0 O6 1.991933 1_555
Cu0 O7 1.991933 1_455
Cu1 O10 1.991933 1_555
Cu1 O11 1.991933 1_545
Cu1 O8 1.991933 1_455
Cu1 O9 1.991933 1_445
Cu2 O1 1.991933 1_544
Cu2 O2 1.991933 1_555
Cu2 O0 1.991933 1_545
Cu2 O3 1.991933 1_554
Cu3 O19 1.991933 1_545
Cu3 O16 1.991933 1_545
Cu3 O17 1.991933 1_555
Cu3 O18 1.991933 1_555
Cu4 O22 1.991933 1_555
Cu4 O23 1.991933 1_554
Cu4 O20 1.991933 1_554
Cu4 O21 1.991933 1_555
Cu5 O14 1.991933 1_555
Cu5 O15 1.991933 1_455
Cu5 O12 1.991933 1_455
Cu5 O13 1.991933 1_555
O0 Sb1 2.013627 1_555
O1 Sb0 2.013627 1_555
O2 Sb3 2.013627 1_555
O3 Sb2 2.013627 1_555
O4 Sb0 2.013627 1_555
O5 Sb2 2.013627 1_555
O6 Sb3 2.013627 1_555
O7 Sb1 2.013627 1_555
O8 Sb2 2.013627 1_555
O9 Sb1 2.013627 1_555
O10 Sb3 2.013627 1_555
O11 Sb0 2.013627 1_555
O12 Sb1 2.013627 1_555
O13 Sb0 2.013627 1_555
O14 Sb3 2.013627 1_555
O15 Sb2 2.013627 1_555
O16 Sb0 2.013627 1_555
O17 Sb2 2.013627 1_555
O18 Sb3 2.013627 1_555
O19 Sb1 2.013627 1_555
O20 Sb2 2.013627 1_555
O21 Sb1 2.013627 1_555
O22 Sb3 2.013627 1_555
O23 Sb0 2.013627 1_555
