# generated using pymatgen
data_K4Co(MoO4)3
_symmetry_space_group_name_H-M   'P 1'
_cell_length_a   7.96582300
_cell_length_b   10.09850006
_cell_length_c   10.16893511
_cell_angle_alpha   93.99298825
_cell_angle_beta   106.68177406
_cell_angle_gamma   105.96217045
_symmetry_Int_Tables_number   1
_chemical_formula_structural   K4Co(MoO4)3
_chemical_formula_sum   'K8 Co2 Mo6 O24'
_cell_volume   743.51044628
_cell_formula_units_Z   2
loop_
 _symmetry_equiv_pos_site_id
 _symmetry_equiv_pos_as_xyz
  1  'x, y, z'
loop_
 _atom_site_type_symbol
 _atom_site_label
 _atom_site_symmetry_multiplicity
 _atom_site_fract_x
 _atom_site_fract_y
 _atom_site_fract_z
 _atom_site_occupancy
  K  K0  1  0.00000000  0.50000000  0.50000000  1
  K  K1  1  0.21657400  0.72480200  0.26180300  1
  K  K2  1  0.78342600  0.27519800  0.73819700  1
  K  K3  1  0.25220200  0.02519200  0.97328400  1
  K  K4  1  0.74779800  0.97480800  0.02671600  1
  K  K5  1  0.64291100  0.38675500  0.06749400  1
  K  K6  1  0.35708900  0.61324500  0.93250600  1
  K  K7  1  0.50000000  0.50000000  0.50000000  1
  Co  Co0  1  0.16719500  0.05797000  0.36653500  1
  Co  Co1  1  0.83280500  0.94203000  0.63346500  1
  Mo  Mo0  1  0.22868200  0.23392600  0.67956800  1
  Mo  Mo1  1  0.77131800  0.76607400  0.32043200  1
  Mo  Mo2  1  0.12348100  0.31710300  0.13906700  1
  Mo  Mo3  1  0.87651900  0.68289700  0.86093300  1
  Mo  Mo4  1  0.61623000  0.10993600  0.34839900  1
  Mo  Mo5  1  0.38377000  0.89006400  0.65160100  1
  O  O0  1  0.21091100  0.40388200  0.71318500  1
  O  O1  1  0.78908900  0.59611800  0.28681500  1
  O  O2  1  0.16668600  0.44677800  0.28467900  1
  O  O3  1  0.83331400  0.55322200  0.71532100  1
  O  O4  1  0.44075300  0.23136000  0.79928200  1
  O  O5  1  0.55924700  0.76864000  0.20071800  1
  O  O6  1  0.11897300  0.14494700  0.18790100  1
  O  O7  1  0.88102700  0.85505300  0.81209900  1
  O  O8  1  0.23518100  0.22843200  0.50059100  1
  O  O9  1  0.76481900  0.77156800  0.49940900  1
  O  O10  1  0.29836400  0.36980600  0.05931300  1
  O  O11  1  0.70163600  0.63019400  0.94068700  1
  O  O12  1  0.90461500  0.29616400  0.01329800  1
  O  O13  1  0.09538500  0.70383600  0.98670200  1
  O  O14  1  0.38738600  0.00732100  0.34597700  1
  O  O15  1  0.61261400  0.99267900  0.65402300  1
  O  O16  1  0.78568200  0.02395800  0.41913500  1
  O  O17  1  0.21431800  0.97604200  0.58086500  1
  O  O18  1  0.60599600  0.13073300  0.17296900  1
  O  O19  1  0.39400400  0.86926700  0.82703100  1
  O  O20  1  0.68204600  0.27825700  0.45030600  1
  O  O21  1  0.31795400  0.72174300  0.54969400  1
  O  O22  1  0.03161300  0.12097400  0.71885500  1
  O  O23  1  0.96838700  0.87902600  0.28114500  1
loop_
_geom_bond_atom_site_label_1
_geom_bond_atom_site_label_2
_geom_bond_distance
_geom_bond_site_symmetry_2
K0 O1 2.750168 1_455
K0 O0 2.750168 1_555
K0 O21 2.769986 1_555
K0 O20 2.769986 1_455
K0 O3 2.957010 1_455
K0 O2 2.957010 1_555
K1 O13 2.656563 1_554
K1 O14 2.753163 1_565
K1 O2 2.761370 1_555
K1 O21 2.809385 1_555
K1 O23 2.871749 1_455
K1 O5 2.894834 1_555
K2 O12 2.656563 1_556
K2 O15 2.753163 1_545
K2 O3 2.761370 1_555
K2 O20 2.809385 1_555
K2 O22 2.871749 1_655
K2 O4 2.894834 1_555
K3 O19 2.753866 1_545
K3 O18 2.821854 1_556
K3 O7 2.900378 1_445
K3 O6 3.003312 1_556
K3 O22 3.064388 1_555
K3 O4 3.168644 1_555
K3 O13 3.168652 1_545
K4 O18 2.753866 1_565
K4 O19 2.821854 1_554
K4 O6 2.900378 1_665
K4 O7 3.003312 1_554
K4 O23 3.064388 1_555
K4 O5 3.168644 1_555
K4 O12 3.168652 1_565
K5 O12 2.669249 1_555
K5 O10 2.679105 1_555
K5 O1 2.701538 1_555
K5 O4 2.826153 1_554
K5 O18 2.840860 1_555
K5 O11 2.842620 1_554
K6 O13 2.669249 1_555
K6 O11 2.679105 1_555
K6 O0 2.701538 1_555
K6 O5 2.826153 1_556
K6 O19 2.840860 1_555
K6 O10 2.842620 1_556
K7 O3 2.801140 1_555
K7 O2 2.801140 1_555
K7 O9 2.966253 1_555
K7 O8 2.966253 1_555
K7 O20 3.069489 1_555
K7 O21 3.069489 1_555
Co0 O8 1.962517 1_555
Co0 O23 1.986320 1_445
Co0 O14 2.017645 1_555
Co0 O6 2.055709 1_555
Co0 O17 2.351152 1_545
Co1 O9 1.962517 1_555
Co1 O22 1.986320 1_665
Co1 O15 2.017645 1_555
Co1 O7 2.055709 1_555
Co1 O16 2.351152 1_565
Mo0 O0 1.778283 1_555
Mo0 O4 1.784446 1_555
Mo0 O8 1.832973 1_555
Mo0 O22 1.834034 1_555
Mo1 O1 1.778283 1_555
Mo1 O5 1.784446 1_555
Mo1 O9 1.832973 1_555
Mo1 O23 1.834034 1_555
Mo2 O10 1.784000 1_555
Mo2 O12 1.788699 1_455
Mo2 O2 1.793133 1_555
Mo2 O6 1.834794 1_555
Mo3 O11 1.784000 1_555
Mo3 O13 1.788699 1_655
Mo3 O3 1.793133 1_555
Mo3 O7 1.834794 1_555
Mo4 O20 1.786243 1_555
Mo4 O18 1.792006 1_555
Mo4 O16 1.807605 1_555
Mo4 O14 1.824612 1_555
Mo5 O21 1.786243 1_555
Mo5 O19 1.792006 1_555
Mo5 O17 1.807605 1_555
Mo5 O15 1.824612 1_555
