# generated using pymatgen
data_Rb2Be2O3
_symmetry_space_group_name_H-M   'P 1'
_cell_length_a   7.57761200
_cell_length_b   7.57761200
_cell_length_c   7.39162600
_cell_angle_alpha   90.00000000
_cell_angle_beta   90.00000000
_cell_angle_gamma   90.00000000
_symmetry_Int_Tables_number   1
_chemical_formula_structural   Rb2Be2O3
_chemical_formula_sum   'Rb8 Be8 O12'
_cell_volume   424.42867002
_cell_formula_units_Z   4
loop_
 _symmetry_equiv_pos_site_id
 _symmetry_equiv_pos_as_xyz
  1  'x, y, z'
loop_
 _atom_site_type_symbol
 _atom_site_label
 _atom_site_symmetry_multiplicity
 _atom_site_fract_x
 _atom_site_fract_y
 _atom_site_fract_z
 _atom_site_occupancy
  Rb  Rb0  1  0.75379800  0.99587700  0.36303900  1
  Rb  Rb1  1  0.00412300  0.24620200  0.13696100  1
  Rb  Rb2  1  0.50412300  0.25379800  0.61303900  1
  Rb  Rb3  1  0.25379800  0.50412300  0.38696100  1
  Rb  Rb4  1  0.74620200  0.49587700  0.88696100  1
  Rb  Rb5  1  0.49587700  0.74620200  0.11303900  1
  Rb  Rb6  1  0.99587700  0.75379800  0.63696100  1
  Rb  Rb7  1  0.24620200  0.00412300  0.86303900  1
  Be  Be0  1  0.71957700  0.03254500  0.84192900  1
  Be  Be1  1  0.96745500  0.28042300  0.65807100  1
  Be  Be2  1  0.46745500  0.21957700  0.09192900  1
  Be  Be3  1  0.21957700  0.46745500  0.90807100  1
  Be  Be4  1  0.78042300  0.53254500  0.40807100  1
  Be  Be5  1  0.53254500  0.78042300  0.59192900  1
  Be  Be6  1  0.03254500  0.71957700  0.15807100  1
  Be  Be7  1  0.28042300  0.96745500  0.34192900  1
  O  O0  1  0.36670700  0.87161200  0.50627200  1
  O  O1  1  0.38741900  0.38741900  0.00000000  1
  O  O2  1  0.37161200  0.13329300  0.25627200  1
  O  O3  1  0.87161200  0.36670700  0.49372800  1
  O  O4  1  0.88741900  0.11258100  0.75000000  1
  O  O5  1  0.86670700  0.62838800  0.24372800  1
  O  O6  1  0.13329300  0.37161200  0.74372800  1
  O  O7  1  0.11258100  0.88741900  0.25000000  1
  O  O8  1  0.12838800  0.63329300  0.99372800  1
  O  O9  1  0.62838800  0.86670700  0.75627200  1
  O  O10  1  0.61258100  0.61258100  0.50000000  1
  O  O11  1  0.63329300  0.12838800  0.00627200  1
loop_
_geom_bond_atom_site_label_1
_geom_bond_atom_site_label_2
_geom_bond_distance
_geom_bond_site_symmetry_2
Be0 O11 1.559035 1_556
Be0 O4 1.564330 1_555
Be0 O9 1.567651 1_545
Be0 Rb2 2.887694 1_555
Be1 O3 1.559035 1_555
Be1 O4 1.564330 1_555
Be1 O6 1.567651 1_655
Be1 Rb4 2.887694 1_555
Be2 O2 1.559035 1_555
Be2 O1 1.564330 1_555
Be2 O11 1.567651 1_555
Be2 Rb7 2.887694 1_554
Be3 O6 1.559035 1_555
Be3 O1 1.564330 1_556
Be3 O8 1.567651 1_555
Be3 Rb1 2.887694 1_556
Be4 O5 1.559035 1_555
Be4 O10 1.564330 1_555
Be4 O3 1.567651 1_555
Be4 Rb6 2.887694 1_555
Be5 O9 1.559035 1_555
Be5 O10 1.564330 1_555
Be5 O0 1.567651 1_555
Be5 Rb0 2.887694 1_555
Be6 O8 1.559035 1_554
Be6 O7 1.564330 1_555
Be6 O5 1.567651 1_455
Be6 Rb3 2.887694 1_555
Be7 O0 1.559035 1_555
Be7 O7 1.564330 1_555
Be7 O2 1.567651 1_565
Be7 Rb5 2.887694 1_555
O0 Rb7 2.965857 1_565
O0 Rb3 3.043725 1_555
O0 Rb6 3.102628 1_455
O0 Rb2 3.177142 1_565
O1 Rb4 2.960575 1_554
O1 Rb5 2.960575 1_555
O1 Rb3 3.160446 1_555
O1 Rb2 3.160446 1_554
O2 Rb2 2.965857 1_555
O2 Rb1 3.043725 1_555
O2 Rb3 3.102628 1_555
O2 Rb0 3.177142 1_545
O3 Rb1 2.965857 1_655
O3 Rb2 3.043725 1_555
O3 Rb0 3.102628 1_545
O3 Rb3 3.177142 1_655
O4 Rb7 2.960575 1_655
O4 Rb6 2.960575 1_545
O4 Rb1 3.160446 1_656
O4 Rb0 3.160446 1_545
O5 Rb4 2.965857 1_554
O5 Rb0 3.043725 1_555
O5 Rb5 3.102628 1_555
O5 Rb1 3.177142 1_655
O6 Rb3 2.965857 1_555
O6 Rb7 3.043725 1_555
O6 Rb2 3.102628 1_555
O6 Rb6 3.177142 1_455
O7 Rb1 2.960575 1_565
O7 Rb0 2.960575 1_455
O7 Rb7 3.160446 1_564
O7 Rb6 3.160446 1_455
O8 Rb6 2.965857 1_455
O8 Rb5 3.043725 1_556
O8 Rb7 3.102628 1_565
O8 Rb4 3.177142 1_455
O9 Rb5 2.965857 1_556
O9 Rb6 3.043725 1_555
O9 Rb4 3.102628 1_555
O9 Rb7 3.177142 1_565
O10 Rb2 2.960575 1_555
O10 Rb3 2.960575 1_555
O10 Rb4 3.160446 1_555
O10 Rb5 3.160446 1_555
O11 Rb0 2.965857 1_545
O11 Rb4 3.043725 1_554
O11 Rb1 3.102628 1_655
O11 Rb5 3.177142 1_545
