# generated using pymatgen
data_Mg2GaMo3S8
_symmetry_space_group_name_H-M   'P 1'
_cell_length_a   7.42179218
_cell_length_b   7.42536173
_cell_length_c   7.42488335
_cell_angle_alpha   59.91124019
_cell_angle_beta   59.94994916
_cell_angle_gamma   59.89307122
_symmetry_Int_Tables_number   1
_chemical_formula_structural   Mg2GaMo3S8
_chemical_formula_sum   'Mg2 Ga1 Mo3 S8'
_cell_volume   288.79727551
_cell_formula_units_Z   1
loop_
 _symmetry_equiv_pos_site_id
 _symmetry_equiv_pos_as_xyz
  1  'x, y, z'
loop_
 _atom_site_type_symbol
 _atom_site_label
 _atom_site_symmetry_multiplicity
 _atom_site_fract_x
 _atom_site_fract_y
 _atom_site_fract_z
 _atom_site_occupancy
  Mg  Mg0  1  0.87564600  0.87566000  0.87549000  1
  Mg  Mg1  1  0.12435000  0.12434300  0.12452000  1
  Ga  Ga0  1  0.50000500  0.50001500  0.49997600  1
  Mo  Mo0  1  0.50000300  0.49998500  0.00001100  1
  Mo  Mo1  1  0.99999200  0.49999900  0.50001000  1
  Mo  Mo2  1  0.50001300  0.99999400  0.50000100  1
  S  S0  1  0.73955900  0.73969300  0.73952300  1
  S  S1  1  0.26058600  0.26065900  0.71604900  1
  S  S2  1  0.26063200  0.71617900  0.26060200  1
  S  S3  1  0.71611600  0.26066000  0.26055700  1
  S  S4  1  0.73935800  0.28383000  0.73938200  1
  S  S5  1  0.28388600  0.73932800  0.73943500  1
  S  S6  1  0.26043400  0.26030100  0.26049400  1
  S  S7  1  0.73942300  0.73935000  0.28395200  1
loop_
_geom_bond_atom_site_label_1
_geom_bond_atom_site_label_2
_geom_bond_distance
_geom_bond_site_symmetry_2
Mg0 S4 2.471296 1_565
Mg0 S5 2.471496 1_655
Mg0 S7 2.474325 1_556
Mg0 S0 2.474823 1_555
Mg1 S2 2.471259 1_545
Mg1 S3 2.471460 1_455
Mg1 S1 2.474379 1_554
Mg1 S6 2.474792 1_555
Ga0 S2 2.516456 1_555
Ga0 S4 2.516511 1_555
Ga0 S5 2.518700 1_555
Ga0 S7 2.518704 1_555
Ga0 S3 2.518715 1_555
Ga0 S1 2.518800 1_555
Mo0 S3 2.504801 1_555
Mo0 S5 2.504986 1_554
Mo0 S2 2.507495 1_555
Mo0 S4 2.507509 1_554
Mo0 S6 2.519670 1_555
Mo0 S0 2.519728 1_554
Mo1 S7 2.504444 1_555
Mo1 S1 2.504486 1_655
Mo1 S4 2.507665 1_555
Mo1 S2 2.507753 1_655
Mo1 S0 2.519150 1_555
Mo1 S6 2.519189 1_655
Mo2 S7 2.506884 1_555
Mo2 S1 2.506994 1_565
Mo2 S3 2.507542 1_565
Mo2 S5 2.507662 1_555
Mo2 S0 2.516340 1_555
Mo2 S6 2.516433 1_565
