# generated using pymatgen
data_Na4P6PbO18
_symmetry_space_group_name_H-M   'P 1'
_cell_length_a   7.39032900
_cell_length_b   7.94610454
_cell_length_c   7.95627955
_cell_angle_alpha   117.71126494
_cell_angle_beta   95.45001366
_cell_angle_gamma   101.61226954
_symmetry_Int_Tables_number   1
_chemical_formula_structural   Na4P6PbO18
_chemical_formula_sum   'Na4 P6 Pb1 O18'
_cell_volume   395.47472967
_cell_formula_units_Z   1
loop_
 _symmetry_equiv_pos_site_id
 _symmetry_equiv_pos_as_xyz
  1  'x, y, z'
loop_
 _atom_site_type_symbol
 _atom_site_label
 _atom_site_symmetry_multiplicity
 _atom_site_fract_x
 _atom_site_fract_y
 _atom_site_fract_z
 _atom_site_occupancy
  Na  Na0  1  0.81971400  0.81814700  0.65383800  1
  Na  Na1  1  0.17379900  0.17091800  0.34020300  1
  Na  Na2  1  0.50487200  0.50994800  0.49189600  1
  Na  Na3  1  0.88096100  0.80889900  0.23778300  1
  P  P0  1  0.23506600  0.68279200  0.66343200  1
  P  P1  1  0.76943400  0.32348700  0.33094600  1
  P  P2  1  0.49125200  0.95443100  0.77872700  1
  P  P3  1  0.50797800  0.05187700  0.22088800  1
  P  P4  1  0.77431200  0.31610600  0.97853600  1
  P  P5  1  0.23201800  0.67742400  0.02134500  1
  Pb  Pb0  1  0.09024800  0.17472500  0.80139100  1
  O  O0  1  0.74662800  0.47480300  0.77178900  1
  O  O1  1  0.25753900  0.51749500  0.22721100  1
  O  O2  1  0.70181700  0.98556100  0.81373600  1
  O  O3  1  0.29563600  0.03433600  0.17090800  1
  O  O4  1  0.80335000  0.41940900  0.11267100  1
  O  O5  1  0.20600300  0.57674800  0.88576500  1
  O  O6  1  0.92907200  0.17625500  0.06243000  1
  O  O7  1  0.07476300  0.81590300  0.93492900  1
  O  O8  1  0.62064600  0.87299400  0.34591200  1
  O  O9  1  0.36476700  0.12479700  0.66516200  1
  O  O10  1  0.74487000  0.48639500  0.36102400  1
  O  O11  1  0.26906200  0.52208100  0.63362500  1
  O  O12  1  0.92016300  0.18056200  0.47413800  1
  O  O13  1  0.07850300  0.81693700  0.52518700  1
  O  O14  1  0.56651500  0.19876400  0.31596500  1
  O  O15  1  0.43413600  0.81300100  0.67741300  1
  O  O16  1  0.57354900  0.19035400  0.01517700  1
  O  O17  1  0.43332700  0.80485100  0.98797300  1
loop_
_geom_bond_atom_site_label_1
_geom_bond_atom_site_label_2
_geom_bond_distance
_geom_bond_site_symmetry_2
Na0 O2 1.802916 1_555
Na0 O13 2.252936 1_655
Na0 Pb0 2.753856 1_665
Na0 O7 2.793686 1_655
Na0 O8 2.987144 1_555
Na1 O3 1.751322 1_555
Na1 O12 2.239712 1_455
Na1 O11 2.563285 1_555
Na1 O6 2.741520 1_455
Na2 O10 2.137365 1_555
Na2 O11 2.158176 1_555
Na2 O15 2.366111 1_555
Na2 O14 2.374176 1_555
Na2 O1 2.685134 1_555
Na2 O0 2.872755 1_555
Na3 O8 2.236495 1_555
Na3 O13 2.560612 1_655
Na3 O12 2.594042 1_565
Na3 O4 2.685169 1_555
Na3 O7 2.934074 1_654
P4 Pb0 2.984737 1_655
O0 P4 2.511366 1_555
O2 P2 1.502990 1_555
O3 P3 1.543388 1_555
O4 P4 0.964184 1_554
O5 P5 0.967817 1_556
O5 Pb0 2.860720 1_555
O6 P4 2.011239 1_554
O6 Pb0 2.486917 1_654
O7 P5 2.025049 1_556
O7 P0 2.460479 1_555
O8 P3 2.310275 1_565
O9 P2 2.238174 1_545
O9 Pb0 2.406234 1_555
O10 P1 1.257244 1_555
O11 P0 1.268456 1_555
O12 P1 2.302213 1_555
O12 Pb0 2.806349 1_655
O13 P0 2.242756 1_555
O13 Pb0 2.640723 1_565
O14 P3 1.017401 1_555
O14 P1 1.582147 1_555
O15 P2 0.996393 1_555
O15 P0 1.579992 1_555
O16 P4 1.743870 1_554
O16 P2 1.862016 1_544
O17 P5 1.740044 1_556
O17 P3 1.891633 1_566
