# generated using pymatgen
data_SnH3NF3
_symmetry_space_group_name_H-M   'P 1'
_cell_length_a   8.41241692
_cell_length_b   8.41241692
_cell_length_c   5.84300468
_cell_angle_alpha   78.74615825
_cell_angle_beta   78.74615825
_cell_angle_gamma   100.79836219
_symmetry_Int_Tables_number   1
_chemical_formula_structural   SnH3NF3
_chemical_formula_sum   'Sn4 H12 N4 F12'
_cell_volume   386.67560732
_cell_formula_units_Z   4
loop_
 _symmetry_equiv_pos_site_id
 _symmetry_equiv_pos_as_xyz
  1  'x, y, z'
loop_
 _atom_site_type_symbol
 _atom_site_label
 _atom_site_symmetry_multiplicity
 _atom_site_fract_x
 _atom_site_fract_y
 _atom_site_fract_z
 _atom_site_occupancy
  Sn  Sn0  1  0.90838300  0.70364900  0.52100500  1
  Sn  Sn1  1  0.29635100  0.09161700  0.97899500  1
  Sn  Sn2  1  0.09161700  0.29635100  0.47899500  1
  Sn  Sn3  1  0.70364900  0.90838300  0.02100500  1
  H  H0  1  0.84155500  0.38029300  0.13065300  1
  H  H1  1  0.61970700  0.15844500  0.36934700  1
  H  H2  1  0.15844500  0.61970700  0.86934700  1
  H  H3  1  0.38029300  0.84155500  0.63065300  1
  H  H4  1  0.70620800  0.51303000  0.13168600  1
  H  H5  1  0.48697000  0.29379200  0.36831400  1
  H  H6  1  0.29379200  0.48697000  0.86831400  1
  H  H7  1  0.51303000  0.70620800  0.63168600  1
  H  H8  1  0.67301900  0.34544100  0.99888300  1
  H  H9  1  0.65455900  0.32698100  0.50111700  1
  H  H10  1  0.32698100  0.65455900  0.00111700  1
  H  H11  1  0.34544100  0.67301900  0.49888300  1
  N  N0  1  0.71505300  0.38948300  0.13680200  1
  N  N1  1  0.61051700  0.28494700  0.36319800  1
  N  N2  1  0.28494700  0.61051700  0.86319800  1
  N  N3  1  0.38948300  0.71505300  0.63680200  1
  F  F0  1  0.67352700  0.67853400  0.76664100  1
  F  F1  1  0.32146600  0.32647300  0.73335900  1
  F  F2  1  0.32647300  0.32146600  0.23335900  1
  F  F3  1  0.67853400  0.67352700  0.26664100  1
  F  F4  1  0.82686700  0.44287300  0.58501400  1
  F  F5  1  0.55712700  0.17313300  0.91498600  1
  F  F6  1  0.17313300  0.55712700  0.41498600  1
  F  F7  1  0.44287300  0.82686700  0.08501400  1
  F  F8  1  0.99111600  0.66307900  0.84736700  1
  F  F9  1  0.33692100  0.00888400  0.65263300  1
  F  F10  1  0.00888400  0.33692100  0.15263300  1
  F  F11  1  0.66307900  0.99111600  0.34736700  1
loop_
_geom_bond_atom_site_label_1
_geom_bond_atom_site_label_2
_geom_bond_distance
_geom_bond_site_symmetry_2
H0 N0 1.075524 1_555
H1 N1 1.075524 1_555
H2 N2 1.075524 1_555
H3 N3 1.075524 1_555
H4 N0 1.050882 1_555
H5 N1 1.050882 1_555
H6 N2 1.050882 1_555
H7 N3 1.050882 1_555
H8 N0 1.044217 1_556
H9 N1 1.044217 1_555
H10 N2 1.044217 1_554
H11 N3 1.044217 1_555
F0 Sn0 2.150919 1_555
F1 Sn1 2.150919 1_555
F2 Sn2 2.150919 1_555
F3 Sn3 2.150919 1_555
F4 Sn0 2.106812 1_555
F5 Sn1 2.106812 1_555
F6 Sn2 2.106812 1_555
F7 Sn3 2.106812 1_555
F8 H2 1.541361 1_655
F8 Sn0 2.142493 1_555
F9 H3 1.541361 1_545
F9 Sn1 2.142493 1_555
F10 H0 1.541361 1_455
F10 Sn2 2.142493 1_555
F11 H1 1.541361 1_565
F11 Sn3 2.142493 1_555
