# generated using pymatgen
data_Cs2ErSi4O10F
_symmetry_space_group_name_H-M   'P 1'
_cell_length_a   9.03726100
_cell_length_b   12.13398600
_cell_length_c   22.65508800
_cell_angle_alpha   90.00000000
_cell_angle_beta   90.00000000
_cell_angle_gamma   90.00000000
_symmetry_Int_Tables_number   1
_chemical_formula_structural   Cs2ErSi4O10F
_chemical_formula_sum   'Cs16 Er8 Si32 O80 F8'
_cell_volume   2484.31160484
_cell_formula_units_Z   8
loop_
 _symmetry_equiv_pos_site_id
 _symmetry_equiv_pos_as_xyz
  1  'x, y, z'
loop_
 _atom_site_type_symbol
 _atom_site_label
 _atom_site_symmetry_multiplicity
 _atom_site_fract_x
 _atom_site_fract_y
 _atom_site_fract_z
 _atom_site_occupancy
  Cs  Cs0  1  0.25000000  0.55715600  0.95613400  1
  Cs  Cs1  1  0.25000000  0.94284400  0.45613400  1
  Cs  Cs2  1  0.75000000  0.44284400  0.04386600  1
  Cs  Cs3  1  0.75000000  0.05715600  0.54386600  1
  Cs  Cs4  1  0.25000000  0.95295000  0.98396800  1
  Cs  Cs5  1  0.25000000  0.54705000  0.48396800  1
  Cs  Cs6  1  0.75000000  0.04705000  0.01603200  1
  Cs  Cs7  1  0.75000000  0.45295000  0.51603200  1
  Cs  Cs8  1  0.25000000  0.82186600  0.77174500  1
  Cs  Cs9  1  0.25000000  0.67813400  0.27174500  1
  Cs  Cs10  1  0.75000000  0.17813400  0.22825500  1
  Cs  Cs11  1  0.75000000  0.32186600  0.72825500  1
  Cs  Cs12  1  0.25000000  0.37742200  0.76274100  1
  Cs  Cs13  1  0.25000000  0.12257800  0.26274100  1
  Cs  Cs14  1  0.75000000  0.62257800  0.23725900  1
  Cs  Cs15  1  0.75000000  0.87742200  0.73725900  1
  Er  Er0  1  0.50010700  0.09685300  0.84897200  1
  Er  Er1  1  0.99989300  0.40314700  0.34897200  1
  Er  Er2  1  0.00010700  0.90314700  0.15102800  1
  Er  Er3  1  0.49989300  0.59685300  0.65102800  1
  Er  Er4  1  0.49989300  0.90314700  0.15102800  1
  Er  Er5  1  0.00010700  0.59685300  0.65102800  1
  Er  Er6  1  0.99989300  0.09685300  0.84897200  1
  Er  Er7  1  0.50010700  0.40314700  0.34897200  1
  Si  Si0  1  0.07034100  0.30495300  0.61177400  1
  Si  Si1  1  0.42965900  0.19504700  0.11177400  1
  Si  Si2  1  0.57034100  0.69504700  0.38822600  1
  Si  Si3  1  0.92965900  0.80495300  0.88822600  1
  Si  Si4  1  0.92965900  0.69504700  0.38822600  1
  Si  Si5  1  0.57034100  0.80495300  0.88822600  1
  Si  Si6  1  0.42965900  0.30495300  0.61177400  1
  Si  Si7  1  0.07034100  0.19504700  0.11177400  1
  Si  Si8  1  0.07043100  0.08923500  0.68991000  1
  Si  Si9  1  0.42956900  0.41076500  0.18991000  1
  Si  Si10  1  0.57043100  0.91076500  0.31009000  1
  Si  Si11  1  0.92956900  0.58923500  0.81009000  1
  Si  Si12  1  0.92956900  0.91076500  0.31009000  1
  Si  Si13  1  0.57043100  0.58923500  0.81009000  1
  Si  Si14  1  0.42956900  0.08923500  0.68991000  1
  Si  Si15  1  0.07043100  0.41076500  0.18991000  1
  Si  Si16  1  0.07313700  0.24921300  0.97918400  1
  Si  Si17  1  0.42686300  0.25078700  0.47918400  1
  Si  Si18  1  0.57313700  0.75078700  0.02081600  1
  Si  Si19  1  0.92686300  0.74921300  0.52081600  1
  Si  Si20  1  0.92686300  0.75078700  0.02081600  1
  Si  Si21  1  0.57313700  0.74921300  0.52081600  1
  Si  Si22  1  0.42686300  0.24921300  0.97918400  1
  Si  Si23  1  0.07313700  0.25078700  0.47918400  1
  Si  Si24  1  0.07210200  0.87563500  0.61753500  1
  Si  Si25  1  0.42789800  0.62436500  0.11753500  1
  Si  Si26  1  0.57210200  0.12436500  0.38246500  1
  Si  Si27  1  0.92789800  0.37563500  0.88246500  1
  Si  Si28  1  0.92789800  0.12436500  0.38246500  1
  Si  Si29  1  0.57210200  0.37563500  0.88246500  1
  Si  Si30  1  0.42789800  0.87563500  0.61753500  1
  Si  Si31  1  0.07210200  0.62436500  0.11753500  1
  O  O0  1  0.25000000  0.31833400  0.60854200  1
  O  O1  1  0.25000000  0.18166600  0.10854200  1
  O  O2  1  0.75000000  0.68166600  0.39145800  1
  O  O3  1  0.75000000  0.81833400  0.89145800  1
  O  O4  1  0.25000000  0.07754900  0.69533600  1
  O  O5  1  0.25000000  0.42245100  0.19533600  1
  O  O6  1  0.75000000  0.92245100  0.30466400  1
  O  O7  1  0.75000000  0.57754900  0.80466400  1
  O  O8  1  0.25000000  0.27625800  0.98238600  1
  O  O9  1  0.25000000  0.22374200  0.48238600  1
  O  O10  1  0.75000000  0.72374200  0.01761400  1
  O  O11  1  0.75000000  0.77625800  0.51761400  1
  O  O12  1  0.25000000  0.88638700  0.60626400  1
  O  O13  1  0.25000000  0.61361300  0.10626400  1
  O  O14  1  0.75000000  0.11361300  0.39373600  1
  O  O15  1  0.75000000  0.38638700  0.89373600  1
  O  O16  1  0.03091100  0.21164700  0.66249800  1
  O  O17  1  0.46908900  0.28835300  0.16249800  1
  O  O18  1  0.53091100  0.78835300  0.33750200  1
  O  O19  1  0.96908900  0.71164700  0.83750200  1
  O  O20  1  0.96908900  0.78835300  0.33750200  1
  O  O21  1  0.53091100  0.71164700  0.83750200  1
  O  O22  1  0.46908900  0.21164700  0.66249800  1
  O  O23  1  0.03091100  0.28835300  0.16249800  1
  O  O24  1  0.01202900  0.25279800  0.54819900  1
  O  O25  1  0.48797100  0.24720200  0.04819900  1
  O  O26  1  0.51202900  0.74720200  0.45180100  1
  O  O27  1  0.98797100  0.75279800  0.95180100  1
  O  O28  1  0.98797100  0.74720200  0.45180100  1
  O  O29  1  0.51202900  0.75279800  0.95180100  1
  O  O30  1  0.48797100  0.25279800  0.54819900  1
  O  O31  1  0.01202900  0.24720200  0.04819900  1
  O  O32  1  0.01340600  0.99806200  0.64014400  1
  O  O33  1  0.48659400  0.50193800  0.14014400  1
  O  O34  1  0.51340600  0.00193800  0.35985600  1
  O  O35  1  0.98659400  0.49806200  0.85985600  1
  O  O36  1  0.98659400  0.00193800  0.35985600  1
  O  O37  1  0.51340600  0.49806200  0.85985600  1
  O  O38  1  0.48659400  0.99806200  0.64014400  1
  O  O39  1  0.01340600  0.50193800  0.14014400  1
  O  O40  1  0.00944500  0.91831800  0.87163800  1
  O  O41  1  0.49055500  0.58168200  0.37163800  1
  O  O42  1  0.50944500  0.08168200  0.12836200  1
  O  O43  1  0.99055500  0.41831800  0.62836200  1
  O  O44  1  0.99055500  0.08168200  0.12836200  1
  O  O45  1  0.50944500  0.41831800  0.62836200  1
  O  O46  1  0.49055500  0.91831800  0.87163800  1
  O  O47  1  0.00944500  0.58168200  0.37163800  1
  O  O48  1  0.00941200  0.57213800  0.74787600  1
  O  O49  1  0.49058800  0.92786200  0.24787600  1
  O  O50  1  0.50941200  0.42786200  0.25212400  1
  O  O51  1  0.99058800  0.07213800  0.75212400  1
  O  O52  1  0.99058800  0.42786200  0.25212400  1
  O  O53  1  0.50941200  0.07213800  0.75212400  1
  O  O54  1  0.49058800  0.57213800  0.74787600  1
  O  O55  1  0.00941200  0.92786200  0.24787600  1
  O  O56  1  0.02952000  0.13955300  0.94436000  1
  O  O57  1  0.47048000  0.36044700  0.44436000  1
  O  O58  1  0.52952000  0.86044700  0.05564000  1
  O  O59  1  0.97048000  0.63955300  0.55564000  1
  O  O60  1  0.97048000  0.86044700  0.05564000  1
  O  O61  1  0.52952000  0.63955300  0.55564000  1
  O  O62  1  0.47048000  0.13955300  0.94436000  1
  O  O63  1  0.02952000  0.36044700  0.44436000  1
  O  O64  1  0.02438300  0.77976400  0.66204400  1
  O  O65  1  0.47561700  0.72023600  0.16204400  1
  O  O66  1  0.52438300  0.22023600  0.33795600  1
  O  O67  1  0.97561700  0.27976400  0.83795600  1
  O  O68  1  0.97561700  0.22023600  0.33795600  1
  O  O69  1  0.52438300  0.27976400  0.83795600  1
  O  O70  1  0.47561700  0.77976400  0.66204400  1
  O  O71  1  0.02438300  0.72023600  0.16204400  1
  O  O72  1  0.00087600  0.86197100  0.55024500  1
  O  O73  1  0.49912400  0.63802900  0.05024500  1
  O  O74  1  0.50087600  0.13802900  0.44975500  1
  O  O75  1  0.99912400  0.36197100  0.94975500  1
  O  O76  1  0.99912400  0.13802900  0.44975500  1
  O  O77  1  0.50087600  0.36197100  0.94975500  1
  O  O78  1  0.49912400  0.86197100  0.55024500  1
  O  O79  1  0.00087600  0.63802900  0.05024500  1
  F  F0  1  0.25000000  0.58622600  0.64514700  1
  F  F1  1  0.25000000  0.91377400  0.14514700  1
  F  F2  1  0.75000000  0.41377400  0.35485300  1
  F  F3  1  0.75000000  0.08622600  0.85485300  1
  F  F4  1  0.25000000  0.10114500  0.84182100  1
  F  F5  1  0.25000000  0.39885500  0.34182100  1
  F  F6  1  0.75000000  0.89885500  0.15817900  1
  F  F7  1  0.75000000  0.60114500  0.65817900  1
loop_
_geom_bond_atom_site_label_1
_geom_bond_atom_site_label_2
_geom_bond_distance
_geom_bond_site_symmetry_2
Cs0 O79 3.252321 1_556
Cs0 O73 3.252321 1_556
Cs0 O77 3.281831 1_555
Cs0 O75 3.281831 1_455
Cs0 O37 3.307319 1_555
Cs0 O35 3.307319 1_455
Cs0 O29 3.354498 1_555
Cs0 O27 3.354498 1_455
Cs0 O8 3.459912 1_555
Cs0 O13 3.469511 1_556
Cs1 O72 3.252321 1_555
Cs1 O78 3.252321 1_555
Cs1 O76 3.281831 1_465
Cs1 O74 3.281831 1_565
Cs1 O34 3.307319 1_565
Cs1 O36 3.307319 1_465
Cs1 O26 3.354498 1_555
Cs1 O28 3.354498 1_455
Cs1 O9 3.459912 1_565
Cs1 O12 3.469511 1_555
Cs2 O75 3.252321 1_554
Cs2 O77 3.252321 1_554
Cs2 O73 3.281831 1_555
Cs2 O79 3.281831 1_655
Cs2 O33 3.307319 1_555
Cs2 O39 3.307319 1_655
Cs2 O25 3.354498 1_555
Cs2 O31 3.354498 1_655
Cs2 O10 3.459912 1_555
Cs2 O15 3.469511 1_554
Cs3 O74 3.252321 1_555
Cs3 O76 3.252321 1_555
Cs3 O78 3.281831 1_545
Cs3 O72 3.281831 1_645
Cs3 O32 3.307319 1_645
Cs3 O38 3.307319 1_545
Cs3 O30 3.354498 1_555
Cs3 O24 3.354498 1_655
Cs3 O11 3.459912 1_545
Cs3 O14 3.469511 1_555
Cs4 O62 3.146770 1_565
Cs4 O56 3.146770 1_565
Cs4 O60 3.205858 1_456
Cs4 O58 3.205858 1_556
Cs4 O40 3.373266 1_555
Cs4 O46 3.373266 1_555
Cs4 O27 3.469425 1_455
Cs4 O29 3.469425 1_555
Cs5 O63 3.146770 1_555
Cs5 O57 3.146770 1_555
Cs5 O59 3.205858 1_455
Cs5 O61 3.205858 1_555
Cs5 O47 3.373266 1_555
Cs5 O41 3.373266 1_555
Cs5 O26 3.469425 1_555
Cs5 O28 3.469425 1_455
Cs6 O58 3.146770 1_545
Cs6 O60 3.146770 1_545
Cs6 O62 3.205858 1_554
Cs6 O56 3.205858 1_654
Cs6 O42 3.373266 1_555
Cs6 O44 3.373266 1_555
Cs6 O25 3.469425 1_555
Cs6 O31 3.469425 1_655
Cs7 O59 3.146770 1_555
Cs7 O61 3.146770 1_555
Cs7 O63 3.205858 1_655
Cs7 O57 3.205858 1_555
Cs7 O43 3.373266 1_555
Cs7 O45 3.373266 1_555
Cs7 O30 3.469425 1_555
Cs7 O24 3.469425 1_655
Cs8 O19 3.233071 1_455
Cs8 O21 3.233071 1_555
Cs8 O64 3.254994 1_555
Cs8 O70 3.254994 1_555
Cs8 O40 3.349233 1_555
Cs8 O46 3.349233 1_555
Cs8 O4 3.552712 1_565
Cs9 O20 3.233071 1_455
Cs9 O18 3.233071 1_555
Cs9 O71 3.254994 1_555
Cs9 O65 3.254994 1_555
Cs9 O47 3.349233 1_555
Cs9 O41 3.349233 1_555
Cs9 O5 3.552712 1_555
Cs10 O23 3.233071 1_655
Cs10 O17 3.233071 1_555
Cs10 O66 3.254994 1_555
Cs10 O68 3.254994 1_555
Cs10 O44 3.349233 1_555
Cs10 O42 3.349233 1_555
Cs10 O6 3.552712 1_545
Cs11 O16 3.233071 1_655
Cs11 O22 3.233071 1_555
Cs11 O67 3.254994 1_555
Cs11 O69 3.254994 1_555
Cs11 O45 3.349233 1_555
Cs11 O43 3.349233 1_555
Cs11 O7 3.552712 1_555
Cs12 O48 3.228477 1_555
Cs12 O54 3.228477 1_555
Cs12 O69 3.233662 1_555
Cs12 O67 3.233662 1_455
Cs13 O55 3.228477 1_545
Cs13 O49 3.228477 1_545
Cs13 O68 3.233662 1_455
Cs13 O66 3.233662 1_555
Cs14 O50 3.228477 1_555
Cs14 O52 3.228477 1_555
Cs14 O65 3.233662 1_555
Cs14 O71 3.233662 1_655
Cs15 O51 3.228477 1_565
Cs15 O53 3.228477 1_565
Cs15 O70 3.233662 1_555
Cs15 O64 3.233662 1_655
Er0 O53 2.216096 1_555
Er0 O46 2.228041 1_545
Er0 O62 2.238339 1_555
Er0 O69 2.244176 1_555
Er0 F3 2.265947 1_555
Er0 F4 2.266679 1_555
Er1 O52 2.216096 1_555
Er1 O47 2.228041 1_655
Er1 O63 2.238339 1_655
Er1 O68 2.244176 1_555
Er1 F2 2.265947 1_555
Er1 F5 2.266679 1_655
Er2 O55 2.216096 1_555
Er2 O44 2.228041 1_465
Er2 O60 2.238339 1_455
Er2 O71 2.244176 1_555
Er2 F1 2.265947 1_555
Er2 F6 2.266679 1_455
Er3 O54 2.216096 1_555
Er3 O45 2.228041 1_555
Er3 O61 2.238339 1_555
Er3 O70 2.244176 1_555
Er3 F0 2.265947 1_555
Er3 F7 2.266679 1_555
Er4 O49 2.216096 1_555
Er4 O42 2.228041 1_565
Er4 O58 2.238339 1_555
Er4 O65 2.244176 1_555
Er4 F1 2.265947 1_555
Er4 F6 2.266679 1_555
Er5 O48 2.216096 1_555
Er5 O43 2.228041 1_455
Er5 O59 2.238339 1_455
Er5 O64 2.244176 1_555
Er5 F0 2.265947 1_555
Er5 F7 2.266679 1_455
Er6 O51 2.216096 1_555
Er6 O40 2.228041 1_645
Er6 O56 2.238339 1_655
Er6 O67 2.244176 1_555
Er6 F3 2.265947 1_555
Er6 F4 2.266679 1_655
Er7 O50 2.216096 1_555
Er7 O41 2.228041 1_555
Er7 O57 2.238339 1_555
Er7 O66 2.244176 1_555
Er7 F2 2.265947 1_555
Er7 F5 2.266679 1_555
O0 Si6 1.633365 1_555
O0 Si0 1.633365 1_555
O1 Si1 1.633365 1_555
O1 Si7 1.633365 1_555
O2 Si2 1.633365 1_555
O2 Si4 1.633365 1_555
O3 Si5 1.633365 1_555
O3 Si3 1.633365 1_555
O4 Si14 1.633627 1_555
O4 Si8 1.633627 1_555
O5 Si9 1.633627 1_555
O5 Si15 1.633627 1_555
O6 Si12 1.633627 1_555
O6 Si10 1.633627 1_555
O7 Si11 1.633627 1_555
O7 Si13 1.633627 1_555
O8 Si16 1.633309 1_555
O8 Si22 1.633309 1_555
O9 Si23 1.633309 1_555
O9 Si17 1.633309 1_555
O10 Si18 1.633309 1_555
O10 Si20 1.633309 1_555
O11 Si21 1.633309 1_555
O11 Si19 1.633309 1_555
O12 Si30 1.633082 1_555
O12 Si24 1.633082 1_555
O13 Si25 1.633082 1_555
O13 Si31 1.633082 1_555
O14 Si28 1.633082 1_555
O14 Si26 1.633082 1_555
O15 Si27 1.633082 1_555
O15 Si29 1.633082 1_555
O16 Si8 1.649084 1_555
O16 Si0 1.652076 1_555
O17 Si9 1.649084 1_555
O17 Si1 1.652076 1_555
O18 Si10 1.649084 1_555
O18 Si2 1.652076 1_555
O19 Si11 1.649084 1_555
O19 Si3 1.652076 1_555
O20 Si12 1.649084 1_555
O20 Si4 1.652076 1_555
O21 Si13 1.649084 1_555
O21 Si5 1.652076 1_555
O22 Si14 1.649084 1_555
O22 Si6 1.652076 1_555
O23 Si15 1.649084 1_555
O23 Si7 1.652076 1_555
O24 Si23 1.658383 1_555
O24 Si0 1.659115 1_555
O25 Si22 1.658383 1_554
O25 Si1 1.659115 1_555
O26 Si21 1.658383 1_555
O26 Si2 1.659115 1_555
O27 Si20 1.658383 1_556
O27 Si3 1.659115 1_555
O28 Si19 1.658383 1_555
O28 Si4 1.659115 1_555
O29 Si18 1.658383 1_556
O29 Si5 1.659115 1_555
O30 Si17 1.658383 1_555
O30 Si6 1.659115 1_555
O31 Si16 1.658383 1_554
O31 Si7 1.659115 1_555
O32 Si24 1.658472 1_555
O32 Si8 1.661511 1_565
O33 Si25 1.658472 1_555
O33 Si9 1.661511 1_555
O34 Si26 1.658472 1_555
O34 Si10 1.661511 1_545
O35 Si27 1.658472 1_555
O35 Si11 1.661511 1_555
O36 Si28 1.658472 1_555
O36 Si12 1.661511 1_545
O37 Si29 1.658472 1_555
O37 Si13 1.661511 1_555
O38 Si30 1.658472 1_555
O38 Si14 1.661511 1_565
O39 Si31 1.658472 1_555
O39 Si15 1.661511 1_555
O40 Si3 1.597913 1_455
O41 Si2 1.597913 1_555
O42 Si1 1.597913 1_555
O43 Si0 1.597913 1_655
O44 Si7 1.597913 1_655
O45 Si6 1.597913 1_555
O46 Si5 1.597913 1_555
O47 Si4 1.597913 1_455
O48 Si11 1.596959 1_455
O49 Si10 1.596959 1_555
O50 Si9 1.596959 1_555
O51 Si8 1.596959 1_655
O52 Si15 1.596959 1_655
O53 Si14 1.596959 1_555
O54 Si13 1.596959 1_555
O55 Si12 1.596959 1_455
O56 Si16 1.596350 1_555
O57 Si17 1.596350 1_555
O58 Si18 1.596350 1_555
O59 Si19 1.596350 1_555
O60 Si20 1.596350 1_555
O61 Si21 1.596350 1_555
O62 Si22 1.596350 1_555
O63 Si23 1.596350 1_555
O64 Si24 1.598755 1_555
O65 Si25 1.598755 1_555
O66 Si26 1.598755 1_555
O67 Si27 1.598755 1_555
O68 Si28 1.598755 1_555
O69 Si29 1.598755 1_555
O70 Si30 1.598755 1_555
O71 Si31 1.598755 1_555
O72 Si19 1.662494 1_455
O72 Si24 1.663071 1_555
O73 Si18 1.662494 1_555
O73 Si25 1.663071 1_555
O74 Si17 1.662494 1_555
O74 Si26 1.663071 1_555
O75 Si16 1.662494 1_655
O75 Si27 1.663071 1_555
O76 Si23 1.662494 1_655
O76 Si28 1.663071 1_555
O77 Si22 1.662494 1_555
O77 Si29 1.663071 1_555
O78 Si21 1.662494 1_555
O78 Si30 1.663071 1_555
O79 Si20 1.662494 1_455
O79 Si31 1.663071 1_555
