# generated using pymatgen
data_TeMoWSe3
_symmetry_space_group_name_H-M   'P 1'
_cell_length_a   3.37928058
_cell_length_b   3.37928058
_cell_length_c   38.47430800
_cell_angle_alpha   90.00000000
_cell_angle_beta   90.00000000
_cell_angle_gamma   120.00001142
_symmetry_Int_Tables_number   1
_chemical_formula_structural   TeMoWSe3
_chemical_formula_sum   'Te2 Mo2 W2 Se6'
_cell_volume   380.49583300
_cell_formula_units_Z   2
loop_
 _symmetry_equiv_pos_site_id
 _symmetry_equiv_pos_as_xyz
  1  'x, y, z'
loop_
 _atom_site_type_symbol
 _atom_site_label
 _atom_site_symmetry_multiplicity
 _atom_site_fract_x
 _atom_site_fract_y
 _atom_site_fract_z
 _atom_site_occupancy
  Te  Te0  1  0.33333300  0.66666700  0.70640400  1
  Te  Te1  1  0.33333300  0.66666700  0.60868500  1
  Mo  Mo0  1  0.33333300  0.66666700  0.09391600  1
  Mo  Mo1  1  0.66666700  0.33333300  0.65755100  1
  W  W0  1  0.33333300  0.66666700  0.46965400  1
  W  W1  1  0.66666700  0.33333300  0.28180500  1
  Se  Se0  1  0.33333300  0.66666700  0.32499600  1
  Se  Se1  1  0.66666700  0.33333300  0.05086800  1
  Se  Se2  1  0.66666700  0.33333300  0.42646200  1
  Se  Se3  1  0.66666700  0.33333300  0.13697500  1
  Se  Se4  1  0.66666700  0.33333300  0.51284200  1
  Se  Se5  1  0.33333300  0.66666700  0.23858900  1
loop_
_geom_bond_atom_site_label_1
_geom_bond_atom_site_label_2
_geom_bond_distance
_geom_bond_site_symmetry_2
Mo0 Se1 2.559227 1_455
Mo0 Se1 2.559227 1_565
Mo0 Se1 2.559231 1_555
Mo0 Se3 2.559501 1_565
Mo0 Se3 2.559501 1_455
Mo0 Se3 2.559505 1_555
Mo1 Te0 2.709123 1_545
Mo1 Te0 2.709123 1_655
Mo1 Te0 2.709127 1_555
Mo1 Te1 2.709470 1_655
Mo1 Te1 2.709470 1_545
Mo1 Te1 2.709474 1_555
Se0 W1 2.562791 1_455
Se0 W1 2.562791 1_565
Se0 W1 2.562795 1_555
Se2 W0 2.562816 1_545
Se2 W0 2.562816 1_655
Se2 W0 2.562820 1_555
Se4 W0 2.562716 1_545
Se4 W0 2.562716 1_655
Se4 W0 2.562721 1_555
Se5 W1 2.563415 1_455
Se5 W1 2.563415 1_565
Se5 W1 2.563419 1_555
