# generated using pymatgen
data_Th2BPO8
_symmetry_space_group_name_H-M   'P 1'
_cell_length_a   8.01604500
_cell_length_b   8.29988600
_cell_length_c   8.55548004
_cell_angle_alpha   76.48198328
_cell_angle_beta   90.00000000
_cell_angle_gamma   90.00000000
_symmetry_Int_Tables_number   1
_chemical_formula_structural   Th2BPO8
_chemical_formula_sum   'Th8 B4 P4 O32'
_cell_volume   553.44614038
_cell_formula_units_Z   4
loop_
 _symmetry_equiv_pos_site_id
 _symmetry_equiv_pos_as_xyz
  1  'x, y, z'
loop_
 _atom_site_type_symbol
 _atom_site_label
 _atom_site_symmetry_multiplicity
 _atom_site_fract_x
 _atom_site_fract_y
 _atom_site_fract_z
 _atom_site_occupancy
  Th  Th0  1  0.19522900  0.45778100  0.18265000  1
  Th  Th1  1  0.69522900  0.04221900  0.81735000  1
  Th  Th2  1  0.80477100  0.54221900  0.81735000  1
  Th  Th3  1  0.30477100  0.95778100  0.18265000  1
  Th  Th4  1  0.81689800  0.07737000  0.24076700  1
  Th  Th5  1  0.31689800  0.42263000  0.75923300  1
  Th  Th6  1  0.18310200  0.92263000  0.75923300  1
  Th  Th7  1  0.68310200  0.57737000  0.24076700  1
  B  B0  1  0.55839800  0.28260100  0.03159200  1
  B  B1  1  0.05839800  0.21739900  0.96840800  1
  B  B2  1  0.44160200  0.71739900  0.96840800  1
  B  B3  1  0.94160200  0.78260100  0.03159200  1
  P  P0  1  0.95420600  0.28314300  0.54389100  1
  P  P1  1  0.45420600  0.21685700  0.45610900  1
  P  P2  1  0.04579400  0.71685700  0.45610900  1
  P  P3  1  0.54579400  0.78314300  0.54389100  1
  O  O0  1  0.39242100  0.34492600  0.05616300  1
  O  O1  1  0.89242100  0.15507400  0.94383700  1
  O  O2  1  0.60757900  0.65507400  0.94383700  1
  O  O3  1  0.10757900  0.84492600  0.05616300  1
  O  O4  1  0.56578000  0.09813600  0.08863700  1
  O  O5  1  0.06578000  0.40186400  0.91136300  1
  O  O6  1  0.43422000  0.90186400  0.91136300  1
  O  O7  1  0.93422000  0.59813600  0.08863700  1
  O  O8  1  0.69868500  0.35062600  0.10928800  1
  O  O9  1  0.19868500  0.14937400  0.89071200  1
  O  O10  1  0.30131500  0.64937400  0.89071200  1
  O  O11  1  0.80131500  0.85062600  0.10928800  1
  O  O12  1  0.08660500  0.17759800  0.14503600  1
  O  O13  1  0.58660500  0.32240200  0.85496400  1
  O  O14  1  0.91339500  0.82240200  0.85496400  1
  O  O15  1  0.41339500  0.67759800  0.14503600  1
  O  O16  1  0.81080100  0.34663600  0.63359900  1
  O  O17  1  0.31080100  0.15336400  0.36640100  1
  O  O18  1  0.18919900  0.65336400  0.36640100  1
  O  O19  1  0.68919900  0.84663600  0.63359900  1
  O  O20  1  0.62638900  0.14694000  0.42905200  1
  O  O21  1  0.12638900  0.35306000  0.57094800  1
  O  O22  1  0.37361100  0.85306000  0.57094800  1
  O  O23  1  0.87361100  0.64694000  0.42905200  1
  O  O24  1  0.45189900  0.40832500  0.38884300  1
  O  O25  1  0.95189900  0.09167500  0.61115700  1
  O  O26  1  0.54810100  0.59167500  0.61115700  1
  O  O27  1  0.04810100  0.90832500  0.38884300  1
  O  O28  1  0.92433000  0.32705500  0.35761500  1
  O  O29  1  0.42433000  0.17294500  0.64238500  1
  O  O30  1  0.07567000  0.67294500  0.64238500  1
  O  O31  1  0.57567000  0.82705500  0.35761500  1
loop_
_geom_bond_atom_site_label_1
_geom_bond_atom_site_label_2
_geom_bond_distance
_geom_bond_site_symmetry_2
B0 O0 1.460408 1_555
B0 O8 1.483474 1_555
B0 O13 1.486746 1_554
B0 O4 1.495474 1_555
B1 O1 1.460408 1_455
B1 O9 1.483474 1_555
B1 O12 1.486746 1_556
B1 O5 1.495474 1_555
B2 O2 1.460408 1_555
B2 O10 1.483474 1_555
B2 O15 1.486746 1_556
B2 O6 1.495474 1_555
B3 O3 1.460408 1_655
B3 O11 1.483474 1_555
B3 O14 1.486746 1_554
B3 O7 1.495474 1_555
O0 Th0 2.240743 1_555
O0 Th5 2.543624 1_554
O1 Th1 2.240743 1_555
O1 Th4 2.543624 1_556
O2 Th2 2.240743 1_555
O2 Th7 2.543624 1_556
O3 Th3 2.240743 1_555
O3 Th6 2.543624 1_554
O4 Th4 2.381368 1_555
O4 Th3 2.437932 1_545
O4 Th1 2.680062 1_554
O5 Th5 2.381368 1_555
O5 Th2 2.437932 1_455
O5 Th0 2.680062 1_556
O6 Th6 2.381368 1_555
O6 Th1 2.437932 1_565
O6 Th3 2.680062 1_556
O7 Th7 2.381368 1_555
O7 Th0 2.437932 1_655
O7 Th2 2.680062 1_554
O8 Th7 2.410878 1_555
O8 Th4 2.472727 1_555
O8 Th2 2.762866 1_554
O9 Th6 2.410878 1_545
O9 Th5 2.472727 1_555
O9 Th3 2.762866 1_546
O10 Th5 2.410878 1_555
O10 Th6 2.472727 1_555
O10 Th0 2.762866 1_556
O11 Th4 2.410878 1_565
O11 Th7 2.472727 1_555
O11 Th1 2.762866 1_564
O12 Th4 2.391334 1_455
O12 Th3 2.493215 1_545
O12 Th0 2.572836 1_555
O13 Th5 2.391334 1_555
O13 Th2 2.493215 1_555
O13 Th1 2.572836 1_555
O14 Th6 2.391334 1_655
O14 Th1 2.493215 1_565
O14 Th2 2.572836 1_555
O15 Th7 2.391334 1_555
O15 Th0 2.493215 1_555
O15 Th3 2.572836 1_555
O16 P0 1.541847 1_555
O16 Th2 2.510374 1_555
O16 Th1 2.802963 1_555
O17 P1 1.541847 1_555
O17 Th3 2.510374 1_545
O17 Th0 2.802963 1_555
O18 P2 1.541847 1_555
O18 Th0 2.510374 1_555
O18 Th3 2.802963 1_555
O19 P3 1.541847 1_555
O19 Th1 2.510374 1_565
O19 Th2 2.802963 1_555
O20 P1 1.535631 1_555
O20 Th4 2.386480 1_555
O21 P0 1.535631 1_455
O21 Th5 2.386480 1_555
O22 P3 1.535631 1_555
O22 Th6 2.386480 1_555
O23 P2 1.535631 1_655
O23 Th7 2.386480 1_555
O24 P1 1.558659 1_555
O24 Th7 2.485432 1_555
O24 Th0 2.678649 1_555
O25 P0 1.558659 1_555
O25 Th6 2.485432 1_645
O25 Th1 2.678649 1_555
O26 P3 1.558659 1_555
O26 Th5 2.485432 1_555
O26 Th2 2.678649 1_555
O27 P2 1.558659 1_555
O27 Th4 2.485432 1_465
O27 Th3 2.678649 1_555
O28 P0 1.567948 1_555
O28 Th4 2.646546 1_555
O28 Th0 2.715560 1_655
O28 Th7 2.843228 1_555
O29 P1 1.567948 1_555
O29 Th5 2.646546 1_555
O29 Th1 2.715560 1_555
O29 Th6 2.843228 1_545
O30 P2 1.567948 1_555
O30 Th6 2.646546 1_555
O30 Th2 2.715560 1_455
O30 Th5 2.843228 1_555
O31 P3 1.567948 1_555
O31 Th7 2.646546 1_555
O31 Th3 2.715560 1_555
O31 Th4 2.843228 1_565
