# generated using pymatgen
data_Mg(SnO2)2
_symmetry_space_group_name_H-M   'P 1'
_cell_length_a   6.52663946
_cell_length_b   6.52663946
_cell_length_c   6.52663939
_cell_angle_alpha   61.10148700
_cell_angle_beta   61.10148700
_cell_angle_gamma   61.10148600
_symmetry_Int_Tables_number   1
_chemical_formula_structural   Mg(SnO2)2
_chemical_formula_sum   'Mg2 Sn4 O8'
_cell_volume   201.46069767
_cell_formula_units_Z   2
loop_
 _symmetry_equiv_pos_site_id
 _symmetry_equiv_pos_as_xyz
  1  'x, y, z'
loop_
 _atom_site_type_symbol
 _atom_site_label
 _atom_site_symmetry_multiplicity
 _atom_site_fract_x
 _atom_site_fract_y
 _atom_site_fract_z
 _atom_site_occupancy
  Mg  Mg0  1  0.99644800  0.99644800  0.99644800  1
  Mg  Mg1  1  0.37538000  0.37538000  0.37538000  1
  Sn  Sn0  1  0.75451800  0.75451800  0.75451800  1
  Sn  Sn1  1  0.37323700  0.87794400  0.37323700  1
  Sn  Sn2  1  0.87794400  0.37323700  0.37323700  1
  Sn  Sn3  1  0.37323700  0.37323700  0.87794400  1
  O  O0  1  0.60477600  0.60477600  0.18634100  1
  O  O1  1  0.18634100  0.60477600  0.60477600  1
  O  O2  1  0.60477600  0.18634100  0.60477600  1
  O  O3  1  0.60720300  0.60720300  0.60720300  1
  O  O4  1  0.12937100  0.12937100  0.12937100  1
  O  O5  1  0.13398600  0.59880700  0.13398600  1
  O  O6  1  0.59880700  0.13398600  0.13398600  1
  O  O7  1  0.13398600  0.13398600  0.59880700  1
loop_
_geom_bond_atom_site_label_1
_geom_bond_atom_site_label_2
_geom_bond_distance
_geom_bond_site_symmetry_2
Mg0 O4 2.107170 1_666
Mg0 O7 2.149988 1_665
Mg0 O5 2.149988 1_656
Mg0 O6 2.149988 1_566
Mg1 O2 2.145028 1_555
Mg1 O1 2.145028 1_555
Mg1 O0 2.145028 1_555
Mg1 O6 2.246961 1_555
Mg1 O5 2.246961 1_555
Mg1 O7 2.246961 1_555
O0 Sn1 2.160205 1_555
O0 Sn2 2.160205 1_555
O0 Sn0 2.334988 1_554
O1 Sn3 2.160205 1_555
O1 Sn1 2.160205 1_555
O1 Sn0 2.334988 1_455
O2 Sn3 2.160205 1_555
O2 Sn2 2.160205 1_555
O2 Sn0 2.334988 1_545
O3 Sn1 2.196303 1_555
O3 Sn2 2.196303 1_555
O3 Sn3 2.196303 1_555
O3 Sn0 2.335320 1_555
O4 Sn1 2.271355 1_545
O4 Sn2 2.271355 1_455
O4 Sn3 2.271355 1_554
O5 Sn3 2.243245 1_554
O5 Sn2 2.243245 1_455
O6 Sn3 2.243245 1_554
O6 Sn1 2.243245 1_545
O7 Sn2 2.243245 1_455
O7 Sn1 2.243245 1_545
