# generated using pymatgen
data_Mg2NbN3
_symmetry_space_group_name_H-M   'P 1'
_cell_length_a   5.39780502
_cell_length_b   5.39780462
_cell_length_c   5.39729252
_cell_angle_alpha   99.69098673
_cell_angle_beta   99.69098725
_cell_angle_gamma   119.92492541
_symmetry_Int_Tables_number   1
_chemical_formula_structural   Mg2NbN3
_chemical_formula_sum   'Mg4 Nb2 N6'
_cell_volume   128.35388095
_cell_formula_units_Z   2
loop_
 _symmetry_equiv_pos_site_id
 _symmetry_equiv_pos_as_xyz
  1  'x, y, z'
loop_
 _atom_site_type_symbol
 _atom_site_label
 _atom_site_symmetry_multiplicity
 _atom_site_fract_x
 _atom_site_fract_y
 _atom_site_fract_z
 _atom_site_occupancy
  Mg  Mg0  1  0.83688200  0.16311800  0.50000000  1
  Mg  Mg1  1  0.16311800  0.83688200  0.50000000  1
  Mg  Mg2  1  0.50000000  0.50000000  0.50000000  1
  Mg  Mg3  1  0.00000000  0.00000000  0.00000000  1
  Nb  Nb0  1  0.33185700  0.66814300  0.00000000  1
  Nb  Nb1  1  0.66814300  0.33185700  0.00000000  1
  N  N0  1  0.42475200  0.07838100  0.23488800  1
  N  N1  1  0.92161900  0.57524800  0.76511200  1
  N  N2  1  0.57524800  0.92161900  0.76511200  1
  N  N3  1  0.07838100  0.42475200  0.23488800  1
  N  N4  1  0.73379500  0.73379500  0.24002200  1
  N  N5  1  0.26620500  0.26620500  0.75997800  1
loop_
_geom_bond_atom_site_label_1
_geom_bond_atom_site_label_2
_geom_bond_distance
_geom_bond_site_symmetry_2
Mg0 N1 2.213202 1_555
Mg0 N0 2.213202 1_555
Mg0 N4 2.237116 1_545
Mg0 N5 2.237117 1_655
Mg0 N3 2.283132 1_655
Mg0 N2 2.283132 1_545
Mg1 N3 2.213202 1_555
Mg1 N2 2.213202 1_555
Mg1 N5 2.237116 1_565
Mg1 N4 2.237117 1_455
Mg1 N1 2.283132 1_455
Mg1 N0 2.283132 1_565
Mg2 N4 2.181158 1_555
Mg2 N5 2.181158 1_555
Mg2 N2 2.275406 1_555
Mg2 N0 2.275406 1_555
Mg2 N3 2.275406 1_555
Mg2 N1 2.275406 1_555
Mg3 N1 2.217172 1_444
Mg3 N3 2.217172 1_555
Mg3 N0 2.217172 1_555
Mg3 N2 2.217172 1_444
Mg3 N5 2.236310 1_554
Mg3 N4 2.236310 1_445
N0 Nb0 2.120179 1_545
N0 Nb1 2.134596 1_555
N1 Nb0 2.120179 1_656
N1 Nb1 2.134596 1_556
N2 Nb1 2.120179 1_566
N2 Nb0 2.134596 1_556
N3 Nb1 2.120179 1_455
N3 Nb0 2.134596 1_555
N4 Nb1 2.154762 1_555
N4 Nb0 2.154762 1_555
N5 Nb0 2.154762 1_556
N5 Nb1 2.154762 1_556
