# generated using pymatgen
data_Sr2FeSbO6
_symmetry_space_group_name_H-M   'P 1'
_cell_length_a   5.66784900
_cell_length_b   5.70076001
_cell_length_c   7.98756523
_cell_angle_alpha   90.01738633
_cell_angle_beta   90.00078865
_cell_angle_gamma   90.00098779
_symmetry_Int_Tables_number   1
_chemical_formula_structural   Sr2FeSbO6
_chemical_formula_sum   'Sr4 Fe2 Sb2 O12'
_cell_volume   258.08658306
_cell_formula_units_Z   2
loop_
 _symmetry_equiv_pos_site_id
 _symmetry_equiv_pos_as_xyz
  1  'x, y, z'
loop_
 _atom_site_type_symbol
 _atom_site_label
 _atom_site_symmetry_multiplicity
 _atom_site_fract_x
 _atom_site_fract_y
 _atom_site_fract_z
 _atom_site_occupancy
  Sr  Sr0  1  0.49998800  0.50330700  0.25016400  1
  Sr  Sr1  1  0.00004300  0.00323800  0.75016700  1
  Sr  Sr2  1  0.00004400  0.99676700  0.24984600  1
  Sr  Sr3  1  0.49998800  0.49683800  0.74984800  1
  Fe  Fe0  1  0.99971200  0.49971500  0.49991700  1
  Fe  Fe1  1  0.49997800  0.99977200  0.99998500  1
  Sb  Sb0  1  0.00005200  0.49999900  0.99992600  1
  Sb  Sb1  1  0.49990400  0.99991900  0.50002700  1
  O  O0  1  0.50005700  0.94658100  0.74828300  1
  O  O1  1  0.00000400  0.44654700  0.24824100  1
  O  O2  1  0.00000300  0.55353400  0.75173700  1
  O  O3  1  0.50005400  0.05355200  0.25177100  1
  O  O4  1  0.74844900  0.75239500  0.47158200  1
  O  O5  1  0.24844800  0.25237000  0.97162200  1
  O  O6  1  0.75159600  0.25238800  0.97162600  1
  O  O7  1  0.25159500  0.75234900  0.47157200  1
  O  O8  1  0.75162600  0.74767700  0.02843600  1
  O  O9  1  0.25162600  0.24770200  0.52840800  1
  O  O10  1  0.74841300  0.24765300  0.52840100  1
  O  O11  1  0.24841900  0.74769800  0.02843900  1
loop_
_geom_bond_atom_site_label_1
_geom_bond_atom_site_label_2
_geom_bond_distance
_geom_bond_site_symmetry_2
Fe0 O1 2.032909 1_655
Fe0 O2 2.034602 1_655
Fe0 O10 2.036029 1_555
Fe0 O4 2.038272 1_555
Fe0 O9 2.038308 1_655
Fe0 O7 2.040522 1_655
Fe1 O0 2.033134 1_555
Fe1 O3 2.034299 1_566
Fe1 O11 2.037081 1_556
Fe1 O8 2.037547 1_556
Fe1 O5 2.039024 1_565
Fe1 O6 2.039411 1_565
O0 Sb1 2.006230 1_555
O0 Sr3 2.563911 1_555
O0 Sr1 2.852226 1_665
O0 Sr1 2.852395 1_565
O0 Sr3 3.136904 1_565
O1 Sb0 2.006794 1_554
O1 Sr2 2.564124 1_545
O1 Sr0 2.852282 1_555
O1 Sr0 2.852474 1_455
O1 Sr2 3.136694 1_555
O2 Sb0 2.005871 1_555
O2 Sr1 2.563689 1_565
O2 Sr3 2.852257 1_555
O2 Sr3 2.852414 1_455
O2 Sr1 3.137127 1_555
O3 Sb1 2.006486 1_545
O3 Sr0 2.563981 1_555
O3 Sr2 2.852344 1_645
O3 Sr2 2.852445 1_545
O3 Sr0 3.136837 1_545
O4 Sb1 2.006768 1_555
O4 Sr2 2.666952 1_655
O4 Sr0 2.669413 1_555
O4 Sr1 3.004638 1_665
O4 Sr3 3.007963 1_555
O5 Sb0 2.006469 1_555
O5 Sr3 2.667273 1_555
O5 Sr1 2.669574 1_555
O5 Sr0 3.004494 1_556
O5 Sr2 3.007690 1_546
O6 Sb0 2.006594 1_655
O6 Sr3 2.667446 1_555
O6 Sr1 2.669827 1_655
O6 Sr0 3.004657 1_556
O6 Sr2 3.007828 1_646
O7 Sb1 2.005984 1_555
O7 Sr2 2.666902 1_555
O7 Sr0 2.669069 1_555
O7 Sr1 3.004762 1_565
O7 Sr3 3.007709 1_555
O8 Sb0 2.006971 1_654
O8 Sr0 2.667033 1_555
O8 Sr2 2.669248 1_655
O8 Sr3 3.004764 1_554
O8 Sr1 3.007875 1_664
O9 Sb1 2.006687 1_545
O9 Sr1 2.667311 1_555
O9 Sr3 2.669379 1_555
O9 Sr2 3.004720 1_545
O9 Sr0 3.007703 1_555
O10 Sb1 2.007364 1_545
O10 Sr1 2.667344 1_655
O10 Sr3 2.669804 1_555
O10 Sr2 3.004730 1_645
O10 Sr0 3.007959 1_555
O11 Sb0 2.006785 1_554
O11 Sr0 2.666871 1_555
O11 Sr2 2.669091 1_555
O11 Sr3 3.004705 1_554
O11 Sr1 3.007720 1_564
