# generated using pymatgen
data_LaMn2CdO6
_symmetry_space_group_name_H-M   'P 1'
_cell_length_a   5.55479819
_cell_length_b   5.35710878
_cell_length_c   5.50642490
_cell_angle_alpha   61.37112184
_cell_angle_beta   58.24848595
_cell_angle_gamma   61.73976124
_symmetry_Int_Tables_number   1
_chemical_formula_structural   LaMn2CdO6
_chemical_formula_sum   'La1 Mn2 Cd1 O6'
_cell_volume   116.79868915
_cell_formula_units_Z   1
loop_
 _symmetry_equiv_pos_site_id
 _symmetry_equiv_pos_as_xyz
  1  'x, y, z'
loop_
 _atom_site_type_symbol
 _atom_site_label
 _atom_site_symmetry_multiplicity
 _atom_site_fract_x
 _atom_site_fract_y
 _atom_site_fract_z
 _atom_site_occupancy
  La  La0  1  0.74556500  0.75297300  0.75260100  1
  Mn  Mn0  1  0.00113600  0.00136100  0.99966800  1
  Mn  Mn1  1  0.49696900  0.50172800  0.49917800  1
  Cd  Cd0  1  0.25294900  0.24802900  0.24575200  1
  O  O0  1  0.85594700  0.22671100  0.68144900  1
  O  O1  1  0.24749000  0.66571900  0.83793400  1
  O  O2  1  0.66475600  0.83876000  0.24566500  1
  O  O3  1  0.75204200  0.31822600  0.17875100  1
  O  O4  1  0.31972900  0.17746600  0.75812200  1
  O  O5  1  0.16341800  0.76902700  0.30087900  1
loop_
_geom_bond_atom_site_label_1
_geom_bond_atom_site_label_2
_geom_bond_distance
_geom_bond_site_symmetry_2
La0 O5 2.342979 1_655
La0 O4 2.379980 1_565
La0 O3 2.388366 1_556
La0 O0 2.690373 1_565
La0 O2 2.738922 1_556
La0 O0 2.765193 1_555
La0 O1 2.782063 1_555
La0 O2 2.845826 1_555
La0 O1 2.854290 1_655
Mn0 O5 1.909343 1_546
Mn0 O4 1.921518 1_555
Mn0 O3 1.926714 1_456
Mn0 O0 1.927818 1_455
Mn0 O1 1.954643 1_545
Mn0 O2 1.957483 1_446
Mn1 O4 1.946397 1_555
Mn1 O3 1.949116 1_555
Mn1 O1 1.966865 1_555
Mn1 O2 1.971343 1_555
Mn1 O5 2.189572 1_555
Mn1 O0 2.249794 1_555
Cd0 O0 2.244920 1_455
Cd0 O1 2.289741 1_554
Cd0 O2 2.300060 1_545
