# generated using pymatgen
data_K2TbNb5O15
_symmetry_space_group_name_H-M   'P 1'
_cell_length_a   12.75753400
_cell_length_b   12.75753400
_cell_length_c   3.95556700
_cell_angle_alpha   90.00000000
_cell_angle_beta   90.00000000
_cell_angle_gamma   90.00000000
_symmetry_Int_Tables_number   1
_chemical_formula_structural   K2TbNb5O15
_chemical_formula_sum   'K4 Tb2 Nb10 O30'
_cell_volume   643.78701663
_cell_formula_units_Z   2
loop_
 _symmetry_equiv_pos_site_id
 _symmetry_equiv_pos_as_xyz
  1  'x, y, z'
loop_
 _atom_site_type_symbol
 _atom_site_label
 _atom_site_symmetry_multiplicity
 _atom_site_fract_x
 _atom_site_fract_y
 _atom_site_fract_z
 _atom_site_occupancy
  K  K0  1  0.67001900  0.17001900  0.50000000  1
  K  K1  1  0.32998100  0.82998100  0.50000000  1
  K  K2  1  0.17001900  0.32998100  0.50000000  1
  K  K3  1  0.82998100  0.67001900  0.50000000  1
  Tb  Tb0  1  0.00000000  0.00000000  0.50000000  1
  Tb  Tb1  1  0.50000000  0.50000000  0.50000000  1
  Nb  Nb0  1  0.50000000  0.00000000  0.00000000  1
  Nb  Nb1  1  0.00000000  0.50000000  0.00000000  1
  Nb  Nb2  1  0.21207500  0.07647100  0.00000000  1
  Nb  Nb3  1  0.78792500  0.92352900  0.00000000  1
  Nb  Nb4  1  0.07647100  0.78792500  0.00000000  1
  Nb  Nb5  1  0.71207500  0.42352900  0.00000000  1
  Nb  Nb6  1  0.92352900  0.21207500  0.00000000  1
  Nb  Nb7  1  0.28792500  0.57647100  0.00000000  1
  Nb  Nb8  1  0.57647100  0.71207500  0.00000000  1
  Nb  Nb9  1  0.42352900  0.28792500  0.00000000  1
  O  O0  1  0.18578600  0.07848200  0.50000000  1
  O  O1  1  0.81421400  0.92151800  0.50000000  1
  O  O2  1  0.07848200  0.81421400  0.50000000  1
  O  O3  1  0.68578600  0.42151800  0.50000000  1
  O  O4  1  0.92151800  0.18578600  0.50000000  1
  O  O5  1  0.31421400  0.57848200  0.50000000  1
  O  O6  1  0.57848200  0.68578600  0.50000000  1
  O  O7  1  0.42151800  0.31421400  0.50000000  1
  O  O8  1  0.21718700  0.71718700  0.00000000  1
  O  O9  1  0.78281300  0.28281300  0.00000000  1
  O  O10  1  0.71718700  0.78281300  0.00000000  1
  O  O11  1  0.28281300  0.21718700  0.00000000  1
  O  O12  1  0.50000000  0.00000000  0.50000000  1
  O  O13  1  0.00000000  0.50000000  0.50000000  1
  O  O14  1  0.05794200  0.13084800  0.00000000  1
  O  O15  1  0.94205800  0.86915200  0.00000000  1
  O  O16  1  0.13084800  0.94205800  0.00000000  1
  O  O17  1  0.55794200  0.36915200  0.00000000  1
  O  O18  1  0.86915200  0.05794200  0.00000000  1
  O  O19  1  0.44205800  0.63084800  0.00000000  1
  O  O20  1  0.63084800  0.55794200  0.00000000  1
  O  O21  1  0.36915200  0.44205800  0.00000000  1
  O  O22  1  0.34211200  0.99958500  0.00000000  1
  O  O23  1  0.65788800  0.00041500  0.00000000  1
  O  O24  1  0.99958500  0.65788800  0.00000000  1
  O  O25  1  0.84211200  0.50041500  0.00000000  1
  O  O26  1  0.00041500  0.34211200  0.00000000  1
  O  O27  1  0.15788800  0.49958500  0.00000000  1
  O  O28  1  0.49958500  0.84211200  0.00000000  1
  O  O29  1  0.50041500  0.15788800  0.00000000  1
loop_
_geom_bond_atom_site_label_1
_geom_bond_atom_site_label_2
_geom_bond_distance
_geom_bond_site_symmetry_2
K0 O9 2.837766 1_556
K0 O9 2.837766 1_555
K0 O29 2.935524 1_556
K0 O23 2.935524 1_556
K0 O29 2.935524 1_555
K0 O23 2.935524 1_555
K0 O12 3.067462 1_555
K0 O4 3.214806 1_555
K0 O3 3.214806 1_555
K1 O8 2.837766 1_555
K1 O8 2.837766 1_556
K1 O28 2.935524 1_556
K1 O22 2.935524 1_555
K1 O22 2.935524 1_556
K1 O28 2.935524 1_555
K1 O12 3.067462 1_565
K1 O5 3.214806 1_555
K1 O2 3.214806 1_555
K2 O11 2.837766 1_556
K2 O11 2.837766 1_555
K2 O27 2.935524 1_555
K2 O27 2.935524 1_556
K2 O26 2.935524 1_555
K2 O26 2.935524 1_556
K2 O13 3.067462 1_555
K2 O0 3.214806 1_555
K2 O7 3.214806 1_555
K3 O10 2.837766 1_556
K3 O10 2.837766 1_555
K3 O24 2.935524 1_556
K3 O24 2.935524 1_555
K3 O25 2.935524 1_555
K3 O25 2.935524 1_556
K3 O13 3.067462 1_655
K3 O1 3.214806 1_555
K3 O6 3.214806 1_555
Nb0 O12 1.977783 1_554
Nb0 O12 1.977783 1_555
Nb0 O29 2.014268 1_555
Nb0 O22 2.014268 1_545
Nb0 O28 2.014268 1_545
Nb0 O23 2.014268 1_555
Nb1 O13 1.977783 1_554
Nb1 O13 1.977783 1_555
Nb1 O27 2.014268 1_555
Nb1 O26 2.014268 1_555
Nb1 O24 2.014268 1_455
Nb1 O25 2.014268 1_455
Nb2 O22 1.927236 1_545
Nb2 O16 2.003570 1_545
Nb2 O0 2.006182 1_555
Nb2 O0 2.006182 1_554
Nb2 O11 2.009255 1_555
Nb2 O14 2.085138 1_555
Nb3 O23 1.927236 1_565
Nb3 O18 2.003570 1_565
Nb3 O1 2.006182 1_555
Nb3 O1 2.006182 1_554
Nb3 O10 2.009255 1_555
Nb3 O15 2.085138 1_555
Nb4 O24 1.927236 1_455
Nb4 O15 2.003570 1_455
Nb4 O2 2.006182 1_554
Nb4 O2 2.006182 1_555
Nb4 O8 2.009255 1_555
Nb4 O16 2.085138 1_555
Nb5 O25 1.927236 1_555
Nb5 O20 2.003570 1_555
Nb5 O3 2.006182 1_554
Nb5 O3 2.006182 1_555
Nb5 O9 2.009255 1_555
Nb5 O17 2.085138 1_555
Nb6 O26 1.927236 1_655
Nb6 O14 2.003570 1_655
Nb6 O4 2.006182 1_554
Nb6 O4 2.006182 1_555
Nb6 O9 2.009255 1_555
Nb6 O18 2.085138 1_555
Nb7 O27 1.927236 1_555
Nb7 O21 2.003570 1_555
Nb7 O5 2.006182 1_554
Nb7 O5 2.006182 1_555
Nb7 O8 2.009255 1_555
Nb7 O19 2.085138 1_555
Nb8 O28 1.927236 1_555
Nb8 O19 2.003570 1_555
Nb8 O6 2.006182 1_555
Nb8 O6 2.006182 1_554
Nb8 O10 2.009255 1_555
Nb8 O20 2.085138 1_555
Nb9 O29 1.927236 1_555
Nb9 O17 2.003570 1_555
Nb9 O7 2.006182 1_555
Nb9 O7 2.006182 1_554
Nb9 O11 2.009255 1_555
Nb9 O21 2.085138 1_555
O0 Tb0 2.572972 1_555
O1 Tb0 2.572972 1_665
O2 Tb0 2.572972 1_565
O3 Tb1 2.572972 1_555
O4 Tb0 2.572972 1_655
O5 Tb1 2.572972 1_555
O6 Tb1 2.572972 1_555
O7 Tb1 2.572972 1_555
O14 Tb0 2.691579 1_555
O14 Tb0 2.691579 1_554
O15 Tb0 2.691579 1_664
O15 Tb0 2.691579 1_665
O16 Tb0 2.691579 1_565
O16 Tb0 2.691579 1_564
O17 Tb1 2.691579 1_555
O17 Tb1 2.691579 1_554
O18 Tb0 2.691579 1_655
O18 Tb0 2.691579 1_654
O19 Tb1 2.691579 1_555
O19 Tb1 2.691579 1_554
O20 Tb1 2.691579 1_555
O20 Tb1 2.691579 1_554
O21 Tb1 2.691579 1_555
O21 Tb1 2.691579 1_554
