# generated using pymatgen
data_Mg5Si6
_symmetry_space_group_name_H-M   'P 1'
_cell_length_a   15.27424098
_cell_length_b   15.27424098
_cell_length_c   4.45721300
_cell_angle_alpha   90.00000000
_cell_angle_beta   90.00000000
_cell_angle_gamma   157.50308717
_symmetry_Int_Tables_number   1
_chemical_formula_structural   Mg5Si6
_chemical_formula_sum   'Mg10 Si12'
_cell_volume   397.89256852
_cell_formula_units_Z   2
loop_
 _symmetry_equiv_pos_site_id
 _symmetry_equiv_pos_as_xyz
  1  'x, y, z'
loop_
 _atom_site_type_symbol
 _atom_site_label
 _atom_site_symmetry_multiplicity
 _atom_site_fract_x
 _atom_site_fract_y
 _atom_site_fract_z
 _atom_site_occupancy
  Mg  Mg0  1  0.03476300  0.79099100  0.75000000  1
  Mg  Mg1  1  0.79099100  0.03476300  0.25000000  1
  Mg  Mg2  1  0.61961300  0.72726400  0.75000000  1
  Mg  Mg3  1  0.40265900  0.70933100  0.75000000  1
  Mg  Mg4  1  0.24063000  0.84994300  0.25000000  1
  Mg  Mg5  1  0.72726400  0.61961300  0.25000000  1
  Mg  Mg6  1  0.09972500  0.24148400  0.75000000  1
  Mg  Mg7  1  0.84994300  0.24063000  0.75000000  1
  Mg  Mg8  1  0.70933100  0.40265900  0.25000000  1
  Mg  Mg9  1  0.24148400  0.09972500  0.25000000  1
  Si  Si0  1  0.52673600  0.32482600  0.75000000  1
  Si  Si1  1  0.50208900  0.13166400  0.75000000  1
  Si  Si2  1  0.32482600  0.52673600  0.25000000  1
  Si  Si3  1  0.13166400  0.50208900  0.25000000  1
  Si  Si4  1  0.97595800  0.93143800  0.75000000  1
  Si  Si5  1  0.93492500  0.50570300  0.75000000  1
  Si  Si6  1  0.50570300  0.93492500  0.25000000  1
  Si  Si7  1  0.35471100  0.39072800  0.25000000  1
  Si  Si8  1  0.39072800  0.35471100  0.75000000  1
  Si  Si9  1  0.35402800  0.84690300  0.75000000  1
  Si  Si10  1  0.84690300  0.35402800  0.25000000  1
  Si  Si11  1  0.93143800  0.97595800  0.25000000  1
loop_
_geom_bond_atom_site_label_1
_geom_bond_atom_site_label_2
_geom_bond_distance
_geom_bond_site_symmetry_2
Mg0 Si0 2.969535 1_455
Mg0 Si4 2.994855 1_455
Mg0 Si5 3.005835 1_455
Mg0 Si1 3.065217 1_565
Mg0 Mg9 3.108183 1_566
Mg0 Mg9 3.108183 1_565
Mg0 Si0 3.120023 1_565
Mg1 Si2 2.969535 1_545
Mg1 Si11 2.994855 1_545
Mg1 Si6 3.005835 1_545
Mg1 Si3 3.065217 1_655
Mg1 Mg6 3.108183 1_655
Mg1 Mg6 3.108183 1_654
Mg1 Si2 3.120023 1_655
Mg2 Si8 2.800599 1_555
Mg2 Si4 2.825921 1_555
Mg2 Si11 2.941118 1_556
Mg2 Si11 2.941118 1_555
Mg2 Mg6 3.006307 1_665
Mg2 Si2 3.023002 1_556
Mg2 Si2 3.023002 1_555
Mg2 Mg6 3.039596 1_555
Mg2 Si7 3.054409 1_555
Mg2 Si7 3.054409 1_556
Mg3 Si9 2.802034 1_555
Mg3 Si3 2.812321 1_555
Mg3 Si3 2.812321 1_556
Mg3 Si2 2.834051 1_556
Mg3 Si2 2.834051 1_555
Mg3 Si6 3.048930 1_555
Mg3 Si6 3.048930 1_556
Mg3 Mg6 3.373051 1_555
Mg4 Si1 2.770916 1_565
Mg4 Si1 2.770916 1_564
Mg4 Si9 2.849125 1_555
Mg4 Si9 2.849125 1_554
Mg4 Si6 2.892495 1_555
Mg4 Si5 3.008306 1_455
Mg4 Si5 3.008306 1_454
Mg4 Si10 3.060958 1_455
Mg5 Si7 2.800599 1_555
Mg5 Si11 2.825921 1_555
Mg5 Si4 2.941118 1_555
Mg5 Si4 2.941118 1_554
Mg5 Mg9 3.006307 1_665
Mg5 Si0 3.023002 1_554
Mg5 Si0 3.023002 1_555
Mg5 Mg9 3.039596 1_555
Mg5 Si8 3.054409 1_555
Mg5 Si8 3.054409 1_554
Mg6 Si2 2.844439 1_555
Mg6 Si2 2.844439 1_556
Mg6 Si8 2.922900 1_555
Mg6 Si11 2.959619 1_446
Mg6 Si11 2.959619 1_445
Mg6 Si7 2.987743 1_556
Mg6 Si7 2.987743 1_555
Mg6 Si4 3.075410 1_445
Mg7 Si3 2.770916 1_656
Mg7 Si3 2.770916 1_655
Mg7 Si10 2.849125 1_555
Mg7 Si10 2.849125 1_556
Mg7 Si5 2.892495 1_555
Mg7 Si6 3.008306 1_545
Mg7 Si6 3.008306 1_546
Mg7 Si9 3.060958 1_545
Mg8 Si10 2.802034 1_555
Mg8 Si1 2.812321 1_554
Mg8 Si1 2.812321 1_555
Mg8 Si0 2.834051 1_555
Mg8 Si0 2.834051 1_554
Mg8 Si5 3.048930 1_555
Mg8 Si5 3.048930 1_554
Mg8 Mg9 3.373051 1_555
Mg9 Si0 2.844439 1_555
Mg9 Si0 2.844439 1_554
Mg9 Si7 2.922900 1_555
Mg9 Si4 2.959619 1_444
Mg9 Si4 2.959619 1_445
Mg9 Si8 2.987743 1_554
Mg9 Si8 2.987743 1_555
Mg9 Si11 3.075410 1_445
Si0 Si8 2.505248 1_555
Si0 Si1 2.606571 1_555
Si1 Si9 2.420084 1_545
Si1 Si5 2.560331 1_555
Si2 Si7 2.505248 1_555
Si2 Si3 2.606571 1_555
Si3 Si6 2.560331 1_555
Si4 Si8 2.500157 1_665
Si5 Si9 2.548242 1_655
Si6 Si9 2.527059 1_554
Si6 Si9 2.527059 1_555
Si7 Si8 2.476127 1_555
Si7 Si8 2.476127 1_554
Si10 Si3 2.420084 1_655
Si10 Si5 2.527059 1_555
Si10 Si5 2.527059 1_554
Si10 Si6 2.548242 1_545
Si11 Si7 2.500157 1_665
Si11 Si4 2.597298 1_555
Si11 Si4 2.597298 1_554
