# generated using pymatgen
data_Sr20P12Br(ClO16)3
_symmetry_space_group_name_H-M   'P 1'
_cell_length_a   10.03987096
_cell_length_b   10.03987096
_cell_length_c   14.54701300
_cell_angle_alpha   90.00000000
_cell_angle_beta   90.00000000
_cell_angle_gamma   119.99999314
_symmetry_Int_Tables_number   1
_chemical_formula_structural   Sr20P12Br(ClO16)3
_chemical_formula_sum   'Sr20 P12 Br1 Cl3 O48'
_cell_volume   1269.87434835
_cell_formula_units_Z   1
loop_
 _symmetry_equiv_pos_site_id
 _symmetry_equiv_pos_as_xyz
  1  'x, y, z'
loop_
 _atom_site_type_symbol
 _atom_site_label
 _atom_site_symmetry_multiplicity
 _atom_site_fract_x
 _atom_site_fract_y
 _atom_site_fract_z
 _atom_site_occupancy
  Sr  Sr0  1  0.33333300  0.66666700  0.49962600  1
  Sr  Sr1  1  0.33333300  0.66666700  0.99966400  1
  Sr  Sr2  1  0.66666700  0.33333300  0.74962600  1
  Sr  Sr3  1  0.66666700  0.33333300  0.24965000  1
  Sr  Sr4  1  0.66666700  0.33333300  0.50037400  1
  Sr  Sr5  1  0.66666700  0.33333300  0.00033600  1
  Sr  Sr6  1  0.33333300  0.66666700  0.25037400  1
  Sr  Sr7  1  0.33333300  0.66666700  0.75035000  1
  Sr  Sr8  1  0.25115600  0.99338500  0.37498400  1
  Sr  Sr9  1  0.25328900  0.99314600  0.87391400  1
  Sr  Sr10  1  0.74222800  0.74884400  0.37498400  1
  Sr  Sr11  1  0.73985700  0.74671100  0.87391400  1
  Sr  Sr12  1  0.00661500  0.25777200  0.37498400  1
  Sr  Sr13  1  0.00685400  0.26014300  0.87391400  1
  Sr  Sr14  1  0.74884400  0.00661500  0.62501600  1
  Sr  Sr15  1  0.74671100  0.00685400  0.12608600  1
  Sr  Sr16  1  0.25777200  0.25115600  0.62501600  1
  Sr  Sr17  1  0.26014300  0.25328900  0.12608600  1
  Sr  Sr18  1  0.99338500  0.74222800  0.62501600  1
  Sr  Sr19  1  0.99314600  0.73985700  0.12608600  1
  P  P0  1  0.96626400  0.59270200  0.37509000  1
  P  P1  1  0.96618900  0.59279000  0.87503400  1
  P  P2  1  0.62643800  0.03373600  0.37509000  1
  P  P3  1  0.62660200  0.03381100  0.87503400  1
  P  P4  1  0.40729800  0.37356200  0.37509000  1
  P  P5  1  0.40721000  0.37339800  0.87503400  1
  P  P6  1  0.03373600  0.40729800  0.62491000  1
  P  P7  1  0.03381100  0.40721000  0.12496600  1
  P  P8  1  0.37356200  0.96626400  0.62491000  1
  P  P9  1  0.37339800  0.96618900  0.12496600  1
  P  P10  1  0.59270200  0.62643800  0.62491000  1
  P  P11  1  0.59279000  0.62660200  0.12496600  1
  Br  Br0  1  0.00000000  0.00000000  0.00000000  1
  Cl  Cl0  1  0.00000000  0.00000000  0.74946300  1
  Cl  Cl1  1  0.00000000  0.00000000  0.25053700  1
  Cl  Cl2  1  0.00000000  0.00000000  0.50000000  1
  O  O0  1  0.87793300  0.41250900  0.37500800  1
  O  O1  1  0.87773200  0.41253100  0.87486000  1
  O  O2  1  0.53457600  0.12206700  0.37500800  1
  O  O3  1  0.53479900  0.12226800  0.87486000  1
  O  O4  1  0.58749100  0.46542400  0.37500800  1
  O  O5  1  0.58746900  0.46520100  0.87486000  1
  O  O6  1  0.12206700  0.58749100  0.62499200  1
  O  O7  1  0.12226800  0.58746900  0.12514000  1
  O  O8  1  0.46542400  0.87793300  0.62499200  1
  O  O9  1  0.46520100  0.87773200  0.12514000  1
  O  O10  1  0.41250900  0.53457600  0.62499200  1
  O  O11  1  0.41253100  0.53479900  0.12514000  1
  O  O12  1  0.91468500  0.64612300  0.46153900  1
  O  O13  1  0.91442100  0.64537100  0.96164600  1
  O  O14  1  0.73143800  0.08531500  0.46153900  1
  O  O15  1  0.73095000  0.08557900  0.96164600  1
  O  O16  1  0.35387700  0.26856200  0.46153900  1
  O  O17  1  0.35462900  0.26905000  0.96164600  1
  O  O18  1  0.08541300  0.35398500  0.71138700  1
  O  O19  1  0.08530700  0.35389900  0.21154300  1
  O  O20  1  0.26857200  0.91458700  0.71138700  1
  O  O21  1  0.26859300  0.91469300  0.21154300  1
  O  O22  1  0.64601500  0.73142800  0.71138700  1
  O  O23  1  0.64610100  0.73140700  0.21154300  1
  O  O24  1  0.08531500  0.35387700  0.53846100  1
  O  O25  1  0.08557900  0.35462900  0.03835400  1
  O  O26  1  0.26856200  0.91468500  0.53846100  1
  O  O27  1  0.26905000  0.91442100  0.03835400  1
  O  O28  1  0.64612300  0.73143800  0.53846100  1
  O  O29  1  0.64537100  0.73095000  0.03835400  1
  O  O30  1  0.91458700  0.64601500  0.28861300  1
  O  O31  1  0.91469300  0.64610100  0.78845700  1
  O  O32  1  0.73142800  0.08541300  0.28861300  1
  O  O33  1  0.73140700  0.08530700  0.78845700  1
  O  O34  1  0.35398500  0.26857200  0.28861300  1
  O  O35  1  0.35389900  0.26859300  0.78845700  1
  O  O36  1  0.14366900  0.65805900  0.37499800  1
  O  O37  1  0.14364800  0.65794300  0.87492400  1
  O  O38  1  0.51438900  0.85633100  0.37499800  1
  O  O39  1  0.51429500  0.85635200  0.87492400  1
  O  O40  1  0.34194100  0.48561100  0.37499800  1
  O  O41  1  0.34205700  0.48570500  0.87492400  1
  O  O42  1  0.85633100  0.34194100  0.62500200  1
  O  O43  1  0.85635200  0.34205700  0.12507600  1
  O  O44  1  0.48561100  0.14366900  0.62500200  1
  O  O45  1  0.48570500  0.14364800  0.12507600  1
  O  O46  1  0.65805900  0.51438900  0.62500200  1
  O  O47  1  0.65794300  0.51429500  0.12507600  1
loop_
_geom_bond_atom_site_label_1
_geom_bond_atom_site_label_2
_geom_bond_distance
_geom_bond_site_symmetry_2
Br0 Sr15 3.163972 1_455
Br0 Sr9 3.163972 1_544
Br0 Sr19 3.163972 1_445
Br0 Sr13 3.163972 1_554
Br0 Sr11 3.163972 1_444
Br0 Sr17 3.163972 1_555
Cl0 Sr14 3.131695 1_455
Cl0 Sr16 3.131700 1_555
Cl0 Sr18 3.131703 1_445
Cl0 Sr9 3.150243 1_545
Cl0 Sr13 3.150243 1_555
Cl0 Sr11 3.150243 1_445
Cl1 Sr8 3.131695 1_545
Cl1 Sr10 3.131700 1_445
Cl1 Sr12 3.131703 1_555
Cl1 Sr15 3.150243 1_455
Cl1 Sr19 3.150243 1_445
Cl1 Sr17 3.150243 1_555
Cl2 Sr8 3.136487 1_545
Cl2 Sr14 3.136487 1_455
Cl2 Sr16 3.136492 1_555
Cl2 Sr10 3.136492 1_445
Cl2 Sr18 3.136495 1_445
Cl2 Sr12 3.136495 1_555
O0 P0 1.566840 1_555
O0 Sr12 2.467735 1_655
O0 Sr3 2.601973 1_555
O0 Sr4 2.602055 1_555
O1 P1 1.567405 1_555
O1 Sr13 2.450492 1_655
O1 Sr2 2.599350 1_555
O1 Sr5 2.601818 1_556
O2 P2 1.566840 1_555
O2 Sr8 2.467745 1_545
O2 Sr3 2.601974 1_555
O2 Sr4 2.602056 1_555
O3 P3 1.567414 1_555
O3 Sr9 2.450492 1_545
O3 Sr2 2.599351 1_555
O3 Sr5 2.601819 1_556
O4 P4 1.566840 1_555
O4 Sr10 2.467744 1_555
O4 Sr3 2.601979 1_555
O4 Sr4 2.602061 1_555
O5 P5 1.567405 1_555
O5 Sr11 2.450492 1_555
O5 Sr2 2.599356 1_555
O5 Sr5 2.601825 1_556
O6 P6 1.566840 1_555
O6 Sr18 2.467735 1_455
O6 Sr7 2.601973 1_555
O6 Sr0 2.602055 1_555
O7 P7 1.567405 1_555
O7 Sr19 2.450492 1_455
O7 Sr6 2.599350 1_555
O7 Sr1 2.601818 1_554
O8 P8 1.566840 1_555
O8 Sr14 2.467745 1_565
O8 Sr7 2.601974 1_555
O8 Sr0 2.602056 1_555
O9 P9 1.567414 1_555
O9 Sr15 2.450492 1_565
O9 Sr6 2.599351 1_555
O9 Sr1 2.601819 1_554
O10 P10 1.566840 1_555
O10 Sr16 2.467744 1_555
O10 Sr7 2.601979 1_555
O10 Sr0 2.602061 1_555
O11 P11 1.567405 1_555
O11 Sr17 2.450492 1_555
O11 Sr6 2.599356 1_555
O11 Sr1 2.601825 1_554
O12 P0 1.554047 1_555
O12 Sr18 2.539349 1_555
O12 Sr10 2.726265 1_555
O12 Sr4 2.926053 1_555
O13 P1 1.552630 1_555
O13 Sr19 2.548925 1_556
O13 Sr11 2.742033 1_555
O13 Sr5 2.919924 1_556
O14 P2 1.554047 1_555
O14 Sr14 2.539351 1_555
O14 Sr12 2.726258 1_655
O14 Sr4 2.926046 1_555
O15 P3 1.552625 1_555
O15 Sr15 2.548925 1_556
O15 Sr13 2.742033 1_655
O15 Sr5 2.919917 1_556
O16 P4 1.554047 1_555
O16 Sr16 2.539348 1_555
O16 Sr8 2.726257 1_545
O16 Sr4 2.926056 1_555
O17 P5 1.552625 1_555
O17 Sr17 2.548925 1_556
O17 Sr9 2.742033 1_545
O17 Sr5 2.919927 1_556
O18 P6 1.554320 1_555
O18 Sr13 2.521206 1_555
O18 Sr16 2.724974 1_555
O18 Sr7 2.925401 1_555
O19 P7 1.554569 1_555
O19 Sr12 2.538899 1_555
O19 Sr17 2.723967 1_555
O19 Sr6 2.925924 1_555
O20 P8 1.554320 1_555
O20 Sr9 2.521206 1_555
O20 Sr18 2.724967 1_455
O20 Sr7 2.925394 1_555
O21 P9 1.554559 1_555
O21 Sr8 2.538903 1_555
O21 Sr19 2.723975 1_455
O21 Sr6 2.925910 1_555
O22 P10 1.554320 1_555
O22 Sr11 2.521206 1_555
O22 Sr14 2.724965 1_565
O22 Sr7 2.925404 1_555
O23 P11 1.554559 1_555
O23 Sr10 2.538896 1_555
O23 Sr15 2.723976 1_565
O23 Sr6 2.925930 1_555
O24 P6 1.554047 1_555
O24 Sr12 2.539349 1_555
O24 Sr16 2.726265 1_555
O24 Sr0 2.926053 1_555
O25 P7 1.552630 1_555
O25 Sr13 2.548925 1_554
O25 Sr17 2.742033 1_555
O25 Sr1 2.919924 1_554
O26 P8 1.554047 1_555
O26 Sr8 2.539351 1_555
O26 Sr18 2.726258 1_455
O26 Sr0 2.926046 1_555
O27 P9 1.552625 1_555
O27 Sr9 2.548925 1_554
O27 Sr19 2.742033 1_455
O27 Sr1 2.919917 1_554
O28 P10 1.554047 1_555
O28 Sr10 2.539348 1_555
O28 Sr14 2.726257 1_565
O28 Sr0 2.926056 1_555
O29 P11 1.552625 1_555
O29 Sr11 2.548925 1_554
O29 Sr15 2.742033 1_565
O29 Sr1 2.919927 1_554
O30 P0 1.554320 1_555
O30 Sr19 2.521206 1_555
O30 Sr10 2.724974 1_555
O30 Sr3 2.925401 1_555
O31 P1 1.554569 1_555
O31 Sr18 2.538899 1_555
O31 Sr11 2.723967 1_555
O31 Sr2 2.925924 1_555
O32 P2 1.554320 1_555
O32 Sr15 2.521206 1_555
O32 Sr12 2.724967 1_655
O32 Sr3 2.925394 1_555
O33 P3 1.554559 1_555
O33 Sr14 2.538903 1_555
O33 Sr13 2.723975 1_655
O33 Sr2 2.925910 1_555
O34 P4 1.554320 1_555
O34 Sr17 2.521206 1_555
O34 Sr8 2.724965 1_545
O34 Sr3 2.925404 1_555
O35 P5 1.554559 1_555
O35 Sr16 2.538896 1_555
O35 Sr9 2.723976 1_545
O35 Sr2 2.925930 1_555
O36 P0 1.560205 1_455
O36 Sr6 2.599138 1_555
O36 Sr0 2.599179 1_555
O36 Sr8 2.977525 1_555
O37 P1 1.561019 1_455
O37 Sr7 2.598394 1_555
O37 Sr1 2.600079 1_555
O37 Sr9 2.972079 1_555
O38 P2 1.560206 1_565
O38 Sr6 2.599138 1_555
O38 Sr0 2.599179 1_555
O38 Sr10 2.977525 1_555
O39 P3 1.561021 1_565
O39 Sr7 2.598398 1_555
O39 Sr1 2.600082 1_555
O39 Sr11 2.972079 1_555
O40 P4 1.560214 1_555
O40 Sr6 2.599138 1_555
O40 Sr0 2.599179 1_555
O40 Sr12 2.977525 1_555
O41 P5 1.561028 1_555
O41 Sr7 2.598401 1_555
O41 Sr1 2.600086 1_555
O41 Sr13 2.972079 1_555
O42 P6 1.560205 1_655
O42 Sr2 2.599138 1_555
O42 Sr4 2.599179 1_555
O42 Sr14 2.977525 1_555
O43 P7 1.561019 1_655
O43 Sr3 2.598394 1_555
O43 Sr5 2.600079 1_555
O43 Sr15 2.972079 1_555
O44 P8 1.560206 1_545
O44 Sr2 2.599138 1_555
O44 Sr4 2.599179 1_555
O44 Sr16 2.977525 1_555
O45 P9 1.561021 1_545
O45 Sr3 2.598398 1_555
O45 Sr5 2.600082 1_555
O45 Sr17 2.972079 1_555
O46 P10 1.560214 1_555
O46 Sr2 2.599138 1_555
O46 Sr4 2.599179 1_555
O46 Sr18 2.977525 1_555
O47 P11 1.561028 1_555
O47 Sr3 2.598401 1_555
O47 Sr5 2.600086 1_555
O47 Sr19 2.972079 1_555
