# generated using pymatgen
data_Li4Mn3CoO8
_symmetry_space_group_name_H-M   'P 1'
_cell_length_a   5.96829510
_cell_length_b   10.37533694
_cell_length_c   6.04110923
_cell_angle_alpha   106.71143604
_cell_angle_beta   59.07798054
_cell_angle_gamma   88.90830426
_symmetry_Int_Tables_number   1
_chemical_formula_structural   Li4Mn3CoO8
_chemical_formula_sum   'Li8 Mn6 Co2 O16'
_cell_volume   300.95917433
_cell_formula_units_Z   2
loop_
 _symmetry_equiv_pos_site_id
 _symmetry_equiv_pos_as_xyz
  1  'x, y, z'
loop_
 _atom_site_type_symbol
 _atom_site_label
 _atom_site_symmetry_multiplicity
 _atom_site_fract_x
 _atom_site_fract_y
 _atom_site_fract_z
 _atom_site_occupancy
  Li  Li0  1  0.25022800  0.25014100  0.50059100  1
  Li  Li1  1  0.75027900  0.75005000  0.49899500  1
  Li  Li2  1  0.49245700  0.99238900  0.50031400  1
  Li  Li3  1  0.00770200  0.50538000  0.50331600  1
  Li  Li4  1  0.74846000  0.25198300  0.50342900  1
  Li  Li5  1  0.25145500  0.74999800  0.50042600  1
  Li  Li6  1  0.00513100  0.00739300  0.50664300  1
  Li  Li7  1  0.49077800  0.49148800  0.49883800  1
  Mn  Mn0  1  0.24981200  0.75006800  0.99899200  1
  Mn  Mn1  1  0.00010700  0.49960900  0.99844100  1
  Mn  Mn2  1  0.75040300  0.75001500  0.99956700  1
  Mn  Mn3  1  0.75056900  0.25021800  0.00000800  1
  Mn  Mn4  1  0.49752100  0.99811800  0.00537000  1
  Mn  Mn5  1  0.24990400  0.25015300  0.99986400  1
  Co  Co0  1  0.00068900  0.00029800  0.99497000  1
  Co  Co1  1  0.49939200  0.50041800  0.00392800  1
  O  O0  1  0.87459900  0.35508400  0.23246100  1
  O  O1  1  0.39640900  0.86651400  0.25284500  1
  O  O2  1  0.62571900  0.14534200  0.76920300  1
  O  O3  1  0.10333800  0.63383600  0.74686900  1
  O  O4  1  0.15331000  0.12474100  0.21565000  1
  O  O5  1  0.65455800  0.62908200  0.21674200  1
  O  O6  1  0.40235600  0.37274400  0.23954300  1
  O  O7  1  0.88234300  0.86160600  0.21678600  1
  O  O8  1  0.62586100  0.12723300  0.21302100  1
  O  O9  1  0.12164700  0.62369600  0.21252700  1
  O  O10  1  0.34941000  0.37476700  0.78100900  1
  O  O11  1  0.84731700  0.87156800  0.78095600  1
  O  O12  1  0.09901600  0.12890800  0.75908500  1
  O  O13  1  0.61713500  0.63803500  0.78243600  1
  O  O14  1  0.87531400  0.37337300  0.78413900  1
  O  O15  1  0.37678300  0.87575200  0.78303600  1
loop_
_geom_bond_atom_site_label_1
_geom_bond_atom_site_label_2
_geom_bond_distance
_geom_bond_site_symmetry_2
Li0 O14 2.065913 1_455
Li0 O8 2.069902 1_555
Li0 O12 2.135337 1_555
Li0 O6 2.157680 1_555
Li0 O10 2.166133 1_555
Li0 O4 2.180466 1_555
Li1 O9 2.066039 1_655
Li1 O15 2.070127 1_555
Li1 O5 2.146335 1_555
Li1 O11 2.152452 1_555
Li1 O7 2.157772 1_555
Li1 O13 2.166878 1_555
Li2 O1 2.013865 1_555
Li2 O7 2.153260 1_555
Li2 O12 2.188874 1_565
Li2 O15 2.206093 1_555
Li2 O8 2.371111 1_565
Li2 O2 2.383898 1_565
Li3 O3 2.007795 1_555
Li3 O13 2.162102 1_455
Li3 O6 2.176891 1_555
Li3 O9 2.258220 1_555
Li3 O14 2.319070 1_455
Li3 O0 2.378188 1_455
Li4 O0 2.040053 1_555
Li4 O2 2.045099 1_555
Li4 O10 2.158326 1_555
Li4 O4 2.201111 1_655
Li4 O14 2.272164 1_555
Li4 O8 2.310417 1_555
Li5 O3 2.042161 1_555
Li5 O1 2.048594 1_555
Li5 O5 2.170260 1_555
Li5 O11 2.175887 1_455
Li5 O15 2.290244 1_555
Li5 O9 2.335618 1_555
Li6 O12 2.007138 1_555
Li6 O2 2.138132 1_455
Li6 O1 2.200450 1_545
Li6 O4 2.242523 1_555
Li6 O11 2.325664 1_445
Li6 O7 2.393536 1_445
Li7 O6 2.003631 1_555
Li7 O0 2.148991 1_555
Li7 O3 2.193094 1_555
Li7 O10 2.198226 1_555
Li7 O5 2.374442 1_555
Li7 O13 2.385209 1_555
Mn0 O7 1.985520 1_456
Mn0 O13 1.987337 1_555
Mn0 O9 1.991259 1_556
Mn0 O15 1.994168 1_555
Mn0 O3 2.211480 1_555
Mn0 O1 2.220513 1_556
Mn1 O10 1.963046 1_555
Mn1 O5 1.969094 1_456
Mn1 O9 1.974473 1_556
Mn1 O14 1.999799 1_455
Mn1 O3 2.217287 1_555
Mn1 O0 2.232005 1_456
Mn2 O3 1.939223 1_655
Mn2 O1 1.944877 1_556
Mn2 O5 1.955910 1_556
Mn2 O11 1.967175 1_555
Mn2 O7 1.976245 1_556
Mn2 O13 1.983454 1_555
Mn3 O12 1.939932 1_654
Mn3 O6 1.944157 1_555
Mn3 O8 1.958133 1_555
Mn3 O14 1.970881 1_554
Mn3 O2 1.977249 1_554
Mn3 O0 1.980932 1_555
Mn4 O4 1.953285 1_565
Mn4 O11 1.970627 1_554
Mn4 O15 1.996008 1_554
Mn4 O8 2.003766 1_565
Mn4 O1 2.177578 1_555
Mn4 O2 2.264980 1_564
Mn5 O4 1.989097 1_556
Mn5 O0 1.992369 1_456
Mn5 O10 1.994418 1_555
Mn5 O2 1.994644 1_555
Mn5 O12 2.201434 1_555
Mn5 O6 2.209322 1_556
Co0 O15 2.081309 1_545
Co0 O8 2.082221 1_456
Co0 O12 2.102264 1_555
Co0 O7 2.130755 1_446
Co0 O11 2.136145 1_445
Co0 O4 2.139389 1_556
Co1 O9 2.085674 1_555
Co1 O14 2.086476 1_554
Co1 O6 2.093445 1_555
Co1 O13 2.119788 1_554
Co1 O5 2.139213 1_555
Co1 O10 2.141979 1_554
