# generated using pymatgen
data_Al3(PO8)2
_symmetry_space_group_name_H-M   'P 1'
_cell_length_a   7.78683800
_cell_length_b   7.89070390
_cell_length_c   11.21507677
_cell_angle_alpha   98.11833185
_cell_angle_beta   104.56653604
_cell_angle_gamma   98.95277552
_symmetry_Int_Tables_number   1
_chemical_formula_structural   Al3(PO8)2
_chemical_formula_sum   'Al6 P4 O32'
_cell_volume   646.99060248
_cell_formula_units_Z   2
loop_
 _symmetry_equiv_pos_site_id
 _symmetry_equiv_pos_as_xyz
  1  'x, y, z'
loop_
 _atom_site_type_symbol
 _atom_site_label
 _atom_site_symmetry_multiplicity
 _atom_site_fract_x
 _atom_site_fract_y
 _atom_site_fract_z
 _atom_site_occupancy
  Al  Al0  1  0.89109500  0.25009000  0.72680400  1
  Al  Al1  1  0.10890500  0.74991000  0.27319600  1
  Al  Al2  1  0.43272500  0.15631700  0.70667800  1
  Al  Al3  1  0.56727500  0.84368300  0.29332200  1
  Al  Al4  1  0.91812400  0.35334700  0.28224500  1
  Al  Al5  1  0.08187600  0.64665300  0.71775500  1
  P  P0  1  0.13801400  0.32199500  0.55162900  1
  P  P1  1  0.86198600  0.67800500  0.44837100  1
  P  P2  1  0.17352100  0.06124700  0.87918800  1
  P  P3  1  0.82647900  0.93875300  0.12081200  1
  O  O0  1  0.98837400  0.22015500  0.59802200  1
  O  O1  1  0.01162600  0.77984500  0.40197800  1
  O  O2  1  0.08221900  0.29603100  0.40834000  1
  O  O3  1  0.91778100  0.70396900  0.59166000  1
  O  O4  1  0.18085300  0.51732500  0.61362700  1
  O  O5  1  0.81914700  0.48267500  0.38637300  1
  O  O6  1  0.31480400  0.24891700  0.58854700  1
  O  O7  1  0.68519600  0.75108300  0.41145300  1
  O  O8  1  0.31682700  0.14773500  0.81934400  1
  O  O9  1  0.68317300  0.85226500  0.18065600  1
  O  O10  1  0.00002800  0.13492200  0.83554600  1
  O  O11  1  0.99997200  0.86507800  0.16445400  1
  O  O12  1  0.11953000  0.86128200  0.81852400  1
  O  O13  1  0.88047000  0.13871800  0.18147600  1
  O  O14  1  0.24604000  0.09121200  0.01953000  1
  O  O15  1  0.75396000  0.90878800  0.98047000  1
  O  O16  1  0.65235000  0.15265000  0.64930900  1
  O  O17  1  0.34765000  0.84735000  0.35069100  1
  O  O18  1  0.37599100  0.89428900  0.65505900  1
  O  O19  1  0.62400900  0.10571100  0.34494100  1
  O  O20  1  0.66677200  0.22606200  0.78846200  1
  O  O21  1  0.33322800  0.77393800  0.21153800  1
  O  O22  1  0.95217200  0.48311000  0.77596600  1
  O  O23  1  0.04782800  0.51689000  0.22403400  1
  O  O24  1  0.75770800  0.58411400  0.81135200  1
  O  O25  1  0.24229200  0.41588600  0.18864800  1
  O  O26  1  0.48067500  0.82479300  0.60376200  1
  O  O27  1  0.51932500  0.17520700  0.39623800  1
  O  O28  1  0.69694000  0.32490800  0.15540800  1
  O  O29  1  0.30306000  0.67509200  0.84459200  1
  O  O30  1  0.75611700  0.59798900  0.91972300  1
  O  O31  1  0.24388300  0.40201100  0.08027700  1
loop_
_geom_bond_atom_site_label_1
_geom_bond_atom_site_label_2
_geom_bond_distance
_geom_bond_site_symmetry_2
Al0 O10 1.750784 1_655
Al0 O22 1.794596 1_555
Al0 O0 1.795898 1_555
Al0 O16 1.832023 1_555
Al0 O20 2.026535 1_555
Al1 O11 1.750784 1_455
Al1 O23 1.794596 1_555
Al1 O1 1.795898 1_555
Al1 O17 1.832023 1_555
Al1 O21 2.026535 1_555
Al2 O8 1.730426 1_555
Al2 O6 1.732794 1_555
Al2 O20 1.780460 1_555
Al2 O16 1.975638 1_555
Al2 O18 2.013509 1_545
Al3 O9 1.730426 1_555
Al3 O7 1.732794 1_555
Al3 O21 1.780460 1_555
Al3 O17 1.975638 1_555
Al3 O19 2.013509 1_565
Al4 O23 1.809843 1_655
Al4 O2 1.813477 1_655
Al4 O5 1.833059 1_555
Al4 O13 1.835636 1_555
Al4 O28 1.896685 1_555
Al5 O22 1.809843 1_455
Al5 O3 1.813477 1_455
Al5 O4 1.833059 1_555
Al5 O12 1.835636 1_555
Al5 O29 1.896685 1_555
O0 P0 1.551072 1_655
O1 P1 1.551072 1_455
O2 P0 1.530127 1_555
O3 P1 1.530127 1_555
O4 P0 1.546267 1_555
O5 P1 1.546267 1_555
O6 P0 1.557837 1_555
O7 P1 1.557837 1_555
O8 P2 1.559002 1_555
O9 P3 1.559002 1_555
O10 P2 1.547523 1_555
O11 P3 1.547523 1_555
O12 P2 1.573451 1_565
O13 P3 1.573451 1_545
O14 P2 1.502782 1_554
O15 P3 1.502782 1_556
O16 O20 1.555617 1_555
O17 O21 1.555617 1_555
O18 O26 1.257807 1_555
O19 O27 1.257807 1_555
O22 O24 1.916832 1_555
O23 O25 1.916832 1_555
O24 O30 1.208191 1_555
O25 O31 1.208191 1_555
