# generated using pymatgen
data_Rb5HW3S4(NO7)2
_symmetry_space_group_name_H-M   'P 1'
_cell_length_a   9.48452100
_cell_length_b   11.38496475
_cell_length_c   12.03938941
_cell_angle_alpha   103.08560586
_cell_angle_beta   94.13344911
_cell_angle_gamma   112.98895055
_symmetry_Int_Tables_number   1
_chemical_formula_structural   Rb5HW3S4(NO7)2
_chemical_formula_sum   'Rb10 H2 W6 S8 N4 O28'
_cell_volume   1146.87315497
_cell_formula_units_Z   2
loop_
 _symmetry_equiv_pos_site_id
 _symmetry_equiv_pos_as_xyz
  1  'x, y, z'
loop_
 _atom_site_type_symbol
 _atom_site_label
 _atom_site_symmetry_multiplicity
 _atom_site_fract_x
 _atom_site_fract_y
 _atom_site_fract_z
 _atom_site_occupancy
  Rb  Rb0  1  0.11481600  0.17126900  0.25901800  1
  Rb  Rb1  1  0.88518400  0.82873100  0.74098200  1
  Rb  Rb2  1  0.20063600  0.83123300  0.07892400  1
  Rb  Rb3  1  0.79936400  0.16876700  0.92107600  1
  Rb  Rb4  1  0.31070100  0.83551000  0.71455000  1
  Rb  Rb5  1  0.68929900  0.16449000  0.28545000  1
  Rb  Rb6  1  0.31937000  0.52169000  0.04891200  1
  Rb  Rb7  1  0.68063000  0.47831000  0.95108800  1
  Rb  Rb8  1  0.35930700  0.48598900  0.67282200  1
  Rb  Rb9  1  0.64069300  0.51401100  0.32717800  1
  H  H0  1  0.00000000  0.50000000  0.50000000  1
  H  H1  1  0.00000000  0.00000000  0.00000000  1
  W  W0  1  0.01177000  0.84663600  0.42941300  1
  W  W1  1  0.98823000  0.15336400  0.57058700  1
  W  W2  1  0.70649400  0.88323500  0.46127500  1
  W  W3  1  0.29350600  0.11676500  0.53872500  1
  W  W4  1  0.36417300  0.87484700  0.41463800  1
  W  W5  1  0.63582700  0.12515300  0.58536200  1
  S  S0  1  0.79586400  0.83604400  0.15804500  1
  S  S1  1  0.20413600  0.16395600  0.84195500  1
  S  S2  1  0.28037300  0.56949400  0.38693500  1
  S  S3  1  0.71962700  0.43050600  0.61306500  1
  S  S4  1  0.00104700  0.46173000  0.20026500  1
  S  S5  1  0.99895300  0.53827000  0.79973500  1
  S  S6  1  0.59360500  0.80109800  0.94256900  1
  S  S7  1  0.40639500  0.19890200  0.05743100  1
  N  N0  1  0.78635400  0.85713500  0.01714800  1
  N  N1  1  0.21364600  0.14286500  0.98285200  1
  N  N2  1  0.08162500  0.52264200  0.34996600  1
  N  N3  1  0.91837500  0.47735800  0.65003400  1
  O  O0  1  0.32028600  0.45602400  0.35289300  1
  O  O1  1  0.67971400  0.54397600  0.64710700  1
  O  O2  1  0.07207000  0.57443800  0.15302600  1
  O  O3  1  0.92793000  0.42556200  0.84697400  1
  O  O4  1  0.83414000  0.42067200  0.20049100  1
  O  O5  1  0.16586000  0.57932800  0.79950900  1
  O  O6  1  0.54195600  0.65618500  0.90326800  1
  O  O7  1  0.45804400  0.34381500  0.09673200  1
  O  O8  1  0.87598600  0.99329300  0.02834800  1
  O  O9  1  0.12401400  0.00670700  0.97165200  1
  O  O10  1  0.68593100  0.69838700  0.14363500  1
  O  O11  1  0.31406900  0.30161300  0.85636500  1
  O  O12  1  0.61757700  0.86332600  0.84671500  1
  O  O13  1  0.38242300  0.13667400  0.15328500  1
  O  O14  1  0.75984900  0.93730500  0.23408500  1
  O  O15  1  0.24015100  0.06269500  0.76591500  1
  O  O16  1  0.49728800  0.84098100  0.01934200  1
  O  O17  1  0.50271200  0.15901900  0.98065800  1
  O  O18  1  0.35178400  0.67003500  0.32233200  1
  O  O19  1  0.64821600  0.32996500  0.67766800  1
  O  O20  1  0.00612800  0.42840500  0.40886700  1
  O  O21  1  0.99387200  0.57159500  0.59113300  1
  O  O22  1  0.31386000  0.62969400  0.51217900  1
  O  O23  1  0.68614000  0.37030600  0.48782100  1
  O  O24  1  0.96015200  0.86072100  0.18641300  1
  O  O25  1  0.03984800  0.13927900  0.81358700  1
  O  O26  1  0.03627100  0.34791200  0.14803300  1
  O  O27  1  0.96372900  0.65208800  0.85196700  1
loop_
_geom_bond_atom_site_label_1
_geom_bond_atom_site_label_2
_geom_bond_distance
_geom_bond_site_symmetry_2
Rb0 W3 3.942379 1_555
Rb1 W2 3.942379 1_555
Rb8 W3 3.924125 1_555
Rb9 W2 3.924125 1_555
H0 O21 1.229971 1_455
H0 O20 1.229971 1_555
H1 O8 1.226909 1_445
H1 O9 1.226909 1_554
W0 W3 3.093814 1_565
W0 W2 3.119967 1_455
W1 W2 3.093814 1_545
W1 W3 3.119967 1_655
W2 W5 3.160687 1_565
W2 W4 3.215043 1_555
W3 W4 3.160687 1_545
W3 W5 3.215043 1_555
N0 O8 1.415391 1_555
N0 S0 1.767081 1_555
N0 S6 1.774331 1_554
N1 O9 1.415391 1_555
N1 S1 1.767081 1_555
N1 S7 1.774331 1_556
N2 O20 1.408656 1_555
N2 S2 1.738422 1_555
N2 S4 1.770537 1_555
N3 O21 1.408656 1_555
N3 S3 1.738422 1_555
N3 S5 1.770537 1_555
O0 S2 1.464503 1_555
O0 Rb9 2.903057 1_555
O0 Rb0 2.945110 1_555
O1 S3 1.464503 1_555
O1 Rb8 2.903057 1_555
O1 Rb1 2.945110 1_555
O2 S4 1.460915 1_555
O2 Rb6 2.935391 1_555
O2 Rb2 3.063251 1_555
O3 S5 1.460915 1_555
O3 Rb7 2.935391 1_555
O3 Rb3 3.063251 1_555
O4 S4 1.465503 1_655
O4 Rb9 2.830961 1_555
O4 Rb5 3.140680 1_555
O4 Rb7 3.546079 1_554
O5 S5 1.465503 1_455
O5 Rb8 2.830961 1_555
O5 Rb4 3.140680 1_555
O5 Rb6 3.546079 1_556
O6 S6 1.472278 1_555
O6 Rb7 2.943070 1_555
O6 Rb8 2.950241 1_555
O6 Rb6 3.016709 1_556
O7 S7 1.472278 1_555
O7 Rb6 2.943070 1_555
O7 Rb9 2.950241 1_555
O7 Rb7 3.016709 1_554
O8 Rb3 2.890357 1_564
O9 Rb2 2.890357 1_546
O10 S0 1.465549 1_555
O10 Rb7 2.984786 1_554
O10 Rb6 3.218874 1_555
O10 Rb9 3.317666 1_555
O11 S1 1.465549 1_555
O11 Rb6 2.984786 1_556
O11 Rb7 3.218874 1_555
O11 Rb8 3.317666 1_555
O12 S6 1.472278 1_555
O12 Rb1 3.039280 1_555
O12 Rb4 3.080228 1_555
O12 Rb3 3.090518 1_565
O13 S7 1.472278 1_555
O13 Rb0 3.039280 1_555
O13 Rb5 3.080228 1_555
O13 Rb2 3.090518 1_545
O14 S0 1.469224 1_555
O14 Rb5 2.864848 1_565
O14 W2 2.972398 1_555
O15 S1 1.469224 1_555
O15 Rb4 2.864848 1_545
O15 W3 2.972398 1_555
O16 S6 1.466530 1_554
O16 Rb2 2.919989 1_555
O16 Rb6 3.474124 1_555
O17 S7 1.466530 1_556
O17 Rb3 2.919989 1_555
O17 Rb7 3.474124 1_555
O18 S2 1.499139 1_555
O18 W4 2.297775 1_555
O18 Rb6 3.273228 1_555
O19 S3 1.499139 1_555
O19 W5 2.297775 1_555
O19 Rb7 3.273228 1_555
O20 Rb5 3.247741 1_455
O21 Rb4 3.247741 1_655
O22 S2 1.461926 1_555
O22 Rb8 2.909734 1_555
O22 Rb4 2.984612 1_555
O23 S3 1.461926 1_555
O23 Rb9 2.909734 1_555
O23 Rb5 2.984612 1_555
O24 S0 1.470180 1_555
O24 Rb2 2.795838 1_655
O24 Rb0 3.127432 1_665
O25 S1 1.470180 1_555
O25 Rb3 2.795838 1_455
O25 Rb1 3.127432 1_445
O26 S4 1.478391 1_555
O26 Rb0 2.937401 1_555
O26 Rb3 3.112313 1_454
O26 Rb6 3.151109 1_555
O27 S5 1.478391 1_555
O27 Rb1 2.937401 1_555
O27 Rb2 3.112313 1_656
O27 Rb7 3.151109 1_555
