# generated using pymatgen
data_Li9Mn2Co5O16
_symmetry_space_group_name_H-M   'P 1'
_cell_length_a   2.91320400
_cell_length_b   9.78785800
_cell_length_c   10.31957641
_cell_angle_alpha   80.10756063
_cell_angle_beta   90.00000000
_cell_angle_gamma   90.00000000
_symmetry_Int_Tables_number   1
_chemical_formula_structural   Li9Mn2Co5O16
_chemical_formula_sum   'Li9 Mn2 Co5 O16'
_cell_volume   289.87773380
_cell_formula_units_Z   1
loop_
 _symmetry_equiv_pos_site_id
 _symmetry_equiv_pos_as_xyz
  1  'x, y, z'
loop_
 _atom_site_type_symbol
 _atom_site_label
 _atom_site_symmetry_multiplicity
 _atom_site_fract_x
 _atom_site_fract_y
 _atom_site_fract_z
 _atom_site_occupancy
  Li  Li0  1  0.50000000  0.00524900  0.26471300  1
  Li  Li1  1  0.50000000  0.99924700  0.74238900  1
  Li  Li2  1  0.00000000  0.74411400  0.37970700  1
  Li  Li3  1  0.00000000  0.73936900  0.86976800  1
  Li  Li4  1  0.50000000  0.49940100  0.48914200  1
  Li  Li5  1  0.50000000  0.48997800  0.01066800  1
  Li  Li6  1  0.00000000  0.25593800  0.13077900  1
  Li  Li7  1  0.00000000  0.25852900  0.60961100  1
  Li  Li8  1  0.00000000  0.49778300  0.25256000  1
  Mn  Mn0  1  0.00000000  0.99785300  0.00357500  1
  Mn  Mn1  1  0.50000000  0.74010800  0.13306700  1
  Co  Co0  1  0.00000000  0.00791700  0.50089600  1
  Co  Co1  1  0.50000000  0.75300500  0.62440300  1
  Co  Co2  1  0.00000000  0.49998100  0.74588700  1
  Co  Co3  1  0.50000000  0.26698900  0.35659500  1
  Co  Co4  1  0.50000000  0.25179800  0.87278000  1
  O  O0  1  0.50000000  0.10195300  0.06217900  1
  O  O1  1  0.50000000  0.11972500  0.55918900  1
  O  O2  1  0.00000000  0.86689200  0.17292900  1
  O  O3  1  0.00000000  0.86870700  0.68579800  1
  O  O4  1  0.50000000  0.64007200  0.29622900  1
  O  O5  1  0.50000000  0.61760500  0.80665500  1
  O  O6  1  0.00000000  0.36578100  0.92723600  1
  O  O7  1  0.00000000  0.36686600  0.42867100  1
  O  O8  1  0.50000000  0.88425400  0.44727700  1
  O  O9  1  0.50000000  0.88321900  0.95292300  1
  O  O10  1  0.00000000  0.63486100  0.56869000  1
  O  O11  1  0.00000000  0.64218500  0.06800600  1
  O  O12  1  0.50000000  0.38361100  0.68992800  1
  O  O13  1  0.50000000  0.36616700  0.19074000  1
  O  O14  1  0.00000000  0.12962400  0.32095100  1
  O  O15  1  0.00000000  0.12121800  0.83605900  1
loop_
_geom_bond_atom_site_label_1
_geom_bond_atom_site_label_2
_geom_bond_distance
_geom_bond_site_symmetry_2
Li0 O14 2.045294 1_655
Li0 O14 2.045294 1_555
Li0 O8 2.045798 1_545
Li0 O0 2.141154 1_555
Li0 O2 2.300752 1_645
Li0 O2 2.300752 1_545
Li1 O1 2.049078 1_565
Li1 O3 2.086063 1_655
Li1 O3 2.086063 1_555
Li1 O15 2.208580 1_565
Li1 O15 2.208580 1_665
Li1 O9 2.272056 1_555
Li2 O4 2.049941 1_555
Li2 O4 2.049941 1_455
Li2 O10 2.056775 1_555
Li2 O8 2.195000 1_455
Li2 O8 2.195000 1_555
Li2 O2 2.261952 1_555
Li3 O5 2.057425 1_555
Li3 O5 2.057425 1_455
Li3 O3 2.093104 1_555
Li3 O11 2.102670 1_556
Li3 O9 2.292516 1_555
Li3 O9 2.292516 1_455
Li4 O7 2.114728 1_655
Li4 O7 2.114728 1_555
Li4 O12 2.184233 1_555
Li4 O4 2.217466 1_555
Li4 O10 2.219787 1_555
Li4 O10 2.219787 1_655
Li5 O13 2.036655 1_555
Li5 O6 2.168027 1_654
Li5 O6 2.168027 1_554
Li5 O11 2.234756 1_655
Li5 O11 2.234756 1_555
Li5 O5 2.255935 1_554
Li6 O13 1.974333 1_455
Li6 O13 1.974333 1_555
Li6 O14 2.132194 1_555
Li6 O6 2.189055 1_554
Li6 O0 2.293699 1_555
Li6 O0 2.293699 1_455
Li7 O7 1.982581 1_555
Li7 O1 2.116863 1_455
Li7 O1 2.116863 1_555
Li7 O12 2.157822 1_555
Li7 O12 2.157822 1_455
Li7 O15 2.487571 1_555
Li8 O7 2.035858 1_555
Li8 O13 2.114384 1_455
Li8 O13 2.114384 1_555
Li8 O4 2.116612 1_555
Li8 O4 2.116612 1_455
Li8 O11 2.167937 1_555
Mn0 O15 1.931107 1_564
Mn0 O0 1.933223 1_565
Mn0 O0 1.933223 1_465
Mn0 O9 1.963507 1_554
Mn0 O9 1.963507 1_454
Mn0 O2 1.981836 1_555
Mn1 O4 1.796469 1_555
Mn1 O11 1.926712 1_555
Mn1 O11 1.926712 1_655
Mn1 O2 2.001561 1_655
Mn1 O2 2.001561 1_555
Mn1 O9 2.126802 1_554
Co0 O1 1.976711 1_455
Co0 O1 1.976711 1_555
Co0 O14 2.026645 1_555
Co0 O8 2.030527 1_545
Co0 O8 2.030527 1_445
Co0 O3 2.145727 1_545
Co1 O10 2.004466 1_555
Co1 O10 2.004466 1_655
Co1 O3 2.012991 1_655
Co1 O3 2.012991 1_555
Co1 O8 2.045626 1_555
Co1 O5 2.106466 1_555
Co2 O12 1.994622 1_555
Co2 O12 1.994622 1_455
Co2 O5 2.021998 1_555
Co2 O5 2.021998 1_455
Co2 O10 2.063295 1_555
Co2 O6 2.093570 1_555
Co3 O13 1.816830 1_555
Co3 O7 1.969879 1_655
Co3 O7 1.969879 1_555
Co3 O14 2.057819 1_555
Co3 O14 2.057819 1_655
Co3 O1 2.326619 1_555
Co4 O6 1.974230 1_555
Co4 O6 1.974230 1_655
Co4 O15 2.016244 1_555
Co4 O15 2.016244 1_655
Co4 O12 2.094909 1_555
Co4 O0 2.232996 1_556
