# generated using pymatgen
data_Bi(PdO2)2
_symmetry_space_group_name_H-M   'P 1'
_cell_length_a   5.70035052
_cell_length_b   6.09246678
_cell_length_c   6.41259272
_cell_angle_alpha   114.53057566
_cell_angle_beta   95.88991429
_cell_angle_gamma   111.67866633
_symmetry_Int_Tables_number   1
_chemical_formula_structural   Bi(PdO2)2
_chemical_formula_sum   'Bi2 Pd4 O8'
_cell_volume   179.43421564
_cell_formula_units_Z   2
loop_
 _symmetry_equiv_pos_site_id
 _symmetry_equiv_pos_as_xyz
  1  'x, y, z'
loop_
 _atom_site_type_symbol
 _atom_site_label
 _atom_site_symmetry_multiplicity
 _atom_site_fract_x
 _atom_site_fract_y
 _atom_site_fract_z
 _atom_site_occupancy
  Bi  Bi0  1  0.86141717  0.24158992  0.64541219  1
  Bi  Bi1  1  0.13858283  0.75841008  0.35458781  1
  Pd  Pd0  1  0.00000000  0.00000000  0.00000000  1
  Pd  Pd1  1  0.50000000  0.50000000  0.00000000  1
  Pd  Pd2  1  0.50000000  0.50000000  0.50000000  1
  Pd  Pd3  1  0.50000000  0.00000000  0.00000000  1
  O  O0  1  0.64360403  0.39541673  0.22746130  1
  O  O1  1  0.35639597  0.60458327  0.77253870  1
  O  O2  1  0.83878420  0.86081396  0.64373134  1
  O  O3  1  0.16121580  0.13918604  0.35626866  1
  O  O4  1  0.51958303  0.87052424  0.24642202  1
  O  O5  1  0.48041697  0.12947576  0.75357798  1
  O  O6  1  0.87678846  0.64604742  0.98985946  1
  O  O7  1  0.12321154  0.35395258  0.01014054  1
loop_
_geom_bond_atom_site_label_1
_geom_bond_atom_site_label_2
_geom_bond_distance
_geom_bond_site_symmetry_2
Bi0 O2 2.270763 1_545
Bi0 O5 2.295893 1_555
Bi0 O7 2.316315 1_656
Bi0 O6 2.497954 1_555
Bi0 O4 2.524542 1_545
Bi0 O1 2.633896 1_655
Bi0 O3 2.687967 1_655
Bi1 O3 2.270763 1_565
Bi1 O4 2.295893 1_555
Bi1 O6 2.316315 1_454
Bi1 O7 2.497954 1_555
Bi1 O5 2.524542 1_565
Bi1 O0 2.633896 1_455
Bi1 O2 2.687967 1_455
O0 Pd2 1.970981 1_555
O0 Pd3 1.995357 1_555
O0 Pd1 2.028709 1_555
O1 Pd2 1.970981 1_555
O1 Pd3 1.995357 1_566
O1 Pd1 2.028709 1_556
O2 Pd0 2.041505 1_666
O2 Pd2 2.056018 1_555
O3 Pd0 2.041505 1_555
O3 Pd2 2.056018 1_555
O4 Pd3 2.048330 1_565
O4 Pd1 2.102616 1_555
O5 Pd3 2.048330 1_556
O5 Pd1 2.102616 1_556
O6 Pd0 1.975599 1_666
O6 Pd1 2.018387 1_556
O7 Pd0 1.975599 1_555
O7 Pd1 2.018387 1_555
