# generated using pymatgen
data_FeH7SO8
_symmetry_space_group_name_H-M   'P 1'
_cell_length_a   6.70541104
_cell_length_b   9.03545064
_cell_length_c   11.75842852
_cell_angle_alpha   96.73577261
_cell_angle_beta   95.61288278
_cell_angle_gamma   90.43570216
_symmetry_Int_Tables_number   1
_chemical_formula_structural   FeH7SO8
_chemical_formula_sum   'Fe4 H28 S4 O32'
_cell_volume   703.96046821
_cell_formula_units_Z   4
loop_
 _symmetry_equiv_pos_site_id
 _symmetry_equiv_pos_as_xyz
  1  'x, y, z'
loop_
 _atom_site_type_symbol
 _atom_site_label
 _atom_site_symmetry_multiplicity
 _atom_site_fract_x
 _atom_site_fract_y
 _atom_site_fract_z
 _atom_site_occupancy
  Fe  Fe0  1  0.35681100  0.09011800  0.06368700  1
  Fe  Fe1  1  0.64318900  0.90988200  0.93631300  1
  Fe  Fe2  1  0.26908600  0.07518400  0.76056100  1
  Fe  Fe3  1  0.73091400  0.92481600  0.23943900  1
  H  H0  1  0.65407900  0.40679500  0.29348000  1
  H  H1  1  0.34592100  0.59320500  0.70652000  1
  H  H2  1  0.16615100  0.12261900  0.53913200  1
  H  H3  1  0.83384900  0.87738100  0.46086800  1
  H  H4  1  0.61945100  0.63329900  0.23504400  1
  H  H5  1  0.38054900  0.36670100  0.76495600  1
  H  H6  1  0.17650100  0.37607800  0.21931200  1
  H  H7  1  0.82349900  0.62392200  0.78068800  1
  H  H8  1  0.11540700  0.51296200  0.15269700  1
  H  H9  1  0.88459300  0.48703800  0.84730300  1
  H  H10  1  0.02009800  0.82232100  0.38733900  1
  H  H11  1  0.97990200  0.17767900  0.61266100  1
  H  H12  1  0.29485000  0.70577100  0.45888600  1
  H  H13  1  0.70515000  0.29422900  0.54111400  1
  H  H14  1  0.16222400  0.55199200  0.77488500  1
  H  H15  1  0.83777600  0.44800800  0.22511500  1
  H  H16  1  0.55595900  0.35270100  0.11031000  1
  H  H17  1  0.44404100  0.64729900  0.88969000  1
  H  H18  1  0.54961100  0.26147400  0.70852600  1
  H  H19  1  0.45038900  0.73852600  0.29147400  1
  H  H20  1  0.03381100  0.12115400  0.30782800  1
  H  H21  1  0.96618900  0.87884600  0.69217200  1
  H  H22  1  0.95764900  0.13726500  0.17562300  1
  H  H23  1  0.04235100  0.86273500  0.82437700  1
  H  H24  1  0.43636500  0.70014800  0.02209700  1
  H  H25  1  0.56363500  0.29985200  0.97790300  1
  H  H26  1  0.18819200  0.61879100  0.34070900  1
  H  H27  1  0.81180800  0.38120900  0.65929100  1
  S  S0  1  0.42126400  0.16811200  0.34760000  1
  S  S1  1  0.57873600  0.83188800  0.65240000  1
  S  S2  1  0.05769800  0.78960400  0.06840600  1
  S  S3  1  0.94230200  0.21039600  0.93159400  1
  O  O0  1  0.06273800  0.17003300  0.03876200  1
  O  O1  1  0.93726200  0.82996700  0.96123800  1
  O  O2  1  0.44324800  0.26518300  0.76175800  1
  O  O3  1  0.55675200  0.73481700  0.23824200  1
  O  O4  1  0.68909300  0.45511100  0.22671600  1
  O  O5  1  0.31090700  0.54488900  0.77328400  1
  O  O6  1  0.08066500  0.21810000  0.83984800  1
  O  O7  1  0.91933500  0.78190000  0.16015200  1
  O  O8  1  0.10269700  0.11473500  0.61116200  1
  O  O9  1  0.89730300  0.88526500  0.38883800  1
  O  O10  1  0.53318900  0.02478500  0.33999000  1
  O  O11  1  0.46681100  0.97521500  0.66001000  1
  O  O12  1  0.15168200  0.64529900  0.04532100  1
  O  O13  1  0.84831800  0.35470100  0.95467900  1
  O  O14  1  0.23230300  0.71834300  0.38083700  1
  O  O15  1  0.76769700  0.28165700  0.61916300  1
  O  O16  1  0.24053300  0.14857400  0.40690500  1
  O  O17  1  0.75946700  0.85142600  0.59309500  1
  O  O18  1  0.55214100  0.29311500  0.40345900  1
  O  O19  1  0.44785900  0.70688500  0.59654100  1
  O  O20  1  0.47792300  0.29656300  0.04093800  1
  O  O21  1  0.52207700  0.70343700  0.95906200  1
  O  O22  1  0.38686400  0.01257200  0.90462500  1
  O  O23  1  0.61313600  0.98742800  0.09537500  1
  O  O24  1  0.21188500  0.90807800  0.10965300  1
  O  O25  1  0.78811500  0.09192200  0.89034700  1
  O  O26  1  0.91388600  0.11423800  0.24960800  1
  O  O27  1  0.08611400  0.88576200  0.75039200  1
  O  O28  1  0.09909000  0.46839500  0.22434100  1
  O  O29  1  0.90091000  0.53160500  0.77565900  1
  O  O30  1  0.35022700  0.20080200  0.22677300  1
  O  O31  1  0.64977300  0.79919800  0.77322700  1
loop_
_geom_bond_atom_site_label_1
_geom_bond_atom_site_label_2
_geom_bond_distance
_geom_bond_site_symmetry_2
Fe0 O22 1.948870 1_554
Fe0 O23 1.983424 1_545
Fe0 O24 2.056426 1_545
Fe0 O30 2.060774 1_555
Fe0 O20 2.084946 1_555
Fe0 O0 2.110412 1_555
Fe1 O23 1.948870 1_556
Fe1 O22 1.983424 1_565
Fe1 O25 2.056426 1_565
Fe1 O31 2.060774 1_555
Fe1 O21 2.084946 1_555
Fe1 O1 2.110412 1_555
Fe2 O22 1.945040 1_555
Fe2 O11 2.011447 1_545
Fe2 O6 2.026264 1_555
Fe2 O8 2.056314 1_555
Fe2 O2 2.066832 1_555
Fe2 O27 2.083321 1_545
Fe3 O23 1.945040 1_555
Fe3 O10 2.011447 1_565
Fe3 O7 2.026264 1_555
Fe3 O9 2.056314 1_555
Fe3 O3 2.066832 1_555
Fe3 O26 2.083321 1_565
H0 O4 0.988374 1_555
H1 O5 0.988374 1_555
H2 O8 0.993800 1_555
H3 O9 0.993800 1_555
H4 O3 1.010150 1_555
H5 O2 1.010150 1_555
H6 O28 0.984742 1_555
H7 O29 0.984742 1_555
H8 O28 0.990320 1_555
H9 O29 0.990320 1_555
H10 O9 1.004661 1_455
H11 O8 1.004661 1_655
H12 O14 0.990417 1_555
H13 O15 0.990417 1_555
H14 O5 1.001401 1_555
H15 O4 1.001401 1_555
H16 O20 1.005921 1_555
H17 O21 1.005921 1_555
H18 O2 0.992138 1_555
H19 O3 0.992138 1_555
H20 O26 1.000358 1_455
H21 O27 1.000358 1_655
H22 O26 0.988776 1_555
H23 O27 0.988776 1_555
H24 O21 0.984279 1_554
H25 O20 0.984279 1_556
H26 O14 0.994138 1_555
H27 O15 0.994138 1_555
O0 S3 1.512058 1_454
O1 S2 1.512058 1_656
O6 S3 1.497273 1_455
O7 S2 1.497273 1_655
O10 S0 1.499695 1_555
O11 S1 1.499695 1_555
O12 S2 1.460761 1_555
O13 S3 1.460761 1_555
O16 S0 1.475471 1_555
O17 S1 1.475471 1_555
O18 S0 1.474918 1_555
O19 S1 1.474918 1_555
O24 S2 1.487729 1_555
O25 S3 1.487729 1_555
O30 S0 1.516847 1_555
O31 S1 1.516847 1_555
