# generated using pymatgen
data_Ca4Be4P4O17F3
_symmetry_space_group_name_H-M   'P 1'
_cell_length_a   4.83851600
_cell_length_b   7.76273957
_cell_length_c   9.80658721
_cell_angle_alpha   89.94722057
_cell_angle_beta   89.32125734
_cell_angle_gamma   89.97801238
_symmetry_Int_Tables_number   1
_chemical_formula_structural   Ca4Be4P4O17F3
_chemical_formula_sum   'Ca4 Be4 P4 O17 F3'
_cell_volume   368.31075819
_cell_formula_units_Z   1
loop_
 _symmetry_equiv_pos_site_id
 _symmetry_equiv_pos_as_xyz
  1  'x, y, z'
loop_
 _atom_site_type_symbol
 _atom_site_label
 _atom_site_symmetry_multiplicity
 _atom_site_fract_x
 _atom_site_fract_y
 _atom_site_fract_z
 _atom_site_occupancy
  Ca  Ca0  1  0.00293700  0.38734100  0.83145300  1
  Ca  Ca1  1  0.99799600  0.88486900  0.67047600  1
  Ca  Ca2  1  0.99602100  0.61130900  0.16898900  1
  Ca  Ca3  1  0.00509800  0.11112600  0.33036100  1
  Be  Be0  1  0.45736400  0.08551300  0.83931100  1
  Be  Be1  1  0.54095700  0.58652300  0.66166100  1
  Be  Be2  1  0.54121500  0.91398300  0.16132300  1
  Be  Be3  1  0.45923400  0.41416100  0.33850500  1
  P  P0  1  0.52843000  0.23095500  0.58254900  1
  P  P1  1  0.47135600  0.72975200  0.91860900  1
  P  P2  1  0.47255400  0.77017200  0.41803600  1
  P  P3  1  0.52627200  0.27028400  0.08187900  1
  O  O0  1  0.32604800  0.15492500  0.69312400  1
  O  O1  1  0.67423700  0.65490200  0.80726800  1
  O  O2  1  0.67575700  0.84545600  0.30703300  1
  O  O3  1  0.32435100  0.34489200  0.19379700  1
  O  O4  1  0.66161700  0.39431000  0.64597300  1
  O  O5  1  0.33396200  0.89218400  0.85480100  1
  O  O6  1  0.33906300  0.60724400  0.35305800  1
  O  O7  1  0.66184600  0.10692000  0.14583200  1
  O  O8  1  0.75714700  0.10348000  0.54251100  1
  O  O9  1  0.24574800  0.60214800  0.96085800  1
  O  O10  1  0.24556100  0.89748100  0.45922400  1
  O  O11  1  0.75324700  0.39742600  0.04086900  1
  O  O12  1  0.34783800  0.21722700  0.95800900  1
  O  O13  1  0.64754500  0.71780300  0.54344900  1
  O  O14  1  0.64831900  0.78288200  0.04320100  1
  O  O15  1  0.35396200  0.28124600  0.45647300  1
  O  O16  1  0.78858300  0.09530600  0.81826600  1
  F  F0  1  0.21532200  0.59077100  0.67284300  1
  F  F1  1  0.21529000  0.90901700  0.17297000  1
  F  F2  1  0.78512500  0.40839100  0.32729000  1
loop_
_geom_bond_atom_site_label_1
_geom_bond_atom_site_label_2
_geom_bond_distance
_geom_bond_site_symmetry_2
Ca0 O11 2.371635 1_456
Ca0 O9 2.410794 1_555
Ca0 F0 2.434749 1_555
Ca0 O4 2.471787 1_455
Ca0 O12 2.472533 1_555
Ca0 O16 2.497436 1_455
Ca0 O1 2.627763 1_455
Ca0 O0 2.737064 1_555
Ca1 O10 2.382672 1_655
Ca1 O16 2.400839 1_565
Ca1 O8 2.417003 1_565
Ca1 O5 2.446020 1_655
Ca1 O13 2.482675 1_555
Ca1 F0 2.513368 1_655
Ca1 O0 2.641089 1_665
Ca1 O1 2.718139 1_555
Ca2 O9 2.360666 1_654
Ca2 O11 2.399040 1_555
Ca2 F2 2.427270 1_555
Ca2 O6 2.466812 1_655
Ca2 O14 2.484010 1_555
Ca2 F1 2.543816 1_655
Ca2 O3 2.620264 1_655
Ca2 O2 2.736842 1_555
Ca3 O8 2.389953 1_455
Ca3 O10 2.393881 1_545
Ca3 F1 2.417473 1_545
Ca3 O7 2.470917 1_455
Ca3 O15 2.485346 1_555
Ca3 F2 2.541152 1_455
Ca3 O2 2.618562 1_445
Ca3 O3 2.724212 1_555
Be0 O16 1.615226 1_555
Be0 O5 1.621724 1_545
Be0 O12 1.633517 1_555
Be0 O0 1.664069 1_555
Be1 F0 1.578439 1_555
Be1 O4 1.608880 1_555
Be1 O13 1.622486 1_555
Be1 O1 1.661331 1_555
Be2 F1 1.580257 1_555
Be2 O7 1.614023 1_565
Be2 O14 1.622853 1_555
Be2 O2 1.664012 1_555
Be3 F2 1.579980 1_555
Be3 O6 1.613310 1_555
Be3 O15 1.626839 1_555
Be3 O3 1.659069 1_555
O0 P0 1.567539 1_555
O1 P1 1.571229 1_555
O2 P2 1.570699 1_555
O3 P3 1.571581 1_555
O4 P0 1.556196 1_555
O5 P1 1.559217 1_555
O6 P2 1.560360 1_555
O7 P3 1.561887 1_555
O8 P0 1.532201 1_555
O9 P1 1.527687 1_555
O10 P2 1.528232 1_555
O11 P3 1.526951 1_555
O12 P3 1.554560 1_556
O13 P2 1.555067 1_555
O14 P1 1.556304 1_554
O15 P0 1.554746 1_555
