# generated using pymatgen
data_Ce3Sn3Ge2
_symmetry_space_group_name_H-M   'P 1'
_cell_length_a   4.64873559
_cell_length_b   4.64873559
_cell_length_c   23.34560900
_cell_angle_alpha   90.00000000
_cell_angle_beta   90.00000000
_cell_angle_gamma   119.99999419
_symmetry_Int_Tables_number   1
_chemical_formula_structural   Ce3Sn3Ge2
_chemical_formula_sum   'Ce6 Sn6 Ge4'
_cell_volume   436.92365228
_cell_formula_units_Z   2
loop_
 _symmetry_equiv_pos_site_id
 _symmetry_equiv_pos_as_xyz
  1  'x, y, z'
loop_
 _atom_site_type_symbol
 _atom_site_label
 _atom_site_symmetry_multiplicity
 _atom_site_fract_x
 _atom_site_fract_y
 _atom_site_fract_z
 _atom_site_occupancy
  Ce  Ce0  1  0.33333300  0.66666700  0.07471500  1
  Ce  Ce1  1  0.66666700  0.33333300  0.92528500  1
  Ce  Ce2  1  0.66666700  0.33333300  0.57471500  1
  Ce  Ce3  1  0.33333300  0.66666700  0.42528500  1
  Ce  Ce4  1  0.33333300  0.66666700  0.25000000  1
  Ce  Ce5  1  0.66666700  0.33333300  0.75000000  1
  Sn  Sn0  1  0.33333300  0.66666700  0.65830800  1
  Sn  Sn1  1  0.66666700  0.33333300  0.34169200  1
  Sn  Sn2  1  0.66666700  0.33333300  0.15830800  1
  Sn  Sn3  1  0.33333300  0.66666700  0.84169200  1
  Sn  Sn4  1  0.00000000  0.00000000  0.00000000  1
  Sn  Sn5  1  0.00000000  0.00000000  0.50000000  1
  Ge  Ge0  1  0.00000000  0.00000000  0.16797300  1
  Ge  Ge1  1  0.00000000  0.00000000  0.83202700  1
  Ge  Ge2  1  0.00000000  0.00000000  0.66797300  1
  Ge  Ge3  1  0.00000000  0.00000000  0.33202700  1
loop_
_geom_bond_atom_site_label_1
_geom_bond_atom_site_label_2
_geom_bond_distance
_geom_bond_site_symmetry_2
Ce0 Sn4 3.200943 1_565
Ce0 Sn4 3.200946 1_665
Ce0 Sn4 3.200946 1_555
Ce0 Sn2 3.318439 1_455
Ce0 Sn2 3.318439 1_565
Ce0 Sn2 3.318445 1_555
Ce0 Ge0 3.455953 1_565
Ce0 Ge0 3.455957 1_665
Ce0 Ge0 3.455957 1_555
Ce1 Sn4 3.200943 1_656
Ce1 Sn4 3.200946 1_556
Ce1 Sn4 3.200946 1_666
Ce1 Sn3 3.318439 1_545
Ce1 Sn3 3.318439 1_655
Ce1 Sn3 3.318445 1_555
Ce1 Ge1 3.455953 1_655
Ce1 Ge1 3.455957 1_665
Ce1 Ge1 3.455957 1_555
Ce2 Sn5 3.200943 1_655
Ce2 Sn5 3.200946 1_665
Ce2 Sn5 3.200946 1_555
Ce2 Sn0 3.318439 1_545
Ce2 Sn0 3.318439 1_655
Ce2 Sn0 3.318445 1_555
Ce2 Ge2 3.455953 1_655
Ce2 Ge2 3.455957 1_555
Ce2 Ge2 3.455957 1_665
Ce3 Sn5 3.200943 1_565
Ce3 Sn5 3.200946 1_665
Ce3 Sn5 3.200946 1_555
Ce3 Sn1 3.318439 1_455
Ce3 Sn1 3.318439 1_565
Ce3 Sn1 3.318445 1_555
Ce3 Ge3 3.455953 1_565
Ce3 Ge3 3.455957 1_555
Ce3 Ge3 3.455957 1_665
Ce4 Ge3 3.297071 1_565
Ce4 Ge0 3.297071 1_565
Ce4 Ge3 3.297074 1_555
Ce4 Ge3 3.297074 1_665
Ce4 Ge0 3.297074 1_665
Ce4 Ge0 3.297074 1_555
Ce4 Sn1 3.433039 1_455
Ce4 Sn2 3.433039 1_455
Ce4 Sn1 3.433039 1_565
Ce4 Sn2 3.433039 1_565
Ce4 Sn1 3.433046 1_555
Ce4 Sn2 3.433046 1_555
Ce5 Ge1 3.297071 1_655
Ce5 Ge2 3.297071 1_655
Ce5 Ge1 3.297074 1_665
Ce5 Ge1 3.297074 1_555
Ce5 Ge2 3.297074 1_665
Ce5 Ge2 3.297074 1_555
Ce5 Sn3 3.433039 1_545
Ce5 Sn0 3.433039 1_545
Ce5 Sn3 3.433039 1_655
Ce5 Sn0 3.433039 1_655
Ce5 Sn0 3.433046 1_555
Ce5 Sn3 3.433046 1_555
Ge0 Sn2 2.693414 1_455
Ge0 Sn2 2.693418 1_555
Ge0 Sn2 2.693418 1_445
Ge1 Sn3 2.693414 1_545
Ge1 Sn3 2.693418 1_555
Ge1 Sn3 2.693418 1_445
Ge2 Sn0 2.693414 1_545
Ge2 Sn0 2.693418 1_445
Ge2 Sn0 2.693418 1_555
Ge3 Sn1 2.693414 1_455
Ge3 Sn1 2.693418 1_555
Ge3 Sn1 2.693418 1_445
