# generated using pymatgen
data_NaFe(SO4)2
_symmetry_space_group_name_H-M   'P 1'
_cell_length_a   8.17625519
_cell_length_b   10.46469375
_cell_length_c   8.64341949
_cell_angle_alpha   107.68285109
_cell_angle_beta   116.85628245
_cell_angle_gamma   90.01284746
_symmetry_Int_Tables_number   1
_chemical_formula_structural   NaFe(SO4)2
_chemical_formula_sum   'Na4 Fe4 S8 O32'
_cell_volume   620.33682606
_cell_formula_units_Z   4
loop_
 _symmetry_equiv_pos_site_id
 _symmetry_equiv_pos_as_xyz
  1  'x, y, z'
loop_
 _atom_site_type_symbol
 _atom_site_label
 _atom_site_symmetry_multiplicity
 _atom_site_fract_x
 _atom_site_fract_y
 _atom_site_fract_z
 _atom_site_occupancy
  Na  Na0  1  0.25000700  0.62497000  0.50001600  1
  Na  Na1  1  0.74999900  0.37498700  0.50001500  1
  Na  Na2  1  0.25000300  0.12502400  0.50007600  1
  Na  Na3  1  0.75004600  0.87500500  0.50009400  1
  Fe  Fe0  1  0.00013600  0.00018900  0.00027500  1
  Fe  Fe1  1  0.50012000  0.75011600  0.00016100  1
  Fe  Fe2  1  0.99988900  0.50010100  0.99986000  1
  Fe  Fe3  1  0.49982100  0.24988300  0.99987500  1
  S  S0  1  0.25318400  0.30596900  0.22188400  1
  S  S1  1  0.75323600  0.05602900  0.22213000  1
  S  S2  1  0.25325300  0.80593800  0.22194100  1
  S  S3  1  0.75319700  0.55590300  0.22193200  1
  S  S4  1  0.24678600  0.44407900  0.77801600  1
  S  S5  1  0.74676900  0.19401800  0.77795400  1
  S  S6  1  0.24674200  0.94404700  0.77810900  1
  S  S7  1  0.74676400  0.69407400  0.77795600  1
  O  O0  1  0.29509500  0.26618500  0.06423300  1
  O  O1  1  0.79538500  0.01658900  0.06465100  1
  O  O2  1  0.29528000  0.76648500  0.06443300  1
  O  O3  1  0.79521700  0.51645100  0.06438600  1
  O  O4  1  0.20470300  0.48358000  0.93554300  1
  O  O5  1  0.70459400  0.23337400  0.93540700  1
  O  O6  1  0.20474600  0.98359400  0.93567200  1
  O  O7  1  0.70462400  0.73342200  0.93540100  1
  O  O8  1  0.41629200  0.35140200  0.40179600  1
  O  O9  1  0.91620000  0.10160600  0.40208700  1
  O  O10  1  0.41629600  0.85131600  0.40178900  1
  O  O11  1  0.91631000  0.60136000  0.40178600  1
  O  O12  1  0.08382200  0.39849300  0.59807900  1
  O  O13  1  0.58381300  0.14840400  0.59795100  1
  O  O14  1  0.08367600  0.89866400  0.59824100  1
  O  O15  1  0.58380000  0.64847200  0.59796900  1
  O  O16  1  0.13625000  0.41753400  0.20194600  1
  O  O17  1  0.63612200  0.16748700  0.20197500  1
  O  O18  1  0.13629100  0.91750600  0.20207700  1
  O  O19  1  0.63623100  0.66748500  0.20198400  1
  O  O20  1  0.13646800  0.18481400  0.20315100  1
  O  O21  1  0.63652800  0.93483000  0.20322600  1
  O  O22  1  0.13638700  0.68473600  0.20292500  1
  O  O23  1  0.63641700  0.43474200  0.20310500  1
  O  O24  1  0.36362900  0.56527400  0.79697700  1
  O  O25  1  0.86348400  0.31520500  0.79683400  1
  O  O26  1  0.36345800  0.06523900  0.79696800  1
  O  O27  1  0.86355000  0.81526800  0.79693700  1
  O  O28  1  0.36383900  0.33253400  0.79804300  1
  O  O29  1  0.86387700  0.08252400  0.79808000  1
  O  O30  1  0.36380000  0.83253600  0.79802700  1
  O  O31  1  0.86384900  0.58255900  0.79802400  1
loop_
_geom_bond_atom_site_label_1
_geom_bond_atom_site_label_2
_geom_bond_distance
_geom_bond_site_symmetry_2
Na0 O11 2.450572 1_455
Na0 O15 2.451778 1_555
Na0 O16 2.579026 1_555
Na0 O30 2.579436 1_555
Na0 O24 2.580980 1_555
Na0 O22 2.582398 1_555
Na1 O8 2.450669 1_555
Na1 O12 2.451832 1_655
Na1 O17 2.579147 1_555
Na1 O31 2.579417 1_555
Na1 O25 2.580459 1_555
Na1 O23 2.580947 1_555
Na2 O9 2.451802 1_455
Na2 O13 2.452044 1_555
Na2 O28 2.578868 1_555
Na2 O18 2.579165 1_545
Na2 O26 2.581070 1_555
Na2 O20 2.581298 1_555
Na3 O14 2.450180 1_655
Na3 O10 2.450862 1_555
Na3 O29 2.579017 1_565
Na3 O19 2.579657 1_555
Na3 O27 2.580377 1_555
Na3 O21 2.581064 1_555
Fe0 O1 1.981266 1_455
Fe0 O6 1.981398 1_544
Fe0 O18 2.047748 1_545
Fe0 O29 2.047900 1_454
Fe0 O20 2.055499 1_555
Fe0 O27 2.059221 1_444
Fe1 O2 1.981401 1_555
Fe1 O7 1.981422 1_554
Fe1 O19 2.047453 1_555
Fe1 O30 2.048197 1_554
Fe1 O21 2.056757 1_555
Fe1 O24 2.058107 1_554
Fe2 O4 1.981444 1_655
Fe2 O3 1.981463 1_556
Fe2 O31 2.046211 1_555
Fe2 O16 2.048992 1_656
Fe2 O22 2.056310 1_656
Fe2 O25 2.057941 1_555
Fe3 O0 1.980967 1_556
Fe3 O5 1.981948 1_555
Fe3 O28 2.047486 1_555
Fe3 O17 2.047785 1_556
Fe3 O26 2.055760 1_555
Fe3 O23 2.058491 1_556
O0 S0 1.491599 1_555
O1 S1 1.491461 1_555
O2 S2 1.491054 1_555
O3 S3 1.491323 1_555
O4 S4 1.491501 1_555
O5 S5 1.491389 1_555
O6 S6 1.491334 1_555
O7 S7 1.491141 1_555
O8 S0 1.449000 1_555
O9 S1 1.448709 1_555
O10 S2 1.448459 1_555
O11 S3 1.448739 1_555
O12 S4 1.448613 1_555
O13 S5 1.448903 1_555
O14 S6 1.448638 1_555
O15 S7 1.448854 1_555
O16 S0 1.510197 1_555
O17 S1 1.510267 1_555
O18 S2 1.510315 1_555
O19 S3 1.510498 1_555
O20 S0 1.509797 1_555
O21 S1 1.509491 1_565
O22 S2 1.509851 1_555
O23 S3 1.509801 1_555
O24 S4 1.509888 1_555
O25 S5 1.509513 1_555
O26 S6 1.509638 1_545
O27 S7 1.509533 1_555
O28 S4 1.510642 1_555
O29 S5 1.510527 1_555
O30 S6 1.510320 1_555
O31 S7 1.510563 1_555
