# generated using pymatgen
data_ErNiO3
_symmetry_space_group_name_H-M   'P 1'
_cell_length_a   5.55904100
_cell_length_b   5.18140200
_cell_length_c   9.05827700
_cell_angle_alpha   55.06460695
_cell_angle_beta   90.00000000
_cell_angle_gamma   90.00000000
_symmetry_Int_Tables_number   1
_chemical_formula_structural   ErNiO3
_chemical_formula_sum   'Er4 Ni4 O12'
_cell_volume   213.89457569
_cell_formula_units_Z   4
loop_
 _symmetry_equiv_pos_site_id
 _symmetry_equiv_pos_as_xyz
  1  'x, y, z'
loop_
 _atom_site_type_symbol
 _atom_site_label
 _atom_site_symmetry_multiplicity
 _atom_site_fract_x
 _atom_site_fract_y
 _atom_site_fract_z
 _atom_site_occupancy
  Er  Er0  1  0.57589900  0.72818000  0.75116600  1
  Er  Er1  1  0.92410100  0.72818000  0.25116600  1
  Er  Er2  1  0.42410100  0.27182000  0.24883400  1
  Er  Er3  1  0.07589900  0.27182000  0.74883400  1
  Ni  Ni0  1  0.50000000  0.50000000  0.50000000  1
  Ni  Ni1  1  0.00000000  0.50000000  0.00000000  1
  Ni  Ni2  1  0.50000000  0.00000000  0.00000000  1
  Ni  Ni3  1  0.00000000  0.00000000  0.50000000  1
  O  O0  1  0.96450500  0.86301200  0.74498700  1
  O  O1  1  0.53549500  0.86301200  0.24498700  1
  O  O2  1  0.03549500  0.13698800  0.25501300  1
  O  O3  1  0.46450500  0.13698800  0.75501300  1
  O  O4  1  0.81130500  0.64601800  0.55168500  1
  O  O5  1  0.68869500  0.64601800  0.05168500  1
  O  O6  1  0.18869500  0.35398200  0.44831500  1
  O  O7  1  0.31130500  0.35398200  0.94831500  1
  O  O8  1  0.70164600  0.24338200  0.44346300  1
  O  O9  1  0.79835400  0.24338200  0.94346300  1
  O  O10  1  0.29835400  0.75661800  0.55653700  1
  O  O11  1  0.20164600  0.75661800  0.05653700  1
loop_
_geom_bond_atom_site_label_1
_geom_bond_atom_site_label_2
_geom_bond_distance
_geom_bond_site_symmetry_2
Er0 O3 2.226203 1_565
Er0 O0 2.261241 1_555
Er0 O7 2.268548 1_555
Er0 O10 2.283169 1_555
Er0 O9 2.421148 1_555
Er0 O4 2.457611 1_555
Er0 O5 2.580200 1_556
Er0 O8 2.619519 1_565
Er1 O2 2.226203 1_665
Er1 O1 2.261241 1_555
Er1 O6 2.268548 1_655
Er1 O11 2.283169 1_655
Er1 O8 2.421148 1_555
Er1 O5 2.457611 1_555
Er1 O4 2.580200 1_555
Er1 O9 2.619519 1_564
Er2 O1 2.226203 1_545
Er2 O2 2.261241 1_555
Er2 O5 2.268548 1_555
Er2 O8 2.283169 1_555
Er2 O11 2.421148 1_555
Er2 O6 2.457611 1_555
Er2 O7 2.580200 1_554
Er2 O10 2.619519 1_545
Er3 O0 2.226203 1_445
Er3 O3 2.261241 1_555
Er3 O4 2.268548 1_455
Er3 O9 2.283169 1_455
Er3 O10 2.421148 1_555
Er3 O7 2.457611 1_555
Er3 O6 2.580200 1_555
Er3 O11 2.619519 1_546
Ni0 O3 1.984079 1_555
Ni0 O1 1.984079 1_555
Ni0 O8 2.016596 1_555
Ni0 O10 2.016596 1_555
Ni0 O4 2.047464 1_555
Ni0 O6 2.047464 1_555
Ni1 O2 1.984079 1_555
Ni1 O0 1.984079 1_454
Ni1 O11 2.016596 1_555
Ni1 O9 2.016596 1_454
Ni1 O5 2.047464 1_455
Ni1 O7 2.047464 1_554
Ni2 O1 1.914000 1_545
Ni2 O3 1.914000 1_554
Ni2 O7 1.923553 1_554
Ni2 O5 1.923553 1_545
Ni2 O9 1.965632 1_554
Ni2 O11 1.965632 1_545
Ni3 O0 1.914000 1_445
Ni3 O2 1.914000 1_555
Ni3 O6 1.923553 1_555
Ni3 O4 1.923553 1_445
Ni3 O10 1.965632 1_545
Ni3 O8 1.965632 1_455
