# generated using pymatgen
data_SrTl2(PO3)4
_symmetry_space_group_name_H-M   'P 1'
_cell_length_a   7.39500062
_cell_length_b   7.39500062
_cell_length_c   7.39500062
_cell_angle_alpha   118.48661247
_cell_angle_beta   118.48661247
_cell_angle_gamma   92.64188119
_symmetry_Int_Tables_number   1
_chemical_formula_structural   SrTl2(PO3)4
_chemical_formula_sum   'Sr1 Tl2 P4 O12'
_cell_volume   292.16150612
_cell_formula_units_Z   1
loop_
 _symmetry_equiv_pos_site_id
 _symmetry_equiv_pos_as_xyz
  1  'x, y, z'
loop_
 _atom_site_type_symbol
 _atom_site_label
 _atom_site_symmetry_multiplicity
 _atom_site_fract_x
 _atom_site_fract_y
 _atom_site_fract_z
 _atom_site_occupancy
  Sr  Sr0  1  -0.00000000  0.00000000  -0.00000000  1
  Tl  Tl0  1  0.41804195  0.91804195  0.50000000  1
  Tl  Tl1  1  0.08195805  0.58195805  0.50000000  1
  P  P0  1  0.56306303  0.00192559  0.12880707  1
  P  P1  1  0.87311952  0.43425696  0.87119293  1
  P  P2  1  0.56574304  0.43693697  0.43886255  1
  P  P3  1  -0.00192559  0.12688048  0.56113745  1
  O  O0  1  0.62412215  0.26302938  0.25682775  1
  O  O1  1  0.00620163  0.36729540  0.74317225  1
  O  O2  1  0.63270460  0.37587785  0.63890623  1
  O  O3  1  0.73697062  0.99379837  0.36109377  1
  O  O4  1  0.61258091  0.91510383  0.93787129  1
  O  O5  1  0.97723254  0.67471062  0.06212871  1
  O  O6  1  0.32528938  0.38741909  0.30252293  1
  O  O7  1  0.08489617  0.02276746  0.69747707  1
  O  O8  1  0.34309226  0.90283134  0.06305528  1
  O  O9  1  0.83977606  0.28003698  0.93694472  1
  O  O10  1  0.71996302  0.65690774  0.55973908  1
  O  O11  1  0.09716866  0.16022394  0.44026092  1
loop_
_geom_bond_atom_site_label_1
_geom_bond_atom_site_label_2
_geom_bond_distance
_geom_bond_site_symmetry_2
O0 P0 1.611373 1_555
O0 P2 1.614478 1_555
O1 P1 1.611366 1_455
O1 P3 1.614483 1_555
O2 P2 1.611366 1_555
O2 P1 1.614482 1_555
O3 P3 1.611371 1_665
O3 P0 1.614478 1_565
O4 P0 1.479897 1_566
O4 Sr0 2.667711 1_666
O5 P1 1.479896 1_554
O5 Sr0 2.667703 1_665
O6 P2 1.479897 1_555
O6 Sr0 2.667707 1_555
O7 P3 1.479890 1_555
O7 Sr0 2.667711 1_556
O8 P0 1.488372 1_565
O8 Sr0 2.555412 1_565
O9 P1 1.488381 1_555
O9 Sr0 2.555412 1_656
O10 P2 1.488375 1_555
O10 Sr0 2.555412 1_666
O11 P3 1.488375 1_555
O11 Sr0 2.555412 1_555
