# generated using pymatgen
data_TaNbTe4
_symmetry_space_group_name_H-M   'P 1'
_cell_length_a   7.35455193
_cell_length_b   9.91943388
_cell_length_c   7.79135802
_cell_angle_alpha   69.65768170
_cell_angle_beta   76.52001498
_cell_angle_gamma   100.70486490
_symmetry_Int_Tables_number   1
_chemical_formula_structural   TaNbTe4
_chemical_formula_sum   'Ta3 Nb3 Te12'
_cell_volume   495.59028956
_cell_formula_units_Z   3
loop_
 _symmetry_equiv_pos_site_id
 _symmetry_equiv_pos_as_xyz
  1  'x, y, z'
loop_
 _atom_site_type_symbol
 _atom_site_label
 _atom_site_symmetry_multiplicity
 _atom_site_fract_x
 _atom_site_fract_y
 _atom_site_fract_z
 _atom_site_occupancy
  Ta  Ta0  1  0.32614600  0.28876800  0.98611100  1
  Ta  Ta1  1  0.99963100  0.99948300  0.00015000  1
  Ta  Ta2  1  0.50000400  0.99967600  0.00012700  1
  Nb  Nb0  1  0.17403800  0.71208600  0.01365500  1
  Nb  Nb1  1  0.67417100  0.71201200  0.01364000  1
  Nb  Nb2  1  0.82575400  0.28741200  0.98632900  1
  Te  Te0  1  0.81603800  0.98811800  0.72105800  1
  Te  Te1  1  0.31603900  0.98766200  0.72096000  1
  Te  Te2  1  0.18440000  0.01367200  0.27881000  1
  Te  Te3  1  0.68391900  0.01160500  0.27932800  1
  Te  Te4  1  0.64853200  0.30683400  0.70526900  1
  Te  Te5  1  0.15009500  0.30657600  0.70535100  1
  Te  Te6  1  0.35057200  0.69391400  0.29506400  1
  Te  Te7  1  0.85088400  0.69378000  0.29524900  1
  Te  Te8  1  0.45525500  0.61672200  0.79542500  1
  Te  Te9  1  0.95525300  0.61685600  0.79592500  1
  Te  Te10  1  0.54429000  0.38238000  0.20391700  1
  Te  Te11  1  0.04497800  0.38244400  0.20363300  1
loop_
_geom_bond_atom_site_label_1
_geom_bond_atom_site_label_2
_geom_bond_distance
_geom_bond_site_symmetry_2
Ta0 Te2 2.691107 1_556
Ta0 Te4 2.755452 1_555
Ta0 Te5 2.762171 1_555
Ta0 Te10 2.850871 1_556
Ta0 Te11 2.861236 1_556
Ta0 Te8 2.919961 1_555
Ta1 Te0 2.836738 1_554
Ta1 Te3 2.840438 1_565
Ta1 Te1 2.842434 1_654
Ta1 Te2 2.845547 1_665
Ta1 Te7 2.902784 1_555
Ta1 Te5 2.911649 1_664
Ta2 Te0 2.838899 1_554
Ta2 Te3 2.840250 1_565
Ta2 Te1 2.840437 1_554
Ta2 Te2 2.846255 1_565
Ta2 Te6 2.902759 1_555
Ta2 Te4 2.912265 1_564
Nb0 Te1 2.694183 1_554
Nb0 Te7 2.761661 1_455
Nb0 Te6 2.768532 1_555
Nb0 Te9 2.860294 1_454
Nb0 Te8 2.875593 1_554
Nb0 Te11 2.934419 1_555
Nb1 Te0 2.697239 1_554
Nb1 Te6 2.763842 1_555
Nb1 Te7 2.770704 1_555
Nb1 Te8 2.864338 1_554
Nb1 Te9 2.871419 1_554
Nb1 Te10 2.934429 1_555
Nb2 Te3 2.696622 1_556
Nb2 Te5 2.761593 1_655
Nb2 Te4 2.768026 1_555
Nb2 Te11 2.858730 1_656
Nb2 Te10 2.871452 1_556
Nb2 Te9 2.932832 1_555
