# generated using pymatgen
data_Zr3AlAu2
_symmetry_space_group_name_H-M   'P 1'
_cell_length_a   8.79915617
_cell_length_b   8.79915617
_cell_length_c   8.79915617
_cell_angle_alpha   60.00000000
_cell_angle_beta   60.00000000
_cell_angle_gamma   60.00000000
_symmetry_Int_Tables_number   1
_chemical_formula_structural   Zr3AlAu2
_chemical_formula_sum   'Zr12 Al4 Au8'
_cell_volume   481.73486627
_cell_formula_units_Z   4
loop_
 _symmetry_equiv_pos_site_id
 _symmetry_equiv_pos_as_xyz
  1  'x, y, z'
loop_
 _atom_site_type_symbol
 _atom_site_label
 _atom_site_symmetry_multiplicity
 _atom_site_fract_x
 _atom_site_fract_y
 _atom_site_fract_z
 _atom_site_occupancy
  Zr  Zr0  1  0.80298600  0.80298600  0.19701400  1
  Zr  Zr1  1  0.19701400  0.19701400  0.80298600  1
  Zr  Zr2  1  0.80298600  0.19701400  0.80298600  1
  Zr  Zr3  1  0.19701400  0.80298600  0.19701400  1
  Zr  Zr4  1  0.19701400  0.80298600  0.80298600  1
  Zr  Zr5  1  0.80298600  0.19701400  0.19701400  1
  Zr  Zr6  1  0.44701400  0.44701400  0.05298600  1
  Zr  Zr7  1  0.05298600  0.05298600  0.44701400  1
  Zr  Zr8  1  0.44701400  0.05298600  0.44701400  1
  Zr  Zr9  1  0.05298600  0.44701400  0.05298600  1
  Zr  Zr10  1  0.05298600  0.44701400  0.44701400  1
  Zr  Zr11  1  0.44701400  0.05298600  0.05298600  1
  Al  Al0  1  0.12500000  0.62500000  0.62500000  1
  Al  Al1  1  0.62500000  0.12500000  0.62500000  1
  Al  Al2  1  0.62500000  0.62500000  0.12500000  1
  Al  Al3  1  0.62500000  0.62500000  0.62500000  1
  Au  Au0  1  0.76142300  0.41285900  0.41285900  1
  Au  Au1  1  0.41285900  0.76142300  0.41285900  1
  Au  Au2  1  0.41285900  0.41285900  0.76142300  1
  Au  Au3  1  0.41285900  0.41285900  0.41285900  1
  Au  Au4  1  0.48857700  0.83714100  0.83714100  1
  Au  Au5  1  0.83714100  0.48857700  0.83714100  1
  Au  Au6  1  0.83714100  0.83714100  0.48857700  1
  Au  Au7  1  0.83714100  0.83714100  0.83714100  1
loop_
_geom_bond_atom_site_label_1
_geom_bond_atom_site_label_2
_geom_bond_distance
_geom_bond_site_symmetry_2
Al0 Au7 2.722636 1_455
Al0 Au3 2.722636 1_555
Al0 Au1 2.722636 1_555
Al0 Au2 2.722636 1_555
Al0 Au5 2.722636 1_455
Al0 Au6 2.722636 1_455
Al1 Au7 2.722636 1_545
Al1 Au0 2.722636 1_555
Al1 Au2 2.722636 1_555
Al1 Au3 2.722636 1_555
Al1 Au4 2.722636 1_545
Al1 Au6 2.722636 1_545
Al2 Au7 2.722636 1_554
Al2 Au0 2.722636 1_555
Al2 Au1 2.722636 1_555
Al2 Au3 2.722636 1_555
Al2 Au4 2.722636 1_554
Al2 Au5 2.722636 1_554
Al3 Au6 2.722636 1_555
Al3 Au4 2.722636 1_555
Al3 Au5 2.722636 1_555
Al3 Au0 2.722636 1_555
Al3 Au1 2.722636 1_555
Al3 Au2 2.722636 1_555
Au0 Zr10 2.897386 1_655
Au0 Zr7 2.897386 1_655
Au0 Zr9 2.897386 1_655
Au0 Zr5 3.092905 1_555
Au0 Zr2 3.092905 1_555
Au0 Zr0 3.092905 1_555
Au1 Zr8 2.897386 1_565
Au1 Zr7 2.897386 1_565
Au1 Zr11 2.897386 1_565
Au1 Zr3 3.092905 1_555
Au1 Zr0 3.092905 1_555
Au1 Zr4 3.092905 1_555
Au2 Zr6 2.897386 1_556
Au2 Zr9 2.897386 1_556
Au2 Zr11 2.897386 1_556
Au2 Zr1 3.092905 1_555
Au2 Zr2 3.092905 1_555
Au2 Zr4 3.092905 1_555
Au3 Zr8 2.897386 1_555
Au3 Zr6 2.897386 1_555
Au3 Zr10 2.897386 1_555
Au3 Zr3 3.092905 1_555
Au3 Zr1 3.092905 1_555
Au3 Zr5 3.092905 1_555
Au4 Zr4 2.897386 1_555
Au4 Zr1 2.897386 1_565
Au4 Zr3 2.897386 1_556
Au4 Zr8 3.092905 1_565
Au4 Zr6 3.092905 1_556
Au4 Zr11 3.092905 1_566
Au5 Zr2 2.897386 1_555
Au5 Zr1 2.897386 1_655
Au5 Zr5 2.897386 1_556
Au5 Zr10 3.092905 1_655
Au5 Zr6 3.092905 1_556
Au5 Zr9 3.092905 1_656
Au6 Zr0 2.897386 1_555
Au6 Zr5 2.897386 1_565
Au6 Zr3 2.897386 1_655
Au6 Zr8 3.092905 1_565
Au6 Zr10 3.092905 1_655
Au6 Zr7 3.092905 1_665
Au7 Zr2 2.897386 1_565
Au7 Zr0 2.897386 1_556
Au7 Zr4 2.897386 1_655
Au7 Zr11 3.092905 1_566
Au7 Zr7 3.092905 1_665
Au7 Zr9 3.092905 1_656
