# generated using pymatgen
data_Sr7Ge6
_symmetry_space_group_name_H-M   'P 1'
_cell_length_a   7.83861436
_cell_length_b   8.61246681
_cell_length_c   23.75179664
_cell_angle_alpha   90.00000000
_cell_angle_beta   90.00000000
_cell_angle_gamma   90.00000000
_symmetry_Int_Tables_number   1
_chemical_formula_structural   Sr7Ge6
_chemical_formula_sum   'Sr28 Ge24'
_cell_volume   1603.47918360
_cell_formula_units_Z   4
loop_
 _symmetry_equiv_pos_site_id
 _symmetry_equiv_pos_as_xyz
  1  'x, y, z'
loop_
 _atom_site_type_symbol
 _atom_site_label
 _atom_site_symmetry_multiplicity
 _atom_site_fract_x
 _atom_site_fract_y
 _atom_site_fract_z
 _atom_site_occupancy
  Sr  Sr0  1  0.47121702  0.68027007  0.33769918  1
  Sr  Sr1  1  0.97121702  0.81972993  0.16230082  1
  Sr  Sr2  1  0.52878298  0.31972993  0.83769918  1
  Sr  Sr3  1  0.02878298  0.18027007  0.66230082  1
  Sr  Sr4  1  0.52878298  0.31972993  0.66230082  1
  Sr  Sr5  1  0.02878298  0.18027007  0.83769918  1
  Sr  Sr6  1  0.47121702  0.68027007  0.16230082  1
  Sr  Sr7  1  0.97121702  0.81972993  0.33769918  1
  Sr  Sr8  1  0.36504925  0.81731374  0.85995859  1
  Sr  Sr9  1  0.86504925  0.68268626  0.64004141  1
  Sr  Sr10  1  0.63495075  0.18268626  0.35995859  1
  Sr  Sr11  1  0.13495075  0.31731374  0.14004141  1
  Sr  Sr12  1  0.63495075  0.18268626  0.14004141  1
  Sr  Sr13  1  0.13495075  0.31731374  0.35995859  1
  Sr  Sr14  1  0.36504925  0.81731374  0.64004141  1
  Sr  Sr15  1  0.86504925  0.68268626  0.85995859  1
  Sr  Sr16  1  0.16175164  0.67804869  0.48172610  1
  Sr  Sr17  1  0.66175164  0.82195131  0.01827390  1
  Sr  Sr18  1  0.83824836  0.32195131  0.98172610  1
  Sr  Sr19  1  0.33824836  0.17804869  0.51827390  1
  Sr  Sr20  1  0.83824836  0.32195131  0.51827390  1
  Sr  Sr21  1  0.33824836  0.17804869  0.98172610  1
  Sr  Sr22  1  0.16175164  0.67804869  0.01827390  1
  Sr  Sr23  1  0.66175164  0.82195131  0.48172610  1
  Sr  Sr24  1  0.19881833  0.52812735  0.75000000  1
  Sr  Sr25  1  0.69881833  0.97187265  0.75000000  1
  Sr  Sr26  1  0.80118167  0.47187265  0.25000000  1
  Sr  Sr27  1  0.30118167  0.02812735  0.25000000  1
  Ge  Ge0  1  0.49641451  0.53762080  0.94761770  1
  Ge  Ge1  1  0.99641451  0.96237920  0.55238230  1
  Ge  Ge2  1  0.50358549  0.46237920  0.44761770  1
  Ge  Ge3  1  0.00358549  0.03762080  0.05238230  1
  Ge  Ge4  1  0.50358549  0.46237920  0.05238230  1
  Ge  Ge5  1  0.00358549  0.03762080  0.44761770  1
  Ge  Ge6  1  0.49641451  0.53762080  0.55238230  1
  Ge  Ge7  1  0.99641451  0.96237920  0.94761770  1
  Ge  Ge8  1  0.30157079  0.97207128  0.40324389  1
  Ge  Ge9  1  0.80157079  0.52792872  0.09675611  1
  Ge  Ge10  1  0.69842921  0.02792872  0.90324389  1
  Ge  Ge11  1  0.19842921  0.47207128  0.59675611  1
  Ge  Ge12  1  0.69842921  0.02792872  0.59675611  1
  Ge  Ge13  1  0.19842921  0.47207128  0.90324389  1
  Ge  Ge14  1  0.30157079  0.97207128  0.09675611  1
  Ge  Ge15  1  0.80157079  0.52792872  0.40324389  1
  Ge  Ge16  1  0.32342552  0.09163481  0.75000000  1
  Ge  Ge17  1  0.82342552  0.40836519  0.75000000  1
  Ge  Ge18  1  0.67657448  0.90836519  0.25000000  1
  Ge  Ge19  1  0.17657448  0.59163481  0.25000000  1
  Ge  Ge20  1  0.09358490  0.88221619  0.75000000  1
  Ge  Ge21  1  0.59358490  0.61778381  0.75000000  1
  Ge  Ge22  1  0.90641510  0.11778381  0.25000000  1
  Ge  Ge23  1  0.40641510  0.38221619  0.25000000  1
loop_
_geom_bond_atom_site_label_1
_geom_bond_atom_site_label_2
_geom_bond_distance
_geom_bond_site_symmetry_2
Ge0 Ge4 2.571956 1_556
Ge0 Ge13 2.624016 1_555
Ge0 Sr2 3.225213 1_555
Ge0 Sr17 3.239229 1_556
Ge0 Sr22 3.340776 1_556
Ge0 Sr8 3.346318 1_555
Ge0 Sr18 3.359489 1_555
Ge0 Sr21 3.432728 1_555
Ge0 Sr15 3.774336 1_555
Ge1 Ge5 2.571956 1_665
Ge1 Ge12 2.624016 1_565
Ge1 Sr3 3.225213 1_665
Ge1 Sr16 3.239229 1_655
Ge1 Sr23 3.340776 1_555
Ge1 Sr9 3.346318 1_555
Ge1 Sr19 3.359489 1_665
Ge1 Sr20 3.432728 1_565
Ge1 Sr14 3.774336 1_655
Ge2 Ge6 2.571956 1_555
Ge2 Sr0 3.225213 1_555
Ge2 Sr19 3.239229 1_555
Ge2 Sr20 3.340776 1_555
Ge2 Sr10 3.346318 1_555
Ge2 Sr16 3.359489 1_555
Ge2 Sr23 3.432728 1_555
Ge2 Sr13 3.774336 1_555
Ge3 Ge7 2.571956 1_444
Ge3 Sr1 3.225213 1_445
Ge3 Sr18 3.239229 1_454
Ge3 Sr21 3.340776 1_554
Ge3 Sr11 3.346318 1_555
Ge3 Sr17 3.359489 1_445
Ge3 Sr22 3.432728 1_545
Ge3 Sr12 3.774336 1_455
Ge4 Ge9 2.624016 1_555
Ge4 Sr6 3.225213 1_555
Ge4 Sr21 3.239229 1_554
Ge4 Sr18 3.340776 1_554
Ge4 Sr12 3.346318 1_555
Ge4 Sr22 3.359489 1_555
Ge4 Sr17 3.432728 1_555
Ge4 Sr11 3.774336 1_555
Ge5 Ge8 2.624016 1_545
Ge5 Sr7 3.225213 1_445
Ge5 Sr20 3.239229 1_455
Ge5 Sr19 3.340776 1_555
Ge5 Sr13 3.346318 1_555
Ge5 Sr23 3.359489 1_445
Ge5 Sr16 3.432728 1_545
Ge5 Sr10 3.774336 1_455
Ge6 Sr4 3.225213 1_555
Ge6 Sr23 3.239229 1_555
Ge6 Sr16 3.340776 1_555
Ge6 Sr14 3.346318 1_555
Ge6 Sr20 3.359489 1_555
Ge6 Sr19 3.432728 1_555
Ge6 Sr9 3.774336 1_555
Ge7 Sr5 3.225213 1_665
Ge7 Sr22 3.239229 1_656
Ge7 Sr17 3.340776 1_556
Ge7 Sr15 3.346318 1_555
Ge7 Sr21 3.359489 1_665
Ge7 Sr18 3.432728 1_565
Ge7 Sr8 3.774336 1_655
Ge8 Sr0 3.241574 1_555
Ge8 Sr19 3.270228 1_565
Ge8 Sr7 3.294035 1_455
Ge8 Sr16 3.329921 1_555
Ge8 Sr10 3.343096 1_565
Ge8 Sr13 3.406444 1_565
Ge8 Sr23 3.621819 1_555
Ge8 Sr27 3.671697 1_565
Ge9 Sr1 3.241574 1_555
Ge9 Sr18 3.270228 1_554
Ge9 Sr6 3.294035 1_555
Ge9 Sr17 3.329921 1_555
Ge9 Sr11 3.343096 1_655
Ge9 Sr12 3.406444 1_555
Ge9 Sr22 3.621819 1_655
Ge9 Sr26 3.671697 1_555
Ge10 Ge7 2.624016 1_545
Ge10 Sr2 3.241574 1_555
Ge10 Sr17 3.270228 1_546
Ge10 Sr5 3.294035 1_655
Ge10 Sr18 3.329921 1_555
Ge10 Sr8 3.343096 1_545
Ge10 Sr15 3.406444 1_545
Ge10 Sr21 3.621819 1_555
Ge10 Sr25 3.671697 1_545
Ge11 Ge6 2.624016 1_555
Ge11 Sr3 3.241574 1_555
Ge11 Sr16 3.270228 1_555
Ge11 Sr4 3.294035 1_555
Ge11 Sr19 3.329921 1_555
Ge11 Sr9 3.343096 1_455
Ge11 Sr14 3.406444 1_555
Ge11 Sr20 3.621819 1_455
Ge11 Sr24 3.671697 1_555
Ge12 Sr4 3.241574 1_555
Ge12 Sr23 3.270228 1_545
Ge12 Sr3 3.294035 1_655
Ge12 Sr20 3.329921 1_555
Ge12 Sr14 3.343096 1_545
Ge12 Sr9 3.406444 1_545
Ge12 Sr19 3.621819 1_555
Ge12 Sr25 3.671697 1_545
Ge13 Sr5 3.241574 1_555
Ge13 Sr22 3.270228 1_556
Ge13 Sr2 3.294035 1_555
Ge13 Sr21 3.329921 1_555
Ge13 Sr15 3.343096 1_455
Ge13 Sr8 3.406444 1_555
Ge13 Sr18 3.621819 1_455
Ge13 Sr24 3.671697 1_555
Ge14 Ge3 2.624016 1_565
Ge14 Sr6 3.241574 1_555
Ge14 Sr21 3.270228 1_564
Ge14 Sr1 3.294035 1_455
Ge14 Sr22 3.329921 1_555
Ge14 Sr12 3.343096 1_565
Ge14 Sr11 3.406444 1_565
Ge14 Sr17 3.621819 1_555
Ge14 Sr27 3.671697 1_565
Ge15 Ge2 2.624016 1_555
Ge15 Sr7 3.241574 1_555
Ge15 Sr20 3.270228 1_555
Ge15 Sr0 3.294035 1_555
Ge15 Sr23 3.329921 1_555
Ge15 Sr13 3.343096 1_655
Ge15 Sr10 3.406444 1_555
Ge15 Sr16 3.621819 1_655
Ge15 Sr26 3.671697 1_555
Ge16 Ge20 2.549292 1_545
Ge16 Sr25 3.118099 1_545
Ge16 Sr3 3.202480 1_555
Ge16 Sr5 3.202480 1_555
Ge16 Sr2 3.284699 1_555
Ge16 Sr4 3.284699 1_555
Ge16 Sr14 3.536848 1_545
Ge16 Sr8 3.536848 1_545
Ge17 Ge21 2.549292 1_555
Ge17 Sr24 3.118099 1_655
Ge17 Sr4 3.202480 1_555
Ge17 Sr2 3.202480 1_555
Ge17 Sr3 3.284699 1_655
Ge17 Sr5 3.284699 1_655
Ge17 Sr15 3.536848 1_555
Ge17 Sr9 3.536848 1_555
Ge18 Ge22 2.549292 1_565
Ge18 Sr27 3.118099 1_565
Ge18 Sr1 3.202480 1_555
Ge18 Sr7 3.202480 1_555
Ge18 Sr6 3.284699 1_555
Ge18 Sr0 3.284699 1_555
Ge18 Sr12 3.536848 1_565
Ge18 Sr10 3.536848 1_565
Ge19 Ge23 2.549292 1_555
Ge19 Sr26 3.118099 1_455
Ge19 Sr0 3.202480 1_555
Ge19 Sr6 3.202480 1_555
Ge19 Sr7 3.284699 1_455
Ge19 Sr1 3.284699 1_455
Ge19 Sr11 3.536848 1_555
Ge19 Sr13 3.536848 1_555
Ge20 Sr24 3.159171 1_555
Ge20 Sr25 3.189309 1_455
Ge20 Sr3 3.344600 1_565
Ge20 Sr5 3.344600 1_565
Ge20 Sr14 3.414890 1_555
Ge20 Sr8 3.414890 1_555
Ge20 Sr15 3.603225 1_455
Ge20 Sr9 3.603225 1_455
Ge21 Sr25 3.159171 1_555
Ge21 Sr24 3.189309 1_555
Ge21 Sr2 3.344600 1_555
Ge21 Sr4 3.344600 1_555
Ge21 Sr9 3.414890 1_555
Ge21 Sr15 3.414890 1_555
Ge21 Sr14 3.603225 1_555
Ge21 Sr8 3.603225 1_555
Ge22 Sr26 3.159171 1_555
Ge22 Sr27 3.189309 1_655
Ge22 Sr7 3.344600 1_545
Ge22 Sr1 3.344600 1_545
Ge22 Sr12 3.414890 1_555
Ge22 Sr10 3.414890 1_555
Ge22 Sr11 3.603225 1_655
Ge22 Sr13 3.603225 1_655
Ge23 Sr27 3.159171 1_555
Ge23 Sr26 3.189309 1_555
Ge23 Sr0 3.344600 1_555
Ge23 Sr6 3.344600 1_555
Ge23 Sr11 3.414890 1_555
Ge23 Sr13 3.414890 1_555
Ge23 Sr12 3.603225 1_555
Ge23 Sr10 3.603225 1_555
