# generated using pymatgen
data_Mg16Al12O
_symmetry_space_group_name_H-M   'P 1'
_cell_length_a   9.17802465
_cell_length_b   9.17802465
_cell_length_c   9.17802465
_cell_angle_alpha   109.47122063
_cell_angle_beta   109.47122063
_cell_angle_gamma   109.47122063
_symmetry_Int_Tables_number   1
_chemical_formula_structural   Mg16Al12O
_chemical_formula_sum   'Mg16 Al12 O1'
_cell_volume   595.14908193
_cell_formula_units_Z   1
loop_
 _symmetry_equiv_pos_site_id
 _symmetry_equiv_pos_as_xyz
  1  'x, y, z'
loop_
 _atom_site_type_symbol
 _atom_site_label
 _atom_site_symmetry_multiplicity
 _atom_site_fract_x
 _atom_site_fract_y
 _atom_site_fract_z
 _atom_site_occupancy
  Mg  Mg0  1  0.78330200  0.00000000  0.00000000  1
  Mg  Mg1  1  0.21669800  0.21669800  0.21669800  1
  Mg  Mg2  1  0.72335400  0.30052700  0.30052700  1
  Mg  Mg3  1  0.27664600  0.57717400  0.57717400  1
  Mg  Mg4  1  0.00000000  0.00000000  0.78330200  1
  Mg  Mg5  1  0.00000000  0.69947300  0.42282600  1
  Mg  Mg6  1  0.57717400  0.57717400  0.27664600  1
  Mg  Mg7  1  0.42282600  0.00000000  0.69947300  1
  Mg  Mg8  1  0.69947300  0.42282600  0.00000000  1
  Mg  Mg9  1  0.30052700  0.72335400  0.30052700  1
  Mg  Mg10  1  0.30052700  0.30052700  0.72335400  1
  Mg  Mg11  1  0.69947300  0.00000000  0.42282600  1
  Mg  Mg12  1  0.42282600  0.69947300  0.00000000  1
  Mg  Mg13  1  0.57717400  0.27664600  0.57717400  1
  Mg  Mg14  1  0.00000000  0.42282600  0.69947300  1
  Mg  Mg15  1  0.00000000  0.78330200  0.00000000  1
  Al  Al0  1  0.19686200  0.80834600  0.80834600  1
  Al  Al1  1  0.80313800  0.61148400  0.61148400  1
  Al  Al2  1  0.61148400  0.80313800  0.61148400  1
  Al  Al3  1  0.38851600  0.19165400  0.00000000  1
  Al  Al4  1  0.00000000  0.38851600  0.19165400  1
  Al  Al5  1  0.80834600  0.19686200  0.80834600  1
  Al  Al6  1  0.19165400  0.38851600  0.00000000  1
  Al  Al7  1  0.19165400  0.00000000  0.38851600  1
  Al  Al8  1  0.80834600  0.80834600  0.19686200  1
  Al  Al9  1  0.00000000  0.19165400  0.38851600  1
  Al  Al10  1  0.38851600  0.00000000  0.19165400  1
  Al  Al11  1  0.61148400  0.61148400  0.80313800  1
  O  O0  1  0.00000000  0.00000000  0.00000000  1
loop_
_geom_bond_atom_site_label_1
_geom_bond_atom_site_label_2
_geom_bond_distance
_geom_bond_site_symmetry_2
Mg0 O0 1.988860 1_655
Mg1 O0 1.988860 1_555
Mg4 O0 1.988860 1_556
Mg15 O0 1.988860 1_565
Al0 Al3 2.872443 1_566
Al0 Al10 2.872443 1_566
Al0 Mg7 2.918043 1_565
Al0 Mg12 2.918043 1_556
Al0 Mg15 2.919407 1_556
Al0 Mg4 2.919407 1_565
Al0 Mg3 2.934260 1_555
Al0 Al1 2.950499 1_455
Al0 Mg14 2.993317 1_555
Al0 Mg5 2.993317 1_555
Al1 Al11 2.872443 1_555
Al1 Al2 2.872443 1_555
Al1 Mg6 2.918050 1_555
Al1 Mg13 2.918050 1_555
Al1 Mg4 2.919407 1_665
Al1 Mg15 2.919407 1_656
Al1 Mg2 2.934270 1_555
Al1 Mg14 2.993317 1_655
Al1 Mg5 2.993317 1_655
Al2 Mg6 2.918050 1_555
Al2 Mg3 2.918050 1_555
Al2 Mg4 2.919407 1_665
Al2 Mg0 2.919407 1_566
Al2 Mg9 2.934270 1_555
Al2 Al5 2.950499 1_565
Al2 Mg7 2.993317 1_565
Al2 Mg11 2.993317 1_565
Al3 Mg7 2.918043 1_554
Al3 Mg2 2.918049 1_555
Al3 Mg1 2.919407 1_555
Al3 Mg4 2.919407 1_554
Al3 Mg8 2.934267 1_555
Al3 Al6 2.950499 1_555
Al3 Mg10 2.993309 1_554
Al3 Mg6 2.993315 1_555
Al4 Al6 2.872443 1_555
Al4 Al5 2.872443 1_454
Al4 Mg8 2.918043 1_455
Al4 Mg9 2.918049 1_555
Al4 Mg1 2.919407 1_555
Al4 Mg0 2.919407 1_455
Al4 Mg5 2.934267 1_555
Al4 Al9 2.950499 1_555
Al4 Mg2 2.993309 1_455
Al4 Mg3 2.993315 1_555
Al5 Al6 2.872443 1_656
Al5 Mg8 2.918043 1_556
Al5 Mg14 2.918043 1_655
Al5 Mg0 2.919407 1_556
Al5 Mg4 2.919407 1_655
Al5 Mg13 2.934260 1_555
Al5 Mg7 2.993317 1_555
Al5 Mg11 2.993317 1_555
Al6 Mg14 2.918043 1_554
Al6 Mg9 2.918049 1_555
Al6 Mg1 2.919407 1_555
Al6 Mg4 2.919407 1_554
Al6 Mg12 2.934267 1_555
Al6 Mg10 2.993309 1_554
Al6 Mg6 2.993315 1_555
Al7 Al8 2.872443 1_445
Al7 Al9 2.872443 1_555
Al7 Mg5 2.918043 1_545
Al7 Mg10 2.918049 1_555
Al7 Mg1 2.919407 1_555
Al7 Mg15 2.919407 1_545
Al7 Mg7 2.934267 1_555
Al7 Mg9 2.993309 1_545
Al7 Mg13 2.993315 1_555
Al8 Al9 2.872443 1_665
Al8 Mg11 2.918043 1_565
Al8 Mg5 2.918043 1_655
Al8 Mg15 2.919407 1_655
Al8 Mg0 2.919407 1_565
Al8 Mg6 2.934260 1_555
Al8 Mg12 2.993317 1_555
Al8 Mg8 2.993317 1_555
Al9 Mg11 2.918043 1_455
Al9 Mg10 2.918049 1_555
Al9 Mg1 2.919407 1_555
Al9 Mg0 2.919407 1_455
Al9 Mg14 2.934267 1_555
Al9 Mg2 2.993309 1_455
Al9 Mg3 2.993315 1_555
Al10 Al3 2.872443 1_555
Al10 Mg12 2.918043 1_545
Al10 Mg2 2.918049 1_555
Al10 Mg1 2.919407 1_555
Al10 Mg15 2.919407 1_545
Al10 Mg11 2.934267 1_555
Al10 Al7 2.950499 1_555
Al10 Mg9 2.993309 1_545
Al10 Mg13 2.993315 1_555
Al11 Al2 2.872443 1_555
Al11 Mg13 2.918050 1_555
Al11 Mg3 2.918050 1_555
Al11 Mg0 2.919407 1_566
Al11 Mg15 2.919407 1_656
Al11 Mg10 2.934270 1_555
Al11 Al8 2.950499 1_556
Al11 Mg8 2.993317 1_556
Al11 Mg12 2.993317 1_556
