# generated using pymatgen
data_Mg2P
_symmetry_space_group_name_H-M   'P 1'
_cell_length_a   5.67954499
_cell_length_b   5.67954499
_cell_length_c   5.57705000
_cell_angle_alpha   90.00000000
_cell_angle_beta   90.00000000
_cell_angle_gamma   140.86545023
_symmetry_Int_Tables_number   1
_chemical_formula_structural   Mg2P
_chemical_formula_sum   'Mg4 P2'
_cell_volume   113.54286460
_cell_formula_units_Z   2
loop_
 _symmetry_equiv_pos_site_id
 _symmetry_equiv_pos_as_xyz
  1  'x, y, z'
loop_
 _atom_site_type_symbol
 _atom_site_label
 _atom_site_symmetry_multiplicity
 _atom_site_fract_x
 _atom_site_fract_y
 _atom_site_fract_z
 _atom_site_occupancy
  Mg  Mg0  1  0.50000000  0.50000000  0.50000000  1
  Mg  Mg1  1  0.79648500  0.20351500  0.75000000  1
  Mg  Mg2  1  0.50000000  0.50000000  0.00000000  1
  Mg  Mg3  1  0.20351500  0.79648500  0.25000000  1
  P  P0  1  0.12586400  0.87413600  0.75000000  1
  P  P1  1  0.87413600  0.12586400  0.25000000  1
loop_
_geom_bond_atom_site_label_1
_geom_bond_atom_site_label_2
_geom_bond_distance
_geom_bond_site_symmetry_2
Mg0 P0 2.716051 1_655
Mg0 P1 2.716051 1_565
Mg0 P0 2.716051 1_545
Mg0 P1 2.716051 1_455
Mg1 P0 2.636873 1_655
Mg1 P0 2.636873 1_545
Mg1 P1 2.909744 1_556
Mg1 P1 2.909744 1_555
Mg2 P0 2.716051 1_654
Mg2 P1 2.716051 1_565
Mg2 P0 2.716051 1_544
Mg2 P1 2.716051 1_455
Mg3 P1 2.636873 1_565
Mg3 P1 2.636873 1_455
Mg3 P0 2.909744 1_554
Mg3 P0 2.909744 1_555
