# generated using pymatgen
data_Mg14ZnBiO16
_symmetry_space_group_name_H-M   'P 1'
_cell_length_a   8.75864700
_cell_length_b   8.75864700
_cell_length_c   4.40246900
_cell_angle_alpha   90.00000000
_cell_angle_beta   90.00000000
_cell_angle_gamma   90.00000000
_symmetry_Int_Tables_number   1
_chemical_formula_structural   Mg14ZnBiO16
_chemical_formula_sum   'Mg14 Zn1 Bi1 O16'
_cell_volume   337.73055460
_cell_formula_units_Z   1
loop_
 _symmetry_equiv_pos_site_id
 _symmetry_equiv_pos_as_xyz
  1  'x, y, z'
loop_
 _atom_site_type_symbol
 _atom_site_label
 _atom_site_symmetry_multiplicity
 _atom_site_fract_x
 _atom_site_fract_y
 _atom_site_fract_z
 _atom_site_occupancy
  Mg  Mg0  1  0.50000000  0.00000000  0.00000000  1
  Mg  Mg1  1  0.00000000  0.50000000  0.00000000  1
  Mg  Mg2  1  0.24737300  0.00000000  0.50000000  1
  Mg  Mg3  1  0.75262700  0.00000000  0.50000000  1
  Mg  Mg4  1  0.23393400  0.50000000  0.50000000  1
  Mg  Mg5  1  0.76606600  0.50000000  0.50000000  1
  Mg  Mg6  1  0.00000000  0.24737300  0.50000000  1
  Mg  Mg7  1  0.50000000  0.23393400  0.50000000  1
  Mg  Mg8  1  0.00000000  0.75262700  0.50000000  1
  Mg  Mg9  1  0.50000000  0.76606600  0.50000000  1
  Mg  Mg10  1  0.24013500  0.24013500  0.00000000  1
  Mg  Mg11  1  0.75986500  0.24013500  0.00000000  1
  Mg  Mg12  1  0.24013500  0.75986500  0.00000000  1
  Mg  Mg13  1  0.75986500  0.75986500  0.00000000  1
  Zn  Zn0  1  0.00000000  0.00000000  0.00000000  1
  Bi  Bi0  1  0.50000000  0.50000000  0.00000000  1
  O  O0  1  0.00000000  0.26122300  0.00000000  1
  O  O1  1  0.50000000  0.23401200  0.00000000  1
  O  O2  1  0.00000000  0.73877700  0.00000000  1
  O  O3  1  0.50000000  0.76598800  0.00000000  1
  O  O4  1  0.25245300  0.25245300  0.50000000  1
  O  O5  1  0.74754700  0.25245300  0.50000000  1
  O  O6  1  0.25245300  0.74754700  0.50000000  1
  O  O7  1  0.74754700  0.74754700  0.50000000  1
  O  O8  1  0.00000000  0.00000000  0.50000000  1
  O  O9  1  0.50000000  0.00000000  0.50000000  1
  O  O10  1  0.00000000  0.50000000  0.50000000  1
  O  O11  1  0.50000000  0.50000000  0.50000000  1
  O  O12  1  0.26122300  0.00000000  0.00000000  1
  O  O13  1  0.73877700  0.00000000  0.00000000  1
  O  O14  1  0.23401200  0.50000000  0.00000000  1
  O  O15  1  0.76598800  0.50000000  0.00000000  1
loop_
_geom_bond_atom_site_label_1
_geom_bond_atom_site_label_2
_geom_bond_distance
_geom_bond_site_symmetry_2
Mg0 O3 2.049629 1_545
Mg0 O1 2.049629 1_555
Mg0 O12 2.091363 1_555
Mg0 O13 2.091363 1_555
Mg0 O9 2.201234 1_554
Mg0 O9 2.201234 1_555
Mg1 O15 2.049629 1_455
Mg1 O14 2.049629 1_555
Mg1 O0 2.091363 1_555
Mg1 O2 2.091363 1_555
Mg1 O10 2.201234 1_555
Mg1 O10 2.201234 1_554
Mg2 O8 2.166653 1_555
Mg2 O12 2.204575 1_556
Mg2 O12 2.204575 1_555
Mg2 O4 2.211594 1_555
Mg2 O6 2.211594 1_545
Mg2 O9 2.212671 1_555
Mg3 O8 2.166653 1_655
Mg3 O13 2.204575 1_555
Mg3 O13 2.204575 1_556
Mg3 O5 2.211594 1_555
Mg3 O7 2.211594 1_545
Mg3 O9 2.212671 1_555
Mg4 O10 2.048945 1_555
Mg4 O6 2.174235 1_555
Mg4 O4 2.174235 1_555
Mg4 O14 2.201235 1_556
Mg4 O14 2.201235 1_555
Mg4 O11 2.330378 1_555
Mg5 O10 2.048945 1_655
Mg5 O7 2.174235 1_555
Mg5 O5 2.174235 1_555
Mg5 O15 2.201235 1_555
Mg5 O15 2.201235 1_556
Mg5 O11 2.330378 1_555
Mg6 O8 2.166653 1_555
Mg6 O0 2.204575 1_555
Mg6 O0 2.204575 1_556
Mg6 O4 2.211594 1_555
Mg6 O5 2.211594 1_455
Mg6 O10 2.212671 1_555
Mg7 O9 2.048945 1_555
Mg7 O5 2.174235 1_555
Mg7 O4 2.174235 1_555
Mg7 O1 2.201235 1_556
Mg7 O1 2.201235 1_555
Mg7 O11 2.330378 1_555
Mg8 O8 2.166653 1_565
Mg8 O2 2.204575 1_556
Mg8 O2 2.204575 1_555
Mg8 O6 2.211594 1_555
Mg8 O7 2.211594 1_455
Mg8 O10 2.212671 1_555
Mg9 O9 2.048945 1_565
Mg9 O7 2.174235 1_555
Mg9 O6 2.174235 1_555
Mg9 O3 2.201235 1_556
Mg9 O3 2.201235 1_555
Mg9 O11 2.330378 1_555
Mg10 O0 2.111352 1_555
Mg10 O12 2.111352 1_555
Mg10 O4 2.206516 1_554
Mg10 O4 2.206516 1_555
Mg10 O1 2.276698 1_555
Mg10 O14 2.276698 1_555
Mg11 O13 2.111352 1_555
Mg11 O0 2.111352 1_655
Mg11 O5 2.206516 1_555
Mg11 O5 2.206516 1_554
Mg11 O1 2.276698 1_555
Mg11 O15 2.276698 1_555
Mg12 O2 2.111352 1_555
Mg12 O12 2.111352 1_565
Mg12 O6 2.206516 1_554
Mg12 O6 2.206516 1_555
Mg12 O3 2.276698 1_555
Mg12 O14 2.276698 1_555
Mg13 O13 2.111352 1_565
Mg13 O2 2.111352 1_655
Mg13 O7 2.206516 1_555
Mg13 O7 2.206516 1_554
Mg13 O3 2.276698 1_555
Mg13 O15 2.276698 1_555
Bi0 O11 2.201234 1_555
Bi0 O11 2.201234 1_554
Bi0 O1 2.329695 1_555
Bi0 O14 2.329695 1_555
Bi0 O15 2.329695 1_555
Bi0 O3 2.329695 1_555
O0 Zn0 2.287960 1_555
O2 Zn0 2.287960 1_565
O8 Zn0 2.201234 1_556
O8 Zn0 2.201234 1_555
O12 Zn0 2.287960 1_555
O13 Zn0 2.287960 1_655
