# generated using pymatgen
data_Li7V3P8O29
_symmetry_space_group_name_H-M   'P 1'
_cell_length_a   9.85637898
_cell_length_b   9.87282522
_cell_length_c   13.95099889
_cell_angle_alpha   90.03151966
_cell_angle_beta   89.40158800
_cell_angle_gamma   59.93117953
_symmetry_Int_Tables_number   1
_chemical_formula_structural   Li7V3P8O29
_chemical_formula_sum   'Li14 V6 P16 O58'
_cell_volume   1174.78880896
_cell_formula_units_Z   2
loop_
 _symmetry_equiv_pos_site_id
 _symmetry_equiv_pos_as_xyz
  1  'x, y, z'
loop_
 _atom_site_type_symbol
 _atom_site_label
 _atom_site_symmetry_multiplicity
 _atom_site_fract_x
 _atom_site_fract_y
 _atom_site_fract_z
 _atom_site_occupancy
  Li  Li0  1  0.90779192  0.76018673  0.06297141  1
  Li  Li1  1  0.77069453  0.90867345  0.56543561  1
  Li  Li2  1  0.90863827  0.33133415  0.56291786  1
  Li  Li3  1  0.66687079  0.66387758  0.38395632  1
  Li  Li4  1  0.66640487  0.66860230  0.88360234  1
  Li  Li5  1  0.77087796  0.32057976  0.06539406  1
  Li  Li6  1  0.32906392  0.90565933  0.06078415  1
  Li  Li7  1  0.32925226  0.76543791  0.56058640  1
  Li  Li8  1  0.33998425  0.32239470  0.61140109  1
  Li  Li9  1  0.33935527  0.33962136  0.11137568  1
  Li  Li10  1  0.09067482  0.68131503  0.43600128  1
  Li  Li11  1  0.09088221  0.22814451  0.93593251  1
  Li  Li12  1  0.98410802  0.96370943  0.99705829  1
  Li  Li13  1  0.98217077  0.05238294  0.49666991  1
  V  V0  1  0.56214534  0.43578447  0.24911102  1
  V  V1  1  0.43651355  0.56285670  0.75289877  1
  V  V2  1  0.56219137  0.00200885  0.74920084  1
  V  V3  1  0.43656527  0.00086468  0.25274352  1
  V  V4  1  0.99868054  0.56588722  0.24889866  1
  V  V5  1  0.99950405  0.43504693  0.74879858  1
  P  P0  1  0.90384350  0.77622368  0.84266069  1
  P  P1  1  0.77077882  0.91342720  0.34876621  1
  P  P2  1  0.90395630  0.31957215  0.34268790  1
  P  P3  1  0.66259391  0.66818410  0.12498759  1
  P  P4  1  0.66282407  0.66865408  0.62497640  1
  P  P5  1  0.77111106  0.31592250  0.84856790  1
  P  P6  1  0.69398183  0.22172818  0.66134249  1
  P  P7  1  0.31684260  0.91017613  0.84279953  1
  P  P8  1  0.69416928  0.08413004  0.16135774  1
  P  P9  1  0.31702084  0.77285100  0.34276537  1
  P  P10  1  0.22340052  0.69101086  0.15581532  1
  P  P11  1  0.33334132  0.33521411  0.37191124  1
  P  P12  1  0.33374690  0.33140655  0.87197634  1
  P  P13  1  0.09491258  0.67899487  0.65820440  1
  P  P14  1  0.22399194  0.08544856  0.65596851  1
  P  P15  1  0.09490658  0.22652348  0.15809123  1
  O  O0  1  0.00237847  0.76511918  0.57053625  1
  O  O1  1  0.91885206  0.75072375  0.34001867  1
  O  O2  1  0.80422512  0.98491322  0.08290619  1
  O  O3  1  0.74113788  0.92070632  0.83215951  1
  O  O4  1  0.88705529  0.62916893  0.83221276  1
  O  O5  1  0.81251664  0.66786200  0.15764491  1
  O  O6  1  0.88678043  0.48363455  0.33247706  1
  O  O7  1  0.00228161  0.23290941  0.07053412  1
  O  O8  1  0.91953681  0.32970748  0.83959237  1
  O  O9  1  0.66440320  0.81743066  0.66503936  1
  O  O10  1  0.62591860  0.89192120  0.33150559  1
  O  O11  1  0.81356493  0.51936283  0.65675556  1
  O  O12  1  0.64756453  0.67303329  0.01769310  1
  O  O13  1  0.64600612  0.67896637  0.51766733  1
  O  O14  1  0.66447419  0.51771271  0.16509978  1
  O  O15  1  0.48266634  0.89157003  0.82851567  1
  O  O16  1  0.51581163  0.81614103  0.17053809  1
  O  O17  1  0.74139107  0.33732630  0.33191450  1
  O  O18  1  0.77799904  0.20458050  0.76262496  1
  O  O19  1  0.80424895  0.21077214  0.58289144  1
  O  O20  1  0.76833896  0.24046700  0.94100084  1
  O  O21  1  0.62645643  0.48243472  0.83123001  1
  O  O22  1  0.51641058  0.66741820  0.67101867  1
  O  O23  1  0.66320575  0.25365271  0.15693778  1
  O  O24  1  0.48280624  0.62521072  0.32876743  1
  O  O25  1  0.33559062  0.91713298  0.33729288  1
  O  O26  1  0.77847009  0.01727511  0.26269242  1
  O  O27  1  0.76830485  0.99168618  0.44114142  1
  O  O28  1  0.21767866  0.98693690  0.57633340  1
  O  O29  1  0.66359032  0.08283349  0.65699849  1
  O  O30  1  0.53253831  0.37530428  0.66579128  1
  O  O31  1  0.33515670  0.74742893  0.83763735  1
  O  O32  1  0.47264046  0.34453313  0.32119941  1
  O  O33  1  0.37526746  0.52819029  0.16234217  1
  O  O34  1  0.21659681  0.79595993  0.07627351  1
  O  O35  1  0.23609127  0.76597537  0.43377817  1
  O  O36  1  0.20775158  0.77963323  0.25681553  1
  O  O37  1  0.25794186  0.66529542  0.65792936  1
  O  O38  1  0.47336431  0.18256320  0.82163160  1
  O  O39  1  0.53283047  0.09190782  0.16585589  1
  O  O40  1  0.34355831  0.47210878  0.82459649  1
  O  O41  1  0.34998005  0.32733545  0.97815078  1
  O  O42  1  0.34968776  0.32251947  0.47784430  1
  O  O43  1  0.18128485  0.48322888  0.34104570  1
  O  O44  1  0.37562752  0.09652600  0.66276741  1
  O  O45  1  0.34348065  0.18454957  0.32422607  1
  O  O46  1  0.08196798  0.66560840  0.15512445  1
  O  O47  1  0.00585719  0.78048126  0.75198518  1
  O  O48  1  0.98178391  0.78307395  0.93307746  1
  O  O49  1  0.11839976  0.51311075  0.66891185  1
  O  O50  1  0.18210905  0.33499098  0.84093292  1
  O  O51  1  0.11798760  0.36918258  0.16894577  1
  O  O52  1  0.25812965  0.07734183  0.15762170  1
  O  O53  1  0.23604463  0.99799607  0.93400559  1
  O  O54  1  0.20748869  0.01274736  0.75689652  1
  O  O55  1  0.08281999  0.25235986  0.65485593  1
  O  O56  1  0.98174892  0.23473680  0.43301717  1
  O  O57  1  0.00638078  0.21372498  0.25196176  1
loop_
_geom_bond_atom_site_label_1
_geom_bond_atom_site_label_2
_geom_bond_distance
_geom_bond_site_symmetry_2
Li0 O2 1.940565 1_555
Li0 O46 1.978135 1_655
Li0 O48 2.001199 1_554
Li0 O5 2.071315 1_555
Li1 O27 1.913681 1_555
Li1 O29 1.962944 1_565
Li1 O0 1.997183 1_655
Li1 O9 2.180972 1_555
Li2 O19 1.942853 1_555
Li2 O55 1.976410 1_655
Li2 O56 1.998795 1_555
Li2 O11 2.065569 1_555
Li3 O13 1.872215 1_555
Li3 O6 2.116956 1_555
Li3 O24 2.180085 1_555
Li3 O10 2.205595 1_555
Li4 O12 1.876281 1_556
Li4 O4 2.124629 1_555
Li4 O15 2.179953 1_555
Li4 O21 2.190175 1_555
Li5 O20 1.912352 1_554
Li5 O23 1.967037 1_555
Li5 O7 1.995396 1_655
Li5 O14 2.178034 1_555
Li6 O34 1.909664 1_555
Li6 O52 1.994288 1_565
Li6 O53 1.999500 1_554
Li6 O16 2.223471 1_555
Li7 O28 1.903776 1_555
Li7 O37 1.998417 1_555
Li7 O35 2.000488 1_555
Li7 O22 2.232739 1_555
Li8 O42 1.864739 1_555
Li8 O49 2.190867 1_555
Li8 O44 2.198103 1_555
Li8 O30 2.339596 1_555
Li9 O41 1.860942 1_554
Li9 O33 2.181964 1_555
Li9 O51 2.194513 1_555
Li9 O39 2.356735 1_555
Li10 O35 1.988330 1_555
Li10 O1 2.004046 1_455
Li10 O0 2.051174 1_555
Li10 O43 2.144614 1_555
Li11 O53 1.987999 1_545
Li11 O8 2.004002 1_455
Li11 O7 2.053180 1_556
Li11 O50 2.145907 1_555
Li12 O48 2.004325 1_555
Li12 O2 2.050650 1_556
Li12 O34 2.338178 1_656
Li12 O20 2.610445 1_565
Li13 O56 2.006037 1_555
Li13 O19 2.042899 1_555
Li13 O28 2.364869 1_645
Li13 O27 2.588833 1_545
O0 P13 1.515924 1_555
O1 P1 1.540148 1_555
O1 V4 2.025566 1_555
O2 P8 1.497775 1_565
O3 P0 1.529980 1_555
O3 V2 1.928630 1_565
O4 P0 1.548384 1_555
O4 V5 2.024291 1_555
O5 P3 1.549362 1_555
O5 V4 2.049445 1_555
O6 P2 1.548725 1_555
O6 V4 2.026613 1_555
O7 P15 1.515002 1_555
O8 P5 1.539514 1_555
O8 V5 2.027138 1_555
O9 P4 1.578710 1_555
O9 V2 1.961528 1_565
O10 P1 1.566073 1_555
O10 V3 1.969781 1_565
O11 P4 1.548071 1_555
O11 V5 2.054787 1_555
O12 P3 1.504143 1_555
O13 P4 1.505821 1_555
O14 P3 1.579235 1_555
O14 V0 1.959351 1_555
O15 P7 1.561117 1_555
O15 V2 1.966534 1_565
O16 P3 1.578840 1_555
O16 V3 1.950109 1_565
O17 P2 1.531115 1_555
O17 V0 1.929660 1_555
O18 P5 1.603940 1_555
O18 P6 1.610957 1_555
O19 P6 1.499331 1_555
O20 P5 1.496436 1_555
O21 P5 1.566130 1_555
O21 V1 1.970711 1_555
O22 P4 1.579111 1_555
O22 V1 1.946238 1_555
O23 P8 1.544916 1_555
O23 V0 2.013696 1_555
O24 P9 1.561779 1_555
O24 V0 1.964198 1_555
O25 P9 1.526282 1_555
O25 V3 1.966272 1_565
O26 P1 1.605063 1_545
O26 P8 1.612654 1_555
O27 P1 1.495910 1_555
O28 P14 1.498332 1_565
O29 P6 1.544581 1_555
O29 V2 2.015851 1_555
O30 P6 1.554025 1_555
O30 V1 2.004644 1_555
O31 P7 1.525927 1_555
O31 V1 1.965938 1_555
O32 P11 1.581280 1_555
O32 V0 1.838542 1_555
O33 P10 1.557156 1_555
O33 V0 2.013520 1_555
O34 P10 1.497561 1_555
O35 P9 1.512044 1_555
O36 P9 1.599067 1_555
O36 P10 1.622848 1_555
O37 P13 1.543519 1_555
O37 V1 2.035319 1_555
O38 P12 1.580733 1_555
O38 V2 1.838699 1_555
O39 P8 1.553759 1_555
O39 V3 2.002340 1_555
O40 P12 1.584372 1_555
O40 V1 1.856624 1_555
O41 P12 1.489919 1_555
O42 P11 1.486847 1_555
O43 P11 1.544850 1_555
O43 V4 2.033614 1_455
O44 P14 1.556106 1_555
O44 V2 2.008536 1_555
O45 P11 1.585472 1_555
O45 V3 1.853813 1_555
O46 P10 1.535212 1_555
O46 V4 2.035578 1_455
O47 P13 1.606047 1_555
O47 P0 1.621379 1_455
O48 P0 1.502688 1_555
O49 P13 1.542460 1_555
O49 V5 2.021913 1_455
O50 P12 1.543756 1_555
O50 V5 2.033579 1_455
O51 P15 1.542718 1_555
O51 V4 2.019961 1_455
O52 P15 1.543652 1_555
O52 V3 2.035544 1_555
O53 P7 1.513506 1_555
O54 P7 1.599382 1_545
O54 P14 1.624059 1_555
O55 P14 1.534489 1_555
O55 V5 2.033673 1_455
O56 P2 1.501763 1_555
O57 P15 1.605962 1_555
O57 P2 1.621092 1_455
