# generated using pymatgen
data_NdNiGe
_symmetry_space_group_name_H-M   'P 1'
_cell_length_a   4.32476762
_cell_length_b   7.26669301
_cell_length_c   7.23832137
_cell_angle_alpha   90.00000000
_cell_angle_beta   90.00000000
_cell_angle_gamma   90.00000000
_symmetry_Int_Tables_number   1
_chemical_formula_structural   NdNiGe
_chemical_formula_sum   'Nd4 Ni4 Ge4'
_cell_volume   227.47697861
_cell_formula_units_Z   4
loop_
 _symmetry_equiv_pos_site_id
 _symmetry_equiv_pos_as_xyz
  1  'x, y, z'
loop_
 _atom_site_type_symbol
 _atom_site_label
 _atom_site_symmetry_multiplicity
 _atom_site_fract_x
 _atom_site_fract_y
 _atom_site_fract_z
 _atom_site_occupancy
  Nd  Nd0  1  0.25000000  0.70188768  0.98631523  1
  Nd  Nd1  1  0.75000000  0.29811232  0.01368477  1
  Nd  Nd2  1  0.75000000  0.20188768  0.51368477  1
  Nd  Nd3  1  0.25000000  0.79811232  0.48631523  1
  Ni  Ni0  1  0.25000000  0.08089384  0.18504157  1
  Ni  Ni1  1  0.75000000  0.91910616  0.81495843  1
  Ni  Ni2  1  0.75000000  0.58089384  0.31495843  1
  Ni  Ni3  1  0.25000000  0.41910616  0.68504157  1
  Ge  Ge0  1  0.25000000  0.41000327  0.30856769  1
  Ge  Ge1  1  0.75000000  0.58999673  0.69143231  1
  Ge  Ge2  1  0.75000000  0.91000327  0.19143231  1
  Ge  Ge3  1  0.25000000  0.08999673  0.80856769  1
loop_
_geom_bond_atom_site_label_1
_geom_bond_atom_site_label_2
_geom_bond_distance
_geom_bond_site_symmetry_2
Nd0 Ni1 2.950571 1_455
Nd0 Ni1 2.950571 1_555
Nd0 Ni3 2.996344 1_555
Nd0 Ni0 3.107138 1_566
Nd0 Ni2 3.332829 1_556
Nd0 Ni2 3.332829 1_456
Nd1 Ni0 2.950571 1_655
Nd1 Ni0 2.950571 1_555
Nd1 Ni2 2.996344 1_555
Nd1 Ni1 3.107138 1_544
Nd1 Ni3 3.332829 1_654
Nd1 Ni3 3.332829 1_554
Nd2 Ni3 2.950571 1_655
Nd2 Ni3 2.950571 1_555
Nd2 Ni1 2.996344 1_545
Nd2 Ni2 3.107138 1_555
Nd2 Ni0 3.332829 1_655
Nd2 Ni0 3.332829 1_555
Nd3 Ni2 2.950571 1_555
Nd3 Ni2 2.950571 1_455
Nd3 Ni0 2.996344 1_565
Nd3 Ni3 3.107138 1_555
Nd3 Ni1 3.332829 1_555
Nd3 Ni1 3.332829 1_455
Ge0 Ni2 2.494020 1_555
Ge0 Ni2 2.494020 1_455
Ge0 Ni0 2.553214 1_555
Ge0 Ni3 2.725842 1_555
Ge0 Nd2 3.027761 1_455
Ge0 Nd2 3.027761 1_555
Ge0 Nd3 3.099878 1_555
Ge0 Nd1 3.145299 1_555
Ge0 Nd1 3.145299 1_455
Ge0 Nd0 3.152722 1_554
Ge1 Ni3 2.494020 1_555
Ge1 Ni3 2.494020 1_655
Ge1 Ni1 2.553214 1_555
Ge1 Ni2 2.725842 1_555
Ge1 Nd3 3.027761 1_555
Ge1 Nd3 3.027761 1_655
Ge1 Nd2 3.099878 1_555
Ge1 Nd0 3.145299 1_655
Ge1 Nd0 3.145299 1_555
Ge1 Nd1 3.152722 1_556
Ge2 Ni0 2.494020 1_665
Ge2 Ni0 2.494020 1_565
Ge2 Ni2 2.553214 1_555
Ge2 Ni1 2.725842 1_554
Ge2 Nd0 3.027761 1_554
Ge2 Nd0 3.027761 1_654
Ge2 Nd1 3.099878 1_565
Ge2 Nd3 3.145299 1_555
Ge2 Nd3 3.145299 1_655
Ge2 Nd2 3.152722 1_565
Ge3 Ni1 2.494020 1_545
Ge3 Ni1 2.494020 1_445
Ge3 Ni3 2.553214 1_555
Ge3 Ni0 2.725842 1_556
Ge3 Nd1 3.027761 1_556
Ge3 Nd1 3.027761 1_456
Ge3 Nd0 3.099878 1_545
Ge3 Nd2 3.145299 1_455
Ge3 Nd2 3.145299 1_555
Ge3 Nd3 3.152722 1_545
