# generated using pymatgen
data_SiP2H18(C3Br2)2
_symmetry_space_group_name_H-M   'P 1'
_cell_length_a   8.81441300
_cell_length_b   14.17927200
_cell_length_c   15.27132305
_cell_angle_alpha   66.42940357
_cell_angle_beta   90.00000000
_cell_angle_gamma   90.00000000
_symmetry_Int_Tables_number   1
_chemical_formula_structural   SiP2H18(C3Br2)2
_chemical_formula_sum   'Si4 P8 H72 C24 Br16'
_cell_volume   1749.39835765
_cell_formula_units_Z   4
loop_
 _symmetry_equiv_pos_site_id
 _symmetry_equiv_pos_as_xyz
  1  'x, y, z'
loop_
 _atom_site_type_symbol
 _atom_site_label
 _atom_site_symmetry_multiplicity
 _atom_site_fract_x
 _atom_site_fract_y
 _atom_site_fract_z
 _atom_site_occupancy
  Si  Si0  1  0.00000000  0.00000000  0.00000000  1
  Si  Si1  1  0.50000000  0.50000000  0.00000000  1
  Si  Si2  1  0.50000000  0.50000000  0.50000000  1
  Si  Si3  1  0.00000000  0.00000000  0.50000000  1
  P  P0  1  0.79441300  0.05254700  0.07670900  1
  P  P1  1  0.29441300  0.44745300  0.92329100  1
  P  P2  1  0.20558700  0.94745300  0.92329100  1
  P  P3  1  0.70558700  0.55254700  0.07670900  1
  P  P4  1  0.70526900  0.38439300  0.58252800  1
  P  P5  1  0.20526900  0.11560700  0.41747200  1
  P  P6  1  0.29473100  0.61560700  0.41747200  1
  P  P7  1  0.79473100  0.88439300  0.58252800  1
  H  H0  1  0.59389700  0.97695600  0.19006400  1
  H  H1  1  0.09389700  0.52304400  0.80993600  1
  H  H2  1  0.40610300  0.02304400  0.80993600  1
  H  H3  1  0.90610300  0.47695600  0.19006400  1
  H  H4  1  0.66376600  0.88951100  0.14065300  1
  H  H5  1  0.16376600  0.61048900  0.85934700  1
  H  H6  1  0.33623400  0.11048900  0.85934700  1
  H  H7  1  0.83623400  0.38951100  0.14065300  1
  H  H8  1  0.77048200  0.91054900  0.23090100  1
  H  H9  1  0.27048200  0.58945100  0.76909900  1
  H  H10  1  0.22951800  0.08945100  0.76909900  1
  H  H11  1  0.72951800  0.41054900  0.23090100  1
  H  H12  1  0.92353200  0.09863600  0.19308700  1
  H  H13  1  0.42353200  0.40136400  0.80691300  1
  H  H14  1  0.07646800  0.90136400  0.80691300  1
  H  H15  1  0.57646800  0.59863600  0.19308700  1
  H  H16  1  0.89939200  0.20681800  0.08035200  1
  H  H17  1  0.39939200  0.29318200  0.91964800  1
  H  H18  1  0.10060800  0.79318200  0.91964800  1
  H  H19  1  0.60060800  0.70681800  0.08035200  1
  H  H20  1  0.74244400  0.16126200  0.16068800  1
  H  H21  1  0.24244400  0.33873800  0.83931200  1
  H  H22  1  0.25755600  0.83873800  0.83931200  1
  H  H23  1  0.75755600  0.66126200  0.16068800  1
  H  H24  1  0.55191500  0.13490100  0.03545300  1
  H  H25  1  0.05191500  0.36509900  0.96454700  1
  H  H26  1  0.44808500  0.86509900  0.96454700  1
  H  H27  1  0.94808500  0.63490100  0.03545300  1
  H  H28  1  0.69075300  0.19671100  0.94443100  1
  H  H29  1  0.19075300  0.30328900  0.05556900  1
  H  H30  1  0.30924700  0.80328900  0.05556900  1
  H  H31  1  0.80924700  0.69671100  0.94443100  1
  H  H32  1  0.60801600  0.07735600  0.95429000  1
  H  H33  1  0.10801600  0.42264400  0.04571000  1
  H  H34  1  0.39198400  0.92264400  0.04571000  1
  H  H35  1  0.89198400  0.57735600  0.95429000  1
  H  H36  1  0.57905500  0.26101100  0.72079700  1
  H  H37  1  0.07905500  0.23898900  0.27920300  1
  H  H38  1  0.42094500  0.73898900  0.27920300  1
  H  H39  1  0.92094500  0.76101100  0.72079700  1
  H  H40  1  0.58550400  0.22001300  0.62428300  1
  H  H41  1  0.08550400  0.27998700  0.37571700  1
  H  H42  1  0.41449600  0.77998700  0.37571700  1
  H  H43  1  0.91449600  0.72001300  0.62428300  1
  H  H44  1  0.75226100  0.20969800  0.69542800  1
  H  H45  1  0.25226100  0.29030200  0.30457200  1
  H  H46  1  0.24773900  0.79030200  0.30457200  1
  H  H47  1  0.74773900  0.70969800  0.69542800  1
  H  H48  1  0.92648300  0.38546700  0.67405500  1
  H  H49  1  0.42648300  0.11453300  0.32594500  1
  H  H50  1  0.07351700  0.61453300  0.32594500  1
  H  H51  1  0.57351700  0.88546700  0.67405500  1
  H  H52  1  0.84862300  0.51269900  0.61284200  1
  H  H53  1  0.34862300  0.98730100  0.38715800  1
  H  H54  1  0.15137700  0.48730100  0.38715800  1
  H  H55  1  0.65137700  0.01269900  0.61284200  1
  H  H56  1  0.76036500  0.42436700  0.71933300  1
  H  H57  1  0.26036500  0.07563300  0.28066700  1
  H  H58  1  0.23963500  0.57563300  0.28066700  1
  H  H59  1  0.73963500  0.92436700  0.71933300  1
  H  H60  1  0.79005800  0.30765000  0.47544100  1
  H  H61  1  0.29005800  0.19235000  0.52455900  1
  H  H62  1  0.20994200  0.69235000  0.52455900  1
  H  H63  1  0.70994200  0.80765000  0.47544100  1
  H  H64  1  0.86065700  0.43611100  0.44173700  1
  H  H65  1  0.36065700  0.06388900  0.55826300  1
  H  H66  1  0.13934300  0.56388900  0.55826300  1
  H  H67  1  0.63934300  0.93611100  0.44173700  1
  H  H68  1  0.94315600  0.33072500  0.54132800  1
  H  H69  1  0.44315600  0.16927500  0.45867200  1
  H  H70  1  0.05684400  0.66927500  0.45867200  1
  H  H71  1  0.55684400  0.83072500  0.54132800  1
  C  C0  1  0.69577800  0.94652500  0.16888500  1
  C  C1  1  0.19577800  0.55347500  0.83111500  1
  C  C2  1  0.30422200  0.05347500  0.83111500  1
  C  C3  1  0.80422200  0.44652500  0.16888500  1
  C  C4  1  0.84564600  0.13815100  0.13382000  1
  C  C5  1  0.34564600  0.36184900  0.86618000  1
  C  C6  1  0.15435400  0.86184900  0.86618000  1
  C  C7  1  0.65435400  0.63815100  0.13382000  1
  C  C8  1  0.64581400  0.12224800  0.99386200  1
  C  C9  1  0.14581400  0.37775200  0.00613800  1
  C  C10  1  0.35418600  0.87775200  0.00613800  1
  C  C11  1  0.85418600  0.62224800  0.99386200  1
  C  C12  1  0.65013400  0.25573400  0.66409100  1
  C  C13  1  0.15013400  0.24426600  0.33590900  1
  C  C14  1  0.34986600  0.74426600  0.33590900  1
  C  C15  1  0.84986600  0.75573400  0.66409100  1
  C  C16  1  0.82177700  0.43159600  0.65459900  1
  C  C17  1  0.32177700  0.06840400  0.34540100  1
  C  C18  1  0.17822300  0.56840400  0.34540100  1
  C  C19  1  0.67822300  0.93159600  0.65459900  1
  C  C20  1  0.83818600  0.36272200  0.50168800  1
  C  C21  1  0.33818600  0.13727800  0.49831200  1
  C  C22  1  0.16181400  0.63727800  0.49831200  1
  C  C23  1  0.66181400  0.86272200  0.50168800  1
  Br  Br0  1  0.18955200  0.06309900  0.07950300  1
  Br  Br1  1  0.68955200  0.43690100  0.92049700  1
  Br  Br2  1  0.81044800  0.93690100  0.92049700  1
  Br  Br3  1  0.31044800  0.56309900  0.07950300  1
  Br  Br4  1  0.98836300  0.17041000  0.86969600  1
  Br  Br5  1  0.48836300  0.32959000  0.13030400  1
  Br  Br6  1  0.01163700  0.82959000  0.13030400  1
  Br  Br7  1  0.51163700  0.67041000  0.86969600  1
  Br  Br8  1  0.69213600  0.62355800  0.40760400  1
  Br  Br9  1  0.19213600  0.87644200  0.59239600  1
  Br  Br10  1  0.30786400  0.37644200  0.59239600  1
  Br  Br11  1  0.80786400  0.12355800  0.40760400  1
  Br  Br12  1  0.49835300  0.42409400  0.38250800  1
  Br  Br13  1  0.99835300  0.07590600  0.61749200  1
  Br  Br14  1  0.50164700  0.57590600  0.61749200  1
  Br  Br15  1  0.00164700  0.92409400  0.38250800  1
loop_
_geom_bond_atom_site_label_1
_geom_bond_atom_site_label_2
_geom_bond_distance
_geom_bond_site_symmetry_2
P0 Si0 2.430902 1_655
P1 Si1 2.430902 1_556
P2 Si0 2.430902 1_566
P3 Si1 2.430902 1_555
P4 Si2 2.428344 1_555
P5 Si3 2.428344 1_555
P6 Si2 2.428344 1_555
P7 Si3 2.428344 1_665
C0 H4 1.094434 1_555
C0 H8 1.097435 1_555
C0 H0 1.099475 1_555
C0 P0 1.817940 1_565
C1 H5 1.094434 1_555
C1 H9 1.097435 1_555
C1 H1 1.099475 1_555
C1 P1 1.817940 1_555
C2 H6 1.094434 1_555
C2 H10 1.097435 1_555
C2 H2 1.099475 1_555
C2 P2 1.817940 1_545
C3 H7 1.094434 1_555
C3 H11 1.097435 1_555
C3 H3 1.099475 1_555
C3 P3 1.817940 1_555
C4 H12 1.094920 1_555
C4 H16 1.096960 1_555
C4 H20 1.100347 1_555
C4 P0 1.812336 1_555
C5 H13 1.094920 1_555
C5 H17 1.096960 1_555
C5 H21 1.100347 1_555
C5 P1 1.812336 1_555
C6 H14 1.094920 1_555
C6 H18 1.096960 1_555
C6 H22 1.100347 1_555
C6 P2 1.812336 1_555
C7 H15 1.094920 1_555
C7 H19 1.096960 1_555
C7 H23 1.100347 1_555
C7 P3 1.812336 1_555
C8 H32 1.090422 1_555
C8 H28 1.097314 1_555
C8 H24 1.100802 1_556
C8 P0 1.814675 1_556
C9 H33 1.090422 1_555
C9 H29 1.097314 1_555
C9 H25 1.100802 1_554
C9 P1 1.814675 1_554
C10 H34 1.090422 1_555
C10 H30 1.097314 1_555
C10 H26 1.100802 1_554
C10 P2 1.814675 1_554
C11 H35 1.090422 1_555
C11 H31 1.097314 1_555
C11 H27 1.100802 1_556
C11 P3 1.814675 1_556
C12 H40 1.094025 1_555
C12 H36 1.095381 1_555
C12 H44 1.102552 1_555
C12 P4 1.816148 1_555
C13 H41 1.094025 1_555
C13 H37 1.095381 1_555
C13 H45 1.102552 1_555
C13 P5 1.816148 1_555
C14 H42 1.094025 1_555
C14 H38 1.095381 1_555
C14 H46 1.102552 1_555
C14 P6 1.816148 1_555
C15 H43 1.094025 1_555
C15 H39 1.095381 1_555
C15 H47 1.102552 1_555
C15 P7 1.816148 1_555
C16 H52 1.094811 1_555
C16 H56 1.095337 1_555
C16 H48 1.101116 1_555
C16 P4 1.817443 1_555
C17 H53 1.094811 1_545
C17 H57 1.095337 1_555
C17 H49 1.101116 1_555
C17 P5 1.817443 1_555
C18 H54 1.094811 1_555
C18 H58 1.095337 1_555
C18 H50 1.101116 1_555
C18 P6 1.817443 1_555
C19 H55 1.094811 1_565
C19 H59 1.095337 1_555
C19 H51 1.101116 1_555
C19 P7 1.817443 1_555
C20 H64 1.094692 1_555
C20 H60 1.095774 1_555
C20 H68 1.099422 1_555
C20 P4 1.815073 1_555
C21 H65 1.094692 1_555
C21 H61 1.095774 1_555
C21 H69 1.099422 1_555
C21 P5 1.815073 1_555
C22 H66 1.094692 1_555
C22 H62 1.095774 1_555
C22 H70 1.099422 1_555
C22 P6 1.815073 1_555
C23 H67 1.094692 1_555
C23 H63 1.095774 1_555
C23 H71 1.099422 1_555
C23 P7 1.815073 1_555
Br0 Si0 2.436155 1_555
Br1 Si1 2.436155 1_556
Br2 Si0 2.436155 1_666
Br3 Si1 2.436155 1_555
Br4 Si0 2.441994 1_656
Br5 Si1 2.441994 1_555
Br6 Si0 2.441994 1_565
Br7 Si1 2.441994 1_556
Br8 Si2 2.439561 1_555
Br9 Si3 2.439561 1_565
Br10 Si2 2.439561 1_555
Br11 Si3 2.439561 1_655
Br12 Si2 2.433603 1_555
Br13 Si3 2.433603 1_655
Br14 Si2 2.433603 1_555
Br15 Si3 2.433603 1_565
