# generated using pymatgen
data_Eu2Ti2O5
_symmetry_space_group_name_H-M   'P 1'
_cell_length_a   8.74100926
_cell_length_b   8.74100926
_cell_length_c   8.74100926
_cell_angle_alpha   142.99235441
_cell_angle_beta   142.83870391
_cell_angle_gamma   53.45219041
_symmetry_Int_Tables_number   1
_chemical_formula_structural   Eu2Ti2O5
_chemical_formula_sum   'Eu4 Ti4 O10'
_cell_volume   241.29006600
_cell_formula_units_Z   2
loop_
 _symmetry_equiv_pos_site_id
 _symmetry_equiv_pos_as_xyz
  1  'x, y, z'
loop_
 _atom_site_type_symbol
 _atom_site_label
 _atom_site_symmetry_multiplicity
 _atom_site_fract_x
 _atom_site_fract_y
 _atom_site_fract_z
 _atom_site_occupancy
  Eu  Eu0  1  0.87451800  0.38135400  0.49456200  1
  Eu  Eu1  1  0.12548200  0.62004400  0.50683600  1
  Eu  Eu2  1  0.38679200  0.88135400  0.50683600  1
  Eu  Eu3  1  0.61320800  0.12004400  0.49456200  1
  Ti  Ti0  1  0.00000000  0.00245700  0.00245700  1
  Ti  Ti1  1  0.50000000  0.50245700  0.00245700  1
  Ti  Ti2  1  0.75881600  0.76599800  0.02481400  1
  Ti  Ti3  1  0.24118400  0.26599800  0.00718200  1
  O  O0  1  0.76067200  0.76388100  0.50392300  1
  O  O1  1  0.23932800  0.74325100  0.00320900  1
  O  O2  1  0.75995800  0.26388100  0.00320900  1
  O  O3  1  0.24004200  0.24325100  0.50392300  1
  O  O4  1  0.82725800  0.87980400  0.96282100  1
  O  O5  1  0.17274200  0.13556300  0.05254600  1
  O  O6  1  0.41698300  0.37980400  0.05254600  1
  O  O7  1  0.58301700  0.63556300  0.96282100  1
  O  O8  1  0.97349000  0.04364900  0.51713800  1
  O  O9  1  0.02651000  0.54364900  0.07015900  1
loop_
_geom_bond_atom_site_label_1
_geom_bond_atom_site_label_2
_geom_bond_distance
_geom_bond_site_symmetry_2
Eu0 O6 2.504985 1_555
Eu0 O3 2.611469 1_655
Eu0 O1 2.626152 1_656
Eu0 O8 2.667915 1_555
Eu0 O4 2.747091 1_544
Eu0 O2 2.798146 1_555
Eu0 O0 2.811951 1_555
Eu0 O4 2.824273 1_555
Eu0 O9 3.046756 1_656
Eu0 O6 3.072454 1_656
Eu1 O7 2.504985 1_555
Eu1 O2 2.611469 1_455
Eu1 O0 2.626152 1_455
Eu1 O9 2.667921 1_555
Eu1 O5 2.747091 1_555
Eu1 O3 2.798146 1_555
Eu1 O1 2.811951 1_556
Eu1 O5 2.824273 1_566
Eu1 O8 3.046761 1_465
Eu1 O7 3.072454 1_454
Eu2 O4 2.504985 1_555
Eu2 O1 2.611469 1_555
Eu2 O3 2.626152 1_565
Eu2 O9 2.667921 1_555
Eu2 O6 2.747091 1_555
Eu2 O0 2.798146 1_555
Eu2 O2 2.811951 1_566
Eu2 O6 2.824273 1_566
Eu2 O8 3.046751 1_465
Eu2 O4 3.072454 1_454
Eu3 O5 2.504985 1_555
Eu3 O0 2.611469 1_545
Eu3 O2 2.626152 1_556
Eu3 O8 2.667927 1_555
Eu3 O7 2.747091 1_544
Eu3 O1 2.798146 1_545
Eu3 O3 2.811951 1_555
Eu3 O7 2.824273 1_555
Eu3 O9 3.046756 1_656
Eu3 O5 3.072454 1_656
O0 Ti0 1.966387 1_666
O0 Ti1 1.977851 1_555
O1 Ti0 1.966387 1_565
O1 Ti1 1.977851 1_555
O2 Ti1 1.966387 1_555
O2 Ti0 1.977851 1_655
O3 Ti1 1.966387 1_556
O3 Ti0 1.977851 1_555
O4 Ti2 1.930686 1_556
O4 Ti0 2.012543 1_666
O5 Ti3 1.930686 1_555
O5 Ti0 2.012543 1_555
O6 Ti3 1.930686 1_555
O6 Ti1 2.012543 1_555
O7 Ti2 1.930686 1_556
O7 Ti1 2.012543 1_556
O8 Ti3 1.935330 1_656
O8 Ti2 1.950142 1_545
O9 Ti2 1.935326 1_455
O9 Ti3 1.950146 1_555
