# generated using pymatgen
data_CdGe7N10
_symmetry_space_group_name_H-M   'P 1'
_cell_length_a   7.13652690
_cell_length_b   7.28806000
_cell_length_c   10.32072984
_cell_angle_alpha   90.00000000
_cell_angle_beta   104.35980830
_cell_angle_gamma   90.00000000
_symmetry_Int_Tables_number   1
_chemical_formula_structural   CdGe7N10
_chemical_formula_sum   'Cd2 Ge14 N20'
_cell_volume   520.02506556
_cell_formula_units_Z   2
loop_
 _symmetry_equiv_pos_site_id
 _symmetry_equiv_pos_as_xyz
  1  'x, y, z'
loop_
 _atom_site_type_symbol
 _atom_site_label
 _atom_site_symmetry_multiplicity
 _atom_site_fract_x
 _atom_site_fract_y
 _atom_site_fract_z
 _atom_site_occupancy
  Cd  Cd0  1  0.99485600  0.95201100  0.70265400  1
  Cd  Cd1  1  0.99485600  0.04798900  0.20265400  1
  Ge  Ge0  1  0.54676000  0.97864200  0.82371600  1
  Ge  Ge1  1  0.54676000  0.02135800  0.32371600  1
  Ge  Ge2  1  0.34633700  0.02317000  0.02125300  1
  Ge  Ge3  1  0.34633700  0.97683000  0.52125300  1
  Ge  Ge4  1  0.10821600  0.39773800  0.07202900  1
  Ge  Ge5  1  0.10821600  0.60226200  0.57202900  1
  Ge  Ge6  1  0.66142600  0.36065200  0.99288300  1
  Ge  Ge7  1  0.66142600  0.63934800  0.49288300  1
  Ge  Ge8  1  0.84488900  0.61458900  0.80722900  1
  Ge  Ge9  1  0.84488900  0.38541100  0.30722900  1
  Ge  Ge10  1  0.29961000  0.62043600  0.88100500  1
  Ge  Ge11  1  0.29961000  0.37956400  0.38100500  1
  Ge  Ge12  1  0.48512500  0.36682000  0.68515600  1
  Ge  Ge13  1  0.48512500  0.63318000  0.18515600  1
  N  N0  1  0.76090200  0.85472600  0.80548400  1
  N  N1  1  0.76090200  0.14527400  0.30548400  1
  N  N2  1  0.55718000  0.13115400  0.97184700  1
  N  N3  1  0.55718000  0.86884600  0.47184700  1
  N  N4  1  0.31468700  0.87391300  0.86398400  1
  N  N5  1  0.31468700  0.12608700  0.36398400  1
  N  N6  1  0.13384800  0.14902200  0.03912100  1
  N  N7  1  0.13384800  0.85097800  0.53912100  1
  N  N8  1  0.28955900  0.50967600  0.72006100  1
  N  N9  1  0.28955900  0.49032400  0.22006100  1
  N  N10  1  0.44019900  0.11943200  0.67299500  1
  N  N11  1  0.44019900  0.88056800  0.17299500  1
  N  N12  1  0.88138000  0.39305500  0.13031600  1
  N  N13  1  0.88138000  0.60694500  0.63031600  1
  N  N14  1  0.07675000  0.57300200  0.93542500  1
  N  N15  1  0.07675000  0.42699800  0.43542500  1
  N  N16  1  0.70165700  0.40965800  0.82408000  1
  N  N17  1  0.70165700  0.59034200  0.32408000  1
  N  N18  1  0.49892000  0.54434700  0.02006400  1
  N  N19  1  0.49892000  0.45565300  0.52006400  1
loop_
_geom_bond_atom_site_label_1
_geom_bond_atom_site_label_2
_geom_bond_distance
_geom_bond_site_symmetry_2
Cd0 N7 2.281470 1_655
Cd0 N0 2.301210 1_555
Cd0 N4 2.533964 1_655
Cd0 N13 2.690322 1_555
Cd1 N6 2.281470 1_655
Cd1 N1 2.301210 1_555
Cd1 N5 2.533964 1_655
Cd1 N12 2.690322 1_555
Ge0 N0 1.824592 1_555
Ge0 N10 1.861220 1_565
Ge0 N2 1.876672 1_565
Ge0 N4 1.959515 1_555
Ge1 N1 1.824592 1_555
Ge1 N11 1.861220 1_545
Ge1 N3 1.876672 1_545
Ge1 N5 1.959515 1_555
Ge2 N6 1.820323 1_555
Ge2 N11 1.860406 1_545
Ge2 N2 1.877237 1_554
Ge2 N4 1.920161 1_544
Ge3 N7 1.820323 1_555
Ge3 N10 1.860406 1_565
Ge3 N3 1.877237 1_555
Ge3 N5 1.920161 1_565
Ge4 N6 1.861546 1_555
Ge4 N12 1.861898 1_455
Ge4 N9 1.866439 1_555
Ge4 N14 1.874209 1_554
Ge5 N7 1.861546 1_555
Ge5 N13 1.861898 1_455
Ge5 N8 1.866439 1_555
Ge5 N15 1.874209 1_555
Ge6 N2 1.821555 1_555
Ge6 N18 1.837763 1_556
Ge6 N12 1.851284 1_556
Ge6 N16 1.869026 1_555
Ge7 N3 1.821555 1_555
Ge7 N19 1.837763 1_555
Ge7 N13 1.851284 1_555
Ge7 N17 1.869026 1_555
Ge8 N16 1.842272 1_555
Ge8 N0 1.848563 1_555
Ge8 N14 1.869343 1_655
Ge8 N13 1.908031 1_555
Ge9 N17 1.842272 1_555
Ge9 N1 1.848563 1_555
Ge9 N15 1.869343 1_655
Ge9 N12 1.908031 1_555
Ge10 N8 1.832151 1_555
Ge10 N18 1.837902 1_556
Ge10 N14 1.845961 1_555
Ge10 N4 1.861326 1_555
Ge11 N9 1.832151 1_555
Ge11 N19 1.837902 1_555
Ge11 N15 1.845961 1_555
Ge11 N5 1.861326 1_555
Ge12 N10 1.830114 1_555
Ge12 N8 1.846894 1_555
Ge12 N19 1.848032 1_555
Ge12 N16 1.855306 1_555
Ge13 N11 1.830114 1_555
Ge13 N9 1.846894 1_555
Ge13 N18 1.848032 1_555
Ge13 N17 1.855306 1_555
