# generated using pymatgen
data_CsSbTeO6
_symmetry_space_group_name_H-M   'P 1'
_cell_length_a   7.32879306
_cell_length_b   7.32879306
_cell_length_c   7.32879306
_cell_angle_alpha   120.37355281
_cell_angle_beta   119.75805570
_cell_angle_gamma   89.88688956
_symmetry_Int_Tables_number   1
_chemical_formula_structural   CsSbTeO6
_chemical_formula_sum   'Cs2 Sb2 Te2 O12'
_cell_volume   278.05684012
_cell_formula_units_Z   2
loop_
 _symmetry_equiv_pos_site_id
 _symmetry_equiv_pos_as_xyz
  1  'x, y, z'
loop_
 _atom_site_type_symbol
 _atom_site_label
 _atom_site_symmetry_multiplicity
 _atom_site_fract_x
 _atom_site_fract_y
 _atom_site_fract_z
 _atom_site_occupancy
  Cs  Cs0  1  0.37409300  0.62409300  0.75000000  1
  Cs  Cs1  1  0.62590700  0.37590700  0.25000000  1
  Sb  Sb0  1  0.00000000  0.00000000  0.50000000  1
  Sb  Sb1  1  0.00000000  0.50000000  0.00000000  1
  Te  Te0  1  0.00000000  0.00000000  0.00000000  1
  Te  Te1  1  0.50000000  0.00000000  0.50000000  1
  O  O0  1  0.32078500  0.07078500  0.25000000  1
  O  O1  1  0.92609400  0.67609400  0.25000000  1
  O  O2  1  0.32736900  0.68309300  0.25581900  1
  O  O3  1  0.92727400  0.07155100  0.24418100  1
  O  O4  1  0.32736900  0.07155100  0.64427700  1
  O  O5  1  0.92727400  0.68309300  0.85572300  1
  O  O6  1  0.67921500  0.92921500  0.75000000  1
  O  O7  1  0.07390600  0.32390600  0.75000000  1
  O  O8  1  0.67263100  0.31690700  0.74418100  1
  O  O9  1  0.07272600  0.92844900  0.75581900  1
  O  O10  1  0.67263100  0.92844900  0.35572300  1
  O  O11  1  0.07272600  0.31690700  0.14427700  1
loop_
_geom_bond_atom_site_label_1
_geom_bond_atom_site_label_2
_geom_bond_distance
_geom_bond_site_symmetry_2
Cs0 O7 3.114351 1_555
Cs0 O10 3.135800 1_556
Cs0 O9 3.135800 1_555
Cs0 O11 3.135800 1_555
Cs0 O8 3.135805 1_555
Cs0 O6 3.165550 1_555
Cs1 O1 3.114351 1_555
Cs1 O4 3.135800 1_554
Cs1 O3 3.135800 1_555
Cs1 O5 3.135800 1_555
Cs1 O2 3.135805 1_555
Cs1 O0 3.165550 1_555
O0 Te0 1.980110 1_555
O0 Te1 1.980110 1_555
O1 Sb1 1.976619 1_655
O1 Sb0 1.976619 1_665
O2 Te1 1.938635 1_565
O2 Sb1 2.018720 1_555
O3 Te0 1.938634 1_655
O3 Sb0 2.018725 1_655
O4 Te1 1.938641 1_555
O4 Sb0 2.018718 1_555
O5 Te0 1.938634 1_666
O5 Sb1 2.018725 1_656
O6 Te0 1.980110 1_666
O6 Te1 1.980110 1_565
O7 Sb0 1.976619 1_555
O7 Sb1 1.976619 1_556
O8 Te1 1.938635 1_555
O8 Sb1 2.018720 1_656
O9 Te0 1.938634 1_566
O9 Sb0 2.018725 1_565
O10 Te1 1.938641 1_565
O10 Sb0 2.018718 1_665
O11 Te0 1.938634 1_555
O11 Sb1 2.018725 1_555
