# generated using pymatgen
data_Sm2S3
_symmetry_space_group_name_H-M   'P 1'
_cell_length_a   3.98836771
_cell_length_b   7.43455468
_cell_length_c   15.47437526
_cell_angle_alpha   90.00000000
_cell_angle_beta   90.00000000
_cell_angle_gamma   90.00000000
_symmetry_Int_Tables_number   1
_chemical_formula_structural   Sm2S3
_chemical_formula_sum   'Sm8 S12'
_cell_volume   458.84211820
_cell_formula_units_Z   4
loop_
 _symmetry_equiv_pos_site_id
 _symmetry_equiv_pos_as_xyz
  1  'x, y, z'
loop_
 _atom_site_type_symbol
 _atom_site_label
 _atom_site_symmetry_multiplicity
 _atom_site_fract_x
 _atom_site_fract_y
 _atom_site_fract_z
 _atom_site_occupancy
  Sm  Sm0  1  0.25000000  0.64334165  0.29565405  1
  Sm  Sm1  1  0.75000000  0.35665835  0.70434595  1
  Sm  Sm2  1  0.25000000  0.14334165  0.20434595  1
  Sm  Sm3  1  0.75000000  0.85665835  0.79565405  1
  Sm  Sm4  1  0.25000000  0.26546606  0.95626059  1
  Sm  Sm5  1  0.75000000  0.73453394  0.04373941  1
  Sm  Sm6  1  0.25000000  0.76546606  0.54373941  1
  Sm  Sm7  1  0.75000000  0.23453394  0.45626059  1
  S  S0  1  0.25000000  0.87466108  0.93265934  1
  S  S1  1  0.75000000  0.12533892  0.06734066  1
  S  S2  1  0.25000000  0.37466108  0.56734066  1
  S  S3  1  0.75000000  0.62533892  0.43265934  1
  S  S4  1  0.25000000  0.64798601  0.71867229  1
  S  S5  1  0.75000000  0.35201399  0.28132771  1
  S  S6  1  0.25000000  0.14798601  0.78132771  1
  S  S7  1  0.75000000  0.85201399  0.21867229  1
  S  S8  1  0.75000000  0.99018991  0.60856718  1
  S  S9  1  0.25000000  0.00981009  0.39143282  1
  S  S10  1  0.75000000  0.49018991  0.89143282  1
  S  S11  1  0.25000000  0.50981009  0.10856718  1
loop_
_geom_bond_atom_site_label_1
_geom_bond_atom_site_label_2
_geom_bond_distance
_geom_bond_site_symmetry_2
S0 Sm5 2.831374 1_456
S0 Sm5 2.831374 1_556
S0 Sm3 2.913655 1_455
S0 Sm3 2.913655 1_555
S0 Sm4 2.928325 1_565
S1 Sm4 2.831374 1_554
S1 Sm4 2.831374 1_654
S1 Sm2 2.913655 1_655
S1 Sm2 2.913655 1_555
S1 Sm5 2.928325 1_545
S2 Sm7 2.831374 1_555
S2 Sm7 2.831374 1_455
S2 Sm1 2.913655 1_555
S2 Sm1 2.913655 1_455
S2 Sm6 2.928325 1_555
S3 Sm6 2.831374 1_555
S3 Sm6 2.831374 1_655
S3 Sm0 2.913655 1_555
S3 Sm0 2.913655 1_655
S3 Sm7 2.928325 1_555
S4 Sm3 2.793319 1_555
S4 Sm3 2.793319 1_455
S4 Sm6 2.844393 1_555
S4 Sm1 2.952457 1_455
S4 Sm1 2.952457 1_555
S5 Sm2 2.793319 1_555
S5 Sm2 2.793319 1_655
S5 Sm7 2.844393 1_555
S5 Sm0 2.952457 1_655
S5 Sm0 2.952457 1_555
S6 Sm1 2.793319 1_455
S6 Sm1 2.793319 1_555
S6 Sm4 2.844393 1_555
S6 Sm3 2.952457 1_445
S6 Sm3 2.952457 1_545
S7 Sm0 2.793319 1_555
S7 Sm0 2.793319 1_655
S7 Sm5 2.844393 1_555
S7 Sm2 2.952457 1_565
S7 Sm2 2.952457 1_665
S8 Sm6 2.788266 1_655
S8 Sm6 2.788266 1_555
S8 Sm7 2.975691 1_565
S8 Sm3 3.060535 1_555
S8 Sm1 3.101569 1_565
S9 Sm7 2.788266 1_555
S9 Sm7 2.788266 1_455
S9 Sm6 2.975691 1_545
S9 Sm2 3.060535 1_555
S9 Sm0 3.101569 1_545
S10 Sm4 2.788266 1_555
S10 Sm4 2.788266 1_655
S10 Sm5 2.975691 1_556
S10 Sm1 3.060535 1_555
S10 Sm3 3.101569 1_555
S11 Sm5 2.788266 1_455
S11 Sm5 2.788266 1_555
S11 Sm4 2.975691 1_554
S11 Sm0 3.060535 1_555
S11 Sm2 3.101569 1_555
