# generated using pymatgen
data_SrH4Ir(OF3)2
_symmetry_space_group_name_H-M   'P 1'
_cell_length_a   10.19687000
_cell_length_b   6.61440400
_cell_length_c   11.76981026
_cell_angle_alpha   69.88644597
_cell_angle_beta   90.00000000
_cell_angle_gamma   90.00000000
_symmetry_Int_Tables_number   1
_chemical_formula_structural   SrH4Ir(OF3)2
_chemical_formula_sum   'Sr4 H16 Ir4 O8 F24'
_cell_volume   745.41586798
_cell_formula_units_Z   4
loop_
 _symmetry_equiv_pos_site_id
 _symmetry_equiv_pos_as_xyz
  1  'x, y, z'
loop_
 _atom_site_type_symbol
 _atom_site_label
 _atom_site_symmetry_multiplicity
 _atom_site_fract_x
 _atom_site_fract_y
 _atom_site_fract_z
 _atom_site_occupancy
  Sr  Sr0  1  0.70809000  0.25225000  0.95248500  1
  Sr  Sr1  1  0.79191000  0.25225000  0.45248500  1
  Sr  Sr2  1  0.29191000  0.74775000  0.04751500  1
  Sr  Sr3  1  0.20809000  0.74775000  0.54751500  1
  H  H0  1  0.80987400  0.71189800  0.95727700  1
  H  H1  1  0.69012600  0.71189800  0.45727700  1
  H  H2  1  0.19012600  0.28810200  0.04272300  1
  H  H3  1  0.30987400  0.28810200  0.54272300  1
  H  H4  1  0.71971700  0.60404500  0.07185100  1
  H  H5  1  0.78028300  0.60404500  0.57185100  1
  H  H6  1  0.28028300  0.39595500  0.92814900  1
  H  H7  1  0.21971700  0.39595500  0.42814900  1
  H  H8  1  0.47657200  0.66048000  0.34942100  1
  H  H9  1  0.02342800  0.66048000  0.84942100  1
  H  H10  1  0.52342800  0.33952000  0.65057900  1
  H  H11  1  0.97657200  0.33952000  0.15057900  1
  H  H12  1  0.93338400  0.43648000  0.13450600  1
  H  H13  1  0.56661600  0.43648000  0.63450600  1
  H  H14  1  0.06661600  0.56352000  0.86549400  1
  H  H15  1  0.43338400  0.56352000  0.36549400  1
  Ir  Ir0  1  0.03855000  0.15791600  0.76115700  1
  Ir  Ir1  1  0.46145000  0.15791600  0.26115700  1
  Ir  Ir2  1  0.96145000  0.84208400  0.23884300  1
  Ir  Ir3  1  0.53855000  0.84208400  0.73884300  1
  O  O0  1  0.75985400  0.58330600  0.00178200  1
  O  O1  1  0.74014600  0.58330600  0.50178200  1
  O  O2  1  0.24014600  0.41669400  0.99821800  1
  O  O3  1  0.25985400  0.41669400  0.49821800  1
  O  O4  1  0.53339400  0.92509000  0.03940300  1
  O  O5  1  0.96660600  0.92509000  0.53940300  1
  O  O6  1  0.46660600  0.07491000  0.96059700  1
  O  O7  1  0.03339400  0.07491000  0.46059700  1
  F  F0  1  0.15659400  0.40527100  0.72571900  1
  F  F1  1  0.34340600  0.40527100  0.22571900  1
  F  F2  1  0.84340600  0.59472900  0.27428100  1
  F  F3  1  0.65659400  0.59472900  0.77428100  1
  F  F4  1  0.91593100  0.29607000  0.83977200  1
  F  F5  1  0.58406900  0.29607000  0.33977200  1
  F  F6  1  0.08406900  0.70393000  0.16022800  1
  F  F7  1  0.41593100  0.70393000  0.66022800  1
  F  F8  1  0.91371800  0.92829800  0.79890400  1
  F  F9  1  0.58628200  0.92829800  0.29890400  1
  F  F10  1  0.08628200  0.07170200  0.20109600  1
  F  F11  1  0.41371800  0.07170200  0.70109600  1
  F  F12  1  0.15405200  0.01019900  0.68286300  1
  F  F13  1  0.34594800  0.01019900  0.18286300  1
  F  F14  1  0.84594800  0.98980100  0.31713700  1
  F  F15  1  0.65405200  0.98980100  0.81713700  1
  F  F16  1  0.93693200  0.30669100  0.61170900  1
  F  F17  1  0.56306800  0.30669100  0.11170900  1
  F  F18  1  0.06306800  0.69330900  0.38829100  1
  F  F19  1  0.43693200  0.69330900  0.88829100  1
  F  F20  1  0.14177800  0.01906600  0.91233000  1
  F  F21  1  0.35822200  0.01906600  0.41233000  1
  F  F22  1  0.85822200  0.98093400  0.08767000  1
  F  F23  1  0.64177800  0.98093400  0.58767000  1
loop_
_geom_bond_atom_site_label_1
_geom_bond_atom_site_label_2
_geom_bond_distance
_geom_bond_site_symmetry_2
H0 O0 0.975479 1_556
H1 O1 0.975479 1_555
H2 O2 0.975479 1_554
H3 O3 0.975479 1_555
H4 O0 0.971728 1_555
H5 O1 0.971728 1_555
H6 O2 0.971728 1_555
H7 O3 0.971728 1_555
H10 H13 0.746719 1_555
H11 H12 0.746719 1_555
H14 H9 0.746719 1_555
H15 H8 0.746719 1_555
O0 Sr0 2.506796 1_554
O1 Sr1 2.506796 1_555
O2 Sr2 2.506796 1_556
O3 Sr3 2.506796 1_555
O4 O6 1.293822 1_564
O4 Sr2 2.715020 1_555
O4 Sr0 2.716612 1_564
O5 O7 1.293822 1_665
O5 Sr3 2.715020 1_655
O5 Sr1 2.716612 1_565
O6 Sr0 2.715020 1_555
O6 Sr2 2.716612 1_546
O7 Sr1 2.715020 1_455
O7 Sr3 2.716612 1_545
F0 Ir0 1.957119 1_555
F0 Sr3 2.557093 1_555
F1 Ir1 1.957119 1_555
F1 Sr2 2.557093 1_555
F2 Ir2 1.957119 1_555
F2 Sr1 2.557093 1_555
F3 Ir3 1.957119 1_555
F3 Sr0 2.557093 1_555
F4 Ir0 1.958582 1_655
F4 Sr0 2.463941 1_555
F5 Ir1 1.958582 1_555
F5 Sr1 2.463941 1_555
F6 Ir2 1.958582 1_455
F6 Sr2 2.463941 1_555
F7 Ir3 1.958582 1_555
F7 Sr3 2.463941 1_555
F8 Ir0 1.913186 1_665
F9 Ir1 1.913186 1_565
F10 Ir2 1.913186 1_445
F11 Ir3 1.913186 1_545
F12 Ir0 1.951967 1_555
F12 Sr3 2.785098 1_545
F13 Ir1 1.951967 1_555
F13 Sr2 2.785098 1_545
F14 Ir2 1.951967 1_555
F14 Sr1 2.785098 1_565
F15 Ir3 1.951967 1_555
F15 Sr0 2.785098 1_565
F16 Ir0 1.986346 1_655
F16 Sr1 2.508499 1_555
F17 Ir1 1.986346 1_555
F17 Sr0 2.508499 1_554
F18 Ir2 1.986346 1_455
F18 Sr3 2.508499 1_555
F19 Ir3 1.986346 1_555
F19 Sr2 2.508499 1_556
F20 Ir0 1.998349 1_555
F20 Sr2 2.476273 1_546
F21 Ir1 1.998349 1_555
F21 Sr3 2.476273 1_545
F22 Ir2 1.998349 1_555
F22 Sr0 2.476273 1_564
F23 Ir3 1.998349 1_555
F23 Sr1 2.476273 1_565
