# generated using pymatgen
data_ZnCoBiO5
_symmetry_space_group_name_H-M   'P 1'
_cell_length_a   5.65272100
_cell_length_b   10.76354200
_cell_length_c   15.07638700
_cell_angle_alpha   90.00000000
_cell_angle_beta   90.00000000
_cell_angle_gamma   90.00000000
_symmetry_Int_Tables_number   1
_chemical_formula_structural   ZnCoBiO5
_chemical_formula_sum   'Zn8 Co8 Bi8 O40'
_cell_volume   917.29713562
_cell_formula_units_Z   8
loop_
 _symmetry_equiv_pos_site_id
 _symmetry_equiv_pos_as_xyz
  1  'x, y, z'
loop_
 _atom_site_type_symbol
 _atom_site_label
 _atom_site_symmetry_multiplicity
 _atom_site_fract_x
 _atom_site_fract_y
 _atom_site_fract_z
 _atom_site_occupancy
  Zn  Zn0  1  0.42140100  0.35828200  0.52601800  1
  Zn  Zn1  1  0.92140100  0.14171800  0.52601800  1
  Zn  Zn2  1  0.92140100  0.64171800  0.97398200  1
  Zn  Zn3  1  0.07859900  0.35828200  0.02601800  1
  Zn  Zn4  1  0.57859900  0.14171800  0.02601800  1
  Zn  Zn5  1  0.07859900  0.85828200  0.47398200  1
  Zn  Zn6  1  0.57859900  0.64171800  0.47398200  1
  Zn  Zn7  1  0.42140100  0.85828200  0.97398200  1
  Co  Co0  1  0.92097800  0.38876800  0.40461400  1
  Co  Co1  1  0.57902200  0.88876800  0.59538600  1
  Co  Co2  1  0.07902200  0.61123200  0.59538600  1
  Co  Co3  1  0.42097800  0.11123200  0.40461400  1
  Co  Co4  1  0.07902200  0.11123200  0.90461400  1
  Co  Co5  1  0.92097800  0.88876800  0.09538600  1
  Co  Co6  1  0.57902200  0.38876800  0.90461400  1
  Co  Co7  1  0.42097800  0.61123200  0.09538600  1
  Bi  Bi0  1  0.02944500  0.84311900  0.77359200  1
  Bi  Bi1  1  0.97055500  0.15688100  0.22640800  1
  Bi  Bi2  1  0.47055500  0.34311900  0.22640800  1
  Bi  Bi3  1  0.97055500  0.65688100  0.27359200  1
  Bi  Bi4  1  0.52944500  0.15688100  0.72640800  1
  Bi  Bi5  1  0.52944500  0.65688100  0.77359200  1
  Bi  Bi6  1  0.47055500  0.84311900  0.27359200  1
  Bi  Bi7  1  0.02944500  0.34311900  0.72640800  1
  O  O0  1  0.79534200  0.29742800  0.31355600  1
  O  O1  1  0.33323400  0.04304900  0.95300200  1
  O  O2  1  0.16676600  0.54304900  0.04699800  1
  O  O3  1  0.35703100  0.80228900  0.84797000  1
  O  O4  1  0.14296900  0.30228900  0.15203000  1
  O  O5  1  0.79534200  0.79742800  0.18644400  1
  O  O6  1  0.14296900  0.80228900  0.34797000  1
  O  O7  1  0.70465800  0.79742800  0.68644400  1
  O  O8  1  0.33323400  0.54304900  0.54699800  1
  O  O9  1  0.20465800  0.70257200  0.68644400  1
  O  O10  1  0.70465800  0.29742800  0.81355600  1
  O  O11  1  0.58559100  0.19682200  0.48391700  1
  O  O12  1  0.83323400  0.95695100  0.54699800  1
  O  O13  1  0.64296900  0.69771100  0.34797000  1
  O  O14  1  0.10854500  0.99324100  0.15348000  1
  O  O15  1  0.83323400  0.45695100  0.95300200  1
  O  O16  1  0.20465800  0.20257200  0.81355600  1
  O  O17  1  0.85703100  0.19771100  0.65203000  1
  O  O18  1  0.08559100  0.80317800  0.01608300  1
  O  O19  1  0.16676600  0.04304900  0.45300200  1
  O  O20  1  0.41440900  0.80317800  0.51608300  1
  O  O21  1  0.89145500  0.00675900  0.84652000  1
  O  O22  1  0.64296900  0.19771100  0.15203000  1
  O  O23  1  0.60854500  0.00675900  0.34652000  1
  O  O24  1  0.41440900  0.30317800  0.98391700  1
  O  O25  1  0.08559100  0.30317800  0.48391700  1
  O  O26  1  0.66676600  0.45695100  0.45300200  1
  O  O27  1  0.66676600  0.95695100  0.04699800  1
  O  O28  1  0.60854500  0.50675900  0.15348000  1
  O  O29  1  0.91440900  0.69682200  0.51608300  1
  O  O30  1  0.91440900  0.19682200  0.98391700  1
  O  O31  1  0.58559100  0.69682200  0.01608300  1
  O  O32  1  0.89145500  0.50675900  0.65348000  1
  O  O33  1  0.85703100  0.69771100  0.84797000  1
  O  O34  1  0.35703100  0.30228900  0.65203000  1
  O  O35  1  0.10854500  0.49324100  0.34652000  1
  O  O36  1  0.39145500  0.49324100  0.84652000  1
  O  O37  1  0.29534200  0.20257200  0.31355600  1
  O  O38  1  0.39145500  0.99324100  0.65348000  1
  O  O39  1  0.29534200  0.70257200  0.18644400  1
loop_
_geom_bond_atom_site_label_1
_geom_bond_atom_site_label_2
_geom_bond_distance
_geom_bond_site_symmetry_2
Co0 O26 1.770799 1_555
Co0 O25 1.773139 1_655
Co0 O35 1.776448 1_655
Co0 O0 1.831825 1_555
Co1 O12 1.770799 1_555
Co1 O20 1.773139 1_555
Co1 O38 1.776448 1_555
Co1 O7 1.831825 1_555
Co2 O8 1.770799 1_555
Co2 O29 1.773139 1_455
Co2 O32 1.776448 1_455
Co2 O9 1.831825 1_555
Co3 O19 1.770799 1_555
Co3 O11 1.773139 1_555
Co3 O23 1.776448 1_555
Co3 O37 1.831825 1_555
Co4 O1 1.770799 1_555
Co4 O30 1.773139 1_455
Co4 O21 1.776448 1_455
Co4 O16 1.831825 1_555
Co5 O27 1.770799 1_555
Co5 O18 1.773139 1_655
Co5 O14 1.776448 1_655
Co5 O5 1.831825 1_555
Co6 O15 1.770799 1_555
Co6 O24 1.773139 1_555
Co6 O36 1.776448 1_555
Co6 O10 1.831825 1_555
Co7 O2 1.770799 1_555
Co7 O31 1.773139 1_555
Co7 O28 1.776448 1_555
Co7 O39 1.831825 1_555
Bi0 O33 2.157972 1_455
Bi0 O3 2.208971 1_555
Bi0 O21 2.218028 1_465
Bi0 O9 2.235115 1_555
Bi0 O7 2.310579 1_455
Bi1 O4 2.157972 1_655
Bi1 O22 2.208971 1_555
Bi1 O14 2.218028 1_645
Bi1 O0 2.235115 1_555
Bi1 O37 2.310579 1_655
Bi2 O22 2.157972 1_555
Bi2 O4 2.208971 1_555
Bi2 O28 2.218028 1_555
Bi2 O37 2.235115 1_555
Bi2 O0 2.310579 1_555
Bi3 O6 2.157972 1_655
Bi3 O13 2.208971 1_555
Bi3 O35 2.218028 1_655
Bi3 O5 2.235115 1_555
Bi3 O39 2.310579 1_655
Bi4 O34 2.157972 1_555
Bi4 O17 2.208971 1_555
Bi4 O38 2.218028 1_545
Bi4 O10 2.235115 1_555
Bi4 O16 2.310579 1_555
Bi5 O3 2.157972 1_555
Bi5 O33 2.208971 1_555
Bi5 O36 2.218028 1_555
Bi5 O7 2.235115 1_555
Bi5 O9 2.310579 1_555
Bi6 O13 2.157972 1_555
Bi6 O6 2.208971 1_555
Bi6 O23 2.218028 1_565
Bi6 O39 2.235115 1_555
Bi6 O5 2.310579 1_555
Bi7 O17 2.157972 1_455
Bi7 O34 2.208971 1_555
Bi7 O32 2.218028 1_455
Bi7 O16 2.235115 1_555
Bi7 O10 2.310579 1_455
O1 Zn4 2.064804 1_556
O1 Zn7 2.074500 1_545
O2 Zn2 2.064804 1_454
O2 Zn3 2.074500 1_555
O3 Zn7 2.026052 1_555
O4 Zn3 2.026052 1_555
O6 Zn5 2.026052 1_555
O8 Zn6 2.064804 1_555
O8 Zn0 2.074500 1_555
O11 Zn0 2.069909 1_555
O11 Zn1 2.087578 1_555
O12 Zn5 2.064804 1_655
O12 Zn1 2.074500 1_565
O13 Zn6 2.026052 1_555
O15 Zn3 2.064804 1_656
O15 Zn2 2.074500 1_555
O17 Zn1 2.026052 1_555
O18 Zn2 2.069909 1_454
O18 Zn7 2.087578 1_554
O19 Zn1 2.064804 1_455
O19 Zn5 2.074500 1_545
O20 Zn6 2.069909 1_555
O20 Zn5 2.087578 1_555
O22 Zn4 2.026052 1_555
O24 Zn4 2.069909 1_556
O24 Zn3 2.087578 1_556
O25 Zn1 2.069909 1_455
O25 Zn0 2.087578 1_555
O26 Zn0 2.064804 1_555
O26 Zn6 2.074500 1_555
O27 Zn7 2.064804 1_554
O27 Zn4 2.074500 1_565
O29 Zn5 2.069909 1_655
O29 Zn6 2.087578 1_555
O30 Zn3 2.069909 1_656
O30 Zn4 2.087578 1_556
O31 Zn7 2.069909 1_554
O31 Zn2 2.087578 1_554
O33 Zn2 2.026052 1_555
O34 Zn0 2.026052 1_555
