# generated using pymatgen
data_Zn2Ag2O5
_symmetry_space_group_name_H-M   'P 1'
_cell_length_a   3.67748900
_cell_length_b   6.33255700
_cell_length_c   10.93302200
_cell_angle_alpha   90.00000000
_cell_angle_beta   90.00000000
_cell_angle_gamma   90.00000000
_symmetry_Int_Tables_number   1
_chemical_formula_structural   Zn2Ag2O5
_chemical_formula_sum   'Zn4 Ag4 O10'
_cell_volume   254.60721825
_cell_formula_units_Z   2
loop_
 _symmetry_equiv_pos_site_id
 _symmetry_equiv_pos_as_xyz
  1  'x, y, z'
loop_
 _atom_site_type_symbol
 _atom_site_label
 _atom_site_symmetry_multiplicity
 _atom_site_fract_x
 _atom_site_fract_y
 _atom_site_fract_z
 _atom_site_occupancy
  Zn  Zn0  1  0.50000000  0.32584100  0.85847300  1
  Zn  Zn1  1  0.50000000  0.64426500  0.68157100  1
  Zn  Zn2  1  0.50000000  0.82584100  0.14152700  1
  Zn  Zn3  1  0.50000000  0.14426500  0.31842900  1
  Ag  Ag0  1  0.00000000  0.34732600  0.09654100  1
  Ag  Ag1  1  0.00000000  0.73976000  0.41372000  1
  Ag  Ag2  1  0.00000000  0.23976000  0.58628000  1
  Ag  Ag3  1  0.00000000  0.84732600  0.90345900  1
  O  O0  1  0.00000000  0.44961900  0.27914400  1
  O  O1  1  0.00000000  0.26548500  0.36087600  1
  O  O2  1  0.00000000  0.76548500  0.63912400  1
  O  O3  1  0.00000000  0.23404900  0.91513500  1
  O  O4  1  0.50000000  0.33834000  0.66980900  1
  O  O5  1  0.50000000  0.65149800  0.86158200  1
  O  O6  1  0.00000000  0.73404900  0.08486500  1
  O  O7  1  0.50000000  0.15149800  0.13841800  1
  O  O8  1  0.00000000  0.94961900  0.72085600  1
  O  O9  1  0.50000000  0.83834000  0.33019100  1
loop_
_geom_bond_atom_site_label_1
_geom_bond_atom_site_label_2
_geom_bond_distance
_geom_bond_site_symmetry_2
Ag0 O0 2.098866 1_555
Ag0 O3 2.109054 1_554
Ag0 O7 2.264603 1_555
Ag0 O7 2.264603 1_455
Ag0 O6 2.452270 1_555
Ag1 O9 2.145848 1_455
Ag1 O9 2.145848 1_555
Ag1 O0 2.353845 1_555
Ag1 O2 2.469725 1_555
Ag2 O4 2.145848 1_555
Ag2 O4 2.145848 1_455
Ag2 O8 2.353845 1_545
Ag2 O1 2.469725 1_555
Ag3 O8 2.098866 1_555
Ag3 O6 2.109054 1_556
Ag3 O5 2.264603 1_455
Ag3 O5 2.264603 1_555
Ag3 O3 2.452270 1_565
O0 O1 1.469057 1_555
O1 Zn3 2.045875 1_455
O1 Zn3 2.045875 1_555
O2 O8 1.469057 1_555
O2 Zn1 2.045875 1_455
O2 Zn1 2.045875 1_555
O3 Zn0 2.025495 1_455
O3 Zn0 2.025495 1_555
O4 Zn1 1.941551 1_555
O4 Zn0 2.064186 1_555
O5 Zn1 1.968597 1_555
O5 Zn0 2.062522 1_555
O6 Zn2 2.025495 1_555
O6 Zn2 2.025495 1_455
O7 Zn3 1.968597 1_555
O7 Zn2 2.062522 1_545
O9 Zn3 1.941551 1_565
O9 Zn2 2.064186 1_555
