# generated using pymatgen
data_GdCrO5
_symmetry_space_group_name_H-M   'P 1'
_cell_length_a   8.36343600
_cell_length_b   11.52149800
_cell_length_c   11.32031702
_cell_angle_alpha   90.00000000
_cell_angle_beta   131.56072056
_cell_angle_gamma   90.00000000
_symmetry_Int_Tables_number   1
_chemical_formula_structural   GdCrO5
_chemical_formula_sum   'Gd8 Cr8 O40'
_cell_volume   816.20788342
_cell_formula_units_Z   8
loop_
 _symmetry_equiv_pos_site_id
 _symmetry_equiv_pos_as_xyz
  1  'x, y, z'
loop_
 _atom_site_type_symbol
 _atom_site_label
 _atom_site_symmetry_multiplicity
 _atom_site_fract_x
 _atom_site_fract_y
 _atom_site_fract_z
 _atom_site_occupancy
  Gd  Gd0  1  0.78563000  0.94748200  0.65666700  1
  Gd  Gd1  1  0.21437000  0.44748200  0.84333300  1
  Gd  Gd2  1  0.21437000  0.05251800  0.34333300  1
  Gd  Gd3  1  0.78563000  0.55251800  0.15666700  1
  Gd  Gd4  1  0.26888700  0.92380800  0.68536700  1
  Gd  Gd5  1  0.73111300  0.42380800  0.81463300  1
  Gd  Gd6  1  0.73111300  0.07619200  0.31463300  1
  Gd  Gd7  1  0.26888700  0.57619200  0.18536700  1
  Cr  Cr0  1  0.85900900  0.67560300  0.49986500  1
  Cr  Cr1  1  0.14099100  0.17560300  0.00013500  1
  Cr  Cr2  1  0.14099100  0.32439700  0.50013500  1
  Cr  Cr3  1  0.85900900  0.82439700  0.99986500  1
  Cr  Cr4  1  0.40298400  0.69117200  0.54257500  1
  Cr  Cr5  1  0.59701600  0.19117200  0.95742500  1
  Cr  Cr6  1  0.59701600  0.30882800  0.45742500  1
  Cr  Cr7  1  0.40298400  0.80882800  0.04257500  1
  O  O0  1  0.90381200  0.81345700  0.56673600  1
  O  O1  1  0.09618800  0.31345700  0.93326400  1
  O  O2  1  0.09618800  0.18654300  0.43326400  1
  O  O3  1  0.90381200  0.68654300  0.06673600  1
  O  O4  1  0.61742200  0.63389200  0.42161400  1
  O  O5  1  0.38257800  0.13389200  0.07838600  1
  O  O6  1  0.38257800  0.36610800  0.57838600  1
  O  O7  1  0.61742200  0.86610800  0.92161400  1
  O  O8  1  0.86764000  0.66838000  0.35873800  1
  O  O9  1  0.13236000  0.16838000  0.14126200  1
  O  O10  1  0.13236000  0.33162000  0.64126200  1
  O  O11  1  0.86764000  0.83162000  0.85873800  1
  O  O12  1  0.04111800  0.58830300  0.64993900  1
  O  O13  1  0.95888200  0.08830300  0.85006100  1
  O  O14  1  0.95888200  0.41169700  0.35006100  1
  O  O15  1  0.04111800  0.91169700  0.14993900  1
  O  O16  1  0.28867700  0.73880300  0.60856300  1
  O  O17  1  0.71132300  0.23880300  0.89143700  1
  O  O18  1  0.71132300  0.26119700  0.39143700  1
  O  O19  1  0.28867700  0.76119700  0.10856300  1
  O  O20  1  0.22310700  0.62290600  0.37004600  1
  O  O21  1  0.77689300  0.12290600  0.12995400  1
  O  O22  1  0.77689300  0.37709400  0.62995400  1
  O  O23  1  0.22310700  0.87709400  0.87004600  1
  O  O24  1  0.49669400  0.81165800  0.51865300  1
  O  O25  1  0.50330600  0.31165800  0.98134700  1
  O  O26  1  0.50330600  0.18834200  0.48134700  1
  O  O27  1  0.49669400  0.68834200  0.01865300  1
  O  O28  1  0.59614300  0.60066100  0.67550400  1
  O  O29  1  0.40385700  0.10066100  0.82449600  1
  O  O30  1  0.40385700  0.39933900  0.32449600  1
  O  O31  1  0.59614300  0.89933900  0.17550400  1
  O  O32  1  0.97336000  0.03607600  0.58643200  1
  O  O33  1  0.02664000  0.53607600  0.91356800  1
  O  O34  1  0.02664000  0.96392400  0.41356800  1
  O  O35  1  0.97336000  0.46392400  0.08643200  1
  O  O36  1  0.53155100  0.01793400  0.38929000  1
  O  O37  1  0.46844900  0.51793400  0.11071000  1
  O  O38  1  0.46844900  0.98206600  0.61071000  1
  O  O39  1  0.53155100  0.48206600  0.88929000  1
loop_
_geom_bond_atom_site_label_1
_geom_bond_atom_site_label_2
_geom_bond_distance
_geom_bond_site_symmetry_2
Gd0 O13 2.305625 1_565
Gd0 O11 2.324511 1_555
Gd0 O38 2.373868 1_555
Gd0 O24 2.391647 1_555
Gd0 O0 2.394356 1_555
Gd0 O32 2.407383 1_565
Gd0 O36 2.408715 1_565
Gd1 O12 2.305625 1_555
Gd1 O10 2.324511 1_555
Gd1 O39 2.373868 1_555
Gd1 O25 2.391647 1_555
Gd1 O1 2.394356 1_555
Gd1 O33 2.407383 1_555
Gd1 O37 2.408715 1_556
Gd2 O15 2.305625 1_545
Gd2 O9 2.324511 1_555
Gd2 O36 2.373868 1_555
Gd2 O26 2.391647 1_555
Gd2 O2 2.394356 1_555
Gd2 O34 2.407383 1_545
Gd2 O38 2.408715 1_545
Gd3 O14 2.305625 1_555
Gd3 O8 2.324511 1_555
Gd3 O37 2.373868 1_555
Gd3 O27 2.391647 1_555
Gd3 O3 2.394356 1_555
Gd3 O35 2.407383 1_555
Gd3 O39 2.408715 1_554
Gd4 O32 2.315928 1_465
Gd4 O34 2.348249 1_555
Gd4 O16 2.348980 1_555
Gd4 O29 2.355364 1_565
Gd4 O7 2.397432 1_555
Gd4 O38 2.412884 1_555
Gd4 O23 2.422612 1_555
Gd4 O0 2.702223 1_455
Gd5 O33 2.315928 1_655
Gd5 O35 2.348249 1_556
Gd5 O17 2.348980 1_555
Gd5 O28 2.355364 1_555
Gd5 O6 2.397432 1_555
Gd5 O39 2.412884 1_555
Gd5 O22 2.422612 1_555
Gd5 O1 2.702223 1_655
Gd6 O34 2.315928 1_645
Gd6 O32 2.348249 1_555
Gd6 O18 2.348980 1_555
Gd6 O31 2.355364 1_545
Gd6 O5 2.397432 1_555
Gd6 O36 2.412884 1_555
Gd6 O21 2.422612 1_555
Gd6 O2 2.702223 1_655
Gd7 O35 2.315928 1_455
Gd7 O33 2.348249 1_554
Gd7 O19 2.348980 1_555
Gd7 O30 2.355364 1_555
Gd7 O4 2.397432 1_555
Gd7 O37 2.412884 1_555
Gd7 O20 2.422612 1_555
Gd7 O3 2.702223 1_455
Cr0 O8 1.648479 1_555
Cr0 O4 1.650237 1_555
Cr0 O12 1.668664 1_655
Cr0 O0 1.691078 1_555
Cr1 O9 1.648479 1_555
Cr1 O5 1.650237 1_555
Cr1 O13 1.668664 1_454
Cr1 O1 1.691078 1_554
Cr2 O10 1.648479 1_555
Cr2 O6 1.650237 1_555
Cr2 O14 1.668664 1_455
Cr2 O2 1.691078 1_555
Cr3 O11 1.648479 1_555
Cr3 O7 1.650237 1_555
Cr3 O15 1.668664 1_656
Cr3 O3 1.691078 1_556
Cr4 O16 1.649438 1_555
Cr4 O28 1.654142 1_555
Cr4 O20 1.672682 1_555
Cr4 O24 1.701830 1_555
Cr5 O17 1.649438 1_555
Cr5 O29 1.654142 1_555
Cr5 O21 1.672682 1_556
Cr5 O25 1.701830 1_555
Cr6 O18 1.649438 1_555
Cr6 O30 1.654142 1_555
Cr6 O22 1.672682 1_555
Cr6 O26 1.701830 1_555
Cr7 O19 1.649438 1_555
Cr7 O31 1.654142 1_555
Cr7 O23 1.672682 1_554
Cr7 O27 1.701830 1_555
