# generated using pymatgen
data_Li4MnCo2O7
_symmetry_space_group_name_H-M   'P 1'
_cell_length_a   3.02235000
_cell_length_b   5.11547089
_cell_length_c   17.10205358
_cell_angle_alpha   85.44302499
_cell_angle_beta   88.39904602
_cell_angle_gamma   75.55956793
_symmetry_Int_Tables_number   1
_chemical_formula_structural   Li4MnCo2O7
_chemical_formula_sum   'Li8 Mn2 Co4 O14'
_cell_volume   255.23857143
_cell_formula_units_Z   2
loop_
 _symmetry_equiv_pos_site_id
 _symmetry_equiv_pos_as_xyz
  1  'x, y, z'
loop_
 _atom_site_type_symbol
 _atom_site_label
 _atom_site_symmetry_multiplicity
 _atom_site_fract_x
 _atom_site_fract_y
 _atom_site_fract_z
 _atom_site_occupancy
  Li  Li0  1  0.71824100  0.57002600  0.92708100  1
  Li  Li1  1  0.14203800  0.71466300  0.78557600  1
  Li  Li2  1  0.56491500  0.85422700  0.64185200  1
  Li  Li3  1  0.00084000  0.99327700  0.50085100  1
  Li  Li4  1  0.42758900  0.14915700  0.35654300  1
  Li  Li5  1  0.86268700  0.28894500  0.21684800  1
  Li  Li6  1  0.28543500  0.42734900  0.07098600  1
  Li  Li7  1  0.71452900  0.57102200  0.42923800  1
  Mn  Mn0  1  0.99066200  0.00110400  0.99928700  1
  Mn  Mn1  1  0.57535600  0.85575700  0.14588300  1
  Co  Co0  1  0.42245000  0.14314100  0.85415300  1
  Co  Co1  1  0.85560300  0.28672100  0.71161900  1
  Co  Co2  1  0.28354300  0.43404100  0.56570600  1
  Co  Co3  1  0.15570100  0.70851900  0.29360700  1
  O  O0  1  0.32343700  0.27330600  0.95895300  1
  O  O1  1  0.79966000  0.41165100  0.81584900  1
  O  O2  1  0.23590200  0.54681100  0.67175200  1
  O  O3  1  0.63142100  0.68730500  0.53884000  1
  O  O4  1  0.07042300  0.85389900  0.38310800  1
  O  O5  1  0.48504300  0.98009100  0.24979000  1
  O  O6  1  0.90285600  0.13183500  0.10504800  1
  O  O7  1  0.04389400  0.87722200  0.89368900  1
  O  O8  1  0.48721500  0.01534400  0.75142600  1
  O  O9  1  0.95279700  0.16343400  0.60963300  1
  O  O10  1  0.35866500  0.28893400  0.47602900  1
  O  O11  1  0.80589300  0.45539700  0.31984600  1
  O  O12  1  0.23402100  0.59085000  0.18699000  1
  O  O13  1  0.66918300  0.72597200  0.03981900  1
loop_
_geom_bond_atom_site_label_1
_geom_bond_atom_site_label_2
_geom_bond_distance
_geom_bond_site_symmetry_2
Li0 O7 2.088469 1_655
Li0 O1 2.110676 1_555
Li0 O0 2.118071 1_655
Li0 O13 2.131944 1_556
Li0 O0 2.181818 1_555
Li0 O7 2.296637 1_555
Li1 O7 2.070934 1_555
Li1 O1 2.093800 1_455
Li1 O8 2.102096 1_565
Li1 O2 2.172635 1_555
Li1 O1 2.239316 1_555
Li1 O8 2.242182 1_465
Li2 O3 2.001703 1_555
Li2 O2 2.084952 1_555
Li2 O8 2.090547 1_565
Li2 O9 2.164981 1_465
Li2 O9 2.220377 1_565
Li2 O2 2.277432 1_655
Li3 O10 2.079740 1_565
Li3 O9 2.102141 1_465
Li3 O10 2.171318 1_465
Li3 O4 2.176473 1_555
Li3 O3 2.188148 1_455
Li3 O3 2.219003 1_555
Li4 O5 2.066293 1_545
Li4 O4 2.080786 1_545
Li4 O4 2.176954 1_645
Li4 O11 2.195484 1_455
Li4 O11 2.202791 1_555
Li4 O10 2.205554 1_555
Li5 O11 2.001456 1_555
Li5 O6 2.121081 1_555
Li5 O12 2.147688 1_655
Li5 O12 2.172886 1_555
Li5 O5 2.187978 1_645
Li5 O5 2.199621 1_545
Li6 O0 2.118407 1_554
Li6 O13 2.143300 1_455
Li6 O6 2.149566 1_555
Li6 O6 2.157725 1_455
Li6 O13 2.163925 1_555
Li6 O12 2.200271 1_555
Li7 O11 1.997898 1_555
Li7 O3 2.001680 1_555
Li7 O4 2.102574 1_655
Li7 O10 2.102838 1_555
Li7 O4 2.237294 1_555
Li7 O10 2.239451 1_655
Mn0 O7 1.950302 1_645
Mn0 O6 1.966222 1_556
Mn0 O13 1.973520 1_546
Mn0 O0 1.983269 1_655
Mn0 O0 2.237402 1_555
Mn0 O13 2.269744 1_646
Mn1 O5 1.924254 1_555
Mn1 O13 1.969820 1_555
Mn1 O12 1.974892 1_555
Mn1 O6 1.990931 1_565
Mn1 O12 2.207919 1_655
Mn1 O6 2.259280 1_465
Co0 O8 1.910930 1_555
Co0 O0 1.950775 1_555
Co0 O7 2.050238 1_545
Co0 O1 2.052271 1_555
Co0 O7 2.117982 1_645
Co0 O1 2.120198 1_455
Co1 O9 1.892070 1_555
Co1 O1 1.929965 1_555
Co1 O2 2.032470 1_655
Co1 O8 2.051495 1_555
Co1 O2 2.104131 1_555
Co1 O8 2.153012 1_655
Co2 O10 1.741277 1_555
Co2 O3 1.884901 1_555
Co2 O2 1.937240 1_555
Co2 O9 1.990680 1_455
Co2 O3 2.111084 1_455
Co2 O9 2.257246 1_555
Co3 O4 1.739434 1_555
Co3 O11 1.886706 1_455
Co3 O12 1.955058 1_555
Co3 O5 1.991190 1_555
Co3 O11 2.104165 1_555
Co3 O5 2.261655 1_455
