# generated using pymatgen
data_Sr(GaAu)2
_symmetry_space_group_name_H-M   'P 1'
_cell_length_a   4.51938283
_cell_length_b   4.51938283
_cell_length_c   10.48263031
_cell_angle_alpha   90.00000000
_cell_angle_beta   90.00000000
_cell_angle_gamma   90.00000000
_symmetry_Int_Tables_number   1
_chemical_formula_structural   Sr(GaAu)2
_chemical_formula_sum   'Sr2 Ga4 Au4'
_cell_volume   214.10584941
_cell_formula_units_Z   2
loop_
 _symmetry_equiv_pos_site_id
 _symmetry_equiv_pos_as_xyz
  1  'x, y, z'
loop_
 _atom_site_type_symbol
 _atom_site_label
 _atom_site_symmetry_multiplicity
 _atom_site_fract_x
 _atom_site_fract_y
 _atom_site_fract_z
 _atom_site_occupancy
  Sr  Sr0  1  0.75000000  0.75000000  0.74973291  1
  Sr  Sr1  1  0.25000000  0.25000000  0.25026709  1
  Ga  Ga0  1  0.75000000  0.75000000  0.12565149  1
  Ga  Ga1  1  0.75000000  0.25000000  0.50000000  1
  Ga  Ga2  1  0.25000000  0.25000000  0.87434851  1
  Ga  Ga3  1  0.25000000  0.75000000  0.50000000  1
  Au  Au0  1  0.25000000  0.25000000  0.62839017  1
  Au  Au1  1  0.25000000  0.75000000  -0.00000000  1
  Au  Au2  1  0.75000000  0.25000000  -0.00000000  1
  Au  Au3  1  0.75000000  0.75000000  0.37160983  1
loop_
_geom_bond_atom_site_label_1
_geom_bond_atom_site_label_2
_geom_bond_distance
_geom_bond_site_symmetry_2
Ga0 Sr1 3.452366 1_655
Ga0 Sr1 3.452366 1_565
Ga0 Sr1 3.452366 1_555
Ga0 Sr1 3.452366 1_665
Ga1 Sr0 3.458234 1_555
Ga1 Sr1 3.458234 1_655
Ga1 Sr0 3.458234 1_545
Ga1 Sr1 3.458234 1_555
Ga2 Sr0 3.452366 1_445
Ga2 Sr0 3.452366 1_545
Ga2 Sr0 3.452366 1_555
Ga2 Sr0 3.452366 1_455
Ga3 Sr0 3.458234 1_455
Ga3 Sr0 3.458234 1_555
Ga3 Sr1 3.458234 1_565
Ga3 Sr1 3.458234 1_555
Au0 Ga2 2.578290 1_555
Au0 Ga1 2.630126 1_455
Au0 Ga1 2.630126 1_555
Au0 Ga3 2.630126 1_545
Au0 Ga3 2.630126 1_555
Au0 Sr0 3.439531 1_455
Au0 Sr0 3.439531 1_555
Au0 Sr0 3.439531 1_445
Au0 Sr0 3.439531 1_545
Au1 Ga0 2.615552 1_455
Au1 Ga2 2.615552 1_554
Au1 Ga0 2.615552 1_555
Au1 Ga2 2.615552 1_564
Au1 Sr0 3.462475 1_454
Au1 Sr0 3.462475 1_554
Au1 Sr1 3.462475 1_565
Au1 Sr1 3.462475 1_555
Au2 Ga0 2.615552 1_545
Au2 Ga2 2.615552 1_554
Au2 Ga0 2.615552 1_555
Au2 Ga2 2.615552 1_654
Au2 Sr0 3.462475 1_554
Au2 Sr0 3.462475 1_544
Au2 Sr1 3.462475 1_655
Au2 Sr1 3.462475 1_555
Au3 Ga0 2.578290 1_555
Au3 Ga1 2.630126 1_555
Au3 Ga3 2.630126 1_655
Au3 Ga1 2.630126 1_565
Au3 Ga3 2.630126 1_555
Au3 Sr1 3.439531 1_555
Au3 Sr1 3.439531 1_655
Au3 Sr1 3.439531 1_565
Au3 Sr1 3.439531 1_665
