# generated using pymatgen
data_LiZn(ClO)3
_symmetry_space_group_name_H-M   'P 1'
_cell_length_a   6.82110800
_cell_length_b   7.26329000
_cell_length_c   15.54041000
_cell_angle_alpha   90.00000000
_cell_angle_beta   90.00000000
_cell_angle_gamma   90.00000000
_symmetry_Int_Tables_number   1
_chemical_formula_structural   LiZn(ClO)3
_chemical_formula_sum   'Li4 Zn4 Cl12 O12'
_cell_volume   769.92918597
_cell_formula_units_Z   4
loop_
 _symmetry_equiv_pos_site_id
 _symmetry_equiv_pos_as_xyz
  1  'x, y, z'
loop_
 _atom_site_type_symbol
 _atom_site_label
 _atom_site_symmetry_multiplicity
 _atom_site_fract_x
 _atom_site_fract_y
 _atom_site_fract_z
 _atom_site_occupancy
  Li  Li0  1  0.97611500  0.25000000  0.80035100  1
  Li  Li1  1  0.47611500  0.25000000  0.69964900  1
  Li  Li2  1  0.02388500  0.75000000  0.19964900  1
  Li  Li3  1  0.52388500  0.75000000  0.30035100  1
  Zn  Zn0  1  0.70036100  0.25000000  0.31967900  1
  Zn  Zn1  1  0.20036100  0.25000000  0.18032100  1
  Zn  Zn2  1  0.29963900  0.75000000  0.68032100  1
  Zn  Zn3  1  0.79963900  0.75000000  0.81967900  1
  Cl  Cl0  1  0.85407300  0.25000000  0.18754400  1
  Cl  Cl1  1  0.35407300  0.25000000  0.31245600  1
  Cl  Cl2  1  0.14592700  0.75000000  0.81245600  1
  Cl  Cl3  1  0.64592700  0.75000000  0.68754400  1
  Cl  Cl4  1  0.76746400  0.98148200  0.38778300  1
  Cl  Cl5  1  0.26746400  0.51851800  0.11221700  1
  Cl  Cl6  1  0.23253600  0.48148200  0.61221700  1
  Cl  Cl7  1  0.73253600  0.01851800  0.88778300  1
  Cl  Cl8  1  0.23253600  0.01851800  0.61221700  1
  Cl  Cl9  1  0.73253600  0.48148200  0.88778300  1
  Cl  Cl10  1  0.76746400  0.51851800  0.38778300  1
  Cl  Cl11  1  0.26746400  0.98148200  0.11221700  1
  O  O0  1  0.70925800  0.25000000  0.77053600  1
  O  O1  1  0.20925800  0.25000000  0.72946400  1
  O  O2  1  0.29074200  0.75000000  0.22946400  1
  O  O3  1  0.79074200  0.75000000  0.27053600  1
  O  O4  1  0.73946800  0.16495700  0.58654200  1
  O  O5  1  0.23946800  0.33504300  0.91345800  1
  O  O6  1  0.26053200  0.66495700  0.41345800  1
  O  O7  1  0.76053200  0.83504300  0.08654200  1
  O  O8  1  0.26053200  0.83504300  0.41345800  1
  O  O9  1  0.76053200  0.66495700  0.08654200  1
  O  O10  1  0.73946800  0.33504300  0.58654200  1
  O  O11  1  0.23946800  0.16495700  0.91345800  1
loop_
_geom_bond_atom_site_label_1
_geom_bond_atom_site_label_2
_geom_bond_distance
_geom_bond_site_symmetry_2
Li0 O0 1.878305 1_555
Li0 O1 1.934576 1_655
Li0 O5 2.588061 1_655
Li0 O11 2.588061 1_655
Li1 O1 1.878305 1_555
Li1 O0 1.934576 1_555
Li1 O4 2.588061 1_555
Li1 O10 2.588061 1_555
Li2 O2 1.878305 1_555
Li2 O3 1.934576 1_455
Li2 O9 2.588061 1_455
Li2 O7 2.588061 1_455
Li3 O3 1.878305 1_555
Li3 O2 1.934576 1_555
Li3 O8 2.588061 1_555
Li3 O6 2.588061 1_555
Cl0 Zn0 2.305625 1_555
Cl0 Zn1 2.364733 1_655
Cl1 Zn1 2.305625 1_555
Cl1 Zn0 2.364733 1_555
Cl2 Zn2 2.305625 1_555
Cl2 Zn3 2.364733 1_455
Cl3 Zn3 2.305625 1_555
Cl3 Zn2 2.364733 1_555
Cl4 Zn0 2.265702 1_565
Cl4 Li3 2.726444 1_555
Cl5 Zn1 2.265702 1_555
Cl5 Li2 2.726444 1_555
Cl6 Zn2 2.265702 1_555
Cl6 Li1 2.726444 1_555
Cl7 Zn3 2.265702 1_545
Cl7 Li0 2.726444 1_555
Cl8 Zn2 2.265702 1_545
Cl8 Li1 2.726444 1_555
Cl9 Zn3 2.265702 1_555
Cl9 Li0 2.726444 1_555
Cl10 Zn0 2.265702 1_555
Cl10 Li3 2.726444 1_555
Cl11 Zn1 2.265702 1_565
Cl11 Li2 2.726444 1_555
O6 O8 1.235384 1_555
O7 O9 1.235384 1_555
O10 O4 1.235384 1_555
O11 O5 1.235384 1_555
