# generated using pymatgen
data_K6Co2C12O31
_symmetry_space_group_name_H-M   'P 1'
_cell_length_a   8.36574504
_cell_length_b   14.61652196
_cell_length_c   15.16946466
_cell_angle_alpha   117.14155100
_cell_angle_beta   97.68379998
_cell_angle_gamma   94.14404541
_symmetry_Int_Tables_number   1
_chemical_formula_structural   K6Co2C12O31
_chemical_formula_sum   'K12 Co4 C24 O62'
_cell_volume   1617.03225633
_cell_formula_units_Z   2
loop_
 _symmetry_equiv_pos_site_id
 _symmetry_equiv_pos_as_xyz
  1  'x, y, z'
loop_
 _atom_site_type_symbol
 _atom_site_label
 _atom_site_symmetry_multiplicity
 _atom_site_fract_x
 _atom_site_fract_y
 _atom_site_fract_z
 _atom_site_occupancy
  K  K0  1  0.37120547  0.06045645  0.09625690  1
  K  K1  1  0.62879453  0.93954355  0.90374310  1
  K  K2  1  0.51708403  0.50738428  0.35697211  1
  K  K3  1  0.48291597  0.49261572  0.64302789  1
  K  K4  1  0.81045013  0.35635631  0.43767965  1
  K  K5  1  0.18954987  0.64364369  0.56232035  1
  K  K6  1  0.59224027  0.80831807  0.13409951  1
  K  K7  1  0.40775973  0.19168193  0.86590049  1
  K  K8  1  0.07410084  0.73203014  0.05957090  1
  K  K9  1  0.92589916  0.26796986  0.94042910  1
  K  K10  1  0.32214784  0.78604834  0.38484624  1
  K  K11  1  0.67785216  0.21395166  0.61515376  1
  Co  Co0  1  0.81097956  0.44139377  0.17124038  1
  Co  Co1  1  0.18902044  0.55860623  0.82875962  1
  Co  Co2  1  0.13666768  0.12309132  0.30024532  1
  Co  Co3  1  0.86333232  0.87690868  0.69975468  1
  C  C0  1  0.62310526  0.57788408  0.15591356  1
  C  C1  1  0.37689474  0.42211592  0.84408644  1
  C  C2  1  0.76499879  0.57531268  0.09726598  1
  C  C3  1  0.23500121  0.42468732  0.90273402  1
  C  C4  1  0.10310181  0.52995498  0.29348137  1
  C  C5  1  0.89689819  0.47004502  0.70651863  1
  C  C6  1  0.12585795  0.41999350  0.21326055  1
  C  C7  1  0.87414205  0.58000650  0.78673945  1
  C  C8  1  0.67615888  0.28321443  0.19504831  1
  C  C9  1  0.32384112  0.71678557  0.80495169  1
  C  C10  1  0.63459707  0.25033616  0.08113589  1
  C  C11  1  0.36540293  0.74966384  0.91886411  1
  C  C12  1  0.19041710  0.33170541  0.41941804  1
  C  C13  1  0.80958290  0.66829459  0.58058196  1
  C  C14  1  0.35912761  0.29843309  0.39595589  1
  C  C15  1  0.64087239  0.70156691  0.60404411  1
  C  C16  1  0.24179675  0.01433740  0.39306580  1
  C  C17  1  0.75820325  0.98566260  0.60693420  1
  C  C18  1  0.26046252  0.95191668  0.28134664  1
  C  C19  1  0.73953748  0.04808332  0.71865336  1
  C  C20  1  0.84711981  0.04138348  0.17239508  1
  C  C21  1  0.15288019  0.95861652  0.82760492  1
  C  C22  1  0.95405242  0.09609144  0.12749540  1
  C  C23  1  0.04594758  0.90390856  0.87250460  1
  O  O0  1  0.62981393  0.51761905  0.19705970  1
  O  O1  1  0.37018607  0.48238095  0.80294030  1
  O  O2  1  0.85524802  0.50452769  0.08938711  1
  O  O3  1  0.14475198  0.49547231  0.91061289  1
  O  O4  1  0.95652559  0.55101751  0.28512867  1
  O  O5  1  0.04347441  0.44898249  0.71487133  1
  O  O6  1  0.99401615  0.36954606  0.14642861  1
  O  O7  1  0.00598385  0.63045394  0.85357139  1
  O  O8  1  0.75158087  0.37841300  0.25115709  1
  O  O9  1  0.24841913  0.62158700  0.74884291  1
  O  O10  1  0.68022094  0.32205277  0.05759425  1
  O  O11  1  0.31977906  0.67794723  0.94240575  1
  O  O12  1  0.52033101  0.63675951  0.16165319  1
  O  O13  1  0.47966899  0.36324049  0.83834681  1
  O  O14  1  0.78518336  0.63919121  0.06575702  1
  O  O15  1  0.21481664  0.36080879  0.93424298  1
  O  O16  1  0.22011752  0.59090751  0.36080390  1
  O  O17  1  0.77988248  0.40909249  0.63919610  1
  O  O18  1  0.25682425  0.38669069  0.21627522  1
  O  O19  1  0.74317575  0.61330931  0.78372478  1
  O  O20  1  0.63690266  0.22323041  0.22793178  1
  O  O21  1  0.36309734  0.77676959  0.77206822  1
  O  O22  1  0.56087626  0.16272972  0.01915596  1
  O  O23  1  0.43912374  0.83727028  0.98084404  1
  O  O24  1  0.07083139  0.25545821  0.37901891  1
  O  O25  1  0.92916861  0.74454179  0.62098109  1
  O  O26  1  0.35307728  0.19991140  0.33961337  1
  O  O27  1  0.64692272  0.80008860  0.66038663  1
  O  O28  1  0.17721030  0.09787439  0.41335872  1
  O  O29  1  0.82278970  0.90212561  0.58664128  1
  O  O30  1  0.21487552  0.99459105  0.22572337  1
  O  O31  1  0.78512448  0.00540895  0.77427663  1
  O  O32  1  0.91849234  0.05279747  0.25892150  1
  O  O33  1  0.08150766  0.94720253  0.74107850  1
  O  O34  1  0.09686068  0.13972171  0.18254606  1
  O  O35  1  0.90313932  0.86027829  0.81745394  1
  O  O36  1  0.17917356  0.42423696  0.47495194  1
  O  O37  1  0.82082644  0.57576304  0.52504806  1
  O  O38  1  0.48418421  0.36462733  0.43338765  1
  O  O39  1  0.51581579  0.63537267  0.56661235  1
  O  O40  1  0.28500042  0.98236743  0.45432516  1
  O  O41  1  0.71499958  0.01763257  0.54567484  1
  O  O42  1  0.31083140  0.86614701  0.24918052  1
  O  O43  1  0.68916860  0.13385299  0.75081948  1
  O  O44  1  0.71035078  0.99079382  0.12666687  1
  O  O45  1  0.28964922  0.00920618  0.87333313  1
  O  O46  1  0.90270906  0.09476706  0.04617577  1
  O  O47  1  0.09729094  0.90523294  0.95382423  1
  O  O48  1  0.20323242  0.60486465  0.15811209  1
  O  O49  1  0.79676758  0.39513535  0.84188791  1
  O  O50  1  0.89530636  0.83962327  0.32236598  1
  O  O51  1  0.10469364  0.16037673  0.67763402  1
  O  O52  1  0.91719348  0.77179530  0.34774971  1
  O  O53  1  0.08280652  0.22820470  0.65225029  1
  O  O54  1  0.68163902  0.77374251  0.38465161  1
  O  O55  1  0.31836098  0.22625749  0.61534839  1
  O  O56  1  0.61853083  0.14265868  0.38308149  1
  O  O57  1  0.38146917  0.85734132  0.61691851  1
  O  O58  1  0.15728227  0.17968564  0.02332602  1
  O  O59  1  0.84271773  0.82031436  0.97667398  1
  O  O60  1  0.66006468  0.84377529  0.36226785  1
  O  O61  1  0.33993532  0.15622471  0.63773215  1
loop_
_geom_bond_atom_site_label_1
_geom_bond_atom_site_label_2
_geom_bond_distance
_geom_bond_site_symmetry_2
K0 O22 2.805166 1_555
K0 O34 2.850820 1_555
K0 O20 2.881574 1_555
K0 O47 2.918716 1_544
K0 O30 2.953676 1_545
K0 O58 3.023930 1_555
K0 O23 3.058261 1_544
K0 O45 3.075717 1_554
K0 O44 3.129760 1_545
K1 O23 2.805166 1_555
K1 O35 2.850820 1_555
K1 O21 2.881574 1_555
K1 O46 2.918716 1_566
K1 O31 2.953676 1_565
K1 O59 3.023930 1_555
K1 O22 3.058261 1_566
K1 O44 3.075717 1_556
K1 O45 3.129760 1_565
K2 O18 2.678583 1_555
K2 O0 2.778246 1_555
K2 O38 2.825340 1_555
K2 O16 2.842177 1_555
K2 O39 2.863035 1_555
K2 O8 2.931614 1_555
K2 O37 3.087368 1_555
K3 O19 2.678583 1_555
K3 O1 2.778246 1_555
K3 O39 2.825340 1_555
K3 O17 2.842177 1_555
K3 O38 2.863035 1_555
K3 O9 2.931614 1_555
K3 O36 3.087368 1_555
K4 O38 2.734254 1_555
K4 O24 2.738067 1_655
K4 O17 2.844617 1_555
K4 O37 2.846010 1_555
K4 O20 2.953888 1_555
K4 O8 2.972345 1_555
K4 O36 3.065713 1_655
K4 O56 3.095059 1_555
K5 O39 2.734254 1_555
K5 O25 2.738067 1_455
K5 O16 2.844617 1_555
K5 O36 2.846010 1_555
K5 O21 2.953888 1_555
K5 O9 2.972345 1_555
K5 O37 3.065713 1_455
K5 O57 3.095059 1_555
K6 O23 2.721067 1_554
K6 O12 2.762262 1_555
K6 O44 2.833027 1_555
K6 O14 2.911541 1_555
K6 O42 3.056882 1_555
K6 O11 3.134736 1_554
K6 O60 3.219641 1_555
K7 O22 2.721067 1_556
K7 O13 2.762262 1_555
K7 O45 2.833027 1_555
K7 O15 2.911541 1_555
K7 O43 3.056882 1_555
K7 O10 3.134736 1_556
K7 O61 3.219641 1_555
K8 O14 2.719365 1_455
K8 O7 2.731773 1_554
K8 O11 2.817402 1_554
K8 O59 2.860764 1_454
K8 O42 2.968027 1_555
K8 O48 3.041331 1_555
K9 O15 2.719365 1_655
K9 O6 2.731773 1_556
K9 O10 2.817402 1_556
K9 O58 2.860764 1_656
K9 O43 2.968027 1_555
K9 O49 3.041331 1_555
K10 O40 2.626513 1_555
K10 O16 2.759141 1_555
K10 O42 2.788751 1_555
K10 O60 2.999768 1_555
K10 O54 3.026046 1_555
K10 O57 3.136319 1_555
K10 O48 3.197891 1_555
K10 O52 3.334386 1_455
K11 O41 2.626513 1_555
K11 O17 2.759141 1_555
K11 O43 2.788751 1_555
K11 O61 2.999768 1_555
K11 O55 3.026046 1_555
K11 O56 3.136319 1_555
K11 O49 3.197891 1_555
K11 O53 3.334386 1_655
Co0 O6 1.901339 1_555
Co0 O2 1.910351 1_555
Co0 O4 1.914293 1_555
Co0 O8 1.917601 1_555
Co0 O10 1.920315 1_555
Co0 O0 1.922596 1_555
Co1 O7 1.901339 1_555
Co1 O3 1.910351 1_555
Co1 O5 1.914293 1_555
Co1 O9 1.917601 1_555
Co1 O11 1.920315 1_555
Co1 O1 1.922596 1_555
Co2 O34 1.899063 1_555
Co2 O32 1.901403 1_455
Co2 O28 1.906454 1_555
Co2 O30 1.916222 1_545
Co2 O24 1.922274 1_555
Co2 O26 1.923627 1_555
Co3 O35 1.899063 1_555
Co3 O33 1.901403 1_655
Co3 O29 1.906454 1_555
Co3 O31 1.916222 1_565
Co3 O25 1.922274 1_555
Co3 O27 1.923627 1_555
C0 O12 1.243364 1_555
C0 O0 1.291536 1_555
C1 O13 1.243364 1_555
C1 O1 1.291536 1_555
C2 O14 1.238832 1_555
C2 O2 1.295754 1_555
C3 O15 1.238832 1_555
C3 O3 1.295754 1_555
C4 O16 1.253577 1_555
C4 O4 1.289593 1_455
C5 O17 1.253577 1_555
C5 O5 1.289593 1_655
C6 O18 1.234275 1_555
C6 O6 1.299775 1_455
C7 O19 1.234275 1_555
C7 O7 1.299775 1_655
C8 O20 1.235557 1_555
C8 O8 1.306782 1_555
C9 O21 1.235557 1_555
C9 O9 1.306782 1_555
C10 O22 1.239508 1_555
C10 O10 1.300846 1_555
C11 O23 1.239508 1_555
C11 O11 1.300846 1_555
C12 O36 1.244101 1_555
C12 O24 1.292371 1_555
C13 O37 1.244101 1_555
C13 O25 1.292371 1_555
C14 O38 1.243645 1_555
C14 O26 1.289081 1_555
C15 O39 1.243645 1_555
C15 O27 1.289081 1_555
C16 O40 1.242306 1_545
C16 O28 1.294018 1_555
C17 O41 1.242306 1_565
C17 O29 1.294018 1_555
C18 O42 1.249203 1_555
C18 O30 1.294212 1_555
C19 O43 1.249203 1_555
C19 O31 1.294212 1_555
C20 O44 1.238785 1_545
C20 O32 1.297457 1_555
C21 O45 1.238785 1_565
C21 O33 1.297457 1_555
C22 O46 1.241732 1_555
C22 O34 1.291730 1_655
C23 O47 1.241732 1_555
C23 O35 1.291730 1_455
O50 O52 1.233033 1_555
O51 O53 1.233033 1_555
O54 O60 1.234153 1_555
O55 O61 1.234153 1_555
