# generated using pymatgen
data_URe2
_symmetry_space_group_name_H-M   'P 1'
_cell_length_a   5.52535183
_cell_length_b   5.52535183
_cell_length_c   8.26491900
_cell_angle_alpha   90.00000000
_cell_angle_beta   90.00000000
_cell_angle_gamma   119.99999796
_symmetry_Int_Tables_number   1
_chemical_formula_structural   URe2
_chemical_formula_sum   'U4 Re8'
_cell_volume   218.51895581
_cell_formula_units_Z   4
loop_
 _symmetry_equiv_pos_site_id
 _symmetry_equiv_pos_as_xyz
  1  'x, y, z'
loop_
 _atom_site_type_symbol
 _atom_site_label
 _atom_site_symmetry_multiplicity
 _atom_site_fract_x
 _atom_site_fract_y
 _atom_site_fract_z
 _atom_site_occupancy
  U  U0  1  0.33333300  0.66666700  0.41073700  1
  U  U1  1  0.66666700  0.33333300  0.58926300  1
  U  U2  1  0.66666700  0.33333300  0.91073700  1
  U  U3  1  0.33333300  0.66666700  0.08926300  1
  Re  Re0  1  0.00000000  0.00000000  0.50000000  1
  Re  Re1  1  0.00000000  0.00000000  0.00000000  1
  Re  Re2  1  0.82863100  0.17136900  0.25000000  1
  Re  Re3  1  0.82863100  0.65726200  0.25000000  1
  Re  Re4  1  0.34273800  0.17136900  0.25000000  1
  Re  Re5  1  0.17136900  0.82863100  0.75000000  1
  Re  Re6  1  0.17136900  0.34273800  0.75000000  1
  Re  Re7  1  0.65726200  0.82863100  0.75000000  1
loop_
_geom_bond_atom_site_label_1
_geom_bond_atom_site_label_2
_geom_bond_distance
_geom_bond_site_symmetry_2
U0 U3 2.656957 1_555
U1 U2 2.656957 1_555
Re0 Re5 2.637995 1_545
Re0 Re2 2.637995 1_455
Re0 Re6 2.637995 1_555
Re0 Re7 2.637995 1_445
Re0 Re4 2.637995 1_555
Re0 Re3 2.637995 1_445
Re1 Re2 2.637995 1_455
Re1 Re5 2.637995 1_544
Re1 Re6 2.637995 1_554
Re1 Re4 2.637995 1_555
Re1 Re3 2.637995 1_445
Re1 Re7 2.637995 1_444
Re2 Re3 2.684730 1_555
Re2 Re4 2.684730 1_555
Re2 Re3 2.840622 1_545
Re2 Re4 2.840622 1_655
Re2 U0 3.065821 1_545
Re2 U0 3.065821 1_655
Re2 U3 3.065821 1_545
Re2 U3 3.065821 1_655
Re2 U1 3.203887 1_555
Re2 U2 3.203887 1_554
Re3 Re4 2.684730 1_555
Re3 Re4 2.840622 1_665
Re3 U0 3.065818 1_655
Re3 U3 3.065818 1_655
Re3 U0 3.065823 1_555
Re3 U3 3.065823 1_555
Re3 U1 3.203889 1_555
Re3 U2 3.203889 1_554
Re4 U0 3.065818 1_545
Re4 U3 3.065818 1_545
Re4 U0 3.065823 1_555
Re4 U3 3.065823 1_555
Re4 U1 3.203889 1_555
Re4 U2 3.203889 1_554
Re5 Re7 2.684730 1_555
Re5 Re6 2.684730 1_555
Re5 Re6 2.840622 1_565
Re5 Re7 2.840622 1_455
Re5 U2 3.065821 1_565
Re5 U2 3.065821 1_455
Re5 U1 3.065821 1_455
Re5 U1 3.065821 1_565
Re5 U3 3.203887 1_556
Re5 U0 3.203887 1_555
Re6 Re7 2.684730 1_555
Re6 Re7 2.840622 1_445
Re6 U2 3.065818 1_455
Re6 U1 3.065818 1_455
Re6 U2 3.065823 1_555
Re6 U1 3.065823 1_555
Re6 U3 3.203889 1_556
Re6 U0 3.203889 1_555
Re7 U2 3.065818 1_565
Re7 U1 3.065818 1_565
Re7 U2 3.065823 1_555
Re7 U1 3.065823 1_555
Re7 U3 3.203889 1_556
Re7 U0 3.203889 1_555
