# generated using pymatgen
data_Ce3Cu3Sb4
_symmetry_space_group_name_H-M   'P 1'
_cell_length_a   8.42374077
_cell_length_b   8.42374077
_cell_length_c   8.42374077
_cell_angle_alpha   109.47122063
_cell_angle_beta   109.47122063
_cell_angle_gamma   109.47122063
_symmetry_Int_Tables_number   1
_chemical_formula_structural   Ce3Cu3Sb4
_chemical_formula_sum   'Ce6 Cu6 Sb8'
_cell_volume   460.14328592
_cell_formula_units_Z   2
loop_
 _symmetry_equiv_pos_site_id
 _symmetry_equiv_pos_as_xyz
  1  'x, y, z'
loop_
 _atom_site_type_symbol
 _atom_site_label
 _atom_site_symmetry_multiplicity
 _atom_site_fract_x
 _atom_site_fract_y
 _atom_site_fract_z
 _atom_site_occupancy
  Ce  Ce0  1  0.87500000  0.25000000  0.12500000  1
  Ce  Ce1  1  0.62500000  0.75000000  0.37500000  1
  Ce  Ce2  1  0.25000000  0.12500000  0.87500000  1
  Ce  Ce3  1  0.75000000  0.37500000  0.62500000  1
  Ce  Ce4  1  0.12500000  0.87500000  0.25000000  1
  Ce  Ce5  1  0.37500000  0.62500000  0.75000000  1
  Cu  Cu0  1  0.37500000  0.25000000  0.62500000  1
  Cu  Cu1  1  0.12500000  0.75000000  0.87500000  1
  Cu  Cu2  1  0.25000000  0.62500000  0.37500000  1
  Cu  Cu3  1  0.75000000  0.87500000  0.12500000  1
  Cu  Cu4  1  0.62500000  0.37500000  0.25000000  1
  Cu  Cu5  1  0.87500000  0.12500000  0.75000000  1
  Sb  Sb0  1  0.66059300  0.50000000  0.00000000  1
  Sb  Sb1  1  0.50000000  0.00000000  0.66059300  1
  Sb  Sb2  1  0.00000000  0.66059300  0.50000000  1
  Sb  Sb3  1  0.83940700  0.83940700  0.83940700  1
  Sb  Sb4  1  0.50000000  0.00000000  0.16059300  1
  Sb  Sb5  1  0.16059300  0.50000000  0.00000000  1
  Sb  Sb6  1  0.00000000  0.16059300  0.50000000  1
  Sb  Sb7  1  0.33940700  0.33940700  0.33940700  1
loop_
_geom_bond_atom_site_label_1
_geom_bond_atom_site_label_2
_geom_bond_distance
_geom_bond_site_symmetry_2
Ce0 Cu2 2.978242 1_655
Ce0 Cu3 2.978242 1_545
Ce0 Cu5 2.978242 1_554
Ce0 Cu4 2.978242 1_555
Ce0 Sb4 3.334804 1_555
Ce0 Sb5 3.334804 1_655
Ce0 Sb3 3.334804 1_544
Ce0 Sb2 3.334804 1_655
Ce0 Sb7 3.398809 1_655
Ce0 Sb1 3.398809 1_554
Ce0 Sb0 3.398809 1_555
Ce0 Sb6 3.398809 1_655
Ce1 Cu5 2.978242 1_565
Ce1 Cu2 2.978242 1_555
Ce1 Cu3 2.978242 1_555
Ce1 Cu4 2.978242 1_555
Ce1 Sb6 3.334804 1_665
Ce1 Sb0 3.334804 1_555
Ce1 Sb1 3.334804 1_565
Ce1 Sb7 3.334804 1_555
Ce1 Sb2 3.398809 1_655
Ce1 Sb3 3.398809 1_555
Ce1 Sb5 3.398809 1_555
Ce1 Sb4 3.398809 1_565
Ce2 Cu1 2.978242 1_545
Ce2 Cu5 2.978242 1_455
Ce2 Cu4 2.978242 1_556
Ce2 Cu0 2.978242 1_555
Ce2 Sb6 3.334804 1_555
Ce2 Sb4 3.334804 1_556
Ce2 Sb3 3.334804 1_445
Ce2 Sb0 3.334804 1_556
Ce2 Sb7 3.398809 1_556
Ce2 Sb1 3.398809 1_555
Ce2 Sb2 3.398809 1_545
Ce2 Sb5 3.398809 1_556
Ce3 Cu1 2.978242 1_655
Ce3 Cu0 2.978242 1_555
Ce3 Cu5 2.978242 1_555
Ce3 Cu4 2.978242 1_555
Ce3 Sb5 3.334804 1_656
Ce3 Sb1 3.334804 1_555
Ce3 Sb2 3.334804 1_655
Ce3 Sb7 3.334804 1_555
Ce3 Sb0 3.398809 1_556
Ce3 Sb3 3.398809 1_555
Ce3 Sb6 3.398809 1_655
Ce3 Sb4 3.398809 1_555
Ce4 Cu2 2.978242 1_555
Ce4 Cu3 2.978242 1_455
Ce4 Cu1 2.978242 1_554
Ce4 Cu0 2.978242 1_565
Ce4 Sb5 3.334804 1_555
Ce4 Sb6 3.334804 1_565
Ce4 Sb3 3.334804 1_454
Ce4 Sb1 3.334804 1_565
Ce4 Sb7 3.398809 1_565
Ce4 Sb2 3.398809 1_555
Ce4 Sb0 3.398809 1_455
Ce4 Sb4 3.398809 1_565
Ce5 Cu2 2.978242 1_555
Ce5 Cu3 2.978242 1_556
Ce5 Cu1 2.978242 1_555
Ce5 Cu0 2.978242 1_555
Ce5 Sb4 3.334804 1_566
Ce5 Sb0 3.334804 1_556
Ce5 Sb2 3.334804 1_555
Ce5 Sb7 3.334804 1_555
Ce5 Sb3 3.398809 1_555
Ce5 Sb1 3.398809 1_565
Ce5 Sb5 3.398809 1_556
Ce5 Sb6 3.398809 1_555
Cu0 Sb6 2.705992 1_555
Cu0 Sb0 2.705992 1_556
Cu0 Sb1 2.705992 1_555
Cu0 Sb7 2.705992 1_555
Cu1 Sb5 2.705992 1_556
Cu1 Sb4 2.705992 1_566
Cu1 Sb2 2.705992 1_555
Cu1 Sb3 2.705992 1_455
Cu2 Sb5 2.705992 1_555
Cu2 Sb2 2.705992 1_555
Cu2 Sb1 2.705992 1_565
Cu2 Sb7 2.705992 1_555
Cu3 Sb4 2.705992 1_565
Cu3 Sb6 2.705992 1_665
Cu3 Sb0 2.705992 1_555
Cu3 Sb3 2.705992 1_554
Cu4 Sb4 2.705992 1_555
Cu4 Sb2 2.705992 1_655
Cu4 Sb0 2.705992 1_555
Cu4 Sb7 2.705992 1_555
Cu5 Sb5 2.705992 1_656
Cu5 Sb6 2.705992 1_655
Cu5 Sb3 2.705992 1_545
Cu5 Sb1 2.705992 1_555
