# generated using pymatgen
data_LaAsIr
_symmetry_space_group_name_H-M   'P 1'
_cell_length_a   8.05172579
_cell_length_b   8.05172579
_cell_length_c   8.05172579
_cell_angle_alpha   149.64649614
_cell_angle_beta   149.64649614
_cell_angle_gamma   43.46055662
_symmetry_Int_Tables_number   1
_chemical_formula_structural   LaAsIr
_chemical_formula_sum   'La2 As2 Ir2'
_cell_volume   132.93658361
_cell_formula_units_Z   2
loop_
 _symmetry_equiv_pos_site_id
 _symmetry_equiv_pos_as_xyz
  1  'x, y, z'
loop_
 _atom_site_type_symbol
 _atom_site_label
 _atom_site_symmetry_multiplicity
 _atom_site_fract_x
 _atom_site_fract_y
 _atom_site_fract_z
 _atom_site_occupancy
  La  La0  1  0.74819803  0.24819803  0.50000000  1
  La  La1  1  0.99819803  0.99819803  0.00000000  1
  As  As0  1  0.32744007  0.82744007  0.50000000  1
  As  As1  1  0.57744007  0.57744007  0.00000000  1
  Ir  Ir0  1  0.16236190  0.66236190  0.50000000  1
  Ir  Ir1  1  0.41236190  0.41236190  -0.00000000  1
loop_
_geom_bond_atom_site_label_1
_geom_bond_atom_site_label_2
_geom_bond_distance
_geom_bond_site_symmetry_2
As0 Ir1 2.461125 1_555
As0 Ir1 2.461125 1_566
As0 Ir0 2.469420 1_555
As0 La0 3.208087 1_454
As0 La0 3.208087 1_555
As0 La0 3.208087 1_465
As0 La0 3.208087 1_566
As0 La1 3.311830 1_455
As0 La1 3.311830 1_556
As1 Ir0 2.461125 1_655
As1 Ir0 2.461125 1_554
As1 Ir1 2.469420 1_555
As1 La1 3.208087 1_455
As1 La1 3.208087 1_556
As1 La1 3.208087 1_444
As1 La1 3.208087 1_545
As1 La0 3.311830 1_565
As1 La0 3.311830 1_554
Ir0 La1 3.236357 1_445
Ir0 La1 3.236357 1_456
Ir0 La0 3.245829 1_555
Ir0 La0 3.245829 1_566
Ir0 La0 3.245829 1_465
Ir0 La0 3.245829 1_454
Ir1 La0 3.236357 1_454
Ir1 La0 3.236357 1_555
Ir1 La1 3.245829 1_556
Ir1 La1 3.245829 1_455
Ir1 La1 3.245829 1_545
Ir1 La1 3.245829 1_444
