# generated using pymatgen
data_Pt(NO)6
_symmetry_space_group_name_H-M   'P 1'
_cell_length_a   9.46682169
_cell_length_b   9.46682169
_cell_length_c   11.76441975
_cell_angle_alpha   70.98489103
_cell_angle_beta   70.98489103
_cell_angle_gamma   73.14043122
_symmetry_Int_Tables_number   1
_chemical_formula_structural   Pt(NO)6
_chemical_formula_sum   'Pt4 N24 O24'
_cell_volume   922.25576417
_cell_formula_units_Z   4
loop_
 _symmetry_equiv_pos_site_id
 _symmetry_equiv_pos_as_xyz
  1  'x, y, z'
loop_
 _atom_site_type_symbol
 _atom_site_label
 _atom_site_symmetry_multiplicity
 _atom_site_fract_x
 _atom_site_fract_y
 _atom_site_fract_z
 _atom_site_occupancy
  Pt  Pt0  1  0.00000000  0.50000000  0.00000000  1
  Pt  Pt1  1  0.50000000  0.00000000  0.50000000  1
  Pt  Pt2  1  0.50000000  0.00000000  0.00000000  1
  Pt  Pt3  1  0.00000000  0.50000000  0.50000000  1
  N  N0  1  0.81252000  0.65098400  0.00503700  1
  N  N1  1  0.34901600  0.18748000  0.49496300  1
  N  N2  1  0.18748000  0.34901600  0.99496300  1
  N  N3  1  0.65098400  0.81252000  0.50503700  1
  N  N4  1  0.89003400  0.34873100  0.07143200  1
  N  N5  1  0.65126900  0.10996600  0.42856800  1
  N  N6  1  0.10996600  0.65126900  0.92856800  1
  N  N7  1  0.34873100  0.89003400  0.57143200  1
  N  N8  1  0.36459200  0.87384600  0.08325900  1
  N  N9  1  0.12615400  0.63540800  0.41674100  1
  N  N10  1  0.63540800  0.12615400  0.91674100  1
  N  N11  1  0.87384600  0.36459200  0.58325900  1
  N  N12  1  0.52526100  0.00125400  0.15663400  1
  N  N13  1  0.99874600  0.47473900  0.34336600  1
  N  N14  1  0.47473900  0.99874600  0.84336600  1
  N  N15  1  0.00125400  0.52526100  0.65663400  1
  N  N16  1  0.12728700  0.07281400  0.34038400  1
  N  N17  1  0.92718600  0.87271300  0.15961600  1
  N  N18  1  0.87271300  0.92718600  0.65961600  1
  N  N19  1  0.07281400  0.12728700  0.84038400  1
  N  N20  1  0.45556100  0.43153700  0.15297000  1
  N  N21  1  0.56846300  0.54443900  0.34703000  1
  N  N22  1  0.54443900  0.56846300  0.84703000  1
  N  N23  1  0.43153700  0.45556100  0.65297000  1
  O  O0  1  0.07055100  0.12820100  0.24944200  1
  O  O1  1  0.87179900  0.92944900  0.25055800  1
  O  O2  1  0.92944900  0.87179900  0.75055800  1
  O  O3  1  0.12820100  0.07055100  0.74944200  1
  O  O4  1  0.22971400  0.95367800  0.34486400  1
  O  O5  1  0.04632200  0.77028600  0.15513600  1
  O  O6  1  0.77028600  0.04632200  0.65513600  1
  O  O7  1  0.95367800  0.22971400  0.84486400  1
  O  O8  1  0.08361400  0.13557300  0.42849600  1
  O  O9  1  0.86442700  0.91638600  0.07150400  1
  O  O10  1  0.91638600  0.86442700  0.57150400  1
  O  O11  1  0.13557300  0.08361400  0.92849600  1
  O  O12  1  0.31357600  0.45339600  0.17874400  1
  O  O13  1  0.54660400  0.68642400  0.32125600  1
  O  O14  1  0.68642400  0.54660400  0.82125600  1
  O  O15  1  0.45339600  0.31357600  0.67874400  1
  O  O16  1  0.52143500  0.54266000  0.10891800  1
  O  O17  1  0.45734000  0.47856500  0.39108200  1
  O  O18  1  0.47856500  0.45734000  0.89108200  1
  O  O19  1  0.54266000  0.52143500  0.60891800  1
  O  O20  1  0.53473400  0.29849700  0.17041500  1
  O  O21  1  0.70150300  0.46526600  0.32958500  1
  O  O22  1  0.46526600  0.70150300  0.82958500  1
  O  O23  1  0.29849700  0.53473400  0.67041500  1
loop_
_geom_bond_atom_site_label_1
_geom_bond_atom_site_label_2
_geom_bond_distance
_geom_bond_site_symmetry_2
N0 Pt0 1.926584 1_655
N1 Pt1 1.926584 1_555
N2 Pt0 1.926584 1_556
N3 Pt1 1.926584 1_565
N4 Pt0 1.830613 1_655
N5 Pt1 1.830613 1_555
N6 Pt0 1.830613 1_556
N7 Pt1 1.830613 1_565
N8 Pt2 1.826605 1_565
N9 Pt3 1.826605 1_555
N10 Pt2 1.826605 1_556
N11 Pt3 1.826605 1_655
N12 Pt2 1.938030 1_555
N13 Pt3 1.938030 1_655
N14 Pt2 1.938030 1_566
N15 Pt3 1.938030 1_555
N16 O0 1.246437 1_555
N16 O4 1.255088 1_545
N16 O8 1.256185 1_555
N17 O1 1.246437 1_555
N17 O5 1.255088 1_655
N17 O9 1.256185 1_555
N18 O2 1.246437 1_555
N18 O6 1.255088 1_565
N18 O10 1.256185 1_555
N19 O3 1.246437 1_555
N19 O7 1.255088 1_455
N19 O11 1.256185 1_555
N20 O12 1.247178 1_555
N20 O20 1.254745 1_555
N20 O16 1.256510 1_555
N21 O13 1.247178 1_555
N21 O21 1.254745 1_555
N21 O17 1.256510 1_555
N22 O14 1.247178 1_555
N22 O22 1.254745 1_555
N22 O18 1.256510 1_555
N23 O15 1.247178 1_555
N23 O23 1.254745 1_555
N23 O19 1.256510 1_555
