# generated using pymatgen
data_Li7Co5O12
_symmetry_space_group_name_H-M   'P 1'
_cell_length_a   5.01029114
_cell_length_b   9.80662425
_cell_length_c   4.97788705
_cell_angle_alpha   94.70175201
_cell_angle_beta   60.06905328
_cell_angle_gamma   99.91032683
_symmetry_Int_Tables_number   1
_chemical_formula_structural   Li7Co5O12
_chemical_formula_sum   'Li7 Co5 O12'
_cell_volume   208.79791630
_cell_formula_units_Z   1
loop_
 _symmetry_equiv_pos_site_id
 _symmetry_equiv_pos_as_xyz
  1  'x, y, z'
loop_
 _atom_site_type_symbol
 _atom_site_label
 _atom_site_symmetry_multiplicity
 _atom_site_fract_x
 _atom_site_fract_y
 _atom_site_fract_z
 _atom_site_occupancy
  Li  Li0  1  0.74690700  0.24395961  0.00108373  1
  Li  Li1  1  0.58265692  0.75419724  0.33125662  1
  Li  Li2  1  0.41314639  0.24513307  0.66477556  1
  Li  Li3  1  0.08400908  0.24580276  0.33540938  1
  Li  Li4  1  0.91976000  0.75604039  0.66558327  1
  Li  Li5  1  0.25352061  0.75486693  0.00189144  1
  Li  Li6  1  0.33333300  -0.00000000  0.33333300  1
  Co  Co0  1  0.00316368  0.00004001  0.00262142  1
  Co  Co1  1  0.66350332  -0.00004001  0.66404558  1
  Co  Co2  1  0.83333300  0.50000000  0.33333300  1
  Co  Co3  1  0.50212210  0.49989944  0.99629716  1
  Co  Co4  1  0.16454490  0.50010056  0.67036984  1
  O  O0  1  0.00644605  0.10841605  0.69511513  1
  O  O1  1  0.88046475  0.61904948  0.99315719  1
  O  O2  1  0.73070635  0.10938331  0.33864348  1
  O  O3  1  0.36286963  0.10912388  0.97289551  1
  O  O4  1  0.20224131  0.61850332  0.33341987  1
  O  O5  1  0.54160166  0.61884296  0.67146085  1
  O  O6  1  0.46442569  0.38149668  0.33324713  1
  O  O7  1  0.30379637  0.89087612  0.69377049  1
  O  O8  1  0.12506534  0.38115704  -0.00479385  1
  O  O9  1  0.78620125  0.38095052  0.67350881  1
  O  O10  1  0.66022095  0.89158395  0.97155187  1
  O  O11  1  0.93596065  0.89061669  0.32802352  1
loop_
_geom_bond_atom_site_label_1
_geom_bond_atom_site_label_2
_geom_bond_distance
_geom_bond_site_symmetry_2
Li0 O0 2.015987 1_654
Li0 O9 2.109553 1_554
Li0 O8 2.115318 1_655
Li0 O6 2.124254 1_555
Li0 O2 2.182290 1_555
Li0 O3 2.198562 1_554
Li1 O11 2.020745 1_555
Li1 O4 2.124270 1_555
Li1 O5 2.144543 1_555
Li1 O1 2.150463 1_554
Li1 O10 2.166391 1_554
Li1 O7 2.176498 1_555
Li2 O3 2.007268 1_555
Li2 O6 2.097196 1_555
Li2 O9 2.117579 1_555
Li2 O8 2.121814 1_556
Li2 O2 2.176339 1_555
Li2 O0 2.181340 1_555
Li3 O2 2.020739 1_455
Li3 O6 2.124276 1_555
Li3 O8 2.144537 1_555
Li3 O9 2.150463 1_455
Li3 O0 2.166397 1_555
Li3 O3 2.176498 1_554
Li4 O10 2.015987 1_555
Li4 O1 2.109547 1_555
Li4 O5 2.115318 1_555
Li4 O4 2.124254 1_655
Li4 O11 2.182290 1_555
Li4 O7 2.198556 1_655
Li5 O7 2.007273 1_554
Li5 O4 2.097196 1_555
Li5 O1 2.117585 1_454
Li5 O5 2.121814 1_554
Li5 O11 2.176339 1_455
Li5 O10 2.181340 1_554
Li6 O7 2.093227 1_545
Li6 O3 2.093227 1_554
Li6 O0 2.097179 1_555
Li6 O10 2.097180 1_544
Li6 O11 2.104275 1_445
Li6 O2 2.104281 1_555
Co0 O11 1.872159 1_445
Co0 O3 1.873632 1_554
Co0 O0 1.925754 1_554
Co0 O10 1.927867 1_444
Co0 O2 1.934516 1_455
Co0 O7 1.937220 1_544
Co1 O2 1.872159 1_555
Co1 O7 1.873638 1_545
Co1 O10 1.925754 1_545
Co1 O0 1.927867 1_655
Co1 O11 1.934516 1_545
Co1 O3 1.937220 1_555
Co2 O6 2.007037 1_555
Co2 O4 2.007043 1_655
Co2 O1 2.028885 1_554
Co2 O9 2.028885 1_555
Co2 O8 2.034074 1_655
Co2 O5 2.034074 1_555
Co3 O5 1.981158 1_555
Co3 O9 1.987549 1_555
Co3 O6 2.030983 1_556
Co3 O1 2.042029 1_555
Co3 O8 2.043752 1_556
Co3 O4 2.047412 1_556
Co4 O8 1.981158 1_556
Co4 O1 1.987549 1_455
Co4 O4 2.030983 1_555
Co4 O9 2.042035 1_455
Co4 O5 2.043752 1_555
Co4 O6 2.047412 1_555
