# generated using pymatgen
data_Na2B4O17
_symmetry_space_group_name_H-M   'P 1'
_cell_length_a   8.27704338
_cell_length_b   8.27704338
_cell_length_c   12.78924338
_cell_angle_alpha   76.46153817
_cell_angle_beta   103.53846183
_cell_angle_gamma   108.59832791
_symmetry_Int_Tables_number   1
_chemical_formula_structural   Na2B4O17
_chemical_formula_sum   'Na4 B8 O34'
_cell_volume   795.17495432
_cell_formula_units_Z   2
loop_
 _symmetry_equiv_pos_site_id
 _symmetry_equiv_pos_as_xyz
  1  'x, y, z'
loop_
 _atom_site_type_symbol
 _atom_site_label
 _atom_site_symmetry_multiplicity
 _atom_site_fract_x
 _atom_site_fract_y
 _atom_site_fract_z
 _atom_site_occupancy
  Na  Na0  1  0.59860600  0.41469100  0.45239400  1
  Na  Na1  1  0.41469100  0.59860600  0.04760600  1
  Na  Na2  1  0.40139400  0.58530900  0.54760600  1
  Na  Na3  1  0.58530900  0.40139400  0.95239400  1
  B  B0  1  0.98742000  0.00044400  0.64252300  1
  B  B1  1  0.00044400  0.98742000  0.85747700  1
  B  B2  1  0.01258000  0.99955600  0.35747700  1
  B  B3  1  0.99955600  0.01258000  0.14252300  1
  B  B4  1  0.79061800  0.81774600  0.48629000  1
  B  B5  1  0.81774600  0.79061800  0.01371000  1
  B  B6  1  0.20938200  0.18225400  0.51371000  1
  B  B7  1  0.18225400  0.20938200  0.98629000  1
  O  O0  1  0.85623100  0.90833100  0.57449400  1
  O  O1  1  0.90833100  0.85623100  0.92550600  1
  O  O2  1  0.14376900  0.09166900  0.42550600  1
  O  O3  1  0.09166900  0.14376900  0.07449400  1
  O  O4  1  0.65703100  0.67894000  0.48968000  1
  O  O5  1  0.67894000  0.65703100  0.01032000  1
  O  O6  1  0.34296900  0.32106000  0.51032000  1
  O  O7  1  0.32106000  0.34296900  0.98968000  1
  O  O8  1  0.96861400  0.96861400  0.75000000  1
  O  O9  1  0.03138600  0.03138600  0.25000000  1
  O  O10  1  0.86877300  0.88034300  0.39127100  1
  O  O11  1  0.88034300  0.86877300  0.10872900  1
  O  O12  1  0.13122700  0.11965700  0.60872900  1
  O  O13  1  0.11965700  0.13122700  0.89127100  1
  O  O14  1  0.58735200  0.50987700  0.71977600  1
  O  O15  1  0.50987700  0.58735200  0.78022400  1
  O  O16  1  0.41264800  0.49012300  0.28022400  1
  O  O17  1  0.49012300  0.41264800  0.21977600  1
  O  O18  1  0.89130400  0.36530000  0.31641100  1
  O  O19  1  0.36530000  0.89130400  0.18358900  1
  O  O20  1  0.10869600  0.63470000  0.68358900  1
  O  O21  1  0.63470000  0.10869600  0.81641100  1
  O  O22  1  0.78722500  0.27044400  0.37575500  1
  O  O23  1  0.27044400  0.78722500  0.12424500  1
  O  O24  1  0.21277500  0.72955600  0.62424500  1
  O  O25  1  0.72955600  0.21277500  0.87575500  1
  O  O26  1  0.94668500  0.45709700  0.52983900  1
  O  O27  1  0.45709700  0.94668500  0.97016100  1
  O  O28  1  0.05331500  0.54290300  0.47016100  1
  O  O29  1  0.54290300  0.05331500  0.02983900  1
  O  O30  1  0.68018100  0.68018100  0.75000000  1
  O  O31  1  0.31981900  0.31981900  0.25000000  1
  O  O32  1  0.29000500  0.29000500  0.75000000  1
  O  O33  1  0.70999500  0.70999500  0.25000000  1
loop_
_geom_bond_atom_site_label_1
_geom_bond_atom_site_label_2
_geom_bond_distance
_geom_bond_site_symmetry_2
Na0 O4 2.225036 1_555
Na0 O6 2.246259 1_555
Na0 O16 2.447426 1_555
Na0 O22 2.697569 1_555
Na0 O26 2.754350 1_555
Na1 O5 2.225036 1_555
Na1 O7 2.246259 1_554
Na1 O17 2.447426 1_555
Na1 O23 2.697569 1_555
Na1 O27 2.754350 1_554
Na2 O6 2.225036 1_555
Na2 O4 2.246259 1_555
Na2 O14 2.447426 1_555
Na2 O24 2.697569 1_555
Na2 O28 2.754350 1_555
Na3 O7 2.225036 1_555
Na3 O5 2.246259 1_556
Na3 O15 2.447426 1_555
Na3 O25 2.697569 1_555
Na3 O29 2.754350 1_556
B0 O0 1.362908 1_545
B0 O12 1.367209 1_655
B0 O8 1.373860 1_545
B1 O1 1.362908 1_455
B1 O13 1.367209 1_565
B1 O8 1.373860 1_455
B2 O2 1.362908 1_565
B2 O10 1.367209 1_455
B2 O9 1.373860 1_565
B3 O3 1.362908 1_655
B3 O11 1.367209 1_545
B3 O9 1.373860 1_655
B4 O4 1.316532 1_555
B4 O0 1.406791 1_555
B4 O10 1.422377 1_555
B5 O5 1.316532 1_555
B5 O1 1.406791 1_554
B5 O11 1.422377 1_555
B6 O6 1.316532 1_555
B6 O2 1.406791 1_555
B6 O12 1.422377 1_555
B7 O7 1.316532 1_555
B7 O3 1.406791 1_556
B7 O13 1.422377 1_555
O14 O15 1.465134 1_555
O14 O30 1.466965 1_555
O15 O30 1.466965 1_555
O16 O17 1.465134 1_555
O16 O31 1.466965 1_555
O17 O31 1.466965 1_555
O18 O22 1.237044 1_555
O19 O23 1.237044 1_555
O20 O24 1.237044 1_555
O21 O25 1.237044 1_555
O26 O28 1.235983 1_655
O27 O29 1.235983 1_566
