# generated using pymatgen
data_RbAl6H20N5F24
_symmetry_space_group_name_H-M   'P 1'
_cell_length_a   5.23435473
_cell_length_b   5.20536312
_cell_length_c   22.95336192
_cell_angle_alpha   102.85859095
_cell_angle_beta   102.16741292
_cell_angle_gamma   89.89387768
_symmetry_Int_Tables_number   1
_chemical_formula_structural   RbAl6H20N5F24
_chemical_formula_sum   'Rb1 Al6 H20 N5 F24'
_cell_volume   595.35687835
_cell_formula_units_Z   1
loop_
 _symmetry_equiv_pos_site_id
 _symmetry_equiv_pos_as_xyz
  1  'x, y, z'
loop_
 _atom_site_type_symbol
 _atom_site_label
 _atom_site_symmetry_multiplicity
 _atom_site_fract_x
 _atom_site_fract_y
 _atom_site_fract_z
 _atom_site_occupancy
  Rb  Rb0  1  0.25062600  0.82241600  0.16499700  1
  Al  Al0  1  0.02389700  0.91975500  0.65573800  1
  Al  Al1  1  0.95420700  0.97809400  0.33644100  1
  Al  Al2  1  0.52979600  0.42869400  0.66593700  1
  Al  Al3  1  0.00476900  0.06871500  0.01456000  1
  Al  Al4  1  0.44478800  0.45410700  0.32104500  1
  Al  Al5  1  0.50047900  0.55746900  0.00816200  1
  H  H0  1  0.37637900  0.64221400  0.80192700  1
  H  H1  1  0.72953100  0.38314700  0.89158700  1
  H  H2  1  0.35712400  0.52683300  0.50580600  1
  H  H3  1  0.81227400  0.45367700  0.82895300  1
  H  H4  1  0.64539400  0.05169800  0.77565500  1
  H  H5  1  0.68328600  0.92632900  0.78634500  1
  H  H6  1  0.89390700  0.67159700  0.89767000  1
  H  H7  1  0.93860300  0.99628100  0.76464000  1
  H  H8  1  0.05003100  0.39051700  0.88674500  1
  H  H9  1  0.50116200  0.48043700  0.39305700  1
  H  H10  1  0.44628100  0.87825700  0.44871900  1
  H  H11  1  0.73277700  0.25288200  0.54467900  1
  H  H12  1  0.91129900  0.50399700  0.53678000  1
  H  H13  1  0.84904000  0.21634400  0.48030400  1
  H  H14  1  0.05711000  0.22727300  0.54771100  1
  H  H15  1  0.70806200  0.70551400  0.14460100  1
  H  H16  1  0.81653500  0.11676300  0.20318200  1
  H  H17  1  0.66818500  0.40072600  0.20978700  1
  H  H18  1  0.83197500  0.29298500  0.15083400  1
  H  H19  1  0.00054000  0.39670300  0.22311600  1
  N  N0  1  0.22940300  0.72858400  0.82353300  1
  N  N1  1  0.34929200  0.67522600  0.48170800  1
  N  N2  1  0.86955900  0.46893000  0.87555600  1
  N  N3  1  0.88739100  0.29931600  0.52687900  1
  N  N4  1  0.82667200  0.30588000  0.19627600  1
  F  F0  1  0.41336400  0.49460600  0.92860000  1
  F  F1  1  0.08291600  0.05537300  0.74988200  1
  F  F2  1  0.28127700  0.69162500  0.67329200  1
  F  F3  1  0.27352200  0.17570600  0.66508800  1
  F  F4  1  0.44061000  0.36900700  0.58513700  1
  F  F5  1  0.01307700  0.10806900  0.41195000  1
  F  F6  1  0.94271400  0.96641000  0.93437000  1
  F  F7  1  0.17119200  0.70915000  0.31858700  1
  F  F8  1  0.62385100  0.47755600  0.74714000  1
  F  F9  1  0.16466200  0.17078000  0.30539000  1
  F  F10  1  0.78690900  0.68896300  0.66822000  1
  F  F11  1  0.36401200  0.40782400  0.23767800  1
  F  F12  1  0.77661400  0.16872300  0.65733600  1
  F  F13  1  0.05944100  0.17961500  0.09664700  1
  F  F14  1  0.96556000  0.82483300  0.57672300  1
  F  F15  1  0.26478500  0.81721900  0.02493900  1
  F  F16  1  0.52707100  0.00770600  0.43182100  1
  F  F17  1  0.25948600  0.31412800  0.01380700  1
  F  F18  1  0.70260800  0.71228900  0.31952100  1
  F  F19  1  0.68975000  0.17650300  0.30584400  1
  F  F20  1  0.78566400  0.79908600  0.19405300  1
  F  F21  1  0.60342500  0.59349600  0.09600400  1
  F  F22  1  0.75472600  0.81708100  0.01853100  1
  F  F23  1  0.75159000  0.31369000  0.00664300  1
loop_
_geom_bond_atom_site_label_1
_geom_bond_atom_site_label_2
_geom_bond_distance
_geom_bond_site_symmetry_2
Al0 F14 1.730603 1_455
Al0 F3 1.813664 1_565
Al0 F12 1.830002 1_465
Al0 F2 1.834588 1_555
Al0 F10 1.836481 1_455
Al0 F1 2.074559 1_565
Al1 F5 1.676409 1_665
Al1 F18 1.830729 1_555
Al1 F7 1.831053 1_655
Al1 F9 1.838678 1_665
Al1 F19 1.839512 1_565
Al2 F4 1.770090 1_555
Al2 F8 1.784313 1_555
Al2 F3 1.875666 1_555
Al2 F12 1.876556 1_555
Al2 F2 1.891301 1_555
Al2 F10 1.896015 1_555
Al3 F6 1.757657 1_444
Al3 F13 1.804009 1_555
Al3 F23 1.846811 1_455
Al3 F17 1.853563 1_555
Al3 F22 1.883289 1_445
Al3 F15 1.902228 1_545
Al4 H9 1.591134 1_555
Al4 F11 1.831018 1_555
Al4 F18 1.917322 1_555
Al4 F7 1.951621 1_555
Al4 F19 1.952242 1_555
Al4 F9 2.001055 1_555
Al5 F0 1.741726 1_554
Al5 F23 1.825534 1_555
Al5 F17 1.833131 1_555
Al5 F22 1.839545 1_555
Al5 F15 1.860328 1_555
Al5 F21 1.940351 1_555
H0 N0 1.048926 1_555
H1 N2 1.029586 1_555
H2 N1 1.041532 1_555
H3 N2 1.033219 1_555
H4 H5 0.758748 1_545
H6 N2 1.059108 1_555
H8 N2 1.033389 1_455
H10 N1 1.571067 1_555
H11 N3 1.031692 1_555
H12 N3 1.040770 1_555
H13 N3 1.036367 1_555
H14 N3 1.028586 1_455
H15 Rb0 2.581251 1_555
H16 N4 1.034517 1_555
H17 N4 1.032912 1_555
H18 N4 1.036464 1_555
H19 N4 1.032918 1_455
F1 H7 0.966992 1_445
F6 H6 1.570114 1_555
F11 Rb0 2.995518 1_555
F11 Rb0 3.122149 1_545
F13 Rb0 2.747658 1_545
F16 H10 0.984805 1_545
F20 H15 1.118464 1_555
F20 Rb0 2.665367 1_655
F20 Rb0 2.747768 1_555
F21 H15 1.156889 1_555
F21 Rb0 2.778974 1_555
