# generated using pymatgen
data_NaH2SNO3
_symmetry_space_group_name_H-M   'P 1'
_cell_length_a   5.13721800
_cell_length_b   13.60838700
_cell_length_c   17.83929300
_cell_angle_alpha   90.00000000
_cell_angle_beta   90.00000000
_cell_angle_gamma   90.00000000
_symmetry_Int_Tables_number   1
_chemical_formula_structural   NaH2SNO3
_chemical_formula_sum   'Na12 H24 S12 N12 O36'
_cell_volume   1247.13160571
_cell_formula_units_Z   12
loop_
 _symmetry_equiv_pos_site_id
 _symmetry_equiv_pos_as_xyz
  1  'x, y, z'
loop_
 _atom_site_type_symbol
 _atom_site_label
 _atom_site_symmetry_multiplicity
 _atom_site_fract_x
 _atom_site_fract_y
 _atom_site_fract_z
 _atom_site_occupancy
  Na  Na0  1  0.96459200  0.49492000  0.72540000  1
  Na  Na1  1  0.53540800  0.50508000  0.22540000  1
  Na  Na2  1  0.46459200  0.00508000  0.27460000  1
  Na  Na3  1  0.03540800  0.99492000  0.77460000  1
  Na  Na4  1  0.87045500  0.78264500  0.16992900  1
  Na  Na5  1  0.62954500  0.21735500  0.66992900  1
  Na  Na6  1  0.37045500  0.71735500  0.83007100  1
  Na  Na7  1  0.12954500  0.28264500  0.33007100  1
  Na  Na8  1  0.96999000  0.77864900  0.67795200  1
  Na  Na9  1  0.53001000  0.22135100  0.17795200  1
  Na  Na10  1  0.46999000  0.72135100  0.32204800  1
  Na  Na11  1  0.03001000  0.27864900  0.82204800  1
  H  H0  1  0.32189600  0.99760800  0.52050600  1
  H  H1  1  0.17810400  0.00239200  0.02050600  1
  H  H2  1  0.82189600  0.50239200  0.47949400  1
  H  H3  1  0.67810400  0.49760800  0.97949400  1
  H  H4  1  0.90364100  0.04443700  0.41096500  1
  H  H5  1  0.59635900  0.95556300  0.91096500  1
  H  H6  1  0.40364100  0.45556300  0.58903500  1
  H  H7  1  0.09635900  0.54443700  0.08903500  1
  H  H8  1  0.36440000  0.27387100  0.47124600  1
  H  H9  1  0.13560000  0.72612900  0.97124600  1
  H  H10  1  0.86440000  0.22612900  0.52875400  1
  H  H11  1  0.63560000  0.77387100  0.02875400  1
  H  H12  1  0.58396000  0.33274000  0.42490000  1
  H  H13  1  0.91604000  0.66726000  0.92490000  1
  H  H14  1  0.08396000  0.16726000  0.57510000  1
  H  H15  1  0.41604000  0.83274000  0.07510000  1
  H  H16  1  0.01573800  0.10934800  0.02653500  1
  H  H17  1  0.48426200  0.89065200  0.52653500  1
  H  H18  1  0.51573800  0.39065200  0.97346500  1
  H  H19  1  0.98426200  0.60934800  0.47346500  1
  H  H20  1  0.84447400  0.00215000  0.02147300  1
  H  H21  1  0.65552600  0.99785000  0.52147300  1
  H  H22  1  0.34447400  0.49785000  0.97852700  1
  H  H23  1  0.15552600  0.50215000  0.47852700  1
  S  S0  1  0.98150400  0.89762100  0.37141700  1
  S  S1  1  0.51849600  0.10237900  0.87141700  1
  S  S2  1  0.48150400  0.60237900  0.62858300  1
  S  S3  1  0.01849600  0.39762100  0.12858300  1
  S  S4  1  0.93711300  0.75942200  0.49998200  1
  S  S5  1  0.56288700  0.24057800  0.99998200  1
  S  S6  1  0.43711300  0.74057800  0.50001800  1
  S  S7  1  0.06288700  0.25942200  0.00001800  1
  S  S8  1  0.01033300  0.03044500  0.14533300  1
  S  S9  1  0.48966700  0.96955500  0.64533300  1
  S  S10  1  0.51033300  0.46955500  0.85466700  1
  S  S11  1  0.98966700  0.53044500  0.35466700  1
  N  N0  1  0.96093900  0.97485200  0.43256200  1
  N  N1  1  0.53906100  0.02514800  0.93256200  1
  N  N2  1  0.46093900  0.52514800  0.56743800  1
  N  N3  1  0.03906100  0.47485200  0.06743800  1
  N  N4  1  0.38523600  0.32747400  0.43090800  1
  N  N5  1  0.11476400  0.67252600  0.93090800  1
  N  N6  1  0.88523600  0.17252600  0.56909200  1
  N  N7  1  0.61476400  0.82747400  0.06909200  1
  N  N8  1  0.01232900  0.03429400  0.04308000  1
  N  N9  1  0.48767100  0.96570600  0.54308000  1
  N  N10  1  0.51232900  0.46570600  0.95692000  1
  N  N11  1  0.98767100  0.53429400  0.45692000  1
  O  O0  1  0.79749200  0.89771700  0.30781600  1
  O  O1  1  0.70250800  0.10228300  0.80781600  1
  O  O2  1  0.29749200  0.60228300  0.69218400  1
  O  O3  1  0.20250800  0.39771700  0.19218400  1
  O  O4  1  0.24796300  0.87302400  0.34545900  1
  O  O5  1  0.25203700  0.12697600  0.84545900  1
  O  O6  1  0.74796300  0.62697600  0.65454100  1
  O  O7  1  0.75203700  0.37302400  0.15454100  1
  O  O8  1  0.89179700  0.78743400  0.41004500  1
  O  O9  1  0.60820300  0.21256600  0.91004500  1
  O  O10  1  0.39179700  0.71256600  0.58995500  1
  O  O11  1  0.10820300  0.28743400  0.08995500  1
  O  O12  1  0.15877000  0.66125400  0.11786800  1
  O  O13  1  0.34123000  0.33874600  0.61786800  1
  O  O14  1  0.65877000  0.83874600  0.88213200  1
  O  O15  1  0.84123000  0.16125400  0.38213200  1
  O  O16  1  0.47739500  0.17103100  0.30188100  1
  O  O17  1  0.02260500  0.82896900  0.80188100  1
  O  O18  1  0.97739500  0.32896900  0.69811900  1
  O  O19  1  0.52260500  0.67103100  0.19811900  1
  O  O20  1  0.75173600  0.18080500  0.31025500  1
  O  O21  1  0.74826400  0.81919500  0.81025500  1
  O  O22  1  0.25173600  0.31919500  0.68974500  1
  O  O23  1  0.24826400  0.68080500  0.18974500  1
  O  O24  1  0.73823300  0.05056800  0.16128000  1
  O  O25  1  0.76176700  0.94943200  0.66128000  1
  O  O26  1  0.23823300  0.44943200  0.83872000  1
  O  O27  1  0.26176700  0.55056800  0.33872000  1
  O  O28  1  0.18723200  0.10890200  0.16527500  1
  O  O29  1  0.31276800  0.89109800  0.66527500  1
  O  O30  1  0.68723200  0.39109800  0.83472500  1
  O  O31  1  0.81276800  0.60890200  0.33472500  1
  O  O32  1  0.10695600  0.93308100  0.16283000  1
  O  O33  1  0.39304400  0.06691900  0.66283000  1
  O  O34  1  0.60695600  0.56691900  0.83717000  1
  O  O35  1  0.89304400  0.43308100  0.33717000  1
loop_
_geom_bond_atom_site_label_1
_geom_bond_atom_site_label_2
_geom_bond_distance
_geom_bond_site_symmetry_2
Na0 O18 2.311106 1_555
Na0 O2 2.326040 1_655
Na0 O6 2.462889 1_555
Na0 O26 2.538895 1_655
Na0 O30 2.798207 1_555
Na0 O34 2.882901 1_555
Na1 O19 2.311106 1_555
Na1 O3 2.326040 1_555
Na1 O7 2.462889 1_555
Na1 O27 2.538895 1_555
Na1 O31 2.798207 1_555
Na1 O35 2.882901 1_555
Na2 O16 2.311106 1_555
Na2 O0 2.326040 1_545
Na2 O4 2.462889 1_545
Na2 O24 2.538895 1_555
Na2 O28 2.798207 1_555
Na2 O32 2.882901 1_545
Na3 O17 2.311106 1_555
Na3 O1 2.326040 1_465
Na3 O5 2.462889 1_565
Na3 O25 2.538895 1_455
Na3 O29 2.798207 1_555
Na3 O33 2.882901 1_565
Na4 O32 2.383936 1_655
Na4 O19 2.398586 1_555
Na4 O12 2.405244 1_655
Na4 O23 2.410947 1_655
Na4 O0 2.939953 1_555
Na5 O33 2.383936 1_555
Na5 O18 2.398586 1_555
Na5 O13 2.405244 1_555
Na5 O22 2.410947 1_555
Na5 O1 2.939953 1_555
Na6 O34 2.383936 1_555
Na6 O17 2.398586 1_555
Na6 O14 2.405244 1_555
Na6 O21 2.410947 1_555
Na6 O2 2.939953 1_555
Na7 O35 2.383936 1_455
Na7 O16 2.398586 1_555
Na7 O15 2.405244 1_455
Na7 O20 2.410947 1_455
Na7 O3 2.939953 1_555
Na8 O17 2.330158 1_655
Na8 O29 2.343857 1_655
Na8 O6 2.394909 1_555
Na8 O25 2.575663 1_555
Na8 O21 2.678133 1_555
Na8 O10 2.822856 1_655
Na8 O2 2.942001 1_655
Na8 S4 3.190096 1_555
Na9 O16 2.330158 1_555
Na9 O28 2.343857 1_555
Na9 O7 2.394909 1_555
Na9 O24 2.575663 1_555
Na9 O20 2.678133 1_555
Na9 O11 2.822856 1_555
Na9 O3 2.942001 1_555
Na9 S5 3.190096 1_554
Na10 O19 2.330158 1_555
Na10 O31 2.343857 1_555
Na10 O4 2.394909 1_555
Na10 O27 2.575663 1_555
Na10 O23 2.678133 1_555
Na10 O8 2.822856 1_555
Na10 O0 2.942001 1_555
Na10 S6 3.190096 1_555
Na11 O18 2.330158 1_455
Na11 O30 2.343857 1_455
Na11 O5 2.394909 1_555
Na11 O26 2.575663 1_555
Na11 O22 2.678133 1_555
Na11 O9 2.822856 1_455
Na11 O1 2.942001 1_455
Na11 S7 3.190096 1_556
H0 N9 1.037258 1_555
H1 N8 1.037258 1_555
H2 N11 1.037258 1_555
H3 N10 1.037258 1_555
H4 N0 1.063849 1_545
H4 O15 1.701317 1_555
H5 N1 1.063849 1_565
H5 O14 1.701317 1_555
H6 N2 1.063849 1_555
H6 O13 1.701317 1_555
H7 N3 1.063849 1_555
H7 O12 1.701317 1_555
H8 N4 1.030234 1_555
H9 N5 1.030234 1_555
H10 N6 1.030234 1_555
H11 N7 1.030234 1_555
H12 N4 1.028998 1_555
H13 N5 1.028998 1_655
H14 N6 1.028998 1_455
H15 N7 1.028998 1_555
H16 N8 1.063299 1_555
H17 N9 1.063299 1_555
H18 N10 1.063299 1_555
H19 N11 1.063299 1_555
H20 N8 1.040909 1_655
H21 N9 1.040909 1_555
H22 N10 1.040909 1_555
H23 N11 1.040909 1_455
N0 S0 1.518403 1_555
N1 S1 1.518403 1_555
N2 S2 1.518403 1_555
N3 S3 1.518403 1_555
N4 Na7 2.309426 1_555
N5 Na6 2.309426 1_555
N6 Na5 2.309426 1_555
N7 Na4 2.309426 1_555
N8 S8 1.824902 1_555
N9 S9 1.824902 1_555
N10 S10 1.824902 1_555
N11 S11 1.824902 1_555
O0 S0 1.476795 1_555
O1 S1 1.476795 1_555
O2 S2 1.476795 1_555
O3 S3 1.476795 1_555
O4 S0 1.483324 1_455
O5 S1 1.483324 1_555
O6 S2 1.483324 1_555
O7 S3 1.483324 1_655
O8 S4 1.665427 1_555
O8 S0 1.713369 1_555
O9 S5 1.665427 1_555
O9 S1 1.713369 1_555
O10 S6 1.665427 1_555
O10 S2 1.713369 1_555
O11 S7 1.665427 1_555
O11 S3 1.713369 1_555
O12 O23 1.387906 1_555
O13 O22 1.387906 1_555
O14 O21 1.387906 1_555
O15 O20 1.387906 1_555
O16 O20 1.423472 1_555
O17 O21 1.423472 1_455
O18 O22 1.423472 1_655
O19 O23 1.423472 1_555
O24 S8 1.452539 1_655
O25 S9 1.452539 1_555
O26 S10 1.452539 1_555
O27 S11 1.452539 1_455
O28 S8 1.446494 1_555
O29 S9 1.446494 1_555
O30 S10 1.446494 1_555
O31 S11 1.446494 1_555
O32 S8 1.448914 1_565
O33 S9 1.448914 1_545
O34 S10 1.448914 1_555
O35 S11 1.448914 1_555
