# generated using pymatgen
data_Fe10O11F9
_symmetry_space_group_name_H-M   'P 1'
_cell_length_a   4.72743700
_cell_length_b   4.73123654
_cell_length_c   15.36402138
_cell_angle_alpha   89.70417128
_cell_angle_beta   89.70164259
_cell_angle_gamma   89.05277696
_symmetry_Int_Tables_number   1
_chemical_formula_structural   Fe10O11F9
_chemical_formula_sum   'Fe10 O11 F9'
_cell_volume   343.58522109
_cell_formula_units_Z   1
loop_
 _symmetry_equiv_pos_site_id
 _symmetry_equiv_pos_as_xyz
  1  'x, y, z'
loop_
 _atom_site_type_symbol
 _atom_site_label
 _atom_site_symmetry_multiplicity
 _atom_site_fract_x
 _atom_site_fract_y
 _atom_site_fract_z
 _atom_site_occupancy
  Fe  Fe0  1  0.98030400  0.95634200  0.00666500  1
  Fe  Fe1  1  0.04455500  0.01991600  0.19460800  1
  Fe  Fe2  1  0.98540200  0.95010500  0.39767100  1
  Fe  Fe3  1  0.04854300  0.00328800  0.59901900  1
  Fe  Fe4  1  0.04444200  0.00318800  0.80228700  1
  Fe  Fe5  1  0.50969000  0.48943700  0.10049000  1
  Fe  Fe6  1  0.48487700  0.51911700  0.49927700  1
  Fe  Fe7  1  0.48169900  0.52529300  0.29960200  1
  Fe  Fe8  1  0.45892900  0.49093200  0.69978300  1
  Fe  Fe9  1  0.47762600  0.51856300  0.90082500  1
  O  O0  1  0.20792600  0.79209900  0.10065300  1
  O  O1  1  0.19021800  0.81711400  0.29675800  1
  O  O2  1  0.18823800  0.80636300  0.49823100  1
  O  O3  1  0.19799000  0.81314400  0.70052700  1
  O  O4  1  0.18134400  0.80617500  0.90379900  1
  O  O5  1  0.32896100  0.31849500  0.19857100  1
  O  O6  1  0.31316700  0.31249900  0.59704300  1
  O  O7  1  0.31004000  0.31329000  0.80285200  1
  O  O8  1  0.68082800  0.67106700  0.00245100  1
  O  O9  1  0.68282300  0.68036300  0.39915800  1
  O  O10  1  0.81010200  0.19027700  0.10068300  1
  F  F0  1  0.29455400  0.29115400  0.99918700  1
  F  F1  1  0.29119500  0.29849800  0.39889400  1
  F  F2  1  0.70880600  0.70544600  0.20174000  1
  F  F3  1  0.70034900  0.70480000  0.60053200  1
  F  F4  1  0.69721100  0.70546700  0.79953700  1
  F  F5  1  0.79780100  0.19429000  0.49919700  1
  F  F6  1  0.80012100  0.20184400  0.30048700  1
  F  F7  1  0.79484800  0.19502400  0.89976900  1
  F  F8  1  0.80741500  0.20640900  0.69970400  1
loop_
_geom_bond_atom_site_label_1
_geom_bond_atom_site_label_2
_geom_bond_distance
_geom_bond_site_symmetry_2
Fe0 O0 1.955492 1_655
Fe0 O4 1.969631 1_654
Fe0 O8 1.973648 1_555
Fe0 O10 1.983418 1_565
Fe1 O0 1.954217 1_545
Fe1 O1 1.957504 1_545
Fe1 O5 1.967620 1_555
Fe1 O10 1.983855 1_455
Fe2 O1 1.926539 1_655
Fe2 O9 1.932632 1_555
Fe2 O2 1.937020 1_655
Fe3 O2 1.919889 1_545
Fe3 O3 1.927872 1_545
Fe3 O6 1.940563 1_555
Fe4 O4 1.922423 1_545
Fe4 O3 1.939289 1_545
Fe4 O7 1.946877 1_555
Fe5 O5 1.910951 1_555
Fe5 O8 1.912798 1_555
Fe5 O10 1.988418 1_555
Fe5 O0 2.004518 1_555
Fe6 O2 1.936693 1_555
Fe6 O9 1.954567 1_555
Fe6 O6 1.967021 1_555
Fe7 O1 1.934952 1_555
Fe7 O9 1.957476 1_555
Fe7 O5 1.984648 1_555
Fe8 O7 1.924489 1_555
Fe8 O6 1.929638 1_555
Fe8 O3 1.945166 1_555
Fe9 O4 1.937150 1_555
Fe9 O7 1.972218 1_555
Fe9 O8 1.982801 1_556
F0 Fe9 2.047156 1_555
F0 Fe5 2.097619 1_556
F0 Fe0 2.191721 1_446
F1 Fe7 2.071330 1_555
F1 Fe6 2.090324 1_555
F1 Fe2 2.210552 1_445
F2 Fe7 2.034716 1_555
F2 Fe5 2.100931 1_555
F2 Fe1 2.195345 1_665
F3 Fe6 2.071170 1_555
F3 Fe8 2.157742 1_555
F3 Fe3 2.186447 1_665
F4 Fe9 2.068963 1_555
F4 Fe8 2.172546 1_555
F4 Fe4 2.181343 1_665
F5 Fe6 2.115444 1_555
F5 Fe2 2.127135 1_545
F5 Fe3 2.131447 1_655
F6 Fe2 2.091889 1_545
F6 Fe7 2.128818 1_555
F6 Fe1 2.164349 1_655
F7 Fe4 2.102239 1_655
F7 Fe9 2.125200 1_555
F7 Fe0 2.168945 1_546
F8 Fe8 2.110180 1_555
F8 Fe3 2.139324 1_655
F8 Fe4 2.152027 1_655
