# generated using pymatgen
data_CsMgAlF6
_symmetry_space_group_name_H-M   'P 1'
_cell_length_a   7.22298141
_cell_length_b   7.22298141
_cell_length_c   7.22298141
_cell_angle_alpha   120.46534322
_cell_angle_beta   119.31925575
_cell_angle_gamma   90.18950051
_symmetry_Int_Tables_number   1
_chemical_formula_structural   CsMgAlF6
_chemical_formula_sum   'Cs2 Mg2 Al2 F12'
_cell_volume   266.86046865
_cell_formula_units_Z   2
loop_
 _symmetry_equiv_pos_site_id
 _symmetry_equiv_pos_as_xyz
  1  'x, y, z'
loop_
 _atom_site_type_symbol
 _atom_site_label
 _atom_site_symmetry_multiplicity
 _atom_site_fract_x
 _atom_site_fract_y
 _atom_site_fract_z
 _atom_site_occupancy
  Cs  Cs0  1  0.62220500  0.87220500  0.75000000  1
  Cs  Cs1  1  0.37779500  0.12779500  0.25000000  1
  Mg  Mg0  1  0.50000000  0.50000000  0.00000000  1
  Mg  Mg1  1  0.00000000  0.50000000  0.50000000  1
  Al  Al0  1  0.00000000  0.50000000  0.00000000  1
  Al  Al1  1  0.00000000  0.00000000  0.50000000  1
  F  F0  1  0.05329600  0.80329600  0.25000000  1
  F  F1  1  0.67476700  0.42476700  0.25000000  1
  F  F2  1  0.05613000  0.83131400  0.62881200  1
  F  F3  1  0.70250100  0.42731700  0.87118800  1
  F  F4  1  0.70250100  0.83131400  0.27518400  1
  F  F5  1  0.05613000  0.42731700  0.22481600  1
  F  F6  1  0.94670400  0.19670400  0.75000000  1
  F  F7  1  0.32523300  0.57523300  0.75000000  1
  F  F8  1  0.94387000  0.16868600  0.37118800  1
  F  F9  1  0.29749900  0.57268300  0.12881200  1
  F  F10  1  0.29749900  0.16868600  0.72481600  1
  F  F11  1  0.94387000  0.57268300  0.77518400  1
loop_
_geom_bond_atom_site_label_1
_geom_bond_atom_site_label_2
_geom_bond_distance
_geom_bond_site_symmetry_2
Cs0 F7 3.028500 1_555
Cs0 F11 3.182777 1_555
Cs0 F10 3.182777 1_565
Cs0 F9 3.182782 1_555
Cs0 F8 3.182782 1_566
Cs0 F6 3.309219 1_565
Cs1 F1 3.028500 1_555
Cs1 F5 3.182777 1_555
Cs1 F4 3.182777 1_545
Cs1 F3 3.182782 1_555
Cs1 F2 3.182782 1_544
Cs1 F0 3.309219 1_545
Al0 F5 1.816029 1_555
Al0 F11 1.816029 1_454
Al0 F3 1.816030 1_454
Al0 F9 1.816030 1_555
Al0 F6 1.873595 1_454
Al0 F0 1.873595 1_555
Al1 F8 1.816023 1_455
Al1 F2 1.816023 1_545
Al1 F4 1.816029 1_445
Al1 F10 1.816029 1_555
Al1 F6 1.873595 1_455
Al1 F0 1.873595 1_545
F1 Mg0 1.979059 1_555
F1 Mg1 1.979059 1_655
F2 Mg1 2.030570 1_555
F3 Mg0 2.030563 1_556
F4 Mg0 2.030568 1_555
F5 Mg1 2.030568 1_555
F7 Mg0 1.979059 1_556
F7 Mg1 1.979059 1_555
F8 Mg1 2.030570 1_655
F9 Mg0 2.030563 1_555
F10 Mg0 2.030568 1_556
F11 Mg1 2.030568 1_655
