# generated using pymatgen
data_LiCaPO4
_symmetry_space_group_name_H-M   'P 1'
_cell_length_a   7.66702439
_cell_length_b   7.66702439
_cell_length_c   10.05235300
_cell_angle_alpha   90.00000000
_cell_angle_beta   90.00000000
_cell_angle_gamma   120.00000332
_symmetry_Int_Tables_number   1
_chemical_formula_structural   LiCaPO4
_chemical_formula_sum   'Li6 Ca6 P6 O24'
_cell_volume   511.74314893
_cell_formula_units_Z   6
loop_
 _symmetry_equiv_pos_site_id
 _symmetry_equiv_pos_as_xyz
  1  'x, y, z'
loop_
 _atom_site_type_symbol
 _atom_site_label
 _atom_site_symmetry_multiplicity
 _atom_site_fract_x
 _atom_site_fract_y
 _atom_site_fract_z
 _atom_site_occupancy
  Li  Li0  1  0.03994500  0.23763000  0.25631000  1
  Li  Li1  1  0.76237000  0.80231500  0.25631000  1
  Li  Li2  1  0.19768500  0.96005500  0.25631000  1
  Li  Li3  1  0.23763000  0.03994500  0.75631000  1
  Li  Li4  1  0.80231500  0.76237000  0.75631000  1
  Li  Li5  1  0.96005500  0.19768500  0.75631000  1
  Ca  Ca0  1  0.01948100  0.54166700  0.48535400  1
  Ca  Ca1  1  0.98051900  0.52218600  0.98535400  1
  Ca  Ca2  1  0.47781400  0.45833300  0.98535400  1
  Ca  Ca3  1  0.54166700  0.01948100  0.98535400  1
  Ca  Ca4  1  0.52218600  0.98051900  0.48535400  1
  Ca  Ca5  1  0.45833300  0.47781400  0.48535400  1
  P  P0  1  0.00000000  0.00000000  0.99964800  1
  P  P1  1  0.33333300  0.66666700  0.75720400  1
  P  P2  1  0.66666700  0.33333300  0.25720400  1
  P  P3  1  0.66666700  0.33333300  0.68588400  1
  P  P4  1  0.33333300  0.66666700  0.18588400  1
  P  P5  1  0.00000000  0.00000000  0.49964800  1
  O  O0  1  0.76744400  0.55075200  0.62812400  1
  O  O1  1  0.52308400  0.66610600  0.80762700  1
  O  O2  1  0.33389400  0.85697900  0.80762700  1
  O  O3  1  0.14302100  0.47691600  0.80762700  1
  O  O4  1  0.66610600  0.52308400  0.30762700  1
  O  O5  1  0.85697900  0.33389400  0.30762700  1
  O  O6  1  0.47691600  0.14302100  0.30762700  1
  O  O7  1  0.78330800  0.23255600  0.62812400  1
  O  O8  1  0.66666700  0.33333300  0.84021600  1
  O  O9  1  0.44924800  0.21669200  0.62812400  1
  O  O10  1  0.23255600  0.78330800  0.12812400  1
  O  O11  1  0.55075200  0.76744400  0.12812400  1
  O  O12  1  0.00000000  0.00000000  0.15481800  1
  O  O13  1  0.00000000  0.00000000  0.65481800  1
  O  O14  1  0.33333300  0.66666700  0.34021600  1
  O  O15  1  0.22106100  0.12506200  0.94565600  1
  O  O16  1  0.66666700  0.33333300  0.10121900  1
  O  O17  1  0.33333300  0.66666700  0.60121900  1
  O  O18  1  0.77893900  0.90400100  0.44565600  1
  O  O19  1  0.87493800  0.09599900  0.94565600  1
  O  O20  1  0.90400100  0.77893900  0.94565600  1
  O  O21  1  0.12506200  0.22106100  0.44565600  1
  O  O22  1  0.09599900  0.87493800  0.44565600  1
  O  O23  1  0.21669200  0.44924800  0.12812400  1
loop_
_geom_bond_atom_site_label_1
_geom_bond_atom_site_label_2
_geom_bond_distance
_geom_bond_site_symmetry_2
Li0 O5 1.952960 1_455
Li0 O12 1.973846 1_555
Li0 O23 1.982563 1_555
Li0 O21 2.036602 1_555
Li1 O4 1.952967 1_555
Li1 O12 1.973846 1_665
Li1 O11 1.982563 1_555
Li1 O18 2.036602 1_555
Li2 O6 1.952965 1_565
Li2 O12 1.973846 1_565
Li2 O10 1.982563 1_555
Li2 O22 2.036602 1_555
Li3 O2 1.952960 1_545
Li3 O13 1.973846 1_555
Li3 O9 1.982563 1_555
Li3 O15 2.036602 1_555
Li4 O1 1.952967 1_555
Li4 O13 1.973846 1_665
Li4 O0 1.982563 1_555
Li4 O20 2.036602 1_555
Li5 O3 1.952965 1_655
Li5 O13 1.973846 1_655
Li5 O7 1.982563 1_555
Li5 O19 2.036602 1_555
Ca0 O5 2.301533 1_455
Ca0 O22 2.352320 1_555
Ca0 O17 2.399839 1_555
Ca0 O0 2.435825 1_455
Ca0 O14 2.555637 1_555
Ca0 O7 2.581442 1_455
Ca0 O21 2.974317 1_555
Ca1 O3 2.301530 1_655
Ca1 O20 2.352320 1_555
Ca1 O16 2.399840 1_556
Ca1 O10 2.435825 1_656
Ca1 O8 2.555638 1_555
Ca1 O23 2.581442 1_656
Ca1 O19 2.974316 1_555
Ca2 O1 2.301534 1_555
Ca2 O15 2.352320 1_555
Ca2 O16 2.399845 1_556
Ca2 O23 2.435825 1_556
Ca2 O8 2.555643 1_555
Ca2 O11 2.581442 1_556
Ca2 O20 2.974316 1_555
Ca3 O2 2.301533 1_545
Ca3 O19 2.352320 1_555
Ca3 O16 2.399839 1_556
Ca3 O11 2.435825 1_546
Ca3 O8 2.555637 1_555
Ca3 O10 2.581442 1_546
Ca3 O15 2.974317 1_555
Ca4 O6 2.301530 1_565
Ca4 O18 2.352320 1_555
Ca4 O17 2.399840 1_555
Ca4 O7 2.435825 1_565
Ca4 O14 2.555638 1_555
Ca4 O9 2.581442 1_565
Ca4 O22 2.974316 1_555
Ca5 O4 2.301534 1_555
Ca5 O21 2.352320 1_555
Ca5 O17 2.399845 1_555
Ca5 O9 2.435825 1_555
Ca5 O14 2.555643 1_555
Ca5 O0 2.581442 1_555
Ca5 O18 2.974316 1_555
O0 P3 1.557203 1_555
O1 P1 1.542631 1_555
O2 P1 1.542631 1_555
O3 P1 1.542631 1_555
O4 P2 1.542631 1_555
O5 P2 1.542631 1_555
O6 P2 1.542631 1_555
O7 P3 1.557197 1_555
O8 P3 1.551400 1_555
O9 P3 1.557203 1_555
O10 P4 1.557197 1_555
O11 P4 1.557203 1_555
O12 P0 1.559824 1_554
O13 P5 1.559824 1_555
O14 P4 1.551400 1_555
O15 P0 1.568901 1_555
O16 P2 1.568016 1_555
O17 P1 1.568016 1_555
O18 P5 1.568901 1_665
O19 P0 1.568901 1_655
O20 P0 1.568901 1_665
O21 P5 1.568901 1_555
O22 P5 1.568901 1_565
O23 P4 1.557203 1_555
