# generated using pymatgen
data_RbSmI3
_symmetry_space_group_name_H-M   'P 1'
_cell_length_a   8.61408020
_cell_length_b   8.61408020
_cell_length_c   11.94876900
_cell_angle_alpha   90.00000000
_cell_angle_beta   90.00000000
_cell_angle_gamma   151.01400733
_symmetry_Int_Tables_number   1
_chemical_formula_structural   RbSmI3
_chemical_formula_sum   'Rb2 Sm2 I6'
_cell_volume   429.65574052
_cell_formula_units_Z   2
loop_
 _symmetry_equiv_pos_site_id
 _symmetry_equiv_pos_as_xyz
  1  'x, y, z'
loop_
 _atom_site_type_symbol
 _atom_site_label
 _atom_site_symmetry_multiplicity
 _atom_site_fract_x
 _atom_site_fract_y
 _atom_site_fract_z
 _atom_site_occupancy
  Rb  Rb0  1  0.25093400  0.74906600  0.25000000  1
  Rb  Rb1  1  0.74906600  0.25093400  0.75000000  1
  Sm  Sm0  1  0.00000000  0.00000000  0.00000000  1
  Sm  Sm1  1  0.00000000  0.00000000  0.50000000  1
  I  I0  1  0.63619900  0.36380100  0.05252300  1
  I  I1  1  0.36380100  0.63619900  0.94747700  1
  I  I2  1  0.36380100  0.63619900  0.55252300  1
  I  I3  1  0.63619900  0.36380100  0.44747700  1
  I  I4  1  0.93703400  0.06296600  0.25000000  1
  I  I5  1  0.06296600  0.93703400  0.75000000  1
loop_
_geom_bond_atom_site_label_1
_geom_bond_atom_site_label_2
_geom_bond_distance
_geom_bond_site_symmetry_2
I0 Sm0 3.194097 1_555
I0 Sm0 3.194097 1_665
I0 Rb0 3.725269 1_545
I0 Rb0 3.725269 1_655
I0 Rb1 4.075641 1_554
I1 Sm0 3.194097 1_666
I1 Sm0 3.194097 1_556
I1 Rb1 3.725269 1_565
I1 Rb1 3.725269 1_455
I1 Rb0 4.075641 1_556
I2 Sm1 3.194097 1_665
I2 Sm1 3.194097 1_555
I2 Rb1 3.725269 1_565
I2 Rb1 3.725269 1_455
I2 Rb0 4.075641 1_555
I3 Sm1 3.194097 1_555
I3 Sm1 3.194097 1_665
I3 Rb0 3.725269 1_545
I3 Rb0 3.725269 1_655
I3 Rb1 4.075641 1_555
I4 Sm0 3.166446 1_655
I4 Sm1 3.166446 1_655
I4 Rb0 3.779288 1_655
I4 Rb0 3.779288 1_545
I5 Sm0 3.166446 1_566
I5 Sm1 3.166446 1_565
I5 Rb1 3.779288 1_565
I5 Rb1 3.779288 1_455
