# generated using pymatgen
data_Sr3ScRhO6
_symmetry_space_group_name_H-M   'P 1'
_cell_length_a   6.76117617
_cell_length_b   6.76117617
_cell_length_c   6.76117571
_cell_angle_alpha   92.63615501
_cell_angle_beta   92.63615501
_cell_angle_gamma   92.63615977
_symmetry_Int_Tables_number   1
_chemical_formula_structural   Sr3ScRhO6
_chemical_formula_sum   'Sr6 Sc2 Rh2 O12'
_cell_volume   308.06456934
_cell_formula_units_Z   2
loop_
 _symmetry_equiv_pos_site_id
 _symmetry_equiv_pos_as_xyz
  1  'x, y, z'
loop_
 _atom_site_type_symbol
 _atom_site_label
 _atom_site_symmetry_multiplicity
 _atom_site_fract_x
 _atom_site_fract_y
 _atom_site_fract_z
 _atom_site_occupancy
  Sr  Sr0  1  0.75000000  0.11890700  0.38109300  1
  Sr  Sr1  1  0.38109300  0.75000000  0.11890700  1
  Sr  Sr2  1  0.11890700  0.38109300  0.75000000  1
  Sr  Sr3  1  0.25000000  0.88109300  0.61890700  1
  Sr  Sr4  1  0.61890700  0.25000000  0.88109300  1
  Sr  Sr5  1  0.88109300  0.61890700  0.25000000  1
  Sc  Sc0  1  0.75000000  0.75000000  0.75000000  1
  Sc  Sc1  1  0.25000000  0.25000000  0.25000000  1
  Rh  Rh0  1  0.50000000  0.50000000  0.50000000  1
  Rh  Rh1  1  0.00000000  0.00000000  0.00000000  1
  O  O0  1  0.59926200  0.79284700  0.46641600  1
  O  O1  1  0.46641600  0.59926200  0.79284700  1
  O  O2  1  0.79284700  0.46641600  0.59926200  1
  O  O3  1  0.90073800  0.03358400  0.70715300  1
  O  O4  1  0.70715300  0.90073800  0.03358400  1
  O  O5  1  0.03358400  0.70715300  0.90073800  1
  O  O6  1  0.40073800  0.20715300  0.53358400  1
  O  O7  1  0.53358400  0.40073800  0.20715300  1
  O  O8  1  0.20715300  0.53358400  0.40073800  1
  O  O9  1  0.09926200  0.96641600  0.29284700  1
  O  O10  1  0.96641600  0.29284700  0.09926200  1
  O  O11  1  0.29284700  0.09926200  0.96641600  1
loop_
_geom_bond_atom_site_label_1
_geom_bond_atom_site_label_2
_geom_bond_distance
_geom_bond_site_symmetry_2
O0 Rh0 2.086977 1_555
O0 Sc0 2.167348 1_555
O0 Sr0 2.489161 1_565
O0 Sr3 2.700421 1_555
O0 Sr1 2.712846 1_555
O0 Sr5 2.731188 1_555
O1 Rh0 2.086977 1_555
O1 Sc0 2.167348 1_555
O1 Sr1 2.489161 1_556
O1 Sr4 2.700421 1_555
O1 Sr2 2.712846 1_555
O1 Sr3 2.731188 1_555
O2 Rh0 2.086977 1_555
O2 Sc0 2.167348 1_555
O2 Sr2 2.489161 1_655
O2 Sr5 2.700421 1_555
O2 Sr0 2.712846 1_555
O2 Sr4 2.731188 1_555
O3 Rh1 2.086977 1_656
O3 Sc0 2.167348 1_545
O3 Sr0 2.489161 1_555
O3 Sr3 2.700421 1_645
O3 Sr2 2.712846 1_655
O3 Sr4 2.731188 1_555
O4 Rh1 2.086977 1_665
O4 Sc0 2.167348 1_554
O4 Sr1 2.489161 1_555
O4 Sr4 2.700421 1_564
O4 Sr0 2.712846 1_565
O4 Sr5 2.731188 1_555
O5 Rh1 2.086977 1_566
O5 Sc0 2.167348 1_455
O5 Sr2 2.489161 1_555
O5 Sr5 2.700421 1_456
O5 Sr1 2.712846 1_556
O5 Sr3 2.731188 1_555
O6 Rh0 2.086977 1_555
O6 Sc1 2.167348 1_555
O6 Sr3 2.489161 1_545
O6 Sr0 2.700421 1_555
O6 Sr4 2.712846 1_555
O6 Sr2 2.731188 1_555
O7 Rh0 2.086977 1_555
O7 Sc1 2.167348 1_555
O7 Sr4 2.489161 1_554
O7 Sr1 2.700421 1_555
O7 Sr5 2.712846 1_555
O7 Sr0 2.731188 1_555
O8 Rh0 2.086977 1_555
O8 Sc1 2.167348 1_555
O8 Sr5 2.489161 1_455
O8 Sr2 2.700421 1_555
O8 Sr3 2.712846 1_555
O8 Sr1 2.731188 1_555
O9 Rh1 2.086977 1_565
O9 Sc1 2.167348 1_565
O9 Sr3 2.489161 1_555
O9 Sr0 2.700421 1_465
O9 Sr5 2.712846 1_455
O9 Sr1 2.731188 1_555
O10 Rh1 2.086977 1_655
O10 Sc1 2.167348 1_655
O10 Sr5 2.489161 1_555
O10 Sr2 2.700421 1_654
O10 Sr4 2.712846 1_554
O10 Sr0 2.731188 1_555
O11 Rh1 2.086977 1_556
O11 Sc1 2.167348 1_556
O11 Sr4 2.489161 1_555
O11 Sr1 2.700421 1_546
O11 Sr3 2.712846 1_545
O11 Sr2 2.731188 1_555
