# generated using pymatgen
data_BaFe4O7
_symmetry_space_group_name_H-M   'P 1'
_cell_length_a   6.48889756
_cell_length_b   6.48889756
_cell_length_c   10.56814600
_cell_angle_alpha   90.00000000
_cell_angle_beta   90.00000000
_cell_angle_gamma   119.99999549
_symmetry_Int_Tables_number   1
_chemical_formula_structural   BaFe4O7
_chemical_formula_sum   'Ba2 Fe8 O14'
_cell_volume   385.36413348
_cell_formula_units_Z   2
loop_
 _symmetry_equiv_pos_site_id
 _symmetry_equiv_pos_as_xyz
  1  'x, y, z'
loop_
 _atom_site_type_symbol
 _atom_site_label
 _atom_site_symmetry_multiplicity
 _atom_site_fract_x
 _atom_site_fract_y
 _atom_site_fract_z
 _atom_site_occupancy
  Ba  Ba0  1  0.66666700  0.33333300  0.49162700  1
  Ba  Ba1  1  0.33333300  0.66666700  0.99162700  1
  Fe  Fe0  1  0.82959500  0.17040500  0.19050500  1
  Fe  Fe1  1  0.65919100  0.82959500  0.69050500  1
  Fe  Fe2  1  0.17040500  0.34080900  0.69050500  1
  Fe  Fe3  1  0.82959500  0.65919100  0.19050500  1
  Fe  Fe4  1  0.34080900  0.17040500  0.19050500  1
  Fe  Fe5  1  0.17040500  0.82959500  0.69050500  1
  Fe  Fe6  1  0.00000000  0.00000000  0.44930900  1
  Fe  Fe7  1  0.00000000  0.00000000  0.94930900  1
  O  O0  1  0.84615000  0.15385000  0.01460100  1
  O  O1  1  0.69230000  0.84615000  0.51460100  1
  O  O2  1  0.15385000  0.30770000  0.51460100  1
  O  O3  1  0.84615000  0.69230000  0.01460100  1
  O  O4  1  0.30770000  0.15385000  0.01460100  1
  O  O5  1  0.15385000  0.84615000  0.51460100  1
  O  O6  1  0.00000000  0.00000000  0.75914800  1
  O  O7  1  0.00000000  0.00000000  0.25914800  1
  O  O8  1  0.51354400  0.48645600  0.24621600  1
  O  O9  1  0.02708900  0.51354400  0.74621600  1
  O  O10  1  0.48645600  0.97291100  0.74621600  1
  O  O11  1  0.51354400  0.02708900  0.24621600  1
  O  O12  1  0.48645600  0.51354400  0.74621600  1
  O  O13  1  0.97291100  0.48645600  0.24621600  1
loop_
_geom_bond_atom_site_label_1
_geom_bond_atom_site_label_2
_geom_bond_distance
_geom_bond_site_symmetry_2
Ba0 O11 3.112576 1_555
Ba0 O13 3.112576 1_555
Ba0 O8 3.112582 1_555
Ba0 O1 3.256705 1_545
Ba0 O2 3.256705 1_655
Ba0 O5 3.256708 1_545
Ba0 O5 3.256708 1_655
Ba0 O2 3.256711 1_555
Ba0 O1 3.256711 1_555
Ba0 O12 3.367678 1_555
Ba0 O9 3.367678 1_655
Ba0 O10 3.367678 1_545
Ba1 O9 3.112576 1_555
Ba1 O10 3.112576 1_555
Ba1 O12 3.112582 1_555
Ba1 O3 3.256705 1_456
Ba1 O4 3.256705 1_566
Ba1 O0 3.256708 1_456
Ba1 O0 3.256708 1_566
Ba1 O4 3.256711 1_556
Ba1 O3 3.256711 1_556
Ba1 O8 3.367678 1_556
Ba1 O11 3.367678 1_566
Ba1 O13 3.367678 1_456
Fe0 O0 1.868267 1_555
Fe0 O11 1.873541 1_555
Fe0 O13 1.873541 1_555
Fe0 O7 2.047983 1_655
Fe1 O1 1.868267 1_555
Fe1 O10 1.873541 1_555
Fe1 O12 1.873541 1_555
Fe1 O6 2.047978 1_665
Fe2 O2 1.868267 1_555
Fe2 O9 1.873541 1_555
Fe2 O12 1.873541 1_555
Fe2 O6 2.047978 1_555
Fe3 O3 1.868267 1_555
Fe3 O13 1.873541 1_555
Fe3 O8 1.873541 1_555
Fe3 O7 2.047978 1_665
Fe4 O4 1.868267 1_555
Fe4 O11 1.873541 1_555
Fe4 O8 1.873541 1_555
Fe4 O7 2.047978 1_555
Fe5 O5 1.868267 1_555
Fe5 O10 1.873541 1_555
Fe5 O9 1.873541 1_555
Fe5 O6 2.047983 1_565
Fe6 O5 1.861728 1_545
Fe6 O1 1.861728 1_445
Fe6 O2 1.861728 1_555
Fe6 O7 2.009649 1_555
Fe7 O0 1.861728 1_456
Fe7 O3 1.861728 1_446
Fe7 O4 1.861728 1_556
Fe7 O6 2.009649 1_555
