# generated using pymatgen
data_AlAs2
_symmetry_space_group_name_H-M   'P 1'
_cell_length_a   9.10741492
_cell_length_b   9.10741492
_cell_length_c   9.10741492
_cell_angle_alpha   87.76504491
_cell_angle_beta   113.94119015
_cell_angle_gamma   129.28651242
_symmetry_Int_Tables_number   1
_chemical_formula_structural   AlAs2
_chemical_formula_sum   'Al8 As16'
_cell_volume   508.38160170
_cell_formula_units_Z   8
loop_
 _symmetry_equiv_pos_site_id
 _symmetry_equiv_pos_as_xyz
  1  'x, y, z'
loop_
 _atom_site_type_symbol
 _atom_site_label
 _atom_site_symmetry_multiplicity
 _atom_site_fract_x
 _atom_site_fract_y
 _atom_site_fract_z
 _atom_site_occupancy
  Al  Al0  1  0.16804100  0.92963500  0.49356400  1
  Al  Al1  1  0.43607000  0.17447600  0.00643600  1
  Al  Al2  1  0.06393000  0.57036500  0.23840600  1
  Al  Al3  1  0.33195900  0.32552400  0.26159400  1
  Al  Al4  1  0.83195900  0.07036500  0.50643600  1
  Al  Al5  1  0.56393000  0.82552400  0.99356400  1
  Al  Al6  1  0.93607000  0.42963500  0.76159400  1
  Al  Al7  1  0.66804100  0.67447600  0.73840600  1
  As  As0  1  0.50000000  0.00000000  0.50000000  1
  As  As1  1  0.50000000  0.50000000  0.00000000  1
  As  As2  1  0.00000000  0.50000000  0.50000000  1
  As  As3  1  0.00000000  0.00000000  0.00000000  1
  As  As4  1  0.12216100  0.87216100  0.75000000  1
  As  As5  1  0.37783900  0.62783900  0.25000000  1
  As  As6  1  0.87783900  0.12783900  0.25000000  1
  As  As7  1  0.62216100  0.37216100  0.75000000  1
  As  As8  1  0.93342100  0.75000000  0.18342100  1
  As  As9  1  0.56657900  0.25000000  0.31657900  1
  As  As10  1  0.06657900  0.25000000  0.81657900  1
  As  As11  1  0.43342100  0.75000000  0.68342100  1
  As  As12  1  0.25000000  0.25139800  0.50139800  1
  As  As13  1  0.75000000  0.24860200  0.99860200  1
  As  As14  1  0.75000000  0.74860200  0.49860200  1
  As  As15  1  0.25000000  0.75139800  0.00139800  1
loop_
_geom_bond_atom_site_label_1
_geom_bond_atom_site_label_2
_geom_bond_distance
_geom_bond_site_symmetry_2
Al0 As8 2.501129 1_455
Al0 As4 2.514495 1_555
Al0 As12 2.520450 1_565
Al0 As0 2.638164 1_565
Al1 As9 2.501128 1_555
Al1 As4 2.514491 1_544
Al1 As13 2.520455 1_554
Al1 As1 2.638168 1_555
Al2 As8 2.501137 1_455
Al2 As5 2.514486 1_555
Al2 As13 2.520451 1_454
Al2 As2 2.638168 1_555
Al3 As9 2.501137 1_555
Al3 As5 2.514486 1_555
Al3 As12 2.520451 1_555
Al3 As3 2.638168 1_555
Al4 As10 2.501129 1_655
Al4 As6 2.514495 1_555
Al4 As14 2.520450 1_545
Al4 As0 2.638164 1_555
Al5 As11 2.501128 1_555
Al5 As6 2.514491 1_566
Al5 As15 2.520455 1_556
Al5 As1 2.638168 1_556
Al6 As10 2.501137 1_655
Al6 As7 2.514486 1_555
Al6 As15 2.520451 1_656
Al6 As2 2.638168 1_655
Al7 As11 2.501137 1_555
Al7 As7 2.514486 1_555
Al7 As14 2.520451 1_555
Al7 As3 2.638168 1_666
