# generated using pymatgen
data_Zn3P6H30(N3O13)2
_symmetry_space_group_name_H-M   'P 1'
_cell_length_a   7.52062689
_cell_length_b   9.72278594
_cell_length_c   9.92556025
_cell_angle_alpha   103.88806626
_cell_angle_beta   91.02267951
_cell_angle_gamma   101.41316697
_symmetry_Int_Tables_number   1
_chemical_formula_structural   Zn3P6H30(N3O13)2
_chemical_formula_sum   'Zn3 P6 H30 N6 O26'
_cell_volume   688.99211816
_cell_formula_units_Z   1
loop_
 _symmetry_equiv_pos_site_id
 _symmetry_equiv_pos_as_xyz
  1  'x, y, z'
loop_
 _atom_site_type_symbol
 _atom_site_label
 _atom_site_symmetry_multiplicity
 _atom_site_fract_x
 _atom_site_fract_y
 _atom_site_fract_z
 _atom_site_occupancy
  Zn  Zn0  1  0.50000000  0.00000000  0.50000000  1
  Zn  Zn1  1  0.09028500  0.31898600  0.13950900  1
  Zn  Zn2  1  0.90971500  0.68101400  0.86049100  1
  P  P0  1  0.66560200  0.24258700  0.03421800  1
  P  P1  1  0.33439800  0.75741300  0.96578200  1
  P  P2  1  0.51153700  0.40391800  0.28198500  1
  P  P3  1  0.48846300  0.59608200  0.71801500  1
  P  P4  1  0.74633700  0.19804000  0.30767300  1
  P  P5  1  0.25366300  0.80196000  0.69232700  1
  H  H0  1  0.68384900  0.49209900  0.11879200  1
  H  H1  1  0.31615100  0.50790100  0.88120800  1
  H  H2  1  0.63198700  0.36637100  0.48148400  1
  H  H3  1  0.36801300  0.63362900  0.51851600  1
  H  H4  1  0.57862700  0.03151700  0.11737800  1
  H  H5  1  0.42137300  0.96848300  0.88262200  1
  H  H6  1  0.03734500  0.57313800  0.27741000  1
  H  H7  1  0.96265500  0.42686200  0.72259000  1
  H  H8  1  0.95406300  0.67766200  0.50767100  1
  H  H9  1  0.04593700  0.32233800  0.49232900  1
  H  H10  1  0.88032600  0.95492100  0.33296700  1
  H  H11  1  0.11967400  0.04507900  0.66703300  1
  H  H12  1  0.95477100  0.81789300  0.34898500  1
  H  H13  1  0.04522900  0.18210700  0.65101500  1
  H  H14  1  0.52368600  0.28034600  0.65512600  1
  H  H15  1  0.47631400  0.71965400  0.34487400  1
  H  H16  1  0.55932100  0.17724200  0.74965800  1
  H  H17  1  0.44067900  0.82275800  0.25034200  1
  H  H18  1  0.13784100  0.22439200  0.86789500  1
  H  H19  1  0.86215900  0.77560800  0.13210500  1
  H  H20  1  0.33206700  0.25227800  0.94549700  1
  H  H21  1  0.66793300  0.74772200  0.05450300  1
  H  H22  1  0.81892100  0.99237700  0.64124900  1
  H  H23  1  0.18107900  0.00762300  0.35875100  1
  H  H24  1  0.68487500  0.84585100  0.64832200  1
  H  H25  1  0.31512500  0.15414900  0.35167800  1
  H  H26  1  0.78198200  0.62674000  0.39917800  1
  H  H27  1  0.21801800  0.37326000  0.60082200  1
  H  H28  1  0.10736000  0.59458600  0.12915300  1
  H  H29  1  0.89264000  0.40541400  0.87084700  1
  N  N0  1  0.61519500  0.39498600  0.13246200  1
  N  N1  1  0.38480500  0.60501400  0.86753800  1
  N  N2  1  0.62877100  0.32422900  0.37631300  1
  N  N3  1  0.37122900  0.67577100  0.62368700  1
  N  N4  1  0.65325700  0.13697500  0.14486600  1
  N  N5  1  0.34674300  0.86302500  0.85513400  1
  O  O0  1  0.51993600  0.16757000  0.91728900  1
  O  O1  1  0.48006400  0.83243000  0.08271100  1
  O  O2  1  0.85927400  0.28500100  0.99238800  1
  O  O3  1  0.14072600  0.71499900  0.00761200  1
  O  O4  1  0.32053600  0.30997700  0.24951300  1
  O  O5  1  0.67946400  0.69002300  0.75048700  1
  O  O6  1  0.53982400  0.56233300  0.35796700  1
  O  O7  1  0.46017600  0.43766700  0.64203300  1
  O  O8  1  0.71717700  0.07630100  0.38042500  1
  O  O9  1  0.28282300  0.92369900  0.61957500  1
  O  O10  1  0.94595100  0.26938400  0.30211400  1
  O  O11  1  0.05404900  0.73061600  0.69788600  1
  O  O12  1  0.91668400  0.65932900  0.40790300  1
  O  O13  1  0.08331600  0.34067100  0.59209700  1
  O  O14  1  0.96648800  0.89275000  0.29445200  1
  O  O15  1  0.03351200  0.10725000  0.70554800  1
  O  O16  1  0.57057200  0.19160100  0.65418800  1
  O  O17  1  0.42942800  0.80839900  0.34581200  1
  O  O18  1  0.21786700  0.29051500  0.94904700  1
  O  O19  1  0.78213300  0.70948500  0.05095300  1
  O  O20  1  0.70516500  0.92262900  0.59813300  1
  O  O21  1  0.29483500  0.07737100  0.40186700  1
  O  O22  1  0.10606200  0.53461800  0.19684100  1
  O  O23  1  0.89393800  0.46538200  0.80315900  1
  O  O24  1  0.06018500  0.03414700  0.04550600  1
  O  O25  1  0.93981500  0.96585300  0.95449400  1
loop_
_geom_bond_atom_site_label_1
_geom_bond_atom_site_label_2
_geom_bond_distance
_geom_bond_site_symmetry_2
H0 N0 1.023517 1_555
H1 N1 1.023517 1_555
H2 N2 1.023723 1_555
H3 N3 1.023723 1_555
H4 N4 1.035988 1_555
H5 N5 1.035988 1_555
H6 O22 0.997210 1_555
H7 O23 0.997210 1_555
H8 O12 0.988381 1_555
H9 O13 0.988381 1_555
H10 O14 0.992147 1_555
H11 O15 0.992147 1_555
H12 O14 0.997945 1_555
H13 O15 0.997945 1_555
H14 O16 0.992775 1_555
H15 O17 0.992775 1_555
H16 O16 0.993115 1_555
H17 O17 0.993115 1_555
H18 O18 1.002650 1_555
H19 O19 1.002650 1_555
H20 O18 0.999123 1_555
H21 O19 0.999123 1_555
H22 O20 0.996462 1_555
H23 O21 0.996462 1_555
H24 O20 0.982266 1_555
H25 O21 0.982266 1_555
H26 O12 0.995396 1_555
H27 O13 0.995396 1_555
H28 O22 0.988660 1_555
H29 O23 0.988660 1_555
N0 P2 1.680491 1_555
N0 P0 1.682863 1_555
N1 P3 1.680491 1_555
N1 P1 1.682863 1_555
N2 P4 1.673553 1_555
N2 P2 1.686228 1_555
N3 P5 1.673553 1_555
N3 P3 1.686228 1_555
N4 P0 1.666265 1_555
N4 P4 1.669847 1_555
N5 P1 1.666265 1_555
N5 P5 1.669847 1_555
O0 P0 1.520226 1_556
O1 P1 1.520226 1_554
O2 P0 1.526432 1_556
O2 Zn1 2.170375 1_656
O3 P1 1.526432 1_554
O3 Zn2 2.170375 1_454
O4 P2 1.524602 1_555
O4 Zn1 2.058351 1_555
O5 P3 1.524602 1_555
O5 Zn2 2.058351 1_555
O6 P2 1.514370 1_555
O7 P3 1.514370 1_555
O8 P4 1.511213 1_555
O8 Zn0 2.153830 1_555
O9 P5 1.511213 1_555
O9 Zn0 2.153830 1_565
O10 P4 1.532020 1_555
O10 Zn1 2.060263 1_655
O11 P5 1.532020 1_555
O11 Zn2 2.060263 1_455
O16 Zn0 2.074919 1_555
O17 Zn0 2.074919 1_565
O18 Zn1 2.118888 1_556
O19 Zn2 2.118888 1_554
O20 Zn0 2.157045 1_565
O21 Zn0 2.157045 1_555
O22 Zn1 2.014897 1_555
O23 Zn2 2.014897 1_555
O24 O25 1.233449 1_444
