# generated using pymatgen
data_SmMnCo3Cu
_symmetry_space_group_name_H-M   'P 1'
_cell_length_a   4.99923344
_cell_length_b   4.99923344
_cell_length_c   4.04638500
_cell_angle_alpha   90.00000000
_cell_angle_beta   90.00000000
_cell_angle_gamma   119.99999263
_symmetry_Int_Tables_number   1
_chemical_formula_structural   SmMnCo3Cu
_chemical_formula_sum   'Sm1 Mn1 Co3 Cu1'
_cell_volume   87.57995140
_cell_formula_units_Z   1
loop_
 _symmetry_equiv_pos_site_id
 _symmetry_equiv_pos_as_xyz
  1  'x, y, z'
loop_
 _atom_site_type_symbol
 _atom_site_label
 _atom_site_symmetry_multiplicity
 _atom_site_fract_x
 _atom_site_fract_y
 _atom_site_fract_z
 _atom_site_occupancy
  Sm  Sm0  1  0.66666700  0.33333300  0.00000000  1
  Mn  Mn0  1  0.33333300  0.66666700  0.00000000  1
  Co  Co0  1  0.66870200  0.83435100  0.50000000  1
  Co  Co1  1  0.16564900  0.83435100  0.50000000  1
  Co  Co2  1  0.16564900  0.33129800  0.50000000  1
  Cu  Cu0  1  0.00000000  0.00000000  0.00000000  1
loop_
_geom_bond_atom_site_label_1
_geom_bond_atom_site_label_2
_geom_bond_distance
_geom_bond_site_symmetry_2
Mn0 Sm0 2.886306 1_455
Mn0 Sm0 2.886306 1_565
Mn0 Sm0 2.886314 1_555
Co0 Cu0 2.480050 1_665
Co0 Cu0 2.480050 1_666
Co0 Co1 2.484354 1_655
Co0 Co2 2.484354 1_665
Co0 Mn0 2.490285 1_556
Co0 Mn0 2.490285 1_555
Co0 Co1 2.514879 1_555
Co0 Co2 2.514880 1_555
Co0 Sm0 3.215814 1_566
Co0 Sm0 3.215814 1_565
Co0 Sm0 3.215817 1_556
Co0 Sm0 3.215817 1_555
Co1 Cu0 2.480050 1_565
Co1 Cu0 2.480050 1_566
Co1 Co2 2.484354 1_565
Co1 Mn0 2.490282 1_556
Co1 Mn0 2.490282 1_555
Co1 Co2 2.514879 1_555
Co1 Sm0 3.215816 1_566
Co1 Sm0 3.215816 1_456
Co1 Sm0 3.215816 1_455
Co1 Sm0 3.215816 1_565
Co2 Cu0 2.480050 1_556
Co2 Cu0 2.480050 1_555
Co2 Mn0 2.490285 1_556
Co2 Mn0 2.490285 1_555
Co2 Sm0 3.215814 1_456
Co2 Sm0 3.215814 1_455
Co2 Sm0 3.215817 1_556
Co2 Sm0 3.215817 1_555
Cu0 Mn0 2.886306 1_545
Cu0 Sm0 2.886306 1_455
Cu0 Mn0 2.886310 1_555
Cu0 Mn0 2.886310 1_445
Cu0 Sm0 2.886310 1_555
Cu0 Sm0 2.886310 1_445
