# generated using pymatgen
data_Ce2Si3
_symmetry_space_group_name_H-M   'P 1'
_cell_length_a   7.53479736
_cell_length_b   7.53479736
_cell_length_c   7.53479736
_cell_angle_alpha   150.01987039
_cell_angle_beta   147.94145127
_cell_angle_gamma   44.46283873
_symmetry_Int_Tables_number   1
_chemical_formula_structural   Ce2Si3
_chemical_formula_sum   'Ce2 Si3'
_cell_volume   113.12380323
_cell_formula_units_Z   1
loop_
 _symmetry_equiv_pos_site_id
 _symmetry_equiv_pos_as_xyz
  1  'x, y, z'
loop_
 _atom_site_type_symbol
 _atom_site_label
 _atom_site_symmetry_multiplicity
 _atom_site_fract_x
 _atom_site_fract_y
 _atom_site_fract_z
 _atom_site_occupancy
  Ce  Ce0  1  0.62797800  0.12797800  0.50000000  1
  Ce  Ce1  1  0.87517600  0.87517600  0.00000000  1
  Si  Si0  1  0.46294700  0.46294700  0.00000000  1
  Si  Si1  1  0.20196800  0.70196800  0.50000000  1
  Si  Si2  1  0.29593000  0.29593000  0.00000000  1
loop_
_geom_bond_atom_site_label_1
_geom_bond_atom_site_label_2
_geom_bond_distance
_geom_bond_site_symmetry_2
Ce0 Si0 3.016244 1_556
Ce0 Si0 3.016244 1_545
Ce0 Si1 3.031864 1_656
Ce0 Si1 3.031864 1_645
Ce0 Si1 3.031864 1_555
Ce0 Si1 3.031864 1_544
Ce0 Si2 3.133306 1_555
Ce0 Si2 3.133306 1_656
Ce1 Si2 3.057600 1_554
Ce1 Si2 3.057600 1_655
Ce1 Si2 3.057600 1_565
Ce1 Si2 3.057600 1_666
Ce1 Si0 3.102575 1_565
Ce1 Si0 3.102575 1_554
Ce1 Si0 3.102575 1_655
Ce1 Si0 3.102575 1_666
Ce1 Si1 3.188499 1_655
Ce1 Si1 3.188499 1_554
Si0 Si2 2.329782 1_555
Si1 Si2 2.348643 1_555
Si1 Si2 2.348643 1_566
