# generated using pymatgen
data_Na4La31(CoI12)5
_symmetry_space_group_name_H-M   'P 1'
_cell_length_a   10.07459356
_cell_length_b   10.13640296
_cell_length_c   43.73396522
_cell_angle_alpha   90.73197178
_cell_angle_beta   91.03286687
_cell_angle_gamma   107.28008673
_symmetry_Int_Tables_number   1
_chemical_formula_structural   Na4La31(CoI12)5
_chemical_formula_sum   'Na4 La31 Co5 I60'
_cell_volume   4263.07459216
_cell_formula_units_Z   1
loop_
 _symmetry_equiv_pos_site_id
 _symmetry_equiv_pos_as_xyz
  1  'x, y, z'
loop_
 _atom_site_type_symbol
 _atom_site_label
 _atom_site_symmetry_multiplicity
 _atom_site_fract_x
 _atom_site_fract_y
 _atom_site_fract_z
 _atom_site_occupancy
  Na  Na0  1  0.30013302  0.30010953  0.09997650  1
  Na  Na1  1  0.89995286  0.90003507  0.29998611  1
  Na  Na2  1  0.50004714  0.49996493  0.50001389  1
  Na  Na3  1  0.09986698  0.09989047  0.70002350  1
  La  La0  1  0.98168626  0.90994697  0.06208510  1
  La  La1  1  0.58092723  0.51018979  0.26029038  1
  La  La2  1  0.18080805  0.10988822  0.46041005  1
  La  La3  1  0.78113332  0.71028089  0.66035533  1
  La  La4  1  0.37849040  0.30635835  0.86048225  1
  La  La5  1  0.99178795  0.26328764  0.02087707  1
  La  La6  1  0.58987144  0.87431411  0.22145317  1
  La  La7  1  0.19006092  0.47384538  0.42141647  1
  La  La8  1  0.78977447  0.07420343  0.62155762  1
  La  La9  1  0.38808931  0.65947243  0.81964437  1
  La  La10  1  0.29765203  0.09254541  0.00698939  1
  La  La11  1  0.89028344  0.68935713  0.20620752  1
  La  La12  1  0.49075097  0.28970386  0.40623018  1
  La  La13  1  0.09024305  0.88934564  0.60628987  1
  La  La14  1  0.69392640  0.48976743  0.80547183  1
  La  La15  1  0.61886668  0.68971911  0.13964467  1
  La  La16  1  0.21919195  0.29011178  0.33958995  1
  La  La17  1  0.81907277  0.88981021  0.53970962  1
  La  La18  1  0.41831374  0.49005303  0.73791490  1
  La  La19  1  0.02150960  0.09364165  0.93951775  1
  La  La20  1  0.61022553  0.32579657  0.17844238  1
  La  La21  1  0.20993908  0.92615462  0.37858353  1
  La  La22  1  0.81012856  0.52568589  0.57854683  1
  La  La23  1  0.40821205  0.13671236  0.77912293  1
  La  La24  1  0.01191069  0.74052757  0.98035563  1
  La  La25  1  0.30975695  0.51065436  0.19371013  1
  La  La26  1  0.90924903  0.11029614  0.39376982  1
  La  La27  1  0.50971656  0.71064287  0.59379248  1
  La  La28  1  0.10234797  0.30745459  0.79301061  1
  La  La29  1  0.70607360  0.91023257  0.99452817  1
  La  La30  1  0.70000000  0.70000000  0.90000000  1
  Co  Co0  1  0.00076079  0.00070364  0.00039234  1
  Co  Co1  1  0.60009229  0.60009315  0.19993733  1
  Co  Co2  1  0.20000000  0.20000000  0.40000000  1
  Co  Co3  1  0.79990771  0.79990685  0.60006267  1
  Co  Co4  1  0.39923921  0.39929636  0.79960766  1
  I  I0  1  0.30958769  0.99970337  0.07661524  1
  I  I1  1  0.90797485  0.59969559  0.27618798  1
  I  I2  1  0.50779032  0.19976122  0.47618476  1
  I  I3  1  0.10796186  0.79981446  0.67629562  1
  I  I4  1  0.71433896  0.40016876  0.87778348  1
  I  I5  1  0.96780879  0.19685021  0.09237252  1
  I  I6  1  0.56812469  0.79592967  0.29191409  1
  I  I7  1  0.16825474  0.39593136  0.49194747  1
  I  I8  1  0.76825319  0.99593633  0.69203207  1
  I  I9  1  0.36650667  0.60018201  0.89389886  1
  I  I10  1  0.32192476  0.40064274  0.03037505  1
  I  I11  1  0.92027520  0.99887205  0.23033763  1
  I  I12  1  0.52032469  0.59896096  0.43039411  1
  I  I13  1  0.12020955  0.19888785  0.63043036  1
  I  I14  1  0.72704328  0.80717748  0.83098628  1
  I  I15  1  0.29203814  0.60018554  0.12370438  1
  I  I16  1  0.89220968  0.20023878  0.32381524  1
  I  I17  1  0.49202515  0.80030441  0.52381202  1
  I  I18  1  0.09041231  0.40029663  0.72338476  1
  I  I19  1  0.68566104  0.99983124  0.92221652  1
  I  I20  1  0.63174681  0.40406367  0.10796793  1
  I  I21  1  0.23174526  0.00406864  0.30805253  1
  I  I22  1  0.83187531  0.60407033  0.50808591  1
  I  I23  1  0.43219121  0.20314979  0.70762748  1
  I  I24  1  0.03349333  0.79981799  0.90610114  1
  I  I25  1  0.27979045  0.20111215  0.16956964  1
  I  I26  1  0.87967531  0.80103904  0.36960589  1
  I  I27  1  0.47972480  0.40112795  0.56966237  1
  I  I28  1  0.07807524  0.99935726  0.76962495  1
  I  I29  1  0.67295672  0.59282252  0.96901372  1
  I  I30  1  0.98007982  0.59116260  0.04520951  1
  I  I31  1  0.58201122  0.19188552  0.24531333  1
  I  I32  1  0.18199184  0.79178694  0.44533781  1
  I  I33  1  0.78194159  0.39177866  0.64540901  1
  I  I34  1  0.38372175  0.99074232  0.84536900  1
  I  I35  1  0.65334249  0.19799326  0.01395072  1
  I  I36  1  0.25225722  0.79673132  0.21429621  1
  I  I37  1  0.85232385  0.39666586  0.41437611  1
  I  I38  1  0.45224811  0.99671177  0.61446070  1
  I  I39  1  0.05136377  0.59618037  0.81494189  1
  I  I40  1  0.95331837  0.79958406  0.13650368  1
  I  I41  1  0.55366733  0.39986723  0.33640721  1
  I  I42  1  0.15355190  0.99969920  0.53649319  1
  I  I43  1  0.75468959  0.60098064  0.73633753  1
  I  I44  1  0.35543058  0.19927702  0.93614569  1
  I  I45  1  0.61805841  0.00822134  0.15459099  1
  I  I46  1  0.21800816  0.60821306  0.35466219  1
  I  I47  1  0.81798878  0.20811448  0.55468667  1
  I  I48  1  0.41992018  0.80883740  0.75479049  1
  I  I49  1  0.01627825  0.40925768  0.95463100  1
  I  I50  1  0.94775189  0.40328823  0.18553930  1
  I  I51  1  0.54767615  0.00333414  0.38562389  1
  I  I52  1  0.14774278  0.60326868  0.58570379  1
  I  I53  1  0.74665751  0.20200674  0.78604928  1
  I  I54  1  0.34863623  0.80381963  0.98505811  1
  I  I55  1  0.64531041  0.79901936  0.06366247  1
  I  I56  1  0.24644810  0.40030080  0.26350681  1
  I  I57  1  0.84633267  0.00013277  0.46359279  1
  I  I58  1  0.44668163  0.60041594  0.66349632  1
  I  I59  1  0.04456942  0.20072298  0.86385431  1
loop_
_geom_bond_atom_site_label_1
_geom_bond_atom_site_label_2
_geom_bond_distance
_geom_bond_site_symmetry_2
Co0 La24 2.802869 1_544
Co0 La5 2.824912 1_455
Co0 La19 2.825968 1_554
Co0 La29 2.840763 1_444
Co0 La0 2.853049 1_445
Co0 La10 2.864283 1_555
Co1 La15 2.791260 1_555
Co1 La1 2.794617 1_555
Co1 La11 2.798984 1_555
Co1 La25 2.800240 1_555
Co1 La6 2.954487 1_555
Co1 La20 2.954650 1_555
Co2 La16 2.797653 1_555
Co2 La2 2.797653 1_555
Co2 La12 2.804247 1_555
Co2 La26 2.804247 1_455
Co2 La7 2.948641 1_555
Co2 La21 2.948641 1_545
Co3 La3 2.791260 1_555
Co3 La17 2.794617 1_555
Co3 La27 2.798984 1_555
Co3 La13 2.800240 1_655
Co3 La22 2.954487 1_555
Co3 La8 2.954650 1_565
Co4 La9 2.802869 1_555
Co4 La23 2.824912 1_555
Co4 La4 2.825968 1_555
Co4 La14 2.840763 1_555
Co4 La18 2.853049 1_555
Co4 La28 2.864283 1_555
I0 La0 3.204451 1_455
I0 La10 3.209277 1_565
I0 Na0 3.228234 1_565
I1 La1 3.207504 1_555
I1 La11 3.220591 1_555
I1 Na1 3.228956 1_555
I2 La2 3.205753 1_555
I2 La12 3.219602 1_555
I2 Na2 3.227203 1_555
I3 La3 3.205788 1_455
I3 La13 3.221268 1_555
I3 Na3 3.225703 1_565
I4 La30 3.223685 1_555
I4 La4 3.301963 1_555
I4 La14 3.321036 1_555
I5 La5 3.205154 1_555
I5 Na0 3.206953 1_655
I5 La0 3.222006 1_545
I6 La6 3.187260 1_555
I6 Na1 3.204093 1_555
I6 La1 3.231782 1_555
I7 La7 3.189099 1_555
I7 Na2 3.203718 1_555
I7 La2 3.232198 1_555
I8 La8 3.187522 1_565
I8 Na3 3.201722 1_665
I8 La3 3.232223 1_555
I9 La30 3.213171 1_555
I9 La9 3.309388 1_555
I9 La4 3.336093 1_555
I10 La10 3.211637 1_555
I10 Na0 3.212896 1_555
I10 La5 3.218323 1_455
I11 La6 3.204569 1_555
I11 Na1 3.209729 1_555
I11 La11 3.223163 1_555
I12 La7 3.204153 1_555
I12 Na2 3.209030 1_555
I12 La12 3.222017 1_555
I13 La8 3.204917 1_455
I13 Na3 3.207915 1_555
I13 La13 3.223617 1_545
I14 La30 3.209651 1_555
I14 La14 3.311374 1_555
I14 La9 3.321334 1_555
I15 La15 3.205788 1_555
I15 La25 3.221268 1_555
I15 Na0 3.225703 1_555
I16 La16 3.205753 1_655
I16 La26 3.219602 1_555
I16 Na1 3.227203 1_545
I17 La17 3.207504 1_555
I17 La27 3.220591 1_555
I17 Na2 3.228956 1_555
I18 La18 3.204451 1_555
I18 La28 3.209277 1_555
I18 Na3 3.228234 1_555
I19 La30 3.223685 1_555
I19 La19 3.301963 1_665
I19 La29 3.321036 1_555
I20 La20 3.187522 1_555
I20 Na0 3.201722 1_555
I20 La15 3.232223 1_555
I21 La21 3.189099 1_545
I21 Na1 3.203718 1_445
I21 La16 3.232198 1_555
I22 La22 3.187260 1_555
I22 Na2 3.204093 1_555
I22 La17 3.231782 1_555
I23 La23 3.205154 1_555
I23 Na3 3.206953 1_555
I23 La18 3.222006 1_555
I24 La30 3.213171 1_455
I24 La24 3.309388 1_555
I24 La19 3.336093 1_565
I25 La20 3.204917 1_555
I25 Na0 3.207915 1_555
I25 La25 3.223617 1_555
I26 La21 3.204153 1_655
I26 Na1 3.209030 1_555
I26 La26 3.222017 1_565
I27 La22 3.204569 1_555
I27 Na2 3.209729 1_555
I27 La27 3.223163 1_555
I28 La28 3.211637 1_565
I28 Na3 3.212896 1_565
I28 La23 3.218323 1_565
I29 La30 3.209651 1_555
I29 La29 3.311374 1_555
I29 La24 3.321334 1_655
I30 La24 3.208406 1_654
I30 La0 3.300606 1_555
I30 La5 3.512672 1_555
I31 La20 3.221542 1_555
I31 La1 3.287308 1_555
I31 La6 3.394985 1_545
I32 La21 3.218821 1_555
I32 La2 3.286372 1_565
I32 La7 3.399999 1_555
I33 La22 3.221181 1_555
I33 La3 3.288196 1_555
I33 La8 3.394823 1_555
I34 La23 3.249974 1_565
I34 La4 3.274446 1_565
I34 La9 3.540633 1_555
I35 La29 3.222630 1_544
I35 La5 3.282198 1_555
I35 La10 3.428274 1_555
I36 La25 3.241138 1_555
I36 La6 3.263691 1_555
I36 La11 3.492008 1_455
I37 La26 3.241581 1_555
I37 La7 3.264805 1_655
I37 La12 3.488369 1_555
I38 La27 3.241889 1_555
I38 La8 3.262704 1_565
I38 La13 3.492591 1_555
I39 La28 3.253938 1_555
I39 La9 3.261992 1_555
I39 La14 3.453942 1_455
I40 La15 3.225480 1_555
I40 La11 3.268003 1_555
I40 La0 3.444169 1_555
I41 La16 3.225786 1_555
I41 La12 3.272583 1_555
I41 La1 3.514697 1_555
I42 La17 3.225968 1_455
I42 La13 3.272505 1_555
I42 La2 3.512878 1_565
I43 La18 3.240375 1_555
I43 La14 3.245158 1_555
I43 La3 3.505912 1_555
I44 La19 3.219859 1_555
I44 La10 3.299263 1_556
I44 La4 3.485926 1_555
I45 La6 3.221181 1_545
I45 La15 3.288196 1_545
I45 La20 3.394823 1_555
I46 La7 3.218821 1_555
I46 La16 3.286372 1_555
I46 La21 3.399999 1_555
I47 La8 3.221542 1_555
I47 La17 3.287308 1_545
I47 La22 3.394985 1_555
I48 La9 3.208406 1_555
I48 La18 3.300606 1_555
I48 La23 3.512672 1_565
I49 La5 3.249974 1_456
I49 La19 3.274446 1_555
I49 La24 3.540633 1_555
I50 La11 3.241889 1_555
I50 La20 3.262704 1_555
I50 La25 3.492591 1_655
I51 La12 3.241581 1_555
I51 La21 3.264805 1_545
I51 La26 3.488369 1_555
I52 La13 3.241138 1_555
I52 La22 3.263691 1_455
I52 La27 3.492008 1_555
I53 La14 3.222630 1_555
I53 La23 3.282198 1_555
I53 La28 3.428274 1_655
I54 La10 3.253938 1_566
I54 La24 3.261992 1_555
I54 La29 3.453942 1_555
I55 La0 3.240375 1_555
I55 La29 3.245158 1_554
I55 La15 3.505912 1_555
I56 La1 3.225968 1_555
I56 La25 3.272505 1_555
I56 La16 3.512878 1_555
I57 La2 3.225786 1_655
I57 La26 3.272583 1_555
I57 La17 3.514697 1_545
I58 La3 3.225480 1_555
I58 La27 3.268003 1_555
I58 La18 3.444169 1_555
I59 La4 3.219859 1_555
I59 La28 3.299263 1_555
I59 La19 3.485926 1_555
