# generated using pymatgen
data_MnZnP2O7
_symmetry_space_group_name_H-M   'P 1'
_cell_length_a   7.23464704
_cell_length_b   10.10195151
_cell_length_c   8.44000954
_cell_angle_alpha   93.25987919
_cell_angle_beta   114.04773707
_cell_angle_gamma   104.75924700
_symmetry_Int_Tables_number   1
_chemical_formula_structural   MnZnP2O7
_chemical_formula_sum   'Mn4 Zn4 P8 O28'
_cell_volume   535.61448452
_cell_formula_units_Z   4
loop_
 _symmetry_equiv_pos_site_id
 _symmetry_equiv_pos_as_xyz
  1  'x, y, z'
loop_
 _atom_site_type_symbol
 _atom_site_label
 _atom_site_symmetry_multiplicity
 _atom_site_fract_x
 _atom_site_fract_y
 _atom_site_fract_z
 _atom_site_occupancy
  Mn  Mn0  1  0.78329600  0.28600200  0.59648200  1
  Mn  Mn1  1  0.21685600  0.71404000  0.40357800  1
  Mn  Mn2  1  0.78419200  0.78607700  0.09674100  1
  Mn  Mn3  1  0.21583400  0.21391700  0.90328800  1
  Zn  Zn0  1  0.11193400  0.62688500  0.79901800  1
  Zn  Zn1  1  0.11190700  0.12696300  0.29914500  1
  Zn  Zn2  1  0.88799900  0.87301000  0.70085600  1
  Zn  Zn3  1  0.88813000  0.37315900  0.20098100  1
  P  P0  1  0.76292400  0.58114100  0.40715300  1
  P  P1  1  0.76268500  0.08109900  0.90720600  1
  P  P2  1  0.23726000  0.91890900  0.09277500  1
  P  P3  1  0.23714800  0.41886400  0.59284500  1
  P  P4  1  0.69007400  0.98085200  0.35264400  1
  P  P5  1  0.69010000  0.48092100  0.85270000  1
  P  P6  1  0.30995300  0.51909600  0.14729600  1
  P  P7  1  0.30983500  0.01911300  0.64735000  1
  O  O0  1  0.47814300  0.91581000  0.16480800  1
  O  O1  1  0.47798700  0.41572100  0.66500800  1
  O  O2  1  0.52206300  0.58427100  0.33496700  1
  O  O3  1  0.52180300  0.08418700  0.83517900  1
  O  O4  1  0.76807400  0.42922400  0.39817200  1
  O  O5  1  0.76799400  0.92920500  0.89819400  1
  O  O6  1  0.23195900  0.07080000  0.10176900  1
  O  O7  1  0.23199900  0.57078200  0.60182600  1
  O  O8  1  0.34591900  0.61079600  0.01661600  1
  O  O9  1  0.34600300  0.11092200  0.51680700  1
  O  O10  1  0.65386000  0.88901800  0.48316300  1
  O  O11  1  0.65413000  0.38921300  0.98336900  1
  O  O12  1  0.13762200  0.54433800  0.19902400  1
  O  O13  1  0.13731300  0.04427200  0.69889600  1
  O  O14  1  0.86260900  0.95569100  0.30111400  1
  O  O15  1  0.86245100  0.45569800  0.80098900  1
  O  O16  1  0.13257600  0.83467400  0.90289300  1
  O  O17  1  0.13260000  0.33468900  0.40294900  1
  O  O18  1  0.86741700  0.66531300  0.59704900  1
  O  O19  1  0.86737000  0.16531200  0.09710200  1
  O  O20  1  0.13988500  0.84589400  0.20709300  1
  O  O21  1  0.13945900  0.34585000  0.70695400  1
  O  O22  1  0.86062500  0.65416400  0.29305800  1
  O  O23  1  0.86008400  0.15413300  0.79291500  1
  O  O24  1  0.28420100  0.36695700  0.10408700  1
  O  O25  1  0.28419900  0.86700200  0.60407300  1
  O  O26  1  0.71574800  0.13296200  0.39597100  1
  O  O27  1  0.71577700  0.63305100  0.89589100  1
loop_
_geom_bond_atom_site_label_1
_geom_bond_atom_site_label_2
_geom_bond_distance
_geom_bond_site_symmetry_2
Mn0 O26 2.033804 1_555
Mn0 O15 2.145595 1_555
Mn0 O23 2.170124 1_555
Mn0 O21 2.249099 1_655
Mn0 O4 2.261236 1_555
Mn1 O25 2.033632 1_555
Mn1 O12 2.145744 1_555
Mn1 O20 2.170453 1_555
Mn1 O22 2.249505 1_455
Mn1 O7 2.261144 1_555
Mn2 O27 2.033863 1_554
Mn2 O14 2.145710 1_555
Mn2 O22 2.169506 1_555
Mn2 O20 2.246094 1_655
Mn2 O5 2.261465 1_554
Mn3 O24 2.033758 1_556
Mn3 O13 2.145828 1_555
Mn3 O21 2.169710 1_555
Mn3 O23 2.246472 1_455
Mn3 O6 2.261012 1_556
O0 P2 1.604397 1_555
O0 P4 1.638009 1_555
O1 P3 1.604172 1_555
O1 P5 1.638076 1_555
O2 P0 1.604267 1_555
O2 P6 1.637939 1_555
O3 P1 1.604358 1_555
O3 P7 1.638128 1_555
O4 P0 1.542892 1_555
O4 Zn3 2.273015 1_555
O5 P1 1.543003 1_565
O5 Zn2 2.274226 1_555
O6 P2 1.542955 1_545
O6 Zn1 2.274660 1_555
O7 P3 1.542900 1_555
O7 Zn0 2.273188 1_555
O8 P6 1.539345 1_555
O8 Zn0 1.976167 1_554
O9 P7 1.539508 1_555
O9 Zn1 1.976712 1_555
O10 P4 1.539596 1_555
O10 Zn2 1.976903 1_555
O11 P5 1.539327 1_555
O11 Zn3 1.976166 1_556
O12 P6 1.550148 1_555
O12 Zn3 2.164657 1_455
O13 P7 1.550258 1_555
O13 Zn2 2.164344 1_445
O14 P4 1.550275 1_555
O14 Zn1 2.164360 1_665
O15 P5 1.550133 1_555
O15 Zn0 2.164710 1_655
O16 P2 1.547054 1_556
O16 Zn2 2.038079 1_455
O16 Zn0 2.172858 1_555
O17 P3 1.546999 1_555
O17 Zn3 2.037968 1_455
O17 Zn1 2.171951 1_555
O18 P0 1.547017 1_555
O18 Zn0 2.037973 1_655
O18 Zn2 2.171962 1_555
O19 P1 1.547067 1_554
O19 Zn1 2.037998 1_655
O19 Zn3 2.173120 1_555
O20 P2 1.530163 1_555
O21 P3 1.530019 1_555
O22 P0 1.530008 1_555
O23 P1 1.530150 1_555
O24 P6 1.504912 1_555
O25 P7 1.504910 1_565
O26 P4 1.504892 1_545
O27 P5 1.504930 1_555
