# generated using pymatgen
data_K2W2O5
_symmetry_space_group_name_H-M   'P 1'
_cell_length_a   5.76525700
_cell_length_b   5.77907385
_cell_length_c   8.98634557
_cell_angle_alpha   108.74459683
_cell_angle_beta   108.66265851
_cell_angle_gamma   90.07419904
_symmetry_Int_Tables_number   1
_chemical_formula_structural   K2W2O5
_chemical_formula_sum   'K4 W4 O10'
_cell_volume   266.80202321
_cell_formula_units_Z   2
loop_
 _symmetry_equiv_pos_site_id
 _symmetry_equiv_pos_as_xyz
  1  'x, y, z'
loop_
 _atom_site_type_symbol
 _atom_site_label
 _atom_site_symmetry_multiplicity
 _atom_site_fract_x
 _atom_site_fract_y
 _atom_site_fract_z
 _atom_site_occupancy
  K  K0  1  0.87599300  0.88308900  0.74581700  1
  K  K1  1  0.12400700  0.11691100  0.25418300  1
  K  K2  1  0.37765400  0.36998200  0.74585800  1
  K  K3  1  0.62234600  0.63001800  0.25414200  1
  W  W0  1  0.50000000  0.00000000  0.50000000  1
  W  W1  1  0.00000000  0.50000000  0.50000000  1
  W  W2  1  0.24651200  0.74874900  0.99991700  1
  W  W3  1  0.75348800  0.25125100  0.00008300  1
  O  O0  1  0.24161200  0.74120700  0.49118400  1
  O  O1  1  0.24683500  0.24475400  0.50837000  1
  O  O2  1  0.75316500  0.75524600  0.49163000  1
  O  O3  1  0.75838800  0.25879300  0.50881600  1
  O  O4  1  0.36738100  0.84219900  0.76129300  1
  O  O5  1  0.63261900  0.15780100  0.23870700  1
  O  O6  1  0.86894200  0.39531300  0.76120700  1
  O  O7  1  0.13105800  0.60468800  0.23879300  1
  O  O8  1  0.50000000  0.00000000  0.00000000  1
  O  O9  1  0.00000000  0.00000000  0.00000000  1
loop_
_geom_bond_atom_site_label_1
_geom_bond_atom_site_label_2
_geom_bond_distance
_geom_bond_site_symmetry_2
K0 O2 2.035618 1_555
K0 O9 2.036378 1_666
K0 O4 2.805646 1_655
K0 O6 2.867194 1_555
K0 O6 2.919630 1_565
K0 O4 2.992283 1_555
K1 O1 2.035618 1_555
K1 O9 2.036378 1_555
K1 O5 2.805646 1_455
K1 O7 2.867199 1_555
K1 O7 2.919624 1_545
K1 O5 2.992283 1_555
K2 O1 1.903414 1_555
K2 O4 2.689324 1_555
K2 O6 2.792646 1_555
K2 O6 2.981464 1_455
K2 O4 3.098795 1_545
K3 O2 1.903414 1_555
K3 O5 2.689324 1_555
K3 O7 2.792646 1_555
K3 O7 2.981464 1_655
K3 O5 3.098795 1_565
O0 W1 2.006559 1_555
O0 W0 2.074783 1_565
O1 W0 2.035652 1_555
O1 W1 2.053021 1_555
O2 W0 2.035652 1_565
O2 W1 2.053021 1_655
O3 W1 2.006559 1_655
O3 W0 2.074783 1_555
O4 O8 1.925870 1_566
O4 W2 2.659917 1_555
O4 W1 2.780701 1_555
O5 O8 1.925870 1_555
O5 W3 2.659917 1_555
O5 W1 2.780701 1_655
O6 W2 2.774165 1_655
O6 W3 2.793884 1_556
O7 W3 2.774167 1_455
O7 W2 2.793881 1_554
O8 W3 2.058438 1_555
O8 W2 2.058438 1_544
O9 W2 2.033089 1_544
O9 W3 2.033089 1_455
