# generated using pymatgen
data_ErMn2SiC
_symmetry_space_group_name_H-M   'P 1'
_cell_length_a   5.61531984
_cell_length_b   5.61531984
_cell_length_c   6.99744476
_cell_angle_alpha   90.00000000
_cell_angle_beta   90.00000000
_cell_angle_gamma   142.01135403
_symmetry_Int_Tables_number   1
_chemical_formula_structural   ErMn2SiC
_chemical_formula_sum   'Er2 Mn4 Si2 C2'
_cell_volume   135.80641239
_cell_formula_units_Z   2
loop_
 _symmetry_equiv_pos_site_id
 _symmetry_equiv_pos_as_xyz
  1  'x, y, z'
loop_
 _atom_site_type_symbol
 _atom_site_label
 _atom_site_symmetry_multiplicity
 _atom_site_fract_x
 _atom_site_fract_y
 _atom_site_fract_z
 _atom_site_occupancy
  Er  Er0  1  0.54138055  0.45861945  0.25000000  1
  Er  Er1  1  0.45861945  0.54138055  0.75000000  1
  Mn  Mn0  1  0.83223903  0.16776097  0.05914300  1
  Mn  Mn1  1  0.16776097  0.83223903  0.94085700  1
  Mn  Mn2  1  0.16776097  0.83223903  0.55914300  1
  Mn  Mn3  1  0.83223903  0.16776097  0.44085700  1
  Si  Si0  1  0.26414479  0.73585521  0.25000000  1
  Si  Si1  1  0.73585521  0.26414479  0.75000000  1
  C  C0  1  0.00000000  -0.00000000  0.00000000  1
  C  C1  1  0.00000000  -0.00000000  0.50000000  1
loop_
_geom_bond_atom_site_label_1
_geom_bond_atom_site_label_2
_geom_bond_distance
_geom_bond_site_symmetry_2
Er0 Si0 2.944006 1_555
Er0 Si0 2.989344 1_655
Er0 Si0 2.989344 1_545
Er1 Si1 2.944006 1_555
Er1 Si1 2.989344 1_455
Er1 Si1 2.989344 1_565
Mn0 Si0 2.376289 1_655
Mn0 Si0 2.376289 1_545
Mn0 Si1 2.393128 1_554
Mn1 Si1 2.376289 1_565
Mn1 Si1 2.376289 1_455
Mn1 Si0 2.393128 1_556
Mn2 Si1 2.376289 1_455
Mn2 Si1 2.376289 1_565
Mn2 Si0 2.393128 1_555
Mn3 Si0 2.376289 1_545
Mn3 Si0 2.376289 1_655
Mn3 Si1 2.393128 1_555
C0 Mn0 1.828916 1_455
C0 Mn1 1.828916 1_544
C0 Er1 2.567808 1_554
C0 Er0 2.567808 1_445
C0 Er0 2.567808 1_555
C0 Er1 2.567808 1_444
C1 Mn3 1.828916 1_455
C1 Mn2 1.828916 1_545
C1 Er0 2.567808 1_445
C1 Er1 2.567808 1_555
C1 Er0 2.567808 1_555
C1 Er1 2.567808 1_445
