# generated using pymatgen
data_Li2V3CoO8
_symmetry_space_group_name_H-M   'P 1'
_cell_length_a   5.80755463
_cell_length_b   10.25768924
_cell_length_c   5.96204689
_cell_angle_alpha   90.14788412
_cell_angle_beta   120.15147694
_cell_angle_gamma   106.26280406
_symmetry_Int_Tables_number   1
_chemical_formula_structural   Li2V3CoO8
_chemical_formula_sum   'Li4 V6 Co2 O16'
_cell_volume   290.40567693
_cell_formula_units_Z   2
loop_
 _symmetry_equiv_pos_site_id
 _symmetry_equiv_pos_as_xyz
  1  'x, y, z'
loop_
 _atom_site_type_symbol
 _atom_site_label
 _atom_site_symmetry_multiplicity
 _atom_site_fract_x
 _atom_site_fract_y
 _atom_site_fract_z
 _atom_site_occupancy
  Li  Li0  1  0.62661900  0.43907500  0.31352300  1
  Li  Li1  1  0.62796300  0.93527300  0.81000100  1
  Li  Li2  1  0.36860900  0.06068800  0.18733800  1
  Li  Li3  1  0.37411200  0.56326700  0.69043500  1
  V  V0  1  0.00058700  0.50475300  0.00533400  1
  V  V1  1  0.99730500  0.25039100  0.25077100  1
  V  V2  1  0.00835600  0.75395400  0.25999800  1
  V  V3  1  0.99354400  0.99771600  0.49425300  1
  V  V4  1  0.99841500  0.74872600  0.74712100  1
  V  V5  1  0.00220400  0.24927900  0.75079200  1
  Co  Co0  1  0.50153700  0.74779800  0.24727800  1
  Co  Co1  1  0.50049100  0.25253300  0.74946000  1
  O  O0  1  0.78232700  0.14023100  0.38517500  1
  O  O1  1  0.78555500  0.62277400  0.90187500  1
  O  O2  1  0.21008600  0.36848600  0.11316900  1
  O  O3  1  0.21981900  0.86670000  0.60107400  1
  O  O4  1  0.75395700  0.86257800  0.14659700  1
  O  O5  1  0.76860400  0.36701000  0.66294800  1
  O  O6  1  0.76470500  0.64295800  0.37039900  1
  O  O7  1  0.76210700  0.14621300  0.88405600  1
  O  O8  1  0.75065500  0.86706800  0.59355600  1
  O  O9  1  0.75293400  0.36683600  0.09653500  1
  O  O10  1  0.24522600  0.62604800  0.90575400  1
  O  O11  1  0.24484200  0.13799200  0.39957300  1
  O  O12  1  0.23533100  0.85278500  0.12558900  1
  O  O13  1  0.23703000  0.35725000  0.61443800  1
  O  O14  1  0.24820700  0.63006100  0.34370600  1
  O  O15  1  0.23887500  0.14155800  0.84925000  1
loop_
_geom_bond_atom_site_label_1
_geom_bond_atom_site_label_2
_geom_bond_distance
_geom_bond_site_symmetry_2
Li0 O2 1.978536 1_555
Li0 O6 1.978819 1_555
Li0 O9 2.003434 1_555
Li0 O5 2.046978 1_555
Li1 O3 1.939170 1_555
Li1 O8 1.964872 1_555
Li1 O4 1.989195 1_556
Li1 O7 2.046731 1_565
Li2 O0 1.969762 1_555
Li2 O11 1.993562 1_555
Li2 O12 2.016880 1_545
Li2 O15 2.037615 1_554
Li3 O1 1.955625 1_555
Li3 O10 1.963159 1_555
Li3 O13 1.998839 1_555
Li3 O14 2.011692 1_555
Co0 O14 1.952357 1_555
Co0 O4 1.953576 1_555
Co0 O10 1.955080 1_554
Co0 O6 1.956748 1_555
Co0 O8 1.961436 1_555
Co0 O12 1.971301 1_555
Co1 O9 1.945025 1_556
Co1 O13 1.957185 1_555
Co1 O11 1.958409 1_555
Co1 O7 1.962028 1_555
Co1 O5 1.963490 1_555
Co1 O15 1.975121 1_555
O0 V1 1.922829 1_555
O0 V5 2.006141 1_655
O0 V3 2.067020 1_545
O1 V0 1.866119 1_656
O1 V2 2.068423 1_656
O1 V4 2.075110 1_555
O2 V1 1.962820 1_455
O2 V0 2.004694 1_555
O2 V5 2.039557 1_554
O3 V2 1.914289 1_555
O3 V3 2.022725 1_455
O3 V4 2.033376 1_455
O4 V2 1.950354 1_655
O4 V3 2.039974 1_555
O5 V5 1.944302 1_655
O5 V0 2.033378 1_656
O6 V2 1.941395 1_655
O6 V4 2.040631 1_555
O7 V1 1.989535 1_556
O7 V5 1.996218 1_655
O8 V3 1.980038 1_555
O8 V4 2.010681 1_555
O9 V1 1.982560 1_555
O9 V0 2.003902 1_655
O10 V0 1.944267 1_556
O10 V4 2.046250 1_455
O11 V1 1.958420 1_455
O11 V3 2.043195 1_445
O12 V2 1.929862 1_555
O12 V4 2.042093 1_454
O13 V1 1.985308 1_455
O13 V5 2.004943 1_555
O14 V0 1.956267 1_555
O14 V2 2.025055 1_555
O15 V5 1.870345 1_555
O15 V3 2.112759 1_445
