# generated using pymatgen
data_AsS4N3
_symmetry_space_group_name_H-M   'P 1'
_cell_length_a   7.58374100
_cell_length_b   8.46313800
_cell_length_c   16.64008800
_cell_angle_alpha   90.00000000
_cell_angle_beta   90.00000000
_cell_angle_gamma   90.00000000
_symmetry_Int_Tables_number   1
_chemical_formula_structural   AsS4N3
_chemical_formula_sum   'As4 S16 N12'
_cell_volume   1067.99823211
_cell_formula_units_Z   4
loop_
 _symmetry_equiv_pos_site_id
 _symmetry_equiv_pos_as_xyz
  1  'x, y, z'
loop_
 _atom_site_type_symbol
 _atom_site_label
 _atom_site_symmetry_multiplicity
 _atom_site_fract_x
 _atom_site_fract_y
 _atom_site_fract_z
 _atom_site_occupancy
  As  As0  1  0.09491900  0.25000000  0.57543600  1
  As  As1  1  0.59491900  0.25000000  0.92456400  1
  As  As2  1  0.90508100  0.75000000  0.42456400  1
  As  As3  1  0.40508100  0.75000000  0.07543600  1
  S  S0  1  0.12248500  0.25000000  0.06724000  1
  S  S1  1  0.62248500  0.25000000  0.43276000  1
  S  S2  1  0.87751500  0.75000000  0.93276000  1
  S  S3  1  0.37751500  0.75000000  0.56724000  1
  S  S4  1  0.88624400  0.25000000  0.78335200  1
  S  S5  1  0.38624400  0.25000000  0.71664800  1
  S  S6  1  0.11375600  0.75000000  0.21664800  1
  S  S7  1  0.61375600  0.75000000  0.28335200  1
  S  S8  1  0.63157700  0.04939400  0.50076700  1
  S  S9  1  0.13157700  0.45060600  0.99923300  1
  S  S10  1  0.36842300  0.54939400  0.49923300  1
  S  S11  1  0.86842300  0.95060600  0.00076700  1
  S  S12  1  0.36842300  0.95060600  0.49923300  1
  S  S13  1  0.86842300  0.54939400  0.00076700  1
  S  S14  1  0.63157700  0.45060600  0.50076700  1
  S  S15  1  0.13157700  0.04939400  0.99923300  1
  N  N0  1  0.74409500  0.25000000  0.85012600  1
  N  N1  1  0.24409500  0.25000000  0.64987400  1
  N  N2  1  0.25590500  0.75000000  0.14987400  1
  N  N3  1  0.75590500  0.75000000  0.35012600  1
  N  N4  1  0.99113800  0.18414800  0.29029700  1
  N  N5  1  0.49113800  0.31585200  0.20970300  1
  N  N6  1  0.00886200  0.68414800  0.70970300  1
  N  N7  1  0.50886200  0.81585200  0.79029700  1
  N  N8  1  0.00886200  0.81585200  0.70970300  1
  N  N9  1  0.50886200  0.68414800  0.79029700  1
  N  N10  1  0.99113800  0.31585200  0.29029700  1
  N  N11  1  0.49113800  0.18414800  0.20970300  1
loop_
_geom_bond_atom_site_label_1
_geom_bond_atom_site_label_2
_geom_bond_distance
_geom_bond_site_symmetry_2
As0 N1 1.677538 1_555
As1 N0 1.677538 1_555
As2 N3 1.677538 1_555
As3 N2 1.677538 1_555
S0 S15 2.041506 1_554
S0 S9 2.041506 1_554
S1 S14 2.041506 1_555
S1 S8 2.041506 1_555
S10 S3 2.041506 1_555
S10 S14 2.163892 1_555
S11 S2 2.041506 1_554
S11 S15 2.163892 1_664
S12 S3 2.041506 1_555
S12 S8 2.163892 1_565
S13 S2 2.041506 1_554
S13 S9 2.163892 1_654
N0 S4 1.548137 1_555
N1 S5 1.548137 1_555
N2 S6 1.548137 1_555
N3 S7 1.548137 1_555
N6 N8 1.114629 1_555
N7 N9 1.114629 1_555
N10 N4 1.114629 1_555
N11 N5 1.114629 1_555
