# generated using pymatgen
data_Y5RuBr9
_symmetry_space_group_name_H-M   'P 1'
_cell_length_a   13.00849590
_cell_length_b   13.00849590
_cell_length_c   24.82164210
_cell_angle_alpha   105.19110680
_cell_angle_beta   105.19110680
_cell_angle_gamma   90.00000000
_symmetry_Int_Tables_number   1
_chemical_formula_structural   Y5RuBr9
_chemical_formula_sum   'Y40 Ru8 Br72'
_cell_volume   3901.28076221
_cell_formula_units_Z   8
loop_
 _symmetry_equiv_pos_site_id
 _symmetry_equiv_pos_as_xyz
  1  'x, y, z'
loop_
 _atom_site_type_symbol
 _atom_site_label
 _atom_site_symmetry_multiplicity
 _atom_site_fract_x
 _atom_site_fract_y
 _atom_site_fract_z
 _atom_site_occupancy
  Y  Y0  1  0.83395659  0.44739267  0.31107397  1
  Y  Y1  1  0.47711738  0.36368130  0.31107397  1
  Y  Y2  1  0.94739267  0.97711738  0.81107397  1
  Y  Y3  1  0.86368130  0.33395659  0.81107397  1
  Y  Y4  1  0.16604341  0.55260733  0.68892603  1
  Y  Y5  1  0.52288262  0.63631870  0.68892603  1
  Y  Y6  1  0.05260733  0.02288262  0.18892603  1
  Y  Y7  1  0.13631870  0.66604341  0.18892603  1
  Y  Y8  1  0.20961153  0.24564150  0.31675974  1
  Y  Y9  1  0.10714822  0.57111825  0.31675974  1
  Y  Y10  1  0.74564150  0.60714822  0.81675974  1
  Y  Y11  1  0.07111825  0.70961153  0.81675974  1
  Y  Y12  1  0.79038847  0.75435850  0.68324026  1
  Y  Y13  1  0.89285178  0.42888175  0.68324026  1
  Y  Y14  1  0.25435850  0.39285178  0.18324026  1
  Y  Y15  1  0.92888175  0.29038847  0.18324026  1
  Y  Y16  1  0.08518732  0.81933945  0.69174248  1
  Y  Y17  1  0.60655516  0.37240303  0.69174248  1
  Y  Y18  1  0.31933945  0.10655516  0.19174248  1
  Y  Y19  1  0.87240303  0.58518732  0.19174248  1
  Y  Y20  1  0.91481268  0.18066055  0.30825752  1
  Y  Y21  1  0.39344484  0.62759697  0.30825752  1
  Y  Y22  1  0.68066055  0.89344484  0.80825752  1
  Y  Y23  1  0.12759697  0.41481268  0.80825752  1
  Y  Y24  1  0.06861089  0.41452992  0.42058239  1
  Y  Y25  1  0.35197150  0.50605247  0.42058239  1
  Y  Y26  1  0.91452992  0.85197150  0.92058239  1
  Y  Y27  1  0.00605247  0.56861089  0.92058239  1
  Y  Y28  1  0.93138911  0.58547008  0.57941761  1
  Y  Y29  1  0.64802850  0.49394753  0.57941761  1
  Y  Y30  1  0.08547008  0.14802850  0.07941761  1
  Y  Y31  1  0.99394753  0.43138911  0.07941761  1
  Y  Y32  1  0.86819131  0.01594807  0.43298135  1
  Y  Y33  1  0.56479004  0.91703329  0.43298135  1
  Y  Y34  1  0.51594807  0.06479004  0.93298135  1
  Y  Y35  1  0.41703329  0.36819131  0.93298135  1
  Y  Y36  1  0.13180869  0.98405193  0.56701865  1
  Y  Y37  1  0.43520996  0.08296671  0.56701865  1
  Y  Y38  1  0.48405193  0.93520996  0.06701865  1
  Y  Y39  1  0.58296671  0.63180869  0.06701865  1
  Ru  Ru0  1  0.02453540  0.36064570  0.30314904  1
  Ru  Ru1  1  0.27861365  0.44250334  0.30314904  1
  Ru  Ru2  1  0.86064570  0.77861365  0.80314904  1
  Ru  Ru3  1  0.94250334  0.52453540  0.80314904  1
  Ru  Ru4  1  0.97546460  0.63935430  0.69685096  1
  Ru  Ru5  1  0.72138635  0.55749666  0.69685096  1
  Ru  Ru6  1  0.13935430  0.22138635  0.19685096  1
  Ru  Ru7  1  0.05749666  0.47546460  0.19685096  1
  Br  Br0  1  0.02968437  0.78111504  0.56573352  1
  Br  Br1  1  0.53604915  0.28461849  0.56573352  1
  Br  Br2  1  0.28111504  0.03604915  0.06573352  1
  Br  Br3  1  0.78461849  0.52968437  0.06573352  1
  Br  Br4  1  0.97031563  0.21888496  0.43426648  1
  Br  Br5  1  0.46395085  0.71538151  0.43426648  1
  Br  Br6  1  0.71888496  0.96395085  0.93426648  1
  Br  Br7  1  0.21538151  0.47031563  0.93426648  1
  Br  Br8  1  0.71156362  0.26950245  0.31532392  1
  Br  Br9  1  0.60376031  0.54582148  0.31532392  1
  Br  Br10  1  0.76950245  0.10376031  0.81532392  1
  Br  Br11  1  0.04582148  0.21156362  0.81532392  1
  Br  Br12  1  0.28843638  0.73049755  0.68467608  1
  Br  Br13  1  0.39623969  0.45417852  0.68467608  1
  Br  Br14  1  0.23049755  0.89623969  0.18467608  1
  Br  Br15  1  0.95417852  0.78843638  0.18467608  1
  Br  Br16  1  0.88302388  0.52170989  0.43750526  1
  Br  Br17  1  0.55448138  0.41579537  0.43750526  1
  Br  Br18  1  0.02170989  0.05448138  0.93750526  1
  Br  Br19  1  0.91579537  0.38302388  0.93750526  1
  Br  Br20  1  0.11697612  0.47829011  0.56249474  1
  Br  Br21  1  0.44551862  0.58420463  0.56249474  1
  Br  Br22  1  0.97829011  0.94551862  0.06249474  1
  Br  Br23  1  0.08420463  0.61697612  0.06249474  1
  Br  Br24  1  0.09418360  0.04318698  0.31209447  1
  Br  Br25  1  0.21791088  0.76890749  0.31209447  1
  Br  Br26  1  0.54318698  0.71791088  0.81209447  1
  Br  Br27  1  0.26890749  0.59418360  0.81209447  1
  Br  Br28  1  0.90581640  0.95681302  0.68790553  1
  Br  Br29  1  0.78208912  0.23109251  0.68790553  1
  Br  Br30  1  0.45681302  0.28208912  0.18790553  1
  Br  Br31  1  0.73109251  0.40581640  0.18790553  1
  Br  Br32  1  0.82216960  0.37434312  0.55041735  1
  Br  Br33  1  0.72824775  0.67607422  0.55041735  1
  Br  Br34  1  0.87434312  0.22824775  0.05041735  1
  Br  Br35  1  0.17607422  0.32216960  0.05041735  1
  Br  Br36  1  0.17783040  0.62565688  0.44958265  1
  Br  Br37  1  0.27175225  0.32392578  0.44958265  1
  Br  Br38  1  0.12565688  0.77175225  0.94958265  1
  Br  Br39  1  0.82392578  0.67783040  0.94958265  1
  Br  Br40  1  0.89334048  0.66559272  0.31454069  1
  Br  Br41  1  0.42120021  0.14894797  0.31454069  1
  Br  Br42  1  0.16559272  0.92120021  0.81454069  1
  Br  Br43  1  0.64894797  0.39334048  0.81454069  1
  Br  Br44  1  0.10665952  0.33440728  0.68545931  1
  Br  Br45  1  0.57879979  0.85105203  0.68545931  1
  Br  Br46  1  0.83440728  0.07879979  0.18545931  1
  Br  Br47  1  0.35105203  0.60665952  0.18545931  1
  Br  Br48  1  0.50425291  0.83693436  0.31543863  1
  Br  Br49  1  0.81118572  0.97850427  0.31543863  1
  Br  Br50  1  0.33693436  0.31118572  0.81543863  1
  Br  Br51  1  0.47850427  0.00425291  0.81543863  1
  Br  Br52  1  0.49574709  0.16306564  0.68456137  1
  Br  Br53  1  0.18881428  0.02149573  0.68456137  1
  Br  Br54  1  0.66306564  0.68881428  0.18456137  1
  Br  Br55  1  0.52149573  0.99574709  0.18456137  1
  Br  Br56  1  0.06121247  0.91587970  0.44293365  1
  Br  Br57  1  0.38172118  0.02705395  0.44293365  1
  Br  Br58  1  0.41587970  0.88172118  0.94293365  1
  Br  Br59  1  0.52705395  0.56121247  0.94293365  1
  Br  Br60  1  0.93878753  0.08412030  0.55706635  1
  Br  Br61  1  0.61827882  0.97294605  0.55706635  1
  Br  Br62  1  0.58412030  0.11827882  0.05706635  1
  Br  Br63  1  0.47294605  0.43878753  0.05706635  1
  Br  Br64  1  0.76539863  0.83032622  0.43869539  1
  Br  Br65  1  0.67329676  0.10836917  0.43869539  1
  Br  Br66  1  0.33032622  0.17329676  0.93869539  1
  Br  Br67  1  0.60836917  0.26539863  0.93869539  1
  Br  Br68  1  0.23460137  0.16967378  0.56130461  1
  Br  Br69  1  0.32670324  0.89163083  0.56130461  1
  Br  Br70  1  0.66967378  0.82670324  0.06130461  1
  Br  Br71  1  0.39163083  0.73460137  0.06130461  1
loop_
_geom_bond_atom_site_label_1
_geom_bond_atom_site_label_2
_geom_bond_distance
_geom_bond_site_symmetry_2
Ru0 Y24 2.714770 1_555
Ru0 Y0 2.756354 1_455
Ru0 Y20 2.790276 1_455
Ru0 Y15 2.806357 1_455
Ru0 Y8 2.826165 1_555
Ru0 Y9 2.844341 1_555
Ru1 Y25 2.714770 1_555
Ru1 Y1 2.756354 1_555
Ru1 Y21 2.790276 1_555
Ru1 Y14 2.806357 1_555
Ru1 Y9 2.826165 1_555
Ru1 Y8 2.844341 1_555
Ru2 Y26 2.714770 1_555
Ru2 Y2 2.756354 1_555
Ru2 Y22 2.790276 1_555
Ru2 Y12 2.806357 1_555
Ru2 Y10 2.826165 1_555
Ru2 Y11 2.844341 1_655
Ru3 Y27 2.714770 1_655
Ru3 Y3 2.756354 1_555
Ru3 Y23 2.790276 1_655
Ru3 Y13 2.806357 1_555
Ru3 Y11 2.826165 1_655
Ru3 Y10 2.844341 1_555
Ru4 Y28 2.714770 1_555
Ru4 Y4 2.756354 1_655
Ru4 Y16 2.790276 1_655
Ru4 Y11 2.806357 1_655
Ru4 Y12 2.826165 1_555
Ru4 Y13 2.844341 1_555
Ru5 Y29 2.714770 1_555
Ru5 Y5 2.756354 1_555
Ru5 Y17 2.790276 1_555
Ru5 Y10 2.806357 1_555
Ru5 Y13 2.826165 1_555
Ru5 Y12 2.844341 1_555
Ru6 Y30 2.714770 1_555
Ru6 Y6 2.756354 1_555
Ru6 Y18 2.790276 1_555
Ru6 Y8 2.806357 1_555
Ru6 Y14 2.826165 1_555
Ru6 Y15 2.844341 1_455
Ru7 Y31 2.714770 1_455
Ru7 Y7 2.756354 1_555
Ru7 Y19 2.790276 1_455
Ru7 Y9 2.806357 1_555
Ru7 Y15 2.826165 1_455
Ru7 Y14 2.844341 1_555
Br0 Y16 2.924514 1_555
Br0 Y36 2.944255 1_555
Br0 Y28 2.984677 1_455
Br1 Y17 2.924514 1_555
Br1 Y37 2.944255 1_555
Br1 Y29 2.984677 1_555
Br2 Y18 2.924514 1_555
Br2 Y38 2.944255 1_545
Br2 Y30 2.984677 1_555
Br3 Y19 2.924514 1_555
Br3 Y39 2.944255 1_555
Br3 Y31 2.984677 1_555
Br4 Y20 2.924514 1_555
Br4 Y32 2.944255 1_555
Br4 Y24 2.984677 1_655
Br5 Y21 2.924514 1_555
Br5 Y33 2.944255 1_555
Br5 Y25 2.984677 1_555
Br6 Y22 2.924514 1_555
Br6 Y34 2.944255 1_565
Br6 Y26 2.984677 1_555
Br7 Y23 2.924514 1_555
Br7 Y35 2.944255 1_555
Br7 Y27 2.984677 1_555
Br8 Y0 2.849036 1_555
Br8 Y20 2.914406 1_555
Br8 Y1 3.272983 1_555
Br9 Y1 2.849037 1_555
Br9 Y21 2.914406 1_555
Br9 Y0 3.272983 1_555
Br10 Y2 2.849036 1_545
Br10 Y22 2.914406 1_545
Br10 Y3 3.272983 1_555
Br11 Y3 2.849037 1_455
Br11 Y23 2.914406 1_555
Br11 Y2 3.272983 1_445
Br12 Y4 2.849036 1_555
Br12 Y16 2.914406 1_555
Br12 Y5 3.272983 1_555
Br13 Y5 2.849037 1_555
Br13 Y17 2.914406 1_555
Br13 Y4 3.272983 1_555
Br14 Y6 2.849036 1_565
Br14 Y18 2.914406 1_565
Br14 Y7 3.272983 1_555
Br15 Y7 2.849037 1_655
Br15 Y19 2.914406 1_555
Br15 Y6 3.272983 1_665
Br16 Y24 2.858901 1_655
Br16 Y0 2.924165 1_555
Br16 Y28 3.286204 1_555
Br17 Y25 2.858901 1_555
Br17 Y1 2.924165 1_555
Br17 Y29 3.286204 1_555
Br18 Y26 2.858901 1_445
Br18 Y2 2.924165 1_445
Br18 Y30 3.286204 1_556
Br19 Y27 2.858901 1_655
Br19 Y3 2.924165 1_555
Br19 Y31 3.286204 1_556
Br20 Y28 2.858901 1_455
Br20 Y4 2.924165 1_555
Br20 Y24 3.286204 1_555
Br21 Y29 2.858901 1_555
Br21 Y5 2.924165 1_555
Br21 Y25 3.286204 1_555
Br22 Y30 2.858901 1_665
Br22 Y6 2.924165 1_665
Br22 Y26 3.286204 1_554
Br23 Y31 2.858901 1_455
Br23 Y7 2.924165 1_555
Br23 Y27 3.286204 1_554
Br24 Y6 2.901595 1_555
Br24 Y20 2.936745 1_455
Br24 Y8 2.992171 1_555
Br25 Y7 2.901595 1_555
Br25 Y21 2.936745 1_555
Br25 Y9 2.992171 1_555
Br26 Y5 2.901595 1_555
Br26 Y22 2.936745 1_555
Br26 Y10 2.992171 1_555
Br27 Y4 2.901595 1_555
Br27 Y23 2.936745 1_555
Br27 Y11 2.992171 1_555
Br28 Y2 2.901595 1_555
Br28 Y16 2.936745 1_655
Br28 Y12 2.992171 1_555
Br29 Y3 2.901595 1_555
Br29 Y17 2.936745 1_555
Br29 Y13 2.992171 1_555
Br30 Y1 2.901595 1_555
Br30 Y18 2.936745 1_555
Br30 Y14 2.992171 1_555
Br31 Y0 2.901595 1_555
Br31 Y19 2.936745 1_555
Br31 Y15 2.992171 1_555
Br32 Y29 2.887592 1_555
Br32 Y28 2.916788 1_555
Br32 Y13 3.066543 1_555
Br33 Y28 2.887592 1_555
Br33 Y29 2.916788 1_555
Br33 Y12 3.066543 1_555
Br34 Y31 2.887592 1_555
Br34 Y30 2.916788 1_655
Br34 Y15 3.066543 1_555
Br35 Y30 2.887592 1_555
Br35 Y31 2.916788 1_455
Br35 Y14 3.066543 1_555
Br36 Y25 2.887592 1_555
Br36 Y24 2.916788 1_555
Br36 Y9 3.066543 1_555
Br37 Y24 2.887592 1_555
Br37 Y25 2.916788 1_555
Br37 Y8 3.066543 1_555
Br38 Y27 2.887592 1_555
Br38 Y26 2.916788 1_455
Br38 Y11 3.066543 1_555
Br39 Y26 2.887592 1_555
Br39 Y27 2.916788 1_655
Br39 Y10 3.066543 1_555
Br40 Y19 2.890142 1_555
Br40 Y0 2.915156 1_555
Br40 Y9 3.033862 1_655
Br41 Y18 2.890142 1_555
Br41 Y1 2.915156 1_555
Br41 Y8 3.033862 1_555
Br42 Y16 2.890142 1_555
Br42 Y2 2.915156 1_455
Br42 Y11 3.033862 1_555
Br43 Y17 2.890142 1_555
Br43 Y3 2.915156 1_555
Br43 Y10 3.033862 1_555
Br44 Y23 2.890142 1_555
Br44 Y4 2.915156 1_555
Br44 Y13 3.033862 1_455
Br45 Y22 2.890142 1_555
Br45 Y5 2.915156 1_555
Br45 Y12 3.033862 1_555
Br46 Y20 2.890142 1_555
Br46 Y6 2.915156 1_655
Br46 Y15 3.033862 1_555
Br47 Y21 2.890142 1_555
Br47 Y7 2.915156 1_555
Br47 Y14 3.033862 1_555
Br48 Y33 2.724134 1_555
Br48 Y21 3.022602 1_555
Br49 Y32 2.724134 1_565
Br49 Y20 3.022602 1_565
Br50 Y35 2.724134 1_555
Br50 Y23 3.022602 1_555
Br51 Y34 2.724134 1_555
Br51 Y22 3.022602 1_545
Br52 Y37 2.724134 1_555
Br52 Y17 3.022602 1_555
Br53 Y36 2.724134 1_545
Br53 Y16 3.022602 1_545
Br54 Y39 2.724134 1_555
Br54 Y19 3.022602 1_555
Br55 Y38 2.724134 1_555
Br55 Y18 3.022602 1_565
Br56 Y32 2.811352 1_465
Br56 Y36 2.863974 1_555
Br57 Y33 2.811352 1_545
Br57 Y37 2.863974 1_555
Br58 Y34 2.811352 1_565
Br58 Y38 2.863974 1_556
Br59 Y35 2.811352 1_555
Br59 Y39 2.863974 1_556
Br60 Y36 2.811352 1_645
Br60 Y32 2.863974 1_555
Br61 Y37 2.811352 1_565
Br61 Y33 2.863974 1_555
Br62 Y38 2.811352 1_545
Br62 Y34 2.863974 1_554
Br63 Y39 2.811352 1_555
Br63 Y35 2.863974 1_554
Br64 Y32 2.813828 1_565
Br64 Y33 2.827066 1_555
Br65 Y33 2.813828 1_545
Br65 Y32 2.827065 1_555
Br66 Y34 2.813828 1_555
Br66 Y35 2.827066 1_555
Br67 Y35 2.813828 1_555
Br67 Y34 2.827065 1_555
Br68 Y36 2.813828 1_545
Br68 Y37 2.827066 1_555
Br69 Y37 2.813828 1_565
Br69 Y36 2.827065 1_555
Br70 Y38 2.813828 1_555
Br70 Y39 2.827066 1_555
Br71 Y39 2.813828 1_555
Br71 Y38 2.827065 1_555
