# generated using pymatgen
data_Zr4CuS8
_symmetry_space_group_name_H-M   'P 1'
_cell_length_a   7.36662044
_cell_length_b   7.36662044
_cell_length_c   7.36662044
_cell_angle_alpha   60.00000000
_cell_angle_beta   60.00000000
_cell_angle_gamma   60.00000000
_symmetry_Int_Tables_number   1
_chemical_formula_structural   Zr4CuS8
_chemical_formula_sum   'Zr4 Cu1 S8'
_cell_volume   282.67661619
_cell_formula_units_Z   1
loop_
 _symmetry_equiv_pos_site_id
 _symmetry_equiv_pos_as_xyz
  1  'x, y, z'
loop_
 _atom_site_type_symbol
 _atom_site_label
 _atom_site_symmetry_multiplicity
 _atom_site_fract_x
 _atom_site_fract_y
 _atom_site_fract_z
 _atom_site_occupancy
  Zr  Zr0  1  0.61838457  0.12720581  0.12720581  1
  Zr  Zr1  1  0.12720581  0.61838457  0.12720581  1
  Zr  Zr2  1  0.12720581  0.12720581  0.61838457  1
  Zr  Zr3  1  0.12720581  0.12720581  0.12720581  1
  Cu  Cu0  1  0.75000000  0.75000000  0.75000000  1
  S  S0  1  0.36808540  0.87730420  0.87730420  1
  S  S1  1  0.87730420  0.36808540  0.87730420  1
  S  S2  1  0.87730420  0.87730420  0.36808540  1
  S  S3  1  0.87730420  0.87730420  0.87730420  1
  S  S4  1  0.88380122  0.37206659  0.37206659  1
  S  S5  1  0.37206659  0.88380122  0.37206659  1
  S  S6  1  0.37206659  0.37206659  0.88380122  1
  S  S7  1  0.37206659  0.37206659  0.37206659  1
loop_
_geom_bond_atom_site_label_1
_geom_bond_atom_site_label_2
_geom_bond_distance
_geom_bond_site_symmetry_2
Cu0 S3 2.297136 1_555
Cu0 S0 2.297148 1_555
Cu0 S2 2.297148 1_555
Cu0 S1 2.297148 1_555
S0 Zr1 2.604296 1_556
S0 Zr2 2.604296 1_565
S0 Zr3 2.604317 1_566
S1 Zr0 2.604296 1_556
S1 Zr2 2.604296 1_655
S1 Zr3 2.604317 1_656
S2 Zr0 2.604296 1_565
S2 Zr1 2.604296 1_655
S2 Zr3 2.604317 1_665
S3 Zr0 2.604316 1_566
S3 Zr2 2.604316 1_665
S3 Zr1 2.604316 1_656
S4 Zr3 2.550976 1_655
S4 Zr2 2.550981 1_655
S4 Zr1 2.550981 1_655
S5 Zr3 2.550976 1_565
S5 Zr0 2.550981 1_565
S5 Zr2 2.550981 1_565
S6 Zr3 2.550976 1_556
S6 Zr1 2.550981 1_556
S6 Zr0 2.550981 1_556
S7 Zr1 2.550976 1_555
S7 Zr0 2.550976 1_555
S7 Zr2 2.550976 1_555
