# generated using pymatgen
data_Mg2BO4
_symmetry_space_group_name_H-M   'P 1'
_cell_length_a   3.12392600
_cell_length_b   9.39312400
_cell_length_c   9.65035300
_cell_angle_alpha   90.00000000
_cell_angle_beta   90.00000000
_cell_angle_gamma   90.00000000
_symmetry_Int_Tables_number   1
_chemical_formula_structural   Mg2BO4
_chemical_formula_sum   'Mg8 B4 O16'
_cell_volume   283.17440258
_cell_formula_units_Z   4
loop_
 _symmetry_equiv_pos_site_id
 _symmetry_equiv_pos_as_xyz
  1  'x, y, z'
loop_
 _atom_site_type_symbol
 _atom_site_label
 _atom_site_symmetry_multiplicity
 _atom_site_fract_x
 _atom_site_fract_y
 _atom_site_fract_z
 _atom_site_occupancy
  Mg  Mg0  1  0.25000000  0.69578900  0.10672000  1
  Mg  Mg1  1  0.75000000  0.30421100  0.89328000  1
  Mg  Mg2  1  0.75000000  0.19578900  0.39328000  1
  Mg  Mg3  1  0.25000000  0.80421100  0.60672000  1
  Mg  Mg4  1  0.25000000  0.06681600  0.13731600  1
  Mg  Mg5  1  0.75000000  0.93318400  0.86268400  1
  Mg  Mg6  1  0.75000000  0.56681600  0.36268400  1
  Mg  Mg7  1  0.25000000  0.43318400  0.63731600  1
  B  B0  1  0.25000000  0.37058400  0.16779700  1
  B  B1  1  0.75000000  0.62941600  0.83220300  1
  B  B2  1  0.75000000  0.87058400  0.33220300  1
  B  B3  1  0.25000000  0.12941600  0.66779700  1
  O  O0  1  0.25000000  0.25166900  0.25338200  1
  O  O1  1  0.75000000  0.74833100  0.74661800  1
  O  O2  1  0.75000000  0.75166900  0.24661800  1
  O  O3  1  0.25000000  0.24833100  0.75338200  1
  O  O4  1  0.25000000  0.34974900  0.02598500  1
  O  O5  1  0.75000000  0.65025100  0.97401500  1
  O  O6  1  0.75000000  0.84974900  0.47401500  1
  O  O7  1  0.25000000  0.15025100  0.52598500  1
  O  O8  1  0.25000000  0.50634200  0.22252000  1
  O  O9  1  0.75000000  0.49365800  0.77748000  1
  O  O10  1  0.75000000  0.00634200  0.27748000  1
  O  O11  1  0.25000000  0.99365800  0.72252000  1
  O  O12  1  0.25000000  0.60456300  0.50338600  1
  O  O13  1  0.75000000  0.39543700  0.49661400  1
  O  O14  1  0.75000000  0.10456300  0.99661400  1
  O  O15  1  0.25000000  0.89543700  0.00338600  1
loop_
_geom_bond_atom_site_label_1
_geom_bond_atom_site_label_2
_geom_bond_distance
_geom_bond_site_symmetry_2
Mg0 O5 2.064645 1_554
Mg0 O5 2.064645 1_454
Mg0 O8 2.101297 1_555
Mg0 O15 2.123969 1_555
Mg0 O2 2.130237 1_555
Mg0 O2 2.130237 1_455
Mg1 O4 2.064645 1_656
Mg1 O4 2.064645 1_556
Mg1 O9 2.101297 1_555
Mg1 O14 2.123969 1_555
Mg1 O3 2.130237 1_655
Mg1 O3 2.130237 1_555
Mg2 O7 2.064645 1_555
Mg2 O7 2.064645 1_655
Mg2 O10 2.101297 1_555
Mg2 O13 2.123969 1_555
Mg2 O0 2.130237 1_555
Mg2 O0 2.130237 1_655
Mg3 O6 2.064645 1_555
Mg3 O6 2.064645 1_455
Mg3 O11 2.101297 1_555
Mg3 O12 2.123969 1_555
Mg3 O1 2.130237 1_555
Mg3 O1 2.130237 1_455
Mg4 O15 2.064434 1_545
Mg4 O0 2.066271 1_555
Mg4 O14 2.099793 1_554
Mg4 O14 2.099793 1_454
Mg4 O10 2.142898 1_555
Mg4 O10 2.142898 1_455
Mg5 O14 2.064434 1_565
Mg5 O1 2.066271 1_555
Mg5 O15 2.099793 1_656
Mg5 O15 2.099793 1_556
Mg5 O11 2.142898 1_555
Mg5 O11 2.142898 1_655
Mg6 O13 2.064434 1_555
Mg6 O2 2.066271 1_555
Mg6 O12 2.099793 1_555
Mg6 O12 2.099793 1_655
Mg6 O8 2.142898 1_555
Mg6 O8 2.142898 1_655
Mg7 O12 2.064434 1_555
Mg7 O3 2.066271 1_555
Mg7 O13 2.099793 1_555
Mg7 O13 2.099793 1_455
Mg7 O9 2.142898 1_455
Mg7 O9 2.142898 1_555
B0 O8 1.380217 1_555
B0 O4 1.382458 1_555
B0 O0 1.389174 1_555
B1 O9 1.380217 1_555
B1 O5 1.382458 1_555
B1 O1 1.389174 1_555
B2 O10 1.380217 1_565
B2 O6 1.382458 1_555
B2 O2 1.389174 1_555
B3 O11 1.380217 1_545
B3 O7 1.382458 1_555
B3 O3 1.389174 1_555
