# generated using pymatgen
data_NiMoP2
_symmetry_space_group_name_H-M   'P 1'
_cell_length_a   3.33097149
_cell_length_b   3.33097089
_cell_length_c   11.12547996
_cell_angle_alpha   90.00000000
_cell_angle_beta   90.00000000
_cell_angle_gamma   119.99999591
_symmetry_Int_Tables_number   1
_chemical_formula_structural   NiMoP2
_chemical_formula_sum   'Ni2 Mo2 P4'
_cell_volume   106.90331151
_cell_formula_units_Z   2
loop_
 _symmetry_equiv_pos_site_id
 _symmetry_equiv_pos_as_xyz
  1  'x, y, z'
loop_
 _atom_site_type_symbol
 _atom_site_label
 _atom_site_symmetry_multiplicity
 _atom_site_fract_x
 _atom_site_fract_y
 _atom_site_fract_z
 _atom_site_occupancy
  Ni  Ni0  1  -0.00000000  -0.00000000  -0.00000000  1
  Ni  Ni1  1  -0.00000000  -0.00000000  0.50000000  1
  Mo  Mo0  1  -0.00000000  -0.00000000  0.75000000  1
  Mo  Mo1  1  -0.00000000  0.00000000  0.25000000  1
  P  P0  1  0.33333300  0.66666700  0.38805011  1
  P  P1  1  0.66666700  0.33333300  0.88805011  1
  P  P2  1  0.33333300  0.66666700  0.11194989  1
  P  P3  1  0.66666700  0.33333300  0.61194989  1
loop_
_geom_bond_atom_site_label_1
_geom_bond_atom_site_label_2
_geom_bond_distance
_geom_bond_site_symmetry_2
Ni0 P2 2.291225 1_545
Ni0 P1 2.291225 1_454
Ni0 P2 2.291227 1_555
Ni0 P1 2.291227 1_444
Ni0 P2 2.291227 1_445
Ni0 P1 2.291227 1_554
Ni1 P3 2.291225 1_455
Ni1 P0 2.291225 1_545
Ni1 P0 2.291227 1_555
Ni1 P3 2.291227 1_445
Ni1 P0 2.291227 1_445
Ni1 P3 2.291227 1_555
Mo0 P3 2.461170 1_455
Mo0 P1 2.461170 1_455
Mo0 P3 2.461172 1_445
Mo0 P1 2.461172 1_445
Mo0 P3 2.461172 1_555
Mo0 P1 2.461172 1_555
Mo0 Ni1 2.781370 1_555
Mo0 Ni0 2.781370 1_556
Mo1 P2 2.461170 1_545
Mo1 P0 2.461170 1_545
Mo1 P0 2.461172 1_555
Mo1 P2 2.461172 1_555
Mo1 P0 2.461172 1_445
Mo1 P2 2.461172 1_445
Mo1 Ni1 2.781370 1_555
Mo1 Ni0 2.781370 1_555
