# generated using pymatgen
data_Cs2PrCl5
_symmetry_space_group_name_H-M   'P 1'
_cell_length_a   8.60362803
_cell_length_b   9.16049246
_cell_length_c   13.82484832
_cell_angle_alpha   90.00000000
_cell_angle_beta   90.00000000
_cell_angle_gamma   90.00000000
_symmetry_Int_Tables_number   1
_chemical_formula_structural   Cs2PrCl5
_chemical_formula_sum   'Cs8 Pr4 Cl20'
_cell_volume   1089.58426414
_cell_formula_units_Z   4
loop_
 _symmetry_equiv_pos_site_id
 _symmetry_equiv_pos_as_xyz
  1  'x, y, z'
loop_
 _atom_site_type_symbol
 _atom_site_label
 _atom_site_symmetry_multiplicity
 _atom_site_fract_x
 _atom_site_fract_y
 _atom_site_fract_z
 _atom_site_occupancy
  Cs  Cs0  1  0.94183522  0.00506682  0.82977091  1
  Cs  Cs1  1  0.05816478  0.99493318  0.17022909  1
  Cs  Cs2  1  0.44183522  0.99493318  0.67022909  1
  Cs  Cs3  1  0.05816478  0.50506682  0.17022909  1
  Cs  Cs4  1  0.55816478  0.00506682  0.32977091  1
  Cs  Cs5  1  0.94183522  0.49493318  0.82977091  1
  Cs  Cs6  1  0.55816478  0.49493318  0.32977091  1
  Cs  Cs7  1  0.44183522  0.50506682  0.67022909  1
  Pr  Pr0  1  0.93384889  0.75000000  0.50431503  1
  Pr  Pr1  1  0.06615111  0.25000000  0.49568497  1
  Pr  Pr2  1  0.43384889  0.25000000  0.99568497  1
  Pr  Pr3  1  0.56615111  0.75000000  0.00431503  1
  Cl  Cl0  1  0.11324258  0.75000000  0.67190826  1
  Cl  Cl1  1  0.88675742  0.25000000  0.32809174  1
  Cl  Cl2  1  0.61324258  0.25000000  0.82809174  1
  Cl  Cl3  1  0.38675742  0.75000000  0.17190826  1
  Cl  Cl4  1  0.84228438  0.04178852  0.56783401  1
  Cl  Cl5  1  0.15771562  0.95821148  0.43216599  1
  Cl  Cl6  1  0.34228438  0.95821148  0.93216599  1
  Cl  Cl7  1  0.15771562  0.54178852  0.43216599  1
  Cl  Cl8  1  0.65771562  0.04178852  0.06783401  1
  Cl  Cl9  1  0.84228438  0.45821148  0.56783401  1
  Cl  Cl10  1  0.65771562  0.45821148  0.06783401  1
  Cl  Cl11  1  0.34228438  0.54178852  0.93216599  1
  Cl  Cl12  1  0.60937183  0.75000000  0.51451215  1
  Cl  Cl13  1  0.39062817  0.25000000  0.48548785  1
  Cl  Cl14  1  0.10937183  0.25000000  0.98548785  1
  Cl  Cl15  1  0.89062817  0.75000000  0.01451215  1
  Cl  Cl16  1  0.64694629  0.75000000  0.80902844  1
  Cl  Cl17  1  0.35305371  0.25000000  0.19097156  1
  Cl  Cl18  1  0.14694629  0.25000000  0.69097156  1
  Cl  Cl19  1  0.85305371  0.75000000  0.30902844  1
loop_
_geom_bond_atom_site_label_1
_geom_bond_atom_site_label_2
_geom_bond_distance
_geom_bond_site_symmetry_2
Cl0 Pr0 2.783965 1_455
Cl0 Cs0 3.520967 1_465
Cl0 Cs5 3.520967 1_455
Cl0 Cs2 3.609321 1_555
Cl0 Cs7 3.609321 1_555
Cl1 Pr1 2.783965 1_655
Cl1 Cs1 3.520967 1_645
Cl1 Cs3 3.520967 1_655
Cl1 Cs6 3.609321 1_555
Cl1 Cs4 3.609321 1_555
Cl2 Pr2 2.783965 1_555
Cl2 Cs7 3.520967 1_555
Cl2 Cs2 3.520967 1_545
Cl2 Cs0 3.609321 1_555
Cl2 Cs5 3.609321 1_555
Cl3 Pr3 2.783965 1_555
Cl3 Cs4 3.520967 1_565
Cl3 Cs6 3.520967 1_555
Cl3 Cs1 3.609321 1_555
Cl3 Cs3 3.609321 1_555
Cl4 Pr1 2.888339 1_655
Cl4 Pr0 2.921690 1_545
Cl4 Cs0 3.736323 1_555
Cl4 Cs2 3.749445 1_545
Cl5 Pr0 2.888339 1_455
Cl5 Pr1 2.921690 1_565
Cl5 Cs1 3.736323 1_555
Cl5 Cs4 3.749445 1_565
Cl6 Pr3 2.888339 1_556
Cl6 Pr2 2.921690 1_565
Cl6 Cs2 3.736323 1_555
Cl6 Cs0 3.749445 1_465
Cl7 Pr0 2.888339 1_455
Cl7 Pr1 2.921690 1_555
Cl7 Cs3 3.736323 1_555
Cl7 Cs6 3.749445 1_555
Cl8 Pr2 2.888339 1_554
Cl8 Pr3 2.921690 1_545
Cl8 Cs4 3.736323 1_555
Cl8 Cs1 3.749445 1_645
Cl9 Pr1 2.888339 1_655
Cl9 Pr0 2.921690 1_555
Cl9 Cs5 3.736323 1_555
Cl9 Cs7 3.749445 1_555
Cl10 Pr2 2.888339 1_554
Cl10 Pr3 2.921690 1_555
Cl10 Cs6 3.736323 1_555
Cl10 Cs3 3.749445 1_655
Cl11 Pr3 2.888339 1_556
Cl11 Pr2 2.921690 1_555
Cl11 Cs7 3.736323 1_555
Cl11 Cs5 3.749445 1_455
Cl12 Pr0 2.795237 1_555
Cl12 Cs2 3.427290 1_555
Cl12 Cs7 3.427290 1_555
Cl12 Cs6 3.489488 1_555
Cl12 Cs4 3.489488 1_565
Cl13 Pr1 2.795237 1_555
Cl13 Cs4 3.427290 1_555
Cl13 Cs6 3.427290 1_555
Cl13 Cs2 3.489488 1_545
Cl13 Cs7 3.489488 1_555
Cl14 Pr2 2.795237 1_555
Cl14 Cs5 3.427290 1_455
Cl14 Cs0 3.427290 1_455
Cl14 Cs1 3.489488 1_546
Cl14 Cs3 3.489488 1_556
Cl15 Pr3 2.795237 1_555
Cl15 Cs1 3.427290 1_655
Cl15 Cs3 3.427290 1_655
Cl15 Cs0 3.489488 1_564
Cl15 Cs5 3.489488 1_554
Cl16 Pr3 2.787861 1_556
Cl16 Cs2 3.439548 1_555
Cl16 Cs7 3.439548 1_555
Cl16 Cs0 3.461010 1_565
Cl16 Cs5 3.461010 1_555
Cl17 Pr2 2.787861 1_554
Cl17 Cs6 3.439548 1_555
Cl17 Cs4 3.439548 1_555
Cl17 Cs3 3.461010 1_555
Cl17 Cs1 3.461010 1_545
Cl18 Pr1 2.787861 1_555
Cl18 Cs0 3.439548 1_455
Cl18 Cs5 3.439548 1_455
Cl18 Cs2 3.461010 1_545
Cl18 Cs7 3.461010 1_555
Cl19 Pr0 2.787861 1_555
Cl19 Cs1 3.439548 1_655
Cl19 Cs3 3.439548 1_655
Cl19 Cs4 3.461010 1_565
Cl19 Cs6 3.461010 1_555
