# generated using pymatgen
data_TbGd2Ga5O12
_symmetry_space_group_name_H-M   'P 1'
_cell_length_a   10.81442418
_cell_length_b   10.81442418
_cell_length_c   10.81442418
_cell_angle_alpha   109.47819872
_cell_angle_beta   109.47819872
_cell_angle_gamma   109.45726537
_symmetry_Int_Tables_number   1
_chemical_formula_structural   TbGd2Ga5O12
_chemical_formula_sum   'Tb4 Gd8 Ga20 O48'
_cell_volume   973.61731903
_cell_formula_units_Z   4
loop_
 _symmetry_equiv_pos_site_id
 _symmetry_equiv_pos_as_xyz
  1  'x, y, z'
loop_
 _atom_site_type_symbol
 _atom_site_label
 _atom_site_symmetry_multiplicity
 _atom_site_fract_x
 _atom_site_fract_y
 _atom_site_fract_z
 _atom_site_occupancy
  Tb  Tb0  1  0.37500000  0.99988400  0.12488400  1
  Tb  Tb1  1  0.87500000  0.25011600  0.87511600  1
  Tb  Tb2  1  0.74988400  0.12500000  0.12488400  1
  Tb  Tb3  1  0.00011600  0.62500000  0.87511600  1
  Gd  Gd0  1  0.00000000  0.00000000  0.00000000  1
  Gd  Gd1  1  0.75000000  0.25000000  0.50000000  1
  Gd  Gd2  1  0.87500000  0.74993000  0.37493000  1
  Gd  Gd3  1  0.37500000  0.50007000  0.62507000  1
  Gd  Gd4  1  0.49993000  0.62500000  0.37493000  1
  Gd  Gd5  1  0.25007000  0.12500000  0.62507000  1
  Gd  Gd6  1  0.25000000  0.75000000  0.50000000  1
  Gd  Gd7  1  0.50000000  0.50000000  0.00000000  1
  Ga  Ga0  1  0.37500000  0.75045000  0.87545000  1
  Ga  Ga1  1  0.87500000  0.49955000  0.12455000  1
  Ga  Ga2  1  0.99975600  0.12500000  0.37475600  1
  Ga  Ga3  1  0.75024400  0.62500000  0.62524400  1
  Ga  Ga4  1  0.24980200  0.24980200  0.00000000  1
  Ga  Ga5  1  0.50019800  0.00019800  0.50000000  1
  Ga  Ga6  1  0.87500000  0.00024400  0.62524400  1
  Ga  Ga7  1  0.37500000  0.24975600  0.37475600  1
  Ga  Ga8  1  0.24955000  0.62500000  0.12455000  1
  Ga  Ga9  1  0.50045000  0.12500000  0.87545000  1
  Ga  Ga10  1  0.99980200  0.49980200  0.50000000  1
  Ga  Ga11  1  0.75019800  0.75019800  0.00000000  1
  Ga  Ga12  1  0.62485900  0.37446300  0.24973800  1
  Ga  Ga13  1  0.12514100  0.87487900  0.24960400  1
  Ga  Ga14  1  0.62527500  0.87553700  0.75039600  1
  Ga  Ga15  1  0.12472500  0.37512100  0.75026200  1
  Ga  Ga16  1  0.62487900  0.87527500  0.24973800  1
  Ga  Ga17  1  0.12446300  0.37472500  0.24960400  1
  Ga  Ga18  1  0.12512100  0.87485900  0.75039600  1
  Ga  Ga19  1  0.62553700  0.37514100  0.75026200  1
  O  O0  1  0.52922200  0.25176800  0.33152000  1
  O  O1  1  0.22077800  0.05229800  0.22254600  1
  O  O2  1  0.82975200  0.99823200  0.77745400  1
  O  O3  1  0.92024800  0.19770200  0.66848000  1
  O  O4  1  0.65345700  0.08079200  0.87339200  1
  O  O5  1  0.54259900  0.16920800  0.07266400  1
  O  O6  1  0.20740100  0.78006500  0.12660800  1
  O  O7  1  0.09654300  0.46993500  0.92733600  1
  O  O8  1  0.94711100  0.79100000  0.04431800  1
  O  O9  1  0.74668100  0.90279300  0.95568200  1
  O  O10  1  0.80288900  0.34720700  0.34388900  1
  O  O11  1  0.00331900  0.45900000  0.65611100  1
  O  O12  1  0.71990300  0.49655200  0.16697700  1
  O  O13  1  0.03009700  0.69707400  0.27664900  1
  O  O14  1  0.42042500  0.75344800  0.72335100  1
  O  O15  1  0.32957500  0.55292600  0.83302300  1
  O  O16  1  0.59840700  0.67058900  0.62852100  1
  O  O17  1  0.70793200  0.57941100  0.42781800  1
  O  O18  1  0.04206800  0.96988600  0.37147900  1
  O  O19  1  0.15159300  0.28011400  0.57218200  1
  O  O20  1  0.30283400  0.95794300  0.45452900  1
  O  O21  1  0.50341400  0.84830600  0.54547100  1
  O  O22  1  0.44716600  0.40169400  0.15510800  1
  O  O23  1  0.24658600  0.29205700  0.84489200  1
  O  O24  1  0.44707400  0.67042500  0.16697700  1
  O  O25  1  0.24655200  0.57957500  0.27664900  1
  O  O26  1  0.30292600  0.96990300  0.72335100  1
  O  O27  1  0.50344800  0.28009700  0.83302300  1
  O  O28  1  0.03011400  0.95793200  0.62852100  1
  O  O29  1  0.71988600  0.84840700  0.42781800  1
  O  O30  1  0.32941100  0.40159300  0.37147900  1
  O  O31  1  0.42058900  0.29206800  0.57218200  1
  O  O32  1  0.15169400  0.49658600  0.45452900  1
  O  O33  1  0.04205700  0.69716600  0.54547100  1
  O  O34  1  0.70794300  0.75341400  0.15510800  1
  O  O35  1  0.59830600  0.55283400  0.84489200  1
  O  O36  1  0.80229800  0.07975200  0.33152000  1
  O  O37  1  0.00176800  0.17024800  0.22254600  1
  O  O38  1  0.94770200  0.77922200  0.77745400  1
  O  O39  1  0.74823200  0.47077800  0.66848000  1
  O  O40  1  0.21993500  0.79259900  0.87339200  1
  O  O41  1  0.53006500  0.90345700  0.07266400  1
  O  O42  1  0.91920800  0.34654300  0.12660800  1
  O  O43  1  0.83079200  0.45740100  0.92733600  1
  O  O44  1  0.09720700  0.25331900  0.04431800  1
  O  O45  1  0.20900000  0.05288900  0.95568200  1
  O  O46  1  0.54100000  0.99668100  0.34388900  1
  O  O47  1  0.65279300  0.19711100  0.65611100  1
loop_
_geom_bond_atom_site_label_1
_geom_bond_atom_site_label_2
_geom_bond_distance
_geom_bond_site_symmetry_2
Gd0 O8 2.389436 1_445
Gd0 O45 2.389436 1_554
Gd0 O44 2.389447 1_555
Gd0 O9 2.389447 1_444
Gd0 O38 2.484587 1_444
Gd0 O1 2.484587 1_555
Gd0 O37 2.484587 1_555
Gd0 O2 2.484587 1_444
Gd1 O10 2.389436 1_555
Gd1 O47 2.389436 1_555
Gd1 O11 2.389443 1_655
Gd1 O46 2.389443 1_545
Gd1 O39 2.484587 1_555
Gd1 O0 2.484587 1_555
Gd1 O3 2.484587 1_555
Gd1 O36 2.484587 1_555
Gd2 O12 2.385816 1_555
Gd2 O13 2.385816 1_655
Gd2 O28 2.387253 1_655
Gd2 O29 2.387253 1_555
Gd2 O33 2.481427 1_655
Gd2 O34 2.481435 1_555
Gd2 O18 2.482928 1_655
Gd2 O17 2.482928 1_555
Gd3 O15 2.385816 1_555
Gd3 O14 2.385816 1_555
Gd3 O30 2.387253 1_555
Gd3 O31 2.387253 1_555
Gd3 O32 2.481435 1_555
Gd3 O35 2.481440 1_555
Gd3 O19 2.482928 1_555
Gd3 O16 2.482928 1_555
Gd4 O24 2.385816 1_555
Gd4 O25 2.385816 1_555
Gd4 O16 2.387253 1_555
Gd4 O17 2.387253 1_555
Gd4 O21 2.481435 1_555
Gd4 O22 2.481440 1_555
Gd4 O29 2.482928 1_555
Gd4 O30 2.482928 1_555
Gd5 O27 2.385816 1_555
Gd5 O26 2.385816 1_545
Gd5 O19 2.387253 1_555
Gd5 O18 2.387253 1_545
Gd5 O20 2.481427 1_545
Gd5 O23 2.481435 1_555
Gd5 O31 2.482928 1_555
Gd5 O28 2.482928 1_545
Gd6 O21 2.386241 1_555
Gd6 O32 2.386241 1_555
Gd6 O33 2.386241 1_555
Gd6 O20 2.386241 1_555
Gd6 O13 2.481481 1_555
Gd6 O26 2.481481 1_555
Gd6 O14 2.481481 1_555
Gd6 O25 2.481481 1_555
Gd7 O35 2.386238 1_554
Gd7 O22 2.386238 1_555
Gd7 O34 2.386241 1_555
Gd7 O23 2.386241 1_554
Gd7 O12 2.481481 1_555
Gd7 O27 2.481481 1_554
Gd7 O15 2.481481 1_554
Gd7 O24 2.481481 1_555
Ga0 O41 1.873899 1_556
Ga0 O40 1.873899 1_555
Ga0 O15 1.873973 1_555
Ga0 O14 1.873973 1_555
Ga1 O43 1.873897 1_554
Ga1 O42 1.873905 1_555
Ga1 O13 1.873973 1_655
Ga1 O12 1.873973 1_555
Ga2 O37 1.871737 1_655
Ga2 O36 1.871737 1_555
Ga2 O19 1.872717 1_655
Ga2 O18 1.872717 1_645
Ga3 O38 1.871737 1_555
Ga3 O39 1.871737 1_555
Ga3 O16 1.872717 1_555
Ga3 O17 1.872717 1_555
Ga4 O23 1.872585 1_554
Ga4 O22 1.872591 1_555
Ga4 O45 1.873900 1_554
Ga4 O44 1.873903 1_555
Ga5 O21 1.872585 1_545
Ga5 O20 1.872596 1_545
Ga5 O46 1.873898 1_545
Ga5 O47 1.873900 1_555
Ga6 O3 1.871737 1_555
Ga6 O2 1.871737 1_545
Ga6 O28 1.872717 1_645
Ga6 O29 1.872717 1_545
Ga7 O1 1.871737 1_555
Ga7 O0 1.871737 1_555
Ga7 O31 1.872717 1_555
Ga7 O30 1.872717 1_555
Ga8 O6 1.873899 1_555
Ga8 O7 1.873899 1_554
Ga8 O24 1.873973 1_555
Ga8 O25 1.873973 1_555
Ga9 O5 1.873897 1_556
Ga9 O4 1.873905 1_555
Ga9 O27 1.873973 1_555
Ga9 O26 1.873973 1_545
Ga10 O32 1.872585 1_655
Ga10 O33 1.872596 1_655
Ga10 O11 1.873898 1_655
Ga10 O10 1.873900 1_555
Ga11 O34 1.872585 1_555
Ga11 O35 1.872591 1_554
Ga11 O8 1.873900 1_555
Ga11 O9 1.873903 1_554
Ga12 O0 2.022594 1_555
Ga12 O22 2.023175 1_555
Ga12 O12 2.024411 1_555
Ga12 O5 2.024651 1_555
Ga12 O10 2.025150 1_555
Ga12 O17 2.025188 1_555
Ga13 O1 2.022594 1_565
Ga13 O20 2.023179 1_555
Ga13 O13 2.024411 1_555
Ga13 O6 2.024658 1_555
Ga13 O8 2.025150 1_455
Ga13 O18 2.025188 1_555
Ga14 O2 2.022594 1_555
Ga14 O21 2.023184 1_555
Ga14 O14 2.024411 1_555
Ga14 O4 2.024649 1_565
Ga14 O9 2.025148 1_555
Ga14 O16 2.025188 1_555
Ga15 O3 2.022594 1_455
Ga15 O23 2.023184 1_555
Ga15 O15 2.024411 1_555
Ga15 O7 2.024658 1_555
Ga15 O11 2.025143 1_555
Ga15 O19 2.025188 1_555
Ga16 O36 2.022594 1_565
Ga16 O34 2.023184 1_555
Ga16 O24 2.024411 1_555
Ga16 O41 2.024658 1_555
Ga16 O46 2.025143 1_555
Ga16 O29 2.025188 1_555
Ga17 O37 2.022594 1_555
Ga17 O32 2.023184 1_555
Ga17 O25 2.024411 1_555
Ga17 O42 2.024649 1_455
Ga17 O44 2.025148 1_555
Ga17 O30 2.025188 1_555
Ga18 O38 2.022594 1_455
Ga18 O33 2.023179 1_555
Ga18 O26 2.024411 1_555
Ga18 O40 2.024658 1_555
Ga18 O45 2.025150 1_565
Ga18 O28 2.025188 1_555
Ga19 O39 2.022594 1_555
Ga19 O35 2.023175 1_555
Ga19 O27 2.024411 1_555
Ga19 O43 2.024651 1_555
Ga19 O47 2.025150 1_555
Ga19 O31 2.025188 1_555
O0 Tb0 2.371432 1_545
O1 Tb0 2.371432 1_545
O2 Tb1 2.371432 1_565
O3 Tb1 2.371432 1_555
O4 Tb2 2.371138 1_556
O4 Tb1 2.473511 1_555
O5 Tb2 2.371148 1_555
O5 Tb0 2.473513 1_545
O6 Tb3 2.371142 1_554
O6 Tb0 2.473507 1_555
O7 Tb3 2.371142 1_555
O7 Tb1 2.473507 1_455
O8 Tb3 2.468588 1_654
O9 Tb2 2.468582 1_566
O10 Tb2 2.468588 1_555
O11 Tb3 2.468594 1_555
O36 Tb2 2.371432 1_555
O37 Tb2 2.371432 1_455
O38 Tb3 2.371432 1_655
O39 Tb3 2.371432 1_655
O40 Tb0 2.371142 1_556
O40 Tb3 2.473507 1_555
O41 Tb0 2.371142 1_555
O41 Tb2 2.473507 1_565
O42 Tb1 2.371138 1_554
O42 Tb2 2.473511 1_555
O43 Tb1 2.371148 1_555
O43 Tb3 2.473513 1_655
O44 Tb1 2.468582 1_454
O45 Tb0 2.468588 1_546
O46 Tb0 2.468594 1_555
O47 Tb1 2.468588 1_555
