# generated using pymatgen
data_Ba(B2Pt3)2
_symmetry_space_group_name_H-M   'P 1'
_cell_length_a   6.23869486
_cell_length_b   6.23869486
_cell_length_c   5.25030974
_cell_angle_alpha   90.00000000
_cell_angle_beta   90.00000000
_cell_angle_gamma   120.00000383
_symmetry_Int_Tables_number   1
_chemical_formula_structural   Ba(B2Pt3)2
_chemical_formula_sum   'Ba1 B4 Pt6'
_cell_volume   176.97137659
_cell_formula_units_Z   1
loop_
 _symmetry_equiv_pos_site_id
 _symmetry_equiv_pos_as_xyz
  1  'x, y, z'
loop_
 _atom_site_type_symbol
 _atom_site_label
 _atom_site_symmetry_multiplicity
 _atom_site_fract_x
 _atom_site_fract_y
 _atom_site_fract_z
 _atom_site_occupancy
  Ba  Ba0  1  -0.00000000  0.00000000  0.50000000  1
  B  B0  1  0.66666700  0.33333300  0.42185812  1
  B  B1  1  0.33333300  0.66666700  0.57814188  1
  B  B2  1  0.33333300  0.66666700  0.92374772  1
  B  B3  1  0.66666700  0.33333300  0.07625228  1
  Pt  Pt0  1  0.03790660  0.51895280  0.24846178  1
  Pt  Pt1  1  0.48104720  0.51895280  0.24846178  1
  Pt  Pt2  1  0.48104720  0.96209340  0.24846178  1
  Pt  Pt3  1  0.96209340  0.48104720  0.75153822  1
  Pt  Pt4  1  0.51895280  0.48104720  0.75153822  1
  Pt  Pt5  1  0.51895280  0.03790660  0.75153822  1
loop_
_geom_bond_atom_site_label_1
_geom_bond_atom_site_label_2
_geom_bond_distance
_geom_bond_site_symmetry_2
Ba0 Pt2 3.393579 1_445
Ba0 Pt5 3.393579 1_555
Ba0 Pt0 3.393579 1_555
Ba0 Pt3 3.393579 1_445
Ba0 Pt4 3.393582 1_555
Ba0 Pt1 3.393582 1_555
Ba0 Pt4 3.393582 1_445
Ba0 Pt1 3.393582 1_445
Ba0 Pt0 3.393585 1_545
Ba0 Pt5 3.393585 1_455
Ba0 Pt3 3.393585 1_455
Ba0 Pt2 3.393585 1_545
B0 B3 1.814538 1_555
B0 Pt0 2.202695 1_655
B0 Pt2 2.202695 1_545
B0 Pt1 2.202696 1_555
B0 Pt3 2.354525 1_555
B0 Pt5 2.354525 1_555
B0 Pt4 2.354532 1_555
B1 B2 1.814538 1_555
B1 Pt5 2.202695 1_565
B1 Pt3 2.202695 1_455
B1 Pt4 2.202696 1_555
B1 Pt0 2.354525 1_555
B1 Pt2 2.354525 1_555
B1 Pt1 2.354532 1_555
B2 Pt5 2.200127 1_565
B2 Pt3 2.200127 1_455
B2 Pt4 2.200127 1_555
B2 Pt0 2.335424 1_556
B2 Pt2 2.335424 1_556
B2 Pt1 2.335432 1_556
B3 Pt0 2.200127 1_655
B3 Pt2 2.200127 1_545
B3 Pt1 2.200127 1_555
B3 Pt3 2.335424 1_554
B3 Pt5 2.335424 1_554
B3 Pt4 2.335432 1_554
