# generated using pymatgen
data_UBi4(AsO8)2
_symmetry_space_group_name_H-M   'P 1'
_cell_length_a   5.69453000
_cell_length_b   12.65447000
_cell_length_c   21.69085800
_cell_angle_alpha   90.00000000
_cell_angle_beta   90.00000000
_cell_angle_gamma   90.00000000
_symmetry_Int_Tables_number   1
_chemical_formula_structural   UBi4(AsO8)2
_chemical_formula_sum   'U4 Bi16 As8 O64'
_cell_volume   1563.07053734
_cell_formula_units_Z   4
loop_
 _symmetry_equiv_pos_site_id
 _symmetry_equiv_pos_as_xyz
  1  'x, y, z'
loop_
 _atom_site_type_symbol
 _atom_site_label
 _atom_site_symmetry_multiplicity
 _atom_site_fract_x
 _atom_site_fract_y
 _atom_site_fract_z
 _atom_site_occupancy
  U  U0  1  0.74942400  0.52800200  0.75000000  1
  U  U1  1  0.25057600  0.47199800  0.25000000  1
  U  U2  1  0.74942400  0.97199800  0.25000000  1
  U  U3  1  0.25057600  0.02800200  0.75000000  1
  Bi  Bi0  1  0.64343800  0.39138800  0.52298500  1
  Bi  Bi1  1  0.35656200  0.60861200  0.02298500  1
  Bi  Bi2  1  0.64343800  0.10861200  0.47701500  1
  Bi  Bi3  1  0.35656200  0.89138800  0.97701500  1
  Bi  Bi4  1  0.35656200  0.60861200  0.47701500  1
  Bi  Bi5  1  0.64343800  0.39138800  0.97701500  1
  Bi  Bi6  1  0.35656200  0.89138800  0.52298500  1
  Bi  Bi7  1  0.64343800  0.10861200  0.02298500  1
  Bi  Bi8  1  0.11668500  0.23239500  0.58894400  1
  Bi  Bi9  1  0.88331500  0.76760500  0.08894400  1
  Bi  Bi10  1  0.11668500  0.26760500  0.41105600  1
  Bi  Bi11  1  0.88331500  0.73239500  0.91105600  1
  Bi  Bi12  1  0.88331500  0.76760500  0.41105600  1
  Bi  Bi13  1  0.11668500  0.23239500  0.91105600  1
  Bi  Bi14  1  0.88331500  0.73239500  0.58894400  1
  Bi  Bi15  1  0.11668500  0.26760500  0.08894400  1
  As  As0  1  0.27180300  0.51174200  0.63316800  1
  As  As1  1  0.72819700  0.48825800  0.13316800  1
  As  As2  1  0.27180300  0.98825800  0.36683200  1
  As  As3  1  0.72819700  0.01174200  0.86683200  1
  As  As4  1  0.72819700  0.48825800  0.36683200  1
  As  As5  1  0.27180300  0.51174200  0.86683200  1
  As  As6  1  0.72819700  0.01174200  0.63316800  1
  As  As7  1  0.27180300  0.98825800  0.13316800  1
  O  O0  1  0.84040500  0.66607400  0.75000000  1
  O  O1  1  0.15959500  0.33392600  0.25000000  1
  O  O2  1  0.84040500  0.83392600  0.25000000  1
  O  O3  1  0.15959500  0.16607400  0.75000000  1
  O  O4  1  0.63314700  0.39520900  0.75000000  1
  O  O5  1  0.36685300  0.60479100  0.25000000  1
  O  O6  1  0.63314700  0.10479100  0.25000000  1
  O  O7  1  0.36685300  0.89520900  0.75000000  1
  O  O8  1  0.33865200  0.05766000  0.53376800  1
  O  O9  1  0.66134800  0.94234000  0.03376800  1
  O  O10  1  0.33865200  0.44234000  0.46623200  1
  O  O11  1  0.66134800  0.55766000  0.96623200  1
  O  O12  1  0.66134800  0.94234000  0.46623200  1
  O  O13  1  0.33865200  0.05766000  0.96623200  1
  O  O14  1  0.66134800  0.55766000  0.53376800  1
  O  O15  1  0.33865200  0.44234000  0.03376800  1
  O  O16  1  0.44828600  0.25000000  0.50000000  1
  O  O17  1  0.55171400  0.75000000  0.00000000  1
  O  O18  1  0.55171400  0.75000000  0.50000000  1
  O  O19  1  0.44828600  0.25000000  0.00000000  1
  O  O20  1  0.95928900  0.25000000  0.50000000  1
  O  O21  1  0.04071100  0.75000000  0.00000000  1
  O  O22  1  0.04071100  0.75000000  0.50000000  1
  O  O23  1  0.95928900  0.25000000  0.00000000  1
  O  O24  1  0.35107300  0.39271200  0.59793900  1
  O  O25  1  0.64892700  0.60728800  0.09793900  1
  O  O26  1  0.35107300  0.10728800  0.40206100  1
  O  O27  1  0.64892700  0.89271200  0.90206100  1
  O  O28  1  0.64892700  0.60728800  0.40206100  1
  O  O29  1  0.35107300  0.39271200  0.90206100  1
  O  O30  1  0.64892700  0.89271200  0.59793900  1
  O  O31  1  0.35107300  0.10728800  0.09793900  1
  O  O32  1  0.49951700  0.57228700  0.83030900  1
  O  O33  1  0.50048300  0.42771300  0.33030900  1
  O  O34  1  0.49951700  0.92771300  0.16969100  1
  O  O35  1  0.50048300  0.07228700  0.66969100  1
  O  O36  1  0.50048300  0.42771300  0.16969100  1
  O  O37  1  0.49951700  0.57228700  0.66969100  1
  O  O38  1  0.50048300  0.07228700  0.83030900  1
  O  O39  1  0.49951700  0.92771300  0.33030900  1
  O  O40  1  0.17368400  0.59532300  0.57293800  1
  O  O41  1  0.82631600  0.40467700  0.07293800  1
  O  O42  1  0.17368400  0.90467700  0.42706200  1
  O  O43  1  0.82631600  0.09532300  0.92706200  1
  O  O44  1  0.82631600  0.40467700  0.42706200  1
  O  O45  1  0.17368400  0.59532300  0.92706200  1
  O  O46  1  0.82631600  0.09532300  0.57293800  1
  O  O47  1  0.17368400  0.90467700  0.07293800  1
  O  O48  1  0.03786600  0.49230600  0.67971200  1
  O  O49  1  0.96213400  0.50769400  0.17971200  1
  O  O50  1  0.03786600  0.00769400  0.32028800  1
  O  O51  1  0.96213400  0.99230600  0.82028800  1
  O  O52  1  0.96213400  0.50769400  0.32028800  1
  O  O53  1  0.03786600  0.49230600  0.82028800  1
  O  O54  1  0.96213400  0.99230600  0.67971200  1
  O  O55  1  0.03786600  0.00769400  0.17971200  1
  O  O56  1  0.83137400  0.34586300  0.60086900  1
  O  O57  1  0.16862600  0.65413700  0.10086900  1
  O  O58  1  0.83137400  0.15413700  0.39913100  1
  O  O59  1  0.16862600  0.84586300  0.89913100  1
  O  O60  1  0.16862600  0.65413700  0.39913100  1
  O  O61  1  0.83137400  0.34586300  0.89913100  1
  O  O62  1  0.16862600  0.84586300  0.60086900  1
  O  O63  1  0.83137400  0.15413700  0.10086900  1
loop_
_geom_bond_atom_site_label_1
_geom_bond_atom_site_label_2
_geom_bond_distance
_geom_bond_site_symmetry_2
Bi0 O56 2.081154 1_555
Bi0 O14 2.119499 1_555
Bi0 O16 2.164429 1_555
Bi0 O10 2.223397 1_555
Bi0 O24 2.327099 1_555
Bi0 O44 2.332791 1_555
Bi0 O20 2.585500 1_555
Bi1 O57 2.081154 1_555
Bi1 O15 2.119499 1_555
Bi1 O17 2.164429 1_555
Bi1 O11 2.223397 1_554
Bi1 O25 2.327099 1_555
Bi1 O45 2.332791 1_554
Bi1 O21 2.585500 1_555
Bi2 O58 2.081154 1_555
Bi2 O12 2.119499 1_545
Bi2 O16 2.164429 1_555
Bi2 O8 2.223397 1_555
Bi2 O26 2.327099 1_555
Bi2 O46 2.332791 1_555
Bi2 O20 2.585500 1_555
Bi3 O59 2.081154 1_555
Bi3 O13 2.119499 1_565
Bi3 O17 2.164429 1_556
Bi3 O9 2.223397 1_556
Bi3 O27 2.327099 1_555
Bi3 O47 2.332791 1_556
Bi3 O21 2.585500 1_556
Bi4 O60 2.081154 1_555
Bi4 O10 2.119499 1_555
Bi4 O18 2.164429 1_555
Bi4 O14 2.223397 1_555
Bi4 O28 2.327099 1_555
Bi4 O40 2.332791 1_555
Bi4 O22 2.585500 1_555
Bi5 O61 2.081154 1_555
Bi5 O11 2.119499 1_555
Bi5 O19 2.164429 1_556
Bi5 O15 2.223397 1_556
Bi5 O29 2.327099 1_555
Bi5 O41 2.332791 1_556
Bi5 O23 2.585500 1_556
Bi6 O62 2.081154 1_555
Bi6 O8 2.119499 1_565
Bi6 O18 2.164429 1_555
Bi6 O12 2.223397 1_555
Bi6 O30 2.327099 1_555
Bi6 O42 2.332791 1_555
Bi6 O22 2.585500 1_555
Bi7 O63 2.081154 1_555
Bi7 O9 2.119499 1_545
Bi7 O19 2.164429 1_555
Bi7 O13 2.223397 1_554
Bi7 O31 2.327099 1_555
Bi7 O43 2.332791 1_554
Bi7 O23 2.585500 1_555
Bi8 O20 2.138941 1_455
Bi8 O56 2.183653 1_455
Bi8 O46 2.421445 1_455
Bi8 O24 2.436248 1_555
Bi8 O16 2.708771 1_555
Bi8 O8 2.814137 1_555
Bi9 O21 2.138941 1_655
Bi9 O57 2.183653 1_655
Bi9 O47 2.421445 1_655
Bi9 O25 2.436248 1_555
Bi9 O17 2.708771 1_555
Bi9 O9 2.814137 1_555
Bi10 O20 2.138941 1_455
Bi10 O58 2.183653 1_455
Bi10 O44 2.421445 1_455
Bi10 O26 2.436248 1_555
Bi10 O16 2.708771 1_555
Bi10 O10 2.814137 1_555
Bi11 O21 2.138941 1_656
Bi11 O59 2.183653 1_655
Bi11 O45 2.421445 1_655
Bi11 O27 2.436248 1_555
Bi11 O17 2.708771 1_556
Bi11 O11 2.814137 1_555
Bi12 O22 2.138941 1_655
Bi12 O60 2.183653 1_655
Bi12 O42 2.421445 1_655
Bi12 O28 2.436248 1_555
Bi12 O18 2.708771 1_555
Bi12 O12 2.814137 1_555
Bi13 O23 2.138941 1_456
Bi13 O61 2.183653 1_455
Bi13 O43 2.421445 1_455
Bi13 O29 2.436248 1_555
Bi13 O19 2.708771 1_556
Bi13 O13 2.814137 1_555
Bi14 O22 2.138941 1_655
Bi14 O62 2.183653 1_655
Bi14 O40 2.421445 1_655
Bi14 O30 2.436248 1_555
Bi14 O18 2.708771 1_555
Bi14 O14 2.814137 1_555
Bi15 O23 2.138941 1_455
Bi15 O63 2.183653 1_455
Bi15 O41 2.421445 1_455
Bi15 O31 2.436248 1_555
Bi15 O19 2.708771 1_555
Bi15 O15 2.814137 1_555
As0 O48 1.689496 1_555
As0 O37 1.701795 1_555
As0 O24 1.748288 1_555
As0 O40 1.771342 1_555
As1 O49 1.689496 1_555
As1 O36 1.701795 1_555
As1 O25 1.748288 1_555
As1 O41 1.771342 1_555
As2 O50 1.689496 1_565
As2 O39 1.701795 1_555
As2 O26 1.748288 1_565
As2 O42 1.771342 1_555
As3 O51 1.689496 1_545
As3 O38 1.701795 1_555
As3 O27 1.748288 1_545
As3 O43 1.771342 1_555
As4 O52 1.689496 1_555
As4 O33 1.701795 1_555
As4 O28 1.748288 1_555
As4 O44 1.771342 1_555
As5 O53 1.689496 1_555
As5 O32 1.701795 1_555
As5 O29 1.748288 1_555
As5 O45 1.771342 1_555
As6 O54 1.689496 1_545
As6 O35 1.701795 1_555
As6 O30 1.748288 1_545
As6 O46 1.771342 1_555
As7 O55 1.689496 1_565
As7 O34 1.701795 1_555
As7 O31 1.748288 1_565
As7 O47 1.771342 1_555
O0 U0 1.822423 1_555
O1 U1 1.822423 1_555
O2 U2 1.822423 1_555
O3 U3 1.822423 1_555
O4 U0 1.806173 1_555
O5 U1 1.806173 1_555
O6 U2 1.806173 1_545
O7 U3 1.806173 1_565
O32 U0 2.318132 1_555
O33 U1 2.318132 1_555
O34 U2 2.318132 1_555
O35 U3 2.318132 1_555
O36 U1 2.318132 1_555
O37 U0 2.318132 1_555
O38 U3 2.318132 1_555
O39 U2 2.318132 1_555
O48 U0 2.286135 1_455
O49 U1 2.286135 1_655
O50 U2 2.286135 1_445
O51 U3 2.286135 1_665
O52 U1 2.286135 1_655
O53 U0 2.286135 1_455
O54 U3 2.286135 1_665
O55 U2 2.286135 1_445
