# generated using pymatgen
data_Li3Mn4O8
_symmetry_space_group_name_H-M   'P 1'
_cell_length_a   5.90594119
_cell_length_b   5.90594119
_cell_length_c   10.01516311
_cell_angle_alpha   85.71664735
_cell_angle_beta   85.71664735
_cell_angle_gamma   57.90017051
_symmetry_Int_Tables_number   1
_chemical_formula_structural   Li3Mn4O8
_chemical_formula_sum   'Li6 Mn8 O16'
_cell_volume   294.84596654
_cell_formula_units_Z   2
loop_
 _symmetry_equiv_pos_site_id
 _symmetry_equiv_pos_as_xyz
  1  'x, y, z'
loop_
 _atom_site_type_symbol
 _atom_site_label
 _atom_site_symmetry_multiplicity
 _atom_site_fract_x
 _atom_site_fract_y
 _atom_site_fract_z
 _atom_site_occupancy
  Li  Li0  1  0.02887300  0.49692500  0.74983600  1
  Li  Li1  1  0.97112700  0.50307500  0.25016400  1
  Li  Li2  1  0.49692500  0.02887300  0.74983600  1
  Li  Li3  1  0.50307500  0.97112700  0.25016400  1
  Li  Li4  1  0.50000000  0.50000000  0.50000000  1
  Li  Li5  1  0.00000000  0.00000000  0.00000000  1
  Mn  Mn0  1  0.00000000  0.50000000  0.00000000  1
  Mn  Mn1  1  0.00000000  0.50000000  0.50000000  1
  Mn  Mn2  1  0.50000000  0.00000000  0.00000000  1
  Mn  Mn3  1  0.50000000  0.00000000  0.50000000  1
  Mn  Mn4  1  0.52827700  0.52827700  0.76913600  1
  Mn  Mn5  1  0.47172300  0.47172300  0.23086400  1
  Mn  Mn6  1  0.99937900  0.99937900  0.72235600  1
  Mn  Mn7  1  0.00062100  0.00062100  0.27764400  1
  O  O0  1  0.31403600  0.31403600  0.11166700  1
  O  O1  1  0.32495700  0.32495700  0.59887300  1
  O  O2  1  0.81932400  0.81932400  0.10493400  1
  O  O3  1  0.82857600  0.82857600  0.60004000  1
  O  O4  1  0.83220600  0.31669400  0.15553300  1
  O  O5  1  0.83878000  0.35780100  0.63890400  1
  O  O6  1  0.31669400  0.83220600  0.15553300  1
  O  O7  1  0.35780100  0.83878000  0.63890400  1
  O  O8  1  0.68596400  0.68596400  0.88833300  1
  O  O9  1  0.67504300  0.67504300  0.40112700  1
  O  O10  1  0.18067600  0.18067600  0.89506600  1
  O  O11  1  0.17142400  0.17142400  0.39996000  1
  O  O12  1  0.16779400  0.68330600  0.84446700  1
  O  O13  1  0.16122000  0.64219900  0.36109600  1
  O  O14  1  0.68330600  0.16779400  0.84446700  1
  O  O15  1  0.64219900  0.16122000  0.36109600  1
loop_
_geom_bond_atom_site_label_1
_geom_bond_atom_site_label_2
_geom_bond_distance
_geom_bond_site_symmetry_2
Li0 O12 2.003712 1_555
Li0 O1 2.078976 1_555
Li0 O10 2.101707 1_555
Li0 O5 2.114927 1_455
Li0 O8 2.163460 1_455
Li0 O3 2.202319 1_455
Li1 O4 2.003712 1_555
Li1 O9 2.078976 1_555
Li1 O2 2.101707 1_555
Li1 O13 2.114927 1_655
Li1 O0 2.163460 1_655
Li1 O11 2.202319 1_655
Li2 O14 2.003712 1_555
Li2 O1 2.078976 1_555
Li2 O10 2.101707 1_555
Li2 O7 2.114927 1_545
Li2 O8 2.163460 1_545
Li2 O3 2.202319 1_545
Li3 O6 2.003712 1_555
Li3 O9 2.078976 1_555
Li3 O2 2.101707 1_555
Li3 O15 2.114927 1_565
Li3 O0 2.163460 1_565
Li3 O11 2.202319 1_565
Li4 O9 1.986961 1_555
Li4 O1 1.986961 1_555
Li4 O13 2.258157 1_555
Li4 O7 2.258157 1_555
Li4 O15 2.258157 1_555
Li4 O5 2.258157 1_555
Li5 O2 2.063198 1_445
Li5 O10 2.063198 1_554
Li5 O6 2.267481 1_545
Li5 O4 2.267481 1_455
Li5 O14 2.267481 1_454
Li5 O12 2.267481 1_544
Mn0 O10 1.946672 1_554
Mn0 O2 1.946672 1_455
Mn0 O8 1.964253 1_454
Mn0 O0 1.964253 1_555
Mn0 O12 2.288702 1_554
Mn0 O4 2.288702 1_455
Mn1 O1 1.937750 1_555
Mn1 O9 1.937750 1_455
Mn1 O11 1.960984 1_555
Mn1 O3 1.960984 1_455
Mn1 O13 2.006153 1_555
Mn1 O5 2.006153 1_455
Mn2 O10 1.946672 1_554
Mn2 O2 1.946672 1_545
Mn2 O8 1.964253 1_544
Mn2 O0 1.964253 1_555
Mn2 O14 2.288702 1_554
Mn2 O6 2.288702 1_545
Mn3 O1 1.937750 1_555
Mn3 O9 1.937750 1_545
Mn3 O3 1.960984 1_545
Mn3 O11 1.960984 1_555
Mn3 O15 2.006153 1_555
Mn3 O7 2.006153 1_545
Mn4 O12 1.931755 1_555
Mn4 O14 1.931755 1_555
Mn4 O7 1.988558 1_555
Mn4 O5 1.988558 1_555
Mn4 O8 2.100860 1_555
Mn5 O6 1.931755 1_555
Mn5 O4 1.931755 1_555
Mn5 O13 1.988558 1_555
Mn5 O15 1.988558 1_555
Mn5 O0 2.100860 1_555
Mn6 O7 1.949199 1_655
Mn6 O5 1.949199 1_565
Mn6 O14 1.958812 1_565
Mn6 O12 1.958812 1_655
Mn6 O3 2.233044 1_555
Mn6 O10 2.656429 1_665
Mn7 O15 1.949199 1_455
Mn7 O13 1.949199 1_545
Mn7 O6 1.958812 1_545
Mn7 O4 1.958812 1_455
Mn7 O11 2.233044 1_555
Mn7 O2 2.656429 1_445
