# generated using pymatgen
data_Zr2Te4Cl2O11
_symmetry_space_group_name_H-M   'P 1'
_cell_length_a   7.83160959
_cell_length_b   9.52398646
_cell_length_c   10.38555492
_cell_angle_alpha   111.19062987
_cell_angle_beta   108.05681127
_cell_angle_gamma   98.31428086
_symmetry_Int_Tables_number   1
_chemical_formula_structural   Zr2Te4Cl2O11
_chemical_formula_sum   'Zr4 Te8 Cl4 O22'
_cell_volume   657.28024973
_cell_formula_units_Z   2
loop_
 _symmetry_equiv_pos_site_id
 _symmetry_equiv_pos_as_xyz
  1  'x, y, z'
loop_
 _atom_site_type_symbol
 _atom_site_label
 _atom_site_symmetry_multiplicity
 _atom_site_fract_x
 _atom_site_fract_y
 _atom_site_fract_z
 _atom_site_occupancy
  Zr  Zr0  1  0.62433366  0.89072261  0.89075747  1
  Zr  Zr1  1  0.37566634  0.10927739  0.10924253  1
  Zr  Zr2  1  0.88672258  0.61165519  0.61815310  1
  Zr  Zr3  1  0.11327742  0.38834481  0.38184690  1
  Te  Te0  1  0.25932664  0.50937948  0.79445517  1
  Te  Te1  1  0.74067336  0.49062052  0.20554483  1
  Te  Te2  1  0.98849208  0.73580885  -0.00206565  1
  Te  Te3  1  0.01150792  0.26419115  0.00206565  1
  Te  Te4  1  0.78698548  0.97697950  0.26313542  1
  Te  Te5  1  0.21301452  0.02302050  0.73686458  1
  Te  Te6  1  0.47721466  0.76234117  0.46862423  1
  Te  Te7  1  0.52278534  0.23765883  0.53137577  1
  Cl  Cl0  1  0.10297312  0.88341123  0.37107282  1
  Cl  Cl1  1  0.89702688  0.11658877  0.62892718  1
  Cl  Cl2  1  0.63423678  0.39314677  0.89476000  1
  Cl  Cl3  1  0.36576322  0.60685323  0.10524000  1
  O  O0  1  0.50603087  0.85645721  0.66857298  1
  O  O1  1  0.49396913  0.14354279  0.33142702  1
  O  O2  1  0.66812776  0.66564392  0.48794476  1
  O  O3  1  0.33187224  0.33435608  0.51205524  1
  O  O4  1  0.59091819  0.99487702  0.10928402  1
  O  O5  1  0.40908181  0.00512298  0.89071598  1
  O  O6  1  0.83015922  0.87073752  0.08313413  1
  O  O7  1  0.16984078  0.12926248  0.91686587  1
  O  O8  1  0.07521161  0.61572604  0.83214969  1
  O  O9  1  0.92478839  0.38427396  0.16785031  1
  O  O10  1  0.81880655  0.74404277  0.82313200  1
  O  O11  1  0.18119345  0.25595723  0.17686800  1
  O  O12  1  0.11413427  0.49695092  0.60170190  1
  O  O13  1  0.88586573  0.50304908  0.39829810  1
  O  O14  1  0.28344500  0.58652328  0.40883680  1
  O  O15  1  0.71655500  0.41347672  0.59116320  1
  O  O16  1  0.44836622  0.68035911  0.84361485  1
  O  O17  1  0.55163378  0.31964089  0.15638515  1
  O  O18  1  0.17769983  0.91385119  0.05867595  1
  O  O19  1  0.82230017  0.08614881  0.94132405  1
  O  O20  1  0.93767996  0.17470627  0.32797361  1
  O  O21  1  0.06232004  0.82529373  0.67202639  1
loop_
_geom_bond_atom_site_label_1
_geom_bond_atom_site_label_2
_geom_bond_distance
_geom_bond_site_symmetry_2
Cl0 Te4 2.795552 1_455
Cl1 Te5 2.795552 1_655
Cl2 Te1 2.813650 1_556
Cl3 Te0 2.813650 1_554
O0 Te6 1.863301 1_555
O0 Zr0 2.081423 1_555
O1 Te7 1.863301 1_555
O1 Zr1 2.081423 1_555
O2 Te6 1.862721 1_555
O2 Zr2 2.084696 1_555
O3 Te7 1.862721 1_555
O3 Zr3 2.084696 1_555
O4 Te4 1.921346 1_555
O4 Zr1 2.135418 1_565
O4 Zr0 2.240292 1_554
O5 Te5 1.921346 1_555
O5 Zr0 2.135418 1_545
O5 Zr1 2.240292 1_556
O6 Te4 1.938082 1_555
O6 Te2 2.071452 1_555
O6 Zr0 2.234618 1_554
O7 Te5 1.938082 1_555
O7 Te3 2.071452 1_556
O7 Zr1 2.234618 1_556
O8 Te0 1.934910 1_555
O8 Te2 2.063895 1_456
O8 Zr2 2.237706 1_455
O9 Te1 1.934910 1_555
O9 Te3 2.063895 1_655
O9 Zr3 2.237706 1_655
O10 Te2 1.924938 1_556
O10 Zr0 2.309454 1_555
O10 Zr2 2.315157 1_555
O11 Te3 1.924938 1_555
O11 Zr1 2.309454 1_555
O11 Zr3 2.315157 1_555
O12 Te0 1.921729 1_555
O12 Zr3 2.136480 1_555
O12 Zr2 2.238520 1_455
O13 Te1 1.921729 1_555
O13 Zr2 2.136480 1_555
O13 Zr3 2.238520 1_655
O14 Te6 1.849771 1_555
O14 Zr3 2.018803 1_555
O15 Te7 1.849771 1_555
O15 Zr2 2.018803 1_555
O16 Te0 1.826845 1_555
O16 Zr0 2.055960 1_555
O17 Te1 1.826845 1_555
O17 Zr1 2.055960 1_555
O18 Te2 1.841063 1_455
O18 Zr1 2.024300 1_565
O19 Te3 1.841063 1_656
O19 Zr0 2.024300 1_545
O20 Te4 1.827665 1_545
O20 Zr3 2.057907 1_655
O21 Te5 1.827665 1_565
O21 Zr2 2.057907 1_455
