# generated using pymatgen
data_NdFeGe2O7
_symmetry_space_group_name_H-M   'P 1'
_cell_length_a   6.68978600
_cell_length_b   7.37833900
_cell_length_c   13.12440952
_cell_angle_alpha   62.20807005
_cell_angle_beta   90.00000000
_cell_angle_gamma   90.00000000
_symmetry_Int_Tables_number   1
_chemical_formula_structural   NdFeGe2O7
_chemical_formula_sum   'Nd4 Fe4 Ge8 O28'
_cell_volume   573.08685103
_cell_formula_units_Z   4
loop_
 _symmetry_equiv_pos_site_id
 _symmetry_equiv_pos_as_xyz
  1  'x, y, z'
loop_
 _atom_site_type_symbol
 _atom_site_label
 _atom_site_symmetry_multiplicity
 _atom_site_fract_x
 _atom_site_fract_y
 _atom_site_fract_z
 _atom_site_occupancy
  Nd  Nd0  1  0.35393900  0.74096200  0.52524700  1
  Nd  Nd1  1  0.64606100  0.25903800  0.47475300  1
  Nd  Nd2  1  0.85393900  0.25903800  0.97475300  1
  Nd  Nd3  1  0.14606100  0.74096200  0.02524700  1
  Fe  Fe0  1  0.39970300  0.71273300  0.26932900  1
  Fe  Fe1  1  0.60029700  0.28726700  0.73067100  1
  Fe  Fe2  1  0.89970300  0.28726700  0.23067100  1
  Fe  Fe3  1  0.10029700  0.71273300  0.76932900  1
  Ge  Ge0  1  0.65773500  0.71664700  0.04092100  1
  Ge  Ge1  1  0.34226500  0.28335300  0.95907900  1
  Ge  Ge2  1  0.15773500  0.28335300  0.45907900  1
  Ge  Ge3  1  0.84226500  0.71664700  0.54092100  1
  Ge  Ge4  1  0.91107600  0.79746600  0.27968600  1
  Ge  Ge5  1  0.08892400  0.20253400  0.72031400  1
  Ge  Ge6  1  0.41107600  0.20253400  0.22031400  1
  Ge  Ge7  1  0.58892400  0.79746600  0.77968600  1
  O  O0  1  0.37488400  0.93492500  0.30674000  1
  O  O1  1  0.62511600  0.06507500  0.69326000  1
  O  O2  1  0.87488400  0.06507500  0.19326000  1
  O  O3  1  0.12511600  0.93492500  0.80674000  1
  O  O4  1  0.82501400  0.90970100  0.01951900  1
  O  O5  1  0.17498600  0.09029900  0.98048100  1
  O  O6  1  0.32501400  0.09029900  0.48048100  1
  O  O7  1  0.67498600  0.90970100  0.51951900  1
  O  O8  1  0.60962700  0.27974200  0.27960100  1
  O  O9  1  0.39037300  0.72025800  0.72039900  1
  O  O10  1  0.10962700  0.72025800  0.22039900  1
  O  O11  1  0.89037300  0.27974200  0.77960100  1
  O  O12  1  0.99865400  0.75541200  0.42092700  1
  O  O13  1  0.00134600  0.24458800  0.57907300  1
  O  O14  1  0.49865400  0.24458800  0.07907300  1
  O  O15  1  0.50134600  0.75541200  0.92092700  1
  O  O16  1  0.45147800  0.70517000  0.12676500  1
  O  O17  1  0.54852200  0.29483000  0.87323500  1
  O  O18  1  0.95147800  0.29483000  0.37323500  1
  O  O19  1  0.04852200  0.70517000  0.62676500  1
  O  O20  1  0.83749700  0.51430100  0.07575600  1
  O  O21  1  0.16250300  0.48569900  0.92424400  1
  O  O22  1  0.33749700  0.48569900  0.42424400  1
  O  O23  1  0.66250300  0.51430100  0.57575600  1
  O  O24  1  0.68856000  0.65229600  0.31512800  1
  O  O25  1  0.31144000  0.34770400  0.68487200  1
  O  O26  1  0.18856000  0.34770400  0.18487200  1
  O  O27  1  0.81144000  0.65229600  0.81512800  1
loop_
_geom_bond_atom_site_label_1
_geom_bond_atom_site_label_2
_geom_bond_distance
_geom_bond_site_symmetry_2
Nd0 O6 2.369407 1_565
Nd0 O19 2.385661 1_555
Nd0 O7 2.466009 1_555
Nd0 O9 2.505576 1_555
Nd0 O23 2.542344 1_555
Nd0 O0 2.542572 1_555
Nd0 O25 2.687081 1_555
Nd0 O12 2.720086 1_455
Nd0 O22 2.764921 1_555
Nd1 O7 2.369407 1_545
Nd1 O18 2.385661 1_555
Nd1 O6 2.466009 1_555
Nd1 O8 2.505576 1_555
Nd1 O22 2.542344 1_555
Nd1 O1 2.542572 1_555
Nd1 O24 2.687081 1_555
Nd1 O13 2.720086 1_655
Nd1 O23 2.764921 1_555
Nd2 O4 2.369407 1_546
Nd2 O17 2.385661 1_555
Nd2 O5 2.466009 1_655
Nd2 O11 2.505576 1_555
Nd2 O21 2.542344 1_655
Nd2 O2 2.542572 1_556
Nd2 O27 2.687081 1_555
Nd2 O14 2.720086 1_556
Nd2 O20 2.764921 1_556
Nd3 O5 2.369407 1_564
Nd3 O16 2.385661 1_555
Nd3 O4 2.466009 1_455
Nd3 O10 2.505576 1_555
Nd3 O20 2.542344 1_455
Nd3 O3 2.542572 1_554
Nd3 O26 2.687081 1_555
Nd3 O15 2.720086 1_554
Nd3 O21 2.764921 1_554
Fe0 O0 1.925340 1_555
Fe0 O16 1.929078 1_555
Fe0 O22 1.984189 1_555
Fe0 O24 2.011054 1_555
Fe0 O10 2.036651 1_555
Fe1 O1 1.925340 1_555
Fe1 O17 1.929078 1_555
Fe1 O23 1.984189 1_555
Fe1 O25 2.011054 1_555
Fe1 O11 2.036651 1_555
Fe2 O2 1.925340 1_555
Fe2 O18 1.929078 1_555
Fe2 O20 1.984189 1_555
Fe2 O26 2.011054 1_655
Fe2 O8 2.036651 1_555
Fe3 O3 1.925340 1_555
Fe3 O19 1.929078 1_555
Fe3 O21 1.984189 1_555
Fe3 O27 2.011054 1_455
Fe3 O9 2.036651 1_555
Ge0 O4 1.728310 1_555
Ge0 O16 1.758248 1_555
Ge0 O15 1.799019 1_554
Ge0 O20 1.802127 1_555
Ge1 O5 1.728310 1_555
Ge1 O17 1.758248 1_555
Ge1 O14 1.799019 1_556
Ge1 O21 1.802127 1_555
Ge2 O6 1.728310 1_555
Ge2 O18 1.758248 1_455
Ge2 O13 1.799019 1_555
Ge2 O22 1.802127 1_555
Ge3 O7 1.728310 1_555
Ge3 O19 1.758248 1_655
Ge3 O12 1.799019 1_555
Ge3 O23 1.802127 1_555
Ge4 O10 1.762841 1_655
Ge4 O24 1.764914 1_555
Ge4 O2 1.776339 1_565
Ge4 O12 1.827397 1_555
Ge5 O11 1.762841 1_455
Ge5 O25 1.764914 1_555
Ge5 O3 1.776339 1_545
Ge5 O13 1.827397 1_555
Ge6 O8 1.762841 1_555
Ge6 O26 1.764914 1_555
Ge6 O0 1.776339 1_545
Ge6 O14 1.827397 1_555
Ge7 O9 1.762841 1_555
Ge7 O27 1.764914 1_555
Ge7 O1 1.776339 1_565
Ge7 O15 1.827397 1_555
