# generated using pymatgen
data_LiCr2N3
_symmetry_space_group_name_H-M   'P 1'
_cell_length_a   5.56374425
_cell_length_b   5.58915098
_cell_length_c   5.03390600
_cell_angle_alpha   90.00000000
_cell_angle_beta   90.00000000
_cell_angle_gamma   120.15117155
_symmetry_Int_Tables_number   1
_chemical_formula_structural   LiCr2N3
_chemical_formula_sum   'Li2 Cr4 N6'
_cell_volume   135.35838167
_cell_formula_units_Z   2
loop_
 _symmetry_equiv_pos_site_id
 _symmetry_equiv_pos_as_xyz
  1  'x, y, z'
loop_
 _atom_site_type_symbol
 _atom_site_label
 _atom_site_symmetry_multiplicity
 _atom_site_fract_x
 _atom_site_fract_y
 _atom_site_fract_z
 _atom_site_occupancy
  Li  Li0  1  0.00000000  0.66103900  0.48446600  1
  Li  Li1  1  0.00000000  0.33896100  0.98446600  1
  Cr  Cr0  1  0.33223500  0.33144800  0.48828500  1
  Cr  Cr1  1  0.66776500  0.99921300  0.48828500  1
  Cr  Cr2  1  0.66776500  0.66855200  0.98828500  1
  Cr  Cr3  1  0.33223500  0.00078700  0.98828500  1
  N  N0  1  0.37441900  0.33536100  0.86064400  1
  N  N1  1  0.62558100  0.96094100  0.86064400  1
  N  N2  1  0.62558100  0.66463900  0.36064400  1
  N  N3  1  0.37441900  0.03905900  0.36064400  1
  N  N4  1  0.00000000  0.70818200  0.90567500  1
  N  N5  1  0.00000000  0.29181800  0.40567500  1
loop_
_geom_bond_atom_site_label_1
_geom_bond_atom_site_label_2
_geom_bond_distance
_geom_bond_site_symmetry_2
Li0 N5 2.101402 1_555
Li0 N4 2.136635 1_555
Li0 N2 2.184177 1_455
Li0 N3 2.184180 1_565
Li1 N4 2.101402 1_555
Li1 N5 2.136635 1_556
Li1 N0 2.184177 1_555
Li1 N1 2.184180 1_445
Cr0 N5 1.796534 1_555
Cr0 N2 1.868510 1_555
Cr0 N3 1.877196 1_555
Cr0 N0 1.887818 1_555
Cr1 N5 1.796534 1_665
Cr1 N3 1.868513 1_565
Cr1 N2 1.877201 1_555
Cr1 N1 1.887818 1_555
Cr2 N4 1.796534 1_655
Cr2 N0 1.868510 1_555
Cr2 N1 1.877196 1_555
Cr2 N2 1.887818 1_556
Cr3 N4 1.796534 1_545
Cr3 N1 1.868513 1_545
Cr3 N0 1.877201 1_555
Cr3 N3 1.887818 1_556
