# generated using pymatgen
data_YbGa2Cu3
_symmetry_space_group_name_H-M   'P 1'
_cell_length_a   5.17875150
_cell_length_b   5.17875150
_cell_length_c   3.92630321
_cell_angle_alpha   90.00000000
_cell_angle_beta   90.00000000
_cell_angle_gamma   120.00000271
_symmetry_Int_Tables_number   1
_chemical_formula_structural   YbGa2Cu3
_chemical_formula_sum   'Yb1 Ga2 Cu3'
_cell_volume   91.19365012
_cell_formula_units_Z   1
loop_
 _symmetry_equiv_pos_site_id
 _symmetry_equiv_pos_as_xyz
  1  'x, y, z'
loop_
 _atom_site_type_symbol
 _atom_site_label
 _atom_site_symmetry_multiplicity
 _atom_site_fract_x
 _atom_site_fract_y
 _atom_site_fract_z
 _atom_site_occupancy
  Yb  Yb0  1  0.00000000  0.00000000  0.00000000  1
  Ga  Ga0  1  0.33333300  0.66666700  0.00000000  1
  Ga  Ga1  1  0.66666700  0.33333300  0.00000000  1
  Cu  Cu0  1  0.50000000  0.00000000  0.50000000  1
  Cu  Cu1  1  0.00000000  0.50000000  0.50000000  1
  Cu  Cu2  1  0.50000000  0.50000000  0.50000000  1
loop_
_geom_bond_atom_site_label_1
_geom_bond_atom_site_label_2
_geom_bond_distance
_geom_bond_site_symmetry_2
Ga0 Ga1 2.989951 1_455
Ga0 Ga1 2.989951 1_565
Ga0 Yb0 2.989951 1_565
Ga0 Yb0 2.989955 1_555
Ga0 Yb0 2.989955 1_665
Ga0 Ga1 2.989960 1_555
Ga1 Yb0 2.989951 1_655
Ga1 Yb0 2.989955 1_555
Ga1 Yb0 2.989955 1_665
Cu0 Ga1 2.467573 1_555
Cu0 Ga1 2.467573 1_556
Cu0 Ga0 2.467573 1_546
Cu0 Ga0 2.467573 1_545
Cu0 Cu1 2.589376 1_545
Cu0 Cu1 2.589376 1_655
Cu0 Cu2 2.589376 1_555
Cu0 Cu2 2.589376 1_545
Cu0 Yb0 3.249435 1_555
Cu0 Yb0 3.249435 1_556
Cu0 Yb0 3.249435 1_656
Cu0 Yb0 3.249435 1_655
Cu1 Ga0 2.467573 1_556
Cu1 Ga0 2.467573 1_555
Cu1 Ga1 2.467573 1_456
Cu1 Ga1 2.467573 1_455
Cu1 Cu2 2.589376 1_555
Cu1 Cu2 2.589376 1_455
Cu1 Yb0 3.249435 1_555
Cu1 Yb0 3.249435 1_556
Cu1 Yb0 3.249435 1_565
Cu1 Yb0 3.249435 1_566
Cu2 Ga0 2.467575 1_556
Cu2 Ga1 2.467575 1_555
Cu2 Ga0 2.467575 1_555
Cu2 Ga1 2.467575 1_556
Cu2 Yb0 3.249435 1_555
Cu2 Yb0 3.249435 1_556
Cu2 Yb0 3.249435 1_666
Cu2 Yb0 3.249435 1_665
