# generated using pymatgen
data_NaCaMg6
_symmetry_space_group_name_H-M   'P 1'
_cell_length_a   6.67203515
_cell_length_b   6.67203515
_cell_length_c   5.43489600
_cell_angle_alpha   90.00000000
_cell_angle_beta   90.00000000
_cell_angle_gamma   120.36349484
_symmetry_Int_Tables_number   1
_chemical_formula_structural   NaCaMg6
_chemical_formula_sum   'Na1 Ca1 Mg6'
_cell_volume   208.75462161
_cell_formula_units_Z   1
loop_
 _symmetry_equiv_pos_site_id
 _symmetry_equiv_pos_as_xyz
  1  'x, y, z'
loop_
 _atom_site_type_symbol
 _atom_site_label
 _atom_site_symmetry_multiplicity
 _atom_site_fract_x
 _atom_site_fract_y
 _atom_site_fract_z
 _atom_site_occupancy
  Na  Na0  1  0.33507300  0.66492700  0.50000000  1
  Ca  Ca0  1  0.16538700  0.83461300  0.00000000  1
  Mg  Mg0  1  0.16864900  0.33355800  0.00000000  1
  Mg  Mg1  1  0.66644200  0.83135100  0.00000000  1
  Mg  Mg2  1  0.66558200  0.33441800  0.00000000  1
  Mg  Mg3  1  0.33358100  0.16778400  0.50000000  1
  Mg  Mg4  1  0.83221600  0.66641900  0.50000000  1
  Mg  Mg5  1  0.83307100  0.16692900  0.50000000  1
loop_
_geom_bond_atom_site_label_1
_geom_bond_atom_site_label_2
_geom_bond_distance
_geom_bond_site_symmetry_2
Ca0 Mg2 3.317673 1_455
Ca0 Mg2 3.317673 1_565
Ca0 Mg0 3.318030 1_565
Ca0 Mg1 3.318030 1_455
Ca0 Mg4 3.326159 1_455
Ca0 Mg4 3.326159 1_454
Ca0 Mg3 3.326159 1_564
Ca0 Mg3 3.326159 1_565
Ca0 Na0 3.353189 1_555
Ca0 Na0 3.353189 1_554
Ca0 Mg1 3.354111 1_555
Ca0 Mg0 3.354111 1_555
Mg0 Mg1 3.303028 1_555
Mg0 Mg2 3.312658 1_555
Mg0 Na0 3.320196 1_554
Mg0 Na0 3.320196 1_555
Mg0 Mg3 3.324049 1_555
Mg0 Mg3 3.324049 1_554
Mg0 Mg1 3.332316 1_445
Mg0 Mg5 3.334229 1_455
Mg0 Mg5 3.334229 1_454
Mg0 Mg2 3.359385 1_455
Mg1 Mg2 3.312658 1_555
Mg1 Na0 3.320196 1_555
Mg1 Na0 3.320196 1_554
Mg1 Mg4 3.324049 1_554
Mg1 Mg4 3.324049 1_555
Mg1 Mg5 3.334229 1_565
Mg1 Mg5 3.334229 1_564
Mg1 Mg2 3.359385 1_565
Mg2 Mg4 3.322289 1_554
Mg2 Mg4 3.322289 1_555
Mg2 Mg3 3.322289 1_554
Mg2 Mg3 3.322289 1_555
Mg2 Mg5 3.338351 1_554
Mg2 Mg5 3.338351 1_555
Mg3 Mg4 3.308615 1_555
Mg3 Na0 3.311935 1_555
Mg3 Mg4 3.326729 1_445
Mg3 Mg5 3.335502 1_555
Mg3 Mg5 3.336540 1_455
Mg3 Na0 3.360122 1_545
Mg4 Na0 3.311935 1_555
Mg4 Mg5 3.335502 1_555
Mg4 Mg5 3.336540 1_565
Mg4 Na0 3.360122 1_655
Mg5 Na0 3.317753 1_655
Mg5 Na0 3.317753 1_545
