# generated using pymatgen
data_MgAg2
_symmetry_space_group_name_H-M   'P 1'
_cell_length_a   14.50425013
_cell_length_b   14.50425013
_cell_length_c   9.28428474
_cell_angle_alpha   90.00000000
_cell_angle_beta   90.00000000
_cell_angle_gamma   154.24050468
_symmetry_Int_Tables_number   1
_chemical_formula_structural   MgAg2
_chemical_formula_sum   'Mg16 Ag32'
_cell_volume   848.83495997
_cell_formula_units_Z   16
loop_
 _symmetry_equiv_pos_site_id
 _symmetry_equiv_pos_as_xyz
  1  'x, y, z'
loop_
 _atom_site_type_symbol
 _atom_site_label
 _atom_site_symmetry_multiplicity
 _atom_site_fract_x
 _atom_site_fract_y
 _atom_site_fract_z
 _atom_site_occupancy
  Mg  Mg0_0  1  0.29869017  0.20130983  0.12500000  1
  Mg  Mg0_1  1  0.29869017  0.20130983  0.62500000  1
  Mg  Mg0_2  1  0.29869017  0.70130983  0.12500000  1
  Mg  Mg0_3  1  0.29869017  0.70130983  0.62500000  1
  Mg  Mg0_4  1  0.79869017  0.20130983  0.12500000  1
  Mg  Mg0_5  1  0.79869017  0.20130983  0.62500000  1
  Mg  Mg0_6  1  0.79869017  0.70130983  0.12500000  1
  Mg  Mg0_7  1  0.79869017  0.70130983  0.62500000  1
  Mg  Mg1_0  1  0.20130983  0.29869017  0.37500000  1
  Mg  Mg1_1  1  0.20130983  0.29869017  0.87500000  1
  Mg  Mg1_2  1  0.20130983  0.79869017  0.37500000  1
  Mg  Mg1_3  1  0.20130983  0.79869017  0.87500000  1
  Mg  Mg1_4  1  0.70130983  0.29869017  0.37500000  1
  Mg  Mg1_5  1  0.70130983  0.29869017  0.87500000  1
  Mg  Mg1_6  1  0.70130983  0.79869017  0.37500000  1
  Mg  Mg1_7  1  0.70130983  0.79869017  0.87500000  1
  Ag  Ag0_0  1  0.13249041  0.36750959  0.12500000  1
  Ag  Ag0_1  1  0.13249041  0.36750959  0.62500000  1
  Ag  Ag0_2  1  0.13249041  0.86750959  0.12500000  1
  Ag  Ag0_3  1  0.13249041  0.86750959  0.62500000  1
  Ag  Ag0_4  1  0.63249041  0.36750959  0.12500000  1
  Ag  Ag0_5  1  0.63249041  0.36750959  0.62500000  1
  Ag  Ag0_6  1  0.63249041  0.86750959  0.12500000  1
  Ag  Ag0_7  1  0.63249041  0.86750959  0.62500000  1
  Ag  Ag1_0  1  0.46624307  0.03375693  0.12500000  1
  Ag  Ag1_1  1  0.46624307  0.03375693  0.62500000  1
  Ag  Ag1_2  1  0.46624307  0.53375693  0.12500000  1
  Ag  Ag1_3  1  0.46624307  0.53375693  0.62500000  1
  Ag  Ag1_4  1  0.96624307  0.03375693  0.12500000  1
  Ag  Ag1_5  1  0.96624307  0.03375693  0.62500000  1
  Ag  Ag1_6  1  0.96624307  0.53375693  0.12500000  1
  Ag  Ag1_7  1  0.96624307  0.53375693  0.62500000  1
  Ag  Ag2_0  1  0.36750959  0.13249041  0.37500000  1
  Ag  Ag2_1  1  0.36750959  0.13249041  0.87500000  1
  Ag  Ag2_2  1  0.36750959  0.63249041  0.37500000  1
  Ag  Ag2_3  1  0.36750959  0.63249041  0.87500000  1
  Ag  Ag2_4  1  0.86750959  0.13249041  0.37500000  1
  Ag  Ag2_5  1  0.86750959  0.13249041  0.87500000  1
  Ag  Ag2_6  1  0.86750959  0.63249041  0.37500000  1
  Ag  Ag2_7  1  0.86750959  0.63249041  0.87500000  1
  Ag  Ag3_0  1  0.03375694  0.46624306  0.37500000  1
  Ag  Ag3_1  1  0.03375694  0.46624306  0.87500000  1
  Ag  Ag3_2  1  0.03375694  0.96624306  0.37500000  1
  Ag  Ag3_3  1  0.03375694  0.96624306  0.87500000  1
  Ag  Ag3_4  1  0.53375693  0.46624306  0.37500000  1
  Ag  Ag3_5  1  0.53375693  0.46624306  0.87500000  1
  Ag  Ag3_6  1  0.53375693  0.96624306  0.37500000  1
  Ag  Ag3_7  1  0.53375693  0.96624306  0.87500000  1
loop_
_geom_bond_atom_site_label_1
_geom_bond_atom_site_label_2
_geom_bond_distance
_geom_bond_site_symmetry_2
Mg0_0 Mg0_6 3.233078 1_555
Mg0_0 Mg0_6 3.233078 1_445
Mg0_1 Mg0_7 3.233078 1_555
Mg0_1 Mg0_7 3.233078 1_445
Mg0_2 Mg0_4 3.233078 1_565
Mg0_2 Mg0_4 3.233078 1_455
Mg0_3 Mg0_5 3.233078 1_565
Mg0_3 Mg0_5 3.233078 1_455
Mg1_0 Mg1_6 3.233078 1_555
Mg1_0 Mg1_6 3.233078 1_445
Mg1_1 Mg1_7 3.233078 1_555
Mg1_1 Mg1_7 3.233078 1_445
Mg1_2 Mg1_4 3.233078 1_455
Mg1_2 Mg1_4 3.233078 1_565
Mg1_3 Mg1_5 3.233078 1_455
Mg1_3 Mg1_5 3.233078 1_565
Ag0_0 Ag2_2 2.860077 1_555
Ag0_0 Ag2_3 2.860077 1_554
Ag0_0 Ag2_4 2.860077 1_455
Ag0_0 Ag2_5 2.860077 1_454
Ag0_0 Ag1_2 2.867503 1_555
Ag0_0 Ag1_4 2.867503 1_455
Ag0_0 Mg0_2 2.868614 1_555
Ag0_0 Mg0_4 2.868614 1_455
Ag0_0 Mg1_0 3.028986 1_555
Ag0_0 Mg1_1 3.028986 1_554
Ag0_0 Ag0_6 3.233078 1_555
Ag0_0 Ag0_6 3.233078 1_445
Ag0_1 Ag2_3 2.860077 1_555
Ag0_1 Ag2_2 2.860077 1_555
Ag0_1 Ag2_5 2.860077 1_455
Ag0_1 Ag2_4 2.860077 1_455
Ag0_1 Ag1_5 2.867503 1_455
Ag0_1 Ag1_3 2.867503 1_555
Ag0_1 Mg0_3 2.868614 1_555
Ag0_1 Mg0_5 2.868614 1_455
Ag0_1 Mg1_1 3.028986 1_555
Ag0_1 Mg1_0 3.028986 1_555
Ag0_1 Ag0_7 3.233078 1_555
Ag0_1 Ag0_7 3.233078 1_445
Ag0_2 Ag2_6 2.860077 1_455
Ag0_2 Ag2_0 2.860077 1_565
Ag0_2 Ag2_1 2.860077 1_564
Ag0_2 Ag2_7 2.860077 1_454
Ag0_2 Ag1_0 2.867503 1_565
Ag0_2 Ag1_6 2.867503 1_455
Ag0_2 Mg0_6 2.868614 1_455
Ag0_2 Mg0_0 2.868614 1_565
Ag0_2 Mg1_2 3.028986 1_555
Ag0_2 Mg1_3 3.028986 1_554
Ag0_2 Ag0_4 3.233078 1_565
Ag0_2 Ag0_4 3.233078 1_455
Ag0_3 Ag2_7 2.860077 1_455
Ag0_3 Ag2_1 2.860077 1_565
Ag0_3 Ag2_6 2.860077 1_455
Ag0_3 Ag2_0 2.860077 1_565
Ag0_3 Ag1_1 2.867503 1_565
Ag0_3 Ag1_7 2.867503 1_455
Ag0_3 Mg0_7 2.868614 1_455
Ag0_3 Mg0_1 2.868614 1_565
Ag0_3 Mg1_3 3.028986 1_555
Ag0_3 Mg1_2 3.028986 1_555
Ag0_3 Ag0_5 3.233078 1_565
Ag0_3 Ag0_5 3.233078 1_455
Ag0_4 Ag2_0 2.860077 1_555
Ag0_4 Ag2_1 2.860077 1_554
Ag0_4 Ag2_6 2.860077 1_555
Ag0_4 Ag2_7 2.860077 1_554
Ag0_4 Ag1_0 2.867503 1_555
Ag0_4 Ag1_6 2.867503 1_555
Ag0_4 Mg0_0 2.868614 1_555
Ag0_4 Mg0_6 2.868614 1_555
Ag0_4 Mg1_4 3.028986 1_555
Ag0_4 Mg1_5 3.028986 1_554
Ag0_5 Ag2_1 2.860077 1_555
Ag0_5 Ag2_7 2.860077 1_555
Ag0_5 Ag2_0 2.860077 1_555
Ag0_5 Ag2_6 2.860077 1_555
Ag0_5 Ag1_1 2.867503 1_555
Ag0_5 Ag1_7 2.867503 1_555
Ag0_5 Mg0_1 2.868614 1_555
Ag0_5 Mg0_7 2.868614 1_555
Ag0_5 Mg1_5 3.028986 1_555
Ag0_5 Mg1_4 3.028986 1_555
Ag0_6 Ag2_2 2.860077 1_555
Ag0_6 Ag2_4 2.860077 1_565
Ag0_6 Ag2_3 2.860077 1_554
Ag0_6 Ag2_5 2.860077 1_564
Ag0_6 Ag1_4 2.867503 1_565
Ag0_6 Ag1_2 2.867503 1_555
Ag0_6 Mg0_4 2.868614 1_565
Ag0_6 Mg0_2 2.868614 1_555
Ag0_6 Mg1_6 3.028986 1_555
Ag0_6 Mg1_7 3.028986 1_554
Ag0_7 Ag2_3 2.860077 1_555
Ag0_7 Ag2_5 2.860077 1_565
Ag0_7 Ag2_2 2.860077 1_555
Ag0_7 Ag2_4 2.860077 1_565
Ag0_7 Ag1_5 2.867503 1_565
Ag0_7 Ag1_3 2.867503 1_555
Ag0_7 Mg0_5 2.868614 1_565
Ag0_7 Mg0_3 2.868614 1_555
Ag0_7 Mg1_7 3.028986 1_555
Ag0_7 Mg1_6 3.028986 1_555
Ag1_0 Mg0_4 2.837086 1_555
Ag1_0 Mg0_2 2.837086 1_545
Ag1_0 Mg1_2 2.859878 1_545
Ag1_0 Mg1_4 2.859878 1_555
Ag1_0 Mg1_3 2.859878 1_544
Ag1_0 Mg1_5 2.859878 1_554
Ag1_0 Ag3_6 3.005398 1_545
Ag1_0 Ag3_7 3.005398 1_544
Ag1_0 Ag1_6 3.233078 1_555
Ag1_0 Ag1_6 3.233078 1_445
Ag1_1 Mg0_5 2.837086 1_555
Ag1_1 Mg0_3 2.837086 1_545
Ag1_1 Mg1_5 2.859878 1_555
Ag1_1 Mg1_3 2.859878 1_545
Ag1_1 Mg1_2 2.859878 1_545
Ag1_1 Mg1_4 2.859878 1_555
Ag1_1 Ag3_7 3.005398 1_545
Ag1_1 Ag3_6 3.005398 1_545
Ag1_1 Ag1_7 3.233078 1_555
Ag1_1 Ag1_7 3.233078 1_445
Ag1_2 Mg0_6 2.837086 1_555
Ag1_2 Mg0_0 2.837086 1_555
Ag1_2 Mg1_6 2.859878 1_555
Ag1_2 Mg1_0 2.859878 1_555
Ag1_2 Mg1_7 2.859878 1_554
Ag1_2 Mg1_1 2.859878 1_554
Ag1_2 Ag3_4 3.005398 1_555
Ag1_2 Ag3_5 3.005398 1_554
Ag1_2 Ag1_4 3.233078 1_455
Ag1_2 Ag1_4 3.233078 1_565
Ag1_3 Mg0_7 2.837086 1_555
Ag1_3 Mg0_1 2.837086 1_555
Ag1_3 Mg1_7 2.859878 1_555
Ag1_3 Mg1_1 2.859878 1_555
Ag1_3 Mg1_6 2.859878 1_555
Ag1_3 Mg1_0 2.859878 1_555
Ag1_3 Ag3_5 3.005398 1_555
Ag1_3 Ag3_4 3.005398 1_555
Ag1_3 Ag1_5 3.233078 1_455
Ag1_3 Ag1_5 3.233078 1_565
Ag1_4 Mg0_0 2.837086 1_655
Ag1_4 Mg0_6 2.837086 1_545
Ag1_4 Mg1_6 2.859878 1_545
Ag1_4 Mg1_0 2.859878 1_655
Ag1_4 Mg1_7 2.859878 1_544
Ag1_4 Mg1_1 2.859878 1_654
Ag1_4 Ag3_2 3.005398 1_645
Ag1_4 Ag3_3 3.005398 1_644
Ag1_5 Mg0_1 2.837086 1_655
Ag1_5 Mg0_7 2.837086 1_545
Ag1_5 Mg1_7 2.859878 1_545
Ag1_5 Mg1_1 2.859878 1_655
Ag1_5 Mg1_6 2.859878 1_545
Ag1_5 Mg1_0 2.859878 1_655
Ag1_5 Ag3_3 3.005398 1_645
Ag1_5 Ag3_2 3.005398 1_645
Ag1_6 Mg0_2 2.837086 1_655
Ag1_6 Mg0_4 2.837086 1_555
Ag1_6 Mg1_2 2.859878 1_655
Ag1_6 Mg1_4 2.859878 1_555
Ag1_6 Mg1_3 2.859878 1_654
Ag1_6 Mg1_5 2.859878 1_554
Ag1_6 Ag3_0 3.005398 1_655
Ag1_6 Ag3_1 3.005398 1_654
Ag1_7 Mg0_3 2.837086 1_655
Ag1_7 Mg0_5 2.837086 1_555
Ag1_7 Mg1_3 2.859878 1_655
Ag1_7 Mg1_5 2.859878 1_555
Ag1_7 Mg1_2 2.859878 1_655
Ag1_7 Mg1_4 2.859878 1_555
Ag1_7 Ag3_1 3.005398 1_655
Ag1_7 Ag3_0 3.005398 1_655
Ag2_0 Ag3_2 2.867503 1_545
Ag2_0 Ag3_4 2.867503 1_555
Ag2_0 Mg1_4 2.868614 1_555
Ag2_0 Mg1_2 2.868614 1_545
Ag2_0 Mg0_0 3.028986 1_555
Ag2_0 Mg0_1 3.028986 1_555
Ag2_0 Ag2_6 3.233078 1_555
Ag2_0 Ag2_6 3.233078 1_445
Ag2_1 Ag3_3 2.867503 1_545
Ag2_1 Ag3_5 2.867503 1_555
Ag2_1 Mg1_3 2.868614 1_545
Ag2_1 Mg1_5 2.868614 1_555
Ag2_1 Mg0_1 3.028986 1_555
Ag2_1 Mg0_0 3.028986 1_556
Ag2_1 Ag2_7 3.233078 1_555
Ag2_1 Ag2_7 3.233078 1_445
Ag2_2 Ag3_0 2.867503 1_555
Ag2_2 Ag3_6 2.867503 1_555
Ag2_2 Mg1_0 2.868614 1_555
Ag2_2 Mg1_6 2.868614 1_555
Ag2_2 Mg0_2 3.028986 1_555
Ag2_2 Mg0_3 3.028986 1_555
Ag2_2 Ag2_4 3.233078 1_455
Ag2_2 Ag2_4 3.233078 1_565
Ag2_3 Ag3_1 2.867503 1_555
Ag2_3 Ag3_7 2.867503 1_555
Ag2_3 Mg1_1 2.868614 1_555
Ag2_3 Mg1_7 2.868614 1_555
Ag2_3 Mg0_3 3.028986 1_555
Ag2_3 Mg0_2 3.028986 1_556
Ag2_3 Ag2_5 3.233078 1_455
Ag2_3 Ag2_5 3.233078 1_565
Ag2_4 Ag3_6 2.867503 1_545
Ag2_4 Ag3_0 2.867503 1_655
Ag2_4 Mg1_0 2.868614 1_655
Ag2_4 Mg1_6 2.868614 1_545
Ag2_4 Mg0_5 3.028986 1_555
Ag2_4 Mg0_4 3.028986 1_555
Ag2_5 Ag3_7 2.867503 1_545
Ag2_5 Ag3_1 2.867503 1_655
Ag2_5 Mg1_1 2.868614 1_655
Ag2_5 Mg1_7 2.868614 1_545
Ag2_5 Mg0_5 3.028986 1_555
Ag2_5 Mg0_4 3.028986 1_556
Ag2_6 Ag3_4 2.867503 1_555
Ag2_6 Ag3_2 2.867503 1_655
Ag2_6 Mg1_4 2.868614 1_555
Ag2_6 Mg1_2 2.868614 1_655
Ag2_6 Mg0_7 3.028986 1_555
Ag2_6 Mg0_6 3.028986 1_555
Ag2_7 Ag3_5 2.867503 1_555
Ag2_7 Ag3_3 2.867503 1_655
Ag2_7 Mg1_5 2.868614 1_555
Ag2_7 Mg1_3 2.868614 1_655
Ag2_7 Mg0_7 3.028986 1_555
Ag2_7 Mg0_6 3.028986 1_556
Ag3_0 Mg1_2 2.837086 1_555
Ag3_0 Mg1_4 2.837086 1_455
Ag3_0 Mg0_3 2.859878 1_555
Ag3_0 Mg0_2 2.859878 1_555
Ag3_0 Mg0_5 2.859878 1_455
Ag3_0 Mg0_4 2.859878 1_455
Ag3_0 Ag3_6 3.233078 1_445
Ag3_0 Ag3_6 3.233078 1_555
Ag3_1 Mg1_3 2.837086 1_555
Ag3_1 Mg1_5 2.837086 1_455
Ag3_1 Mg0_3 2.859878 1_555
Ag3_1 Mg0_5 2.859878 1_455
Ag3_1 Mg0_2 2.859878 1_556
Ag3_1 Mg0_4 2.859878 1_456
Ag3_1 Ag3_7 3.233078 1_555
Ag3_1 Ag3_7 3.233078 1_445
Ag3_2 Mg1_6 2.837086 1_455
Ag3_2 Mg1_0 2.837086 1_565
Ag3_2 Mg0_0 2.859878 1_565
Ag3_2 Mg0_7 2.859878 1_455
Ag3_2 Mg0_6 2.859878 1_455
Ag3_2 Mg0_1 2.859878 1_565
Ag3_2 Ag3_4 3.233078 1_455
Ag3_2 Ag3_4 3.233078 1_565
Ag3_3 Mg1_7 2.837086 1_455
Ag3_3 Mg1_1 2.837086 1_565
Ag3_3 Mg0_7 2.859878 1_455
Ag3_3 Mg0_1 2.859878 1_565
Ag3_3 Mg0_6 2.859878 1_456
Ag3_3 Mg0_0 2.859878 1_566
Ag3_3 Ag3_5 3.233078 1_455
Ag3_3 Ag3_5 3.233078 1_565
Ag3_4 Mg1_6 2.837086 1_555
Ag3_4 Mg1_0 2.837086 1_555
Ag3_4 Mg0_6 2.859878 1_555
Ag3_4 Mg0_0 2.859878 1_555
Ag3_4 Mg0_7 2.859878 1_555
Ag3_4 Mg0_1 2.859878 1_555
Ag3_5 Mg1_7 2.837086 1_555
Ag3_5 Mg1_1 2.837086 1_555
Ag3_5 Mg0_7 2.859878 1_555
Ag3_5 Mg0_1 2.859878 1_555
Ag3_5 Mg0_0 2.859878 1_556
Ag3_5 Mg0_6 2.859878 1_556
Ag3_6 Mg1_2 2.837086 1_555
Ag3_6 Mg1_4 2.837086 1_565
Ag3_6 Mg0_3 2.859878 1_555
Ag3_6 Mg0_2 2.859878 1_555
Ag3_6 Mg0_4 2.859878 1_565
Ag3_6 Mg0_5 2.859878 1_565
Ag3_7 Mg1_3 2.837086 1_555
Ag3_7 Mg1_5 2.837086 1_565
Ag3_7 Mg0_3 2.859878 1_555
Ag3_7 Mg0_5 2.859878 1_565
Ag3_7 Mg0_2 2.859878 1_556
Ag3_7 Mg0_4 2.859878 1_566
