# generated using pymatgen
data_Na2CuO2
_symmetry_space_group_name_H-M   'P 1'
_cell_length_a   2.94836100
_cell_length_b   5.68108100
_cell_length_c   8.27746584
_cell_angle_alpha   70.65272213
_cell_angle_beta   90.00000000
_cell_angle_gamma   90.00000000
_symmetry_Int_Tables_number   1
_chemical_formula_structural   Na2CuO2
_chemical_formula_sum   'Na4 Cu2 O4'
_cell_volume   130.81687951
_cell_formula_units_Z   2
loop_
 _symmetry_equiv_pos_site_id
 _symmetry_equiv_pos_as_xyz
  1  'x, y, z'
loop_
 _atom_site_type_symbol
 _atom_site_label
 _atom_site_symmetry_multiplicity
 _atom_site_fract_x
 _atom_site_fract_y
 _atom_site_fract_z
 _atom_site_occupancy
  Na  Na0  1  0.25000000  0.61545600  0.12028800  1
  Na  Na1  1  0.75000000  0.38454400  0.87971200  1
  Na  Na2  1  0.25000000  0.68049700  0.55776600  1
  Na  Na3  1  0.75000000  0.31950300  0.44223400  1
  Cu  Cu0  1  0.25000000  0.02497300  0.23939900  1
  Cu  Cu1  1  0.75000000  0.97502700  0.76060100  1
  O  O0  1  0.75000000  0.76838600  0.31767200  1
  O  O1  1  0.25000000  0.23161400  0.68232800  1
  O  O2  1  0.75000000  0.26853100  0.17744300  1
  O  O3  1  0.25000000  0.73146900  0.82255700  1
loop_
_geom_bond_atom_site_label_1
_geom_bond_atom_site_label_2
_geom_bond_distance
_geom_bond_site_symmetry_2
Na0 O3 2.330605 1_554
Na0 O2 2.379852 1_455
Na0 O2 2.379852 1_555
Na0 O0 2.556952 1_555
Na0 O0 2.556952 1_455
Na1 O2 2.330605 1_556
Na1 O3 2.379852 1_655
Na1 O3 2.379852 1_555
Na1 O1 2.556952 1_555
Na1 O1 2.556952 1_655
Na2 O3 2.303991 1_555
Na2 O0 2.390537 1_555
Na2 O0 2.390537 1_455
Na2 O1 2.413324 1_555
Na3 O2 2.303991 1_555
Na3 O1 2.390537 1_655
Na3 O1 2.390537 1_555
Na3 O0 2.413324 1_555
Cu0 O2 1.969921 1_455
Cu0 O2 1.969921 1_555
Cu0 O0 2.022888 1_445
Cu0 O0 2.022888 1_545
Cu1 O3 1.969921 1_655
Cu1 O3 1.969921 1_555
Cu1 O1 2.022888 1_665
Cu1 O1 2.022888 1_565
