# generated using pymatgen
data_Fe3Si
_symmetry_space_group_name_H-M   'P 1'
_cell_length_a   5.67127600
_cell_length_b   5.67127600
_cell_length_c   11.01408200
_cell_angle_alpha   90.00000000
_cell_angle_beta   90.00000000
_cell_angle_gamma   90.00000000
_symmetry_Int_Tables_number   1
_chemical_formula_structural   Fe3Si
_chemical_formula_sum   'Fe24 Si8'
_cell_volume   354.25001075
_cell_formula_units_Z   8
loop_
 _symmetry_equiv_pos_site_id
 _symmetry_equiv_pos_as_xyz
  1  'x, y, z'
loop_
 _atom_site_type_symbol
 _atom_site_label
 _atom_site_symmetry_multiplicity
 _atom_site_fract_x
 _atom_site_fract_y
 _atom_site_fract_z
 _atom_site_occupancy
  Fe  Fe0_0  1  0.25000000  0.25000000  0.37888250  1
  Fe  Fe0_1  1  0.25000000  0.25000000  0.87888250  1
  Fe  Fe0_2  1  0.25000000  0.75000000  0.37888250  1
  Fe  Fe0_3  1  0.25000000  0.75000000  0.87888250  1
  Fe  Fe0_4  1  0.75000000  0.25000000  0.37888250  1
  Fe  Fe0_5  1  0.75000000  0.25000000  0.87888250  1
  Fe  Fe0_6  1  0.75000000  0.75000000  0.37888250  1
  Fe  Fe0_7  1  0.75000000  0.75000000  0.87888250  1
  Fe  Fe1_0  1  0.00000000  0.00000000  0.25000000  1
  Fe  Fe1_1  1  0.00000000  0.00000000  0.75000000  1
  Fe  Fe1_2  1  0.00000000  0.50000000  0.25000000  1
  Fe  Fe1_3  1  0.00000000  0.50000000  0.75000000  1
  Fe  Fe1_4  1  0.50000000  0.00000000  0.25000000  1
  Fe  Fe1_5  1  0.50000000  0.00000000  0.75000000  1
  Fe  Fe1_6  1  0.50000000  0.50000000  0.25000000  1
  Fe  Fe1_7  1  0.50000000  0.50000000  0.75000000  1
  Fe  Fe2_0  1  0.25000000  0.25000000  0.12111750  1
  Fe  Fe2_1  1  0.25000000  0.25000000  0.62111750  1
  Fe  Fe2_2  1  0.25000000  0.75000000  0.12111750  1
  Fe  Fe2_3  1  0.25000000  0.75000000  0.62111750  1
  Fe  Fe2_4  1  0.75000000  0.25000000  0.12111750  1
  Fe  Fe2_5  1  0.75000000  0.25000000  0.62111750  1
  Fe  Fe2_6  1  0.75000000  0.75000000  0.12111750  1
  Fe  Fe2_7  1  0.75000000  0.75000000  0.62111750  1
  Si  Si0_0  1  0.00000000  0.00000000  0.00000000  1
  Si  Si0_1  1  0.00000000  0.00000000  0.50000000  1
  Si  Si0_2  1  0.00000000  0.50000000  0.00000000  1
  Si  Si0_3  1  0.00000000  0.50000000  0.50000000  1
  Si  Si0_4  1  0.50000000  0.00000000  0.00000000  1
  Si  Si0_5  1  0.50000000  0.00000000  0.50000000  1
  Si  Si0_6  1  0.50000000  0.50000000  0.00000000  1
  Si  Si0_7  1  0.50000000  0.50000000  0.50000000  1
loop_
_geom_bond_atom_site_label_1
_geom_bond_atom_site_label_2
_geom_bond_distance
_geom_bond_site_symmetry_2
Fe0_0 Si0_3 2.408313 1_555
Fe0_0 Si0_1 2.408313 1_555
Fe0_0 Si0_7 2.408313 1_555
Fe0_0 Si0_5 2.408313 1_555
Fe0_0 Fe1_2 2.456718 1_555
Fe0_0 Fe1_0 2.456718 1_555
Fe0_0 Fe1_6 2.456718 1_555
Fe0_0 Fe1_4 2.456718 1_555
Fe0_1 Si0_0 2.408313 1_556
Fe0_1 Si0_6 2.408313 1_556
Fe0_1 Si0_4 2.408313 1_556
Fe0_1 Si0_2 2.408313 1_556
Fe0_1 Fe1_1 2.456718 1_555
Fe0_1 Fe1_3 2.456718 1_555
Fe0_1 Fe1_7 2.456718 1_555
Fe0_1 Fe1_5 2.456718 1_555
Fe0_2 Si0_5 2.408313 1_565
Fe0_2 Si0_3 2.408313 1_555
Fe0_2 Si0_7 2.408313 1_555
Fe0_2 Si0_1 2.408313 1_565
Fe0_2 Fe1_6 2.456718 1_555
Fe0_2 Fe1_0 2.456718 1_565
Fe0_2 Fe1_4 2.456718 1_565
Fe0_2 Fe1_2 2.456718 1_555
Fe0_3 Si0_2 2.408313 1_556
Fe0_3 Si0_0 2.408313 1_566
Fe0_3 Si0_4 2.408313 1_566
Fe0_3 Si0_6 2.408313 1_556
Fe0_3 Fe1_1 2.456718 1_565
Fe0_3 Fe1_5 2.456718 1_565
Fe0_3 Fe1_3 2.456718 1_555
Fe0_3 Fe1_7 2.456718 1_555
Fe0_4 Si0_5 2.408313 1_555
Fe0_4 Si0_7 2.408313 1_555
Fe0_4 Si0_3 2.408313 1_655
Fe0_4 Si0_1 2.408313 1_655
Fe0_4 Fe1_6 2.456718 1_555
Fe0_4 Fe1_2 2.456718 1_655
Fe0_4 Fe1_4 2.456718 1_555
Fe0_4 Fe1_0 2.456718 1_655
Fe0_5 Si0_0 2.408313 1_656
Fe0_5 Si0_2 2.408313 1_656
Fe0_5 Si0_4 2.408313 1_556
Fe0_5 Si0_6 2.408313 1_556
Fe0_5 Fe1_1 2.456718 1_655
Fe0_5 Fe1_3 2.456718 1_655
Fe0_5 Fe1_5 2.456718 1_555
Fe0_5 Fe1_7 2.456718 1_555
Fe0_6 Si0_5 2.408313 1_565
Fe0_6 Si0_1 2.408313 1_665
Fe0_6 Si0_3 2.408313 1_655
Fe0_6 Si0_7 2.408313 1_555
Fe0_6 Fe1_0 2.456718 1_665
Fe0_6 Fe1_6 2.456718 1_555
Fe0_6 Fe1_4 2.456718 1_565
Fe0_6 Fe1_2 2.456718 1_655
Fe0_7 Si0_0 2.408313 1_666
Fe0_7 Si0_4 2.408313 1_566
Fe0_7 Si0_2 2.408313 1_656
Fe0_7 Si0_6 2.408313 1_556
Fe0_7 Fe1_1 2.456718 1_665
Fe0_7 Fe1_7 2.456718 1_555
Fe0_7 Fe1_3 2.456718 1_655
Fe0_7 Fe1_5 2.456718 1_565
Fe1_0 Fe2_0 2.456718 1_555
Fe1_0 Fe2_4 2.456718 1_455
Fe1_0 Fe2_2 2.456718 1_545
Fe1_0 Fe2_6 2.456718 1_445
Fe1_0 Si0_0 2.753521 1_555
Fe1_0 Si0_1 2.753521 1_555
Fe1_0 Fe1_4 2.835638 1_555
Fe1_0 Fe1_2 2.835638 1_555
Fe1_0 Fe1_4 2.835638 1_455
Fe1_0 Fe1_2 2.835638 1_545
Fe1_1 Fe2_1 2.456718 1_555
Fe1_1 Fe2_5 2.456718 1_455
Fe1_1 Fe2_7 2.456718 1_445
Fe1_1 Fe2_3 2.456718 1_545
Fe1_1 Si0_0 2.753521 1_556
Fe1_1 Si0_1 2.753521 1_555
Fe1_1 Fe1_3 2.835638 1_555
Fe1_1 Fe1_5 2.835638 1_555
Fe1_1 Fe1_5 2.835638 1_455
Fe1_1 Fe1_3 2.835638 1_545
Fe1_2 Fe2_0 2.456718 1_555
Fe1_2 Fe2_4 2.456718 1_455
Fe1_2 Fe2_6 2.456718 1_455
Fe1_2 Fe2_2 2.456718 1_555
Fe1_2 Si0_3 2.753521 1_555
Fe1_2 Si0_2 2.753521 1_555
Fe1_2 Fe1_6 2.835638 1_555
Fe1_2 Fe1_6 2.835638 1_455
Fe1_3 Fe2_1 2.456718 1_555
Fe1_3 Fe2_5 2.456718 1_455
Fe1_3 Fe2_3 2.456718 1_555
Fe1_3 Fe2_7 2.456718 1_455
Fe1_3 Si0_3 2.753521 1_555
Fe1_3 Si0_2 2.753521 1_556
Fe1_3 Fe1_7 2.835638 1_555
Fe1_3 Fe1_7 2.835638 1_455
Fe1_4 Fe2_0 2.456718 1_555
Fe1_4 Fe2_2 2.456718 1_545
Fe1_4 Fe2_4 2.456718 1_555
Fe1_4 Fe2_6 2.456718 1_545
Fe1_4 Si0_4 2.753521 1_555
Fe1_4 Si0_5 2.753521 1_555
Fe1_4 Fe1_6 2.835638 1_555
Fe1_4 Fe1_6 2.835638 1_545
Fe1_5 Fe2_1 2.456718 1_555
Fe1_5 Fe2_3 2.456718 1_545
Fe1_5 Fe2_5 2.456718 1_555
Fe1_5 Fe2_7 2.456718 1_545
Fe1_5 Si0_4 2.753521 1_556
Fe1_5 Si0_5 2.753521 1_555
Fe1_5 Fe1_7 2.835638 1_555
Fe1_5 Fe1_7 2.835638 1_545
Fe1_6 Fe2_0 2.456718 1_555
Fe1_6 Fe2_4 2.456718 1_555
Fe1_6 Fe2_2 2.456718 1_555
Fe1_6 Fe2_6 2.456718 1_555
Fe1_6 Si0_6 2.753521 1_555
Fe1_6 Si0_7 2.753521 1_555
Fe1_7 Fe2_1 2.456718 1_555
Fe1_7 Fe2_5 2.456718 1_555
Fe1_7 Fe2_3 2.456718 1_555
Fe1_7 Fe2_7 2.456718 1_555
Fe1_7 Si0_7 2.753521 1_555
Fe1_7 Si0_6 2.753521 1_556
Fe2_0 Si0_2 2.408313 1_555
Fe2_0 Si0_0 2.408313 1_555
Fe2_0 Si0_6 2.408313 1_555
Fe2_0 Si0_4 2.408313 1_555
Fe2_1 Si0_3 2.408313 1_555
Fe2_1 Si0_1 2.408313 1_555
Fe2_1 Si0_7 2.408313 1_555
Fe2_1 Si0_5 2.408313 1_555
Fe2_2 Si0_2 2.408313 1_555
Fe2_2 Si0_4 2.408313 1_565
Fe2_2 Si0_6 2.408313 1_555
Fe2_2 Si0_0 2.408313 1_565
Fe2_3 Si0_5 2.408313 1_565
Fe2_3 Si0_3 2.408313 1_555
Fe2_3 Si0_7 2.408313 1_555
Fe2_3 Si0_1 2.408313 1_565
Fe2_4 Si0_2 2.408313 1_655
Fe2_4 Si0_6 2.408313 1_555
Fe2_4 Si0_4 2.408313 1_555
Fe2_4 Si0_0 2.408313 1_655
Fe2_5 Si0_5 2.408313 1_555
Fe2_5 Si0_7 2.408313 1_555
Fe2_5 Si0_3 2.408313 1_655
Fe2_5 Si0_1 2.408313 1_655
Fe2_6 Si0_0 2.408313 1_665
Fe2_6 Si0_2 2.408313 1_655
Fe2_6 Si0_4 2.408313 1_565
Fe2_6 Si0_6 2.408313 1_555
Fe2_7 Si0_5 2.408313 1_565
Fe2_7 Si0_1 2.408313 1_665
Fe2_7 Si0_3 2.408313 1_655
Fe2_7 Si0_7 2.408313 1_555
