# generated using pymatgen
data_Al6W5N16
_symmetry_space_group_name_H-M   'P 1'
_cell_length_a   7.85932000
_cell_length_b   9.07516069
_cell_length_c   9.07516072
_cell_angle_alpha   90.00000508
_cell_angle_beta   54.73561408
_cell_angle_gamma   54.73561391
_symmetry_Int_Tables_number   1
_chemical_formula_structural   Al6W5N16
_chemical_formula_sum   'Al6 W5 N16'
_cell_volume   373.70854955
_cell_formula_units_Z   1
loop_
 _symmetry_equiv_pos_site_id
 _symmetry_equiv_pos_as_xyz
  1  'x, y, z'
loop_
 _atom_site_type_symbol
 _atom_site_label
 _atom_site_symmetry_multiplicity
 _atom_site_fract_x
 _atom_site_fract_y
 _atom_site_fract_z
 _atom_site_occupancy
  Al  Al0  1  0.00000000  0.75000000  0.50000000  1
  Al  Al1  1  0.00000000  0.50000000  0.75000000  1
  Al  Al2  1  0.50000000  0.75000000  0.25000000  1
  Al  Al3  1  0.00000000  0.25000000  0.50000000  1
  Al  Al4  1  0.00000000  0.50000000  0.25000000  1
  Al  Al5  1  0.50000000  0.25000000  0.75000000  1
  W  W0  1  0.47410600  0.00000000  0.52589400  1
  W  W1  1  0.47410600  0.52589400  0.00000000  1
  W  W2  1  0.52589400  0.47410600  0.47410600  1
  W  W3  1  0.52589400  0.00000000  0.00000000  1
  W  W4  1  0.00000000  0.00000000  0.00000000  1
  N  N0  1  0.23709900  0.00000000  0.76290100  1
  N  N1  1  0.23709900  0.76290100  0.00000000  1
  N  N2  1  0.76290100  0.23709900  0.23709900  1
  N  N3  1  0.76290100  0.00000000  0.00000000  1
  N  N4  1  0.70025700  0.00000000  0.54596300  1
  N  N5  1  0.20781700  0.24622000  0.54596300  1
  N  N6  1  0.70025700  0.75378000  0.29974300  1
  N  N7  1  0.70025700  0.29974300  0.75378000  1
  N  N8  1  0.20781700  0.54596300  0.24622000  1
  N  N9  1  0.70025700  0.54596300  0.00000000  1
  N  N10  1  0.29974300  0.70025700  0.45403700  1
  N  N11  1  0.79218300  0.45403700  0.45403700  1
  N  N12  1  0.29974300  0.45403700  0.70025700  1
  N  N13  1  0.29974300  0.00000000  0.24622000  1
  N  N14  1  0.79218300  0.75378000  0.75378000  1
  N  N15  1  0.29974300  0.24622000  0.00000000  1
loop_
_geom_bond_atom_site_label_1
_geom_bond_atom_site_label_2
_geom_bond_distance
_geom_bond_site_symmetry_2
Al0 N8 1.888073 1_555
Al0 N14 1.888073 1_455
Al0 N10 1.888073 1_555
Al0 N4 1.888073 1_465
Al1 N5 1.888073 1_555
Al1 N14 1.888073 1_455
Al1 N12 1.888073 1_555
Al1 N9 1.888073 1_456
Al2 N9 1.888073 1_555
Al2 N6 1.888073 1_555
Al2 N13 1.888073 1_565
Al2 N10 1.888073 1_555
Al3 N13 1.888073 1_555
Al3 N5 1.888073 1_555
Al3 N11 1.888073 1_455
Al3 N7 1.888073 1_455
Al4 N15 1.888073 1_555
Al4 N8 1.888073 1_555
Al4 N11 1.888073 1_455
Al4 N6 1.888073 1_455
Al5 N4 1.888073 1_555
Al5 N7 1.888073 1_555
Al5 N15 1.888073 1_556
Al5 N12 1.888073 1_555
N0 W0 1.862714 1_555
N0 W4 1.863437 1_556
N1 W1 1.862714 1_555
N1 W4 1.863437 1_565
N2 W2 1.862714 1_555
N2 W4 1.863437 1_655
N3 W3 1.862714 1_555
N3 W4 1.863437 1_655
N4 W0 1.888410 1_555
N5 W0 1.888410 1_555
N6 W0 1.888410 1_565
N7 W1 1.888410 1_556
N8 W1 1.888410 1_555
N9 W1 1.888410 1_555
N10 W2 1.888410 1_555
N11 W2 1.888410 1_555
N12 W2 1.888410 1_555
N13 W3 1.888410 1_555
N14 W3 1.888410 1_566
N15 W3 1.888410 1_555
