# generated using pymatgen
data_Cs2RbNa
_symmetry_space_group_name_H-M   'P 1'
_cell_length_a   18.06922097
_cell_length_b   18.04828645
_cell_length_c   18.04828532
_cell_angle_alpha   59.84935634
_cell_angle_beta   59.96162390
_cell_angle_gamma   59.96162444
_symmetry_Int_Tables_number   1
_chemical_formula_structural   Cs2RbNa
_chemical_formula_sum   'Cs2 Rb1 Na1'
_cell_volume   4154.77864425
_cell_formula_units_Z   1
loop_
 _symmetry_equiv_pos_site_id
 _symmetry_equiv_pos_as_xyz
  1  'x, y, z'
loop_
 _atom_site_type_symbol
 _atom_site_label
 _atom_site_symmetry_multiplicity
 _atom_site_fract_x
 _atom_site_fract_y
 _atom_site_fract_z
 _atom_site_occupancy
  Cs  Cs0  1  0.77037058  0.00000000  0.00000000  1
  Cs  Cs1  1  0.22962942  1.00000000  1.00000000  1
  Rb  Rb0  1  0.50000000  0.00000000  0.00000000  1
  Na  Na0  1  0.00000000  0.00000000  0.00000000  1
loop_
_geom_bond_atom_site_label_1
_geom_bond_atom_site_label_2
_geom_bond_distance
_geom_bond_site_symmetry_2
Cs0 Na0 4.149225 1_655
Cs0 Rb0 4.885386 1_555
Cs1 Na0 4.149225 1_566
Cs1 Rb0 4.885386 1_566
