# generated using pymatgen
data_NdB4
_symmetry_space_group_name_H-M   'P 1'
_cell_length_a   4.12058789
_cell_length_b   7.23931577
_cell_length_c   7.23931577
_cell_angle_alpha   90.00000000
_cell_angle_beta   90.00000000
_cell_angle_gamma   90.00000000
_symmetry_Int_Tables_number   1
_chemical_formula_structural   NdB4
_chemical_formula_sum   'Nd4 B16'
_cell_volume   215.95050437
_cell_formula_units_Z   4
loop_
 _symmetry_equiv_pos_site_id
 _symmetry_equiv_pos_as_xyz
  1  'x, y, z'
loop_
 _atom_site_type_symbol
 _atom_site_label
 _atom_site_symmetry_multiplicity
 _atom_site_fract_x
 _atom_site_fract_y
 _atom_site_fract_z
 _atom_site_occupancy
  Nd  Nd0  1  -0.00000000  0.68303436  0.18303436  1
  Nd  Nd1  1  -0.00000000  0.81696564  0.68303436  1
  Nd  Nd2  1  -0.00000000  0.18303436  0.31696564  1
  Nd  Nd3  1  -0.00000000  0.31696564  0.81696564  1
  B  B0  1  0.50000000  0.58820875  0.91179125  1
  B  B1  1  0.50000000  0.08820875  0.58820875  1
  B  B2  1  0.50000000  0.91179125  0.41179125  1
  B  B3  1  0.50000000  0.41179125  0.08820875  1
  B  B4  1  0.50000000  0.17372881  0.03869389  1
  B  B5  1  0.50000000  0.96130611  0.17372881  1
  B  B6  1  0.50000000  0.03869389  0.82627119  1
  B  B7  1  0.50000000  0.82627119  0.96130611  1
  B  B8  1  0.50000000  0.67372881  0.46130611  1
  B  B9  1  0.50000000  0.32627119  0.53869389  1
  B  B10  1  0.50000000  0.53869389  0.67372881  1
  B  B11  1  0.50000000  0.46130611  0.32627119  1
  B  B12  1  0.20499340  -0.00000000  0.00000000  1
  B  B13  1  0.79500660  0.50000000  0.50000000  1
  B  B14  1  0.79500660  -0.00000000  0.00000000  1
  B  B15  1  0.20499340  0.50000000  0.50000000  1
loop_
_geom_bond_atom_site_label_1
_geom_bond_atom_site_label_2
_geom_bond_distance
_geom_bond_site_symmetry_2
B0 B10 1.760292 1_555
B0 B7 1.760292 1_555
B0 B3 1.806152 1_556
B0 Nd0 2.927770 1_656
B0 Nd0 2.927770 1_556
B0 Nd3 2.927770 1_655
B0 Nd3 2.927770 1_555
B0 Nd1 3.119258 1_655
B0 Nd1 3.119258 1_555
B1 B9 1.760292 1_555
B1 B6 1.760292 1_555
B1 B2 1.806152 1_545
B1 Nd2 2.927770 1_555
B1 Nd2 2.927770 1_655
B1 Nd1 2.927770 1_545
B1 Nd1 2.927770 1_645
B1 Nd3 3.119258 1_655
B1 Nd3 3.119258 1_555
B2 B5 1.760292 1_555
B2 B8 1.760292 1_555
B2 Nd1 2.927770 1_655
B2 Nd2 2.927770 1_565
B2 Nd2 2.927770 1_665
B2 Nd1 2.927770 1_555
B2 Nd0 3.119258 1_555
B2 Nd0 3.119258 1_655
B3 B4 1.760292 1_555
B3 Nd3 2.927770 1_554
B3 Nd3 2.927770 1_654
B3 Nd0 2.927770 1_655
B3 Nd0 2.927770 1_555
B3 Nd2 3.119258 1_555
B3 Nd2 3.119258 1_655
B4 B6 1.822207 1_554
B4 B5 1.822207 1_545
B4 Nd3 2.810087 1_654
B4 Nd3 2.810087 1_554
B4 Nd2 2.882282 1_555
B4 Nd2 2.882282 1_655
B5 B7 1.822207 1_554
B5 Nd2 2.810087 1_565
B5 Nd2 2.810087 1_665
B5 Nd0 2.882282 1_555
B5 Nd0 2.882282 1_655
B6 B7 1.822207 1_545
B6 Nd1 2.810087 1_545
B6 Nd1 2.810087 1_645
B6 Nd3 2.882282 1_555
B6 Nd3 2.882282 1_655
B7 Nd0 2.810087 1_656
B7 Nd0 2.810087 1_556
B7 Nd1 2.882282 1_655
B7 Nd1 2.882282 1_555
B8 Nd1 2.810087 1_555
B8 Nd1 2.810087 1_655
B8 Nd0 2.882282 1_655
B8 Nd0 2.882282 1_555
B9 Nd2 2.810087 1_555
B9 Nd2 2.810087 1_655
B9 Nd3 2.882282 1_555
B9 Nd3 2.882282 1_655
B10 B15 1.771413 1_555
B10 B13 1.771413 1_555
B10 B8 1.822207 1_555
B10 B9 1.822207 1_555
B10 Nd3 2.810087 1_655
B10 Nd3 2.810087 1_555
B10 Nd1 2.882282 1_655
B10 Nd1 2.882282 1_555
B11 B3 1.760292 1_555
B11 B13 1.771413 1_555
B11 B15 1.771413 1_555
B11 B8 1.822207 1_555
B11 B9 1.822207 1_555
B11 Nd0 2.810087 1_555
B11 Nd0 2.810087 1_655
B11 Nd2 2.882282 1_555
B11 Nd2 2.882282 1_655
B12 B14 1.689387 1_455
B12 B6 1.771413 1_554
B12 B7 1.771413 1_544
B12 B4 1.771413 1_555
B12 B5 1.771413 1_545
B12 Nd3 2.781097 1_554
B12 Nd2 2.781097 1_555
B12 Nd0 2.781097 1_545
B12 Nd1 2.781097 1_544
B13 B15 1.689387 1_655
B13 B8 1.771413 1_555
B13 B9 1.771413 1_555
B13 Nd0 2.781097 1_655
B13 Nd2 2.781097 1_655
B13 Nd3 2.781097 1_655
B13 Nd1 2.781097 1_655
B14 B7 1.771413 1_544
B14 B6 1.771413 1_554
B14 B4 1.771413 1_555
B14 B5 1.771413 1_545
B14 Nd3 2.781097 1_654
B14 Nd2 2.781097 1_655
B14 Nd1 2.781097 1_644
B14 Nd0 2.781097 1_645
B15 B8 1.771413 1_555
B15 B9 1.771413 1_555
B15 Nd2 2.781097 1_555
B15 Nd0 2.781097 1_555
B15 Nd3 2.781097 1_555
B15 Nd1 2.781097 1_555
