# generated using pymatgen
data_Y5(GeN3)3
_symmetry_space_group_name_H-M   'P 1'
_cell_length_a   7.75541214
_cell_length_b   11.34026117
_cell_length_c   15.68278600
_cell_angle_alpha   90.00000000
_cell_angle_beta   90.00000000
_cell_angle_gamma   136.98029542
_symmetry_Int_Tables_number   1
_chemical_formula_structural   Y5(GeN3)3
_chemical_formula_sum   'Y20 Ge12 N36'
_cell_volume   941.01077741
_cell_formula_units_Z   4
loop_
 _symmetry_equiv_pos_site_id
 _symmetry_equiv_pos_as_xyz
  1  'x, y, z'
loop_
 _atom_site_type_symbol
 _atom_site_label
 _atom_site_symmetry_multiplicity
 _atom_site_fract_x
 _atom_site_fract_y
 _atom_site_fract_z
 _atom_site_occupancy
  Y  Y0  1  0.00000000  0.50475900  0.82889500  1
  Y  Y1  1  0.00000000  0.49524100  0.17110500  1
  Y  Y2  1  0.00000000  0.99524100  0.32889500  1
  Y  Y3  1  0.00000000  0.00475900  0.67110500  1
  Y  Y4  1  0.41769900  0.97583200  0.87118000  1
  Y  Y5  1  0.41769900  0.44186700  0.12882000  1
  Y  Y6  1  0.41769900  0.94186700  0.37118000  1
  Y  Y7  1  0.41769900  0.47583200  0.62882000  1
  Y  Y8  1  0.58230100  0.02416800  0.12882000  1
  Y  Y9  1  0.58230100  0.55813300  0.87118000  1
  Y  Y10  1  0.58230100  0.05813300  0.62882000  1
  Y  Y11  1  0.58230100  0.52416800  0.37118000  1
  Y  Y12  1  0.00000000  0.51901700  0.61095100  1
  Y  Y13  1  0.00000000  0.48098300  0.38904900  1
  Y  Y14  1  0.00000000  0.98098300  0.11095100  1
  Y  Y15  1  0.00000000  0.01901700  0.88904900  1
  Y  Y16  1  0.58589100  0.29294500  0.00000000  1
  Y  Y17  1  0.58589100  0.79294500  0.50000000  1
  Y  Y18  1  0.41410900  0.70705500  0.00000000  1
  Y  Y19  1  0.41410900  0.20705500  0.50000000  1
  Ge  Ge0  1  0.00000000  0.75509900  0.01319000  1
  Ge  Ge1  1  0.00000000  0.24490100  0.98681000  1
  Ge  Ge2  1  0.00000000  0.74490100  0.51319000  1
  Ge  Ge3  1  0.00000000  0.25509900  0.48681000  1
  Ge  Ge4  1  0.00000000  0.24932700  0.77772000  1
  Ge  Ge5  1  0.00000000  0.75067300  0.22228000  1
  Ge  Ge6  1  0.00000000  0.25067300  0.27772000  1
  Ge  Ge7  1  0.00000000  0.74932700  0.72228000  1
  Ge  Ge8  1  0.50000000  0.78145700  0.75000000  1
  Ge  Ge9  1  0.50000000  0.71854300  0.25000000  1
  Ge  Ge10  1  0.50000000  0.21854300  0.25000000  1
  Ge  Ge11  1  0.50000000  0.28145700  0.75000000  1
  N  N0  1  0.00000000  0.36076100  0.69365400  1
  N  N1  1  0.00000000  0.63923900  0.30634600  1
  N  N2  1  0.00000000  0.13923900  0.19365400  1
  N  N3  1  0.00000000  0.86076100  0.80634600  1
  N  N4  1  0.00000000  0.31728000  0.88334200  1
  N  N5  1  0.00000000  0.68272000  0.11665800  1
  N  N6  1  0.00000000  0.18272000  0.38334200  1
  N  N7  1  0.00000000  0.81728000  0.61665800  1
  N  N8  1  0.00000000  0.63484800  0.93403400  1
  N  N9  1  0.00000000  0.36515200  0.06596600  1
  N  N10  1  0.00000000  0.86515200  0.43403400  1
  N  N11  1  0.00000000  0.13484800  0.56596600  1
  N  N12  1  0.74251600  0.51415300  0.72493900  1
  N  N13  1  0.74251600  0.22836300  0.27506100  1
  N  N14  1  0.74251600  0.72836300  0.22493900  1
  N  N15  1  0.74251600  0.01415300  0.77506100  1
  N  N16  1  0.25748400  0.48584700  0.27506100  1
  N  N17  1  0.25748400  0.77163700  0.72493900  1
  N  N18  1  0.25748400  0.27163700  0.77506100  1
  N  N19  1  0.25748400  0.98584700  0.22493900  1
  N  N20  1  0.55340800  0.23378500  0.85173200  1
  N  N21  1  0.55340800  0.31962300  0.14826800  1
  N  N22  1  0.55340800  0.81962300  0.35173200  1
  N  N23  1  0.55340800  0.73378500  0.64826800  1
  N  N24  1  0.44659200  0.76621500  0.14826800  1
  N  N25  1  0.44659200  0.68037700  0.85173200  1
  N  N26  1  0.44659200  0.18037700  0.64826800  1
  N  N27  1  0.44659200  0.26621500  0.35173200  1
  N  N28  1  0.28352600  0.99903100  0.00516000  1
  N  N29  1  0.28352600  0.28449500  0.99484000  1
  N  N30  1  0.28352600  0.78449500  0.50516000  1
  N  N31  1  0.28352600  0.49903100  0.49484000  1
  N  N32  1  0.71647400  0.00096900  0.99484000  1
  N  N33  1  0.71647400  0.71550500  0.00516000  1
  N  N34  1  0.71647400  0.21550500  0.49484000  1
  N  N35  1  0.71647400  0.50096900  0.50516000  1
loop_
_geom_bond_atom_site_label_1
_geom_bond_atom_site_label_2
_geom_bond_distance
_geom_bond_site_symmetry_2
Ge0 N5 1.818448 1_555
Ge0 N8 1.844087 1_554
Ge0 N33 1.899680 1_455
Ge0 N28 1.899680 1_555
Ge1 N4 1.818448 1_555
Ge1 N9 1.844087 1_556
Ge1 N29 1.899680 1_555
Ge1 N32 1.899680 1_455
Ge2 N7 1.818448 1_555
Ge2 N10 1.844087 1_555
Ge2 N30 1.899680 1_555
Ge2 N35 1.899680 1_455
Ge3 N6 1.818448 1_555
Ge3 N11 1.844087 1_555
Ge3 N34 1.899680 1_455
Ge3 N31 1.899680 1_555
Ge4 N18 1.820601 1_555
Ge4 N15 1.820601 1_455
Ge4 N0 1.826216 1_555
Ge4 N4 1.826923 1_555
Ge5 N14 1.820601 1_455
Ge5 N19 1.820601 1_555
Ge5 N1 1.826216 1_555
Ge5 N5 1.826923 1_555
Ge6 N13 1.820601 1_455
Ge6 N16 1.820601 1_555
Ge6 N2 1.826216 1_555
Ge6 N6 1.826923 1_555
Ge7 N17 1.820601 1_555
Ge7 N12 1.820601 1_455
Ge7 N3 1.826216 1_555
Ge7 N7 1.826923 1_555
Ge8 N23 1.826660 1_555
Ge8 N25 1.826660 1_555
Ge8 N17 1.843382 1_555
Ge8 N15 1.843382 1_565
Ge9 N24 1.826660 1_555
Ge9 N22 1.826660 1_555
Ge9 N14 1.843382 1_555
Ge9 N16 1.843382 1_555
Ge10 N27 1.826660 1_555
Ge10 N21 1.826660 1_555
Ge10 N13 1.843382 1_555
Ge10 N19 1.843382 1_545
Ge11 N20 1.826660 1_555
Ge11 N26 1.826660 1_555
Ge11 N18 1.843382 1_555
Ge11 N12 1.843382 1_555
N0 Y12 2.214286 1_555
N0 Y7 2.655061 1_555
N0 Y10 2.655061 1_455
N0 Y0 2.676763 1_555
N1 Y13 2.214286 1_555
N1 Y11 2.655061 1_455
N1 Y6 2.655061 1_555
N1 Y1 2.676763 1_555
N2 Y14 2.214286 1_545
N2 Y8 2.655061 1_455
N2 Y5 2.655061 1_555
N2 Y2 2.676763 1_545
N3 Y15 2.214286 1_565
N3 Y4 2.655061 1_555
N3 Y9 2.655061 1_455
N3 Y3 2.676763 1_565
N4 Y0 2.291123 1_555
N5 Y1 2.291123 1_555
N6 Y2 2.291123 1_545
N7 Y3 2.291123 1_565
N8 Y0 2.212492 1_555
N8 Y9 2.846316 1_455
N8 Y4 2.846316 1_555
N8 Y18 2.865250 1_556
N8 Y16 2.865257 1_456
N9 Y1 2.212492 1_555
N9 Y5 2.846316 1_555
N9 Y8 2.846316 1_455
N9 Y16 2.865250 1_455
N9 Y18 2.865257 1_555
N10 Y2 2.212492 1_555
N10 Y6 2.846316 1_555
N10 Y11 2.846316 1_455
N10 Y17 2.865250 1_455
N10 Y19 2.865257 1_565
N11 Y3 2.212492 1_555
N11 Y10 2.846316 1_455
N11 Y7 2.846316 1_555
N11 Y19 2.865250 1_555
N11 Y17 2.865257 1_445
N12 Y0 2.639686 1_655
N12 Y12 2.650521 1_655
N12 Y7 2.684440 1_555
N12 Y9 2.821131 1_555
N13 Y1 2.639686 1_655
N13 Y13 2.650521 1_655
N13 Y6 2.684440 1_545
N13 Y8 2.821131 1_555
N14 Y2 2.639686 1_655
N14 Y14 2.650521 1_655
N14 Y5 2.684440 1_555
N14 Y11 2.821131 1_555
N15 Y3 2.639686 1_655
N15 Y15 2.650521 1_655
N15 Y4 2.684440 1_545
N15 Y10 2.821131 1_555
N16 Y1 2.639686 1_555
N16 Y13 2.650521 1_555
N16 Y11 2.684440 1_555
N16 Y5 2.821131 1_555
N17 Y0 2.639686 1_555
N17 Y12 2.650521 1_555
N17 Y10 2.684440 1_565
N17 Y4 2.821131 1_555
N18 Y3 2.639686 1_555
N18 Y15 2.650521 1_555
N18 Y9 2.684440 1_555
N18 Y7 2.821131 1_555
N19 Y2 2.639686 1_555
N19 Y14 2.650521 1_555
N19 Y8 2.684440 1_565
N19 Y6 2.821131 1_555
N20 Y4 2.292587 1_545
N20 Y16 2.381856 1_556
N20 Y0 2.450359 1_655
N21 Y5 2.292587 1_555
N21 Y16 2.381858 1_555
N21 Y1 2.450359 1_655
N22 Y6 2.292587 1_555
N22 Y17 2.381858 1_555
N22 Y2 2.450359 1_655
N23 Y7 2.292587 1_555
N23 Y17 2.381856 1_555
N23 Y3 2.450359 1_665
N24 Y8 2.292587 1_565
N24 Y18 2.381856 1_555
N24 Y1 2.450359 1_555
N25 Y9 2.292587 1_555
N25 Y18 2.381858 1_556
N25 Y0 2.450359 1_555
N26 Y10 2.292587 1_555
N26 Y19 2.381858 1_555
N26 Y3 2.450359 1_555
N27 Y11 2.292587 1_555
N27 Y19 2.381856 1_555
N27 Y2 2.450359 1_545
N28 Y16 2.277275 1_565
N28 Y4 2.442794 1_554
N28 Y14 2.640345 1_555
N28 Y8 2.871497 1_565
N28 Y15 2.988465 1_564
N29 Y16 2.277283 1_556
N29 Y5 2.442794 1_556
N29 Y15 2.640345 1_555
N29 Y9 2.871497 1_555
N29 Y14 2.988465 1_546
N30 Y17 2.277283 1_555
N30 Y6 2.442794 1_555
N30 Y12 2.640345 1_555
N30 Y10 2.871497 1_565
N30 Y13 2.988465 1_555
N31 Y17 2.277275 1_555
N31 Y7 2.442794 1_555
N31 Y13 2.640345 1_555
N31 Y11 2.871497 1_555
N31 Y12 2.988465 1_555
N32 Y18 2.277275 1_546
N32 Y8 2.442794 1_556
N32 Y15 2.640345 1_655
N32 Y4 2.871497 1_545
N32 Y14 2.988465 1_646
N33 Y18 2.277283 1_555
N33 Y9 2.442794 1_554
N33 Y14 2.640345 1_655
N33 Y5 2.871497 1_555
N33 Y15 2.988465 1_664
N34 Y19 2.277283 1_555
N34 Y10 2.442794 1_555
N34 Y13 2.640345 1_655
N34 Y6 2.871497 1_545
N34 Y12 2.988465 1_655
N35 Y19 2.277275 1_555
N35 Y11 2.442794 1_555
N35 Y12 2.640345 1_655
N35 Y7 2.871497 1_555
N35 Y13 2.988465 1_655
