# generated using pymatgen
data_LaSeS
_symmetry_space_group_name_H-M   'P 1'
_cell_length_a   4.18345504
_cell_length_b   8.39506535
_cell_length_c   8.39953788
_cell_angle_alpha   89.75266593
_cell_angle_beta   90.00000000
_cell_angle_gamma   90.00000000
_symmetry_Int_Tables_number   1
_chemical_formula_structural   LaSeS
_chemical_formula_sum   'La4 Se4 S4'
_cell_volume   294.99220057
_cell_formula_units_Z   4
loop_
 _symmetry_equiv_pos_site_id
 _symmetry_equiv_pos_as_xyz
  1  'x, y, z'
loop_
 _atom_site_type_symbol
 _atom_site_label
 _atom_site_symmetry_multiplicity
 _atom_site_fract_x
 _atom_site_fract_y
 _atom_site_fract_z
 _atom_site_occupancy
  La  La0  1  0.28376731  0.62743950  0.71426062  1
  La  La1  1  0.78376731  0.87256050  0.28573938  1
  La  La2  1  0.71623269  0.37256050  0.28573938  1
  La  La3  1  0.21623269  0.12743950  0.71426062  1
  Se  Se0  1  0.32158300  0.88267250  0.00236128  1
  Se  Se1  1  0.82158300  0.61732750  0.99763872  1
  Se  Se2  1  0.67841700  0.11732750  0.99763872  1
  Se  Se3  1  0.17841700  0.38267250  0.00236128  1
  S  S0  1  0.26039674  0.62576943  0.36641177  1
  S  S1  1  0.76039674  0.87423057  0.63358823  1
  S  S2  1  0.73960326  0.37423057  0.63358823  1
  S  S3  1  0.23960326  0.12576943  0.36641177  1
loop_
_geom_bond_atom_site_label_1
_geom_bond_atom_site_label_2
_geom_bond_distance
_geom_bond_site_symmetry_2
La0 S0 2.923499 1_555
La0 S2 2.937133 1_555
La0 S1 2.952181 1_555
La0 Se1 3.067500 1_455
La0 S1 3.087621 1_455
La0 S2 3.189452 1_455
La0 Se3 3.198380 1_556
La0 Se0 3.242981 1_556
La0 Se1 3.276157 1_555
La1 S1 2.923499 1_555
La1 S3 2.937133 1_665
La1 S0 2.952181 1_655
La1 Se0 3.067500 1_555
La1 S0 3.087621 1_555
La1 S3 3.189452 1_565
La1 Se2 3.198380 1_564
La1 Se1 3.242981 1_554
La1 Se0 3.276157 1_655
La2 S2 2.923499 1_555
La2 S0 2.937133 1_555
La2 S3 2.952181 1_555
La2 Se3 3.067500 1_655
La2 S3 3.087621 1_655
La2 S0 3.189452 1_655
La2 Se1 3.198380 1_554
La2 Se2 3.242981 1_554
La2 Se3 3.276157 1_555
La3 S3 2.923499 1_555
La3 S1 2.937133 1_445
La3 S2 2.952181 1_455
La3 Se2 3.067500 1_555
La3 S2 3.087621 1_555
La3 S1 3.189452 1_545
La3 Se0 3.198380 1_546
La3 Se3 3.242981 1_556
La3 Se2 3.276157 1_455
Se0 Se2 2.471847 1_564
Se1 Se3 2.471847 1_656
