# generated using pymatgen
data_Cs2H4Pd
_symmetry_space_group_name_H-M   'P 1'
_cell_length_a   6.27285900
_cell_length_b   6.27285900
_cell_length_c   8.97670600
_cell_angle_alpha   90.00000000
_cell_angle_beta   90.00000000
_cell_angle_gamma   90.00000000
_symmetry_Int_Tables_number   1
_chemical_formula_structural   Cs2H4Pd
_chemical_formula_sum   'Cs4 H8 Pd2'
_cell_volume   353.22225029
_cell_formula_units_Z   2
loop_
 _symmetry_equiv_pos_site_id
 _symmetry_equiv_pos_as_xyz
  1  'x, y, z'
loop_
 _atom_site_type_symbol
 _atom_site_label
 _atom_site_symmetry_multiplicity
 _atom_site_fract_x
 _atom_site_fract_y
 _atom_site_fract_z
 _atom_site_occupancy
  Cs  Cs0  1  0.50000100  0.00000000  0.25000000  1
  Cs  Cs1  1  0.00000000  0.50000100  0.25000000  1
  Cs  Cs2  1  0.50000100  0.00000000  0.75000000  1
  Cs  Cs3  1  0.00000000  0.50000100  0.75000000  1
  H  H0  1  0.18752500  0.18752500  0.00000000  1
  H  H1  1  0.81247500  0.81247500  0.00000000  1
  H  H2  1  0.00000000  0.00000000  0.18536200  1
  H  H3  1  0.50000100  0.50000100  0.31463800  1
  H  H4  1  0.68752500  0.31247500  0.50000100  1
  H  H5  1  0.31247500  0.68752500  0.50000100  1
  H  H6  1  0.50000100  0.50000100  0.68536300  1
  H  H7  1  0.00000000  0.00000000  0.81463800  1
  Pd  Pd0  1  0.00000000  0.00000000  0.00000000  1
  Pd  Pd1  1  0.50000100  0.50000100  0.50000100  1
loop_
_geom_bond_atom_site_label_1
_geom_bond_atom_site_label_2
_geom_bond_distance
_geom_bond_site_symmetry_2
Cs0 H2 3.189643 1_655
Cs0 H3 3.189643 1_545
Cs0 H3 3.189656 1_555
Cs0 H2 3.189656 1_555
Cs0 H1 3.203446 1_545
Cs0 H0 3.203453 1_555
Cs0 H4 3.203454 1_555
Cs0 H5 3.203458 1_545
Cs1 H3 3.189643 1_455
Cs1 H2 3.189643 1_565
Cs1 H3 3.189656 1_555
Cs1 H2 3.189656 1_555
Cs1 H1 3.203446 1_455
Cs1 H0 3.203453 1_555
Cs1 H5 3.203454 1_555
Cs1 H4 3.203458 1_455
Cs2 H6 3.189642 1_545
Cs2 H7 3.189643 1_655
Cs2 H6 3.189654 1_555
Cs2 H7 3.189656 1_555
Cs2 H4 3.203441 1_555
Cs2 H5 3.203446 1_545
Cs2 H1 3.203446 1_546
Cs2 H0 3.203453 1_556
Cs3 H6 3.189642 1_455
Cs3 H7 3.189643 1_565
Cs3 H6 3.189654 1_555
Cs3 H7 3.189656 1_555
Cs3 H5 3.203441 1_555
Cs3 H4 3.203446 1_455
Cs3 H1 3.203446 1_456
Cs3 H0 3.203453 1_556
H0 Pd0 1.663565 1_555
H1 Pd0 1.663565 1_665
H2 Pd0 1.663940 1_555
H3 Pd1 1.663949 1_555
H4 Pd1 1.663565 1_555
H5 Pd1 1.663565 1_555
H6 Pd1 1.663940 1_555
H7 Pd0 1.663940 1_556
