# generated using pymatgen
data_Ce2SiS5
_symmetry_space_group_name_H-M   'P 1'
_cell_length_a   7.62257100
_cell_length_b   8.56037900
_cell_length_c   11.25992233
_cell_angle_alpha   88.11946755
_cell_angle_beta   90.00000000
_cell_angle_gamma   90.00000000
_symmetry_Int_Tables_number   1
_chemical_formula_structural   Ce2SiS5
_chemical_formula_sum   'Ce8 Si4 S20'
_cell_volume   734.33783063
_cell_formula_units_Z   4
loop_
 _symmetry_equiv_pos_site_id
 _symmetry_equiv_pos_as_xyz
  1  'x, y, z'
loop_
 _atom_site_type_symbol
 _atom_site_label
 _atom_site_symmetry_multiplicity
 _atom_site_fract_x
 _atom_site_fract_y
 _atom_site_fract_z
 _atom_site_occupancy
  Ce  Ce0  1  0.45255400  0.48617500  0.31980800  1
  Ce  Ce1  1  0.95255400  0.51382500  0.18019200  1
  Ce  Ce2  1  0.54744600  0.51382500  0.68019200  1
  Ce  Ce3  1  0.04744600  0.48617500  0.81980800  1
  Ce  Ce4  1  0.59322300  0.24981900  0.99736000  1
  Ce  Ce5  1  0.09322300  0.75018100  0.50264000  1
  Ce  Ce6  1  0.40677700  0.75018100  0.00264000  1
  Ce  Ce7  1  0.90677700  0.24981900  0.49736000  1
  Si  Si0  1  0.91670300  0.90041600  0.83750700  1
  Si  Si1  1  0.41670300  0.09958400  0.66249300  1
  Si  Si2  1  0.08329700  0.09958400  0.16249300  1
  Si  Si3  1  0.58329700  0.90041600  0.33750700  1
  S  S0  1  0.32791300  0.45627200  0.08035300  1
  S  S1  1  0.82791300  0.54372800  0.41964700  1
  S  S2  1  0.67208700  0.54372800  0.91964700  1
  S  S3  1  0.17208700  0.45627200  0.58035300  1
  S  S4  1  0.15442200  0.04221100  0.59464200  1
  S  S5  1  0.65442200  0.95778900  0.90535800  1
  S  S6  1  0.84557800  0.95778900  0.40535800  1
  S  S7  1  0.34557800  0.04221100  0.09464200  1
  S  S8  1  0.35499200  0.27244900  0.80403500  1
  S  S9  1  0.85499200  0.72755100  0.69596500  1
  S  S10  1  0.64500800  0.72755100  0.19596500  1
  S  S11  1  0.14500800  0.27244900  0.30403500  1
  S  S12  1  0.97177900  0.26324700  0.01786700  1
  S  S13  1  0.47177900  0.73675300  0.48213300  1
  S  S14  1  0.02822100  0.73675300  0.98213300  1
  S  S15  1  0.52822100  0.26324700  0.51786700  1
  S  S16  1  0.69062800  0.28631600  0.23100300  1
  S  S17  1  0.19062800  0.71368400  0.26899700  1
  S  S18  1  0.30937200  0.71368400  0.76899700  1
  S  S19  1  0.80937200  0.28631600  0.73100300  1
loop_
_geom_bond_atom_site_label_1
_geom_bond_atom_site_label_2
_geom_bond_distance
_geom_bond_site_symmetry_2
Ce0 S16 2.707858 1_555
Ce0 S17 2.834328 1_555
Ce0 S10 2.859539 1_555
Ce0 S13 2.867182 1_555
Ce0 S0 2.878059 1_555
Ce0 S15 2.944252 1_555
Ce0 S11 2.982602 1_555
Ce0 S1 3.119187 1_555
Ce0 S3 3.632280 1_555
Ce1 S17 2.707858 1_655
Ce1 S16 2.834328 1_555
Ce1 S11 2.859539 1_655
Ce1 S12 2.867182 1_555
Ce1 S1 2.878059 1_555
Ce1 S14 2.944252 1_654
Ce1 S10 2.982602 1_555
Ce1 S0 3.119187 1_655
Ce1 S2 3.632280 1_554
Ce2 S18 2.707858 1_555
Ce2 S19 2.834328 1_555
Ce2 S8 2.859539 1_555
Ce2 S15 2.867182 1_555
Ce2 S2 2.878059 1_555
Ce2 S13 2.944252 1_555
Ce2 S9 2.982602 1_555
Ce2 S3 3.119187 1_555
Ce2 S1 3.632280 1_555
Ce3 S19 2.707858 1_455
Ce3 S18 2.834328 1_555
Ce3 S9 2.859539 1_455
Ce3 S14 2.867182 1_555
Ce3 S3 2.878059 1_555
Ce3 S12 2.944252 1_456
Ce3 S8 2.982602 1_555
Ce3 S2 3.119187 1_455
Ce3 S0 3.632280 1_556
Ce4 S2 2.704201 1_555
Ce4 S16 2.761150 1_556
Ce4 S5 2.776722 1_545
Ce4 S7 2.791763 1_556
Ce4 S8 2.836552 1_555
Ce4 S0 2.862683 1_556
Ce4 S12 2.897376 1_556
Ce5 S3 2.704201 1_555
Ce5 S17 2.761150 1_555
Ce5 S4 2.776722 1_565
Ce5 S6 2.791763 1_455
Ce5 S9 2.836552 1_455
Ce5 S1 2.862683 1_455
Ce5 S13 2.897376 1_555
Ce6 S0 2.704201 1_555
Ce6 S18 2.761150 1_554
Ce6 S7 2.776722 1_565
Ce6 S5 2.791763 1_554
Ce6 S10 2.836552 1_555
Ce6 S2 2.862683 1_554
Ce6 S14 2.897376 1_554
Ce7 S1 2.704201 1_555
Ce7 S19 2.761150 1_555
Ce7 S6 2.776722 1_545
Ce7 S4 2.791763 1_655
Ce7 S11 2.836552 1_655
Ce7 S3 2.862683 1_655
Ce7 S15 2.897376 1_555
S4 Si1 2.201489 1_555
S5 Si0 2.201489 1_555
S6 Si3 2.201489 1_555
S7 Si2 2.201489 1_555
S8 Si1 2.259620 1_555
S9 Si0 2.259620 1_555
S10 Si3 2.259620 1_555
S11 Si2 2.259620 1_555
S12 Si2 2.277639 1_655
S13 Si3 2.277639 1_555
S14 Si0 2.277639 1_455
S15 Si1 2.277639 1_555
