# generated using pymatgen
data_Ba2Fe3(P2O9)2
_symmetry_space_group_name_H-M   'P 1'
_cell_length_a   6.67401400
_cell_length_b   10.70029800
_cell_length_c   22.00389800
_cell_angle_alpha   90.00000000
_cell_angle_beta   90.00000000
_cell_angle_gamma   90.00000000
_symmetry_Int_Tables_number   1
_chemical_formula_structural   Ba2Fe3(P2O9)2
_chemical_formula_sum   'Ba8 Fe12 P16 O72'
_cell_volume   1571.38502197
_cell_formula_units_Z   4
loop_
 _symmetry_equiv_pos_site_id
 _symmetry_equiv_pos_as_xyz
  1  'x, y, z'
loop_
 _atom_site_type_symbol
 _atom_site_label
 _atom_site_symmetry_multiplicity
 _atom_site_fract_x
 _atom_site_fract_y
 _atom_site_fract_z
 _atom_site_occupancy
  Ba  Ba0  1  0.60950200  0.00428900  0.17552000  1
  Ba  Ba1  1  0.10950200  0.49571100  0.82448000  1
  Ba  Ba2  1  0.39049800  0.50428900  0.32448000  1
  Ba  Ba3  1  0.89049800  0.99571100  0.67552000  1
  Ba  Ba4  1  0.39049800  0.99571100  0.82448000  1
  Ba  Ba5  1  0.89049800  0.50428900  0.17552000  1
  Ba  Ba6  1  0.60950200  0.49571100  0.67552000  1
  Ba  Ba7  1  0.10950200  0.00428900  0.32448000  1
  Fe  Fe0  1  0.50000000  0.50000000  0.00000000  1
  Fe  Fe1  1  0.00000000  0.00000000  0.00000000  1
  Fe  Fe2  1  0.50000000  0.00000000  0.50000000  1
  Fe  Fe3  1  0.00000000  0.50000000  0.50000000  1
  Fe  Fe4  1  0.74895900  0.75008900  0.91687100  1
  Fe  Fe5  1  0.24895900  0.74991100  0.08312900  1
  Fe  Fe6  1  0.25104100  0.25008900  0.58312900  1
  Fe  Fe7  1  0.75104100  0.24991100  0.41687100  1
  Fe  Fe8  1  0.25104100  0.24991100  0.08312900  1
  Fe  Fe9  1  0.75104100  0.25008900  0.91687100  1
  Fe  Fe10  1  0.74895900  0.74991100  0.41687100  1
  Fe  Fe11  1  0.24895900  0.75008900  0.58312900  1
  P  P0  1  0.10414200  0.99977300  0.14549100  1
  P  P1  1  0.60414200  0.50022700  0.85450900  1
  P  P2  1  0.89585800  0.49977300  0.35450900  1
  P  P3  1  0.39585800  0.00022700  0.64549100  1
  P  P4  1  0.89585800  0.00022700  0.85450900  1
  P  P5  1  0.39585800  0.49977300  0.14549100  1
  P  P6  1  0.10414200  0.50022700  0.64549100  1
  P  P7  1  0.60414200  0.99977300  0.35450900  1
  P  P8  1  0.74830800  0.75053600  0.04347300  1
  P  P9  1  0.24830800  0.74946400  0.95652700  1
  P  P10  1  0.25169200  0.25053600  0.45652700  1
  P  P11  1  0.75169200  0.24946400  0.54347300  1
  P  P12  1  0.25169200  0.24946400  0.95652700  1
  P  P13  1  0.75169200  0.25053600  0.04347300  1
  P  P14  1  0.74830800  0.74946400  0.54347300  1
  P  P15  1  0.24830800  0.75053600  0.45652700  1
  O  O0  1  0.29253500  0.35866800  0.00425400  1
  O  O1  1  0.79253500  0.14133200  0.99574600  1
  O  O2  1  0.70746500  0.85866800  0.49574600  1
  O  O3  1  0.20746500  0.64133200  0.50425400  1
  O  O4  1  0.70746500  0.64133200  0.99574600  1
  O  O5  1  0.20746500  0.85866800  0.00425400  1
  O  O6  1  0.29253500  0.14133200  0.50425400  1
  O  O7  1  0.79253500  0.35866800  0.49574600  1
  O  O8  1  0.29003700  0.64029500  0.00414100  1
  O  O9  1  0.79003700  0.85970500  0.99585900  1
  O  O10  1  0.70996300  0.14029500  0.49585900  1
  O  O11  1  0.20996300  0.35970500  0.50414100  1
  O  O12  1  0.70996300  0.35970500  0.99585900  1
  O  O13  1  0.20996300  0.14029500  0.00414100  1
  O  O14  1  0.29003700  0.85970500  0.50414100  1
  O  O15  1  0.79003700  0.64029500  0.49585900  1
  O  O16  1  0.95540800  0.99990200  0.09094700  1
  O  O17  1  0.45540800  0.50009800  0.90905300  1
  O  O18  1  0.04459200  0.49990200  0.40905300  1
  O  O19  1  0.54459200  0.00009800  0.59094700  1
  O  O20  1  0.04459200  0.00009800  0.90905300  1
  O  O21  1  0.54459200  0.49990200  0.09094700  1
  O  O22  1  0.95540800  0.50009800  0.59094700  1
  O  O23  1  0.45540800  0.99990200  0.40905300  1
  O  O24  1  0.24550800  0.88457300  0.14124700  1
  O  O25  1  0.74550800  0.61542700  0.85875300  1
  O  O26  1  0.75449200  0.38457300  0.35875300  1
  O  O27  1  0.25449200  0.11542700  0.64124700  1
  O  O28  1  0.75449200  0.11542700  0.85875300  1
  O  O29  1  0.25449200  0.38457300  0.14124700  1
  O  O30  1  0.24550800  0.61542700  0.64124700  1
  O  O31  1  0.74550800  0.88457300  0.35875300  1
  O  O32  1  0.24740700  0.11416900  0.14051700  1
  O  O33  1  0.74740700  0.38583100  0.85948300  1
  O  O34  1  0.75259300  0.61416900  0.35948300  1
  O  O35  1  0.25259300  0.88583100  0.64051700  1
  O  O36  1  0.75259300  0.88583100  0.85948300  1
  O  O37  1  0.25259300  0.61416900  0.14051700  1
  O  O38  1  0.24740700  0.38583100  0.64051700  1
  O  O39  1  0.74740700  0.11416900  0.35948300  1
  O  O40  1  0.99296400  0.00115100  0.20586300  1
  O  O41  1  0.49296400  0.49884900  0.79413700  1
  O  O42  1  0.00703600  0.50115100  0.29413700  1
  O  O43  1  0.50703600  0.99884900  0.70586300  1
  O  O44  1  0.00703600  0.99884900  0.79413700  1
  O  O45  1  0.50703600  0.50115100  0.20586300  1
  O  O46  1  0.99296400  0.49884900  0.70586300  1
  O  O47  1  0.49296400  0.00115100  0.29413700  1
  O  O48  1  0.93358100  0.71996500  0.08184700  1
  O  O49  1  0.43358100  0.78003500  0.91815300  1
  O  O50  1  0.06641900  0.21996500  0.41815300  1
  O  O51  1  0.56641900  0.28003500  0.58184700  1
  O  O52  1  0.06641900  0.28003500  0.91815300  1
  O  O53  1  0.56641900  0.21996500  0.08184700  1
  O  O54  1  0.93358100  0.78003500  0.58184700  1
  O  O55  1  0.43358100  0.71996500  0.41815300  1
  O  O56  1  0.56204500  0.78078300  0.08135700  1
  O  O57  1  0.06204500  0.71921700  0.91864300  1
  O  O58  1  0.43795500  0.28078300  0.41864300  1
  O  O59  1  0.93795500  0.21921700  0.58135700  1
  O  O60  1  0.43795500  0.21921700  0.91864300  1
  O  O61  1  0.93795500  0.28078300  0.08135700  1
  O  O62  1  0.56204500  0.71921700  0.58135700  1
  O  O63  1  0.06204500  0.78078300  0.41864300  1
  O  O64  1  0.73250800  0.75236600  0.20991800  1
  O  O65  1  0.23250800  0.74763400  0.79008200  1
  O  O66  1  0.26749200  0.25236600  0.29008200  1
  O  O67  1  0.76749200  0.24763400  0.70991800  1
  O  O68  1  0.26749200  0.24763400  0.79008200  1
  O  O69  1  0.76749200  0.25236600  0.20991800  1
  O  O70  1  0.73250800  0.74763400  0.70991800  1
  O  O71  1  0.23250800  0.75236600  0.29008200  1
loop_
_geom_bond_atom_site_label_1
_geom_bond_atom_site_label_2
_geom_bond_distance
_geom_bond_site_symmetry_2
Ba0 O40 2.645102 1_555
Ba0 O47 2.723665 1_555
Ba0 O32 2.795654 1_555
Ba0 O24 2.848014 1_545
Ba0 O64 2.917767 1_545
Ba0 O69 2.954836 1_555
Ba0 O16 2.965608 1_545
Ba0 O53 3.107577 1_555
Ba0 O56 3.180089 1_545
Ba1 O41 2.645102 1_555
Ba1 O46 2.723665 1_455
Ba1 O33 2.795654 1_455
Ba1 O25 2.848014 1_455
Ba1 O65 2.917767 1_555
Ba1 O68 2.954836 1_555
Ba1 O17 2.965608 1_555
Ba1 O52 3.107577 1_555
Ba1 O57 3.180089 1_555
Ba2 O42 2.645102 1_555
Ba2 O45 2.723665 1_555
Ba2 O34 2.795654 1_555
Ba2 O26 2.848014 1_555
Ba2 O66 2.917767 1_555
Ba2 O71 2.954836 1_555
Ba2 O18 2.965608 1_555
Ba2 O55 3.107577 1_555
Ba2 O58 3.180089 1_555
Ba3 O43 2.645102 1_555
Ba3 O44 2.723665 1_655
Ba3 O35 2.795654 1_655
Ba3 O27 2.848014 1_665
Ba3 O67 2.917767 1_565
Ba3 O70 2.954836 1_555
Ba3 O19 2.965608 1_565
Ba3 O54 3.107577 1_555
Ba3 O59 3.180089 1_565
Ba4 O44 2.645102 1_555
Ba4 O43 2.723665 1_555
Ba4 O36 2.795654 1_555
Ba4 O28 2.848014 1_565
Ba4 O68 2.917767 1_565
Ba4 O65 2.954836 1_555
Ba4 O20 2.965608 1_565
Ba4 O49 3.107577 1_555
Ba4 O60 3.180089 1_565
Ba5 O45 2.645102 1_555
Ba5 O42 2.723665 1_655
Ba5 O37 2.795654 1_655
Ba5 O29 2.848014 1_655
Ba5 O69 2.917767 1_555
Ba5 O64 2.954836 1_555
Ba5 O21 2.965608 1_555
Ba5 O48 3.107577 1_555
Ba5 O61 3.180089 1_555
Ba6 O46 2.645102 1_555
Ba6 O41 2.723665 1_555
Ba6 O38 2.795654 1_555
Ba6 O30 2.848014 1_555
Ba6 O70 2.917767 1_555
Ba6 O67 2.954836 1_555
Ba6 O22 2.965608 1_555
Ba6 O51 3.107577 1_555
Ba6 O62 3.180089 1_555
Ba7 O47 2.645102 1_555
Ba7 O40 2.723665 1_455
Ba7 O39 2.795654 1_455
Ba7 O31 2.848014 1_445
Ba7 O71 2.917767 1_545
Ba7 O66 2.954836 1_555
Ba7 O23 2.965608 1_545
Ba7 O50 3.107577 1_555
Ba7 O63 3.180089 1_545
Fe0 O21 2.023197 1_555
Fe0 O17 2.023197 1_554
Fe0 O0 2.052555 1_555
Fe0 O4 2.052555 1_554
Fe0 O8 2.055609 1_555
Fe0 O12 2.055609 1_554
Fe1 O16 2.023197 1_445
Fe1 O20 2.023197 1_554
Fe1 O5 2.052555 1_545
Fe1 O1 2.052555 1_454
Fe1 O9 2.055609 1_444
Fe1 O13 2.055609 1_555
Fe2 O23 2.023197 1_545
Fe2 O19 2.023197 1_555
Fe2 O6 2.052555 1_555
Fe2 O2 2.052555 1_545
Fe2 O14 2.055609 1_545
Fe2 O10 2.055609 1_555
Fe3 O22 2.023197 1_455
Fe3 O18 2.023197 1_555
Fe3 O7 2.052555 1_455
Fe3 O3 2.052555 1_555
Fe3 O15 2.055609 1_455
Fe3 O11 2.055609 1_555
Fe4 O36 1.924798 1_555
Fe4 O25 1.926701 1_555
Fe4 O4 2.107872 1_555
Fe4 O9 2.114641 1_555
Fe4 O57 2.115851 1_655
Fe4 O49 2.129275 1_555
Fe5 O37 1.924798 1_555
Fe5 O24 1.926701 1_555
Fe5 O5 2.107872 1_555
Fe5 O8 2.114641 1_555
Fe5 O56 2.115851 1_555
Fe5 O48 2.129275 1_455
Fe6 O38 1.924798 1_555
Fe6 O27 1.926701 1_555
Fe6 O6 2.107872 1_555
Fe6 O11 2.114641 1_555
Fe6 O59 2.115851 1_455
Fe6 O51 2.129275 1_555
Fe7 O39 1.924798 1_555
Fe7 O26 1.926701 1_555
Fe7 O7 2.107872 1_555
Fe7 O10 2.114641 1_555
Fe7 O58 2.115851 1_555
Fe7 O50 2.129275 1_655
Fe8 O32 1.924798 1_555
Fe8 O29 1.926701 1_555
Fe8 O0 2.107872 1_555
Fe8 O13 2.114641 1_555
Fe8 O61 2.115851 1_455
Fe8 O53 2.129275 1_555
Fe9 O33 1.924798 1_555
Fe9 O28 1.926701 1_555
Fe9 O1 2.107872 1_555
Fe9 O12 2.114641 1_555
Fe9 O60 2.115851 1_555
Fe9 O52 2.129275 1_655
Fe10 O34 1.924798 1_555
Fe10 O31 1.926701 1_555
Fe10 O2 2.107872 1_555
Fe10 O15 2.114641 1_555
Fe10 O63 2.115851 1_655
Fe10 O55 2.129275 1_555
Fe11 O35 1.924798 1_555
Fe11 O30 1.926701 1_555
Fe11 O3 2.107872 1_555
Fe11 O14 2.114641 1_555
Fe11 O62 2.115851 1_555
Fe11 O54 2.129275 1_455
O0 P12 1.594556 1_554
O1 P13 1.594556 1_556
O2 P14 1.594556 1_555
O3 P15 1.594556 1_555
O4 P8 1.594556 1_556
O5 P9 1.594556 1_554
O6 P10 1.594556 1_555
O7 P11 1.594556 1_555
O8 P9 1.593668 1_554
O9 P8 1.593668 1_556
O10 P11 1.593668 1_555
O11 P10 1.593668 1_555
O12 P13 1.593668 1_556
O13 P12 1.593668 1_554
O14 P15 1.593668 1_555
O15 P14 1.593668 1_555
O16 P0 1.557496 1_655
O17 P1 1.557496 1_555
O18 P2 1.557496 1_455
O19 P3 1.557496 1_555
O20 P4 1.557496 1_455
O21 P5 1.557496 1_555
O22 P6 1.557496 1_655
O23 P7 1.557496 1_555
O24 P0 1.555107 1_555
O25 P1 1.555107 1_555
O26 P2 1.555107 1_555
O27 P3 1.555107 1_555
O28 P4 1.555107 1_555
O29 P5 1.555107 1_555
O30 P6 1.555107 1_555
O31 P7 1.555107 1_555
O32 P0 1.557099 1_545
O33 P1 1.557099 1_555
O34 P2 1.557099 1_555
O35 P3 1.557099 1_565
O36 P4 1.557099 1_565
O37 P5 1.557099 1_555
O38 P6 1.557099 1_555
O39 P7 1.557099 1_545
O40 P0 1.521672 1_645
O41 P1 1.521672 1_555
O42 P2 1.521672 1_455
O43 P3 1.521672 1_565
O44 P4 1.521672 1_465
O45 P5 1.521672 1_555
O46 P6 1.521672 1_655
O47 P7 1.521672 1_545
O48 P8 1.532628 1_555
O49 P9 1.532628 1_555
O50 P10 1.532628 1_555
O51 P11 1.532628 1_555
O52 P12 1.532628 1_555
O53 P13 1.532628 1_555
O54 P14 1.532628 1_555
O55 P15 1.532628 1_555
O56 P8 1.531334 1_555
O57 P9 1.531334 1_555
O58 P10 1.531334 1_555
O59 P11 1.531334 1_555
O60 P12 1.531334 1_555
O61 P13 1.531334 1_555
O62 P14 1.531334 1_555
O63 P15 1.531334 1_555
