# generated using pymatgen
data_UCrO9
_symmetry_space_group_name_H-M   'P 1'
_cell_length_a   10.22011600
_cell_length_b   7.25494800
_cell_length_c   12.15443078
_cell_angle_alpha   90.00000000
_cell_angle_beta   95.28369124
_cell_angle_gamma   90.00000000
_symmetry_Int_Tables_number   1
_chemical_formula_structural   UCrO9
_chemical_formula_sum   'U4 Cr4 O36'
_cell_volume   897.37813452
_cell_formula_units_Z   4
loop_
 _symmetry_equiv_pos_site_id
 _symmetry_equiv_pos_as_xyz
  1  'x, y, z'
loop_
 _atom_site_type_symbol
 _atom_site_label
 _atom_site_symmetry_multiplicity
 _atom_site_fract_x
 _atom_site_fract_y
 _atom_site_fract_z
 _atom_site_occupancy
  U  U0  1  0.34793100  0.69525500  0.86434300  1
  U  U1  1  0.65206900  0.19525500  0.13565700  1
  U  U2  1  0.04598400  0.70806500  0.33093200  1
  U  U3  1  0.95401600  0.20806500  0.66906800  1
  Cr  Cr0  1  0.44134200  0.19016700  0.85297600  1
  Cr  Cr1  1  0.55865800  0.69016700  0.14702400  1
  Cr  Cr2  1  0.11946000  0.20980700  0.39847100  1
  Cr  Cr3  1  0.88054000  0.70980700  0.60152900  1
  O  O0  1  0.04891900  0.39846100  0.33466000  1
  O  O1  1  0.95108100  0.89846100  0.66534000  1
  O  O2  1  0.17859700  0.68977100  0.89553500  1
  O  O3  1  0.82140300  0.18977100  0.10446500  1
  O  O4  1  0.18842600  0.70613300  0.43011000  1
  O  O5  1  0.81157400  0.20613300  0.56989000  1
  O  O6  1  0.05289200  0.01816800  0.33566200  1
  O  O7  1  0.94710800  0.51816800  0.66433800  1
  O  O8  1  0.34375400  0.00433600  0.86781000  1
  O  O9  1  0.65624600  0.50433600  0.13219000  1
  O  O10  1  0.51258900  0.69926000  0.82248200  1
  O  O11  1  0.48741100  0.19926000  0.17751800  1
  O  O12  1  0.56293200  0.19351700  0.95658900  1
  O  O13  1  0.43706800  0.69351700  0.04341100  1
  O  O14  1  0.35151100  0.38694400  0.85506000  1
  O  O15  1  0.64848900  0.88694400  0.14494000  1
  O  O16  1  0.50331600  0.17641600  0.73728300  1
  O  O17  1  0.49668400  0.67641600  0.26271700  1
  O  O18  1  0.91759800  0.70978900  0.21974100  1
  O  O19  1  0.08240200  0.20978900  0.78025900  1
  O  O20  1  0.09222300  0.21122600  0.53385300  1
  O  O21  1  0.90777700  0.71122600  0.46614700  1
  O  O22  1  0.27356800  0.21348100  0.38741200  1
  O  O23  1  0.72643200  0.71348100  0.61258800  1
  O  O24  1  0.20027200  0.64160100  0.15410000  1
  O  O25  1  0.79972800  0.14160100  0.84590000  1
  O  O26  1  0.21733700  0.81083200  0.15513700  1
  O  O27  1  0.78266300  0.31083200  0.84486300  1
  O  O28  1  0.31088000  0.69771900  0.65201200  1
  O  O29  1  0.68912000  0.19771900  0.34798800  1
  O  O30  1  0.35552900  0.53958500  0.61334700  1
  O  O31  1  0.64447100  0.03958500  0.38665300  1
  O  O32  1  0.09568800  0.17790200  0.07896300  1
  O  O33  1  0.90431200  0.67790200  0.92103700  1
  O  O34  1  0.42546900  0.55139500  0.53419400  1
  O  O35  1  0.57453100  0.05139500  0.46580600  1
loop_
_geom_bond_atom_site_label_1
_geom_bond_atom_site_label_2
_geom_bond_distance
_geom_bond_site_symmetry_2
Cr0 O16 1.597657 1_555
Cr0 O12 1.685989 1_555
Cr0 O8 1.696462 1_555
Cr0 O14 1.698783 1_555
Cr1 O17 1.597657 1_555
Cr1 O13 1.685989 1_555
Cr1 O9 1.696462 1_555
Cr1 O15 1.698783 1_555
Cr2 O22 1.593235 1_555
Cr2 O20 1.693988 1_555
Cr2 O6 1.697943 1_555
Cr2 O0 1.700463 1_555
Cr3 O23 1.593235 1_555
Cr3 O21 1.693988 1_555
Cr3 O7 1.697943 1_555
Cr3 O1 1.700463 1_555
O0 U2 2.246762 1_555
O1 U3 2.246762 1_565
O2 U0 1.805873 1_555
O3 U1 1.805873 1_555
O4 U2 1.802606 1_555
O5 U3 1.802606 1_555
O6 U2 2.251457 1_545
O7 U3 2.251457 1_555
O8 U0 2.243243 1_545
O9 U1 2.243243 1_555
O10 U0 1.802583 1_555
O11 U1 1.802583 1_555
O12 U1 2.280770 1_556
O13 U0 2.280770 1_554
O14 U0 2.240093 1_555
O15 U1 2.240093 1_565
O18 U2 1.794902 1_655
O19 U3 1.794902 1_455
O20 U3 2.263661 1_455
O21 U2 2.263661 1_655
O24 O26 1.239988 1_555
O24 U2 2.821804 1_555
O25 O27 1.239988 1_555
O25 U3 2.821804 1_555
O28 O30 1.335952 1_555
O28 U0 2.573725 1_555
O29 O31 1.335952 1_555
O29 U1 2.573725 1_555
O30 O34 1.253189 1_555
O31 O35 1.253189 1_555
