# generated using pymatgen
data_CeSe2
_symmetry_space_group_name_H-M   'P 1'
_cell_length_a   7.13436026
_cell_length_b   12.13013540
_cell_length_c   14.47797234
_cell_angle_alpha   90.00000000
_cell_angle_beta   90.00000000
_cell_angle_gamma   90.00000000
_symmetry_Int_Tables_number   1
_chemical_formula_structural   CeSe2
_chemical_formula_sum   'Ce8 Se16'
_cell_volume   1252.93467087
_cell_formula_units_Z   8
loop_
 _symmetry_equiv_pos_site_id
 _symmetry_equiv_pos_as_xyz
  1  'x, y, z'
loop_
 _atom_site_type_symbol
 _atom_site_label
 _atom_site_symmetry_multiplicity
 _atom_site_fract_x
 _atom_site_fract_y
 _atom_site_fract_z
 _atom_site_occupancy
  Ce  Ce0  1  0.76460973  0.88237383  0.61146585  1
  Ce  Ce1  1  0.23539027  0.61762617  0.61146585  1
  Ce  Ce2  1  0.23539027  0.38237383  0.88853415  1
  Ce  Ce3  1  0.76460973  0.11762617  0.88853415  1
  Ce  Ce4  1  0.23539027  0.11762617  0.38853415  1
  Ce  Ce5  1  0.76460973  0.38237383  0.38853415  1
  Ce  Ce6  1  0.76460973  0.61762617  0.11146585  1
  Ce  Ce7  1  0.23539027  0.88237383  0.11146585  1
  Se  Se0  1  0.00000000  0.75000000  0.70773422  1
  Se  Se1  1  0.00000000  0.25000000  0.79226578  1
  Se  Se2  1  0.00000000  0.25000000  0.29226578  1
  Se  Se3  1  0.00000000  0.75000000  0.20773422  1
  Se  Se4  1  0.39870374  0.50000000  0.75000000  1
  Se  Se5  1  0.60129626  -0.00000000  0.75000000  1
  Se  Se6  1  0.60129626  0.50000000  0.25000000  1
  Se  Se7  1  0.39870374  0.00000000  0.25000000  1
  Se  Se8  1  0.00000000  -0.00000000  0.50000000  1
  Se  Se9  1  0.00000000  0.50000000  0.50000000  1
  Se  Se10  1  0.00000000  0.50000000  -0.00000000  1
  Se  Se11  1  0.00000000  0.00000000  -0.00000000  1
  Se  Se12  1  0.50000000  0.75000000  0.53218882  1
  Se  Se13  1  0.50000000  0.25000000  0.96781118  1
  Se  Se14  1  0.50000000  0.25000000  0.46781118  1
  Se  Se15  1  0.50000000  0.75000000  0.03218882  1
loop_
_geom_bond_atom_site_label_1
_geom_bond_atom_site_label_2
_geom_bond_distance
_geom_bond_site_symmetry_2
Ce0 Se0 2.709457 1_655
Ce0 Se5 2.723265 1_565
Ce0 Se12 2.731219 1_555
Ce0 Se8 2.731376 1_665
Ce1 Se0 2.709457 1_555
Ce1 Se4 2.723265 1_555
Ce1 Se12 2.731219 1_555
Ce1 Se9 2.731376 1_555
Ce2 Se1 2.709457 1_555
Ce2 Se4 2.723265 1_555
Ce2 Se13 2.731219 1_555
Ce2 Se10 2.731376 1_556
Ce3 Se1 2.709457 1_655
Ce3 Se5 2.723265 1_555
Ce3 Se13 2.731219 1_555
Ce3 Se11 2.731376 1_656
Ce4 Se2 2.709457 1_555
Ce4 Se7 2.723265 1_555
Ce4 Se14 2.731219 1_555
Ce4 Se8 2.731376 1_555
Ce5 Se2 2.709457 1_655
Ce5 Se6 2.723265 1_555
Ce5 Se14 2.731219 1_555
Ce5 Se9 2.731376 1_655
Ce6 Se3 2.709457 1_655
Ce6 Se6 2.723265 1_555
Ce6 Se15 2.731219 1_555
Ce6 Se10 2.731376 1_655
Ce7 Se3 2.709457 1_555
Ce7 Se7 2.723265 1_565
Ce7 Se15 2.731219 1_555
Ce7 Se11 2.731376 1_565
