# generated using pymatgen
data_ZrGePd
_symmetry_space_group_name_H-M   'P 1'
_cell_length_a   3.96567677
_cell_length_b   6.70770844
_cell_length_c   7.73595635
_cell_angle_alpha   90.00000000
_cell_angle_beta   90.00000000
_cell_angle_gamma   90.00000000
_symmetry_Int_Tables_number   1
_chemical_formula_structural   ZrGePd
_chemical_formula_sum   'Zr4 Ge4 Pd4'
_cell_volume   205.78110787
_cell_formula_units_Z   4
loop_
 _symmetry_equiv_pos_site_id
 _symmetry_equiv_pos_as_xyz
  1  'x, y, z'
loop_
 _atom_site_type_symbol
 _atom_site_label
 _atom_site_symmetry_multiplicity
 _atom_site_fract_x
 _atom_site_fract_y
 _atom_site_fract_z
 _atom_site_occupancy
  Zr  Zr0  1  0.25000000  0.02938402  0.31545463  1
  Zr  Zr1  1  0.25000000  0.52938402  0.18454537  1
  Zr  Zr2  1  0.75000000  0.97061598  0.68454537  1
  Zr  Zr3  1  0.75000000  0.47061598  0.81545463  1
  Ge  Ge0  1  0.25000000  0.25271643  0.62282046  1
  Ge  Ge1  1  0.25000000  0.75271643  0.87717954  1
  Ge  Ge2  1  0.75000000  0.74728357  0.37717954  1
  Ge  Ge3  1  0.75000000  0.24728357  0.12282046  1
  Pd  Pd0  1  0.25000000  0.14155310  0.93850634  1
  Pd  Pd1  1  0.25000000  0.64155310  0.56149366  1
  Pd  Pd2  1  0.75000000  0.85844690  0.06149366  1
  Pd  Pd3  1  0.75000000  0.35844690  0.43850634  1
loop_
_geom_bond_atom_site_label_1
_geom_bond_atom_site_label_2
_geom_bond_distance
_geom_bond_site_symmetry_2
Ge0 Pd3 2.543160 1_555
Ge0 Pd3 2.543160 1_455
Ge0 Pd0 2.553430 1_555
Ge0 Pd1 2.651000 1_555
Ge0 Zr2 2.782132 1_445
Ge0 Zr2 2.782132 1_545
Ge0 Zr0 2.810326 1_555
Ge0 Zr3 2.879004 1_455
Ge0 Zr3 2.879004 1_555
Ge1 Pd2 2.543160 1_456
Ge1 Pd2 2.543160 1_556
Ge1 Pd1 2.553430 1_555
Ge1 Pd0 2.651000 1_565
Ge1 Zr3 2.782132 1_555
Ge1 Zr3 2.782132 1_455
Ge1 Zr1 2.810326 1_556
Ge1 Zr2 2.879004 1_455
Ge1 Zr2 2.879004 1_555
Ge2 Pd1 2.543160 1_555
Ge2 Pd1 2.543160 1_655
Ge2 Pd2 2.553430 1_555
Ge2 Pd3 2.651000 1_555
Ge2 Zr0 2.782132 1_565
Ge2 Zr0 2.782132 1_665
Ge2 Zr2 2.810326 1_555
Ge2 Zr1 2.879004 1_555
Ge2 Zr1 2.879004 1_655
Ge3 Pd0 2.543160 1_554
Ge3 Pd0 2.543160 1_654
Ge3 Pd3 2.553430 1_555
Ge3 Pd2 2.651000 1_545
Ge3 Zr1 2.782132 1_555
Ge3 Zr1 2.782132 1_655
Ge3 Zr3 2.810326 1_554
Ge3 Zr0 2.879004 1_655
Ge3 Zr0 2.879004 1_555
Pd0 Pd2 2.905690 1_546
Pd0 Pd2 2.905690 1_446
Pd0 Zr0 3.011558 1_556
Pd0 Zr2 3.017633 1_445
Pd0 Zr2 3.017633 1_545
Pd0 Zr3 3.116054 1_555
Pd0 Zr3 3.116054 1_455
Pd0 Zr1 3.223400 1_556
Pd1 Pd3 2.905690 1_555
Pd1 Pd3 2.905690 1_455
Pd1 Zr1 3.011558 1_555
Pd1 Zr3 3.017633 1_455
Pd1 Zr3 3.017633 1_555
Pd1 Zr2 3.116054 1_455
Pd1 Zr2 3.116054 1_555
Pd1 Zr0 3.223400 1_565
Pd2 Zr2 3.011558 1_554
Pd2 Zr0 3.017633 1_565
Pd2 Zr0 3.017633 1_665
Pd2 Zr1 3.116054 1_555
Pd2 Zr1 3.116054 1_655
Pd2 Zr3 3.223400 1_554
Pd3 Zr3 3.011558 1_555
Pd3 Zr1 3.017633 1_655
Pd3 Zr1 3.017633 1_555
Pd3 Zr0 3.116054 1_555
Pd3 Zr0 3.116054 1_655
Pd3 Zr2 3.223400 1_545
