# generated using pymatgen
data_Na2BSO4F3
_symmetry_space_group_name_H-M   'P 1'
_cell_length_a   6.70726500
_cell_length_b   6.72521604
_cell_length_c   6.73699542
_cell_angle_alpha   84.35842550
_cell_angle_beta   66.33330549
_cell_angle_gamma   84.24912968
_symmetry_Int_Tables_number   1
_chemical_formula_structural   Na2BSO4F3
_chemical_formula_sum   'Na4 B2 S2 O8 F6'
_cell_volume   276.36874215
_cell_formula_units_Z   2
loop_
 _symmetry_equiv_pos_site_id
 _symmetry_equiv_pos_as_xyz
  1  'x, y, z'
loop_
 _atom_site_type_symbol
 _atom_site_label
 _atom_site_symmetry_multiplicity
 _atom_site_fract_x
 _atom_site_fract_y
 _atom_site_fract_z
 _atom_site_occupancy
  Na  Na0  1  0.72986400  0.84564800  0.38475400  1
  Na  Na1  1  0.27013600  0.15435200  0.61524600  1
  Na  Na2  1  0.72301700  0.40416000  0.76585700  1
  Na  Na3  1  0.27698300  0.59584000  0.23414300  1
  B  B0  1  0.83792900  0.87530000  0.85546500  1
  B  B1  1  0.16207100  0.12470000  0.14453500  1
  S  S0  1  0.22966500  0.65063800  0.72656100  1
  S  S1  1  0.77033500  0.34936200  0.27343900  1
  O  O0  1  0.02212000  0.76127300  0.89344700  1
  O  O1  1  0.97788000  0.23872700  0.10655300  1
  O  O2  1  0.34847600  0.56338200  0.85836400  1
  O  O3  1  0.65152400  0.43661800  0.14163600  1
  O  O4  1  0.15661100  0.49972000  0.63011700  1
  O  O5  1  0.84338900  0.50028000  0.36988300  1
  O  O6  1  0.34995200  0.80145700  0.55682500  1
  O  O7  1  0.65004800  0.19854300  0.44317500  1
  F  F0  1  0.76569800  0.77312500  0.72511900  1
  F  F1  1  0.23430200  0.22687500  0.27488100  1
  F  F2  1  0.90229200  0.06756200  0.74954200  1
  F  F3  1  0.09770800  0.93243800  0.25045800  1
  F  F4  1  0.67205900  0.89885700  0.06265800  1
  F  F5  1  0.32794100  0.10114300  0.93734200  1
loop_
_geom_bond_atom_site_label_1
_geom_bond_atom_site_label_2
_geom_bond_distance
_geom_bond_site_symmetry_2
Na0 O5 2.369540 1_555
Na0 O6 2.374416 1_555
Na0 O7 2.415347 1_565
Na1 O4 2.369540 1_555
Na1 O7 2.374416 1_555
Na1 O6 2.415347 1_545
Na2 O3 2.408269 1_556
Na2 O2 2.486178 1_555
Na2 O5 2.494517 1_555
Na2 O4 2.798385 1_655
Na2 O7 2.908339 1_555
Na3 O2 2.408269 1_554
Na3 O3 2.486178 1_555
Na3 O4 2.494517 1_555
Na3 O5 2.798385 1_455
Na3 O6 2.908339 1_555
B0 F4 1.404514 1_556
B0 F0 1.415953 1_555
B0 F2 1.431986 1_565
B0 O0 1.484976 1_655
B1 F5 1.404514 1_554
B1 F1 1.415953 1_555
B1 F3 1.431986 1_545
B1 O1 1.484976 1_455
O0 S0 1.567127 1_555
O1 S1 1.567127 1_555
O2 S0 1.462802 1_555
O3 S1 1.462802 1_555
O4 S0 1.475572 1_555
O5 S1 1.475572 1_555
O6 S0 1.477364 1_555
O7 S1 1.477364 1_555
F0 Na0 2.398490 1_555
F0 Na2 2.501971 1_555
F1 Na1 2.398490 1_555
F1 Na3 2.501971 1_555
F2 Na1 2.374688 1_655
F2 Na2 2.445318 1_555
F3 Na0 2.374688 1_455
F3 Na3 2.445318 1_555
F4 Na0 2.341381 1_555
F5 Na1 2.341381 1_555
