# generated using pymatgen
data_AgH3BrN
_symmetry_space_group_name_H-M   'P 1'
_cell_length_a   6.12863400
_cell_length_b   4.37496600
_cell_length_c   6.92679367
_cell_angle_alpha   82.25192476
_cell_angle_beta   90.00000000
_cell_angle_gamma   90.00000000
_symmetry_Int_Tables_number   1
_chemical_formula_structural   AgH3BrN
_chemical_formula_sum   'Ag2 H6 Br2 N2'
_cell_volume   184.02951715
_cell_formula_units_Z   2
loop_
 _symmetry_equiv_pos_site_id
 _symmetry_equiv_pos_as_xyz
  1  'x, y, z'
loop_
 _atom_site_type_symbol
 _atom_site_label
 _atom_site_symmetry_multiplicity
 _atom_site_fract_x
 _atom_site_fract_y
 _atom_site_fract_z
 _atom_site_occupancy
  Ag  Ag0  1  0.75000000  0.32664600  0.03216400  1
  Ag  Ag1  1  0.25000000  0.67335400  0.96783600  1
  H  H0  1  0.75000000  0.36653900  0.42512600  1
  H  H1  1  0.25000000  0.63346100  0.57487400  1
  H  H2  1  0.88473000  0.66858800  0.31182200  1
  H  H3  1  0.38473000  0.33141200  0.68817800  1
  H  H4  1  0.11527000  0.33141200  0.68817800  1
  H  H5  1  0.61527000  0.66858800  0.31182200  1
  Br  Br0  1  0.75000000  0.98243100  0.76638700  1
  Br  Br1  1  0.25000000  0.01756900  0.23361300  1
  N  N0  1  0.75000000  0.53097400  0.30482900  1
  N  N1  1  0.25000000  0.46902600  0.69517100  1
loop_
_geom_bond_atom_site_label_1
_geom_bond_atom_site_label_2
_geom_bond_distance
_geom_bond_site_symmetry_2
Ag0 N0 2.195795 1_555
Ag0 Br0 2.530726 1_544
Ag0 Br0 3.193183 1_554
Ag1 N1 2.195795 1_555
Ag1 Br1 2.530726 1_566
Ag1 Br1 3.193183 1_556
H0 N0 1.024813 1_555
H1 N1 1.024813 1_555
H2 N0 1.026879 1_555
H3 N1 1.026879 1_555
H4 N1 1.026879 1_555
H5 N0 1.026879 1_555
