# generated using pymatgen
data_K(FeSb3)4
_symmetry_space_group_name_H-M   'P 1'
_cell_length_a   7.97178636
_cell_length_b   7.97171503
_cell_length_c   7.97184244
_cell_angle_alpha   109.47127246
_cell_angle_beta   109.47120673
_cell_angle_gamma   109.47074500
_symmetry_Int_Tables_number   1
_chemical_formula_structural   K(FeSb3)4
_chemical_formula_sum   'K1 Fe4 Sb12'
_cell_volume   389.98381039
_cell_formula_units_Z   1
loop_
 _symmetry_equiv_pos_site_id
 _symmetry_equiv_pos_as_xyz
  1  'x, y, z'
loop_
 _atom_site_type_symbol
 _atom_site_label
 _atom_site_symmetry_multiplicity
 _atom_site_fract_x
 _atom_site_fract_y
 _atom_site_fract_z
 _atom_site_occupancy
  K  K0  1  -0.00000000  -0.00000000  -0.00000000  1
  Fe  Fe0  1  0.50000000  0.50000000  0.50000000  1
  Fe  Fe1  1  0.50000000  -0.00000000  -0.00000000  1
  Fe  Fe2  1  -0.00000000  0.50000000  -0.00000000  1
  Fe  Fe3  1  -0.00000000  -0.00000000  0.50000000  1
  Sb  Sb0  1  0.83984495  0.66219683  0.50202924  1
  Sb  Sb1  1  0.16015505  0.33780317  0.49797076  1
  Sb  Sb2  1  0.16015898  0.66219163  0.82236948  1
  Sb  Sb3  1  0.83984102  0.33780837  0.17763052  1
  Sb  Sb4  1  0.66220918  0.50203059  0.83984724  1
  Sb  Sb5  1  0.33779082  0.49796941  0.16015276  1
  Sb  Sb6  1  0.66219458  0.82235852  0.16016569  1
  Sb  Sb7  1  0.33780542  0.17764148  0.83983431  1
  Sb  Sb8  1  0.50203075  0.83984247  0.66219887  1
  Sb  Sb9  1  0.49796925  0.16015753  0.33780113  1
  Sb  Sb10  1  0.17763211  0.83982568  0.33779504  1
  Sb  Sb11  1  0.82236789  0.16017432  0.66220496  1
loop_
_geom_bond_atom_site_label_1
_geom_bond_atom_site_label_2
_geom_bond_distance
_geom_bond_site_symmetry_2
K0 Sb3 3.441252 1_455
K0 Sb2 3.441252 1_544
K0 Sb11 3.441296 1_454
K0 Sb10 3.441296 1_545
K0 Sb4 3.441300 1_444
K0 Sb5 3.441300 1_555
K0 Sb7 3.441336 1_554
K0 Sb6 3.441336 1_445
K0 Sb8 3.441337 1_444
K0 Sb9 3.441337 1_555
K0 Sb0 3.441357 1_444
K0 Sb1 3.441357 1_555
Fe0 Sb9 2.575468 1_555
Fe0 Sb8 2.575468 1_555
Fe0 Sb0 2.575519 1_555
Fe0 Sb1 2.575519 1_555
Fe0 Sb4 2.575553 1_555
Fe0 Sb5 2.575553 1_555
Fe1 Sb9 2.575416 1_555
Fe1 Sb8 2.575416 1_544
Fe1 Sb6 2.575435 1_545
Fe1 Sb7 2.575435 1_554
Fe1 Sb2 2.575492 1_544
Fe1 Sb3 2.575492 1_555
Fe2 Sb5 2.575324 1_555
Fe2 Sb4 2.575324 1_454
Fe2 Sb3 2.575338 1_455
Fe2 Sb2 2.575338 1_554
Fe2 Sb11 2.575372 1_454
Fe2 Sb10 2.575372 1_555
Fe3 Sb1 2.575396 1_555
Fe3 Sb0 2.575396 1_445
Fe3 Sb10 2.575451 1_545
Fe3 Sb11 2.575451 1_455
Fe3 Sb6 2.575455 1_445
Fe3 Sb7 2.575455 1_555
Sb0 Sb2 2.948654 1_655
Sb0 Sb3 2.986029 1_555
Sb1 Sb3 2.948654 1_455
Sb1 Sb2 2.986029 1_555
Sb4 Sb6 2.948646 1_556
Sb4 Sb7 2.986022 1_555
Sb5 Sb7 2.948646 1_554
Sb5 Sb6 2.986022 1_555
Sb10 Sb9 2.948663 1_565
Sb10 Sb8 2.986056 1_555
Sb11 Sb8 2.948663 1_545
Sb11 Sb9 2.986056 1_555
