# generated using pymatgen
data_Cr3Ni
_symmetry_space_group_name_H-M   'P 1'
_cell_length_a   3.56927100
_cell_length_b   3.56927100
_cell_length_c   3.56927100
_cell_angle_alpha   90.00000000
_cell_angle_beta   90.00000000
_cell_angle_gamma   90.00000000
_symmetry_Int_Tables_number   1
_chemical_formula_structural   Cr3Ni
_chemical_formula_sum   'Cr3 Ni1'
_cell_volume   45.47142560
_cell_formula_units_Z   1
loop_
 _symmetry_equiv_pos_site_id
 _symmetry_equiv_pos_as_xyz
  1  'x, y, z'
loop_
 _atom_site_type_symbol
 _atom_site_label
 _atom_site_symmetry_multiplicity
 _atom_site_fract_x
 _atom_site_fract_y
 _atom_site_fract_z
 _atom_site_occupancy
  Cr  Cr0  1  0.00000000  0.50000000  0.50000000  1
  Cr  Cr1  1  0.50000000  0.50000000  0.00000000  1
  Cr  Cr2  1  0.50000000  0.00000000  0.50000000  1
  Ni  Ni0  1  0.00000000  0.00000000  0.00000000  1
loop_
_geom_bond_atom_site_label_1
_geom_bond_atom_site_label_2
_geom_bond_distance
_geom_bond_site_symmetry_2
Cr0 Cr1 2.523856 1_555
Cr0 Cr1 2.523856 1_556
Cr0 Ni0 2.523856 1_555
Cr0 Cr1 2.523856 1_455
Cr0 Ni0 2.523856 1_565
Cr0 Cr2 2.523856 1_455
Cr0 Cr2 2.523856 1_465
Cr0 Cr2 2.523856 1_555
Cr0 Ni0 2.523856 1_566
Cr0 Ni0 2.523856 1_556
Cr0 Cr2 2.523856 1_565
Cr0 Cr1 2.523856 1_456
Cr1 Ni0 2.523856 1_665
Cr1 Cr2 2.523856 1_564
Cr1 Ni0 2.523856 1_555
Cr1 Ni0 2.523856 1_565
Cr1 Cr2 2.523856 1_554
Cr1 Cr2 2.523856 1_555
Cr1 Ni0 2.523856 1_655
Cr1 Cr2 2.523856 1_565
Cr2 Ni0 2.523856 1_656
Cr2 Ni0 2.523856 1_555
Cr2 Ni0 2.523856 1_556
Cr2 Ni0 2.523856 1_655
