# generated using pymatgen
data_SbTeIr
_symmetry_space_group_name_H-M   'P 1'
_cell_length_a   6.44788170
_cell_length_b   6.44788170
_cell_length_c   6.44788170
_cell_angle_alpha   90.00000000
_cell_angle_beta   90.00000000
_cell_angle_gamma   90.00000000
_symmetry_Int_Tables_number   1
_chemical_formula_structural   SbTeIr
_chemical_formula_sum   'Sb4 Te4 Ir4'
_cell_volume   268.07183209
_cell_formula_units_Z   4
loop_
 _symmetry_equiv_pos_site_id
 _symmetry_equiv_pos_as_xyz
  1  'x, y, z'
loop_
 _atom_site_type_symbol
 _atom_site_label
 _atom_site_symmetry_multiplicity
 _atom_site_fract_x
 _atom_site_fract_y
 _atom_site_fract_z
 _atom_site_occupancy
  Sb  Sb0  1  0.87319151  0.37319151  0.12680849  1
  Sb  Sb1  1  0.37319151  0.12680849  0.87319151  1
  Sb  Sb2  1  0.12680849  0.87319151  0.37319151  1
  Sb  Sb3  1  0.62680849  0.62680849  0.62680849  1
  Te  Te0  1  0.12520138  0.62520138  0.87479862  1
  Te  Te1  1  0.62520138  0.87479862  0.12520138  1
  Te  Te2  1  0.87479862  0.12520138  0.62520138  1
  Te  Te3  1  0.37479862  0.37479862  0.37479862  1
  Ir  Ir0  1  0.49793218  0.99793218  0.50206782  1
  Ir  Ir1  1  0.99793218  0.50206782  0.49793218  1
  Ir  Ir2  1  0.50206782  0.49793218  0.99793218  1
  Ir  Ir3  1  0.00206782  0.00206782  0.00206782  1
loop_
_geom_bond_atom_site_label_1
_geom_bond_atom_site_label_2
_geom_bond_distance
_geom_bond_site_symmetry_2
Sb0 Te0 2.814461 1_654
Sb1 Te1 2.814461 1_546
Sb2 Te2 2.814461 1_465
Sb3 Te3 2.814461 1_555
Ir0 Sb1 2.657764 1_565
Ir0 Sb3 2.657764 1_555
Ir0 Sb2 2.657764 1_555
Ir0 Te2 2.684888 1_565
Ir0 Te1 2.684888 1_555
Ir0 Te3 2.684888 1_565
Ir1 Sb3 2.657764 1_555
Ir1 Sb2 2.657764 1_655
Ir1 Sb0 2.657764 1_555
Ir1 Te0 2.684888 1_655
Ir1 Te3 2.684888 1_655
Ir1 Te2 2.684888 1_555
Ir2 Sb3 2.657764 1_555
Ir2 Sb0 2.657764 1_556
Ir2 Sb1 2.657764 1_555
Ir2 Te1 2.684888 1_556
Ir2 Te0 2.684888 1_555
Ir2 Te3 2.684888 1_556
Ir3 Sb0 2.657764 1_455
Ir3 Sb1 2.657764 1_554
Ir3 Sb2 2.657764 1_545
Ir3 Te2 2.684888 1_454
Ir3 Te0 2.684888 1_544
Ir3 Te1 2.684888 1_445
