# generated using pymatgen
data_NaSm2Se3
_symmetry_space_group_name_H-M   'P 1'
_cell_length_a   7.25817788
_cell_length_b   7.25817788
_cell_length_c   7.25817788
_cell_angle_alpha   146.75137313
_cell_angle_beta   132.20513536
_cell_angle_gamma   59.46355832
_symmetry_Int_Tables_number   1
_chemical_formula_structural   NaSm2Se3
_chemical_formula_sum   'Na1 Sm2 Se3'
_cell_volume   153.92674603
_cell_formula_units_Z   1
loop_
 _symmetry_equiv_pos_site_id
 _symmetry_equiv_pos_as_xyz
  1  'x, y, z'
loop_
 _atom_site_type_symbol
 _atom_site_label
 _atom_site_symmetry_multiplicity
 _atom_site_fract_x
 _atom_site_fract_y
 _atom_site_fract_z
 _atom_site_occupancy
  Na  Na0  1  -0.00000000  -0.00000000  -0.00000000  1
  Sm  Sm0  1  0.66383695  0.66383695  -0.00000000  1
  Sm  Sm1  1  0.33616305  0.33616305  -0.00000000  1
  Se  Se0  1  0.50000000  -0.00000000  0.50000000  1
  Se  Se1  1  0.16858845  0.66858845  0.50000000  1
  Se  Se2  1  0.83141155  0.33141155  0.50000000  1
loop_
_geom_bond_atom_site_label_1
_geom_bond_atom_site_label_2
_geom_bond_distance
_geom_bond_site_symmetry_2
Na0 Se0 2.940292 1_454
Na0 Se0 2.940292 1_555
Na0 Se2 2.971213 1_444
Na0 Se2 2.971213 1_455
Na0 Se1 2.971213 1_544
Na0 Se1 2.971213 1_555
Se0 Sm0 2.928673 1_545
Se0 Sm1 2.928673 1_545
Se0 Sm0 2.928673 1_556
Se0 Sm1 2.928673 1_556
Se1 Sm0 2.940902 1_556
Se1 Sm0 2.940902 1_455
Se1 Sm1 2.962086 1_555
Se1 Sm1 2.962086 1_566
Se2 Sm1 2.940902 1_555
Se2 Sm1 2.940902 1_656
Se2 Sm0 2.962086 1_556
Se2 Sm0 2.962086 1_545
