# generated using pymatgen
data_Rb2Ba8Mg(Sb3O)2
_symmetry_space_group_name_H-M   'P 1'
_cell_length_a   9.45475856
_cell_length_b   9.59831140
_cell_length_c   10.16467323
_cell_angle_alpha   112.60769090
_cell_angle_beta   116.19641122
_cell_angle_gamma   93.58013274
_symmetry_Int_Tables_number   1
_chemical_formula_structural   Rb2Ba8Mg(Sb3O)2
_chemical_formula_sum   'Rb2 Ba8 Mg1 Sb6 O2'
_cell_volume   733.47179888
_cell_formula_units_Z   1
loop_
 _symmetry_equiv_pos_site_id
 _symmetry_equiv_pos_as_xyz
  1  'x, y, z'
loop_
 _atom_site_type_symbol
 _atom_site_label
 _atom_site_symmetry_multiplicity
 _atom_site_fract_x
 _atom_site_fract_y
 _atom_site_fract_z
 _atom_site_occupancy
  Rb  Rb0  1  0.00699800  0.00535100  0.00748500  1
  Rb  Rb1  1  0.43901300  0.39521400  0.89638100  1
  Ba  Ba0  1  0.50171900  0.68444200  0.69838700  1
  Ba  Ba1  1  0.18757800  0.95611400  0.67072400  1
  Ba  Ba2  1  0.87080900  0.10276100  0.37003400  1
  Ba  Ba3  1  0.98743700  0.55073800  0.74901700  1
  Ba  Ba4  1  0.49616100  0.31017500  0.29181400  1
  Ba  Ba5  1  0.70478200  0.20329200  0.70009600  1
  Ba  Ba6  1  0.00616800  0.47626600  0.28072300  1
  Ba  Ba7  1  0.29502000  0.78304700  0.28783500  1
  Mg  Mg0  1  0.65870000  0.73507400  0.18842000  1
  Sb  Sb0  1  0.84358800  0.66143400  0.03362400  1
  Sb  Sb1  1  0.61331100  0.09525000  0.99249100  1
  Sb  Sb2  1  0.13442300  0.35137500  0.98581100  1
  Sb  Sb3  1  0.41217100  0.88224600  0.02704200  1
  Sb  Sb4  1  0.27074200  0.23472000  0.47424600  1
  Sb  Sb5  1  0.74324900  0.76661700  0.50319900  1
  O  O0  1  0.76727600  0.30147000  0.52525400  1
  O  O1  1  0.24656900  0.72584400  0.49241500  1
loop_
_geom_bond_atom_site_label_1
_geom_bond_atom_site_label_2
_geom_bond_distance
_geom_bond_site_symmetry_2
Rb0 Sb2 3.581601 1_554
Rb0 Sb0 3.708663 1_445
Rb0 Sb4 3.796473 1_555
Rb0 Sb1 3.824139 1_454
Rb0 Sb3 4.022980 1_545
Rb0 Sb5 4.088313 1_444
Rb1 Sb2 3.427945 1_555
Rb1 Sb4 3.449704 1_555
Rb1 Sb1 3.645996 1_555
Ba0 O1 2.580890 1_555
Ba0 Sb1 3.637405 1_565
Ba0 Sb3 3.647338 1_556
Ba0 Sb5 3.840793 1_555
Ba0 Sb4 3.932094 1_555
Ba1 O1 2.539222 1_555
Ba1 Sb1 3.609707 1_565
Ba1 Sb3 3.674468 1_556
Ba1 Sb5 3.768949 1_455
Ba1 Sb4 4.121626 1_565
Ba1 Sb2 4.149785 1_565
Ba2 O0 2.523562 1_555
Ba2 Mg0 3.274634 1_545
Ba2 Sb4 3.443584 1_655
Ba2 Sb1 3.489420 1_554
Ba2 Sb3 3.907815 1_545
Ba3 O0 2.498912 1_555
Ba3 Sb2 3.508029 1_655
Ba3 Sb5 3.918148 1_555
Ba3 Sb3 3.963367 1_656
Ba4 O0 2.648973 1_555
Ba4 Sb4 3.582554 1_555
Ba4 Sb1 3.629671 1_554
Ba4 Sb2 3.640155 1_554
Ba4 Sb3 3.735137 1_545
Ba4 Sb5 4.039892 1_555
Ba5 O0 2.557501 1_555
Ba5 Sb2 3.555996 1_655
Ba5 Sb4 3.817225 1_555
Ba5 Sb1 3.896636 1_555
Ba5 Sb5 4.011087 1_545
Ba6 O1 2.563924 1_555
Ba6 Sb2 3.538599 1_554
Ba6 Sb4 3.922783 1_555
Ba6 Sb1 4.026465 1_454
Ba7 O1 2.554024 1_555
Ba7 Sb3 3.682633 1_555
Ba7 Sb2 3.770486 1_554
Ba7 Sb5 3.864566 1_555
Ba7 Sb4 4.078041 1_565
Mg0 Sb0 2.785455 1_555
Mg0 Sb5 2.816921 1_555
Mg0 Sb3 2.989345 1_555
Mg0 Rb1 3.167394 1_554
Sb1 Sb3 2.928473 1_546
