# generated using pymatgen
data_MgAl8Fe3(PO5)8
_symmetry_space_group_name_H-M   'P 1'
_cell_length_a   7.19291228
_cell_length_b   12.46477611
_cell_length_c   7.42005680
_cell_angle_alpha   90.00866740
_cell_angle_beta   89.74890345
_cell_angle_gamma   91.54898947
_symmetry_Int_Tables_number   1
_chemical_formula_structural   MgAl8Fe3(PO5)8
_chemical_formula_sum   'Mg1 Al8 Fe3 P8 O40'
_cell_volume   665.01826702
_cell_formula_units_Z   1
loop_
 _symmetry_equiv_pos_site_id
 _symmetry_equiv_pos_as_xyz
  1  'x, y, z'
loop_
 _atom_site_type_symbol
 _atom_site_label
 _atom_site_symmetry_multiplicity
 _atom_site_fract_x
 _atom_site_fract_y
 _atom_site_fract_z
 _atom_site_occupancy
  Mg  Mg0  1  0.25000000  0.25000000  0.50000000  1
  Al  Al0  1  0.37454100  0.11167200  0.77046400  1
  Al  Al1  1  0.87640800  0.61363500  0.77299200  1
  Al  Al2  1  0.86319600  0.13319400  0.26763100  1
  Al  Al3  1  0.37293900  0.63532000  0.27251000  1
  Al  Al4  1  0.12545900  0.38832800  0.22953600  1
  Al  Al5  1  0.62359200  0.88636500  0.22700800  1
  Al  Al6  1  0.63680400  0.36680600  0.73236900  1
  Al  Al7  1  0.12706100  0.86468000  0.72749000  1
  Fe  Fe0  1  0.75000000  0.75000000  0.50000000  1
  Fe  Fe1  1  0.00147600  0.99992600  0.00218700  1
  Fe  Fe2  1  0.49852400  0.50007400  0.99781300  1
  P  P0  1  0.74765300  0.00315000  0.62030200  1
  P  P1  1  0.24630000  0.50142300  0.61638800  1
  P  P2  1  0.49540700  0.24574800  0.11843600  1
  P  P3  1  0.00153600  0.74611000  0.11995200  1
  P  P4  1  0.75234700  0.49685000  0.37969800  1
  P  P5  1  0.25370000  0.99857700  0.38361200  1
  P  P6  1  0.00459300  0.25425200  0.88156400  1
  P  P7  1  0.49846400  0.75389000  0.88004800  1
  O  O0  1  0.47877800  0.24794600  0.67373300  1
  O  O1  1  0.96989100  0.74795700  0.66406200  1
  O  O2  1  0.78034500  0.00118900  0.16136700  1
  O  O3  1  0.28083200  0.50357800  0.16143800  1
  O  O4  1  0.02122200  0.25205400  0.32626700  1
  O  O5  1  0.53010900  0.75204300  0.33593800  1
  O  O6  1  0.71965500  0.49881100  0.83863300  1
  O  O7  1  0.21916800  0.99642200  0.83856200  1
  O  O8  1  0.15801300  0.20998100  0.75348500  1
  O  O9  1  0.64724000  0.70750800  0.74832900  1
  O  O10  1  0.10628300  0.04572400  0.25167200  1
  O  O11  1  0.60194000  0.54284700  0.25022600  1
  O  O12  1  0.34198700  0.29001900  0.24651500  1
  O  O13  1  0.85276000  0.79249200  0.25167100  1
  O  O14  1  0.39371700  0.45427600  0.74832800  1
  O  O15  1  0.89806000  0.95715300  0.74977400  1
  O  O16  1  0.18746100  0.40720600  0.49044200  1
  O  O17  1  0.69230300  0.90613000  0.49533500  1
  O  O18  1  0.55692200  0.34318000  0.99569500  1
  O  O19  1  0.05671800  0.84327800  0.99510200  1
  O  O20  1  0.31253900  0.09279400  0.50955800  1
  O  O21  1  0.80769700  0.59387000  0.50466500  1
  O  O22  1  0.94307800  0.15682000  0.00430500  1
  O  O23  1  0.44328200  0.65672200  0.00489800  1
  O  O24  1  0.84400300  0.28834900  0.76296400  1
  O  O25  1  0.33561800  0.78816900  0.76559100  1
  O  O26  1  0.91388500  0.46331100  0.26248000  1
  O  O27  1  0.41451300  0.96149900  0.26657000  1
  O  O28  1  0.65599700  0.21165100  0.23703600  1
  O  O29  1  0.16438200  0.71183100  0.23440900  1
  O  O30  1  0.58611500  0.03668900  0.73752000  1
  O  O31  1  0.08548700  0.53850100  0.73343000  1
  O  O32  1  0.82513900  0.09460500  0.50339900  1
  O  O33  1  0.32972300  0.59381600  0.50523300  1
  O  O34  1  0.42025700  0.15408400  0.00380700  1
  O  O35  1  0.92086300  0.65561000  0.00549700  1
  O  O36  1  0.67486100  0.40539500  0.49660100  1
  O  O37  1  0.17027700  0.90618400  0.49476700  1
  O  O38  1  0.07974300  0.34591600  0.99619300  1
  O  O39  1  0.57913700  0.84439000  0.99450300  1
loop_
_geom_bond_atom_site_label_1
_geom_bond_atom_site_label_2
_geom_bond_distance
_geom_bond_site_symmetry_2
Mg0 O20 2.023647 1_555
Mg0 O16 2.023647 1_555
Mg0 O8 2.048373 1_555
Mg0 O12 2.048373 1_555
Mg0 O0 2.095536 1_555
Mg0 O4 2.095536 1_555
Al0 O30 1.822872 1_555
Al0 O34 1.838677 1_556
Al0 O7 1.864539 1_545
Al0 O0 1.972167 1_555
Al0 O20 2.000968 1_555
Al0 O8 2.011996 1_555
Al1 O31 1.815799 1_655
Al1 O35 1.829707 1_556
Al1 O6 1.861492 1_555
Al1 O1 1.960479 1_555
Al1 O9 2.055917 1_555
Al1 O21 2.066626 1_555
Al2 O28 1.819598 1_555
Al2 O32 1.831851 1_555
Al2 O4 1.894580 1_655
Al2 O2 1.906554 1_555
Al2 O22 2.053232 1_555
Al2 O10 2.088358 1_655
Al3 O29 1.822360 1_555
Al3 O33 1.825661 1_555
Al3 O5 1.879334 1_555
Al3 O3 1.939158 1_555
Al3 O11 2.041904 1_555
Al3 O23 2.062576 1_555
Al4 O26 1.822872 1_455
Al4 O38 1.838677 1_554
Al4 O3 1.864539 1_555
Al4 O4 1.972167 1_555
Al4 O16 2.000968 1_555
Al4 O12 2.011996 1_555
Al5 O27 1.815799 1_555
Al5 O39 1.829707 1_554
Al5 O2 1.861492 1_565
Al5 O5 1.960479 1_555
Al5 O13 2.055917 1_555
Al5 O17 2.066626 1_555
Al6 O24 1.819598 1_555
Al6 O36 1.831851 1_555
Al6 O0 1.894580 1_555
Al6 O6 1.906554 1_555
Al6 O18 2.053232 1_555
Al6 O14 2.088358 1_555
Al7 O25 1.822360 1_555
Al7 O37 1.825661 1_555
Al7 O1 1.879334 1_455
Al7 O7 1.939158 1_555
Al7 O15 2.041904 1_455
Al7 O19 2.062576 1_555
Fe0 O1 2.000822 1_555
Fe0 O5 2.000822 1_555
Fe0 O17 2.001161 1_555
Fe0 O21 2.001161 1_555
Fe0 O9 2.046775 1_555
Fe0 O13 2.046775 1_555
Fe1 O2 1.977402 1_465
Fe1 O7 1.978594 1_554
Fe1 O19 2.003737 1_554
Fe1 O22 2.011367 1_465
Fe1 O10 2.075996 1_565
Fe1 O15 2.082277 1_454
Fe2 O6 1.977402 1_555
Fe2 O3 1.978594 1_556
Fe2 O23 2.003737 1_556
Fe2 O18 2.011367 1_555
Fe2 O14 2.075996 1_555
Fe2 O11 2.082277 1_556
O8 P6 1.564944 1_555
O9 P7 1.568049 1_555
O10 P5 1.571983 1_545
O11 P4 1.569996 1_555
O12 P2 1.564944 1_555
O13 P3 1.568049 1_655
O14 P1 1.571983 1_555
O15 P0 1.569996 1_565
O16 P1 1.551748 1_555
O17 P0 1.567697 1_565
O18 P2 1.570962 1_556
O19 P3 1.566470 1_556
O20 P5 1.551748 1_545
O21 P4 1.567697 1_555
O22 P6 1.570962 1_654
O23 P7 1.566470 1_554
O24 P6 1.524766 1_655
O25 P7 1.520447 1_555
O26 P4 1.516124 1_555
O27 P5 1.525052 1_555
O28 P2 1.524766 1_555
O29 P3 1.520447 1_555
O30 P0 1.516124 1_555
O31 P1 1.525052 1_555
O32 P0 1.524567 1_555
O33 P1 1.524869 1_555
O34 P2 1.513753 1_555
O35 P3 1.516288 1_655
O36 P4 1.524567 1_555
O37 P5 1.524869 1_555
O38 P6 1.513753 1_555
O39 P7 1.516288 1_555
