# generated using pymatgen
data_Fe7Sb3P3(BrO6)3
_symmetry_space_group_name_H-M   'P 1'
_cell_length_a   5.25691000
_cell_length_b   15.23995300
_cell_length_c   26.22030200
_cell_angle_alpha   90.00000000
_cell_angle_beta   90.00000000
_cell_angle_gamma   90.00000000
_symmetry_Int_Tables_number   1
_chemical_formula_structural   Fe7Sb3P3(BrO6)3
_chemical_formula_sum   'Fe28 Sb12 P12 Br12 O72'
_cell_volume   2100.64110270
_cell_formula_units_Z   4
loop_
 _symmetry_equiv_pos_site_id
 _symmetry_equiv_pos_as_xyz
  1  'x, y, z'
loop_
 _atom_site_type_symbol
 _atom_site_label
 _atom_site_symmetry_multiplicity
 _atom_site_fract_x
 _atom_site_fract_y
 _atom_site_fract_z
 _atom_site_occupancy
  Fe  Fe0  1  0.19125400  0.35547000  0.07196900  1
  Fe  Fe1  1  0.69125400  0.14453000  0.42803100  1
  Fe  Fe2  1  0.80874600  0.85547000  0.92803100  1
  Fe  Fe3  1  0.30874600  0.64453000  0.57196900  1
  Fe  Fe4  1  0.80874600  0.64453000  0.92803100  1
  Fe  Fe5  1  0.30874600  0.85547000  0.57196900  1
  Fe  Fe6  1  0.19125400  0.14453000  0.07196900  1
  Fe  Fe7  1  0.69125400  0.35547000  0.42803100  1
  Fe  Fe8  1  0.19814300  0.93215600  0.28497300  1
  Fe  Fe9  1  0.69814300  0.56784400  0.21502700  1
  Fe  Fe10  1  0.80185700  0.43215600  0.71502700  1
  Fe  Fe11  1  0.30185700  0.06784400  0.78497300  1
  Fe  Fe12  1  0.80185700  0.06784400  0.71502700  1
  Fe  Fe13  1  0.30185700  0.43215600  0.78497300  1
  Fe  Fe14  1  0.19814300  0.56784400  0.28497300  1
  Fe  Fe15  1  0.69814300  0.93215600  0.21502700  1
  Fe  Fe16  1  0.30729300  0.96270700  0.89205100  1
  Fe  Fe17  1  0.80729300  0.53729300  0.60794900  1
  Fe  Fe18  1  0.69270700  0.46270700  0.10794900  1
  Fe  Fe19  1  0.19270700  0.03729300  0.39205100  1
  Fe  Fe20  1  0.69270700  0.03729300  0.10794900  1
  Fe  Fe21  1  0.19270700  0.46270700  0.39205100  1
  Fe  Fe22  1  0.30729300  0.53729300  0.89205100  1
  Fe  Fe23  1  0.80729300  0.96270700  0.60794900  1
  Fe  Fe24  1  0.58610100  0.75000000  0.75005200  1
  Fe  Fe25  1  0.08610100  0.75000000  0.74994800  1
  Fe  Fe26  1  0.41389900  0.25000000  0.24994800  1
  Fe  Fe27  1  0.91389900  0.25000000  0.25005200  1
  Sb  Sb0  1  0.74951600  0.44164600  0.97957600  1
  Sb  Sb1  1  0.24951600  0.05835400  0.52042400  1
  Sb  Sb2  1  0.25048400  0.94164600  0.02042400  1
  Sb  Sb3  1  0.75048400  0.55835400  0.47957600  1
  Sb  Sb4  1  0.25048400  0.55835400  0.02042400  1
  Sb  Sb5  1  0.75048400  0.94164600  0.47957600  1
  Sb  Sb6  1  0.74951600  0.05835400  0.97957600  1
  Sb  Sb7  1  0.24951600  0.44164600  0.52042400  1
  Sb  Sb8  1  0.72228000  0.75000000  0.29027400  1
  Sb  Sb9  1  0.22228000  0.75000000  0.20972600  1
  Sb  Sb10  1  0.27772000  0.25000000  0.70972600  1
  Sb  Sb11  1  0.77772000  0.25000000  0.79027400  1
  P  P0  1  0.81450300  0.75000000  0.62667300  1
  P  P1  1  0.31450300  0.75000000  0.87332700  1
  P  P2  1  0.18549700  0.25000000  0.37332700  1
  P  P3  1  0.68549700  0.25000000  0.12667300  1
  P  P4  1  0.68686000  0.06555200  0.31174600  1
  P  P5  1  0.18686000  0.43444800  0.18825400  1
  P  P6  1  0.31314000  0.56555200  0.68825400  1
  P  P7  1  0.81314000  0.93444800  0.81174600  1
  P  P8  1  0.31314000  0.93444800  0.68825400  1
  P  P9  1  0.81314000  0.56555200  0.81174600  1
  P  P10  1  0.68686000  0.43444800  0.31174600  1
  P  P11  1  0.18686000  0.06555200  0.18825400  1
  Br  Br0  1  0.36391500  0.13112600  0.87790900  1
  Br  Br1  1  0.86391500  0.36887400  0.62209100  1
  Br  Br2  1  0.63608500  0.63112600  0.12209100  1
  Br  Br3  1  0.13608500  0.86887400  0.37790900  1
  Br  Br4  1  0.63608500  0.86887400  0.12209100  1
  Br  Br5  1  0.13608500  0.63112600  0.37790900  1
  Br  Br6  1  0.36391500  0.36887400  0.87790900  1
  Br  Br7  1  0.86391500  0.13112600  0.62209100  1
  Br  Br8  1  0.37769200  0.75000000  0.49420200  1
  Br  Br9  1  0.87769200  0.75000000  0.00579800  1
  Br  Br10  1  0.62230800  0.25000000  0.50579800  1
  Br  Br11  1  0.12230800  0.25000000  0.99420200  1
  O  O0  1  0.05049500  0.52911200  0.95451300  1
  O  O1  1  0.55049500  0.97088800  0.54548700  1
  O  O2  1  0.94950500  0.02911200  0.04548700  1
  O  O3  1  0.44950500  0.47088800  0.45451300  1
  O  O4  1  0.94950500  0.47088800  0.04548700  1
  O  O5  1  0.44950500  0.02911200  0.45451300  1
  O  O6  1  0.05049500  0.97088800  0.95451300  1
  O  O7  1  0.55049500  0.52911200  0.54548700  1
  O  O8  1  0.46934900  0.83451500  0.25309300  1
  O  O9  1  0.96934900  0.66548500  0.24690700  1
  O  O10  1  0.53065100  0.33451500  0.74690700  1
  O  O11  1  0.03065100  0.16548500  0.75309300  1
  O  O12  1  0.53065100  0.16548500  0.74690700  1
  O  O13  1  0.03065100  0.33451500  0.75309300  1
  O  O14  1  0.46934900  0.66548500  0.25309300  1
  O  O15  1  0.96934900  0.83451500  0.24690700  1
  O  O16  1  0.54912700  0.55547900  0.96353200  1
  O  O17  1  0.04912700  0.94452100  0.53646800  1
  O  O18  1  0.45087300  0.05547900  0.03646800  1
  O  O19  1  0.95087300  0.44452100  0.46353200  1
  O  O20  1  0.45087300  0.44452100  0.03646800  1
  O  O21  1  0.95087300  0.05547900  0.46353200  1
  O  O22  1  0.54912700  0.94452100  0.96353200  1
  O  O23  1  0.04912700  0.55547900  0.53646800  1
  O  O24  1  0.83579400  0.75000000  0.68665100  1
  O  O25  1  0.33579400  0.75000000  0.81334900  1
  O  O26  1  0.16420600  0.25000000  0.31334900  1
  O  O27  1  0.66420600  0.25000000  0.18665100  1
  O  O28  1  0.66356800  0.83170200  0.60832400  1
  O  O29  1  0.16356800  0.66829800  0.89167600  1
  O  O30  1  0.33643200  0.33170200  0.39167600  1
  O  O31  1  0.83643200  0.16829800  0.10832400  1
  O  O32  1  0.33643200  0.16829800  0.39167600  1
  O  O33  1  0.83643200  0.33170200  0.10832400  1
  O  O34  1  0.66356800  0.66829800  0.60832400  1
  O  O35  1  0.16356800  0.83170200  0.89167600  1
  O  O36  1  0.08242500  0.75000000  0.60172600  1
  O  O37  1  0.58242500  0.75000000  0.89827400  1
  O  O38  1  0.91757500  0.25000000  0.39827400  1
  O  O39  1  0.41757500  0.25000000  0.10172600  1
  O  O40  1  0.41776700  0.02761700  0.32381300  1
  O  O41  1  0.91776700  0.47238300  0.17618700  1
  O  O42  1  0.58223300  0.52761700  0.67618700  1
  O  O43  1  0.08223300  0.97238300  0.82381300  1
  O  O44  1  0.58223300  0.97238300  0.67618700  1
  O  O45  1  0.08223300  0.52761700  0.82381300  1
  O  O46  1  0.41776700  0.47238300  0.32381300  1
  O  O47  1  0.91776700  0.02761700  0.17618700  1
  O  O48  1  0.83694700  0.99739100  0.27998600  1
  O  O49  1  0.33694700  0.50260900  0.22001400  1
  O  O50  1  0.16305300  0.49739100  0.72001400  1
  O  O51  1  0.66305300  0.00260900  0.77998600  1
  O  O52  1  0.16305300  0.00260900  0.72001400  1
  O  O53  1  0.66305300  0.49739100  0.77998600  1
  O  O54  1  0.83694700  0.50260900  0.27998600  1
  O  O55  1  0.33694700  0.99739100  0.22001400  1
  O  O56  1  0.83644400  0.07841000  0.36220500  1
  O  O57  1  0.33644400  0.42159000  0.13779500  1
  O  O58  1  0.16355600  0.57841000  0.63779500  1
  O  O59  1  0.66355600  0.92159000  0.86220500  1
  O  O60  1  0.16355600  0.92159000  0.63779500  1
  O  O61  1  0.66355600  0.57841000  0.86220500  1
  O  O62  1  0.83644400  0.42159000  0.36220500  1
  O  O63  1  0.33644400  0.07841000  0.13779500  1
  O  O64  1  0.66397800  0.15505900  0.28211800  1
  O  O65  1  0.16397800  0.34494100  0.21788200  1
  O  O66  1  0.33602200  0.65505900  0.71788200  1
  O  O67  1  0.83602200  0.84494100  0.78211800  1
  O  O68  1  0.33602200  0.84494100  0.71788200  1
  O  O69  1  0.83602200  0.65505900  0.78211800  1
  O  O70  1  0.66397800  0.34494100  0.28211800  1
  O  O71  1  0.16397800  0.15505900  0.21788200  1
loop_
_geom_bond_atom_site_label_1
_geom_bond_atom_site_label_2
_geom_bond_distance
_geom_bond_site_symmetry_2
Fe0 O33 2.125816 1_455
Fe0 O20 2.137978 1_555
Fe0 O57 2.139379 1_555
Fe0 O39 2.146596 1_555
Fe0 O4 2.278414 1_455
Fe1 O32 2.125816 1_555
Fe1 O21 2.137978 1_555
Fe1 O56 2.139379 1_555
Fe1 O38 2.146596 1_555
Fe1 O5 2.278414 1_555
Fe2 O35 2.125816 1_655
Fe2 O22 2.137978 1_555
Fe2 O59 2.139379 1_555
Fe2 O37 2.146596 1_555
Fe2 O6 2.278414 1_655
Fe3 O34 2.125816 1_555
Fe3 O23 2.137978 1_555
Fe3 O58 2.139379 1_555
Fe3 O36 2.146596 1_555
Fe3 O7 2.278414 1_555
Fe4 O29 2.125816 1_655
Fe4 O16 2.137978 1_555
Fe4 O61 2.139379 1_555
Fe4 O37 2.146596 1_555
Fe4 O0 2.278414 1_655
Fe5 O28 2.125816 1_555
Fe5 O17 2.137978 1_555
Fe5 O60 2.139379 1_555
Fe5 O36 2.146596 1_555
Fe5 O1 2.278414 1_555
Fe6 O31 2.125816 1_455
Fe6 O18 2.137978 1_555
Fe6 O63 2.139379 1_555
Fe6 O39 2.146596 1_555
Fe6 O2 2.278414 1_455
Fe7 O30 2.125816 1_555
Fe7 O19 2.137978 1_555
Fe7 O62 2.139379 1_555
Fe7 O38 2.146596 1_555
Fe7 O3 2.278414 1_555
Fe8 O55 2.102823 1_555
Fe8 O40 2.118161 1_565
Fe8 O48 2.147285 1_455
Fe8 O15 2.158029 1_455
Fe8 O8 2.223881 1_555
Fe9 O54 2.102823 1_555
Fe9 O41 2.118161 1_555
Fe9 O49 2.147285 1_555
Fe9 O14 2.158029 1_555
Fe9 O9 2.223881 1_555
Fe10 O53 2.102823 1_555
Fe10 O42 2.118161 1_555
Fe10 O50 2.147285 1_655
Fe10 O13 2.158029 1_655
Fe10 O10 2.223881 1_555
Fe11 O52 2.102823 1_555
Fe11 O43 2.118161 1_545
Fe11 O51 2.147285 1_555
Fe11 O12 2.158029 1_555
Fe11 O11 2.223881 1_555
Fe12 O51 2.102823 1_555
Fe12 O44 2.118161 1_545
Fe12 O52 2.147285 1_655
Fe12 O11 2.158029 1_655
Fe12 O12 2.223881 1_555
Fe13 O50 2.102823 1_555
Fe13 O45 2.118161 1_555
Fe13 O53 2.147285 1_555
Fe13 O10 2.158029 1_555
Fe13 O13 2.223881 1_555
Fe14 O49 2.102823 1_555
Fe14 O46 2.118161 1_555
Fe14 O54 2.147285 1_455
Fe14 O9 2.158029 1_455
Fe14 O14 2.223881 1_555
Fe15 O48 2.102823 1_555
Fe15 O47 2.118161 1_565
Fe15 O55 2.147285 1_555
Fe15 O8 2.158029 1_555
Fe15 O15 2.223881 1_555
Fe16 O59 2.124291 1_555
Fe16 O6 2.126087 1_555
Fe16 O35 2.134714 1_555
Fe16 O43 2.150077 1_555
Fe16 O22 2.281632 1_555
Fe17 O58 2.124291 1_655
Fe17 O7 2.126087 1_555
Fe17 O34 2.134714 1_555
Fe17 O42 2.150077 1_555
Fe17 O23 2.281632 1_655
Fe18 O57 2.124291 1_555
Fe18 O4 2.126087 1_555
Fe18 O33 2.134714 1_555
Fe18 O41 2.150077 1_555
Fe18 O20 2.281632 1_555
Fe19 O56 2.124291 1_455
Fe19 O5 2.126087 1_555
Fe19 O32 2.134714 1_555
Fe19 O40 2.150077 1_555
Fe19 O21 2.281632 1_455
Fe20 O63 2.124291 1_555
Fe20 O2 2.126087 1_555
Fe20 O31 2.134714 1_555
Fe20 O47 2.150077 1_555
Fe20 O18 2.281632 1_555
Fe21 O62 2.124291 1_455
Fe21 O3 2.126087 1_555
Fe21 O30 2.134714 1_555
Fe21 O46 2.150077 1_555
Fe21 O19 2.281632 1_455
Fe22 O61 2.124291 1_555
Fe22 O0 2.126087 1_555
Fe22 O29 2.134714 1_555
Fe22 O45 2.150077 1_555
Fe22 O16 2.281632 1_555
Fe23 O60 2.124291 1_655
Fe23 O1 2.126087 1_555
Fe23 O28 2.134714 1_555
Fe23 O44 2.150077 1_555
Fe23 O17 2.281632 1_655
Fe24 O25 2.118002 1_555
Fe24 O24 2.118137 1_555
Fe24 O69 2.127563 1_555
Fe24 O67 2.127563 1_555
Fe24 O68 2.129155 1_555
Fe24 O66 2.129155 1_555
Fe25 O24 2.118002 1_455
Fe25 O25 2.118137 1_555
Fe25 O66 2.127563 1_555
Fe25 O68 2.127563 1_555
Fe25 O69 2.129155 1_455
Fe25 O67 2.129155 1_455
Fe26 O27 2.118002 1_555
Fe26 O26 2.118137 1_555
Fe26 O65 2.127563 1_555
Fe26 O71 2.127563 1_555
Fe26 O70 2.129155 1_555
Fe26 O64 2.129155 1_555
Fe27 O26 2.118002 1_655
Fe27 O27 2.118137 1_555
Fe27 O64 2.127563 1_555
Fe27 O70 2.127563 1_555
Fe27 O71 2.129155 1_655
Fe27 O65 2.129155 1_655
Br0 Fe16 2.610371 1_545
Br0 Fe11 2.640941 1_555
Br1 Fe17 2.610371 1_555
Br1 Fe10 2.640941 1_555
Br2 Fe18 2.610371 1_555
Br2 Fe9 2.640941 1_555
Br3 Fe19 2.610371 1_565
Br3 Fe8 2.640941 1_555
Br4 Fe20 2.610371 1_565
Br4 Fe15 2.640941 1_555
Br5 Fe21 2.610371 1_555
Br5 Fe14 2.640941 1_555
Br6 Fe22 2.610371 1_555
Br6 Fe13 2.640941 1_555
Br7 Fe23 2.610371 1_545
Br7 Fe12 2.640941 1_555
Br8 Fe5 2.621600 1_555
Br8 Fe3 2.621600 1_555
Br9 Fe4 2.621600 1_554
Br9 Fe2 2.621600 1_554
Br10 Fe7 2.621600 1_555
Br10 Fe1 2.621600 1_555
Br11 Fe0 2.621600 1_556
Br11 Fe6 2.621600 1_556
O0 Sb4 2.071372 1_556
O0 Sb0 2.170739 1_455
O1 Sb5 2.071372 1_555
O1 Sb1 2.170739 1_565
O2 Sb6 2.071372 1_554
O2 Sb2 2.170739 1_645
O3 Sb7 2.071372 1_555
O3 Sb3 2.170739 1_555
O4 Sb0 2.071372 1_554
O4 Sb4 2.170739 1_655
O5 Sb1 2.071372 1_555
O5 Sb5 2.170739 1_545
O6 Sb2 2.071372 1_556
O6 Sb6 2.170739 1_465
O7 Sb3 2.071372 1_555
O7 Sb7 2.170739 1_555
O8 Sb8 2.092202 1_555
O8 Sb9 2.153805 1_555
O9 Sb9 2.092202 1_655
O9 Sb8 2.153805 1_555
O10 Sb10 2.092202 1_555
O10 Sb11 2.153805 1_555
O11 Sb11 2.092202 1_455
O11 Sb10 2.153805 1_555
O12 Sb10 2.092202 1_555
O12 Sb11 2.153805 1_555
O13 Sb11 2.092202 1_455
O13 Sb10 2.153805 1_555
O14 Sb8 2.092202 1_555
O14 Sb9 2.153805 1_555
O15 Sb9 2.092202 1_655
O15 Sb8 2.153805 1_555
O16 Sb0 2.072738 1_555
O16 Sb4 2.166073 1_556
O17 Sb1 2.072738 1_565
O17 Sb5 2.166073 1_455
O18 Sb2 2.072738 1_545
O18 Sb6 2.166073 1_554
O19 Sb3 2.072738 1_555
O19 Sb7 2.166073 1_655
O20 Sb4 2.072738 1_555
O20 Sb0 2.166073 1_554
O21 Sb5 2.072738 1_545
O21 Sb1 2.166073 1_655
O22 Sb6 2.072738 1_565
O22 Sb2 2.166073 1_556
O23 Sb7 2.072738 1_555
O23 Sb3 2.166073 1_455
O24 P0 1.576619 1_555
O25 P1 1.576619 1_555
O26 P2 1.576619 1_555
O27 P3 1.576619 1_555
O28 P0 1.552868 1_555
O29 P1 1.552868 1_555
O30 P2 1.552868 1_555
O31 P3 1.552868 1_555
O32 P2 1.552868 1_555
O33 P3 1.552868 1_555
O34 P0 1.552868 1_555
O35 P1 1.552868 1_555
O36 P0 1.552926 1_455
O37 P1 1.552926 1_555
O38 P2 1.552926 1_655
O39 P3 1.552926 1_555
O40 P4 1.560586 1_555
O41 P5 1.560586 1_655
O42 P6 1.560586 1_555
O43 P7 1.560586 1_455
O44 P8 1.560586 1_555
O45 P9 1.560586 1_455
O46 P10 1.560586 1_555
O47 P11 1.560586 1_655
O48 P4 1.547591 1_565
O49 P5 1.547591 1_555
O50 P6 1.547591 1_555
O51 P7 1.547591 1_545
O52 P8 1.547591 1_545
O53 P9 1.547591 1_555
O54 P10 1.547591 1_555
O55 P11 1.547591 1_565
O56 P4 1.551517 1_555
O57 P5 1.551517 1_555
O58 P6 1.551517 1_555
O59 P7 1.551517 1_555
O60 P8 1.551517 1_555
O61 P9 1.551517 1_555
O62 P10 1.551517 1_555
O63 P11 1.551517 1_555
O64 P4 1.574387 1_555
O65 P5 1.574387 1_555
O66 P6 1.574387 1_555
O67 P7 1.574387 1_555
O68 P8 1.574387 1_555
O69 P9 1.574387 1_555
O70 P10 1.574387 1_555
O71 P11 1.574387 1_555
