# generated using pymatgen
data_ZnCoO2
_symmetry_space_group_name_H-M   'P 1'
_cell_length_a   3.05070800
_cell_length_b   8.01666502
_cell_length_c   8.21941825
_cell_angle_alpha   94.32068966
_cell_angle_beta   96.32998063
_cell_angle_gamma   91.60267102
_symmetry_Int_Tables_number   1
_chemical_formula_structural   ZnCoO2
_chemical_formula_sum   'Zn4 Co4 O8'
_cell_volume   199.09140582
_cell_formula_units_Z   4
loop_
 _symmetry_equiv_pos_site_id
 _symmetry_equiv_pos_as_xyz
  1  'x, y, z'
loop_
 _atom_site_type_symbol
 _atom_site_label
 _atom_site_symmetry_multiplicity
 _atom_site_fract_x
 _atom_site_fract_y
 _atom_site_fract_z
 _atom_site_occupancy
  Zn  Zn0  1  0.85612300  0.58615100  0.23947400  1
  Zn  Zn1  1  0.14387700  0.41384900  0.76052600  1
  Zn  Zn2  1  0.26967700  0.24597600  0.38893500  1
  Zn  Zn3  1  0.73032300  0.75402400  0.61106500  1
  Co  Co0  1  0.49792200  0.75349400  0.93160800  1
  Co  Co1  1  0.20918300  0.91934900  0.28079600  1
  Co  Co2  1  0.79081700  0.08065100  0.71920400  1
  Co  Co3  1  0.50207800  0.24650600  0.06839200  1
  O  O0  1  0.96203800  0.24912400  0.91999600  1
  O  O1  1  0.30203100  0.89836000  0.74520400  1
  O  O2  1  0.69796900  0.10164000  0.25479600  1
  O  O3  1  0.03796200  0.75087600  0.08000400  1
  O  O4  1  0.65624900  0.57326200  0.75346500  1
  O  O5  1  0.73064200  0.78636300  0.38761100  1
  O  O6  1  0.34375100  0.42673800  0.24653500  1
  O  O7  1  0.26935800  0.21363700  0.61238900  1
loop_
_geom_bond_atom_site_label_1
_geom_bond_atom_site_label_2
_geom_bond_distance
_geom_bond_site_symmetry_2
Co0 O3 1.940393 1_656
Co0 O3 1.958769 1_556
Co0 O1 2.039192 1_555
Co0 O4 2.083532 1_555
Co1 O3 2.062843 1_555
Co1 O5 2.089501 1_555
Co1 O5 2.091714 1_455
Co1 O2 2.097666 1_565
Co1 O2 2.171302 1_465
Co2 O0 2.062843 1_555
Co2 O7 2.089501 1_555
Co2 O7 2.091714 1_655
Co2 O1 2.097666 1_545
Co2 O1 2.171302 1_645
Co3 O0 1.940393 1_454
Co3 O0 1.958769 1_554
Co3 O2 2.039192 1_555
Co3 O6 2.083532 1_555
O0 Zn1 2.037108 1_655
O1 Zn3 2.114630 1_555
O1 Zn3 2.206187 1_455
O2 Zn2 2.114630 1_555
O2 Zn2 2.206187 1_655
O3 Zn0 2.037108 1_455
O4 Zn3 1.953585 1_555
O4 Zn1 1.986961 1_655
O4 Zn1 1.999817 1_555
O5 Zn3 1.874210 1_555
O5 Zn0 2.011939 1_555
O6 Zn2 1.953585 1_555
O6 Zn0 1.986961 1_455
O6 Zn0 1.999817 1_555
O7 Zn2 1.874210 1_555
O7 Zn1 2.011939 1_555
