# generated using pymatgen
data_Li10Zn(PS4)4
_symmetry_space_group_name_H-M   'P 1'
_cell_length_a   6.50015200
_cell_length_b   10.00007694
_cell_length_c   10.11282770
_cell_angle_alpha   75.32759768
_cell_angle_beta   89.77653472
_cell_angle_gamma   89.14134564
_symmetry_Int_Tables_number   1
_chemical_formula_structural   Li10Zn(PS4)4
_chemical_formula_sum   'Li10 Zn1 P4 S16'
_cell_volume   635.84640874
_cell_formula_units_Z   1
loop_
 _symmetry_equiv_pos_site_id
 _symmetry_equiv_pos_as_xyz
  1  'x, y, z'
loop_
 _atom_site_type_symbol
 _atom_site_label
 _atom_site_symmetry_multiplicity
 _atom_site_fract_x
 _atom_site_fract_y
 _atom_site_fract_z
 _atom_site_occupancy
  Li  Li0  1  0.30515800  0.10555300  0.13302600  1
  Li  Li1  1  0.66486900  0.36619700  0.89167300  1
  Li  Li2  1  0.69949200  0.88235000  0.37324400  1
  Li  Li3  1  0.96804900  0.68063500  0.12929900  1
  Li  Li4  1  0.67527100  0.11092000  0.63195500  1
  Li  Li5  1  0.31696600  0.86338000  0.88967900  1
  Li  Li6  1  0.31911800  0.38577000  0.36778300  1
  Li  Li7  1  0.13276400  0.24174400  0.74863100  1
  Li  Li8  1  0.83221200  0.74318600  0.77190100  1
  Li  Li9  1  0.84858400  0.25713200  0.24728800  1
  Zn  Zn0  1  0.30127300  0.62869500  0.61113200  1
  P  P0  1  0.79443800  0.50351500  0.49425500  1
  P  P1  1  0.81618000  0.99910600  0.00293900  1
  P  P2  1  0.17187900  0.48581800  0.99153500  1
  P  P3  1  0.17516200  0.99801300  0.50967700  1
  S  S0  1  0.10967800  0.93242700  0.06196400  1
  S  S1  1  0.10618600  0.45353000  0.54962000  1
  S  S2  1  0.79695900  0.16498900  0.83301300  1
  S  S3  1  0.74968400  0.66098700  0.32980700  1
  S  S4  1  0.65082500  0.54699100  0.66557400  1
  S  S5  1  0.67650700  0.06322700  0.16145400  1
  S  S6  1  0.30197000  0.31906000  0.93852700  1
  S  S7  1  0.32741300  0.84092400  0.44700800  1
  S  S8  1  0.18479500  0.66244500  0.82052200  1
  S  S9  1  0.18897000  0.16549400  0.34157300  1
  S  S10  1  0.86734900  0.46344800  0.04483700  1
  S  S11  1  0.87763000  0.93773800  0.56050700  1
  S  S12  1  0.32450600  0.54734600  0.13825500  1
  S  S13  1  0.31472900  0.04743500  0.67285200  1
  S  S14  1  0.67464100  0.82876700  0.96983500  1
  S  S15  1  0.67539600  0.32841600  0.45539100  1
loop_
_geom_bond_atom_site_label_1
_geom_bond_atom_site_label_2
_geom_bond_distance
_geom_bond_site_symmetry_2
Li0 S0 2.414876 1_545
Li0 S9 2.447852 1_555
Li0 S5 2.449796 1_555
Li0 S6 2.509863 1_554
Li1 S2 2.384649 1_555
Li1 S10 2.427871 1_556
Li1 S6 2.433633 1_555
Li1 S4 2.531331 1_555
Li2 S3 2.381065 1_555
Li2 S11 2.408649 1_555
Li2 S5 2.431703 1_565
Li2 S7 2.537117 1_555
Li3 S3 2.439053 1_555
Li3 S0 2.616722 1_655
Li3 S10 2.619516 1_555
Li3 S12 2.646006 1_655
Li3 S14 2.676096 1_554
Li4 S2 2.373704 1_555
Li4 S11 2.410333 1_545
Li4 S15 2.439559 1_555
Li4 S13 2.443454 1_555
Li5 S0 2.427149 1_556
Li5 S14 2.455746 1_555
Li5 S8 2.456238 1_555
Li5 S13 2.480103 1_565
Li6 S9 2.447763 1_555
Li6 S12 2.470006 1_555
Li6 S15 2.489152 1_555
Li6 S1 2.517860 1_555
Li7 S2 2.405360 1_455
Li7 S6 2.507887 1_555
Li7 S1 2.529459 1_555
Li7 S13 2.537782 1_555
Li8 S8 2.428671 1_655
Li8 S11 2.519474 1_555
Li8 S14 2.571715 1_555
Li8 S4 2.746557 1_555
Li9 S9 2.481407 1_655
Li9 S10 2.515747 1_555
Li9 S5 2.586461 1_555
Li9 S15 2.630943 1_555
P0 S3 1.998368 1_555
P0 S15 2.052033 1_555
P0 S4 2.102112 1_555
P0 S1 2.122826 1_655
P1 S14 2.048990 1_554
P1 S0 2.051749 1_655
P1 S2 2.066826 1_564
P1 S5 2.072936 1_565
P2 S12 2.014104 1_556
P2 S6 2.047031 1_555
P2 S10 2.050085 1_456
P2 S8 2.138595 1_555
P3 S13 2.056349 1_565
P3 S11 2.058674 1_455
P3 S9 2.064964 1_565
P3 S7 2.074044 1_555
S1 Zn0 2.384968 1_555
S4 Zn0 2.420650 1_555
S7 Zn0 2.347767 1_555
S8 Zn0 2.347964 1_555
