# generated using pymatgen
data_Fe3W10C3
_symmetry_space_group_name_H-M   'P 1'
_cell_length_a   7.91346189
_cell_length_b   7.91346189
_cell_length_c   8.05996100
_cell_angle_alpha   90.00000000
_cell_angle_beta   90.00000000
_cell_angle_gamma   119.99999910
_symmetry_Int_Tables_number   1
_chemical_formula_structural   Fe3W10C3
_chemical_formula_sum   'Fe6 W20 C6'
_cell_volume   437.11590257
_cell_formula_units_Z   2
loop_
 _symmetry_equiv_pos_site_id
 _symmetry_equiv_pos_as_xyz
  1  'x, y, z'
loop_
 _atom_site_type_symbol
 _atom_site_label
 _atom_site_symmetry_multiplicity
 _atom_site_fract_x
 _atom_site_fract_y
 _atom_site_fract_z
 _atom_site_occupancy
  Fe  Fe0  1  0.45376000  0.54624000  0.25000000  1
  Fe  Fe1  1  0.45376000  0.90752000  0.25000000  1
  Fe  Fe2  1  0.09248000  0.54624000  0.25000000  1
  Fe  Fe3  1  0.54624000  0.45376000  0.75000000  1
  Fe  Fe4  1  0.54624000  0.09248000  0.75000000  1
  Fe  Fe5  1  0.90752000  0.45376000  0.75000000  1
  W  W0  1  0.12045700  0.87954300  0.25000000  1
  W  W1  1  0.12045700  0.24091300  0.25000000  1
  W  W2  1  0.75908700  0.87954300  0.25000000  1
  W  W3  1  0.87954300  0.12045700  0.75000000  1
  W  W4  1  0.87954300  0.75908700  0.75000000  1
  W  W5  1  0.24091300  0.12045700  0.75000000  1
  W  W6  1  0.20948200  0.79051800  0.93355500  1
  W  W7  1  0.20948200  0.41896400  0.93355500  1
  W  W8  1  0.58103600  0.79051800  0.93355500  1
  W  W9  1  0.79051800  0.20948200  0.06644500  1
  W  W10  1  0.79051800  0.58103600  0.06644500  1
  W  W11  1  0.41896400  0.20948200  0.06644500  1
  W  W12  1  0.79051800  0.20948200  0.43355500  1
  W  W13  1  0.79051800  0.58103600  0.43355500  1
  W  W14  1  0.41896400  0.20948200  0.43355500  1
  W  W15  1  0.20948200  0.79051800  0.56644500  1
  W  W16  1  0.20948200  0.41896400  0.56644500  1
  W  W17  1  0.58103600  0.79051800  0.56644500  1
  W  W18  1  0.00000000  0.00000000  0.50000000  1
  W  W19  1  0.00000000  0.00000000  0.00000000  1
  C  C0  1  0.50000000  0.50000000  0.50000000  1
  C  C1  1  0.50000000  0.00000000  0.50000000  1
  C  C2  1  0.00000000  0.50000000  0.50000000  1
  C  C3  1  0.50000000  0.50000000  0.00000000  1
  C  C4  1  0.50000000  0.00000000  0.00000000  1
  C  C5  1  0.00000000  0.50000000  0.00000000  1
loop_
_geom_bond_atom_site_label_1
_geom_bond_atom_site_label_2
_geom_bond_distance
_geom_bond_site_symmetry_2
Fe0 W2 2.534150 1_555
Fe0 W1 2.534150 1_555
Fe1 W0 2.534147 1_555
Fe1 W2 2.534155 1_555
Fe2 W0 2.534147 1_555
Fe2 W1 2.534155 1_555
Fe3 W4 2.534150 1_555
Fe3 W5 2.534150 1_555
Fe4 W3 2.534147 1_555
Fe4 W5 2.534155 1_555
Fe5 W3 2.534147 1_555
Fe5 W4 2.534155 1_555
W0 W19 2.605022 1_565
W0 W18 2.605022 1_565
W1 W18 2.605017 1_555
W1 W19 2.605017 1_555
W10 W19 2.920786 1_665
W11 W19 2.920786 1_555
W12 W18 2.920786 1_655
W13 W18 2.920786 1_665
W14 W18 2.920786 1_555
W15 W18 2.920786 1_565
W16 W18 2.920786 1_555
W17 W18 2.920786 1_665
W18 W5 2.605017 1_555
W18 W2 2.605017 1_445
W18 W4 2.605017 1_445
W18 W3 2.605022 1_455
W19 W5 2.605017 1_554
W19 W2 2.605017 1_445
W19 W4 2.605017 1_444
W19 W3 2.605022 1_454
W19 W6 2.920786 1_544
W19 W9 2.920786 1_455
W19 W8 2.920786 1_444
W19 W7 2.920786 1_554
C0 Fe0 2.112315 1_555
C0 Fe3 2.112315 1_555
C0 W16 2.123479 1_555
C0 W14 2.123479 1_555
C0 W13 2.123479 1_555
C0 W17 2.123479 1_555
C1 Fe4 2.112315 1_555
C1 Fe1 2.112315 1_545
C1 W17 2.123479 1_545
C1 W14 2.123479 1_555
C1 W15 2.123479 1_545
C1 W12 2.123479 1_555
C2 Fe2 2.112315 1_555
C2 Fe5 2.112315 1_455
C2 W13 2.123479 1_455
C2 W16 2.123479 1_555
C2 W12 2.123479 1_455
C2 W15 2.123479 1_555
C3 Fe0 2.112315 1_555
C3 Fe3 2.112315 1_554
C3 W7 2.123479 1_554
C3 W11 2.123479 1_555
C3 W10 2.123479 1_555
C3 W8 2.123479 1_554
C4 Fe1 2.112315 1_545
C4 Fe4 2.112315 1_554
C4 W8 2.123479 1_544
C4 W11 2.123479 1_555
C4 W6 2.123479 1_544
C4 W9 2.123479 1_555
C5 Fe2 2.112315 1_555
C5 Fe5 2.112315 1_454
C5 W10 2.123479 1_455
C5 W7 2.123479 1_554
C5 W9 2.123479 1_455
C5 W6 2.123479 1_554
