# generated using pymatgen
data_BaMg6Ni
_symmetry_space_group_name_H-M   'P 1'
_cell_length_a   5.00208800
_cell_length_b   6.02448800
_cell_length_c   13.68925300
_cell_angle_alpha   90.00000000
_cell_angle_beta   90.00000000
_cell_angle_gamma   90.00000000
_symmetry_Int_Tables_number   1
_chemical_formula_structural   BaMg6Ni
_chemical_formula_sum   'Ba2 Mg12 Ni2'
_cell_volume   412.52590104
_cell_formula_units_Z   2
loop_
 _symmetry_equiv_pos_site_id
 _symmetry_equiv_pos_as_xyz
  1  'x, y, z'
loop_
 _atom_site_type_symbol
 _atom_site_label
 _atom_site_symmetry_multiplicity
 _atom_site_fract_x
 _atom_site_fract_y
 _atom_site_fract_z
 _atom_site_occupancy
  Ba  Ba0  1  0.50000000  0.50000000  0.20181300  1
  Ba  Ba1  1  0.50000000  0.00000000  0.70181300  1
  Mg  Mg0  1  0.50000000  0.24521400  0.44357600  1
  Mg  Mg1  1  0.50000000  0.75478600  0.44357600  1
  Mg  Mg2  1  0.00000000  0.76405800  0.07529500  1
  Mg  Mg3  1  0.00000000  0.23594200  0.07529500  1
  Mg  Mg4  1  0.00000000  0.00000000  0.29426400  1
  Mg  Mg5  1  0.00000000  0.50000000  0.37105400  1
  Mg  Mg6  1  0.50000000  0.74521400  0.94357600  1
  Mg  Mg7  1  0.50000000  0.25478600  0.94357600  1
  Mg  Mg8  1  0.00000000  0.26405800  0.57529500  1
  Mg  Mg9  1  0.00000000  0.73594200  0.57529500  1
  Mg  Mg10  1  0.00000000  0.50000000  0.79426400  1
  Mg  Mg11  1  0.00000000  0.00000000  0.87105400  1
  Ni  Ni0  1  0.50000000  0.00000000  0.09512300  1
  Ni  Ni1  1  0.50000000  0.50000000  0.59512300  1
loop_
_geom_bond_atom_site_label_1
_geom_bond_atom_site_label_2
_geom_bond_distance
_geom_bond_site_symmetry_2
Ba0 Ni0 3.347640 1_565
Ba0 Ni0 3.347640 1_555
Ba0 Mg5 3.409209 1_555
Ba0 Mg5 3.409209 1_655
Ba0 Mg2 3.433004 1_655
Ba0 Mg2 3.433004 1_555
Ba0 Mg3 3.433004 1_555
Ba0 Mg3 3.433004 1_655
Ba0 Mg0 3.648183 1_555
Ba0 Mg1 3.648183 1_555
Ba1 Ni1 3.347640 1_555
Ba1 Ni1 3.347640 1_545
Ba1 Mg11 3.409209 1_655
Ba1 Mg11 3.409209 1_555
Ba1 Mg9 3.433004 1_545
Ba1 Mg8 3.433004 1_555
Ba1 Mg8 3.433004 1_655
Ba1 Mg9 3.433004 1_645
Ba1 Mg7 3.648183 1_555
Ba1 Mg6 3.648183 1_545
Mg0 Ni1 2.580680 1_555
Mg0 Mg1 2.954578 1_545
Mg0 Mg8 3.085353 1_555
Mg0 Mg8 3.085353 1_655
Mg0 Mg5 3.097887 1_555
Mg0 Mg5 3.097887 1_655
Mg1 Ni1 2.580680 1_555
Mg1 Mg9 3.085353 1_555
Mg1 Mg9 3.085353 1_655
Mg1 Mg5 3.097887 1_555
Mg1 Mg5 3.097887 1_655
Mg2 Mg3 2.842859 1_565
Mg2 Ni0 2.889526 1_565
Mg2 Ni0 2.889526 1_465
Mg2 Mg6 3.085353 1_454
Mg2 Mg6 3.085353 1_554
Mg2 Mg3 3.181629 1_555
Mg2 Mg4 3.317469 1_565
Mg3 Ni0 2.889526 1_555
Mg3 Ni0 2.889526 1_455
Mg3 Mg7 3.085353 1_554
Mg3 Mg7 3.085353 1_454
Mg3 Mg4 3.317469 1_555
Mg4 Mg5 3.190397 1_555
Mg4 Mg5 3.190397 1_545
Mg5 Mg8 3.136488 1_555
Mg5 Mg9 3.136488 1_555
Mg6 Ni0 2.580680 1_566
Mg6 Mg7 2.954578 1_555
Mg7 Ni0 2.580680 1_556
Mg8 Mg9 2.842859 1_555
Mg8 Ni1 2.889526 1_455
Mg8 Ni1 2.889526 1_555
Mg8 Mg9 3.181629 1_545
Mg9 Ni1 2.889526 1_455
Mg9 Ni1 2.889526 1_555
Mg10 Mg11 3.190397 1_555
Mg10 Mg11 3.190397 1_565
Mg10 Mg8 3.317469 1_555
Mg10 Mg9 3.317469 1_555
Mg11 Mg7 3.097887 1_455
Mg11 Mg7 3.097887 1_555
Mg11 Mg6 3.097887 1_445
Mg11 Mg6 3.097887 1_545
Mg11 Mg3 3.136488 1_556
Mg11 Mg2 3.136488 1_546
