# generated using pymatgen
data_ZnFe2O5
_symmetry_space_group_name_H-M   'P 1'
_cell_length_a   5.57547502
_cell_length_b   5.57547502
_cell_length_c   11.03824200
_cell_angle_alpha   90.00000000
_cell_angle_beta   90.00000000
_cell_angle_gamma   140.60332246
_symmetry_Int_Tables_number   1
_chemical_formula_structural   ZnFe2O5
_chemical_formula_sum   'Zn2 Fe4 O10'
_cell_volume   217.78219771
_cell_formula_units_Z   2
loop_
 _symmetry_equiv_pos_site_id
 _symmetry_equiv_pos_as_xyz
  1  'x, y, z'
loop_
 _atom_site_type_symbol
 _atom_site_label
 _atom_site_symmetry_multiplicity
 _atom_site_fract_x
 _atom_site_fract_y
 _atom_site_fract_z
 _atom_site_occupancy
  Zn  Zn0  1  0.10618600  0.89381400  0.75000000  1
  Zn  Zn1  1  0.89381400  0.10618600  0.25000000  1
  Fe  Fe0  1  0.79716800  0.20283200  0.59986500  1
  Fe  Fe1  1  0.20283200  0.79716800  0.40013500  1
  Fe  Fe2  1  0.20283200  0.79716800  0.09986500  1
  Fe  Fe3  1  0.79716800  0.20283200  0.90013500  1
  O  O0  1  0.30661400  0.69338600  0.25000000  1
  O  O1  1  0.69338600  0.30661400  0.75000000  1
  O  O2  1  0.75175300  0.24824700  0.07602200  1
  O  O3  1  0.24824700  0.75175300  0.92397800  1
  O  O4  1  0.24824700  0.75175300  0.57602200  1
  O  O5  1  0.75175300  0.24824700  0.42397800  1
  O  O6  1  0.96309400  0.03690600  0.63750100  1
  O  O7  1  0.03690600  0.96309400  0.36249900  1
  O  O8  1  0.96309400  0.03690600  0.86249900  1
  O  O9  1  0.03690600  0.96309400  0.13750100  1
loop_
_geom_bond_atom_site_label_1
_geom_bond_atom_site_label_2
_geom_bond_distance
_geom_bond_site_symmetry_2
Fe0 O6 1.790811 1_555
Fe0 O4 1.965926 1_545
Fe0 O4 1.965926 1_655
Fe0 O1 1.983307 1_555
Fe0 O5 1.999170 1_555
Fe1 O7 1.790811 1_555
Fe1 O5 1.965926 1_455
Fe1 O5 1.965926 1_565
Fe1 O0 1.983307 1_555
Fe1 O4 1.999170 1_555
Fe2 O9 1.790811 1_555
Fe2 O2 1.965926 1_455
Fe2 O2 1.965926 1_565
Fe2 O0 1.983307 1_555
Fe2 O3 1.999170 1_554
Fe3 O8 1.790811 1_555
Fe3 O3 1.965926 1_545
Fe3 O3 1.965926 1_655
Fe3 O1 1.983307 1_555
Fe3 O2 1.999170 1_556
O0 Zn1 2.090428 1_565
O0 Zn1 2.090428 1_455
O1 Zn0 2.090428 1_655
O1 Zn0 2.090428 1_545
O2 Zn1 2.431521 1_555
O3 Zn0 2.431521 1_555
O4 Zn0 2.431521 1_555
O5 Zn1 2.431521 1_555
O6 Zn0 1.949041 1_645
O7 Zn1 1.949041 1_465
O8 Zn0 1.949041 1_645
O9 Zn1 1.949041 1_465
