# generated using pymatgen
data_LiAl4Zn2O8
_symmetry_space_group_name_H-M   'P 1'
_cell_length_a   6.04225264
_cell_length_b   5.84964287
_cell_length_c   6.04225403
_cell_angle_alpha   61.04900457
_cell_angle_beta   56.90180592
_cell_angle_gamma   61.04899754
_symmetry_Int_Tables_number   1
_chemical_formula_structural   LiAl4Zn2O8
_chemical_formula_sum   'Li1 Al4 Zn2 O8'
_cell_volume   149.35386689
_cell_formula_units_Z   1
loop_
 _symmetry_equiv_pos_site_id
 _symmetry_equiv_pos_as_xyz
  1  'x, y, z'
loop_
 _atom_site_type_symbol
 _atom_site_label
 _atom_site_symmetry_multiplicity
 _atom_site_fract_x
 _atom_site_fract_y
 _atom_site_fract_z
 _atom_site_occupancy
  Li  Li0  1  0.12498500  0.62501500  0.12498500  1
  Al  Al0  1  0.16119000  0.08881000  0.16119000  1
  Al  Al1  1  0.51630300  0.49024000  0.51630300  1
  Al  Al2  1  0.51630300  0.97715400  0.51630300  1
  Al  Al3  1  0.85350000  0.89650000  0.85350000  1
  Zn  Zn0  1  0.03019800  0.43948000  0.59084200  1
  Zn  Zn1  1  0.59084200  0.43948000  0.03019800  1
  O  O0  1  0.28193800  0.22611600  0.28193800  1
  O  O1  1  0.30070300  0.21585700  0.76758400  1
  O  O2  1  0.28193800  0.71001000  0.28193800  1
  O  O3  1  0.76758400  0.21585700  0.30070300  1
  O  O4  1  0.25139100  0.75812900  0.73235100  1
  O  O5  1  0.73288800  0.26555300  0.73288800  1
  O  O6  1  0.73235100  0.75812900  0.25139100  1
  O  O7  1  0.73288800  0.76867000  0.73288800  1
loop_
_geom_bond_atom_site_label_1
_geom_bond_atom_site_label_2
_geom_bond_distance
_geom_bond_site_symmetry_2
Li0 O6 1.904291 1_455
Li0 O4 1.904292 1_554
Li0 O0 1.985221 1_555
Li0 O2 1.985230 1_555
Al0 O2 1.850859 1_545
Al0 O0 1.850868 1_555
Al0 O3 1.903913 1_455
Al0 O1 1.903914 1_554
Al1 O5 1.921639 1_555
Al1 O4 1.997972 1_555
Al1 O6 1.997972 1_555
Al1 O3 2.020712 1_555
Al1 O1 2.020712 1_555
Al1 O2 2.080512 1_555
Al2 O7 1.921639 1_555
Al2 O4 1.997972 1_555
Al2 O6 1.997972 1_555
Al2 O3 2.020717 1_565
Al2 O1 2.020717 1_565
Al2 O0 2.080512 1_565
Al3 O5 1.804584 1_565
Al3 O7 1.804589 1_555
Al3 O4 1.933548 1_655
Al3 O6 1.933548 1_556
O0 Zn1 2.161445 1_555
O0 Zn0 2.161445 1_555
O1 Zn0 2.001764 1_555
O2 Zn1 2.161453 1_555
O2 Zn0 2.161453 1_555
O3 Zn1 2.001764 1_555
O5 Zn0 2.058893 1_655
O5 Zn1 2.058893 1_556
O7 Zn0 2.058889 1_655
O7 Zn1 2.058889 1_556
