# generated using pymatgen
data_Rb3NpO9
_symmetry_space_group_name_H-M   'P 1'
_cell_length_a   8.12202281
_cell_length_b   8.12202281
_cell_length_c   7.63866682
_cell_angle_alpha   83.04178026
_cell_angle_beta   83.04178026
_cell_angle_gamma   85.83896087
_symmetry_Int_Tables_number   1
_chemical_formula_structural   Rb3NpO9
_chemical_formula_sum   'Rb6 Np2 O18'
_cell_volume   495.64900881
_cell_formula_units_Z   2
loop_
 _symmetry_equiv_pos_site_id
 _symmetry_equiv_pos_as_xyz
  1  'x, y, z'
loop_
 _atom_site_type_symbol
 _atom_site_label
 _atom_site_symmetry_multiplicity
 _atom_site_fract_x
 _atom_site_fract_y
 _atom_site_fract_z
 _atom_site_occupancy
  Rb  Rb0  1  0.57560700  0.77176600  0.06707500  1
  Rb  Rb1  1  0.42439300  0.22823400  0.93292500  1
  Rb  Rb2  1  0.22823400  0.42439300  0.43292500  1
  Rb  Rb3  1  0.77176600  0.57560700  0.56707500  1
  Rb  Rb4  1  0.96551200  0.03448800  0.75000000  1
  Rb  Rb5  1  0.03448800  0.96551200  0.25000000  1
  Np  Np0  1  0.50000000  0.00000000  0.50000000  1
  Np  Np1  1  0.00000000  0.50000000  0.00000000  1
  O  O0  1  0.39782200  0.60217800  0.75000000  1
  O  O1  1  0.60217800  0.39782200  0.25000000  1
  O  O2  1  0.73937100  0.19180200  0.04381500  1
  O  O3  1  0.26062900  0.80819800  0.95618500  1
  O  O4  1  0.80819800  0.26062900  0.45618500  1
  O  O5  1  0.19180200  0.73937100  0.54381500  1
  O  O6  1  0.31592300  0.11619000  0.61534900  1
  O  O7  1  0.68407700  0.88381000  0.38465100  1
  O  O8  1  0.88381000  0.68407700  0.88465100  1
  O  O9  1  0.11619000  0.31592300  0.11534900  1
  O  O10  1  0.64779800  0.27051500  0.42716000  1
  O  O11  1  0.35220200  0.72948500  0.57284000  1
  O  O12  1  0.72948500  0.35220200  0.07284000  1
  O  O13  1  0.27051500  0.64779800  0.92716000  1
  O  O14  1  0.60222800  0.97555200  0.71116400  1
  O  O15  1  0.39777200  0.02444800  0.28883600  1
  O  O16  1  0.02444800  0.39777200  0.78883600  1
  O  O17  1  0.97555200  0.60222800  0.21116400  1
loop_
_geom_bond_atom_site_label_1
_geom_bond_atom_site_label_2
_geom_bond_distance
_geom_bond_site_symmetry_2
Np0 O14 1.885098 1_545
Np0 O15 1.885098 1_555
Np0 O6 1.892015 1_555
Np0 O7 1.892015 1_545
Np0 O10 2.550037 1_555
Np0 O11 2.550037 1_545
Np1 O17 1.885098 1_455
Np1 O16 1.885098 1_554
Np1 O8 1.892015 1_454
Np1 O9 1.892015 1_555
Np1 O13 2.550037 1_554
Np1 O12 2.550037 1_455
O0 O11 1.662714 1_555
O0 O13 1.662714 1_555
O0 Rb1 3.189545 1_555
O0 Rb3 3.189545 1_555
O1 O12 1.662714 1_555
O1 O10 1.662714 1_555
O1 Rb0 3.189545 1_555
O1 Rb2 3.189545 1_555
O2 Rb1 2.775643 1_554
O2 Rb4 3.065724 1_554
O2 Rb5 3.343339 1_645
O3 Rb0 2.775643 1_556
O3 Rb5 3.065724 1_556
O3 Rb4 3.343339 1_465
O4 Rb3 2.775643 1_555
O4 Rb4 3.065724 1_555
O4 Rb5 3.343339 1_645
O5 Rb2 2.775643 1_555
O5 Rb5 3.065724 1_555
O5 Rb4 3.343339 1_465
O6 Rb2 2.802101 1_555
O6 Rb1 2.942469 1_555
O6 Rb4 2.999615 1_455
O7 Rb3 2.802101 1_555
O7 Rb0 2.942469 1_555
O7 Rb5 2.999615 1_655
O8 Rb0 2.802101 1_556
O8 Rb3 2.942469 1_555
O8 Rb4 2.999615 1_565
O9 Rb1 2.802101 1_554
O9 Rb2 2.942469 1_555
O9 Rb5 2.999615 1_545
O10 O4 1.342874 1_555
O11 O5 1.342874 1_555
O12 O2 1.342874 1_555
O13 O3 1.342874 1_555
O14 Rb1 2.997824 1_565
O14 Rb0 2.999462 1_556
O14 Rb4 3.078090 1_565
O15 Rb0 2.997824 1_545
O15 Rb1 2.999462 1_554
O15 Rb5 3.078090 1_545
O16 Rb3 2.997824 1_455
O16 Rb2 2.999462 1_555
O16 Rb4 3.078090 1_455
O17 Rb2 2.997824 1_655
O17 Rb3 2.999462 1_555
O17 Rb5 3.078090 1_655
