# generated using pymatgen
data_CaMg30CO32
_symmetry_space_group_name_H-M   'P 1'
_cell_length_a   8.54971800
_cell_length_b   8.54971800
_cell_length_c   8.55244800
_cell_angle_alpha   90.00000000
_cell_angle_beta   90.00000000
_cell_angle_gamma   90.00000000
_symmetry_Int_Tables_number   1
_chemical_formula_structural   CaMg30CO32
_chemical_formula_sum   'Ca1 Mg30 C1 O32'
_cell_volume   625.16408899
_cell_formula_units_Z   1
loop_
 _symmetry_equiv_pos_site_id
 _symmetry_equiv_pos_as_xyz
  1  'x, y, z'
loop_
 _atom_site_type_symbol
 _atom_site_label
 _atom_site_symmetry_multiplicity
 _atom_site_fract_x
 _atom_site_fract_y
 _atom_site_fract_z
 _atom_site_occupancy
  Ca  Ca0  1  0.00000000  0.00000000  0.00000000  1
  Mg  Mg0  1  0.00000000  0.50000000  0.00000000  1
  Mg  Mg1  1  0.50000000  0.00000000  0.00000000  1
  Mg  Mg2  1  0.00000000  0.00000000  0.50000000  1
  Mg  Mg3  1  0.00000000  0.50000000  0.50000000  1
  Mg  Mg4  1  0.50000000  0.00000000  0.50000000  1
  Mg  Mg5  1  0.50000000  0.50000000  0.50000000  1
  Mg  Mg6  1  0.25481700  0.25481700  0.00000000  1
  Mg  Mg7  1  0.25481700  0.74518300  0.00000000  1
  Mg  Mg8  1  0.74518300  0.25481700  0.00000000  1
  Mg  Mg9  1  0.74518300  0.74518300  0.00000000  1
  Mg  Mg10  1  0.25054400  0.25054400  0.50000000  1
  Mg  Mg11  1  0.25054400  0.74945600  0.50000000  1
  Mg  Mg12  1  0.74945600  0.25054400  0.50000000  1
  Mg  Mg13  1  0.74945600  0.74945600  0.50000000  1
  Mg  Mg14  1  0.00000000  0.25320800  0.25263900  1
  Mg  Mg15  1  0.00000000  0.74679200  0.25263900  1
  Mg  Mg16  1  0.50000000  0.25199400  0.24855200  1
  Mg  Mg17  1  0.50000000  0.74800600  0.24855200  1
  Mg  Mg18  1  0.00000000  0.25320800  0.74736100  1
  Mg  Mg19  1  0.00000000  0.74679200  0.74736100  1
  Mg  Mg20  1  0.50000000  0.25199400  0.75144800  1
  Mg  Mg21  1  0.50000000  0.74800600  0.75144800  1
  Mg  Mg22  1  0.25320800  0.00000000  0.25263900  1
  Mg  Mg23  1  0.25199400  0.50000000  0.24855200  1
  Mg  Mg24  1  0.74679200  0.00000000  0.25263900  1
  Mg  Mg25  1  0.74800600  0.50000000  0.24855200  1
  Mg  Mg26  1  0.25320800  0.00000000  0.74736100  1
  Mg  Mg27  1  0.25199400  0.50000000  0.75144800  1
  Mg  Mg28  1  0.74679200  0.00000000  0.74736100  1
  Mg  Mg29  1  0.74800600  0.50000000  0.75144800  1
  C  C0  1  0.50000000  0.50000000  0.00000000  1
  O  O0  1  0.00000000  0.00000000  0.26227100  1
  O  O1  1  0.00000000  0.50000000  0.25166000  1
  O  O2  1  0.50000000  0.00000000  0.25166000  1
  O  O3  1  0.50000000  0.50000000  0.25202600  1
  O  O4  1  0.00000000  0.00000000  0.73772900  1
  O  O5  1  0.00000000  0.50000000  0.74834000  1
  O  O6  1  0.50000000  0.00000000  0.74834000  1
  O  O7  1  0.50000000  0.50000000  0.74797400  1
  O  O8  1  0.25038800  0.25038800  0.24935400  1
  O  O9  1  0.25038800  0.74961200  0.24935400  1
  O  O10  1  0.74961200  0.25038800  0.24935400  1
  O  O11  1  0.74961200  0.74961200  0.24935400  1
  O  O12  1  0.25038800  0.25038800  0.75064600  1
  O  O13  1  0.25038800  0.74961200  0.75064600  1
  O  O14  1  0.74961200  0.25038800  0.75064600  1
  O  O15  1  0.74961200  0.74961200  0.75064600  1
  O  O16  1  0.00000000  0.26272900  0.00000000  1
  O  O17  1  0.00000000  0.73727100  0.00000000  1
  O  O18  1  0.50000000  0.25046800  0.00000000  1
  O  O19  1  0.50000000  0.74953200  0.00000000  1
  O  O20  1  0.00000000  0.25226000  0.50000000  1
  O  O21  1  0.00000000  0.74774000  0.50000000  1
  O  O22  1  0.50000000  0.25104900  0.50000000  1
  O  O23  1  0.50000000  0.74895100  0.50000000  1
  O  O24  1  0.26272900  0.00000000  0.00000000  1
  O  O25  1  0.25046800  0.50000000  0.00000000  1
  O  O26  1  0.73727100  0.00000000  0.00000000  1
  O  O27  1  0.74953200  0.50000000  0.00000000  1
  O  O28  1  0.25226000  0.00000000  0.50000000  1
  O  O29  1  0.25104900  0.50000000  0.50000000  1
  O  O30  1  0.74774000  0.00000000  0.50000000  1
  O  O31  1  0.74895100  0.50000000  0.50000000  1
loop_
_geom_bond_atom_site_label_1
_geom_bond_atom_site_label_2
_geom_bond_distance
_geom_bond_site_symmetry_2
Ca0 O0 2.243059 1_555
Ca0 O4 2.243059 1_554
Ca0 O24 2.246259 1_555
Ca0 O16 2.246259 1_555
Ca0 O26 2.246259 1_455
Ca0 O17 2.246259 1_545
Mg0 O17 2.028600 1_555
Mg0 O16 2.028600 1_555
Mg0 O25 2.141431 1_555
Mg0 O27 2.141431 1_455
Mg0 O5 2.152309 1_554
Mg0 O1 2.152309 1_555
Mg1 O26 2.028600 1_555
Mg1 O24 2.028600 1_555
Mg1 O18 2.141431 1_555
Mg1 O19 2.141431 1_545
Mg1 O2 2.152309 1_555
Mg1 O6 2.152309 1_554
Mg2 O4 2.033165 1_555
Mg2 O0 2.033165 1_555
Mg2 O30 2.156752 1_455
Mg2 O21 2.156752 1_545
Mg2 O20 2.156752 1_555
Mg2 O28 2.156752 1_555
Mg3 O20 2.118107 1_555
Mg3 O21 2.118107 1_555
Mg3 O1 2.123915 1_555
Mg3 O5 2.123915 1_555
Mg3 O29 2.146398 1_555
Mg3 O31 2.146398 1_455
Mg4 O28 2.118107 1_555
Mg4 O30 2.118107 1_555
Mg4 O6 2.123915 1_555
Mg4 O2 2.123915 1_555
Mg4 O22 2.146398 1_555
Mg4 O23 2.146398 1_545
Mg5 O7 2.120785 1_555
Mg5 O3 2.120785 1_555
Mg5 O23 2.128461 1_555
Mg5 O31 2.128461 1_555
Mg5 O22 2.128461 1_555
Mg5 O29 2.128461 1_555
Mg6 O25 2.096575 1_555
Mg6 O18 2.096575 1_555
Mg6 O8 2.133259 1_555
Mg6 O12 2.133259 1_554
Mg6 O24 2.179663 1_555
Mg6 O16 2.179663 1_555
Mg7 O25 2.096575 1_555
Mg7 O19 2.096575 1_555
Mg7 O9 2.133259 1_555
Mg7 O13 2.133259 1_554
Mg7 O17 2.179663 1_555
Mg7 O24 2.179663 1_565
Mg8 O18 2.096575 1_555
Mg8 O27 2.096575 1_555
Mg8 O10 2.133259 1_555
Mg8 O14 2.133259 1_554
Mg8 O26 2.179663 1_555
Mg8 O16 2.179663 1_655
Mg9 O19 2.096575 1_555
Mg9 O27 2.096575 1_555
Mg9 O11 2.133259 1_555
Mg9 O15 2.133259 1_554
Mg9 O17 2.179663 1_655
Mg9 O26 2.179663 1_565
Mg10 O22 2.132783 1_555
Mg10 O29 2.132783 1_555
Mg10 O28 2.142131 1_555
Mg10 O20 2.142131 1_555
Mg10 O12 2.143638 1_555
Mg10 O8 2.143638 1_555
Mg11 O23 2.132783 1_555
Mg11 O29 2.132783 1_555
Mg11 O28 2.142131 1_565
Mg11 O21 2.142131 1_555
Mg11 O13 2.143638 1_555
Mg11 O9 2.143638 1_555
Mg12 O22 2.132783 1_555
Mg12 O31 2.132783 1_555
Mg12 O20 2.142131 1_655
Mg12 O30 2.142131 1_555
Mg12 O14 2.143638 1_555
Mg12 O10 2.143638 1_555
Mg13 O23 2.132783 1_555
Mg13 O31 2.132783 1_555
Mg13 O30 2.142131 1_565
Mg13 O21 2.142131 1_655
Mg13 O15 2.143638 1_555
Mg13 O11 2.143638 1_555
Mg14 O1 2.110019 1_555
Mg14 O20 2.115558 1_555
Mg14 O8 2.141067 1_555
Mg14 O10 2.141067 1_455
Mg14 O16 2.162215 1_555
Mg14 O0 2.166424 1_555
Mg15 O1 2.110019 1_555
Mg15 O21 2.115558 1_555
Mg15 O9 2.141067 1_555
Mg15 O11 2.141067 1_455
Mg15 O17 2.162215 1_555
Mg15 O0 2.166424 1_565
Mg16 O3 2.120590 1_555
Mg16 O18 2.125768 1_555
Mg16 O10 2.134167 1_555
Mg16 O8 2.134167 1_555
Mg16 O22 2.150511 1_555
Mg16 O2 2.154642 1_555
Mg17 O3 2.120590 1_555
Mg17 O19 2.125768 1_555
Mg17 O11 2.134167 1_555
Mg17 O9 2.134167 1_555
Mg17 O23 2.150511 1_555
Mg17 O2 2.154642 1_565
Mg18 O5 2.110019 1_555
Mg18 O20 2.115558 1_555
Mg18 O12 2.141067 1_555
Mg18 O14 2.141067 1_455
Mg18 O16 2.162215 1_556
Mg18 O4 2.166424 1_555
Mg19 O5 2.110019 1_555
Mg19 O21 2.115558 1_555
Mg19 O13 2.141067 1_555
Mg19 O15 2.141067 1_455
Mg19 O17 2.162215 1_556
Mg19 O4 2.166424 1_565
Mg20 O7 2.120590 1_555
Mg20 O18 2.125768 1_556
Mg20 O14 2.134167 1_555
Mg20 O12 2.134167 1_555
Mg20 O22 2.150511 1_555
Mg20 O6 2.154642 1_555
Mg21 O7 2.120590 1_555
Mg21 O19 2.125768 1_556
Mg21 O15 2.134167 1_555
Mg21 O13 2.134167 1_555
Mg21 O23 2.150511 1_555
Mg21 O6 2.154642 1_565
Mg22 O2 2.110019 1_555
Mg22 O28 2.115558 1_555
Mg22 O8 2.141067 1_555
Mg22 O9 2.141067 1_545
Mg22 O24 2.162215 1_555
Mg22 O0 2.166424 1_555
Mg23 O3 2.120590 1_555
Mg23 O25 2.125768 1_555
Mg23 O9 2.134167 1_555
Mg23 O8 2.134167 1_555
Mg23 O29 2.150511 1_555
Mg23 O1 2.154642 1_555
Mg24 O2 2.110019 1_555
Mg24 O30 2.115558 1_555
Mg24 O10 2.141067 1_555
Mg24 O11 2.141067 1_545
Mg24 O26 2.162215 1_555
Mg24 O0 2.166424 1_655
Mg25 O3 2.120590 1_555
Mg25 O27 2.125768 1_555
Mg25 O11 2.134167 1_555
Mg25 O10 2.134167 1_555
Mg25 O31 2.150511 1_555
Mg25 O1 2.154642 1_655
Mg26 O6 2.110019 1_555
Mg26 O28 2.115558 1_555
Mg26 O12 2.141067 1_555
Mg26 O13 2.141067 1_545
Mg26 O24 2.162215 1_556
Mg26 O4 2.166424 1_555
Mg27 O7 2.120590 1_555
Mg27 O25 2.125768 1_556
Mg27 O13 2.134167 1_555
Mg27 O12 2.134167 1_555
Mg27 O29 2.150511 1_555
Mg27 O5 2.154642 1_555
Mg28 O6 2.110019 1_555
Mg28 O30 2.115558 1_555
Mg28 O14 2.141067 1_555
Mg28 O15 2.141067 1_545
Mg28 O26 2.162215 1_556
Mg28 O4 2.166424 1_655
Mg29 O7 2.120590 1_555
Mg29 O27 2.125768 1_556
Mg29 O15 2.134167 1_555
Mg29 O14 2.134167 1_555
Mg29 O31 2.150511 1_555
Mg29 O5 2.154642 1_655
C0 O27 2.133428 1_555
C0 O19 2.133428 1_555
C0 O25 2.133428 1_555
C0 O18 2.133428 1_555
C0 O3 2.155439 1_555
C0 O7 2.155439 1_554
