# generated using pymatgen
data_YbReB4
_symmetry_space_group_name_H-M   'P 1'
_cell_length_a   3.53773900
_cell_length_b   6.00803500
_cell_length_c   11.61132800
_cell_angle_alpha   90.00000000
_cell_angle_beta   90.00000000
_cell_angle_gamma   90.00000000
_symmetry_Int_Tables_number   1
_chemical_formula_structural   YbReB4
_chemical_formula_sum   'Yb4 Re4 B16'
_cell_volume   246.79714795
_cell_formula_units_Z   4
loop_
 _symmetry_equiv_pos_site_id
 _symmetry_equiv_pos_as_xyz
  1  'x, y, z'
loop_
 _atom_site_type_symbol
 _atom_site_label
 _atom_site_symmetry_multiplicity
 _atom_site_fract_x
 _atom_site_fract_y
 _atom_site_fract_z
 _atom_site_occupancy
  Yb  Yb0  1  0.50000000  0.37382600  0.14989300  1
  Yb  Yb1  1  0.50000000  0.62617400  0.85010700  1
  Yb  Yb2  1  0.50000000  0.12617400  0.64989300  1
  Yb  Yb3  1  0.50000000  0.87382600  0.35010700  1
  Re  Re0  1  0.50000000  0.37114700  0.41617300  1
  Re  Re1  1  0.50000000  0.62885300  0.58382700  1
  Re  Re2  1  0.50000000  0.12885300  0.91617300  1
  Re  Re3  1  0.50000000  0.87114700  0.08382700  1
  B  B0  1  0.00000000  0.11588400  0.04792700  1
  B  B1  1  0.00000000  0.88411600  0.95207300  1
  B  B2  1  0.00000000  0.38411600  0.54792700  1
  B  B3  1  0.00000000  0.61588400  0.45207300  1
  B  B4  1  0.00000000  0.13437400  0.46794500  1
  B  B5  1  0.00000000  0.86562600  0.53205500  1
  B  B6  1  0.00000000  0.36562600  0.96794500  1
  B  B7  1  0.00000000  0.63437400  0.03205500  1
  B  B8  1  0.00000000  0.02633100  0.19308300  1
  B  B9  1  0.00000000  0.97366900  0.80691700  1
  B  B10  1  0.00000000  0.47366900  0.69308300  1
  B  B11  1  0.00000000  0.52633100  0.30691700  1
  B  B12  1  0.00000000  0.21686700  0.31449700  1
  B  B13  1  0.00000000  0.78313300  0.68550300  1
  B  B14  1  0.00000000  0.28313300  0.81449700  1
  B  B15  1  0.00000000  0.71686700  0.18550300  1
loop_
_geom_bond_atom_site_label_1
_geom_bond_atom_site_label_2
_geom_bond_distance
_geom_bond_site_symmetry_2
B0 B6 1.764612 1_554
B0 B8 1.769248 1_555
B0 B1 1.782617 1_544
B0 Re3 2.337670 1_445
B0 Re3 2.337670 1_545
B0 Re2 2.339952 1_554
B0 Re2 2.339952 1_454
B0 Yb0 2.632928 1_455
B0 Yb0 2.632928 1_555
B1 B7 1.764612 1_556
B1 B9 1.769248 1_555
B1 Re2 2.337670 1_565
B1 Re2 2.337670 1_465
B1 Re3 2.339952 1_456
B1 Re3 2.339952 1_556
B1 Yb1 2.632928 1_455
B1 Yb1 2.632928 1_555
B2 B4 1.764612 1_555
B2 B3 1.782617 1_555
B2 Re1 2.337670 1_455
B2 Re1 2.337670 1_555
B2 Re0 2.339952 1_455
B2 Re0 2.339952 1_555
B2 Yb2 2.632928 1_455
B2 Yb2 2.632928 1_555
B3 B5 1.764612 1_555
B3 Re0 2.337670 1_455
B3 Re0 2.337670 1_555
B3 Re1 2.339952 1_455
B3 Re1 2.339952 1_555
B3 Yb3 2.632928 1_455
B3 Yb3 2.632928 1_555
B4 B5 1.777982 1_545
B4 Re0 2.348168 1_455
B4 Re0 2.348168 1_555
B4 Yb3 2.729733 1_545
B4 Yb3 2.729733 1_445
B4 Yb2 2.755839 1_455
B4 Yb2 2.755839 1_555
B5 Re1 2.348168 1_555
B5 Re1 2.348168 1_455
B5 Yb2 2.729733 1_465
B5 Yb2 2.729733 1_565
B5 Yb3 2.755839 1_555
B5 Yb3 2.755839 1_455
B6 B7 1.777982 1_556
B6 Re2 2.348168 1_455
B6 Re2 2.348168 1_555
B6 Yb1 2.729733 1_455
B6 Yb1 2.729733 1_555
B6 Yb0 2.755839 1_456
B6 Yb0 2.755839 1_556
B7 Re3 2.348168 1_455
B7 Re3 2.348168 1_555
B7 Yb0 2.729733 1_555
B7 Yb0 2.729733 1_455
B7 Yb1 2.755839 1_554
B7 Yb1 2.755839 1_454
B8 Re3 2.368025 1_545
B8 Re3 2.368025 1_445
B8 Yb3 2.700498 1_545
B8 Yb3 2.700498 1_445
B8 Yb0 2.781932 1_555
B8 Yb0 2.781932 1_455
B9 Re2 2.368025 1_565
B9 Re2 2.368025 1_465
B9 Yb2 2.700498 1_565
B9 Yb2 2.700498 1_465
B9 Yb1 2.781932 1_455
B9 Yb1 2.781932 1_555
B10 B2 1.769248 1_555
B10 B14 1.816017 1_555
B10 B13 1.861353 1_555
B10 Re1 2.368025 1_455
B10 Re1 2.368025 1_555
B10 Yb1 2.700498 1_455
B10 Yb1 2.700498 1_555
B10 Yb2 2.781932 1_455
B10 Yb2 2.781932 1_555
B11 B3 1.769248 1_555
B11 B15 1.816017 1_555
B11 B12 1.861353 1_555
B11 Re0 2.368025 1_455
B11 Re0 2.368025 1_555
B11 Yb0 2.700498 1_555
B11 Yb0 2.700498 1_455
B11 Yb3 2.781932 1_555
B11 Yb3 2.781932 1_455
B12 B8 1.816017 1_555
B12 B4 1.849384 1_555
B12 Re0 2.319888 1_555
B12 Re0 2.319888 1_455
B12 Yb3 2.747289 1_445
B12 Yb3 2.747289 1_545
B12 Yb0 2.769681 1_455
B12 Yb0 2.769681 1_555
B13 B9 1.816017 1_555
B13 B5 1.849384 1_555
B13 Re1 2.319888 1_455
B13 Re1 2.319888 1_555
B13 Yb2 2.747289 1_465
B13 Yb2 2.747289 1_565
B13 Yb1 2.769681 1_455
B13 Yb1 2.769681 1_555
B14 B6 1.849384 1_555
B14 B9 1.861353 1_545
B14 Re2 2.319888 1_555
B14 Re2 2.319888 1_455
B14 Yb1 2.747289 1_455
B14 Yb1 2.747289 1_555
B14 Yb2 2.769681 1_555
B14 Yb2 2.769681 1_455
B15 B7 1.849384 1_555
B15 B8 1.861353 1_565
B15 Re3 2.319888 1_455
B15 Re3 2.319888 1_555
B15 Yb0 2.747289 1_455
B15 Yb0 2.747289 1_555
B15 Yb3 2.769681 1_555
B15 Yb3 2.769681 1_455
