# generated using pymatgen
data_Na2TiO3
_symmetry_space_group_name_H-M   'P 1'
_cell_length_a   5.75245464
_cell_length_b   5.75245464
_cell_length_c   5.75245464
_cell_angle_alpha   149.47590634
_cell_angle_beta   136.61154405
_cell_angle_gamma   53.97566929
_symmetry_Int_Tables_number   1
_chemical_formula_structural   Na2TiO3
_chemical_formula_sum   'Na2 Ti1 O3'
_cell_volume   66.02128254
_cell_formula_units_Z   1
loop_
 _symmetry_equiv_pos_site_id
 _symmetry_equiv_pos_as_xyz
  1  'x, y, z'
loop_
 _atom_site_type_symbol
 _atom_site_label
 _atom_site_symmetry_multiplicity
 _atom_site_fract_x
 _atom_site_fract_y
 _atom_site_fract_z
 _atom_site_occupancy
  Na  Na0  1  0.67427400  0.67427400  0.00000000  1
  Na  Na1  1  0.32572600  0.32572600  0.00000000  1
  Ti  Ti0  1  0.00000000  0.00000000  0.00000000  1
  O  O0  1  0.12800100  0.62800100  0.50000000  1
  O  O1  1  0.87199900  0.37199900  0.50000000  1
  O  O2  1  0.50000000  0.00000000  0.50000000  1
loop_
_geom_bond_atom_site_label_1
_geom_bond_atom_site_label_2
_geom_bond_distance
_geom_bond_site_symmetry_2
Na0 O0 2.178688 1_554
Na0 O0 2.178688 1_655
Na0 O2 2.342031 1_565
Na0 O2 2.342031 1_554
Na0 O1 2.530220 1_565
Na0 O1 2.530220 1_554
Na1 O1 2.178688 1_555
Na1 O1 2.178688 1_454
Na1 O2 2.342031 1_554
Na1 O2 2.342031 1_565
Na1 O0 2.530220 1_544
Na1 O0 2.530220 1_555
O0 Ti0 2.003744 1_555
O0 Ti0 2.003744 1_566
O1 Ti0 2.003744 1_655
O1 Ti0 2.003744 1_666
O2 Ti0 2.126413 1_656
O2 Ti0 2.126413 1_555
