# generated using pymatgen
data_Na2B4O11
_symmetry_space_group_name_H-M   'P 1'
_cell_length_a   11.73123500
_cell_length_b   7.18691700
_cell_length_c   13.01219101
_cell_angle_alpha   79.99159525
_cell_angle_beta   90.00000000
_cell_angle_gamma   90.00000000
_symmetry_Int_Tables_number   1
_chemical_formula_structural   Na2B4O11
_chemical_formula_sum   'Na8 B16 O44'
_cell_volume   1080.38119110
_cell_formula_units_Z   4
loop_
 _symmetry_equiv_pos_site_id
 _symmetry_equiv_pos_as_xyz
  1  'x, y, z'
loop_
 _atom_site_type_symbol
 _atom_site_label
 _atom_site_symmetry_multiplicity
 _atom_site_fract_x
 _atom_site_fract_y
 _atom_site_fract_z
 _atom_site_occupancy
  Na  Na0  1  0.98762100  0.00000000  0.75000000  1
  Na  Na1  1  0.01237900  0.00000000  0.25000000  1
  Na  Na2  1  0.60291700  0.50000000  0.75000000  1
  Na  Na3  1  0.39708300  0.50000000  0.25000000  1
  Na  Na4  1  0.76728600  0.18156700  0.97888000  1
  Na  Na5  1  0.76728600  0.81843300  0.52112000  1
  Na  Na6  1  0.23271400  0.81843300  0.02112000  1
  Na  Na7  1  0.23271400  0.18156700  0.47888000  1
  B  B0  1  0.48559300  0.31453300  0.98694100  1
  B  B1  1  0.48559300  0.68546700  0.51305900  1
  B  B2  1  0.51440700  0.68546700  0.01305900  1
  B  B3  1  0.51440700  0.31453300  0.48694100  1
  B  B4  1  0.81107300  0.30161500  0.70699800  1
  B  B5  1  0.81107300  0.69838500  0.79300200  1
  B  B6  1  0.18892700  0.69838500  0.29300200  1
  B  B7  1  0.18892700  0.30161500  0.20699800  1
  B  B8  1  0.91322700  0.39343300  0.54607000  1
  B  B9  1  0.91322700  0.60656700  0.95393000  1
  B  B10  1  0.08677300  0.60656700  0.45393000  1
  B  B11  1  0.08677300  0.39343300  0.04607000  1
  B  B12  1  0.71613900  0.30949000  0.53924400  1
  B  B13  1  0.71613900  0.69051000  0.96075600  1
  B  B14  1  0.28386100  0.69051000  0.46075600  1
  B  B15  1  0.28386100  0.30949000  0.03924400  1
  O  O0  1  0.50000000  0.50000000  0.50000000  1
  O  O1  1  0.50000000  0.50000000  0.00000000  1
  O  O2  1  0.00000000  0.50000000  0.50000000  1
  O  O3  1  0.00000000  0.50000000  0.00000000  1
  O  O4  1  0.91593400  0.31795100  0.65169000  1
  O  O5  1  0.91593400  0.68204900  0.84831000  1
  O  O6  1  0.08406600  0.68204900  0.34831000  1
  O  O7  1  0.08406600  0.31795100  0.15169000  1
  O  O8  1  0.81718800  0.36727000  0.48756700  1
  O  O9  1  0.81718800  0.63273000  0.01243300  1
  O  O10  1  0.18281200  0.63273000  0.51243300  1
  O  O11  1  0.18281200  0.36727000  0.98756700  1
  O  O12  1  0.71007800  0.30998700  0.64550700  1
  O  O13  1  0.71007800  0.69001300  0.85449300  1
  O  O14  1  0.28992200  0.69001300  0.35449300  1
  O  O15  1  0.28992200  0.30998700  0.14550700  1
  O  O16  1  0.62672400  0.25109900  0.48629700  1
  O  O17  1  0.62672400  0.74890100  0.01370300  1
  O  O18  1  0.37327600  0.74890100  0.51370300  1
  O  O19  1  0.37327600  0.25109900  0.98629700  1
  O  O20  1  0.80246600  0.27725100  0.80989200  1
  O  O21  1  0.80246600  0.72274900  0.69010800  1
  O  O22  1  0.19753400  0.72274900  0.19010800  1
  O  O23  1  0.19753400  0.27725100  0.30989200  1
  O  O24  1  0.42117600  0.21472400  0.47143700  1
  O  O25  1  0.42117600  0.78527600  0.02856300  1
  O  O26  1  0.57882400  0.78527600  0.52856300  1
  O  O27  1  0.57882400  0.21472400  0.97143700  1
  O  O28  1  0.53879600  0.18604600  0.81633500  1
  O  O29  1  0.53879600  0.81395400  0.68366500  1
  O  O30  1  0.46120400  0.81395400  0.18366500  1
  O  O31  1  0.46120400  0.18604600  0.31633500  1
  O  O32  1  0.20915500  0.15928800  0.77533600  1
  O  O33  1  0.20915500  0.84071200  0.72466400  1
  O  O34  1  0.79084500  0.84071200  0.22466400  1
  O  O35  1  0.79084500  0.15928800  0.27533600  1
  O  O36  1  0.06162600  0.09437500  0.40562500  1
  O  O37  1  0.06162600  0.90562500  0.09437500  1
  O  O38  1  0.93837400  0.90562500  0.59437500  1
  O  O39  1  0.93837400  0.09437500  0.90562500  1
  O  O40  1  0.20865200  0.14277600  0.68184000  1
  O  O41  1  0.20865200  0.85722400  0.81816000  1
  O  O42  1  0.79134800  0.85722400  0.31816000  1
  O  O43  1  0.79134800  0.14277600  0.18184000  1
loop_
_geom_bond_atom_site_label_1
_geom_bond_atom_site_label_2
_geom_bond_distance
_geom_bond_site_symmetry_2
Na0 O38 2.317744 1_545
Na0 O39 2.317744 1_555
Na0 O5 2.559150 1_545
Na0 O4 2.559150 1_555
Na0 O41 2.871703 1_645
Na0 O40 2.871703 1_655
Na0 O32 2.881757 1_655
Na0 O33 2.881757 1_645
Na1 O36 2.317744 1_555
Na1 O37 2.317744 1_545
Na1 O7 2.559150 1_555
Na1 O6 2.559150 1_545
Na1 O43 2.871703 1_455
Na1 O42 2.871703 1_445
Na1 O34 2.881757 1_445
Na1 O35 2.881757 1_455
Na2 O29 2.392716 1_555
Na2 O28 2.392716 1_555
Na2 O12 2.437087 1_555
Na2 O13 2.437087 1_555
Na2 O21 2.866459 1_555
Na2 O20 2.866459 1_555
Na3 O30 2.392716 1_555
Na3 O31 2.392716 1_555
Na3 O14 2.437087 1_555
Na3 O15 2.437087 1_555
Na3 O23 2.866459 1_555
Na3 O22 2.866459 1_555
Na4 O27 2.224002 1_555
Na4 O20 2.225490 1_555
Na4 O39 2.353136 1_555
Na4 O43 2.622237 1_556
Na5 O26 2.224002 1_555
Na5 O21 2.225490 1_555
Na5 O38 2.353136 1_555
Na5 O42 2.622237 1_555
Na6 O25 2.224002 1_555
Na6 O22 2.225490 1_555
Na6 O37 2.353136 1_555
Na6 O41 2.622237 1_554
Na7 O24 2.224002 1_555
Na7 O23 2.225490 1_555
Na7 O36 2.353136 1_555
Na7 O40 2.622237 1_555
B0 O27 1.342296 1_555
B0 O1 1.383071 1_556
B0 O19 1.394759 1_555
B1 O26 1.342296 1_555
B1 O0 1.383071 1_555
B1 O18 1.394759 1_555
B2 O25 1.342296 1_555
B2 O1 1.383071 1_555
B2 O17 1.394759 1_555
B3 O24 1.342296 1_555
B3 O0 1.383071 1_555
B3 O16 1.394759 1_555
B4 O20 1.323615 1_555
B4 O4 1.419725 1_555
B4 O12 1.425076 1_555
B5 O21 1.323615 1_555
B5 O5 1.419725 1_555
B5 O13 1.425076 1_555
B6 O22 1.323615 1_555
B6 O6 1.419725 1_555
B6 O14 1.425076 1_555
B7 O23 1.323615 1_555
B7 O7 1.419725 1_555
B7 O15 1.425076 1_555
B8 O2 1.350036 1_655
B8 O4 1.387437 1_555
B8 O8 1.390672 1_555
B9 O3 1.350036 1_656
B9 O5 1.387437 1_555
B9 O9 1.390672 1_556
B10 O2 1.350036 1_555
B10 O6 1.387437 1_555
B10 O10 1.390672 1_555
B11 O3 1.350036 1_555
B11 O7 1.387437 1_555
B11 O11 1.390672 1_554
B12 O16 1.360719 1_555
B12 O12 1.385166 1_555
B12 O8 1.390248 1_555
B13 O17 1.360719 1_556
B13 O13 1.385166 1_555
B13 O9 1.390248 1_556
B14 O18 1.360719 1_555
B14 O14 1.385166 1_555
B14 O10 1.390248 1_555
B15 O19 1.360719 1_554
B15 O15 1.385166 1_555
B15 O11 1.390248 1_554
O32 O40 1.242733 1_555
O33 O41 1.242733 1_555
O34 O42 1.242733 1_555
O35 O43 1.242733 1_555
