# generated using pymatgen
data_Mg(WO2)2
_symmetry_space_group_name_H-M   'P 1'
_cell_length_a   6.45664705
_cell_length_b   6.45664705
_cell_length_c   15.53027553
_cell_angle_alpha   88.89116880
_cell_angle_beta   88.89116880
_cell_angle_gamma   59.11409951
_symmetry_Int_Tables_number   1
_chemical_formula_structural   Mg(WO2)2
_chemical_formula_sum   'Mg6 W12 O24'
_cell_volume   555.48181113
_cell_formula_units_Z   6
loop_
 _symmetry_equiv_pos_site_id
 _symmetry_equiv_pos_as_xyz
  1  'x, y, z'
loop_
 _atom_site_type_symbol
 _atom_site_label
 _atom_site_symmetry_multiplicity
 _atom_site_fract_x
 _atom_site_fract_y
 _atom_site_fract_z
 _atom_site_occupancy
  Mg  Mg0  1  0.16508100  0.16508100  0.95456300  1
  Mg  Mg1  1  0.50075100  0.50075100  0.62556200  1
  Mg  Mg2  1  0.49913600  0.49913600  0.99532800  1
  Mg  Mg3  1  0.83553500  0.83553500  0.29189000  1
  Mg  Mg4  1  0.16730700  0.16730700  0.71075100  1
  Mg  Mg5  1  0.50056900  0.50056900  0.37511000  1
  W  W0  1  0.16749400  0.66412600  0.83628200  1
  W  W1  1  0.66231900  0.66231900  0.83460700  1
  W  W2  1  0.50005500  0.00126800  0.50042900  1
  W  W3  1  0.66412600  0.16749400  0.83628200  1
  W  W4  1  0.83434000  0.83434000  0.66804700  1
  W  W5  1  0.00078500  0.00078500  0.50006200  1
  W  W6  1  0.83496100  0.33787700  0.16488400  1
  W  W7  1  0.00126800  0.50005500  0.50042900  1
  W  W8  1  0.33787700  0.83496100  0.16488400  1
  W  W9  1  0.16902100  0.16902100  0.33249200  1
  W  W10  1  0.33708900  0.33708900  0.16418600  1
  W  W11  1  0.82979200  0.82979200  0.04538200  1
  O  O0  1  0.34301300  0.34301300  0.91962900  1
  O  O1  1  0.50018300  0.50018300  0.75795500  1
  O  O2  1  0.33695200  0.81278600  0.91516100  1
  O  O3  1  0.81278600  0.33695200  0.91516100  1
  O  O4  1  0.51751700  0.99538800  0.75426300  1
  O  O5  1  0.67739800  0.67739800  0.58361100  1
  O  O6  1  0.99538800  0.51751700  0.75426300  1
  O  O7  1  0.82282800  0.82282800  0.90946600  1
  O  O8  1  0.67087300  0.15155900  0.58003600  1
  O  O9  1  0.83697600  0.83697600  0.42328000  1
  O  O10  1  0.98983400  0.98983400  0.75245100  1
  O  O11  1  0.15155900  0.67087300  0.58003600  1
  O  O12  1  0.85089700  0.33073800  0.41903000  1
  O  O13  1  0.01290900  0.01290900  0.24819900  1
  O  O14  1  0.33073800  0.85089700  0.41903000  1
  O  O15  1  0.16411100  0.16411100  0.57695000  1
  O  O16  1  0.17258200  0.17258200  0.08918000  1
  O  O17  1  0.00733500  0.48766700  0.24472000  1
  O  O18  1  0.32444000  0.32444000  0.41651200  1
  O  O19  1  0.48766700  0.00733500  0.24472000  1
  O  O20  1  0.18894700  0.67180900  0.08802600  1
  O  O21  1  0.49954500  0.49954500  0.24177800  1
  O  O22  1  0.67180900  0.18894700  0.08802600  1
  O  O23  1  0.64601800  0.64601800  0.07645000  1
loop_
_geom_bond_atom_site_label_1
_geom_bond_atom_site_label_2
_geom_bond_distance
_geom_bond_site_symmetry_2
Mg0 O2 2.053293 1_545
Mg0 O3 2.053293 1_455
Mg0 O0 2.059323 1_555
Mg0 O16 2.094208 1_556
Mg1 O1 2.055968 1_555
Mg1 O8 2.068524 1_555
Mg1 O11 2.068524 1_555
Mg1 O5 2.074650 1_555
Mg2 O23 2.098063 1_556
Mg2 O3 2.126842 1_555
Mg2 O2 2.126842 1_555
Mg2 O0 2.132909 1_555
Mg2 O20 2.232656 1_556
Mg2 O22 2.232656 1_556
Mg3 O9 2.040947 1_555
Mg3 O19 2.070324 1_565
Mg3 O17 2.070324 1_655
Mg3 O13 2.090444 1_665
Mg4 O4 2.062757 1_545
Mg4 O6 2.062757 1_455
Mg4 O15 2.079075 1_555
Mg4 O10 2.082329 1_445
Mg5 O12 2.066002 1_555
Mg5 O14 2.066002 1_555
Mg5 O18 2.066639 1_555
Mg5 O21 2.070971 1_555
O0 W3 2.190672 1_555
O0 W0 2.190672 1_555
O1 W0 2.197421 1_555
O1 W3 2.197421 1_555
O1 W1 2.197843 1_555
O2 W1 2.184526 1_555
O2 W0 2.189671 1_555
O3 W1 2.184526 1_555
O3 W3 2.189671 1_555
O4 W4 2.196058 1_555
O4 W1 2.220995 1_555
O4 W3 2.221436 1_565
O5 W2 2.201631 1_565
O5 W7 2.201631 1_655
O5 W4 2.220411 1_555
O6 W4 2.196058 1_555
O6 W1 2.220995 1_555
O6 W0 2.221436 1_655
O7 W11 2.114000 1_556
O7 W1 2.166923 1_555
O7 W3 2.213635 1_565
O7 W0 2.213635 1_655
O8 W5 2.200724 1_655
O8 W2 2.210091 1_555
O8 W4 2.214797 1_545
O9 W2 2.207324 1_565
O9 W7 2.207324 1_655
O9 W5 2.214789 1_665
O10 W4 2.207000 1_555
O10 W0 2.215525 1_655
O10 W3 2.215525 1_565
O11 W5 2.200724 1_565
O11 W7 2.210091 1_555
O11 W4 2.214797 1_455
O12 W9 2.204778 1_655
O12 W5 2.210320 1_655
O12 W7 2.219577 1_655
O13 W6 2.207758 1_455
O13 W8 2.207758 1_545
O13 W9 2.211538 1_555
O14 W9 2.204778 1_565
O14 W5 2.210320 1_565
O14 W2 2.219577 1_565
O15 W2 2.197685 1_555
O15 W7 2.197685 1_555
O15 W5 2.211137 1_555
O16 W6 2.198662 1_455
O16 W8 2.198662 1_545
O16 W10 2.206203 1_555
O17 W10 2.204868 1_555
O17 W6 2.217257 1_455
O17 W9 2.218611 1_555
O18 W9 2.202679 1_555
O18 W2 2.204766 1_555
O18 W7 2.204766 1_555
O19 W10 2.204868 1_555
O19 W8 2.217257 1_545
O19 W9 2.218611 1_555
O20 W11 2.112198 1_455
O20 W8 2.142924 1_555
O20 W10 2.192512 1_555
O21 W6 2.198421 1_555
O21 W8 2.198421 1_555
O21 W10 2.209064 1_555
O22 W11 2.112198 1_545
O22 W6 2.142924 1_555
O22 W10 2.192512 1_555
O23 W11 2.109460 1_555
O23 W8 2.190907 1_555
O23 W6 2.190907 1_555
