# generated using pymatgen
data_La(BIr)2
_symmetry_space_group_name_H-M   'P 1'
_cell_length_a   6.59227600
_cell_length_b   6.59227600
_cell_length_c   8.44075300
_cell_angle_alpha   113.00968804
_cell_angle_beta   113.00968804
_cell_angle_gamma   89.94366840
_symmetry_Int_Tables_number   1
_chemical_formula_structural   La(BIr)2
_chemical_formula_sum   'La4 B8 Ir8'
_cell_volume   305.74203397
_cell_formula_units_Z   4
loop_
 _symmetry_equiv_pos_site_id
 _symmetry_equiv_pos_as_xyz
  1  'x, y, z'
loop_
 _atom_site_type_symbol
 _atom_site_label
 _atom_site_symmetry_multiplicity
 _atom_site_fract_x
 _atom_site_fract_y
 _atom_site_fract_z
 _atom_site_occupancy
  La  La0  1  0.62500000  0.87500000  0.75000000  1
  La  La1  1  0.12500000  0.87500000  0.75000000  1
  La  La2  1  0.12500000  0.37500000  0.25000000  1
  La  La3  1  0.12500000  0.87500000  0.25000000  1
  B  B0  1  0.38855900  0.25600600  0.78532800  1
  B  B1  1  0.39676900  0.52932200  0.78532800  1
  B  B2  1  0.74399400  0.61144100  0.21467200  1
  B  B3  1  0.86144100  0.49399400  0.71467200  1
  B  B4  1  0.47067800  0.60323100  0.21467200  1
  B  B5  1  0.85323100  0.22067800  0.71467200  1
  B  B6  1  0.50600600  0.13855900  0.28532800  1
  B  B7  1  0.77932200  0.14676900  0.28532800  1
  Ir  Ir0  1  0.18123300  0.46794500  0.93714700  1
  Ir  Ir1  1  0.75591400  0.46920200  0.93714700  1
  Ir  Ir2  1  0.53205500  0.81876700  0.06285300  1
  Ir  Ir3  1  0.06876700  0.28205500  0.56285300  1
  Ir  Ir4  1  0.53079800  0.24408600  0.06285300  1
  Ir  Ir5  1  0.49408600  0.28079800  0.56285300  1
  Ir  Ir6  1  0.71794500  0.93123300  0.43714700  1
  Ir  Ir7  1  0.71920200  0.50591400  0.43714700  1
loop_
_geom_bond_atom_site_label_1
_geom_bond_atom_site_label_2
_geom_bond_distance
_geom_bond_site_symmetry_2
B0 B1 1.802640 1_555
B0 Ir4 2.190750 1_556
B0 Ir3 2.270825 1_555
B0 Ir5 2.301833 1_555
B0 Ir0 2.329807 1_555
B0 Ir1 2.377958 1_555
B0 La1 2.904187 1_545
B0 La0 2.932093 1_545
B1 Ir2 2.190750 1_556
B1 Ir5 2.270825 1_555
B1 Ir3 2.301833 1_555
B1 Ir1 2.329807 1_555
B1 Ir0 2.377958 1_555
B1 La0 2.904187 1_555
B1 La1 2.932093 1_555
B2 B4 1.802640 1_555
B2 Ir1 2.190750 1_554
B2 Ir6 2.270825 1_555
B2 Ir7 2.301833 1_555
B2 Ir2 2.329807 1_555
B2 Ir4 2.377958 1_555
B2 La3 2.904187 1_655
B2 La2 2.932093 1_655
B3 B5 1.802640 1_555
B3 Ir7 2.190750 1_555
B3 Ir0 2.270825 1_655
B3 Ir1 2.301833 1_555
B3 Ir3 2.329807 1_655
B3 Ir5 2.377958 1_555
B3 La1 2.904187 1_655
B3 La0 2.932093 1_555
B4 Ir0 2.190750 1_554
B4 Ir7 2.270825 1_555
B4 Ir6 2.301833 1_555
B4 Ir4 2.329807 1_555
B4 Ir2 2.377958 1_555
B4 La2 2.904187 1_555
B4 La3 2.932093 1_555
B5 Ir6 2.190750 1_545
B5 Ir1 2.270825 1_555
B5 Ir0 2.301833 1_655
B5 Ir5 2.329807 1_555
B5 Ir3 2.377958 1_655
B5 La0 2.904187 1_545
B5 La1 2.932093 1_645
B6 B7 1.802640 1_555
B6 Ir5 2.190750 1_555
B6 Ir2 2.270825 1_545
B6 Ir4 2.301833 1_555
B6 Ir6 2.329807 1_545
B6 Ir7 2.377958 1_555
B6 La3 2.904187 1_545
B6 La2 2.932093 1_555
B7 Ir3 2.190750 1_655
B7 Ir4 2.270825 1_555
B7 Ir2 2.301833 1_545
B7 Ir7 2.329807 1_555
B7 Ir6 2.377958 1_545
B7 La2 2.904187 1_655
B7 La3 2.932093 1_645
Ir0 La2 3.084945 1_556
Ir0 La3 3.087898 1_556
Ir1 La3 3.084945 1_656
Ir1 La2 3.087898 1_656
Ir2 La0 3.084945 1_554
Ir2 La1 3.087898 1_554
Ir3 La2 3.084945 1_555
Ir3 La3 3.087898 1_545
Ir4 La1 3.084945 1_544
Ir4 La0 3.087898 1_544
Ir5 La3 3.084945 1_545
Ir5 La2 3.087898 1_555
Ir6 La0 3.084945 1_555
Ir6 La1 3.087898 1_655
Ir7 La1 3.084945 1_655
Ir7 La0 3.087898 1_555
