# generated using pymatgen
data_Mn3Ni3Sn2
_symmetry_space_group_name_H-M   'P 1'
_cell_length_a   4.31190321
_cell_length_b   4.31190321
_cell_length_c   7.44757107
_cell_angle_alpha   73.17294213
_cell_angle_beta   90.00000000
_cell_angle_gamma   120.00000000
_symmetry_Int_Tables_number   1
_chemical_formula_structural   Mn3Ni3Sn2
_chemical_formula_sum   'Mn3 Ni3 Sn2'
_cell_volume   113.01983874
_cell_formula_units_Z   1
loop_
 _symmetry_equiv_pos_site_id
 _symmetry_equiv_pos_as_xyz
  1  'x, y, z'
loop_
 _atom_site_type_symbol
 _atom_site_label
 _atom_site_symmetry_multiplicity
 _atom_site_fract_x
 _atom_site_fract_y
 _atom_site_fract_z
 _atom_site_occupancy
  Mn  Mn0  1  0.24858000  0.49715900  0.25426100  1
  Mn  Mn1  1  0.75114900  0.50229700  0.74655400  1
  Mn  Mn2  1  0.62304000  0.24608100  0.13087900  1
  Ni  Ni0  1  0.12782400  0.25564800  0.61652800  1
  Ni  Ni1  1  0.87778000  0.75556000  0.36666000  1
  Ni  Ni2  1  0.37129900  0.74259900  0.88610200  1
  Sn  Sn0  1  0.00421000  0.00841900  0.98737100  1
  Sn  Sn1  1  0.49611800  0.99223600  0.51164600  1
loop_
_geom_bond_atom_site_label_1
_geom_bond_atom_site_label_2
_geom_bond_distance
_geom_bond_site_symmetry_2
Mn0 Ni0 2.542815 1_555
Mn0 Ni2 2.584172 1_554
Mn0 Ni1 2.611501 1_445
Mn0 Ni1 2.611501 1_555
Mn0 Ni1 2.611504 1_455
Mn0 Mn2 2.635812 1_555
Mn0 Mn2 2.635819 1_455
Mn0 Mn2 2.635819 1_565
Mn0 Sn1 3.075939 1_545
Mn0 Sn1 3.075942 1_445
Mn0 Sn1 3.075942 1_555
Mn0 Sn0 3.115595 1_554
Mn0 Sn0 3.115595 1_664
Mn0 Sn0 3.115595 1_564
Mn1 Ni0 2.651503 1_655
Mn1 Ni0 2.651506 1_555
Mn1 Ni0 2.651506 1_665
Mn1 Ni1 2.666542 1_555
Mn1 Ni2 2.675245 1_545
Mn1 Ni2 2.675245 1_655
Mn1 Ni2 2.675252 1_555
Mn1 Mn2 2.697644 1_556
Mn1 Sn1 2.986007 1_545
Mn1 Sn1 2.986007 1_655
Mn1 Sn1 2.986010 1_555
Mn1 Sn0 3.009110 1_555
Mn1 Sn0 3.009110 1_655
Mn1 Sn0 3.009110 1_665
Mn2 Sn1 2.672670 1_545
Mn2 Sn0 2.685546 1_554
Mn2 Sn0 2.685546 1_664
Mn2 Sn0 2.685553 1_654
Mn2 Ni1 2.989395 1_555
Mn2 Ni1 2.989395 1_445
Mn2 Ni1 2.989398 1_545
Mn2 Ni2 3.024811 1_544
Mn2 Ni2 3.024811 1_654
Mn2 Ni2 3.024811 1_554
Ni0 Sn1 2.596049 1_555
Ni0 Sn1 2.596049 1_445
Ni0 Sn1 2.596049 1_545
Ni0 Sn0 2.603012 1_555
Ni1 Sn0 2.662296 1_664
Ni1 Sn1 2.689457 1_655
Ni1 Sn1 2.689457 1_555
Ni1 Sn1 2.689457 1_545
Ni2 Sn0 2.588967 1_565
Ni2 Sn0 2.588974 1_555
Ni2 Sn0 2.588974 1_665
Ni2 Sn1 2.628372 1_555
