# generated using pymatgen
data_ThAlNi
_symmetry_space_group_name_H-M   'P 1'
_cell_length_a   7.01392116
_cell_length_b   7.01392116
_cell_length_c   4.07614215
_cell_angle_alpha   90.00000000
_cell_angle_beta   90.00000000
_cell_angle_gamma   120.00000091
_symmetry_Int_Tables_number   1
_chemical_formula_structural   ThAlNi
_chemical_formula_sum   'Th3 Al3 Ni3'
_cell_volume   173.66076432
_cell_formula_units_Z   3
loop_
 _symmetry_equiv_pos_site_id
 _symmetry_equiv_pos_as_xyz
  1  'x, y, z'
loop_
 _atom_site_type_symbol
 _atom_site_label
 _atom_site_symmetry_multiplicity
 _atom_site_fract_x
 _atom_site_fract_y
 _atom_site_fract_z
 _atom_site_occupancy
  Th  Th0  1  1.00000000  0.42290689  0.50000000  1
  Th  Th1  1  0.57709311  0.57709311  0.50000000  1
  Th  Th2  1  0.42290689  1.00000000  0.50000000  1
  Al  Al0  1  1.00000000  0.77223820  0.00000000  1
  Al  Al1  1  0.22776180  0.22776180  0.00000000  1
  Al  Al2  1  0.77223820  1.00000000  0.00000000  1
  Ni  Ni0  1  0.33333300  0.66666700  -0.00000000  1
  Ni  Ni1  1  0.66666700  0.33333300  -0.00000000  1
  Ni  Ni2  1  -0.00000000  -0.00000000  0.50000000  1
loop_
_geom_bond_atom_site_label_1
_geom_bond_atom_site_label_2
_geom_bond_distance
_geom_bond_site_symmetry_2
Al0 Ni2 2.589546 1_665
Al0 Ni2 2.589546 1_664
Al0 Al1 2.766957 1_665
Al0 Al2 2.766957 1_555
Al0 Ni0 2.783091 1_655
Al0 Ni1 2.783096 1_555
Al0 Th0 3.187025 1_554
Al0 Th0 3.187025 1_555
Al0 Th2 3.281118 1_655
Al0 Th2 3.281118 1_654
Al0 Th1 3.281118 1_554
Al0 Th1 3.281118 1_555
Al1 Ni2 2.589546 1_554
Al1 Ni2 2.589546 1_555
Al1 Al2 2.766957 1_445
Al1 Ni1 2.783098 1_555
Al1 Ni0 2.783098 1_555
Al1 Th1 3.187025 1_554
Al1 Th1 3.187025 1_555
Al1 Th0 3.281118 1_454
Al1 Th0 3.281118 1_455
Al1 Th2 3.281118 1_544
Al1 Th2 3.281118 1_545
Al2 Ni2 2.589546 1_665
Al2 Ni2 2.589546 1_664
Al2 Ni1 2.783091 1_565
Al2 Ni0 2.783096 1_555
Al2 Th2 3.187025 1_554
Al2 Th2 3.187025 1_555
Al2 Th0 3.281118 1_564
Al2 Th0 3.281118 1_565
Al2 Th1 3.281118 1_554
Al2 Th1 3.281118 1_555
Ni0 Th2 2.923302 1_555
Ni0 Th2 2.923302 1_554
Ni0 Th0 2.923304 1_454
Ni0 Th0 2.923304 1_455
Ni0 Th1 2.923307 1_554
Ni0 Th1 2.923307 1_555
Ni1 Th0 2.923302 1_555
Ni1 Th0 2.923302 1_554
Ni1 Th2 2.923304 1_544
Ni1 Th2 2.923304 1_545
Ni1 Th1 2.923307 1_555
Ni1 Th1 2.923307 1_554
Ni2 Th1 2.966236 1_445
Ni2 Th0 2.966236 1_455
Ni2 Th2 2.966236 1_545
