# generated using pymatgen
data_KSrNbBiO6
_symmetry_space_group_name_H-M   'P 1'
_cell_length_a   8.42830001
_cell_length_b   8.42962685
_cell_length_c   8.45897155
_cell_angle_alpha   90.00000000
_cell_angle_beta   90.00000000
_cell_angle_gamma   90.00000000
_symmetry_Int_Tables_number   1
_chemical_formula_structural   KSrNbBiO6
_chemical_formula_sum   'K4 Sr4 Nb4 Bi4 O24'
_cell_volume   600.98813886
_cell_formula_units_Z   4
loop_
 _symmetry_equiv_pos_site_id
 _symmetry_equiv_pos_as_xyz
  1  'x, y, z'
loop_
 _atom_site_type_symbol
 _atom_site_label
 _atom_site_symmetry_multiplicity
 _atom_site_fract_x
 _atom_site_fract_y
 _atom_site_fract_z
 _atom_site_occupancy
  K  K0  1  -0.00000000  0.50000000  0.50000000  1
  K  K1  1  0.50000000  0.50000000  -0.00000000  1
  K  K2  1  0.50000000  0.00000000  -0.00000000  1
  K  K3  1  -0.00000000  0.00000000  0.50000000  1
  Sr  Sr0  1  0.50000000  0.00000000  0.50000000  1
  Sr  Sr1  1  -0.00000000  0.50000000  0.00000000  1
  Sr  Sr2  1  -0.00000000  -0.00000000  -0.00000000  1
  Sr  Sr3  1  0.50000000  0.50000000  0.50000000  1
  Nb  Nb0  1  0.25000000  0.25000000  0.25000000  1
  Nb  Nb1  1  0.75000000  0.75000000  0.25000000  1
  Nb  Nb2  1  0.75000000  0.25000000  0.75000000  1
  Nb  Nb3  1  0.25000000  0.75000000  0.75000000  1
  Bi  Bi0  1  0.75000000  0.75000000  0.75000000  1
  Bi  Bi1  1  0.25000000  0.25000000  0.75000000  1
  Bi  Bi2  1  0.25000000  0.75000000  0.25000000  1
  Bi  Bi3  1  0.75000000  0.25000000  0.25000000  1
  O  O0  1  0.01356698  0.23392631  0.25648423  1
  O  O1  1  0.98643302  0.76607369  0.25648423  1
  O  O2  1  0.98643302  0.23392631  0.74351577  1
  O  O3  1  0.01356698  0.76607369  0.74351577  1
  O  O4  1  0.26323204  0.01343862  0.23563383  1
  O  O5  1  0.26323204  0.98656138  0.76436617  1
  O  O6  1  0.73676796  0.98656138  0.23563383  1
  O  O7  1  0.73676796  0.01343862  0.76436617  1
  O  O8  1  0.22224451  0.26393378  0.01227464  1
  O  O9  1  0.77775549  0.26393378  0.98772536  1
  O  O10  1  0.22224451  0.73606622  0.98772536  1
  O  O11  1  0.77775549  0.73606622  0.01227464  1
  O  O12  1  0.48643302  0.26607369  0.24351577  1
  O  O13  1  0.51356698  0.73392631  0.24351577  1
  O  O14  1  0.51356698  0.26607369  0.75648423  1
  O  O15  1  0.48643302  0.73392631  0.75648423  1
  O  O16  1  0.23676796  0.48656138  0.26436617  1
  O  O17  1  0.23676796  0.51343862  0.73563383  1
  O  O18  1  0.76323204  0.51343862  0.26436617  1
  O  O19  1  0.76323204  0.48656138  0.73563383  1
  O  O20  1  0.27775549  0.23606622  0.48772536  1
  O  O21  1  0.72224451  0.23606622  0.51227464  1
  O  O22  1  0.27775549  0.76393378  0.51227464  1
  O  O23  1  0.72224451  0.76393378  0.48772536  1
loop_
_geom_bond_atom_site_label_1
_geom_bond_atom_site_label_2
_geom_bond_distance
_geom_bond_site_symmetry_2
K0 O16 2.822762 1_555
K0 O18 2.822762 1_455
K0 O19 2.822762 1_455
K0 O17 2.822762 1_555
K0 O0 3.047432 1_555
K0 O1 3.047432 1_455
K0 O3 3.047432 1_555
K0 O2 3.047432 1_455
K0 O22 3.231271 1_555
K0 O23 3.231271 1_455
K0 O20 3.231271 1_555
K0 O21 3.231271 1_455
K1 O12 2.853887 1_555
K1 O13 2.853887 1_555
K1 O14 2.853887 1_554
K1 O15 2.853887 1_554
K1 O8 3.074247 1_555
K1 O10 3.074247 1_554
K1 O11 3.074247 1_555
K1 O9 3.074247 1_554
K1 O17 3.152126 1_554
K1 O19 3.152126 1_554
K1 O16 3.152126 1_555
K1 O18 3.152126 1_555
K2 O7 2.822762 1_554
K2 O5 2.822762 1_544
K2 O4 2.822762 1_555
K2 O6 2.822762 1_545
K2 O12 3.047432 1_555
K2 O15 3.047432 1_544
K2 O14 3.047432 1_554
K2 O13 3.047432 1_545
K2 O9 3.231271 1_554
K2 O11 3.231271 1_545
K2 O10 3.231271 1_544
K2 O8 3.231271 1_555
K3 O0 2.853887 1_555
K3 O2 2.853887 1_455
K3 O3 2.853887 1_545
K3 O1 2.853887 1_445
K3 O20 3.074247 1_555
K3 O23 3.074247 1_445
K3 O22 3.074247 1_545
K3 O21 3.074247 1_455
K3 O6 3.152126 1_445
K3 O4 3.152126 1_555
K3 O5 3.152126 1_545
K3 O7 3.152126 1_455
Nb0 O0 1.998083 1_555
Nb0 O12 1.998083 1_555
Nb0 O16 2.000934 1_555
Nb0 O4 2.000934 1_555
Nb0 O8 2.027878 1_555
Nb0 O20 2.027878 1_555
Nb1 O13 1.998083 1_555
Nb1 O1 1.998083 1_555
Nb1 O18 2.000934 1_555
Nb1 O6 2.000934 1_555
Nb1 O11 2.027878 1_555
Nb1 O23 2.027878 1_555
Nb2 O14 1.998083 1_555
Nb2 O2 1.998083 1_555
Nb2 O7 2.000934 1_555
Nb2 O19 2.000934 1_555
Nb2 O21 2.027878 1_555
Nb2 O9 2.027878 1_555
Nb3 O3 1.998083 1_555
Nb3 O15 1.998083 1_555
Nb3 O17 2.000934 1_555
Nb3 O5 2.000934 1_555
Nb3 O22 2.027878 1_555
Nb3 O10 2.027878 1_555
Bi0 O3 2.226226 1_655
Bi0 O15 2.226226 1_555
Bi0 O19 2.226806 1_555
Bi0 O7 2.226806 1_565
Bi0 O11 2.233963 1_556
Bi0 O23 2.233963 1_555
Bi1 O2 2.226226 1_455
Bi1 O14 2.226226 1_555
Bi1 O5 2.226806 1_545
Bi1 O17 2.226806 1_555
Bi1 O20 2.233963 1_555
Bi1 O8 2.233963 1_556
Bi2 O13 2.226226 1_555
Bi2 O1 2.226226 1_455
Bi2 O16 2.226806 1_555
Bi2 O4 2.226806 1_565
Bi2 O10 2.233963 1_554
Bi2 O22 2.233963 1_555
Bi3 O0 2.226226 1_655
Bi3 O12 2.226226 1_555
Bi3 O6 2.226806 1_545
Bi3 O18 2.226806 1_555
Bi3 O21 2.233963 1_555
Bi3 O9 2.233963 1_554
O0 Sr2 2.934049 1_555
O0 Sr1 3.122630 1_555
O1 Sr2 2.934049 1_665
O1 Sr1 3.122630 1_655
O2 Sr2 2.934049 1_656
O2 Sr1 3.122630 1_656
O3 Sr2 2.934049 1_566
O3 Sr1 3.122630 1_556
O4 Sr2 2.984617 1_555
O4 Sr0 2.999324 1_555
O5 Sr2 2.984617 1_566
O5 Sr0 2.999324 1_565
O6 Sr2 2.984617 1_665
O6 Sr0 2.999324 1_565
O7 Sr2 2.984617 1_656
O7 Sr0 2.999324 1_555
O8 Sr1 2.734840 1_555
O8 Sr2 2.910234 1_555
O9 Sr1 2.734840 1_656
O9 Sr2 2.910234 1_656
O10 Sr1 2.734840 1_556
O10 Sr2 2.910234 1_566
O11 Sr1 2.734840 1_655
O11 Sr2 2.910234 1_665
O12 Sr3 2.934049 1_555
O12 Sr0 3.122630 1_555
O13 Sr3 2.934049 1_555
O13 Sr0 3.122630 1_565
O14 Sr3 2.934049 1_555
O14 Sr0 3.122630 1_555
O15 Sr3 2.934049 1_555
O15 Sr0 3.122630 1_565
O16 Sr3 2.984617 1_555
O16 Sr1 2.999324 1_555
O17 Sr3 2.984617 1_555
O17 Sr1 2.999324 1_556
O18 Sr3 2.984617 1_555
O18 Sr1 2.999324 1_655
O19 Sr3 2.984617 1_555
O19 Sr1 2.999324 1_656
O20 Sr0 2.734840 1_555
O20 Sr3 2.910234 1_555
O21 Sr0 2.734840 1_555
O21 Sr3 2.910234 1_555
O22 Sr0 2.734840 1_565
O22 Sr3 2.910234 1_555
O23 Sr0 2.734840 1_565
O23 Sr3 2.910234 1_555
