# generated using pymatgen
data_TaRe
_symmetry_space_group_name_H-M   'P 1'
_cell_length_a   5.58184393
_cell_length_b   5.58184393
_cell_length_c   8.88818677
_cell_angle_alpha   90.00000000
_cell_angle_beta   90.00000000
_cell_angle_gamma   110.22411306
_symmetry_Int_Tables_number   1
_chemical_formula_structural   TaRe
_chemical_formula_sum   'Ta8 Re8'
_cell_volume   259.85573629
_cell_formula_units_Z   8
loop_
 _symmetry_equiv_pos_site_id
 _symmetry_equiv_pos_as_xyz
  1  'x, y, z'
loop_
 _atom_site_type_symbol
 _atom_site_label
 _atom_site_symmetry_multiplicity
 _atom_site_fract_x
 _atom_site_fract_y
 _atom_site_fract_z
 _atom_site_occupancy
  Ta  Ta0_0  1  0.25000000  0.25000000  0.25000000  1
  Ta  Ta0_1  1  0.25000000  0.25000000  0.75000000  1
  Ta  Ta0_2  1  0.25000000  0.75000000  0.25000000  1
  Ta  Ta0_3  1  0.25000000  0.75000000  0.75000000  1
  Ta  Ta0_4  1  0.75000000  0.25000000  0.25000000  1
  Ta  Ta0_5  1  0.75000000  0.25000000  0.75000000  1
  Ta  Ta0_6  1  0.75000000  0.75000000  0.25000000  1
  Ta  Ta0_7  1  0.75000000  0.75000000  0.75000000  1
  Re  Re0_0  1  0.00000000  0.00000000  0.00000000  1
  Re  Re0_1  1  0.00000000  0.00000000  0.50000000  1
  Re  Re0_2  1  0.00000000  0.50000000  0.00000000  1
  Re  Re0_3  1  0.00000000  0.50000000  0.50000000  1
  Re  Re0_4  1  0.50000000  0.00000000  0.00000000  1
  Re  Re0_5  1  0.50000000  0.00000000  0.50000000  1
  Re  Re0_6  1  0.50000000  0.50000000  0.00000000  1
  Re  Re0_7  1  0.50000000  0.50000000  0.50000000  1
loop_
_geom_bond_atom_site_label_1
_geom_bond_atom_site_label_2
_geom_bond_distance
_geom_bond_site_symmetry_2
Ta0_0 Ta0_4 2.790922 1_455
Ta0_0 Ta0_4 2.790922 1_555
Ta0_0 Ta0_2 2.790922 1_555
Ta0_0 Ta0_2 2.790922 1_545
Ta0_1 Ta0_5 2.790922 1_455
Ta0_1 Ta0_3 2.790922 1_545
Ta0_1 Ta0_3 2.790922 1_555
Ta0_1 Ta0_5 2.790922 1_555
Ta0_2 Ta0_6 2.790922 1_455
Ta0_2 Ta0_6 2.790922 1_555
Ta0_3 Ta0_7 2.790922 1_555
Ta0_3 Ta0_7 2.790922 1_455
Ta0_4 Ta0_6 2.790922 1_545
Ta0_4 Ta0_6 2.790922 1_555
Ta0_5 Ta0_7 2.790922 1_545
Ta0_5 Ta0_7 2.790922 1_555
Re0_0 Ta0_1 2.736014 1_554
Re0_0 Ta0_7 2.736014 1_444
Re0_0 Ta0_0 2.736014 1_555
Re0_0 Ta0_6 2.736014 1_445
Re0_0 Re0_2 2.790922 1_555
Re0_0 Re0_4 2.790922 1_555
Re0_0 Re0_4 2.790922 1_455
Re0_0 Re0_2 2.790922 1_545
Re0_1 Ta0_0 2.736014 1_555
Re0_1 Ta0_6 2.736014 1_445
Re0_1 Ta0_7 2.736014 1_445
Re0_1 Ta0_1 2.736014 1_555
Re0_1 Re0_5 2.790922 1_455
Re0_1 Re0_3 2.790922 1_545
Re0_1 Re0_5 2.790922 1_555
Re0_1 Re0_3 2.790922 1_555
Re0_2 Ta0_5 2.736014 1_454
Re0_2 Ta0_2 2.736014 1_555
Re0_2 Ta0_3 2.736014 1_554
Re0_2 Ta0_4 2.736014 1_455
Re0_2 Re0_6 2.790922 1_455
Re0_2 Re0_6 2.790922 1_555
Re0_3 Ta0_3 2.736014 1_555
Re0_3 Ta0_2 2.736014 1_555
Re0_3 Ta0_5 2.736014 1_455
Re0_3 Ta0_4 2.736014 1_455
Re0_3 Re0_7 2.790922 1_455
Re0_3 Re0_7 2.790922 1_555
Re0_4 Ta0_4 2.736014 1_555
Re0_4 Ta0_5 2.736014 1_554
Re0_4 Ta0_2 2.736014 1_545
Re0_4 Ta0_3 2.736014 1_544
Re0_4 Re0_6 2.790922 1_555
Re0_4 Re0_6 2.790922 1_545
Re0_5 Ta0_5 2.736014 1_555
Re0_5 Ta0_3 2.736014 1_545
Re0_5 Ta0_4 2.736014 1_555
Re0_5 Ta0_2 2.736014 1_545
Re0_5 Re0_7 2.790922 1_545
Re0_5 Re0_7 2.790922 1_555
Re0_6 Ta0_7 2.736014 1_554
Re0_6 Ta0_1 2.736014 1_554
Re0_6 Ta0_0 2.736014 1_555
Re0_6 Ta0_6 2.736014 1_555
Re0_7 Ta0_0 2.736014 1_555
Re0_7 Ta0_6 2.736014 1_555
Re0_7 Ta0_1 2.736014 1_555
Re0_7 Ta0_7 2.736014 1_555
