# generated using pymatgen
data_Te2Mo3W(Se2S)2
_symmetry_space_group_name_H-M   'P 1'
_cell_length_a   3.34265462
_cell_length_b   3.34265462
_cell_length_c   38.05885000
_cell_angle_alpha   90.00000000
_cell_angle_beta   90.00000000
_cell_angle_gamma   120.00001234
_symmetry_Int_Tables_number   1
_chemical_formula_structural   Te2Mo3W(Se2S)2
_chemical_formula_sum   'Te2 Mo3 W1 Se4 S2'
_cell_volume   368.27246672
_cell_formula_units_Z   1
loop_
 _symmetry_equiv_pos_site_id
 _symmetry_equiv_pos_as_xyz
  1  'x, y, z'
loop_
 _atom_site_type_symbol
 _atom_site_label
 _atom_site_symmetry_multiplicity
 _atom_site_fract_x
 _atom_site_fract_y
 _atom_site_fract_z
 _atom_site_occupancy
  Te  Te0  1  0.66666700  0.33333300  0.04401600  1
  Te  Te1  1  0.66666700  0.33333300  0.14374100  1
  Mo  Mo0  1  0.33333300  0.66666700  0.09385200  1
  Mo  Mo1  1  0.33333300  0.66666700  0.46966900  1
  Mo  Mo2  1  0.66666700  0.33333300  0.28184400  1
  W  W0  1  0.66666700  0.33333300  0.65754900  1
  Se  Se0  1  0.33333300  0.66666700  0.32566100  1
  Se  Se1  1  0.66666700  0.33333300  0.42580900  1
  Se  Se2  1  0.66666700  0.33333300  0.51353500  1
  Se  Se3  1  0.33333300  0.66666700  0.23799000  1
  S  S0  1  0.33333300  0.66666700  0.69751500  1
  S  S1  1  0.33333300  0.66666700  0.61756600  1
loop_
_geom_bond_atom_site_label_1
_geom_bond_atom_site_label_2
_geom_bond_distance
_geom_bond_site_symmetry_2
Mo0 Te0 2.705903 1_455
Mo0 Te0 2.705903 1_565
Mo0 Te0 2.705908 1_555
Mo0 Te1 2.707318 1_455
Mo0 Te1 2.707318 1_565
Mo0 Te1 2.707322 1_555
Mo1 Se1 2.551641 1_455
Mo1 Se1 2.551641 1_565
Mo1 Se1 2.551646 1_555
Mo1 Se2 2.551790 1_565
Mo1 Se2 2.551790 1_455
Mo1 Se2 2.551795 1_555
Mo2 Se0 2.550571 1_545
Mo2 Se0 2.550571 1_655
Mo2 Se0 2.550575 1_555
Mo2 Se3 2.551491 1_545
Mo2 Se3 2.551491 1_655
Mo2 Se3 2.551496 1_555
S0 W0 2.457247 1_455
S0 W0 2.457247 1_565
S0 W0 2.457252 1_555
S1 W0 2.457647 1_455
S1 W0 2.457647 1_565
S1 W0 2.457652 1_555
