# generated using pymatgen
data_Ta7BiO19
_symmetry_space_group_name_H-M   'P 1'
_cell_length_a   6.27304000
_cell_length_b   6.27304000
_cell_length_c   20.21733000
_cell_angle_alpha   90.00000000
_cell_angle_beta   90.00000000
_cell_angle_gamma   120.00000001
_symmetry_Int_Tables_number   1
_chemical_formula_structural   Ta7BiO19
_chemical_formula_sum   'Ta14 Bi2 O38'
_cell_volume   688.98623502
_cell_formula_units_Z   2
loop_
 _symmetry_equiv_pos_site_id
 _symmetry_equiv_pos_as_xyz
  1  'x, y, z'
loop_
 _atom_site_type_symbol
 _atom_site_label
 _atom_site_symmetry_multiplicity
 _atom_site_fract_x
 _atom_site_fract_y
 _atom_site_fract_z
 _atom_site_occupancy
  Ta  Ta0  1  0.00000000  0.00000000  0.00000000  1
  Ta  Ta1  1  0.00000000  0.00000000  0.50000000  1
  Ta  Ta2  1  0.66724400  0.69361000  0.84372500  1
  Ta  Ta3  1  0.30639000  0.97363400  0.84372500  1
  Ta  Ta4  1  0.02636600  0.33275600  0.84372500  1
  Ta  Ta5  1  0.66724400  0.69361000  0.65627500  1
  Ta  Ta6  1  0.30639000  0.97363400  0.65627500  1
  Ta  Ta7  1  0.02636600  0.33275600  0.65627500  1
  Ta  Ta8  1  0.66724400  0.97363400  0.34372500  1
  Ta  Ta9  1  0.30639000  0.33275600  0.34372500  1
  Ta  Ta10  1  0.02636600  0.69361000  0.34372500  1
  Ta  Ta11  1  0.66724400  0.97363400  0.15627500  1
  Ta  Ta12  1  0.30639000  0.33275600  0.15627500  1
  Ta  Ta13  1  0.02636600  0.69361000  0.15627500  1
  Bi  Bi0  1  0.33333300  0.66666700  0.00000000  1
  Bi  Bi1  1  0.33333300  0.66666700  0.50000000  1
  O  O0  1  0.66680000  0.08628000  0.84655700  1
  O  O1  1  0.91372000  0.58052000  0.84655700  1
  O  O2  1  0.41948000  0.33320000  0.84655700  1
  O  O3  1  0.66680000  0.08628000  0.65344300  1
  O  O4  1  0.91372000  0.58052000  0.65344300  1
  O  O5  1  0.41948000  0.33320000  0.65344300  1
  O  O6  1  0.66680000  0.58052000  0.34655700  1
  O  O7  1  0.91372000  0.33320000  0.34655700  1
  O  O8  1  0.41948000  0.08628000  0.34655700  1
  O  O9  1  0.66680000  0.58052000  0.15344300  1
  O  O10  1  0.91372000  0.33320000  0.15344300  1
  O  O11  1  0.41948000  0.08628000  0.15344300  1
  O  O12  1  0.00000000  0.00000000  0.83283700  1
  O  O13  1  0.00000000  0.00000000  0.66716300  1
  O  O14  1  0.00000000  0.00000000  0.33283700  1
  O  O15  1  0.00000000  0.00000000  0.16716300  1
  O  O16  1  0.33333300  0.66666700  0.86634600  1
  O  O17  1  0.33333300  0.66666700  0.63365400  1
  O  O18  1  0.33333300  0.66666700  0.36634600  1
  O  O19  1  0.33333300  0.66666700  0.13365400  1
  O  O20  1  0.62509300  0.70788800  0.75000000  1
  O  O21  1  0.29211200  0.91720500  0.75000000  1
  O  O22  1  0.08279500  0.37490700  0.75000000  1
  O  O23  1  0.62509300  0.91720500  0.25000000  1
  O  O24  1  0.29211200  0.37490700  0.25000000  1
  O  O25  1  0.08279500  0.70788800  0.25000000  1
  O  O26  1  0.71600300  0.76165700  0.94352200  1
  O  O27  1  0.23834300  0.95434600  0.94352200  1
  O  O28  1  0.04565400  0.28399700  0.94352200  1
  O  O29  1  0.71600300  0.76165700  0.55647800  1
  O  O30  1  0.23834300  0.95434600  0.55647800  1
  O  O31  1  0.04565400  0.28399700  0.55647800  1
  O  O32  1  0.71600300  0.95434600  0.44352200  1
  O  O33  1  0.23834300  0.28399700  0.44352200  1
  O  O34  1  0.04565400  0.76165700  0.44352200  1
  O  O35  1  0.71600300  0.95434600  0.05647800  1
  O  O36  1  0.23834300  0.28399700  0.05647800  1
  O  O37  1  0.04565400  0.76165700  0.05647800  1
loop_
_geom_bond_atom_site_label_1
_geom_bond_atom_site_label_2
_geom_bond_distance
_geom_bond_site_symmetry_2
Bi0 O27 2.447620 1_554
Bi0 O37 2.447620 1_555
Bi0 O35 2.447624 1_555
Bi0 O28 2.447624 1_554
Bi0 O36 2.447626 1_555
Bi0 O26 2.447626 1_554
Bi0 O19 2.702127 1_555
Bi0 O16 2.702127 1_554
Bi1 O30 2.447620 1_555
Bi1 O34 2.447620 1_555
Bi1 O31 2.447624 1_555
Bi1 O32 2.447624 1_555
Bi1 O29 2.447626 1_555
Bi1 O33 2.447626 1_555
Bi1 O17 2.702127 1_555
Bi1 O18 2.702127 1_555
O0 Ta4 1.998503 1_655
O0 Ta3 2.004126 1_545
O0 Ta2 2.465293 1_545
O1 Ta2 1.998503 1_555
O1 Ta4 2.004126 1_655
O1 Ta3 2.465293 1_655
O2 Ta3 1.998503 1_545
O2 Ta2 2.004126 1_555
O2 Ta4 2.465293 1_555
O3 Ta7 1.998503 1_655
O3 Ta6 2.004126 1_545
O3 Ta5 2.465293 1_545
O4 Ta5 1.998503 1_555
O4 Ta7 2.004126 1_655
O4 Ta6 2.465293 1_655
O5 Ta6 1.998503 1_545
O5 Ta5 2.004126 1_555
O5 Ta7 2.465293 1_555
O6 Ta10 1.998503 1_655
O6 Ta9 2.004126 1_555
O6 Ta8 2.465293 1_555
O7 Ta8 1.998503 1_545
O7 Ta10 2.004126 1_655
O7 Ta9 2.465293 1_655
O8 Ta9 1.998503 1_555
O8 Ta8 2.004126 1_545
O8 Ta10 2.465293 1_545
O9 Ta13 1.998503 1_655
O9 Ta12 2.004126 1_555
O9 Ta11 2.465293 1_555
O10 Ta11 1.998503 1_545
O10 Ta13 2.004126 1_655
O10 Ta12 2.465293 1_655
O11 Ta12 1.998503 1_555
O11 Ta11 2.004126 1_545
O11 Ta13 2.465293 1_545
O12 Ta2 2.021824 1_445
O12 Ta4 2.021824 1_555
O12 Ta3 2.021824 1_545
O13 Ta5 2.021824 1_445
O13 Ta7 2.021824 1_555
O13 Ta6 2.021824 1_545
O14 Ta9 2.021824 1_555
O14 Ta8 2.021824 1_445
O14 Ta10 2.021824 1_545
O15 Ta12 2.021824 1_555
O15 Ta11 2.021824 1_445
O15 Ta13 2.021824 1_545
O16 Ta3 2.066683 1_555
O16 Ta4 2.066686 1_555
O16 Ta2 2.066689 1_555
O17 Ta6 2.066683 1_555
O17 Ta7 2.066686 1_555
O17 Ta5 2.066689 1_555
O18 Ta10 2.066683 1_555
O18 Ta8 2.066686 1_555
O18 Ta9 2.066689 1_555
O19 Ta13 2.066683 1_555
O19 Ta11 2.066686 1_555
O19 Ta12 2.066689 1_555
O20 Ta2 1.921497 1_555
O20 Ta5 1.921497 1_555
O21 Ta3 1.921497 1_555
O21 Ta6 1.921497 1_555
O22 Ta4 1.921497 1_555
O22 Ta7 1.921497 1_555
O23 Ta11 1.921497 1_555
O23 Ta8 1.921497 1_555
O24 Ta9 1.921497 1_555
O24 Ta12 1.921497 1_555
O25 Ta13 1.921497 1_555
O25 Ta10 1.921497 1_555
O26 Ta0 2.012318 1_666
O26 Ta2 2.053297 1_555
O27 Ta0 2.012318 1_566
O27 Ta3 2.053297 1_555
O28 Ta0 2.012318 1_556
O28 Ta4 2.053297 1_555
O29 Ta1 2.012318 1_665
O29 Ta5 2.053297 1_555
O30 Ta1 2.012318 1_565
O30 Ta6 2.053297 1_555
O31 Ta1 2.012318 1_555
O31 Ta7 2.053297 1_555
O32 Ta1 2.012318 1_665
O32 Ta8 2.053297 1_555
O33 Ta1 2.012318 1_555
O33 Ta9 2.053297 1_555
O34 Ta1 2.012318 1_565
O34 Ta10 2.053297 1_555
O35 Ta0 2.012318 1_665
O35 Ta11 2.053297 1_555
O36 Ta0 2.012318 1_555
O36 Ta12 2.053297 1_555
O37 Ta0 2.012318 1_565
O37 Ta13 2.053297 1_555
