# generated using pymatgen
data_Tm2B6Rh
_symmetry_space_group_name_H-M   'P 1'
_cell_length_a   3.60507761
_cell_length_b   9.08656409
_cell_length_c   11.40940265
_cell_angle_alpha   90.00000000
_cell_angle_beta   90.00000000
_cell_angle_gamma   90.00000000
_symmetry_Int_Tables_number   1
_chemical_formula_structural   Tm2B6Rh
_chemical_formula_sum   'Tm8 B24 Rh4'
_cell_volume   373.74657362
_cell_formula_units_Z   4
loop_
 _symmetry_equiv_pos_site_id
 _symmetry_equiv_pos_as_xyz
  1  'x, y, z'
loop_
 _atom_site_type_symbol
 _atom_site_label
 _atom_site_symmetry_multiplicity
 _atom_site_fract_x
 _atom_site_fract_y
 _atom_site_fract_z
 _atom_site_occupancy
  Tm  Tm0  1  0.50000000  0.32222242  0.41364975  1
  Tm  Tm1  1  0.50000000  0.67777758  0.58635025  1
  Tm  Tm2  1  0.50000000  0.17777758  0.91364975  1
  Tm  Tm3  1  0.50000000  0.82222242  0.08635025  1
  Tm  Tm4  1  0.50000000  0.44438815  0.12635189  1
  Tm  Tm5  1  0.50000000  0.55561185  0.87364811  1
  Tm  Tm6  1  0.50000000  0.05561185  0.62635189  1
  Tm  Tm7  1  0.50000000  0.94438815  0.37364811  1
  B  B0  1  0.00000000  0.10980063  0.47003743  1
  B  B1  1  0.00000000  0.89019937  0.52996257  1
  B  B2  1  0.00000000  0.39019937  0.97003743  1
  B  B3  1  -0.00000000  0.60980063  0.02996257  1
  B  B4  1  -0.00000000  0.13332973  0.31609036  1
  B  B5  1  0.00000000  0.86667027  0.68390964  1
  B  B6  1  -0.00000000  0.36667027  0.81609036  1
  B  B7  1  0.00000000  0.63332973  0.18390964  1
  B  B8  1  0.00000000  0.05330648  0.06561807  1
  B  B9  1  0.00000000  0.94669352  0.93438193  1
  B  B10  1  0.00000000  0.44669352  0.56561807  1
  B  B11  1  0.00000000  0.55330648  0.43438193  1
  B  B12  1  0.00000000  0.48232994  0.28739981  1
  B  B13  1  0.00000000  0.51767006  0.71260019  1
  B  B14  1  0.00000000  0.01767006  0.78739981  1
  B  B15  1  0.00000000  0.98232994  0.21260019  1
  B  B16  1  0.00000000  0.24945031  0.07941510  1
  B  B17  1  0.00000000  0.75054969  0.92058490  1
  B  B18  1  0.00000000  0.25054969  0.57941510  1
  B  B19  1  0.00000000  0.74945031  0.42058490  1
  B  B20  1  0.00000000  0.29455205  0.23590657  1
  B  B21  1  0.00000000  0.70544795  0.76409343  1
  B  B22  1  0.00000000  0.20544795  0.73590657  1
  B  B23  1  -0.00000000  0.79455205  0.26409343  1
  Rh  Rh0  1  0.50000000  0.13972282  0.17909549  1
  Rh  Rh1  1  0.50000000  0.86027718  0.82090451  1
  Rh  Rh2  1  0.50000000  0.36027718  0.67909549  1
  Rh  Rh3  1  0.50000000  0.63972282  0.32090451  1
loop_
_geom_bond_atom_site_label_1
_geom_bond_atom_site_label_2
_geom_bond_distance
_geom_bond_site_symmetry_2
B0 B4 1.769408 1_555
B0 B18 1.786894 1_555
B0 B1 2.109304 1_545
B0 Tm6 2.583080 1_455
B0 Tm6 2.583080 1_555
B0 Tm7 2.591850 1_445
B0 Tm7 2.591850 1_545
B0 Tm0 2.718208 1_555
B0 Tm0 2.718208 1_455
B1 B5 1.769408 1_555
B1 B19 1.786894 1_555
B1 Tm7 2.583080 1_455
B1 Tm7 2.583080 1_555
B1 Tm6 2.591850 1_565
B1 Tm6 2.591850 1_465
B1 Tm1 2.718208 1_455
B1 Tm1 2.718208 1_555
B2 B6 1.769408 1_555
B2 B3 2.109304 1_556
B2 Tm4 2.583080 1_556
B2 Tm4 2.583080 1_456
B2 Tm5 2.591850 1_455
B2 Tm5 2.591850 1_555
B2 Tm2 2.718208 1_455
B2 Tm2 2.718208 1_555
B3 B7 1.769408 1_555
B3 Tm5 2.583080 1_454
B3 Tm5 2.583080 1_554
B3 Tm4 2.591850 1_555
B3 Tm4 2.591850 1_455
B3 Tm3 2.718208 1_455
B3 Tm3 2.718208 1_555
B4 Rh0 2.386542 1_555
B4 Rh0 2.386542 1_455
B4 Tm7 2.574472 1_445
B4 Tm7 2.574472 1_545
B4 Tm0 2.726555 1_555
B4 Tm0 2.726555 1_455
B5 Rh1 2.386542 1_555
B5 Rh1 2.386542 1_455
B5 Tm6 2.574472 1_465
B5 Tm6 2.574472 1_565
B5 Tm1 2.726555 1_455
B5 Tm1 2.726555 1_555
B6 Rh2 2.386542 1_455
B6 Rh2 2.386542 1_555
B6 Tm5 2.574472 1_555
B6 Tm5 2.574472 1_455
B6 Tm2 2.726555 1_455
B6 Tm2 2.726555 1_555
B7 Rh3 2.386542 1_555
B7 Rh3 2.386542 1_455
B7 Tm4 2.574472 1_455
B7 Tm4 2.574472 1_555
B7 Tm3 2.726555 1_455
B7 Tm3 2.726555 1_555
B8 B9 1.783382 1_544
B8 Rh0 2.354146 1_555
B8 Rh0 2.354146 1_455
B8 Tm2 2.744929 1_554
B8 Tm2 2.744929 1_454
B8 Tm3 2.777425 1_445
B8 Tm3 2.777425 1_545
B9 Rh1 2.354146 1_555
B9 Rh1 2.354146 1_455
B9 Tm3 2.744929 1_456
B9 Tm3 2.744929 1_556
B9 Tm2 2.777425 1_565
B9 Tm2 2.777425 1_465
B10 B11 1.783382 1_555
B10 B18 1.789212 1_555
B10 B13 1.796718 1_555
B10 Rh2 2.354146 1_455
B10 Rh2 2.354146 1_555
B10 Tm0 2.744929 1_555
B10 Tm0 2.744929 1_455
B10 Tm1 2.777425 1_555
B10 Tm1 2.777425 1_455
B11 B19 1.789212 1_555
B11 B12 1.796718 1_555
B11 Rh3 2.354146 1_455
B11 Rh3 2.354146 1_555
B11 Tm1 2.744929 1_455
B11 Tm1 2.744929 1_555
B11 Tm0 2.777425 1_455
B11 Tm0 2.777425 1_555
B12 B20 1.804570 1_555
B12 B7 1.810185 1_555
B12 Rh3 2.332517 1_455
B12 Rh3 2.332517 1_555
B12 Tm4 2.596973 1_555
B12 Tm4 2.596973 1_455
B12 Tm0 2.727733 1_555
B12 Tm0 2.727733 1_455
B13 B21 1.804570 1_555
B13 B6 1.810185 1_555
B13 Rh2 2.332517 1_455
B13 Rh2 2.332517 1_555
B13 Tm5 2.596973 1_555
B13 Tm5 2.596973 1_455
B13 Tm1 2.727733 1_555
B13 Tm1 2.727733 1_455
B14 B9 1.796718 1_545
B14 B22 1.804570 1_555
B14 B5 1.810185 1_545
B14 Rh1 2.332517 1_445
B14 Rh1 2.332517 1_545
B14 Tm6 2.596973 1_555
B14 Tm6 2.596973 1_455
B14 Tm2 2.727733 1_555
B14 Tm2 2.727733 1_455
B15 B8 1.796718 1_565
B15 B23 1.804570 1_555
B15 B4 1.810185 1_565
B15 Rh0 2.332517 1_565
B15 Rh0 2.332517 1_465
B15 Tm7 2.596973 1_555
B15 Tm7 2.596973 1_455
B15 Tm3 2.727733 1_555
B15 Tm3 2.727733 1_455
B16 B2 1.786894 1_554
B16 B8 1.789212 1_555
B16 B20 1.831903 1_555
B16 Rh0 2.353016 1_555
B16 Rh0 2.353016 1_455
B16 Tm4 2.583309 1_555
B16 Tm4 2.583309 1_455
B16 Tm2 2.692627 1_554
B16 Tm2 2.692627 1_454
B17 B3 1.786894 1_556
B17 B9 1.789212 1_555
B17 B21 1.831903 1_555
B17 Rh1 2.353016 1_455
B17 Rh1 2.353016 1_555
B17 Tm5 2.583309 1_455
B17 Tm5 2.583309 1_555
B17 Tm3 2.692627 1_556
B17 Tm3 2.692627 1_456
B18 B22 1.831903 1_555
B18 Rh2 2.353016 1_555
B18 Rh2 2.353016 1_455
B18 Tm6 2.583309 1_455
B18 Tm6 2.583309 1_555
B18 Tm0 2.692627 1_555
B18 Tm0 2.692627 1_455
B19 B23 1.831903 1_555
B19 Rh3 2.353016 1_555
B19 Rh3 2.353016 1_455
B19 Tm7 2.583309 1_455
B19 Tm7 2.583309 1_555
B19 Tm1 2.692627 1_555
B19 Tm1 2.692627 1_455
B20 B4 1.727150 1_555
B20 Rh0 2.376669 1_455
B20 Rh0 2.376669 1_555
B20 Tm4 2.581705 1_555
B20 Tm4 2.581705 1_455
B20 Tm0 2.724870 1_455
B20 Tm0 2.724870 1_555
B21 B5 1.727150 1_555
B21 Rh1 2.376669 1_455
B21 Rh1 2.376669 1_555
B21 Tm5 2.581705 1_455
B21 Tm5 2.581705 1_555
B21 Tm1 2.724870 1_555
B21 Tm1 2.724870 1_455
B22 B6 1.727150 1_555
B22 Rh2 2.376669 1_555
B22 Rh2 2.376669 1_455
B22 Tm6 2.581705 1_455
B22 Tm6 2.581705 1_555
B22 Tm2 2.724870 1_455
B22 Tm2 2.724870 1_555
B23 B7 1.727150 1_555
B23 Rh3 2.376669 1_555
B23 Rh3 2.376669 1_455
B23 Tm7 2.581705 1_555
B23 Tm7 2.581705 1_455
B23 Tm3 2.724870 1_555
B23 Tm3 2.724870 1_455
Rh0 Tm4 2.833011 1_555
Rh0 Tm7 2.842102 1_545
Rh0 Tm2 3.048253 1_554
Rh0 Tm3 3.072926 1_545
Rh0 Tm0 3.148266 1_555
Rh1 Tm5 2.833011 1_555
Rh1 Tm6 2.842102 1_565
Rh1 Tm3 3.048253 1_556
Rh1 Tm2 3.072926 1_565
Rh1 Tm1 3.148266 1_555
Rh2 Tm6 2.833011 1_555
Rh2 Tm5 2.842102 1_555
Rh2 Tm0 3.048253 1_555
Rh2 Tm1 3.072926 1_555
Rh2 Tm2 3.148266 1_555
Rh3 Tm7 2.833011 1_555
Rh3 Tm4 2.842102 1_555
Rh3 Tm1 3.048253 1_555
Rh3 Tm0 3.072926 1_555
Rh3 Tm3 3.148266 1_555
