# generated using pymatgen
data_Nb6(Pb2O5)5
_symmetry_space_group_name_H-M   'P 1'
_cell_length_a   7.68109900
_cell_length_b   7.73427600
_cell_length_c   11.08169649
_cell_angle_alpha   89.66316803
_cell_angle_beta   90.00000000
_cell_angle_gamma   90.00000000
_symmetry_Int_Tables_number   1
_chemical_formula_structural   Nb6(Pb2O5)5
_chemical_formula_sum   'Nb6 Pb10 O25'
_cell_volume   658.32716396
_cell_formula_units_Z   1
loop_
 _symmetry_equiv_pos_site_id
 _symmetry_equiv_pos_as_xyz
  1  'x, y, z'
loop_
 _atom_site_type_symbol
 _atom_site_label
 _atom_site_symmetry_multiplicity
 _atom_site_fract_x
 _atom_site_fract_y
 _atom_site_fract_z
 _atom_site_occupancy
  Nb  Nb0  1  0.74825300  0.25074900  0.74089200  1
  Nb  Nb1  1  0.00000000  0.50138900  0.98630200  1
  Nb  Nb2  1  0.24432400  0.73914300  0.24025400  1
  Nb  Nb3  1  0.50000000  0.99458200  0.48888900  1
  Nb  Nb4  1  0.25174700  0.25074900  0.74089200  1
  Nb  Nb5  1  0.75567600  0.73914300  0.24025400  1
  Pb  Pb0  1  0.00000000  0.00754600  0.99842300  1
  Pb  Pb1  1  0.50000000  0.50926500  0.49447400  1
  Pb  Pb2  1  0.74265200  0.76803100  0.74443600  1
  Pb  Pb3  1  0.00000000  0.98816200  0.47348300  1
  Pb  Pb4  1  0.23460200  0.24690900  0.25323100  1
  Pb  Pb5  1  0.76539800  0.24690900  0.25323100  1
  Pb  Pb6  1  0.00000000  0.49326300  0.48703500  1
  Pb  Pb7  1  0.50000000  0.48952500  0.98626700  1
  Pb  Pb8  1  0.25734800  0.76803100  0.74443600  1
  Pb  Pb9  1  0.50000000  0.00672600  0.98885900  1
  O  O0  1  0.73273400  0.46110200  0.64983300  1
  O  O1  1  0.00000000  0.73836500  0.92528300  1
  O  O2  1  0.00000000  0.78823800  0.30715200  1
  O  O3  1  0.69088500  0.90358900  0.39259500  1
  O  O4  1  0.79013200  0.94732100  0.13435700  1
  O  O5  1  0.20986800  0.94732100  0.13435700  1
  O  O6  1  0.69098900  0.09335100  0.61437700  1
  O  O7  1  0.00000000  0.26874400  0.09227300  1
  O  O8  1  0.50000000  0.21796800  0.40938900  1
  O  O9  1  0.50000000  0.26368500  0.81254000  1
  O  O10  1  0.26726600  0.46110200  0.64983300  1
  O  O11  1  0.80694400  0.42301600  0.89131500  1
  O  O12  1  0.19305600  0.42301600  0.89131500  1
  O  O13  1  0.19025400  0.58039400  0.11409000  1
  O  O14  1  0.76069400  0.53182900  0.35374600  1
  O  O15  1  0.80974600  0.58039400  0.11409000  1
  O  O16  1  0.50000000  0.73358300  0.21051600  1
  O  O17  1  0.50000000  0.74159400  0.87985300  1
  O  O18  1  0.50000000  0.79812600  0.61336400  1
  O  O19  1  0.30911500  0.90358900  0.39259500  1
  O  O20  1  0.77602700  0.04794200  0.87424200  1
  O  O21  1  0.22397300  0.04794200  0.87424200  1
  O  O22  1  0.30901100  0.09335100  0.61437700  1
  O  O23  1  0.00000000  0.22248800  0.71416300  1
  O  O24  1  0.23930600  0.53182900  0.35374600  1
loop_
_geom_bond_atom_site_label_1
_geom_bond_atom_site_label_2
_geom_bond_distance
_geom_bond_site_symmetry_2
Nb0 O0 1.913129 1_555
Nb0 O6 1.913402 1_555
Nb0 O23 1.968615 1_655
Nb0 O9 2.068200 1_555
Nb0 O20 2.159255 1_555
Nb0 O11 2.187058 1_555
Nb1 O12 1.918821 1_555
Nb1 O11 1.918821 1_455
Nb1 O1 1.949862 1_555
Nb1 O13 2.127084 1_556
Nb1 O15 2.127084 1_456
Nb1 O7 2.142861 1_556
Nb2 O13 1.911779 1_555
Nb2 O16 1.991837 1_555
Nb2 O5 2.004349 1_555
Nb2 O24 2.032366 1_555
Nb2 O2 2.054020 1_555
Nb2 O19 2.177287 1_555
Nb3 O8 1.934762 1_565
Nb3 O3 1.947455 1_555
Nb3 O19 1.947455 1_555
Nb3 O18 2.046167 1_555
Nb3 O6 2.163787 1_565
Nb3 O22 2.163787 1_565
Nb4 O10 1.913129 1_555
Nb4 O22 1.913402 1_555
Nb4 O23 1.968615 1_555
Nb4 O9 2.068200 1_555
Nb4 O21 2.159255 1_555
Nb4 O12 2.187058 1_555
Nb5 O15 1.911779 1_555
Nb5 O16 1.991837 1_555
Nb5 O4 2.004349 1_555
Nb5 O14 2.032366 1_555
Nb5 O2 2.054020 1_655
Nb5 O3 2.177287 1_555
O0 Pb1 2.508181 1_555
O0 Pb2 2.601808 1_555
O0 Pb6 2.743297 1_655
O1 Pb0 2.238564 1_565
O2 Pb3 2.412872 1_555
O3 Pb3 2.622165 1_655
O4 Pb0 2.253108 1_664
O4 Pb5 2.678855 1_565
O4 Pb9 2.787197 1_564
O5 Pb0 2.253108 1_564
O5 Pb4 2.678855 1_565
O5 Pb9 2.787197 1_564
O7 Pb0 2.277599 1_554
O7 Pb4 2.540419 1_555
O7 Pb5 2.540419 1_455
O8 Pb1 2.447425 1_555
O8 Pb5 2.682507 1_555
O8 Pb4 2.682507 1_555
O9 Pb7 2.607084 1_555
O9 Pb9 2.778821 1_555
O10 Pb1 2.508181 1_555
O10 Pb8 2.601808 1_555
O10 Pb6 2.743297 1_555
O11 Pb7 2.633771 1_555
O12 Pb7 2.633771 1_555
O14 Pb6 2.375764 1_655
O14 Pb5 2.475270 1_555
O14 Pb1 2.543420 1_555
O17 Pb7 2.272536 1_555
O17 Pb9 2.386063 1_565
O17 Pb2 2.400839 1_555
O17 Pb8 2.400839 1_555
O18 Pb2 2.373571 1_555
O18 Pb8 2.373571 1_555
O18 Pb1 2.600339 1_555
O19 Pb3 2.622165 1_555
O20 Pb0 2.223948 1_655
O20 Pb9 2.491054 1_555
O20 Pb2 2.618848 1_545
O21 Pb0 2.223948 1_555
O21 Pb9 2.491054 1_555
O21 Pb8 2.618848 1_545
O24 Pb6 2.375764 1_555
O24 Pb4 2.475270 1_555
O24 Pb1 2.543420 1_555
