# generated using pymatgen
data_Mg2CrGa3S8
_symmetry_space_group_name_H-M   'P 1'
_cell_length_a   7.30664914
_cell_length_b   7.31952441
_cell_length_c   7.30671600
_cell_angle_alpha   60.05782603
_cell_angle_beta   59.99910959
_cell_angle_gamma   60.05837496
_symmetry_Int_Tables_number   1
_chemical_formula_structural   Mg2CrGa3S8
_chemical_formula_sum   'Mg2 Cr1 Ga3 S8'
_cell_volume   276.55801760
_cell_formula_units_Z   1
loop_
 _symmetry_equiv_pos_site_id
 _symmetry_equiv_pos_as_xyz
  1  'x, y, z'
loop_
 _atom_site_type_symbol
 _atom_site_label
 _atom_site_symmetry_multiplicity
 _atom_site_fract_x
 _atom_site_fract_y
 _atom_site_fract_z
 _atom_site_occupancy
  Mg  Mg0  1  0.87468800  0.87592200  0.87470300  1
  Mg  Mg1  1  0.12531500  0.12408700  0.12529900  1
  Cr  Cr0  1  0.50001200  0.00000200  0.49997900  1
  Ga  Ga0  1  0.49999100  0.50001800  0.49998700  1
  Ga  Ga1  1  0.49999500  0.49999400  0.00000000  1
  Ga  Ga2  1  0.00000300  0.49998200  0.50002800  1
  S  S0  1  0.73465000  0.74478000  0.73465900  1
  S  S1  1  0.26534100  0.25521500  0.71409000  1
  S  S2  1  0.26101100  0.71695600  0.26102100  1
  S  S3  1  0.71409700  0.25523100  0.26533400  1
  S  S4  1  0.73896900  0.28305700  0.73897600  1
  S  S5  1  0.28591300  0.74477400  0.73465700  1
  S  S6  1  0.26534600  0.25521000  0.26535900  1
  S  S7  1  0.73467400  0.74476800  0.28591000  1
loop_
_geom_bond_atom_site_label_1
_geom_bond_atom_site_label_2
_geom_bond_distance
_geom_bond_site_symmetry_2
Mg0 S4 2.435328 1_565
Mg0 S7 2.454145 1_556
Mg0 S5 2.454244 1_655
Mg0 S0 2.454264 1_555
Mg1 S2 2.435304 1_545
Mg1 S1 2.454159 1_554
Mg1 S3 2.454202 1_455
Mg1 S6 2.454205 1_555
Cr0 S6 2.431803 1_555
Cr0 S7 2.431880 1_545
Cr0 S3 2.431901 1_555
Cr0 S5 2.431965 1_545
Cr0 S0 2.431967 1_545
Cr0 S1 2.431974 1_555
Ga0 S2 2.476406 1_555
Ga0 S4 2.476509 1_555
Ga0 S5 2.486615 1_555
Ga0 S7 2.486620 1_555
Ga0 S3 2.486678 1_555
Ga0 S1 2.486720 1_555
Ga1 S4 2.476466 1_554
Ga1 S2 2.476573 1_555
Ga1 S6 2.486623 1_555
Ga1 S5 2.486629 1_554
Ga1 S0 2.486652 1_554
Ga1 S3 2.486675 1_555
Ga2 S4 2.476428 1_455
Ga2 S2 2.476530 1_555
Ga2 S1 2.486503 1_555
Ga2 S0 2.486633 1_455
Ga2 S6 2.486682 1_555
Ga2 S7 2.486727 1_455
