# generated using pymatgen
data_Sr2FeReO6
_symmetry_space_group_name_H-M   'P 1'
_cell_length_a   5.60630118
_cell_length_b   5.64098876
_cell_length_c   18.64243933
_cell_angle_alpha   98.19934228
_cell_angle_beta   89.96161219
_cell_angle_gamma   119.79081181
_symmetry_Int_Tables_number   1
_chemical_formula_structural   Sr2FeReO6
_chemical_formula_sum   'Sr8 Fe4 Re4 O24'
_cell_volume   504.73067011
_cell_formula_units_Z   4
loop_
 _symmetry_equiv_pos_site_id
 _symmetry_equiv_pos_as_xyz
  1  'x, y, z'
loop_
 _atom_site_type_symbol
 _atom_site_label
 _atom_site_symmetry_multiplicity
 _atom_site_fract_x
 _atom_site_fract_y
 _atom_site_fract_z
 _atom_site_occupancy
  Sr  Sr0  1  0.68759600  0.37585300  0.06270700  1
  Sr  Sr1  1  0.18694100  0.37432100  0.56139600  1
  Sr  Sr2  1  0.93724900  0.87481600  0.81222500  1
  Sr  Sr3  1  0.43798900  0.87517800  0.31377300  1
  Sr  Sr4  1  0.31311700  0.62571900  0.93869700  1
  Sr  Sr5  1  0.81239400  0.62413500  0.43717900  1
  Sr  Sr6  1  0.56275100  0.12526100  0.68796600  1
  Sr  Sr7  1  0.06194200  0.12478100  0.18609000  1
  Fe  Fe0  1  0.87473400  0.74936500  0.62445400  1
  Fe  Fe1  1  0.62526100  0.25046100  0.87561900  1
  Fe  Fe2  1  0.37465600  0.75200700  0.12783800  1
  Fe  Fe3  1  0.12542200  0.24799200  0.37210100  1
  Re  Re0  1  0.99984800  0.99963700  0.99917000  1
  Re  Re1  1  0.50022700  0.00041700  0.50086300  1
  Re  Re2  1  0.25000000  0.50000000  0.75002100  1
  Re  Re3  1  0.74996500  0.49995700  0.24995000  1
  O  O0  1  0.81684900  0.63194600  0.93851500  1
  O  O1  1  0.31535000  0.63178100  0.43892700  1
  O  O2  1  0.06658200  0.13257700  0.68895500  1
  O  O3  1  0.56651600  0.13185000  0.18833500  1
  O  O4  1  0.18449600  0.36796300  0.06102200  1
  O  O5  1  0.68333200  0.36837500  0.56155300  1
  O  O6  1  0.43346300  0.86753400  0.81108200  1
  O  O7  1  0.93338400  0.86799700  0.31159400  1
  O  O8  1  0.28021300  0.13992500  0.92971400  1
  O  O9  1  0.78108400  0.14013800  0.43036400  1
  O  O10  1  0.52892200  0.64039900  0.67982500  1
  O  O11  1  0.03057800  0.64155300  0.17931500  1
  O  O12  1  0.47888300  0.39619400  0.80233700  1
  O  O13  1  0.97948100  0.39489100  0.30256400  1
  O  O14  1  0.72788000  0.89516800  0.55279600  1
  O  O15  1  0.22733800  0.89538900  0.05246600  1
  O  O16  1  0.77227100  0.10468900  0.94727200  1
  O  O17  1  0.27249300  0.10478300  0.44751200  1
  O  O18  1  0.02122600  0.60383400  0.69770400  1
  O  O19  1  0.52040100  0.60507000  0.19736000  1
  O  O20  1  0.97102600  0.35961200  0.82021800  1
  O  O21  1  0.46947900  0.35844000  0.32060300  1
  O  O22  1  0.21955500  0.86006700  0.57037300  1
  O  O23  1  0.71910500  0.85992400  0.06955000  1
loop_
_geom_bond_atom_site_label_1
_geom_bond_atom_site_label_2
_geom_bond_distance
_geom_bond_site_symmetry_2
Fe0 O22 2.030021 1_655
Fe0 O14 2.031404 1_555
Fe0 O5 2.033881 1_555
Fe0 O10 2.048459 1_555
Fe0 O18 2.050464 1_655
Fe0 O2 2.055638 1_665
Fe1 O8 2.031269 1_555
Fe1 O16 2.031746 1_555
Fe1 O0 2.035834 1_555
Fe1 O20 2.048452 1_555
Fe1 O12 2.051304 1_555
Fe1 O6 2.054792 1_545
Fe2 O11 2.000998 1_555
Fe2 O19 2.003807 1_555
Fe2 O3 2.010534 1_565
Fe2 O23 2.073207 1_555
Fe2 O15 2.073684 1_555
Fe2 O4 2.078093 1_555
Fe3 O21 2.001111 1_555
Fe3 O13 2.004528 1_455
Fe3 O7 2.011234 1_445
Fe3 O9 2.072489 1_455
Fe3 O17 2.072730 1_555
Fe3 O1 2.077173 1_555
O0 Re0 1.962481 1_555
O0 Sr4 2.799856 1_655
O0 Sr2 2.806166 1_555
O0 Sr4 2.806793 1_555
O0 Sr0 2.807833 1_556
O1 Re1 1.976547 1_565
O1 Sr1 2.782955 1_555
O1 Sr3 2.788390 1_555
O1 Sr5 2.798684 1_455
O1 Sr5 2.808353 1_555
O2 Re2 1.964675 1_555
O2 Sr2 2.797183 1_445
O2 Sr6 2.802416 1_555
O2 Sr6 2.804387 1_455
O2 Sr1 2.824595 1_555
O3 Re3 1.971832 1_555
O3 Sr7 2.797733 1_655
O3 Sr0 2.798083 1_555
O3 Sr7 2.809450 1_555
O3 Sr3 2.830342 1_545
O4 Re0 1.974626 1_444
O4 Sr4 2.781405 1_554
O4 Sr7 2.786342 1_555
O4 Sr0 2.798810 1_555
O4 Sr0 2.808233 1_455
O5 Re1 1.963834 1_555
O5 Sr1 2.799742 1_555
O5 Sr1 2.806875 1_655
O5 Sr6 2.808919 1_555
O5 Sr5 2.809932 1_555
O6 Re2 1.965081 1_555
O6 Sr6 2.794515 1_565
O6 Sr2 2.802583 1_455
O6 Sr2 2.804245 1_555
O6 Sr4 2.825740 1_555
O7 Re3 1.971797 1_555
O7 Sr5 2.796967 1_555
O7 Sr3 2.797864 1_555
O7 Sr3 2.809299 1_655
O7 Sr7 2.831766 1_665
O8 Re0 1.956266 1_445
O8 Sr4 2.634097 1_555
O8 Sr2 2.635318 1_445
O8 Sr4 3.024238 1_545
O8 Sr0 3.029939 1_556
O9 Re1 1.971627 1_555
O9 Sr3 2.623031 1_545
O9 Sr5 2.631719 1_555
O9 Sr1 2.998274 1_655
O9 Sr5 3.022041 1_545
O10 Re2 1.961438 1_555
O10 Sr6 2.627922 1_565
O10 Sr1 2.646521 1_555
O10 Sr2 3.024896 1_555
O10 Sr6 3.029298 1_555
O11 Re3 1.973712 1_455
O11 Sr0 2.623351 1_455
O11 Sr7 2.627331 1_565
O11 Sr7 3.026399 1_555
O11 Sr3 3.051441 1_555
O12 Re2 1.962620 1_555
O12 Sr6 2.624155 1_555
O12 Sr2 2.625178 1_555
O12 Sr2 3.030564 1_445
O12 Sr4 3.042348 1_555
O13 Re3 1.973404 1_555
O13 Sr3 2.628797 1_655
O13 Sr7 2.646706 1_655
O13 Sr5 3.020344 1_555
O13 Sr3 3.030622 1_545
O14 Re1 1.958902 1_565
O14 Sr1 2.630526 1_665
O14 Sr5 2.643141 1_555
O14 Sr1 3.022419 1_555
O14 Sr6 3.024822 1_565
O15 Re0 1.968042 1_454
O15 Sr4 2.617053 1_554
O15 Sr0 2.635178 1_565
O15 Sr7 3.001574 1_565
O15 Sr0 3.021365 1_455
O16 Re0 1.957434 1_545
O16 Sr4 2.630260 1_545
O16 Sr0 2.641484 1_556
O16 Sr2 3.022040 1_545
O16 Sr4 3.022556 1_655
O17 Re1 1.970155 1_555
O17 Sr1 2.617598 1_555
O17 Sr5 2.635187 1_445
O17 Sr3 3.004074 1_545
O17 Sr5 3.021673 1_555
O18 Re2 1.962250 1_555
O18 Sr6 2.625530 1_455
O18 Sr2 2.626634 1_455
O18 Sr6 3.029826 1_565
O18 Sr1 3.041418 1_555
O19 Re3 1.973562 1_555
O19 Sr7 2.628599 1_555
O19 Sr3 2.645734 1_555
O19 Sr0 3.021135 1_555
O19 Sr7 3.030995 1_665
O20 Re2 1.961619 1_655
O20 Sr2 2.627932 1_545
O20 Sr4 2.647512 1_655
O20 Sr6 3.022679 1_555
O20 Sr2 3.028998 1_555
O21 Re3 1.973485 1_555
O21 Sr5 2.622734 1_555
O21 Sr3 2.627103 1_545
O21 Sr3 3.026771 1_555
O21 Sr7 3.052587 1_555
O22 Re1 1.958061 1_565
O22 Sr1 2.634564 1_555
O22 Sr6 2.637398 1_565
O22 Sr1 3.023613 1_565
O22 Sr5 3.032106 1_455
O23 Re0 1.969636 1_554
O23 Sr7 2.621618 1_665
O23 Sr0 2.631583 1_555
O23 Sr4 2.996155 1_554
O23 Sr0 3.022317 1_565
