# generated using pymatgen
data_Cs2CuMoI6
_symmetry_space_group_name_H-M   'P 1'
_cell_length_a   8.16356335
_cell_length_b   8.16356335
_cell_length_c   8.16356335
_cell_angle_alpha   60.00000000
_cell_angle_beta   60.00000000
_cell_angle_gamma   60.00000000
_symmetry_Int_Tables_number   1
_chemical_formula_structural   Cs2CuMoI6
_chemical_formula_sum   'Cs2 Cu1 Mo1 I6'
_cell_volume   384.70187515
_cell_formula_units_Z   1
loop_
 _symmetry_equiv_pos_site_id
 _symmetry_equiv_pos_as_xyz
  1  'x, y, z'
loop_
 _atom_site_type_symbol
 _atom_site_label
 _atom_site_symmetry_multiplicity
 _atom_site_fract_x
 _atom_site_fract_y
 _atom_site_fract_z
 _atom_site_occupancy
  Cs  Cs0  1  0.75000000  0.75000000  0.75000000  1
  Cs  Cs1  1  0.25000000  0.25000000  0.25000000  1
  Cu  Cu0  1  0.50000000  0.50000000  0.50000000  1
  Mo  Mo0  1  0.00000000  0.00000000  0.00000000  1
  I  I0  1  0.75271300  0.24728700  0.24728700  1
  I  I1  1  0.24728700  0.24728700  0.75271300  1
  I  I2  1  0.24728700  0.75271300  0.75271300  1
  I  I3  1  0.24728700  0.75271300  0.24728700  1
  I  I4  1  0.75271300  0.24728700  0.75271300  1
  I  I5  1  0.75271300  0.75271300  0.24728700  1
loop_
_geom_bond_atom_site_label_1
_geom_bond_atom_site_label_2
_geom_bond_distance
_geom_bond_site_symmetry_2
Cs0 I1 4.081902 1_565
Cs0 I5 4.081902 1_556
Cs0 I1 4.081902 1_655
Cs0 I5 4.081902 1_555
Cs0 I3 4.081902 1_556
Cs0 I4 4.081902 1_555
Cs0 I0 4.081902 1_565
Cs0 I2 4.081902 1_555
Cs0 I3 4.081902 1_655
Cs0 I0 4.081902 1_556
Cs0 I2 4.081902 1_655
Cs0 I4 4.081902 1_565
Cs1 I5 4.081902 1_455
Cs1 I1 4.081902 1_555
Cs1 I5 4.081902 1_545
Cs1 I1 4.081902 1_554
Cs1 I3 4.081902 1_555
Cs1 I3 4.081902 1_545
Cs1 I0 4.081902 1_455
Cs1 I2 4.081902 1_554
Cs1 I4 4.081902 1_455
Cs1 I2 4.081902 1_545
Cs1 I4 4.081902 1_554
Cs1 I0 4.081902 1_555
Cu0 I0 2.917577 1_555
Cu0 I1 2.917577 1_555
Cu0 I4 2.917577 1_555
Cu0 I5 2.917577 1_555
Cu0 I2 2.917577 1_555
Cu0 I3 2.917577 1_555
I0 Mo0 2.854934 1_655
I1 Mo0 2.854934 1_556
I2 Mo0 2.854934 1_566
I3 Mo0 2.854934 1_565
I4 Mo0 2.854934 1_656
I5 Mo0 2.854934 1_665
