# generated using pymatgen
data_YbAgSe2
_symmetry_space_group_name_H-M   'P 1'
_cell_length_a   5.77399800
_cell_length_b   6.24761700
_cell_length_c   10.11520900
_cell_angle_alpha   90.00000000
_cell_angle_beta   90.00000000
_cell_angle_gamma   90.00000000
_symmetry_Int_Tables_number   1
_chemical_formula_structural   YbAgSe2
_chemical_formula_sum   'Yb4 Ag4 Se8'
_cell_volume   364.89329876
_cell_formula_units_Z   4
loop_
 _symmetry_equiv_pos_site_id
 _symmetry_equiv_pos_as_xyz
  1  'x, y, z'
loop_
 _atom_site_type_symbol
 _atom_site_label
 _atom_site_symmetry_multiplicity
 _atom_site_fract_x
 _atom_site_fract_y
 _atom_site_fract_z
 _atom_site_occupancy
  Yb  Yb0  1  0.28940700  0.26224700  0.14062400  1
  Yb  Yb1  1  0.21059300  0.73775300  0.64062400  1
  Yb  Yb2  1  0.78940700  0.23775300  0.85937600  1
  Yb  Yb3  1  0.71059300  0.76224700  0.35937600  1
  Ag  Ag0  1  0.16004200  0.75780700  0.13162600  1
  Ag  Ag1  1  0.33995800  0.24219300  0.63162600  1
  Ag  Ag2  1  0.66004200  0.74219300  0.86837400  1
  Ag  Ag3  1  0.83995800  0.25780700  0.36837400  1
  Se  Se0  1  0.26227200  0.42637700  0.86902400  1
  Se  Se1  1  0.24306700  0.94457500  0.89791000  1
  Se  Se2  1  0.25693300  0.05542500  0.39791000  1
  Se  Se3  1  0.23772800  0.57362300  0.36902400  1
  Se  Se4  1  0.76227200  0.07362300  0.13097600  1
  Se  Se5  1  0.74306700  0.55542500  0.10209000  1
  Se  Se6  1  0.75693300  0.44457500  0.60209000  1
  Se  Se7  1  0.73772800  0.92637700  0.63097600  1
loop_
_geom_bond_atom_site_label_1
_geom_bond_atom_site_label_2
_geom_bond_distance
_geom_bond_site_symmetry_2
Ag0 Se1 2.679602 1_554
Ag0 Se3 2.700320 1_555
Ag0 Se5 2.735796 1_455
Ag0 Se4 3.027886 1_465
Ag0 Yb0 3.186199 1_555
Ag0 Yb0 3.240135 1_565
Ag1 Se2 2.679602 1_555
Ag1 Se0 2.700320 1_555
Ag1 Se6 2.735796 1_555
Ag1 Se7 3.027886 1_545
Ag1 Yb1 3.186199 1_555
Ag1 Yb1 3.240135 1_545
Ag2 Se5 2.679602 1_556
Ag2 Se7 2.700320 1_555
Ag2 Se1 2.735796 1_555
Ag2 Se0 3.027886 1_555
Ag2 Yb2 3.186199 1_565
Ag2 Yb2 3.240135 1_555
Ag3 Se6 2.679602 1_555
Ag3 Se4 2.700320 1_555
Ag3 Se2 2.735796 1_655
Ag3 Se3 3.027886 1_655
Ag3 Yb3 3.186199 1_545
Ag3 Yb3 3.240135 1_555
Se0 Yb0 2.936604 1_556
Se0 Yb2 2.975387 1_455
Se0 Yb1 3.034964 1_555
Se0 Yb2 3.265308 1_555
Se1 Yb1 2.911668 1_555
Se1 Yb0 3.168301 1_566
Se1 Yb2 3.219991 1_465
Se2 Yb0 2.911668 1_555
Se2 Yb1 3.168301 1_545
Se2 Yb3 3.219991 1_545
Se3 Yb1 2.936604 1_555
Se3 Yb3 2.975387 1_555
Se3 Yb0 3.034964 1_555
Se3 Yb3 3.265308 1_455
Se4 Yb2 2.936604 1_554
Se4 Yb0 2.975387 1_555
Se4 Yb3 3.034964 1_545
Se4 Yb0 3.265308 1_655
Se5 Yb3 2.911668 1_555
Se5 Yb2 3.168301 1_554
Se5 Yb0 3.219991 1_555
Se6 Yb2 2.911668 1_555
Se6 Yb3 3.168301 1_555
Se6 Yb1 3.219991 1_655
Se7 Yb3 2.936604 1_555
Se7 Yb1 2.975387 1_655
Se7 Yb2 3.034964 1_565
Se7 Yb1 3.265308 1_555
