# generated using pymatgen
data_Sr3Ru3N5
_symmetry_space_group_name_H-M   'P 1'
_cell_length_a   5.90447304
_cell_length_b   7.27197319
_cell_length_c   9.33913552
_cell_angle_alpha   110.73405361
_cell_angle_beta   104.86233493
_cell_angle_gamma   93.49671900
_symmetry_Int_Tables_number   1
_chemical_formula_structural   Sr3Ru3N5
_chemical_formula_sum   'Sr6 Ru6 N10'
_cell_volume   357.33097554
_cell_formula_units_Z   2
loop_
 _symmetry_equiv_pos_site_id
 _symmetry_equiv_pos_as_xyz
  1  'x, y, z'
loop_
 _atom_site_type_symbol
 _atom_site_label
 _atom_site_symmetry_multiplicity
 _atom_site_fract_x
 _atom_site_fract_y
 _atom_site_fract_z
 _atom_site_occupancy
  Sr  Sr0  1  0.82277100  0.42278800  0.61740000  1
  Sr  Sr1  1  0.17722900  0.57721200  0.38260000  1
  Sr  Sr2  1  0.65811300  0.86275900  0.88947600  1
  Sr  Sr3  1  0.34188700  0.13724100  0.11052400  1
  Sr  Sr4  1  0.66016700  0.69186100  0.21194200  1
  Sr  Sr5  1  0.33983300  0.30813900  0.78805800  1
  Ru  Ru0  1  0.89639500  0.32453200  0.97235600  1
  Ru  Ru1  1  0.10360500  0.67546800  0.02764400  1
  Ru  Ru2  1  0.65511500  0.92446900  0.59037200  1
  Ru  Ru3  1  0.34488500  0.07553100  0.40962800  1
  Ru  Ru4  1  0.09430700  0.87309500  0.70814400  1
  Ru  Ru5  1  0.90569300  0.12690500  0.29185600  1
  N  N0  1  0.91563300  0.10857400  0.78204400  1
  N  N1  1  0.08436700  0.89142600  0.21795600  1
  N  N2  1  0.81648900  0.69992200  0.50184100  1
  N  N3  1  0.18351100  0.30007800  0.49815900  1
  N  N4  1  0.74069100  0.53720200  0.91812400  1
  N  N5  1  0.25930900  0.46279800  0.08187600  1
  N  N6  1  0.36296200  0.91275100  0.63932700  1
  N  N7  1  0.63703800  0.08724900  0.36067300  1
  N  N8  1  0.16130900  0.76346300  0.87013200  1
  N  N9  1  0.83869100  0.23653700  0.12986800  1
loop_
_geom_bond_atom_site_label_1
_geom_bond_atom_site_label_2
_geom_bond_distance
_geom_bond_site_symmetry_2
N0 Ru0 1.946055 1_555
N0 Ru2 2.000545 1_545
N0 Ru4 2.068495 1_645
N0 Sr5 2.794524 1_655
N0 Sr2 2.869664 1_545
N0 Sr0 3.177108 1_555
N1 Ru1 1.946055 1_555
N1 Ru3 2.000545 1_565
N1 Ru5 2.068495 1_465
N1 Sr4 2.794524 1_455
N1 Sr3 2.869664 1_565
N1 Sr1 3.177108 1_555
N2 Ru2 1.973786 1_555
N2 Ru4 2.097032 1_655
N2 Sr0 2.599263 1_555
N2 Sr4 2.604707 1_555
N2 Sr1 2.705227 1_655
N3 Ru3 1.973786 1_555
N3 Ru5 2.097032 1_455
N3 Sr1 2.599263 1_555
N3 Sr5 2.604707 1_555
N3 Sr0 2.705227 1_455
N4 Ru0 1.995662 1_555
N4 Ru1 2.129190 1_656
N4 Sr2 2.537020 1_555
N4 Sr5 2.542385 1_555
N4 Sr4 2.751338 1_556
N4 Sr0 2.812063 1_555
N5 Ru1 1.995662 1_555
N5 Ru0 2.129190 1_454
N5 Sr3 2.537020 1_555
N5 Sr4 2.542385 1_555
N5 Sr5 2.751338 1_554
N5 Sr1 2.812063 1_555
N6 Ru2 1.898996 1_555
N6 Ru4 1.900229 1_555
N6 Sr1 2.662207 1_555
N6 Sr2 2.686449 1_555
N6 Sr5 2.744533 1_565
N6 Ru3 2.776762 1_565
N7 Ru3 1.898996 1_555
N7 Ru5 1.900229 1_555
N7 Sr0 2.662207 1_555
N7 Sr3 2.686449 1_555
N7 Sr4 2.744533 1_545
N7 Ru2 2.776762 1_545
N8 Ru1 1.893803 1_556
N8 Ru4 1.914728 1_555
N8 Sr3 2.768194 1_566
N8 Sr2 2.921657 1_555
N8 Sr0 2.922213 1_455
N9 Ru0 1.893803 1_554
N9 Ru5 1.914728 1_555
N9 Sr2 2.768194 1_544
N9 Sr3 2.921657 1_555
N9 Sr1 2.922213 1_655
