# generated using pymatgen
data_ErIn2Ni9
_symmetry_space_group_name_H-M   'P 1'
_cell_length_a   8.25162700
_cell_length_b   8.25162700
_cell_length_c   4.78572000
_cell_angle_alpha   90.00000000
_cell_angle_beta   90.00000000
_cell_angle_gamma   90.00000000
_symmetry_Int_Tables_number   1
_chemical_formula_structural   ErIn2Ni9
_chemical_formula_sum   'Er2 In4 Ni18'
_cell_volume   325.85655521
_cell_formula_units_Z   2
loop_
 _symmetry_equiv_pos_site_id
 _symmetry_equiv_pos_as_xyz
  1  'x, y, z'
loop_
 _atom_site_type_symbol
 _atom_site_label
 _atom_site_symmetry_multiplicity
 _atom_site_fract_x
 _atom_site_fract_y
 _atom_site_fract_z
 _atom_site_occupancy
  Er  Er0  1  0.50000000  0.50000000  0.00000000  1
  Er  Er1  1  0.00000000  0.00000000  0.00000000  1
  In  In0  1  0.12503700  0.62503700  0.00000000  1
  In  In1  1  0.87496300  0.37496300  0.00000000  1
  In  In2  1  0.37496300  0.12503700  0.00000000  1
  In  In3  1  0.62503700  0.87496300  0.00000000  1
  Ni  Ni0  1  0.00000000  0.50000000  0.50000000  1
  Ni  Ni1  1  0.50000000  0.00000000  0.50000000  1
  Ni  Ni2  1  0.56320100  0.70566200  0.50000000  1
  Ni  Ni3  1  0.43679900  0.29433800  0.50000000  1
  Ni  Ni4  1  0.93679900  0.20566200  0.50000000  1
  Ni  Ni5  1  0.06320100  0.79433800  0.50000000  1
  Ni  Ni6  1  0.70566200  0.43679900  0.50000000  1
  Ni  Ni7  1  0.29433800  0.56320100  0.50000000  1
  Ni  Ni8  1  0.20566200  0.06320100  0.50000000  1
  Ni  Ni9  1  0.79433800  0.93679900  0.50000000  1
  Ni  Ni10  1  0.32342600  0.82342600  0.75223800  1
  Ni  Ni11  1  0.67657400  0.17657400  0.75223800  1
  Ni  Ni12  1  0.17657400  0.32342600  0.75223800  1
  Ni  Ni13  1  0.82342600  0.67657400  0.75223800  1
  Ni  Ni14  1  0.67657400  0.17657400  0.24776200  1
  Ni  Ni15  1  0.32342600  0.82342600  0.24776200  1
  Ni  Ni16  1  0.82342600  0.67657400  0.24776200  1
  Ni  Ni17  1  0.17657400  0.32342600  0.24776200  1
loop_
_geom_bond_atom_site_label_1
_geom_bond_atom_site_label_2
_geom_bond_distance
_geom_bond_site_symmetry_2
Er0 Ni6 2.979550 1_554
Er0 Ni7 2.979550 1_554
Er0 Ni3 2.979550 1_554
Er0 Ni6 2.979550 1_555
Er0 Ni7 2.979550 1_555
Er0 Ni3 2.979550 1_555
Er0 Ni2 2.979550 1_554
Er0 Ni2 2.979550 1_555
Er0 In3 3.261549 1_555
Er0 In1 3.261549 1_555
Er0 In0 3.261549 1_555
Er0 In2 3.261549 1_555
Er0 Ni16 3.263631 1_555
Er0 Ni15 3.263631 1_555
Er0 Ni13 3.263631 1_554
Er0 Ni10 3.263631 1_554
Er0 Ni17 3.263631 1_555
Er0 Ni14 3.263631 1_555
Er0 Ni12 3.263631 1_554
Er0 Ni11 3.263631 1_554
Er1 Ni8 2.979550 1_555
Er1 Ni8 2.979550 1_554
Er1 Ni4 2.979550 1_455
Er1 Ni4 2.979550 1_454
Er1 Ni5 2.979550 1_545
Er1 Ni5 2.979550 1_544
Er1 Ni9 2.979550 1_444
Er1 Ni9 2.979550 1_445
Er1 In2 3.261549 1_555
Er1 In0 3.261549 1_545
Er1 In1 3.261549 1_455
Er1 In3 3.261549 1_445
Er1 Ni17 3.263631 1_555
Er1 Ni14 3.263631 1_455
Er1 Ni12 3.263631 1_554
Er1 Ni11 3.263631 1_454
Er1 Ni15 3.263631 1_545
Er1 Ni16 3.263631 1_445
Er1 Ni10 3.263631 1_544
Er1 Ni13 3.263631 1_444
In0 Ni15 2.601092 1_555
In0 Ni10 2.601092 1_554
In0 Ni16 2.789411 1_455
In0 Ni13 2.789411 1_454
In0 Ni17 2.789411 1_555
In0 Ni12 2.789411 1_554
In0 Ni0 2.802647 1_555
In0 Ni0 2.802647 1_554
In0 Ni5 2.817404 1_554
In0 Ni5 2.817404 1_555
In0 Ni7 2.817404 1_555
In0 Ni7 2.817404 1_554
In0 In1 2.918254 1_455
In1 Ni14 2.601092 1_555
In1 Ni11 2.601092 1_554
In1 Ni16 2.789411 1_555
In1 Ni17 2.789411 1_655
In1 Ni13 2.789411 1_554
In1 Ni12 2.789411 1_654
In1 Ni0 2.802647 1_654
In1 Ni0 2.802647 1_655
In1 Ni6 2.817404 1_555
In1 Ni6 2.817404 1_554
In1 Ni4 2.817404 1_555
In1 Ni4 2.817404 1_554
In2 Ni17 2.601092 1_555
In2 Ni12 2.601092 1_554
In2 Ni15 2.789411 1_545
In2 Ni10 2.789411 1_544
In2 Ni14 2.789411 1_555
In2 Ni11 2.789411 1_554
In2 Ni1 2.802647 1_554
In2 Ni1 2.802647 1_555
In2 Ni8 2.817404 1_554
In2 Ni8 2.817404 1_555
In2 Ni3 2.817404 1_554
In2 Ni3 2.817404 1_555
In2 In3 2.918254 1_545
In3 Ni16 2.601092 1_555
In3 Ni13 2.601092 1_554
In3 Ni15 2.789411 1_555
In3 Ni14 2.789411 1_565
In3 Ni10 2.789411 1_554
In3 Ni11 2.789411 1_564
In3 Ni1 2.802647 1_565
In3 Ni1 2.802647 1_564
In3 Ni2 2.817404 1_555
In3 Ni2 2.817404 1_554
In3 Ni9 2.817404 1_554
In3 Ni9 2.817404 1_555
Ni0 Ni12 2.388099 1_555
Ni0 Ni17 2.388099 1_555
Ni0 Ni13 2.388099 1_455
Ni0 Ni16 2.388099 1_455
Ni0 Ni7 2.484127 1_555
Ni0 Ni5 2.484127 1_555
Ni0 Ni6 2.484127 1_455
Ni0 Ni4 2.484127 1_455
Ni1 Ni11 2.388099 1_555
Ni1 Ni14 2.388099 1_555
Ni1 Ni10 2.388099 1_545
Ni1 Ni15 2.388099 1_545
Ni1 Ni2 2.484127 1_545
Ni1 Ni3 2.484127 1_555
Ni1 Ni9 2.484127 1_545
Ni1 Ni8 2.484127 1_555
Ni2 Ni7 2.510753 1_555
Ni2 Ni6 2.510753 1_555
Ni2 Ni9 2.697268 1_555
Ni3 Ni7 2.510753 1_555
Ni3 Ni6 2.510753 1_555
Ni3 Ni8 2.697268 1_555
Ni4 Ni8 2.510753 1_655
Ni4 Ni9 2.510753 1_545
Ni4 Ni6 2.697268 1_555
Ni5 Ni8 2.510753 1_565
Ni5 Ni9 2.510753 1_455
Ni5 Ni7 2.697268 1_555
Ni10 Ni15 2.371439 1_556
Ni10 Ni15 2.414281 1_555
Ni10 Ni5 2.474997 1_555
Ni10 Ni7 2.474997 1_555
Ni10 Ni2 2.513180 1_555
Ni10 Ni8 2.513180 1_565
Ni11 Ni14 2.371439 1_556
Ni11 Ni14 2.414281 1_555
Ni11 Ni4 2.474997 1_555
Ni11 Ni6 2.474997 1_555
Ni11 Ni9 2.513180 1_545
Ni11 Ni3 2.513180 1_555
Ni12 Ni17 2.371439 1_556
Ni12 Ni17 2.414281 1_555
Ni12 Ni8 2.474997 1_555
Ni12 Ni3 2.474997 1_555
Ni12 Ni7 2.513180 1_555
Ni12 Ni4 2.513180 1_455
Ni13 Ni16 2.371439 1_556
Ni13 Ni16 2.414281 1_555
Ni13 Ni9 2.474997 1_555
Ni13 Ni2 2.474997 1_555
Ni13 Ni5 2.513180 1_655
Ni13 Ni6 2.513180 1_555
Ni14 Ni4 2.474997 1_555
Ni14 Ni6 2.474997 1_555
Ni14 Ni9 2.513180 1_545
Ni14 Ni3 2.513180 1_555
Ni15 Ni5 2.474997 1_555
Ni15 Ni7 2.474997 1_555
Ni15 Ni2 2.513180 1_555
Ni15 Ni8 2.513180 1_565
Ni16 Ni9 2.474997 1_555
Ni16 Ni2 2.474997 1_555
Ni16 Ni6 2.513180 1_555
Ni16 Ni5 2.513180 1_655
Ni17 Ni8 2.474997 1_555
Ni17 Ni3 2.474997 1_555
Ni17 Ni4 2.513180 1_455
Ni17 Ni7 2.513180 1_555
