# generated using pymatgen
data_Cr5(SiN3)2
_symmetry_space_group_name_H-M   'P 1'
_cell_length_a   4.79616241
_cell_length_b   5.06201793
_cell_length_c   14.07812307
_cell_angle_alpha   90.00000320
_cell_angle_beta   95.34165819
_cell_angle_gamma   121.85123678
_symmetry_Int_Tables_number   1
_chemical_formula_structural   Cr5(SiN3)2
_chemical_formula_sum   'Cr10 Si4 N12'
_cell_volume   288.57671647
_cell_formula_units_Z   2
loop_
 _symmetry_equiv_pos_site_id
 _symmetry_equiv_pos_as_xyz
  1  'x, y, z'
loop_
 _atom_site_type_symbol
 _atom_site_label
 _atom_site_symmetry_multiplicity
 _atom_site_fract_x
 _atom_site_fract_y
 _atom_site_fract_z
 _atom_site_occupancy
  Cr  Cr0  1  0.00000000  0.48132700  0.75000000  1
  Cr  Cr1  1  0.00000000  0.51867300  0.25000000  1
  Cr  Cr2  1  0.34030200  0.89942700  0.09168500  1
  Cr  Cr3  1  0.65969800  0.55912500  0.40831500  1
  Cr  Cr4  1  0.65969800  0.10057300  0.90831500  1
  Cr  Cr5  1  0.34030200  0.44087500  0.59168500  1
  Cr  Cr6  1  0.31354800  0.13690000  0.74165200  1
  Cr  Cr7  1  0.68645200  0.82335100  0.75834800  1
  Cr  Cr8  1  0.68645200  0.86310000  0.25834800  1
  Cr  Cr9  1  0.31354800  0.17664900  0.24165200  1
  Si  Si0  1  0.59023200  0.03799600  0.58905100  1
  Si  Si1  1  0.40976800  0.44776500  0.91094900  1
  Si  Si2  1  0.40976800  0.96200400  0.41094900  1
  Si  Si3  1  0.59023200  0.55223500  0.08905100  1
  N  N0  1  0.32217000  0.79886000  0.67099000  1
  N  N1  1  0.67783000  0.47669000  0.82901000  1
  N  N2  1  0.67783000  0.20114000  0.32901000  1
  N  N3  1  0.32217000  0.52331000  0.17099000  1
  N  N4  1  0.47602100  0.23014400  0.50732400  1
  N  N5  1  0.52397900  0.75412300  0.99267600  1
  N  N6  1  0.52397900  0.76985600  0.49267600  1
  N  N7  1  0.47602100  0.24587700  0.00732400  1
  N  N8  1  0.96067700  0.15222000  0.65755000  1
  N  N9  1  0.03932300  0.19154300  0.84245000  1
  N  N10  1  0.03932300  0.84778000  0.34245000  1
  N  N11  1  0.96067700  0.80845700  0.15755000  1
loop_
_geom_bond_atom_site_label_1
_geom_bond_atom_site_label_2
_geom_bond_distance
_geom_bond_site_symmetry_2
Cr0 N0 1.976638 1_555
Cr0 N1 1.976638 1_455
Cr0 N8 2.031647 1_455
Cr0 N9 2.031647 1_555
Cr1 N2 1.976638 1_455
Cr1 N3 1.976638 1_555
Cr1 N10 2.031647 1_555
Cr1 N11 2.031647 1_455
Cr2 N11 1.953558 1_455
Cr2 N7 1.961861 1_565
Cr2 N5 2.042651 1_554
Cr2 N3 2.173077 1_555
Cr3 N10 1.953558 1_655
Cr3 N6 1.961861 1_555
Cr3 N4 2.042651 1_555
Cr3 N2 2.173077 1_555
Cr4 N9 1.953558 1_655
Cr4 N5 1.961861 1_545
Cr4 N7 2.042651 1_556
Cr4 N1 2.173077 1_555
Cr5 N8 1.953558 1_455
Cr5 N4 1.961861 1_555
Cr5 N6 2.042651 1_555
Cr5 N0 2.173077 1_555
Cr6 N1 1.987897 1_555
Cr6 N0 2.000435 1_545
Cr6 N8 2.009379 1_455
Cr6 N9 2.133421 1_555
Cr7 N0 1.987900 1_555
Cr7 N1 2.000431 1_555
Cr7 N9 2.009382 1_665
Cr7 N8 2.133424 1_565
Cr8 N3 1.987897 1_555
Cr8 N2 2.000435 1_565
Cr8 N10 2.009379 1_655
Cr8 N11 2.133421 1_555
Cr9 N2 1.987900 1_555
Cr9 N3 2.000431 1_555
Cr9 N11 2.009382 1_445
Cr9 N10 2.133424 1_545
N0 Si0 1.755705 1_565
N1 Si1 1.755707 1_555
N2 Si2 1.755705 1_545
N3 Si3 1.755707 1_555
N4 Si0 1.736346 1_555
N4 Si2 1.802409 1_545
N5 Si1 1.736342 1_555
N5 Si3 1.802413 1_556
N6 Si2 1.736346 1_555
N6 Si0 1.802409 1_565
N7 Si3 1.736342 1_555
N7 Si1 1.802413 1_554
N8 Si0 1.737160 1_555
N9 Si1 1.737161 1_555
N10 Si2 1.737160 1_555
N11 Si3 1.737161 1_555
