# generated using pymatgen
data_ErNi2
_symmetry_space_group_name_H-M   'P 1'
_cell_length_a   4.98117086
_cell_length_b   4.98116601
_cell_length_c   4.98116666
_cell_angle_alpha   59.99999842
_cell_angle_beta   60.00000937
_cell_angle_gamma   60.00001131
_symmetry_Int_Tables_number   1
_chemical_formula_structural   ErNi2
_chemical_formula_sum   'Er2 Ni4'
_cell_volume   87.39339121
_cell_formula_units_Z   2
loop_
 _symmetry_equiv_pos_site_id
 _symmetry_equiv_pos_as_xyz
  1  'x, y, z'
loop_
 _atom_site_type_symbol
 _atom_site_label
 _atom_site_symmetry_multiplicity
 _atom_site_fract_x
 _atom_site_fract_y
 _atom_site_fract_z
 _atom_site_occupancy
  Er  Er0  1  0.12500100  0.12500000  0.12500000  1
  Er  Er1  1  0.87499900  0.87500000  0.87500000  1
  Ni  Ni0  1  0.50000000  -0.00000000  0.50000000  1
  Ni  Ni1  1  0.00000000  0.50000000  0.50000000  1
  Ni  Ni2  1  0.50000000  0.50000000  0.50000000  1
  Ni  Ni3  1  0.50000000  0.50000000  0.00000000  1
loop_
_geom_bond_atom_site_label_1
_geom_bond_atom_site_label_2
_geom_bond_distance
_geom_bond_site_symmetry_2
Er0 Ni3 2.920465 1_555
Er0 Ni0 2.920465 1_555
Er0 Ni1 2.920465 1_555
Er0 Ni2 2.920466 1_554
Er0 Ni2 2.920466 1_545
Er0 Ni3 2.920468 1_545
Er0 Ni0 2.920468 1_554
Er0 Ni1 2.920470 1_545
Er0 Ni1 2.920470 1_554
Er0 Ni2 2.920472 1_455
Er0 Ni0 2.920474 1_455
Er0 Ni3 2.920475 1_455
Er1 Ni3 2.920465 1_556
Er1 Ni0 2.920465 1_565
Er1 Ni1 2.920465 1_655
Er1 Ni2 2.920466 1_556
Er1 Ni2 2.920466 1_565
Er1 Ni3 2.920468 1_566
Er1 Ni0 2.920468 1_566
Er1 Ni1 2.920470 1_665
Er1 Ni1 2.920470 1_656
Er1 Ni2 2.920472 1_655
Er1 Ni0 2.920474 1_665
Er1 Ni3 2.920475 1_656
Ni0 Ni2 2.490583 1_555
Ni0 Ni2 2.490583 1_545
Ni0 Ni3 2.490583 1_546
Ni0 Ni3 2.490583 1_555
Ni0 Ni1 2.490585 1_645
Ni0 Ni1 2.490585 1_555
Ni1 Ni3 2.490585 1_456
Ni1 Ni3 2.490585 1_555
Ni1 Ni2 2.490585 1_555
Ni1 Ni2 2.490585 1_455
Ni2 Ni3 2.490583 1_556
Ni2 Ni3 2.490583 1_555
