# generated using pymatgen
data_Yb(Mg4Al3)4
_symmetry_space_group_name_H-M   'P 1'
_cell_length_a   8.88325202
_cell_length_b   9.28563624
_cell_length_c   9.28563600
_cell_angle_alpha   110.33234041
_cell_angle_beta   108.59573062
_cell_angle_gamma   108.59573100
_symmetry_Int_Tables_number   1
_chemical_formula_structural   Yb(Mg4Al3)4
_chemical_formula_sum   'Yb1 Mg16 Al12'
_cell_volume   595.87090471
_cell_formula_units_Z   1
loop_
 _symmetry_equiv_pos_site_id
 _symmetry_equiv_pos_as_xyz
  1  'x, y, z'
loop_
 _atom_site_type_symbol
 _atom_site_label
 _atom_site_symmetry_multiplicity
 _atom_site_fract_x
 _atom_site_fract_y
 _atom_site_fract_z
 _atom_site_occupancy
  Yb  Yb0  1  0.37401700  0.00000000  0.00000000  1
  Mg  Mg0  1  0.61091400  0.32971900  0.00000000  1
  Mg  Mg1  1  0.31465500  0.60085300  0.00000000  1
  Mg  Mg2  1  0.99617800  0.34031200  0.00000000  1
  Mg  Mg3  1  0.99666100  0.00000000  0.00000000  1
  Mg  Mg4  1  0.68765200  0.68644900  0.29311500  1
  Mg  Mg5  1  0.00120200  0.60666600  0.31355000  1
  Mg  Mg6  1  0.61091300  0.00000000  0.32972000  1
  Mg  Mg7  1  0.99617800  0.00000000  0.34031200  1
  Mg  Mg8  1  0.39453800  0.70688500  0.39333500  1
  Mg  Mg9  1  0.71380100  0.39914700  0.39914700  1
  Mg  Mg10  1  0.31465500  0.00000000  0.60085300  1
  Mg  Mg11  1  0.00120300  0.31355000  0.60666600  1
  Mg  Mg12  1  0.65586500  0.65968700  0.65968700  1
  Mg  Mg13  1  0.28119300  0.67028100  0.67028100  1
  Mg  Mg14  1  0.68765200  0.29311500  0.68644900  1
  Mg  Mg15  1  0.39453800  0.39333500  0.70688500  1
  Al  Al0  1  0.63185700  0.81934200  0.00000000  1
  Al  Al1  1  0.81136300  0.63778100  0.00000000  1
  Al  Al2  1  0.36342100  0.36292000  0.17951200  1
  Al  Al3  1  0.81251200  0.18065800  0.18065800  1
  Al  Al4  1  0.18390800  0.82048800  0.18340700  1
  Al  Al5  1  0.17358100  0.36221900  0.36221900  1
  Al  Al6  1  0.36342000  0.17951200  0.36292000  1
  Al  Al7  1  0.00049900  0.81659200  0.63708000  1
  Al  Al8  1  0.81136300  0.00000000  0.63778100  1
  Al  Al9  1  0.00049900  0.63708100  0.81659200  1
  Al  Al10  1  0.63185600  0.00000000  0.81934200  1
  Al  Al11  1  0.18390800  0.18340700  0.82048700  1
loop_
_geom_bond_atom_site_label_1
_geom_bond_atom_site_label_2
_geom_bond_distance
_geom_bond_site_symmetry_2
Mg0 Yb0 3.113371 1_555
Mg0 Mg5 3.127780 1_655
Mg0 Mg14 3.127788 1_554
Mg0 Mg4 3.155366 1_555
Mg0 Mg15 3.155369 1_554
Mg0 Mg2 3.392312 1_555
Mg1 Mg2 3.080845 1_455
Mg1 Mg4 3.175506 1_555
Mg1 Mg15 3.175509 1_554
Mg1 Mg11 3.196109 1_554
Mg1 Mg8 3.196115 1_555
Mg1 Yb0 3.573301 1_565
Mg2 Mg5 3.072217 1_655
Mg2 Mg3 3.161384 1_555
Mg3 Mg7 3.161384 1_555
Mg3 Yb0 3.352148 1_655
Mg4 Mg5 3.069142 1_655
Mg4 Mg8 3.069146 1_555
Mg4 Mg7 3.072218 1_565
Mg4 Mg6 3.127791 1_565
Mg4 Mg9 3.196106 1_555
Mg5 Mg8 3.069162 1_555
Mg5 Mg9 3.175513 1_455
Mg6 Yb0 3.113375 1_555
Mg6 Mg8 3.155359 1_545
Mg6 Mg7 3.392323 1_555
Mg9 Yb0 3.573299 1_555
Mg10 Mg7 3.080844 1_455
Mg10 Mg14 3.175506 1_555
Mg10 Mg8 3.175509 1_545
Mg10 Mg5 3.196112 1_545
Mg10 Mg15 3.196115 1_555
Mg10 Yb0 3.573301 1_556
Mg11 Mg14 3.069151 1_455
Mg11 Mg15 3.069154 1_555
Mg11 Mg7 3.072212 1_455
Mg11 Mg6 3.127789 1_455
Mg11 Mg13 3.155366 1_555
Mg11 Mg9 3.175519 1_455
Mg12 Mg8 3.072203 1_555
Mg12 Mg15 3.072203 1_555
Mg12 Mg9 3.080834 1_555
Mg12 Mg3 3.161393 1_566
Mg12 Mg13 3.392327 1_555
Mg13 Yb0 3.113365 1_566
Mg13 Mg8 3.127793 1_555
Mg13 Mg15 3.127794 1_555
Mg13 Mg5 3.155369 1_555
Mg14 Mg15 3.069146 1_555
Mg14 Mg2 3.072218 1_556
Mg14 Mg6 3.155356 1_555
Mg14 Mg9 3.196106 1_555
Al0 Al1 2.664507 1_555
Al0 Al10 2.753865 1_564
Al0 Al3 2.753865 1_565
Al0 Mg1 2.899995 1_555
Al0 Mg13 3.035725 1_554
Al0 Mg6 3.035728 1_565
Al0 Mg7 3.099179 1_565
Al0 Mg12 3.099183 1_554
Al0 Mg3 3.138272 1_565
Al0 Yb0 3.242039 1_565
Al0 Mg15 3.322659 1_554
Al0 Mg4 3.322665 1_555
Al1 Al9 2.747277 1_654
Al1 Al4 2.747284 1_655
Al1 Mg0 2.846900 1_555
Al1 Mg5 3.027896 1_655
Al1 Mg14 3.027906 1_554
Al1 Mg7 3.126841 1_565
Al1 Mg12 3.126845 1_554
Al1 Mg15 3.192098 1_554
Al1 Mg4 3.192105 1_555
Al1 Mg3 3.239010 1_565
Al2 Al5 2.747299 1_555
Al2 Al6 2.795784 1_555
Al2 Mg9 2.960953 1_555
Al2 Mg4 2.962266 1_555
Al2 Mg8 2.983247 1_555
Al2 Mg2 3.052396 1_455
Al2 Mg0 3.181127 1_555
Al2 Mg3 3.221817 1_455
Al2 Yb0 3.246939 1_555
Al2 Mg1 3.249086 1_555
Al3 Al5 2.664521 1_655
Al3 Mg9 2.899981 1_555
Al3 Mg0 3.035700 1_555
Al3 Mg6 3.035713 1_555
Al3 Mg2 3.099193 1_555
Al3 Mg7 3.099193 1_555
Al3 Mg3 3.138295 1_555
Al3 Yb0 3.242016 1_555
Al3 Mg11 3.322667 1_655
Al3 Mg5 3.322667 1_655
Al4 Al6 2.736396 1_565
Al4 Al9 2.795777 1_554
Al4 Mg1 2.960963 1_555
Al4 Mg8 2.962287 1_555
Al4 Mg5 2.983248 1_555
Al4 Mg7 3.052393 1_465
Al4 Mg6 3.181125 1_565
Al4 Mg3 3.221808 1_465
Al4 Yb0 3.246936 1_565
Al4 Mg10 3.249092 1_565
Al5 Al6 2.747292 1_555
Al5 Mg13 2.846903 1_555
Al5 Mg15 3.027907 1_555
Al5 Mg8 3.027907 1_555
Al5 Mg2 3.126840 1_455
Al5 Mg7 3.126840 1_455
Al5 Mg11 3.192101 1_555
Al5 Mg5 3.192107 1_555
Al5 Mg3 3.239012 1_455
Al6 Mg9 2.960960 1_555
Al6 Mg14 2.962271 1_555
Al6 Mg15 2.983243 1_555
Al6 Mg7 3.052389 1_455
Al6 Mg6 3.181126 1_555
Al6 Mg3 3.221813 1_455
Al6 Yb0 3.246944 1_555
Al6 Mg10 3.249084 1_555
Al7 Al9 2.736388 1_555
Al7 Al8 2.747277 1_465
Al7 Mg10 2.960974 1_565
Al7 Mg5 2.962279 1_555
Al7 Mg4 2.983240 1_455
Al7 Mg12 3.052385 1_455
Al7 Mg13 3.181127 1_555
Al7 Mg3 3.221808 1_466
Al7 Yb0 3.246948 1_566
Al7 Mg9 3.249084 1_455
Al8 Mg6 2.846896 1_555
Al8 Mg11 3.027899 1_655
Al8 Mg4 3.027906 1_545
Al8 Mg2 3.126841 1_556
Al8 Mg12 3.126845 1_545
Al8 Mg8 3.192098 1_545
Al8 Mg14 3.192105 1_555
Al8 Mg3 3.239010 1_556
Al9 Mg1 2.960980 1_556
Al9 Mg11 2.962291 1_555
Al9 Mg14 2.983246 1_455
Al9 Mg12 3.052380 1_455
Al9 Mg13 3.181127 1_555
Al9 Mg3 3.221800 1_466
Al9 Yb0 3.246944 1_566
Al9 Mg9 3.249084 1_455
Al10 Al8 2.664514 1_555
Al10 Al3 2.753865 1_556
Al10 Mg10 2.899988 1_555
Al10 Mg0 3.035710 1_556
Al10 Mg13 3.035720 1_545
Al10 Mg2 3.099183 1_556
Al10 Mg12 3.099188 1_545
Al10 Mg3 3.138279 1_556
Al10 Yb0 3.242031 1_556
Al10 Mg8 3.322659 1_545
Al10 Mg14 3.322665 1_555
Al11 Al2 2.736403 1_556
Al11 Al8 2.747284 1_455
Al11 Al7 2.795777 1_545
Al11 Mg10 2.960957 1_555
Al11 Mg15 2.962279 1_555
Al11 Mg11 2.983238 1_555
Al11 Mg2 3.052398 1_456
Al11 Mg0 3.181134 1_556
Al11 Mg3 3.221816 1_456
Al11 Yb0 3.246941 1_556
Al11 Mg1 3.249092 1_556
