# generated using pymatgen
data_Mg(CoS2)2
_symmetry_space_group_name_H-M   'P 1'
_cell_length_a   6.88019678
_cell_length_b   6.88019678
_cell_length_c   6.88019678
_cell_angle_alpha   120.19125319
_cell_angle_beta   119.50457131
_cell_angle_gamma   90.26465018
_symmetry_Int_Tables_number   1
_chemical_formula_structural   Mg(CoS2)2
_chemical_formula_sum   'Mg2 Co4 S8'
_cell_volume   230.81306746
_cell_formula_units_Z   2
loop_
 _symmetry_equiv_pos_site_id
 _symmetry_equiv_pos_as_xyz
  1  'x, y, z'
loop_
 _atom_site_type_symbol
 _atom_site_label
 _atom_site_symmetry_multiplicity
 _atom_site_fract_x
 _atom_site_fract_y
 _atom_site_fract_z
 _atom_site_occupancy
  Mg  Mg0  1  0.00000000  0.00000000  0.50000000  1
  Mg  Mg1  1  0.00000000  0.50000000  0.00000000  1
  Co  Co0  1  0.37305200  0.62305200  0.75000000  1
  Co  Co1  1  0.62694800  0.37694800  0.25000000  1
  Co  Co2  1  0.00000000  0.00000000  0.00000000  1
  Co  Co3  1  0.50000000  0.00000000  0.50000000  1
  S  S0  1  0.74162100  0.21654300  0.97492200  1
  S  S1  1  0.74162100  0.76669900  0.52507800  1
  S  S2  1  0.72652400  0.23562900  0.49089500  1
  S  S3  1  0.25837900  0.78345700  0.02507800  1
  S  S4  1  0.75526700  0.76437100  0.99089500  1
  S  S5  1  0.25837900  0.23330100  0.47492200  1
  S  S6  1  0.24473300  0.23562900  0.00910500  1
  S  S7  1  0.27347600  0.76437100  0.50910500  1
loop_
_geom_bond_atom_site_label_1
_geom_bond_atom_site_label_2
_geom_bond_distance
_geom_bond_site_symmetry_2
Mg0 S2 2.487298 1_455
Mg0 S7 2.487298 1_545
Mg0 S4 2.487298 1_444
Mg0 S6 2.487298 1_556
Mg0 S1 2.514126 1_445
Mg0 S5 2.514126 1_555
Mg1 S4 2.487294 1_454
Mg1 S6 2.487294 1_555
Mg1 S7 2.487298 1_555
Mg1 S2 2.487298 1_454
Mg1 S3 2.514126 1_555
Mg1 S0 2.514126 1_454
Co0 S7 2.161075 1_555
Co0 S4 2.161081 1_555
Co0 S5 2.190985 1_555
Co0 S3 2.190985 1_556
Co1 S2 2.161075 1_555
Co1 S6 2.161081 1_555
Co1 S1 2.190985 1_555
Co1 S0 2.190985 1_554
Co2 S6 2.288251 1_555
Co2 S4 2.288251 1_444
Co2 S3 2.321756 1_545
Co2 S5 2.321756 1_555
Co2 S0 2.321756 1_454
Co2 S1 2.321756 1_444
Co3 S2 2.288256 1_555
Co3 S7 2.288256 1_545
Co3 S1 2.321756 1_545
Co3 S0 2.321756 1_555
Co3 S3 2.321756 1_545
Co3 S5 2.321756 1_555
