# generated using pymatgen
data_HgP2Xe5F22
_symmetry_space_group_name_H-M   'P 1'
_cell_length_a   8.78334800
_cell_length_b   14.99821200
_cell_length_c   17.90401700
_cell_angle_alpha   90.00000000
_cell_angle_beta   90.00000000
_cell_angle_gamma   90.00000000
_symmetry_Int_Tables_number   1
_chemical_formula_structural   HgP2Xe5F22
_chemical_formula_sum   'Hg4 P8 Xe20 F88'
_cell_volume   2358.57700274
_cell_formula_units_Z   4
loop_
 _symmetry_equiv_pos_site_id
 _symmetry_equiv_pos_as_xyz
  1  'x, y, z'
loop_
 _atom_site_type_symbol
 _atom_site_label
 _atom_site_symmetry_multiplicity
 _atom_site_fract_x
 _atom_site_fract_y
 _atom_site_fract_z
 _atom_site_occupancy
  Hg  Hg0  1  0.25000000  0.07556000  0.25000000  1
  Hg  Hg1  1  0.75000000  0.42444000  0.75000000  1
  Hg  Hg2  1  0.75000000  0.92444000  0.75000000  1
  Hg  Hg3  1  0.25000000  0.57556000  0.25000000  1
  P  P0  1  0.99141200  0.22403900  0.12462300  1
  P  P1  1  0.50858800  0.22403900  0.37537700  1
  P  P2  1  0.00858800  0.27596100  0.62462300  1
  P  P3  1  0.49141200  0.27596100  0.87537700  1
  P  P4  1  0.00858800  0.77596100  0.87537700  1
  P  P5  1  0.49141200  0.77596100  0.62462300  1
  P  P6  1  0.99141200  0.72403900  0.37537700  1
  P  P7  1  0.50858800  0.72403900  0.12462300  1
  Xe  Xe0  1  0.75000000  0.99126800  0.25000000  1
  Xe  Xe1  1  0.25000000  0.50873200  0.75000000  1
  Xe  Xe2  1  0.25000000  0.00873200  0.75000000  1
  Xe  Xe3  1  0.75000000  0.49126800  0.25000000  1
  Xe  Xe4  1  0.27904300  0.97453800  0.03688800  1
  Xe  Xe5  1  0.22095700  0.97453800  0.46311200  1
  Xe  Xe6  1  0.72095700  0.52546200  0.53688800  1
  Xe  Xe7  1  0.77904300  0.52546200  0.96311200  1
  Xe  Xe8  1  0.72095700  0.02546200  0.96311200  1
  Xe  Xe9  1  0.77904300  0.02546200  0.53688800  1
  Xe  Xe10  1  0.27904300  0.47453800  0.46311200  1
  Xe  Xe11  1  0.22095700  0.47453800  0.03688800  1
  Xe  Xe12  1  0.00647000  0.26365600  0.37297600  1
  Xe  Xe13  1  0.49353000  0.26365600  0.12702400  1
  Xe  Xe14  1  0.99353000  0.23634400  0.87297600  1
  Xe  Xe15  1  0.50647000  0.23634400  0.62702400  1
  Xe  Xe16  1  0.99353000  0.73634400  0.62702400  1
  Xe  Xe17  1  0.50647000  0.73634400  0.87297600  1
  Xe  Xe18  1  0.00647000  0.76365600  0.12702400  1
  Xe  Xe19  1  0.49353000  0.76365600  0.37297600  1
  F  F0  1  0.98666000  0.98775200  0.25656400  1
  F  F1  1  0.51334000  0.98775200  0.24343600  1
  F  F2  1  0.01334000  0.51224800  0.75656400  1
  F  F3  1  0.48666000  0.51224800  0.74343600  1
  F  F4  1  0.01334000  0.01224800  0.74343600  1
  F  F5  1  0.48666000  0.01224800  0.75656400  1
  F  F6  1  0.98666000  0.48775200  0.24343600  1
  F  F7  1  0.51334000  0.48775200  0.25656400  1
  F  F8  1  0.22388700  0.97099700  0.15243600  1
  F  F9  1  0.27611300  0.97099700  0.34756400  1
  F  F10  1  0.77611300  0.52900300  0.65243600  1
  F  F11  1  0.72388700  0.52900300  0.84756400  1
  F  F12  1  0.77611300  0.02900300  0.84756400  1
  F  F13  1  0.72388700  0.02900300  0.65243600  1
  F  F14  1  0.22388700  0.47099700  0.34756400  1
  F  F15  1  0.27611300  0.47099700  0.15243600  1
  F  F16  1  0.34058300  0.97131900  0.92694600  1
  F  F17  1  0.15941700  0.97131900  0.57305400  1
  F  F18  1  0.65941700  0.52868100  0.42694600  1
  F  F19  1  0.84058300  0.52868100  0.07305400  1
  F  F20  1  0.65941700  0.02868100  0.07305400  1
  F  F21  1  0.84058300  0.02868100  0.42694600  1
  F  F22  1  0.34058300  0.47131900  0.57305400  1
  F  F23  1  0.15941700  0.47131900  0.92694600  1
  F  F24  1  0.09657900  0.13634600  0.34069500  1
  F  F25  1  0.40342100  0.13634600  0.15930500  1
  F  F26  1  0.90342100  0.36365400  0.84069500  1
  F  F27  1  0.59657900  0.36365400  0.65930500  1
  F  F28  1  0.90342100  0.86365400  0.65930500  1
  F  F29  1  0.59657900  0.86365400  0.84069500  1
  F  F30  1  0.09657900  0.63634600  0.15930500  1
  F  F31  1  0.40342100  0.63634600  0.34069500  1
  F  F32  1  0.91795400  0.38228800  0.40715600  1
  F  F33  1  0.58204600  0.38228800  0.09284400  1
  F  F34  1  0.08204600  0.11771200  0.90715600  1
  F  F35  1  0.41795400  0.11771200  0.59284400  1
  F  F36  1  0.08204600  0.61771200  0.59284400  1
  F  F37  1  0.41795400  0.61771200  0.90715600  1
  F  F38  1  0.91795400  0.88228800  0.09284400  1
  F  F39  1  0.58204600  0.88228800  0.40715600  1
  F  F40  1  0.01911500  0.11563100  0.12532300  1
  F  F41  1  0.48088500  0.11563100  0.37467700  1
  F  F42  1  0.98088500  0.38436900  0.62532300  1
  F  F43  1  0.51911500  0.38436900  0.87467700  1
  F  F44  1  0.98088500  0.88436900  0.87467700  1
  F  F45  1  0.51911500  0.88436900  0.62532300  1
  F  F46  1  0.01911500  0.61563100  0.37467700  1
  F  F47  1  0.48088500  0.61563100  0.12532300  1
  F  F48  1  0.12186300  0.23318200  0.19213200  1
  F  F49  1  0.37813700  0.23318200  0.30786800  1
  F  F50  1  0.87813700  0.26681800  0.69213200  1
  F  F51  1  0.62186300  0.26681800  0.80786800  1
  F  F52  1  0.87813700  0.76681800  0.80786800  1
  F  F53  1  0.62186300  0.76681800  0.69213200  1
  F  F54  1  0.12186300  0.73318200  0.30786800  1
  F  F55  1  0.37813700  0.73318200  0.19213200  1
  F  F56  1  0.86036900  0.21334800  0.18823800  1
  F  F57  1  0.63963100  0.21334800  0.31176200  1
  F  F58  1  0.13963100  0.28665200  0.68823800  1
  F  F59  1  0.36036900  0.28665200  0.81176200  1
  F  F60  1  0.13963100  0.78665200  0.81176200  1
  F  F61  1  0.36036900  0.78665200  0.68823800  1
  F  F62  1  0.86036900  0.71334800  0.31176200  1
  F  F63  1  0.63963100  0.71334800  0.18823800  1
  F  F64  1  0.96847400  0.33179800  0.12544100  1
  F  F65  1  0.53152600  0.33179800  0.37455900  1
  F  F66  1  0.03152600  0.16820200  0.62544100  1
  F  F67  1  0.46847400  0.16820200  0.87455900  1
  F  F68  1  0.03152600  0.66820200  0.87455900  1
  F  F69  1  0.46847400  0.66820200  0.62544100  1
  F  F70  1  0.96847400  0.83179800  0.37455900  1
  F  F71  1  0.53152600  0.83179800  0.12544100  1
  F  F72  1  0.86493100  0.21307800  0.05876700  1
  F  F73  1  0.63506900  0.21307800  0.44123300  1
  F  F74  1  0.13506900  0.28692200  0.55876700  1
  F  F75  1  0.36493100  0.28692200  0.94123300  1
  F  F76  1  0.13506900  0.78692200  0.94123300  1
  F  F77  1  0.36493100  0.78692200  0.55876700  1
  F  F78  1  0.86493100  0.71307800  0.44123300  1
  F  F79  1  0.63506900  0.71307800  0.05876700  1
  F  F80  1  0.12624300  0.23478100  0.06226300  1
  F  F81  1  0.37375700  0.23478100  0.43773700  1
  F  F82  1  0.87375700  0.26521900  0.56226300  1
  F  F83  1  0.62624300  0.26521900  0.93773700  1
  F  F84  1  0.87375700  0.76521900  0.93773700  1
  F  F85  1  0.62624300  0.76521900  0.56226300  1
  F  F86  1  0.12624300  0.73478100  0.43773700  1
  F  F87  1  0.37375700  0.73478100  0.06226300  1
loop_
_geom_bond_atom_site_label_1
_geom_bond_atom_site_label_2
_geom_bond_distance
_geom_bond_site_symmetry_2
F0 Xe0 2.082654 1_555
F1 Xe0 2.082654 1_555
F2 Xe1 2.082654 1_555
F3 Xe1 2.082654 1_555
F4 Xe2 2.082654 1_555
F5 Xe2 2.082654 1_555
F6 Xe3 2.082654 1_555
F7 Xe3 2.082654 1_555
F8 Xe4 2.125403 1_555
F8 Hg0 2.358666 1_565
F9 Xe5 2.125403 1_555
F9 Hg0 2.358666 1_565
F10 Xe6 2.125403 1_555
F10 Hg1 2.358666 1_555
F11 Xe7 2.125403 1_555
F11 Hg1 2.358666 1_555
F12 Xe8 2.125403 1_555
F12 Hg2 2.358666 1_545
F13 Xe9 2.125403 1_555
F13 Hg2 2.358666 1_545
F14 Xe10 2.125403 1_555
F14 Hg3 2.358666 1_555
F15 Xe11 2.125403 1_555
F15 Hg3 2.358666 1_555
F16 Xe4 2.041841 1_556
F17 Xe5 2.041841 1_555
F18 Xe6 2.041841 1_555
F19 Xe7 2.041841 1_554
F20 Xe8 2.041841 1_554
F21 Xe9 2.041841 1_555
F22 Xe10 2.041841 1_555
F23 Xe11 2.041841 1_556
F24 Xe12 2.146238 1_555
F24 Hg0 2.298651 1_555
F25 Xe13 2.146238 1_555
F25 Hg0 2.298651 1_555
F26 Xe14 2.146238 1_555
F26 Hg1 2.298651 1_555
F27 Xe15 2.146238 1_555
F27 Hg1 2.298651 1_555
F28 Xe16 2.146238 1_555
F28 Hg2 2.298651 1_555
F29 Xe17 2.146238 1_555
F29 Hg2 2.298651 1_555
F30 Xe18 2.146238 1_555
F30 Hg3 2.298651 1_555
F31 Xe19 2.146238 1_555
F31 Hg3 2.298651 1_555
F32 Xe12 2.035864 1_655
F33 Xe13 2.035864 1_555
F34 Xe14 2.035864 1_455
F35 Xe15 2.035864 1_555
F36 Xe16 2.035864 1_455
F37 Xe17 2.035864 1_555
F38 Xe18 2.035864 1_655
F39 Xe19 2.035864 1_555
F40 P0 1.644080 1_455
F41 P1 1.644080 1_555
F42 P2 1.644080 1_655
F43 P3 1.644080 1_555
F44 P4 1.644080 1_655
F45 P5 1.644080 1_555
F46 P6 1.644080 1_455
F47 P7 1.644080 1_555
F48 P0 1.671097 1_455
F49 P1 1.671097 1_555
F50 P2 1.671097 1_655
F51 P3 1.671097 1_555
F52 P4 1.671097 1_655
F53 P5 1.671097 1_555
F54 P6 1.671097 1_455
F55 P7 1.671097 1_555
F56 P0 1.627188 1_555
F57 P1 1.627188 1_555
F58 P2 1.627188 1_555
F59 P3 1.627188 1_555
F60 P4 1.627188 1_555
F61 P5 1.627188 1_555
F62 P6 1.627188 1_555
F63 P7 1.627188 1_555
F64 P0 1.628767 1_555
F65 P1 1.628767 1_555
F66 P2 1.628767 1_555
F67 P3 1.628767 1_555
F68 P4 1.628767 1_555
F69 P5 1.628767 1_555
F70 P6 1.628767 1_555
F71 P7 1.628767 1_555
F72 P0 1.628321 1_555
F73 P1 1.628321 1_555
F74 P2 1.628321 1_555
F75 P3 1.628321 1_555
F76 P4 1.628321 1_555
F77 P5 1.628321 1_555
F78 P6 1.628321 1_555
F79 P7 1.628321 1_555
F80 P0 1.635545 1_455
F81 P1 1.635545 1_555
F82 P2 1.635545 1_655
F83 P3 1.635545 1_555
F84 P4 1.635545 1_655
F85 P5 1.635545 1_555
F86 P6 1.635545 1_455
F87 P7 1.635545 1_555
