# generated using pymatgen
data_NaNbS6
_symmetry_space_group_name_H-M   'P 1'
_cell_length_a   11.26370642
_cell_length_b   11.42526857
_cell_length_c   11.42526857
_cell_angle_alpha   141.85014333
_cell_angle_beta   94.70039936
_cell_angle_gamma   94.70039936
_symmetry_Int_Tables_number   1
_chemical_formula_structural   NaNbS6
_chemical_formula_sum   'Na4 Nb4 S24'
_cell_volume   879.23506326
_cell_formula_units_Z   4
loop_
 _symmetry_equiv_pos_site_id
 _symmetry_equiv_pos_as_xyz
  1  'x, y, z'
loop_
 _atom_site_type_symbol
 _atom_site_label
 _atom_site_symmetry_multiplicity
 _atom_site_fract_x
 _atom_site_fract_y
 _atom_site_fract_z
 _atom_site_occupancy
  Na  Na0  1  0.29615800  0.55644900  0.91627100  1
  Na  Na1  1  0.20384200  0.08372900  0.44355100  1
  Na  Na2  1  0.70384200  0.44355100  0.08372900  1
  Na  Na3  1  0.79615800  0.91627100  0.55644900  1
  Nb  Nb0  1  0.05792700  0.21698800  0.09740100  1
  Nb  Nb1  1  0.44207300  0.90259900  0.78301200  1
  Nb  Nb2  1  0.94207300  0.78301200  0.90259900  1
  Nb  Nb3  1  0.55792700  0.09740100  0.21698800  1
  S  S0  1  0.10007800  0.90340600  0.86793500  1
  S  S1  1  0.39992200  0.13206500  0.09659400  1
  S  S2  1  0.89992200  0.09659400  0.13206500  1
  S  S3  1  0.60007800  0.86793500  0.90340600  1
  S  S4  1  0.21976800  0.25010900  0.98265800  1
  S  S5  1  0.28023200  0.01734200  0.74989100  1
  S  S6  1  0.78023200  0.74989100  0.01734200  1
  S  S7  1  0.71976800  0.98265800  0.25010900  1
  S  S8  1  0.89202700  0.24845100  0.97652800  1
  S  S9  1  0.60797300  0.02347200  0.75154900  1
  S  S10  1  0.10797300  0.75154900  0.02347200  1
  S  S11  1  0.39202700  0.97652800  0.24845100  1
  S  S12  1  0.03623800  0.49538900  0.15058200  1
  S  S13  1  0.46376200  0.84941800  0.50461100  1
  S  S14  1  0.96376200  0.50461100  0.84941800  1
  S  S15  1  0.53623800  0.15058200  0.49538900  1
  S  S16  1  0.01080900  0.26594200  0.60782700  1
  S  S17  1  0.48919100  0.39217300  0.73405800  1
  S  S18  1  0.98919100  0.73405800  0.39217300  1
  S  S19  1  0.51080900  0.60782700  0.26594200  1
  S  S20  1  0.84534100  0.53833100  0.56241000  1
  S  S21  1  0.65465900  0.43759000  0.46166900  1
  S  S22  1  0.15465900  0.46166900  0.43759000  1
  S  S23  1  0.34534100  0.56241000  0.53833100  1
loop_
_geom_bond_atom_site_label_1
_geom_bond_atom_site_label_2
_geom_bond_distance
_geom_bond_site_symmetry_2
Na0 S17 2.801670 1_555
Na0 S10 2.804943 1_556
Na0 S11 2.904345 1_556
Na1 S16 2.801670 1_555
Na1 S11 2.804943 1_545
Na1 S10 2.904345 1_545
Na2 S19 2.801670 1_555
Na2 S8 2.804943 1_554
Na2 S9 2.904345 1_554
Na3 S18 2.801670 1_555
Na3 S9 2.804943 1_565
Na3 S8 2.904345 1_565
Nb0 S0 2.375819 1_544
Nb0 S2 2.405717 1_455
Nb0 S22 2.413803 1_555
Nb0 S8 2.448712 1_454
Nb0 S4 2.498755 1_554
Nb0 S12 2.767375 1_555
Nb1 S1 2.375819 1_566
Nb1 S3 2.405717 1_555
Nb1 S23 2.413803 1_555
Nb1 S9 2.448712 1_565
Nb1 S5 2.498755 1_565
Nb1 S13 2.767375 1_555
Nb2 S2 2.375819 1_566
Nb2 S0 2.405717 1_655
Nb2 S20 2.413803 1_555
Nb2 S10 2.448712 1_656
Nb2 S6 2.498755 1_556
Nb2 S14 2.767375 1_555
Nb3 S3 2.375819 1_544
Nb3 S1 2.405717 1_555
Nb3 S21 2.413803 1_555
Nb3 S11 2.448712 1_545
Nb3 S7 2.498755 1_545
Nb3 S15 2.767375 1_555
S4 S5 2.019635 1_555
S6 S7 2.019635 1_555
S10 S14 2.109099 1_454
S11 S15 2.109099 1_565
S12 S18 1.993480 1_455
S12 S8 2.109099 1_454
S13 S19 1.993480 1_555
S13 S9 2.109099 1_565
S14 S16 1.993480 1_655
S15 S17 1.993480 1_555
S20 S21 2.090128 1_555
S22 S23 2.090128 1_555
