# generated using pymatgen
data_Sb7Mo3
_symmetry_space_group_name_H-M   'P 1'
_cell_length_a   8.33187101
_cell_length_b   8.33187061
_cell_length_c   8.33187085
_cell_angle_alpha   109.47122118
_cell_angle_beta   109.47122022
_cell_angle_gamma   109.47121844
_symmetry_Int_Tables_number   1
_chemical_formula_structural   Sb7Mo3
_chemical_formula_sum   'Sb14 Mo6'
_cell_volume   445.25182130
_cell_formula_units_Z   2
loop_
 _symmetry_equiv_pos_site_id
 _symmetry_equiv_pos_as_xyz
  1  'x, y, z'
loop_
 _atom_site_type_symbol
 _atom_site_label
 _atom_site_symmetry_multiplicity
 _atom_site_fract_x
 _atom_site_fract_y
 _atom_site_fract_z
 _atom_site_occupancy
  Sb  Sb0  1  0.50000000  0.75000000  0.25000000  1
  Sb  Sb1  1  0.75000000  0.50000000  0.25000000  1
  Sb  Sb2  1  0.25000000  0.50000000  0.75000000  1
  Sb  Sb3  1  0.75000000  0.25000000  0.50000000  1
  Sb  Sb4  1  0.25000000  0.75000000  0.50000000  1
  Sb  Sb5  1  0.50000000  0.25000000  0.75000000  1
  Sb  Sb6  1  0.32102784  0.32102784  0.32102784  1
  Sb  Sb7  1  0.32102784  0.00000000  0.00000000  1
  Sb  Sb8  1  0.00000000  0.32102784  -0.00000000  1
  Sb  Sb9  1  -0.00000000  -0.00000000  0.32102784  1
  Sb  Sb10  1  -0.00000000  0.67897216  0.00000000  1
  Sb  Sb11  1  -0.00000000  -0.00000000  0.67897216  1
  Sb  Sb12  1  0.67897216  -0.00000000  -0.00000000  1
  Sb  Sb13  1  0.67897216  0.67897216  0.67897216  1
  Mo  Mo0  1  -0.00000000  0.34151295  0.34151295  1
  Mo  Mo1  1  0.34151295  -0.00000000  0.34151295  1
  Mo  Mo2  1  0.65848705  0.00000000  0.65848705  1
  Mo  Mo3  1  0.65848705  0.65848705  0.00000000  1
  Mo  Mo4  1  0.34151295  0.34151295  -0.00000000  1
  Mo  Mo5  1  0.00000000  0.65848705  0.65848705  1
loop_
_geom_bond_atom_site_label_1
_geom_bond_atom_site_label_2
_geom_bond_distance
_geom_bond_site_symmetry_2
Sb6 Sb7 3.088550 1_555
Sb6 Sb8 3.088550 1_555
Sb6 Sb9 3.088550 1_555
Sb10 Sb8 2.982346 1_555
Sb10 Sb9 3.088550 1_565
Sb10 Sb13 3.088550 1_454
Sb10 Sb7 3.088550 1_565
Sb11 Sb9 2.982346 1_555
Sb11 Sb8 3.088550 1_556
Sb11 Sb7 3.088550 1_556
Sb11 Sb13 3.088550 1_445
Sb12 Sb7 2.982346 1_555
Sb12 Sb13 3.088550 1_544
Sb12 Sb9 3.088550 1_655
Sb12 Sb8 3.088550 1_655
Sb13 Sb6 2.982346 1_555
Mo0 Sb9 2.793188 1_555
Mo0 Sb8 2.793188 1_555
Mo0 Sb6 2.793188 1_555
Mo0 Sb12 2.793188 1_455
Mo0 Sb1 2.847796 1_455
Mo0 Sb4 2.847796 1_555
Mo0 Sb3 2.847796 1_455
Mo0 Sb2 2.847796 1_555
Mo1 Sb6 2.793188 1_555
Mo1 Sb7 2.793188 1_555
Mo1 Sb9 2.793188 1_555
Mo1 Sb10 2.793188 1_545
Mo1 Sb0 2.847796 1_545
Mo1 Sb4 2.847796 1_545
Mo1 Sb5 2.847796 1_555
Mo1 Sb3 2.847796 1_555
Mo2 Sb13 2.793188 1_545
Mo2 Sb12 2.793188 1_556
Mo2 Sb11 2.793188 1_655
Mo2 Sb8 2.793188 1_656
Mo2 Sb5 2.847796 1_555
Mo2 Sb3 2.847796 1_555
Mo2 Sb0 2.847796 1_545
Mo2 Sb4 2.847796 1_545
Mo3 Sb12 2.793188 1_565
Mo3 Sb13 2.793188 1_554
Mo3 Sb10 2.793188 1_655
Mo3 Sb9 2.793188 1_665
Mo3 Sb5 2.847796 1_554
Mo3 Sb1 2.847796 1_555
Mo3 Sb0 2.847796 1_555
Mo3 Sb2 2.847796 1_554
Mo4 Sb7 2.793188 1_555
Mo4 Sb6 2.793188 1_555
Mo4 Sb8 2.793188 1_555
Mo4 Sb11 2.793188 1_554
Mo4 Sb0 2.847796 1_555
Mo4 Sb2 2.847796 1_554
Mo4 Sb5 2.847796 1_554
Mo4 Sb1 2.847796 1_555
Mo5 Sb11 2.793188 1_565
Mo5 Sb10 2.793188 1_556
Mo5 Sb13 2.793188 1_455
Mo5 Sb7 2.793188 1_566
Mo5 Sb2 2.847796 1_555
Mo5 Sb3 2.847796 1_455
Mo5 Sb4 2.847796 1_555
Mo5 Sb1 2.847796 1_455
