# generated using pymatgen
data_Pt(NCl)2
_symmetry_space_group_name_H-M   'P 1'
_cell_length_a   4.41112900
_cell_length_b   6.66056500
_cell_length_c   8.78563217
_cell_angle_alpha   77.60023103
_cell_angle_beta   90.00000000
_cell_angle_gamma   90.00000000
_symmetry_Int_Tables_number   1
_chemical_formula_structural   Pt(NCl)2
_chemical_formula_sum   'Pt2 N4 Cl4'
_cell_volume   252.10594805
_cell_formula_units_Z   2
loop_
 _symmetry_equiv_pos_site_id
 _symmetry_equiv_pos_as_xyz
  1  'x, y, z'
loop_
 _atom_site_type_symbol
 _atom_site_label
 _atom_site_symmetry_multiplicity
 _atom_site_fract_x
 _atom_site_fract_y
 _atom_site_fract_z
 _atom_site_occupancy
  Pt  Pt0  1  0.50000000  0.00000000  0.50000000  1
  Pt  Pt1  1  0.00000000  0.00000000  0.00000000  1
  N  N0  1  0.74564000  0.77610500  0.59415900  1
  N  N1  1  0.24564000  0.22389500  0.90584100  1
  N  N2  1  0.25436000  0.22389500  0.40584100  1
  N  N3  1  0.75436000  0.77610500  0.09415900  1
  Cl  Cl0  1  0.11799100  0.74422100  0.60314100  1
  Cl  Cl1  1  0.61799100  0.25577900  0.89685900  1
  Cl  Cl2  1  0.88200900  0.25577900  0.39685900  1
  Cl  Cl3  1  0.38200900  0.74422100  0.10314100  1
loop_
_geom_bond_atom_site_label_1
_geom_bond_atom_site_label_2
_geom_bond_distance
_geom_bond_site_symmetry_2
N0 Pt0 1.884805 1_565
N1 Pt1 1.884805 1_556
N2 Pt0 1.884805 1_555
N3 Pt1 1.884805 1_665
Cl0 N0 1.655867 1_455
Cl0 Pt0 2.428998 1_565
Cl1 N1 1.655867 1_555
Cl1 Pt1 2.428998 1_656
Cl2 N2 1.655867 1_655
Cl2 Pt0 2.428998 1_555
Cl3 N3 1.655867 1_555
Cl3 Pt1 2.428998 1_565
