# generated using pymatgen
data_Ca5Cu2(IrO6)2
_symmetry_space_group_name_H-M   'P 1'
_cell_length_a   6.53722300
_cell_length_b   6.54819048
_cell_length_c   6.56897264
_cell_angle_alpha   90.75894226
_cell_angle_beta   91.88189633
_cell_angle_gamma   91.11121496
_symmetry_Int_Tables_number   1
_chemical_formula_structural   Ca5Cu2(IrO6)2
_chemical_formula_sum   'Ca5 Cu2 Ir2 O12'
_cell_volume   280.96625074
_cell_formula_units_Z   1
loop_
 _symmetry_equiv_pos_site_id
 _symmetry_equiv_pos_as_xyz
  1  'x, y, z'
loop_
 _atom_site_type_symbol
 _atom_site_label
 _atom_site_symmetry_multiplicity
 _atom_site_fract_x
 _atom_site_fract_y
 _atom_site_fract_z
 _atom_site_occupancy
  Ca  Ca0  1  0.41218900  0.24434500  0.60146600  1
  Ca  Ca1  1  0.60280900  0.75916900  0.40541200  1
  Ca  Ca2  1  0.25601700  0.37936200  0.10515500  1
  Ca  Ca3  1  0.74681700  0.61571500  0.88836800  1
  Ca  Ca4  1  0.10605100  0.88425200  0.26418000  1
  Cu  Cu0  1  0.18603000  0.76090700  0.80727000  1
  Cu  Cu1  1  0.81212100  0.24681200  0.18084600  1
  Ir  Ir0  1  0.50441100  0.99844300  0.99827800  1
  Ir  Ir1  1  0.99835300  0.49108400  0.50236700  1
  O  O0  1  0.10430300  0.46889100  0.79066200  1
  O  O1  1  0.21753000  0.04487100  0.90941400  1
  O  O2  1  0.90391600  0.54491200  0.20886100  1
  O  O3  1  0.78706100  0.94892500  0.11411400  1
  O  O4  1  0.96768700  0.78091500  0.59433600  1
  O  O5  1  0.40303100  0.70899600  0.03435200  1
  O  O6  1  0.03593400  0.21151600  0.38530400  1
  O  O7  1  0.58520200  0.29617500  0.97192000  1
  O  O8  1  0.28508600  0.55976000  0.42445800  1
  O  O9  1  0.56268000  0.92486400  0.71705600  1
  O  O10  1  0.70789400  0.44925500  0.56889600  1
  O  O11  1  0.42514000  0.06313800  0.28721300  1
loop_
_geom_bond_atom_site_label_1
_geom_bond_atom_site_label_2
_geom_bond_distance
_geom_bond_site_symmetry_2
Ca0 O10 2.348867 1_555
Ca0 O11 2.372137 1_555
Ca0 O9 2.448224 1_545
Ca0 O8 2.524877 1_555
Ca0 O7 2.664357 1_555
Ca0 O1 2.755396 1_555
Ca0 O6 2.802581 1_555
Ca0 O0 2.826359 1_555
Ca1 O9 2.329049 1_555
Ca1 O10 2.409761 1_555
Ca1 O8 2.439451 1_555
Ca1 O11 2.446450 1_565
Ca1 O3 2.610109 1_555
Ca1 O4 2.652880 1_555
Ca1 O5 2.740063 1_555
Ca1 O2 2.781384 1_555
Ca2 O0 2.348473 1_554
Ca2 O8 2.393844 1_555
Ca2 O5 2.403041 1_555
Ca2 O7 2.418715 1_554
Ca2 O1 2.529201 1_554
Ca2 O6 2.613572 1_555
Ca2 O11 2.647250 1_555
Ca2 O2 2.667879 1_455
Ca3 O10 2.355966 1_555
Ca3 O2 2.367343 1_556
Ca3 O7 2.403830 1_555
Ca3 O5 2.553982 1_556
Ca3 O9 2.622852 1_555
Ca3 O3 2.625918 1_556
Ca3 O0 2.639510 1_655
Ca3 O4 2.676485 1_555
Ca4 O3 2.325923 1_455
Ca4 O6 2.335049 1_565
Ca4 O11 2.371927 1_565
Ca4 O4 2.474600 1_455
Ca4 O2 2.578547 1_455
Ca4 O8 2.658580 1_555
Ca4 O1 2.686083 1_564
Ca4 O5 2.756530 1_555
Cu0 O4 1.972819 1_455
Cu0 O1 1.973119 1_565
Cu0 O0 1.976052 1_555
Cu0 O5 2.060640 1_556
Cu1 O6 1.972375 1_655
Cu1 O3 1.996035 1_545
Cu1 O7 2.021192 1_554
Cu1 O2 2.035222 1_555
Ir0 O9 1.954395 1_555
Ir0 O1 1.976169 1_565
Ir0 O3 2.008915 1_556
Ir0 O5 2.015253 1_556
Ir0 O7 2.021112 1_565
Ir0 O11 2.025402 1_566
Ir1 O10 1.977104 1_555
Ir1 O6 1.998896 1_655
Ir1 O4 1.999854 1_555
Ir1 O0 2.003090 1_655
Ir1 O8 2.003517 1_655
Ir1 O2 2.042289 1_555
