# generated using pymatgen
data_Mn2O3
_symmetry_space_group_name_H-M   'P 1'
_cell_length_a   10.55604269
_cell_length_b   10.49784812
_cell_length_c   10.67191837
_cell_angle_alpha   119.49061031
_cell_angle_beta   90.43210803
_cell_angle_gamma   119.81501275
_symmetry_Int_Tables_number   1
_chemical_formula_structural   Mn2O3
_chemical_formula_sum   'Mn32 O48'
_cell_volume   841.82162155
_cell_formula_units_Z   16
loop_
 _symmetry_equiv_pos_site_id
 _symmetry_equiv_pos_as_xyz
  1  'x, y, z'
loop_
 _atom_site_type_symbol
 _atom_site_label
 _atom_site_symmetry_multiplicity
 _atom_site_fract_x
 _atom_site_fract_y
 _atom_site_fract_z
 _atom_site_occupancy
  Mn  Mn0  1  0.25581000  0.00441300  0.75561000  1
  Mn  Mn1  1  0.74419000  0.99558700  0.24439000  1
  Mn  Mn2  1  0.75291500  0.00412400  0.75450000  1
  Mn  Mn3  1  0.24708500  0.99587600  0.24550000  1
  Mn  Mn4  1  0.75010100  0.50274100  0.75385200  1
  Mn  Mn5  1  0.24989900  0.49725900  0.24614800  1
  Mn  Mn6  1  0.00000000  0.00000000  0.50000000  1
  Mn  Mn7  1  0.50000000  0.50000000  0.50000000  1
  Mn  Mn8  1  0.00000000  0.50000000  0.50000000  1
  Mn  Mn9  1  0.50000000  0.00000000  0.00000000  1
  Mn  Mn10  1  0.00000000  0.50000000  0.00000000  1
  Mn  Mn11  1  0.50000000  0.50000000  0.00000000  1
  Mn  Mn12  1  0.23529800  0.47773100  0.71350400  1
  Mn  Mn13  1  0.76470200  0.52226900  0.28649600  1
  Mn  Mn14  1  0.50000000  0.00000000  0.50000000  1
  Mn  Mn15  1  0.00000000  0.00000000  0.00000000  1
  Mn  Mn16  1  0.13490500  0.74300000  0.88155600  1
  Mn  Mn17  1  0.86509500  0.25700000  0.11844400  1
  Mn  Mn18  1  0.13758500  0.27053000  0.88323100  1
  Mn  Mn19  1  0.86241500  0.72947000  0.11676900  1
  Mn  Mn20  1  0.60976400  0.74847000  0.88236100  1
  Mn  Mn21  1  0.39023600  0.25153000  0.11763900  1
  Mn  Mn22  1  0.11482600  0.74821800  0.37888900  1
  Mn  Mn23  1  0.88517400  0.25178200  0.62111100  1
  Mn  Mn24  1  0.63326700  0.74576600  0.37987900  1
  Mn  Mn25  1  0.36673300  0.25423400  0.62012100  1
  Mn  Mn26  1  0.63107300  0.26228100  0.38129000  1
  Mn  Mn27  1  0.36892700  0.73771900  0.61871000  1
  Mn  Mn28  1  0.61325500  0.22739300  0.83788200  1
  Mn  Mn29  1  0.38674500  0.77260700  0.16211800  1
  Mn  Mn30  1  0.11567400  0.23361800  0.34751200  1
  Mn  Mn31  1  0.88432600  0.76638200  0.65248800  1
  O  O0  1  0.26948100  0.20753700  0.93095400  1
  O  O1  1  0.73051900  0.79246300  0.06904600  1
  O  O2  1  0.71790700  0.99109400  0.92951400  1
  O  O3  1  0.28209300  0.00890600  0.07048600  1
  O  O4  1  0.94092800  0.65245800  0.92590000  1
  O  O5  1  0.05907200  0.34754200  0.07410000  1
  O  O6  1  0.52174500  0.33970000  0.31842700  1
  O  O7  1  0.47825500  0.66030000  0.68157300  1
  O  O8  1  0.97666500  0.50187600  0.32007000  1
  O  O9  1  0.02333500  0.49812400  0.67993000  1
  O  O10  1  0.81840600  0.80989100  0.31877500  1
  O  O11  1  0.18159400  0.19010900  0.68122500  1
  O  O12  1  0.23417900  0.79844100  0.57877600  1
  O  O13  1  0.76582100  0.20155900  0.42122400  1
  O  O14  1  0.79102900  0.01860600  0.58175600  1
  O  O15  1  0.20897100  0.98139400  0.41824400  1
  O  O16  1  0.56096600  0.35862800  0.58388400  1
  O  O17  1  0.43903400  0.64137200  0.41611600  1
  O  O18  1  0.95149400  0.63622200  0.17677200  1
  O  O19  1  0.04850600  0.36377800  0.82322800  1
  O  O20  1  0.54459600  0.49276500  0.17588200  1
  O  O21  1  0.45540400  0.50723500  0.82411800  1
  O  O22  1  0.68348900  0.22630300  0.17664900  1
  O  O23  1  0.31651100  0.77369700  0.82335100  1
  O  O24  1  0.19879500  0.71719900  0.05706500  1
  O  O25  1  0.80120500  0.28280100  0.94293500  1
  O  O26  1  0.33452600  0.53104500  0.05214700  1
  O  O27  1  0.66547400  0.46895500  0.94785300  1
  O  O28  1  0.51787000  0.85652800  0.05593500  1
  O  O29  1  0.48213000  0.14347200  0.94406500  1
  O  O30  1  0.57553300  0.85118800  0.29678700  1
  O  O31  1  0.42446700  0.14881200  0.70321300  1
  O  O32  1  0.44313300  0.02076700  0.30553900  1
  O  O33  1  0.55686700  0.97923300  0.69446100  1
  O  O34  1  0.28553400  0.72727800  0.30544400  1
  O  O35  1  0.71446600  0.27272200  0.69455600  1
  O  O36  1  0.30322200  0.30326400  0.47318500  1
  O  O37  1  0.69677800  0.69673600  0.52681500  1
  O  O38  1  0.17575700  0.48157100  0.47653200  1
  O  O39  1  0.82424300  0.51842900  0.52346800  1
  O  O40  1  0.02030700  0.19490600  0.49486500  1
  O  O41  1  0.97969300  0.80509400  0.50513500  1
  O  O42  1  0.92496300  0.15339700  0.21616800  1
  O  O43  1  0.07503700  0.84660300  0.78383200  1
  O  O44  1  0.05880200  0.98717300  0.20445300  1
  O  O45  1  0.94119800  0.01282700  0.79554700  1
  O  O46  1  0.21365600  0.27498900  0.20200900  1
  O  O47  1  0.78634400  0.72501100  0.79799100  1
loop_
_geom_bond_atom_site_label_1
_geom_bond_atom_site_label_2
_geom_bond_distance
_geom_bond_site_symmetry_2
Mn0 O12 1.942649 1_545
Mn0 O0 1.957225 1_555
Mn0 O43 1.957793 1_545
Mn0 O31 1.986479 1_555
Mn0 O29 2.335012 1_555
Mn1 O13 1.942649 1_565
Mn1 O1 1.957225 1_555
Mn1 O42 1.957793 1_565
Mn1 O30 1.986479 1_555
Mn1 O28 2.335012 1_555
Mn2 O14 1.951876 1_555
Mn2 O2 1.963515 1_545
Mn2 O45 1.979237 1_555
Mn2 O33 2.009735 1_545
Mn2 O25 2.360457 1_555
Mn2 O37 2.650504 1_545
Mn3 O15 1.951876 1_555
Mn3 O3 1.963515 1_565
Mn3 O44 1.979237 1_555
Mn3 O32 2.009735 1_565
Mn3 O24 2.360457 1_555
Mn3 O36 2.650504 1_565
Mn4 O16 1.950650 1_555
Mn4 O47 1.959651 1_555
Mn4 O4 1.963128 1_555
Mn4 O35 1.990343 1_555
Mn4 O27 2.376139 1_555
Mn4 O39 2.642741 1_555
Mn5 O17 1.950650 1_555
Mn5 O46 1.959651 1_555
Mn5 O5 1.963128 1_555
Mn5 O34 1.990343 1_555
Mn5 O26 2.376139 1_555
Mn5 O38 2.642741 1_555
Mn6 O11 1.933284 1_555
Mn6 O10 1.933284 1_445
Mn6 O41 1.977341 1_445
Mn6 O40 1.977341 1_555
Mn6 O14 2.440311 1_455
Mn6 O15 2.440311 1_545
Mn7 O36 1.950699 1_555
Mn7 O37 1.950699 1_555
Mn7 O7 1.954396 1_555
Mn7 O6 1.954396 1_555
Mn7 O17 2.380599 1_555
Mn7 O16 2.380599 1_555
Mn8 O8 1.945032 1_455
Mn8 O9 1.945032 1_555
Mn8 O39 1.964310 1_455
Mn8 O38 1.964310 1_555
Mn8 O13 2.511416 1_455
Mn8 O12 2.511416 1_555
Mn9 O28 1.956121 1_545
Mn9 O29 1.956121 1_554
Mn9 O22 1.977162 1_555
Mn9 O23 1.977162 1_544
Mn9 O3 2.456903 1_555
Mn9 O2 2.456903 1_544
Mn10 O24 1.956793 1_555
Mn10 O25 1.956793 1_454
Mn10 O18 1.988124 1_455
Mn10 O19 1.988124 1_554
Mn10 O4 2.409732 1_454
Mn10 O5 2.409732 1_555
Mn11 O26 1.967037 1_555
Mn11 O27 1.967037 1_554
Mn11 O20 1.978154 1_555
Mn11 O21 1.978154 1_554
Mn11 O1 2.491374 1_555
Mn11 O0 2.491374 1_554
Mn12 O23 2.347929 1_555
Mn12 O9 2.391721 1_555
Mn12 O19 2.399698 1_555
Mn12 O21 2.402266 1_555
Mn12 O40 2.410178 1_555
Mn12 O7 2.476941 1_555
Mn12 O11 2.612997 1_555
Mn12 O38 2.625608 1_555
Mn12 O36 2.674878 1_555
Mn13 O22 2.347929 1_555
Mn13 O8 2.391721 1_555
Mn13 O18 2.399698 1_555
Mn13 O20 2.402266 1_555
Mn13 O41 2.410178 1_555
Mn13 O6 2.476941 1_555
Mn13 O10 2.612997 1_555
Mn13 O39 2.625608 1_555
Mn13 O37 2.674878 1_555
Mn14 O35 2.294381 1_555
Mn14 O34 2.294381 1_545
Mn14 O32 2.295957 1_555
Mn14 O33 2.295957 1_545
Mn14 O31 2.389237 1_555
Mn14 O30 2.389237 1_545
Mn15 O46 2.322243 1_555
Mn15 O47 2.322243 1_444
Mn15 O45 2.348636 1_454
Mn15 O44 2.348636 1_545
Mn15 O43 2.486141 1_544
Mn15 O42 2.486141 1_455
Mn16 O23 1.940479 1_555
Mn16 O4 1.960176 1_455
Mn16 O9 2.032368 1_555
Mn16 O3 2.090455 1_566
Mn16 O43 2.111925 1_555
Mn16 O24 2.167599 1_556
Mn17 O22 1.940479 1_555
Mn17 O5 1.960176 1_655
Mn17 O8 2.032368 1_555
Mn17 O2 2.090455 1_544
Mn17 O42 2.111925 1_555
Mn17 O25 2.167599 1_554
Mn18 O19 1.943170 1_555
Mn18 O0 1.967650 1_555
Mn18 O11 2.046753 1_555
Mn18 O45 2.096046 1_455
Mn18 O26 2.118196 1_556
Mn18 O5 2.135417 1_556
Mn19 O18 1.943170 1_555
Mn19 O1 1.967650 1_555
Mn19 O10 2.046753 1_555
Mn19 O44 2.096046 1_655
Mn19 O27 2.118196 1_554
Mn19 O4 2.135417 1_554
Mn20 O21 1.945835 1_555
Mn20 O2 1.970242 1_555
Mn20 O7 2.024868 1_555
Mn20 O1 2.068270 1_556
Mn20 O47 2.146920 1_555
Mn20 O28 2.170607 1_556
Mn21 O20 1.945835 1_555
Mn21 O3 1.970242 1_555
Mn21 O6 2.024868 1_555
Mn21 O0 2.068270 1_554
Mn21 O46 2.146920 1_555
Mn21 O29 2.170607 1_554
Mn22 O15 1.928323 1_555
Mn22 O8 1.961180 1_455
Mn22 O34 2.038491 1_555
Mn22 O41 2.071332 1_455
Mn22 O18 2.106852 1_455
Mn22 O12 2.146476 1_555
Mn23 O14 1.928323 1_555
Mn23 O9 1.961180 1_655
Mn23 O35 2.038491 1_555
Mn23 O40 2.071332 1_655
Mn23 O19 2.106852 1_655
Mn23 O13 2.146476 1_555
Mn24 O17 1.936299 1_555
Mn24 O10 1.959846 1_555
Mn24 O30 2.002825 1_555
Mn24 O37 2.072495 1_555
Mn24 O20 2.115197 1_555
Mn24 O14 2.178502 1_565
Mn25 O16 1.936299 1_555
Mn25 O11 1.959846 1_555
Mn25 O31 2.002825 1_555
Mn25 O36 2.072495 1_555
Mn25 O21 2.115197 1_555
Mn25 O15 2.178502 1_545
Mn26 O13 1.941949 1_555
Mn26 O6 1.974924 1_555
Mn26 O32 1.993383 1_555
Mn26 O39 2.043215 1_555
Mn26 O22 2.152253 1_555
Mn26 O16 2.204686 1_555
Mn27 O12 1.941949 1_555
Mn27 O7 1.974924 1_555
Mn27 O33 1.993383 1_555
Mn27 O38 2.043215 1_555
Mn27 O23 2.152253 1_555
Mn27 O17 2.204686 1_555
Mn28 O25 1.925711 1_555
Mn28 O29 1.941672 1_555
Mn28 O27 1.944721 1_555
Mn28 O31 1.967796 1_555
Mn28 O35 1.985741 1_555
Mn28 O33 2.000551 1_545
Mn29 O24 1.925711 1_555
Mn29 O28 1.941672 1_555
Mn29 O26 1.944721 1_555
Mn29 O30 1.967796 1_555
Mn29 O34 1.985741 1_555
Mn29 O32 2.000551 1_565
Mn30 O36 1.951387 1_555
Mn30 O42 1.958593 1_455
Mn30 O38 1.972318 1_555
Mn30 O40 1.974267 1_555
Mn30 O46 1.977648 1_555
Mn30 O44 1.984293 1_545
Mn31 O37 1.951387 1_555
Mn31 O43 1.958593 1_655
Mn31 O39 1.972318 1_555
Mn31 O41 1.974267 1_555
Mn31 O47 1.977648 1_555
Mn31 O45 1.984293 1_565
