# generated using pymatgen
data_Na4Co2C4SO16
_symmetry_space_group_name_H-M   'P 1'
_cell_length_a   9.96710886
_cell_length_b   9.77959902
_cell_length_c   9.85518477
_cell_angle_alpha   119.55333231
_cell_angle_beta   59.55557595
_cell_angle_gamma   119.40890373
_symmetry_Int_Tables_number   1
_chemical_formula_structural   Na4Co2C4SO16
_chemical_formula_sum   'Na8 Co4 C8 S2 O32'
_cell_volume   682.17915613
_cell_formula_units_Z   2
loop_
 _symmetry_equiv_pos_site_id
 _symmetry_equiv_pos_as_xyz
  1  'x, y, z'
loop_
 _atom_site_type_symbol
 _atom_site_label
 _atom_site_symmetry_multiplicity
 _atom_site_fract_x
 _atom_site_fract_y
 _atom_site_fract_z
 _atom_site_occupancy
  Na  Na0  1  0.90781313  0.15243977  0.32904924  1
  Na  Na1  1  0.90674107  0.15326023  0.91638067  1
  Na  Na2  1  0.91167364  0.58700309  0.33785088  1
  Na  Na3  1  0.65096063  0.41765713  0.09591605  1
  Na  Na4  1  0.33893933  0.16032078  0.91134907  1
  Na  Na5  1  0.34927117  0.59157510  0.91564872  1
  Na  Na6  1  0.09435277  0.41525011  0.65087439  1
  Na  Na7  1  0.09308488  0.82961605  0.65102618  1
  Co  Co0  1  0.49747029  0.99785868  0.00387239  1
  Co  Co1  1  0.50198236  0.99742684  0.49495631  1
  Co  Co2  1  0.50071018  0.50258392  0.50237696  1
  Co  Co3  1  0.99989338  0.99813389  0.49551007  1
  C  C0  1  0.71439291  0.14336811  0.71466596  1
  C  C1  1  0.64328569  0.21701477  0.28478827  1
  C  C2  1  0.28298949  0.21170847  0.64467720  1
  C  C3  1  0.28939478  0.21807214  0.28792852  1
  C  C4  1  0.71311476  0.78594180  0.71207673  1
  C  C5  1  0.71460995  0.78892497  0.36030769  1
  C  C6  1  0.35857286  0.78656365  0.71733326  1
  C  C7  1  0.28513826  0.85843794  0.28800184  1
  S  S0  1  0.87538099  0.62394173  0.87396884  1
  S  S1  1  0.12411051  0.37267589  0.12302056  1
  O  O0  1  0.85979796  0.15409081  0.69030637  1
  O  O1  1  0.64730500  0.10672117  0.31623923  1
  O  O2  1  0.68512210  0.13440966  0.59748563  1
  O  O3  1  0.64791451  0.18688986  0.13757551  1
  O  O4  1  0.60002876  0.14960032  0.86238980  1
  O  O5  1  0.93114942  0.55463589  0.93484977  1
  O  O6  1  0.94425711  0.56634488  0.68790068  1
  O  O7  1  0.64697980  0.36388152  0.39310354  1
  O  O8  1  0.39328293  0.17840495  0.64463308  1
  O  O9  1  0.32177617  0.10902638  0.14045443  1
  O  O10  1  0.93444235  0.80879141  0.93654549  1
  O  O11  1  0.69273177  0.56581216  0.93547404  1
  O  O12  1  0.68796447  0.63963328  0.34931379  1
  O  O13  1  0.86040786  0.80856349  0.60171929  1
  O  O14  1  0.40328413  0.35763213  0.32080929  1
  O  O15  1  0.13888143  0.10126828  0.64951073  1
  O  O16  1  0.59725721  0.64667058  0.68273454  1
  O  O17  1  0.85510871  0.90056993  0.36116819  1
  O  O18  1  0.31121087  0.35853390  0.64970489  1
  O  O19  1  0.14248850  0.19054212  0.39698700  1
  O  O20  1  0.30658655  0.42953658  0.05694907  1
  O  O21  1  0.06261650  0.18536082  0.05968751  1
  O  O22  1  0.68496843  0.90140163  0.85450077  1
  O  O23  1  0.60311220  0.82115773  0.36252946  1
  O  O24  1  0.35218230  0.63960335  0.60741928  1
  O  O25  1  0.06326350  0.43527694  0.05909810  1
  O  O26  1  0.05563482  0.43079028  0.30806911  1
  O  O27  1  0.39627212  0.85565267  0.14041642  1
  O  O28  1  0.36339969  0.81730956  0.85841221  1
  O  O29  1  0.31844758  0.86466502  0.40134030  1
  O  O30  1  0.34990883  0.89808547  0.68917551  1
  O  O31  1  0.13833243  0.84581822  0.31837418  1
loop_
_geom_bond_atom_site_label_1
_geom_bond_atom_site_label_2
_geom_bond_distance
_geom_bond_site_symmetry_2
Na0 O21 2.394934 1_655
Na0 O17 2.402773 1_545
Na0 O26 2.435435 1_655
Na0 O2 2.466063 1_555
Na0 O1 2.468626 1_555
Na0 O19 2.557970 1_655
Na1 O21 2.411267 1_656
Na1 O22 2.421176 1_545
Na1 O3 2.437682 1_556
Na1 O25 2.487998 1_656
Na1 O15 2.489683 1_655
Na1 O0 2.502199 1_555
Na2 O26 2.400530 1_655
Na2 O13 2.429158 1_555
Na2 O31 2.443608 1_655
Na2 O25 2.450659 1_655
Na2 O12 2.462488 1_555
Na2 O7 2.465922 1_555
Na3 O14 2.380447 1_555
Na3 O11 2.402750 1_554
Na3 O12 2.425747 1_555
Na3 O5 2.458547 1_554
Na3 O3 2.469165 1_555
Na3 O4 2.520323 1_554
Na4 O20 2.394333 1_556
Na4 O30 2.424167 1_545
Na4 O4 2.441596 1_555
Na4 O21 2.451807 1_556
Na4 O9 2.453674 1_556
Na4 O8 2.481035 1_555
Na5 O20 2.354936 1_556
Na5 O16 2.414760 1_555
Na5 O27 2.452769 1_556
Na5 O28 2.460503 1_555
Na5 O25 2.495934 1_556
Na5 O18 2.544279 1_555
Na6 O6 2.374978 1_455
Na6 O19 2.390556 1_555
Na6 O24 2.423972 1_555
Na6 O18 2.474970 1_555
Na6 O5 2.477376 1_455
Na6 O0 2.516760 1_455
Na7 O6 2.363768 1_455
Na7 O29 2.385910 1_555
Na7 O15 2.471372 1_565
Na7 O30 2.487145 1_555
Na7 O10 2.489891 1_455
Na7 O13 2.496246 1_455
Co0 O27 1.963490 1_555
Co0 O28 2.021278 1_554
Co0 O9 2.024287 1_565
Co0 O22 2.030479 1_554
Co0 O3 2.068637 1_565
Co0 O4 2.073225 1_564
Co1 O23 1.960839 1_555
Co1 O29 2.019769 1_555
Co1 O1 2.023342 1_565
Co1 O8 2.042155 1_565
Co1 O2 2.068806 1_565
Co1 O30 2.086398 1_555
Co2 O16 2.000477 1_555
Co2 O7 2.008775 1_555
Co2 O14 2.015220 1_555
Co2 O24 2.021265 1_555
Co2 O12 2.059095 1_555
Co2 O18 2.070179 1_555
Co3 O17 2.020788 1_555
Co3 O31 2.045138 1_655
Co3 O19 2.069022 1_665
Co3 O13 2.091355 1_555
Co3 O0 2.109039 1_565
Co3 O15 2.118543 1_665
C0 O2 1.281779 1_555
C0 O0 1.300770 1_555
C0 O4 1.312056 1_555
C1 O1 1.282940 1_555
C1 O7 1.295853 1_555
C1 O3 1.310591 1_555
C2 O8 1.290562 1_555
C2 O15 1.299907 1_555
C2 O18 1.300250 1_555
C3 O14 1.292792 1_555
C3 O19 1.294255 1_555
C3 O9 1.299021 1_555
C4 O22 1.293221 1_555
C4 O16 1.295162 1_555
C4 O13 1.298993 1_555
C5 O23 1.283519 1_555
C5 O17 1.286290 1_555
C5 O12 1.306225 1_555
C6 O28 1.291125 1_555
C6 O24 1.298951 1_555
C6 O30 1.299728 1_555
C7 O29 1.284680 1_555
C7 O31 1.288840 1_555
C7 O27 1.304250 1_555
O5 S0 1.495822 1_555
O6 S0 1.495411 1_555
O10 S0 1.489253 1_555
O11 S0 1.486618 1_555
O20 S1 1.484886 1_555
O21 S1 1.509337 1_555
O25 S1 1.507228 1_555
O26 S1 1.487210 1_555
