# generated using pymatgen
data_LaP3O7
_symmetry_space_group_name_H-M   'P 1'
_cell_length_a   6.93516700
_cell_length_b   8.29809486
_cell_length_c   9.11623183
_cell_angle_alpha   114.91220456
_cell_angle_beta   95.52378505
_cell_angle_gamma   97.92269854
_symmetry_Int_Tables_number   1
_chemical_formula_structural   LaP3O7
_chemical_formula_sum   'La2 P6 O14'
_cell_volume   464.26486643
_cell_formula_units_Z   2
loop_
 _symmetry_equiv_pos_site_id
 _symmetry_equiv_pos_as_xyz
  1  'x, y, z'
loop_
 _atom_site_type_symbol
 _atom_site_label
 _atom_site_symmetry_multiplicity
 _atom_site_fract_x
 _atom_site_fract_y
 _atom_site_fract_z
 _atom_site_occupancy
  La  La0  1  0.61939200  0.83642900  0.77430100  1
  La  La1  1  0.38060800  0.16357100  0.22569900  1
  P  P0  1  0.17286500  0.86804100  0.80865500  1
  P  P1  1  0.82713500  0.13195900  0.19134500  1
  P  P2  1  0.95615100  0.78740000  0.17676100  1
  P  P3  1  0.04384900  0.21260000  0.82323900  1
  P  P4  1  0.48413500  0.34098200  0.69580100  1
  P  P5  1  0.51586500  0.65901800  0.30419900  1
  O  O0  1  0.95817600  0.79104900  0.79636100  1
  O  O1  1  0.04182400  0.20895100  0.20363900  1
  O  O2  1  0.31471100  0.88338400  0.95670400  1
  O  O3  1  0.68528900  0.11661600  0.04329600  1
  O  O4  1  0.81260000  0.90594900  0.14017800  1
  O  O5  1  0.18740000  0.09405100  0.85982200  1
  O  O6  1  0.16107500  0.89700200  0.25171800  1
  O  O7  1  0.83892500  0.10299800  0.74828200  1
  O  O8  1  0.39377100  0.26712700  0.51521500  1
  O  O9  1  0.60622900  0.73287300  0.48478500  1
  O  O10  1  0.56620200  0.54484900  0.77576400  1
  O  O11  1  0.43379800  0.45515100  0.22423600  1
  O  O12  1  0.26952400  0.80062900  0.65721600  1
  O  O13  1  0.73047600  0.19937100  0.34278400  1
loop_
_geom_bond_atom_site_label_1
_geom_bond_atom_site_label_2
_geom_bond_distance
_geom_bond_site_symmetry_2
La0 O9 2.394565 1_555
La0 O10 2.402624 1_555
La0 O0 2.432950 1_555
La0 O12 2.480017 1_555
La0 O3 2.513174 1_566
La0 O7 2.617328 1_565
La0 O2 2.781942 1_555
La1 O8 2.394565 1_555
La1 O11 2.402624 1_555
La1 O1 2.432950 1_555
La1 O13 2.480017 1_555
La1 O2 2.513174 1_544
La1 O6 2.617328 1_545
La1 O3 2.781942 1_555
O0 P0 1.510924 1_655
O1 P1 1.510924 1_455
O2 P0 1.539671 1_555
O3 P1 1.539671 1_555
O4 P2 1.597661 1_555
O4 P1 1.716655 1_565
O5 P3 1.597661 1_555
O5 P0 1.716655 1_545
O6 P2 1.499003 1_455
O7 P3 1.499003 1_655
O8 P4 1.524481 1_555
O9 P5 1.524481 1_555
O10 P4 1.527409 1_555
O11 P5 1.527409 1_555
O12 P0 1.516293 1_555
O13 P1 1.516293 1_555
