# generated using pymatgen
data_MgP4W3O14
_symmetry_space_group_name_H-M   'P 1'
_cell_length_a   7.70191700
_cell_length_b   7.57867900
_cell_length_c   9.56416533
_cell_angle_alpha   73.86170700
_cell_angle_beta   90.00000000
_cell_angle_gamma   90.00000000
_symmetry_Int_Tables_number   1
_chemical_formula_structural   MgP4W3O14
_chemical_formula_sum   'Mg2 P8 W6 O28'
_cell_volume   536.26457656
_cell_formula_units_Z   2
loop_
 _symmetry_equiv_pos_site_id
 _symmetry_equiv_pos_as_xyz
  1  'x, y, z'
loop_
 _atom_site_type_symbol
 _atom_site_label
 _atom_site_symmetry_multiplicity
 _atom_site_fract_x
 _atom_site_fract_y
 _atom_site_fract_z
 _atom_site_occupancy
  Mg  Mg0  1  0.00000000  0.50000000  0.00000000  1
  Mg  Mg1  1  0.50000000  0.50000000  0.50000000  1
  P  P0  1  0.94257100  0.41910500  0.70336000  1
  P  P1  1  0.44257100  0.58089500  0.79664000  1
  P  P2  1  0.05742900  0.58089500  0.29664000  1
  P  P3  1  0.55742900  0.41910500  0.20336000  1
  P  P4  1  0.22501100  0.11626600  0.67579200  1
  P  P5  1  0.72501100  0.88373400  0.82420800  1
  P  P6  1  0.77498900  0.88373400  0.32420800  1
  P  P7  1  0.27498900  0.11626600  0.17579200  1
  W  W0  1  0.14833500  0.81236900  0.52064300  1
  W  W1  1  0.64833500  0.18763100  0.97935700  1
  W  W2  1  0.85166500  0.18763100  0.47935700  1
  W  W3  1  0.35166500  0.81236900  0.02064300  1
  W  W4  1  0.00000000  0.00000000  0.00000000  1
  W  W5  1  0.50000000  0.00000000  0.50000000  1
  O  O0  1  0.38213900  0.22761800  0.58633000  1
  O  O1  1  0.88213900  0.77238200  0.91367000  1
  O  O2  1  0.61786100  0.77238200  0.41367000  1
  O  O3  1  0.11786100  0.22761800  0.08633000  1
  O  O4  1  0.38332100  0.63399200  0.63372500  1
  O  O5  1  0.88332100  0.36600800  0.86627500  1
  O  O6  1  0.61667900  0.36600800  0.36627500  1
  O  O7  1  0.11667900  0.63399200  0.13372500  1
  O  O8  1  0.79580400  0.37619400  0.60722600  1
  O  O9  1  0.29580400  0.62380600  0.89277400  1
  O  O10  1  0.20419600  0.62380600  0.39277400  1
  O  O11  1  0.70419600  0.37619400  0.10722600  1
  O  O12  1  0.11476400  0.31498300  0.68507600  1
  O  O13  1  0.61476400  0.68501700  0.81492400  1
  O  O14  1  0.88523600  0.68501700  0.31492400  1
  O  O15  1  0.38523600  0.31498300  0.18507600  1
  O  O16  1  0.51252400  0.62271500  0.16577100  1
  O  O17  1  0.01252400  0.37728500  0.33422900  1
  O  O18  1  0.48747600  0.37728500  0.83422900  1
  O  O19  1  0.98747600  0.62271500  0.66577100  1
  O  O20  1  0.78165100  0.97297300  0.15271200  1
  O  O21  1  0.28165100  0.02702700  0.34728800  1
  O  O22  1  0.21834900  0.02702700  0.84728800  1
  O  O23  1  0.71834900  0.97297300  0.65271200  1
  O  O24  1  0.43456200  0.04513400  0.10214300  1
  O  O25  1  0.93456200  0.95486600  0.39785700  1
  O  O26  1  0.56543800  0.95486600  0.89785700  1
  O  O27  1  0.06543800  0.04513400  0.60214300  1
loop_
_geom_bond_atom_site_label_1
_geom_bond_atom_site_label_2
_geom_bond_distance
_geom_bond_site_symmetry_2
Mg0 O5 2.048546 1_454
Mg0 O7 2.048546 1_555
Mg0 O3 2.195349 1_555
Mg0 O1 2.195349 1_454
Mg0 O11 2.566637 1_455
Mg0 O9 2.566637 1_554
Mg1 O6 2.048546 1_555
Mg1 O4 2.048546 1_555
Mg1 O0 2.195349 1_555
Mg1 O2 2.195349 1_555
Mg1 O10 2.566637 1_555
Mg1 O8 2.566637 1_555
O0 P4 1.583482 1_555
O0 W5 2.296374 1_555
O1 P5 1.583482 1_555
O1 W4 2.296374 1_666
O2 P6 1.583482 1_555
O2 W5 2.296374 1_565
O3 P7 1.583482 1_555
O3 W4 2.296374 1_555
O4 P1 1.565066 1_555
O4 W0 2.336661 1_555
O5 P0 1.565066 1_555
O5 W1 2.336661 1_555
O6 P3 1.565066 1_555
O6 W2 2.336661 1_555
O7 P2 1.565066 1_555
O7 W3 2.336661 1_555
O8 P0 1.547622 1_555
O8 W2 2.166680 1_555
O9 P1 1.547622 1_555
O9 W3 2.166680 1_556
O10 P2 1.547622 1_555
O10 W0 2.166680 1_555
O11 P3 1.547622 1_555
O11 W1 2.166680 1_554
O12 P0 1.577603 1_455
O12 P4 1.752510 1_555
O13 P1 1.577603 1_555
O13 P5 1.752510 1_555
O14 P2 1.577603 1_655
O14 P6 1.752510 1_555
O15 P3 1.577603 1_555
O15 P7 1.752510 1_555
O16 P3 1.523682 1_555
O16 W3 2.101995 1_555
O17 P2 1.523682 1_555
O17 W2 2.101995 1_455
O18 P1 1.523682 1_555
O18 W1 2.101995 1_555
O19 P0 1.523682 1_555
O19 W0 2.101995 1_655
O20 P6 1.591750 1_555
O20 W4 2.199323 1_665
O20 W1 2.224939 1_564
O21 P7 1.591750 1_555
O21 W5 2.199323 1_555
O21 W0 2.224939 1_545
O22 P4 1.591750 1_555
O22 W4 2.199323 1_556
O22 W3 2.224939 1_546
O23 P5 1.591750 1_555
O23 W5 2.199323 1_565
O23 W2 2.224939 1_565
O24 P7 1.583781 1_555
O24 W1 2.133347 1_554
O24 W3 2.211675 1_545
O25 P6 1.583781 1_555
O25 W0 2.133347 1_655
O25 W2 2.211675 1_565
O26 P5 1.583781 1_555
O26 W3 2.133347 1_556
O26 W1 2.211675 1_565
O27 P4 1.583781 1_555
O27 W2 2.133347 1_455
O27 W0 2.211675 1_545
