# generated using pymatgen
data_BaCu2SnSe4
_symmetry_space_group_name_H-M   'P 1'
_cell_length_a   6.65600503
_cell_length_b   6.65600503
_cell_length_c   11.21363200
_cell_angle_alpha   90.00000000
_cell_angle_beta   90.00000000
_cell_angle_gamma   118.15926875
_symmetry_Int_Tables_number   1
_chemical_formula_structural   BaCu2SnSe4
_chemical_formula_sum   'Ba2 Cu4 Sn2 Se8'
_cell_volume   437.99026321
_cell_formula_units_Z   2
loop_
 _symmetry_equiv_pos_site_id
 _symmetry_equiv_pos_as_xyz
  1  'x, y, z'
loop_
 _atom_site_type_symbol
 _atom_site_label
 _atom_site_symmetry_multiplicity
 _atom_site_fract_x
 _atom_site_fract_y
 _atom_site_fract_z
 _atom_site_occupancy
  Ba  Ba0  1  0.63234700  0.63234700  0.50000000  1
  Ba  Ba1  1  0.63234700  0.63234700  0.00000000  1
  Cu  Cu0  1  0.00795800  0.44941400  0.12965000  1
  Cu  Cu1  1  0.00795800  0.44941400  0.37035000  1
  Cu  Cu2  1  0.44941400  0.00795800  0.62965000  1
  Cu  Cu3  1  0.44941400  0.00795800  0.87035000  1
  Sn  Sn0  1  0.37908800  0.08140200  0.25000000  1
  Sn  Sn1  1  0.08140200  0.37908800  0.75000000  1
  Se  Se0  1  0.44065700  0.31660000  0.75000000  1
  Se  Se1  1  0.96890600  0.74351900  0.25000000  1
  Se  Se2  1  0.31660000  0.44065700  0.25000000  1
  Se  Se3  1  0.74351900  0.96890600  0.75000000  1
  Se  Se4  1  0.13251300  0.64231200  0.93149300  1
  Se  Se5  1  0.64231200  0.13251300  0.06850700  1
  Se  Se6  1  0.13251300  0.64231200  0.56850700  1
  Se  Se7  1  0.64231200  0.13251300  0.43149300  1
loop_
_geom_bond_atom_site_label_1
_geom_bond_atom_site_label_2
_geom_bond_distance
_geom_bond_site_symmetry_2
Ba0 Se0 3.372375 1_555
Ba0 Se2 3.372375 1_555
Ba0 Se6 3.386605 1_655
Ba0 Se7 3.386605 1_565
Ba0 Se3 3.443882 1_555
Ba0 Se1 3.443882 1_555
Ba0 Se6 3.445442 1_555
Ba0 Se7 3.445442 1_555
Ba1 Se0 3.372375 1_554
Ba1 Se2 3.372375 1_555
Ba1 Se5 3.386605 1_565
Ba1 Se4 3.386605 1_654
Ba1 Se1 3.443882 1_555
Ba1 Se3 3.443882 1_554
Ba1 Se5 3.445442 1_555
Ba1 Se4 3.445442 1_554
Cu0 Se5 2.448896 1_455
Cu0 Se2 2.481526 1_555
Cu0 Se1 2.490220 1_455
Cu0 Se4 2.503732 1_554
Cu1 Se7 2.448896 1_455
Cu1 Se2 2.481526 1_555
Cu1 Se1 2.490220 1_455
Cu1 Se6 2.503732 1_555
Cu2 Se6 2.448896 1_545
Cu2 Se0 2.481526 1_555
Cu2 Se3 2.490220 1_545
Cu2 Se7 2.503732 1_555
Cu3 Se4 2.448896 1_545
Cu3 Se0 2.481526 1_555
Cu3 Se3 2.490220 1_545
Cu3 Se5 2.503732 1_556
Se0 Sn1 2.613340 1_555
Se1 Sn0 2.591597 1_665
Se2 Sn0 2.613340 1_555
Se3 Sn1 2.591597 1_665
Se4 Sn1 2.600917 1_555
Se5 Sn0 2.600917 1_555
Se6 Sn1 2.600917 1_555
Se7 Sn0 2.600917 1_555
