# generated using pymatgen
data_YScN2
_symmetry_space_group_name_H-M   'P 1'
_cell_length_a   5.77982406
_cell_length_b   5.77982406
_cell_length_c   5.77982413
_cell_angle_alpha   33.63053354
_cell_angle_beta   33.63053354
_cell_angle_gamma   33.63052923
_symmetry_Int_Tables_number   1
_chemical_formula_structural   YScN2
_chemical_formula_sum   'Y1 Sc1 N2'
_cell_volume   52.75947197
_cell_formula_units_Z   1
loop_
 _symmetry_equiv_pos_site_id
 _symmetry_equiv_pos_as_xyz
  1  'x, y, z'
loop_
 _atom_site_type_symbol
 _atom_site_label
 _atom_site_symmetry_multiplicity
 _atom_site_fract_x
 _atom_site_fract_y
 _atom_site_fract_z
 _atom_site_occupancy
  Y  Y0  1  0.50000000  0.50000000  0.50000000  1
  Sc  Sc0  1  0.00000000  0.00000000  0.00000000  1
  N  N0  1  0.25501300  0.25501300  0.25501300  1
  N  N1  1  0.74498700  0.74498700  0.74498700  1
loop_
_geom_bond_atom_site_label_1
_geom_bond_atom_site_label_2
_geom_bond_distance
_geom_bond_site_symmetry_2
N0 Sc0 2.316470 1_565
N0 Sc0 2.316470 1_655
N0 Sc0 2.316470 1_556
N0 Y0 2.410886 1_455
N0 Y0 2.410886 1_545
N0 Y0 2.410887 1_554
N1 Sc0 2.316470 1_656
N1 Sc0 2.316470 1_566
N1 Sc0 2.316470 1_665
N1 Y0 2.410886 1_565
N1 Y0 2.410886 1_655
N1 Y0 2.410887 1_556
