# generated using pymatgen
data_TaNi
_symmetry_space_group_name_H-M   'P 1'
_cell_length_a   17.96568172
_cell_length_b   17.96568172
_cell_length_c   17.96568218
_cell_angle_alpha   15.64132306
_cell_angle_beta   15.64132306
_cell_angle_gamma   15.64132104
_symmetry_Int_Tables_number   1
_chemical_formula_structural   TaNi
_chemical_formula_sum   'Ta13 Ni13'
_cell_volume   367.31311143
_cell_formula_units_Z   13
loop_
 _symmetry_equiv_pos_site_id
 _symmetry_equiv_pos_as_xyz
  1  'x, y, z'
loop_
 _atom_site_type_symbol
 _atom_site_label
 _atom_site_symmetry_multiplicity
 _atom_site_fract_x
 _atom_site_fract_y
 _atom_site_fract_z
 _atom_site_occupancy
  Ta  Ta0  1  0.82732400  0.82732400  0.82732400  1
  Ta  Ta1  1  0.32748800  0.32748800  0.32748800  1
  Ta  Ta2  1  0.67251200  0.67251200  0.67251200  1
  Ta  Ta3  1  0.17267600  0.17267600  0.17267600  1
  Ta  Ta4  1  0.77428100  0.77428100  0.77428100  1
  Ta  Ta5  1  0.27478300  0.27478300  0.27478300  1
  Ta  Ta6  1  0.72521700  0.72521700  0.72521700  1
  Ta  Ta7  1  0.22571900  0.22571900  0.22571900  1
  Ta  Ta8  1  0.41615400  0.41615400  0.41615400  1
  Ta  Ta9  1  0.91718600  0.91718600  0.91718600  1
  Ta  Ta10  1  0.08281400  0.08281400  0.08281400  1
  Ta  Ta11  1  0.58384600  0.58384600  0.58384600  1
  Ta  Ta12  1  0.50000000  0.50000000  0.50000000  1
  Ni  Ni0  1  0.70434200  0.20481200  0.20481200  1
  Ni  Ni1  1  0.19986800  0.70867900  0.70867900  1
  Ni  Ni2  1  0.20481200  0.70434200  0.20481200  1
  Ni  Ni3  1  0.70867900  0.19986800  0.70867900  1
  Ni  Ni4  1  0.20481200  0.20481200  0.70434200  1
  Ni  Ni5  1  0.70867900  0.70867900  0.19986800  1
  Ni  Ni6  1  0.80013200  0.29132100  0.29132100  1
  Ni  Ni7  1  0.29565800  0.79518800  0.79518800  1
  Ni  Ni8  1  0.29132100  0.80013200  0.29132100  1
  Ni  Ni9  1  0.79518800  0.29565800  0.79518800  1
  Ni  Ni10  1  0.29132100  0.29132100  0.80013200  1
  Ni  Ni11  1  0.79518800  0.79518800  0.29565800  1
  Ni  Ni12  1  0.00000000  0.00000000  0.00000000  1
loop_
_geom_bond_atom_site_label_1
_geom_bond_atom_site_label_2
_geom_bond_distance
_geom_bond_site_symmetry_2
Ta0 Ta4 2.823351 1_555
Ta0 Ta12 2.840893 1_655
Ta0 Ta12 2.840893 1_565
Ta0 Ta12 2.840893 1_556
Ta0 Ta3 2.894410 1_656
Ta0 Ta3 2.894410 1_566
Ta0 Ta3 2.894410 1_665
Ta1 Ta5 2.805360 1_555
Ta1 Ta2 2.890601 1_455
Ta1 Ta2 2.890601 1_545
Ta1 Ta2 2.890602 1_554
Ta2 Ta6 2.805360 1_555
Ta3 Ta7 2.823351 1_555
Ta4 Ta6 2.611558 1_555
Ta4 Ta8 3.116085 1_565
Ta4 Ta8 3.116085 1_655
Ta4 Ta8 3.116085 1_556
Ta5 Ta7 2.611558 1_555
Ta5 Ta9 3.104243 1_454
Ta5 Ta9 3.104243 1_544
Ta5 Ta9 3.104243 1_445
Ta6 Ta8 3.104390 1_565
Ta6 Ta8 3.104390 1_655
Ta6 Ta8 3.104391 1_556
Ta7 Ta9 3.116235 1_454
Ta7 Ta9 3.116235 1_544
Ta7 Ta9 3.116236 1_445
Ta10 Ta6 3.104243 1_544
Ta10 Ta6 3.104243 1_454
Ta10 Ta6 3.104243 1_445
Ta10 Ta4 3.116235 1_454
Ta10 Ta4 3.116235 1_544
Ta10 Ta4 3.116236 1_445
Ta11 Ta5 3.104390 1_565
Ta11 Ta5 3.104390 1_655
Ta11 Ta5 3.104391 1_556
Ta11 Ta7 3.116085 1_655
Ta11 Ta7 3.116085 1_565
Ta11 Ta7 3.116085 1_556
Ta12 Ta3 2.840893 1_565
Ta12 Ta3 2.840893 1_655
Ta12 Ta3 2.840893 1_556
Ni0 Ni2 2.442343 1_555
Ni0 Ni4 2.442343 1_555
Ni0 Ni2 2.446939 1_645
Ni0 Ni4 2.446939 1_654
Ni0 Ni12 2.466679 1_655
Ni0 Ta6 2.678449 1_554
Ni0 Ta6 2.678449 1_545
Ni0 Ta1 2.726182 1_555
Ni0 Ta8 2.771781 1_555
Ni0 Ta10 2.772827 1_655
Ni0 Ta2 2.983872 1_545
Ni0 Ta2 2.983872 1_554
Ni1 Ni3 2.401562 1_465
Ni1 Ni5 2.401562 1_456
Ni1 Ni3 2.487720 1_555
Ni1 Ni5 2.487721 1_555
Ni1 Ta12 2.527616 1_555
Ni1 Ta7 2.666000 1_565
Ni1 Ta7 2.666000 1_556
Ni1 Ta9 2.757362 1_455
Ni1 Ta0 2.771514 1_455
Ni1 Ta11 2.782404 1_555
Ni1 Ta3 3.012403 1_556
Ni1 Ta3 3.012403 1_565
Ni2 Ni4 2.442343 1_555
Ni2 Ni4 2.446939 1_564
Ni2 Ta6 2.678449 1_554
Ni2 Ta6 2.678449 1_455
Ni2 Ta1 2.726182 1_555
Ni2 Ta8 2.771781 1_555
Ni2 Ta10 2.772827 1_565
Ni2 Ta2 2.983872 1_455
Ni2 Ta2 2.983872 1_554
Ni3 Ni5 2.401562 1_546
Ni3 Ni5 2.487721 1_555
Ni3 Ta12 2.527616 1_555
Ni3 Ta7 2.666000 1_655
Ni3 Ta7 2.666000 1_556
Ni3 Ta9 2.757362 1_545
Ni3 Ta0 2.771514 1_545
Ni3 Ta11 2.782404 1_555
Ni3 Ta3 3.012403 1_556
Ni3 Ta3 3.012403 1_655
Ni4 Ta6 2.678449 1_545
Ni4 Ta6 2.678449 1_455
Ni4 Ta1 2.726182 1_555
Ni4 Ta8 2.771781 1_555
Ni4 Ta10 2.772827 1_556
Ni4 Ta2 2.983872 1_455
Ni4 Ta2 2.983872 1_545
Ni5 Ta12 2.527616 1_555
Ni5 Ta7 2.666000 1_655
Ni5 Ta7 2.666000 1_565
Ni5 Ta9 2.757362 1_554
Ni5 Ta0 2.771514 1_554
Ni5 Ta11 2.782404 1_555
Ni5 Ta3 3.012403 1_565
Ni5 Ta3 3.012403 1_655
Ni6 Ni8 2.401562 1_645
Ni6 Ni8 2.487720 1_555
Ni6 Ta12 2.527616 1_555
Ni6 Ta4 2.666000 1_545
Ni6 Ta4 2.666000 1_554
Ni6 Ta10 2.757362 1_655
Ni6 Ta3 2.771514 1_655
Ni6 Ta8 2.782404 1_555
Ni6 Ta0 3.012403 1_554
Ni6 Ta0 3.012403 1_545
Ni7 Ni9 2.442343 1_555
Ni7 Ni9 2.446939 1_465
Ni7 Ta5 2.678449 1_556
Ni7 Ta5 2.678449 1_565
Ni7 Ta2 2.726182 1_555
Ni7 Ta11 2.771781 1_555
Ni7 Ta9 2.772827 1_455
Ni7 Ta1 2.983872 1_565
Ni7 Ta1 2.983872 1_556
Ni8 Ta12 2.527616 1_555
Ni8 Ta4 2.666000 1_455
Ni8 Ta4 2.666000 1_554
Ni8 Ta10 2.757362 1_565
Ni8 Ta3 2.771514 1_565
Ni8 Ta8 2.782404 1_555
Ni8 Ta0 3.012403 1_554
Ni8 Ta0 3.012403 1_455
Ni9 Ta5 2.678449 1_556
Ni9 Ta5 2.678449 1_655
Ni9 Ta2 2.726182 1_555
Ni9 Ta11 2.771781 1_555
Ni9 Ta9 2.772827 1_545
Ni9 Ta1 2.983872 1_655
Ni9 Ta1 2.983872 1_556
Ni10 Ni8 2.401562 1_546
Ni10 Ni6 2.401562 1_456
Ni10 Ni6 2.487721 1_555
Ni10 Ni8 2.487721 1_555
Ni10 Ta12 2.527616 1_555
Ni10 Ta4 2.666000 1_455
Ni10 Ta4 2.666000 1_545
Ni10 Ta10 2.757362 1_556
Ni10 Ta3 2.771514 1_556
Ni10 Ta8 2.782404 1_555
Ni10 Ta0 3.012403 1_455
Ni10 Ta0 3.012403 1_545
Ni11 Ni9 2.442343 1_555
Ni11 Ni7 2.442343 1_555
Ni11 Ni9 2.446939 1_564
Ni11 Ni7 2.446939 1_654
Ni11 Ni12 2.466679 1_665
Ni11 Ta5 2.678449 1_565
Ni11 Ta5 2.678449 1_655
Ni11 Ta2 2.726182 1_555
Ni11 Ta11 2.771781 1_555
Ni11 Ta9 2.772827 1_554
Ni11 Ta1 2.983872 1_565
Ni11 Ta1 2.983872 1_655
Ni12 Ni4 2.466679 1_554
Ni12 Ni2 2.466679 1_545
Ni12 Ni7 2.466679 1_544
Ni12 Ni9 2.466679 1_454
Ni12 Ta2 2.839923 1_544
Ni12 Ta1 2.839923 1_455
Ni12 Ta1 2.839923 1_545
Ni12 Ta2 2.839923 1_454
Ni12 Ta2 2.839924 1_445
Ni12 Ta1 2.839924 1_554
