# generated using pymatgen
data_Li2SeO7
_symmetry_space_group_name_H-M   'P 1'
_cell_length_a   6.71237400
_cell_length_b   6.66600500
_cell_length_c   12.39067700
_cell_angle_alpha   90.00000000
_cell_angle_beta   90.00000000
_cell_angle_gamma   90.00000000
_symmetry_Int_Tables_number   1
_chemical_formula_structural   Li2SeO7
_chemical_formula_sum   'Li8 Se4 O28'
_cell_volume   554.41735620
_cell_formula_units_Z   4
loop_
 _symmetry_equiv_pos_site_id
 _symmetry_equiv_pos_as_xyz
  1  'x, y, z'
loop_
 _atom_site_type_symbol
 _atom_site_label
 _atom_site_symmetry_multiplicity
 _atom_site_fract_x
 _atom_site_fract_y
 _atom_site_fract_z
 _atom_site_occupancy
  Li  Li0  1  0.00887100  0.16897200  0.88923600  1
  Li  Li1  1  0.49112900  0.16897200  0.11076400  1
  Li  Li2  1  0.00887100  0.33102800  0.61076400  1
  Li  Li3  1  0.49112900  0.33102800  0.38923600  1
  Li  Li4  1  0.99112900  0.83102800  0.11076400  1
  Li  Li5  1  0.50887100  0.83102800  0.88923600  1
  Li  Li6  1  0.99112900  0.66897200  0.38923600  1
  Li  Li7  1  0.50887100  0.66897200  0.61076400  1
  Se  Se0  1  0.79139000  0.25000000  0.25000000  1
  Se  Se1  1  0.70861000  0.25000000  0.75000000  1
  Se  Se2  1  0.20861000  0.75000000  0.75000000  1
  Se  Se3  1  0.29139000  0.75000000  0.25000000  1
  O  O0  1  0.26461700  0.96433700  0.09687700  1
  O  O1  1  0.23538300  0.96433700  0.90312300  1
  O  O2  1  0.26461700  0.53566300  0.40312300  1
  O  O3  1  0.23538300  0.53566300  0.59687700  1
  O  O4  1  0.73538300  0.03566300  0.90312300  1
  O  O5  1  0.76461700  0.03566300  0.09687700  1
  O  O6  1  0.73538300  0.46433700  0.59687700  1
  O  O7  1  0.76461700  0.46433700  0.40312300  1
  O  O8  1  0.15763300  0.36697500  0.99808100  1
  O  O9  1  0.34236700  0.36697500  0.00191900  1
  O  O10  1  0.15763300  0.13302500  0.50191900  1
  O  O11  1  0.34236700  0.13302500  0.49808100  1
  O  O12  1  0.84236700  0.63302500  0.00191900  1
  O  O13  1  0.65763300  0.63302500  0.99808100  1
  O  O14  1  0.84236700  0.86697500  0.49808100  1
  O  O15  1  0.65763300  0.86697500  0.50191900  1
  O  O16  1  0.25000000  0.83779800  0.00000000  1
  O  O17  1  0.25000000  0.66220200  0.50000000  1
  O  O18  1  0.75000000  0.16220200  0.00000000  1
  O  O19  1  0.75000000  0.33779800  0.50000000  1
  O  O20  1  0.63469500  0.41207800  0.19125400  1
  O  O21  1  0.86530500  0.41207800  0.80874600  1
  O  O22  1  0.63469500  0.08792200  0.30874600  1
  O  O23  1  0.86530500  0.08792200  0.69125400  1
  O  O24  1  0.36530500  0.58792200  0.80874600  1
  O  O25  1  0.13469500  0.58792200  0.19125400  1
  O  O26  1  0.36530500  0.91207800  0.69125400  1
  O  O27  1  0.13469500  0.91207800  0.30874600  1
loop_
_geom_bond_atom_site_label_1
_geom_bond_atom_site_label_2
_geom_bond_distance
_geom_bond_site_symmetry_2
Li0 O4 2.046773 1_455
Li0 O1 2.049900 1_545
Li0 O21 2.132952 1_455
Li0 O8 2.134969 1_555
Li0 O18 2.214728 1_456
Li1 O5 2.046773 1_555
Li1 O0 2.049900 1_545
Li1 O20 2.132952 1_555
Li1 O9 2.134969 1_555
Li1 O18 2.214728 1_555
Li2 O6 2.046773 1_455
Li2 O3 2.049900 1_555
Li2 O23 2.132952 1_455
Li2 O10 2.134969 1_555
Li2 O19 2.214728 1_455
Li3 O7 2.046773 1_555
Li3 O2 2.049900 1_555
Li3 O22 2.132952 1_555
Li3 O11 2.134969 1_555
Li3 O19 2.214728 1_555
Li4 O0 2.046773 1_655
Li4 O5 2.049900 1_565
Li4 O25 2.132952 1_655
Li4 O12 2.134969 1_555
Li4 O16 2.214728 1_655
Li5 O1 2.046773 1_555
Li5 O4 2.049900 1_565
Li5 O24 2.132952 1_555
Li5 O13 2.134969 1_555
Li5 O16 2.214728 1_556
Li6 O2 2.046773 1_655
Li6 O7 2.049900 1_555
Li6 O27 2.132952 1_655
Li6 O14 2.134969 1_555
Li6 O17 2.214728 1_655
Li7 O3 2.046773 1_555
Li7 O6 2.049900 1_555
Li7 O26 2.132952 1_555
Li7 O15 2.134969 1_555
Li7 O17 2.214728 1_555
O0 O16 1.470383 1_555
O0 Se3 2.381895 1_555
O1 O16 1.470383 1_556
O1 Se2 2.381895 1_555
O2 Se3 2.381895 1_555
O3 Se2 2.381895 1_555
O4 Se1 2.381895 1_555
O5 Se0 2.381895 1_555
O6 Se1 2.381895 1_555
O7 Se0 2.381895 1_555
O8 O9 1.240915 1_556
O10 O11 1.240915 1_555
O12 O13 1.240915 1_554
O14 O15 1.240915 1_555
O17 O2 1.470383 1_555
O17 O3 1.470383 1_555
O18 O5 1.470383 1_555
O18 O4 1.470383 1_554
O19 O6 1.470383 1_555
O19 O7 1.470383 1_555
O20 Se0 1.674338 1_555
O21 Se1 1.674338 1_555
O22 Se0 1.674338 1_555
O23 Se1 1.674338 1_555
O24 Se2 1.674338 1_555
O25 Se3 1.674338 1_555
O26 Se2 1.674338 1_555
O27 Se3 1.674338 1_555
