# generated using pymatgen
data_Sr2B5HO10
_symmetry_space_group_name_H-M   'P 1'
_cell_length_a   8.52703900
_cell_length_b   6.55962200
_cell_length_c   14.37114505
_cell_angle_alpha   85.56538403
_cell_angle_beta   90.00000000
_cell_angle_gamma   90.00000000
_symmetry_Int_Tables_number   1
_chemical_formula_structural   Sr2B5HO10
_chemical_formula_sum   'Sr8 B20 H4 O40'
_cell_volume   801.43130676
_cell_formula_units_Z   4
loop_
 _symmetry_equiv_pos_site_id
 _symmetry_equiv_pos_as_xyz
  1  'x, y, z'
loop_
 _atom_site_type_symbol
 _atom_site_label
 _atom_site_symmetry_multiplicity
 _atom_site_fract_x
 _atom_site_fract_y
 _atom_site_fract_z
 _atom_site_occupancy
  Sr  Sr0  1  0.65810800  0.47871200  0.10947500  1
  Sr  Sr1  1  0.15810800  0.52128800  0.39052500  1
  Sr  Sr2  1  0.34189200  0.52128800  0.89052500  1
  Sr  Sr3  1  0.84189200  0.47871200  0.60947500  1
  Sr  Sr4  1  0.49994900  0.95364000  0.27241500  1
  Sr  Sr5  1  0.99994900  0.04636000  0.22758500  1
  Sr  Sr6  1  0.50005100  0.04636000  0.72758500  1
  Sr  Sr7  1  0.00005100  0.95364000  0.77241500  1
  B  B0  1  0.77446200  0.19582700  0.39313700  1
  B  B1  1  0.27446200  0.80417300  0.10686300  1
  B  B2  1  0.22553800  0.80417300  0.60686300  1
  B  B3  1  0.72553800  0.19582700  0.89313700  1
  B  B4  1  0.34031500  0.46496200  0.18514400  1
  B  B5  1  0.84031500  0.53503800  0.31485600  1
  B  B6  1  0.65968500  0.53503800  0.81485600  1
  B  B7  1  0.15968500  0.46496200  0.68514400  1
  B  B8  1  0.68323300  0.81664200  0.93314500  1
  B  B9  1  0.18323300  0.18335800  0.56685500  1
  B  B10  1  0.31676700  0.18335800  0.06685500  1
  B  B11  1  0.81676700  0.81664200  0.43314500  1
  B  B12  1  0.79666900  0.04100600  0.56150300  1
  B  B13  1  0.29666900  0.95899400  0.93849700  1
  B  B14  1  0.20333100  0.95899400  0.43849700  1
  B  B15  1  0.70333100  0.04100600  0.06150300  1
  B  B16  1  0.55435200  0.42714400  0.32032400  1
  B  B17  1  0.05435200  0.57285600  0.17967600  1
  B  B18  1  0.44564800  0.57285600  0.67967600  1
  B  B19  1  0.94564800  0.42714400  0.82032400  1
  H  H0  1  0.00902600  0.40864600  0.06389900  1
  H  H1  1  0.50902600  0.59135400  0.43610100  1
  H  H2  1  0.99097400  0.59135400  0.93610100  1
  H  H3  1  0.49097400  0.40864600  0.56389900  1
  O  O0  1  0.38580300  0.68065300  0.16491900  1
  O  O1  1  0.88580300  0.31934700  0.33508100  1
  O  O2  1  0.61419700  0.31934700  0.83508100  1
  O  O3  1  0.11419700  0.68065300  0.66491900  1
  O  O4  1  0.95327800  0.43879400  0.12031700  1
  O  O5  1  0.45327800  0.56120600  0.37968300  1
  O  O6  1  0.04672200  0.56120600  0.87968300  1
  O  O7  1  0.54672200  0.43879400  0.62031700  1
  O  O8  1  0.61111400  0.24553500  0.37478800  1
  O  O9  1  0.11111400  0.75446500  0.12521200  1
  O  O10  1  0.38888600  0.75446500  0.62521200  1
  O  O11  1  0.88888600  0.24553500  0.87478800  1
  O  O12  1  0.45466900  0.35538400  0.24545300  1
  O  O13  1  0.95466900  0.64461600  0.25454700  1
  O  O14  1  0.54533100  0.64461600  0.75454700  1
  O  O15  1  0.04533100  0.35538400  0.74545300  1
  O  O16  1  0.64664300  0.62335400  0.91272600  1
  O  O17  1  0.14664300  0.37664600  0.58727400  1
  O  O18  1  0.35335700  0.37664600  0.08727400  1
  O  O19  1  0.85335700  0.62335400  0.41272600  1
  O  O20  1  0.18154500  0.43983200  0.22108200  1
  O  O21  1  0.68154500  0.56016800  0.27891800  1
  O  O22  1  0.81845500  0.56016800  0.77891800  1
  O  O23  1  0.31845500  0.43983200  0.72108200  1
  O  O24  1  0.79934800  0.97632000  0.36713900  1
  O  O25  1  0.29934800  0.02368000  0.13286100  1
  O  O26  1  0.20065200  0.02368000  0.63286100  1
  O  O27  1  0.70065200  0.97632000  0.86713900  1
  O  O28  1  0.71139500  0.06907700  0.15294700  1
  O  O29  1  0.21139500  0.93092300  0.34705300  1
  O  O30  1  0.28860500  0.93092300  0.84705300  1
  O  O31  1  0.78860500  0.06907700  0.65294700  1
  O  O32  1  0.81146300  0.20368300  0.49475000  1
  O  O33  1  0.31146300  0.79631700  0.00525000  1
  O  O34  1  0.18853700  0.79631700  0.50525000  1
  O  O35  1  0.68853700  0.20368300  0.99475000  1
  O  O36  1  0.70438600  0.84176200  0.02849900  1
  O  O37  1  0.20438600  0.15823800  0.47150100  1
  O  O38  1  0.29561400  0.15823800  0.97150100  1
  O  O39  1  0.79561400  0.84176200  0.52849900  1
loop_
_geom_bond_atom_site_label_1
_geom_bond_atom_site_label_2
_geom_bond_distance
_geom_bond_site_symmetry_2
B0 O8 1.450055 1_555
B0 O1 1.466097 1_555
B0 O32 1.498766 1_555
B0 O24 1.530059 1_545
B1 O9 1.450055 1_555
B1 O0 1.466097 1_555
B1 O33 1.498766 1_555
B1 O25 1.530059 1_565
B2 O10 1.450055 1_555
B2 O3 1.466097 1_555
B2 O34 1.498766 1_555
B2 O26 1.530059 1_565
B3 O11 1.450055 1_555
B3 O2 1.466097 1_555
B3 O35 1.498766 1_555
B3 O27 1.530059 1_545
B4 O20 1.453832 1_555
B4 O12 1.456821 1_555
B4 O0 1.474158 1_555
B4 O18 1.565962 1_555
B5 O21 1.453832 1_555
B5 O13 1.456821 1_555
B5 O1 1.474158 1_555
B5 O19 1.565962 1_555
B6 O22 1.453832 1_555
B6 O14 1.456821 1_555
B6 O2 1.474158 1_555
B6 O16 1.565962 1_555
B7 O23 1.453832 1_555
B7 O15 1.456821 1_555
B7 O3 1.474158 1_555
B7 O17 1.565962 1_555
B8 O16 1.359615 1_555
B8 O27 1.365769 1_555
B8 O36 1.404441 1_556
B9 O17 1.359615 1_555
B9 O26 1.365769 1_555
B9 O37 1.404441 1_555
B10 O18 1.359615 1_555
B10 O25 1.365769 1_555
B10 O38 1.404441 1_554
B11 O19 1.359615 1_555
B11 O24 1.365769 1_555
B11 O39 1.404441 1_555
B12 O31 1.342780 1_555
B12 O32 1.384413 1_555
B12 O39 1.424454 1_545
B13 O30 1.342780 1_555
B13 O33 1.384413 1_556
B13 O38 1.424454 1_565
B14 O29 1.342780 1_555
B14 O34 1.384413 1_555
B14 O37 1.424454 1_565
B15 O28 1.342780 1_555
B15 O35 1.384413 1_554
B15 O36 1.424454 1_545
B16 O8 1.456665 1_555
B16 O12 1.476529 1_555
B16 O21 1.487115 1_555
B16 O5 1.536183 1_555
B17 O9 1.456665 1_555
B17 O13 1.476529 1_455
B17 O20 1.487115 1_555
B17 O4 1.536183 1_455
B18 O10 1.456665 1_555
B18 O14 1.476529 1_555
B18 O23 1.487115 1_555
B18 O7 1.536183 1_555
B19 O11 1.456665 1_555
B19 O15 1.476529 1_655
B19 O22 1.487115 1_555
B19 O6 1.536183 1_655
H0 O4 0.973272 1_455
H1 O5 0.973272 1_555
H2 O6 0.973272 1_655
H3 O7 0.973272 1_555
O0 Sr4 2.639748 1_555
O0 Sr0 2.818562 1_555
O1 Sr5 2.639748 1_555
O1 Sr1 2.818562 1_655
O2 Sr6 2.639748 1_555
O2 Sr2 2.818562 1_555
O3 Sr7 2.639748 1_555
O3 Sr3 2.818562 1_455
O4 Sr0 2.534058 1_555
O4 Sr5 2.923649 1_555
O5 Sr1 2.534058 1_555
O5 Sr4 2.923649 1_555
O6 Sr2 2.534058 1_555
O6 Sr7 2.923649 1_555
O7 Sr3 2.534058 1_555
O7 Sr6 2.923649 1_555
O8 Sr4 2.676713 1_545
O9 Sr5 2.676713 1_465
O10 Sr6 2.676713 1_565
O11 Sr7 2.676713 1_645
O12 Sr4 2.661964 1_545
O12 Sr0 2.690357 1_555
O13 Sr5 2.661964 1_565
O13 Sr1 2.690357 1_655
O14 Sr6 2.661964 1_565
O14 Sr2 2.690357 1_555
O15 Sr7 2.661964 1_545
O15 Sr3 2.690357 1_455
O16 Sr2 2.708491 1_555
O16 Sr0 2.913711 1_556
O17 Sr3 2.708491 1_455
O17 Sr1 2.913711 1_555
O18 Sr0 2.708491 1_555
O18 Sr2 2.913711 1_554
O19 Sr1 2.708491 1_655
O19 Sr3 2.913711 1_555
O20 Sr1 2.540927 1_555
O20 Sr5 3.005148 1_455
O21 Sr0 2.540927 1_555
O21 Sr4 3.005148 1_555
O22 Sr3 2.540927 1_555
O22 Sr7 3.005148 1_655
O23 Sr2 2.540927 1_555
O23 Sr6 3.005148 1_555
O24 Sr5 2.648914 1_565
O24 Sr4 2.902466 1_555
O25 Sr4 2.648914 1_545
O25 Sr5 2.902466 1_455
O26 Sr7 2.648914 1_545
O26 Sr6 2.902466 1_555
O27 Sr6 2.648914 1_565
O27 Sr7 2.902466 1_655
O28 Sr4 2.563376 1_545
O28 Sr5 2.683681 1_555
O28 Sr0 2.749074 1_555
O29 Sr5 2.563376 1_465
O29 Sr4 2.683681 1_555
O29 Sr1 2.749074 1_555
O30 Sr6 2.563376 1_565
O30 Sr7 2.683681 1_555
O30 Sr2 2.749074 1_555
O31 Sr7 2.563376 1_645
O31 Sr6 2.683681 1_555
O31 Sr3 2.749074 1_555
O32 Sr3 2.549576 1_555
O33 Sr2 2.549576 1_554
O34 Sr1 2.549576 1_555
O35 Sr0 2.549576 1_556
O36 Sr0 2.598613 1_555
O37 Sr1 2.598613 1_555
O38 Sr2 2.598613 1_555
O39 Sr3 2.598613 1_555
