# generated using pymatgen
data_CsV3(TeO6)2
_symmetry_space_group_name_H-M   'P 1'
_cell_length_a   7.27519056
_cell_length_b   7.27519056
_cell_length_c   11.86958100
_cell_angle_alpha   90.00000000
_cell_angle_beta   90.00000000
_cell_angle_gamma   120.00000506
_symmetry_Int_Tables_number   1
_chemical_formula_structural   CsV3(TeO6)2
_chemical_formula_sum   'Cs2 V6 Te4 O24'
_cell_volume   544.06995580
_cell_formula_units_Z   2
loop_
 _symmetry_equiv_pos_site_id
 _symmetry_equiv_pos_as_xyz
  1  'x, y, z'
loop_
 _atom_site_type_symbol
 _atom_site_label
 _atom_site_symmetry_multiplicity
 _atom_site_fract_x
 _atom_site_fract_y
 _atom_site_fract_z
 _atom_site_occupancy
  Cs  Cs0  1  0.66666700  0.33333300  0.51428500  1
  Cs  Cs1  1  0.33333300  0.66666700  0.01428500  1
  V  V0  1  0.87018900  0.20420500  0.83524200  1
  V  V1  1  0.79579500  0.66598400  0.83524200  1
  V  V2  1  0.66598400  0.87018900  0.33524200  1
  V  V3  1  0.33401600  0.12981100  0.83524200  1
  V  V4  1  0.20420500  0.33401600  0.33524200  1
  V  V5  1  0.12981100  0.79579500  0.33524200  1
  Te  Te0  1  0.33333300  0.66666700  0.57452500  1
  Te  Te1  1  0.66666700  0.33333300  0.07452500  1
  Te  Te2  1  0.00000000  0.00000000  0.60171400  1
  Te  Te3  1  0.00000000  0.00000000  0.10171400  1
  O  O0  1  0.18820600  0.40043100  0.50007600  1
  O  O1  1  0.12953200  0.88218200  0.86711600  1
  O  O2  1  0.85661600  0.12088100  0.68187400  1
  O  O3  1  0.91493900  0.45465400  0.81450700  1
  O  O4  1  0.87911900  0.73573600  0.68187400  1
  O  O5  1  0.81179400  0.59956900  0.00007600  1
  O  O6  1  0.40043100  0.21222600  0.00007600  1
  O  O7  1  0.21222600  0.81179400  0.50007600  1
  O  O8  1  0.78777400  0.18820600  0.00007600  1
  O  O9  1  0.11781800  0.24735000  0.86711600  1
  O  O10  1  0.08506100  0.54534600  0.31450700  1
  O  O11  1  0.54534600  0.46028500  0.81450700  1
  O  O12  1  0.75265000  0.87046800  0.86711600  1
  O  O13  1  0.24735000  0.12953200  0.36711600  1
  O  O14  1  0.45465400  0.53971500  0.31450700  1
  O  O15  1  0.88218200  0.75265000  0.36711600  1
  O  O16  1  0.53971500  0.08506100  0.81450700  1
  O  O17  1  0.46028500  0.91493900  0.31450700  1
  O  O18  1  0.14338400  0.87911900  0.18187400  1
  O  O19  1  0.73573600  0.85661600  0.18187400  1
  O  O20  1  0.26426400  0.14338400  0.68187400  1
  O  O21  1  0.59956900  0.78777400  0.50007600  1
  O  O22  1  0.12088100  0.26426400  0.18187400  1
  O  O23  1  0.87046800  0.11781800  0.36711600  1
loop_
_geom_bond_atom_site_label_1
_geom_bond_atom_site_label_2
_geom_bond_distance
_geom_bond_site_symmetry_2
Cs0 O23 3.167473 1_555
Cs0 O15 3.167478 1_555
Cs0 O13 3.167478 1_555
Cs0 O2 3.223592 1_555
Cs0 O4 3.223602 1_555
Cs0 O20 3.223602 1_555
Cs1 O1 3.167473 1_554
Cs1 O9 3.167478 1_554
Cs1 O12 3.167478 1_554
Cs1 O18 3.223592 1_555
Cs1 O22 3.223602 1_555
Cs1 O19 3.223602 1_555
O0 Te0 1.897961 1_555
O0 V4 2.032532 1_555
O1 V3 1.709313 1_565
O1 V1 2.166407 1_455
O2 V0 1.905590 1_555
O2 Te2 1.919432 1_655
O3 V0 1.700965 1_555
O3 V1 2.123294 1_555
O4 V1 1.905591 1_555
O4 Te2 1.919426 1_665
O5 Te1 1.897961 1_555
O5 V1 2.032532 1_554
O6 Te1 1.897962 1_555
O6 V3 2.032533 1_554
O7 Te0 1.897951 1_555
O7 V5 2.032534 1_555
O8 Te1 1.897951 1_555
O8 V0 2.032534 1_554
O9 V0 1.709313 1_455
O9 V3 2.166407 1_555
O10 V5 1.700965 1_555
O10 V4 2.123294 1_555
O11 V1 1.700965 1_555
O11 V3 2.123294 1_555
O12 V1 1.709313 1_555
O12 V0 2.166407 1_565
O13 V4 1.709313 1_555
O13 V5 2.166407 1_545
O14 V4 1.700965 1_555
O14 V2 2.123294 1_555
O15 V5 1.709313 1_655
O15 V2 2.166407 1_555
O16 V3 1.700965 1_555
O16 V0 2.123294 1_555
O17 V2 1.700965 1_555
O17 V5 2.123294 1_555
O18 V5 1.905590 1_555
O18 Te3 1.919432 1_565
O19 V2 1.905592 1_555
O19 Te3 1.919426 1_665
O20 V3 1.905592 1_555
O20 Te2 1.919426 1_555
O21 Te0 1.897962 1_555
O21 V2 2.032533 1_555
O22 V4 1.905591 1_555
O22 Te3 1.919426 1_555
O23 V2 1.709313 1_545
O23 V4 2.166407 1_655
