# generated using pymatgen
data_KEu3
_symmetry_space_group_name_H-M   'P 1'
_cell_length_a   5.88504000
_cell_length_b   5.88504000
_cell_length_c   5.88504000
_cell_angle_alpha   90.00000000
_cell_angle_beta   90.00000000
_cell_angle_gamma   90.00000000
_symmetry_Int_Tables_number   1
_chemical_formula_structural   KEu3
_chemical_formula_sum   'K1 Eu3'
_cell_volume   203.82068514
_cell_formula_units_Z   1
loop_
 _symmetry_equiv_pos_site_id
 _symmetry_equiv_pos_as_xyz
  1  'x, y, z'
loop_
 _atom_site_type_symbol
 _atom_site_label
 _atom_site_symmetry_multiplicity
 _atom_site_fract_x
 _atom_site_fract_y
 _atom_site_fract_z
 _atom_site_occupancy
  K  K0  1  0.00000000  0.00000000  0.00000000  1
  Eu  Eu0  1  0.00000000  0.50000000  0.50000000  1
  Eu  Eu1  1  0.50000000  0.00000000  0.50000000  1
  Eu  Eu2  1  0.50000000  0.50000000  0.00000000  1
loop_
_geom_bond_atom_site_label_1
_geom_bond_atom_site_label_2
_geom_bond_distance
_geom_bond_site_symmetry_2
Eu0 K0 4.161352 1_556
Eu0 Eu2 4.161352 1_456
Eu0 Eu2 4.161352 1_555
Eu0 Eu2 4.161352 1_556
Eu0 Eu1 4.161352 1_565
Eu0 Eu1 4.161352 1_455
Eu0 K0 4.161352 1_566
Eu0 Eu2 4.161352 1_455
Eu0 K0 4.161352 1_555
Eu0 Eu1 4.161352 1_465
Eu0 Eu1 4.161352 1_555
Eu0 K0 4.161352 1_565
Eu1 K0 4.161352 1_655
Eu1 K0 4.161352 1_656
Eu1 Eu2 4.161352 1_545
Eu1 Eu2 4.161352 1_555
Eu1 Eu2 4.161352 1_556
Eu1 Eu2 4.161352 1_546
Eu1 K0 4.161352 1_555
Eu1 K0 4.161352 1_556
Eu2 K0 4.161352 1_655
Eu2 K0 4.161352 1_665
Eu2 K0 4.161352 1_555
Eu2 K0 4.161352 1_565
