# generated using pymatgen
data_Tm2MgS4
_symmetry_space_group_name_H-M   'P 1'
_cell_length_a   12.49870000
_cell_length_b   7.45255200
_cell_length_c   12.69488900
_cell_angle_alpha   90.00000000
_cell_angle_beta   90.00000000
_cell_angle_gamma   90.00000000
_symmetry_Int_Tables_number   1
_chemical_formula_structural   Tm2MgS4
_chemical_formula_sum   'Tm16 Mg8 S32'
_cell_volume   1182.49351297
_cell_formula_units_Z   8
loop_
 _symmetry_equiv_pos_site_id
 _symmetry_equiv_pos_as_xyz
  1  'x, y, z'
loop_
 _atom_site_type_symbol
 _atom_site_label
 _atom_site_symmetry_multiplicity
 _atom_site_fract_x
 _atom_site_fract_y
 _atom_site_fract_z
 _atom_site_occupancy
  Tm  Tm0  1  0.10915000  0.88251500  0.68593400  1
  Tm  Tm1  1  0.89085000  0.11748500  0.18593400  1
  Tm  Tm2  1  0.39085000  0.88251500  0.18593400  1
  Tm  Tm3  1  0.60915000  0.11748500  0.68593400  1
  Tm  Tm4  1  0.12797000  0.38131800  0.32633400  1
  Tm  Tm5  1  0.87203000  0.61868200  0.82633400  1
  Tm  Tm6  1  0.37203000  0.38131800  0.82633400  1
  Tm  Tm7  1  0.62797000  0.61868200  0.32633400  1
  Tm  Tm8  1  0.13356900  0.62901800  0.99152000  1
  Tm  Tm9  1  0.86643100  0.37098200  0.49152000  1
  Tm  Tm10  1  0.36643100  0.62901800  0.49152000  1
  Tm  Tm11  1  0.63356900  0.37098200  0.99152000  1
  Tm  Tm12  1  0.13366600  0.12912500  0.99059600  1
  Tm  Tm13  1  0.86633400  0.87087500  0.49059600  1
  Tm  Tm14  1  0.36633400  0.12912500  0.49059600  1
  Tm  Tm15  1  0.63366600  0.87087500  0.99059600  1
  Mg  Mg0  1  0.11001700  0.38080300  0.68997800  1
  Mg  Mg1  1  0.88998300  0.61919700  0.18997800  1
  Mg  Mg2  1  0.38998300  0.38080300  0.18997800  1
  Mg  Mg3  1  0.61001700  0.61919700  0.68997800  1
  Mg  Mg4  1  0.12608300  0.87805100  0.32188900  1
  Mg  Mg5  1  0.87391700  0.12194900  0.82188900  1
  Mg  Mg6  1  0.37391700  0.87805100  0.82188900  1
  Mg  Mg7  1  0.62608300  0.12194900  0.32188900  1
  S  S0  1  0.01354600  0.87678800  0.87706200  1
  S  S1  1  0.98645400  0.12321200  0.37706200  1
  S  S2  1  0.48645400  0.87678800  0.37706200  1
  S  S3  1  0.51354600  0.12321200  0.87706200  1
  S  S4  1  0.03368200  0.37618100  0.13114000  1
  S  S5  1  0.96631800  0.62381900  0.63114000  1
  S  S6  1  0.46631800  0.37618100  0.63114000  1
  S  S7  1  0.53368200  0.62381900  0.13114000  1
  S  S8  1  0.02083100  0.37435400  0.87038900  1
  S  S9  1  0.97916900  0.62564600  0.37038900  1
  S  S10  1  0.47916900  0.37435400  0.37038900  1
  S  S11  1  0.52083100  0.62564600  0.87038900  1
  S  S12  1  0.04135400  0.87385500  0.13634200  1
  S  S13  1  0.95864600  0.12614500  0.63634200  1
  S  S14  1  0.45864600  0.87385500  0.63634200  1
  S  S15  1  0.54135400  0.12614500  0.13634200  1
  S  S16  1  0.21342300  0.87984700  0.50394600  1
  S  S17  1  0.78657700  0.12015300  0.00394600  1
  S  S18  1  0.28657700  0.87984700  0.00394600  1
  S  S19  1  0.71342300  0.12015300  0.50394600  1
  S  S20  1  0.21397800  0.37965900  0.51794700  1
  S  S21  1  0.78602200  0.62034100  0.01794700  1
  S  S22  1  0.28602200  0.37965900  0.01794700  1
  S  S23  1  0.71397800  0.62034100  0.51794700  1
  S  S24  1  0.23152800  0.12949400  0.77666400  1
  S  S25  1  0.76847200  0.87050600  0.27666400  1
  S  S26  1  0.26847200  0.12949400  0.27666400  1
  S  S27  1  0.73152800  0.87050600  0.77666400  1
  S  S28  1  0.23192400  0.63222200  0.77726000  1
  S  S29  1  0.76807600  0.36777800  0.27726000  1
  S  S30  1  0.26807600  0.63222200  0.27726000  1
  S  S31  1  0.73192400  0.36777800  0.77726000  1
loop_
_geom_bond_atom_site_label_1
_geom_bond_atom_site_label_2
_geom_bond_distance
_geom_bond_site_symmetry_2
Mg0 S20 2.541247 1_555
Mg0 S8 2.547616 1_555
Mg0 S24 2.650529 1_555
Mg0 S28 2.657093 1_555
Mg0 S5 2.657774 1_455
Mg0 S13 2.764943 1_455
Mg1 S21 2.541247 1_555
Mg1 S9 2.547616 1_555
Mg1 S25 2.650529 1_555
Mg1 S29 2.657093 1_555
Mg1 S4 2.657774 1_655
Mg1 S12 2.764943 1_655
Mg2 S22 2.541247 1_555
Mg2 S10 2.547616 1_555
Mg2 S26 2.650529 1_555
Mg2 S30 2.657093 1_555
Mg2 S7 2.657774 1_555
Mg2 S15 2.764943 1_555
Mg3 S23 2.541247 1_555
Mg3 S11 2.547616 1_555
Mg3 S27 2.650529 1_555
Mg3 S31 2.657093 1_555
Mg3 S6 2.657774 1_555
Mg3 S14 2.764943 1_555
Mg4 S16 2.556064 1_555
Mg4 S12 2.582796 1_555
Mg4 S30 2.612866 1_555
Mg4 S1 2.621916 1_465
Mg4 S26 2.647328 1_565
Mg4 S9 2.699859 1_455
Mg5 S17 2.556064 1_556
Mg5 S13 2.582796 1_555
Mg5 S31 2.612866 1_555
Mg5 S0 2.621916 1_645
Mg5 S27 2.647328 1_545
Mg5 S8 2.699859 1_655
Mg6 S18 2.556064 1_556
Mg6 S14 2.582796 1_555
Mg6 S28 2.612866 1_555
Mg6 S3 2.621916 1_565
Mg6 S24 2.647328 1_565
Mg6 S11 2.699859 1_555
Mg7 S19 2.556064 1_555
Mg7 S15 2.582796 1_555
Mg7 S29 2.612866 1_555
Mg7 S2 2.621916 1_545
Mg7 S25 2.647328 1_545
Mg7 S10 2.699859 1_555
S0 Tm5 2.691336 1_455
S0 Tm0 2.704965 1_555
S0 Tm8 2.787710 1_555
S0 Tm12 2.804972 1_565
S1 Tm4 2.691336 1_655
S1 Tm1 2.704965 1_555
S1 Tm9 2.787710 1_555
S1 Tm13 2.804972 1_545
S2 Tm7 2.691336 1_555
S2 Tm2 2.704965 1_555
S2 Tm10 2.787710 1_555
S2 Tm14 2.804972 1_565
S3 Tm6 2.691336 1_555
S3 Tm3 2.704965 1_555
S3 Tm11 2.787710 1_555
S3 Tm15 2.804972 1_545
S4 Tm1 2.718056 1_455
S4 Tm4 2.744192 1_555
S4 Tm12 2.852196 1_554
S4 Tm8 2.872417 1_554
S5 Tm0 2.718056 1_655
S5 Tm5 2.744192 1_555
S5 Tm13 2.852196 1_555
S5 Tm9 2.872417 1_555
S6 Tm3 2.718056 1_555
S6 Tm6 2.744192 1_555
S6 Tm14 2.852196 1_555
S6 Tm10 2.872417 1_555
S7 Tm2 2.718056 1_555
S7 Tm7 2.744192 1_555
S7 Tm15 2.852196 1_554
S7 Tm11 2.872417 1_554
S8 Tm5 2.662193 1_455
S8 Tm12 2.767254 1_555
S8 Tm8 2.819960 1_555
S9 Tm4 2.662193 1_655
S9 Tm13 2.767254 1_555
S9 Tm9 2.819960 1_555
S10 Tm7 2.662193 1_555
S10 Tm14 2.767254 1_555
S10 Tm10 2.819960 1_555
S11 Tm6 2.662193 1_555
S11 Tm15 2.767254 1_555
S11 Tm11 2.819960 1_555
S12 Tm1 2.689153 1_465
S12 Tm8 2.835115 1_554
S12 Tm12 2.893740 1_564
S13 Tm0 2.689153 1_645
S13 Tm9 2.835115 1_555
S13 Tm13 2.893740 1_545
S14 Tm3 2.689153 1_565
S14 Tm10 2.835115 1_555
S14 Tm14 2.893740 1_565
S15 Tm2 2.689153 1_545
S15 Tm11 2.835115 1_554
S15 Tm15 2.893740 1_544
S16 Tm0 2.652639 1_555
S16 Tm14 2.670698 1_565
S16 Tm10 2.678900 1_555
S17 Tm1 2.652639 1_555
S17 Tm15 2.670698 1_544
S17 Tm11 2.678900 1_554
S18 Tm2 2.652639 1_555
S18 Tm12 2.670698 1_564
S18 Tm8 2.678900 1_554
S19 Tm3 2.652639 1_555
S19 Tm13 2.670698 1_545
S19 Tm9 2.678900 1_555
S20 Tm4 2.659481 1_555
S20 Tm10 2.682695 1_555
S20 Tm14 2.689398 1_555
S21 Tm5 2.659481 1_554
S21 Tm11 2.682695 1_554
S21 Tm15 2.689398 1_554
S22 Tm6 2.659481 1_554
S22 Tm8 2.682695 1_554
S22 Tm12 2.689398 1_554
S23 Tm7 2.659481 1_555
S23 Tm9 2.682695 1_555
S23 Tm13 2.689398 1_555
S24 Tm6 2.646428 1_555
S24 Tm0 2.655961 1_545
S24 Tm12 2.978574 1_555
S25 Tm7 2.646428 1_555
S25 Tm1 2.655961 1_565
S25 Tm13 2.978574 1_555
S26 Tm4 2.646428 1_555
S26 Tm2 2.655961 1_545
S26 Tm14 2.978574 1_555
S27 Tm5 2.646428 1_555
S27 Tm3 2.655961 1_565
S27 Tm15 2.978574 1_555
S28 Tm6 2.636484 1_555
S28 Tm0 2.679237 1_555
S28 Tm8 2.984997 1_555
S29 Tm7 2.636484 1_555
S29 Tm1 2.679237 1_555
S29 Tm9 2.984997 1_555
S30 Tm4 2.636484 1_555
S30 Tm2 2.679237 1_555
S30 Tm10 2.984997 1_555
S31 Tm5 2.636484 1_555
S31 Tm3 2.679237 1_555
S31 Tm11 2.984997 1_555
