# generated using pymatgen
data_Hg3BI2(OF2)2
_symmetry_space_group_name_H-M   'P 1'
_cell_length_a   13.44278400
_cell_length_b   7.66661200
_cell_length_c   12.70652982
_cell_angle_alpha   55.51658634
_cell_angle_beta   90.00000000
_cell_angle_gamma   90.00000000
_symmetry_Int_Tables_number   1
_chemical_formula_structural   Hg3BI2(OF2)2
_chemical_formula_sum   'Hg12 B4 I8 O8 F16'
_cell_volume   1079.44311294
_cell_formula_units_Z   4
loop_
 _symmetry_equiv_pos_site_id
 _symmetry_equiv_pos_as_xyz
  1  'x, y, z'
loop_
 _atom_site_type_symbol
 _atom_site_label
 _atom_site_symmetry_multiplicity
 _atom_site_fract_x
 _atom_site_fract_y
 _atom_site_fract_z
 _atom_site_occupancy
  Hg  Hg0  1  0.69050800  0.22773500  0.23364400  1
  Hg  Hg1  1  0.30949200  0.77226500  0.76635600  1
  Hg  Hg2  1  0.19050800  0.77226500  0.26635600  1
  Hg  Hg3  1  0.80949200  0.22773500  0.73364400  1
  Hg  Hg4  1  0.69141600  0.44533900  0.43050700  1
  Hg  Hg5  1  0.30858400  0.55466100  0.56949300  1
  Hg  Hg6  1  0.19141600  0.55466100  0.06949300  1
  Hg  Hg7  1  0.80858400  0.44533900  0.93050700  1
  Hg  Hg8  1  0.67511600  0.97805800  0.04073900  1
  Hg  Hg9  1  0.32488400  0.02194200  0.95926100  1
  Hg  Hg10  1  0.17511600  0.02194200  0.45926100  1
  Hg  Hg11  1  0.82488400  0.97805800  0.54073900  1
  B  B0  1  0.89640900  0.85462800  0.26147400  1
  B  B1  1  0.10359100  0.14537200  0.73852600  1
  B  B2  1  0.39640900  0.14537200  0.23852600  1
  B  B3  1  0.60359100  0.85462800  0.76147400  1
  I  I0  1  0.86048800  0.69252700  0.00697900  1
  I  I1  1  0.13951200  0.30747300  0.99302100  1
  I  I2  1  0.36048800  0.30747300  0.49302100  1
  I  I3  1  0.63951200  0.69252700  0.50697900  1
  I  I4  1  0.55175700  0.65791000  0.18658600  1
  I  I5  1  0.44824300  0.34209000  0.81341400  1
  I  I6  1  0.05175700  0.34209000  0.31341400  1
  I  I7  1  0.94824300  0.65791000  0.68658600  1
  O  O0  1  0.21352900  0.80504100  0.09588300  1
  O  O1  1  0.78647100  0.19495900  0.90411700  1
  O  O2  1  0.71352900  0.19495900  0.40411700  1
  O  O3  1  0.28647100  0.80504100  0.59588300  1
  O  O4  1  0.67621700  0.26324100  0.06383900  1
  O  O5  1  0.32378300  0.73675900  0.93616100  1
  O  O6  1  0.17621700  0.73675900  0.43616100  1
  O  O7  1  0.82378300  0.26324100  0.56383900  1
  F  F0  1  0.80436500  0.77748000  0.24008700  1
  F  F1  1  0.19563500  0.22252000  0.75991300  1
  F  F2  1  0.30436500  0.22252000  0.25991300  1
  F  F3  1  0.69563500  0.77748000  0.74008700  1
  F  F4  1  0.96816400  0.87078600  0.17519100  1
  F  F5  1  0.03183600  0.12921400  0.82480900  1
  F  F6  1  0.46816400  0.12921400  0.32480900  1
  F  F7  1  0.53183600  0.87078600  0.67519100  1
  F  F8  1  0.92521700  0.71594200  0.38735700  1
  F  F9  1  0.07478300  0.28405800  0.61264300  1
  F  F10  1  0.42521700  0.28405800  0.11264300  1
  F  F11  1  0.57478300  0.71594200  0.88735700  1
  F  F12  1  0.37663400  0.94137900  0.26498600  1
  F  F13  1  0.62336600  0.05862100  0.73501400  1
  F  F14  1  0.87663400  0.05862100  0.23501400  1
  F  F15  1  0.12336600  0.94137900  0.76498600  1
loop_
_geom_bond_atom_site_label_1
_geom_bond_atom_site_label_2
_geom_bond_distance
_geom_bond_site_symmetry_2
Hg0 O4 2.025173 1_555
Hg0 O2 2.057827 1_555
Hg1 O5 2.025173 1_555
Hg1 O3 2.057827 1_555
Hg2 O6 2.025173 1_555
Hg2 O0 2.057827 1_555
Hg3 O7 2.025173 1_555
Hg3 O1 2.057827 1_555
Hg4 O2 2.148116 1_555
Hg4 O7 2.303753 1_555
Hg4 I3 2.665998 1_555
Hg4 I4 3.172898 1_555
Hg5 O3 2.148116 1_555
Hg5 O6 2.303753 1_555
Hg5 I2 2.665998 1_555
Hg5 I5 3.172898 1_555
Hg6 O0 2.148116 1_555
Hg6 O5 2.303753 1_554
Hg6 I1 2.665998 1_554
Hg6 I6 3.172898 1_555
Hg7 O1 2.148116 1_555
Hg7 O4 2.303753 1_556
Hg7 I0 2.665998 1_556
Hg7 I7 3.172898 1_555
Hg8 O1 2.179648 1_564
Hg8 O4 2.365024 1_565
Hg8 I4 2.656705 1_555
Hg9 O0 2.179648 1_546
Hg9 O5 2.365024 1_545
Hg9 I5 2.656705 1_555
Hg10 O3 2.179648 1_545
Hg10 O6 2.365024 1_545
Hg10 I6 2.656705 1_555
Hg11 O2 2.179648 1_565
Hg11 O7 2.365024 1_565
Hg11 I7 2.656705 1_555
B0 F8 1.383191 1_555
B0 F4 1.412086 1_555
B0 F14 1.426253 1_565
B0 F0 1.461733 1_555
B1 F9 1.383191 1_555
B1 F5 1.412086 1_555
B1 F15 1.426253 1_545
B1 F1 1.461733 1_555
B2 F10 1.383191 1_555
B2 F6 1.412086 1_555
B2 F12 1.426253 1_545
B2 F2 1.461733 1_555
B3 F11 1.383191 1_555
B3 F7 1.412086 1_555
B3 F13 1.426253 1_565
B3 F3 1.461733 1_555
