# generated using pymatgen
data_MgNiO2
_symmetry_space_group_name_H-M   'P 1'
_cell_length_a   2.93392000
_cell_length_b   8.14376622
_cell_length_c   8.14838668
_cell_angle_alpha   86.89436068
_cell_angle_beta   79.66726339
_cell_angle_gamma   79.83578150
_symmetry_Int_Tables_number   1
_chemical_formula_structural   MgNiO2
_chemical_formula_sum   'Mg4 Ni4 O8'
_cell_volume   188.47640730
_cell_formula_units_Z   4
loop_
 _symmetry_equiv_pos_site_id
 _symmetry_equiv_pos_as_xyz
  1  'x, y, z'
loop_
 _atom_site_type_symbol
 _atom_site_label
 _atom_site_symmetry_multiplicity
 _atom_site_fract_x
 _atom_site_fract_y
 _atom_site_fract_z
 _atom_site_occupancy
  Mg  Mg0  1  0.57297800  0.59337100  0.25371900  1
  Mg  Mg1  1  0.42702200  0.40662900  0.74628100  1
  Mg  Mg2  1  0.19522700  0.22910200  0.39062300  1
  Mg  Mg3  1  0.80477300  0.77089800  0.60937700  1
  Ni  Ni0  1  0.18101700  0.72487100  0.91423900  1
  Ni  Ni1  1  0.41152500  0.91261400  0.26403900  1
  Ni  Ni2  1  0.58847500  0.08738600  0.73596100  1
  Ni  Ni3  1  0.81898300  0.27512900  0.08576100  1
  O  O0  1  0.42496000  0.23289400  0.93243000  1
  O  O1  1  0.19948300  0.90216800  0.71394000  1
  O  O2  1  0.80051700  0.09783200  0.28606000  1
  O  O3  1  0.57504000  0.76710600  0.06757000  1
  O  O4  1  0.82977100  0.58191600  0.77003300  1
  O  O5  1  0.94179800  0.74547900  0.37028500  1
  O  O6  1  0.17022900  0.41808400  0.22996700  1
  O  O7  1  0.05820200  0.25452100  0.62971500  1
loop_
_geom_bond_atom_site_label_1
_geom_bond_atom_site_label_2
_geom_bond_distance
_geom_bond_site_symmetry_2
Mg0 O3 2.017368 1_555
Mg0 O6 2.042340 1_655
Mg0 O6 2.044203 1_555
Mg0 O5 2.133729 1_455
Mg0 O5 2.139349 1_555
Mg1 O0 2.017368 1_555
Mg1 O4 2.042340 1_455
Mg1 O4 2.044203 1_555
Mg1 O7 2.133729 1_655
Mg1 O7 2.139349 1_555
Mg2 O7 1.932194 1_555
Mg2 O6 1.965703 1_555
Mg2 O2 1.976956 1_555
Mg2 O2 2.024703 1_455
Mg3 O5 1.932194 1_555
Mg3 O4 1.965703 1_555
Mg3 O1 1.976956 1_555
Mg3 O1 2.024703 1_655
Ni0 O3 1.928922 1_556
Ni0 O3 1.968270 1_456
Ni0 O1 2.119439 1_555
Ni0 O4 2.191829 1_455
Ni0 O4 2.218738 1_555
Ni1 O3 1.981574 1_555
Ni1 O2 2.078520 1_565
Ni1 O2 2.116735 1_465
Ni1 O5 2.146567 1_455
Ni1 O5 2.151898 1_555
Ni2 O0 1.981574 1_555
Ni2 O1 2.078520 1_545
Ni2 O1 2.116735 1_645
Ni2 O7 2.146567 1_655
Ni2 O7 2.151898 1_555
Ni3 O0 1.928922 1_554
Ni3 O0 1.968270 1_654
Ni3 O2 2.119439 1_555
Ni3 O6 2.191829 1_655
Ni3 O6 2.218738 1_555
