# generated using pymatgen
data_Sm6Fe23
_symmetry_space_group_name_H-M   'P 1'
_cell_length_a   8.57143951
_cell_length_b   8.57143951
_cell_length_c   8.57143951
_cell_angle_alpha   60.00000000
_cell_angle_beta   60.00000000
_cell_angle_gamma   60.00000000
_symmetry_Int_Tables_number   1
_chemical_formula_structural   Sm6Fe23
_chemical_formula_sum   'Sm6 Fe23'
_cell_volume   445.29343827
_cell_formula_units_Z   1
loop_
 _symmetry_equiv_pos_site_id
 _symmetry_equiv_pos_as_xyz
  1  'x, y, z'
loop_
 _atom_site_type_symbol
 _atom_site_label
 _atom_site_symmetry_multiplicity
 _atom_site_fract_x
 _atom_site_fract_y
 _atom_site_fract_z
 _atom_site_occupancy
  Sm  Sm0  1  0.71009800  0.28990200  0.28990200  1
  Sm  Sm1  1  0.71009800  0.28990200  0.71009800  1
  Sm  Sm2  1  0.71009800  0.71009800  0.28990200  1
  Sm  Sm3  1  0.28990200  0.71009800  0.71009800  1
  Sm  Sm4  1  0.28990200  0.71009800  0.28990200  1
  Sm  Sm5  1  0.28990200  0.28990200  0.71009800  1
  Fe  Fe0  1  0.00000000  0.00000000  0.00000000  1
  Fe  Fe1  1  0.50000000  0.00000000  0.00000000  1
  Fe  Fe2  1  0.50000000  0.00000000  0.50000000  1
  Fe  Fe3  1  0.50000000  0.50000000  0.00000000  1
  Fe  Fe4  1  0.00000000  0.50000000  0.50000000  1
  Fe  Fe5  1  0.00000000  0.50000000  0.00000000  1
  Fe  Fe6  1  0.00000000  0.00000000  0.50000000  1
  Fe  Fe7  1  0.63320800  0.12226400  0.12226400  1
  Fe  Fe8  1  0.12226400  0.63320800  0.12226400  1
  Fe  Fe9  1  0.12226400  0.12226400  0.63320800  1
  Fe  Fe10  1  0.12226400  0.12226400  0.12226400  1
  Fe  Fe11  1  0.36679200  0.87773600  0.87773600  1
  Fe  Fe12  1  0.87773600  0.36679200  0.87773600  1
  Fe  Fe13  1  0.87773600  0.87773600  0.36679200  1
  Fe  Fe14  1  0.87773600  0.87773600  0.87773600  1
  Fe  Fe15  1  0.03133100  0.32289000  0.32289000  1
  Fe  Fe16  1  0.32289000  0.03133100  0.32289000  1
  Fe  Fe17  1  0.32289000  0.32289000  0.03133100  1
  Fe  Fe18  1  0.32289000  0.32289000  0.32289000  1
  Fe  Fe19  1  0.96866900  0.67711000  0.67711000  1
  Fe  Fe20  1  0.67711000  0.96866900  0.67711000  1
  Fe  Fe21  1  0.67711000  0.67711000  0.96866900  1
  Fe  Fe22  1  0.67711000  0.67711000  0.67711000  1
loop_
_geom_bond_atom_site_label_1
_geom_bond_atom_site_label_2
_geom_bond_distance
_geom_bond_site_symmetry_2
Sm0 Sm2 3.601685 1_555
Sm0 Sm1 3.601685 1_555
Sm0 Sm5 3.601685 1_555
Sm0 Sm4 3.601685 1_555
Sm1 Sm2 3.601685 1_555
Sm1 Sm5 3.601685 1_555
Sm1 Sm3 3.601685 1_555
Sm2 Sm3 3.601685 1_555
Sm2 Sm4 3.601685 1_555
Sm3 Sm5 3.601685 1_555
Sm3 Sm4 3.601685 1_555
Sm4 Sm5 3.601685 1_555
Fe0 Fe13 2.567013 1_445
Fe0 Fe9 2.567013 1_554
Fe0 Fe12 2.567013 1_454
Fe0 Fe11 2.567013 1_544
Fe0 Fe8 2.567013 1_545
Fe0 Fe10 2.567013 1_555
Fe0 Fe7 2.567013 1_455
Fe0 Fe14 2.567013 1_444
Fe1 Fe21 2.484061 1_544
Fe1 Fe20 2.484061 1_544
Fe1 Fe16 2.484061 1_555
Fe1 Fe17 2.484061 1_555
Fe1 Fe14 2.644159 1_544
Fe1 Fe10 2.644159 1_555
Fe1 Fe7 2.644159 1_555
Fe1 Fe11 2.644159 1_544
Fe1 Sm2 3.068819 1_545
Fe1 Sm5 3.068819 1_554
Fe1 Sm1 3.068819 1_554
Fe1 Sm4 3.068819 1_545
Fe2 Fe20 2.484053 1_545
Fe2 Fe22 2.484057 1_545
Fe2 Fe9 2.644159 1_555
Fe2 Fe7 2.644159 1_555
Fe2 Sm2 3.068819 1_545
Fe2 Sm3 3.068819 1_545
Fe2 Sm5 3.068819 1_555
Fe2 Sm0 3.068819 1_555
Fe3 Fe8 2.644159 1_555
Fe3 Fe7 2.644159 1_555
Fe3 Sm4 3.068819 1_555
Fe3 Sm1 3.068819 1_554
Fe3 Sm3 3.068819 1_554
Fe3 Sm0 3.068819 1_555
Fe4 Fe9 2.644159 1_555
Fe4 Fe8 2.644159 1_555
Fe4 Sm4 3.068819 1_555
Fe4 Sm2 3.068819 1_455
Fe4 Sm1 3.068819 1_455
Fe4 Sm5 3.068819 1_555
Fe5 Fe8 2.644159 1_555
Fe5 Sm3 3.068819 1_554
Fe5 Sm5 3.068819 1_554
Fe5 Sm2 3.068819 1_455
Fe5 Sm0 3.068819 1_455
Fe6 Fe9 2.644159 1_555
Fe6 Sm3 3.068819 1_545
Fe6 Sm1 3.068819 1_455
Fe6 Sm4 3.068819 1_545
Fe6 Sm0 3.068819 1_455
Fe7 Sm1 2.919314 1_554
Fe7 Sm2 2.919314 1_545
Fe7 Sm0 2.919314 1_555
Fe8 Sm3 2.919314 1_554
Fe8 Sm2 2.919314 1_455
Fe8 Sm4 2.919314 1_555
Fe9 Sm3 2.919314 1_545
Fe9 Sm5 2.919314 1_555
Fe9 Sm1 2.919314 1_455
Fe10 Fe15 2.607383 1_555
Fe10 Fe16 2.607383 1_555
Fe10 Fe17 2.607383 1_555
Fe10 Fe6 2.644159 1_555
Fe10 Fe5 2.644159 1_555
Fe10 Sm5 2.919314 1_554
Fe10 Sm4 2.919314 1_545
Fe10 Sm0 2.919314 1_455
Fe10 Fe12 2.964131 1_454
Fe10 Fe11 2.964131 1_544
Fe10 Fe13 2.964131 1_445
Fe11 Fe21 2.607375 1_555
Fe11 Fe20 2.607375 1_555
Fe11 Fe22 2.607379 1_555
Fe11 Fe2 2.644159 1_565
Fe11 Fe3 2.644159 1_556
Fe11 Sm3 2.919314 1_555
Fe11 Sm4 2.919314 1_556
Fe11 Sm5 2.919314 1_565
Fe11 Fe9 2.964131 1_565
Fe11 Fe8 2.964131 1_556
Fe12 Fe21 2.607375 1_555
Fe12 Fe19 2.607375 1_555
Fe12 Fe22 2.607379 1_555
Fe12 Fe3 2.644159 1_556
Fe12 Fe4 2.644159 1_655
Fe12 Fe5 2.644159 1_656
Fe12 Sm1 2.919314 1_555
Fe12 Sm0 2.919314 1_556
Fe12 Sm5 2.919314 1_655
Fe12 Fe7 2.964131 1_556
Fe12 Fe9 2.964131 1_655
Fe13 Fe20 2.607375 1_555
Fe13 Fe19 2.607375 1_555
Fe13 Fe22 2.607379 1_555
Fe13 Fe2 2.644159 1_565
Fe13 Fe4 2.644159 1_655
Fe13 Fe6 2.644159 1_665
Fe13 Sm2 2.919314 1_555
Fe13 Sm0 2.919314 1_565
Fe13 Sm4 2.919314 1_655
Fe13 Fe8 2.964131 1_655
Fe13 Fe7 2.964131 1_565
Fe14 Fe21 2.607383 1_555
Fe14 Fe20 2.607383 1_555
Fe14 Fe19 2.607383 1_555
Fe14 Fe5 2.644159 1_656
Fe14 Fe6 2.644159 1_665
Fe14 Sm2 2.919314 1_556
Fe14 Sm1 2.919314 1_565
Fe14 Sm3 2.919314 1_655
Fe14 Fe9 2.964131 1_665
Fe14 Fe7 2.964131 1_566
Fe14 Fe8 2.964131 1_656
Fe15 Fe4 2.484053 1_555
Fe15 Fe6 2.484061 1_555
Fe15 Fe5 2.484061 1_555
Fe15 Fe16 2.499080 1_555
Fe15 Fe17 2.499080 1_555
Fe15 Fe18 2.499080 1_555
Fe15 Fe8 2.607375 1_555
Fe15 Fe9 2.607375 1_555
Fe15 Sm2 3.062398 1_455
Fe15 Sm1 3.062398 1_455
Fe15 Sm0 3.062403 1_455
Fe16 Fe2 2.484053 1_555
Fe16 Fe6 2.484061 1_555
Fe16 Fe17 2.499080 1_555
Fe16 Fe18 2.499080 1_555
Fe16 Fe9 2.607375 1_555
Fe16 Fe7 2.607375 1_555
Fe16 Sm2 3.062398 1_545
Fe16 Sm3 3.062398 1_545
Fe16 Sm4 3.062403 1_545
Fe17 Fe3 2.484053 1_555
Fe17 Fe5 2.484061 1_555
Fe17 Fe18 2.499080 1_555
Fe17 Fe8 2.607375 1_555
Fe17 Fe7 2.607375 1_555
Fe17 Sm1 3.062398 1_554
Fe17 Sm3 3.062398 1_554
Fe17 Sm5 3.062403 1_554
Fe18 Fe3 2.484057 1_555
Fe18 Fe4 2.484057 1_555
Fe18 Fe2 2.484057 1_555
Fe18 Fe8 2.607379 1_555
Fe18 Fe7 2.607379 1_555
Fe18 Fe9 2.607379 1_555
Fe18 Sm5 3.062395 1_555
Fe18 Sm4 3.062395 1_555
Fe18 Sm0 3.062395 1_555
Fe19 Fe4 2.484053 1_655
Fe19 Fe5 2.484061 1_656
Fe19 Fe6 2.484061 1_665
Fe19 Fe22 2.499080 1_555
Fe19 Fe20 2.499080 1_555
Fe19 Fe21 2.499080 1_555
Fe19 Sm4 3.062398 1_655
Fe19 Sm5 3.062398 1_655
Fe19 Sm3 3.062403 1_655
Fe20 Fe6 2.484061 1_665
Fe20 Fe22 2.499080 1_555
Fe20 Fe21 2.499080 1_555
Fe20 Sm5 3.062398 1_565
Fe20 Sm0 3.062398 1_565
Fe20 Sm1 3.062403 1_565
Fe21 Fe3 2.484053 1_556
Fe21 Fe5 2.484061 1_656
Fe21 Fe22 2.499080 1_555
Fe21 Sm0 3.062398 1_556
Fe21 Sm4 3.062398 1_556
Fe21 Sm2 3.062403 1_556
Fe22 Fe4 2.484057 1_655
Fe22 Fe3 2.484057 1_556
Fe22 Sm1 3.062395 1_555
Fe22 Sm3 3.062395 1_555
Fe22 Sm2 3.062395 1_555
