# generated using pymatgen
data_Ce3Bi4Au3
_symmetry_space_group_name_H-M   'P 1'
_cell_length_a   8.95451042
_cell_length_b   8.95451042
_cell_length_c   8.95451042
_cell_angle_alpha   109.47122063
_cell_angle_beta   109.47122063
_cell_angle_gamma   109.47122063
_symmetry_Int_Tables_number   1
_chemical_formula_structural   Ce3Bi4Au3
_chemical_formula_sum   'Ce6 Bi8 Au6'
_cell_volume   552.71804987
_cell_formula_units_Z   2
loop_
 _symmetry_equiv_pos_site_id
 _symmetry_equiv_pos_as_xyz
  1  'x, y, z'
loop_
 _atom_site_type_symbol
 _atom_site_label
 _atom_site_symmetry_multiplicity
 _atom_site_fract_x
 _atom_site_fract_y
 _atom_site_fract_z
 _atom_site_occupancy
  Ce  Ce0  1  0.87500000  0.25000000  0.12500000  1
  Ce  Ce1  1  0.62500000  0.75000000  0.37500000  1
  Ce  Ce2  1  0.25000000  0.12500000  0.87500000  1
  Ce  Ce3  1  0.75000000  0.37500000  0.62500000  1
  Ce  Ce4  1  0.12500000  0.87500000  0.25000000  1
  Ce  Ce5  1  0.37500000  0.62500000  0.75000000  1
  Bi  Bi0  1  0.68051100  0.50000000  0.00000000  1
  Bi  Bi1  1  0.50000000  0.00000000  0.68051100  1
  Bi  Bi2  1  0.00000000  0.68051100  0.50000000  1
  Bi  Bi3  1  0.81948900  0.81948900  0.81948900  1
  Bi  Bi4  1  0.50000000  0.00000000  0.18051100  1
  Bi  Bi5  1  0.18051100  0.50000000  0.00000000  1
  Bi  Bi6  1  0.00000000  0.18051100  0.50000000  1
  Bi  Bi7  1  0.31948900  0.31948900  0.31948900  1
  Au  Au0  1  0.37500000  0.25000000  0.62500000  1
  Au  Au1  1  0.12500000  0.75000000  0.87500000  1
  Au  Au2  1  0.25000000  0.62500000  0.37500000  1
  Au  Au3  1  0.75000000  0.87500000  0.12500000  1
  Au  Au4  1  0.62500000  0.37500000  0.25000000  1
  Au  Au5  1  0.87500000  0.12500000  0.75000000  1
loop_
_geom_bond_atom_site_label_1
_geom_bond_atom_site_label_2
_geom_bond_distance
_geom_bond_site_symmetry_2
Bi0 Ce4 3.502481 1_655
Bi0 Ce0 3.502481 1_555
Bi0 Ce3 3.502481 1_554
Bi0 Ce5 3.657521 1_554
Bi0 Ce1 3.657521 1_555
Bi0 Ce2 3.657521 1_554
Bi1 Ce0 3.502481 1_556
Bi1 Ce5 3.502481 1_545
Bi1 Ce2 3.502481 1_555
Bi1 Ce4 3.657521 1_545
Bi1 Ce1 3.657521 1_545
Bi1 Ce3 3.657521 1_555
Bi2 Ce1 3.502481 1_455
Bi2 Ce4 3.502481 1_555
Bi2 Ce2 3.502481 1_565
Bi2 Ce5 3.657521 1_555
Bi2 Ce3 3.657521 1_455
Bi2 Ce0 3.657521 1_455
Bi3 Ce5 3.502481 1_555
Bi3 Ce1 3.502481 1_555
Bi3 Ce3 3.502481 1_555
Bi3 Ce4 3.657521 1_656
Bi3 Ce2 3.657521 1_665
Bi3 Ce0 3.657521 1_566
Bi4 Ce1 3.502481 1_545
Bi4 Ce4 3.502481 1_545
Bi4 Ce3 3.502481 1_555
Bi4 Ce2 3.657521 1_554
Bi4 Ce0 3.657521 1_555
Bi4 Ce5 3.657521 1_544
Bi5 Ce5 3.502481 1_554
Bi5 Ce1 3.502481 1_555
Bi5 Ce2 3.502481 1_554
Bi5 Ce3 3.657521 1_454
Bi5 Ce0 3.657521 1_455
Bi5 Ce4 3.657521 1_555
Bi6 Ce5 3.502481 1_555
Bi6 Ce0 3.502481 1_455
Bi6 Ce3 3.502481 1_455
Bi6 Ce4 3.657521 1_545
Bi6 Ce1 3.657521 1_445
Bi6 Ce2 3.657521 1_555
Bi7 Ce4 3.502481 1_545
Bi7 Ce0 3.502481 1_455
Bi7 Ce2 3.502481 1_554
Bi7 Ce5 3.657521 1_555
Bi7 Ce1 3.657521 1_555
Bi7 Ce3 3.657521 1_555
Au0 Bi0 2.924518 1_556
Au0 Bi1 2.924518 1_555
Au0 Bi6 2.924518 1_555
Au0 Bi7 2.924518 1_555
Au0 Ce2 3.165898 1_555
Au0 Ce3 3.165898 1_555
Au0 Ce5 3.165898 1_555
Au0 Ce4 3.165898 1_545
Au1 Bi2 2.924518 1_555
Au1 Bi5 2.924518 1_556
Au1 Bi4 2.924518 1_566
Au1 Bi3 2.924518 1_455
Au1 Ce3 3.165898 1_455
Au1 Ce2 3.165898 1_565
Au1 Ce4 3.165898 1_556
Au1 Ce5 3.165898 1_555
Au2 Bi2 2.924518 1_555
Au2 Bi1 2.924518 1_565
Au2 Bi5 2.924518 1_555
Au2 Bi7 2.924518 1_555
Au2 Ce0 3.165898 1_455
Au2 Ce4 3.165898 1_555
Au2 Ce1 3.165898 1_555
Au2 Ce5 3.165898 1_555
Au3 Bi0 2.924518 1_555
Au3 Bi4 2.924518 1_565
Au3 Bi6 2.924518 1_665
Au3 Bi3 2.924518 1_554
Au3 Ce0 3.165898 1_565
Au3 Ce1 3.165898 1_555
Au3 Ce4 3.165898 1_655
Au3 Ce5 3.165898 1_554
Au4 Bi2 2.924518 1_655
Au4 Bi0 2.924518 1_555
Au4 Bi4 2.924518 1_555
Au4 Bi7 2.924518 1_555
Au4 Ce3 3.165898 1_555
Au4 Ce0 3.165898 1_555
Au4 Ce1 3.165898 1_555
Au4 Ce2 3.165898 1_554
Au5 Bi5 2.924518 1_656
Au5 Bi1 2.924518 1_555
Au5 Bi6 2.924518 1_655
Au5 Bi3 2.924518 1_545
Au5 Ce2 3.165898 1_655
Au5 Ce3 3.165898 1_555
Au5 Ce0 3.165898 1_556
Au5 Ce1 3.165898 1_545
