# generated using pymatgen
data_CaSi2NiO6
_symmetry_space_group_name_H-M   'P 1'
_cell_length_a   5.29502915
_cell_length_b   9.81878178
_cell_length_c   8.99332738
_cell_angle_alpha   89.99999991
_cell_angle_beta   89.99999680
_cell_angle_gamma   105.10341340
_symmetry_Int_Tables_number   1
_chemical_formula_structural   CaSi2NiO6
_chemical_formula_sum   'Ca4 Si8 Ni4 O24'
_cell_volume   451.41849806
_cell_formula_units_Z   4
loop_
 _symmetry_equiv_pos_site_id
 _symmetry_equiv_pos_as_xyz
  1  'x, y, z'
loop_
 _atom_site_type_symbol
 _atom_site_label
 _atom_site_symmetry_multiplicity
 _atom_site_fract_x
 _atom_site_fract_y
 _atom_site_fract_z
 _atom_site_occupancy
  Ca  Ca0  1  0.25000000  0.50000000  0.20298600  1
  Ca  Ca1  1  0.75000000  0.00000000  0.70298600  1
  Ca  Ca2  1  0.75000200  0.50000100  0.79701400  1
  Ca  Ca3  1  0.25000100  0.00000000  0.29701400  1
  Si  Si0  1  0.55959600  0.28699600  0.09297500  1
  Si  Si1  1  0.05959500  0.78699500  0.59297600  1
  Si  Si2  1  0.94040400  0.71300500  0.09297600  1
  Si  Si3  1  0.44040300  0.21300500  0.59297500  1
  Si  Si4  1  0.05959500  0.28699500  0.90702500  1
  Si  Si5  1  0.55959500  0.78699500  0.40702500  1
  Si  Si6  1  0.44040500  0.71300500  0.90702500  1
  Si  Si7  1  0.94040500  0.21300400  0.40702400  1
  Ni  Ni0  1  0.24999900  0.00000000  0.90856100  1
  Ni  Ni1  1  0.74999900  0.00000100  0.09143800  1
  Ni  Ni2  1  0.75000000  0.50000000  0.40856100  1
  Ni  Ni3  1  0.24999900  0.50000100  0.59143800  1
  O  O0  1  0.85794800  0.35090000  0.01861700  1
  O  O1  1  0.35794700  0.85089900  0.51861700  1
  O  O2  1  0.64205300  0.64910000  0.01861900  1
  O  O3  1  0.14205200  0.14910000  0.51861900  1
  O  O4  1  0.14205400  0.64910100  0.98138200  1
  O  O5  1  0.64205400  0.14910100  0.48138200  1
  O  O6  1  0.35794600  0.35089900  0.98138200  1
  O  O7  1  0.85794600  0.85089900  0.48138200  1
  O  O8  1  0.54087800  0.36143400  0.24995800  1
  O  O9  1  0.04087800  0.86143400  0.74995800  1
  O  O10  1  0.95912100  0.63856500  0.24995800  1
  O  O11  1  0.45912100  0.13856500  0.74995800  1
  O  O12  1  0.45912200  0.63856600  0.75004200  1
  O  O13  1  0.95912200  0.13856600  0.25004200  1
  O  O14  1  0.04087800  0.36143400  0.75004300  1
  O  O15  1  0.54087800  0.86143400  0.25004200  1
  O  O16  1  0.97356300  0.11577900  0.91279700  1
  O  O17  1  0.47356300  0.61577900  0.41279700  1
  O  O18  1  0.52643600  0.88422000  0.91279700  1
  O  O19  1  0.02643600  0.38422000  0.41279700  1
  O  O20  1  0.47356300  0.11577900  0.08720300  1
  O  O21  1  0.97356200  0.61577900  0.58720300  1
  O  O22  1  0.02643800  0.88422100  0.08720300  1
  O  O23  1  0.52643800  0.38422100  0.58720300  1
loop_
_geom_bond_atom_site_label_1
_geom_bond_atom_site_label_2
_geom_bond_distance
_geom_bond_site_symmetry_2
Ca0 O10 2.343886 1_455
Ca0 O8 2.343889 1_555
Ca0 O17 2.356428 1_555
Ca0 O19 2.356433 1_555
Ca0 O6 2.622578 1_554
Ca0 O4 2.622578 1_554
Ca0 O2 2.760105 1_555
Ca0 O0 2.760112 1_455
Ca1 O11 2.343886 1_555
Ca1 O9 2.343889 1_645
Ca1 O16 2.356428 1_555
Ca1 O18 2.356433 1_545
Ca1 O7 2.622578 1_545
Ca1 O5 2.622578 1_555
Ca1 O3 2.760101 1_655
Ca1 O1 2.760119 1_545
Ca2 O14 2.343886 1_655
Ca2 O12 2.343890 1_555
Ca2 O21 2.356418 1_555
Ca2 O23 2.356433 1_555
Ca2 O0 2.622571 1_556
Ca2 O2 2.622578 1_556
Ca2 O4 2.760107 1_655
Ca2 O6 2.760126 1_555
Ca3 O15 2.343885 1_545
Ca3 O13 2.343893 1_455
Ca3 O20 2.356426 1_555
Ca3 O22 2.356428 1_545
Ca3 O1 2.622571 1_545
Ca3 O3 2.622584 1_555
Ca3 O5 2.760113 1_555
Ca3 O7 2.760120 1_445
Ni0 O16 2.074477 1_455
Ni0 O18 2.074489 1_545
Ni0 O11 2.080056 1_555
Ni0 O9 2.080059 1_545
Ni0 O22 2.138566 1_546
Ni0 O20 2.138572 1_556
Ni1 O20 2.074470 1_555
Ni1 O22 2.074498 1_645
Ni1 O13 2.080064 1_555
Ni1 O15 2.080070 1_545
Ni1 O16 2.138562 1_554
Ni1 O18 2.138571 1_544
Ni2 O17 2.074482 1_555
Ni2 O19 2.074484 1_655
Ni2 O10 2.080054 1_555
Ni2 O8 2.080061 1_555
Ni2 O23 2.138568 1_555
Ni2 O21 2.138568 1_555
Ni3 O21 2.074474 1_455
Ni3 O23 2.074498 1_555
Ni3 O12 2.080064 1_555
Ni3 O14 2.080076 1_555
Ni3 O17 2.138562 1_555
Ni3 O19 2.138571 1_555
O0 Si0 1.679300 1_555
O0 Si4 1.700021 1_654
O1 Si1 1.679304 1_555
O1 Si5 1.700020 1_555
O2 Si2 1.679293 1_555
O2 Si6 1.700036 1_554
O3 Si3 1.679290 1_555
O3 Si7 1.700032 1_455
O4 Si6 1.679292 1_555
O4 Si2 1.700038 1_456
O5 Si7 1.679294 1_555
O5 Si3 1.700037 1_555
O6 Si4 1.679292 1_555
O6 Si0 1.700028 1_556
O7 Si5 1.679292 1_555
O7 Si1 1.700035 1_655
O8 Si0 1.604666 1_555
O9 Si1 1.604662 1_555
O10 Si2 1.604666 1_555
O11 Si3 1.604675 1_555
O12 Si6 1.604669 1_555
O13 Si7 1.604657 1_555
O14 Si4 1.604662 1_555
O15 Si5 1.604669 1_555
O16 Si4 1.623986 1_655
O17 Si5 1.623986 1_555
O18 Si6 1.623976 1_555
O19 Si7 1.623986 1_455
O20 Si0 1.623995 1_555
O21 Si1 1.623986 1_655
O22 Si2 1.623986 1_455
O23 Si3 1.623986 1_555
