# generated using pymatgen
data_Li4MnCo2O7
_symmetry_space_group_name_H-M   'P 1'
_cell_length_a   5.90073474
_cell_length_b   6.52641962
_cell_length_c   7.70043754
_cell_angle_alpha   115.41570855
_cell_angle_beta   111.13878800
_cell_angle_gamma   75.87283989
_symmetry_Int_Tables_number   1
_chemical_formula_structural   Li4MnCo2O7
_chemical_formula_sum   'Li8 Mn2 Co4 O14'
_cell_volume   248.41719102
_cell_formula_units_Z   2
loop_
 _symmetry_equiv_pos_site_id
 _symmetry_equiv_pos_as_xyz
  1  'x, y, z'
loop_
 _atom_site_type_symbol
 _atom_site_label
 _atom_site_symmetry_multiplicity
 _atom_site_fract_x
 _atom_site_fract_y
 _atom_site_fract_z
 _atom_site_occupancy
  Li  Li0  1  0.21760000  0.43454100  0.14671500  1
  Li  Li1  1  0.92693300  0.85933600  0.28591400  1
  Li  Li2  1  0.64199700  0.28405600  0.43061600  1
  Li  Li3  1  0.35852100  0.71537500  0.56579000  1
  Li  Li4  1  0.06687700  0.14273600  0.71003600  1
  Li  Li5  1  0.78633200  0.57111200  0.85816100  1
  Li  Li6  1  0.50241600  0.99357300  0.00563900  1
  Li  Li7  1  0.42688100  0.85605600  0.28611600  1
  Mn  Mn0  1  0.00159000  0.99972900  0.00175600  1
  Mn  Mn1  1  0.71120900  0.43153000  0.14381100  1
  Co  Co0  1  0.14211000  0.27924800  0.42626300  1
  Co  Co1  1  0.84770800  0.71476500  0.56709400  1
  Co  Co2  1  0.56396000  0.13851900  0.70415100  1
  Co  Co3  1  0.29650400  0.57666200  0.86084400  1
  O  O0  1  0.88876700  0.27612200  0.94146000  1
  O  O1  1  0.61265000  0.69244100  0.07428700  1
  O  O2  1  0.28195100  0.13933100  0.21095300  1
  O  O3  1  0.01122900  0.55044500  0.34622200  1
  O  O4  1  0.75087200  0.99593300  0.51649700  1
  O  O5  1  0.45969200  0.43277600  0.65201200  1
  O  O6  1  0.17072300  0.86436700  0.79855100  1
  O  O7  1  0.55178500  0.56210700  0.34982000  1
  O  O8  1  0.25320000  0.02397200  0.50756800  1
  O  O9  1  0.97998400  0.43631000  0.63102300  1
  O  O10  1  0.70307800  0.86778500  0.79566400  1
  O  O11  1  0.42303800  0.29671000  0.93765500  1
  O  O12  1  0.10609700  0.72123600  0.05151700  1
  O  O13  1  0.81629700  0.14322600  0.19386100  1
loop_
_geom_bond_atom_site_label_1
_geom_bond_atom_site_label_2
_geom_bond_distance
_geom_bond_site_symmetry_2
Li0 O3 2.077845 1_555
Li0 O2 2.103894 1_555
Li0 O7 2.118268 1_555
Li0 O11 2.121918 1_554
Li0 O0 2.167194 1_454
Li0 O12 2.167903 1_555
Li1 O4 2.132228 1_555
Li1 O1 2.136339 1_555
Li1 O13 2.136489 1_565
Li1 O3 2.162094 1_655
Li1 O12 2.168562 1_655
Li1 O8 2.199946 1_665
Li2 O7 2.054801 1_555
Li2 O5 2.097256 1_555
Li2 O4 2.134785 1_545
Li2 O13 2.163093 1_555
Li2 O9 2.185797 1_555
Li2 O2 2.298522 1_555
Li3 O5 2.103957 1_555
Li3 O7 2.109502 1_555
Li3 O8 2.146316 1_565
Li3 O6 2.190119 1_555
Li3 O10 2.266393 1_555
Li3 O3 2.287452 1_555
Li4 O8 2.005833 1_555
Li4 O4 2.063518 1_445
Li4 O6 2.087799 1_545
Li4 O9 2.144802 1_455
Li4 O0 2.147268 1_455
Li4 O11 2.315379 1_555
Li5 O1 2.037149 1_556
Li5 O12 2.088303 1_656
Li5 O10 2.094482 1_555
Li5 O5 2.112452 1_555
Li5 O0 2.166937 1_555
Li5 O9 2.183784 1_555
Li6 O13 2.053485 1_565
Li6 O10 2.111221 1_554
Li6 O6 2.117799 1_554
Li6 O1 2.141197 1_555
Li6 O11 2.160398 1_564
Li6 O2 2.164544 1_565
Li7 O1 2.055657 1_555
Li7 O8 2.065767 1_565
Li7 O2 2.067366 1_565
Li7 O7 2.078714 1_555
Li7 O12 2.145442 1_555
Li7 O4 2.156646 1_555
Mn0 O12 1.926367 1_555
Mn0 O2 1.927633 1_565
Mn0 O6 1.932449 1_554
Mn0 O13 1.933488 1_465
Mn0 O0 1.955106 1_464
Mn0 O10 1.978372 1_454
Mn1 O1 1.897089 1_555
Mn1 O7 1.911104 1_555
Mn1 O11 1.941697 1_554
Mn1 O3 1.951405 1_655
Mn1 O0 1.963819 1_554
Mn1 O13 1.988464 1_555
Co0 O2 1.892888 1_555
Co0 O8 1.914049 1_555
Co0 O9 1.916763 1_455
Co0 O3 2.008693 1_555
Co0 O5 2.146981 1_555
Co0 O13 2.162128 1_455
Co1 O4 1.945992 1_555
Co1 O9 1.988104 1_555
Co1 O10 1.995533 1_555
Co1 O3 2.021572 1_655
Co1 O7 2.037706 1_555
Co1 O6 2.174255 1_655
Co2 O4 1.914344 1_545
Co2 O8 1.977019 1_555
Co2 O11 2.014036 1_555
Co2 O5 2.033405 1_555
Co2 O10 2.058151 1_545
Co2 O0 2.173623 1_555
Co3 O5 1.942749 1_555
Co3 O12 1.947203 1_556
Co3 O6 2.035363 1_555
Co3 O1 2.040357 1_556
Co3 O11 2.046639 1_555
Co3 O9 2.125785 1_455
