# generated using pymatgen
data_KBP2PbO8
_symmetry_space_group_name_H-M   'P 1'
_cell_length_a   7.16414025
_cell_length_b   7.16414025
_cell_length_c   8.77310665
_cell_angle_alpha   67.46579674
_cell_angle_beta   67.46579674
_cell_angle_gamma   90.74879144
_symmetry_Int_Tables_number   1
_chemical_formula_structural   KBP2PbO8
_chemical_formula_sum   'K2 B2 P4 Pb2 O16'
_cell_volume   377.33598956
_cell_formula_units_Z   2
loop_
 _symmetry_equiv_pos_site_id
 _symmetry_equiv_pos_as_xyz
  1  'x, y, z'
loop_
 _atom_site_type_symbol
 _atom_site_label
 _atom_site_symmetry_multiplicity
 _atom_site_fract_x
 _atom_site_fract_y
 _atom_site_fract_z
 _atom_site_occupancy
  K  K0  1  0.23486200  0.37654600  0.25411300  1
  K  K1  1  0.37654600  0.23486200  0.75411300  1
  B  B0  1  0.73602500  0.01606600  0.49981300  1
  B  B1  1  0.01606600  0.73602500  0.99981300  1
  P  P0  1  0.02067100  0.86660600  0.26528700  1
  P  P1  1  0.72201100  0.38186100  0.24148600  1
  P  P2  1  0.86660600  0.02067100  0.76528700  1
  P  P3  1  0.38186100  0.72201100  0.74148600  1
  Pb  Pb0  1  0.52611800  0.90757600  0.21853700  1
  Pb  Pb1  1  0.90757600  0.52611800  0.71853700  1
  O  O0  1  0.05863000  0.66293700  0.38495500  1
  O  O1  1  0.20342700  0.04115200  0.17914400  1
  O  O2  1  0.57115600  0.51320400  0.30168500  1
  O  O3  1  0.65126900  0.25627900  0.15945200  1
  O  O4  1  0.04115200  0.20342700  0.67914400  1
  O  O5  1  0.51320400  0.57115600  0.80168500  1
  O  O6  1  0.25627900  0.65126900  0.65945200  1
  O  O7  1  0.66293700  0.05863000  0.88495500  1
  O  O8  1  0.80885000  0.91300300  0.37667400  1
  O  O9  1  0.95977800  0.84856100  0.11539000  1
  O  O10  1  0.77515200  0.24049600  0.40458100  1
  O  O11  1  0.94558600  0.51217800  0.09888200  1
  O  O12  1  0.84856100  0.95977800  0.61539000  1
  O  O13  1  0.24049600  0.77515200  0.90458100  1
  O  O14  1  0.51217800  0.94558600  0.59888200  1
  O  O15  1  0.91300300  0.80885000  0.87667400  1
loop_
_geom_bond_atom_site_label_1
_geom_bond_atom_site_label_2
_geom_bond_distance
_geom_bond_site_symmetry_2
K0 O1 2.750904 1_555
K0 O0 2.807740 1_555
K0 O2 2.821249 1_555
K0 O11 2.880161 1_455
K0 O3 3.008031 1_555
K0 O10 3.022731 1_455
K0 O4 3.132476 1_555
K0 O13 3.278725 1_554
K0 O5 3.360648 1_554
K1 O4 2.750904 1_555
K1 O7 2.807740 1_555
K1 O5 2.821249 1_555
K1 O14 2.880161 1_545
K1 O6 3.008031 1_555
K1 O13 3.022731 1_545
K1 O1 3.132476 1_556
K1 O10 3.278725 1_555
K1 O2 3.360648 1_555
B0 O10 1.463173 1_555
B0 O14 1.468424 1_545
B0 O12 1.470517 1_545
B0 O8 1.474411 1_545
B1 O13 1.463173 1_555
B1 O11 1.468424 1_456
B1 O9 1.470517 1_456
B1 O15 1.474411 1_455
O0 P0 1.536308 1_555
O0 Pb1 2.458197 1_455
O1 P0 1.524311 1_545
O1 Pb0 2.606981 1_545
O2 P1 1.517345 1_555
O2 Pb0 2.691338 1_555
O3 P1 1.532378 1_555
O3 Pb0 2.430242 1_545
O4 P2 1.524311 1_455
O4 Pb1 2.606981 1_455
O5 P3 1.517345 1_555
O5 Pb1 2.691338 1_555
O6 P3 1.532378 1_555
O6 Pb1 2.430242 1_455
O7 P2 1.536308 1_555
O7 Pb0 2.458197 1_546
O8 P0 1.579178 1_655
O9 P0 1.582707 1_655
O10 P1 1.592124 1_555
O11 P1 1.591254 1_555
O12 P2 1.582707 1_565
O13 P3 1.592124 1_555
O14 P3 1.591254 1_555
O15 P2 1.579178 1_565
