# generated using pymatgen
data_AuC2N3
_symmetry_space_group_name_H-M   'P 1'
_cell_length_a   9.02487728
_cell_length_b   12.61280040
_cell_length_c   6.74766487
_cell_angle_alpha   89.99999345
_cell_angle_beta   93.85853211
_cell_angle_gamma   45.67083164
_symmetry_Int_Tables_number   1
_chemical_formula_structural   AuC2N3
_chemical_formula_sum   'Au4 C8 N12'
_cell_volume   546.99941752
_cell_formula_units_Z   4
loop_
 _symmetry_equiv_pos_site_id
 _symmetry_equiv_pos_as_xyz
  1  'x, y, z'
loop_
 _atom_site_type_symbol
 _atom_site_label
 _atom_site_symmetry_multiplicity
 _atom_site_fract_x
 _atom_site_fract_y
 _atom_site_fract_z
 _atom_site_occupancy
  Au  Au0  1  0.00000000  0.13406600  0.75000000  1
  Au  Au1  1  0.00000000  0.86593400  0.25000000  1
  Au  Au2  1  0.00000000  0.38261300  0.75000000  1
  Au  Au3  1  0.00000000  0.61738700  0.25000000  1
  C  C0  1  0.24016300  0.67828400  0.63876400  1
  C  C1  1  0.75983700  0.91844600  0.86123600  1
  C  C2  1  0.75983700  0.32171600  0.36123500  1
  C  C3  1  0.24016300  0.08155400  0.13876500  1
  C  C4  1  0.23962300  0.56426600  0.90309700  1
  C  C5  1  0.76037700  0.80389000  0.59690300  1
  C  C6  1  0.76037700  0.43573400  0.09690300  1
  C  C7  1  0.23962300  0.19611000  0.40309700  1
  N  N0  1  0.17235200  0.76952900  0.51011200  1
  N  N1  1  0.82764800  0.94188100  0.98988800  1
  N  N2  1  0.82764800  0.23047000  0.48988800  1
  N  N3  1  0.17235200  0.05811900  0.01011200  1
  N  N4  1  0.33039900  0.57564900  0.77870600  1
  N  N5  1  0.66960100  0.90604800  0.72129400  1
  N  N6  1  0.66960100  0.42435100  0.22129400  1
  N  N7  1  0.33039900  0.09395200  0.27870600  1
  N  N8  1  0.17081400  0.54181600  0.01972300  1
  N  N9  1  0.82918600  0.71263000  0.48027700  1
  N  N10  1  0.82918600  0.45818400  0.98027700  1
  N  N11  1  0.17081400  0.28737000  0.51972300  1
loop_
_geom_bond_atom_site_label_1
_geom_bond_atom_site_label_2
_geom_bond_distance
_geom_bond_site_symmetry_2
Au0 N2 1.991935 1_455
Au0 N3 1.991936 1_556
Au1 N0 1.991936 1_555
Au1 N1 1.991936 1_454
Au2 N10 1.992038 1_455
Au2 N11 1.992038 1_555
Au3 N8 1.992038 1_555
Au3 N9 1.992038 1_455
C0 N0 1.181855 1_555
C0 N4 1.286006 1_555
C1 N1 1.181862 1_555
C1 N5 1.285999 1_555
C2 N2 1.181867 1_555
C2 N6 1.286002 1_555
C3 N3 1.181867 1_555
C3 N7 1.285995 1_555
C4 N8 1.181787 1_556
C4 N4 1.285770 1_555
C5 N9 1.181795 1_555
C5 N5 1.285763 1_555
C6 N10 1.181787 1_554
C6 N6 1.285770 1_555
C7 N11 1.181795 1_555
C7 N7 1.285763 1_555
