# generated using pymatgen
data_Mg6ZnCd
_symmetry_space_group_name_H-M   'P 1'
_cell_length_a   5.00683800
_cell_length_b   6.36914100
_cell_length_c   10.68566000
_cell_angle_alpha   90.00000000
_cell_angle_beta   90.00000000
_cell_angle_gamma   90.00000000
_symmetry_Int_Tables_number   1
_chemical_formula_structural   Mg6ZnCd
_chemical_formula_sum   'Mg12 Zn2 Cd2'
_cell_volume   340.75775994
_cell_formula_units_Z   2
loop_
 _symmetry_equiv_pos_site_id
 _symmetry_equiv_pos_as_xyz
  1  'x, y, z'
loop_
 _atom_site_type_symbol
 _atom_site_label
 _atom_site_symmetry_multiplicity
 _atom_site_fract_x
 _atom_site_fract_y
 _atom_site_fract_z
 _atom_site_occupancy
  Mg  Mg0  1  0.50000000  0.24976800  0.58411300  1
  Mg  Mg1  1  0.50000000  0.75023200  0.58411300  1
  Mg  Mg2  1  0.00000000  0.25384200  0.41473500  1
  Mg  Mg3  1  0.00000000  0.74615800  0.41473500  1
  Mg  Mg4  1  0.00000000  0.00000000  0.66960100  1
  Mg  Mg5  1  0.00000000  0.00000000  0.16700900  1
  Mg  Mg6  1  0.50000000  0.74976800  0.08411300  1
  Mg  Mg7  1  0.50000000  0.25023200  0.08411300  1
  Mg  Mg8  1  0.00000000  0.75384200  0.91473500  1
  Mg  Mg9  1  0.00000000  0.24615800  0.91473500  1
  Mg  Mg10  1  0.00000000  0.50000000  0.16960100  1
  Mg  Mg11  1  0.00000000  0.50000000  0.66700900  1
  Zn  Zn0  1  0.50000000  0.00000000  0.83257700  1
  Zn  Zn1  1  0.50000000  0.50000000  0.33257700  1
  Cd  Cd0  1  0.50000000  0.00000000  0.33312000  1
  Cd  Cd1  1  0.50000000  0.50000000  0.83312000  1
loop_
_geom_bond_atom_site_label_1
_geom_bond_atom_site_label_2
_geom_bond_distance
_geom_bond_site_symmetry_2
Mg0 Mg2 3.089268 1_655
Mg0 Mg2 3.089268 1_555
Mg0 Zn0 3.095110 1_555
Mg0 Mg11 3.097067 1_655
Mg0 Mg11 3.097067 1_555
Mg0 Mg4 3.103587 1_655
Mg0 Mg4 3.103587 1_555
Mg0 Zn1 3.124820 1_555
Mg0 Mg1 3.181615 1_545
Mg0 Mg1 3.187526 1_555
Mg1 Mg3 3.089268 1_555
Mg1 Mg3 3.089268 1_655
Mg1 Zn0 3.095110 1_565
Mg1 Mg11 3.097067 1_655
Mg1 Mg11 3.097067 1_555
Mg1 Mg4 3.103587 1_665
Mg1 Mg4 3.103587 1_565
Mg1 Zn1 3.124820 1_555
Mg2 Zn1 3.081539 1_555
Mg2 Zn1 3.081539 1_455
Mg2 Mg5 3.101793 1_555
Mg2 Mg3 3.135630 1_555
Mg2 Mg4 3.167155 1_555
Mg2 Mg3 3.233511 1_545
Mg3 Zn1 3.081539 1_555
Mg3 Zn1 3.081539 1_455
Mg3 Mg5 3.101793 1_565
Mg3 Mg4 3.167155 1_565
Mg4 Zn0 3.049582 1_455
Mg4 Zn0 3.049582 1_555
Mg4 Mg8 3.052769 1_545
Mg4 Mg9 3.052769 1_555
Mg5 Mg7 3.097067 1_455
Mg5 Mg6 3.097067 1_545
Mg5 Mg7 3.097067 1_555
Mg5 Mg6 3.097067 1_445
Mg5 Mg8 3.118480 1_544
Mg5 Mg9 3.118480 1_554
Mg6 Mg8 3.089268 1_654
Mg6 Mg8 3.089268 1_554
Mg6 Zn1 3.095110 1_555
Mg6 Zn0 3.124820 1_564
Mg6 Mg7 3.181615 1_555
Mg6 Mg7 3.187526 1_565
Mg7 Mg9 3.089268 1_554
Mg7 Mg9 3.089268 1_654
Mg7 Zn1 3.095110 1_555
Mg7 Zn0 3.124820 1_554
Mg8 Zn0 3.081539 1_465
Mg8 Zn0 3.081539 1_565
Mg8 Mg9 3.135630 1_565
Mg8 Mg9 3.233511 1_555
Mg9 Zn0 3.081539 1_455
Mg9 Zn0 3.081539 1_555
Mg10 Zn1 3.049582 1_555
Mg10 Zn1 3.049582 1_455
Mg10 Mg3 3.052769 1_555
Mg10 Mg2 3.052769 1_555
Mg10 Mg6 3.103587 1_555
Mg10 Mg7 3.103587 1_455
Mg10 Mg7 3.103587 1_555
Mg10 Mg6 3.103587 1_455
Mg10 Mg9 3.167155 1_554
Mg10 Mg8 3.167155 1_554
Mg10 Mg5 3.184691 1_565
Mg10 Mg5 3.184691 1_555
Mg11 Mg8 3.101793 1_555
Mg11 Mg9 3.101793 1_555
Mg11 Mg2 3.118480 1_555
Mg11 Mg3 3.118480 1_555
Mg11 Mg4 3.184691 1_555
Mg11 Mg4 3.184691 1_565
Cd0 Mg5 3.068836 1_555
Cd0 Mg5 3.068836 1_655
Cd0 Mg6 3.101606 1_545
Cd0 Mg7 3.101606 1_555
Cd0 Mg2 3.105090 1_655
Cd0 Mg3 3.105090 1_545
Cd0 Mg2 3.105090 1_555
Cd0 Mg3 3.105090 1_645
Cd0 Mg0 3.118322 1_555
Cd0 Mg1 3.118322 1_545
Cd0 Zn1 3.184576 1_545
Cd0 Zn1 3.184576 1_555
Cd1 Mg11 3.068836 1_555
Cd1 Mg11 3.068836 1_655
Cd1 Mg0 3.101606 1_555
Cd1 Mg1 3.101606 1_555
Cd1 Mg9 3.105090 1_655
Cd1 Mg8 3.105090 1_555
Cd1 Mg8 3.105090 1_655
Cd1 Mg9 3.105090 1_555
Cd1 Mg7 3.118322 1_556
Cd1 Mg6 3.118322 1_556
Cd1 Zn0 3.184576 1_555
Cd1 Zn0 3.184576 1_565
