# generated using pymatgen
data_Mg(NiO2)2
_symmetry_space_group_name_H-M   'P 1'
_cell_length_a   5.86804736
_cell_length_b   5.86804736
_cell_length_c   5.86804754
_cell_angle_alpha   60.08919134
_cell_angle_beta   60.08919134
_cell_angle_gamma   60.08918628
_symmetry_Int_Tables_number   1
_chemical_formula_structural   Mg(NiO2)2
_chemical_formula_sum   'Mg2 Ni4 O8'
_cell_volume   143.16691756
_cell_formula_units_Z   2
loop_
 _symmetry_equiv_pos_site_id
 _symmetry_equiv_pos_as_xyz
  1  'x, y, z'
loop_
 _atom_site_type_symbol
 _atom_site_label
 _atom_site_symmetry_multiplicity
 _atom_site_fract_x
 _atom_site_fract_y
 _atom_site_fract_z
 _atom_site_occupancy
  Mg  Mg0  1  0.00874200  0.00874200  0.00874200  1
  Mg  Mg1  1  0.62532500  0.62532500  0.62532500  1
  Ni  Ni0  1  0.24344600  0.24344600  0.24344600  1
  Ni  Ni1  1  0.62966400  0.11722800  0.62966400  1
  Ni  Ni2  1  0.62966400  0.62966400  0.11722800  1
  Ni  Ni3  1  0.11722800  0.62966400  0.62966400  1
  O  O0  1  0.84337500  0.37534000  0.37534000  1
  O  O1  1  0.37534000  0.37534000  0.84337500  1
  O  O2  1  0.37534000  0.84337500  0.37534000  1
  O  O3  1  0.37047300  0.37047300  0.37047300  1
  O  O4  1  0.87362900  0.87362900  0.87362900  1
  O  O5  1  0.86922600  0.41932100  0.86922600  1
  O  O6  1  0.86922600  0.86922600  0.41932100  1
  O  O7  1  0.41932100  0.86922600  0.86922600  1
loop_
_geom_bond_atom_site_label_1
_geom_bond_atom_site_label_2
_geom_bond_distance
_geom_bond_site_symmetry_2
Mg0 O4 1.940767 1_444
Mg0 O7 1.969612 1_544
Mg0 O5 1.969612 1_454
Mg0 O6 1.969612 1_445
Mg1 O5 2.037169 1_555
Mg1 O7 2.037169 1_555
Mg1 O6 2.037169 1_555
Mg1 O2 2.084027 1_555
Mg1 O0 2.084027 1_555
Mg1 O1 2.084027 1_555
Ni0 O3 1.824619 1_555
Ni0 O2 1.919028 1_545
Ni0 O0 1.919028 1_455
Ni0 O1 1.919028 1_554
Ni1 O6 1.907414 1_545
Ni1 O7 1.907414 1_545
Ni1 O1 1.966586 1_555
Ni1 O0 1.966586 1_555
Ni1 O4 2.025947 1_545
Ni1 O3 2.152607 1_555
Ni2 O7 1.907414 1_554
Ni2 O5 1.907414 1_554
Ni2 O2 1.966586 1_555
Ni2 O0 1.966586 1_555
Ni2 O4 2.025948 1_554
Ni2 O3 2.152608 1_555
Ni3 O6 1.907414 1_455
Ni3 O5 1.907414 1_455
Ni3 O1 1.966586 1_555
Ni3 O2 1.966586 1_555
Ni3 O4 2.025947 1_455
Ni3 O3 2.152607 1_555
