# generated using pymatgen
data_YGa3NiGe
_symmetry_space_group_name_H-M   'P 1'
_cell_length_a   12.41984730
_cell_length_b   12.41984730
_cell_length_c   12.41984730
_cell_angle_alpha   160.49595553
_cell_angle_beta   160.49595553
_cell_angle_gamma   27.71944080
_symmetry_Int_Tables_number   1
_chemical_formula_structural   YGa3NiGe
_chemical_formula_sum   'Y2 Ga6 Ni2 Ge2'
_cell_volume   213.46312191
_cell_formula_units_Z   2
loop_
 _symmetry_equiv_pos_site_id
 _symmetry_equiv_pos_as_xyz
  1  'x, y, z'
loop_
 _atom_site_type_symbol
 _atom_site_label
 _atom_site_symmetry_multiplicity
 _atom_site_fract_x
 _atom_site_fract_y
 _atom_site_fract_z
 _atom_site_occupancy
  Y  Y0  1  0.84682800  0.84682800  0.00000000  1
  Y  Y1  1  0.14367200  0.14367200  0.00000000  1
  Ga  Ga0  1  0.73897100  0.23897100  0.50000000  1
  Ga  Ga1  1  0.23897100  0.73897100  0.50000000  1
  Ga  Ga2  1  0.94715400  0.44715400  0.50000000  1
  Ga  Ga3  1  0.44715400  0.94715400  0.50000000  1
  Ga  Ga4  1  0.05587800  0.55587800  0.50000000  1
  Ga  Ga5  1  0.55587800  0.05587800  0.50000000  1
  Ni  Ni0  1  0.00078300  0.00078300  0.00000000  1
  Ni  Ni1  1  0.28225000  0.28225000  0.00000000  1
  Ge  Ge0  1  0.64912300  0.64912300  0.00000000  1
  Ge  Ge1  1  0.37640600  0.37640600  0.00000000  1
loop_
_geom_bond_atom_site_label_1
_geom_bond_atom_site_label_2
_geom_bond_distance
_geom_bond_site_symmetry_2
Ga0 Ni1 2.348416 1_555
Ga0 Ni1 2.348416 1_656
Ga0 Ge0 3.020061 1_556
Ga0 Ge0 3.020061 1_545
Ga0 Y1 3.115726 1_555
Ga0 Y1 3.115726 1_656
Ga0 Y0 3.345378 1_556
Ga0 Y0 3.345378 1_545
Ga1 Ni1 2.348416 1_555
Ga1 Ni1 2.348416 1_566
Ga1 Ge0 3.020061 1_556
Ga1 Ge0 3.020061 1_455
Ga1 Y1 3.115726 1_555
Ga1 Y1 3.115726 1_566
Ga1 Y0 3.345378 1_556
Ga1 Y0 3.345378 1_455
Ga2 Ni0 2.469495 1_666
Ga2 Ni0 2.469495 1_655
Ga2 Ga4 2.622041 1_655
Ga2 Ge1 2.708646 1_555
Ga2 Ge1 2.708646 1_656
Ga2 Ga3 2.975119 1_555
Ga2 Ga3 2.975119 1_656
Ga2 Ga3 2.975119 1_544
Ga2 Ga3 2.975119 1_645
Ga2 Y0 3.206197 1_556
Ga2 Y0 3.206197 1_545
Ga3 Ni0 2.469495 1_666
Ga3 Ni0 2.469495 1_565
Ga3 Ga5 2.622041 1_565
Ga3 Ge1 2.708646 1_555
Ga3 Ge1 2.708646 1_566
Ga3 Y0 3.206197 1_556
Ga3 Y0 3.206197 1_455
Ga4 Ni0 2.488193 1_555
Ga4 Ni0 2.488193 1_566
Ga4 Ga5 2.975119 1_454
Ga4 Ga5 2.975119 1_555
Ga4 Ga5 2.975119 1_566
Ga4 Ga5 2.975119 1_465
Ga4 Y1 2.984720 1_555
Ga4 Y1 2.984720 1_566
Ga4 Ge0 3.079368 1_455
Ga4 Ge0 3.079368 1_556
Ga5 Ni0 2.488193 1_656
Ga5 Ni0 2.488193 1_555
Ga5 Y1 2.984720 1_656
Ga5 Y1 2.984720 1_555
Ga5 Ge0 3.079368 1_545
Ga5 Ge0 3.079368 1_556
Ni1 Y0 3.358097 1_556
Ni1 Y0 3.358097 1_455
Ni1 Y0 3.358097 1_444
Ni1 Y0 3.358097 1_545
Ge0 Y1 2.978022 1_565
Ge0 Y1 2.978022 1_655
Ge0 Y1 2.978022 1_554
Ge0 Y1 2.978022 1_666
Ge1 Ni1 2.270712 1_555
Ge1 Y0 3.059437 1_545
Ge1 Y0 3.059437 1_556
Ge1 Y0 3.059437 1_455
Ge1 Y0 3.059437 1_444
