# generated using pymatgen
data_CsMoPO6
_symmetry_space_group_name_H-M   'P 1'
_cell_length_a   8.57345220
_cell_length_b   8.57345281
_cell_length_c   9.91000476
_cell_angle_alpha   111.65296363
_cell_angle_beta   111.65296751
_cell_angle_gamma   98.45237067
_symmetry_Int_Tables_number   1
_chemical_formula_structural   CsMoPO6
_chemical_formula_sum   'Cs4 Mo4 P4 O24'
_cell_volume   594.49197699
_cell_formula_units_Z   4
loop_
 _symmetry_equiv_pos_site_id
 _symmetry_equiv_pos_as_xyz
  1  'x, y, z'
loop_
 _atom_site_type_symbol
 _atom_site_label
 _atom_site_symmetry_multiplicity
 _atom_site_fract_x
 _atom_site_fract_y
 _atom_site_fract_z
 _atom_site_occupancy
  Cs  Cs0  1  0.06778200  0.31778100  0.25000000  1
  Cs  Cs1  1  0.68221900  0.93221800  0.25000000  1
  Cs  Cs2  1  0.93221800  0.68221800  0.74999900  1
  Cs  Cs3  1  0.31778100  0.06778100  0.75000000  1
  Mo  Mo0  1  0.59142600  0.40857400  0.25000000  1
  Mo  Mo1  1  0.15857500  0.84142600  0.25000000  1
  Mo  Mo2  1  0.84142600  0.15857500  0.75000000  1
  Mo  Mo3  1  0.40857400  0.59142500  0.75000000  1
  P  P0  1  0.50518500  0.75518500  0.51036900  1
  P  P1  1  0.24481500  0.49481500  0.98963100  1
  P  P2  1  0.49481600  0.24481600  0.48963100  1
  P  P3  1  0.75518500  0.50518400  0.01036900  1
  O  O0  1  0.59782300  0.67686700  0.40804600  1
  O  O1  1  0.26882100  0.68977800  0.09195500  1
  O  O2  1  0.32313400  0.40217700  0.09195400  1
  O  O3  1  0.31022200  0.73117900  0.40804600  1
  O  O4  1  0.40217600  0.32313400  0.59195400  1
  O  O5  1  0.73117900  0.31022300  0.90804500  1
  O  O6  1  0.67686600  0.59782300  0.90804600  1
  O  O7  1  0.68977800  0.26882100  0.59195500  1
  O  O8  1  0.66672300  0.51955600  0.12590900  1
  O  O9  1  0.39364700  0.04081400  0.37409100  1
  O  O10  1  0.48044400  0.33327700  0.37409100  1
  O  O11  1  0.95918600  0.60635300  0.12590900  1
  O  O12  1  0.92004200  0.06647000  0.61117500  1
  O  O13  1  0.45529500  0.80886800  0.88882600  1
  O  O14  1  0.93353000  0.07995900  0.88882500  1
  O  O15  1  0.19113300  0.54470600  0.61117600  1
  O  O16  1  0.07995900  0.93353000  0.38882600  1
  O  O17  1  0.54470600  0.19113300  0.11117500  1
  O  O18  1  0.33327700  0.48044400  0.87409100  1
  O  O19  1  0.80886700  0.45529500  0.38882500  1
  O  O20  1  0.04081400  0.39364600  0.87409100  1
  O  O21  1  0.51955600  0.66672300  0.62591000  1
  O  O22  1  0.60635300  0.95918500  0.62590900  1
  O  O23  1  0.06646900  0.92004200  0.11117500  1
loop_
_geom_bond_atom_site_label_1
_geom_bond_atom_site_label_2
_geom_bond_distance
_geom_bond_site_symmetry_2
Cs0 O14 3.029419 1_454
Cs0 O15 3.029433 1_555
Cs0 O23 3.167988 1_545
Cs0 O19 3.168001 1_455
Cs0 O10 3.252301 1_555
Cs0 O11 3.252312 1_455
Cs0 O3 3.266568 1_555
Cs0 O2 3.266573 1_555
Cs0 O4 3.518806 1_555
Cs0 O5 3.518828 1_454
Cs1 O13 3.029417 1_554
Cs1 O12 3.029421 1_565
Cs1 O17 3.167999 1_565
Cs1 O16 3.167999 1_655
Cs1 O8 3.252301 1_555
Cs1 O9 3.252312 1_565
Cs1 O0 3.266566 1_555
Cs1 O1 3.266570 1_555
Cs1 O6 3.518810 1_554
Cs1 O7 3.518825 1_565
Cs2 O19 3.029414 1_555
Cs2 O23 3.029432 1_656
Cs2 O15 3.167985 1_655
Cs2 O14 3.168007 1_565
Cs2 O21 3.252304 1_555
Cs2 O20 3.252317 1_655
Cs2 O7 3.266564 1_555
Cs2 O6 3.266579 1_555
Cs2 O0 3.518811 1_555
Cs2 O1 3.518827 1_656
Cs3 O16 3.029413 1_545
Cs3 O17 3.029424 1_556
Cs3 O13 3.167991 1_545
Cs3 O12 3.167993 1_455
Cs3 O18 3.252310 1_555
Cs3 O22 3.252312 1_545
Cs3 O5 3.266575 1_555
Cs3 O4 3.266578 1_555
Cs3 O2 3.518814 1_556
Cs3 O3 3.518814 1_545
Mo0 O19 1.734820 1_555
Mo0 O17 1.734822 1_555
Mo0 O10 2.025618 1_555
Mo0 O8 2.025618 1_555
Mo0 O2 2.233353 1_555
Mo0 O0 2.233359 1_555
Mo1 O23 1.734824 1_555
Mo1 O16 1.734828 1_555
Mo1 O9 2.025613 1_565
Mo1 O11 2.025622 1_455
Mo1 O1 2.233343 1_555
Mo1 O3 2.233353 1_555
Mo2 O14 1.734820 1_555
Mo2 O12 1.734822 1_555
Mo2 O20 2.025607 1_655
Mo2 O22 2.025626 1_545
Mo2 O7 2.233343 1_555
Mo2 O5 2.233350 1_555
Mo3 O15 1.734821 1_555
Mo3 O13 1.734836 1_555
Mo3 O18 2.025613 1_555
Mo3 O21 2.025613 1_555
Mo3 O4 2.233343 1_555
Mo3 O6 2.233349 1_555
O0 P0 1.535752 1_555
O1 P1 1.535766 1_554
O2 P1 1.535754 1_554
O3 P0 1.535764 1_555
O4 P2 1.535766 1_555
O5 P3 1.535752 1_556
O6 P3 1.535762 1_556
O7 P2 1.535761 1_555
O8 P3 1.570231 1_555
O9 P2 1.570232 1_555
O10 P2 1.570225 1_555
O11 P3 1.570226 1_555
O18 P1 1.570232 1_555
O20 P1 1.570226 1_555
O21 P0 1.570241 1_555
O22 P0 1.570218 1_555
