# generated using pymatgen
data_CaLaMnCrO6
_symmetry_space_group_name_H-M   'P 1'
_cell_length_a   5.45518929
_cell_length_b   5.48937400
_cell_length_c   7.71655054
_cell_angle_alpha   89.99964443
_cell_angle_beta   90.10863337
_cell_angle_gamma   89.99991630
_symmetry_Int_Tables_number   1
_chemical_formula_structural   CaLaMnCrO6
_chemical_formula_sum   'Ca2 La2 Mn2 Cr2 O12'
_cell_volume   231.07612165
_cell_formula_units_Z   2
loop_
 _symmetry_equiv_pos_site_id
 _symmetry_equiv_pos_as_xyz
  1  'x, y, z'
loop_
 _atom_site_type_symbol
 _atom_site_label
 _atom_site_symmetry_multiplicity
 _atom_site_fract_x
 _atom_site_fract_y
 _atom_site_fract_z
 _atom_site_occupancy
  Ca  Ca0  1  0.49067800  0.45863100  0.74999500  1
  Ca  Ca1  1  0.99067800  0.04137600  0.25000300  1
  La  La0  1  0.00632800  0.96936700  0.75005800  1
  La  La1  1  0.50632700  0.53062600  0.25006300  1
  Mn  Mn0  1  0.50034400  0.99999800  0.00056400  1
  Mn  Mn1  1  0.00034400  0.49999800  0.50056800  1
  Cr  Cr0  1  0.50024700  0.99973800  0.49946700  1
  Cr  Cr1  1  0.00024300  0.50025500  0.99947000  1
  O  O0  1  0.07037500  0.48137800  0.25543600  1
  O  O1  1  0.57037300  0.01862800  0.75543500  1
  O  O2  1  0.22294400  0.21266100  0.96253900  1
  O  O3  1  0.72294200  0.28734100  0.46254100  1
  O  O4  1  0.21143400  0.22190900  0.53822500  1
  O  O5  1  0.71143700  0.27809100  0.03822500  1
  O  O6  1  0.29474700  0.71777700  0.95801400  1
  O  O7  1  0.79475000  0.78222400  0.45801400  1
  O  O8  1  0.28254000  0.70725400  0.54138000  1
  O  O9  1  0.78253800  0.79274500  0.04138000  1
  O  O10  1  0.42036400  0.98569600  0.24431200  1
  O  O11  1  0.92036500  0.51430700  0.74431300  1
loop_
_geom_bond_atom_site_label_1
_geom_bond_atom_site_label_2
_geom_bond_distance
_geom_bond_site_symmetry_2
Ca0 O11 2.364354 1_555
Ca0 O8 2.395057 1_555
Ca0 O6 2.397755 1_555
Ca0 O1 2.454500 1_555
Ca0 O2 2.579784 1_555
Ca0 O4 2.582654 1_555
Ca0 O5 2.714608 1_556
Ca0 O3 2.724041 1_555
Ca1 O10 2.364352 1_645
Ca1 O9 2.395142 1_545
Ca1 O7 2.397716 1_545
Ca1 O0 2.454497 1_655
Ca1 O3 2.579755 1_555
Ca1 O5 2.582652 1_555
Ca1 O4 2.714547 1_655
Ca1 O2 2.724092 1_654
La0 O1 2.393978 1_465
La0 O4 2.419222 1_565
La0 O2 2.420962 1_565
La0 O11 2.542003 1_455
La0 O8 2.634932 1_555
La0 O6 2.635972 1_555
La0 O7 2.730617 1_455
La0 O9 2.737572 1_456
La1 O0 2.393954 1_555
La1 O5 2.419246 1_555
La1 O3 2.420903 1_555
La1 O10 2.542055 1_555
La1 O9 2.634962 1_555
La1 O7 2.635997 1_555
La1 O6 2.730658 1_554
La1 O8 2.737553 1_555
Mn0 O1 1.933158 1_564
Mn0 O2 1.933179 1_564
Mn0 O10 1.933235 1_555
Mn0 O5 1.933816 1_565
Mn0 O9 1.939460 1_555
Mn0 O6 1.940210 1_554
Mn1 O3 1.933174 1_455
Mn1 O0 1.933181 1_555
Mn1 O11 1.933214 1_455
Mn1 O4 1.933779 1_555
Mn1 O8 1.939479 1_555
Mn1 O7 1.940222 1_455
Cr0 O3 2.012668 1_565
Cr0 O1 2.013855 1_565
Cr0 O4 2.015168 1_565
Cr0 O10 2.017232 1_555
Cr0 O8 2.023446 1_555
Cr0 O7 2.027562 1_555
Cr1 O2 2.012655 1_555
Cr1 O0 2.013841 1_556
Cr1 O5 2.015112 1_456
Cr1 O11 2.017242 1_455
Cr1 O9 2.023463 1_456
Cr1 O6 2.027596 1_555
