# generated using pymatgen
data_Y5Co19P12
_symmetry_space_group_name_H-M   'P 1'
_cell_length_a   11.89279350
_cell_length_b   11.89255720
_cell_length_c   3.67201388
_cell_angle_alpha   90.00000000
_cell_angle_beta   90.00000000
_cell_angle_gamma   120.00172377
_symmetry_Int_Tables_number   1
_chemical_formula_structural   Y5Co19P12
_chemical_formula_sum   'Y5 Co19 P12'
_cell_volume   449.76590383
_cell_formula_units_Z   1
loop_
 _symmetry_equiv_pos_site_id
 _symmetry_equiv_pos_as_xyz
  1  'x, y, z'
loop_
 _atom_site_type_symbol
 _atom_site_label
 _atom_site_symmetry_multiplicity
 _atom_site_fract_x
 _atom_site_fract_y
 _atom_site_fract_z
 _atom_site_occupancy
  Y  Y0  1  0.33331250  0.66666345  0.50000000  1
  Y  Y1  1  0.66665500  0.33332647  0.50000000  1
  Y  Y2  1  0.00002362  0.18820268  -0.00000000  1
  Y  Y3  1  0.81183055  0.81182416  -0.00000000  1
  Y  Y4  1  0.18820445  -0.00000011  -0.00000000  1
  Co  Co0  1  0.62219619  0.82258847  0.50000000  1
  Co  Co1  1  0.17743617  0.79963581  0.50000000  1
  Co  Co2  1  0.20036315  0.37779653  0.50000000  1
  Co  Co3  1  0.37778855  0.20035117  0.50000000  1
  Co  Co4  1  0.82258461  0.62220186  0.50000000  1
  Co  Co5  1  0.79962312  0.17742186  0.50000000  1
  Co  Co6  1  0.00000977  0.55443102  0.50000000  1
  Co  Co7  1  0.44556417  0.44556865  0.50000000  1
  Co  Co8  1  0.55442043  -0.00000535  0.50000000  1
  Co  Co9  1  0.51594898  0.64056627  -0.00000000  1
  Co  Co10  1  0.35943915  0.87540139  -0.00000000  1
  Co  Co11  1  0.12459805  0.48405038  -0.00000000  1
  Co  Co12  1  0.48404319  0.12459237  -0.00000000  1
  Co  Co13  1  0.64055751  0.51594831  -0.00000000  1
  Co  Co14  1  0.87539375  0.35942944  -0.00000000  1
  Co  Co15  1  0.00000773  0.71530394  -0.00000000  1
  Co  Co16  1  0.28470125  0.28470098  -0.00000000  1
  Co  Co17  1  0.71529682  0.00000325  -0.00000000  1
  Co  Co18  1  0.00000494  -0.00000029  0.50000000  1
  P  P0  1  0.00000516  0.36939180  0.50000000  1
  P  P1  1  0.63060347  0.63061634  0.50000000  1
  P  P2  1  0.36938062  -0.00001634  0.50000000  1
  P  P3  1  0.52104565  0.83337923  0.00000000  1
  P  P4  1  0.16662736  0.68768061  -0.00000000  1
  P  P5  1  0.31231704  0.47895033  -0.00000000  1
  P  P6  1  0.47894149  0.31231228  -0.00000000  1
  P  P7  1  0.83338189  0.52104987  -0.00000000  1
  P  P8  1  0.68767528  0.16662215  -0.00000000  1
  P  P9  1  0.00001333  0.81999091  0.50000000  1
  P  P10  1  0.18001842  0.18000785  0.50000000  1
  P  P11  1  0.81998765  0.00001329  0.50000000  1
loop_
_geom_bond_atom_site_label_1
_geom_bond_atom_site_label_2
_geom_bond_distance
_geom_bond_site_symmetry_2
Co0 P3 2.233583 1_556
Co0 P3 2.233583 1_555
Co0 P11 2.240949 1_565
Co0 P1 2.334641 1_555
Co0 Y3 2.960124 1_555
Co0 Y3 2.960124 1_556
Co0 Y0 2.978421 1_555
Co1 P4 2.233607 1_555
Co1 P4 2.233607 1_556
Co1 P9 2.240924 1_555
Co1 P2 2.334245 1_565
Co1 Y4 2.959743 1_566
Co1 Y4 2.959743 1_565
Co1 Y0 2.978101 1_555
Co2 P5 2.233616 1_556
Co2 P5 2.233616 1_555
Co2 P10 2.241046 1_555
Co2 P0 2.334442 1_555
Co2 Y2 2.959588 1_556
Co2 Y2 2.959588 1_555
Co2 Y0 2.978199 1_555
Co3 P6 2.233638 1_556
Co3 P6 2.233638 1_555
Co3 P10 2.240882 1_555
Co3 P2 2.334489 1_555
Co3 Y4 2.959601 1_556
Co3 Y4 2.959601 1_555
Co3 Y1 2.978242 1_555
Co4 P7 2.233605 1_555
Co4 P7 2.233605 1_556
Co4 P9 2.240942 1_655
Co4 P1 2.334838 1_555
Co4 Y3 2.959926 1_556
Co4 Y3 2.959926 1_555
Co4 Y1 2.978285 1_555
Co5 P8 2.233599 1_555
Co5 P8 2.233599 1_556
Co5 P11 2.240781 1_555
Co5 P0 2.334607 1_655
Co5 Y2 2.960067 1_655
Co5 Y2 2.960067 1_656
Co5 Y1 2.978351 1_555
Co6 P0 2.200562 1_555
Co6 P4 2.582321 1_555
Co6 P4 2.582321 1_556
Co6 P7 2.582402 1_455
Co6 P7 2.582402 1_456
Co7 P1 2.200605 1_555
Co7 P5 2.582417 1_555
Co7 P5 2.582417 1_556
Co7 P6 2.582451 1_556
Co7 P6 2.582451 1_555
Co8 P2 2.200575 1_555
Co8 P3 2.582288 1_545
Co8 P3 2.582288 1_546
Co8 P8 2.582379 1_555
Co8 P8 2.582379 1_556
Co9 P5 2.214533 1_555
Co9 P3 2.263340 1_555
Co9 P1 2.324991 1_555
Co9 P1 2.324991 1_554
Co9 Y0 2.976448 1_554
Co9 Y0 2.976448 1_555
Co9 Y3 3.059947 1_555
Co10 P3 2.214543 1_555
Co10 P4 2.263325 1_555
Co10 P2 2.324836 1_564
Co10 P2 2.324836 1_565
Co10 Y0 2.976330 1_554
Co10 Y0 2.976330 1_555
Co10 Y4 3.059518 1_565
Co11 P4 2.214468 1_555
Co11 P5 2.263441 1_555
Co11 P0 2.324926 1_554
Co11 P0 2.324926 1_555
Co11 Y0 2.976190 1_555
Co11 Y0 2.976190 1_554
Co11 Y2 3.059591 1_555
Co12 P8 2.214538 1_555
Co12 P6 2.263418 1_555
Co12 P2 2.325001 1_554
Co12 P2 2.325001 1_555
Co12 Y1 2.976285 1_555
Co12 Y1 2.976285 1_554
Co12 Y4 3.059541 1_555
Co13 P6 2.214546 1_555
Co13 P7 2.263494 1_555
Co13 P1 2.325091 1_554
Co13 P1 2.325091 1_555
Co13 Y1 2.976283 1_555
Co13 Y1 2.976283 1_554
Co13 Y3 3.059854 1_555
Co14 P7 2.214594 1_555
Co14 P8 2.263281 1_555
Co14 P0 2.325000 1_654
Co14 P0 2.325000 1_655
Co14 Y1 2.976466 1_555
Co14 Y1 2.976466 1_554
Co14 Y2 3.059725 1_655
Co15 P4 2.164614 1_555
Co15 P7 2.164636 1_455
Co15 P9 2.218300 1_554
Co15 P9 2.218300 1_555
Co15 Y4 2.982365 1_565
Co15 Y3 2.982458 1_455
Co16 P6 2.164626 1_555
Co16 P5 2.164666 1_555
Co16 P10 2.218314 1_554
Co16 P10 2.218314 1_555
Co16 Y2 2.982250 1_555
Co16 Y4 2.982448 1_555
Co17 P8 2.164558 1_555
Co17 P3 2.164620 1_545
Co17 P11 2.218324 1_555
Co17 P11 2.218324 1_554
Co17 Y3 2.982577 1_545
Co17 Y2 2.982693 1_655
Co18 P10 2.140754 1_555
Co18 P9 2.140815 1_545
Co18 P11 2.140989 1_455
Co18 Y3 2.894628 1_445
Co18 Y3 2.894628 1_446
Co18 Y2 2.894828 1_555
Co18 Y2 2.894828 1_556
Co18 Y4 2.894916 1_555
Co18 Y4 2.894916 1_556
P0 Y2 2.831001 1_555
P0 Y2 2.831001 1_556
P1 Y3 2.831147 1_556
P1 Y3 2.831147 1_555
P2 Y4 2.830906 1_555
P2 Y4 2.830906 1_556
P3 Y0 2.803543 1_555
P3 Y0 2.803543 1_554
P4 Y0 2.803324 1_555
P4 Y0 2.803324 1_554
P5 Y0 2.803459 1_554
P5 Y0 2.803459 1_555
P6 Y1 2.803429 1_555
P6 Y1 2.803429 1_554
P7 Y1 2.803525 1_554
P7 Y1 2.803525 1_555
P8 Y1 2.803484 1_554
P8 Y1 2.803484 1_555
P9 Y4 2.858573 1_565
P9 Y4 2.858573 1_566
P9 Y3 2.858620 1_456
P9 Y3 2.858620 1_455
P10 Y2 2.858565 1_556
P10 Y2 2.858565 1_555
P10 Y4 2.858611 1_556
P10 Y4 2.858611 1_555
P11 Y2 2.858676 1_655
P11 Y2 2.858676 1_656
P11 Y3 2.858684 1_546
P11 Y3 2.858684 1_545
