# generated using pymatgen
data_EuS2
_symmetry_space_group_name_H-M   'P 1'
_cell_length_a   3.89939200
_cell_length_b   3.89939200
_cell_length_c   8.58697900
_cell_angle_alpha   90.00000000
_cell_angle_beta   90.00000000
_cell_angle_gamma   90.00000000
_symmetry_Int_Tables_number   1
_chemical_formula_structural   EuS2
_chemical_formula_sum   'Eu2 S4'
_cell_volume   130.56723088
_cell_formula_units_Z   2
loop_
 _symmetry_equiv_pos_site_id
 _symmetry_equiv_pos_as_xyz
  1  'x, y, z'
loop_
 _atom_site_type_symbol
 _atom_site_label
 _atom_site_symmetry_multiplicity
 _atom_site_fract_x
 _atom_site_fract_y
 _atom_site_fract_z
 _atom_site_occupancy
  Eu  Eu0  1  0.00000000  0.50000000  0.71304100  1
  Eu  Eu1  1  0.50000000  0.00000000  0.28695900  1
  S  S0  1  0.00000000  0.00000000  0.00000000  1
  S  S1  1  0.50000000  0.50000000  0.00000000  1
  S  S2  1  0.00000000  0.50000000  0.36544200  1
  S  S3  1  0.50000000  0.00000000  0.63455800  1
loop_
_geom_bond_atom_site_label_1
_geom_bond_atom_site_label_2
_geom_bond_distance
_geom_bond_site_symmetry_2
Eu0 S3 2.838453 1_565
Eu0 S3 2.838453 1_455
Eu0 S3 2.838453 1_465
Eu0 S3 2.838453 1_555
Eu0 S2 2.984825 1_555
Eu0 S1 3.142158 1_556
Eu0 S1 3.142158 1_456
Eu0 S0 3.142158 1_556
Eu0 S0 3.142158 1_566
Eu1 S2 2.838453 1_555
Eu1 S2 2.838453 1_545
Eu1 S2 2.838453 1_655
Eu1 S2 2.838453 1_645
Eu1 S3 2.984825 1_555
Eu1 S1 3.142158 1_545
Eu1 S1 3.142158 1_555
Eu1 S0 3.142158 1_555
Eu1 S0 3.142158 1_655
S0 S1 2.757287 1_555
S0 S1 2.757287 1_545
S0 S1 2.757287 1_445
S0 S1 2.757287 1_455
