# generated using pymatgen
data_Te6Mo3WS2
_symmetry_space_group_name_H-M   'P 1'
_cell_length_a   3.45745537
_cell_length_b   3.45745537
_cell_length_c   39.26373300
_cell_angle_alpha   90.00000000
_cell_angle_beta   90.00000000
_cell_angle_gamma   119.99998793
_symmetry_Int_Tables_number   1
_chemical_formula_structural   Te6Mo3WS2
_chemical_formula_sum   'Te6 Mo3 W1 S2'
_cell_volume   406.47649560
_cell_formula_units_Z   1
loop_
 _symmetry_equiv_pos_site_id
 _symmetry_equiv_pos_as_xyz
  1  'x, y, z'
loop_
 _atom_site_type_symbol
 _atom_site_label
 _atom_site_symmetry_multiplicity
 _atom_site_fract_x
 _atom_site_fract_y
 _atom_site_fract_z
 _atom_site_occupancy
  Te  Te0  1  0.33333300  0.66666700  0.32886600  1
  Te  Te1  1  0.33333300  0.66666700  0.70487600  1
  Te  Te2  1  0.66666700  0.33333300  0.42250800  1
  Te  Te3  1  0.66666700  0.33333300  0.51663200  1
  Te  Te4  1  0.33333300  0.66666700  0.23417900  1
  Te  Te5  1  0.33333300  0.66666700  0.61069900  1
  Mo  Mo0  1  0.33333300  0.66666700  0.09403100  1
  Mo  Mo1  1  0.33333300  0.66666700  0.46957000  1
  Mo  Mo2  1  0.66666700  0.33333300  0.65780200  1
  W  W0  1  0.66666700  0.33333300  0.28151300  1
  S  S0  1  0.66666700  0.33333300  0.05611800  1
  S  S1  1  0.66666700  0.33333300  0.13195400  1
loop_
_geom_bond_atom_site_label_1
_geom_bond_atom_site_label_2
_geom_bond_distance
_geom_bond_site_symmetry_2
Te0 W0 2.727909 1_455
Te0 W0 2.727909 1_565
Te0 W0 2.727914 1_555
Te4 W0 2.727401 1_455
Te4 W0 2.727401 1_565
Te4 W0 2.727405 1_555
Mo0 S0 2.490102 1_565
Mo0 S0 2.490102 1_455
Mo0 S0 2.490106 1_555
Mo0 S1 2.490336 1_455
Mo0 S1 2.490336 1_565
Mo0 S1 2.490341 1_555
Mo1 Te3 2.720135 1_455
Mo1 Te3 2.720135 1_565
Mo1 Te2 2.720135 1_565
Mo1 Te2 2.720135 1_455
Mo1 Te3 2.720139 1_555
Mo1 Te2 2.720139 1_555
Mo2 Te1 2.720455 1_545
Mo2 Te1 2.720455 1_655
Mo2 Te1 2.720459 1_555
Mo2 Te5 2.721229 1_545
Mo2 Te5 2.721229 1_655
Mo2 Te5 2.721233 1_555
