# generated using pymatgen
data_Mg(SnN)2
_symmetry_space_group_name_H-M   'P 1'
_cell_length_a   3.36054900
_cell_length_b   3.36054900
_cell_length_c   8.18839400
_cell_angle_alpha   90.00000000
_cell_angle_beta   90.00000000
_cell_angle_gamma   90.00000000
_symmetry_Int_Tables_number   1
_chemical_formula_structural   Mg(SnN)2
_chemical_formula_sum   'Mg1 Sn2 N2'
_cell_volume   92.47390465
_cell_formula_units_Z   1
loop_
 _symmetry_equiv_pos_site_id
 _symmetry_equiv_pos_as_xyz
  1  'x, y, z'
loop_
 _atom_site_type_symbol
 _atom_site_label
 _atom_site_symmetry_multiplicity
 _atom_site_fract_x
 _atom_site_fract_y
 _atom_site_fract_z
 _atom_site_occupancy
  Mg  Mg0  1  0.50000000  0.50000000  0.00000000  1
  Sn  Sn0  1  0.00000000  0.00000000  0.69213700  1
  Sn  Sn1  1  0.00000000  0.00000000  0.30786300  1
  N  N0  1  0.00000000  0.50000000  0.15269800  1
  N  N1  1  0.50000000  0.00000000  0.84730200  1
loop_
_geom_bond_atom_site_label_1
_geom_bond_atom_site_label_2
_geom_bond_distance
_geom_bond_site_symmetry_2
Mg0 N0 2.094445 1_555
Mg0 N1 2.094445 1_564
Mg0 N1 2.094445 1_554
Mg0 N0 2.094445 1_655
N0 Sn1 2.106567 1_555
N0 Sn1 2.106567 1_565
N1 Sn0 2.106567 1_555
N1 Sn0 2.106567 1_655
