# generated using pymatgen
data_BaLiAl3P2(HO7)2
_symmetry_space_group_name_H-M   'P 1'
_cell_length_a   7.15950086
_cell_length_b   7.15919346
_cell_length_c   7.63330181
_cell_angle_alpha   61.52845411
_cell_angle_beta   118.54796417
_cell_angle_gamma   124.96777081
_symmetry_Int_Tables_number   1
_chemical_formula_structural   BaLiAl3P2(HO7)2
_chemical_formula_sum   'Ba1 Li1 Al3 P2 H2 O14'
_cell_volume   270.22885701
_cell_formula_units_Z   1
loop_
 _symmetry_equiv_pos_site_id
 _symmetry_equiv_pos_as_xyz
  1  'x, y, z'
loop_
 _atom_site_type_symbol
 _atom_site_label
 _atom_site_symmetry_multiplicity
 _atom_site_fract_x
 _atom_site_fract_y
 _atom_site_fract_z
 _atom_site_occupancy
  Ba  Ba0  1  0.00030400  0.99590000  0.99239800  1
  Li  Li0  1  0.45624800  0.53490900  0.75811800  1
  Al  Al0  1  0.99613300  0.99545300  0.48267700  1
  Al  Al1  1  0.50112900  0.00089200  0.48878000  1
  Al  Al2  1  0.99318100  0.49286900  0.48704400  1
  P  P0  1  0.28010200  0.71241100  0.86385300  1
  P  P1  1  0.71461400  0.27591400  0.12096500  1
  H  H0  1  0.32934400  0.66629100  0.34153900  1
  H  H1  1  0.67571800  0.32099200  0.64488400  1
  O  O0  1  0.34844200  0.64239700  0.09562700  1
  O  O1  1  0.63010000  0.35716700  0.88489500  1
  O  O2  1  0.13376800  0.85591800  0.75726200  1
  O  O3  1  0.85728100  0.13249500  0.20612500  1
  O  O4  1  0.13586400  0.48890400  0.77415600  1
  O  O5  1  0.50458000  0.85879300  0.77525800  1
  O  O6  1  0.49512400  0.11660900  0.21056100  1
  O  O7  1  0.87552300  0.49698200  0.20902000  1
  O  O8  1  0.32001900  0.67430000  0.46327600  1
  O  O9  1  0.68774300  0.30713800  0.52890400  1
  O  O10  1  0.78945300  0.97140500  0.58385400  1
  O  O11  1  0.02309100  0.20469400  0.58282600  1
  O  O12  1  0.97665500  0.78410300  0.39153800  1
  O  O13  1  0.20968100  0.01732400  0.39286800  1
loop_
_geom_bond_atom_site_label_1
_geom_bond_atom_site_label_2
_geom_bond_distance
_geom_bond_site_symmetry_2
Ba0 O12 2.721143 1_456
Ba0 O13 2.723784 1_566
Ba0 O10 2.784476 1_455
Ba0 O11 2.790619 1_565
Ba0 O4 2.861370 1_565
Ba0 O5 2.870991 1_455
Ba0 O6 2.880047 1_566
Ba0 O7 2.900603 1_456
Ba0 O3 2.988652 1_466
Ba0 O2 3.096896 1_555
Li0 O1 1.896073 1_555
Li0 O8 1.971955 1_555
Li0 O4 2.179205 1_555
Li0 O5 2.199939 1_555
Al0 O13 1.859313 1_665
Al0 O12 1.860630 1_555
Al0 O11 1.866839 1_665
Al0 O10 1.867941 1_555
Al0 O2 1.876171 1_655
Al0 O3 1.882720 1_565
Al1 O6 1.863993 1_555
Al1 O9 1.891377 1_555
Al1 O13 1.908654 1_555
Al1 O5 1.916669 1_545
Al1 O10 1.937515 1_545
Al1 O8 1.975784 1_545
Al2 O7 1.864011 1_555
Al2 O9 1.892619 1_555
Al2 O12 1.908867 1_555
Al2 O4 1.918749 1_655
Al2 O11 1.937879 1_655
Al2 O8 1.973030 1_655
H0 O8 0.992847 1_555
H1 O9 0.983555 1_555
O0 P0 1.492965 1_554
O1 P1 1.521039 1_556
O2 P0 1.561153 1_555
O3 P1 1.565645 1_555
O4 P0 1.603234 1_555
O5 P0 1.603459 1_555
O6 P1 1.570706 1_555
O7 P1 1.571006 1_555
O12 O13 1.542186 1_665
