# generated using pymatgen
data_Gd3Er
_symmetry_space_group_name_H-M   'P 1'
_cell_length_a   5.14561346
_cell_length_b   5.14575406
_cell_length_c   5.14556675
_cell_angle_alpha   90.00000000
_cell_angle_beta   90.00000000
_cell_angle_gamma   90.00000000
_symmetry_Int_Tables_number   1
_chemical_formula_structural   Gd3Er
_chemical_formula_sum   'Gd3 Er1'
_cell_volume   136.24463210
_cell_formula_units_Z   1
loop_
 _symmetry_equiv_pos_site_id
 _symmetry_equiv_pos_as_xyz
  1  'x, y, z'
loop_
 _atom_site_type_symbol
 _atom_site_label
 _atom_site_symmetry_multiplicity
 _atom_site_fract_x
 _atom_site_fract_y
 _atom_site_fract_z
 _atom_site_occupancy
  Gd  Gd0  1  0.00000000  0.50000000  0.50000000  1
  Gd  Gd1  1  0.50000000  -0.00000000  0.50000000  1
  Gd  Gd2  1  0.50000000  0.50000000  -0.00000000  1
  Er  Er0  1  0.00000000  -0.00000000  -0.00000000  1
loop_
_geom_bond_atom_site_label_1
_geom_bond_atom_site_label_2
_geom_bond_distance
_geom_bond_site_symmetry_2
Gd0 Gd2 3.638482 1_455
Gd0 Gd2 3.638482 1_456
Gd0 Gd2 3.638482 1_555
Gd0 Gd2 3.638482 1_556
Gd0 Gd1 3.638548 1_565
Gd0 Gd1 3.638548 1_455
Gd0 Gd1 3.638548 1_465
Gd0 Gd1 3.638548 1_555
Gd1 Gd2 3.638531 1_545
Gd1 Gd2 3.638531 1_555
Gd1 Gd2 3.638531 1_556
Gd1 Gd2 3.638531 1_546
Er0 Gd1 3.638482 1_454
Er0 Gd1 3.638482 1_554
Er0 Gd1 3.638482 1_455
Er0 Gd1 3.638482 1_555
Er0 Gd0 3.638531 1_544
Er0 Gd0 3.638531 1_545
Er0 Gd0 3.638531 1_555
Er0 Gd0 3.638531 1_554
Er0 Gd2 3.638548 1_545
Er0 Gd2 3.638548 1_445
Er0 Gd2 3.638548 1_455
Er0 Gd2 3.638548 1_555
