# generated using pymatgen
data_Er3Ga8Rh3
_symmetry_space_group_name_H-M   'P 1'
_cell_length_a   8.12823789
_cell_length_b   8.12823789
_cell_length_c   8.12823789
_cell_angle_alpha   150.10398995
_cell_angle_beta   105.21952524
_cell_angle_gamma   82.56221885
_symmetry_Int_Tables_number   1
_chemical_formula_structural   Er3Ga8Rh3
_chemical_formula_sum   'Er3 Ga8 Rh3'
_cell_volume   252.84305015
_cell_formula_units_Z   1
loop_
 _symmetry_equiv_pos_site_id
 _symmetry_equiv_pos_as_xyz
  1  'x, y, z'
loop_
 _atom_site_type_symbol
 _atom_site_label
 _atom_site_symmetry_multiplicity
 _atom_site_fract_x
 _atom_site_fract_y
 _atom_site_fract_z
 _atom_site_occupancy
  Er  Er0  1  0.50000000  0.50000000  0.00000000  1
  Er  Er1  1  0.17200900  0.17200900  0.00000000  1
  Er  Er2  1  0.82799100  0.82799100  0.00000000  1
  Ga  Ga0  1  0.09036600  0.37523100  0.71513500  1
  Ga  Ga1  1  0.90963400  0.62476900  0.28486500  1
  Ga  Ga2  1  0.66009700  0.37523100  0.28486500  1
  Ga  Ga3  1  0.33990300  0.62476900  0.71513500  1
  Ga  Ga4  1  0.79344000  0.16540500  0.62803500  1
  Ga  Ga5  1  0.20656000  0.83459500  0.37196500  1
  Ga  Ga6  1  0.53737000  0.16540500  0.37196500  1
  Ga  Ga7  1  0.46263000  0.83459500  0.62803500  1
  Rh  Rh0  1  0.00000000  0.50000000  0.50000000  1
  Rh  Rh1  1  0.78633200  0.00000000  0.78633200  1
  Rh  Rh2  1  0.21366800  0.00000000  0.21366800  1
loop_
_geom_bond_atom_site_label_1
_geom_bond_atom_site_label_2
_geom_bond_distance
_geom_bond_site_symmetry_2
Er0 Ga5 3.174325 1_555
Er0 Ga5 3.174325 1_544
Er0 Ga4 3.174325 1_554
Er0 Ga6 3.174325 1_565
Er0 Ga7 3.174325 1_544
Er0 Ga7 3.174325 1_555
Er0 Ga6 3.174325 1_554
Er0 Ga4 3.174325 1_565
Er0 Ga1 3.198598 1_555
Er0 Ga0 3.198598 1_554
Er0 Ga2 3.198599 1_555
Er0 Ga3 3.198599 1_554
Er1 Rh0 2.968405 1_555
Er1 Rh0 2.968405 1_544
Er1 Rh2 2.977336 1_555
Er1 Rh1 2.977336 1_454
Er1 Ga3 3.039578 1_544
Er1 Ga3 3.039581 1_555
Er1 Ga1 3.039582 1_444
Er1 Ga1 3.039582 1_455
Er1 Ga5 3.152515 1_555
Er1 Ga7 3.152515 1_555
Er1 Ga7 3.152515 1_544
Er1 Ga5 3.152515 1_544
Er2 Rh0 2.968405 1_654
Er2 Rh0 2.968405 1_665
Er2 Rh2 2.977336 1_665
Er2 Rh1 2.977336 1_564
Er2 Ga2 3.039578 1_565
Er2 Ga2 3.039581 1_554
Er2 Ga0 3.039582 1_654
Er2 Ga0 3.039582 1_665
Er2 Ga4 3.152515 1_554
Er2 Ga4 3.152515 1_565
Er2 Ga6 3.152515 1_554
Er2 Ga6 3.152515 1_565
Ga0 Rh2 2.592161 1_566
Ga0 Rh2 2.592161 1_555
Ga0 Rh0 2.614095 1_555
Ga0 Ga5 2.653120 1_556
Ga0 Ga5 2.653120 1_545
Ga0 Ga4 2.703688 1_455
Ga1 Rh1 2.592161 1_565
Ga1 Rh1 2.592161 1_554
Ga1 Rh0 2.614095 1_655
Ga1 Ga4 2.653120 1_565
Ga1 Ga4 2.653120 1_554
Ga1 Ga5 2.703688 1_655
Ga2 Rh1 2.592156 1_554
Ga2 Rh1 2.592159 1_565
Ga2 Rh0 2.614088 1_655
Ga2 Ga7 2.653123 1_544
Ga2 Ga7 2.653126 1_555
Ga2 Ga6 2.703693 1_555
Ga3 Rh2 2.592156 1_566
Ga3 Rh2 2.592159 1_555
Ga3 Rh0 2.614088 1_555
Ga3 Ga6 2.653123 1_566
Ga3 Ga6 2.653126 1_555
Ga3 Ga7 2.703693 1_555
Ga4 Ga6 2.527818 1_555
Ga4 Rh1 2.554393 1_555
Ga5 Ga7 2.527818 1_555
Ga5 Rh2 2.554393 1_565
Ga6 Rh2 2.554393 1_555
Ga7 Rh1 2.554393 1_565
