# generated using pymatgen
data_Mn3CoAs2
_symmetry_space_group_name_H-M   'P 1'
_cell_length_a   3.68928100
_cell_length_b   3.68928100
_cell_length_c   6.13688300
_cell_angle_alpha   90.00000000
_cell_angle_beta   90.00000000
_cell_angle_gamma   90.00000000
_symmetry_Int_Tables_number   1
_chemical_formula_structural   Mn3CoAs2
_chemical_formula_sum   'Mn3 Co1 As2'
_cell_volume   83.52785214
_cell_formula_units_Z   1
loop_
 _symmetry_equiv_pos_site_id
 _symmetry_equiv_pos_as_xyz
  1  'x, y, z'
loop_
 _atom_site_type_symbol
 _atom_site_label
 _atom_site_symmetry_multiplicity
 _atom_site_fract_x
 _atom_site_fract_y
 _atom_site_fract_z
 _atom_site_occupancy
  Mn  Mn0  1  0.00000000  0.00000000  0.00000000  1
  Mn  Mn1  1  0.50000000  0.00000000  0.67562500  1
  Mn  Mn2  1  0.00000000  0.50000000  0.32437500  1
  Co  Co0  1  0.50000000  0.50000000  0.00000000  1
  As  As0  1  0.50000000  0.00000000  0.26714100  1
  As  As1  1  0.00000000  0.50000000  0.73285900  1
loop_
_geom_bond_atom_site_label_1
_geom_bond_atom_site_label_2
_geom_bond_distance
_geom_bond_site_symmetry_2
Co0 Mn0 2.608716 1_565
Co0 Mn0 2.608716 1_655
Co0 Mn0 2.608716 1_665
Co0 Mn0 2.608716 1_555
Co0 Mn2 2.713926 1_655
Co0 Mn2 2.713926 1_555
Co0 Mn1 2.713926 1_564
Co0 Mn1 2.713926 1_554
As0 Mn0 2.467868 1_655
As0 Co0 2.467868 1_545
As0 Mn0 2.467868 1_555
As0 Co0 2.467868 1_555
As0 Mn1 2.506819 1_555
As0 Mn2 2.632255 1_555
As0 Mn2 2.632255 1_545
As0 Mn2 2.632255 1_655
As0 Mn2 2.632255 1_645
As1 Co0 2.467868 1_556
As1 Mn0 2.467868 1_556
As1 Co0 2.467868 1_456
As1 Mn0 2.467868 1_566
As1 Mn2 2.506819 1_555
As1 Mn1 2.632255 1_555
As1 Mn1 2.632255 1_465
As1 Mn1 2.632255 1_565
As1 Mn1 2.632255 1_455
