# generated using pymatgen
data_Sm2InNi2
_symmetry_space_group_name_H-M   'P 1'
_cell_length_a   3.78699886
_cell_length_b   3.90664495
_cell_length_c   7.44311358
_cell_angle_alpha   105.21451159
_cell_angle_beta   90.00000000
_cell_angle_gamma   90.00000000
_symmetry_Int_Tables_number   1
_chemical_formula_structural   Sm2InNi2
_chemical_formula_sum   'Sm2 In1 Ni2'
_cell_volume   106.25725685
_cell_formula_units_Z   1
loop_
 _symmetry_equiv_pos_site_id
 _symmetry_equiv_pos_as_xyz
  1  'x, y, z'
loop_
 _atom_site_type_symbol
 _atom_site_label
 _atom_site_symmetry_multiplicity
 _atom_site_fract_x
 _atom_site_fract_y
 _atom_site_fract_z
 _atom_site_occupancy
  Sm  Sm0  1  0.50000000  0.63656383  0.27312667  1
  Sm  Sm1  1  0.50000000  0.36343617  0.72687333  1
  In  In0  1  0.00000000  0.00000000  0.00000000  1
  Ni  Ni0  1  -0.00000000  0.79891297  0.59782794  1
  Ni  Ni1  1  -0.00000000  0.20108703  0.40217206  1
loop_
_geom_bond_atom_site_label_1
_geom_bond_atom_site_label_2
_geom_bond_distance
_geom_bond_site_symmetry_2
In0 Ni0 2.888493 1_544
In0 Ni1 2.888493 1_555
In0 Sm0 3.353939 1_445
In0 Sm0 3.353939 1_545
In0 Sm1 3.353939 1_554
In0 Sm1 3.353939 1_454
In0 Sm1 3.353941 1_444
In0 Sm1 3.353941 1_544
In0 Sm0 3.353941 1_455
In0 Sm0 3.353941 1_555
Ni0 Ni1 2.406274 1_555
Ni0 Ni1 2.406287 1_565
Ni0 Sm1 2.873991 1_555
Ni0 Sm1 2.873991 1_455
Ni0 Sm1 2.873993 1_565
Ni0 Sm1 2.873993 1_465
Ni0 Sm0 3.003987 1_455
Ni0 Sm0 3.003987 1_555
Ni1 Sm0 2.873991 1_455
Ni1 Sm0 2.873991 1_555
Ni1 Sm0 2.873993 1_445
Ni1 Sm0 2.873993 1_545
Ni1 Sm1 3.003987 1_555
Ni1 Sm1 3.003987 1_455
