# generated using pymatgen
data_Ca2ZnGa3
_symmetry_space_group_name_H-M   'P 1'
_cell_length_a   5.73439551
_cell_length_b   5.73439551
_cell_length_c   7.32896742
_cell_angle_alpha   50.56146113
_cell_angle_beta   50.56146113
_cell_angle_gamma   45.81672854
_symmetry_Int_Tables_number   1
_chemical_formula_structural   Ca2ZnGa3
_chemical_formula_sum   'Ca2 Zn1 Ga3'
_cell_volume   125.15103645
_cell_formula_units_Z   1
loop_
 _symmetry_equiv_pos_site_id
 _symmetry_equiv_pos_as_xyz
  1  'x, y, z'
loop_
 _atom_site_type_symbol
 _atom_site_label
 _atom_site_symmetry_multiplicity
 _atom_site_fract_x
 _atom_site_fract_y
 _atom_site_fract_z
 _atom_site_occupancy
  Ca  Ca0  1  0.45808219  0.45808219  0.79209152  1
  Ca  Ca1  1  0.54317094  0.54317094  0.20799813  1
  Zn  Zn0  1  0.83311463  0.83311463  0.60597549  1
  Ga  Ga0  1  0.16002364  0.16002364  0.39711084  1
  Ga  Ga1  1  0.16524052  0.16524052  0.77884633  1
  Ga  Ga2  1  0.84036807  0.84036807  0.21797769  1
loop_
_geom_bond_atom_site_label_1
_geom_bond_atom_site_label_2
_geom_bond_distance
_geom_bond_site_symmetry_2
Ca0 Ga0 3.065232 1_655
Ca0 Ga0 3.065232 1_565
Ca0 Ga1 3.080316 1_655
Ca0 Ga1 3.080316 1_565
Ca0 Ga1 3.161375 1_555
Ca0 Zn0 3.178602 1_555
Ca0 Ga0 3.212281 1_556
Ca0 Ga2 3.252123 1_555
Ca0 Ga2 3.304209 1_456
Ca0 Ga2 3.304209 1_546
Ca0 Zn0 3.327136 1_455
Ca0 Zn0 3.327136 1_545
Ca1 Ga2 3.059719 1_545
Ca1 Ga2 3.059719 1_455
Ca1 Zn0 3.080081 1_455
Ca1 Zn0 3.080081 1_545
Ca1 Ga2 3.190539 1_555
Ca1 Zn0 3.195158 1_554
Ca1 Ga1 3.225643 1_555
Ca1 Ga0 3.250638 1_555
Ca1 Ga0 3.284409 1_565
Ca1 Ga0 3.284409 1_655
Ca1 Ga1 3.308122 1_564
Ca1 Ga1 3.308122 1_654
Ga0 Ga2 2.624115 1_455
Ga0 Ga2 2.624115 1_545
Ga0 Zn0 2.641688 1_445
Ga0 Ga1 2.836016 1_555
Ga1 Zn0 2.575611 1_455
Ga1 Zn0 2.575611 1_545
Ga1 Ga2 2.627124 1_446
Ga2 Zn0 2.791330 1_555
