# generated using pymatgen
data_MnGeRh
_symmetry_space_group_name_H-M   'P 1'
_cell_length_a   7.43503576
_cell_length_b   7.43391320
_cell_length_c   7.43509086
_cell_angle_alpha   127.71866828
_cell_angle_beta   122.31448724
_cell_angle_gamma   81.58407593
_symmetry_Int_Tables_number   1
_chemical_formula_structural   MnGeRh
_chemical_formula_sum   'Mn6 Ge6 Rh6'
_cell_volume   264.50095403
_cell_formula_units_Z   6
loop_
 _symmetry_equiv_pos_site_id
 _symmetry_equiv_pos_as_xyz
  1  'x, y, z'
loop_
 _atom_site_type_symbol
 _atom_site_label
 _atom_site_symmetry_multiplicity
 _atom_site_fract_x
 _atom_site_fract_y
 _atom_site_fract_z
 _atom_site_occupancy
  Mn  Mn0  1  0.94365632  0.99194660  0.54831783  1
  Mn  Mn1  1  0.05630808  0.60480933  0.04841707  1
  Mn  Mn2  1  0.53325603  0.55957780  0.52629649  1
  Mn  Mn3  1  0.46672517  0.99283659  0.02605710  1
  Mn  Mn4  1  0.74286378  0.39790101  0.15522574  1
  Mn  Mn5  1  0.25703402  0.41229402  0.65508506  1
  Ge  Ge0  1  0.72479484  0.97410870  0.74944453  1
  Ge  Ge1  1  0.83684581  0.32990017  0.50134484  1
  Ge  Ge2  1  0.16310044  0.66439517  0.49299934  1
  Ge  Ge3  1  0.27527479  0.02465075  0.24922259  1
  Ge  Ge4  1  0.32861270  0.32989491  0.99301001  1
  Ge  Ge5  1  0.67148090  0.66435337  0.00142749  1
  Rh  Rh0  1  0.99999422  0.74090381  0.74089491  1
  Rh  Rh1  1  0.50003005  0.74094631  0.24098830  1
  Rh  Rh2  1  0.34098757  0.00037049  0.59741286  1
  Rh  Rh3  1  0.09714615  0.25644980  0.09744726  1
  Rh  Rh4  1  0.90293851  0.00043348  0.15933035  1
  Rh  Rh5  1  0.65894964  0.25642568  0.65927720  1
loop_
_geom_bond_atom_site_label_1
_geom_bond_atom_site_label_2
_geom_bond_distance
_geom_bond_site_symmetry_2
Mn0 Rh3 2.773205 1_666
Mn0 Rh5 2.773309 1_565
Mn0 Rh2 2.781651 1_665
Mn0 Rh4 2.782405 1_565
Mn0 Rh0 2.847436 1_555
Mn0 Rh1 2.847628 1_555
Mn1 Rh4 2.772395 1_465
Mn1 Rh2 2.772524 1_565
Mn1 Rh3 2.781745 1_555
Mn1 Rh5 2.781949 1_454
Mn1 Rh0 2.847746 1_454
Mn1 Rh1 2.848230 1_555
Mn2 Rh5 2.837546 1_555
Mn2 Rh3 2.837638 1_555
Mn2 Rh1 3.036531 1_555
Mn2 Rh0 3.036962 1_555
Mn3 Rh2 2.837572 1_564
Mn3 Rh4 2.837788 1_565
Mn3 Rh0 3.036867 1_454
Mn3 Rh1 3.037099 1_555
Mn4 Rh0 2.838872 1_555
Mn4 Rh1 2.839569 1_555
Mn4 Rh3 2.841668 1_655
Mn4 Rh5 2.842486 1_554
Mn4 Rh4 3.031506 1_555
Mn4 Rh2 3.033350 1_554
Mn5 Rh0 2.838473 1_455
Mn5 Rh1 2.839921 1_556
Mn5 Rh4 2.840379 1_455
Mn5 Rh2 2.840882 1_555
Mn5 Rh3 3.033447 1_555
Mn5 Rh5 3.033865 1_555
Ge0 Rh4 2.471986 1_566
Ge0 Rh2 2.473318 1_565
Ge0 Rh0 2.482335 1_555
Ge0 Rh3 2.482352 1_666
Ge0 Rh5 2.482667 1_565
Ge0 Rh1 2.482852 1_555
Ge0 Mn2 2.603769 1_555
Ge0 Mn4 2.665767 1_566
Ge0 Mn0 2.794477 1_555
Ge1 Rh4 2.463668 1_555
Ge1 Rh5 2.466446 1_555
Ge1 Rh0 2.468899 1_555
Ge1 Mn4 2.632899 1_555
Ge1 Mn2 2.641328 1_555
Ge1 Mn1 2.663264 1_656
Ge1 Mn3 2.669517 1_545
Ge1 Mn0 2.693961 1_545
Ge1 Mn5 2.706910 1_655
Ge2 Rh3 2.463164 1_555
Ge2 Rh2 2.467134 1_565
Ge2 Rh0 2.469082 1_455
Ge2 Mn5 2.633023 1_555
Ge2 Mn3 2.640648 1_556
Ge2 Mn0 2.662611 1_455
Ge2 Mn2 2.668799 1_555
Ge2 Mn1 2.694145 1_555
Ge2 Mn4 2.707245 1_455
Ge3 Rh3 2.471878 1_555
Ge3 Rh5 2.472707 1_555
Ge3 Rh0 2.482269 1_444
Ge3 Rh4 2.482599 1_455
Ge3 Rh1 2.482738 1_545
Ge3 Rh2 2.483336 1_555
Ge3 Mn3 2.604166 1_545
Ge3 Mn5 2.666792 1_555
Ge3 Mn1 2.794222 1_545
Ge4 Rh2 2.463301 1_555
Ge4 Rh3 2.466831 1_556
Ge4 Rh1 2.468866 1_556
Ge4 Mn4 2.633374 1_556
Ge4 Mn2 2.641727 1_556
Ge4 Mn1 2.663789 1_556
Ge4 Mn3 2.669003 1_546
Ge4 Mn0 2.694285 1_445
Ge4 Mn5 2.707255 1_555
Ge5 Rh5 2.463008 1_554
Ge5 Rh4 2.468059 1_565
Ge5 Rh1 2.468970 1_555
Ge5 Mn5 2.634396 1_554
Ge5 Mn3 2.641368 1_555
Ge5 Mn0 2.662443 1_555
Ge5 Mn2 2.669927 1_554
Ge5 Mn1 2.693372 1_655
Ge5 Mn4 2.706960 1_555
