# generated using pymatgen
data_Li9Mn2Co5O16
_symmetry_space_group_name_H-M   'P 1'
_cell_length_a   4.97569500
_cell_length_b   5.87940856
_cell_length_c   10.23974411
_cell_angle_alpha   106.16454201
_cell_angle_beta   100.22682756
_cell_angle_gamma   90.36539727
_symmetry_Int_Tables_number   1
_chemical_formula_structural   Li9Mn2Co5O16
_chemical_formula_sum   'Li9 Mn2 Co5 O16'
_cell_volume   282.64746750
_cell_formula_units_Z   1
loop_
 _symmetry_equiv_pos_site_id
 _symmetry_equiv_pos_as_xyz
  1  'x, y, z'
loop_
 _atom_site_type_symbol
 _atom_site_label
 _atom_site_symmetry_multiplicity
 _atom_site_fract_x
 _atom_site_fract_y
 _atom_site_fract_z
 _atom_site_occupancy
  Li  Li0  1  0.24494000  0.87503100  0.75184300  1
  Li  Li1  1  0.24639700  0.38053100  0.24659300  1
  Li  Li2  1  0.75312000  0.61830300  0.75553800  1
  Li  Li3  1  0.75287100  0.11927900  0.24842600  1
  Li  Li4  1  0.24279400  0.37761800  0.75282200  1
  Li  Li5  1  0.24454000  0.86798900  0.24706600  1
  Li  Li6  1  0.75573300  0.13463600  0.75190900  1
  Li  Li7  1  0.75831000  0.62613000  0.24628500  1
  Li  Li8  1  0.00103100  0.50368200  0.99973200  1
  Mn  Mn0  1  0.99976900  0.99404300  0.99977300  1
  Mn  Mn1  1  0.50077700  0.25990100  0.00019100  1
  Co  Co0  1  0.00000500  0.49996600  0.50007600  1
  Co  Co1  1  0.49983900  0.74800700  0.99982100  1
  Co  Co2  1  0.50413700  0.25050300  0.50274600  1
  Co  Co3  1  0.99968800  0.99973600  0.49982600  1
  Co  Co4  1  0.49563300  0.74951500  0.49729600  1
  O  O0  1  0.13672200  0.17891400  0.88925200  1
  O  O1  1  0.14283200  0.68066600  0.37733700  1
  O  O2  1  0.63129700  0.94733000  0.89106300  1
  O  O3  1  0.63989900  0.43968000  0.38396400  1
  O  O4  1  0.13185200  0.71124200  0.88903500  1
  O  O5  1  0.13242400  0.18285700  0.38928800  1
  O  O6  1  0.60076300  0.44490900  0.88923900  1
  O  O7  1  0.64152100  0.94440600  0.38570300  1
  O  O8  1  0.36004100  0.55989200  0.61660100  1
  O  O9  1  0.36996800  0.05273500  0.10865500  1
  O  O10  1  0.85780300  0.31879500  0.62258200  1
  O  O11  1  0.86737700  0.82032800  0.11137800  1
  O  O12  1  0.35763500  0.05549100  0.61370100  1
  O  O13  1  0.39904500  0.55269600  0.11100500  1
  O  O14  1  0.86685100  0.81737000  0.61060400  1
  O  O15  1  0.86438500  0.28781900  0.11065100  1
loop_
_geom_bond_atom_site_label_1
_geom_bond_atom_site_label_2
_geom_bond_distance
_geom_bond_site_symmetry_2
Li0 O4 2.060210 1_555
Li0 O0 2.084081 1_565
Li0 O14 2.120954 1_455
Li0 O8 2.131962 1_555
Li0 O12 2.133254 1_565
Li0 O2 2.141868 1_555
Li1 O1 2.028038 1_555
Li1 O15 2.114837 1_455
Li1 O3 2.161970 1_555
Li1 O13 2.162464 1_555
Li1 O9 2.212501 1_555
Li1 O5 2.244698 1_555
Li2 O10 2.038220 1_555
Li2 O4 2.091561 1_655
Li2 O6 2.150373 1_555
Li2 O8 2.167628 1_555
Li2 O2 2.203267 1_555
Li2 O14 2.269246 1_555
Li3 O11 2.075241 1_545
Li3 O15 2.080723 1_555
Li3 O7 2.100949 1_545
Li3 O5 2.123751 1_655
Li3 O9 2.131136 1_555
Li3 O3 2.150716 1_555
Li4 O6 2.019921 1_555
Li4 O10 2.096490 1_455
Li4 O8 2.132545 1_555
Li4 O12 2.177943 1_555
Li4 O0 2.181215 1_555
Li4 O4 2.204895 1_555
Li5 O1 2.073422 1_555
Li5 O11 2.093186 1_455
Li5 O5 2.158631 1_565
Li5 O9 2.177300 1_565
Li5 O7 2.180969 1_555
Li5 O13 2.220117 1_555
Li6 O10 2.052837 1_555
Li6 O0 2.117171 1_655
Li6 O14 2.161758 1_545
Li6 O12 2.183836 1_555
Li6 O2 2.191969 1_545
Li6 O6 2.207820 1_555
Li7 O13 2.019562 1_555
Li7 O1 2.098833 1_655
Li7 O11 2.154750 1_555
Li7 O3 2.164151 1_555
Li7 O7 2.167583 1_555
Li7 O15 2.213462 1_555
Li8 O4 2.054216 1_555
Li8 O13 2.076513 1_556
Li8 O11 2.077457 1_456
Li8 O6 2.083129 1_455
Li8 O15 2.104476 1_456
Li8 O0 2.113418 1_555
Mn0 O11 1.921382 1_556
Mn0 O4 1.926417 1_655
Mn0 O2 1.942830 1_555
Mn0 O9 1.950261 1_666
Mn0 O0 1.968714 1_665
Mn0 O15 1.980069 1_566
Mn1 O6 1.898246 1_554
Mn1 O13 1.906481 1_555
Mn1 O15 1.935381 1_555
Mn1 O0 1.937935 1_554
Mn1 O9 2.034824 1_555
Mn1 O2 2.043819 1_544
Co0 O3 1.936622 1_455
Co0 O8 1.938018 1_555
Co0 O10 2.063583 1_455
Co0 O1 2.065025 1_555
Co0 O5 2.073774 1_555
Co0 O14 2.075675 1_455
Co1 O13 1.946701 1_556
Co1 O6 1.949307 1_555
Co1 O4 1.951158 1_555
Co1 O11 1.951379 1_556
Co1 O2 2.004238 1_555
Co1 O9 2.007038 1_566
Co2 O10 1.927050 1_555
Co2 O5 1.974594 1_555
Co2 O12 2.036058 1_555
Co2 O3 2.051390 1_555
Co2 O7 2.061101 1_545
Co2 O8 2.077200 1_555
Co3 O12 1.918723 1_665
Co3 O7 1.920638 1_555
Co3 O14 1.951306 1_555
Co3 O5 1.952286 1_665
Co3 O10 2.148593 1_565
Co3 O1 2.150297 1_655
Co4 O1 1.924225 1_555
Co4 O14 1.972025 1_555
Co4 O7 2.039256 1_555
Co4 O8 2.057174 1_555
Co4 O12 2.059353 1_565
Co4 O3 2.077455 1_555
