# generated using pymatgen
data_Mg2In3MoS8
_symmetry_space_group_name_H-M   'P 1'
_cell_length_a   7.62474799
_cell_length_b   7.64050624
_cell_length_c   7.62449400
_cell_angle_alpha   60.07100167
_cell_angle_beta   59.99923413
_cell_angle_gamma   60.07242923
_symmetry_Int_Tables_number   1
_chemical_formula_structural   Mg2In3MoS8
_chemical_formula_sum   'Mg2 In3 Mo1 S8'
_cell_volume   314.42064603
_cell_formula_units_Z   1
loop_
 _symmetry_equiv_pos_site_id
 _symmetry_equiv_pos_as_xyz
  1  'x, y, z'
loop_
 _atom_site_type_symbol
 _atom_site_label
 _atom_site_symmetry_multiplicity
 _atom_site_fract_x
 _atom_site_fract_y
 _atom_site_fract_z
 _atom_site_occupancy
  Mg  Mg0  1  0.87478900  0.87567400  0.87477200  1
  Mg  Mg1  1  0.12524600  0.12432700  0.12519700  1
  In  In0  1  0.50000800  0.50001300  0.49997800  1
  In  In1  1  0.50000400  0.49999300  0.00000400  1
  In  In2  1  0.99998700  0.50000200  0.50001300  1
  Mo  Mo0  1  0.50000300  0.99997700  0.50001800  1
  S  S0  1  0.73372500  0.75620700  0.73371500  1
  S  S1  1  0.26623600  0.24383100  0.72366500  1
  S  S2  1  0.25656500  0.73027400  0.25657600  1
  S  S3  1  0.72366400  0.24382000  0.26626000  1
  S  S4  1  0.74341600  0.26973400  0.74340100  1
  S  S5  1  0.27632200  0.75617600  0.73375800  1
  S  S6  1  0.26626600  0.24379400  0.26631100  1
  S  S7  1  0.73377400  0.75617300  0.27633200  1
loop_
_geom_bond_atom_site_label_1
_geom_bond_atom_site_label_2
_geom_bond_distance
_geom_bond_site_symmetry_2
Mg0 S4 2.460989 1_565
Mg0 S5 2.502297 1_655
Mg0 S7 2.502349 1_556
Mg0 S0 2.502545 1_555
Mg1 S2 2.460945 1_545
Mg1 S1 2.502172 1_554
Mg1 S3 2.502607 1_455
Mg1 S6 2.502627 1_555
In0 S4 2.629195 1_555
In0 S2 2.629277 1_555
In0 S3 2.650684 1_555
In0 S7 2.650753 1_555
In0 S5 2.650837 1_555
In0 S1 2.650893 1_555
In1 S2 2.629174 1_555
In1 S4 2.629230 1_554
In1 S0 2.650816 1_554
In1 S6 2.650831 1_555
In1 S3 2.650846 1_555
In1 S5 2.650904 1_554
In2 S4 2.629092 1_555
In2 S2 2.629152 1_655
In2 S0 2.650687 1_555
In2 S6 2.650711 1_655
In2 S7 2.650731 1_555
In2 S1 2.650783 1_655
Mo0 S0 2.524208 1_555
Mo0 S6 2.524352 1_565
Mo0 S5 2.524396 1_555
Mo0 S7 2.524455 1_555
Mo0 S3 2.524523 1_565
Mo0 S1 2.524526 1_565
