# generated using pymatgen
data_Rb2TaCuS2
_symmetry_space_group_name_H-M   'P 1'
_cell_length_a   5.84256898
_cell_length_b   6.60229447
_cell_length_c   23.46160792
_cell_angle_alpha   86.84181357
_cell_angle_beta   82.84734285
_cell_angle_gamma   63.73872874
_symmetry_Int_Tables_number   1
_chemical_formula_structural   Rb2TaCuS2
_chemical_formula_sum   'Rb8 Ta4 Cu4 S8'
_cell_volume   805.28991852
_cell_formula_units_Z   4
loop_
 _symmetry_equiv_pos_site_id
 _symmetry_equiv_pos_as_xyz
  1  'x, y, z'
loop_
 _atom_site_type_symbol
 _atom_site_label
 _atom_site_symmetry_multiplicity
 _atom_site_fract_x
 _atom_site_fract_y
 _atom_site_fract_z
 _atom_site_occupancy
  Rb  Rb0  1  0.44420268  0.25092849  0.61819332  1
  Rb  Rb1  1  0.93760400  0.74907151  0.61819332  1
  Rb  Rb2  1  0.30486883  0.25092849  0.38180668  1
  Rb  Rb3  1  0.30579732  0.24907151  0.88180668  1
  Rb  Rb4  1  0.31332449  0.74907151  0.38180668  1
  Rb  Rb5  1  0.81239600  0.75092849  0.88180668  1
  Rb  Rb6  1  0.44513117  0.24907151  0.11819332  1
  Rb  Rb7  1  0.43667551  0.75092849  0.11819332  1
  Ta  Ta0  1  0.87500000  0.25000000  0.25000000  1
  Ta  Ta1  1  0.87500000  0.75000000  0.25000000  1
  Ta  Ta2  1  0.87500000  0.25000000  0.75000000  1
  Ta  Ta3  1  0.37500000  0.75000000  0.75000000  1
  Cu  Cu0  1  0.37500000  0.25000000  0.25000000  1
  Cu  Cu1  1  0.37500000  0.75000000  0.25000000  1
  Cu  Cu2  1  0.37500000  0.25000000  0.75000000  1
  Cu  Cu3  1  0.87500000  0.75000000  0.75000000  1
  S  S0  1  0.92807548  0.24944692  0.15087686  1
  S  S1  1  0.92104766  0.75055308  0.15087686  1
  S  S2  1  0.82247761  0.24944692  0.84912314  1
  S  S3  1  0.82192452  0.25055308  0.34912314  1
  S  S4  1  0.32839926  0.75055308  0.84912314  1
  S  S5  1  0.82895234  0.74944692  0.34912314  1
  S  S6  1  0.92752239  0.25055308  0.65087686  1
  S  S7  1  0.42160074  0.74944692  0.65087686  1
loop_
_geom_bond_atom_site_label_1
_geom_bond_atom_site_label_2
_geom_bond_distance
_geom_bond_site_symmetry_2
Rb0 S6 3.015764 1_555
Rb0 S6 3.021715 1_455
Rb0 S7 3.362555 1_555
Rb0 S7 3.413156 1_545
Rb1 S7 3.015764 1_555
Rb1 S7 3.021715 1_655
Rb1 S6 3.362555 1_555
Rb1 S6 3.413156 1_565
Rb2 S3 3.015764 1_455
Rb2 S3 3.021715 1_555
Rb2 S5 3.362554 1_455
Rb2 S5 3.413155 1_545
Rb3 S2 3.015764 1_455
Rb3 S2 3.021715 1_555
Rb3 S4 3.362555 1_545
Rb3 S4 3.413156 1_555
Rb4 S5 3.015764 1_555
Rb4 S5 3.021715 1_455
Rb4 S3 3.362554 1_555
Rb4 S3 3.413155 1_465
Rb5 S4 3.015764 1_655
Rb5 S4 3.021715 1_555
Rb5 S2 3.362555 1_565
Rb5 S2 3.413156 1_555
Rb6 S0 3.015764 1_555
Rb6 S0 3.021715 1_455
Rb6 S1 3.362554 1_545
Rb6 S1 3.413155 1_455
Rb7 S1 3.015764 1_455
Rb7 S1 3.021715 1_555
Rb7 S0 3.362554 1_465
Rb7 S0 3.413155 1_555
Cu0 Ta0 2.921284 1_455
Cu0 Ta0 2.921284 1_555
Cu0 Rb2 3.068415 1_555
Cu0 Rb6 3.068415 1_555
Cu0 Ta1 3.301147 1_455
Cu0 Ta1 3.301147 1_545
Cu1 Ta1 2.921284 1_555
Cu1 Ta1 2.921284 1_455
Cu1 Rb7 3.068415 1_555
Cu1 Rb4 3.068415 1_555
Cu1 Ta0 3.301147 1_465
Cu1 Ta0 3.301147 1_555
Cu2 Ta2 2.921284 1_455
Cu2 Ta2 2.921284 1_555
Cu2 Rb3 3.068415 1_555
Cu2 Rb0 3.068415 1_555
Cu2 Ta3 3.301147 1_545
Cu2 Ta3 3.301147 1_555
Cu3 Ta3 2.921284 1_655
Cu3 Ta3 2.921284 1_555
Cu3 Rb5 3.068415 1_555
Cu3 Rb1 3.068415 1_555
Cu3 Ta2 3.301147 1_555
Cu3 Ta2 3.301147 1_565
S0 Ta0 2.307570 1_555
S1 Ta1 2.307570 1_555
S2 Ta2 2.307570 1_555
S3 Ta0 2.307570 1_555
S4 Ta3 2.307570 1_555
S5 Ta1 2.307570 1_555
S6 Ta2 2.307570 1_555
S7 Ta3 2.307570 1_555
