# generated using pymatgen
data_CsDyZnSe3
_symmetry_space_group_name_H-M   'P 1'
_cell_length_a   8.31628667
_cell_length_b   8.31628667
_cell_length_c   10.99342400
_cell_angle_alpha   90.00000000
_cell_angle_beta   90.00000000
_cell_angle_gamma   150.63880021
_symmetry_Int_Tables_number   1
_chemical_formula_structural   CsDyZnSe3
_chemical_formula_sum   'Cs2 Dy2 Zn2 Se6'
_cell_volume   372.79139211
_cell_formula_units_Z   2
loop_
 _symmetry_equiv_pos_site_id
 _symmetry_equiv_pos_as_xyz
  1  'x, y, z'
loop_
 _atom_site_type_symbol
 _atom_site_label
 _atom_site_symmetry_multiplicity
 _atom_site_fract_x
 _atom_site_fract_y
 _atom_site_fract_z
 _atom_site_occupancy
  Cs  Cs0  1  0.25856800  0.74143200  0.25000000  1
  Cs  Cs1  1  0.74143200  0.25856800  0.75000000  1
  Dy  Dy0  1  0.00000000  0.00000000  0.50000000  1
  Dy  Dy1  1  0.00000000  0.00000000  0.00000000  1
  Zn  Zn0  1  0.53988900  0.46011100  0.25000000  1
  Zn  Zn1  1  0.46011100  0.53988900  0.75000000  1
  Se  Se0  1  0.61694800  0.38305200  0.44182400  1
  Se  Se1  1  0.38305200  0.61694800  0.55817600  1
  Se  Se2  1  0.61694800  0.38305200  0.05817600  1
  Se  Se3  1  0.38305200  0.61694800  0.94182400  1
  Se  Se4  1  0.94564200  0.05435800  0.25000000  1
  Se  Se5  1  0.05435800  0.94564200  0.75000000  1
loop_
_geom_bond_atom_site_label_1
_geom_bond_atom_site_label_2
_geom_bond_distance
_geom_bond_site_symmetry_2
Cs0 Se4 3.674470 1_455
Cs0 Se4 3.674470 1_565
Cs0 Se2 3.752476 1_565
Cs0 Se0 3.752476 1_565
Cs0 Se2 3.752476 1_455
Cs0 Se0 3.752476 1_455
Cs0 Se3 3.935673 1_554
Cs0 Se1 3.935673 1_555
Cs1 Se5 3.674470 1_545
Cs1 Se5 3.674470 1_655
Cs1 Se1 3.752476 1_655
Cs1 Se3 3.752476 1_655
Cs1 Se3 3.752476 1_545
Cs1 Se1 3.752476 1_545
Cs1 Se0 3.935673 1_555
Cs1 Se2 3.935673 1_556
Dy0 Se4 2.884160 1_455
Dy0 Se5 2.884160 1_545
Dy0 Se1 2.896824 1_555
Dy0 Se0 2.896824 1_555
Dy0 Se1 2.896824 1_445
Dy0 Se0 2.896824 1_445
Dy1 Se4 2.884160 1_455
Dy1 Se5 2.884160 1_544
Dy1 Se3 2.896824 1_554
Dy1 Se3 2.896824 1_444
Dy1 Se2 2.896824 1_555
Dy1 Se2 2.896824 1_445
Se0 Zn0 2.446276 1_555
Se1 Zn1 2.446276 1_555
Se2 Zn0 2.446276 1_555
Se3 Zn1 2.446276 1_555
Se4 Zn0 2.596426 1_545
Se4 Zn0 2.596426 1_655
Se5 Zn1 2.596426 1_565
Se5 Zn1 2.596426 1_455
