# generated using pymatgen
data_UH12W3C2S2(N3O5)2
_symmetry_space_group_name_H-M   'P 1'
_cell_length_a   7.43155163
_cell_length_b   7.43155163
_cell_length_c   20.57883308
_cell_angle_alpha   76.59937475
_cell_angle_beta   76.59937475
_cell_angle_gamma   71.73505550
_symmetry_Int_Tables_number   1
_chemical_formula_structural   UH12W3C2S2(N3O5)2
_chemical_formula_sum   'U2 H24 W6 C4 S4 N12 O20'
_cell_volume   1034.18778570
_cell_formula_units_Z   2
loop_
 _symmetry_equiv_pos_site_id
 _symmetry_equiv_pos_as_xyz
  1  'x, y, z'
loop_
 _atom_site_type_symbol
 _atom_site_label
 _atom_site_symmetry_multiplicity
 _atom_site_fract_x
 _atom_site_fract_y
 _atom_site_fract_z
 _atom_site_occupancy
  U  U0  1  0.74077100  0.25922900  0.25000000  1
  U  U1  1  0.25922900  0.74077100  0.75000000  1
  H  H0  1  0.61561700  0.85487100  0.10803100  1
  H  H1  1  0.38438300  0.14512900  0.89196900  1
  H  H2  1  0.14512900  0.38438300  0.39196900  1
  H  H3  1  0.85487100  0.61561700  0.60803100  1
  H  H4  1  0.84275000  0.85785400  0.59629100  1
  H  H5  1  0.15725000  0.14214600  0.40370900  1
  H  H6  1  0.14214600  0.15725000  0.90370900  1
  H  H7  1  0.85785400  0.84275000  0.09629100  1
  H  H8  1  0.34457600  0.25362100  0.05744700  1
  H  H9  1  0.65542400  0.74637900  0.94255300  1
  H  H10  1  0.74637900  0.65542400  0.44255300  1
  H  H11  1  0.25362100  0.34457600  0.55744700  1
  H  H12  1  0.73864800  0.98560800  0.42951600  1
  H  H13  1  0.26135200  0.01439200  0.57048400  1
  H  H14  1  0.01439200  0.26135200  0.07048400  1
  H  H15  1  0.98560800  0.73864800  0.92951600  1
  H  H16  1  0.50581700  0.76764500  0.02174300  1
  H  H17  1  0.49418300  0.23235500  0.97825700  1
  H  H18  1  0.23235500  0.49418300  0.47825700  1
  H  H19  1  0.76764500  0.50581700  0.52174300  1
  H  H20  1  0.77617500  0.06180300  0.49775800  1
  H  H21  1  0.22382500  0.93819700  0.50224200  1
  H  H22  1  0.93819700  0.22382500  0.00224200  1
  H  H23  1  0.06180300  0.77617500  0.99775800  1
  W  W0  1  0.23618800  0.76381200  0.25000000  1
  W  W1  1  0.76381200  0.23618800  0.75000000  1
  W  W2  1  0.24395700  0.63267700  0.11566900  1
  W  W3  1  0.75604300  0.36732300  0.88433100  1
  W  W4  1  0.36732300  0.75604300  0.38433100  1
  W  W5  1  0.63267700  0.24395700  0.61566900  1
  C  C0  1  0.77497600  0.79974500  0.01416800  1
  C  C1  1  0.22502400  0.20025500  0.98583200  1
  C  C2  1  0.20025500  0.22502400  0.48583200  1
  C  C3  1  0.79974500  0.77497600  0.51416800  1
  S  S0  1  0.29172200  0.18331000  0.21127900  1
  S  S1  1  0.70827800  0.81669000  0.78872100  1
  S  S2  1  0.81669000  0.70827800  0.28872100  1
  S  S3  1  0.18331000  0.29172200  0.71127900  1
  N  N0  1  0.74410700  0.84443300  0.07612900  1
  N  N1  1  0.25589300  0.15556700  0.92387100  1
  N  N2  1  0.15556700  0.25589300  0.42387100  1
  N  N3  1  0.84443300  0.74410700  0.57612900  1
  N  N4  1  0.78504300  0.94912900  0.47519100  1
  N  N5  1  0.21495700  0.05087100  0.52480900  1
  N  N6  1  0.05087100  0.21495700  0.02480900  1
  N  N7  1  0.94912900  0.78504300  0.97519100  1
  N  N8  1  0.36865600  0.21947300  0.01017300  1
  N  N9  1  0.63134400  0.78052700  0.98982700  1
  N  N10  1  0.78052700  0.63134500  0.48982700  1
  N  N11  1  0.21947300  0.36865600  0.51017300  1
  O  O0  1  0.68097100  0.72488300  0.35583300  1
  O  O1  1  0.31902900  0.27511700  0.64416700  1
  O  O2  1  0.27511700  0.31902900  0.14416700  1
  O  O3  1  0.72488300  0.68097100  0.85583300  1
  O  O4  1  0.81136700  0.90413800  0.24854100  1
  O  O5  1  0.18863300  0.09586200  0.75145900  1
  O  O6  1  0.09586200  0.18863300  0.25145900  1
  O  O7  1  0.90413800  0.81136700  0.74854100  1
  O  O8  1  0.40742100  0.23629800  0.24956500  1
  O  O9  1  0.59257900  0.76370200  0.75043500  1
  O  O10  1  0.76370200  0.59257900  0.25043500  1
  O  O11  1  0.23629800  0.40742100  0.74956500  1
  O  O12  1  0.69561800  0.20796900  0.34337700  1
  O  O13  1  0.30438200  0.79203100  0.65662300  1
  O  O14  1  0.79203100  0.30438200  0.15662300  1
  O  O15  1  0.20796900  0.69561800  0.84337700  1
  O  O16  1  0.38795800  0.98490000  0.19444300  1
  O  O17  1  0.61204200  0.01510000  0.80555700  1
  O  O18  1  0.01510000  0.61204200  0.30555700  1
  O  O19  1  0.98490000  0.38795800  0.69444300  1
loop_
_geom_bond_atom_site_label_1
_geom_bond_atom_site_label_2
_geom_bond_distance
_geom_bond_site_symmetry_2
H0 N0 1.017555 1_555
H1 N1 1.017555 1_555
H2 N2 1.017555 1_555
H3 N3 1.017555 1_555
H4 N3 1.020002 1_555
H5 N2 1.020002 1_555
H6 N1 1.020002 1_555
H7 N0 1.020002 1_555
H8 N8 1.023778 1_555
H9 N9 1.023778 1_555
H10 N10 1.023779 1_555
H11 N11 1.023778 1_555
H12 N4 1.024388 1_555
H13 N5 1.024388 1_555
H14 N6 1.024388 1_555
H15 N7 1.024388 1_555
H16 N9 1.026455 1_554
H17 N8 1.026455 1_556
H18 N11 1.026455 1_555
H19 N10 1.026461 1_555
H20 N4 1.025975 1_545
H21 N5 1.025975 1_565
H22 N6 1.025975 1_655
H23 N7 1.025975 1_455
C0 N9 1.336868 1_554
C0 N7 1.342064 1_554
C0 N0 1.342275 1_555
C1 N8 1.336868 1_556
C1 N6 1.342064 1_556
C1 N1 1.342275 1_555
C2 N11 1.336868 1_555
C2 N5 1.342064 1_555
C2 N2 1.342275 1_555
C3 N10 1.336861 1_555
C3 N4 1.342064 1_555
C3 N3 1.342275 1_555
O0 S2 1.514999 1_555
O0 W4 2.218470 1_555
O1 S3 1.514999 1_555
O1 W5 2.218470 1_555
O2 S0 1.514999 1_555
O2 W2 2.218470 1_555
O3 S1 1.514999 1_555
O3 W3 2.218470 1_555
O4 S2 1.491670 1_555
O4 U0 2.530106 1_565
O5 S3 1.491670 1_555
O5 U1 2.530106 1_545
O6 S0 1.491670 1_555
O6 U0 2.530106 1_455
O7 S1 1.491670 1_555
O7 U1 2.530106 1_655
O8 S0 1.478229 1_555
O8 U0 2.538067 1_555
O9 S1 1.478229 1_555
O9 U1 2.538067 1_555
O10 S2 1.478229 1_555
O10 U0 2.538067 1_555
O11 S3 1.478229 1_555
O11 U1 2.538067 1_555
O12 U0 1.841784 1_555
O13 U1 1.841784 1_555
O14 U0 1.841784 1_555
O15 U1 1.841784 1_555
O16 S0 1.505520 1_565
O16 W0 2.229794 1_555
O17 S1 1.505520 1_545
O17 W1 2.229794 1_555
O18 S2 1.505520 1_455
O18 W0 2.229794 1_555
O19 S3 1.505520 1_655
O19 W1 2.229794 1_555
