# generated using pymatgen
data_MgSn
_symmetry_space_group_name_H-M   'P 1'
_cell_length_a   5.58249729
_cell_length_b   5.58249729
_cell_length_c   5.85693352
_cell_angle_alpha   71.52229805
_cell_angle_beta   71.52229805
_cell_angle_gamma   60.88497806
_symmetry_Int_Tables_number   1
_chemical_formula_structural   MgSn
_chemical_formula_sum   'Mg3 Sn3'
_cell_volume   148.29781228
_cell_formula_units_Z   3
loop_
 _symmetry_equiv_pos_site_id
 _symmetry_equiv_pos_as_xyz
  1  'x, y, z'
loop_
 _atom_site_type_symbol
 _atom_site_label
 _atom_site_symmetry_multiplicity
 _atom_site_fract_x
 _atom_site_fract_y
 _atom_site_fract_z
 _atom_site_occupancy
  Mg  Mg0  1  0.99977700  0.33645000  0.99545000  1
  Mg  Mg1  1  0.66355000  0.00022300  0.00455000  1
  Mg  Mg2  1  0.50236600  0.49763400  0.50000000  1
  Sn  Sn0  1  0.34275900  0.65724100  0.00000000  1
  Sn  Sn1  1  0.82712500  0.83557800  0.50094100  1
  Sn  Sn2  1  0.16442200  0.17287500  0.49905900  1
loop_
_geom_bond_atom_site_label_1
_geom_bond_atom_site_label_2
_geom_bond_distance
_geom_bond_site_symmetry_2
Mg0 Sn2 3.050156 1_655
Mg0 Sn2 3.094064 1_656
Mg0 Sn0 3.199521 1_556
Mg0 Sn0 3.205170 1_656
Mg0 Mg1 3.217232 1_556
Mg0 Mg1 3.248108 1_566
Mg0 Mg1 3.248108 1_656
Mg0 Sn0 3.308638 1_646
Mg0 Sn1 3.334974 1_555
Mg0 Mg2 3.362382 1_556
Mg1 Sn1 3.050156 1_545
Mg1 Sn1 3.094064 1_544
Mg1 Sn0 3.199521 1_555
Mg1 Sn0 3.205170 1_545
Mg1 Sn0 3.308638 1_645
Mg1 Sn2 3.334974 1_555
Mg1 Mg2 3.362382 1_554
Mg2 Sn0 3.064497 1_555
Mg2 Sn0 3.064497 1_556
Mg2 Sn2 3.191761 1_555
Mg2 Sn1 3.191761 1_555
Mg2 Sn2 3.227945 1_655
Mg2 Sn1 3.227945 1_545
Mg2 Sn1 3.292654 1_455
Mg2 Sn2 3.292654 1_565
Sn0 Sn1 3.405095 1_455
Sn0 Sn2 3.405095 1_564
Sn1 Sn2 3.235125 1_655
Sn1 Sn2 3.235125 1_565
Sn1 Sn2 3.242707 1_665
