# generated using pymatgen
data_AgSbS2
_symmetry_space_group_name_H-M   'P 1'
_cell_length_a   6.91275892
_cell_length_b   6.91275892
_cell_length_c   13.30338084
_cell_angle_alpha   82.29743722
_cell_angle_beta   82.29743722
_cell_angle_gamma   38.48792084
_symmetry_Int_Tables_number   1
_chemical_formula_structural   AgSbS2
_chemical_formula_sum   'Ag4 Sb4 S8'
_cell_volume   391.63213236
_cell_formula_units_Z   4
loop_
 _symmetry_equiv_pos_site_id
 _symmetry_equiv_pos_as_xyz
  1  'x, y, z'
loop_
 _atom_site_type_symbol
 _atom_site_label
 _atom_site_symmetry_multiplicity
 _atom_site_fract_x
 _atom_site_fract_y
 _atom_site_fract_z
 _atom_site_occupancy
  Ag  Ag0  1  0.01119200  0.99688400  0.25426000  1
  Ag  Ag1  1  0.99688400  0.01119200  0.75426000  1
  Ag  Ag2  1  0.51770900  0.49580000  0.00416000  1
  Ag  Ag3  1  0.49580000  0.51770900  0.50416000  1
  Sb  Sb0  1  0.23187200  0.28939600  0.88161100  1
  Sb  Sb1  1  0.28939600  0.23187200  0.38161100  1
  Sb  Sb2  1  0.78152300  0.71644400  0.13455600  1
  Sb  Sb3  1  0.71644400  0.78152300  0.63455600  1
  S  S0  1  0.49567900  0.80142800  0.80840300  1
  S  S1  1  0.80142800  0.49567900  0.30840300  1
  S  S2  1  0.50527000  0.21071000  0.20595800  1
  S  S3  1  0.21071000  0.50527000  0.70595800  1
  S  S4  1  0.30524000  0.92220600  0.08981700  1
  S  S5  1  0.92220700  0.30524000  0.58981700  1
  S  S6  1  0.71741300  0.07283400  0.92123400  1
  S  S7  1  0.07283400  0.71741300  0.42123400  1
loop_
_geom_bond_atom_site_label_1
_geom_bond_atom_site_label_2
_geom_bond_distance
_geom_bond_site_symmetry_2
Ag0 S4 2.579168 1_555
Ag0 S7 2.581234 1_555
Ag0 S1 2.658784 1_465
Ag0 S2 2.661595 1_465
Ag1 S5 2.579170 1_555
Ag1 S6 2.581234 1_555
Ag1 S0 2.658784 1_645
Ag1 S3 2.661595 1_645
Ag2 S6 2.410250 1_554
Ag2 S4 2.412176 1_555
Ag2 S0 3.065386 1_554
Ag2 S2 3.143806 1_555
Ag3 S7 2.410250 1_555
Ag3 S5 2.412181 1_555
Ag3 S1 3.065386 1_555
Ag3 S3 3.143806 1_555
S0 Sb0 2.535188 1_565
S0 Sb3 2.550918 1_555
S1 Sb1 2.535188 1_655
S1 Sb2 2.550918 1_555
S2 Sb2 2.528335 1_545
S2 Sb1 2.554206 1_555
S3 Sb3 2.528335 1_455
S3 Sb0 2.554206 1_555
S4 Sb2 2.486880 1_555
S5 Sb3 2.486877 1_555
S6 Sb0 2.486212 1_555
S7 Sb1 2.486212 1_555
