# generated using pymatgen
data_Mg2MoN3
_symmetry_space_group_name_H-M   'P 1'
_cell_length_a   6.23163366
_cell_length_b   6.14776478
_cell_length_c   4.32585400
_cell_angle_alpha   90.00000000
_cell_angle_beta   90.00000000
_cell_angle_gamma   119.55578951
_symmetry_Int_Tables_number   1
_chemical_formula_structural   Mg2MoN3
_chemical_formula_sum   'Mg4 Mo2 N6'
_cell_volume   144.16115922
_cell_formula_units_Z   2
loop_
 _symmetry_equiv_pos_site_id
 _symmetry_equiv_pos_as_xyz
  1  'x, y, z'
loop_
 _atom_site_type_symbol
 _atom_site_label
 _atom_site_symmetry_multiplicity
 _atom_site_fract_x
 _atom_site_fract_y
 _atom_site_fract_z
 _atom_site_occupancy
  Mg  Mg0  1  0.33772200  0.32949100  0.42866700  1
  Mg  Mg1  1  0.66227800  0.99176900  0.42866700  1
  Mg  Mg2  1  0.66227800  0.67050900  0.92866700  1
  Mg  Mg3  1  0.33772200  0.00823100  0.92866700  1
  Mo  Mo0  1  0.00000000  0.65984700  0.42866700  1
  Mo  Mo1  1  0.00000000  0.34015300  0.92866700  1
  N  N0  1  0.30895000  0.34074700  0.92866700  1
  N  N1  1  0.69105000  0.03179800  0.92866700  1
  N  N2  1  0.69105000  0.65925300  0.42866700  1
  N  N3  1  0.30895000  0.96820200  0.42866700  1
  N  N4  1  0.00000000  0.66685200  0.92866700  1
  N  N5  1  0.00000000  0.33314800  0.42866700  1
loop_
_geom_bond_atom_site_label_1
_geom_bond_atom_site_label_2
_geom_bond_distance
_geom_bond_site_symmetry_2
Mg0 N5 2.115740 1_555
Mg0 N2 2.134071 1_555
Mg0 N3 2.138373 1_545
Mg0 N0 2.174265 1_554
Mg0 N0 2.174265 1_555
Mg1 N5 2.115740 1_665
Mg1 N3 2.134068 1_555
Mg1 N2 2.138367 1_555
Mg1 N1 2.174266 1_565
Mg1 N1 2.174266 1_564
Mg2 N4 2.115740 1_655
Mg2 N0 2.134071 1_555
Mg2 N1 2.138373 1_565
Mg2 N2 2.174265 1_556
Mg2 N2 2.174265 1_555
Mg3 N4 2.115740 1_545
Mg3 N1 2.134068 1_555
Mg3 N0 2.138367 1_555
Mg3 N3 2.174266 1_545
Mg3 N3 2.174266 1_546
Mo0 N3 1.923461 1_555
Mo0 N2 1.923465 1_455
Mo0 N5 2.008469 1_555
Mo0 N4 2.163356 1_554
Mo0 N4 2.163356 1_555
Mo1 N1 1.923461 1_455
Mo1 N0 1.923465 1_555
Mo1 N4 2.008469 1_555
Mo1 N5 2.163356 1_556
Mo1 N5 2.163356 1_555
