# generated using pymatgen
data_KIn5S8
_symmetry_space_group_name_H-M   'P 1'
_cell_length_a   9.77029496
_cell_length_b   9.77029496
_cell_length_c   9.31736396
_cell_angle_alpha   76.81295759
_cell_angle_beta   76.81295759
_cell_angle_gamma   22.90353175
_symmetry_Int_Tables_number   1
_chemical_formula_structural   KIn5S8
_chemical_formula_sum   'K1 In5 S8'
_cell_volume   336.63877982
_cell_formula_units_Z   1
loop_
 _symmetry_equiv_pos_site_id
 _symmetry_equiv_pos_as_xyz
  1  'x, y, z'
loop_
 _atom_site_type_symbol
 _atom_site_label
 _atom_site_symmetry_multiplicity
 _atom_site_fract_x
 _atom_site_fract_y
 _atom_site_fract_z
 _atom_site_occupancy
  K  K0  1  0.52011786  0.52011786  0.51365891  1
  In  In0  1  0.99960329  0.99960329  0.00143926  1
  In  In1  1  0.71429998  0.71429998  0.66347969  1
  In  In2  1  0.28718264  0.28718264  0.33792812  1
  In  In3  1  0.35615682  0.35615682  0.90584389  1
  In  In4  1  0.64441751  0.64441751  0.09246417  1
  S  S0  1  0.93247211  0.93247211  0.78271676  1
  S  S1  1  0.06814922  0.06814922  0.21694938  1
  S  S2  1  0.58577092  0.58577092  0.87634613  1
  S  S3  1  0.41372897  0.41372897  0.12290540  1
  S  S4  1  0.23890523  0.23890523  0.84579105  1
  S  S5  1  0.76091999  0.76091999  0.15554117  1
  S  S6  1  0.16445547  0.16445547  0.52711715  1
  S  S7  1  0.83481397  0.83481397  0.47429892  1
loop_
_geom_bond_atom_site_label_1
_geom_bond_atom_site_label_2
_geom_bond_distance
_geom_bond_site_symmetry_2
K0 S0 3.302441 1_455
K0 S0 3.302441 1_545
K0 S1 3.326855 1_565
K0 S1 3.326855 1_655
K0 S6 3.403134 1_565
K0 S6 3.403134 1_655
In0 S3 2.623371 1_655
In0 S3 2.623371 1_565
In0 S2 2.636151 1_564
In0 S2 2.636151 1_654
In0 S1 2.642441 1_665
In0 S0 2.650618 1_554
In1 S7 2.557362 1_555
In1 S6 2.617836 1_565
In1 S6 2.617836 1_655
In1 S4 2.691293 1_655
In1 S4 2.691293 1_565
In1 S2 2.778505 1_555
In2 S6 2.589008 1_555
In2 S7 2.597903 1_455
In2 S7 2.597903 1_545
In2 S5 2.702154 1_545
In2 S5 2.702154 1_455
In2 S3 2.761717 1_555
In3 S4 2.437316 1_555
In3 S3 2.518748 1_556
In3 S0 2.536654 1_455
In3 S0 2.536654 1_545
In4 S5 2.436009 1_555
In4 S2 2.523725 1_554
In4 S1 2.540286 1_655
In4 S1 2.540286 1_565
