# generated using pymatgen
data_CaEr4Zr4O14
_symmetry_space_group_name_H-M   'P 1'
_cell_length_a   3.68908794
_cell_length_b   15.08432407
_cell_length_c   13.03933710
_cell_angle_alpha   30.18235670
_cell_angle_beta   55.65359310
_cell_angle_gamma   60.81002872
_symmetry_Int_Tables_number   1
_chemical_formula_structural   CaEr4Zr4O14
_chemical_formula_sum   'Ca1 Er4 Zr4 O14'
_cell_volume   301.19467257
_cell_formula_units_Z   1
loop_
 _symmetry_equiv_pos_site_id
 _symmetry_equiv_pos_as_xyz
  1  'x, y, z'
loop_
 _atom_site_type_symbol
 _atom_site_label
 _atom_site_symmetry_multiplicity
 _atom_site_fract_x
 _atom_site_fract_y
 _atom_site_fract_z
 _atom_site_occupancy
  Ca  Ca0  1  0.51460900  0.00000000  0.24179800  1
  Er  Er0  1  0.01767000  0.29593700  0.94481000  1
  Er  Er1  1  0.93712600  0.00000000  0.53120000  1
  Er  Er2  1  0.01767000  0.70406300  0.53668400  1
  Er  Er3  1  0.01694900  0.50000000  0.49159200  1
  Zr  Zr0  1  0.06678500  0.00000000  0.96849700  1
  Zr  Zr1  1  0.98177100  0.50000000  0.00897200  1
  Zr  Zr2  1  0.00297400  0.26332900  0.48530500  1
  Zr  Zr3  1  0.00297400  0.73667100  0.01196400  1
  O  O0  1  0.25664900  0.00000000  0.12032400  1
  O  O1  1  0.23522600  0.21724100  0.16498500  1
  O  O2  1  0.22793700  0.00000000  0.63602200  1
  O  O3  1  0.24486300  0.50000000  0.12765800  1
  O  O4  1  0.26786000  0.23669400  0.62981200  1
  O  O5  1  0.26786000  0.76330600  0.10320100  1
  O  O6  1  0.73717200  0.27074100  0.36066700  1
  O  O7  1  0.75801700  0.00000000  0.87161000  1
  O  O8  1  0.76627500  0.50000000  0.36691800  1
  O  O9  1  0.75231100  0.27260900  0.85057100  1
  O  O10  1  0.75231100  0.72739100  0.39579000  1
  O  O11  1  0.23522600  0.78275900  0.59946500  1
  O  O12  1  0.72044900  0.50000000  0.88959200  1
  O  O13  1  0.73717200  0.72925900  0.90214800  1
loop_
_geom_bond_atom_site_label_1
_geom_bond_atom_site_label_2
_geom_bond_distance
_geom_bond_site_symmetry_2
Ca0 O11 2.236017 1_545
Ca0 O1 2.236032 1_555
Ca0 O0 2.260498 1_655
Ca0 O0 2.261713 1_555
Ca0 O10 2.429990 1_545
Ca0 O9 2.429996 1_554
Er0 O12 2.227719 1_455
Er0 O9 2.243448 1_455
Er0 O9 2.244603 1_555
Er0 O1 2.464604 1_556
Er0 O1 2.466307 1_456
Er0 O0 2.591849 1_556
Er1 O2 2.161884 1_655
Er1 O2 2.162856 1_555
Er1 O1 2.299239 1_655
Er1 O11 2.299254 1_645
Er1 O13 2.319383 1_545
Er1 O6 2.319388 1_555
Er2 O12 2.227719 1_455
Er2 O10 2.243436 1_455
Er2 O10 2.244603 1_555
Er2 O11 2.464579 1_555
Er2 O11 2.466304 1_455
Er2 O0 2.591849 1_565
Er3 O9 2.231760 1_455
Er3 O10 2.231767 1_455
Er3 O8 2.279108 1_455
Er3 O8 2.283301 1_555
Er3 O5 2.408489 1_555
Er3 O4 2.408495 1_555
O0 Zr0 2.444295 1_554
O0 Zr0 2.484962 1_654
O1 Zr1 2.541695 1_455
O2 Zr2 2.336207 1_555
O2 Zr3 2.336212 1_546
O3 Zr2 2.217594 1_555
O3 Zr3 2.217601 1_555
O3 Zr1 2.243194 1_455
O3 Zr1 2.244564 1_555
O4 Zr0 2.104233 1_555
O4 Zr2 2.247826 1_555
O4 Zr2 2.248161 1_655
O5 Zr0 2.104228 1_564
O5 Zr3 2.247826 1_555
O5 Zr3 2.248161 1_655
O6 Zr1 2.181810 1_555
O6 Zr2 2.234371 1_655
O6 Zr2 2.236974 1_555
O7 Zr0 2.112690 1_555
O7 Zr0 2.125398 1_655
O7 Zr3 2.396002 1_646
O7 Zr2 2.396008 1_655
O8 Zr3 2.200693 1_655
O8 Zr2 2.200699 1_655
O9 Zr0 2.654762 1_655
O10 Zr0 2.654769 1_664
O11 Zr1 2.541706 1_456
O12 Zr1 2.246290 1_556
O12 Zr1 2.249995 1_456
O13 Zr1 2.181803 1_556
O13 Zr3 2.234396 1_656
O13 Zr3 2.236974 1_556
