# generated using pymatgen
data_TbZn12
_symmetry_space_group_name_H-M   'P 1'
_cell_length_a   6.71574836
_cell_length_b   6.71574836
_cell_length_c   6.71574836
_cell_angle_alpha   98.24691449
_cell_angle_beta   98.24691449
_cell_angle_gamma   135.48944750
_symmetry_Int_Tables_number   1
_chemical_formula_structural   TbZn12
_chemical_formula_sum   'Tb1 Zn12'
_cell_volume   196.51942705
_cell_formula_units_Z   1
loop_
 _symmetry_equiv_pos_site_id
 _symmetry_equiv_pos_as_xyz
  1  'x, y, z'
loop_
 _atom_site_type_symbol
 _atom_site_label
 _atom_site_symmetry_multiplicity
 _atom_site_fract_x
 _atom_site_fract_y
 _atom_site_fract_z
 _atom_site_occupancy
  Tb  Tb0  1  0.00000000  -0.00000000  0.00000000  1
  Zn  Zn0  1  0.00000000  -0.00000000  0.50000000  1
  Zn  Zn1  1  0.50000000  0.50000000  0.50000000  1
  Zn  Zn2  1  0.50000000  -0.00000000  0.00000000  1
  Zn  Zn3  1  0.00000000  0.50000000  0.00000000  1
  Zn  Zn4  1  0.00000000  0.35417670  0.35417670  1
  Zn  Zn5  1  -0.00000000  0.64582330  0.64582330  1
  Zn  Zn6  1  0.64582330  -0.00000000  0.64582330  1
  Zn  Zn7  1  0.35417670  0.00000000  0.35417670  1
  Zn  Zn8  1  0.50000000  0.28269831  0.78269831  1
  Zn  Zn9  1  0.50000000  0.71730169  0.21730169  1
  Zn  Zn10  1  0.71730169  0.50000000  0.21730169  1
  Zn  Zn11  1  0.28269831  0.50000000  0.78269831  1
loop_
_geom_bond_atom_site_label_1
_geom_bond_atom_site_label_2
_geom_bond_distance
_geom_bond_site_symmetry_2
Tb0 Zn7 3.113210 1_555
Tb0 Zn6 3.113210 1_454
Tb0 Zn4 3.113210 1_555
Tb0 Zn5 3.113210 1_544
Tb0 Zn9 3.180834 1_555
Tb0 Zn8 3.180834 1_554
Tb0 Zn11 3.180834 1_554
Tb0 Zn10 3.180834 1_445
Tb0 Zn11 3.180834 1_444
Tb0 Zn10 3.180834 1_555
Tb0 Zn9 3.180834 1_445
Tb0 Zn8 3.180834 1_444
Tb0 Zn1 3.357874 1_555
Tb0 Zn2 3.357874 1_555
Tb0 Zn1 3.357874 1_444
Tb0 Zn2 3.357874 1_455
Tb0 Zn0 3.357874 1_555
Tb0 Zn3 3.357874 1_545
Tb0 Zn0 3.357874 1_554
Tb0 Zn3 3.357874 1_555
Zn0 Zn1 2.543481 1_445
Zn0 Zn1 2.543481 1_555
Zn0 Zn10 2.555177 1_445
Zn0 Zn8 2.555177 1_555
Zn0 Zn11 2.555177 1_555
Zn0 Zn9 2.555177 1_445
Zn0 Zn4 2.699046 1_555
Zn0 Zn5 2.699046 1_545
Zn0 Zn7 2.699046 1_555
Zn0 Zn6 2.699046 1_455
Zn1 Zn8 2.555177 1_555
Zn1 Zn10 2.555177 1_555
Zn1 Zn11 2.555177 1_555
Zn1 Zn9 2.555177 1_555
Zn1 Zn5 2.699046 1_655
Zn1 Zn4 2.699046 1_555
Zn1 Zn7 2.699046 1_555
Zn1 Zn6 2.699046 1_565
Zn2 Zn3 2.543481 1_545
Zn2 Zn3 2.543481 1_655
Zn2 Zn8 2.555177 1_554
Zn2 Zn9 2.555177 1_545
Zn2 Zn7 2.699046 1_555
Zn2 Zn5 2.699046 1_544
Zn2 Zn4 2.699046 1_655
Zn2 Zn6 2.699046 1_554
Zn3 Zn8 2.555177 1_454
Zn3 Zn9 2.555177 1_555
Zn3 Zn5 2.699046 1_554
Zn3 Zn4 2.699046 1_555
Zn3 Zn6 2.699046 1_454
Zn3 Zn7 2.699046 1_565
Zn4 Zn5 2.563571 1_555
Zn4 Zn9 2.813684 1_445
Zn4 Zn9 2.813684 1_555
Zn5 Zn8 2.813684 1_565
Zn5 Zn8 2.813684 1_455
Zn6 Zn7 2.563571 1_555
Zn6 Zn8 2.796030 1_555
Zn6 Zn9 2.796030 1_545
Zn7 Zn9 2.796030 1_545
Zn7 Zn8 2.796030 1_555
Zn10 Zn3 2.555177 1_655
Zn10 Zn2 2.555177 1_555
Zn10 Zn8 2.701261 1_554
Zn10 Zn9 2.701261 1_555
Zn10 Zn4 2.796030 1_655
Zn10 Zn5 2.796030 1_655
Zn10 Zn7 2.813684 1_665
Zn10 Zn7 2.813684 1_555
Zn11 Zn3 2.555177 1_556
Zn11 Zn2 2.555177 1_566
Zn11 Zn9 2.701261 1_556
Zn11 Zn8 2.701261 1_555
Zn11 Zn5 2.796030 1_555
Zn11 Zn4 2.796030 1_555
Zn11 Zn6 2.813684 1_455
Zn11 Zn6 2.813684 1_565
