# generated using pymatgen
data_Si6As2H36(C4O)3
_symmetry_space_group_name_H-M   'P 1'
_cell_length_a   9.95566448
_cell_length_b   10.14293002
_cell_length_c   34.64853967
_cell_angle_alpha   85.95689211
_cell_angle_beta   81.73993624
_cell_angle_gamma   60.60888130
_symmetry_Int_Tables_number   1
_chemical_formula_structural   Si6As2H36(C4O)3
_chemical_formula_sum   'Si24 As8 H144 C48 O12'
_cell_volume   3016.84128941
_cell_formula_units_Z   4
loop_
 _symmetry_equiv_pos_site_id
 _symmetry_equiv_pos_as_xyz
  1  'x, y, z'
loop_
 _atom_site_type_symbol
 _atom_site_label
 _atom_site_symmetry_multiplicity
 _atom_site_fract_x
 _atom_site_fract_y
 _atom_site_fract_z
 _atom_site_occupancy
  Si  Si0  1  0.25313811  0.96130991  0.40888633  1
  Si  Si1  1  0.62333435  0.03869009  0.59111367  1
  Si  Si2  1  0.96444802  0.53869009  0.90888633  1
  Si  Si3  1  0.41202444  0.46130991  0.09111367  1
  Si  Si4  1  0.25883639  0.92553036  0.31756785  1
  Si  Si5  1  0.50193461  0.07446964  0.68243215  1
  Si  Si6  1  0.93436676  0.57446964  0.81756785  1
  Si  Si7  1  0.32640425  0.42553036  0.18243215  1
  Si  Si8  1  0.81774332  0.16515435  0.42025856  1
  Si  Si9  1  0.40315623  0.83484565  0.57974144  1
  Si  Si10  1  0.73289767  0.33484565  0.92025856  1
  Si  Si11  1  0.98800188  0.66515435  0.07974144  1
  Si  Si12  1  0.82553101  0.12834047  0.32869048  1
  Si  Si13  1  0.28256196  0.87165953  0.67130952  1
  Si  Si14  1  0.70387148  0.37165953  0.82869048  1
  Si  Si15  1  0.90422149  0.62834047  0.17130952  1
  Si  Si16  1  0.03769546  0.74429771  0.43173482  1
  Si  Si17  1  0.21372799  0.25570229  0.56826518  1
  Si  Si18  1  0.53199316  0.75570229  0.93173482  1
  Si  Si19  1  0.21943028  0.24429771  0.06826518  1
  Si  Si20  1  0.04439236  0.70647775  0.34022227  1
  Si  Si21  1  0.09109239  0.29352225  0.65977773  1
  Si  Si22  1  0.50087011  0.79352225  0.84022227  1
  Si  Si23  1  0.13461463  0.20647775  0.15977773  1
  As  As0  1  0.03333400  0.96984747  0.44943044  1
  As  As1  1  0.45261191  0.03015253  0.55056956  1
  As  As2  1  0.75318147  0.53015253  0.94943044  1
  As  As3  1  0.23276444  0.46984747  0.05056956  1
  As  As4  1  0.04550067  0.90703876  0.29970420  1
  As  As5  1  0.25224362  0.09296124  0.70029580  1
  As  As6  1  0.70253943  0.59296124  0.79970420  1
  As  As7  1  0.09520487  0.40703876  0.20029580  1
  H  H0  1  0.21989435  0.19896414  0.43509744  1
  H  H1  1  0.85395594  0.80103586  0.56490256  1
  H  H2  1  0.16885850  0.30103586  0.93509744  1
  H  H3  1  0.40499179  0.69896414  0.06490256  1
  H  H4  1  0.33194745  0.15464908  0.38827291  1
  H  H5  1  0.87486944  0.84535092  0.61172709  1
  H  H6  1  0.23659653  0.34535092  0.88827291  1
  H  H7  1  0.47022036  0.65464908  0.11172709  1
  H  H8  1  0.12597587  0.23669626  0.39226383  1
  H  H9  1  0.75493597  0.76330374  0.60773617  1
  H  H10  1  0.11267213  0.26330374  0.89226383  1
  H  H11  1  0.26823971  0.73669626  0.10773617  1
  H  H12  1  0.44196185  0.72561047  0.44163586  1
  H  H13  1  0.60920819  0.27438953  0.55836414  1
  H  H14  1  0.91757233  0.77438953  0.94163586  1
  H  H15  1  0.63359771  0.22561047  0.05836414  1
  H  H16  1  0.53629178  0.81483402  0.41234732  1
  H  H17  1  0.76347312  0.18516598  0.58765268  1
  H  H18  1  0.10112579  0.68516598  0.91234732  1
  H  H19  1  0.69863910  0.31483402  0.08765268  1
  H  H20  1  0.43346989  0.89103774  0.45881175  1
  H  H21  1  0.78331937  0.10896226  0.54118825  1
  H  H22  1  0.07450763  0.60896226  0.95881175  1
  H  H23  1  0.64228163  0.39103774  0.04118825  1
  H  H24  1  0.13094274  0.20689176  0.32024939  1
  H  H25  1  0.65808388  0.79310824  0.67975061  1
  H  H26  1  0.08783449  0.29310824  0.82024939  1
  H  H27  1  0.20119212  0.70689176  0.17975061  1
  H  H28  1  0.33634320  0.12397588  0.30916022  1
  H  H29  1  0.76947929  0.87602412  0.69083978  1
  H  H30  1  0.21031908  0.37602412  0.80916022  1
  H  H31  1  0.39550341  0.62397588  0.19083978  1
  H  H32  1  0.22145199  0.14106096  0.27227022  1
  H  H33  1  0.63478317  0.85893904  0.72772978  1
  H  H34  1  0.11251295  0.35893904  0.77227022  1
  H  H35  1  0.24372221  0.64106096  0.22772978  1
  H  H36  1  0.43728910  0.80363669  0.25738788  1
  H  H37  1  0.49831367  0.19636331  0.74261212  1
  H  H38  1  0.99092579  0.69636331  0.75738788  1
  H  H39  1  0.44467699  0.30363669  0.24261212  1
  H  H40  1  0.54297044  0.78304580  0.29673890  1
  H  H41  1  0.62275515  0.21695420  0.70326110  1
  H  H42  1  0.07601624  0.71695420  0.79673890  1
  H  H43  1  0.58970934  0.28304580  0.20326110  1
  H  H44  1  0.46001398  0.66422238  0.29372443  1
  H  H45  1  0.41796079  0.33577762  0.70627557  1
  H  H46  1  0.87423637  0.83577762  0.79372443  1
  H  H47  1  0.50373841  0.16422238  0.20627557  1
  H  H48  1  0.88005521  0.36997142  0.43219502  1
  H  H49  1  0.68222165  0.63002858  0.56780498  1
  H  H50  1  0.00002663  0.13002858  0.93219502  1
  H  H51  1  0.06225023  0.86997142  0.06780498  1
  H  H52  1  0.68224814  0.44456279  0.42498351  1
  H  H53  1  0.55179444  0.55543721  0.57501649  1
  H  H54  1  0.87681092  0.05543721  0.92498351  1
  H  H55  1  0.85723165  0.94456279  0.07501649  1
  H  H56  1  0.74558725  0.36025864  0.47040661  1
  H  H57  1  0.57625250  0.63974136  0.52959339  1
  H  H58  1  0.85584589  0.13974136  0.97040661  1
  H  H59  1  0.96599386  0.86025864  0.02959339  1
  H  H60  1  0.61484973  0.14548699  0.46823219  1
  H  H61  1  0.22856891  0.85451301  0.53176781  1
  H  H62  1  0.51033671  0.35451301  0.96823219  1
  H  H63  1  0.83308192  0.64548699  0.03176781  1
  H  H64  1  0.54096848  0.23602597  0.42425205  1
  H  H65  1  0.20124650  0.76397403  0.57574795  1
  H  H66  1  0.52699445  0.26397403  0.92425205  1
  H  H67  1  0.71522053  0.73602597  0.07574795  1
  H  H68  1  0.65808230  0.03570108  0.42583403  1
  H  H69  1  0.11961741  0.96429892  0.57416597  1
  H  H70  1  0.44378337  0.46429892  0.92583403  1
  H  H71  1  0.83391633  0.53570108  0.07416597  1
  H  H72  1  0.74892035  0.28453895  0.26891892  1
  H  H73  1  0.30237822  0.71546105  0.73108108  1
  H  H74  1  0.78345930  0.21546105  0.76891892  1
  H  H75  1  0.76783926  0.78453895  0.23108108  1
  H  H76  1  0.69750394  0.39901796  0.31084574  1
  H  H77  1  0.40736764  0.60098204  0.68915426  1
  H  H78  1  0.84652190  0.10098204  0.81084574  1
  H  H79  1  0.75834969  0.89901796  0.18915426  1
  H  H80  1  0.89223191  0.30920937  0.28753069  1
  H  H81  1  0.48897197  0.69079063  0.71246931  1
  H  H82  1  0.95144128  0.19079063  0.78753069  1
  H  H83  1  0.92976260  0.80920937  0.21246931  1
  H  H84  1  0.66144323  0.00890805  0.35293628  1
  H  H85  1  0.02328756  0.99109195  0.64706372  1
  H  H86  1  0.42035128  0.49109195  0.85293628  1
  H  H87  1  0.76437951  0.50890805  0.14706372  1
  H  H88  1  0.54555822  0.20474252  0.34239782  1
  H  H89  1  0.09269856  0.79525748  0.65760218  1
  H  H90  1  0.50030074  0.29525748  0.84239782  1
  H  H91  1  0.63795604  0.70474252  0.15760218  1
  H  H92  1  0.63809252  0.07082344  0.30363995  1
  H  H93  1  0.01255591  0.92917656  0.69636005  1
  H  H94  1  0.45891596  0.42917656  0.80363995  1
  H  H95  1  0.69173246  0.57082344  0.19636005  1
  H  H96  1  0.77515676  0.81289146  0.46922784  1
  H  H97  1  0.05727606  0.18710854  0.53077216  1
  H  H98  1  0.33804822  0.68710854  0.96922784  1
  H  H99  1  0.99438460  0.31289146  0.03077216  1
  H  H100  1  0.88552075  0.61687210  0.45758881  1
  H  H101  1  0.95998167  0.38312790  0.54241119  1
  H  H102  1  0.25239286  0.88312790  0.95758881  1
  H  H103  1  0.09310957  0.11687210  0.04241119  1
  H  H104  1  0.92916541  0.69003786  0.49622297  1
  H  H105  1  0.11542624  0.30996214  0.50377703  1
  H  H106  1  0.36920327  0.80996214  0.99622297  1
  H  H107  1  0.17538838  0.19003786  0.00377703  1
  H  H108  1  0.26792427  0.57353840  0.46569179  1
  H  H109  1  0.30715445  0.42646160  0.53430821  1
  H  H110  1  0.59146266  0.92646160  0.96569179  1
  H  H111  1  0.48361605  0.07353840  0.03430821  1
  H  H112  1  0.23664282  0.47329376  0.43093586  1
  H  H113  1  0.14087244  0.52670624  0.56906414  1
  H  H114  1  0.45993658  0.02670624  0.93093586  1
  H  H115  1  0.41757868  0.97329376  0.06906414  1
  H  H116  1  0.32489462  0.58697944  0.41500574  1
  H  H117  1  0.32687980  0.41302056  0.58499426  1
  H  H118  1  0.66187406  0.91302056  0.91500574  1
  H  H119  1  0.48990036  0.08697944  0.08499426  1
  H  H120  1  0.93778615  0.61162510  0.29490269  1
  H  H121  1  0.84431394  0.38837490  0.70509731  1
  H  H122  1  0.29941125  0.88837490  0.79490269  1
  H  H123  1  0.98268884  0.11162510  0.20509731  1
  H  H124  1  0.90075504  0.56421888  0.34419953  1
  H  H125  1  0.80917345  0.43578112  0.65580047  1
  H  H126  1  0.21497392  0.93578112  0.84419953  1
  H  H127  1  0.99495457  0.06421888  0.15580047  1
  H  H128  1  0.78370226  0.75027935  0.32692494  1
  H  H129  1  0.86090655  0.24972065  0.67307506  1
  H  H130  1  0.28398161  0.74972065  0.82692494  1
  H  H131  1  0.86062720  0.25027935  0.17307506  1
  H  H132  1  0.33100262  0.55631249  0.34249515  1
  H  H133  1  0.22981026  0.44368751  0.65750485  1
  H  H134  1  0.63731511  0.94368751  0.84249515  1
  H  H135  1  0.42349777  0.05631249  0.15750485  1
  H  H136  1  0.24183602  0.43952560  0.34864765  1
  H  H137  1  0.03000927  0.56047440  0.65135235  1
  H  H138  1  0.43136162  0.06047440  0.84864765  1
  H  H139  1  0.34048367  0.93952560  0.15135235  1
  H  H140  1  0.27775957  0.50464908  0.30134097  1
  H  H141  1  0.08374962  0.49535092  0.69865903  1
  H  H142  1  0.53240864  0.99535092  0.80134097  1
  H  H143  1  0.32910054  0.00464908  0.19865903  1
  C  C0  1  0.22951786  0.15720088  0.40588008  1
  C  C1  1  0.79259882  0.84279912  0.59411992  1
  C  C2  1  0.13671874  0.34279912  0.90588008  1
  C  C3  1  0.38539793  0.65720088  0.09411992  1
  C  C4  1  0.43231779  0.83573737  0.43277536  1
  C  C5  1  0.70083051  0.16426263  0.56722464  1
  C  C6  1  0.01805516  0.66426263  0.93277536  1
  C  C7  1  0.61509315  0.33573737  0.06722464  1
  C  C8  1  0.23389128  0.11747408  0.30337494  1
  C  C9  1  0.65474029  0.88252592  0.69662506  1
  C  C10  1  0.10136536  0.38252592  0.80337494  1
  C  C11  1  0.28726621  0.61747408  0.19662506  1
  C  C12  1  0.44147927  0.77980885  0.28874511  1
  C  C13  1  0.51003323  0.22019115  0.71125489  1
  C  C14  1  0.97128812  0.72019115  0.78874511  1
  C  C15  1  0.48022438  0.27980885  0.21125489  1
  C  C16  1  0.77888914  0.35211405  0.43868381  1
  C  C17  1  0.56968700  0.64788595  0.56131619  1
  C  C18  1  0.88100319  0.14788595  0.93868381  1
  C  C19  1  0.96757295  0.85211405  0.06131619  1
  C  C20  1  0.64195054  0.14275069  0.43633275  1
  C  C21  1  0.22103398  0.85724931  0.56366725  1
  C  C22  1  0.53470123  0.35724931  0.93633275  1
  C  C23  1  0.82828328  0.64275069  0.06366725  1
  C  C24  1  0.78939365  0.29500364  0.29582800  1
  C  C25  1  0.38022529  0.70499636  0.70417200  1
  C  C26  1  0.83439729  0.20499636  0.79582800  1
  C  C27  1  0.83522165  0.79500364  0.20417200  1
  C  C28  1  0.65133884  0.09967996  0.33232521  1
  C  C29  1  0.08334401  0.90032004  0.66767479  1
  C  C30  1  0.50101880  0.40032004  0.83232521  1
  C  C31  1  0.73366405  0.59967996  0.16767479  1
  C  C32  1  0.89256211  0.71466960  0.46692453  1
  C  C33  1  0.07415624  0.28533040  0.53307547  1
  C  C34  1  0.35723171  0.78533040  0.96692453  1
  C  C35  1  0.10948664  0.21466960  0.03307547  1
  C  C36  1  0.23605894  0.57927269  0.43630733  1
  C  C37  1  0.25163896  0.42072731  0.56369267  1
  C  C38  1  0.56533163  0.92072731  0.93630733  1
  C  C39  1  0.42236627  0.07927269  0.06369267  1
  C  C40  1  0.90272253  0.65460461  0.32494346  1
  C  C41  1  0.88227060  0.34539539  0.67505654  1
  C  C42  1  0.30732714  0.84539539  0.82494346  1
  C  C43  1  0.97766599  0.15460461  0.17505654  1
  C  C44  1  0.24323662  0.53605068  0.33231798  1
  C  C45  1  0.11160529  0.46394932  0.66768202  1
  C  C46  1  0.52928731  0.96394932  0.83231798  1
  C  C47  1  0.32555461  0.03605068  0.16768202  1
  O  O0  1  0.28313001  0.89424747  0.36434096  1
  O  O1  1  0.54171844  0.10575253  0.63565904  1
  O  O2  1  0.92737748  0.60575253  0.86434096  1
  O  O3  1  0.39747097  0.39424747  0.13565904  1
  O  O4  1  0.84477012  0.17207180  0.37198703  1
  O  O5  1  0.38882896  0.82792820  0.62801297  1
  O  O6  1  0.76684193  0.32792820  0.87198703  1
  O  O7  1  0.96675715  0.67207180  0.12801297  1
  O  O8  1  0.99352542  0.74669016  0.38732113  1
  O  O9  1  0.12753671  0.25330984  0.61267887  1
  O  O10  1  0.49021558  0.75330984  0.88732113  1
  O  O11  1  0.13084656  0.24669016  0.11267887  1
loop_
_geom_bond_atom_site_label_1
_geom_bond_atom_site_label_2
_geom_bond_distance
_geom_bond_site_symmetry_2
As0 Si16 2.388344 1_555
As0 Si0 2.391119 1_555
As0 Si8 2.391730 1_465
As1 Si17 2.388344 1_555
As1 Si1 2.391119 1_555
As1 Si9 2.391730 1_545
As2 Si18 2.388344 1_555
As2 Si2 2.391119 1_555
As2 Si10 2.391730 1_555
As3 Si19 2.388344 1_555
As3 Si3 2.391119 1_555
As3 Si11 2.391730 1_455
As4 Si12 2.388308 1_465
As4 Si4 2.390464 1_555
As4 Si20 2.392524 1_555
As5 Si13 2.388308 1_545
As5 Si5 2.390464 1_555
As5 Si21 2.392524 1_555
As6 Si14 2.388308 1_555
As6 Si6 2.390464 1_555
As6 Si22 2.392524 1_555
As7 Si15 2.388308 1_455
As7 Si7 2.390464 1_555
As7 Si23 2.392524 1_555
C0 H8 1.097999 1_555
C0 H0 1.098278 1_555
C0 H4 1.100142 1_555
C0 Si0 1.879681 1_545
C1 H9 1.097999 1_555
C1 H1 1.098278 1_555
C1 H5 1.100142 1_555
C1 Si1 1.879681 1_565
C2 H10 1.097999 1_555
C2 H2 1.098278 1_555
C2 H6 1.100142 1_555
C2 Si2 1.879681 1_455
C3 H11 1.097998 1_555
C3 H3 1.098278 1_555
C3 H7 1.100142 1_555
C3 Si3 1.879681 1_555
C4 H12 1.098191 1_555
C4 H20 1.099644 1_555
C4 H16 1.101206 1_555
C4 Si0 1.880157 1_555
C5 H13 1.098191 1_555
C5 H21 1.099644 1_555
C5 H17 1.101207 1_555
C5 Si1 1.880157 1_555
C6 H14 1.098191 1_455
C6 H22 1.099644 1_555
C6 H18 1.101206 1_555
C6 Si2 1.880157 1_455
C7 H15 1.098191 1_555
C7 H23 1.099644 1_555
C7 H19 1.101206 1_555
C7 Si3 1.880157 1_555
C8 H24 1.097759 1_555
C8 H32 1.098632 1_555
C8 H28 1.100689 1_555
C8 Si4 1.875988 1_545
C9 H25 1.097759 1_555
C9 H33 1.098632 1_555
C9 H29 1.100689 1_555
C9 Si5 1.875988 1_565
C10 H26 1.097759 1_555
C10 H34 1.098632 1_555
C10 H30 1.100689 1_555
C10 Si6 1.875988 1_455
C11 H27 1.097759 1_555
C11 H35 1.098632 1_555
C11 H31 1.100689 1_555
C11 Si7 1.875988 1_555
C12 H44 1.098447 1_555
C12 H36 1.098496 1_555
C12 H40 1.101354 1_555
C12 Si4 1.880611 1_555
C13 H45 1.098447 1_555
C13 H37 1.098496 1_555
C13 H41 1.101354 1_555
C13 Si5 1.880611 1_555
C14 H46 1.098447 1_555
C14 H38 1.098496 1_555
C14 H42 1.101354 1_655
C14 Si6 1.880611 1_555
C15 H47 1.098447 1_555
C15 H39 1.098496 1_555
C15 H43 1.101354 1_555
C15 Si7 1.880611 1_555
C16 H48 1.098184 1_555
C16 H56 1.098219 1_555
C16 H52 1.101470 1_555
C16 Si8 1.879625 1_555
C17 H49 1.098184 1_555
C17 H57 1.098219 1_555
C17 H53 1.101470 1_555
C17 Si9 1.879625 1_555
C18 H50 1.098184 1_655
C18 H58 1.098219 1_555
C18 H54 1.101470 1_555
C18 Si10 1.879625 1_555
C19 H51 1.098184 1_655
C19 H59 1.098219 1_555
C19 H55 1.101470 1_555
C19 Si11 1.879625 1_555
C20 H68 1.097644 1_555
C20 H60 1.098397 1_555
C20 H64 1.101132 1_555
C20 Si8 1.875429 1_555
C21 H69 1.097644 1_555
C21 H61 1.098397 1_555
C21 H65 1.101132 1_555
C21 Si9 1.875429 1_555
C22 H70 1.097644 1_555
C22 H62 1.098397 1_555
C22 H66 1.101132 1_555
C22 Si10 1.875429 1_555
C23 H71 1.097644 1_555
C23 H63 1.098397 1_555
C23 H67 1.101132 1_555
C23 Si11 1.875429 1_555
C24 H80 1.098184 1_555
C24 H72 1.098546 1_555
C24 H76 1.101822 1_555
C24 Si12 1.879599 1_555
C25 H81 1.098184 1_555
C25 H73 1.098546 1_555
C25 H77 1.101822 1_555
C25 Si13 1.879599 1_555
C26 H82 1.098184 1_555
C26 H74 1.098546 1_555
C26 H78 1.101822 1_555
C26 Si14 1.879599 1_555
C27 H83 1.098184 1_555
C27 H75 1.098546 1_555
C27 H79 1.101822 1_555
C27 Si15 1.879599 1_555
C28 H84 1.097640 1_555
C28 H92 1.098849 1_555
C28 H88 1.100801 1_555
C28 Si12 1.880086 1_555
C29 H85 1.097640 1_555
C29 H93 1.098849 1_555
C29 H89 1.100801 1_555
C29 Si13 1.880086 1_555
C30 H86 1.097640 1_555
C30 H94 1.098849 1_555
C30 H90 1.100801 1_555
C30 Si14 1.880086 1_555
C31 H87 1.097640 1_555
C31 H95 1.098849 1_555
C31 H91 1.100801 1_555
C31 Si15 1.880086 1_555
C32 H96 1.098425 1_555
C32 H104 1.098593 1_555
C32 H100 1.101605 1_555
C32 Si16 1.879626 1_655
C33 H97 1.098426 1_555
C33 H105 1.098593 1_555
C33 H101 1.101605 1_455
C33 Si17 1.879626 1_555
C34 H98 1.098426 1_555
C34 H106 1.098593 1_555
C34 H102 1.101605 1_555
C34 Si18 1.879626 1_555
C35 H99 1.098425 1_455
C35 H107 1.098593 1_555
C35 H103 1.101605 1_555
C35 Si19 1.879626 1_555
C36 H116 1.097822 1_555
C36 H108 1.098615 1_555
C36 H112 1.100876 1_555
C36 Si16 1.880106 1_555
C37 H117 1.097822 1_555
C37 H109 1.098615 1_555
C37 H113 1.100876 1_555
C37 Si17 1.880106 1_555
C38 H118 1.097822 1_555
C38 H110 1.098615 1_555
C38 H114 1.100876 1_565
C38 Si18 1.880106 1_555
C39 H119 1.097822 1_555
C39 H111 1.098615 1_555
C39 H115 1.100876 1_545
C39 Si19 1.880106 1_555
C40 H120 1.097963 1_555
C40 H128 1.099024 1_555
C40 H124 1.101648 1_555
C40 Si20 1.878446 1_655
C41 H121 1.097963 1_555
C41 H129 1.099024 1_555
C41 H125 1.101648 1_555
C41 Si21 1.878446 1_655
C42 H122 1.097963 1_555
C42 H130 1.099024 1_555
C42 H126 1.101648 1_555
C42 Si22 1.878446 1_555
C43 H123 1.097963 1_555
C43 H131 1.099024 1_555
C43 H127 1.101648 1_555
C43 Si23 1.878446 1_655
C44 H132 1.097751 1_555
C44 H140 1.098329 1_555
C44 H136 1.100852 1_555
C44 Si20 1.879948 1_555
C45 H133 1.097751 1_555
C45 H141 1.098329 1_555
C45 H137 1.100852 1_555
C45 Si21 1.879948 1_555
C46 H134 1.097751 1_555
C46 H142 1.098329 1_555
C46 H138 1.100852 1_565
C46 Si22 1.879948 1_555
C47 H135 1.097751 1_555
C47 H143 1.098329 1_555
C47 H139 1.100852 1_545
C47 Si23 1.879948 1_555
O0 Si0 1.658402 1_555
O0 Si4 1.658424 1_555
O1 Si1 1.658402 1_555
O1 Si5 1.658424 1_555
O2 Si2 1.658402 1_555
O2 Si6 1.658424 1_555
O3 Si3 1.658402 1_555
O3 Si7 1.658424 1_555
O4 Si12 1.656414 1_555
O4 Si8 1.657522 1_555
O5 Si13 1.656414 1_555
O5 Si9 1.657522 1_555
O6 Si14 1.656414 1_555
O6 Si10 1.657522 1_555
O7 Si15 1.656414 1_555
O7 Si11 1.657522 1_555
O8 Si20 1.655173 1_655
O8 Si16 1.655531 1_655
O9 Si21 1.655173 1_555
O9 Si17 1.655531 1_555
O10 Si22 1.655173 1_555
O10 Si18 1.655530 1_555
O11 Si23 1.655173 1_555
O11 Si19 1.655530 1_555
