# generated using pymatgen
data_Sr3NdCuRuO8
_symmetry_space_group_name_H-M   'P 1'
_cell_length_a   5.57063248
_cell_length_b   5.54794001
_cell_length_c   6.86397380
_cell_angle_alpha   90.00000000
_cell_angle_beta   66.05950122
_cell_angle_gamma   90.00000000
_symmetry_Int_Tables_number   1
_chemical_formula_structural   Sr3NdCuRuO8
_chemical_formula_sum   'Sr3 Nd1 Cu1 Ru1 O8'
_cell_volume   193.88426535
_cell_formula_units_Z   1
loop_
 _symmetry_equiv_pos_site_id
 _symmetry_equiv_pos_as_xyz
  1  'x, y, z'
loop_
 _atom_site_type_symbol
 _atom_site_label
 _atom_site_symmetry_multiplicity
 _atom_site_fract_x
 _atom_site_fract_y
 _atom_site_fract_z
 _atom_site_occupancy
  Sr  Sr0  1  0.85649900  0.50000000  0.28700200  1
  Sr  Sr1  1  0.35435700  0.00000000  0.29128700  1
  Sr  Sr2  1  0.14193000  0.50000000  0.71613900  1
  Nd  Nd0  1  0.63786100  0.00000000  0.72427900  1
  Cu  Cu0  1  0.99475700  0.00000000  0.01048700  1
  Ru  Ru0  1  0.49646800  0.50000000  0.00706400  1
  O  O0  1  0.74776300  0.24804200  0.98593600  1
  O  O1  1  0.26630200  0.75195800  0.98593600  1
  O  O2  1  0.26630200  0.24804200  0.98593600  1
  O  O3  1  0.74776300  0.75195800  0.98593600  1
  O  O4  1  0.16523000  0.00000000  0.66954000  1
  O  O5  1  0.66346800  0.50000000  0.67306400  1
  O  O6  1  0.33927000  0.50000000  0.32146000  1
  O  O7  1  0.82203200  0.00000000  0.35593700  1
loop_
_geom_bond_atom_site_label_1
_geom_bond_atom_site_label_2
_geom_bond_distance
_geom_bond_site_symmetry_2
Nd0 O7 2.310774 1_555
Nd0 O0 2.527161 1_555
Nd0 O3 2.527161 1_545
Nd0 O2 2.527161 1_555
Nd0 O1 2.527161 1_545
Nd0 O5 2.792515 1_545
Nd0 O5 2.792515 1_555
Nd0 O4 2.806403 1_655
Nd0 O4 2.806408 1_555
Cu0 O2 2.000855 1_654
Cu0 O1 2.000855 1_644
Cu0 O0 2.000855 1_554
Cu0 O3 2.000855 1_544
Cu0 O4 2.138913 1_654
Cu0 O7 2.167163 1_555
O0 Ru0 1.941621 1_556
O0 Sr2 2.627680 1_655
O0 Sr1 2.713224 1_556
O0 Sr0 2.758121 1_556
O1 Ru0 1.941617 1_556
O1 Sr2 2.627686 1_555
O1 Sr1 2.713224 1_566
O1 Sr0 2.758124 1_456
O2 Ru0 1.941617 1_556
O2 Sr2 2.627686 1_555
O2 Sr1 2.713224 1_556
O2 Sr0 2.758124 1_456
O3 Ru0 1.941621 1_556
O3 Sr2 2.627680 1_655
O3 Sr1 2.713224 1_566
O3 Sr0 2.758121 1_556
O4 Sr1 2.372951 1_555
O4 Sr2 2.789331 1_545
O4 Sr2 2.789331 1_555
O5 Ru0 2.095332 1_556
O5 Sr0 2.421940 1_555
O5 Sr2 2.798391 1_655
O5 Sr2 2.798397 1_555
O6 Ru0 1.972347 1_555
O6 Sr2 2.475998 1_555
O6 Sr1 2.780421 1_555
O6 Sr1 2.780421 1_565
O6 Sr0 2.793692 1_555
O6 Sr0 2.793692 1_455
O7 Sr0 2.807478 1_545
O7 Sr0 2.807478 1_555
O7 Sr1 2.814690 1_655
O7 Sr1 2.814690 1_555
