# generated using pymatgen
data_DySbO3
_symmetry_space_group_name_H-M   'P 1'
_cell_length_a   4.24802400
_cell_length_b   4.24802400
_cell_length_c   4.24802400
_cell_angle_alpha   90.00000000
_cell_angle_beta   90.00000000
_cell_angle_gamma   90.00000000
_symmetry_Int_Tables_number   1
_chemical_formula_structural   DySbO3
_chemical_formula_sum   'Dy1 Sb1 O3'
_cell_volume   76.65860028
_cell_formula_units_Z   1
loop_
 _symmetry_equiv_pos_site_id
 _symmetry_equiv_pos_as_xyz
  1  'x, y, z'
loop_
 _atom_site_type_symbol
 _atom_site_label
 _atom_site_symmetry_multiplicity
 _atom_site_fract_x
 _atom_site_fract_y
 _atom_site_fract_z
 _atom_site_occupancy
  Dy  Dy0  1  0.50000000  0.50000000  0.50000000  1
  Sb  Sb0  1  0.00000000  0.00000000  0.00000000  1
  O  O0  1  0.50000000  0.00000000  0.00000000  1
  O  O1  1  0.00000000  0.50000000  0.00000000  1
  O  O2  1  0.00000000  0.00000000  0.50000000  1
loop_
_geom_bond_atom_site_label_1
_geom_bond_atom_site_label_2
_geom_bond_distance
_geom_bond_site_symmetry_2
Dy0 O0 3.003807 1_556
Dy0 O2 3.003807 1_565
Dy0 O2 3.003807 1_665
Dy0 O0 3.003807 1_566
Dy0 O1 3.003807 1_555
Dy0 O1 3.003807 1_556
Dy0 O0 3.003807 1_555
Dy0 O0 3.003807 1_565
Dy0 O2 3.003807 1_555
Dy0 O1 3.003807 1_656
Dy0 O1 3.003807 1_655
Dy0 O2 3.003807 1_655
O0 Sb0 2.124012 1_555
O0 Sb0 2.124012 1_655
O1 Sb0 2.124012 1_555
O1 Sb0 2.124012 1_565
O2 Sb0 2.124012 1_556
O2 Sb0 2.124012 1_555
