# generated using pymatgen
data_Ta2O5
_symmetry_space_group_name_H-M   'P 1'
_cell_length_a   11.31564436
_cell_length_b   12.05351361
_cell_length_c   12.05633063
_cell_angle_alpha   96.25038659
_cell_angle_beta   89.61631644
_cell_angle_gamma   92.18336102
_symmetry_Int_Tables_number   1
_chemical_formula_structural   Ta2O5
_chemical_formula_sum   'Ta30 O75'
_cell_volume   1633.43534042
_cell_formula_units_Z   15
loop_
 _symmetry_equiv_pos_site_id
 _symmetry_equiv_pos_as_xyz
  1  'x, y, z'
loop_
 _atom_site_type_symbol
 _atom_site_label
 _atom_site_symmetry_multiplicity
 _atom_site_fract_x
 _atom_site_fract_y
 _atom_site_fract_z
 _atom_site_occupancy
  Ta  Ta0  1  0.19037380  0.64744418  0.36609853  1
  Ta  Ta1  1  0.90867783  0.40894198  0.83264343  1
  Ta  Ta2  1  0.57943525  0.93427948  0.66646795  1
  Ta  Ta3  1  0.01619902  0.42256173  0.33959940  1
  Ta  Ta4  1  0.05831649  0.77204672  0.11766231  1
  Ta  Ta5  1  0.35141748  0.71290037  0.65030934  1
  Ta  Ta6  1  0.79029260  0.83658473  0.06169607  1
  Ta  Ta7  1  0.99194087  0.24021919  0.56619449  1
  Ta  Ta8  1  0.26504667  0.69329596  0.93410450  1
  Ta  Ta9  1  0.44008873  0.02669853  0.42087863  1
  Ta  Ta10  1  0.80985349  0.63083437  0.90406910  1
  Ta  Ta11  1  0.61572532  0.63492660  0.66112534  1
  Ta  Ta12  1  0.21640571  0.39425050  0.94864790  1
  Ta  Ta13  1  0.26875313  0.97994624  0.88364665  1
  Ta  Ta14  1  0.48491961  0.15575307  0.07574496  1
  Ta  Ta15  1  0.38638811  0.86290405  0.15396134  1
  Ta  Ta16  1  0.48513745  0.50922624  0.86548501  1
  Ta  Ta17  1  0.32272860  0.24294431  0.52244023  1
  Ta  Ta18  1  0.28024436  0.35363798  0.23719705  1
  Ta  Ta19  1  0.04107002  0.14475705  0.03236978  1
  Ta  Ta20  1  0.86647374  0.69132622  0.46005570  1
  Ta  Ta21  1  0.44230706  0.57644844  0.14986024  1
  Ta  Ta22  1  0.72065147  0.48140567  0.25004979  1
  Ta  Ta23  1  0.96669885  0.90487521  0.85218659  1
  Ta  Ta24  1  0.89144581  0.93575095  0.54849859  1
  Ta  Ta25  1  0.58410803  0.34800845  0.49495842  1
  Ta  Ta26  1  0.73441341  0.25198845  0.00634804  1
  Ta  Ta27  1  0.98301388  0.99292607  0.26785490  1
  Ta  Ta28  1  0.66877019  0.05854353  0.21856479  1
  Ta  Ta29  1  0.43496223  0.18743297  0.80882032  1
  O  O0  1  0.31443167  0.28175581  0.89200285  1
  O  O1  1  0.41405430  0.37985613  0.53463068  1
  O  O2  1  0.41719286  0.07701921  0.93859015  1
  O  O3  1  0.91731034  0.91966660  0.70568331  1
  O  O4  1  0.98521714  0.79716557  0.53020863  1
  O  O5  1  0.48210824  0.19111785  0.44823424  1
  O  O6  1  0.48423765  0.74936358  0.17351433  1
  O  O7  1  0.18943045  0.48873013  0.35490063  1
  O  O8  1  0.24457335  0.69351884  0.77507371  1
  O  O9  1  0.89871617  0.74833521  0.84493688  1
  O  O10  1  0.98868423  0.06722637  0.89486650  1
  O  O11  1  0.76764875  0.65688355  0.57654919  1
  O  O12  1  0.84962418  0.49625581  0.96695246  1
  O  O13  1  0.45215655  0.61364310  0.74171517  1
  O  O14  1  0.93599839  0.33480086  0.68048551  1
  O  O15  1  0.69027915  0.72653580  0.98119387  1
  O  O16  1  0.08087108  0.69420963  0.26165092  1
  O  O17  1  0.79220356  0.29165247  0.86576620  1
  O  O18  1  0.80150492  0.83237260  0.43599160  1
  O  O19  1  0.92956938  0.10271591  0.59440197  1
  O  O20  1  0.39532072  0.21424228  0.66180196  1
  O  O21  1  0.46584673  0.00014425  0.12154521  1
  O  O22  1  0.07089343  0.41868198  0.86806422  1
  O  O23  1  0.89346208  0.69885971  0.05578015  1
  O  O24  1  0.04363352  0.10934794  0.18398019  1
  O  O25  1  0.50152754  0.47887696  0.01695009  1
  O  O26  1  0.99875806  0.57379281  0.42525249  1
  O  O27  1  0.86814212  0.53609331  0.76703848  1
  O  O28  1  0.40389768  0.64868686  0.00066727  1
  O  O29  1  0.55391689  0.06995239  0.75634485  1
  O  O30  1  0.65096799  0.40314804  0.35881001  1
  O  O31  1  0.96764758  0.31048916  0.43209436  1
  O  O32  1  0.11765402  0.65104249  -0.00550851  1
  O  O33  1  0.88711700  0.43362393  0.24920993  1
  O  O34  1  0.90117935  0.86032415  0.19602072  1
  O  O35  1  0.26681984  0.46003509  0.09274348  1
  O  O36  1  0.11387825  0.90651967  0.22428035  1
  O  O37  1  0.18970182  0.05754907  0.00091331  1
  O  O38  1  0.98829618  0.99415958  0.42245921  1
  O  O39  1  0.82516005  0.07692702  0.26389040  1
  O  O40  1  0.61768957  0.48541484  0.59026481  1
  O  O41  1  0.64691683  0.57943421  0.81989694  1
  O  O42  1  0.56549890  0.18762081  0.22188417  1
  O  O43  1  0.33792470  0.85097829  0.94416916  1
  O  O44  1  0.48782306  0.94483135  0.53320154  1
  O  O45  1  0.41215697  0.45801330  0.24971506  1
  O  O46  1  0.28083257  0.28150742  0.36584889  1
  O  O47  1  0.36539291  0.92246138  0.30386310  1
  O  O48  1  0.30185331  0.50874898  0.87033697  1
  O  O49  1  0.13396241  0.89866651  0.81484031  1
  O  O50  1  0.24232286  0.78195492  0.10691431  1
  O  O51  1  0.30059924  0.07739797  0.77243195  1
  O  O52  1  0.11442469  0.27905552  0.00993050  1
  O  O53  1  0.66900576  0.10967138  0.05481986  1
  O  O54  1  0.10572526  0.34123735  0.22547900  1
  O  O55  1  0.82398824  0.93642992  0.95888845  1
  O  O56  1  0.78829168  0.61564483  0.32754305  1
  O  O57  1  0.31951248  0.65030999  0.27363817  1
  O  O58  1  0.59410060  0.01768733  0.34786241  1
  O  O59  1  0.35239270  0.23975738  0.13557023  1
  O  O60  1  0.88358667  0.20996259  0.05251604  1
  O  O61  1  0.70951481  0.37275895  0.11405529  1
  O  O62  1  0.55528836  0.24210266  0.95805604  1
  O  O63  1  0.72532674  0.96659891  0.59923197  1
  O  O64  1  0.60110068  0.57165545  0.19646996  1
  O  O65  1  0.69189655  0.26835821  0.55189632  1
  O  O66  1  0.40203916  0.85609093  0.70153762  1
  O  O67  1  0.63113892  0.80042776  0.72046149  1
  O  O68  1  0.15637265  0.25656906  0.57990028  1
  O  O69  1  0.29033819  0.08223786  0.47008005  1
  O  O70  1  0.03553553  0.86831016  0.00668809  1
  O  O71  1  0.49714064  0.67949276  0.56270494  1
  O  O72  1  0.24984686  0.70084953  0.51686110  1
  O  O73  1  0.67316533  0.90607215  0.15216285  1
  O  O74  1  0.49923576  0.36690939  0.80118571  1
loop_
_geom_bond_atom_site_label_1
_geom_bond_atom_site_label_2
_geom_bond_distance
_geom_bond_site_symmetry_2
O0 Ta12 1.854242 1_555
O0 Ta29 2.002519 1_555
O1 Ta17 1.905833 1_555
O1 Ta25 2.020623 1_555
O2 Ta14 1.960141 1_556
O2 Ta13 2.079809 1_545
O2 Ta29 2.165239 1_555
O3 Ta23 1.885016 1_555
O3 Ta24 1.950972 1_555
O4 Ta20 1.948829 1_555
O4 Ta24 2.004148 1_555
O5 Ta9 2.012580 1_555
O5 Ta17 2.094214 1_555
O5 Ta25 2.199119 1_555
O6 Ta15 1.828578 1_555
O6 Ta21 2.108915 1_555
O7 Ta0 1.902727 1_555
O7 Ta3 2.089570 1_555
O7 Ta18 2.307825 1_555
O8 Ta8 1.933117 1_555
O8 Ta5 1.951805 1_555
O9 Ta10 1.904470 1_555
O9 Ta23 2.003506 1_555
O10 Ta19 1.899098 1_656
O10 Ta23 1.975219 1_545
O11 Ta20 1.861722 1_555
O11 Ta11 2.016371 1_555
O12 Ta10 1.933040 1_555
O12 Ta1 1.960668 1_555
O13 Ta5 2.086404 1_555
O13 Ta16 2.098145 1_555
O13 Ta11 2.104672 1_555
O14 Ta7 1.816688 1_555
O14 Ta1 1.978877 1_555
O15 Ta6 1.897974 1_556
O15 Ta10 1.973461 1_555
O16 Ta0 1.915072 1_555
O16 Ta4 2.082741 1_555
O17 Ta26 1.914854 1_556
O17 Ta1 1.967015 1_555
O18 Ta20 1.928856 1_555
O18 Ta24 1.995543 1_555
O19 Ta7 1.841501 1_555
O19 Ta24 2.058426 1_545
O20 Ta29 1.895736 1_555
O20 Ta17 1.945297 1_555
O21 Ta15 1.928826 1_545
O21 Ta14 2.015580 1_555
O22 Ta1 1.883784 1_455
O22 Ta12 1.965315 1_555
O23 Ta6 2.060238 1_555
O23 Ta10 2.133171 1_554
O23 Ta4 2.136496 1_655
O24 Ta27 1.920595 1_445
O24 Ta19 1.922400 1_555
O25 Ta16 1.912609 1_554
O25 Ta21 2.008792 1_555
O26 Ta3 2.010715 1_655
O26 Ta20 2.108901 1_555
O26 Ta0 2.443063 1_655
O27 Ta1 1.872782 1_555
O27 Ta10 2.024968 1_555
O28 Ta8 1.891290 1_554
O28 Ta21 2.136071 1_555
O28 Ta16 2.414163 1_554
O29 Ta2 1.891506 1_545
O29 Ta29 2.038644 1_555
O30 Ta22 1.851947 1_555
O30 Ta25 1.972582 1_555
O31 Ta3 1.906174 1_655
O31 Ta7 1.930997 1_555
O32 Ta8 1.889681 1_554
O32 Ta4 2.091165 1_555
O33 Ta3 1.845712 1_655
O33 Ta22 1.990260 1_555
O34 Ta27 1.938744 1_555
O34 Ta6 2.043991 1_555
O34 Ta4 2.255913 1_655
O35 Ta12 1.910790 1_554
O35 Ta18 2.281579 1_555
O35 Ta21 2.445802 1_555
O36 Ta27 1.881882 1_455
O36 Ta4 2.038215 1_555
O37 Ta13 1.852784 1_544
O37 Ta19 2.028990 1_555
O38 Ta27 1.863742 1_555
O38 Ta24 2.039035 1_555
O39 Ta28 1.853671 1_555
O39 Ta27 2.089860 1_545
O40 Ta11 1.909351 1_555
O40 Ta25 1.936828 1_555
O41 Ta16 2.083082 1_555
O41 Ta11 2.131192 1_555
O41 Ta10 2.148057 1_555
O42 Ta28 1.977916 1_555
O42 Ta14 1.982600 1_555
O43 Ta13 1.977108 1_555
O43 Ta8 2.034420 1_555
O43 Ta15 2.579202 1_556
O44 Ta9 1.854927 1_565
O44 Ta2 1.936277 1_555
O45 Ta18 1.911082 1_555
O45 Ta21 1.983751 1_555
O46 Ta18 1.859027 1_555
O46 Ta17 2.055457 1_555
O47 Ta15 1.887521 1_555
O47 Ta9 1.957652 1_565
O48 Ta12 1.975049 1_555
O48 Ta16 2.074218 1_555
O48 Ta8 2.325204 1_555
O49 Ta13 1.923661 1_555
O49 Ta23 1.944909 1_455
O50 Ta15 1.924049 1_555
O50 Ta4 2.084998 1_555
O50 Ta8 2.253411 1_554
O51 Ta13 1.900450 1_545
O51 Ta29 1.997942 1_555
O52 Ta19 1.836454 1_555
O52 Ta12 1.973672 1_554
O53 Ta26 1.986889 1_555
O53 Ta28 2.131158 1_555
O53 Ta14 2.182175 1_555
O54 Ta3 1.908794 1_555
O54 Ta18 1.979588 1_555
O55 Ta6 1.847592 1_556
O55 Ta23 2.078410 1_555
O56 Ta22 1.913858 1_555
O56 Ta20 1.951228 1_555
O57 Ta0 1.833550 1_555
O57 Ta21 2.174282 1_555
O58 Ta28 1.871971 1_555
O58 Ta9 1.948576 1_555
O59 Ta14 1.933017 1_555
O59 Ta18 1.938484 1_555
O60 Ta26 1.885437 1_555
O60 Ta19 1.977799 1_655
O61 Ta26 1.870682 1_555
O61 Ta22 1.985394 1_555
O62 Ta14 1.993464 1_556
O62 Ta26 2.108048 1_556
O62 Ta29 2.287274 1_555
O63 Ta2 1.880432 1_555
O63 Ta24 2.008520 1_555
O64 Ta21 1.891110 1_555
O64 Ta22 1.925500 1_555
O65 Ta25 1.767642 1_555
O66 Ta5 1.840047 1_555
O66 Ta2 2.242250 1_555
O67 Ta2 1.916969 1_555
O67 Ta11 2.045998 1_555
O68 Ta7 1.870095 1_455
O68 Ta17 2.007915 1_555
O69 Ta9 1.912575 1_555
O69 Ta17 1.991945 1_555
O70 Ta4 1.888998 1_555
O70 Ta23 2.120158 1_454
O71 Ta11 1.926705 1_555
O71 Ta5 1.982772 1_555
O72 Ta5 1.972759 1_555
O72 Ta0 1.974766 1_555
O73 Ta6 1.874580 1_555
O73 Ta28 1.925358 1_565
O74 Ta16 1.816232 1_555
O74 Ta29 2.267150 1_555
