# generated using pymatgen
data_TiVCuS4
_symmetry_space_group_name_H-M   'P 1'
_cell_length_a   7.03685648
_cell_length_b   7.03685648
_cell_length_c   7.03685648
_cell_angle_alpha   120.13600273
_cell_angle_beta   119.88325561
_cell_angle_gamma   89.98346200
_symmetry_Int_Tables_number   1
_chemical_formula_structural   TiVCuS4
_chemical_formula_sum   'Ti2 V2 Cu2 S8'
_cell_volume   246.35149803
_cell_formula_units_Z   2
loop_
 _symmetry_equiv_pos_site_id
 _symmetry_equiv_pos_as_xyz
  1  'x, y, z'
loop_
 _atom_site_type_symbol
 _atom_site_label
 _atom_site_symmetry_multiplicity
 _atom_site_fract_x
 _atom_site_fract_y
 _atom_site_fract_z
 _atom_site_occupancy
  Ti  Ti0  1  0.00000000  0.50000000  0.00000000  1
  Ti  Ti1  1  0.00000000  0.00000000  0.50000000  1
  V  V0  1  0.50000000  0.50000000  0.00000000  1
  V  V1  1  0.00000000  0.50000000  0.50000000  1
  Cu  Cu0  1  0.62584100  0.87584100  0.75000000  1
  Cu  Cu1  1  0.37415900  0.12415900  0.25000000  1
  S  S0  1  0.23478700  0.74398400  0.49080300  1
  S  S1  1  0.75318100  0.74398400  0.00919700  1
  S  S2  1  0.75456700  0.74140200  0.48683500  1
  S  S3  1  0.75456700  0.26773200  0.01316500  1
  S  S4  1  0.76521300  0.25601600  0.50919700  1
  S  S5  1  0.24681900  0.25601600  0.99080300  1
  S  S6  1  0.24543300  0.25859800  0.51316500  1
  S  S7  1  0.24543300  0.73226800  0.98683500  1
loop_
_geom_bond_atom_site_label_1
_geom_bond_atom_site_label_2
_geom_bond_distance
_geom_bond_site_symmetry_2
Cu0 S3 2.248731 1_566
Cu0 S2 2.248731 1_555
Cu0 S1 2.249626 1_556
Cu0 S0 2.249626 1_555
Cu1 S6 2.248731 1_555
Cu1 S7 2.248731 1_544
Cu1 S4 2.249626 1_555
Cu1 S5 2.249626 1_554
S0 V1 2.429251 1_555
S0 Ti0 2.442777 1_555
S0 Ti1 2.442777 1_565
S1 V0 2.429251 1_555
S1 Ti1 2.442777 1_665
S1 Ti0 2.442777 1_655
S2 V0 2.423610 1_555
S2 V1 2.423610 1_655
S2 Ti1 2.444557 1_665
S3 V1 2.423610 1_655
S3 V0 2.423610 1_555
S3 Ti0 2.444557 1_655
S4 V1 2.429251 1_655
S4 Ti0 2.442777 1_656
S4 Ti1 2.442777 1_655
S5 V0 2.429251 1_556
S5 Ti0 2.442777 1_556
S5 Ti1 2.442777 1_555
S6 V1 2.423610 1_555
S6 V0 2.423610 1_556
S6 Ti1 2.444557 1_555
S7 V1 2.423610 1_555
S7 V0 2.423610 1_556
S7 Ti0 2.444557 1_556
