# generated using pymatgen
data_Ba4SnN4
_symmetry_space_group_name_H-M   'P 1'
_cell_length_a   6.87077386
_cell_length_b   7.04132289
_cell_length_c   9.87175282
_cell_angle_alpha   72.21767280
_cell_angle_beta   80.39319340
_cell_angle_gamma   66.79751354
_symmetry_Int_Tables_number   1
_chemical_formula_structural   Ba4SnN4
_chemical_formula_sum   'Ba8 Sn2 N8'
_cell_volume   417.39671034
_cell_formula_units_Z   2
loop_
 _symmetry_equiv_pos_site_id
 _symmetry_equiv_pos_as_xyz
  1  'x, y, z'
loop_
 _atom_site_type_symbol
 _atom_site_label
 _atom_site_symmetry_multiplicity
 _atom_site_fract_x
 _atom_site_fract_y
 _atom_site_fract_z
 _atom_site_occupancy
  Ba  Ba0  1  0.77460600  0.56927500  0.15853900  1
  Ba  Ba1  1  0.22539400  0.43072500  0.84146100  1
  Ba  Ba2  1  0.74363400  0.22742700  0.96524700  1
  Ba  Ba3  1  0.25636600  0.77257300  0.03475300  1
  Ba  Ba4  1  0.71812200  0.50824900  0.56044800  1
  Ba  Ba5  1  0.28187800  0.49175100  0.43955200  1
  Ba  Ba6  1  0.21576400  0.96468300  0.61617400  1
  Ba  Ba7  1  0.78423600  0.03531700  0.38382600  1
  Sn  Sn0  1  0.72586500  0.84377200  0.75657500  1
  Sn  Sn1  1  0.27413500  0.15622800  0.24342500  1
  N  N0  1  0.97632900  0.68576300  0.61523800  1
  N  N1  1  0.02367100  0.31423700  0.38476200  1
  N  N2  1  0.91607200  0.81420800  0.91899200  1
  N  N3  1  0.08392800  0.18579200  0.08100800  1
  N  N4  1  0.52463300  0.65826800  0.81696300  1
  N  N5  1  0.47536700  0.34173200  0.18303700  1
  N  N6  1  0.45264800  0.83787800  0.36468700  1
  N  N7  1  0.54735200  0.16212200  0.63531300  1
loop_
_geom_bond_atom_site_label_1
_geom_bond_atom_site_label_2
_geom_bond_distance
_geom_bond_site_symmetry_2
Ba0 N1 2.746834 1_655
Ba0 N2 2.752062 1_554
Ba0 N3 2.931096 1_655
Ba0 N5 3.007611 1_555
Ba0 N6 3.188038 1_555
Ba1 N0 2.746834 1_455
Ba1 N3 2.752062 1_556
Ba1 N2 2.931096 1_455
Ba1 N4 3.007611 1_555
Ba1 N7 3.188038 1_555
Ba2 N3 2.646800 1_656
Ba2 N5 2.689399 1_556
Ba2 N2 2.827128 1_545
Ba2 N4 2.834787 1_555
Ba3 N2 2.646800 1_454
Ba3 N4 2.689399 1_554
Ba3 N3 2.827128 1_565
Ba3 N5 2.834787 1_555
Ba4 N1 2.693233 1_655
Ba4 N0 2.735462 1_555
Ba4 N6 2.747666 1_555
Ba4 N4 2.949436 1_555
Ba4 N7 2.954055 1_555
Ba5 N0 2.693233 1_455
Ba5 N1 2.735462 1_555
Ba5 N7 2.747666 1_555
Ba5 N5 2.949436 1_555
Ba5 N6 2.954055 1_555
Ba6 N1 2.833896 1_565
Ba6 N4 2.876028 1_555
Ba6 N6 2.910297 1_555
Ba6 N0 3.020865 1_455
Ba6 N7 3.155753 1_565
Ba6 N2 3.468251 1_455
Ba7 N0 2.833896 1_545
Ba7 N5 2.876028 1_555
Ba7 N7 2.910297 1_555
Ba7 N1 3.020865 1_655
Ba7 N6 3.155753 1_545
Ba7 N3 3.468251 1_655
N0 Sn0 2.187260 1_555
N1 Sn1 2.187260 1_555
N2 Sn0 2.145479 1_555
N3 Sn1 2.145479 1_555
N4 Sn0 2.155337 1_555
N5 Sn1 2.155337 1_555
N6 Sn1 2.155636 1_565
N7 Sn0 2.155636 1_545
