# generated using pymatgen
data_CaMg2
_symmetry_space_group_name_H-M   'P 1'
_cell_length_a   5.40554104
_cell_length_b   3.67669085
_cell_length_c   17.78776598
_cell_angle_alpha   90.00000000
_cell_angle_beta   90.00000000
_cell_angle_gamma   90.00000000
_symmetry_Int_Tables_number   1
_chemical_formula_structural   CaMg2
_chemical_formula_sum   'Ca4 Mg8'
_cell_volume   353.52301333
_cell_formula_units_Z   4
loop_
 _symmetry_equiv_pos_site_id
 _symmetry_equiv_pos_as_xyz
  1  'x, y, z'
loop_
 _atom_site_type_symbol
 _atom_site_label
 _atom_site_symmetry_multiplicity
 _atom_site_fract_x
 _atom_site_fract_y
 _atom_site_fract_z
 _atom_site_occupancy
  Ca  Ca0  1  0.50000000  0.50000000  0.39370505  1
  Ca  Ca1  1  0.50000000  -0.00000000  0.21129532  1
  Ca  Ca2  1  0.50000000  -0.00000000  0.89370505  1
  Ca  Ca3  1  0.50000000  0.50000000  0.71129532  1
  Mg  Mg0  1  -0.00000000  -0.00000000  0.01195265  1
  Mg  Mg1  1  0.00000000  0.50000000  0.16202464  1
  Mg  Mg2  1  -0.00000000  -0.00000000  0.33151651  1
  Mg  Mg3  1  0.50000000  0.50000000  0.05617283  1
  Mg  Mg4  1  -0.00000000  0.50000000  0.51195265  1
  Mg  Mg5  1  0.00000000  -0.00000000  0.66202464  1
  Mg  Mg6  1  -0.00000000  0.50000000  0.83151651  1
  Mg  Mg7  1  0.50000000  -0.00000000  0.55617283  1
loop_
_geom_bond_atom_site_label_1
_geom_bond_atom_site_label_2
_geom_bond_distance
_geom_bond_site_symmetry_2
Ca0 Mg4 3.424777 1_655
Ca0 Mg4 3.424777 1_555
Ca0 Mg7 3.425093 1_555
Ca0 Mg7 3.425093 1_565
Ca0 Mg2 3.450819 1_555
Ca0 Mg2 3.450819 1_565
Ca0 Mg2 3.450819 1_655
Ca0 Mg2 3.450819 1_665
Ca1 Mg3 3.315593 1_555
Ca1 Mg3 3.315593 1_545
Ca1 Mg1 3.384167 1_645
Ca1 Mg1 3.384167 1_655
Ca1 Mg1 3.384167 1_545
Ca1 Mg1 3.384167 1_555
Ca1 Mg2 3.446448 1_655
Ca1 Mg2 3.446448 1_555
Ca2 Mg0 3.424777 1_656
Ca2 Mg0 3.424777 1_556
Ca2 Mg3 3.425093 1_556
Ca2 Mg3 3.425093 1_546
Ca2 Mg6 3.450819 1_545
Ca2 Mg6 3.450819 1_655
Ca2 Mg6 3.450819 1_645
Ca2 Mg6 3.450819 1_555
Ca3 Mg7 3.315593 1_565
Ca3 Mg7 3.315593 1_555
Ca3 Mg5 3.384167 1_665
Ca3 Mg5 3.384167 1_555
Ca3 Mg5 3.384167 1_565
Ca3 Mg5 3.384167 1_655
Ca3 Mg6 3.446448 1_655
Ca3 Mg6 3.446448 1_555
Mg0 Mg1 3.241212 1_545
Mg0 Mg1 3.241212 1_555
Mg0 Mg3 3.362021 1_555
Mg0 Mg3 3.362021 1_545
Mg0 Mg3 3.362021 1_445
Mg0 Mg3 3.362021 1_455
Mg1 Mg3 3.293958 1_555
Mg1 Mg3 3.293958 1_455
Mg4 Mg5 3.241212 1_555
Mg4 Mg5 3.241212 1_565
Mg4 Mg7 3.362021 1_455
Mg4 Mg7 3.362021 1_555
Mg4 Mg7 3.362021 1_565
Mg4 Mg7 3.362021 1_465
Mg5 Mg7 3.293958 1_455
Mg5 Mg7 3.293958 1_555
