# generated using pymatgen
data_Na4Y2(IrO4)3
_symmetry_space_group_name_H-M   'P 1'
_cell_length_a   9.48034113
_cell_length_b   9.48034113
_cell_length_c   3.20892500
_cell_angle_alpha   90.00000000
_cell_angle_beta   90.00000000
_cell_angle_gamma   119.99999390
_symmetry_Int_Tables_number   1
_chemical_formula_structural   Na4Y2(IrO4)3
_chemical_formula_sum   'Na4 Y2 Ir3 O12'
_cell_volume   249.76878106
_cell_formula_units_Z   1
loop_
 _symmetry_equiv_pos_site_id
 _symmetry_equiv_pos_as_xyz
  1  'x, y, z'
loop_
 _atom_site_type_symbol
 _atom_site_label
 _atom_site_symmetry_multiplicity
 _atom_site_fract_x
 _atom_site_fract_y
 _atom_site_fract_z
 _atom_site_occupancy
  Na  Na0  1  0.00000000  0.00000000  0.00000000  1
  Na  Na1  1  0.69855600  0.00000000  0.50000000  1
  Na  Na2  1  0.00000000  0.69855600  0.50000000  1
  Na  Na3  1  0.30144400  0.30144400  0.50000000  1
  Y  Y0  1  0.33333300  0.66666700  0.50000000  1
  Y  Y1  1  0.66666700  0.33333300  0.50000000  1
  Ir  Ir0  1  0.33019800  0.00000000  0.00000000  1
  Ir  Ir1  1  0.00000000  0.33019800  0.00000000  1
  Ir  Ir2  1  0.66980200  0.66980200  0.00000000  1
  O  O0  1  0.19687800  0.00000000  0.50000000  1
  O  O1  1  0.00000000  0.19687800  0.50000000  1
  O  O2  1  0.80312200  0.80312200  0.50000000  1
  O  O3  1  0.45645300  0.00000000  0.50000000  1
  O  O4  1  0.00000000  0.45645300  0.50000000  1
  O  O5  1  0.54354700  0.54354700  0.50000000  1
  O  O6  1  0.24299700  0.45990200  0.00000000  1
  O  O7  1  0.54009800  0.78309500  0.00000000  1
  O  O8  1  0.45990200  0.24299700  0.00000000  1
  O  O9  1  0.21690500  0.75700300  0.00000000  1
  O  O10  1  0.78309500  0.54009800  0.00000000  1
  O  O11  1  0.75700300  0.21690500  0.00000000  1
loop_
_geom_bond_atom_site_label_1
_geom_bond_atom_site_label_2
_geom_bond_distance
_geom_bond_site_symmetry_2
Na0 O0 2.461303 1_555
Na0 O0 2.461303 1_554
Na0 O1 2.461303 1_554
Na0 O1 2.461303 1_555
Na0 O2 2.461303 1_445
Na0 O2 2.461303 1_444
Na1 O3 2.295219 1_555
Na1 O11 2.443445 1_555
Na1 O11 2.443445 1_556
Na1 O7 2.443445 1_545
Na1 O7 2.443445 1_546
Na1 O2 2.513305 1_545
Na1 O1 2.513305 1_655
Na2 O4 2.295219 1_555
Na2 O9 2.443445 1_556
Na2 O9 2.443445 1_555
Na2 O10 2.443445 1_456
Na2 O10 2.443445 1_455
Na2 O2 2.513305 1_455
Na2 O0 2.513305 1_565
Na3 O5 2.295219 1_555
Na3 O8 2.443445 1_555
Na3 O6 2.443445 1_555
Na3 O6 2.443445 1_556
Na3 O8 2.443445 1_556
Na3 O0 2.513305 1_555
Na3 O1 2.513305 1_555
Ir0 O9 1.996574 1_545
Ir0 O8 1.996574 1_555
Ir0 O3 2.001741 1_555
Ir0 O3 2.001741 1_554
Ir0 O0 2.042496 1_555
Ir0 O0 2.042496 1_554
Ir1 O11 1.996574 1_455
Ir1 O6 1.996574 1_555
Ir1 O4 2.001741 1_554
Ir1 O4 2.001741 1_555
Ir1 O1 2.042496 1_554
Ir1 O1 2.042496 1_555
Ir2 O7 1.996574 1_555
Ir2 O10 1.996574 1_555
Ir2 O5 2.001741 1_555
Ir2 O5 2.001741 1_554
Ir2 O2 2.042496 1_555
Ir2 O2 2.042496 1_554
O3 Y0 2.767699 1_545
O3 Y1 2.767701 1_555
O4 Y1 2.767699 1_455
O4 Y0 2.767701 1_555
O5 Y0 2.767708 1_555
O5 Y1 2.767708 1_555
O6 Y0 2.339101 1_555
O6 Y0 2.339101 1_554
O7 Y0 2.339101 1_554
O7 Y0 2.339101 1_555
O8 Y1 2.339101 1_555
O8 Y1 2.339101 1_554
O9 Y0 2.339095 1_554
O9 Y0 2.339095 1_555
O10 Y1 2.339101 1_555
O10 Y1 2.339101 1_554
O11 Y1 2.339095 1_555
O11 Y1 2.339095 1_554
