# generated using pymatgen
data_YFe2
_symmetry_space_group_name_H-M   'P 1'
_cell_length_a   5.19660030
_cell_length_b   5.19671775
_cell_length_c   5.19648877
_cell_angle_alpha   60.00164291
_cell_angle_beta   60.00089284
_cell_angle_gamma   60.00143720
_symmetry_Int_Tables_number   1
_chemical_formula_structural   YFe2
_chemical_formula_sum   'Y2 Fe4'
_cell_volume   99.23308172
_cell_formula_units_Z   2
loop_
 _symmetry_equiv_pos_site_id
 _symmetry_equiv_pos_as_xyz
  1  'x, y, z'
loop_
 _atom_site_type_symbol
 _atom_site_label
 _atom_site_symmetry_multiplicity
 _atom_site_fract_x
 _atom_site_fract_y
 _atom_site_fract_z
 _atom_site_occupancy
  Y  Y0  1  0.87499874  0.87499555  0.87500533  1
  Y  Y1  1  0.12500126  0.12500445  0.12499467  1
  Fe  Fe0  1  0.50000000  -0.00000000  0.50000000  1
  Fe  Fe1  1  0.00000000  0.50000000  0.50000000  1
  Fe  Fe2  1  0.50000000  0.50000000  0.50000000  1
  Fe  Fe3  1  0.50000000  0.50000000  0.00000000  1
loop_
_geom_bond_atom_site_label_1
_geom_bond_atom_site_label_2
_geom_bond_distance
_geom_bond_site_symmetry_2
Fe0 Fe2 2.598359 1_555
Fe0 Fe2 2.598359 1_545
Fe0 Fe3 2.598366 1_555
Fe0 Fe3 2.598366 1_546
Fe0 Fe1 2.598386 1_555
Fe0 Fe1 2.598386 1_645
Fe0 Y0 3.046730 1_544
Fe0 Y1 3.046730 1_556
Fe0 Y0 3.046746 1_545
Fe0 Y1 3.046746 1_555
Fe0 Y1 3.046822 1_655
Fe0 Y0 3.046822 1_445
Fe1 Fe2 2.598300 1_555
Fe1 Fe2 2.598300 1_455
Fe1 Fe3 2.598307 1_555
Fe1 Fe3 2.598307 1_456
Fe1 Y0 3.046748 1_454
Fe1 Y1 3.046748 1_556
Fe1 Y1 3.046764 1_555
Fe1 Y0 3.046764 1_455
Fe1 Y0 3.046904 1_445
Fe1 Y1 3.046904 1_565
Fe2 Fe3 2.598244 1_556
Fe2 Fe3 2.598244 1_555
Fe2 Y1 3.046794 1_556
Fe2 Y0 3.046794 1_554
Fe2 Y0 3.046825 1_455
Fe2 Y1 3.046825 1_655
Fe2 Y0 3.046889 1_545
Fe2 Y1 3.046889 1_565
Fe3 Y1 3.046796 1_555
Fe3 Y0 3.046796 1_554
Fe3 Y1 3.046811 1_655
Fe3 Y0 3.046811 1_454
Fe3 Y0 3.046875 1_544
Fe3 Y1 3.046875 1_565
