# generated using pymatgen
data_BaSrHfZrO6
_symmetry_space_group_name_H-M   'P 1'
_cell_length_a   5.91783882
_cell_length_b   5.91811344
_cell_length_c   8.36991718
_cell_angle_alpha   90.00000000
_cell_angle_beta   89.98661634
_cell_angle_gamma   90.00000000
_symmetry_Int_Tables_number   1
_chemical_formula_structural   BaSrHfZrO6
_chemical_formula_sum   'Ba2 Sr2 Hf2 Zr2 O12'
_cell_volume   293.13492635
_cell_formula_units_Z   2
loop_
 _symmetry_equiv_pos_site_id
 _symmetry_equiv_pos_as_xyz
  1  'x, y, z'
loop_
 _atom_site_type_symbol
 _atom_site_label
 _atom_site_symmetry_multiplicity
 _atom_site_fract_x
 _atom_site_fract_y
 _atom_site_fract_z
 _atom_site_occupancy
  Ba  Ba0  1  0.24621133  0.49309373  0.49994749  1
  Ba  Ba1  1  0.75378867  0.99309373  0.50005251  1
  Sr  Sr0  1  0.24813755  0.51044319  0.00008574  1
  Sr  Sr1  1  0.75186245  0.01044319  0.99991426  1
  Hf  Hf0  1  0.75032165  0.50032524  0.75466891  1
  Hf  Hf1  1  0.24967835  0.00032524  0.24533109  1
  Zr  Zr0  1  0.24968483  0.00032768  0.75482955  1
  Zr  Zr1  1  0.75031517  0.50032768  0.24517045  1
  O  O0  1  0.97910188  0.23260422  0.73607415  1
  O  O1  1  0.02089812  0.73260422  0.26392585  1
  O  O2  1  0.52180156  0.76799639  0.78078705  1
  O  O3  1  0.47819844  0.26799639  0.21921295  1
  O  O4  1  0.01720101  0.72923310  0.73607894  1
  O  O5  1  0.98279899  0.22923310  0.26392106  1
  O  O6  1  0.48216827  0.27169842  0.78080515  1
  O  O7  1  0.51783173  0.77169842  0.21919485  1
  O  O8  1  0.19655323  0.99249058  0.00159772  1
  O  O9  1  0.80344677  0.49249058  0.99840228  1
  O  O10  1  0.28392046  0.00178746  0.49779566  1
  O  O11  1  0.71607954  0.50178746  0.50220434  1
loop_
_geom_bond_atom_site_label_1
_geom_bond_atom_site_label_2
_geom_bond_distance
_geom_bond_site_symmetry_2
Ba0 O1 2.773228 1_555
Ba0 O4 2.773915 1_555
Ba0 O11 2.781149 1_555
Ba0 O10 2.916213 1_555
Ba0 O5 2.961848 1_455
Ba0 O0 2.963062 1_455
Ba0 O10 3.018820 1_565
Ba0 O3 3.029699 1_555
Ba0 O6 3.032182 1_555
Ba0 O11 3.137709 1_455
Ba0 O7 3.289756 1_555
Ba0 O2 3.291471 1_555
Ba1 O0 2.773228 1_565
Ba1 O5 2.773915 1_565
Ba1 O10 2.781149 1_565
Ba1 O11 2.916213 1_555
Ba1 O4 2.961848 1_655
Ba1 O1 2.963062 1_655
Ba1 O11 3.018820 1_565
Ba1 O2 3.029699 1_555
Ba1 O7 3.032182 1_555
Ba1 O10 3.137709 1_665
Ba1 O6 3.289756 1_565
Ba1 O3 3.291471 1_565
Hf0 O9 2.064704 1_555
Hf0 O4 2.086542 1_655
Hf0 O0 2.089847 1_555
Hf0 O2 2.094251 1_555
Hf0 O6 2.096813 1_555
Hf0 O11 2.122866 1_555
Hf1 O8 2.064704 1_545
Hf1 O5 2.086542 1_455
Hf1 O1 2.089847 1_545
Hf1 O3 2.094251 1_555
Hf1 O7 2.096813 1_545
Hf1 O10 2.122866 1_555
O0 Zr0 2.116234 1_655
O0 Sr1 2.900399 1_555
O0 Sr0 3.181688 1_656
O1 Zr1 2.116234 1_455
O1 Sr0 2.900399 1_555
O1 Sr1 3.181688 1_464
O2 Zr0 2.128637 1_565
O2 Sr1 2.697650 1_565
O2 Sr0 2.883361 1_556
O3 Zr1 2.128637 1_555
O3 Sr0 2.697650 1_555
O3 Sr1 2.883361 1_554
O4 Zr0 2.119330 1_565
O4 Sr0 2.903195 1_556
O4 Sr1 3.179650 1_465
O5 Zr1 2.119330 1_555
O5 Sr1 2.903195 1_554
O5 Sr0 3.179650 1_655
O6 Zr0 2.125906 1_555
O6 Sr0 2.698482 1_556
O6 Sr1 2.881394 1_555
O7 Zr1 2.125906 1_555
O7 Sr1 2.698482 1_564
O7 Sr0 2.881394 1_555
O8 Zr0 2.089667 1_564
O8 Sr1 2.633793 1_464
O8 Sr0 2.869125 1_555
O8 Sr0 3.080491 1_565
O8 Sr1 3.287974 1_564
O9 Zr1 2.089667 1_556
O9 Sr0 2.633793 1_656
O9 Sr1 2.869125 1_555
O9 Sr1 3.080491 1_565
O9 Sr0 3.287974 1_556
O10 Zr0 2.160841 1_555
O11 Zr1 2.160841 1_555
