# generated using pymatgen
data_Dy(CrGe)6
_symmetry_space_group_name_H-M   'P 1'
_cell_length_a   5.11088900
_cell_length_b   5.11088814
_cell_length_c   8.32365500
_cell_angle_alpha   90.00000000
_cell_angle_beta   90.00000000
_cell_angle_gamma   119.99999913
_symmetry_Int_Tables_number   1
_chemical_formula_structural   Dy(CrGe)6
_chemical_formula_sum   'Dy1 Cr6 Ge6'
_cell_volume   188.29445509
_cell_formula_units_Z   1
loop_
 _symmetry_equiv_pos_site_id
 _symmetry_equiv_pos_as_xyz
  1  'x, y, z'
loop_
 _atom_site_type_symbol
 _atom_site_label
 _atom_site_symmetry_multiplicity
 _atom_site_fract_x
 _atom_site_fract_y
 _atom_site_fract_z
 _atom_site_occupancy
  Dy  Dy0  1  0.00000000  0.00000000  0.00000000  1
  Cr  Cr0  1  0.50000000  0.50000000  0.74952900  1
  Cr  Cr1  1  0.50000000  0.00000000  0.74952900  1
  Cr  Cr2  1  0.00000000  0.50000000  0.74952900  1
  Cr  Cr3  1  0.50000000  0.50000000  0.25047100  1
  Cr  Cr4  1  0.50000000  0.00000000  0.25047100  1
  Cr  Cr5  1  0.00000000  0.50000000  0.25047100  1
  Ge  Ge0  1  0.66666700  0.33333300  0.00000000  1
  Ge  Ge1  1  0.33333300  0.66666700  0.00000000  1
  Ge  Ge2  1  0.66666700  0.33333300  0.50000000  1
  Ge  Ge3  1  0.33333300  0.66666700  0.50000000  1
  Ge  Ge4  1  0.00000000  0.00000000  0.65423700  1
  Ge  Ge5  1  0.00000000  0.00000000  0.34576300  1
loop_
_geom_bond_atom_site_label_1
_geom_bond_atom_site_label_2
_geom_bond_distance
_geom_bond_site_symmetry_2
Dy0 Ge5 2.878012 1_555
Dy0 Ge4 2.878012 1_554
Dy0 Ge1 2.950770 1_545
Dy0 Ge0 2.950770 1_455
Dy0 Ge0 2.950774 1_445
Dy0 Ge1 2.950774 1_555
Dy0 Ge0 2.950775 1_555
Dy0 Ge1 2.950775 1_445
Cr0 Ge2 2.547680 1_555
Cr0 Ge3 2.547680 1_555
Cr0 Ge1 2.554077 1_556
Cr0 Ge0 2.554077 1_556
Cr0 Ge4 2.675710 1_665
Cr0 Ge4 2.675710 1_555
Cr1 Ge2 2.547678 1_555
Cr1 Ge3 2.547678 1_545
Cr1 Ge0 2.554074 1_556
Cr1 Ge1 2.554074 1_546
Cr1 Ge4 2.675711 1_555
Cr1 Ge4 2.675711 1_655
Cr2 Ge3 2.547678 1_555
Cr2 Ge2 2.547678 1_455
Cr2 Ge1 2.554074 1_556
Cr2 Ge0 2.554074 1_456
Cr2 Ge4 2.675710 1_555
Cr2 Ge4 2.675710 1_565
Cr3 Ge2 2.547680 1_555
Cr3 Ge3 2.547680 1_555
Cr3 Ge1 2.554077 1_555
Cr3 Ge0 2.554077 1_555
Cr3 Ge5 2.675710 1_665
Cr3 Ge5 2.675710 1_555
Cr4 Ge2 2.547678 1_555
Cr4 Ge3 2.547678 1_545
Cr4 Ge1 2.554074 1_545
Cr4 Ge0 2.554074 1_555
Cr4 Ge5 2.675711 1_655
Cr4 Ge5 2.675711 1_555
Cr5 Ge3 2.547678 1_555
Cr5 Ge2 2.547678 1_455
Cr5 Ge1 2.554074 1_555
Cr5 Ge0 2.554074 1_455
Cr5 Ge5 2.675710 1_555
Cr5 Ge5 2.675710 1_565
Ge4 Ge5 2.567631 1_555
