# generated using pymatgen
data_CeZrO4
_symmetry_space_group_name_H-M   'P 1'
_cell_length_a   6.44741943
_cell_length_b   6.44741943
_cell_length_c   6.44741966
_cell_angle_alpha   34.06248328
_cell_angle_beta   34.06248328
_cell_angle_gamma   34.06248892
_symmetry_Int_Tables_number   1
_chemical_formula_structural   CeZrO4
_chemical_formula_sum   'Ce1 Zr1 O4'
_cell_volume   74.95317071
_cell_formula_units_Z   1
loop_
 _symmetry_equiv_pos_site_id
 _symmetry_equiv_pos_as_xyz
  1  'x, y, z'
loop_
 _atom_site_type_symbol
 _atom_site_label
 _atom_site_symmetry_multiplicity
 _atom_site_fract_x
 _atom_site_fract_y
 _atom_site_fract_z
 _atom_site_occupancy
  Ce  Ce0  1  0.50000000  0.50000000  0.50000000  1
  Zr  Zr0  1  0.00000000  0.00000000  0.00000000  1
  O  O0  1  0.37030600  0.37030600  0.37030600  1
  O  O1  1  0.87928400  0.87928400  0.87928400  1
  O  O2  1  0.62969400  0.62969400  0.62969400  1
  O  O3  1  0.12071600  0.12071600  0.12071600  1
loop_
_geom_bond_atom_site_label_1
_geom_bond_atom_site_label_2
_geom_bond_distance
_geom_bond_site_symmetry_2
Ce0 O3 2.335456 1_556
Ce0 O1 2.335456 1_554
Ce0 O1 2.335456 1_545
Ce0 O1 2.335456 1_455
Ce0 O3 2.335456 1_565
Ce0 O3 2.335456 1_655
Ce0 O0 2.360752 1_555
Ce0 O2 2.360752 1_555
O0 Zr0 2.282035 1_556
O0 Zr0 2.282035 1_655
O0 Zr0 2.282035 1_565
O1 Zr0 2.197330 1_666
O2 Zr0 2.282035 1_665
O2 Zr0 2.282035 1_566
O2 Zr0 2.282035 1_656
O3 Zr0 2.197330 1_555
