# generated using pymatgen
data_Li2CuS2
_symmetry_space_group_name_H-M   'P 1'
_cell_length_a   7.90745700
_cell_length_b   7.90745700
_cell_length_c   5.83758300
_cell_angle_alpha   90.00000000
_cell_angle_beta   90.00000000
_cell_angle_gamma   90.00000000
_symmetry_Int_Tables_number   1
_chemical_formula_structural   Li2CuS2
_chemical_formula_sum   'Li8 Cu4 S8'
_cell_volume   365.01166717
_cell_formula_units_Z   4
loop_
 _symmetry_equiv_pos_site_id
 _symmetry_equiv_pos_as_xyz
  1  'x, y, z'
loop_
 _atom_site_type_symbol
 _atom_site_label
 _atom_site_symmetry_multiplicity
 _atom_site_fract_x
 _atom_site_fract_y
 _atom_site_fract_z
 _atom_site_occupancy
  Li  Li0  1  0.25558200  0.25558200  0.50000000  1
  Li  Li1  1  0.74441800  0.25558200  0.50000000  1
  Li  Li2  1  0.25558200  0.74441800  0.50000000  1
  Li  Li3  1  0.74441800  0.74441800  0.50000000  1
  Li  Li4  1  0.75558200  0.75558200  0.00000000  1
  Li  Li5  1  0.24441800  0.75558200  0.00000000  1
  Li  Li6  1  0.75558200  0.24441800  0.00000000  1
  Li  Li7  1  0.24441800  0.24441800  0.00000000  1
  Cu  Cu0  1  0.00000000  0.50000000  0.00689300  1
  Cu  Cu1  1  0.00000000  0.50000000  0.50689300  1
  Cu  Cu2  1  0.50000000  0.00000000  0.99310700  1
  Cu  Cu3  1  0.50000000  0.00000000  0.49310700  1
  S  S0  1  0.00000000  0.27454000  0.25882100  1
  S  S1  1  0.77454000  0.50000000  0.75882100  1
  S  S2  1  0.22546000  0.50000000  0.75882100  1
  S  S3  1  0.00000000  0.72546000  0.25882100  1
  S  S4  1  0.50000000  0.77454000  0.24117900  1
  S  S5  1  0.27454000  0.00000000  0.74117900  1
  S  S6  1  0.72546000  0.00000000  0.74117900  1
  S  S7  1  0.50000000  0.22546000  0.24117900  1
loop_
_geom_bond_atom_site_label_1
_geom_bond_atom_site_label_2
_geom_bond_distance
_geom_bond_site_symmetry_2
Li0 S2 2.464740 1_555
Li0 S7 2.464740 1_555
Li0 S0 2.467614 1_555
Li0 S5 2.467614 1_555
Li1 S1 2.464740 1_555
Li1 S7 2.464740 1_555
Li1 S0 2.467614 1_655
Li1 S6 2.467614 1_555
Li2 S4 2.464740 1_555
Li2 S2 2.464740 1_555
Li2 S3 2.467614 1_555
Li2 S5 2.467614 1_565
Li3 S1 2.464740 1_555
Li3 S4 2.464740 1_555
Li3 S3 2.467614 1_655
Li3 S6 2.467614 1_565
Li4 S6 2.464740 1_564
Li4 S3 2.464740 1_655
Li4 S1 2.467614 1_554
Li4 S4 2.467614 1_555
Li5 S5 2.464740 1_564
Li5 S3 2.464740 1_555
Li5 S2 2.467614 1_554
Li5 S4 2.467614 1_555
Li6 S6 2.464740 1_554
Li6 S0 2.464740 1_655
Li6 S1 2.467614 1_554
Li6 S7 2.467614 1_555
Li7 S5 2.464740 1_554
Li7 S0 2.464740 1_555
Li7 S2 2.467614 1_554
Li7 S7 2.467614 1_555
Cu0 S1 2.296855 1_454
Cu0 S2 2.296855 1_554
Cu0 S0 2.311113 1_555
Cu0 S3 2.311113 1_555
Cu1 S0 2.296855 1_555
Cu1 S3 2.296855 1_555
Cu1 S2 2.311113 1_555
Cu1 S1 2.311113 1_455
Cu2 S7 2.296855 1_556
Cu2 S4 2.296855 1_546
Cu2 S6 2.311113 1_555
Cu2 S5 2.311113 1_555
Cu3 S5 2.296855 1_555
Cu3 S6 2.296855 1_555
Cu3 S7 2.311113 1_555
Cu3 S4 2.311113 1_545
