# generated using pymatgen
data_SrLa2(CuO3)2
_symmetry_space_group_name_H-M   'P 1'
_cell_length_a   10.33212123
_cell_length_b   10.33212123
_cell_length_c   10.33212123
_cell_angle_alpha   158.36431390
_cell_angle_beta   158.36431390
_cell_angle_gamma   30.78498592
_symmetry_Int_Tables_number   1
_chemical_formula_structural   SrLa2(CuO3)2
_chemical_formula_sum   'Sr1 La2 Cu2 O6'
_cell_volume   149.84198131
_cell_formula_units_Z   1
loop_
 _symmetry_equiv_pos_site_id
 _symmetry_equiv_pos_as_xyz
  1  'x, y, z'
loop_
 _atom_site_type_symbol
 _atom_site_label
 _atom_site_symmetry_multiplicity
 _atom_site_fract_x
 _atom_site_fract_y
 _atom_site_fract_z
 _atom_site_occupancy
  Sr  Sr0  1  0.00000000  0.00000000  0.00000000  1
  La  La0  1  0.82262800  0.82262800  0.00000000  1
  La  La1  1  0.17737200  0.17737200  0.00000000  1
  Cu  Cu0  1  0.58883000  0.58883000  0.00000000  1
  Cu  Cu1  1  0.41117000  0.41117000  0.00000000  1
  O  O0  1  0.91120700  0.41120700  0.50000000  1
  O  O1  1  0.41120700  0.91120700  0.50000000  1
  O  O2  1  0.08879300  0.58879300  0.50000000  1
  O  O3  1  0.58879300  0.08879300  0.50000000  1
  O  O4  1  0.70724200  0.70724200  0.00000000  1
  O  O5  1  0.29275800  0.29275800  0.00000000  1
loop_
_geom_bond_atom_site_label_1
_geom_bond_atom_site_label_2
_geom_bond_distance
_geom_bond_site_symmetry_2
La0 O4 2.298838 1_555
La0 O0 2.622004 1_554
La0 O1 2.622004 1_554
La0 O1 2.622004 1_655
La0 O0 2.622004 1_565
La0 O5 2.806277 1_666
La0 O5 2.806277 1_565
La0 O5 2.806277 1_655
La0 O5 2.806277 1_554
La1 O5 2.298838 1_555
La1 O2 2.622004 1_555
La1 O3 2.622004 1_454
La1 O2 2.622004 1_544
La1 O3 2.622004 1_555
La1 O4 2.806277 1_455
La1 O4 2.806277 1_556
La1 O4 2.806277 1_444
La1 O4 2.806277 1_545
Cu0 O2 1.939207 1_655
Cu0 O3 1.939207 1_565
Cu0 O3 1.939207 1_554
Cu0 O2 1.939207 1_554
Cu0 O4 2.359125 1_555
Cu1 O0 1.939207 1_454
Cu1 O1 1.939207 1_544
Cu1 O1 1.939207 1_555
Cu1 O0 1.939207 1_555
Cu1 O5 2.359125 1_555
O0 Sr0 2.624876 1_655
O0 Sr0 2.624876 1_666
O1 Sr0 2.624876 1_565
O1 Sr0 2.624876 1_666
O2 Sr0 2.624876 1_566
O2 Sr0 2.624876 1_555
O3 Sr0 2.624876 1_555
O3 Sr0 2.624876 1_656
