# generated using pymatgen
data_HfSn2
_symmetry_space_group_name_H-M   'P 1'
_cell_length_a   5.49878635
_cell_length_b   5.49878635
_cell_length_c   7.64252359
_cell_angle_alpha   90.00000000
_cell_angle_beta   90.00000000
_cell_angle_gamma   119.99999842
_symmetry_Int_Tables_number   1
_chemical_formula_structural   HfSn2
_chemical_formula_sum   'Hf3 Sn6'
_cell_volume   200.12489551
_cell_formula_units_Z   3
loop_
 _symmetry_equiv_pos_site_id
 _symmetry_equiv_pos_as_xyz
  1  'x, y, z'
loop_
 _atom_site_type_symbol
 _atom_site_label
 _atom_site_symmetry_multiplicity
 _atom_site_fract_x
 _atom_site_fract_y
 _atom_site_fract_z
 _atom_site_occupancy
  Hf  Hf0  1  0.50000000  0.00000000  0.16666700  1
  Hf  Hf1  1  0.50000000  0.50000000  0.50000000  1
  Hf  Hf2  1  -0.00000000  0.50000000  0.83333300  1
  Sn  Sn0  1  0.83248169  0.66496639  0.16666700  1
  Sn  Sn1  1  0.83248169  0.16751831  0.50000000  1
  Sn  Sn2  1  0.33503361  0.16751831  0.83333300  1
  Sn  Sn3  1  0.16751831  0.33503361  0.16666700  1
  Sn  Sn4  1  0.16751831  0.83248169  0.50000000  1
  Sn  Sn5  1  0.66496639  0.83248169  0.83333300  1
loop_
_geom_bond_atom_site_label_1
_geom_bond_atom_site_label_2
_geom_bond_distance
_geom_bond_site_symmetry_2
Hf0 Sn4 2.999449 1_545
Hf0 Sn1 2.999449 1_555
Hf0 Sn5 2.999463 1_544
Hf0 Sn2 2.999463 1_554
Hf0 Sn0 3.166629 1_555
Hf0 Sn3 3.166629 1_545
Hf0 Sn3 3.178775 1_555
Hf0 Sn0 3.178775 1_545
Hf0 Sn0 3.178789 1_445
Hf0 Sn3 3.178789 1_655
Hf1 Sn2 2.999449 1_555
Hf1 Sn5 2.999449 1_555
Hf1 Sn3 2.999449 1_555
Hf1 Sn0 2.999449 1_555
Hf1 Sn1 3.166615 1_555
Hf1 Sn4 3.166615 1_555
Hf1 Sn1 3.178789 1_565
Hf1 Sn1 3.178789 1_455
Hf1 Sn4 3.178789 1_655
Hf1 Sn4 3.178789 1_545
Hf2 Sn1 2.999449 1_455
Hf2 Sn4 2.999449 1_555
Hf2 Sn0 2.999463 1_456
Hf2 Sn3 2.999463 1_556
Hf2 Sn2 3.166629 1_455
Hf2 Sn5 3.166629 1_555
Hf2 Sn2 3.178775 1_555
Hf2 Sn5 3.178775 1_455
Hf2 Sn5 3.178789 1_445
Hf2 Sn2 3.178789 1_565
Sn0 Sn5 3.005872 1_554
Sn0 Sn4 3.005881 1_655
Sn0 Sn3 3.166646 1_555
Sn0 Sn3 3.166674 1_655
Sn0 Sn3 3.190920 1_665
Sn1 Sn5 3.005881 1_545
Sn1 Sn3 3.005881 1_655
Sn1 Sn4 3.166646 1_545
Sn1 Sn4 3.166646 1_655
Sn1 Sn4 3.190948 1_645
Sn2 Sn3 3.005872 1_556
Sn2 Sn4 3.005881 1_545
Sn2 Sn5 3.166646 1_555
Sn2 Sn5 3.166674 1_545
Sn2 Sn5 3.190920 1_445
