# generated using pymatgen
data_Y5Mg(MoO6)2
_symmetry_space_group_name_H-M   'P 1'
_cell_length_a   6.09041992
_cell_length_b   7.17545335
_cell_length_c   7.59213836
_cell_angle_alpha   106.41346832
_cell_angle_beta   87.09054153
_cell_angle_gamma   119.03299497
_symmetry_Int_Tables_number   1
_chemical_formula_structural   Y5Mg(MoO6)2
_chemical_formula_sum   'Y5 Mg1 Mo2 O12'
_cell_volume   276.79391022
_cell_formula_units_Z   1
loop_
 _symmetry_equiv_pos_site_id
 _symmetry_equiv_pos_as_xyz
  1  'x, y, z'
loop_
 _atom_site_type_symbol
 _atom_site_label
 _atom_site_symmetry_multiplicity
 _atom_site_fract_x
 _atom_site_fract_y
 _atom_site_fract_z
 _atom_site_occupancy
  Y  Y0  1  0.52535200  0.99471700  0.48679400  1
  Y  Y1  1  0.18439700  0.38347500  0.81885400  1
  Y  Y2  1  0.84017600  0.65472500  0.20645700  1
  Y  Y3  1  0.81701800  0.63526000  0.64104700  1
  Y  Y4  1  0.18368700  0.39894300  0.33304100  1
  Mg  Mg0  1  0.64929700  0.33183900  0.86174100  1
  Mo  Mo0  1  0.72873000  0.99263100  0.00236700  1
  Mo  Mo1  1  0.23700500  0.99170800  0.99809000  1
  O  O0  1  0.99703500  0.00975700  0.81251900  1
  O  O1  1  0.97951000  0.00586400  0.20070100  1
  O  O2  1  0.48150900  0.98599600  0.18961100  1
  O  O3  1  0.51048900  0.00637500  0.80104800  1
  O  O4  1  0.59169500  0.68354400  0.43359500  1
  O  O5  1  0.93850000  0.30486300  0.56370400  1
  O  O6  1  0.46764200  0.29762300  0.62543900  1
  O  O7  1  0.44067600  0.35290700  0.07548600  1
  O  O8  1  0.99564700  0.62527400  0.90285300  1
  O  O9  1  0.57196900  0.66791200  0.89131100  1
  O  O10  1  0.93378600  0.34089100  0.07966000  1
  O  O11  1  0.10296100  0.69680600  0.42389600  1
loop_
_geom_bond_atom_site_label_1
_geom_bond_atom_site_label_2
_geom_bond_distance
_geom_bond_site_symmetry_2
Mg0 O3 1.973825 1_555
Mg0 O7 2.027105 1_556
Mg0 O6 2.047387 1_555
Mg0 O8 2.089204 1_555
Mg0 O10 2.421702 1_556
Mo0 O9 1.965615 1_554
Mo0 O2 2.010377 1_555
Mo0 O10 2.089298 1_565
Mo0 O0 2.104504 1_564
Mo0 O3 2.128669 1_564
Mo0 O1 2.149676 1_565
Mo1 O0 2.152585 1_465
Mo1 O2 2.155504 1_556
Mo1 O1 2.158095 1_466
Mo1 O3 2.165459 1_565
Mo1 O7 2.166578 1_566
Mo1 O8 2.208842 1_455
O0 Y3 2.329391 1_545
O0 Y1 2.336230 1_655
O1 Y2 2.247992 1_545
O1 Y4 2.373213 1_655
O2 Y0 2.265182 1_555
O3 Y0 2.362235 1_545
O4 Y2 2.268055 1_555
O4 Y4 2.305226 1_555
O4 Y3 2.339485 1_555
O4 Y0 2.379346 1_555
O5 Y1 2.273886 1_655
O5 Y4 2.275212 1_655
O5 Y0 2.367391 1_545
O5 Y3 2.717421 1_555
O6 Y3 2.295842 1_555
O6 Y0 2.316588 1_545
O6 Y1 2.403081 1_555
O7 Y2 2.347983 1_555
O7 Y4 2.491696 1_555
O7 Y1 2.676396 1_554
O8 Y3 2.348449 1_555
O8 Y2 2.439604 1_556
O8 Y1 2.444319 1_655
O9 Y1 2.204809 1_555
O9 Y3 2.385876 1_555
O10 Y4 2.328013 1_655
O10 Y1 2.434373 1_654
O10 Y2 2.507618 1_555
O11 Y2 2.212545 1_455
O11 Y3 2.306384 1_455
O11 Y4 2.331940 1_555
O11 Y0 2.371856 1_555
