# generated using pymatgen
data_K4MnO4
_symmetry_space_group_name_H-M   'P 1'
_cell_length_a   7.00802909
_cell_length_b   9.38052345
_cell_length_c   10.54225112
_cell_angle_alpha   71.86175580
_cell_angle_beta   91.75984882
_cell_angle_gamma   84.24029727
_symmetry_Int_Tables_number   1
_chemical_formula_structural   K4MnO4
_chemical_formula_sum   'K16 Mn4 O16'
_cell_volume   653.86552162
_cell_formula_units_Z   4
loop_
 _symmetry_equiv_pos_site_id
 _symmetry_equiv_pos_as_xyz
  1  'x, y, z'
loop_
 _atom_site_type_symbol
 _atom_site_label
 _atom_site_symmetry_multiplicity
 _atom_site_fract_x
 _atom_site_fract_y
 _atom_site_fract_z
 _atom_site_occupancy
  K  K0  1  0.62887527  0.37645047  0.40629446  1
  K  K1  1  0.12894190  0.37645902  0.90629954  1
  K  K2  1  0.37109134  0.62354418  0.59369620  1
  K  K3  1  0.87113518  0.62355797  0.09371355  1
  K  K4  1  0.91428027  0.15553787  0.67023316  1
  K  K5  1  0.41430657  0.15553368  0.17024495  1
  K  K6  1  0.08568573  0.84449602  0.32974420  1
  K  K7  1  0.58571057  0.84444771  0.82977371  1
  K  K8  1  0.26062014  0.03358007  0.50943850  1
  K  K9  1  0.76066294  0.03357251  0.00941863  1
  K  K10  1  0.73933903  0.96641417  0.49058115  1
  K  K11  1  0.23936983  0.96644582  0.99054047  1
  K  K12  1  0.11608204  0.43773165  0.39471473  1
  K  K13  1  0.61610589  0.43771707  0.89472657  1
  K  K14  1  0.88390026  0.56227098  0.60527788  1
  K  K15  1  0.38391226  0.56227026  0.10528599  1
  Mn  Mn0  1  0.44562561  0.24877914  0.71172562  1
  Mn  Mn1  1  0.05438409  0.75122044  0.78827153  1
  Mn  Mn2  1  0.94563398  0.24879036  0.21171624  1
  Mn  Mn3  1  0.55434393  0.75122380  0.28828205  1
  O  O0  1  0.12931955  0.37067144  0.16924431  1
  O  O1  1  0.62930441  0.37065251  0.66923961  1
  O  O2  1  0.87072697  0.62935793  0.83075350  1
  O  O3  1  0.37066979  0.62933115  0.33076365  1
  O  O4  1  0.79386251  0.65775546  0.33763649  1
  O  O5  1  0.29382327  0.65776644  0.83761734  1
  O  O6  1  0.20612825  0.34222893  0.66238404  1
  O  O7  1  0.70611081  0.34225787  0.16237980  1
  O  O8  1  0.93674834  0.19311640  0.39040349  1
  O  O9  1  0.43676511  0.19314644  0.89040878  1
  O  O10  1  0.06325577  0.80683629  0.60961548  1
  O  O11  1  0.56325915  0.80685985  0.10957974  1
  O  O12  1  0.03817005  0.11240455  0.13358341  1
  O  O13  1  0.53816500  0.11237548  0.63362877  1
  O  O14  1  0.96186136  0.88757810  0.86637734  1
  O  O15  1  0.46182284  0.88761900  0.36640610  1
loop_
_geom_bond_atom_site_label_1
_geom_bond_atom_site_label_2
_geom_bond_distance
_geom_bond_site_symmetry_2
K0 O8 2.664144 1_555
K0 O3 2.722019 1_555
K0 O7 2.751755 1_555
K0 O1 2.755490 1_555
K0 O4 2.880725 1_555
K0 O13 2.999579 1_555
K1 O9 2.663765 1_555
K1 O2 2.722179 1_455
K1 O6 2.751826 1_555
K1 O0 2.755526 1_556
K1 O5 2.880368 1_555
K1 O12 2.999310 1_556
K2 O10 2.663805 1_555
K2 O1 2.722123 1_555
K2 O5 2.751978 1_555
K2 O3 2.755389 1_555
K2 O6 2.880718 1_555
K2 O15 2.999370 1_555
K3 O11 2.663908 1_555
K3 O0 2.721974 1_655
K3 O4 2.751913 1_555
K3 O2 2.755646 1_554
K3 O7 2.880814 1_555
K3 O14 2.999317 1_554
K4 O1 2.690196 1_555
K4 O14 2.694152 1_545
K4 O13 2.740335 1_555
K4 O6 2.809984 1_655
K4 O8 2.871230 1_555
K5 O0 2.690376 1_555
K5 O15 2.693945 1_545
K5 O12 2.740485 1_555
K5 O7 2.809931 1_555
K5 O9 2.871230 1_554
K6 O3 2.690483 1_555
K6 O12 2.693904 1_565
K6 O15 2.740473 1_555
K6 O4 2.810101 1_455
K6 O10 2.871492 1_555
K7 O2 2.690265 1_555
K7 O13 2.693949 1_565
K7 O14 2.740490 1_555
K7 O5 2.810147 1_555
K7 O11 2.870955 1_556
K8 O13 2.603520 1_555
K8 O10 2.614197 1_545
K8 O8 2.634379 1_455
K8 O15 2.676778 1_545
K9 O12 2.603343 1_655
K9 O11 2.614125 1_545
K9 O9 2.634568 1_554
K9 O14 2.677031 1_544
K10 O15 2.603274 1_555
K10 O8 2.614106 1_565
K10 O10 2.634755 1_655
K10 O13 2.676799 1_565
K11 O14 2.603513 1_455
K11 O9 2.613953 1_565
K11 O11 2.634643 1_556
K11 O12 2.676836 1_566
K12 O3 2.613639 1_555
K12 O0 2.643312 1_555
K12 O6 2.714174 1_555
K12 O8 2.736252 1_455
K12 O4 2.815827 1_455
K13 O2 2.614094 1_555
K13 O1 2.643492 1_555
K13 O7 2.713974 1_556
K13 O9 2.735925 1_555
K13 O5 2.816274 1_555
K14 O1 2.613810 1_555
K14 O2 2.643477 1_555
K14 O4 2.713893 1_555
K14 O10 2.735991 1_655
K14 O6 2.815959 1_655
K15 O0 2.613666 1_555
K15 O3 2.643391 1_555
K15 O5 2.714218 1_554
K15 O11 2.736039 1_555
K15 O7 2.815652 1_555
Mn0 O1 1.782279 1_555
Mn0 O6 1.795333 1_555
Mn0 O9 1.796171 1_555
Mn0 O13 1.804936 1_555
Mn1 O2 1.782091 1_455
Mn1 O5 1.794992 1_555
Mn1 O10 1.795910 1_555
Mn1 O14 1.804615 1_455
Mn2 O0 1.782352 1_655
Mn2 O7 1.795536 1_555
Mn2 O8 1.796217 1_555
Mn2 O12 1.805054 1_655
Mn3 O3 1.782365 1_555
Mn3 O4 1.795531 1_555
Mn3 O11 1.796401 1_555
Mn3 O15 1.805030 1_555
