# generated using pymatgen
data_ZnCr4O8
_symmetry_space_group_name_H-M   'P 1'
_cell_length_a   6.04435928
_cell_length_b   6.04435914
_cell_length_c   6.04435938
_cell_angle_alpha   58.69466207
_cell_angle_beta   58.69464912
_cell_angle_gamma   58.69466833
_symmetry_Int_Tables_number   1
_chemical_formula_structural   ZnCr4O8
_chemical_formula_sum   'Zn1 Cr4 O8'
_cell_volume   151.49021632
_cell_formula_units_Z   1
loop_
 _symmetry_equiv_pos_site_id
 _symmetry_equiv_pos_as_xyz
  1  'x, y, z'
loop_
 _atom_site_type_symbol
 _atom_site_label
 _atom_site_symmetry_multiplicity
 _atom_site_fract_x
 _atom_site_fract_y
 _atom_site_fract_z
 _atom_site_occupancy
  Zn  Zn0  1  0.50000000  0.50000100  0.49999900  1
  Cr  Cr0  1  0.50000100  0.99999900  0.50000100  1
  Cr  Cr1  1  0.99999900  0.50000000  0.50000100  1
  Cr  Cr2  1  0.50000000  0.50000000  0.00000000  1
  Cr  Cr3  1  0.00000000  0.00000000  0.00000000  1
  O  O0  1  0.75840000  0.27462200  0.75840000  1
  O  O1  1  0.24159900  0.24160000  0.72537800  1
  O  O2  1  0.24159900  0.72537900  0.24159900  1
  O  O3  1  0.72537700  0.24160000  0.24160000  1
  O  O4  1  0.27154800  0.27154900  0.27154800  1
  O  O5  1  0.72845200  0.72845200  0.72845200  1
  O  O6  1  0.27462300  0.75840100  0.75840000  1
  O  O7  1  0.75840100  0.75840100  0.27462200  1
loop_
_geom_bond_atom_site_label_1
_geom_bond_atom_site_label_2
_geom_bond_distance
_geom_bond_site_symmetry_2
Cr0 O5 1.943799 1_555
Cr0 O4 1.943817 1_565
Cr0 O6 1.978308 1_555
Cr0 O7 1.978312 1_555
Cr0 O3 1.978313 1_565
Cr0 O1 1.978318 1_565
Cr1 O5 1.943803 1_555
Cr1 O4 1.943808 1_655
Cr1 O0 1.978312 1_555
Cr1 O1 1.978313 1_655
Cr1 O7 1.978313 1_555
Cr1 O2 1.978321 1_655
Cr2 O4 1.943803 1_555
Cr2 O5 1.943807 1_554
Cr2 O3 1.978313 1_555
Cr2 O6 1.978313 1_554
Cr2 O0 1.978317 1_554
Cr2 O2 1.978317 1_555
Cr3 O7 2.049004 1_445
Cr3 O2 2.049004 1_545
Cr3 O1 2.049008 1_554
Cr3 O6 2.049009 1_544
Cr3 O3 2.049013 1_455
Cr3 O0 2.049013 1_454
O0 Zn0 2.201705 1_555
O1 Zn0 2.201709 1_555
O2 Zn0 2.201706 1_555
O3 Zn0 2.201702 1_555
O6 Zn0 2.201706 1_555
O7 Zn0 2.201706 1_555
