# generated using pymatgen
data_Hg4PHNO7
_symmetry_space_group_name_H-M   'P 1'
_cell_length_a   6.12443421
_cell_length_b   8.31820200
_cell_length_c   19.35441814
_cell_angle_alpha   90.00000000
_cell_angle_beta   91.12338898
_cell_angle_gamma   90.00000000
_symmetry_Int_Tables_number   1
_chemical_formula_structural   Hg4PHNO7
_chemical_formula_sum   'Hg16 P4 H4 N4 O28'
_cell_volume   985.80739805
_cell_formula_units_Z   4
loop_
 _symmetry_equiv_pos_site_id
 _symmetry_equiv_pos_as_xyz
  1  'x, y, z'
loop_
 _atom_site_type_symbol
 _atom_site_label
 _atom_site_symmetry_multiplicity
 _atom_site_fract_x
 _atom_site_fract_y
 _atom_site_fract_z
 _atom_site_occupancy
  Hg  Hg0  1  0.96302300  0.45908400  0.23076400  1
  Hg  Hg1  1  0.03697700  0.54091600  0.76923600  1
  Hg  Hg2  1  0.53697700  0.95908400  0.26923600  1
  Hg  Hg3  1  0.46302300  0.04091600  0.73076400  1
  Hg  Hg4  1  0.81419800  0.72603600  0.03702500  1
  Hg  Hg5  1  0.18580200  0.27396400  0.96297500  1
  Hg  Hg6  1  0.68580200  0.22603600  0.46297500  1
  Hg  Hg7  1  0.31419800  0.77396400  0.53702500  1
  Hg  Hg8  1  0.56479200  0.50458000  0.26946800  1
  Hg  Hg9  1  0.43520800  0.49542000  0.73053200  1
  Hg  Hg10  1  0.93520800  0.00458000  0.23053200  1
  Hg  Hg11  1  0.06479200  0.99542000  0.76946800  1
  Hg  Hg12  1  0.67584500  0.42389700  0.06883700  1
  Hg  Hg13  1  0.32415500  0.57610300  0.93116300  1
  Hg  Hg14  1  0.82415500  0.92389700  0.43116300  1
  Hg  Hg15  1  0.17584500  0.07610300  0.56883700  1
  P  P0  1  0.23475600  0.72544100  0.36373900  1
  P  P1  1  0.76524400  0.27455900  0.63626100  1
  P  P2  1  0.26524400  0.22544100  0.13626100  1
  P  P3  1  0.73475600  0.77455900  0.86373900  1
  H  H0  1  0.78366500  0.92097200  0.05917000  1
  H  H1  1  0.21633500  0.07902800  0.94083000  1
  H  H2  1  0.71633500  0.42097200  0.44083000  1
  H  H3  1  0.28366500  0.57902800  0.55917000  1
  N  N0  1  0.23474900  0.24332500  0.37481400  1
  N  N1  1  0.76525100  0.75667500  0.62518600  1
  N  N2  1  0.26525100  0.74332500  0.12518600  1
  N  N3  1  0.73474900  0.25667500  0.87481400  1
  O  O0  1  0.07458500  0.22671000  0.08259200  1
  O  O1  1  0.92541500  0.77329000  0.91740800  1
  O  O2  1  0.42541500  0.72671000  0.41740800  1
  O  O3  1  0.57458500  0.27329000  0.58259200  1
  O  O4  1  0.25498000  0.57589600  0.31458800  1
  O  O5  1  0.74502000  0.42410400  0.68541200  1
  O  O6  1  0.24502000  0.07589600  0.18541200  1
  O  O7  1  0.75498000  0.92410400  0.81458800  1
  O  O8  1  0.23826300  0.88526500  0.32022800  1
  O  O9  1  0.76173700  0.11473500  0.67977200  1
  O  O10  1  0.26173700  0.38526500  0.17977200  1
  O  O11  1  0.73826300  0.61473500  0.82022800  1
  O  O12  1  0.08932700  0.73561800  0.15960000  1
  O  O13  1  0.91067300  0.26438200  0.84040000  1
  O  O14  1  0.41067300  0.23561800  0.34040000  1
  O  O15  1  0.58932700  0.76438200  0.65960000  1
  O  O16  1  0.25287300  0.75280600  0.05983000  1
  O  O17  1  0.74712700  0.24719400  0.94017000  1
  O  O18  1  0.24712700  0.25280600  0.44017000  1
  O  O19  1  0.75287300  0.74719400  0.55983000  1
  O  O20  1  0.00628800  0.71074800  0.39693100  1
  O  O21  1  0.99371200  0.28925200  0.60306900  1
  O  O22  1  0.49371200  0.21074800  0.10306900  1
  O  O23  1  0.50628800  0.78925200  0.89693100  1
  O  O24  1  0.44808500  0.74101800  0.15581200  1
  O  O25  1  0.55191500  0.25898200  0.84418800  1
  O  O26  1  0.05191500  0.24101800  0.34418800  1
  O  O27  1  0.94808500  0.75898200  0.65581200  1
loop_
_geom_bond_atom_site_label_1
_geom_bond_atom_site_label_2
_geom_bond_distance
_geom_bond_site_symmetry_2
Hg0 O10 2.183749 1_655
Hg0 O4 2.580630 1_655
Hg1 O11 2.183749 1_455
Hg1 O5 2.580630 1_455
Hg2 O8 2.183749 1_555
Hg2 O6 2.580630 1_565
Hg3 O9 2.183749 1_555
Hg3 O7 2.580630 1_545
Hg4 O1 2.457653 1_554
Hg5 O0 2.457653 1_556
Hg6 O3 2.457653 1_555
Hg7 O2 2.457653 1_555
Hg8 O4 2.186253 1_555
Hg9 O5 2.186253 1_555
Hg10 O6 2.186253 1_655
Hg11 O7 2.186253 1_455
Hg12 O22 2.203583 1_555
Hg13 O23 2.203583 1_555
Hg14 O20 2.203583 1_655
Hg15 O21 2.203583 1_455
H0 Hg4 1.688529 1_555
H1 Hg5 1.688529 1_555
H2 Hg6 1.688529 1_555
H3 Hg7 1.688529 1_555
N0 O26 1.256799 1_555
N0 O18 1.268167 1_555
N0 O14 1.279357 1_555
N1 O27 1.256799 1_555
N1 O19 1.268167 1_555
N1 O15 1.279357 1_555
N2 O24 1.256799 1_555
N2 O16 1.268167 1_555
N2 O12 1.279357 1_555
N3 O25 1.256799 1_555
N3 O17 1.268167 1_555
N3 O13 1.279357 1_555
O0 P2 1.547575 1_555
O1 P3 1.547575 1_555
O2 P0 1.547575 1_555
O3 P1 1.547575 1_555
O4 P0 1.572359 1_555
O5 P1 1.572359 1_555
O6 P2 1.572359 1_555
O7 P3 1.572359 1_555
O8 P0 1.574099 1_555
O9 P1 1.574099 1_555
O10 P2 1.574099 1_555
O11 P3 1.574099 1_555
O20 P0 1.555873 1_555
O21 P1 1.555873 1_555
O22 P2 1.555873 1_555
O23 P3 1.555873 1_555
