# generated using pymatgen
data_SrCl3
_symmetry_space_group_name_H-M   'P 1'
_cell_length_a   6.33984627
_cell_length_b   6.33984627
_cell_length_c   5.72102300
_cell_angle_alpha   90.00000000
_cell_angle_beta   90.00000000
_cell_angle_gamma   120.00000278
_symmetry_Int_Tables_number   1
_chemical_formula_structural   SrCl3
_chemical_formula_sum   'Sr2 Cl6'
_cell_volume   199.14149681
_cell_formula_units_Z   2
loop_
 _symmetry_equiv_pos_site_id
 _symmetry_equiv_pos_as_xyz
  1  'x, y, z'
loop_
 _atom_site_type_symbol
 _atom_site_label
 _atom_site_symmetry_multiplicity
 _atom_site_fract_x
 _atom_site_fract_y
 _atom_site_fract_z
 _atom_site_occupancy
  Sr  Sr0  1  0.33333300  0.66666700  0.75000000  1
  Sr  Sr1  1  0.66666700  0.33333300  0.25000000  1
  Cl  Cl0  1  0.17303800  0.34607700  0.25000000  1
  Cl  Cl1  1  0.65392300  0.82696200  0.25000000  1
  Cl  Cl2  1  0.17303800  0.82696200  0.25000000  1
  Cl  Cl3  1  0.82696200  0.65392300  0.75000000  1
  Cl  Cl4  1  0.34607700  0.17303800  0.75000000  1
  Cl  Cl5  1  0.82696200  0.17303800  0.75000000  1
loop_
_geom_bond_atom_site_label_1
_geom_bond_atom_site_label_2
_geom_bond_distance
_geom_bond_site_symmetry_2
Cl0 Sr1 3.170689 1_455
Cl0 Sr1 3.170702 1_555
Cl0 Sr0 3.358689 1_555
Cl0 Sr0 3.358689 1_554
Cl1 Sr1 3.170689 1_565
Cl1 Sr1 3.170702 1_555
Cl1 Sr0 3.358689 1_555
Cl1 Sr0 3.358689 1_554
Cl2 Sr1 3.170695 1_455
Cl2 Sr1 3.170695 1_565
Cl2 Sr0 3.358689 1_555
Cl2 Sr0 3.358689 1_554
Cl3 Sr0 3.170689 1_655
Cl3 Sr0 3.170702 1_555
Cl3 Sr1 3.358689 1_556
Cl3 Sr1 3.358689 1_555
Cl4 Sr0 3.170689 1_545
Cl4 Sr0 3.170702 1_555
Cl4 Sr1 3.358689 1_555
Cl4 Sr1 3.358689 1_556
Cl5 Sr0 3.170695 1_655
Cl5 Sr0 3.170695 1_545
Cl5 Sr1 3.358689 1_555
Cl5 Sr1 3.358689 1_556
