# generated using pymatgen
data_CsNaMg6
_symmetry_space_group_name_H-M   'P 1'
_cell_length_a   5.41512400
_cell_length_b   7.41365400
_cell_length_c   12.01824400
_cell_angle_alpha   90.00000000
_cell_angle_beta   90.00000000
_cell_angle_gamma   90.00000000
_symmetry_Int_Tables_number   1
_chemical_formula_structural   CsNaMg6
_chemical_formula_sum   'Cs2 Na2 Mg12'
_cell_volume   482.48268943
_cell_formula_units_Z   2
loop_
 _symmetry_equiv_pos_site_id
 _symmetry_equiv_pos_as_xyz
  1  'x, y, z'
loop_
 _atom_site_type_symbol
 _atom_site_label
 _atom_site_symmetry_multiplicity
 _atom_site_fract_x
 _atom_site_fract_y
 _atom_site_fract_z
 _atom_site_occupancy
  Cs  Cs0  1  0.50000000  0.50000000  0.17388700  1
  Cs  Cs1  1  0.50000000  0.00000000  0.67388700  1
  Na  Na0  1  0.00000000  0.50000000  0.34433500  1
  Na  Na1  1  0.00000000  0.00000000  0.84433500  1
  Mg  Mg0  1  0.00000000  0.78912200  0.07088700  1
  Mg  Mg1  1  0.00000000  0.21087800  0.07088700  1
  Mg  Mg2  1  0.00000000  0.50000000  0.83255300  1
  Mg  Mg3  1  0.50000000  0.73496800  0.92303100  1
  Mg  Mg4  1  0.50000000  0.26503200  0.92303100  1
  Mg  Mg5  1  0.50000000  0.50000000  0.66139000  1
  Mg  Mg6  1  0.00000000  0.28912200  0.57088700  1
  Mg  Mg7  1  0.00000000  0.71087800  0.57088700  1
  Mg  Mg8  1  0.00000000  0.00000000  0.33255300  1
  Mg  Mg9  1  0.50000000  0.23496800  0.42303100  1
  Mg  Mg10  1  0.50000000  0.76503200  0.42303100  1
  Mg  Mg11  1  0.50000000  0.00000000  0.16139000  1
loop_
_geom_bond_atom_site_label_1
_geom_bond_atom_site_label_2
_geom_bond_distance
_geom_bond_site_symmetry_2
Cs0 Na0 3.395171 1_655
Cs0 Na0 3.395171 1_555
Cs0 Mg3 3.481921 1_554
Cs0 Mg4 3.481921 1_554
Cs0 Mg10 3.581387 1_555
Cs0 Mg9 3.581387 1_555
Cs0 Mg0 3.668462 1_655
Cs0 Mg0 3.668462 1_555
Cs0 Mg1 3.668462 1_655
Cs0 Mg1 3.668462 1_555
Cs0 Mg11 3.709868 1_565
Cs0 Mg11 3.709868 1_555
Cs1 Na1 3.395171 1_655
Cs1 Na1 3.395171 1_555
Cs1 Mg9 3.481921 1_555
Cs1 Mg10 3.481921 1_545
Cs1 Mg3 3.581387 1_545
Cs1 Mg4 3.581387 1_555
Cs1 Mg7 3.668462 1_645
Cs1 Mg6 3.668462 1_555
Cs1 Mg6 3.668462 1_655
Cs1 Mg7 3.668462 1_545
Cs1 Mg5 3.709868 1_555
Cs1 Mg5 3.709868 1_545
Mg0 Mg1 3.126753 1_565
Mg0 Na1 3.139674 1_564
Mg0 Mg3 3.263387 1_554
Mg0 Mg3 3.263387 1_454
Mg0 Mg11 3.310302 1_465
Mg0 Mg11 3.310302 1_565
Mg0 Mg8 3.511937 1_565
Mg0 Mg2 3.577557 1_554
Mg1 Na1 3.139674 1_554
Mg1 Mg4 3.263387 1_554
Mg1 Mg4 3.263387 1_454
Mg1 Mg11 3.310302 1_455
Mg1 Mg11 3.310302 1_555
Mg1 Mg8 3.511937 1_555
Mg1 Mg2 3.577557 1_554
Mg2 Mg3 3.398200 1_455
Mg2 Mg3 3.398200 1_555
Mg2 Mg4 3.398200 1_455
Mg2 Mg4 3.398200 1_555
Mg2 Mg5 3.400362 1_555
Mg2 Mg5 3.400362 1_455
Mg2 Mg6 3.511937 1_555
Mg2 Mg7 3.511937 1_555
Mg2 Na1 3.709531 1_555
Mg2 Na1 3.709531 1_565
Mg3 Na1 3.476502 1_565
Mg3 Na1 3.476502 1_665
Mg3 Mg4 3.483943 1_555
Mg3 Mg5 3.594736 1_555
Mg4 Na1 3.476502 1_655
Mg4 Na1 3.476502 1_555
Mg4 Mg5 3.594736 1_555
Mg5 Mg6 3.310302 1_555
Mg5 Mg6 3.310302 1_655
Mg5 Mg7 3.310302 1_555
Mg5 Mg7 3.310302 1_655
Mg5 Mg9 3.473747 1_555
Mg6 Mg7 3.126753 1_555
Mg6 Na0 3.139674 1_555
Mg6 Mg9 3.263387 1_555
Mg6 Mg9 3.263387 1_455
Mg6 Mg8 3.577557 1_555
Mg7 Na0 3.139674 1_555
Mg7 Mg8 3.577557 1_565
Mg8 Mg9 3.398200 1_455
Mg8 Mg9 3.398200 1_555
Mg8 Na0 3.709531 1_545
Mg8 Na0 3.709531 1_555
Mg9 Na0 3.476502 1_555
Mg9 Na0 3.476502 1_655
Mg10 Mg7 3.263387 1_555
Mg10 Mg7 3.263387 1_655
Mg10 Mg8 3.398200 1_565
Mg10 Mg8 3.398200 1_665
Mg10 Mg5 3.473747 1_555
Mg10 Na0 3.476502 1_555
Mg10 Na0 3.476502 1_655
Mg10 Mg9 3.483943 1_565
Mg10 Mg11 3.594736 1_565
Mg11 Mg8 3.400362 1_655
Mg11 Mg8 3.400362 1_555
Mg11 Mg4 3.473747 1_554
Mg11 Mg3 3.473747 1_544
Mg11 Mg9 3.594736 1_555
