# generated using pymatgen
data_RbPrNb2O7
_symmetry_space_group_name_H-M   'P 1'
_cell_length_a   11.91057791
_cell_length_b   11.91057791
_cell_length_c   11.91057791
_cell_angle_alpha   153.07439192
_cell_angle_beta   152.94109708
_cell_angle_gamma   38.54356909
_symmetry_Int_Tables_number   1
_chemical_formula_structural   RbPrNb2O7
_chemical_formula_sum   'Rb2 Pr2 Nb4 O14'
_cell_volume   347.48575255
_cell_formula_units_Z   2
loop_
 _symmetry_equiv_pos_site_id
 _symmetry_equiv_pos_as_xyz
  1  'x, y, z'
loop_
 _atom_site_type_symbol
 _atom_site_label
 _atom_site_symmetry_multiplicity
 _atom_site_fract_x
 _atom_site_fract_y
 _atom_site_fract_z
 _atom_site_occupancy
  Rb  Rb0  1  0.50000000  0.50000000  0.00000000  1
  Rb  Rb1  1  0.00000000  0.00000000  0.00000000  1
  Pr  Pr0  1  0.22900800  0.25000000  0.97900800  1
  Pr  Pr1  1  0.77099200  0.75000000  0.02099200  1
  Nb  Nb0  1  0.35481700  0.85269600  0.50212200  1
  Nb  Nb1  1  0.64518300  0.14730400  0.49787800  1
  Nb  Nb2  1  0.85057400  0.35269600  0.49787800  1
  Nb  Nb3  1  0.14942600  0.64730400  0.50212200  1
  O  O0  1  0.22410100  0.75000000  0.47410100  1
  O  O1  1  0.77589900  0.25000000  0.52589900  1
  O  O2  1  0.42925300  0.93299000  0.49626200  1
  O  O3  1  0.57074700  0.06701000  0.50373800  1
  O  O4  1  0.93672800  0.43299000  0.50373800  1
  O  O5  1  0.06327200  0.56701000  0.49626200  1
  O  O6  1  0.58153700  0.58153700  0.50000000  1
  O  O7  1  0.41846300  0.91846300  0.00000000  1
  O  O8  1  0.58153700  0.08153700  0.00000000  1
  O  O9  1  0.41846300  0.41846300  0.50000000  1
  O  O10  1  0.08399000  0.08399000  0.50000000  1
  O  O11  1  0.91601000  0.41601000  0.00000000  1
  O  O12  1  0.08399000  0.58399000  0.00000000  1
  O  O13  1  0.91601000  0.91601000  0.50000000  1
loop_
_geom_bond_atom_site_label_1
_geom_bond_atom_site_label_2
_geom_bond_distance
_geom_bond_site_symmetry_2
Nb0 O2 1.805833 1_555
Nb0 O8 2.014175 1_566
Nb0 O6 2.014179 1_555
Nb0 O10 2.018253 1_565
Nb0 O12 2.018257 1_555
Nb0 O0 2.314516 1_555
Nb1 O3 1.805833 1_555
Nb1 O7 2.014175 1_545
Nb1 O9 2.014179 1_555
Nb1 O13 2.018253 1_545
Nb1 O11 2.018257 1_556
Nb1 O1 2.314516 1_555
Nb2 O4 1.805811 1_555
Nb2 O8 2.014178 1_555
Nb2 O6 2.014178 1_555
Nb2 O10 2.018259 1_655
Nb2 O12 2.018259 1_656
Nb2 O1 2.314527 1_555
Nb3 O5 1.805811 1_555
Nb3 O9 2.014178 1_555
Nb3 O7 2.014178 1_556
Nb3 O11 2.018259 1_455
Nb3 O13 2.018259 1_455
Nb3 O0 2.314527 1_555
O0 Pr1 2.525106 1_455
O0 Pr0 2.773085 1_554
O0 Pr0 2.773085 1_565
O0 Pr1 3.047738 1_556
O1 Pr0 2.525106 1_655
O1 Pr1 2.773085 1_556
O1 Pr1 2.773085 1_545
O1 Pr0 3.047738 1_554
O2 Rb1 3.149435 1_565
O2 Rb0 3.155963 1_555
O2 Rb0 3.155968 1_566
O2 Rb1 3.186077 1_666
O3 Rb1 3.149435 1_656
O3 Rb0 3.155963 1_556
O3 Rb0 3.155968 1_545
O3 Rb1 3.186077 1_555
O4 Rb0 3.149438 1_656
O4 Rb1 3.155971 1_655
O4 Rb1 3.155971 1_666
O4 Rb0 3.186085 1_555
O5 Rb0 3.149438 1_455
O5 Rb1 3.155971 1_555
O5 Rb1 3.155971 1_566
O5 Rb0 3.186085 1_556
O6 Pr1 2.750382 1_556
O6 Pr0 2.750382 1_554
O7 Pr0 2.750382 1_564
O7 Pr1 2.750382 1_555
O8 Pr1 2.750382 1_545
O8 Pr0 2.750382 1_554
O9 Pr0 2.750382 1_554
O9 Pr1 2.750382 1_556
O10 Pr0 2.667952 1_555
O10 Pr1 2.667952 1_445
O11 Pr0 2.667952 1_654
O11 Pr1 2.667952 1_555
O12 Pr1 2.667952 1_455
O12 Pr0 2.667952 1_554
O13 Pr0 2.667952 1_665
O13 Pr1 2.667952 1_555
