# generated using pymatgen
data_K9Ce(PS4)4
_symmetry_space_group_name_H-M   'P 1'
_cell_length_a   9.91110085
_cell_length_b   11.37847781
_cell_length_c   16.97831697
_cell_angle_alpha   74.84286705
_cell_angle_beta   73.02974424
_cell_angle_gamma   64.18163975
_symmetry_Int_Tables_number   1
_chemical_formula_structural   K9Ce(PS4)4
_chemical_formula_sum   'K18 Ce2 P8 S32'
_cell_volume   1628.32869593
_cell_formula_units_Z   2
loop_
 _symmetry_equiv_pos_site_id
 _symmetry_equiv_pos_as_xyz
  1  'x, y, z'
loop_
 _atom_site_type_symbol
 _atom_site_label
 _atom_site_symmetry_multiplicity
 _atom_site_fract_x
 _atom_site_fract_y
 _atom_site_fract_z
 _atom_site_occupancy
  K  K0  1  0.47398629  0.39883770  0.13000207  1
  K  K1  1  0.52601371  0.60116230  0.86999793  1
  K  K2  1  0.00282606  0.10116230  0.36999793  1
  K  K3  1  0.99717394  0.89883770  0.63000207  1
  K  K4  1  0.49132297  0.12464468  0.37016032  1
  K  K5  1  0.50867703  0.87535532  0.62983968  1
  K  K6  1  0.98612798  0.37535532  0.12983968  1
  K  K7  1  0.01387202  0.62464468  0.87016032  1
  K  K8  1  0.09507703  0.81302699  0.02195465  1
  K  K9  1  0.90492297  0.18697301  0.97804535  1
  K  K10  1  0.93005866  0.68697301  0.47804535  1
  K  K11  1  0.06994134  0.31302699  0.52195465  1
  K  K12  1  0.40368497  0.06067609  0.10421182  1
  K  K13  1  0.59631503  0.93932391  0.89578818  1
  K  K14  1  0.56857288  0.43932391  0.39578818  1
  K  K15  1  0.43142712  0.56067609  0.60421182  1
  K  K16  1  0.24653934  0.75000000  0.25000000  1
  K  K17  1  0.75346066  0.25000000  0.75000000  1
  Ce  Ce0  1  0.74592207  0.75000000  0.25000000  1
  Ce  Ce1  1  0.25407793  0.25000000  0.75000000  1
  P  P0  1  0.85769082  0.04594204  0.21023770  1
  P  P1  1  0.14230918  0.95405796  0.78976230  1
  P  P2  1  0.11387056  0.45405796  0.28976230  1
  P  P3  1  0.88612944  0.54594204  0.71023770  1
  P  P4  1  0.37648356  0.83976329  0.41809129  1
  P  P5  1  0.62351644  0.16023671  0.58190871  1
  P  P6  1  0.63433815  0.66023671  0.08190871  1
  P  P7  1  0.36566185  0.33976329  0.91809129  1
  S  S0  1  0.72779279  0.01675834  0.50786293  1
  S  S1  1  0.27220721  0.98324166  0.49213707  1
  S  S2  1  0.25241406  0.48324166  0.99213707  1
  S  S3  1  0.74758594  0.51675834  0.00786293  1
  S  S4  1  0.74256021  0.22995515  0.24375923  1
  S  S5  1  0.25743979  0.77004485  0.75624077  1
  S  S6  1  0.21627458  0.27004485  0.25624077  1
  S  S7  1  0.78372542  0.72995515  0.74375923  1
  S  S8  1  0.86616436  0.89942407  0.31378793  1
  S  S9  1  0.13383564  0.10057593  0.68621207  1
  S  S10  1  0.07937637  0.60057593  0.18621207  1
  S  S11  1  0.92062363  0.39942407  0.81378793  1
  S  S12  1  0.41159135  0.92038550  0.29282196  1
  S  S13  1  0.58840865  0.07961450  0.70717804  1
  S  S14  1  0.62479881  0.57961450  0.20717804  1
  S  S15  1  0.37520119  0.42038550  0.79282196  1
  S  S16  1  0.74786030  0.00680442  0.13986167  1
  S  S17  1  0.25213970  0.99319558  0.86013833  1
  S  S18  1  0.89452639  0.49319558  0.36013833  1
  S  S19  1  0.10547361  0.50680442  0.63986167  1
  S  S20  1  0.42362061  0.77366470  0.05437234  1
  S  S21  1  0.57637939  0.22633530  0.94562766  1
  S  S22  1  0.25165765  0.72633530  0.44562766  1
  S  S23  1  0.74834235  0.27366470  0.55437234  1
  S  S24  1  0.24132638  0.46899372  0.35888157  1
  S  S25  1  0.75867362  0.53100628  0.64111843  1
  S  S26  1  0.06920167  0.03100628  0.14111843  1
  S  S27  1  0.93079833  0.96899372  0.85888157  1
  S  S28  1  0.59656545  0.71684898  0.43448032  1
  S  S29  1  0.40343455  0.28315102  0.56551968  1
  S  S30  1  0.74789475  0.78315102  0.06551968  1
  S  S31  1  0.25210525  0.21684898  0.93448032  1
loop_
_geom_bond_atom_site_label_1
_geom_bond_atom_site_label_2
_geom_bond_distance
_geom_bond_site_symmetry_2
K0 S4 3.333667 1_555
K0 S2 3.348410 1_554
K0 S6 3.418703 1_555
K0 S3 3.447519 1_555
K0 S10 3.552875 1_555
K0 S14 3.662385 1_555
K0 S21 3.782236 1_554
K1 S5 3.333667 1_555
K1 S3 3.348410 1_556
K1 S7 3.418703 1_555
K1 S2 3.447519 1_555
K1 S11 3.552875 1_555
K1 S15 3.662385 1_555
K1 S20 3.782236 1_556
K2 S6 3.333667 1_555
K2 S0 3.348410 1_455
K2 S4 3.418703 1_455
K2 S1 3.447519 1_545
K2 S8 3.552875 1_445
K2 S12 3.662385 1_545
K2 S23 3.782236 1_455
K3 S7 3.333667 1_555
K3 S1 3.348410 1_655
K3 S5 3.418703 1_655
K3 S0 3.447519 1_565
K3 S9 3.552875 1_665
K3 S13 3.662385 1_565
K3 S22 3.782236 1_655
K4 S1 3.204599 1_545
K4 S4 3.221262 1_555
K4 S6 3.374238 1_555
K4 S12 3.398780 1_545
K4 S0 3.414319 1_555
K4 S8 3.492766 1_545
K4 S24 3.599486 1_555
K5 S0 3.204599 1_565
K5 S5 3.221262 1_555
K5 S7 3.374238 1_555
K5 S13 3.398780 1_565
K5 S1 3.414319 1_555
K5 S9 3.492766 1_565
K5 S25 3.599486 1_555
K6 S3 3.204599 1_555
K6 S6 3.221262 1_655
K6 S4 3.374238 1_555
K6 S14 3.398781 1_555
K6 S2 3.414318 1_654
K6 S10 3.492766 1_655
K6 S26 3.599486 1_655
K7 S2 3.204599 1_555
K7 S7 3.221262 1_455
K7 S5 3.374238 1_555
K7 S15 3.398781 1_555
K7 S3 3.414318 1_456
K7 S11 3.492766 1_455
K7 S27 3.599486 1_455
K8 S10 3.192850 1_555
K8 S20 3.279257 1_555
K8 S27 3.318339 1_454
K8 S17 3.392901 1_554
K8 S30 3.450293 1_455
K8 S26 3.475351 1_565
K8 S2 3.493503 1_554
K8 S16 3.519813 1_465
K9 S11 3.192850 1_555
K9 S21 3.279257 1_555
K9 S26 3.318339 1_656
K9 S16 3.392901 1_556
K9 S31 3.450293 1_655
K9 S27 3.475351 1_545
K9 S3 3.493503 1_556
K9 S17 3.519813 1_645
K10 S8 3.192850 1_555
K10 S22 3.279257 1_655
K10 S25 3.318339 1_555
K10 S19 3.392901 1_655
K10 S28 3.450293 1_555
K10 S24 3.475351 1_655
K10 S0 3.493503 1_565
K10 S18 3.519813 1_555
K11 S9 3.192850 1_555
K11 S23 3.279257 1_455
K11 S24 3.318339 1_555
K11 S18 3.392901 1_455
K11 S29 3.450293 1_555
K11 S25 3.475351 1_455
K11 S1 3.493503 1_545
K11 S19 3.519813 1_555
K12 S12 3.189562 1_545
K12 S26 3.338876 1_555
K12 S21 3.346358 1_554
K12 S31 3.353093 1_554
K12 S16 3.401179 1_555
K12 S20 3.493662 1_545
K12 S6 3.514334 1_555
K12 S30 3.526275 1_545
K13 S13 3.189562 1_565
K13 S27 3.338876 1_555
K13 S20 3.346358 1_556
K13 S30 3.353093 1_556
K13 S17 3.401179 1_555
K13 S21 3.493662 1_565
K13 S7 3.514334 1_555
K13 S31 3.526275 1_565
K14 S14 3.189562 1_555
K14 S24 3.338876 1_555
K14 S23 3.346358 1_555
K14 S29 3.353093 1_555
K14 S18 3.401179 1_555
K14 S22 3.493662 1_555
K14 S4 3.514334 1_555
K14 S28 3.526275 1_555
K15 S15 3.189562 1_555
K15 S25 3.338876 1_555
K15 S22 3.346358 1_555
K15 S28 3.353093 1_555
K15 S19 3.401179 1_555
K15 S23 3.493662 1_555
K15 S5 3.514334 1_555
K15 S29 3.526275 1_555
K16 S24 3.262018 1_555
K16 S26 3.262019 1_565
K16 S22 3.275017 1_555
K16 S20 3.275017 1_555
K16 S12 3.340224 1_555
K16 S14 3.340224 1_555
K16 S10 3.357451 1_555
K16 S8 3.357451 1_455
K17 S25 3.262018 1_555
K17 S27 3.262019 1_545
K17 S23 3.275017 1_555
K17 S21 3.275017 1_555
K17 S13 3.340224 1_555
K17 S15 3.340224 1_555
K17 S11 3.357451 1_555
K17 S9 3.357451 1_655
Ce0 S8 2.994182 1_555
Ce0 S10 2.994182 1_655
Ce0 S14 3.000367 1_555
Ce0 S12 3.000367 1_555
Ce0 S16 3.034143 1_565
Ce0 S18 3.034143 1_555
Ce0 S30 3.050569 1_555
Ce0 S28 3.050569 1_555
Ce1 S9 2.994182 1_555
Ce1 S11 2.994182 1_455
Ce1 S15 3.000367 1_555
Ce1 S13 3.000367 1_555
Ce1 S17 3.034143 1_545
Ce1 S19 3.034143 1_555
Ce1 S31 3.050569 1_555
Ce1 S29 3.050569 1_555
P0 S26 2.039229 1_655
P0 S4 2.042772 1_555
P0 S16 2.066568 1_555
P0 S8 2.075787 1_545
P1 S27 2.039229 1_455
P1 S5 2.042772 1_555
P1 S17 2.066568 1_555
P1 S9 2.075787 1_565
P2 S24 2.039229 1_555
P2 S6 2.042772 1_555
P2 S18 2.066568 1_455
P2 S10 2.075787 1_555
P3 S25 2.039229 1_555
P3 S7 2.042772 1_555
P3 S19 2.066568 1_655
P3 S11 2.075787 1_555
P4 S22 2.037775 1_555
P4 S1 2.039370 1_555
P4 S28 2.069995 1_555
P4 S12 2.076511 1_555
P5 S23 2.037775 1_555
P5 S0 2.039370 1_555
P5 S29 2.069995 1_555
P5 S13 2.076511 1_555
P6 S20 2.037775 1_555
P6 S3 2.039370 1_555
P6 S30 2.069994 1_555
P6 S14 2.076511 1_555
P7 S21 2.037775 1_555
P7 S2 2.039370 1_555
P7 S31 2.069994 1_555
P7 S15 2.076511 1_555
