# generated using pymatgen
data_Hf3Mg
_symmetry_space_group_name_H-M   'P 1'
_cell_length_a   6.28427406
_cell_length_b   6.28427406
_cell_length_c   5.10419200
_cell_angle_alpha   90.00000000
_cell_angle_beta   90.00000000
_cell_angle_gamma   120.00000065
_symmetry_Int_Tables_number   1
_chemical_formula_structural   Hf3Mg
_chemical_formula_sum   'Hf6 Mg2'
_cell_volume   174.56929770
_cell_formula_units_Z   2
loop_
 _symmetry_equiv_pos_site_id
 _symmetry_equiv_pos_as_xyz
  1  'x, y, z'
loop_
 _atom_site_type_symbol
 _atom_site_label
 _atom_site_symmetry_multiplicity
 _atom_site_fract_x
 _atom_site_fract_y
 _atom_site_fract_z
 _atom_site_occupancy
  Hf  Hf0  1  0.66444400  0.83222200  0.75000000  1
  Hf  Hf1  1  0.16777800  0.33555600  0.75000000  1
  Hf  Hf2  1  0.16777800  0.83222200  0.75000000  1
  Hf  Hf3  1  0.83222200  0.66444400  0.25000000  1
  Hf  Hf4  1  0.83222200  0.16777800  0.25000000  1
  Hf  Hf5  1  0.33555600  0.16777800  0.25000000  1
  Mg  Mg0  1  0.66666700  0.33333300  0.75000000  1
  Mg  Mg1  1  0.33333300  0.66666700  0.25000000  1
loop_
_geom_bond_atom_site_label_1
_geom_bond_atom_site_label_2
_geom_bond_distance
_geom_bond_site_symmetry_2
Hf0 Hf1 3.121185 1_555
Hf0 Hf2 3.121185 1_555
Hf0 Mg1 3.124174 1_556
Hf0 Mg1 3.124174 1_555
Hf0 Hf4 3.138190 1_566
Hf0 Hf4 3.138190 1_565
Hf0 Hf3 3.138190 1_556
Hf0 Hf3 3.138190 1_555
Hf0 Mg0 3.142157 1_565
Hf0 Mg0 3.142163 1_555
Hf0 Hf1 3.163089 1_665
Hf0 Hf2 3.163089 1_655
Hf1 Hf2 3.121185 1_555
Hf1 Mg1 3.124174 1_555
Hf1 Mg1 3.124174 1_556
Hf1 Hf4 3.138190 1_455
Hf1 Hf4 3.138190 1_456
Hf1 Hf5 3.138190 1_555
Hf1 Hf5 3.138190 1_556
Hf1 Mg0 3.142157 1_455
Hf1 Mg0 3.142163 1_555
Hf1 Hf2 3.163089 1_545
Hf2 Mg1 3.124171 1_556
Hf2 Mg1 3.124171 1_555
Hf2 Hf3 3.138190 1_455
Hf2 Hf3 3.138190 1_456
Hf2 Hf5 3.138190 1_566
Hf2 Hf5 3.138190 1_565
Hf2 Mg0 3.142160 1_455
Hf2 Mg0 3.142160 1_565
Hf3 Hf5 3.121185 1_555
Hf3 Hf4 3.121185 1_555
Hf3 Mg0 3.124174 1_554
Hf3 Mg0 3.124174 1_555
Hf3 Mg1 3.142157 1_655
Hf3 Mg1 3.142163 1_555
Hf3 Hf5 3.163089 1_665
Hf3 Hf4 3.163089 1_565
Hf4 Hf5 3.121185 1_555
Hf4 Mg0 3.124171 1_555
Hf4 Mg0 3.124171 1_554
Hf4 Mg1 3.142160 1_545
Hf4 Mg1 3.142160 1_655
Hf4 Hf5 3.163089 1_655
Hf5 Mg0 3.124174 1_554
Hf5 Mg0 3.124174 1_555
Hf5 Mg1 3.142157 1_545
Hf5 Mg1 3.142163 1_555
