# generated using pymatgen
data_CsCrC6
_symmetry_space_group_name_H-M   'P 1'
_cell_length_a   5.17386700
_cell_length_b   5.17386700
_cell_length_c   5.17386700
_cell_angle_alpha   90.00000000
_cell_angle_beta   90.00000000
_cell_angle_gamma   90.00000000
_symmetry_Int_Tables_number   1
_chemical_formula_structural   CsCrC6
_chemical_formula_sum   'Cs1 Cr1 C6'
_cell_volume   138.49872696
_cell_formula_units_Z   1
loop_
 _symmetry_equiv_pos_site_id
 _symmetry_equiv_pos_as_xyz
  1  'x, y, z'
loop_
 _atom_site_type_symbol
 _atom_site_label
 _atom_site_symmetry_multiplicity
 _atom_site_fract_x
 _atom_site_fract_y
 _atom_site_fract_z
 _atom_site_occupancy
  Cs  Cs0  1  0.00000000  0.00000000  0.00000000  1
  Cr  Cr0  1  0.50000000  0.50000000  0.50000000  1
  C  C0  1  0.12248300  0.50000000  0.50000000  1
  C  C1  1  0.87751700  0.50000000  0.50000000  1
  C  C2  1  0.50000000  0.12248300  0.50000000  1
  C  C3  1  0.50000000  0.50000000  0.12248300  1
  C  C4  1  0.50000000  0.87751700  0.50000000  1
  C  C5  1  0.50000000  0.50000000  0.87751700  1
loop_
_geom_bond_atom_site_label_1
_geom_bond_atom_site_label_2
_geom_bond_distance
_geom_bond_site_symmetry_2
C0 C1 1.267422 1_455
C0 Cr0 1.953223 1_555
C0 Cs0 3.712956 1_555
C0 Cs0 3.712956 1_556
C0 Cs0 3.712956 1_565
C0 Cs0 3.712956 1_566
C1 Cr0 1.953223 1_555
C1 Cs0 3.712956 1_666
C1 Cs0 3.712956 1_655
C1 Cs0 3.712956 1_665
C1 Cs0 3.712956 1_656
C2 C4 1.267422 1_545
C2 Cr0 1.953223 1_555
C2 Cs0 3.712956 1_555
C2 Cs0 3.712956 1_655
C2 Cs0 3.712956 1_556
C2 Cs0 3.712956 1_656
C3 C5 1.267422 1_554
C3 Cr0 1.953223 1_555
C3 Cs0 3.712956 1_665
C3 Cs0 3.712956 1_565
C3 Cs0 3.712956 1_555
C3 Cs0 3.712956 1_655
C4 Cr0 1.953223 1_555
C4 Cs0 3.712956 1_666
C4 Cs0 3.712956 1_665
C4 Cs0 3.712956 1_565
C4 Cs0 3.712956 1_566
C5 Cr0 1.953223 1_555
C5 Cs0 3.712956 1_666
C5 Cs0 3.712956 1_556
C5 Cs0 3.712956 1_566
C5 Cs0 3.712956 1_656
