# generated using pymatgen
data_Tb3FeSi6
_symmetry_space_group_name_H-M   'P 1'
_cell_length_a   4.00019400
_cell_length_b   4.02290400
_cell_length_c   23.80959162
_cell_angle_alpha   85.15383374
_cell_angle_beta   90.00000000
_cell_angle_gamma   90.00000000
_symmetry_Int_Tables_number   1
_chemical_formula_structural   Tb3FeSi6
_chemical_formula_sum   'Tb6 Fe2 Si12'
_cell_volume   381.78365711
_cell_formula_units_Z   2
loop_
 _symmetry_equiv_pos_site_id
 _symmetry_equiv_pos_as_xyz
  1  'x, y, z'
loop_
 _atom_site_type_symbol
 _atom_site_label
 _atom_site_symmetry_multiplicity
 _atom_site_fract_x
 _atom_site_fract_y
 _atom_site_fract_z
 _atom_site_occupancy
  Tb  Tb0  1  0.25000000  0.96352800  0.07294300  1
  Tb  Tb1  1  0.25000000  0.29758900  0.40482400  1
  Tb  Tb2  1  0.25000000  0.63013000  0.73974100  1
  Tb  Tb3  1  0.75000000  0.37006900  0.25986100  1
  Tb  Tb4  1  0.75000000  0.70246300  0.59507200  1
  Tb  Tb5  1  0.75000000  0.03880800  0.92238600  1
  Fe  Fe0  1  0.25000000  0.41735900  0.16528400  1
  Fe  Fe1  1  0.25000000  0.75015100  0.49969800  1
  Si  Si0  1  0.25000000  0.84626100  0.30747800  1
  Si  Si1  1  0.25000000  0.17953800  0.64092400  1
  Si  Si2  1  0.25000000  0.51492700  0.97014600  1
  Si  Si3  1  0.75000000  0.48701300  0.02597300  1
  Si  Si4  1  0.75000000  0.81917900  0.36164400  1
  Si  Si5  1  0.75000000  0.15080600  0.69838800  1
  Si  Si6  1  0.25000000  0.89712700  0.20574600  1
  Si  Si7  1  0.25000000  0.23029100  0.53941900  1
  Si  Si8  1  0.25000000  0.56439000  0.87122000  1
  Si  Si9  1  0.75000000  0.43619800  0.12760300  1
  Si  Si10  1  0.75000000  0.76893000  0.46213800  1
  Si  Si11  1  0.75000000  0.10191200  0.79617700  1
loop_
_geom_bond_atom_site_label_1
_geom_bond_atom_site_label_2
_geom_bond_distance
_geom_bond_site_symmetry_2
Fe0 Si9 2.190789 1_455
Fe0 Si9 2.190789 1_555
Fe0 Si6 2.228768 1_555
Fe0 Si6 2.228775 1_545
Fe0 Tb0 2.974099 1_555
Fe0 Tb0 2.974107 1_545
Fe0 Tb3 3.005824 1_455
Fe0 Tb3 3.005824 1_555
Fe1 Si10 2.189619 1_455
Fe1 Si10 2.189619 1_555
Fe1 Si7 2.221255 1_555
Fe1 Si7 2.221259 1_565
Fe1 Tb1 3.018640 1_555
Fe1 Tb1 3.018645 1_565
Fe1 Tb4 3.019965 1_455
Fe1 Tb4 3.019965 1_555
Si0 Si4 2.377345 1_455
Si0 Si4 2.377345 1_555
Si0 Si6 2.413538 1_555
Si0 Tb3 3.053279 1_565
Si0 Tb3 3.053279 1_465
Si0 Tb3 3.053282 1_455
Si0 Tb3 3.053282 1_555
Si0 Tb1 3.062619 1_555
Si0 Tb1 3.062624 1_565
Si1 Si7 2.408153 1_555
Si1 Si5 2.420534 1_555
Si1 Si5 2.420534 1_455
Si1 Tb4 3.038034 1_555
Si1 Tb4 3.038034 1_455
Si1 Tb4 3.038040 1_445
Si1 Tb4 3.038040 1_545
Si1 Tb2 3.089022 1_545
Si1 Tb2 3.089024 1_555
Si2 Si8 2.346967 1_555
Si2 Si3 2.398875 1_556
Si2 Si3 2.398875 1_456
Si2 Tb5 3.054535 1_555
Si2 Tb5 3.054535 1_455
Si2 Tb5 3.054540 1_565
Si2 Tb5 3.054540 1_465
Si2 Tb0 3.161281 1_556
Si2 Tb0 3.161284 1_546
Si3 Si9 2.411118 1_555
Si3 Tb0 3.047635 1_655
Si3 Tb0 3.047635 1_555
Si3 Tb0 3.047635 1_545
Si3 Tb0 3.047635 1_645
Si3 Tb5 3.175760 1_554
Si3 Tb5 3.175768 1_564
Si4 Tb1 3.015919 1_665
Si4 Tb1 3.015919 1_565
Si4 Tb1 3.015919 1_555
Si4 Tb1 3.015919 1_655
Si4 Tb3 3.142757 1_565
Si4 Tb3 3.142765 1_555
Si5 Tb2 3.001472 1_545
Si5 Tb2 3.001472 1_645
Si5 Tb2 3.001475 1_555
Si5 Tb2 3.001475 1_655
Si5 Tb4 3.170789 1_555
Si5 Tb4 3.170794 1_545
Si6 Tb3 3.113614 1_565
Si6 Tb3 3.113614 1_465
Si6 Tb3 3.113616 1_455
Si6 Tb3 3.113616 1_555
Si6 Tb0 3.150681 1_555
Si7 Tb4 3.128833 1_455
Si7 Tb4 3.128833 1_555
Si7 Tb4 3.128841 1_445
Si7 Tb4 3.128841 1_545
Si7 Tb1 3.193196 1_555
Si8 Tb5 3.085422 1_455
Si8 Tb5 3.085422 1_555
Si8 Tb5 3.085428 1_565
Si8 Tb5 3.085428 1_465
Si8 Tb2 3.119270 1_555
Si9 Tb0 3.118969 1_655
Si9 Tb0 3.118969 1_555
Si9 Tb0 3.118969 1_545
Si9 Tb0 3.118969 1_645
Si9 Tb3 3.137752 1_555
Si10 Si4 2.384167 1_555
Si10 Tb1 3.145664 1_555
Si10 Tb1 3.145664 1_655
Si10 Tb1 3.145674 1_565
Si10 Tb1 3.145674 1_665
Si10 Tb4 3.153789 1_555
Si11 Si5 2.319993 1_555
Si11 Tb5 2.994242 1_555
Si11 Tb2 3.136721 1_645
Si11 Tb2 3.136721 1_545
Si11 Tb2 3.136721 1_555
Si11 Tb2 3.136721 1_655
