# generated using pymatgen
data_PrC2BrO7
_symmetry_space_group_name_H-M   'P 1'
_cell_length_a   17.61562300
_cell_length_b   6.10214800
_cell_length_c   8.99376217
_cell_angle_alpha   73.58131131
_cell_angle_beta   90.00000000
_cell_angle_gamma   90.00000000
_symmetry_Int_Tables_number   1
_chemical_formula_structural   PrC2BrO7
_chemical_formula_sum   'Pr4 C8 Br4 O28'
_cell_volume   927.34470462
_cell_formula_units_Z   4
loop_
 _symmetry_equiv_pos_site_id
 _symmetry_equiv_pos_as_xyz
  1  'x, y, z'
loop_
 _atom_site_type_symbol
 _atom_site_label
 _atom_site_symmetry_multiplicity
 _atom_site_fract_x
 _atom_site_fract_y
 _atom_site_fract_z
 _atom_site_occupancy
  Pr  Pr0  1  0.59748000  0.35695200  0.14490500  1
  Pr  Pr1  1  0.90252000  0.35695200  0.64490500  1
  Pr  Pr2  1  0.40252000  0.64304800  0.85509500  1
  Pr  Pr3  1  0.09748000  0.64304800  0.35509500  1
  C  C0  1  0.52717200  0.90510300  0.04711100  1
  C  C1  1  0.97282800  0.90510300  0.54711100  1
  C  C2  1  0.47282800  0.09489700  0.95288900  1
  C  C3  1  0.02717200  0.09489700  0.45288900  1
  C  C4  1  0.57750600  0.77964000  0.56623700  1
  C  C5  1  0.92249400  0.77964000  0.06623700  1
  C  C6  1  0.42249400  0.22036000  0.43376300  1
  C  C7  1  0.07750600  0.22036000  0.93376300  1
  Br  Br0  1  0.79493800  0.37205100  0.02322400  1
  Br  Br1  1  0.70506200  0.37205100  0.52322400  1
  Br  Br2  1  0.20506200  0.62794900  0.97677600  1
  Br  Br3  1  0.29493800  0.62794900  0.47677600  1
  O  O0  1  0.51818200  0.70675600  0.02708800  1
  O  O1  1  0.98181800  0.70675600  0.52708800  1
  O  O2  1  0.48181800  0.29324400  0.97291200  1
  O  O3  1  0.01818200  0.29324400  0.47291200  1
  O  O4  1  0.61201100  0.86085900  0.45302300  1
  O  O5  1  0.88798900  0.86085900  0.95302300  1
  O  O6  1  0.38798900  0.13914100  0.54697700  1
  O  O7  1  0.11201100  0.13914100  0.04697700  1
  O  O8  1  0.57496100  0.95604500  0.13492700  1
  O  O9  1  0.92503900  0.95604500  0.63492700  1
  O  O10  1  0.42503900  0.04395500  0.86507300  1
  O  O11  1  0.07496100  0.04395500  0.36507300  1
  O  O12  1  0.45790200  0.29987900  0.31993400  1
  O  O13  1  0.04209800  0.29987900  0.81993400  1
  O  O14  1  0.54209800  0.70012100  0.68006600  1
  O  O15  1  0.95790200  0.70012100  0.18006600  1
  O  O16  1  0.66653000  0.37703700  0.92724800  1
  O  O17  1  0.83347000  0.37703700  0.42724800  1
  O  O18  1  0.33347000  0.62296300  0.07275200  1
  O  O19  1  0.16653000  0.62296300  0.57275200  1
  O  O20  1  0.71692400  0.52033900  0.11159400  1
  O  O21  1  0.78307600  0.52033900  0.61159400  1
  O  O22  1  0.28307600  0.47966100  0.88840600  1
  O  O23  1  0.21692400  0.47966100  0.38840600  1
  O  O24  1  0.62104800  0.34248200  0.40657400  1
  O  O25  1  0.87895200  0.34248200  0.90657400  1
  O  O26  1  0.37895200  0.65751800  0.59342600  1
  O  O27  1  0.12104800  0.65751800  0.09342600  1
loop_
_geom_bond_atom_site_label_1
_geom_bond_atom_site_label_2
_geom_bond_distance
_geom_bond_site_symmetry_2
C0 O8 1.252151 1_555
C0 O0 1.282830 1_555
C1 O9 1.252151 1_555
C1 O1 1.282830 1_555
C2 O10 1.252151 1_555
C2 O2 1.282830 1_555
C3 O11 1.252151 1_555
C3 O3 1.282830 1_555
C4 O4 1.169007 1_555
C4 O14 1.179721 1_555
C5 O5 1.169007 1_554
C5 O15 1.179721 1_555
C6 O6 1.169007 1_555
C6 O12 1.179721 1_555
C7 O7 1.169007 1_556
C7 O13 1.179721 1_555
Br0 O25 1.852162 1_554
Br0 O20 1.935364 1_555
Br0 O16 2.418213 1_554
Br1 O24 1.852162 1_555
Br1 O21 1.935364 1_555
Br1 O17 2.418213 1_555
Br2 O27 1.852162 1_556
Br2 O22 1.935364 1_555
Br2 O18 2.418213 1_556
Br3 O26 1.852162 1_555
Br3 O23 1.935364 1_555
Br3 O19 2.418213 1_555
O0 Pr0 2.520274 1_555
O0 Pr2 2.652377 1_554
O1 Pr1 2.520274 1_555
O1 Pr3 2.652377 1_655
O2 Pr2 2.520274 1_555
O2 Pr0 2.652377 1_556
O3 Pr3 2.520274 1_555
O3 Pr1 2.652377 1_455
O8 Pr0 2.504868 1_565
O9 Pr1 2.504868 1_565
O10 Pr2 2.504868 1_545
O11 Pr3 2.504868 1_545
O12 Pr0 2.887014 1_555
O13 Pr1 2.887014 1_455
O14 Pr2 2.887014 1_555
O15 Pr3 2.887014 1_655
O16 Pr0 2.278364 1_556
O17 Pr1 2.278364 1_555
O18 Pr2 2.278364 1_554
O19 Pr3 2.278364 1_555
O20 Pr0 2.311295 1_555
O21 Pr1 2.311295 1_555
O22 Pr2 2.311295 1_555
O23 Pr3 2.311295 1_555
O24 Pr0 2.366670 1_555
O25 Pr1 2.366670 1_555
O26 Pr2 2.366670 1_555
O27 Pr3 2.366670 1_555
