# generated using pymatgen
data_GaIr
_symmetry_space_group_name_H-M   'P 1'
_cell_length_a   3.02850068
_cell_length_b   3.02850068
_cell_length_c   3.02850068
_cell_angle_alpha   90.00000000
_cell_angle_beta   90.00000000
_cell_angle_gamma   90.00000000
_symmetry_Int_Tables_number   1
_chemical_formula_structural   GaIr
_chemical_formula_sum   'Ga1 Ir1'
_cell_volume   27.77685211
_cell_formula_units_Z   1
loop_
 _symmetry_equiv_pos_site_id
 _symmetry_equiv_pos_as_xyz
  1  'x, y, z'
loop_
 _atom_site_type_symbol
 _atom_site_label
 _atom_site_symmetry_multiplicity
 _atom_site_fract_x
 _atom_site_fract_y
 _atom_site_fract_z
 _atom_site_occupancy
  Ga  Ga0  1  0.00000000  -0.00000000  0.00000000  1
  Ir  Ir0  1  0.50000000  0.50000000  0.50000000  1
loop_
_geom_bond_atom_site_label_1
_geom_bond_atom_site_label_2
_geom_bond_distance
_geom_bond_site_symmetry_2
Ga0 Ir0 2.622759 1_455
Ga0 Ir0 2.622759 1_554
Ga0 Ir0 2.622759 1_544
Ga0 Ir0 2.622759 1_445
Ga0 Ir0 2.622759 1_444
Ga0 Ir0 2.622759 1_454
Ga0 Ir0 2.622759 1_545
Ga0 Ir0 2.622759 1_555
