# generated using pymatgen
data_LaMg14Sn
_symmetry_space_group_name_H-M   'P 1'
_cell_length_a   6.59098812
_cell_length_b   6.50236954
_cell_length_c   10.41230399
_cell_angle_alpha   90.00000000
_cell_angle_beta   90.00000000
_cell_angle_gamma   119.55622274
_symmetry_Int_Tables_number   1
_chemical_formula_structural   LaMg14Sn
_chemical_formula_sum   'La1 Mg14 Sn1'
_cell_volume   388.17217815
_cell_formula_units_Z   1
loop_
 _symmetry_equiv_pos_site_id
 _symmetry_equiv_pos_as_xyz
  1  'x, y, z'
loop_
 _atom_site_type_symbol
 _atom_site_label
 _atom_site_symmetry_multiplicity
 _atom_site_fract_x
 _atom_site_fract_y
 _atom_site_fract_z
 _atom_site_occupancy
  La  La0  1  0.16400964  0.83200432  0.12500000  1
  Mg  Mg0  1  0.16360835  0.33180367  0.62500000  1
  Mg  Mg1  1  0.16514734  0.83257317  0.62500000  1
  Mg  Mg2  1  0.66289533  0.33771064  0.12500000  1
  Mg  Mg3  1  0.66741365  0.33218972  0.62500000  1
  Mg  Mg4  1  0.66289533  0.82518368  0.12500000  1
  Mg  Mg5  1  0.66741365  0.83522293  0.62500000  1
  Mg  Mg6  1  0.33766104  0.17296683  0.38522420  1
  Mg  Mg7  1  0.33766104  0.17296683  0.86477580  1
  Mg  Mg8  1  0.33766104  0.66469522  0.38522420  1
  Mg  Mg9  1  0.33766104  0.66469522  0.86477580  1
  Mg  Mg10  1  0.83278431  0.16639265  0.37113754  1
  Mg  Mg11  1  0.83278431  0.16639265  0.87886246  1
  Mg  Mg12  1  0.82724667  0.66362383  0.38510949  1
  Mg  Mg13  1  0.82724667  0.66362383  0.86489051  1
  Sn  Sn0  1  0.17591058  0.33795479  0.12500000  1
loop_
_geom_bond_atom_site_label_1
_geom_bond_atom_site_label_2
_geom_bond_distance
_geom_bond_site_symmetry_2
La0 Sn0 3.251901 1_565
La0 Sn0 3.251901 1_555
La0 Mg2 3.281188 1_455
La0 Mg4 3.281188 1_455
La0 Mg2 3.310251 1_565
La0 Mg4 3.310251 1_555
La0 Mg13 3.326104 1_454
La0 Mg12 3.326104 1_455
La0 Mg8 3.326180 1_555
La0 Mg9 3.326180 1_554
La0 Mg6 3.326186 1_565
La0 Mg7 3.326186 1_564
Mg0 Mg7 3.128055 1_555
Mg0 Mg6 3.128055 1_555
Mg0 Mg9 3.128061 1_555
Mg0 Mg8 3.128061 1_555
Mg0 Mg1 3.251197 1_545
Mg0 Mg1 3.251197 1_555
Mg0 Mg11 3.253389 1_455
Mg0 Mg10 3.253389 1_455
Mg0 Mg5 3.271652 1_445
Mg0 Mg3 3.271652 1_455
Mg0 Mg5 3.319337 1_555
Mg0 Mg3 3.319337 1_555
Mg1 Mg9 3.153103 1_555
Mg1 Mg8 3.153103 1_555
Mg1 Mg7 3.153110 1_565
Mg1 Mg6 3.153110 1_565
Mg1 Mg12 3.161039 1_455
Mg1 Mg13 3.161039 1_455
Mg1 Mg3 3.289090 1_455
Mg1 Mg5 3.289090 1_455
Mg1 Mg3 3.301966 1_565
Mg1 Mg5 3.301966 1_555
Mg2 Mg4 3.169730 1_555
Mg2 Sn0 3.210494 1_555
Mg2 Mg6 3.289189 1_555
Mg2 Mg7 3.289189 1_554
Mg2 Mg4 3.332640 1_545
Mg2 Sn0 3.380495 1_655
Mg3 Mg7 3.131890 1_555
Mg3 Mg6 3.131890 1_555
Mg3 Mg5 3.231462 1_545
Mg3 Mg5 3.270908 1_555
Mg4 Sn0 3.210494 1_555
Mg4 Mg8 3.289189 1_555
Mg4 Mg9 3.289189 1_554
Mg4 Sn0 3.380494 1_665
Mg5 Mg9 3.131890 1_555
Mg5 Mg8 3.131890 1_555
Mg6 Mg8 3.197400 1_555
Mg6 Sn0 3.279848 1_555
Mg6 Mg8 3.304970 1_545
Mg7 Mg9 3.197400 1_555
Mg7 Sn0 3.279848 1_556
Mg7 Mg9 3.304970 1_545
Mg8 Sn0 3.279854 1_555
Mg9 Sn0 3.279854 1_556
Mg10 Mg2 3.208360 1_555
Mg10 Mg4 3.208367 1_545
Mg10 Sn0 3.230840 1_655
Mg10 Mg3 3.239830 1_555
Mg10 Mg5 3.239837 1_545
Mg10 Mg12 3.254593 1_545
Mg10 Mg12 3.254593 1_555
Mg10 Mg8 3.287921 1_545
Mg10 Mg6 3.287922 1_555
Mg10 Mg8 3.310010 1_655
Mg10 Mg6 3.310010 1_655
Mg11 Mg2 3.208360 1_556
Mg11 Mg4 3.208367 1_546
Mg11 Sn0 3.230840 1_656
Mg11 Mg3 3.239830 1_555
Mg11 Mg5 3.239837 1_545
Mg11 Mg13 3.254593 1_545
Mg11 Mg13 3.254593 1_555
Mg11 Mg9 3.287921 1_545
Mg11 Mg7 3.287922 1_555
Mg11 Mg9 3.310010 1_655
Mg11 Mg7 3.310010 1_655
Mg12 Mg5 3.123059 1_555
Mg12 Mg3 3.123066 1_555
Mg12 Mg6 3.230295 1_555
Mg12 Mg8 3.230295 1_555
Mg12 Mg4 3.276395 1_555
Mg12 Mg2 3.276401 1_555
Mg12 Mg6 3.360704 1_665
Mg12 Mg8 3.360704 1_655
Mg13 Mg5 3.123059 1_555
Mg13 Mg3 3.123066 1_555
Mg13 Mg7 3.230295 1_555
Mg13 Mg9 3.230295 1_555
Mg13 Mg4 3.276395 1_556
Mg13 Mg2 3.276401 1_556
Mg13 Mg7 3.360704 1_665
Mg13 Mg9 3.360704 1_655
