# generated using pymatgen
data_Rh3(PbSe)2
_symmetry_space_group_name_H-M   'P 1'
_cell_length_a   5.91730652
_cell_length_b   5.91730652
_cell_length_c   5.91730662
_cell_angle_alpha   58.34621029
_cell_angle_beta   58.34621029
_cell_angle_gamma   58.34621823
_symmetry_Int_Tables_number   1
_chemical_formula_structural   Rh3(PbSe)2
_chemical_formula_sum   'Rh3 Pb2 Se2'
_cell_volume   140.95924174
_cell_formula_units_Z   1
loop_
 _symmetry_equiv_pos_site_id
 _symmetry_equiv_pos_as_xyz
  1  'x, y, z'
loop_
 _atom_site_type_symbol
 _atom_site_label
 _atom_site_symmetry_multiplicity
 _atom_site_fract_x
 _atom_site_fract_y
 _atom_site_fract_z
 _atom_site_occupancy
  Rh  Rh0  1  0.50000000  0.50000000  0.00000000  1
  Rh  Rh1  1  0.00000000  0.50000000  0.50000000  1
  Rh  Rh2  1  0.50000000  0.00000000  0.50000000  1
  Pb  Pb0  1  0.00000000  0.00000000  0.00000000  1
  Pb  Pb1  1  0.50000000  0.50000000  0.50000000  1
  Se  Se0  1  0.78694042  0.78694042  0.78694042  1
  Se  Se1  1  0.21305958  0.21305958  0.21305958  1
loop_
_geom_bond_atom_site_label_1
_geom_bond_atom_site_label_2
_geom_bond_distance
_geom_bond_site_symmetry_2
Rh0 Se0 2.426444 1_554
Rh0 Se1 2.426444 1_555
Rh1 Se1 2.426445 1_555
Rh1 Se0 2.426445 1_455
Rh2 Se0 2.426445 1_545
Rh2 Se1 2.426445 1_555
Pb0 Rh1 2.884390 1_554
Pb0 Rh2 2.884390 1_455
Pb0 Rh2 2.884390 1_554
Pb0 Rh1 2.884390 1_545
Pb0 Rh0 2.884391 1_545
Pb0 Rh0 2.884391 1_455
Pb0 Se1 3.126203 1_555
Pb0 Se0 3.126203 1_444
Pb1 Rh2 2.958653 1_565
Pb1 Rh1 2.958653 1_555
Pb1 Rh1 2.958653 1_655
Pb1 Rh2 2.958653 1_555
Pb1 Rh0 2.958653 1_556
Pb1 Rh0 2.958653 1_555
