# generated using pymatgen
data_Ba2ErInSe5
_symmetry_space_group_name_H-M   'P 1'
_cell_length_a   9.75317920
_cell_length_b   9.75317920
_cell_length_c   13.49221300
_cell_angle_alpha   90.00000000
_cell_angle_beta   90.00000000
_cell_angle_gamma   154.55977724
_symmetry_Int_Tables_number   1
_chemical_formula_structural   Ba2ErInSe5
_chemical_formula_sum   'Ba4 Er2 In2 Se10'
_cell_volume   551.32630964
_cell_formula_units_Z   2
loop_
 _symmetry_equiv_pos_site_id
 _symmetry_equiv_pos_as_xyz
  1  'x, y, z'
loop_
 _atom_site_type_symbol
 _atom_site_label
 _atom_site_symmetry_multiplicity
 _atom_site_fract_x
 _atom_site_fract_y
 _atom_site_fract_z
 _atom_site_occupancy
  Ba  Ba0  1  0.86705400  0.13294600  0.18683900  1
  Ba  Ba1  1  0.13294600  0.86705400  0.68683900  1
  Ba  Ba2  1  0.88246500  0.11753500  0.81893200  1
  Ba  Ba3  1  0.11753500  0.88246500  0.31893200  1
  Er  Er0  1  0.78840800  0.21159200  0.48190600  1
  Er  Er1  1  0.21159200  0.78840800  0.98190600  1
  In  In0  1  0.55252000  0.44748000  0.06282500  1
  In  In1  1  0.44748000  0.55252000  0.56282500  1
  Se  Se0  1  0.64483600  0.35516400  0.49978200  1
  Se  Se1  1  0.35516400  0.64483600  0.99978200  1
  Se  Se2  1  0.70922100  0.29077900  0.84460200  1
  Se  Se3  1  0.29077900  0.70922100  0.34460200  1
  Se  Se4  1  0.68747800  0.31252200  0.12840000  1
  Se  Se5  1  0.31252200  0.68747800  0.62840000  1
  Se  Se6  1  0.49522800  0.50477200  0.23373400  1
  Se  Se7  1  0.50477200  0.49522800  0.73373400  1
  Se  Se8  1  0.94828700  0.05171300  0.44918200  1
  Se  Se9  1  0.05171300  0.94828700  0.94918200  1
loop_
_geom_bond_atom_site_label_1
_geom_bond_atom_site_label_2
_geom_bond_distance
_geom_bond_site_symmetry_2
Ba0 Se6 3.310623 1_655
Ba0 Se6 3.310623 1_545
Ba0 Se1 3.321557 1_654
Ba0 Se1 3.321557 1_544
Ba0 Se3 3.353969 1_655
Ba0 Se3 3.353969 1_545
Ba0 Se4 3.506696 1_555
Ba0 Se8 3.862354 1_555
Ba1 Se7 3.310623 1_455
Ba1 Se7 3.310623 1_565
Ba1 Se0 3.321557 1_565
Ba1 Se0 3.321557 1_455
Ba1 Se2 3.353969 1_455
Ba1 Se2 3.353969 1_565
Ba1 Se5 3.506696 1_555
Ba1 Se9 3.862354 1_555
Ba2 Se1 3.291763 1_545
Ba2 Se1 3.291763 1_655
Ba2 Se2 3.314566 1_555
Ba2 Se7 3.368858 1_545
Ba2 Se7 3.368858 1_655
Ba2 Se5 3.604382 1_545
Ba2 Se5 3.604382 1_655
Ba2 Se9 3.668679 1_645
Ba3 Se0 3.291763 1_565
Ba3 Se0 3.291763 1_455
Ba3 Se3 3.314566 1_555
Ba3 Se6 3.368858 1_455
Ba3 Se6 3.368858 1_565
Ba3 Se4 3.604382 1_455
Ba3 Se4 3.604382 1_565
Ba3 Se8 3.668679 1_465
Er0 Se0 2.742460 1_555
Er0 Se3 2.836520 1_545
Er0 Se3 2.836520 1_655
Er0 Se5 2.954507 1_655
Er0 Se5 2.954507 1_545
Er0 Se8 3.073990 1_555
Er1 Se1 2.742460 1_555
Er1 Se2 2.836520 1_455
Er1 Se2 2.836520 1_565
Er1 Se4 2.954507 1_566
Er1 Se4 2.954507 1_456
Er1 Se9 3.073990 1_555
In0 Se6 2.550636 1_555
In0 Se9 2.638779 1_654
In0 Se9 2.638779 1_544
In0 Se4 2.716072 1_555
In1 Se7 2.550636 1_555
In1 Se8 2.638779 1_565
In1 Se8 2.638779 1_455
In1 Se5 2.716072 1_555
