# generated using pymatgen
data_CaSnS3
_symmetry_space_group_name_H-M   'P 1'
_cell_length_a   10.02415400
_cell_length_b   5.02383600
_cell_length_c   10.01710818
_cell_angle_alpha   89.17073270
_cell_angle_beta   90.00000000
_cell_angle_gamma   90.00000000
_symmetry_Int_Tables_number   1
_chemical_formula_structural   CaSnS3
_chemical_formula_sum   'Ca4 Sn4 S12'
_cell_volume   504.40578386
_cell_formula_units_Z   4
loop_
 _symmetry_equiv_pos_site_id
 _symmetry_equiv_pos_as_xyz
  1  'x, y, z'
loop_
 _atom_site_type_symbol
 _atom_site_label
 _atom_site_symmetry_multiplicity
 _atom_site_fract_x
 _atom_site_fract_y
 _atom_site_fract_z
 _atom_site_occupancy
  Ca  Ca0  1  0.50000000  0.09648400  0.01582700  1
  Ca  Ca1  1  0.00000000  0.11112100  0.98505200  1
  Ca  Ca2  1  0.50000000  0.10189400  0.54028200  1
  Ca  Ca3  1  0.00000000  0.06204200  0.40491100  1
  Sn  Sn0  1  0.75253100  0.51144500  0.73924000  1
  Sn  Sn1  1  0.74217700  0.49884900  0.25815400  1
  Sn  Sn2  1  0.24746900  0.51144500  0.73924000  1
  Sn  Sn3  1  0.25782300  0.49884900  0.25815400  1
  S  S0  1  0.73304300  0.44374500  0.99909700  1
  S  S1  1  0.26695700  0.44374500  0.99909700  1
  S  S2  1  0.76112300  0.30595100  0.49900700  1
  S  S3  1  0.23887700  0.30595100  0.49900700  1
  S  S4  1  0.73526600  0.99871700  0.82053000  1
  S  S5  1  0.76632000  0.98828600  0.18983500  1
  S  S6  1  0.26473400  0.99871700  0.82053000  1
  S  S7  1  0.23368000  0.98828600  0.18983500  1
  S  S8  1  0.50000000  0.57284100  0.67326000  1
  S  S9  1  0.00000000  0.54154400  0.27060400  1
  S  S10  1  0.50000000  0.35839300  0.27331800  1
  S  S11  1  0.00000000  0.39849400  0.74633400  1
loop_
_geom_bond_atom_site_label_1
_geom_bond_atom_site_label_2
_geom_bond_distance
_geom_bond_site_symmetry_2
Ca0 S10 2.912456 1_555
Ca0 S1 2.918966 1_554
Ca0 S0 2.918966 1_554
Ca0 S6 3.107731 1_544
Ca0 S4 3.107731 1_544
Ca0 S7 3.230051 1_545
Ca0 S5 3.230051 1_545
Ca1 S11 2.775343 1_555
Ca1 S1 3.159126 1_555
Ca1 S0 3.159126 1_455
Ca1 S5 3.168468 1_446
Ca1 S7 3.168468 1_546
Ca1 S6 3.178702 1_545
Ca1 S4 3.178702 1_445
Ca2 S8 2.731916 1_555
Ca2 S3 2.839209 1_555
Ca2 S2 2.839209 1_555
Ca2 S10 2.951635 1_555
Ca2 S8 2.955705 1_545
Ca3 S9 2.742115 1_555
Ca3 S3 2.856080 1_555
Ca3 S2 2.856080 1_455
Ca3 S9 2.957960 1_545
Ca3 S7 3.207657 1_545
Ca3 S5 3.207657 1_445
S0 Sn1 2.615311 1_556
S0 Sn0 2.627528 1_555
S1 Sn3 2.615311 1_556
S1 Sn2 2.627528 1_555
S2 Sn1 2.593917 1_555
S2 Sn0 2.633641 1_555
S3 Sn3 2.593917 1_555
S3 Sn2 2.633641 1_555
S4 Sn0 2.596787 1_555
S4 Sn0 2.695806 1_565
S5 Sn1 2.554243 1_555
S5 Sn1 2.675234 1_565
S6 Sn2 2.596787 1_555
S6 Sn2 2.695806 1_565
S7 Sn3 2.554243 1_555
S7 Sn3 2.675234 1_565
S8 Sn0 2.633268 1_555
S8 Sn2 2.633268 1_555
S9 Sn1 2.596489 1_455
S9 Sn3 2.596489 1_555
S10 Sn1 2.532038 1_555
S10 Sn3 2.532038 1_555
S11 Sn2 2.545504 1_555
S11 Sn0 2.545504 1_455
