# generated using pymatgen
data_TaGaBi2O7
_symmetry_space_group_name_H-M   'P 1'
_cell_length_a   7.44950202
_cell_length_b   7.44950202
_cell_length_c   7.44950202
_cell_angle_alpha   120.55925407
_cell_angle_beta   119.67543360
_cell_angle_gamma   89.79858462
_symmetry_Int_Tables_number   1
_chemical_formula_structural   TaGaBi2O7
_chemical_formula_sum   'Ta2 Ga2 Bi4 O14'
_cell_volume   291.78328828
_cell_formula_units_Z   2
loop_
 _symmetry_equiv_pos_site_id
 _symmetry_equiv_pos_as_xyz
  1  'x, y, z'
loop_
 _atom_site_type_symbol
 _atom_site_label
 _atom_site_symmetry_multiplicity
 _atom_site_fract_x
 _atom_site_fract_y
 _atom_site_fract_z
 _atom_site_occupancy
  Ta  Ta0  1  0.50000000  0.00000000  0.50000000  1
  Ta  Ta1  1  0.00000000  0.00000000  0.00000000  1
  Ga  Ga0  1  0.50000000  0.00000000  0.00000000  1
  Ga  Ga1  1  0.50000000  0.50000000  0.50000000  1
  Bi  Bi0  1  0.00000000  0.50000000  0.00000000  1
  Bi  Bi1  1  0.00000000  0.00000000  0.50000000  1
  Bi  Bi2  1  0.00000000  0.50000000  0.50000000  1
  Bi  Bi3  1  0.50000000  0.50000000  0.00000000  1
  O  O0  1  0.82308000  0.07308000  0.75000000  1
  O  O1  1  0.42167600  0.67167600  0.75000000  1
  O  O2  1  0.82911100  0.67730400  0.75566400  1
  O  O3  1  0.42164000  0.07344700  0.74433600  1
  O  O4  1  0.82911100  0.07344700  0.15180700  1
  O  O5  1  0.42164000  0.67730400  0.34819300  1
  O  O6  1  0.17692000  0.92692000  0.25000000  1
  O  O7  1  0.57832400  0.32832400  0.25000000  1
  O  O8  1  0.17088900  0.32269600  0.24433600  1
  O  O9  1  0.57836000  0.92655300  0.25566400  1
  O  O10  1  0.17088900  0.92655300  0.84819300  1
  O  O11  1  0.57836000  0.32269600  0.65180700  1
  O  O12  1  0.87651600  0.62651600  0.25000000  1
  O  O13  1  0.12348400  0.37348400  0.75000000  1
loop_
_geom_bond_atom_site_label_1
_geom_bond_atom_site_label_2
_geom_bond_distance
_geom_bond_site_symmetry_2
Ga0 O7 2.023178 1_555
Ga0 O1 2.023178 1_544
Ga0 O4 2.055249 1_555
Ga0 O3 2.055249 1_554
Ga0 O9 2.055249 1_545
Ga0 O10 2.055249 1_544
Ga1 O1 2.023178 1_555
Ga1 O7 2.023178 1_555
Ga1 O2 2.055249 1_555
Ga1 O5 2.055249 1_555
Ga1 O11 2.055249 1_555
Ga1 O8 2.055249 1_555
Bi0 O12 2.260162 1_455
Bi0 O13 2.260162 1_554
Bi0 O8 2.610887 1_555
Bi0 O11 2.610887 1_454
Bi0 O5 2.610887 1_555
Bi0 O2 2.610887 1_454
Bi0 O0 2.626071 1_454
Bi0 O6 2.626071 1_555
Bi1 O12 2.260162 1_445
Bi1 O13 2.260162 1_555
Bi1 O9 2.610887 1_445
Bi1 O3 2.610887 1_555
Bi1 O4 2.610887 1_455
Bi1 O10 2.610887 1_545
Bi1 O0 2.626071 1_455
Bi1 O6 2.626071 1_545
Bi2 O13 2.298981 1_555
Bi2 O12 2.298981 1_455
Bi2 O1 2.604842 1_555
Bi2 O7 2.604842 1_455
Bi2 O8 2.612186 1_555
Bi2 O10 2.612186 1_555
Bi2 O4 2.612186 1_455
Bi2 O2 2.612186 1_455
Bi3 O13 2.298981 1_554
Bi3 O12 2.298981 1_555
Bi3 O1 2.604842 1_554
Bi3 O7 2.604842 1_555
Bi3 O5 2.612186 1_555
Bi3 O9 2.612186 1_555
Bi3 O3 2.612186 1_554
Bi3 O11 2.612186 1_554
O0 Ta0 2.024198 1_555
O0 Ta1 2.024198 1_656
O2 Ta1 1.997579 1_666
O3 Ta0 1.997579 1_555
O4 Ta1 1.997579 1_655
O5 Ta0 1.997579 1_565
O6 Ta0 2.024198 1_565
O6 Ta1 2.024198 1_565
O8 Ta1 1.997579 1_555
O9 Ta0 1.997579 1_565
O10 Ta1 1.997579 1_566
O11 Ta0 1.997579 1_555
