# generated using pymatgen
data_NbCr3(CuS4)2
_symmetry_space_group_name_H-M   'P 1'
_cell_length_a   11.39172715
_cell_length_b   6.97237700
_cell_length_c   11.85879415
_cell_angle_alpha   90.00000000
_cell_angle_beta   90.03455537
_cell_angle_gamma   90.00000000
_symmetry_Int_Tables_number   1
_chemical_formula_structural   NbCr3(CuS4)2
_chemical_formula_sum   'Nb4 Cr12 Cu8 S32'
_cell_volume   941.91320931
_cell_formula_units_Z   4
loop_
 _symmetry_equiv_pos_site_id
 _symmetry_equiv_pos_as_xyz
  1  'x, y, z'
loop_
 _atom_site_type_symbol
 _atom_site_label
 _atom_site_symmetry_multiplicity
 _atom_site_fract_x
 _atom_site_fract_y
 _atom_site_fract_z
 _atom_site_occupancy
  Nb  Nb0  1  0.90720600  0.11920700  0.18050200  1
  Nb  Nb1  1  0.40720600  0.88079300  0.18050200  1
  Nb  Nb2  1  0.86285900  0.63442800  0.82824100  1
  Nb  Nb3  1  0.36285900  0.36557200  0.82824100  1
  Cr  Cr0  1  0.10677000  0.86543600  0.69219600  1
  Cr  Cr1  1  0.60677000  0.13456400  0.69219600  1
  Cr  Cr2  1  0.12411200  0.36608800  0.33040900  1
  Cr  Cr3  1  0.62411200  0.63391200  0.33040900  1
  Cr  Cr4  1  0.16732100  0.60625200  0.93827600  1
  Cr  Cr5  1  0.84433600  0.39519900  0.45816200  1
  Cr  Cr6  1  0.34433600  0.60480100  0.45816200  1
  Cr  Cr7  1  0.66732100  0.39374800  0.93827600  1
  Cr  Cr8  1  0.13489500  0.14581700  0.98140100  1
  Cr  Cr9  1  0.85993000  0.89135700  0.48595000  1
  Cr  Cr10  1  0.35993000  0.10864300  0.48595000  1
  Cr  Cr11  1  0.63489500  0.85418300  0.98140100  1
  Cu  Cu0  1  0.08882600  0.35931500  0.66789900  1
  Cu  Cu1  1  0.88981500  0.62600400  0.19056700  1
  Cu  Cu2  1  0.38981500  0.37399600  0.19056700  1
  Cu  Cu3  1  0.58882600  0.64068500  0.66789900  1
  Cu  Cu4  1  0.12078200  0.88083200  0.33987500  1
  Cu  Cu5  1  0.87577600  0.09504300  0.82362300  1
  Cu  Cu6  1  0.37577600  0.90495700  0.82362300  1
  Cu  Cu7  1  0.62078200  0.11916800  0.33987500  1
  S  S0  1  0.03053700  0.85032300  0.88558200  1
  S  S1  1  0.97210100  0.14883300  0.38548100  1
  S  S2  1  0.47210100  0.85116700  0.38548100  1
  S  S3  1  0.53053700  0.14967700  0.88558200  1
  S  S4  1  0.04138600  0.36763800  0.13624600  1
  S  S5  1  0.96753800  0.63132000  0.63789100  1
  S  S6  1  0.46753800  0.36868000  0.63789100  1
  S  S7  1  0.54138600  0.63236200  0.13624600  1
  S  S8  1  0.02788300  0.38514000  0.86798000  1
  S  S9  1  0.98168100  0.61501100  0.36925100  1
  S  S10  1  0.48168100  0.38498900  0.36925100  1
  S  S11  1  0.52788300  0.61486000  0.86798000  1
  S  S12  1  0.03200900  0.87028100  0.15019800  1
  S  S13  1  0.96600900  0.08425400  0.64415700  1
  S  S14  1  0.46600900  0.91574600  0.64415700  1
  S  S15  1  0.53200900  0.12971900  0.15019800  1
  S  S16  1  0.21661700  0.86412600  0.51988900  1
  S  S17  1  0.77953500  0.12217000  0.01687100  1
  S  S18  1  0.27953500  0.87783000  0.01687100  1
  S  S19  1  0.71661700  0.13587400  0.51988900  1
  S  S20  1  0.21502300  0.35786000  0.51208600  1
  S  S21  1  0.78589100  0.62887400  0.02117700  1
  S  S22  1  0.28589100  0.37112600  0.02117700  1
  S  S23  1  0.71502300  0.64214000  0.51208600  1
  S  S24  1  0.22345500  0.12181900  0.78670800  1
  S  S25  1  0.76726700  0.88705700  0.29707900  1
  S  S26  1  0.26726700  0.11294300  0.29707900  1
  S  S27  1  0.72345500  0.87818100  0.78670800  1
  S  S28  1  0.25096100  0.64047500  0.76635700  1
  S  S29  1  0.75948000  0.38494200  0.27994900  1
  S  S30  1  0.25948000  0.61505800  0.27994900  1
  S  S31  1  0.75096100  0.35952500  0.76635700  1
loop_
_geom_bond_atom_site_label_1
_geom_bond_atom_site_label_2
_geom_bond_distance
_geom_bond_site_symmetry_2
Nb0 S12 2.272308 1_645
Nb0 S4 2.369221 1_655
Nb0 S17 2.424395 1_555
Nb0 S1 2.548690 1_555
Nb0 S25 2.659916 1_545
Nb0 S29 2.767323 1_555
Nb1 S15 2.272308 1_565
Nb1 S7 2.369221 1_555
Nb1 S18 2.424395 1_555
Nb1 S2 2.548690 1_555
Nb1 S26 2.659916 1_565
Nb1 S30 2.767323 1_555
Nb2 S27 2.377390 1_555
Nb2 S31 2.415816 1_555
Nb2 S21 2.451038 1_556
Nb2 S0 2.524956 1_655
Nb2 S5 2.553666 1_555
Nb2 S8 2.603107 1_655
Nb3 S24 2.377390 1_555
Nb3 S28 2.415816 1_555
Nb3 S22 2.451038 1_556
Nb3 S3 2.524956 1_555
Nb3 S6 2.553666 1_555
Nb3 S11 2.603107 1_555
Cr0 S13 2.285255 1_465
Cr0 S5 2.365108 1_455
Cr0 S16 2.396733 1_555
Cr0 S28 2.435164 1_555
Cr0 S0 2.454996 1_555
Cr0 S24 2.493349 1_565
Cr1 S14 2.285255 1_545
Cr1 S6 2.365108 1_555
Cr1 S19 2.396733 1_555
Cr1 S31 2.435164 1_555
Cr1 S3 2.454996 1_555
Cr1 S27 2.493349 1_545
Cr2 S20 2.390581 1_555
Cr2 S1 2.391889 1_455
Cr2 S30 2.398036 1_555
Cr2 S9 2.420320 1_455
Cr2 S26 2.435520 1_555
Cr2 S4 2.487426 1_555
Cr3 S23 2.390581 1_555
Cr3 S2 2.391889 1_555
Cr3 S29 2.398036 1_555
Cr3 S10 2.420320 1_555
Cr3 S25 2.435520 1_555
Cr3 S7 2.487426 1_555
Cr4 S28 2.263543 1_555
Cr4 S22 2.340283 1_556
Cr4 S8 2.365003 1_555
Cr4 S0 2.390248 1_555
Cr4 S18 2.467155 1_556
Cr5 S29 2.324542 1_555
Cr5 S23 2.354689 1_555
Cr5 S1 2.411113 1_555
Cr5 S9 2.431165 1_555
Cr5 S19 2.433770 1_555
Cr5 S5 3.036326 1_555
Cr6 S30 2.324542 1_555
Cr6 S20 2.354689 1_555
Cr6 S2 2.411113 1_555
Cr6 S10 2.431165 1_555
Cr6 S16 2.433770 1_555
Cr6 S6 3.036326 1_555
Cr7 S31 2.263543 1_555
Cr7 S21 2.340283 1_556
Cr7 S11 2.365003 1_555
Cr7 S3 2.390248 1_555
Cr7 S17 2.467155 1_556
Cr8 S22 2.376580 1_556
Cr8 S8 2.465284 1_555
Cr8 S24 2.525719 1_555
Cr8 S18 2.526326 1_546
Cr8 S4 2.626977 1_556
Cr8 S0 2.635839 1_545
Cr8 S12 3.012346 1_546
Cr9 S19 2.394717 1_565
Cr9 S23 2.416816 1_555
Cr9 S25 2.475671 1_555
Cr9 S1 2.505396 1_565
Cr9 S13 2.605064 1_565
Cr9 S9 2.748395 1_555
Cr9 S5 2.834411 1_555
Cr10 S16 2.394717 1_545
Cr10 S20 2.416816 1_555
Cr10 S26 2.475671 1_555
Cr10 S2 2.505396 1_545
Cr10 S14 2.605064 1_545
Cr10 S10 2.748395 1_555
Cr10 S6 2.834411 1_555
Cr11 S21 2.376580 1_556
Cr11 S11 2.465284 1_555
Cr11 S27 2.525719 1_555
Cr11 S17 2.526326 1_566
Cr11 S7 2.626977 1_556
Cr11 S3 2.635839 1_565
Cr11 S15 3.012346 1_566
Cu0 S20 2.341837 1_555
Cu0 S5 2.373157 1_455
Cu0 S13 2.390468 1_455
Cu0 S8 2.479150 1_555
Cu0 S24 2.660193 1_555
Cu0 S28 2.935142 1_555
Cu1 S21 2.331139 1_555
Cu1 S9 2.363990 1_555
Cu1 S12 2.398925 1_655
Cu1 S29 2.480903 1_555
Cu1 S4 2.577360 1_655
Cu1 S25 2.619055 1_555
Cu2 S22 2.331139 1_555
Cu2 S10 2.363990 1_555
Cu2 S15 2.398925 1_555
Cu2 S30 2.480903 1_555
Cu2 S7 2.577360 1_555
Cu2 S26 2.619055 1_555
Cu3 S23 2.341837 1_555
Cu3 S6 2.373157 1_555
Cu3 S14 2.390468 1_555
Cu3 S11 2.479150 1_555
Cu3 S27 2.660193 1_555
Cu3 S31 2.935142 1_555
Cu4 S26 2.379561 1_565
Cu4 S16 2.399953 1_555
Cu4 S9 2.463349 1_455
Cu4 S12 2.466756 1_555
Cu4 S30 2.537066 1_555
Cu4 S1 2.579538 1_465
Cu5 S27 2.342630 1_545
Cu5 S13 2.365237 1_555
Cu5 S31 2.425343 1_555
Cu5 S17 2.548063 1_556
Cu5 S0 2.560830 1_645
Cu5 S8 2.714634 1_655
Cu6 S24 2.342630 1_565
Cu6 S14 2.365237 1_555
Cu6 S28 2.425343 1_555
Cu6 S18 2.548063 1_556
Cu6 S3 2.560830 1_565
Cu6 S11 2.714634 1_555
Cu7 S25 2.379561 1_545
Cu7 S19 2.399953 1_555
Cu7 S10 2.463349 1_555
Cu7 S15 2.466756 1_555
Cu7 S29 2.537066 1_555
Cu7 S2 2.579538 1_545
