# generated using pymatgen
data_CrN2
_symmetry_space_group_name_H-M   'P 1'
_cell_length_a   13.71966064
_cell_length_b   13.71966064
_cell_length_c   9.17678600
_cell_angle_alpha   90.00000000
_cell_angle_beta   90.00000000
_cell_angle_gamma   109.08348479
_symmetry_Int_Tables_number   1
_chemical_formula_structural   CrN2
_chemical_formula_sum   'Cr24 N48'
_cell_volume   1632.40907378
_cell_formula_units_Z   24
loop_
 _symmetry_equiv_pos_site_id
 _symmetry_equiv_pos_as_xyz
  1  'x, y, z'
loop_
 _atom_site_type_symbol
 _atom_site_label
 _atom_site_symmetry_multiplicity
 _atom_site_fract_x
 _atom_site_fract_y
 _atom_site_fract_z
 _atom_site_occupancy
  Cr  Cr0  1  0.77351600  0.22648400  0.43684000  1
  Cr  Cr1  1  0.22648400  0.77351600  0.56316000  1
  Cr  Cr2  1  0.77351600  0.22648400  0.06316000  1
  Cr  Cr3  1  0.22648400  0.77351600  0.93684000  1
  Cr  Cr4  1  0.62293000  0.37707000  0.43626500  1
  Cr  Cr5  1  0.37707000  0.62293000  0.56373500  1
  Cr  Cr6  1  0.62293000  0.37707000  0.06373500  1
  Cr  Cr7  1  0.37707000  0.62293000  0.93626500  1
  Cr  Cr8  1  0.38212300  0.23972100  0.56212600  1
  Cr  Cr9  1  0.23972100  0.38212300  0.43787400  1
  Cr  Cr10  1  0.38212300  0.23972100  0.93787400  1
  Cr  Cr11  1  0.23972100  0.38212300  0.06212600  1
  Cr  Cr12  1  0.61787700  0.76027900  0.43787400  1
  Cr  Cr13  1  0.76027900  0.61787700  0.56212600  1
  Cr  Cr14  1  0.61787700  0.76027900  0.06212600  1
  Cr  Cr15  1  0.76027900  0.61787700  0.93787400  1
  Cr  Cr16  1  0.61720700  0.99526800  0.56218800  1
  Cr  Cr17  1  0.99526800  0.61720700  0.43781200  1
  Cr  Cr18  1  0.61720700  0.99526800  0.93781200  1
  Cr  Cr19  1  0.99526800  0.61720700  0.06218800  1
  Cr  Cr20  1  0.38279300  0.00473200  0.43781200  1
  Cr  Cr21  1  0.00473200  0.38279300  0.56218800  1
  Cr  Cr22  1  0.38279300  0.00473200  0.06218800  1
  Cr  Cr23  1  0.00473200  0.38279300  0.93781200  1
  N  N0  1  0.78095100  0.21904900  0.25000000  1
  N  N1  1  0.21904900  0.78095100  0.75000000  1
  N  N2  1  0.61403400  0.38596600  0.25000000  1
  N  N3  1  0.38596600  0.61403400  0.75000000  1
  N  N4  1  0.38116200  0.23857400  0.75000000  1
  N  N5  1  0.23857400  0.38116200  0.25000000  1
  N  N6  1  0.61883800  0.76142600  0.25000000  1
  N  N7  1  0.76142600  0.61883800  0.75000000  1
  N  N8  1  0.61313200  0.99335300  0.75000000  1
  N  N9  1  0.99335300  0.61313200  0.25000000  1
  N  N10  1  0.38686800  0.00664700  0.25000000  1
  N  N11  1  0.00664700  0.38686800  0.75000000  1
  N  N12  1  0.69820100  0.30179900  0.47622900  1
  N  N13  1  0.30179900  0.69820100  0.52377100  1
  N  N14  1  0.69820100  0.30179900  0.02377100  1
  N  N15  1  0.30179900  0.69820100  0.97622900  1
  N  N16  1  0.50037600  0.32038400  0.50487600  1
  N  N17  1  0.32038400  0.50037600  0.49512400  1
  N  N18  1  0.50037600  0.32038400  0.99512400  1
  N  N19  1  0.32038400  0.50037600  0.00487600  1
  N  N20  1  0.49962400  0.67961600  0.49512400  1
  N  N21  1  0.67961600  0.49962400  0.50487600  1
  N  N22  1  0.49962400  0.67961600  0.00487600  1
  N  N23  1  0.67961600  0.49962400  0.99512400  1
  N  N24  1  0.28795600  0.28795600  0.50000000  1
  N  N25  1  0.28795600  0.28795600  0.00000000  1
  N  N26  1  0.71204400  0.71204400  0.50000000  1
  N  N27  1  0.71204400  0.71204400  0.00000000  1
  N  N28  1  0.36318300  0.11629700  0.49822800  1
  N  N29  1  0.11629700  0.36318300  0.50177200  1
  N  N30  1  0.36318300  0.11629700  0.00177200  1
  N  N31  1  0.11629700  0.36318300  0.99822800  1
  N  N32  1  0.63681700  0.88370300  0.50177200  1
  N  N33  1  0.88370300  0.63681700  0.49822800  1
  N  N34  1  0.63681700  0.88370300  0.99822800  1
  N  N35  1  0.88370300  0.63681700  0.00177200  1
  N  N36  1  0.50000000  0.00000000  0.50000000  1
  N  N37  1  0.00000000  0.50000000  0.50000000  1
  N  N38  1  0.50000000  0.00000000  0.00000000  1
  N  N39  1  0.00000000  0.50000000  0.00000000  1
  N  N40  1  0.71521300  0.10368900  0.50539300  1
  N  N41  1  0.10368900  0.71521300  0.49460700  1
  N  N42  1  0.71521300  0.10368900  0.99460700  1
  N  N43  1  0.10368900  0.71521300  0.00539300  1
  N  N44  1  0.28478700  0.89631100  0.49460700  1
  N  N45  1  0.89631100  0.28478700  0.50539300  1
  N  N46  1  0.28478700  0.89631100  0.00539300  1
  N  N47  1  0.89631100  0.28478700  0.99460700  1
loop_
_geom_bond_atom_site_label_1
_geom_bond_atom_site_label_2
_geom_bond_distance
_geom_bond_site_symmetry_2
Cr0 N12 1.721691 1_555
Cr0 N0 1.722625 1_555
Cr0 N45 1.729929 1_555
Cr0 N40 1.729929 1_555
Cr1 N13 1.721691 1_555
Cr1 N1 1.722625 1_555
Cr1 N44 1.729929 1_555
Cr1 N41 1.729929 1_555
Cr2 N14 1.721691 1_555
Cr2 N0 1.722625 1_555
Cr2 N47 1.729929 1_554
Cr2 N42 1.729929 1_554
Cr3 N15 1.721691 1_555
Cr3 N1 1.722625 1_555
Cr3 N46 1.729929 1_556
Cr3 N43 1.729929 1_556
Cr4 N2 1.720839 1_555
Cr4 N12 1.721845 1_555
Cr4 N16 1.724330 1_555
Cr4 N21 1.724330 1_555
Cr5 N3 1.720839 1_555
Cr5 N13 1.721845 1_555
Cr5 N17 1.724330 1_555
Cr5 N20 1.724330 1_555
Cr6 N2 1.720839 1_555
Cr6 N14 1.721845 1_555
Cr6 N18 1.724330 1_554
Cr6 N23 1.724330 1_554
Cr7 N3 1.720839 1_555
Cr7 N15 1.721845 1_555
Cr7 N19 1.724330 1_556
Cr7 N22 1.724330 1_556
Cr8 N16 1.720132 1_555
Cr8 N4 1.724162 1_555
Cr8 N28 1.729458 1_555
Cr8 N24 1.729488 1_555
Cr9 N17 1.720132 1_555
Cr9 N5 1.724162 1_555
Cr9 N29 1.729458 1_555
Cr9 N24 1.729488 1_555
Cr10 N18 1.720132 1_555
Cr10 N4 1.724162 1_555
Cr10 N30 1.729458 1_556
Cr10 N25 1.729488 1_556
Cr11 N19 1.720132 1_555
Cr11 N5 1.724162 1_555
Cr11 N31 1.729458 1_554
Cr11 N25 1.729488 1_555
Cr12 N20 1.720132 1_555
Cr12 N6 1.724162 1_555
Cr12 N32 1.729458 1_555
Cr12 N26 1.729488 1_555
Cr13 N21 1.720132 1_555
Cr13 N7 1.724162 1_555
Cr13 N33 1.729458 1_555
Cr13 N26 1.729488 1_555
Cr14 N22 1.720132 1_555
Cr14 N6 1.724162 1_555
Cr14 N34 1.729458 1_554
Cr14 N27 1.729488 1_555
Cr15 N23 1.720132 1_555
Cr15 N7 1.724162 1_555
Cr15 N35 1.729458 1_556
Cr15 N27 1.729488 1_556
Cr16 N8 1.724339 1_555
Cr16 N36 1.727413 1_565
Cr16 N40 1.727548 1_565
Cr16 N32 1.729707 1_555
Cr17 N9 1.724339 1_555
Cr17 N37 1.727413 1_655
Cr17 N41 1.727548 1_655
Cr17 N33 1.729707 1_555
Cr18 N8 1.724339 1_555
Cr18 N38 1.727413 1_566
Cr18 N42 1.727548 1_565
Cr18 N34 1.729707 1_555
Cr19 N9 1.724339 1_555
Cr19 N39 1.727413 1_655
Cr19 N43 1.727548 1_655
Cr19 N35 1.729707 1_555
Cr20 N10 1.724339 1_555
Cr20 N36 1.727413 1_555
Cr20 N44 1.727548 1_545
Cr20 N28 1.729707 1_555
Cr21 N11 1.724339 1_555
Cr21 N37 1.727413 1_555
Cr21 N45 1.727548 1_455
Cr21 N29 1.729707 1_555
Cr22 N10 1.724339 1_555
Cr22 N38 1.727413 1_555
Cr22 N46 1.727548 1_545
Cr22 N30 1.729707 1_555
Cr23 N11 1.724339 1_555
Cr23 N39 1.727413 1_556
Cr23 N47 1.727548 1_455
Cr23 N31 1.729707 1_555
