# generated using pymatgen
data_Rb5(DyI4)3
_symmetry_space_group_name_H-M   'P 1'
_cell_length_a   15.26446658
_cell_length_b   15.26446658
_cell_length_c   4.58281800
_cell_angle_alpha   90.00000000
_cell_angle_beta   90.00000000
_cell_angle_gamma   120.00000251
_symmetry_Int_Tables_number   1
_chemical_formula_structural   Rb5(DyI4)3
_chemical_formula_sum   'Rb5 Dy3 I12'
_cell_volume   924.75459009
_cell_formula_units_Z   1
loop_
 _symmetry_equiv_pos_site_id
 _symmetry_equiv_pos_as_xyz
  1  'x, y, z'
loop_
 _atom_site_type_symbol
 _atom_site_label
 _atom_site_symmetry_multiplicity
 _atom_site_fract_x
 _atom_site_fract_y
 _atom_site_fract_z
 _atom_site_occupancy
  Rb  Rb0  1  0.33333300  0.66666700  0.00000000  1
  Rb  Rb1  1  0.66666700  0.33333300  0.00000000  1
  Rb  Rb2  1  0.71763400  0.00000000  0.00000000  1
  Rb  Rb3  1  0.00000000  0.71763400  0.00000000  1
  Rb  Rb4  1  0.28236600  0.28236600  0.00000000  1
  Dy  Dy0  1  0.32279500  0.00000000  0.50000000  1
  Dy  Dy1  1  0.00000000  0.32279500  0.50000000  1
  Dy  Dy2  1  0.67720500  0.67720500  0.50000000  1
  I  I0  1  0.18276200  0.00000000  0.00000000  1
  I  I1  1  0.00000000  0.18276200  0.00000000  1
  I  I2  1  0.81723800  0.81723800  0.00000000  1
  I  I3  1  0.45994100  0.00000000  0.00000000  1
  I  I4  1  0.00000000  0.45994100  0.00000000  1
  I  I5  1  0.54005900  0.54005900  0.00000000  1
  I  I6  1  0.23342300  0.44138200  0.50000000  1
  I  I7  1  0.55861800  0.79204100  0.50000000  1
  I  I8  1  0.44138200  0.23342300  0.50000000  1
  I  I9  1  0.20795900  0.76657700  0.50000000  1
  I  I10  1  0.79204100  0.55861800  0.50000000  1
  I  I11  1  0.76657700  0.20795900  0.50000000  1
loop_
_geom_bond_atom_site_label_1
_geom_bond_atom_site_label_2
_geom_bond_distance
_geom_bond_site_symmetry_2
Dy0 I8 3.085848 1_555
Dy0 I9 3.085848 1_545
Dy0 I3 3.103729 1_555
Dy0 I3 3.103729 1_556
Dy0 I0 3.133622 1_556
Dy0 I0 3.133622 1_555
Dy1 I6 3.085848 1_555
Dy1 I11 3.085848 1_455
Dy1 I4 3.103729 1_555
Dy1 I4 3.103729 1_556
Dy1 I1 3.133622 1_556
Dy1 I1 3.133622 1_555
Dy2 I10 3.085849 1_555
Dy2 I7 3.085849 1_555
Dy2 I5 3.103729 1_556
Dy2 I5 3.103729 1_555
Dy2 I2 3.133622 1_555
Dy2 I2 3.133622 1_556
I0 Rb3 3.786287 1_545
I0 Rb4 3.786287 1_555
I1 Rb2 3.786287 1_455
I1 Rb4 3.786287 1_555
I2 Rb3 3.786287 1_655
I2 Rb2 3.786287 1_565
I3 Rb2 3.933546 1_555
I4 Rb3 3.933546 1_555
I5 Rb4 3.933546 1_555
I6 Rb4 3.676120 1_555
I6 Rb4 3.676120 1_556
I6 Rb0 3.762662 1_555
I6 Rb0 3.762662 1_556
I7 Rb2 3.676120 1_565
I7 Rb2 3.676120 1_566
I7 Rb0 3.762661 1_555
I7 Rb0 3.762661 1_556
I8 Rb4 3.676120 1_555
I8 Rb4 3.676120 1_556
I8 Rb1 3.762662 1_556
I8 Rb1 3.762662 1_555
I9 Rb3 3.676120 1_556
I9 Rb3 3.676120 1_555
I9 Rb0 3.762651 1_555
I9 Rb0 3.762651 1_556
I10 Rb3 3.676120 1_656
I10 Rb3 3.676120 1_655
I10 Rb1 3.762661 1_555
I10 Rb1 3.762661 1_556
I11 Rb2 3.676120 1_556
I11 Rb2 3.676120 1_555
I11 Rb1 3.762651 1_555
I11 Rb1 3.762651 1_556
