# generated using pymatgen
data_Li7Mn4CoO12
_symmetry_space_group_name_H-M   'P 1'
_cell_length_a   2.86631700
_cell_length_b   5.30041563
_cell_length_c   14.59351900
_cell_angle_alpha   87.89800226
_cell_angle_beta   90.00000000
_cell_angle_gamma   90.00000000
_symmetry_Int_Tables_number   1
_chemical_formula_structural   Li7Mn4CoO12
_chemical_formula_sum   'Li7 Mn4 Co1 O12'
_cell_volume   221.56535062
_cell_formula_units_Z   1
loop_
 _symmetry_equiv_pos_site_id
 _symmetry_equiv_pos_as_xyz
  1  'x, y, z'
loop_
 _atom_site_type_symbol
 _atom_site_label
 _atom_site_symmetry_multiplicity
 _atom_site_fract_x
 _atom_site_fract_y
 _atom_site_fract_z
 _atom_site_occupancy
  Li  Li0  1  0.50000000  0.16794300  0.16808000  1
  Li  Li1  1  0.50000000  0.50947200  0.50685400  1
  Li  Li2  1  0.50000000  0.82393700  0.82540300  1
  Li  Li3  1  0.00000000  0.66873800  0.16658800  1
  Li  Li4  1  0.00000000  0.01125800  0.51193900  1
  Li  Li5  1  0.00000000  0.32266300  0.82253300  1
  Li  Li6  1  0.50000000  0.16690600  0.66630900  1
  Mn  Mn0  1  0.00000000  0.99716900  0.99882400  1
  Mn  Mn1  1  0.00000000  0.66616700  0.66602700  1
  Mn  Mn2  1  0.50000000  0.49633400  0.00017500  1
  Mn  Mn3  1  0.50000000  0.83645700  0.33371600  1
  Co  Co0  1  0.00000000  0.33661100  0.33482100  1
  O  O0  1  0.50000000  0.85575900  0.07811200  1
  O  O1  1  0.50000000  0.18453800  0.40658800  1
  O  O2  1  0.50000000  0.51454000  0.74113700  1
  O  O3  1  0.00000000  0.35457100  0.07933500  1
  O  O4  1  0.00000000  0.68667600  0.40795000  1
  O  O5  1  0.00000000  0.95958700  0.74140800  1
  O  O6  1  0.50000000  0.48246000  0.25986600  1
  O  O7  1  0.50000000  0.81822200  0.59061100  1
  O  O8  1  0.50000000  0.14414100  0.92264500  1
  O  O9  1  0.00000000  0.98304800  0.25624300  1
  O  O10  1  0.00000000  0.37117600  0.59014300  1
  O  O11  1  0.00000000  0.64162700  0.92469200  1
loop_
_geom_bond_atom_site_label_1
_geom_bond_atom_site_label_2
_geom_bond_distance
_geom_bond_site_symmetry_2
Li0 O9 2.139450 1_545
Li0 O9 2.139450 1_645
Li0 O3 2.148437 1_555
Li0 O3 2.148437 1_655
Li0 O0 2.149711 1_545
Li0 O6 2.176497 1_555
Li1 O10 2.000825 1_555
Li1 O10 2.000825 1_655
Li1 O7 2.078201 1_555
Li1 O4 2.218102 1_555
Li1 O4 2.218102 1_655
Li1 O1 2.300475 1_555
Li2 O5 2.002198 1_655
Li2 O5 2.002198 1_555
Li2 O2 2.085563 1_555
Li2 O11 2.232607 1_655
Li2 O11 2.232607 1_555
Li2 O8 2.251904 1_565
Li3 O3 2.133038 1_555
Li3 O0 2.147054 1_455
Li3 O0 2.147054 1_555
Li3 O9 2.155744 1_555
Li3 O6 2.187058 1_455
Li3 O6 2.187058 1_555
Li4 O7 2.081535 1_545
Li4 O7 2.081535 1_445
Li4 O10 2.258670 1_555
Li4 O1 2.271045 1_555
Li4 O1 2.271045 1_455
Li4 O4 2.335460 1_545
Li5 O2 2.100158 1_455
Li5 O2 2.100158 1_555
Li5 O8 2.232125 1_555
Li5 O8 2.232125 1_455
Li5 O11 2.294739 1_555
Li5 O5 2.296143 1_545
Li6 O10 2.091275 1_555
Li6 O10 2.091275 1_655
Li6 O5 2.091472 1_545
Li6 O5 2.091472 1_645
Li6 O2 2.176067 1_555
Li6 O7 2.187662 1_545
Mn0 O8 1.957855 1_465
Mn0 O8 1.957855 1_565
Mn0 O0 1.972557 1_456
Mn0 O0 1.972557 1_556
Mn0 O11 2.207117 1_555
Mn0 O3 2.265487 1_566
Mn1 O5 1.937644 1_555
Mn1 O10 1.948885 1_555
Mn1 O2 1.958752 1_455
Mn1 O2 1.958752 1_555
Mn1 O7 1.962071 1_455
Mn1 O7 1.962071 1_555
Mn2 O11 1.948904 1_654
Mn2 O11 1.948904 1_554
Mn2 O3 1.972159 1_555
Mn2 O3 1.972159 1_655
Mn2 O8 2.218088 1_554
Mn2 O0 2.254326 1_555
Mn3 O4 1.948011 1_555
Mn3 O4 1.948011 1_655
Mn3 O9 1.967609 1_555
Mn3 O9 1.967609 1_655
Mn3 O1 2.163054 1_565
Mn3 O6 2.197832 1_555
Co0 O1 1.933556 1_455
Co0 O1 1.933556 1_555
Co0 O6 1.945779 1_555
Co0 O6 1.945779 1_455
Co0 O4 2.174176 1_555
Co0 O9 2.232627 1_545
