# generated using pymatgen
data_Co3SbN
_symmetry_space_group_name_H-M   'P 1'
_cell_length_a   5.48451400
_cell_length_b   5.56349700
_cell_length_c   7.79096100
_cell_angle_alpha   90.00000000
_cell_angle_beta   90.00000000
_cell_angle_gamma   90.00000000
_symmetry_Int_Tables_number   1
_chemical_formula_structural   Co3SbN
_chemical_formula_sum   'Co12 Sb4 N4'
_cell_volume   237.72619434
_cell_formula_units_Z   4
loop_
 _symmetry_equiv_pos_site_id
 _symmetry_equiv_pos_as_xyz
  1  'x, y, z'
loop_
 _atom_site_type_symbol
 _atom_site_label
 _atom_site_symmetry_multiplicity
 _atom_site_fract_x
 _atom_site_fract_y
 _atom_site_fract_z
 _atom_site_occupancy
  Co  Co0  1  0.76169400  0.75700200  0.00758500  1
  Co  Co1  1  0.73830600  0.25700200  0.49241500  1
  Co  Co2  1  0.23830600  0.24299800  0.50758500  1
  Co  Co3  1  0.26169400  0.74299800  0.99241500  1
  Co  Co4  1  0.23830600  0.24299800  0.99241500  1
  Co  Co5  1  0.26169400  0.74299800  0.50758500  1
  Co  Co6  1  0.76169400  0.75700200  0.49241500  1
  Co  Co7  1  0.73830600  0.25700200  0.00758500  1
  Co  Co8  1  0.49831900  0.95953100  0.25000000  1
  Co  Co9  1  0.00168100  0.45953100  0.25000000  1
  Co  Co10  1  0.50168100  0.04046900  0.75000000  1
  Co  Co11  1  0.99831900  0.54046900  0.75000000  1
  Sb  Sb0  1  0.49289000  0.49101400  0.25000000  1
  Sb  Sb1  1  0.00711000  0.99101400  0.25000000  1
  Sb  Sb2  1  0.50711000  0.50898600  0.75000000  1
  Sb  Sb3  1  0.99289000  0.00898600  0.75000000  1
  N  N0  1  0.00000000  0.50000000  0.00000000  1
  N  N1  1  0.50000000  0.00000000  0.50000000  1
  N  N2  1  0.00000000  0.50000000  0.50000000  1
  N  N3  1  0.50000000  0.00000000  0.00000000  1
loop_
_geom_bond_atom_site_label_1
_geom_bond_atom_site_label_2
_geom_bond_distance
_geom_bond_site_symmetry_2
Co0 N0 1.938075 1_655
Co0 N3 1.972602 1_565
Co0 Sb1 2.659638 1_655
Co0 Sb3 2.756912 1_564
Co0 Sb2 2.807294 1_554
Co0 Sb0 2.816079 1_555
Co1 N1 1.938075 1_555
Co1 N2 1.972602 1_655
Co1 Sb0 2.659638 1_555
Co1 Sb2 2.756912 1_555
Co1 Sb3 2.807294 1_555
Co1 Sb1 2.816079 1_645
Co2 N2 1.938075 1_555
Co2 N1 1.972602 1_555
Co2 Sb3 2.659638 1_455
Co2 Sb1 2.756912 1_545
Co2 Sb0 2.807294 1_555
Co2 Sb2 2.816079 1_555
Co3 N3 1.938075 1_566
Co3 N0 1.972602 1_556
Co3 Sb2 2.659638 1_555
Co3 Sb0 2.756912 1_556
Co3 Sb1 2.807294 1_556
Co3 Sb3 2.816079 1_465
Co4 N0 1.938075 1_556
Co4 N3 1.972602 1_556
Co4 Sb3 2.659638 1_455
Co4 Sb1 2.756912 1_546
Co4 Sb0 2.807294 1_556
Co4 Sb2 2.816079 1_555
Co5 N1 1.938075 1_565
Co5 N2 1.972602 1_555
Co5 Sb2 2.659638 1_555
Co5 Sb0 2.756912 1_555
Co5 Sb1 2.807294 1_555
Co5 Sb3 2.816079 1_465
Co6 N2 1.938075 1_655
Co6 N1 1.972602 1_565
Co6 Sb1 2.659638 1_655
Co6 Sb3 2.756912 1_565
Co6 Sb2 2.807294 1_555
Co6 Sb0 2.816079 1_555
Co7 N3 1.938075 1_555
Co7 N0 1.972602 1_655
Co7 Sb0 2.659638 1_555
Co7 Sb2 2.756912 1_554
Co7 Sb3 2.807294 1_554
Co7 Sb1 2.816079 1_645
Co8 N3 1.960732 1_565
Co8 N1 1.960732 1_565
Co8 Sb0 2.606763 1_555
Co8 Sb1 2.699731 1_555
Co8 Sb1 2.795963 1_655
Co8 Sb0 2.957054 1_565
Co9 N0 1.960732 1_555
Co9 N2 1.960732 1_555
Co9 Sb1 2.606763 1_545
Co9 Sb0 2.699731 1_555
Co9 Sb0 2.795963 1_455
Co9 Sb1 2.957054 1_555
Co10 N3 1.960732 1_556
Co10 N1 1.960732 1_555
Co10 Sb2 2.606763 1_555
Co10 Sb3 2.699731 1_555
Co10 Sb3 2.795963 1_455
Co10 Sb2 2.957054 1_545
Co11 N2 1.960732 1_655
Co11 N0 1.960732 1_656
Co11 Sb3 2.606763 1_565
Co11 Sb2 2.699731 1_555
Co11 Sb2 2.795963 1_655
Co11 Sb3 2.957054 1_555
