# generated using pymatgen
data_CaTi8Mn(PO4)12
_symmetry_space_group_name_H-M   'P 1'
_cell_length_a   15.36026423
_cell_length_b   15.36026423
_cell_length_c   15.36026403
_cell_angle_alpha   32.38108166
_cell_angle_beta   32.38108166
_cell_angle_gamma   32.38108277
_symmetry_Int_Tables_number   1
_chemical_formula_structural   CaTi8Mn(PO4)12
_chemical_formula_sum   'Ca1 Ti8 Mn1 P12 O48'
_cell_volume   924.07925366
_cell_formula_units_Z   1
loop_
 _symmetry_equiv_pos_site_id
 _symmetry_equiv_pos_as_xyz
  1  'x, y, z'
loop_
 _atom_site_type_symbol
 _atom_site_label
 _atom_site_symmetry_multiplicity
 _atom_site_fract_x
 _atom_site_fract_y
 _atom_site_fract_z
 _atom_site_occupancy
  Ca  Ca0  1  0.50000000  0.50000000  0.50000000  1
  Ti  Ti0  1  0.31964600  0.31964600  0.31964600  1
  Ti  Ti1  1  0.81960000  0.81960000  0.81960000  1
  Ti  Ti2  1  0.18040000  0.18040000  0.18040000  1
  Ti  Ti3  1  0.68035400  0.68035400  0.68035400  1
  Ti  Ti4  1  0.57407900  0.57407900  0.57407900  1
  Ti  Ti5  1  0.07337700  0.07337700  0.07337700  1
  Ti  Ti6  1  0.92662300  0.92662300  0.92662300  1
  Ti  Ti7  1  0.42592100  0.42592100  0.42592100  1
  Mn  Mn0  1  0.00000000  0.00000000  0.00000000  1
  P  P0  1  0.91005600  0.63124400  0.33767900  1
  P  P1  1  0.40940600  0.12977000  0.83843200  1
  P  P2  1  0.63124400  0.33767900  0.91005600  1
  P  P3  1  0.12977000  0.83843200  0.40940600  1
  P  P4  1  0.33767900  0.91005600  0.63124400  1
  P  P5  1  0.83843200  0.40940600  0.12977000  1
  P  P6  1  0.59059400  0.87023000  0.16156800  1
  P  P7  1  0.08994400  0.36875600  0.66232100  1
  P  P8  1  0.87023000  0.16156800  0.59059400  1
  P  P9  1  0.36875600  0.66232100  0.08994400  1
  P  P10  1  0.16156800  0.59059400  0.87023000  1
  P  P11  1  0.66232100  0.08994400  0.36875600  1
  O  O0  1  0.14850300  0.41427600  0.05098900  1
  O  O1  1  0.64959200  0.91424700  0.55006100  1
  O  O2  1  0.41427600  0.05098900  0.14850300  1
  O  O3  1  0.91424700  0.55006100  0.64959200  1
  O  O4  1  0.05098900  0.14850300  0.41427600  1
  O  O5  1  0.55006100  0.64959200  0.91424700  1
  O  O6  1  0.35040800  0.08575300  0.44993900  1
  O  O7  1  0.85149700  0.58572400  0.94901100  1
  O  O8  1  0.08575300  0.44993900  0.35040800  1
  O  O9  1  0.58572400  0.94901100  0.85149700  1
  O  O10  1  0.44993900  0.35040800  0.08575300  1
  O  O11  1  0.94901100  0.85149700  0.58572400  1
  O  O12  1  0.44850700  0.81069700  0.70173500  1
  O  O13  1  0.94679900  0.31125900  0.20238100  1
  O  O14  1  0.81069700  0.70173500  0.44850700  1
  O  O15  1  0.31125900  0.20238100  0.94679900  1
  O  O16  1  0.70173500  0.44850700  0.81069700  1
  O  O17  1  0.20238100  0.94679900  0.31125900  1
  O  O18  1  0.05320100  0.68874100  0.79761900  1
  O  O19  1  0.55149300  0.18930300  0.29826500  1
  O  O20  1  0.68874100  0.79761900  0.05320100  1
  O  O21  1  0.18930300  0.29826500  0.55149300  1
  O  O22  1  0.79761900  0.05320100  0.68874100  1
  O  O23  1  0.29826500  0.55149300  0.18930300  1
  O  O24  1  0.54343600  0.72060100  0.36414100  1
  O  O25  1  0.04276500  0.21632900  0.86485100  1
  O  O26  1  0.72060100  0.36414100  0.54343600  1
  O  O27  1  0.21632900  0.86485100  0.04276500  1
  O  O28  1  0.36414100  0.54343600  0.72060100  1
  O  O29  1  0.86485100  0.04276500  0.21632900  1
  O  O30  1  0.95723500  0.78367100  0.13514900  1
  O  O31  1  0.45656400  0.27939900  0.63585900  1
  O  O32  1  0.78367100  0.13514900  0.95723500  1
  O  O33  1  0.27939900  0.63585900  0.45656400  1
  O  O34  1  0.13514900  0.95723500  0.78367100  1
  O  O35  1  0.63585900  0.45656400  0.27939900  1
  O  O36  1  0.78475900  0.59724900  0.40659600  1
  O  O37  1  0.28396000  0.09464000  0.90910700  1
  O  O38  1  0.59724900  0.40659600  0.78475900  1
  O  O39  1  0.09464000  0.90910700  0.28396000  1
  O  O40  1  0.40659600  0.78475900  0.59724900  1
  O  O41  1  0.90910700  0.28396000  0.09464000  1
  O  O42  1  0.71604000  0.90536000  0.09089300  1
  O  O43  1  0.21524100  0.40275100  0.59340400  1
  O  O44  1  0.90536000  0.09089300  0.71604000  1
  O  O45  1  0.40275100  0.59340400  0.21524100  1
  O  O46  1  0.09089300  0.71604000  0.90536000  1
  O  O47  1  0.59340400  0.21524100  0.40275100  1
loop_
_geom_bond_atom_site_label_1
_geom_bond_atom_site_label_2
_geom_bond_distance
_geom_bond_site_symmetry_2
Ca0 O35 2.409431 1_555
Ca0 O28 2.409431 1_555
Ca0 O31 2.409431 1_555
Ca0 O24 2.409431 1_555
Ca0 O33 2.409431 1_555
Ca0 O26 2.409431 1_555
Mn0 O34 2.348414 1_544
Mn0 O29 2.348414 1_455
Mn0 O25 2.348414 1_554
Mn0 O30 2.348414 1_445
Mn0 O27 2.348414 1_545
Mn0 O32 2.348414 1_454
O0 P10 1.536335 1_554
O0 Ti2 1.925545 1_555
O1 P11 1.534446 1_565
O1 Ti3 1.929154 1_555
O2 P6 1.536335 1_545
O2 Ti2 1.925545 1_555
O3 P7 1.534446 1_655
O3 Ti3 1.929154 1_555
O4 P8 1.536335 1_455
O4 Ti2 1.925545 1_555
O5 P9 1.534446 1_556
O5 Ti3 1.929154 1_555
O6 P4 1.534446 1_545
O6 Ti0 1.929154 1_555
O7 P5 1.536335 1_556
O7 Ti1 1.925545 1_555
O8 P0 1.534446 1_455
O8 Ti0 1.929154 1_555
O9 P1 1.536335 1_565
O9 Ti1 1.925545 1_555
O10 P2 1.534446 1_554
O10 Ti0 1.929154 1_555
O11 P3 1.536335 1_655
O11 Ti1 1.925545 1_555
O12 P4 1.527599 1_555
O12 Ti3 1.972622 1_555
O13 P5 1.531246 1_555
O13 Ti2 1.986841 1_655
O14 P0 1.527599 1_555
O14 Ti3 1.972622 1_555
O15 P1 1.531246 1_555
O15 Ti2 1.986841 1_556
O16 P2 1.527599 1_555
O16 Ti3 1.972622 1_555
O17 P3 1.531246 1_555
O17 Ti2 1.986841 1_565
O18 P10 1.531246 1_555
O18 Ti1 1.986841 1_455
O19 P11 1.527599 1_555
O19 Ti0 1.972622 1_555
O20 P6 1.531246 1_555
O20 Ti1 1.986841 1_554
O21 P7 1.527599 1_555
O21 Ti0 1.972622 1_555
O22 P8 1.531246 1_555
O22 Ti1 1.986841 1_545
O23 P9 1.527599 1_555
O23 Ti0 1.972622 1_555
O24 P6 1.554069 1_555
O24 Ti4 2.049832 1_555
O25 P7 1.562243 1_555
O25 Ti5 2.054940 1_556
O26 P8 1.554069 1_555
O26 Ti4 2.049832 1_555
O27 P9 1.562243 1_555
O27 Ti5 2.054940 1_565
O28 P10 1.554069 1_555
O28 Ti4 2.049832 1_555
O29 P11 1.562243 1_555
O29 Ti5 2.054940 1_655
O30 P0 1.562243 1_555
O30 Ti6 2.054940 1_554
O31 P1 1.554069 1_555
O31 Ti7 2.049832 1_555
O32 P2 1.562243 1_555
O32 Ti6 2.054940 1_545
O33 P3 1.554069 1_555
O33 Ti7 2.049832 1_555
O34 P4 1.562243 1_555
O34 Ti6 2.054940 1_455
O35 P5 1.554069 1_555
O35 Ti7 2.049832 1_555
O36 P0 1.555640 1_555
O36 Ti4 1.885419 1_555
O37 P1 1.554427 1_555
O37 Ti5 1.882381 1_556
O38 P2 1.555640 1_555
O38 Ti4 1.885419 1_555
O39 P3 1.554427 1_555
O39 Ti5 1.882381 1_565
O40 P4 1.555640 1_555
O40 Ti4 1.885419 1_555
O41 P5 1.554427 1_555
O41 Ti5 1.882381 1_655
O42 P6 1.554427 1_555
O42 Ti6 1.882381 1_554
O43 P7 1.555640 1_555
O43 Ti7 1.885419 1_555
O44 P8 1.554427 1_555
O44 Ti6 1.882381 1_545
O45 P9 1.555640 1_555
O45 Ti7 1.885419 1_555
O46 P10 1.554427 1_555
O46 Ti6 1.882381 1_455
O47 P11 1.555640 1_555
O47 Ti7 1.885419 1_555
