# generated using pymatgen
data_SrCeMg14
_symmetry_space_group_name_H-M   'P 1'
_cell_length_a   6.61735338
_cell_length_b   6.61735338
_cell_length_c   10.72773000
_cell_angle_alpha   90.00000000
_cell_angle_beta   90.00000000
_cell_angle_gamma   115.44427355
_symmetry_Int_Tables_number   1
_chemical_formula_structural   SrCeMg14
_chemical_formula_sum   'Sr1 Ce1 Mg14'
_cell_volume   424.19540536
_cell_formula_units_Z   1
loop_
 _symmetry_equiv_pos_site_id
 _symmetry_equiv_pos_as_xyz
  1  'x, y, z'
loop_
 _atom_site_type_symbol
 _atom_site_label
 _atom_site_symmetry_multiplicity
 _atom_site_fract_x
 _atom_site_fract_y
 _atom_site_fract_z
 _atom_site_occupancy
  Sr  Sr0  1  0.33726700  0.66273300  0.50000000  1
  Ce  Ce0  1  0.84125200  0.15874800  0.50000000  1
  Mg  Mg0  1  0.83255200  0.16744800  0.00000000  1
  Mg  Mg1  1  0.33388600  0.66611400  0.00000000  1
  Mg  Mg2  1  0.33748800  0.16930600  0.50000000  1
  Mg  Mg3  1  0.33637000  0.16688500  0.00000000  1
  Mg  Mg4  1  0.83069400  0.66251200  0.50000000  1
  Mg  Mg5  1  0.83311500  0.66363000  0.00000000  1
  Mg  Mg6  1  0.16051100  0.32715200  0.23903000  1
  Mg  Mg7  1  0.16051100  0.32715200  0.76097000  1
  Mg  Mg8  1  0.67284800  0.83948900  0.23903000  1
  Mg  Mg9  1  0.67284800  0.83948900  0.76097000  1
  Mg  Mg10  1  0.66461400  0.33538600  0.25012600  1
  Mg  Mg11  1  0.66461400  0.33538600  0.74987400  1
  Mg  Mg12  1  0.16071900  0.83928100  0.24376400  1
  Mg  Mg13  1  0.16071900  0.83928100  0.75623600  1
loop_
_geom_bond_atom_site_label_1
_geom_bond_atom_site_label_2
_geom_bond_distance
_geom_bond_site_symmetry_2
Ce0 Mg4 3.254364 1_545
Ce0 Mg2 3.254364 1_655
Ce0 Mg11 3.330472 1_555
Ce0 Mg10 3.330472 1_555
Ce0 Mg2 3.364193 1_555
Ce0 Mg4 3.364193 1_555
Ce0 Mg6 3.394115 1_655
Ce0 Mg7 3.394115 1_655
Ce0 Mg8 3.394115 1_545
Ce0 Mg9 3.394115 1_545
Ce0 Sr0 3.534118 1_545
Ce0 Sr0 3.534118 1_655
Mg0 Mg7 3.229759 1_654
Mg0 Mg8 3.229759 1_545
Mg0 Mg9 3.229759 1_544
Mg0 Mg6 3.229759 1_655
Mg0 Mg10 3.275852 1_555
Mg0 Mg11 3.275852 1_554
Mg0 Mg3 3.281813 1_555
Mg0 Mg5 3.281813 1_555
Mg0 Mg5 3.335544 1_545
Mg0 Mg3 3.335544 1_655
Mg1 Mg12 3.254676 1_555
Mg1 Mg13 3.254676 1_554
Mg1 Mg7 3.272857 1_554
Mg1 Mg6 3.272857 1_555
Mg1 Mg9 3.272857 1_554
Mg1 Mg8 3.272857 1_555
Mg1 Mg3 3.306750 1_565
Mg1 Mg5 3.306750 1_455
Mg1 Mg5 3.310670 1_555
Mg1 Mg3 3.310670 1_555
Mg2 Sr0 3.265809 1_555
Mg2 Sr0 3.351545 1_545
Mg2 Mg6 3.369199 1_555
Mg2 Mg7 3.369199 1_555
Mg2 Mg4 3.485819 1_555
Mg2 Mg4 3.581855 1_445
Mg3 Mg7 3.180387 1_554
Mg3 Mg6 3.180387 1_555
Mg3 Mg5 3.510832 1_555
Mg3 Mg5 3.556842 1_445
Mg4 Sr0 3.265809 1_555
Mg4 Sr0 3.351545 1_655
Mg4 Mg8 3.369199 1_555
Mg4 Mg9 3.369199 1_555
Mg5 Mg9 3.180387 1_554
Mg5 Mg8 3.180387 1_555
Mg6 Mg8 3.446643 1_445
Mg6 Sr0 3.450421 1_555
Mg7 Mg9 3.446643 1_445
Mg7 Sr0 3.450421 1_555
Mg8 Sr0 3.450421 1_555
Mg9 Sr0 3.450421 1_555
Mg10 Mg8 3.307444 1_545
Mg10 Mg6 3.307444 1_655
Mg10 Mg8 3.314921 1_555
Mg10 Mg6 3.314921 1_555
Mg10 Mg2 3.321908 1_555
Mg10 Mg4 3.321908 1_555
Mg10 Mg3 3.328700 1_555
Mg10 Mg5 3.328700 1_555
Mg10 Mg12 3.534765 1_545
Mg10 Mg12 3.534765 1_655
Mg11 Mg9 3.307444 1_545
Mg11 Mg7 3.307444 1_655
Mg11 Mg9 3.314921 1_555
Mg11 Mg7 3.314921 1_555
Mg11 Mg2 3.321908 1_555
Mg11 Mg4 3.321908 1_555
Mg11 Mg3 3.328700 1_556
Mg11 Mg5 3.328700 1_556
Mg11 Mg13 3.534765 1_545
Mg11 Mg13 3.534765 1_655
Mg12 Mg8 3.229406 1_455
Mg12 Mg6 3.229406 1_565
Mg12 Mg5 3.274741 1_455
Mg12 Mg3 3.274741 1_565
Mg12 Sr0 3.385059 1_555
Mg12 Mg6 3.388728 1_555
Mg12 Mg8 3.388728 1_555
Mg12 Mg2 3.390970 1_565
Mg12 Mg4 3.390970 1_455
Mg13 Mg9 3.229406 1_455
Mg13 Mg7 3.229406 1_565
Mg13 Mg5 3.274741 1_456
Mg13 Mg3 3.274741 1_566
Mg13 Sr0 3.385059 1_555
Mg13 Mg7 3.388728 1_555
Mg13 Mg9 3.388728 1_555
Mg13 Mg2 3.390970 1_565
Mg13 Mg4 3.390970 1_455
