# generated using pymatgen
data_Pr(Ge2Rh3)2
_symmetry_space_group_name_H-M   'P 1'
_cell_length_a   7.16725445
_cell_length_b   7.16729147
_cell_length_c   3.87502061
_cell_angle_alpha   90.00000000
_cell_angle_beta   90.00000000
_cell_angle_gamma   119.99934219
_symmetry_Int_Tables_number   1
_chemical_formula_structural   Pr(Ge2Rh3)2
_chemical_formula_sum   'Pr1 Ge4 Rh6'
_cell_volume   172.39132827
_cell_formula_units_Z   1
loop_
 _symmetry_equiv_pos_site_id
 _symmetry_equiv_pos_as_xyz
  1  'x, y, z'
loop_
 _atom_site_type_symbol
 _atom_site_label
 _atom_site_symmetry_multiplicity
 _atom_site_fract_x
 _atom_site_fract_y
 _atom_site_fract_z
 _atom_site_occupancy
  Pr  Pr0  1  -0.00000085  -0.00000994  0.00000000  1
  Ge  Ge0  1  0.33333498  0.66668056  0.00000000  1
  Ge  Ge1  1  0.80085304  0.19912528  0.50000000  1
  Ge  Ge2  1  0.80087643  0.60173684  0.50000000  1
  Ge  Ge3  1  0.39826750  0.19911468  0.50000000  1
  Rh  Rh0  1  0.53310527  0.46690155  0.00000000  1
  Rh  Rh1  1  0.53308867  0.06618147  0.00000000  1
  Rh  Rh2  1  0.93380509  0.46690811  0.00000000  1
  Rh  Rh3  1  0.20111663  0.79890494  0.50000000  1
  Rh  Rh4  1  0.20109806  0.40221208  0.50000000  1
  Rh  Rh5  1  0.59778918  0.79891145  0.50000000  1
loop_
_geom_bond_atom_site_label_1
_geom_bond_atom_site_label_2
_geom_bond_distance
_geom_bond_site_symmetry_2
Pr0 Rh3 3.160120 1_544
Pr0 Rh3 3.160120 1_545
Pr0 Rh5 3.160170 1_444
Pr0 Rh5 3.160170 1_445
Pr0 Rh4 3.160240 1_555
Pr0 Rh4 3.160240 1_554
Ge0 Rh1 2.479741 1_565
Ge0 Rh2 2.479908 1_455
Ge0 Rh0 2.480010 1_555
Ge0 Rh3 2.539320 1_555
Ge0 Rh3 2.539320 1_554
Ge0 Rh5 2.539373 1_555
Ge0 Rh5 2.539373 1_554
Ge0 Rh4 2.539436 1_554
Ge0 Rh4 2.539436 1_555
Ge1 Rh5 2.484257 1_545
Ge1 Rh4 2.484438 1_655
Ge1 Rh1 2.552712 1_556
Ge1 Rh1 2.552712 1_555
Ge1 Rh2 2.552792 1_555
Ge1 Rh2 2.552792 1_556
Ge1 Pr0 3.140927 1_656
Ge1 Pr0 3.140927 1_655
Ge2 Rh3 2.484407 1_655
Ge2 Rh5 2.484524 1_555
Ge2 Rh2 2.552676 1_555
Ge2 Rh2 2.552676 1_556
Ge2 Rh0 2.552740 1_555
Ge2 Rh0 2.552740 1_556
Ge2 Pr0 3.140814 1_666
Ge2 Pr0 3.140814 1_665
Ge3 Rh3 2.484231 1_545
Ge3 Rh4 2.484555 1_555
Ge3 Rh1 2.552664 1_556
Ge3 Rh1 2.552664 1_555
Ge3 Rh0 2.552809 1_556
Ge3 Rh0 2.552809 1_555
Ge3 Pr0 3.140878 1_555
Ge3 Pr0 3.140878 1_556
