# generated using pymatgen
data_Tb5Pt4
_symmetry_space_group_name_H-M   'P 1'
_cell_length_a   7.51003239
_cell_length_b   7.58255206
_cell_length_c   14.60643538
_cell_angle_alpha   90.00000000
_cell_angle_beta   90.00000000
_cell_angle_gamma   90.00089384
_symmetry_Int_Tables_number   1
_chemical_formula_structural   Tb5Pt4
_chemical_formula_sum   'Tb20 Pt16'
_cell_volume   831.76655294
_cell_formula_units_Z   4
loop_
 _symmetry_equiv_pos_site_id
 _symmetry_equiv_pos_as_xyz
  1  'x, y, z'
loop_
 _atom_site_type_symbol
 _atom_site_label
 _atom_site_symmetry_multiplicity
 _atom_site_fract_x
 _atom_site_fract_y
 _atom_site_fract_z
 _atom_site_occupancy
  Tb  Tb0  1  0.65318154  0.16753524  0.62200565  1
  Tb  Tb1  1  0.15318643  0.33248265  0.87800468  1
  Tb  Tb2  1  0.34681846  0.83246476  0.12200565  1
  Tb  Tb3  1  0.84681357  0.66751735  0.37800468  1
  Tb  Tb4  1  0.34681846  0.83246476  0.37799435  1
  Tb  Tb5  1  0.84681357  0.66751735  0.12199532  1
  Tb  Tb6  1  0.65318154  0.16753524  0.87799435  1
  Tb  Tb7  1  0.15318643  0.33248265  0.62199532  1
  Tb  Tb8  1  0.49979066  0.68019953  0.59392004  1
  Tb  Tb9  1  0.99978660  0.81979334  0.90607678  1
  Tb  Tb10  1  0.50020934  0.31980047  0.09392004  1
  Tb  Tb11  1  0.00021340  0.18020666  0.40607678  1
  Tb  Tb12  1  0.50020934  0.31980047  0.40607996  1
  Tb  Tb13  1  0.00021340  0.18020666  0.09392322  1
  Tb  Tb14  1  0.49979066  0.68019953  0.90607996  1
  Tb  Tb15  1  0.99978660  0.81979334  0.59392322  1
  Tb  Tb16  1  0.81472889  0.51276023  0.75000000  1
  Tb  Tb17  1  0.31476844  0.98718052  0.75000000  1
  Tb  Tb18  1  0.18527111  0.48723977  0.25000000  1
  Tb  Tb19  1  0.68523156  0.01281948  0.25000000  1
  Pt  Pt0  1  0.68568343  0.96840215  0.45810241  1
  Pt  Pt1  1  0.18568645  0.53161802  0.04190842  1
  Pt  Pt2  1  0.31431657  0.03159785  0.95810241  1
  Pt  Pt3  1  0.81431355  0.46838198  0.54190842  1
  Pt  Pt4  1  0.31431657  0.03159785  0.54189759  1
  Pt  Pt5  1  0.81431355  0.46838198  0.95809158  1
  Pt  Pt6  1  0.68568343  0.96840215  0.04189759  1
  Pt  Pt7  1  0.18568645  0.53161802  0.45809158  1
  Pt  Pt8  1  0.44867084  0.38744978  0.75000000  1
  Pt  Pt9  1  0.94873119  0.11251272  0.75000000  1
  Pt  Pt10  1  0.55132916  0.61255022  0.25000000  1
  Pt  Pt11  1  0.05126881  0.88748728  0.25000000  1
  Pt  Pt12  1  0.68188910  0.85957461  0.75000000  1
  Pt  Pt13  1  0.18188996  0.64036761  0.75000000  1
  Pt  Pt14  1  0.31811090  0.14042539  0.25000000  1
  Pt  Pt15  1  0.81811004  0.35963239  0.25000000  1
loop_
_geom_bond_atom_site_label_1
_geom_bond_atom_site_label_2
_geom_bond_distance
_geom_bond_site_symmetry_2
Pt0 Tb3 2.835190 1_555
Pt0 Tb0 2.840940 1_565
Pt0 Tb11 2.955723 1_665
Pt0 Tb4 2.984617 1_555
Pt0 Tb19 3.058238 1_565
Pt0 Tb12 3.101171 1_565
Pt0 Tb8 3.264963 1_555
Pt0 Tb15 3.281777 1_555
Pt1 Tb2 2.834930 1_555
Pt1 Tb1 2.840950 1_554
Pt1 Tb10 2.955722 1_555
Pt1 Tb5 2.984474 1_455
Pt1 Tb18 3.058048 1_555
Pt1 Tb13 3.101188 1_555
Pt1 Tb9 3.265001 1_454
Pt1 Tb14 3.281753 1_554
Pt2 Tb1 2.835190 1_555
Pt2 Tb2 2.840940 1_546
Pt2 Tb9 2.955723 1_445
Pt2 Tb6 2.984617 1_555
Pt2 Tb17 3.058238 1_545
Pt2 Tb14 3.101171 1_545
Pt2 Tb10 3.264963 1_556
Pt2 Tb13 3.281777 1_556
Pt3 Tb0 2.834930 1_555
Pt3 Tb3 2.840950 1_555
Pt3 Tb8 2.955722 1_555
Pt3 Tb7 2.984474 1_655
Pt3 Tb16 3.058048 1_555
Pt3 Tb15 3.101188 1_555
Pt3 Tb11 3.265001 1_655
Pt3 Tb12 3.281753 1_555
Pt4 Tb7 2.835190 1_555
Pt4 Tb4 2.840940 1_545
Pt4 Tb15 2.955723 1_445
Pt4 Tb0 2.984617 1_555
Pt4 Tb17 3.058238 1_545
Pt4 Tb8 3.101171 1_545
Pt4 Tb12 3.264963 1_555
Pt4 Tb11 3.281777 1_555
Pt5 Tb6 2.834930 1_555
Pt5 Tb5 2.840950 1_556
Pt5 Tb14 2.955722 1_555
Pt5 Tb1 2.984474 1_655
Pt5 Tb16 3.058048 1_555
Pt5 Tb9 3.101188 1_555
Pt5 Tb13 3.265001 1_656
Pt5 Tb10 3.281753 1_556
Pt6 Tb5 2.835190 1_555
Pt6 Tb6 2.840940 1_564
Pt6 Tb13 2.955723 1_665
Pt6 Tb2 2.984617 1_555
Pt6 Tb19 3.058238 1_565
Pt6 Tb10 3.101171 1_565
Pt6 Tb14 3.264963 1_554
Pt6 Tb9 3.281777 1_554
Pt7 Tb4 2.834930 1_555
Pt7 Tb7 2.840950 1_555
Pt7 Tb12 2.955722 1_555
Pt7 Tb3 2.984474 1_455
Pt7 Tb18 3.058048 1_555
Pt7 Tb11 3.101188 1_555
Pt7 Tb15 3.265001 1_455
Pt7 Tb8 3.281753 1_555
Pt8 Tb16 2.908667 1_555
Pt8 Tb7 2.931523 1_555
Pt8 Tb1 2.931523 1_555
Pt8 Tb0 2.938503 1_555
Pt8 Tb6 2.938503 1_555
Pt8 Tb17 3.197306 1_545
Pt8 Tb14 3.205026 1_555
Pt8 Tb8 3.205026 1_555
Pt9 Tb17 2.908601 1_645
Pt9 Tb0 2.931867 1_555
Pt9 Tb6 2.931867 1_555
Pt9 Tb1 2.938592 1_655
Pt9 Tb7 2.938592 1_655
Pt9 Tb16 3.197415 1_555
Pt9 Tb9 3.204784 1_545
Pt9 Tb15 3.204784 1_545
Pt10 Pt15 2.773460 1_555
Pt10 Tb18 2.908667 1_555
Pt10 Tb3 2.931523 1_555
Pt10 Tb5 2.931523 1_555
Pt10 Tb2 2.938503 1_555
Pt10 Tb4 2.938503 1_555
Pt10 Tb19 3.197306 1_565
Pt10 Tb10 3.205026 1_555
Pt10 Tb12 3.205026 1_555
Pt11 Pt14 2.773855 1_565
Pt11 Tb19 2.908601 1_465
Pt11 Tb4 2.931867 1_555
Pt11 Tb2 2.931867 1_555
Pt11 Tb5 2.938592 1_455
Pt11 Tb3 2.938592 1_455
Pt11 Tb18 3.197415 1_555
Pt11 Tb11 3.204784 1_565
Pt11 Tb13 3.204784 1_565
Pt12 Pt9 2.773855 1_565
Pt12 Tb16 2.812627 1_555
Pt12 Tb17 2.921956 1_555
Pt12 Tb14 2.986212 1_555
Pt12 Tb8 2.986212 1_555
Pt12 Tb6 2.999083 1_565
Pt12 Tb0 2.999083 1_565
Pt12 Tb15 3.314806 1_555
Pt12 Tb9 3.314806 1_555
Pt13 Pt8 2.773460 1_555
Pt13 Tb17 2.812691 1_555
Pt13 Tb16 2.922217 1_455
Pt13 Tb9 2.986388 1_455
Pt13 Tb15 2.986388 1_455
Pt13 Tb7 2.998723 1_555
Pt13 Tb1 2.998723 1_555
Pt13 Tb8 3.314883 1_555
Pt13 Tb14 3.314883 1_555
Pt14 Tb18 2.812627 1_555
Pt14 Tb19 2.921956 1_555
Pt14 Tb12 2.986212 1_555
Pt14 Tb10 2.986212 1_555
Pt14 Tb4 2.999083 1_545
Pt14 Tb2 2.999083 1_545
Pt14 Tb11 3.314806 1_555
Pt14 Tb13 3.314806 1_555
Pt15 Tb19 2.812691 1_555
Pt15 Tb18 2.922217 1_655
Pt15 Tb13 2.986388 1_655
Pt15 Tb11 2.986388 1_655
Pt15 Tb5 2.998723 1_555
Pt15 Tb3 2.998723 1_555
Pt15 Tb10 3.314883 1_555
Pt15 Tb12 3.314883 1_555
