# generated using pymatgen
data_ErSnIr
_symmetry_space_group_name_H-M   'P 1'
_cell_length_a   7.41895193
_cell_length_b   7.41895193
_cell_length_c   3.90050795
_cell_angle_alpha   90.00000000
_cell_angle_beta   90.00000000
_cell_angle_gamma   119.99999349
_symmetry_Int_Tables_number   1
_chemical_formula_structural   ErSnIr
_chemical_formula_sum   'Er3 Sn3 Ir3'
_cell_volume   185.92463684
_cell_formula_units_Z   3
loop_
 _symmetry_equiv_pos_site_id
 _symmetry_equiv_pos_as_xyz
  1  'x, y, z'
loop_
 _atom_site_type_symbol
 _atom_site_label
 _atom_site_symmetry_multiplicity
 _atom_site_fract_x
 _atom_site_fract_y
 _atom_site_fract_z
 _atom_site_occupancy
  Er  Er0  1  0.40520882  0.40520882  0.50000000  1
  Er  Er1  1  0.59479118  0.00000000  0.50000000  1
  Er  Er2  1  0.00000000  0.59479118  0.50000000  1
  Sn  Sn0  1  0.73935702  0.73935702  0.00000000  1
  Sn  Sn1  1  0.26064298  0.00000000  0.00000000  1
  Sn  Sn2  1  0.00000000  0.26064298  -0.00000000  1
  Ir  Ir0  1  0.66666700  0.33333300  0.00000000  1
  Ir  Ir1  1  0.33333300  0.66666700  0.00000000  1
  Ir  Ir2  1  -0.00000000  0.00000000  0.50000000  1
loop_
_geom_bond_atom_site_label_1
_geom_bond_atom_site_label_2
_geom_bond_distance
_geom_bond_site_symmetry_2
Er0 Ir1 2.980740 1_556
Er0 Ir0 2.980740 1_555
Er0 Ir1 2.980740 1_555
Er0 Ir0 2.980740 1_556
Er0 Ir2 3.006225 1_555
Er0 Sn0 3.154216 1_556
Er0 Sn0 3.154216 1_555
Er0 Sn1 3.281301 1_555
Er0 Sn1 3.281301 1_556
Er0 Sn2 3.281301 1_556
Er0 Sn2 3.281301 1_555
Er1 Ir0 2.980734 1_556
Er1 Ir0 2.980734 1_555
Er1 Ir1 2.980736 1_545
Er1 Ir1 2.980736 1_546
Er1 Ir2 3.006225 1_655
Er1 Sn1 3.154216 1_555
Er1 Sn1 3.154216 1_556
Er1 Sn0 3.281301 1_546
Er1 Sn0 3.281301 1_545
Er1 Sn2 3.281301 1_655
Er1 Sn2 3.281301 1_656
Er2 Ir1 2.980734 1_555
Er2 Ir1 2.980734 1_556
Er2 Ir0 2.980736 1_456
Er2 Ir0 2.980736 1_455
Er2 Ir2 3.006225 1_565
Er2 Sn2 3.154216 1_555
Er2 Sn2 3.154216 1_556
Er2 Sn0 3.281301 1_456
Er2 Sn0 3.281301 1_455
Er2 Sn1 3.281301 1_565
Er2 Sn1 3.281301 1_566
Ir0 Sn2 2.782104 1_655
Ir0 Sn1 2.782109 1_555
Ir0 Sn0 2.782111 1_555
Ir1 Sn1 2.782104 1_565
Ir1 Sn2 2.782109 1_555
Ir1 Sn0 2.782111 1_555
Ir2 Sn1 2.746394 1_555
Ir2 Sn1 2.746394 1_556
Ir2 Sn2 2.746394 1_556
Ir2 Sn2 2.746394 1_555
Ir2 Sn0 2.746394 1_446
Ir2 Sn0 2.746394 1_445
