# generated using pymatgen
data_LaTlGeSe4
_symmetry_space_group_name_H-M   'P 1'
_cell_length_a   7.24108463
_cell_length_b   11.60909862
_cell_length_c   19.55947728
_cell_angle_alpha   90.00000000
_cell_angle_beta   90.00000000
_cell_angle_gamma   90.00000000
_symmetry_Int_Tables_number   1
_chemical_formula_structural   LaTlGeSe4
_chemical_formula_sum   'La8 Tl8 Ge8 Se32'
_cell_volume   1644.21788572
_cell_formula_units_Z   8
loop_
 _symmetry_equiv_pos_site_id
 _symmetry_equiv_pos_as_xyz
  1  'x, y, z'
loop_
 _atom_site_type_symbol
 _atom_site_label
 _atom_site_symmetry_multiplicity
 _atom_site_fract_x
 _atom_site_fract_y
 _atom_site_fract_z
 _atom_site_occupancy
  La  La0  1  0.77084622  0.39325374  0.43404242  1
  La  La1  1  0.72915378  0.89325374  0.56595758  1
  La  La2  1  0.27084622  0.60674626  0.06595758  1
  La  La3  1  0.22915378  0.10674626  0.93404242  1
  La  La4  1  0.22915378  0.60674626  0.56595758  1
  La  La5  1  0.27084622  0.10674626  0.43404242  1
  La  La6  1  0.72915378  0.39325374  0.93404242  1
  La  La7  1  0.77084622  0.89325374  0.06595758  1
  Tl  Tl0  1  0.83028197  0.24525843  0.19814796  1
  Tl  Tl1  1  0.66971803  0.74525843  0.80185204  1
  Tl  Tl2  1  0.33028197  0.75474157  0.30185204  1
  Tl  Tl3  1  0.16971803  0.25474157  0.69814796  1
  Tl  Tl4  1  0.16971803  0.75474157  0.80185204  1
  Tl  Tl5  1  0.33028197  0.25474157  0.19814796  1
  Tl  Tl6  1  0.66971803  0.24525843  0.69814796  1
  Tl  Tl7  1  0.83028197  0.74525843  0.30185204  1
  Ge  Ge0  1  0.78371987  0.55596402  0.11272754  1
  Ge  Ge1  1  0.71628013  0.05596402  0.88727246  1
  Ge  Ge2  1  0.28371987  0.44403598  0.38727246  1
  Ge  Ge3  1  0.21628013  0.94403598  0.61272754  1
  Ge  Ge4  1  0.21628013  0.44403598  0.88727246  1
  Ge  Ge5  1  0.28371987  0.94403598  0.11272754  1
  Ge  Ge6  1  0.71628013  0.55596402  0.61272754  1
  Ge  Ge7  1  0.78371987  0.05596402  0.38727246  1
  Se  Se0  1  0.09212406  0.29535082  0.34116281  1
  Se  Se1  1  0.40787594  0.79535082  0.65883719  1
  Se  Se2  1  0.59212406  0.70464918  0.15883719  1
  Se  Se3  1  0.90787594  0.20464918  0.84116281  1
  Se  Se4  1  0.90787594  0.70464918  0.65883719  1
  Se  Se5  1  0.59212406  0.20464918  0.34116281  1
  Se  Se6  1  0.40787594  0.29535082  0.84116281  1
  Se  Se7  1  0.09212406  0.79535082  0.15883719  1
  Se  Se8  1  0.07103824  0.09383120  0.08290986  1
  Se  Se9  1  0.42896176  0.59383120  0.91709014  1
  Se  Se10  1  0.57103824  0.90616880  0.41709014  1
  Se  Se11  1  0.92896176  0.40616880  0.58290986  1
  Se  Se12  1  0.92896176  0.90616880  0.91709014  1
  Se  Se13  1  0.57103824  0.40616880  0.08290986  1
  Se  Se14  1  0.42896176  0.09383120  0.58290986  1
  Se  Se15  1  0.07103824  0.59383120  0.41709014  1
  Se  Se16  1  0.87802802  0.14084246  0.49449754  1
  Se  Se17  1  0.62197198  0.64084246  0.50550246  1
  Se  Se18  1  0.37802802  0.85915754  0.00550246  1
  Se  Se19  1  0.12197198  0.35915754  0.99449754  1
  Se  Se20  1  0.12197198  0.85915754  0.50550246  1
  Se  Se21  1  0.37802802  0.35915754  0.49449754  1
  Se  Se22  1  0.62197198  0.14084246  0.99449754  1
  Se  Se23  1  0.87802802  0.64084246  0.00550246  1
  Se  Se24  1  0.03415481  0.49875304  0.18308721  1
  Se  Se25  1  0.46584519  0.99875304  0.81691279  1
  Se  Se26  1  0.53415481  0.50124696  0.31691279  1
  Se  Se27  1  0.96584519  0.00124696  0.68308721  1
  Se  Se28  1  0.96584519  0.50124696  0.81691279  1
  Se  Se29  1  0.53415481  0.00124696  0.18308721  1
  Se  Se30  1  0.46584519  0.49875304  0.68308721  1
  Se  Se31  1  0.03415481  0.99875304  0.31691279  1
loop_
_geom_bond_atom_site_label_1
_geom_bond_atom_site_label_2
_geom_bond_distance
_geom_bond_site_symmetry_2
La0 Se21 3.105752 1_555
La0 Se26 3.123762 1_555
La0 Se5 3.125565 1_555
La0 Se11 3.132370 1_555
La0 Se0 3.162946 1_655
La0 Se15 3.202656 1_655
La0 Se16 3.253775 1_555
La0 Se17 3.373015 1_555
La1 Se20 3.105752 1_655
La1 Se27 3.123762 1_565
La1 Se4 3.125565 1_555
La1 Se10 3.132370 1_555
La1 Se1 3.162946 1_555
La1 Se14 3.202656 1_565
La1 Se17 3.253775 1_555
La1 Se16 3.373015 1_565
La2 Se23 3.105752 1_455
La2 Se24 3.123762 1_555
La2 Se7 3.125565 1_555
La2 Se9 3.132370 1_554
La2 Se2 3.162946 1_555
La2 Se13 3.202656 1_555
La2 Se18 3.253775 1_555
La2 Se19 3.373015 1_554
La3 Se22 3.105752 1_555
La3 Se25 3.123762 1_545
La3 Se6 3.125565 1_555
La3 Se8 3.132370 1_556
La3 Se3 3.162946 1_455
La3 Se12 3.202656 1_445
La3 Se19 3.253775 1_555
La3 Se18 3.373015 1_546
La4 Se17 3.105752 1_555
La4 Se30 3.123762 1_555
La4 Se1 3.125565 1_555
La4 Se15 3.132370 1_555
La4 Se4 3.162946 1_455
La4 Se11 3.202656 1_455
La4 Se20 3.253775 1_555
La4 Se21 3.373015 1_555
La5 Se16 3.105752 1_455
La5 Se31 3.123762 1_545
La5 Se0 3.125565 1_555
La5 Se14 3.132370 1_555
La5 Se5 3.162946 1_555
La5 Se10 3.202656 1_545
La5 Se21 3.253775 1_555
La5 Se20 3.373015 1_545
La6 Se19 3.105752 1_655
La6 Se28 3.123762 1_555
La6 Se3 3.125565 1_555
La6 Se13 3.132370 1_556
La6 Se6 3.162946 1_555
La6 Se9 3.202656 1_555
La6 Se22 3.253775 1_555
La6 Se23 3.373015 1_556
La7 Se18 3.105752 1_555
La7 Se29 3.123762 1_565
La7 Se2 3.125565 1_555
La7 Se12 3.132370 1_554
La7 Se7 3.162946 1_655
La7 Se8 3.202656 1_665
La7 Se23 3.253775 1_555
La7 Se22 3.373015 1_564
Ge0 Se24 2.371399 1_655
Ge0 Se2 2.391147 1_555
Ge0 Se13 2.394987 1_555
Ge0 Se23 2.415742 1_555
Ge1 Se25 2.371399 1_545
Ge1 Se3 2.391147 1_555
Ge1 Se12 2.394987 1_545
Ge1 Se22 2.415742 1_555
Ge2 Se26 2.371399 1_555
Ge2 Se0 2.391147 1_555
Ge2 Se15 2.394987 1_555
Ge2 Se21 2.415742 1_555
Ge3 Se27 2.371399 1_465
Ge3 Se1 2.391147 1_555
Ge3 Se14 2.394987 1_565
Ge3 Se20 2.415742 1_555
Ge4 Se28 2.371399 1_455
Ge4 Se6 2.391147 1_555
Ge4 Se9 2.394987 1_555
Ge4 Se19 2.415742 1_555
Ge5 Se29 2.371399 1_565
Ge5 Se7 2.391147 1_555
Ge5 Se8 2.394987 1_565
Ge5 Se18 2.415742 1_555
Ge6 Se30 2.371399 1_555
Ge6 Se4 2.391147 1_555
Ge6 Se11 2.394987 1_555
Ge6 Se17 2.415742 1_555
Ge7 Se31 2.371399 1_645
Ge7 Se5 2.391147 1_555
Ge7 Se10 2.394987 1_545
Ge7 Se16 2.415742 1_555
Se0 Tl5 3.319803 1_555
Se1 Tl4 3.319803 1_555
Se2 Tl7 3.319803 1_555
Se3 Tl6 3.319803 1_555
Se4 Tl1 3.319803 1_555
Se5 Tl0 3.319803 1_555
Se6 Tl3 3.319803 1_555
Se7 Tl2 3.319803 1_555
Se8 Tl0 3.348142 1_455
Se9 Tl1 3.348142 1_555
Se10 Tl2 3.348142 1_555
Se11 Tl3 3.348142 1_655
Se12 Tl4 3.348142 1_655
Se13 Tl5 3.348142 1_555
Se14 Tl6 3.348142 1_555
Se15 Tl7 3.348142 1_455
Se24 Tl0 3.305519 1_455
Se25 Tl1 3.305519 1_555
Se26 Tl2 3.305519 1_555
Se27 Tl3 3.305519 1_655
Se28 Tl4 3.305519 1_655
Se29 Tl5 3.305519 1_555
Se30 Tl6 3.305519 1_555
Se31 Tl7 3.305519 1_455
