# generated using pymatgen
data_UMo5O16
_symmetry_space_group_name_H-M   'P 1'
_cell_length_a   4.15326100
_cell_length_b   14.77188209
_cell_length_c   12.40771181
_cell_angle_alpha   53.46809975
_cell_angle_beta   90.00000000
_cell_angle_gamma   90.00000000
_symmetry_Int_Tables_number   1
_chemical_formula_structural   UMo5O16
_chemical_formula_sum   'U2 Mo10 O32'
_cell_volume   611.66897153
_cell_formula_units_Z   2
loop_
 _symmetry_equiv_pos_site_id
 _symmetry_equiv_pos_as_xyz
  1  'x, y, z'
loop_
 _atom_site_type_symbol
 _atom_site_label
 _atom_site_symmetry_multiplicity
 _atom_site_fract_x
 _atom_site_fract_y
 _atom_site_fract_z
 _atom_site_occupancy
  U  U0  1  0.00000000  0.00168200  0.99663700  1
  U  U1  1  0.00000000  0.49831800  0.00336300  1
  Mo  Mo0  1  0.09364200  0.25000000  0.00000000  1
  Mo  Mo1  1  0.09224400  0.03422500  0.68357900  1
  Mo  Mo2  1  0.09224400  0.46577500  0.31642100  1
  Mo  Mo3  1  0.08841600  0.53409700  0.68123000  1
  Mo  Mo4  1  0.08841600  0.96590300  0.31877000  1
  Mo  Mo5  1  0.90775600  0.21780400  0.31642100  1
  Mo  Mo6  1  0.90775600  0.28219600  0.68357900  1
  Mo  Mo7  1  0.91158400  0.71532700  0.31877000  1
  Mo  Mo8  1  0.91158400  0.78467300  0.68123000  1
  Mo  Mo9  1  0.90635800  0.75000000  0.00000000  1
  O  O0  1  0.00922000  0.06994700  0.35100700  1
  O  O1  1  0.00000000  0.37880700  0.24238500  1
  O  O2  1  0.00000000  0.33978600  0.50000000  1
  O  O3  1  0.99078000  0.57904600  0.35100700  1
  O  O4  1  0.00000000  0.87586900  0.24826300  1
  O  O5  1  0.00000000  0.83952600  0.50000000  1
  O  O6  1  0.00100500  0.29654100  0.11910100  1
  O  O7  1  0.99016900  0.79347800  0.12519100  1
  O  O8  1  0.00100500  0.20345900  0.88089900  1
  O  O9  1  0.99016900  0.70652200  0.87480900  1
  O  O10  1  0.51074000  0.03109900  0.68418900  1
  O  O11  1  0.51074000  0.46890100  0.31581100  1
  O  O12  1  0.50673600  0.96339600  0.31884300  1
  O  O13  1  0.50673600  0.53660400  0.68115700  1
  O  O14  1  0.50000000  0.00074600  0.99850900  1
  O  O15  1  0.51357600  0.25000000  0.00000000  1
  O  O16  1  0.50000000  0.49925400  0.00149100  1
  O  O17  1  0.48642400  0.75000000  0.00000000  1
  O  O18  1  0.48926000  0.21528800  0.31581100  1
  O  O19  1  0.48926000  0.28471200  0.68418900  1
  O  O20  1  0.49326400  0.71776100  0.31884300  1
  O  O21  1  0.49326400  0.78223900  0.68115700  1
  O  O22  1  0.00983100  0.08133100  0.12519100  1
  O  O23  1  0.99899500  0.58435800  0.11910100  1
  O  O24  1  0.00983100  0.41866900  0.87480900  1
  O  O25  1  0.99899500  0.91564200  0.88089900  1
  O  O26  1  0.00000000  0.16021400  0.50000000  1
  O  O27  1  0.00000000  0.12119300  0.75761500  1
  O  O28  1  0.00922000  0.43005300  0.64899300  1
  O  O29  1  0.00000000  0.66047400  0.50000000  1
  O  O30  1  0.00000000  0.62413100  0.75173700  1
  O  O31  1  0.99078000  0.92095400  0.64899300  1
loop_
_geom_bond_atom_site_label_1
_geom_bond_atom_site_label_2
_geom_bond_distance
_geom_bond_site_symmetry_2
Mo0 O15 1.744096 1_555
Mo0 O6 2.003506 1_555
Mo0 O8 2.003506 1_554
Mo0 O22 2.033278 1_555
Mo0 O24 2.033278 1_554
Mo0 O15 2.409165 1_455
Mo1 O10 1.738633 1_555
Mo1 O26 1.936974 1_555
Mo1 O31 2.004065 1_445
Mo1 O27 2.011475 1_555
Mo1 O25 2.026507 1_445
Mo1 O10 2.415505 1_455
Mo2 O11 1.738633 1_555
Mo2 O2 1.936974 1_555
Mo2 O3 2.004065 1_455
Mo2 O1 2.011475 1_555
Mo2 O23 2.026507 1_455
Mo2 O11 2.415505 1_455
Mo3 O13 1.737776 1_555
Mo3 O28 1.833632 1_555
Mo3 O29 1.917972 1_555
Mo3 O24 1.976638 1_555
Mo3 O30 2.013503 1_555
Mo3 O13 2.416145 1_455
Mo4 O12 1.737776 1_555
Mo4 O0 1.833632 1_565
Mo4 O5 1.917972 1_555
Mo4 O22 1.976638 1_565
Mo4 O4 2.013503 1_555
Mo4 O12 2.416145 1_455
Mo5 O18 1.738633 1_555
Mo5 O26 1.936975 1_655
Mo5 O0 2.004065 1_655
Mo5 O1 2.011462 1_655
Mo5 O6 2.026507 1_655
Mo5 O18 2.415505 1_655
Mo6 O19 1.738633 1_555
Mo6 O2 1.936975 1_655
Mo6 O28 2.004065 1_655
Mo6 O27 2.011462 1_655
Mo6 O8 2.026507 1_655
Mo6 O19 2.415505 1_655
Mo7 O20 1.737776 1_555
Mo7 O3 1.833632 1_555
Mo7 O29 1.917972 1_655
Mo7 O7 1.976638 1_555
Mo7 O4 2.013516 1_655
Mo7 O20 2.416145 1_655
Mo8 O21 1.737776 1_555
Mo8 O31 1.833632 1_555
Mo8 O5 1.917972 1_655
Mo8 O9 1.976638 1_555
Mo8 O30 2.013516 1_655
Mo8 O21 2.416145 1_655
Mo9 O17 1.744096 1_555
Mo9 O23 2.003506 1_555
Mo9 O25 2.003506 1_554
Mo9 O7 2.033278 1_555
Mo9 O9 2.033278 1_554
Mo9 O17 2.409165 1_655
O1 U1 2.383029 1_555
O4 U0 2.508689 1_564
O6 U1 2.418778 1_555
O7 U0 2.482848 1_664
O8 U0 2.418778 1_555
O9 U1 2.482848 1_656
O14 U0 2.076714 1_555
O14 U0 2.076714 1_655
O16 U1 2.076714 1_655
O16 U1 2.076714 1_555
O22 U0 2.482836 1_554
O23 U1 2.418792 1_655
O24 U1 2.482836 1_556
O25 U0 2.418792 1_665
O27 U0 2.383029 1_555
O30 U1 2.508689 1_556
