# generated using pymatgen
data_Fe2NF6
_symmetry_space_group_name_H-M   'P 1'
_cell_length_a   7.26262800
_cell_length_b   7.43816700
_cell_length_c   10.20777800
_cell_angle_alpha   90.00000000
_cell_angle_beta   90.00000000
_cell_angle_gamma   90.00000000
_symmetry_Int_Tables_number   1
_chemical_formula_structural   Fe2NF6
_chemical_formula_sum   'Fe8 N4 F24'
_cell_volume   551.43069975
_cell_formula_units_Z   4
loop_
 _symmetry_equiv_pos_site_id
 _symmetry_equiv_pos_as_xyz
  1  'x, y, z'
loop_
 _atom_site_type_symbol
 _atom_site_label
 _atom_site_symmetry_multiplicity
 _atom_site_fract_x
 _atom_site_fract_y
 _atom_site_fract_z
 _atom_site_occupancy
  Fe  Fe0  1  0.69551300  0.25000000  0.22231500  1
  Fe  Fe1  1  0.19551300  0.25000000  0.27768500  1
  Fe  Fe2  1  0.30448700  0.75000000  0.77768500  1
  Fe  Fe3  1  0.80448700  0.75000000  0.72231500  1
  Fe  Fe4  1  0.50000000  0.00000000  0.50000000  1
  Fe  Fe5  1  0.00000000  0.50000000  0.00000000  1
  Fe  Fe6  1  0.50000000  0.50000000  0.50000000  1
  Fe  Fe7  1  0.00000000  0.00000000  0.00000000  1
  N  N0  1  0.50992500  0.25000000  0.87180900  1
  N  N1  1  0.00992500  0.25000000  0.62819100  1
  N  N2  1  0.49007500  0.75000000  0.12819100  1
  N  N3  1  0.99007500  0.75000000  0.37180900  1
  F  F0  1  0.43285800  0.25000000  0.18120900  1
  F  F1  1  0.93285800  0.25000000  0.31879100  1
  F  F2  1  0.56714200  0.75000000  0.81879100  1
  F  F3  1  0.06714200  0.75000000  0.68120900  1
  F  F4  1  0.54254100  0.25000000  0.55289700  1
  F  F5  1  0.04254100  0.25000000  0.94710300  1
  F  F6  1  0.45745900  0.75000000  0.44710300  1
  F  F7  1  0.95745900  0.75000000  0.05289700  1
  F  F8  1  0.63465900  0.45251000  0.33915400  1
  F  F9  1  0.13465900  0.04749000  0.16084600  1
  F  F10  1  0.36534100  0.95251000  0.66084600  1
  F  F11  1  0.86534100  0.54749000  0.83915400  1
  F  F12  1  0.36534100  0.54749000  0.66084600  1
  F  F13  1  0.86534100  0.95251000  0.83915400  1
  F  F14  1  0.63465900  0.04749000  0.33915400  1
  F  F15  1  0.13465900  0.45251000  0.16084600  1
  F  F16  1  0.27155000  0.42741700  0.40891400  1
  F  F17  1  0.77155000  0.07258300  0.09108600  1
  F  F18  1  0.72845000  0.92741700  0.59108600  1
  F  F19  1  0.22845000  0.57258300  0.90891400  1
  F  F20  1  0.72845000  0.57258300  0.59108600  1
  F  F21  1  0.22845000  0.92741700  0.90891400  1
  F  F22  1  0.27155000  0.07258300  0.40891400  1
  F  F23  1  0.77155000  0.42741700  0.09108600  1
loop_
_geom_bond_atom_site_label_1
_geom_bond_atom_site_label_2
_geom_bond_distance
_geom_bond_site_symmetry_2
F0 Fe0 1.953170 1_555
F0 Fe1 1.985233 1_555
F1 Fe1 1.953170 1_655
F1 Fe0 1.985233 1_555
F2 Fe2 1.953170 1_555
F2 Fe3 1.985233 1_555
F3 Fe3 1.953170 1_455
F3 Fe2 1.985233 1_555
F4 Fe4 1.960844 1_555
F4 Fe6 1.960844 1_555
F5 Fe7 1.960844 1_556
F5 Fe5 1.960844 1_556
F6 Fe6 1.960844 1_555
F6 Fe4 1.960844 1_565
F7 Fe5 1.960844 1_655
F7 Fe7 1.960844 1_665
F8 Fe6 1.943448 1_555
F8 Fe0 1.971480 1_555
F9 Fe7 1.943448 1_555
F9 Fe1 1.971480 1_555
F10 Fe4 1.943448 1_565
F10 Fe2 1.971480 1_555
F11 Fe5 1.943448 1_656
F11 Fe3 1.971480 1_555
F12 Fe6 1.943448 1_555
F12 Fe2 1.971480 1_555
F13 Fe7 1.943448 1_666
F13 Fe3 1.971480 1_555
F14 Fe4 1.943448 1_555
F14 Fe0 1.971480 1_555
F15 Fe5 1.943448 1_555
F15 Fe1 1.971480 1_555
F16 Fe1 1.959812 1_555
F16 Fe6 1.977055 1_555
F17 Fe0 1.959812 1_555
F17 Fe7 1.977055 1_655
F18 Fe3 1.959812 1_555
F18 Fe4 1.977055 1_565
F19 Fe2 1.959812 1_555
F19 Fe5 1.977055 1_556
F20 Fe3 1.959812 1_555
F20 Fe6 1.977055 1_555
F21 Fe2 1.959812 1_555
F21 Fe7 1.977055 1_566
F22 Fe1 1.959812 1_555
F22 Fe4 1.977055 1_555
F23 Fe0 1.959812 1_555
F23 Fe5 1.977055 1_655
