# generated using pymatgen
data_Cs4AsH5Se3O16
_symmetry_space_group_name_H-M   'P 1'
_cell_length_a   13.92322000
_cell_length_b   6.17324000
_cell_length_c   12.21672700
_cell_angle_alpha   84.70326054
_cell_angle_beta   90.00000000
_cell_angle_gamma   90.00000000
_symmetry_Int_Tables_number   1
_chemical_formula_structural   Cs4AsH5Se3O16
_chemical_formula_sum   'Cs8 As2 H10 Se6 O32'
_cell_volume   1045.56078841
_cell_formula_units_Z   2
loop_
 _symmetry_equiv_pos_site_id
 _symmetry_equiv_pos_as_xyz
  1  'x, y, z'
loop_
 _atom_site_type_symbol
 _atom_site_label
 _atom_site_symmetry_multiplicity
 _atom_site_fract_x
 _atom_site_fract_y
 _atom_site_fract_z
 _atom_site_occupancy
  Cs  Cs0  1  0.17103400  0.29854000  0.90193000  1
  Cs  Cs1  1  0.67103400  0.70146000  0.09807000  1
  Cs  Cs2  1  0.44781200  0.20420600  0.08700800  1
  Cs  Cs3  1  0.94781200  0.79579400  0.91299200  1
  Cs  Cs4  1  0.42264000  0.26679100  0.64153300  1
  Cs  Cs5  1  0.92264000  0.73320900  0.35846700  1
  Cs  Cs6  1  0.69038400  0.77481300  0.64569800  1
  Cs  Cs7  1  0.19038400  0.22518700  0.35430200  1
  As  As0  1  0.44285200  0.76093900  0.36523900  1
  As  As1  1  0.94285200  0.23906100  0.63476100  1
  H  H0  1  0.27154900  0.85643100  0.81683400  1
  H  H1  1  0.77154900  0.14356900  0.18316600  1
  H  H2  1  0.34947000  0.63703000  0.18334000  1
  H  H3  1  0.84947000  0.36297000  0.81666000  1
  H  H4  1  0.59781000  0.64075500  0.41452800  1
  H  H5  1  0.09781000  0.35924500  0.58547200  1
  H  H6  1  0.48563700  0.11456600  0.38810500  1
  H  H7  1  0.98563700  0.88543400  0.61189500  1
  H  H8  1  0.31011700  0.72908800  0.48428700  1
  H  H9  1  0.81011700  0.27091200  0.51571300  1
  Se  Se0  1  0.17075900  0.73130400  0.62963800  1
  Se  Se1  1  0.67075900  0.26869600  0.37036200  1
  Se  Se2  1  0.42555200  0.72237500  0.85395700  1
  Se  Se3  1  0.92555200  0.27762500  0.14604300  1
  Se  Se4  1  0.19532900  0.77472900  0.14146900  1
  Se  Se5  1  0.69532900  0.22527100  0.85853100  1
  O  O0  1  0.25939400  0.86861800  0.56058600  1
  O  O1  1  0.75939400  0.13138200  0.43941400  1
  O  O2  1  0.06662100  0.78414400  0.56364500  1
  O  O3  1  0.56662100  0.21585600  0.43635500  1
  O  O4  1  0.16650300  0.80299700  0.75852700  1
  O  O5  1  0.66650300  0.19700300  0.24147300  1
  O  O6  1  0.19052500  0.46153200  0.62981700  1
  O  O7  1  0.69052500  0.53846800  0.37018300  1
  O  O8  1  0.37644000  0.47657100  0.86651200  1
  O  O9  1  0.87644000  0.52342900  0.13348800  1
  O  O10  1  0.47794000  0.77825800  0.73314000  1
  O  O11  1  0.97794000  0.22174200  0.26686000  1
  O  O12  1  0.49096800  0.77755500  0.96040000  1
  O  O13  1  0.99096800  0.22244500  0.03960000  1
  O  O14  1  0.32881600  0.91435900  0.85687600  1
  O  O15  1  0.82881600  0.08564100  0.14312400  1
  O  O16  1  0.24888400  0.01611100  0.13785600  1
  O  O17  1  0.74888400  0.98388900  0.86214400  1
  O  O18  1  0.13022400  0.72114600  0.25375700  1
  O  O19  1  0.63022400  0.27885400  0.74624300  1
  O  O20  1  0.14019700  0.72978300  0.02644700  1
  O  O21  1  0.64019700  0.27021700  0.97355300  1
  O  O22  1  0.28943500  0.57498200  0.14978700  1
  O  O23  1  0.78943500  0.42501800  0.85021300  1
  O  O24  1  0.45573600  0.67786100  0.23897600  1
  O  O25  1  0.95573600  0.32213900  0.76102400  1
  O  O26  1  0.54136400  0.71198000  0.45281200  1
  O  O27  1  0.04136400  0.28802000  0.54718800  1
  O  O28  1  0.42133500  0.04073100  0.36463900  1
  O  O29  1  0.92133500  0.95926900  0.63536100  1
  O  O30  1  0.34391500  0.63235600  0.42983900  1
  O  O31  1  0.84391500  0.36764400  0.57016100  1
loop_
_geom_bond_atom_site_label_1
_geom_bond_atom_site_label_2
_geom_bond_distance
_geom_bond_site_symmetry_2
Cs0 O13 3.031345 1_456
Cs0 O8 3.079998 1_555
Cs0 O20 3.214525 1_556
Cs0 O14 3.315829 1_545
Cs0 H0 3.318427 1_545
Cs0 O6 3.394064 1_555
Cs0 O16 3.405029 1_556
Cs0 O4 3.429832 1_555
Cs0 O25 3.453119 1_455
Cs0 O4 3.663440 1_545
Cs0 O20 3.720201 1_546
Cs1 O12 3.031345 1_554
Cs1 O9 3.079998 1_555
Cs1 O21 3.214525 1_554
Cs1 O15 3.315829 1_565
Cs1 H1 3.318427 1_565
Cs1 O7 3.394064 1_555
Cs1 O17 3.405029 1_554
Cs1 O5 3.429832 1_555
Cs1 O24 3.453119 1_555
Cs1 O5 3.663440 1_565
Cs1 O21 3.720201 1_564
Cs2 O21 3.026203 1_554
Cs2 O16 3.045051 1_555
Cs2 O8 3.199146 1_554
Cs2 O12 3.231498 1_544
Cs3 O20 3.026203 1_656
Cs3 O17 3.045051 1_555
Cs3 O9 3.199146 1_556
Cs3 O13 3.231498 1_566
Cs4 O19 3.164332 1_555
Cs4 O8 3.209721 1_555
Cs4 O10 3.212070 1_545
Cs4 O3 3.247489 1_555
Cs4 O6 3.446508 1_555
Cs4 O30 3.450384 1_555
Cs4 O14 3.507739 1_545
Cs4 O10 3.530853 1_555
Cs4 O0 3.554531 1_545
Cs5 O18 3.164332 1_655
Cs5 O9 3.209721 1_555
Cs5 O11 3.212070 1_565
Cs5 O2 3.247489 1_655
Cs5 O7 3.446508 1_555
Cs5 O31 3.450384 1_555
Cs5 O15 3.507739 1_565
Cs5 O11 3.530853 1_555
Cs5 O1 3.554531 1_565
Cs6 O10 3.145634 1_555
Cs6 O17 3.154600 1_555
Cs6 O26 3.190133 1_555
Cs6 H4 3.279252 1_555
Cs6 O19 3.299987 1_555
Cs6 O1 3.330952 1_565
Cs6 O29 3.409689 1_555
Cs6 O23 3.436747 1_555
Cs6 O31 3.488168 1_555
Cs6 O19 3.549352 1_565
Cs7 O11 3.145634 1_455
Cs7 O16 3.154600 1_555
Cs7 O27 3.190133 1_555
Cs7 H5 3.279252 1_555
Cs7 O18 3.299987 1_555
Cs7 O0 3.330952 1_545
Cs7 O28 3.409689 1_555
Cs7 O22 3.436747 1_555
Cs7 O30 3.488168 1_555
Cs7 O18 3.549352 1_545
As0 O24 1.679474 1_555
As0 O30 1.742074 1_555
As0 O26 1.748581 1_555
As0 O28 1.752361 1_565
As1 O25 1.679474 1_555
As1 O31 1.742074 1_555
As1 O27 1.748581 1_655
As1 O29 1.752361 1_545
H0 O14 1.017462 1_555
H0 O4 1.672939 1_555
H1 O15 1.017462 1_555
H1 O5 1.672939 1_555
H2 O22 1.020993 1_555
H2 O24 1.657183 1_555
H3 O23 1.020993 1_555
H3 O25 1.657183 1_555
H4 O26 1.033294 1_555
H4 O7 1.556204 1_555
H5 O27 1.033294 1_555
H5 O6 1.556204 1_555
H6 O28 1.056224 1_555
H6 O3 1.441486 1_555
H7 O29 1.056224 1_555
H7 O2 1.441486 1_655
H8 O30 1.045861 1_555
H8 O0 1.502590 1_555
H9 O31 1.045861 1_555
H9 O1 1.502590 1_555
O0 Se0 1.679622 1_555
O1 Se1 1.679622 1_555
O2 Se0 1.676351 1_555
O3 Se1 1.676351 1_555
O4 Se0 1.675536 1_555
O5 Se1 1.675536 1_555
O6 Se0 1.687756 1_555
O7 Se1 1.687756 1_555
O8 Se2 1.658511 1_555
O9 Se3 1.658511 1_555
O10 Se2 1.653959 1_555
O11 Se3 1.653959 1_555
O12 Se2 1.648751 1_555
O13 Se3 1.648751 1_555
O14 Se2 1.796598 1_555
O15 Se3 1.796598 1_555
O16 Se4 1.663200 1_545
O17 Se5 1.663200 1_565
O18 Se4 1.652011 1_555
O19 Se5 1.652011 1_555
O20 Se4 1.647048 1_555
O21 Se5 1.647048 1_555
O22 Se4 1.795681 1_555
O23 Se5 1.795681 1_555
