# generated using pymatgen
data_Y2V3(SiO4)3
_symmetry_space_group_name_H-M   'P 1'
_cell_length_a   10.78890464
_cell_length_b   10.78890464
_cell_length_c   10.78890464
_cell_angle_alpha   109.47122063
_cell_angle_beta   109.47122063
_cell_angle_gamma   109.47122063
_symmetry_Int_Tables_number   1
_chemical_formula_structural   Y2V3(SiO4)3
_chemical_formula_sum   'Y8 V12 Si12 O48'
_cell_volume   966.74107907
_cell_formula_units_Z   4
loop_
 _symmetry_equiv_pos_site_id
 _symmetry_equiv_pos_as_xyz
  1  'x, y, z'
loop_
 _atom_site_type_symbol
 _atom_site_label
 _atom_site_symmetry_multiplicity
 _atom_site_fract_x
 _atom_site_fract_y
 _atom_site_fract_z
 _atom_site_occupancy
  Y  Y0  1  0.00000000  0.00000000  0.50000000  1
  Y  Y1  1  0.00000000  0.00000000  0.00000000  1
  Y  Y2  1  0.50000000  0.00000000  0.00000000  1
  Y  Y3  1  0.00000000  0.50000000  0.00000000  1
  Y  Y4  1  0.50000000  0.50000000  0.00000000  1
  Y  Y5  1  0.00000000  0.50000000  0.50000000  1
  Y  Y6  1  0.50000000  0.00000000  0.50000000  1
  Y  Y7  1  0.50000000  0.50000000  0.50000000  1
  V  V0  1  0.87500000  0.62500000  0.25000000  1
  V  V1  1  0.62500000  0.25000000  0.87500000  1
  V  V2  1  0.87500000  0.75000000  0.62500000  1
  V  V3  1  0.75000000  0.62500000  0.87500000  1
  V  V4  1  0.25000000  0.87500000  0.62500000  1
  V  V5  1  0.62500000  0.87500000  0.75000000  1
  V  V6  1  0.12500000  0.37500000  0.75000000  1
  V  V7  1  0.37500000  0.75000000  0.12500000  1
  V  V8  1  0.12500000  0.25000000  0.37500000  1
  V  V9  1  0.25000000  0.37500000  0.12500000  1
  V  V10  1  0.75000000  0.12500000  0.37500000  1
  V  V11  1  0.37500000  0.12500000  0.25000000  1
  Si  Si0  1  0.12500000  0.87500000  0.25000000  1
  Si  Si1  1  0.25000000  0.12500000  0.87500000  1
  Si  Si2  1  0.75000000  0.37500000  0.62500000  1
  Si  Si3  1  0.62500000  0.37500000  0.25000000  1
  Si  Si4  1  0.62500000  0.75000000  0.37500000  1
  Si  Si5  1  0.37500000  0.62500000  0.75000000  1
  Si  Si6  1  0.12500000  0.75000000  0.87500000  1
  Si  Si7  1  0.75000000  0.87500000  0.12500000  1
  Si  Si8  1  0.87500000  0.25000000  0.12500000  1
  Si  Si9  1  0.37500000  0.25000000  0.62500000  1
  Si  Si10  1  0.25000000  0.62500000  0.37500000  1
  Si  Si11  1  0.87500000  0.12500000  0.75000000  1
  O  O0  1  0.48144200  0.37152000  0.27702200  1
  O  O1  1  0.29558100  0.89007800  0.01855800  1
  O  O2  1  0.60992200  0.90550300  0.12848000  1
  O  O3  1  0.59449700  0.20441900  0.22297800  1
  O  O4  1  0.12848000  0.01855800  0.22297800  1
  O  O5  1  0.20441900  0.22297800  0.59449700  1
  O  O6  1  0.20441900  0.48144200  0.60992200  1
  O  O7  1  0.22297800  0.59449700  0.20441900  1
  O  O8  1  0.37152000  0.59449700  0.89007800  1
  O  O9  1  0.90550300  0.27702200  0.29558100  1
  O  O10  1  0.27702200  0.29558100  0.90550300  1
  O  O11  1  0.22297800  0.12848000  0.01855800  1
  O  O12  1  0.48144200  0.60992200  0.20441900  1
  O  O13  1  0.89007800  0.37152000  0.59449700  1
  O  O14  1  0.01855800  0.22297800  0.12848000  1
  O  O15  1  0.60992200  0.20441900  0.48144200  1
  O  O16  1  0.59449700  0.89007800  0.37152000  1
  O  O17  1  0.01855800  0.29558100  0.89007800  1
  O  O18  1  0.90550300  0.12848000  0.60992200  1
  O  O19  1  0.62848000  0.40550300  0.10992200  1
  O  O20  1  0.37152000  0.27702200  0.48144200  1
  O  O21  1  0.27702200  0.48144200  0.37152000  1
  O  O22  1  0.89007800  0.01855800  0.29558100  1
  O  O23  1  0.29558100  0.90550300  0.27702200  1
  O  O24  1  0.51855800  0.62848000  0.72297800  1
  O  O25  1  0.70441900  0.10992200  0.98144200  1
  O  O26  1  0.39007800  0.09449700  0.87152000  1
  O  O27  1  0.40550300  0.79558100  0.77702200  1
  O  O28  1  0.87152000  0.98144200  0.77702200  1
  O  O29  1  0.79558100  0.77702200  0.40550300  1
  O  O30  1  0.79558100  0.51855800  0.39007800  1
  O  O31  1  0.77702200  0.40550300  0.79558100  1
  O  O32  1  0.70441900  0.09449700  0.72297800  1
  O  O33  1  0.10992200  0.98144200  0.70441900  1
  O  O34  1  0.72297800  0.51855800  0.62848000  1
  O  O35  1  0.62848000  0.72297800  0.51855800  1
  O  O36  1  0.87152000  0.39007800  0.09449700  1
  O  O37  1  0.09449700  0.87152000  0.39007800  1
  O  O38  1  0.98144200  0.70441900  0.10992200  1
  O  O39  1  0.40550300  0.10992200  0.62848000  1
  O  O40  1  0.39007800  0.79558100  0.51855800  1
  O  O41  1  0.98144200  0.77702200  0.87152000  1
  O  O42  1  0.10992200  0.62848000  0.40550300  1
  O  O43  1  0.51855800  0.39007800  0.79558100  1
  O  O44  1  0.77702200  0.87152000  0.98144200  1
  O  O45  1  0.72297800  0.70441900  0.09449700  1
  O  O46  1  0.09449700  0.72297800  0.70441900  1
  O  O47  1  0.12848000  0.60992200  0.90550300  1
loop_
_geom_bond_atom_site_label_1
_geom_bond_atom_site_label_2
_geom_bond_distance
_geom_bond_site_symmetry_2
O0 Si3 1.659773 1_555
O0 Y7 2.240449 1_555
O0 V11 2.387746 1_555
O0 V9 2.509937 1_555
O1 Si6 1.659779 1_554
O1 Y2 2.240440 1_565
O1 V7 2.387742 1_555
O1 V11 2.509941 1_565
O2 Si7 1.659779 1_555
O2 Y2 2.240440 1_565
O2 V10 2.387742 1_565
O2 V7 2.509941 1_555
O3 Si3 1.659782 1_555
O3 Y2 2.240447 1_555
O3 V11 2.387736 1_555
O3 V10 2.509935 1_555
O4 Si0 1.659773 1_545
O4 Y1 2.240449 1_555
O4 V11 2.387746 1_555
O4 V8 2.509937 1_555
O5 Si9 1.659782 1_555
O5 Y0 2.240447 1_555
O5 V8 2.387736 1_555
O5 V6 2.509935 1_555
O6 Si5 1.659779 1_555
O6 Y5 2.240440 1_555
O6 V6 2.387742 1_555
O6 V8 2.509941 1_555
O7 Si10 1.659782 1_555
O7 Y3 2.240447 1_555
O7 V9 2.387736 1_555
O7 V7 2.509935 1_555
O8 Si5 1.659779 1_555
O8 Y4 2.240440 1_556
O8 V6 2.387742 1_555
O8 V7 2.509941 1_556
O9 Si8 1.659782 1_555
O9 Y5 2.240447 1_655
O9 V8 2.387736 1_655
O9 V10 2.509935 1_555
O10 Si1 1.659782 1_555
O10 Y4 2.240447 1_556
O10 V9 2.387736 1_556
O10 V6 2.509935 1_555
O11 Si1 1.659773 1_554
O11 Y1 2.240449 1_555
O11 V9 2.387746 1_555
O11 V11 2.509937 1_555
O12 Si4 1.659779 1_555
O12 Y4 2.240440 1_555
O12 V7 2.387742 1_555
O12 V9 2.509941 1_555
O13 Si2 1.659779 1_555
O13 Y5 2.240440 1_655
O13 V10 2.387742 1_555
O13 V6 2.509941 1_655
O14 Si8 1.659773 1_455
O14 Y1 2.240449 1_555
O14 V8 2.387746 1_555
O14 V9 2.509937 1_555
O15 Si2 1.659779 1_555
O15 Y6 2.240440 1_555
O15 V10 2.387742 1_555
O15 V11 2.509941 1_555
O16 Si4 1.659779 1_555
O16 Y6 2.240440 1_565
O16 V7 2.387742 1_555
O16 V10 2.509941 1_565
O17 Si11 1.659779 1_455
O17 Y3 2.240440 1_556
O17 V6 2.387742 1_555
O17 V9 2.509941 1_556
O18 Si11 1.659779 1_555
O18 Y0 2.240440 1_655
O18 V6 2.387742 1_655
O18 V10 2.509941 1_555
O19 Si3 1.659779 1_555
O19 Y4 2.240440 1_555
O19 V0 2.387742 1_555
O19 V1 2.509941 1_554
O20 Si9 1.659773 1_555
O20 Y7 2.240449 1_555
O20 V8 2.387746 1_555
O20 V11 2.509937 1_555
O21 Si10 1.659773 1_555
O21 Y7 2.240449 1_555
O21 V9 2.387746 1_555
O21 V8 2.509937 1_555
O22 Si7 1.659779 1_545
O22 Y0 2.240440 1_655
O22 V10 2.387742 1_555
O22 V8 2.509941 1_655
O23 Si0 1.659782 1_555
O23 Y6 2.240447 1_565
O23 V11 2.387736 1_565
O23 V7 2.509935 1_555
O24 Si5 1.659773 1_555
O24 Y7 2.240449 1_555
O24 V5 2.387746 1_555
O24 V3 2.509937 1_555
O25 Si8 1.659779 1_556
O25 Y2 2.240440 1_556
O25 V1 2.387742 1_555
O25 V5 2.509941 1_545
O26 Si1 1.659779 1_555
O26 Y2 2.240440 1_556
O26 V4 2.387742 1_545
O26 V1 2.509941 1_555
O27 Si5 1.659782 1_555
O27 Y2 2.240447 1_566
O27 V5 2.387736 1_555
O27 V4 2.509935 1_555
O28 Si11 1.659773 1_565
O28 Y1 2.240449 1_666
O28 V5 2.387746 1_555
O28 V2 2.509937 1_555
O29 Si4 1.659782 1_555
O29 Y0 2.240447 1_665
O29 V2 2.387736 1_555
O29 V0 2.509935 1_555
O30 Si3 1.659779 1_555
O30 Y5 2.240440 1_655
O30 V0 2.387742 1_555
O30 V2 2.509941 1_555
O31 Si2 1.659782 1_555
O31 Y3 2.240447 1_656
O31 V3 2.387736 1_555
O31 V1 2.509935 1_555
O32 Si11 1.659782 1_555
O32 Y6 2.240447 1_555
O32 V5 2.387736 1_545
O32 V1 2.509935 1_555
O33 Si1 1.659779 1_565
O33 Y0 2.240440 1_565
O33 V4 2.387742 1_555
O33 V2 2.509941 1_455
O34 Si2 1.659773 1_555
O34 Y7 2.240449 1_555
O34 V3 2.387746 1_555
O34 V2 2.509937 1_555
O35 Si4 1.659773 1_555
O35 Y7 2.240449 1_555
O35 V2 2.387746 1_555
O35 V5 2.509937 1_555
O36 Si8 1.659779 1_555
O36 Y3 2.240440 1_655
O36 V1 2.387742 1_554
O36 V0 2.509941 1_555
O37 Si0 1.659779 1_555
O37 Y0 2.240440 1_565
O37 V0 2.387742 1_455
O37 V4 2.509941 1_555
O38 Si0 1.659779 1_655
O38 Y3 2.240440 1_655
O38 V0 2.387742 1_555
O38 V3 2.509941 1_554
O39 Si9 1.659779 1_555
O39 Y6 2.240440 1_555
O39 V1 2.387742 1_555
O39 V4 2.509941 1_545
O40 Si10 1.659779 1_555
O40 Y6 2.240440 1_565
O40 V4 2.387742 1_555
O40 V5 2.509941 1_555
O41 Si6 1.659773 1_655
O41 Y1 2.240449 1_666
O41 V2 2.387746 1_555
O41 V3 2.509937 1_555
O42 Si10 1.659779 1_555
O42 Y5 2.240440 1_555
O42 V4 2.387742 1_555
O42 V0 2.509941 1_455
O43 Si9 1.659779 1_555
O43 Y4 2.240440 1_556
O43 V1 2.387742 1_555
O43 V3 2.509941 1_555
O44 Si7 1.659773 1_556
O44 Y1 2.240449 1_666
O44 V3 2.387746 1_555
O44 V5 2.509937 1_555
O45 Si7 1.659782 1_555
O45 Y4 2.240447 1_555
O45 V3 2.387736 1_554
O45 V0 2.509935 1_555
O46 Si6 1.659782 1_555
O46 Y5 2.240447 1_555
O46 V2 2.387736 1_455
O46 V4 2.509935 1_555
O47 Si6 1.659779 1_555
O47 Y3 2.240440 1_556
O47 V7 2.387742 1_556
O47 V6 2.509941 1_555
