# generated using pymatgen
data_RbCuCl3
_symmetry_space_group_name_H-M   'P 1'
_cell_length_a   6.93635163
_cell_length_b   6.93635163
_cell_length_c   6.93635163
_cell_angle_alpha   117.60990333
_cell_angle_beta   117.60990333
_cell_angle_gamma   94.19215198
_symmetry_Int_Tables_number   1
_chemical_formula_structural   RbCuCl3
_chemical_formula_sum   'Rb2 Cu2 Cl6'
_cell_volume   243.80084804
_cell_formula_units_Z   2
loop_
 _symmetry_equiv_pos_site_id
 _symmetry_equiv_pos_as_xyz
  1  'x, y, z'
loop_
 _atom_site_type_symbol
 _atom_site_label
 _atom_site_symmetry_multiplicity
 _atom_site_fract_x
 _atom_site_fract_y
 _atom_site_fract_z
 _atom_site_occupancy
  Rb  Rb0  1  0.75000000  0.75000000  0.00000000  1
  Rb  Rb1  1  0.25000000  0.25000000  0.00000000  1
  Cu  Cu0  1  0.00000000  0.50000000  0.50000000  1
  Cu  Cu1  1  0.50000000  0.00000000  0.50000000  1
  Cl  Cl0  1  0.28231175  0.78231175  0.06462549  1
  Cl  Cl1  1  0.78231175  0.71768825  0.50000000  1
  Cl  Cl2  1  0.21768825  0.28231175  0.50000000  1
  Cl  Cl3  1  0.71768825  0.21768825  0.93537451  1
  Cl  Cl4  1  0.75000000  0.25000000  0.50000000  1
  Cl  Cl5  1  0.25000000  0.75000000  0.50000000  1
loop_
_geom_bond_atom_site_label_1
_geom_bond_atom_site_label_2
_geom_bond_distance
_geom_bond_site_symmetry_2
Cl0 Cu1 2.212073 1_565
Cl0 Cu0 2.868778 1_554
Cl0 Rb1 3.483678 1_555
Cl0 Rb0 3.483678 1_455
Cl0 Rb1 3.483691 1_565
Cl0 Rb0 3.483691 1_555
Cl1 Cu0 2.212083 1_655
Cl1 Cu1 2.868768 1_565
Cl1 Rb1 3.483684 1_666
Cl1 Rb0 3.483684 1_555
Cl1 Rb0 3.483684 1_556
Cl1 Rb1 3.483684 1_555
Cl2 Cu0 2.212083 1_555
Cl2 Cu1 2.868768 1_555
Cl2 Rb1 3.483684 1_556
Cl2 Rb0 3.483684 1_445
Cl2 Rb0 3.483684 1_556
Cl2 Rb1 3.483684 1_555
Cl3 Cu1 2.212073 1_555
Cl3 Cu0 2.868778 1_656
Cl3 Rb0 3.483678 1_556
Cl3 Rb1 3.483678 1_656
Cl3 Rb0 3.483691 1_546
Cl3 Rb1 3.483691 1_556
Cl4 Cu0 2.361034 1_655
Cl4 Cu1 2.361034 1_555
Cl4 Rb1 3.592705 1_555
Cl4 Rb0 3.592705 1_556
Cl4 Rb0 3.592705 1_545
Cl4 Rb1 3.592705 1_656
Cl5 Cu1 2.361034 1_565
Cl5 Cu0 2.361034 1_555
Cl5 Rb1 3.592705 1_555
Cl5 Rb1 3.592705 1_566
Cl5 Rb0 3.592705 1_556
Cl5 Rb0 3.592705 1_455
