# generated using pymatgen
data_Na3Nd(AsO4)2
_symmetry_space_group_name_H-M   'P 1'
_cell_length_a   5.92556490
_cell_length_b   5.92556490
_cell_length_c   7.38652700
_cell_angle_alpha   90.00000000
_cell_angle_beta   90.00000000
_cell_angle_gamma   120.00001010
_symmetry_Int_Tables_number   1
_chemical_formula_structural   Na3Nd(AsO4)2
_chemical_formula_sum   'Na3 Nd1 As2 O8'
_cell_volume   224.61067657
_cell_formula_units_Z   1
loop_
 _symmetry_equiv_pos_site_id
 _symmetry_equiv_pos_as_xyz
  1  'x, y, z'
loop_
 _atom_site_type_symbol
 _atom_site_label
 _atom_site_symmetry_multiplicity
 _atom_site_fract_x
 _atom_site_fract_y
 _atom_site_fract_z
 _atom_site_occupancy
  Na  Na0  1  0.33333300  0.66666700  0.69942200  1
  Na  Na1  1  0.66666700  0.33333300  0.30057800  1
  Na  Na2  1  0.00000000  0.00000000  0.00000000  1
  Nd  Nd0  1  0.00000000  0.00000000  0.50000000  1
  As  As0  1  0.33333300  0.66666700  0.21527300  1
  As  As1  1  0.66666700  0.33333300  0.78472700  1
  O  O0  1  0.33333300  0.66666700  0.98900400  1
  O  O1  1  0.66666700  0.33333300  0.01099600  1
  O  O2  1  0.17770100  0.82229900  0.30580900  1
  O  O3  1  0.82229900  0.17770100  0.69419100  1
  O  O4  1  0.17770100  0.35540200  0.30580900  1
  O  O5  1  0.82229900  0.64459800  0.69419100  1
  O  O6  1  0.64459800  0.82229900  0.30580900  1
  O  O7  1  0.35540200  0.17770100  0.69419100  1
loop_
_geom_bond_atom_site_label_1
_geom_bond_atom_site_label_2
_geom_bond_distance
_geom_bond_site_symmetry_2
Na0 O0 2.139005 1_555
Na1 O1 2.139005 1_555
Na2 O5 2.903234 1_444
Na2 O6 2.903234 1_445
Na2 O7 2.903234 1_554
Na2 O4 2.903234 1_555
Na2 O2 2.903235 1_545
Na2 O3 2.903235 1_454
Nd0 O6 2.320299 1_445
Nd0 O7 2.320299 1_555
Nd0 O4 2.320299 1_555
Nd0 O5 2.320299 1_445
Nd0 O3 2.320299 1_455
Nd0 O2 2.320299 1_545
As0 O0 1.671342 1_554
As0 O2 1.731653 1_555
As0 O6 1.731658 1_555
As0 O4 1.731658 1_555
As1 O1 1.671342 1_556
As1 O3 1.731653 1_555
As1 O7 1.731658 1_555
As1 O5 1.731658 1_555
