# generated using pymatgen
data_Lu2Mn3Si5
_symmetry_space_group_name_H-M   'P 1'
_cell_length_a   10.50878427
_cell_length_b   10.50878427
_cell_length_c   5.35746965
_cell_angle_alpha   90.00000000
_cell_angle_beta   90.00000000
_cell_angle_gamma   90.00000000
_symmetry_Int_Tables_number   1
_chemical_formula_structural   Lu2Mn3Si5
_chemical_formula_sum   'Lu8 Mn12 Si20'
_cell_volume   591.64973297
_cell_formula_units_Z   4
loop_
 _symmetry_equiv_pos_site_id
 _symmetry_equiv_pos_as_xyz
  1  'x, y, z'
loop_
 _atom_site_type_symbol
 _atom_site_label
 _atom_site_symmetry_multiplicity
 _atom_site_fract_x
 _atom_site_fract_y
 _atom_site_fract_z
 _atom_site_occupancy
  Lu  Lu0  1  0.57460552  0.73780575  0.50000000  1
  Lu  Lu1  1  0.42539448  0.26219425  0.50000000  1
  Lu  Lu2  1  0.07460552  0.76219425  -0.00000000  1
  Lu  Lu3  1  0.92539448  0.23780575  -0.00000000  1
  Lu  Lu4  1  0.26219425  0.57460552  0.50000000  1
  Lu  Lu5  1  0.73780575  0.42539448  0.50000000  1
  Lu  Lu6  1  0.23780575  0.07460552  -0.00000000  1
  Lu  Lu7  1  0.76219425  0.92539448  -0.00000000  1
  Mn  Mn0  1  0.88128220  0.86025903  0.50000000  1
  Mn  Mn1  1  0.11871780  0.13974097  0.50000000  1
  Mn  Mn2  1  0.38128220  0.63974097  -0.00000000  1
  Mn  Mn3  1  0.61871780  0.36025903  -0.00000000  1
  Mn  Mn4  1  0.13974097  0.88128220  0.50000000  1
  Mn  Mn5  1  0.86025903  0.11871780  0.50000000  1
  Mn  Mn6  1  0.36025903  0.38128220  -0.00000000  1
  Mn  Mn7  1  0.63974097  0.61871780  -0.00000000  1
  Mn  Mn8  1  0.50000000  0.00000000  0.25000000  1
  Mn  Mn9  1  0.00000000  0.50000000  0.75000000  1
  Mn  Mn10  1  0.00000000  0.50000000  0.25000000  1
  Mn  Mn11  1  0.50000000  0.00000000  0.75000000  1
  Si  Si0  1  0.67648314  0.17648314  0.25000000  1
  Si  Si1  1  0.32351686  0.82351686  0.25000000  1
  Si  Si2  1  0.17648314  0.32351686  0.75000000  1
  Si  Si3  1  0.82351686  0.67648314  0.75000000  1
  Si  Si4  1  0.82351686  0.67648314  0.25000000  1
  Si  Si5  1  0.17648314  0.32351686  0.25000000  1
  Si  Si6  1  0.67648314  0.17648314  0.75000000  1
  Si  Si7  1  0.32351686  0.82351686  0.75000000  1
  Si  Si8  1  0.50000000  0.50000000  0.26395934  1
  Si  Si9  1  0.00000000  0.00000000  0.76395934  1
  Si  Si10  1  0.50000000  0.50000000  0.73604066  1
  Si  Si11  1  0.00000000  0.00000000  0.23604066  1
  Si  Si12  1  0.68461860  0.97598169  0.50000000  1
  Si  Si13  1  0.31538140  0.02401831  0.50000000  1
  Si  Si14  1  0.18461860  0.52401831  -0.00000000  1
  Si  Si15  1  0.81538140  0.47598169  -0.00000000  1
  Si  Si16  1  0.02401831  0.68461860  0.50000000  1
  Si  Si17  1  0.97598169  0.31538140  0.50000000  1
  Si  Si18  1  0.47598169  0.18461860  -0.00000000  1
  Si  Si19  1  0.52401831  0.81538140  -0.00000000  1
loop_
_geom_bond_atom_site_label_1
_geom_bond_atom_site_label_2
_geom_bond_distance
_geom_bond_site_symmetry_2
Lu0 Si12 2.757042 1_555
Lu0 Si19 2.850057 1_556
Lu0 Si19 2.850057 1_555
Lu0 Si10 2.908451 1_555
Lu0 Si8 2.908451 1_555
Lu0 Si4 3.008549 1_555
Lu0 Si3 3.008549 1_555
Lu0 Mn7 3.034852 1_555
Lu0 Mn7 3.034852 1_556
Lu0 Si7 3.093154 1_555
Lu0 Si1 3.093154 1_555
Lu0 Mn11 3.162356 1_565
Lu0 Mn8 3.162356 1_565
Lu1 Si13 2.757042 1_555
Lu1 Si18 2.850057 1_556
Lu1 Si18 2.850057 1_555
Lu1 Si10 2.908451 1_555
Lu1 Si8 2.908451 1_555
Lu1 Si5 3.008549 1_555
Lu1 Si2 3.008549 1_555
Lu1 Mn6 3.034852 1_555
Lu1 Mn6 3.034852 1_556
Lu1 Si0 3.093154 1_555
Lu1 Si6 3.093154 1_555
Lu1 Mn8 3.162356 1_555
Lu1 Mn11 3.162356 1_555
Lu2 Si14 2.757042 1_555
Lu2 Si16 2.850057 1_555
Lu2 Si16 2.850057 1_554
Lu2 Si9 2.908451 1_564
Lu2 Si11 2.908451 1_565
Lu2 Si1 3.008549 1_555
Lu2 Si7 3.008549 1_554
Lu2 Mn4 3.034852 1_554
Lu2 Mn4 3.034852 1_555
Lu2 Si3 3.093154 1_454
Lu2 Si4 3.093154 1_455
Lu2 Mn10 3.162356 1_555
Lu2 Mn9 3.162356 1_554
Lu3 Si15 2.757042 1_555
Lu3 Si17 2.850057 1_554
Lu3 Si17 2.850057 1_555
Lu3 Si9 2.908451 1_654
Lu3 Si11 2.908451 1_655
Lu3 Si6 3.008549 1_554
Lu3 Si0 3.008549 1_555
Lu3 Mn5 3.034852 1_554
Lu3 Mn5 3.034852 1_555
Lu3 Si2 3.093154 1_654
Lu3 Si5 3.093154 1_655
Lu3 Mn9 3.162356 1_654
Lu3 Mn10 3.162356 1_655
Lu4 Si16 2.757042 1_555
Lu4 Si14 2.850057 1_555
Lu4 Si14 2.850057 1_556
Lu4 Si10 2.908451 1_555
Lu4 Si8 2.908451 1_555
Lu4 Si7 3.008549 1_555
Lu4 Si1 3.008549 1_555
Lu4 Mn2 3.034852 1_555
Lu4 Mn2 3.034852 1_556
Lu4 Si5 3.093154 1_555
Lu4 Si2 3.093154 1_555
Lu4 Mn10 3.162356 1_555
Lu4 Mn9 3.162356 1_555
Lu5 Si17 2.757042 1_555
Lu5 Si15 2.850057 1_555
Lu5 Si15 2.850057 1_556
Lu5 Si10 2.908451 1_555
Lu5 Si8 2.908451 1_555
Lu5 Si6 3.008549 1_555
Lu5 Si0 3.008549 1_555
Lu5 Mn3 3.034852 1_556
Lu5 Mn3 3.034852 1_555
Lu5 Si3 3.093154 1_555
Lu5 Si4 3.093154 1_555
Lu5 Mn9 3.162356 1_655
Lu5 Mn10 3.162356 1_655
Lu6 Si18 2.757042 1_555
Lu6 Si13 2.850057 1_554
Lu6 Si13 2.850057 1_555
Lu6 Si9 2.908451 1_554
Lu6 Si11 2.908451 1_555
Lu6 Si2 3.008549 1_554
Lu6 Si5 3.008549 1_555
Lu6 Mn1 3.034852 1_555
Lu6 Mn1 3.034852 1_554
Lu6 Si7 3.093154 1_544
Lu6 Si1 3.093154 1_545
Lu6 Mn11 3.162356 1_554
Lu6 Mn8 3.162356 1_555
Lu7 Si19 2.757042 1_555
Lu7 Si12 2.850057 1_555
Lu7 Si12 2.850057 1_554
Lu7 Si9 2.908451 1_664
Lu7 Si11 2.908451 1_665
Lu7 Si4 3.008549 1_555
Lu7 Si3 3.008549 1_554
Lu7 Mn0 3.034852 1_554
Lu7 Mn0 3.034852 1_555
Lu7 Si6 3.093154 1_564
Lu7 Si0 3.093154 1_565
Lu7 Mn11 3.162356 1_564
Lu7 Mn8 3.162356 1_565
Mn0 Si16 2.378404 1_655
Mn0 Si9 2.390147 1_665
Mn0 Si11 2.390147 1_665
Mn0 Si12 2.397945 1_555
Mn0 Si3 2.427381 1_555
Mn0 Si4 2.427381 1_555
Mn1 Si17 2.378404 1_455
Mn1 Si9 2.390147 1_555
Mn1 Si11 2.390147 1_555
Mn1 Si13 2.397945 1_555
Mn1 Si5 2.427381 1_555
Mn1 Si2 2.427381 1_555
Mn2 Si19 2.378404 1_555
Mn2 Si8 2.390147 1_555
Mn2 Si10 2.390147 1_554
Mn2 Si14 2.397945 1_555
Mn2 Si1 2.427381 1_555
Mn2 Si7 2.427381 1_554
Mn3 Si18 2.378404 1_555
Mn3 Si8 2.390147 1_555
Mn3 Si10 2.390147 1_554
Mn3 Si15 2.397945 1_555
Mn3 Si6 2.427381 1_554
Mn3 Si0 2.427381 1_555
Mn4 Si13 2.378404 1_565
Mn4 Si9 2.390147 1_565
Mn4 Si11 2.390147 1_565
Mn4 Si16 2.397945 1_555
Mn4 Si7 2.427381 1_555
Mn4 Si1 2.427381 1_555
Mn5 Si12 2.378404 1_545
Mn5 Si11 2.390147 1_655
Mn5 Si9 2.390147 1_655
Mn5 Si17 2.397945 1_555
Mn5 Si0 2.427381 1_555
Mn5 Si6 2.427381 1_555
Mn6 Si14 2.378404 1_555
Mn6 Si8 2.390147 1_555
Mn6 Si10 2.390147 1_554
Mn6 Si18 2.397945 1_555
Mn6 Si2 2.427381 1_554
Mn6 Si5 2.427381 1_555
Mn7 Si15 2.378404 1_555
Mn7 Si8 2.390147 1_555
Mn7 Si10 2.390147 1_554
Mn7 Si19 2.397945 1_555
Mn7 Si3 2.427381 1_554
Mn7 Si4 2.427381 1_555
Mn8 Si12 2.371005 1_545
Mn8 Si18 2.371005 1_555
Mn8 Si13 2.371005 1_555
Mn8 Si19 2.371005 1_545
Mn8 Si1 2.622833 1_545
Mn8 Si0 2.622833 1_555
Mn9 Si16 2.371005 1_555
Mn9 Si14 2.371005 1_556
Mn9 Si17 2.371005 1_455
Mn9 Si15 2.371005 1_456
Mn9 Si3 2.622833 1_455
Mn9 Si2 2.622833 1_555
Mn10 Si16 2.371005 1_555
Mn10 Si17 2.371005 1_455
Mn10 Si14 2.371005 1_555
Mn10 Si15 2.371005 1_455
Mn10 Si4 2.622833 1_455
Mn10 Si5 2.622833 1_555
Mn11 Si12 2.371005 1_545
Mn11 Si18 2.371005 1_556
Mn11 Si13 2.371005 1_555
Mn11 Si19 2.371005 1_546
Mn11 Si7 2.622833 1_545
Mn11 Si6 2.622833 1_555
Si0 Si18 2.498154 1_555
Si0 Si12 2.498154 1_545
Si0 Si6 2.678735 1_555
Si0 Si6 2.678735 1_554
Si1 Si19 2.498154 1_555
Si1 Si13 2.498154 1_565
Si1 Si7 2.678735 1_555
Si1 Si7 2.678735 1_554
Si2 Si5 2.678735 1_556
Si2 Si5 2.678735 1_555
Si3 Si4 2.678735 1_555
Si3 Si4 2.678735 1_556
Si10 Si8 2.529161 1_555
Si11 Si9 2.529161 1_554
Si12 Si6 2.498154 1_565
Si13 Si7 2.498154 1_545
Si14 Si2 2.498154 1_554
Si14 Si5 2.498154 1_555
Si15 Si4 2.498154 1_555
Si15 Si3 2.498154 1_554
Si16 Si3 2.498154 1_455
Si16 Si4 2.498154 1_455
Si17 Si5 2.498154 1_655
Si17 Si2 2.498154 1_655
Si18 Si6 2.498154 1_554
Si19 Si7 2.498154 1_554
