# generated using pymatgen
data_Sb3W
_symmetry_space_group_name_H-M   'P 1'
_cell_length_a   5.07913447
_cell_length_b   5.07913447
_cell_length_c   5.07913447
_cell_angle_alpha   122.35446849
_cell_angle_beta   122.35446849
_cell_angle_gamma   85.96813143
_symmetry_Int_Tables_number   1
_chemical_formula_structural   Sb3W
_chemical_formula_sum   'Sb3 W1'
_cell_volume   89.11416405
_cell_formula_units_Z   1
loop_
 _symmetry_equiv_pos_site_id
 _symmetry_equiv_pos_as_xyz
  1  'x, y, z'
loop_
 _atom_site_type_symbol
 _atom_site_label
 _atom_site_symmetry_multiplicity
 _atom_site_fract_x
 _atom_site_fract_y
 _atom_site_fract_z
 _atom_site_occupancy
  Sb  Sb0  1  0.75000000  0.25000000  0.50000000  1
  Sb  Sb1  1  0.25000000  0.75000000  0.50000000  1
  Sb  Sb2  1  0.50000000  0.50000000  0.00000000  1
  W  W0  1  0.00000000  0.00000000  0.00000000  1
loop_
_geom_bond_atom_site_label_1
_geom_bond_atom_site_label_2
_geom_bond_distance
_geom_bond_site_symmetry_2
Sb0 W0 3.073657 1_656
Sb0 W0 3.073657 1_555
Sb0 Sb2 3.073657 1_545
Sb0 W0 3.073657 1_655
Sb0 Sb2 3.073657 1_555
Sb0 Sb2 3.073657 1_556
Sb0 W0 3.073657 1_666
Sb0 Sb2 3.073657 1_656
Sb1 W0 3.073657 1_555
Sb1 Sb2 3.073657 1_455
Sb1 Sb2 3.073657 1_555
Sb1 W0 3.073657 1_565
Sb1 W0 3.073657 1_566
Sb1 Sb2 3.073657 1_556
Sb1 Sb2 3.073657 1_566
Sb1 W0 3.073657 1_666
Sb2 W0 3.462928 1_666
Sb2 W0 3.462928 1_655
Sb2 W0 3.462928 1_565
Sb2 W0 3.462928 1_554
