# generated using pymatgen
data_PrErS3
_symmetry_space_group_name_H-M   'P 1'
_cell_length_a   3.96697321
_cell_length_b   11.04330630
_cell_length_c   21.53708070
_cell_angle_alpha   78.58082629
_cell_angle_beta   90.00000000
_cell_angle_gamma   90.00000000
_symmetry_Int_Tables_number   1
_chemical_formula_structural   PrErS3
_chemical_formula_sum   'Pr8 Er8 S24'
_cell_volume   924.83045589
_cell_formula_units_Z   8
loop_
 _symmetry_equiv_pos_site_id
 _symmetry_equiv_pos_as_xyz
  1  'x, y, z'
loop_
 _atom_site_type_symbol
 _atom_site_label
 _atom_site_symmetry_multiplicity
 _atom_site_fract_x
 _atom_site_fract_y
 _atom_site_fract_z
 _atom_site_occupancy
  Pr  Pr0  1  0.25000000  0.30329911  0.76591916  1
  Pr  Pr1  1  0.75000000  0.69670089  0.23408084  1
  Pr  Pr2  1  0.25000000  0.90927391  0.86371600  1
  Pr  Pr3  1  0.75000000  0.09072609  0.13628400  1
  Pr  Pr4  1  0.25000000  0.69159997  0.73324325  1
  Pr  Pr5  1  0.75000000  0.30840003  0.26675675  1
  Pr  Pr6  1  0.25000000  0.79859403  0.53684015  1
  Pr  Pr7  1  0.75000000  0.20140597  0.46315985  1
  Er  Er0  1  0.25000000  0.55343636  0.41643648  1
  Er  Er1  1  0.75000000  0.44656364  0.58356352  1
  Er  Er2  1  0.25000000  0.97029208  0.35104329  1
  Er  Er3  1  0.75000000  0.02970792  0.64895671  1
  Er  Er4  1  0.25000000  0.82005267  0.04624687  1
  Er  Er5  1  0.75000000  0.17994733  0.95375313  1
  Er  Er6  1  0.25000000  0.47767677  0.08739196  1
  Er  Er7  1  0.75000000  0.52232323  0.91260804  1
  S  S0  1  0.25000000  0.08557454  0.03639732  1
  S  S1  1  0.75000000  0.91442546  0.96360268  1
  S  S2  1  0.25000000  0.20454515  0.36505658  1
  S  S3  1  0.75000000  0.79545485  0.63494342  1
  S  S4  1  0.25000000  0.74607156  0.32404485  1
  S  S5  1  0.75000000  0.25392844  0.67595515  1
  S  S6  1  0.25000000  0.63556065  0.96423440  1
  S  S7  1  0.75000000  0.36443935  0.03576560  1
  S  S8  1  0.25000000  0.50582882  0.21983164  1
  S  S9  1  0.75000000  0.49417118  0.78016836  1
  S  S10  1  0.25000000  0.25260046  0.17307517  1
  S  S11  1  0.75000000  0.74739954  0.82692483  1
  S  S12  1  0.25000000  0.87465785  0.16302650  1
  S  S13  1  0.75000000  0.12534215  0.83697350  1
  S  S14  1  0.25000000  0.35682169  0.51377115  1
  S  S15  1  0.75000000  0.64317831  0.48622885  1
  S  S16  1  0.25000000  0.05792869  0.55575114  1
  S  S17  1  0.75000000  0.94207131  0.44424886  1
  S  S18  1  0.25000000  0.96277912  0.72896857  1
  S  S19  1  0.75000000  0.03722088  0.27103143  1
  S  S20  1  0.25000000  0.54544585  0.63452347  1
  S  S21  1  0.75000000  0.45455415  0.36547653  1
  S  S22  1  0.25000000  0.34181980  0.90140672  1
  S  S23  1  0.75000000  0.65818020  0.09859328  1
loop_
_geom_bond_atom_site_label_1
_geom_bond_atom_site_label_2
_geom_bond_distance
_geom_bond_site_symmetry_2
Pr0 S5 2.898952 1_555
Pr0 S5 2.898952 1_455
Pr0 S9 2.954253 1_555
Pr0 S9 2.954253 1_455
Pr0 S13 2.991211 1_455
Pr0 S13 2.991211 1_555
Pr0 S22 3.031047 1_555
Pr0 S20 3.487488 1_555
Pr1 S4 2.898952 1_655
Pr1 S4 2.898952 1_555
Pr1 S8 2.954253 1_555
Pr1 S8 2.954253 1_655
Pr1 S12 2.991211 1_555
Pr1 S12 2.991211 1_655
Pr1 S23 3.031047 1_555
Pr1 S21 3.487488 1_555
Pr2 S18 2.844667 1_555
Pr2 S11 2.884193 1_455
Pr2 S11 2.884193 1_555
Pr2 S1 2.934939 1_555
Pr2 S1 2.934939 1_455
Pr2 S13 3.068432 1_565
Pr2 S13 3.068432 1_465
Pr2 S6 3.351455 1_555
Pr3 S19 2.844667 1_555
Pr3 S10 2.884193 1_555
Pr3 S10 2.884193 1_655
Pr3 S0 2.934939 1_555
Pr3 S0 2.934939 1_655
Pr3 S12 3.068432 1_545
Pr3 S12 3.068432 1_645
Pr3 S7 3.351455 1_555
Pr4 S20 2.912792 1_555
Pr4 S3 2.961456 1_455
Pr4 S3 2.961456 1_555
Pr4 S9 2.972651 1_555
Pr4 S9 2.972651 1_455
Pr4 S18 2.977855 1_555
Pr4 S11 2.979440 1_455
Pr4 S11 2.979440 1_555
Pr5 S21 2.912792 1_555
Pr5 S2 2.961456 1_655
Pr5 S2 2.961456 1_555
Pr5 S8 2.972651 1_655
Pr5 S8 2.972651 1_555
Pr5 S19 2.977855 1_555
Pr5 S10 2.979440 1_555
Pr5 S10 2.979440 1_655
Pr6 S3 2.893197 1_455
Pr6 S3 2.893197 1_555
Pr6 S15 2.967970 1_455
Pr6 S15 2.967970 1_555
Pr6 S16 2.971490 1_565
Pr6 S17 3.028239 1_455
Pr6 S17 3.028239 1_555
Pr6 S20 3.148413 1_555
Pr7 S2 2.893197 1_655
Pr7 S2 2.893197 1_555
Pr7 S14 2.967970 1_555
Pr7 S14 2.967970 1_655
Pr7 S17 2.971490 1_545
Pr7 S16 3.028239 1_555
Pr7 S16 3.028239 1_655
Pr7 S21 3.148413 1_555
Er0 S21 2.608791 1_455
Er0 S21 2.608791 1_555
Er0 S4 2.609377 1_555
Er0 S14 2.703074 1_555
Er0 S15 2.786690 1_555
Er0 S15 2.786690 1_455
Er1 S20 2.608791 1_655
Er1 S20 2.608791 1_555
Er1 S5 2.609377 1_555
Er1 S15 2.703074 1_555
Er1 S14 2.786690 1_555
Er1 S14 2.786690 1_655
Er2 S19 2.635464 1_565
Er2 S19 2.635464 1_465
Er2 S4 2.653200 1_555
Er2 S2 2.663163 1_565
Er2 S17 2.795207 1_555
Er2 S17 2.795207 1_455
Er3 S18 2.635464 1_545
Er3 S18 2.635464 1_645
Er3 S5 2.653200 1_555
Er3 S3 2.663163 1_545
Er3 S16 2.795207 1_555
Er3 S16 2.795207 1_655
Er4 S12 2.699977 1_555
Er4 S1 2.730191 1_454
Er4 S1 2.730191 1_554
Er4 S23 2.757309 1_555
Er4 S23 2.757309 1_455
Er4 S0 2.897711 1_565
Er4 S6 2.948869 1_554
Er5 S13 2.699977 1_555
Er5 S0 2.730191 1_656
Er5 S0 2.730191 1_556
Er5 S22 2.757309 1_655
Er5 S22 2.757309 1_555
Er5 S1 2.897711 1_545
Er5 S7 2.948869 1_556
Er6 S7 2.699047 1_455
Er6 S7 2.699047 1_555
Er6 S10 2.786983 1_555
Er6 S23 2.855923 1_455
Er6 S23 2.855923 1_555
Er6 S6 2.871283 1_554
Er6 S8 2.929807 1_555
Er7 S6 2.699047 1_555
Er7 S6 2.699047 1_655
Er7 S11 2.786983 1_555
Er7 S22 2.855923 1_655
Er7 S22 2.855923 1_555
Er7 S7 2.871283 1_556
Er7 S9 2.929807 1_555
