# generated using pymatgen
data_BaSrCeZrO6
_symmetry_space_group_name_H-M   'P 1'
_cell_length_a   8.60313087
_cell_length_b   8.61144557
_cell_length_c   8.61908003
_cell_angle_alpha   90.00000000
_cell_angle_beta   90.00000000
_cell_angle_gamma   90.00000000
_symmetry_Int_Tables_number   1
_chemical_formula_structural   BaSrCeZrO6
_chemical_formula_sum   'Ba4 Sr4 Ce4 Zr4 O24'
_cell_volume   638.54793321
_cell_formula_units_Z   4
loop_
 _symmetry_equiv_pos_site_id
 _symmetry_equiv_pos_as_xyz
  1  'x, y, z'
loop_
 _atom_site_type_symbol
 _atom_site_label
 _atom_site_symmetry_multiplicity
 _atom_site_fract_x
 _atom_site_fract_y
 _atom_site_fract_z
 _atom_site_occupancy
  Ba  Ba0  1  0.00000000  -0.00000000  -0.00000000  1
  Ba  Ba1  1  0.50000000  0.50000000  0.50000000  1
  Ba  Ba2  1  0.00000000  0.50000000  0.50000000  1
  Ba  Ba3  1  0.50000000  0.50000000  -0.00000000  1
  Sr  Sr0  1  0.50000000  -0.00000000  0.50000000  1
  Sr  Sr1  1  0.50000000  0.00000000  -0.00000000  1
  Sr  Sr2  1  0.00000000  0.50000000  0.00000000  1
  Sr  Sr3  1  -0.00000000  -0.00000000  0.50000000  1
  Ce  Ce0  1  0.75002154  0.75278962  0.75045050  1
  Ce  Ce1  1  0.24997846  0.24721038  0.75045050  1
  Ce  Ce2  1  0.24997846  0.75278962  0.24954950  1
  Ce  Ce3  1  0.75002154  0.24721038  0.24954950  1
  Zr  Zr0  1  0.24987798  0.24690296  0.24946906  1
  Zr  Zr1  1  0.75012202  0.75309704  0.24946906  1
  Zr  Zr2  1  0.75012202  0.24690296  0.75053094  1
  Zr  Zr3  1  0.24987798  0.75309704  0.75053094  1
  O  O0  1  0.00763886  0.20949049  0.28604101  1
  O  O1  1  0.99236114  0.79050951  0.28604101  1
  O  O2  1  0.99236114  0.20949049  0.71395899  1
  O  O3  1  0.00763886  0.79050951  0.71395899  1
  O  O4  1  0.28544439  0.00669433  0.20890006  1
  O  O5  1  0.28544439  0.99330567  0.79109994  1
  O  O6  1  0.71455561  0.99330567  0.20890006  1
  O  O7  1  0.71455561  0.00669433  0.79109994  1
  O  O8  1  0.20991502  0.28239760  0.00763072  1
  O  O9  1  0.79008498  0.28239760  0.99236928  1
  O  O10  1  0.20991502  0.71760240  0.99236928  1
  O  O11  1  0.79008498  0.71760240  0.00763072  1
  O  O12  1  0.49338770  0.27605489  0.22296393  1
  O  O13  1  0.50661230  0.72394511  0.22296393  1
  O  O14  1  0.50661230  0.27605489  0.77703607  1
  O  O15  1  0.49338770  0.72394511  0.77703607  1
  O  O16  1  0.22541558  0.49221274  0.27782028  1
  O  O17  1  0.22541558  0.50778726  0.72217972  1
  O  O18  1  0.77458442  0.50778726  0.27782028  1
  O  O19  1  0.77458442  0.49221274  0.72217972  1
  O  O20  1  0.28543288  0.21451661  0.49264756  1
  O  O21  1  0.71456712  0.21451661  0.50735244  1
  O  O22  1  0.28543288  0.78548339  0.50735244  1
  O  O23  1  0.71456712  0.78548339  0.49264756  1
loop_
_geom_bond_atom_site_label_1
_geom_bond_atom_site_label_2
_geom_bond_distance
_geom_bond_site_symmetry_2
Ba0 O9 3.029785 1_454
Ba0 O11 3.029785 1_445
Ba0 O10 3.029785 1_544
Ba0 O8 3.029785 1_555
Ba0 O6 3.045613 1_445
Ba0 O4 3.045613 1_555
Ba0 O5 3.045613 1_544
Ba0 O7 3.045613 1_454
Ba0 O0 3.055657 1_555
Ba0 O2 3.055657 1_454
Ba0 O3 3.055657 1_544
Ba0 O1 3.055657 1_445
Ba1 O17 3.041719 1_555
Ba1 O19 3.041719 1_555
Ba1 O18 3.041719 1_555
Ba1 O16 3.041719 1_555
Ba1 O12 3.069835 1_555
Ba1 O13 3.069835 1_555
Ba1 O15 3.069835 1_555
Ba1 O14 3.069835 1_555
Ba1 O20 3.074963 1_555
Ba1 O23 3.074963 1_555
Ba1 O21 3.074963 1_555
Ba1 O22 3.074963 1_555
Ba2 O19 2.726256 1_455
Ba2 O17 2.726256 1_555
Ba2 O18 2.726256 1_455
Ba2 O16 2.726256 1_555
Ba2 O2 3.108644 1_455
Ba2 O3 3.108644 1_555
Ba2 O1 3.108644 1_455
Ba2 O0 3.108644 1_555
Ba3 O13 2.723126 1_555
Ba3 O15 2.723126 1_554
Ba3 O12 2.723126 1_555
Ba3 O14 2.723126 1_554
Ba3 O8 3.121527 1_555
Ba3 O10 3.121527 1_554
Ba3 O11 3.121527 1_555
Ba3 O9 3.121527 1_554
Ba3 O18 3.364340 1_555
Ba3 O16 3.364340 1_555
Ba3 O17 3.364340 1_554
Ba3 O19 3.364340 1_554
Ce0 O15 2.233568 1_555
Ce0 O7 2.235302 1_565
Ce0 O23 2.260463 1_555
Ce0 O3 2.261966 1_655
Ce0 O11 2.263666 1_556
Ce0 O19 2.267005 1_555
Ce1 O14 2.233568 1_555
Ce1 O5 2.235302 1_545
Ce1 O20 2.260463 1_555
Ce1 O2 2.261966 1_455
Ce1 O8 2.263666 1_556
Ce1 O17 2.267005 1_555
Ce2 O13 2.233568 1_555
Ce2 O4 2.235302 1_565
Ce2 O22 2.260463 1_555
Ce2 O1 2.261966 1_455
Ce2 O10 2.263666 1_554
Ce2 O16 2.267005 1_555
Ce3 O12 2.233568 1_555
Ce3 O6 2.235302 1_545
Ce3 O21 2.260463 1_555
Ce3 O0 2.261966 1_655
Ce3 O9 2.263666 1_554
Ce3 O18 2.267005 1_555
O0 Zr0 2.132200 1_555
O0 Sr3 2.580621 1_555
O1 Zr1 2.132200 1_555
O1 Sr3 2.580621 1_665
O2 Zr2 2.132200 1_555
O2 Sr3 2.580621 1_655
O3 Zr3 2.132200 1_555
O3 Sr3 2.580621 1_565
O4 Zr0 2.120086 1_555
O4 Sr1 2.579221 1_555
O4 Sr0 3.115387 1_555
O5 Zr3 2.120086 1_555
O5 Sr1 2.579221 1_566
O5 Sr0 3.115387 1_565
O6 Zr1 2.120086 1_555
O6 Sr1 2.579221 1_565
O6 Sr0 3.115387 1_565
O7 Zr2 2.120086 1_555
O7 Sr1 2.579221 1_556
O7 Sr0 3.115387 1_555
O8 Zr0 2.134585 1_555
O8 Sr2 2.603284 1_555
O9 Zr2 2.134585 1_555
O9 Sr2 2.603284 1_656
O10 Zr3 2.134585 1_555
O10 Sr2 2.603284 1_556
O11 Zr1 2.134585 1_555
O11 Sr2 2.603284 1_655
O12 Zr0 2.122265 1_555
O12 Sr1 3.057379 1_555
O13 Zr1 2.122265 1_555
O13 Sr1 3.057379 1_565
O14 Zr2 2.122265 1_555
O14 Sr1 3.057379 1_556
O15 Zr3 2.122265 1_555
O15 Sr1 3.057379 1_566
O16 Zr0 2.136946 1_555
O16 Sr2 3.082077 1_555
O17 Zr3 2.136946 1_555
O17 Sr2 3.082077 1_556
O18 Zr1 2.136946 1_555
O18 Sr2 3.082077 1_655
O19 Zr2 2.136946 1_555
O19 Sr2 3.082077 1_656
O20 Zr0 2.136459 1_555
O20 Sr0 2.612289 1_555
O20 Sr3 3.073529 1_555
O21 Zr2 2.136459 1_555
O21 Sr0 2.612289 1_555
O21 Sr3 3.073529 1_655
O22 Zr3 2.136459 1_555
O22 Sr0 2.612289 1_565
O22 Sr3 3.073529 1_565
O23 Zr1 2.136459 1_555
O23 Sr0 2.612289 1_565
O23 Sr3 3.073529 1_665
