# generated using pymatgen
data_Sr2V3Bi3O14
_symmetry_space_group_name_H-M   'P 1'
_cell_length_a   7.26921934
_cell_length_b   7.21881186
_cell_length_c   14.40871888
_cell_angle_alpha   96.52422957
_cell_angle_beta   100.94520188
_cell_angle_gamma   110.71323445
_symmetry_Int_Tables_number   1
_chemical_formula_structural   Sr2V3Bi3O14
_chemical_formula_sum   'Sr4 V6 Bi6 O28'
_cell_volume   680.77541288
_cell_formula_units_Z   2
loop_
 _symmetry_equiv_pos_site_id
 _symmetry_equiv_pos_as_xyz
  1  'x, y, z'
loop_
 _atom_site_type_symbol
 _atom_site_label
 _atom_site_symmetry_multiplicity
 _atom_site_fract_x
 _atom_site_fract_y
 _atom_site_fract_z
 _atom_site_occupancy
  Sr  Sr0  1  0.14949900  0.71797600  0.93318300  1
  Sr  Sr1  1  0.85050100  0.28202400  0.06681700  1
  Sr  Sr2  1  0.08516600  0.75970300  0.44159800  1
  Sr  Sr3  1  0.91483400  0.24029700  0.55840200  1
  V  V0  1  0.64637300  0.70355100  0.92397500  1
  V  V1  1  0.35362700  0.29644900  0.07602500  1
  V  V2  1  0.60562000  0.76648900  0.42883400  1
  V  V3  1  0.39438000  0.23351100  0.57116600  1
  V  V4  1  0.83997900  0.23868500  0.80089700  1
  V  V5  1  0.16002100  0.76131500  0.19910300  1
  Bi  Bi0  1  0.37522700  0.77360300  0.69829700  1
  Bi  Bi1  1  0.62477300  0.22639700  0.30170300  1
  Bi  Bi2  1  0.86570900  0.70956200  0.67251300  1
  Bi  Bi3  1  0.13429100  0.29043800  0.32748700  1
  Bi  Bi4  1  0.66407500  0.78127500  0.16931300  1
  Bi  Bi5  1  0.33592500  0.21872500  0.83068700  1
  O  O0  1  0.83190600  0.80217900  0.86710300  1
  O  O1  1  0.16809400  0.19782100  0.13289700  1
  O  O2  1  0.66596300  0.64411800  0.33562000  1
  O  O3  1  0.33403700  0.35588200  0.66438000  1
  O  O4  1  0.81613100  0.11866100  0.22920900  1
  O  O5  1  0.18386900  0.88133900  0.77079100  1
  O  O6  1  0.36063700  0.53463900  0.05955100  1
  O  O7  1  0.63936300  0.46536100  0.94044900  1
  O  O8  1  0.42122100  0.89208800  0.19549300  1
  O  O9  1  0.57877900  0.10791200  0.80450700  1
  O  O10  1  0.81856400  0.83909200  0.52929600  1
  O  O11  1  0.18143600  0.16090800  0.47070400  1
  O  O12  1  0.59261000  0.34964800  0.15330400  1
  O  O13  1  0.40739000  0.65035200  0.84669600  1
  O  O14  1  0.92953300  0.38006000  0.39695400  1
  O  O15  1  0.07046700  0.61994000  0.60304600  1
  O  O16  1  0.60549500  0.99990800  0.40638500  1
  O  O17  1  0.39450500  0.00009200  0.59361500  1
  O  O18  1  0.00155100  0.68598500  0.08523800  1
  O  O19  1  0.99844900  0.31401500  0.91476200  1
  O  O20  1  0.67839600  0.88436800  0.02906700  1
  O  O21  1  0.32160400  0.11563200  0.97093300  1
  O  O22  1  0.37214800  0.61798400  0.44642300  1
  O  O23  1  0.62785200  0.38201600  0.55357700  1
  O  O24  1  0.08660500  0.90668800  0.27719600  1
  O  O25  1  0.91339500  0.09331200  0.72280400  1
  O  O26  1  0.12133200  0.54014100  0.24196300  1
  O  O27  1  0.87866800  0.45985900  0.75803700  1
loop_
_geom_bond_atom_site_label_1
_geom_bond_atom_site_label_2
_geom_bond_distance
_geom_bond_site_symmetry_2
Bi0 O5 2.182498 1_555
Bi0 O15 2.187015 1_555
Bi0 O17 2.333769 1_565
Bi0 O13 2.409974 1_555
Bi0 O9 2.475948 1_565
Bi1 O4 2.182498 1_555
Bi1 O14 2.187015 1_555
Bi1 O16 2.333769 1_545
Bi1 O12 2.409974 1_555
Bi1 O8 2.475948 1_545
Bi2 O15 2.176148 1_655
Bi2 O5 2.284825 1_655
Bi2 O27 2.314616 1_555
Bi2 O10 2.376283 1_555
Bi2 O23 2.564997 1_555
Bi2 O25 2.662429 1_565
Bi3 O14 2.176148 1_455
Bi3 O4 2.284825 1_455
Bi3 O26 2.314616 1_555
Bi3 O11 2.376283 1_555
Bi3 O22 2.564997 1_555
Bi3 O24 2.662429 1_545
Bi4 O20 2.239421 1_555
Bi4 O8 2.254317 1_555
Bi4 O4 2.270273 1_565
Bi4 O6 2.407051 1_555
Bi4 O2 2.694235 1_555
Bi5 O21 2.239421 1_555
Bi5 O9 2.254317 1_555
Bi5 O5 2.270273 1_545
Bi5 O7 2.407051 1_555
Bi5 O3 2.694235 1_555
O0 V0 1.694216 1_555
O0 Sr0 2.625905 1_655
O1 V1 1.694216 1_555
O1 Sr1 2.625905 1_455
O2 V2 1.733455 1_555
O2 Sr2 2.908387 1_655
O3 V3 1.733455 1_555
O3 Sr3 2.908387 1_455
O4 Sr1 2.751130 1_555
O5 Sr0 2.751130 1_555
O6 V1 1.746656 1_555
O6 Sr0 2.888915 1_554
O7 V0 1.746656 1_555
O7 Sr1 2.888915 1_556
O8 V5 1.811008 1_555
O9 V4 1.811008 1_555
O10 V2 1.780159 1_555
O10 Sr2 2.689235 1_655
O10 Sr3 2.689337 1_565
O11 V3 1.780159 1_555
O11 Sr3 2.689235 1_455
O11 Sr2 2.689337 1_545
O12 V1 1.761139 1_555
O12 Sr1 2.588794 1_555
O13 V0 1.761139 1_555
O13 Sr0 2.588794 1_555
O14 Sr2 2.516789 1_655
O14 Sr3 2.644297 1_555
O15 Sr3 2.516789 1_455
O15 Sr2 2.644297 1_555
O16 V2 1.751773 1_555
O16 Sr3 2.714972 1_565
O17 V3 1.751773 1_555
O17 Sr2 2.714972 1_545
O18 V5 1.717813 1_555
O18 Sr0 2.616130 1_554
O18 Sr1 2.688545 1_455
O19 V4 1.717813 1_555
O19 Sr1 2.616130 1_556
O19 Sr0 2.688545 1_655
O20 V0 1.803589 1_554
O20 Sr1 2.635854 1_565
O21 V1 1.803589 1_556
O21 Sr0 2.635854 1_545
O22 V2 1.741231 1_555
O22 Sr2 2.621869 1_555
O23 V3 1.741231 1_555
O23 Sr3 2.621869 1_555
O24 V5 1.734382 1_555
O24 Sr2 2.703702 1_555
O25 V4 1.734382 1_555
O25 Sr3 2.703702 1_555
O26 V5 1.726856 1_555
O26 Sr1 2.857677 1_455
O27 V4 1.726856 1_555
O27 Sr0 2.857677 1_655
