# generated using pymatgen
data_Mg14NbCrO16
_symmetry_space_group_name_H-M   'P 1'
_cell_length_a   8.72051120
_cell_length_b   8.61327139
_cell_length_c   4.28392296
_cell_angle_alpha   90.00000000
_cell_angle_beta   90.00000000
_cell_angle_gamma   90.00000000
_symmetry_Int_Tables_number   1
_chemical_formula_structural   Mg14NbCrO16
_chemical_formula_sum   'Mg14 Nb1 Cr1 O16'
_cell_volume   321.77457668
_cell_formula_units_Z   1
loop_
 _symmetry_equiv_pos_site_id
 _symmetry_equiv_pos_as_xyz
  1  'x, y, z'
loop_
 _atom_site_type_symbol
 _atom_site_label
 _atom_site_symmetry_multiplicity
 _atom_site_fract_x
 _atom_site_fract_y
 _atom_site_fract_z
 _atom_site_occupancy
  Mg  Mg0  1  0.50000000  -0.00000000  -0.00000000  1
  Mg  Mg1  1  0.50000000  0.50000000  -0.00000000  1
  Mg  Mg2  1  0.00000000  0.25480961  0.50000000  1
  Mg  Mg3  1  0.00000000  0.74519039  0.50000000  1
  Mg  Mg4  1  0.50000000  0.25064460  0.50000000  1
  Mg  Mg5  1  0.50000000  0.74935540  0.50000000  1
  Mg  Mg6  1  0.25539938  -0.00000000  0.50000000  1
  Mg  Mg7  1  0.25412750  0.50000000  0.50000000  1
  Mg  Mg8  1  0.74460062  -0.00000000  0.50000000  1
  Mg  Mg9  1  0.74587250  0.50000000  0.50000000  1
  Mg  Mg10  1  0.25440761  0.25307250  -0.00000000  1
  Mg  Mg11  1  0.25440761  0.74692750  0.00000000  1
  Mg  Mg12  1  0.74559239  0.25307250  0.00000000  1
  Mg  Mg13  1  0.74559239  0.74692750  -0.00000000  1
  Nb  Nb0  1  0.00000000  -0.00000000  -0.00000000  1
  Cr  Cr0  1  0.00000000  0.50000000  -0.00000000  1
  O  O0  1  0.26094637  -0.00000000  -0.00000000  1
  O  O1  1  0.26600289  0.50000000  -0.00000000  1
  O  O2  1  0.73905363  -0.00000000  0.00000000  1
  O  O3  1  0.73399711  0.50000000  -0.00000000  1
  O  O4  1  0.24858907  0.24960900  0.50000000  1
  O  O5  1  0.24858907  0.75039100  0.50000000  1
  O  O6  1  0.75141093  0.24960900  0.50000000  1
  O  O7  1  0.75141093  0.75039100  0.50000000  1
  O  O8  1  0.00000000  -0.00000000  0.50000000  1
  O  O9  1  0.00000000  0.50000000  0.50000000  1
  O  O10  1  0.50000000  -0.00000000  0.50000000  1
  O  O11  1  0.50000000  0.50000000  0.50000000  1
  O  O12  1  0.00000000  0.25895048  0.00000000  1
  O  O13  1  0.00000000  0.74104952  -0.00000000  1
  O  O14  1  0.50000000  0.24803206  -0.00000000  1
  O  O15  1  0.50000000  0.75196794  0.00000000  1
loop_
_geom_bond_atom_site_label_1
_geom_bond_atom_site_label_2
_geom_bond_distance
_geom_bond_site_symmetry_2
Mg0 O0 2.084670 1_555
Mg0 O2 2.084670 1_555
Mg0 O15 2.136367 1_545
Mg0 O14 2.136367 1_555
Mg0 O10 2.141961 1_555
Mg0 O10 2.141961 1_554
Mg1 O3 2.040574 1_555
Mg1 O1 2.040574 1_555
Mg1 O11 2.141961 1_554
Mg1 O11 2.141961 1_555
Mg1 O14 2.170268 1_555
Mg1 O15 2.170268 1_555
Mg2 O9 2.111891 1_555
Mg2 O12 2.142258 1_555
Mg2 O12 2.142258 1_556
Mg2 O6 2.168287 1_455
Mg2 O4 2.168287 1_555
Mg2 O8 2.194744 1_555
Mg3 O9 2.111891 1_555
Mg3 O13 2.142258 1_555
Mg3 O13 2.142258 1_556
Mg3 O7 2.168287 1_455
Mg3 O5 2.168287 1_555
Mg3 O8 2.194744 1_565
Mg4 O14 2.142080 1_555
Mg4 O14 2.142080 1_556
Mg4 O11 2.147766 1_555
Mg4 O10 2.158870 1_555
Mg4 O4 2.192450 1_555
Mg4 O6 2.192450 1_555
Mg5 O15 2.142080 1_556
Mg5 O15 2.142080 1_555
Mg5 O11 2.147766 1_555
Mg5 O10 2.158870 1_565
Mg5 O5 2.192450 1_555
Mg5 O7 2.192450 1_555
Mg6 O10 2.133042 1_555
Mg6 O0 2.142508 1_555
Mg6 O0 2.142508 1_556
Mg6 O4 2.150770 1_555
Mg6 O5 2.150770 1_545
Mg6 O8 2.227213 1_555
Mg7 O11 2.144134 1_555
Mg7 O1 2.144463 1_556
Mg7 O1 2.144463 1_555
Mg7 O5 2.157226 1_555
Mg7 O4 2.157226 1_555
Mg7 O9 2.216122 1_555
Mg8 O10 2.133042 1_555
Mg8 O2 2.142508 1_556
Mg8 O2 2.142508 1_555
Mg8 O6 2.150770 1_555
Mg8 O7 2.150770 1_545
Mg8 O8 2.227213 1_655
Mg9 O11 2.144134 1_555
Mg9 O3 2.144463 1_556
Mg9 O3 2.144463 1_555
Mg9 O7 2.157226 1_555
Mg9 O6 2.157226 1_555
Mg9 O9 2.216122 1_655
Mg10 O1 2.129256 1_555
Mg10 O14 2.142131 1_555
Mg10 O4 2.142770 1_554
Mg10 O4 2.142770 1_555
Mg10 O0 2.180528 1_555
Mg10 O12 2.219142 1_555
Mg11 O1 2.129256 1_555
Mg11 O15 2.142131 1_555
Mg11 O5 2.142770 1_555
Mg11 O5 2.142770 1_554
Mg11 O0 2.180528 1_565
Mg11 O13 2.219142 1_555
Mg12 O3 2.129256 1_555
Mg12 O14 2.142131 1_555
Mg12 O6 2.142770 1_554
Mg12 O6 2.142770 1_555
Mg12 O2 2.180528 1_555
Mg12 O12 2.219142 1_655
Mg13 O3 2.129256 1_555
Mg13 O15 2.142131 1_555
Mg13 O7 2.142770 1_554
Mg13 O7 2.142770 1_555
Mg13 O2 2.180528 1_565
Mg13 O13 2.219142 1_655
Nb0 O8 2.141961 1_555
Nb0 O8 2.141961 1_554
Nb0 O12 2.230411 1_555
Nb0 O13 2.230411 1_545
Nb0 O0 2.275586 1_555
Nb0 O2 2.275586 1_455
Cr0 O12 2.076225 1_555
Cr0 O13 2.076225 1_555
Cr0 O9 2.141961 1_554
Cr0 O9 2.141961 1_555
Cr0 O3 2.319681 1_455
Cr0 O1 2.319681 1_555
