# generated using pymatgen
data_BaSmEuVO6
_symmetry_space_group_name_H-M   'P 1'
_cell_length_a   8.42040440
_cell_length_b   8.54986690
_cell_length_c   8.47702759
_cell_angle_alpha   90.00000000
_cell_angle_beta   90.00000000
_cell_angle_gamma   90.00000000
_symmetry_Int_Tables_number   1
_chemical_formula_structural   BaSmEuVO6
_chemical_formula_sum   'Ba4 Sm4 Eu4 V4 O24'
_cell_volume   610.28950289
_cell_formula_units_Z   4
loop_
 _symmetry_equiv_pos_site_id
 _symmetry_equiv_pos_as_xyz
  1  'x, y, z'
loop_
 _atom_site_type_symbol
 _atom_site_label
 _atom_site_symmetry_multiplicity
 _atom_site_fract_x
 _atom_site_fract_y
 _atom_site_fract_z
 _atom_site_occupancy
  Ba  Ba0  1  0.00000000  0.00000000  -0.00000000  1
  Ba  Ba1  1  0.50000000  0.50000000  0.50000000  1
  Ba  Ba2  1  0.50000000  0.50000000  -0.00000000  1
  Ba  Ba3  1  0.00000000  0.00000000  0.50000000  1
  Sm  Sm0  1  0.75000000  0.75000000  0.75000000  1
  Sm  Sm1  1  0.25000000  0.25000000  0.75000000  1
  Sm  Sm2  1  0.25000000  0.75000000  0.25000000  1
  Sm  Sm3  1  0.75000000  0.25000000  0.25000000  1
  Eu  Eu0  1  0.00000000  0.50000000  0.50000000  1
  Eu  Eu1  1  0.50000000  0.00000000  0.50000000  1
  Eu  Eu2  1  0.50000000  0.00000000  0.00000000  1
  Eu  Eu3  1  0.00000000  0.50000000  0.00000000  1
  V  V0  1  0.25000000  0.25000000  0.25000000  1
  V  V1  1  0.75000000  0.75000000  0.25000000  1
  V  V2  1  0.75000000  0.25000000  0.75000000  1
  V  V3  1  0.25000000  0.75000000  0.75000000  1
  O  O0  1  0.02350045  0.22556541  0.27482736  1
  O  O1  1  0.97649955  0.77443459  0.27482736  1
  O  O2  1  0.97649955  0.22556541  0.72517264  1
  O  O3  1  0.02350045  0.77443459  0.72517264  1
  O  O4  1  0.28086831  0.02091843  0.21848104  1
  O  O5  1  0.28086831  0.97908157  0.78151896  1
  O  O6  1  0.71913169  0.97908157  0.21848104  1
  O  O7  1  0.71913169  0.02091843  0.78151896  1
  O  O8  1  0.21770703  0.27945393  0.02128129  1
  O  O9  1  0.78229297  0.27945393  0.97871871  1
  O  O10  1  0.21770703  0.72054607  0.97871871  1
  O  O11  1  0.78229297  0.72054607  0.02128129  1
  O  O12  1  0.47649955  0.27443459  0.22517264  1
  O  O13  1  0.52350045  0.72556541  0.22517264  1
  O  O14  1  0.52350045  0.27443459  0.77482736  1
  O  O15  1  0.47649955  0.72556541  0.77482736  1
  O  O16  1  0.21913169  0.47908157  0.28151896  1
  O  O17  1  0.21913169  0.52091843  0.71848104  1
  O  O18  1  0.78086831  0.52091843  0.28151896  1
  O  O19  1  0.78086831  0.47908157  0.71848104  1
  O  O20  1  0.28229297  0.22054607  0.47871871  1
  O  O21  1  0.71770703  0.22054607  0.52128129  1
  O  O22  1  0.28229297  0.77945393  0.52128129  1
  O  O23  1  0.71770703  0.77945393  0.47871871  1
loop_
_geom_bond_atom_site_label_1
_geom_bond_atom_site_label_2
_geom_bond_distance
_geom_bond_site_symmetry_2
Ba0 O5 3.009234 1_544
Ba0 O7 3.009234 1_454
Ba0 O6 3.009234 1_445
Ba0 O4 3.009234 1_555
Ba0 O10 3.016923 1_544
Ba0 O8 3.016923 1_555
Ba0 O9 3.016923 1_454
Ba0 O11 3.016923 1_445
Ba0 O3 3.030853 1_544
Ba0 O1 3.030853 1_445
Ba0 O2 3.030853 1_454
Ba0 O0 3.030853 1_555
Ba1 O19 3.009234 1_555
Ba1 O16 3.009234 1_555
Ba1 O17 3.009234 1_555
Ba1 O18 3.009234 1_555
Ba1 O22 3.016923 1_555
Ba1 O20 3.016923 1_555
Ba1 O23 3.016923 1_555
Ba1 O21 3.016923 1_555
Ba1 O13 3.030853 1_555
Ba1 O15 3.030853 1_555
Ba1 O14 3.030853 1_555
Ba1 O12 3.030853 1_555
Ba2 O15 2.720657 1_554
Ba2 O13 2.720657 1_555
Ba2 O12 2.720657 1_555
Ba2 O14 2.720657 1_554
Ba2 O10 3.039475 1_554
Ba2 O11 3.039475 1_555
Ba2 O9 3.039475 1_554
Ba2 O8 3.039475 1_555
Ba3 O1 2.720657 1_445
Ba3 O2 2.720657 1_455
Ba3 O3 2.720657 1_545
Ba3 O0 2.720657 1_555
Ba3 O23 3.039475 1_445
Ba3 O21 3.039475 1_455
Ba3 O20 3.039475 1_555
Ba3 O22 3.039475 1_545
Eu0 O18 2.620464 1_455
Eu0 O19 2.620464 1_455
Eu0 O16 2.620464 1_555
Eu0 O17 2.620464 1_555
Eu0 O0 3.031196 1_555
Eu0 O3 3.031196 1_555
Eu0 O2 3.031196 1_455
Eu0 O1 3.031196 1_455
Eu1 O20 2.636045 1_555
Eu1 O22 2.636045 1_545
Eu1 O21 2.636045 1_555
Eu1 O23 2.636045 1_545
Eu1 O7 3.021884 1_555
Eu1 O5 3.021884 1_545
Eu1 O4 3.021884 1_555
Eu1 O6 3.021884 1_545
Eu2 O7 2.620464 1_554
Eu2 O5 2.620464 1_544
Eu2 O4 2.620464 1_555
Eu2 O6 2.620464 1_545
Eu2 O12 3.031196 1_555
Eu2 O14 3.031196 1_554
Eu2 O13 3.031196 1_545
Eu2 O15 3.031196 1_544
Eu3 O8 2.636045 1_555
Eu3 O9 2.636045 1_454
Eu3 O10 2.636045 1_554
Eu3 O11 2.636045 1_455
Eu3 O19 3.021884 1_454
Eu3 O16 3.021884 1_555
Eu3 O17 3.021884 1_554
Eu3 O18 3.021884 1_455
O0 V0 1.930134 1_555
O0 Sm3 2.321998 1_455
O1 V1 1.930134 1_555
O1 Sm2 2.321998 1_655
O2 V2 1.930134 1_555
O2 Sm1 2.321998 1_655
O3 V3 1.930134 1_555
O3 Sm0 2.321998 1_455
O4 V0 1.993773 1_555
O4 Sm2 2.346118 1_545
O5 V3 1.993773 1_555
O5 Sm1 2.346118 1_565
O6 V1 1.993773 1_555
O6 Sm3 2.346118 1_565
O7 V2 1.993773 1_555
O7 Sm0 2.346118 1_545
O8 V0 1.973959 1_555
O8 Sm1 2.329332 1_554
O9 V2 1.973959 1_555
O9 Sm3 2.329332 1_556
O10 V3 1.973959 1_555
O10 Sm2 2.329332 1_556
O11 V1 1.973959 1_555
O11 Sm0 2.329332 1_554
O12 V0 1.930134 1_555
O12 Sm3 2.321998 1_555
O13 V1 1.930134 1_555
O13 Sm2 2.321998 1_555
O14 V2 1.930134 1_555
O14 Sm1 2.321998 1_555
O15 V3 1.930134 1_555
O15 Sm0 2.321998 1_555
O16 V0 1.993773 1_555
O16 Sm2 2.346118 1_555
O17 V3 1.993773 1_555
O17 Sm1 2.346118 1_555
O18 V1 1.993773 1_555
O18 Sm3 2.346118 1_555
O19 V2 1.993773 1_555
O19 Sm0 2.346118 1_555
O20 V0 1.973959 1_555
O20 Sm1 2.329332 1_555
O21 V2 1.973959 1_555
O21 Sm3 2.329332 1_555
O22 V3 1.973959 1_555
O22 Sm2 2.329332 1_555
O23 V1 1.973959 1_555
O23 Sm0 2.329332 1_555
