# generated using pymatgen
data_NpH3
_symmetry_space_group_name_H-M   'P 1'
_cell_length_a   3.73122585
_cell_length_b   3.73122585
_cell_length_c   6.66533408
_cell_angle_alpha   90.00000000
_cell_angle_beta   90.00000000
_cell_angle_gamma   120.00001536
_symmetry_Int_Tables_number   1
_chemical_formula_structural   NpH3
_chemical_formula_sum   'Np2 H6'
_cell_volume   80.36289265
_cell_formula_units_Z   2
loop_
 _symmetry_equiv_pos_site_id
 _symmetry_equiv_pos_as_xyz
  1  'x, y, z'
loop_
 _atom_site_type_symbol
 _atom_site_label
 _atom_site_symmetry_multiplicity
 _atom_site_fract_x
 _atom_site_fract_y
 _atom_site_fract_z
 _atom_site_occupancy
  Np  Np0  1  0.33333300  0.66666700  0.25000000  1
  Np  Np1  1  0.66666700  0.33333300  0.75000000  1
  H  H0  1  -0.00000000  -0.00000000  0.25000000  1
  H  H1  1  0.00000000  -0.00000000  0.75000000  1
  H  H2  1  0.33333300  0.66666700  0.90584996  1
  H  H3  1  0.66666700  0.33333300  0.09415004  1
  H  H4  1  0.66666700  0.33333300  0.40584996  1
  H  H5  1  0.33333300  0.66666700  0.59415004  1
loop_
_geom_bond_atom_site_label_1
_geom_bond_atom_site_label_2
_geom_bond_distance
_geom_bond_site_symmetry_2
H0 Np0 2.154222 1_545
H0 Np0 2.154225 1_555
H0 Np0 2.154225 1_445
H1 Np1 2.154222 1_455
H1 Np1 2.154225 1_445
H1 Np1 2.154225 1_555
H2 Np0 2.293875 1_556
H2 Np1 2.391602 1_455
H2 Np1 2.391602 1_565
H2 Np1 2.391608 1_555
H3 Np1 2.293875 1_554
H3 Np0 2.391602 1_545
H3 Np0 2.391602 1_655
H3 Np0 2.391608 1_555
H4 Np1 2.293875 1_555
H4 Np0 2.391602 1_545
H4 Np0 2.391602 1_655
H4 Np0 2.391608 1_555
H5 Np0 2.293875 1_555
H5 Np1 2.391602 1_455
H5 Np1 2.391602 1_565
H5 Np1 2.391608 1_555
