# generated using pymatgen
data_Ba2NaMn3F11
_symmetry_space_group_name_H-M   'P 1'
_cell_length_a   12.63677631
_cell_length_b   12.63677631
_cell_length_c   12.63677700
_cell_angle_alpha   32.71076065
_cell_angle_beta   32.71076065
_cell_angle_gamma   32.71075945
_symmetry_Int_Tables_number   1
_chemical_formula_structural   Ba2NaMn3F11
_chemical_formula_sum   'Ba4 Na2 Mn6 F22'
_cell_volume   524.18219465
_cell_formula_units_Z   2
loop_
 _symmetry_equiv_pos_site_id
 _symmetry_equiv_pos_as_xyz
  1  'x, y, z'
loop_
 _atom_site_type_symbol
 _atom_site_label
 _atom_site_symmetry_multiplicity
 _atom_site_fract_x
 _atom_site_fract_y
 _atom_site_fract_z
 _atom_site_occupancy
  Ba  Ba0  1  0.68865000  0.68865000  0.68865000  1
  Ba  Ba1  1  0.18865000  0.18865000  0.18865000  1
  Ba  Ba2  1  0.31014600  0.31014600  0.31014600  1
  Ba  Ba3  1  0.81014600  0.81014600  0.81014600  1
  Na  Na0  1  0.49981400  0.49981400  0.49981400  1
  Na  Na1  1  0.99981400  0.99981400  0.99981400  1
  Mn  Mn0  1  0.19776100  0.74440500  0.30670600  1
  Mn  Mn1  1  0.74440500  0.30670600  0.19776100  1
  Mn  Mn2  1  0.30670600  0.19776100  0.74440500  1
  Mn  Mn3  1  0.24440500  0.69776100  0.80670600  1
  Mn  Mn4  1  0.69776100  0.80670600  0.24440500  1
  Mn  Mn5  1  0.80670600  0.24440500  0.69776100  1
  F  F0  1  0.57414200  0.57414200  0.57414200  1
  F  F1  1  0.07414200  0.07414200  0.07414200  1
  F  F2  1  0.43048000  0.43048000  0.43048000  1
  F  F3  1  0.93048000  0.93048000  0.93048000  1
  F  F4  1  0.33761000  0.67182000  0.90793600  1
  F  F5  1  0.67182000  0.90793600  0.33761000  1
  F  F6  1  0.90793600  0.33761000  0.67182000  1
  F  F7  1  0.17182000  0.83761000  0.40793600  1
  F  F8  1  0.83761000  0.40793600  0.17182000  1
  F  F9  1  0.40793600  0.17182000  0.83761000  1
  F  F10  1  0.67502600  0.31381000  0.08969500  1
  F  F11  1  0.31381000  0.08969500  0.67502600  1
  F  F12  1  0.08969500  0.67502600  0.31381000  1
  F  F13  1  0.81381000  0.17502600  0.58969500  1
  F  F14  1  0.17502600  0.58969500  0.81381000  1
  F  F15  1  0.58969500  0.81381000  0.17502600  1
  F  F16  1  0.50941600  0.22090300  0.01778000  1
  F  F17  1  0.22090300  0.01778000  0.50941600  1
  F  F18  1  0.01778000  0.50941600  0.22090300  1
  F  F19  1  0.72090300  0.00941600  0.51778000  1
  F  F20  1  0.00941600  0.51778000  0.72090300  1
  F  F21  1  0.51778000  0.72090300  0.00941600  1
loop_
_geom_bond_atom_site_label_1
_geom_bond_atom_site_label_2
_geom_bond_distance
_geom_bond_site_symmetry_2
Ba0 F4 2.704091 1_555
Ba0 F6 2.704091 1_555
Ba0 F5 2.704091 1_555
Ba0 F11 2.767214 1_565
Ba0 F12 2.767214 1_655
Ba0 F10 2.767214 1_556
Ba0 F19 2.798106 1_565
Ba0 F20 2.798106 1_655
Ba0 F21 2.798106 1_556
Ba1 F7 2.704091 1_545
Ba1 F8 2.704091 1_455
Ba1 F9 2.704091 1_554
Ba1 F15 2.767214 1_545
Ba1 F14 2.767214 1_554
Ba1 F13 2.767214 1_455
Ba1 F16 2.798106 1_555
Ba1 F18 2.798106 1_555
Ba1 F17 2.798106 1_555
Ba2 F5 2.729778 1_545
Ba2 F6 2.729778 1_455
Ba2 F4 2.729778 1_554
Ba2 F10 2.747654 1_555
Ba2 F12 2.747654 1_555
Ba2 F11 2.747654 1_555
Ba2 F17 2.799872 1_555
Ba2 F18 2.799873 1_555
Ba2 F16 2.799873 1_555
Ba3 F9 2.729778 1_565
Ba3 F8 2.729778 1_556
Ba3 F7 2.729778 1_655
Ba3 F13 2.747654 1_565
Ba3 F14 2.747654 1_655
Ba3 F15 2.747654 1_556
Ba3 F21 2.799872 1_556
Ba3 F20 2.799873 1_655
Ba3 F19 2.799873 1_565
F0 Mn5 2.145744 1_555
F0 Mn3 2.145744 1_555
F0 Mn4 2.145744 1_555
F0 Na0 2.664680 1_555
F1 Mn1 2.145744 1_455
F1 Mn0 2.145744 1_545
F1 Mn2 2.145744 1_554
F1 Na1 2.664680 1_444
F2 Mn0 2.121029 1_555
F2 Mn1 2.121029 1_555
F2 Mn2 2.121029 1_555
F2 Na0 2.485644 1_555
F3 Mn3 2.121029 1_655
F3 Mn5 2.121029 1_565
F3 Mn4 2.121029 1_556
F3 Na1 2.485644 1_555
F4 Mn3 2.076334 1_555
F4 Na1 2.594827 1_455
F5 Mn4 2.076334 1_555
F5 Na1 2.594828 1_554
F6 Mn5 2.076334 1_555
F6 Na1 2.594828 1_545
F7 Mn0 2.076334 1_555
F7 Na0 2.594827 1_555
F8 Mn1 2.076334 1_555
F8 Na0 2.594828 1_555
F9 Mn2 2.076334 1_555
F9 Na0 2.594828 1_555
F10 Mn1 2.077888 1_555
F10 Na1 2.492668 1_544
F11 Mn2 2.077888 1_555
F11 Na1 2.492668 1_445
F12 Mn0 2.077888 1_555
F12 Na1 2.492669 1_454
F13 Mn5 2.077888 1_555
F13 Na0 2.492668 1_555
F14 Mn3 2.077888 1_555
F14 Na0 2.492669 1_555
F15 Mn4 2.077888 1_555
F15 Na0 2.492668 1_555
F16 Mn5 2.201346 1_554
F16 Mn4 2.558098 1_545
F17 Mn3 2.201346 1_545
F17 Mn5 2.558098 1_455
F18 Mn4 2.201346 1_455
F18 Mn3 2.558099 1_554
F19 Mn1 2.201346 1_555
F19 Mn2 2.558098 1_555
F20 Mn2 2.201346 1_555
F20 Mn0 2.558099 1_555
F21 Mn0 2.201346 1_555
F21 Mn1 2.558098 1_555
