# generated using pymatgen
data_Mn3V2Si3
_symmetry_space_group_name_H-M   'P 1'
_cell_length_a   7.06752818
_cell_length_b   7.06752818
_cell_length_c   4.79580000
_cell_angle_alpha   90.00000000
_cell_angle_beta   90.00000000
_cell_angle_gamma   120.00000170
_symmetry_Int_Tables_number   1
_chemical_formula_structural   Mn3V2Si3
_chemical_formula_sum   'Mn6 V4 Si6'
_cell_volume   207.45637523
_cell_formula_units_Z   2
loop_
 _symmetry_equiv_pos_site_id
 _symmetry_equiv_pos_as_xyz
  1  'x, y, z'
loop_
 _atom_site_type_symbol
 _atom_site_label
 _atom_site_symmetry_multiplicity
 _atom_site_fract_x
 _atom_site_fract_y
 _atom_site_fract_z
 _atom_site_occupancy
  Mn  Mn0  1  0.73903300  0.73903300  0.25000000  1
  Mn  Mn1  1  0.26096700  0.00000000  0.25000000  1
  Mn  Mn2  1  0.00000000  0.26096700  0.25000000  1
  Mn  Mn3  1  0.26096700  0.26096700  0.75000000  1
  Mn  Mn4  1  0.73903300  0.00000000  0.75000000  1
  Mn  Mn5  1  0.00000000  0.73903300  0.75000000  1
  V  V0  1  0.66666700  0.33333300  0.50000000  1
  V  V1  1  0.33333300  0.66666700  0.50000000  1
  V  V2  1  0.33333300  0.66666700  0.00000000  1
  V  V3  1  0.66666700  0.33333300  0.00000000  1
  Si  Si0  1  0.38065600  0.38065600  0.25000000  1
  Si  Si1  1  0.61934400  0.00000000  0.25000000  1
  Si  Si2  1  0.00000000  0.61934400  0.25000000  1
  Si  Si3  1  0.61934400  0.61934400  0.75000000  1
  Si  Si4  1  0.38065600  0.00000000  0.75000000  1
  Si  Si5  1  0.00000000  0.38065600  0.75000000  1
loop_
_geom_bond_atom_site_label_1
_geom_bond_atom_site_label_2
_geom_bond_distance
_geom_bond_site_symmetry_2
Mn0 Si1 2.382754 1_565
Mn0 Si2 2.382754 1_655
Mn0 Si0 2.532839 1_555
Mn0 Si3 2.542731 1_554
Mn0 Si3 2.542731 1_555
Mn1 Si2 2.382754 1_545
Mn1 Si0 2.382754 1_555
Mn1 Si1 2.532840 1_555
Mn1 Si4 2.542731 1_554
Mn1 Si4 2.542731 1_555
Mn2 Si1 2.382754 1_455
Mn2 Si0 2.382754 1_555
Mn2 Si2 2.532840 1_555
Mn2 Si5 2.542731 1_554
Mn2 Si5 2.542731 1_555
Mn3 Si5 2.382754 1_555
Mn3 Si4 2.382754 1_555
Mn3 Si3 2.532839 1_555
Mn3 Si0 2.542731 1_556
Mn3 Si0 2.542731 1_555
Mn4 Si5 2.382754 1_655
Mn4 Si3 2.382754 1_545
Mn4 Si4 2.532840 1_555
Mn4 Si1 2.542731 1_556
Mn4 Si1 2.542731 1_555
Mn5 Si4 2.382754 1_565
Mn5 Si3 2.382754 1_455
Mn5 Si5 2.532840 1_555
Mn5 Si2 2.542731 1_556
Mn5 Si2 2.542731 1_555
V0 V3 2.397900 1_556
V0 V3 2.397900 1_555
V1 V2 2.397900 1_556
V1 V2 2.397900 1_555
Si0 V3 2.512256 1_555
Si0 V0 2.512256 1_555
Si0 V2 2.512256 1_555
Si0 V1 2.512256 1_555
Si1 V3 2.512250 1_555
Si1 V0 2.512250 1_555
Si1 V2 2.512252 1_545
Si1 V1 2.512252 1_545
Si2 V1 2.512250 1_555
Si2 V2 2.512250 1_555
Si2 V3 2.512252 1_455
Si2 V0 2.512252 1_455
Si3 V2 2.512256 1_556
Si3 V1 2.512256 1_555
Si3 V3 2.512256 1_556
Si3 V0 2.512256 1_555
Si4 V1 2.512250 1_545
Si4 V2 2.512250 1_546
Si4 V0 2.512252 1_555
Si4 V3 2.512252 1_556
Si5 V3 2.512250 1_456
Si5 V0 2.512250 1_455
Si5 V1 2.512252 1_555
Si5 V2 2.512252 1_556
