# generated using pymatgen
data_CaTi(GeO3)2
_symmetry_space_group_name_H-M   'P 1'
_cell_length_a   8.69475100
_cell_length_b   5.41733800
_cell_length_c   12.18759108
_cell_angle_alpha   77.25828107
_cell_angle_beta   90.00000000
_cell_angle_gamma   90.00000000
_symmetry_Int_Tables_number   1
_chemical_formula_structural   CaTi(GeO3)2
_chemical_formula_sum   'Ca4 Ti4 Ge8 O24'
_cell_volume   559.92804946
_cell_formula_units_Z   4
loop_
 _symmetry_equiv_pos_site_id
 _symmetry_equiv_pos_as_xyz
  1  'x, y, z'
loop_
 _atom_site_type_symbol
 _atom_site_label
 _atom_site_symmetry_multiplicity
 _atom_site_fract_x
 _atom_site_fract_y
 _atom_site_fract_z
 _atom_site_occupancy
  Ca  Ca0  1  0.41764200  0.52087300  0.26235900  1
  Ca  Ca1  1  0.91764200  0.97912700  0.73764100  1
  Ca  Ca2  1  0.58235800  0.47912700  0.73764100  1
  Ca  Ca3  1  0.08235800  0.02087300  0.26235900  1
  Ti  Ti0  1  0.66426300  0.01878800  0.27985800  1
  Ti  Ti1  1  0.16426300  0.48121200  0.72014200  1
  Ti  Ti2  1  0.33573700  0.98121200  0.72014200  1
  Ti  Ti3  1  0.83573700  0.51878800  0.27985800  1
  Ge  Ge0  1  0.36742900  0.16730400  0.06995800  1
  Ge  Ge1  1  0.86742900  0.33269600  0.93004200  1
  Ge  Ge2  1  0.63257100  0.83269600  0.93004200  1
  Ge  Ge3  1  0.13257100  0.66730400  0.06995800  1
  Ge  Ge4  1  0.35245500  0.87520700  0.47789300  1
  Ge  Ge5  1  0.85245500  0.62479300  0.52210700  1
  Ge  Ge6  1  0.64754500  0.12479300  0.52210700  1
  Ge  Ge7  1  0.14754500  0.37520700  0.47789300  1
  O  O0  1  0.25279500  0.65138300  0.40278100  1
  O  O1  1  0.75279500  0.84861700  0.59721900  1
  O  O2  1  0.74720500  0.34861700  0.59721900  1
  O  O3  1  0.24720500  0.15138300  0.40278100  1
  O  O4  1  0.27815000  0.85456200  0.14605700  1
  O  O5  1  0.77815000  0.64543800  0.85394300  1
  O  O6  1  0.72185000  0.14543800  0.85394300  1
  O  O7  1  0.22185000  0.35456200  0.14605700  1
  O  O8  1  0.95986000  0.35919800  0.42402300  1
  O  O9  1  0.45986000  0.14080200  0.57597700  1
  O  O10  1  0.04014000  0.64080200  0.57597700  1
  O  O11  1  0.54014000  0.85919800  0.42402300  1
  O  O12  1  0.99294400  0.67654100  0.19496300  1
  O  O13  1  0.49294400  0.82345900  0.80503700  1
  O  O14  1  0.00705600  0.32345900  0.80503700  1
  O  O15  1  0.50705600  0.17654100  0.19496300  1
  O  O16  1  0.33517200  0.27482100  0.77941300  1
  O  O17  1  0.83517200  0.22517900  0.22058700  1
  O  O18  1  0.66482800  0.72517900  0.22058700  1
  O  O19  1  0.16482800  0.77482100  0.77941300  1
  O  O20  1  0.34098000  0.70020400  0.61884100  1
  O  O21  1  0.84098000  0.79979600  0.38115900  1
  O  O22  1  0.65902000  0.29979600  0.38115900  1
  O  O23  1  0.15902000  0.20020400  0.61884100  1
loop_
_geom_bond_atom_site_label_1
_geom_bond_atom_site_label_2
_geom_bond_distance
_geom_bond_site_symmetry_2
Ca0 O15 2.331210 1_555
Ca0 O4 2.370163 1_555
Ca0 O18 2.419664 1_555
Ca0 O0 2.452934 1_555
Ca0 O7 2.506440 1_555
Ca0 O22 2.677770 1_555
Ca0 O3 2.760521 1_555
Ca1 O14 2.331210 1_665
Ca1 O5 2.370163 1_555
Ca1 O19 2.419664 1_655
Ca1 O1 2.452934 1_555
Ca1 O6 2.506440 1_565
Ca1 O23 2.677770 1_665
Ca1 O2 2.760521 1_565
Ca2 O13 2.331210 1_555
Ca2 O6 2.370163 1_555
Ca2 O16 2.419664 1_555
Ca2 O2 2.452934 1_555
Ca2 O5 2.506440 1_555
Ca2 O20 2.677770 1_555
Ca2 O1 2.760521 1_555
Ca3 O12 2.331210 1_445
Ca3 O7 2.370163 1_555
Ca3 O17 2.419664 1_455
Ca3 O3 2.452934 1_555
Ca3 O4 2.506440 1_545
Ca3 O21 2.677770 1_445
Ca3 O0 2.760521 1_545
Ge0 O4 1.907889 1_545
Ge0 O15 1.957311 1_555
Ge0 O7 1.976482 1_555
Ge1 O5 1.907889 1_555
Ge1 O14 1.957311 1_655
Ge1 O6 1.976482 1_555
Ge2 O6 1.907889 1_565
Ge2 O13 1.957311 1_555
Ge2 O5 1.976482 1_555
Ge3 O7 1.907889 1_555
Ge3 O12 1.957311 1_455
Ge3 O4 1.976482 1_555
Ge4 O11 1.768249 1_555
Ge4 O20 1.772360 1_555
Ge4 O3 1.819270 1_565
Ge4 O0 1.883809 1_555
Ge4 O9 2.264949 1_565
Ge5 O10 1.768249 1_655
Ge5 O21 1.772360 1_555
Ge5 O2 1.819270 1_555
Ge5 O1 1.883809 1_555
Ge5 O8 2.264949 1_555
Ge6 O9 1.768249 1_555
Ge6 O22 1.772360 1_555
Ge6 O1 1.819270 1_545
Ge6 O2 1.883809 1_555
Ge6 O11 2.264949 1_545
Ge7 O8 1.768249 1_455
Ge7 O23 1.772360 1_555
Ge7 O0 1.819270 1_555
Ge7 O3 1.883809 1_555
Ge7 O10 2.264949 1_555
O8 Ti3 2.080680 1_555
O9 Ti2 2.080680 1_545
O10 Ti1 2.080680 1_555
O11 Ti0 2.080680 1_565
O12 Ti3 1.810851 1_555
O13 Ti2 1.810851 1_555
O14 Ti1 1.810851 1_555
O15 Ti0 1.810851 1_555
O16 Ti2 1.886430 1_545
O16 Ti1 1.903654 1_555
O17 Ti3 1.886430 1_555
O17 Ti0 1.903654 1_555
O18 Ti0 1.886430 1_565
O18 Ti3 1.903654 1_555
O19 Ti1 1.886430 1_555
O19 Ti2 1.903654 1_555
O20 Ti1 2.155569 1_555
O20 Ti2 2.161679 1_555
O21 Ti0 2.155569 1_565
O21 Ti3 2.161679 1_555
O22 Ti3 2.155569 1_555
O22 Ti0 2.161679 1_555
O23 Ti2 2.155569 1_545
O23 Ti1 2.161679 1_555
