# generated using pymatgen
data_Nd3Sm
_symmetry_space_group_name_H-M   'P 1'
_cell_length_a   7.49315686
_cell_length_b   7.49315686
_cell_length_c   5.85911057
_cell_angle_alpha   90.00000000
_cell_angle_beta   90.00000000
_cell_angle_gamma   119.99999626
_symmetry_Int_Tables_number   1
_chemical_formula_structural   Nd3Sm
_chemical_formula_sum   'Nd6 Sm2'
_cell_volume   284.89969856
_cell_formula_units_Z   2
loop_
 _symmetry_equiv_pos_site_id
 _symmetry_equiv_pos_as_xyz
  1  'x, y, z'
loop_
 _atom_site_type_symbol
 _atom_site_label
 _atom_site_symmetry_multiplicity
 _atom_site_fract_x
 _atom_site_fract_y
 _atom_site_fract_z
 _atom_site_occupancy
  Nd  Nd0  1  0.16678431  0.33356762  0.25000000  1
  Nd  Nd1  1  0.66643238  0.83321569  0.25000000  1
  Nd  Nd2  1  0.16678431  0.83321569  0.25000000  1
  Nd  Nd3  1  0.83321569  0.66643238  0.75000000  1
  Nd  Nd4  1  0.33356762  0.16678431  0.75000000  1
  Nd  Nd5  1  0.83321569  0.16678431  0.75000000  1
  Sm  Sm0  1  0.33333300  0.66666700  0.75000000  1
  Sm  Sm1  1  0.66666700  0.33333300  0.25000000  1
loop_
_geom_bond_atom_site_label_1
_geom_bond_atom_site_label_2
_geom_bond_distance
_geom_bond_site_symmetry_2
Nd0 Sm0 3.640698 1_555
Nd0 Sm0 3.640698 1_554
Nd0 Nd4 3.642499 1_555
Nd0 Nd4 3.642499 1_554
Nd0 Nd5 3.642506 1_455
Nd0 Nd5 3.642506 1_454
Nd0 Nd2 3.743941 1_555
Nd0 Nd1 3.743942 1_555
Nd0 Sm1 3.746579 1_555
Nd0 Sm1 3.746579 1_455
Nd0 Nd2 3.749215 1_545
Nd0 Nd1 3.749216 1_445
Nd1 Sm0 3.640698 1_555
Nd1 Sm0 3.640698 1_554
Nd1 Nd3 3.642499 1_554
Nd1 Nd3 3.642499 1_555
Nd1 Nd5 3.642506 1_565
Nd1 Nd5 3.642506 1_564
Nd1 Nd2 3.743941 1_555
Nd1 Sm1 3.746579 1_555
Nd1 Sm1 3.746579 1_565
Nd1 Nd2 3.749215 1_655
Nd2 Sm0 3.640690 1_555
Nd2 Sm0 3.640690 1_554
Nd2 Nd4 3.642506 1_565
Nd2 Nd4 3.642506 1_564
Nd2 Nd3 3.642506 1_455
Nd2 Nd3 3.642506 1_454
Nd2 Sm1 3.746579 1_455
Nd2 Sm1 3.746579 1_565
Nd3 Sm1 3.640698 1_556
Nd3 Sm1 3.640698 1_555
Nd3 Nd5 3.743941 1_555
Nd3 Nd4 3.743942 1_555
Nd3 Sm0 3.746579 1_555
Nd3 Sm0 3.746579 1_655
Nd3 Nd5 3.749215 1_565
Nd3 Nd4 3.749216 1_665
Nd4 Sm1 3.640698 1_556
Nd4 Sm1 3.640698 1_555
Nd4 Nd5 3.743941 1_555
Nd4 Sm0 3.746579 1_555
Nd4 Sm0 3.746579 1_545
Nd4 Nd5 3.749215 1_455
Nd5 Sm1 3.640690 1_555
Nd5 Sm1 3.640690 1_556
Nd5 Sm0 3.746579 1_545
Nd5 Sm0 3.746579 1_655
