# generated using pymatgen
data_TlReO2
_symmetry_space_group_name_H-M   'P 1'
_cell_length_a   8.05024038
_cell_length_b   8.05024038
_cell_length_c   8.05024038
_cell_angle_alpha   131.53817649
_cell_angle_beta   131.53817649
_cell_angle_gamma   70.95941223
_symmetry_Int_Tables_number   1
_chemical_formula_structural   TlReO2
_chemical_formula_sum   'Tl4 Re4 O8'
_cell_volume   286.23903433
_cell_formula_units_Z   4
loop_
 _symmetry_equiv_pos_site_id
 _symmetry_equiv_pos_as_xyz
  1  'x, y, z'
loop_
 _atom_site_type_symbol
 _atom_site_label
 _atom_site_symmetry_multiplicity
 _atom_site_fract_x
 _atom_site_fract_y
 _atom_site_fract_z
 _atom_site_occupancy
  Tl  Tl0  1  0.87500000  0.62500000  0.25000000  1
  Tl  Tl1  1  0.37500000  0.62500000  0.75000000  1
  Tl  Tl2  1  0.37500000  0.62500000  0.25000000  1
  Tl  Tl3  1  0.37500000  0.12500000  0.75000000  1
  Re  Re0  1  0.37500000  0.12500000  0.25000000  1
  Re  Re1  1  0.87500000  0.12500000  0.75000000  1
  Re  Re2  1  0.87500000  0.12500000  0.25000000  1
  Re  Re3  1  0.87500000  0.62500000  0.75000000  1
  O  O0  1  0.13636000  0.31231500  0.17595500  1
  O  O1  1  0.13636000  0.96040500  0.82404500  1
  O  O2  1  0.06231500  0.38636000  0.67595500  1
  O  O3  1  0.61364000  0.93768500  0.32404500  1
  O  O4  1  0.71040500  0.38636000  0.32404500  1
  O  O5  1  0.61364000  0.28959500  0.67595500  1
  O  O6  1  0.68768500  0.86364000  0.82404500  1
  O  O7  1  0.03959500  0.86364000  0.17595500  1
loop_
_geom_bond_atom_site_label_1
_geom_bond_atom_site_label_2
_geom_bond_distance
_geom_bond_site_symmetry_2
O0 Re1 2.025595 1_454
O0 Re0 2.025595 1_555
O0 Tl1 2.708531 1_555
O0 Tl0 2.708531 1_455
O1 Re1 2.025595 1_465
O1 Re0 2.025595 1_566
O1 Tl0 2.708531 1_455
O1 Tl1 2.708531 1_555
O2 Re3 2.025595 1_455
O2 Re2 2.025595 1_455
O2 Tl2 2.708531 1_556
O2 Tl3 2.708531 1_555
O3 Re0 2.025595 1_565
O3 Re1 2.025595 1_565
O3 Tl1 2.708531 1_554
O3 Tl0 2.708531 1_555
O4 Re2 2.025595 1_555
O4 Re3 2.025595 1_555
O4 Tl3 2.708531 1_554
O4 Tl2 2.708531 1_555
O5 Re1 2.025595 1_555
O5 Re0 2.025595 1_555
O5 Tl0 2.708531 1_556
O5 Tl1 2.708531 1_555
O6 Re3 2.025595 1_555
O6 Re2 2.025595 1_566
O6 Tl2 2.708531 1_555
O6 Tl3 2.708531 1_565
O7 Re2 2.025595 1_465
O7 Re3 2.025595 1_454
O7 Tl3 2.708531 1_565
O7 Tl2 2.708531 1_555
