# generated using pymatgen
data_HfMg6Mn
_symmetry_space_group_name_H-M   'P 1'
_cell_length_a   4.98742600
_cell_length_b   6.13639500
_cell_length_c   11.08030900
_cell_angle_alpha   90.00000000
_cell_angle_beta   90.00000000
_cell_angle_gamma   90.00000000
_symmetry_Int_Tables_number   1
_chemical_formula_structural   HfMg6Mn
_chemical_formula_sum   'Hf2 Mg12 Mn2'
_cell_volume   339.11081783
_cell_formula_units_Z   2
loop_
 _symmetry_equiv_pos_site_id
 _symmetry_equiv_pos_as_xyz
  1  'x, y, z'
loop_
 _atom_site_type_symbol
 _atom_site_label
 _atom_site_symmetry_multiplicity
 _atom_site_fract_x
 _atom_site_fract_y
 _atom_site_fract_z
 _atom_site_occupancy
  Hf  Hf0  1  0.50000000  0.50000000  0.17241800  1
  Hf  Hf1  1  0.50000000  0.00000000  0.67241800  1
  Mg  Mg0  1  0.50000000  0.25268300  0.42062800  1
  Mg  Mg1  1  0.50000000  0.74731700  0.42062800  1
  Mg  Mg2  1  0.00000000  0.75299300  0.08657500  1
  Mg  Mg3  1  0.00000000  0.24700700  0.08657500  1
  Mg  Mg4  1  0.00000000  0.00000000  0.32239100  1
  Mg  Mg5  1  0.00000000  0.50000000  0.33023500  1
  Mg  Mg6  1  0.50000000  0.75268300  0.92062800  1
  Mg  Mg7  1  0.50000000  0.24731700  0.92062800  1
  Mg  Mg8  1  0.00000000  0.25299300  0.58657500  1
  Mg  Mg9  1  0.00000000  0.74700700  0.58657500  1
  Mg  Mg10  1  0.00000000  0.50000000  0.82239100  1
  Mg  Mg11  1  0.00000000  0.00000000  0.83023500  1
  Mn  Mn0  1  0.50000000  0.00000000  0.16054500  1
  Mn  Mn1  1  0.50000000  0.50000000  0.66054500  1
loop_
_geom_bond_atom_site_label_1
_geom_bond_atom_site_label_2
_geom_bond_distance
_geom_bond_site_symmetry_2
Hf0 Mg5 3.045722 1_555
Hf0 Mg5 3.045722 1_655
Hf0 Mn0 3.071017 1_555
Hf0 Mn0 3.071017 1_565
Hf0 Mg2 3.087632 1_555
Hf0 Mg2 3.087632 1_655
Hf0 Mg3 3.087632 1_655
Hf0 Mg3 3.087632 1_555
Hf0 Mg1 3.141187 1_555
Hf0 Mg0 3.141187 1_555
Hf0 Mg6 3.191841 1_554
Hf0 Mg7 3.191841 1_554
Hf1 Mg11 3.045722 1_655
Hf1 Mg11 3.045722 1_555
Hf1 Mn1 3.071017 1_545
Hf1 Mn1 3.071017 1_555
Hf1 Mg8 3.087632 1_555
Hf1 Mg8 3.087632 1_655
Hf1 Mg9 3.087632 1_645
Hf1 Mg9 3.087632 1_545
Hf1 Mg7 3.141187 1_555
Hf1 Mg6 3.141187 1_545
Hf1 Mg1 3.191841 1_545
Hf1 Mg0 3.191841 1_555
Mg0 Mg1 3.035270 1_555
Mg0 Mn1 3.061056 1_555
Mg0 Mg5 3.086258 1_655
Mg0 Mg5 3.086258 1_555
Mg0 Mg8 3.098320 1_555
Mg0 Mg8 3.098320 1_655
Mg0 Mg1 3.101125 1_545
Mg0 Mg4 3.131721 1_655
Mg0 Mg4 3.131721 1_555
Mg0 Mn0 3.272463 1_555
Mg1 Mn1 3.061056 1_555
Mg1 Mg5 3.086258 1_655
Mg1 Mg5 3.086258 1_555
Mg1 Mg9 3.098320 1_655
Mg1 Mg9 3.098320 1_555
Mg1 Mg4 3.131721 1_665
Mg1 Mg4 3.131721 1_565
Mg1 Mn0 3.272463 1_565
Mg2 Mg4 3.020723 1_565
Mg2 Mn0 3.031140 1_565
Mg2 Mn0 3.031140 1_465
Mg2 Mg3 3.031465 1_565
Mg2 Mg6 3.098320 1_454
Mg2 Mg6 3.098320 1_554
Mg2 Mg3 3.104930 1_555
Mg2 Mg5 3.114357 1_555
Mg3 Mg4 3.020723 1_555
Mg3 Mn0 3.031140 1_455
Mg3 Mn0 3.031140 1_555
Mg3 Mg7 3.098320 1_554
Mg3 Mg7 3.098320 1_454
Mg3 Mg5 3.114357 1_555
Mg4 Mg5 3.069428 1_555
Mg4 Mg5 3.069428 1_545
Mg4 Mn0 3.071570 1_555
Mg4 Mn0 3.071570 1_455
Mg4 Mg8 3.313440 1_555
Mg4 Mg9 3.313440 1_545
Mg5 Mg9 3.219456 1_555
Mg5 Mg8 3.219456 1_555
Mg6 Mg7 3.035270 1_565
Mg6 Mn0 3.061056 1_566
Mg6 Mg7 3.101125 1_555
Mg6 Mn1 3.272463 1_555
Mg7 Mn0 3.061056 1_556
Mg7 Mn1 3.272463 1_555
Mg8 Mn1 3.031140 1_555
Mg8 Mn1 3.031140 1_455
Mg8 Mg9 3.031465 1_555
Mg8 Mg9 3.104930 1_545
Mg9 Mn1 3.031140 1_455
Mg9 Mn1 3.031140 1_555
Mg10 Mg9 3.020723 1_555
Mg10 Mg8 3.020723 1_555
Mg10 Mg11 3.069428 1_555
Mg10 Mg11 3.069428 1_565
Mg10 Mn1 3.071570 1_455
Mg10 Mn1 3.071570 1_555
Mg10 Mg6 3.131721 1_455
Mg10 Mg6 3.131721 1_555
Mg10 Mg7 3.131721 1_455
Mg10 Mg7 3.131721 1_555
Mg10 Mg2 3.313440 1_556
Mg10 Mg3 3.313440 1_556
Mg11 Mg7 3.086258 1_455
Mg11 Mg7 3.086258 1_555
Mg11 Mg6 3.086258 1_445
Mg11 Mg6 3.086258 1_545
Mg11 Mg8 3.114357 1_555
Mg11 Mg9 3.114357 1_545
Mg11 Mg3 3.219456 1_556
Mg11 Mg2 3.219456 1_546
