# generated using pymatgen
data_Ti2ZnO4
_symmetry_space_group_name_H-M   'P 1'
_cell_length_a   6.04156559
_cell_length_b   6.04156559
_cell_length_c   6.04156559
_cell_angle_alpha   60.00000000
_cell_angle_beta   60.00000000
_cell_angle_gamma   60.00000000
_symmetry_Int_Tables_number   1
_chemical_formula_structural   Ti2ZnO4
_chemical_formula_sum   'Ti4 Zn2 O8'
_cell_volume   155.93136732
_cell_formula_units_Z   2
loop_
 _symmetry_equiv_pos_site_id
 _symmetry_equiv_pos_as_xyz
  1  'x, y, z'
loop_
 _atom_site_type_symbol
 _atom_site_label
 _atom_site_symmetry_multiplicity
 _atom_site_fract_x
 _atom_site_fract_y
 _atom_site_fract_z
 _atom_site_occupancy
  Ti  Ti0  1  0.62500000  0.62500000  0.12500000  1
  Ti  Ti1  1  0.62500000  0.12500000  0.62500000  1
  Ti  Ti2  1  0.62500000  0.62500000  0.62500000  1
  Ti  Ti3  1  0.12500000  0.62500000  0.62500000  1
  Zn  Zn0  1  0.25000000  0.25000000  0.25000000  1
  Zn  Zn1  1  0.00000000  0.00000000  0.00000000  1
  O  O0  1  0.86611300  0.40166200  0.86611300  1
  O  O1  1  0.86611300  0.86611300  0.86611300  1
  O  O2  1  0.40166200  0.86611300  0.86611300  1
  O  O3  1  0.38388700  0.38388700  0.84833800  1
  O  O4  1  0.84833800  0.38388700  0.38388700  1
  O  O5  1  0.38388700  0.38388700  0.38388700  1
  O  O6  1  0.86611300  0.86611300  0.40166200  1
  O  O7  1  0.38388700  0.84833800  0.38388700  1
loop_
_geom_bond_atom_site_label_1
_geom_bond_atom_site_label_2
_geom_bond_distance
_geom_bond_site_symmetry_2
O0 Zn1 1.981366 1_656
O0 Ti3 2.062878 1_655
O0 Ti0 2.062878 1_556
O0 Ti2 2.062882 1_555
O1 Zn1 1.981361 1_666
O1 Ti1 2.062882 1_565
O1 Ti3 2.062882 1_655
O1 Ti0 2.062882 1_556
O2 Zn1 1.981366 1_566
O2 Ti1 2.062878 1_565
O2 Ti0 2.062878 1_556
O2 Ti2 2.062882 1_555
O3 Zn0 1.981366 1_556
O3 Ti3 2.062878 1_555
O3 Ti1 2.062878 1_555
O3 Ti2 2.062882 1_555
O4 Zn0 1.981366 1_655
O4 Ti0 2.062878 1_555
O4 Ti1 2.062878 1_555
O4 Ti2 2.062882 1_555
O5 Zn0 1.981361 1_555
O5 Ti1 2.062882 1_555
O5 Ti3 2.062882 1_555
O5 Ti0 2.062882 1_555
O6 Zn1 1.981366 1_665
O6 Ti3 2.062878 1_655
O6 Ti1 2.062878 1_565
O6 Ti2 2.062882 1_555
O7 Zn0 1.981366 1_565
O7 Ti0 2.062878 1_555
O7 Ti3 2.062878 1_555
O7 Ti2 2.062882 1_555
