# generated using pymatgen
data_BaNdEuSbO6
_symmetry_space_group_name_H-M   'P 1'
_cell_length_a   8.58645402
_cell_length_b   8.60376067
_cell_length_c   8.58001868
_cell_angle_alpha   90.00000000
_cell_angle_beta   90.00000000
_cell_angle_gamma   90.00000000
_symmetry_Int_Tables_number   1
_chemical_formula_structural   BaNdEuSbO6
_chemical_formula_sum   'Ba4 Nd4 Eu4 Sb4 O24'
_cell_volume   633.85570446
_cell_formula_units_Z   4
loop_
 _symmetry_equiv_pos_site_id
 _symmetry_equiv_pos_as_xyz
  1  'x, y, z'
loop_
 _atom_site_type_symbol
 _atom_site_label
 _atom_site_symmetry_multiplicity
 _atom_site_fract_x
 _atom_site_fract_y
 _atom_site_fract_z
 _atom_site_occupancy
  Ba  Ba0  1  -0.00000000  -0.00000000  -0.00000000  1
  Ba  Ba1  1  0.50000000  0.50000000  0.50000000  1
  Ba  Ba2  1  0.50000000  0.50000000  -0.00000000  1
  Ba  Ba3  1  -0.00000000  -0.00000000  0.50000000  1
  Nd  Nd0  1  0.75000000  0.75000000  0.75000000  1
  Nd  Nd1  1  0.25000000  0.25000000  0.75000000  1
  Nd  Nd2  1  0.25000000  0.75000000  0.25000000  1
  Nd  Nd3  1  0.75000000  0.25000000  0.25000000  1
  Eu  Eu0  1  -0.00000000  0.50000000  0.50000000  1
  Eu  Eu1  1  0.50000000  0.00000000  0.50000000  1
  Eu  Eu2  1  0.50000000  0.00000000  -0.00000000  1
  Eu  Eu3  1  -0.00000000  0.50000000  -0.00000000  1
  Sb  Sb0  1  0.25000000  0.25000000  0.25000000  1
  Sb  Sb1  1  0.75000000  0.75000000  0.25000000  1
  Sb  Sb2  1  0.75000000  0.25000000  0.75000000  1
  Sb  Sb3  1  0.25000000  0.75000000  0.75000000  1
  O  O0  1  0.01862693  0.22264374  0.27696359  1
  O  O1  1  0.98137307  0.77735626  0.27696359  1
  O  O2  1  0.98137307  0.22264374  0.72303641  1
  O  O3  1  0.01862693  0.77735626  0.72303641  1
  O  O4  1  0.28026623  0.01895769  0.20942548  1
  O  O5  1  0.28026623  0.98104231  0.79057452  1
  O  O6  1  0.71973377  0.98104231  0.20942548  1
  O  O7  1  0.71973377  0.01895769  0.79057452  1
  O  O8  1  0.21452045  0.28761856  0.01904340  1
  O  O9  1  0.78547955  0.28761856  0.98095660  1
  O  O10  1  0.21452045  0.71238144  0.98095660  1
  O  O11  1  0.78547955  0.71238144  0.01904340  1
  O  O12  1  0.48137307  0.27735626  0.22303641  1
  O  O13  1  0.51862693  0.72264374  0.22303641  1
  O  O14  1  0.51862693  0.27735626  0.77696359  1
  O  O15  1  0.48137307  0.72264374  0.77696359  1
  O  O16  1  0.21973377  0.48104231  0.29057452  1
  O  O17  1  0.21973377  0.51895769  0.70942548  1
  O  O18  1  0.78026623  0.51895769  0.29057452  1
  O  O19  1  0.78026623  0.48104231  0.70942548  1
  O  O20  1  0.28547955  0.21238144  0.48095660  1
  O  O21  1  0.71452045  0.21238144  0.51904340  1
  O  O22  1  0.28547955  0.78761856  0.51904340  1
  O  O23  1  0.71452045  0.78761856  0.48095660  1
loop_
_geom_bond_atom_site_label_1
_geom_bond_atom_site_label_2
_geom_bond_distance
_geom_bond_site_symmetry_2
Ba0 O6 3.007752 1_445
Ba0 O7 3.007752 1_454
Ba0 O4 3.007752 1_555
Ba0 O5 3.007752 1_544
Ba0 O1 3.056478 1_445
Ba0 O0 3.056478 1_555
Ba0 O2 3.056478 1_454
Ba0 O3 3.056478 1_544
Ba0 O10 3.089207 1_544
Ba0 O11 3.089207 1_445
Ba0 O8 3.089207 1_555
Ba0 O9 3.089207 1_454
Ba1 O18 3.007752 1_555
Ba1 O19 3.007752 1_555
Ba1 O16 3.007752 1_555
Ba1 O17 3.007752 1_555
Ba1 O12 3.056478 1_555
Ba1 O14 3.056478 1_555
Ba1 O15 3.056478 1_555
Ba1 O13 3.056478 1_555
Ba1 O22 3.089207 1_555
Ba1 O20 3.089207 1_555
Ba1 O23 3.089207 1_555
Ba1 O21 3.089207 1_555
Ba2 O12 2.712394 1_555
Ba2 O13 2.712394 1_555
Ba2 O14 2.712394 1_554
Ba2 O15 2.712394 1_554
Ba2 O8 3.061749 1_555
Ba2 O9 3.061749 1_554
Ba2 O10 3.061749 1_554
Ba2 O11 3.061749 1_555
Ba3 O3 2.712394 1_545
Ba3 O1 2.712394 1_445
Ba3 O2 2.712394 1_455
Ba3 O0 2.712394 1_555
Ba3 O20 3.061749 1_555
Ba3 O21 3.061749 1_455
Ba3 O23 3.061749 1_445
Ba3 O22 3.061749 1_545
Nd0 O3 2.330044 1_655
Nd0 O15 2.330044 1_555
Nd0 O11 2.350800 1_556
Nd0 O23 2.350800 1_555
Nd0 O7 2.354474 1_565
Nd0 O19 2.354474 1_555
Nd1 O14 2.330044 1_555
Nd1 O2 2.330044 1_455
Nd1 O8 2.350800 1_556
Nd1 O20 2.350800 1_555
Nd1 O17 2.354474 1_555
Nd1 O5 2.354474 1_545
Nd2 O1 2.330044 1_455
Nd2 O13 2.330044 1_555
Nd2 O22 2.350800 1_555
Nd2 O10 2.350800 1_554
Nd2 O4 2.354474 1_565
Nd2 O16 2.354474 1_555
Nd3 O0 2.330044 1_655
Nd3 O12 2.330044 1_555
Nd3 O21 2.350800 1_555
Nd3 O9 2.350800 1_554
Nd3 O6 2.354474 1_545
Nd3 O18 2.354474 1_555
Eu0 O16 2.610580 1_555
Eu0 O17 2.610580 1_555
Eu0 O18 2.610580 1_455
Eu0 O19 2.610580 1_455
Eu0 O2 3.063025 1_455
Eu0 O3 3.063025 1_555
Eu0 O1 3.063025 1_455
Eu0 O0 3.063025 1_555
Eu1 O23 2.599711 1_545
Eu1 O20 2.599711 1_555
Eu1 O21 2.599711 1_555
Eu1 O22 2.599711 1_545
Eu2 O4 2.610580 1_555
Eu2 O5 2.610580 1_544
Eu2 O6 2.610580 1_545
Eu2 O7 2.610580 1_554
Eu2 O14 3.063025 1_554
Eu2 O15 3.063025 1_544
Eu2 O13 3.063025 1_545
Eu2 O12 3.063025 1_555
Eu3 O9 2.599711 1_454
Eu3 O10 2.599711 1_554
Eu3 O8 2.599711 1_555
Eu3 O11 2.599711 1_455
O0 Sb0 2.013900 1_555
O1 Sb1 2.013900 1_555
O2 Sb2 2.013900 1_555
O3 Sb3 2.013900 1_555
O4 Sb0 2.034751 1_555
O5 Sb3 2.034751 1_555
O6 Sb1 2.034751 1_555
O7 Sb2 2.034751 1_555
O8 Sb0 2.030850 1_555
O9 Sb2 2.030850 1_555
O10 Sb3 2.030850 1_555
O11 Sb1 2.030850 1_555
O12 Sb0 2.013900 1_555
O13 Sb1 2.013900 1_555
O14 Sb2 2.013900 1_555
O15 Sb3 2.013900 1_555
O16 Sb0 2.034751 1_555
O17 Sb3 2.034751 1_555
O18 Sb1 2.034751 1_555
O19 Sb2 2.034751 1_555
O20 Sb0 2.030850 1_555
O21 Sb2 2.030850 1_555
O22 Sb3 2.030850 1_555
O23 Sb1 2.030850 1_555
