# generated using pymatgen
data_CaMn2P2(H2O5)2
_symmetry_space_group_name_H-M   'P 1'
_cell_length_a   5.69883169
_cell_length_b   5.40436970
_cell_length_c   8.69650174
_cell_angle_alpha   96.31356661
_cell_angle_beta   114.40078702
_cell_angle_gamma   106.76409880
_symmetry_Int_Tables_number   1
_chemical_formula_structural   CaMn2P2(H2O5)2
_chemical_formula_sum   'Ca1 Mn2 P2 H4 O10'
_cell_volume   225.34261393
_cell_formula_units_Z   1
loop_
 _symmetry_equiv_pos_site_id
 _symmetry_equiv_pos_as_xyz
  1  'x, y, z'
loop_
 _atom_site_type_symbol
 _atom_site_label
 _atom_site_symmetry_multiplicity
 _atom_site_fract_x
 _atom_site_fract_y
 _atom_site_fract_z
 _atom_site_occupancy
  Ca  Ca0  1  0.02866000  0.75498200  0.12811400  1
  Mn  Mn0  1  0.95568600  0.54091000  0.55495700  1
  Mn  Mn1  1  0.51258300  0.99291400  0.97843200  1
  P  P0  1  0.43483500  0.48444700  0.19725400  1
  P  P1  1  0.56694800  0.46368700  0.75619800  1
  H  H0  1  0.87561800  0.02485800  0.32712400  1
  H  H1  1  0.06887100  0.28138500  0.28146100  1
  H  H2  1  0.13416100  0.09944300  0.70559700  1
  H  H3  1  0.94158200  0.90106000  0.77576200  1
  O  O0  1  0.35470600  0.63744400  0.05340100  1
  O  O1  1  0.28142100  0.53312200  0.30396600  1
  O  O2  1  0.66911200  0.34834400  0.91763400  1
  O  O3  1  0.66460100  0.37713400  0.62744900  1
  O  O4  1  0.75905600  0.61123500  0.31330100  1
  O  O5  1  0.34334800  0.17878900  0.12458300  1
  O  O6  1  0.24226300  0.36508700  0.66114100  1
  O  O7  1  0.69528800  0.77656800  0.83764600  1
  O  O8  1  0.09179300  0.92097400  0.73897600  1
  O  O9  1  0.90446700  0.09511700  0.23486000  1
loop_
_geom_bond_atom_site_label_1
_geom_bond_atom_site_label_2
_geom_bond_distance
_geom_bond_site_symmetry_2
Ca0 O1 2.330402 1_555
Ca0 O9 2.379026 1_465
Ca0 O2 2.407759 1_454
Ca0 O0 2.421924 1_555
Ca0 O5 2.480833 1_565
Ca0 O7 2.496283 1_454
Ca0 O4 2.681197 1_455
Mn0 O3 2.018023 1_555
Mn0 O6 2.065178 1_655
Mn0 O4 2.071785 1_555
Mn0 O8 2.171174 1_655
Mn1 O2 2.095151 1_565
Mn1 O0 2.165225 1_556
Mn1 O5 2.201263 1_566
Mn1 O9 2.273386 1_566
Mn1 O7 2.321829 1_555
Mn1 O8 2.322990 1_555
H0 O9 0.977240 1_555
H1 O9 1.052564 1_455
H1 O1 1.466751 1_555
H2 O8 1.028587 1_545
H2 O6 1.548778 1_555
H3 O8 1.013607 1_655
H3 O7 1.694506 1_555
O0 P0 1.559028 1_555
O1 P0 1.563372 1_555
O2 P1 1.557256 1_555
O3 P1 1.527076 1_555
O4 P0 1.574431 1_555
O5 P0 1.549611 1_555
O6 P1 1.568936 1_555
O7 P1 1.578286 1_555
