# generated using pymatgen
data_K3AuSe2
_symmetry_space_group_name_H-M   'P 1'
_cell_length_a   7.96144052
_cell_length_b   7.96143897
_cell_length_c   7.96143907
_cell_angle_alpha   68.31472091
_cell_angle_beta   68.31472001
_cell_angle_gamma   68.31472733
_symmetry_Int_Tables_number   1
_chemical_formula_structural   K3AuSe2
_chemical_formula_sum   'K6 Au2 Se4'
_cell_volume   419.57168515
_cell_formula_units_Z   2
loop_
 _symmetry_equiv_pos_site_id
 _symmetry_equiv_pos_as_xyz
  1  'x, y, z'
loop_
 _atom_site_type_symbol
 _atom_site_label
 _atom_site_symmetry_multiplicity
 _atom_site_fract_x
 _atom_site_fract_y
 _atom_site_fract_z
 _atom_site_occupancy
  K  K0  1  0.95908304  0.54091696  0.25000000  1
  K  K1  1  0.25000000  0.95908304  0.54091696  1
  K  K2  1  0.54091696  0.25000000  0.95908304  1
  K  K3  1  0.04091696  0.45908304  0.75000000  1
  K  K4  1  0.75000000  0.04091696  0.45908304  1
  K  K5  1  0.45908304  0.75000000  0.04091696  1
  Au  Au0  1  0.50000000  0.50000000  0.50000000  1
  Au  Au1  1  -0.00000000  0.00000000  0.00000000  1
  Se  Se0  1  0.63377607  0.63377607  0.63377607  1
  Se  Se1  1  0.86622393  0.86622393  0.86622393  1
  Se  Se2  1  0.13377607  0.13377607  0.13377607  1
  Se  Se3  1  0.36622393  0.36622393  0.36622393  1
loop_
_geom_bond_atom_site_label_1
_geom_bond_atom_site_label_2
_geom_bond_distance
_geom_bond_site_symmetry_2
K0 Se1 3.316027 1_554
K0 Se0 3.316027 1_555
K0 Se2 3.351306 1_655
K0 Se3 3.351306 1_655
K1 Se1 3.316027 1_455
K1 Se0 3.316028 1_555
K1 Se3 3.351306 1_565
K1 Se2 3.351306 1_565
K2 Se0 3.316027 1_555
K2 Se1 3.316028 1_545
K2 Se3 3.351306 1_556
K2 Se2 3.351306 1_556
K3 Se2 3.316027 1_556
K3 Se3 3.316027 1_555
K3 Se1 3.351306 1_455
K3 Se0 3.351306 1_455
K4 Se2 3.316027 1_655
K4 Se3 3.316028 1_555
K4 Se0 3.351306 1_545
K4 Se1 3.351306 1_545
K5 Se3 3.316027 1_555
K5 Se2 3.316028 1_565
K5 Se0 3.351306 1_554
K5 Se1 3.351306 1_554
Au0 Se3 2.432666 1_555
Au0 Se0 2.432666 1_555
Au0 K5 3.528600 1_555
Au0 K2 3.528600 1_555
Au0 K1 3.528601 1_555
Au0 K4 3.528601 1_555
Au0 K3 3.528601 1_555
Au0 K0 3.528601 1_555
Au1 Se2 2.432666 1_555
Au1 Se1 2.432666 1_444
Au1 K0 3.528600 1_445
Au1 K3 3.528600 1_554
Au1 K4 3.528600 1_455
Au1 K1 3.528600 1_544
Au1 K5 3.528601 1_545
Au1 K2 3.528601 1_454
