# generated using pymatgen
data_Al2Si4Mo3
_symmetry_space_group_name_H-M   'P 1'
_cell_length_a   4.72211158
_cell_length_b   4.72211198
_cell_length_c   6.58186846
_cell_angle_alpha   89.90316530
_cell_angle_beta   90.09683386
_cell_angle_gamma   59.88703150
_symmetry_Int_Tables_number   1
_chemical_formula_structural   Al2Si4Mo3
_chemical_formula_sum   'Al2 Si4 Mo3'
_cell_volume   126.95633128
_cell_formula_units_Z   1
loop_
 _symmetry_equiv_pos_site_id
 _symmetry_equiv_pos_as_xyz
  1  'x, y, z'
loop_
 _atom_site_type_symbol
 _atom_site_label
 _atom_site_symmetry_multiplicity
 _atom_site_fract_x
 _atom_site_fract_y
 _atom_site_fract_z
 _atom_site_occupancy
  Al  Al0  1  0.15964700  0.67491600  0.17073300  1
  Al  Al1  1  0.67491600  0.15964700  0.49593400  1
  Si  Si0  1  0.15952000  0.15952000  0.83333300  1
  Si  Si1  1  0.83885300  0.32810100  0.16614900  1
  Si  Si2  1  0.32810100  0.83885300  0.50051800  1
  Si  Si3  1  0.84114500  0.84114500  0.83333300  1
  Mo  Mo0  1  0.49684700  0.99934000  0.15728600  1
  Mo  Mo1  1  0.99934000  0.49684700  0.50938100  1
  Mo  Mo2  1  0.50163200  0.50163200  0.83333300  1
loop_
_geom_bond_atom_site_label_1
_geom_bond_atom_site_label_2
_geom_bond_distance
_geom_bond_site_symmetry_2
Al0 Si2 2.561498 1_555
Al0 Si3 2.570603 1_454
Al0 Mo1 2.624176 1_455
Al0 Mo2 2.627049 1_554
Al0 Si1 2.668416 1_465
Al0 Mo0 2.708846 1_555
Al0 Mo0 2.708868 1_455
Al0 Si1 2.732576 1_455
Al0 Mo0 2.761287 1_545
Al0 Si1 2.774825 1_555
Al1 Si1 2.561498 1_555
Al1 Si3 2.570597 1_545
Al1 Mo0 2.624176 1_545
Al1 Mo2 2.627043 1_555
Al1 Si2 2.668416 1_645
Al1 Mo1 2.708846 1_555
Al1 Mo1 2.708869 1_545
Al1 Si2 2.732576 1_545
Al1 Mo1 2.761287 1_455
Al1 Si2 2.774825 1_555
Si0 Si2 2.555906 1_545
Si0 Si1 2.555911 1_456
Si0 Si3 2.605450 1_445
Si0 Si3 2.786535 1_545
Si0 Si3 2.786535 1_455
Mo0 Si0 2.535723 1_564
Mo0 Si3 2.558534 1_554
Mo0 Si2 2.630412 1_555
Mo0 Si1 2.688589 1_465
Mo0 Si1 2.742441 1_555
Mo0 Si1 2.745436 1_565
Mo1 Si0 2.535718 1_655
Mo1 Si3 2.558528 1_555
Mo1 Si1 2.630412 1_555
Mo1 Si2 2.688589 1_645
Mo1 Si2 2.742441 1_555
Mo1 Si2 2.745436 1_655
Mo2 Si2 2.584281 1_555
Mo2 Si1 2.584286 1_556
Mo2 Si0 2.687946 1_655
Mo2 Si0 2.687947 1_565
Mo2 Si3 2.698235 1_455
Mo2 Si3 2.698235 1_545
Mo2 Si3 2.778435 1_555
Mo2 Si0 2.799704 1_555
