# generated using pymatgen
data_Li4MnCo3O8
_symmetry_space_group_name_H-M   'P 1'
_cell_length_a   19.61831272
_cell_length_b   19.61831272
_cell_length_c   19.61831279
_cell_angle_alpha   8.58415273
_cell_angle_beta   8.58415273
_cell_angle_gamma   8.58415479
_symmetry_Int_Tables_number   1
_chemical_formula_structural   Li4MnCo3O8
_chemical_formula_sum   'Li4 Mn1 Co3 O8'
_cell_volume   145.95701208
_cell_formula_units_Z   1
loop_
 _symmetry_equiv_pos_site_id
 _symmetry_equiv_pos_as_xyz
  1  'x, y, z'
loop_
 _atom_site_type_symbol
 _atom_site_label
 _atom_site_symmetry_multiplicity
 _atom_site_fract_x
 _atom_site_fract_y
 _atom_site_fract_z
 _atom_site_occupancy
  Li  Li0  1  0.37531000  0.37531000  0.37531000  1
  Li  Li1  1  0.12271000  0.12271000  0.12271000  1
  Li  Li2  1  0.87729000  0.87729000  0.87729000  1
  Li  Li3  1  0.62469000  0.62469000  0.62469000  1
  Mn  Mn0  1  0.50000000  0.50000000  0.50000000  1
  Co  Co0  1  0.25009300  0.25009300  0.25009300  1
  Co  Co1  1  0.00000000  0.00000000  0.00000000  1
  Co  Co2  1  0.74990700  0.74990700  0.74990700  1
  O  O0  1  0.43673500  0.43673500  0.43673500  1
  O  O1  1  0.18521300  0.18521300  0.18521300  1
  O  O2  1  0.93595000  0.93595000  0.93595000  1
  O  O3  1  0.68601600  0.68601600  0.68601600  1
  O  O4  1  0.31398400  0.31398400  0.31398400  1
  O  O5  1  0.06405000  0.06405000  0.06405000  1
  O  O6  1  0.81478700  0.81478700  0.81478700  1
  O  O7  1  0.56326500  0.56326500  0.56326500  1
loop_
_geom_bond_atom_site_label_1
_geom_bond_atom_site_label_2
_geom_bond_distance
_geom_bond_site_symmetry_2
Li0 O5 2.132948 1_556
Li0 O5 2.132948 1_565
Li0 O5 2.132948 1_655
Li0 O3 2.152814 1_554
Li0 O3 2.152814 1_455
Li0 O3 2.152814 1_545
Li1 O0 2.038648 1_554
Li1 O0 2.038648 1_455
Li1 O0 2.038648 1_545
Li1 O6 2.257041 1_445
Li1 O6 2.257041 1_454
Li1 O6 2.257041 1_544
Li2 O7 2.038648 1_556
Li2 O7 2.038648 1_565
Li2 O7 2.038648 1_655
Li2 O1 2.257041 1_665
Li2 O1 2.257041 1_566
Li2 O1 2.257041 1_656
Li3 O2 2.132948 1_554
Li3 O2 2.132948 1_455
Li3 O2 2.132948 1_545
Li3 O4 2.152814 1_556
Li3 O4 2.152814 1_565
Li3 O4 2.152814 1_655
Mn0 O1 2.014178 1_556
Mn0 O6 2.014178 1_554
Mn0 O1 2.014179 1_565
Mn0 O1 2.014179 1_655
Mn0 O6 2.014179 1_455
Mn0 O6 2.014179 1_545
Co0 O2 2.034814 1_445
Co0 O2 2.034814 1_454
Co0 O2 2.034814 1_544
Co0 O7 2.066842 1_554
Co0 O7 2.066842 1_455
Co0 O7 2.066842 1_545
Co1 O3 2.039984 1_445
Co1 O4 2.039984 1_554
Co1 O3 2.039984 1_454
Co1 O3 2.039984 1_544
Co1 O4 2.039984 1_545
Co1 O4 2.039984 1_455
Co2 O5 2.034814 1_665
Co2 O5 2.034814 1_566
Co2 O5 2.034814 1_656
Co2 O0 2.066842 1_556
Co2 O0 2.066842 1_565
Co2 O0 2.066842 1_655
