# generated using pymatgen
data_Na2H3CO6
_symmetry_space_group_name_H-M   'P 1'
_cell_length_a   6.87164400
_cell_length_b   9.15878700
_cell_length_c   15.92961000
_cell_angle_alpha   90.00000000
_cell_angle_beta   90.00000000
_cell_angle_gamma   90.00000000
_symmetry_Int_Tables_number   1
_chemical_formula_structural   Na2H3CO6
_chemical_formula_sum   'Na16 H24 C8 O48'
_cell_volume   1002.54472010
_cell_formula_units_Z   8
loop_
 _symmetry_equiv_pos_site_id
 _symmetry_equiv_pos_as_xyz
  1  'x, y, z'
loop_
 _atom_site_type_symbol
 _atom_site_label
 _atom_site_symmetry_multiplicity
 _atom_site_fract_x
 _atom_site_fract_y
 _atom_site_fract_z
 _atom_site_occupancy
  Na  Na0  1  0.25299400  0.76542600  0.51109400  1
  Na  Na1  1  0.24700600  0.26542600  0.48890600  1
  Na  Na2  1  0.74700600  0.73457400  0.01109400  1
  Na  Na3  1  0.75299400  0.23457400  0.98890600  1
  Na  Na4  1  0.74700600  0.23457400  0.48890600  1
  Na  Na5  1  0.75299400  0.73457400  0.51109400  1
  Na  Na6  1  0.25299400  0.26542600  0.98890600  1
  Na  Na7  1  0.24700600  0.76542600  0.01109400  1
  Na  Na8  1  0.24205300  0.50092200  0.74974700  1
  Na  Na9  1  0.25794700  0.00092200  0.25025300  1
  Na  Na10  1  0.75794700  0.99907800  0.24974700  1
  Na  Na11  1  0.74205300  0.49907800  0.75025300  1
  Na  Na12  1  0.75794700  0.49907800  0.25025300  1
  Na  Na13  1  0.74205300  0.99907800  0.74974700  1
  Na  Na14  1  0.24205300  0.00092200  0.75025300  1
  Na  Na15  1  0.25794700  0.50092200  0.24974700  1
  H  H0  1  0.94732800  0.77455400  0.68856600  1
  H  H1  1  0.55267200  0.27455400  0.31143400  1
  H  H2  1  0.05267200  0.72544600  0.18856600  1
  H  H3  1  0.44732800  0.22544600  0.81143400  1
  H  H4  1  0.05267200  0.22544600  0.31143400  1
  H  H5  1  0.44732800  0.72544600  0.68856600  1
  H  H6  1  0.94732800  0.27455400  0.81143400  1
  H  H7  1  0.55267200  0.77455400  0.18856600  1
  H  H8  1  0.04446800  0.01663500  0.60411700  1
  H  H9  1  0.45553200  0.51663500  0.39588300  1
  H  H10  1  0.95553200  0.48336500  0.10411700  1
  H  H11  1  0.54446800  0.98336500  0.89588300  1
  H  H12  1  0.95553200  0.98336500  0.39588300  1
  H  H13  1  0.54446800  0.48336500  0.60411700  1
  H  H14  1  0.04446800  0.51663500  0.89588300  1
  H  H15  1  0.45553200  0.01663500  0.10411700  1
  H  H16  1  0.04277800  0.47054100  0.58209400  1
  H  H17  1  0.45722200  0.97054100  0.41790600  1
  H  H18  1  0.95722200  0.02945900  0.08209400  1
  H  H19  1  0.54277800  0.52945900  0.91790600  1
  H  H20  1  0.95722200  0.52945900  0.41790600  1
  H  H21  1  0.54277800  0.02945900  0.58209400  1
  H  H22  1  0.04277800  0.97054100  0.91790600  1
  H  H23  1  0.45722200  0.47054100  0.08209400  1
  C  C0  1  0.99595600  0.75195200  0.83810900  1
  C  C1  1  0.50404400  0.25195200  0.16189100  1
  C  C2  1  0.00404400  0.74804800  0.33810900  1
  C  C3  1  0.49595600  0.24804800  0.66189100  1
  C  C4  1  0.00404400  0.24804800  0.16189100  1
  C  C5  1  0.49595600  0.74804800  0.83810900  1
  C  C6  1  0.99595600  0.25195200  0.66189100  1
  C  C7  1  0.50404400  0.75195200  0.33810900  1
  O  O0  1  0.98738700  0.67881600  0.76814100  1
  O  O1  1  0.51261300  0.17881600  0.23185900  1
  O  O2  1  0.01261300  0.82118400  0.26814100  1
  O  O3  1  0.48738700  0.32118400  0.73185900  1
  O  O4  1  0.01261300  0.32118400  0.23185900  1
  O  O5  1  0.48738700  0.82118400  0.76814100  1
  O  O6  1  0.98738700  0.17881600  0.73185900  1
  O  O7  1  0.51261300  0.67881600  0.26814100  1
  O  O8  1  0.00662400  0.68294900  0.90939200  1
  O  O9  1  0.49337600  0.18294900  0.09060800  1
  O  O10  1  0.99337600  0.81705100  0.40939200  1
  O  O11  1  0.50662400  0.31705100  0.59060800  1
  O  O12  1  0.99337600  0.31705100  0.09060800  1
  O  O13  1  0.50662400  0.81705100  0.90939200  1
  O  O14  1  0.00662400  0.18294900  0.59060800  1
  O  O15  1  0.49337600  0.68294900  0.40939200  1
  O  O16  1  0.99396400  0.89379300  0.83570300  1
  O  O17  1  0.50603600  0.39379300  0.16429700  1
  O  O18  1  0.00603600  0.60620700  0.33570300  1
  O  O19  1  0.49396400  0.10620700  0.66429700  1
  O  O20  1  0.00603600  0.10620700  0.16429700  1
  O  O21  1  0.49396400  0.60620700  0.83570300  1
  O  O22  1  0.99396400  0.39379300  0.66429700  1
  O  O23  1  0.50603600  0.89379300  0.33570300  1
  O  O24  1  0.90424000  0.83798700  0.63808800  1
  O  O25  1  0.59576000  0.33798700  0.36191200  1
  O  O26  1  0.09576000  0.66201300  0.13808800  1
  O  O27  1  0.40424000  0.16201300  0.86191200  1
  O  O28  1  0.09576000  0.16201300  0.36191200  1
  O  O29  1  0.40424000  0.66201300  0.63808800  1
  O  O30  1  0.90424000  0.33798700  0.86191200  1
  O  O31  1  0.59576000  0.83798700  0.13808800  1
  O  O32  1  0.08926500  0.91039200  0.61542500  1
  O  O33  1  0.41073500  0.41039200  0.38457500  1
  O  O34  1  0.91073500  0.58960800  0.11542500  1
  O  O35  1  0.58926500  0.08960800  0.88457500  1
  O  O36  1  0.91073500  0.08960800  0.38457500  1
  O  O37  1  0.58926500  0.58960800  0.61542500  1
  O  O38  1  0.08926500  0.41039200  0.88457500  1
  O  O39  1  0.41073500  0.91039200  0.11542500  1
  O  O40  1  0.08551000  0.51910500  0.52627600  1
  O  O41  1  0.41449000  0.01910500  0.47372400  1
  O  O42  1  0.91449000  0.98089500  0.02627600  1
  O  O43  1  0.58551000  0.48089500  0.97372400  1
  O  O44  1  0.91449000  0.48089500  0.47372400  1
  O  O45  1  0.58551000  0.98089500  0.52627600  1
  O  O46  1  0.08551000  0.01910500  0.97372400  1
  O  O47  1  0.41449000  0.51910500  0.02627600  1
loop_
_geom_bond_atom_site_label_1
_geom_bond_atom_site_label_2
_geom_bond_distance
_geom_bond_site_symmetry_2
Na0 O32 2.406393 1_555
Na0 O15 2.433877 1_555
Na0 O10 2.455782 1_455
Na0 O29 2.463660 1_555
Na0 O40 2.544127 1_555
Na0 O41 2.642735 1_565
Na1 O33 2.406393 1_555
Na1 O14 2.433877 1_555
Na1 O11 2.455782 1_555
Na1 O28 2.463660 1_555
Na1 O41 2.544127 1_555
Na1 O40 2.642735 1_555
Na2 O34 2.406393 1_555
Na2 O13 2.433877 1_554
Na2 O8 2.455782 1_654
Na2 O31 2.463660 1_555
Na2 O42 2.544127 1_555
Na2 O43 2.642735 1_554
Na3 O35 2.406393 1_555
Na3 O12 2.433877 1_556
Na3 O9 2.455782 1_556
Na3 O30 2.463660 1_555
Na3 O43 2.544127 1_555
Na3 O42 2.642735 1_546
Na4 O36 2.406393 1_555
Na4 O11 2.433877 1_555
Na4 O14 2.455782 1_655
Na4 O25 2.463660 1_555
Na4 O44 2.544127 1_555
Na4 O45 2.642735 1_545
Na5 O37 2.406393 1_555
Na5 O10 2.433877 1_555
Na5 O15 2.455782 1_555
Na5 O24 2.463660 1_555
Na5 O45 2.544127 1_555
Na5 O44 2.642735 1_555
Na6 O38 2.406393 1_555
Na6 O9 2.433877 1_556
Na6 O12 2.455782 1_456
Na6 O27 2.463660 1_555
Na6 O46 2.544127 1_555
Na6 O47 2.642735 1_556
Na7 O39 2.406393 1_555
Na7 O8 2.433877 1_554
Na7 O13 2.455782 1_554
Na7 O26 2.463660 1_555
Na7 O47 2.544127 1_555
Na7 O46 2.642735 1_564
Na8 O3 2.373435 1_555
Na8 O22 2.392027 1_455
Na8 O21 2.408565 1_555
Na8 O0 2.408913 1_455
Na8 O38 2.530345 1_555
Na8 O29 2.565659 1_555
Na9 O2 2.373435 1_545
Na9 O23 2.392027 1_545
Na9 O20 2.408565 1_555
Na9 O1 2.408913 1_555
Na9 O39 2.530345 1_545
Na9 O28 2.565659 1_555
Na10 O1 2.373435 1_565
Na10 O20 2.392027 1_665
Na10 O23 2.408565 1_555
Na10 O2 2.408913 1_655
Na10 O36 2.530345 1_565
Na10 O31 2.565659 1_555
Na11 O0 2.373435 1_555
Na11 O21 2.392027 1_555
Na11 O22 2.408565 1_555
Na11 O3 2.408913 1_555
Na11 O37 2.530345 1_555
Na11 O30 2.565659 1_555
Na12 O7 2.373435 1_555
Na12 O18 2.392027 1_655
Na12 O17 2.408565 1_555
Na12 O4 2.408913 1_655
Na12 O34 2.530345 1_555
Na12 O25 2.565659 1_555
Na13 O6 2.373435 1_565
Na13 O19 2.392027 1_565
Na13 O16 2.408565 1_555
Na13 O5 2.408913 1_555
Na13 O35 2.530345 1_565
Na13 O24 2.565659 1_555
Na14 O5 2.373435 1_545
Na14 O16 2.392027 1_445
Na14 O19 2.408565 1_555
Na14 O6 2.408913 1_455
Na14 O32 2.530345 1_545
Na14 O27 2.565659 1_555
Na15 O4 2.373435 1_555
Na15 O17 2.392027 1_555
Na15 O18 2.408565 1_555
Na15 O7 2.408913 1_555
Na15 O33 2.530345 1_555
Na15 O26 2.565659 1_555
H0 O24 1.035259 1_555
H0 O0 1.565706 1_555
H1 O25 1.035259 1_555
H1 O1 1.565706 1_555
H2 O26 1.035259 1_555
H2 O2 1.565706 1_555
H3 O27 1.035259 1_555
H3 O3 1.565706 1_555
H4 O28 1.035259 1_555
H4 O4 1.565706 1_555
H5 O29 1.035259 1_555
H5 O5 1.565706 1_555
H6 O30 1.035259 1_555
H6 O6 1.565706 1_555
H7 O31 1.035259 1_555
H7 O7 1.565706 1_555
H8 O32 1.036362 1_545
H8 O14 1.560185 1_555
H9 O33 1.036362 1_555
H9 O15 1.560185 1_555
H10 O34 1.036362 1_555
H10 O12 1.560185 1_555
H11 O35 1.036362 1_565
H11 O13 1.560185 1_555
H12 O36 1.036362 1_565
H12 O10 1.560185 1_555
H13 O37 1.036362 1_555
H13 O11 1.560185 1_555
H14 O38 1.036362 1_555
H14 O8 1.560185 1_555
H15 O39 1.036362 1_545
H15 O9 1.560185 1_555
H16 O40 1.036660 1_555
H16 O22 1.523581 1_455
H17 O41 1.036660 1_565
H17 O23 1.523581 1_555
H18 O42 1.036660 1_545
H18 O20 1.523581 1_655
H19 O43 1.036660 1_555
H19 O21 1.523581 1_555
H20 O44 1.036660 1_555
H20 O18 1.523581 1_655
H21 O45 1.036660 1_545
H21 O19 1.523581 1_555
H22 O46 1.036660 1_565
H22 O16 1.523581 1_455
H23 O47 1.036660 1_555
H23 O17 1.523581 1_555
C0 O16 1.299729 1_555
C0 O8 1.301599 1_655
C0 O0 1.301691 1_555
C1 O17 1.299729 1_555
C1 O9 1.301599 1_555
C1 O1 1.301691 1_555
C2 O18 1.299729 1_555
C2 O10 1.301599 1_455
C2 O2 1.301691 1_555
C3 O19 1.299729 1_555
C3 O11 1.301599 1_555
C3 O3 1.301691 1_555
C4 O20 1.299729 1_555
C4 O12 1.301599 1_455
C4 O4 1.301691 1_555
C5 O21 1.299729 1_555
C5 O13 1.301599 1_555
C5 O5 1.301691 1_555
C6 O22 1.299729 1_555
C6 O14 1.301599 1_655
C6 O6 1.301691 1_555
C7 O23 1.299729 1_555
C7 O15 1.301599 1_555
C7 O7 1.301691 1_555
