# generated using pymatgen
data_Tm11Sn10
_symmetry_space_group_name_H-M   'P 1'
_cell_length_a   11.45480707
_cell_length_b   11.45479935
_cell_length_c   11.66871468
_cell_angle_alpha   119.39541026
_cell_angle_beta   119.39545657
_cell_angle_gamma   90.00000000
_symmetry_Int_Tables_number   1
_chemical_formula_structural   Tm11Sn10
_chemical_formula_sum   'Tm22 Sn20'
_cell_volume   1102.12697539
_cell_formula_units_Z   2
loop_
 _symmetry_equiv_pos_site_id
 _symmetry_equiv_pos_as_xyz
  1  'x, y, z'
loop_
 _atom_site_type_symbol
 _atom_site_label
 _atom_site_symmetry_multiplicity
 _atom_site_fract_x
 _atom_site_fract_y
 _atom_site_fract_z
 _atom_site_occupancy
  Tm  Tm0  1  0.93690682  0.18875105  0.37750209  1
  Tm  Tm1  1  0.44059427  0.18875105  0.37750209  1
  Tm  Tm2  1  0.18875163  0.44059699  0.37750226  1
  Tm  Tm3  1  0.18875163  0.93690527  0.37750226  1
  Tm  Tm4  1  0.06309418  0.81124895  0.62249891  1
  Tm  Tm5  1  0.55940473  0.81124895  0.62249891  1
  Tm  Tm6  1  0.81124937  0.55940201  0.62249774  1
  Tm  Tm7  1  0.81124937  0.06309573  0.62249774  1
  Tm  Tm8  1  0.82578064  0.17422079  -0.00000000  1
  Tm  Tm9  1  0.17421936  0.82578021  0.00000000  1
  Tm  Tm10  1  0.17421936  0.17422079  0.00000100  1
  Tm  Tm11  1  0.82578064  0.82578021  -0.00000000  1
  Tm  Tm12  1  0.33490342  0.33490342  0.66980684  1
  Tm  Tm13  1  0.66509658  0.66509658  0.33019216  1
  Tm  Tm14  1  0.06748620  0.39837086  0.79674172  1
  Tm  Tm15  1  0.72925553  0.39837086  0.79674072  1
  Tm  Tm16  1  0.39837050  0.72925740  0.79674101  1
  Tm  Tm17  1  0.39837050  0.06748461  0.79674101  1
  Tm  Tm18  1  0.93251480  0.60162914  0.20325828  1
  Tm  Tm19  1  0.27074347  0.60162914  0.20325828  1
  Tm  Tm20  1  0.60162950  0.27074260  0.20325899  1
  Tm  Tm21  1  0.60162950  0.93251539  0.20325799  1
  Sn  Sn0  1  0.00000000  0.35443655  0.00000000  1
  Sn  Sn1  1  -0.00000000  0.64556345  -0.00000000  1
  Sn  Sn2  1  0.35443934  0.00000000  0.00000000  1
  Sn  Sn3  1  0.64556066  -0.00000000  -0.00000000  1
  Sn  Sn4  1  0.11554975  0.11554975  0.23110050  1
  Sn  Sn5  1  0.88445025  0.88445025  0.76890050  1
  Sn  Sn6  1  0.62935354  0.37064823  0.99999900  1
  Sn  Sn7  1  0.37064646  0.62935177  0.99999900  1
  Sn  Sn8  1  0.37064646  0.37064823  0.99999900  1
  Sn  Sn9  1  0.62935254  0.62935077  0.99999900  1
  Sn  Sn10  1  0.75000058  0.25000058  0.50000117  1
  Sn  Sn11  1  0.24999942  0.74999942  0.49999883  1
  Sn  Sn12  1  0.11866824  0.52944317  0.64811099  1
  Sn  Sn13  1  0.52944375  0.11866782  0.64811099  1
  Sn  Sn14  1  0.52944375  0.52944417  0.64811199  1
  Sn  Sn15  1  0.11866824  0.11866782  0.64811099  1
  Sn  Sn16  1  0.88133276  0.47055583  0.35188801  1
  Sn  Sn17  1  0.47055525  0.88133318  0.35188901  1
  Sn  Sn18  1  0.47055525  0.47055583  0.35188901  1
  Sn  Sn19  1  0.88133276  0.88133318  0.35188801  1
loop_
_geom_bond_atom_site_label_1
_geom_bond_atom_site_label_2
_geom_bond_distance
_geom_bond_site_symmetry_2
Tm0 Tm12 3.788189 1_655
Tm1 Tm12 3.788183 1_555
Tm12 Tm3 3.788201 1_545
Tm12 Tm2 3.788202 1_555
Tm12 Tm14 3.937328 1_555
Tm12 Tm15 3.937329 1_555
Tm12 Tm17 3.937337 1_555
Tm12 Tm16 3.937347 1_555
Tm13 Tm4 3.788199 1_655
Tm13 Tm5 3.788211 1_555
Tm13 Tm7 3.788211 1_565
Tm13 Tm6 3.788221 1_555
Tm13 Tm18 3.937331 1_555
Tm13 Tm21 3.937337 1_555
Tm13 Tm19 3.937340 1_555
Tm13 Tm20 3.937350 1_555
Sn0 Tm8 2.871253 1_455
Sn0 Tm10 2.871254 1_555
Sn0 Tm19 3.073704 1_555
Sn0 Tm18 3.073706 1_455
Sn0 Tm14 3.073713 1_554
Sn0 Tm15 3.073716 1_454
Sn0 Sn1 3.334800 1_555
Sn0 Tm7 3.381607 1_454
Sn0 Tm2 3.381611 1_555
Sn1 Tm11 2.871262 1_455
Sn1 Tm9 2.871262 1_555
Sn1 Tm19 3.073704 1_555
Sn1 Tm18 3.073706 1_455
Sn1 Tm15 3.073709 1_454
Sn1 Tm14 3.073713 1_554
Sn1 Tm6 3.381607 1_454
Sn1 Tm3 3.381611 1_555
Sn2 Tm9 2.871292 1_545
Sn2 Tm10 2.871300 1_555
Sn2 Tm20 3.073681 1_555
Sn2 Tm16 3.073682 1_544
Sn2 Tm21 3.073683 1_545
Sn2 Tm17 3.073690 1_554
Sn2 Sn3 3.334739 1_555
Sn2 Tm4 3.381617 1_544
Sn2 Tm1 3.381632 1_555
Sn3 Tm11 2.871292 1_545
Sn3 Tm8 2.871300 1_555
Sn3 Tm21 3.073679 1_545
Sn3 Tm16 3.073681 1_544
Sn3 Tm20 3.073682 1_555
Sn3 Tm17 3.073689 1_554
Sn3 Tm5 3.381618 1_544
Sn3 Tm0 3.381626 1_555
Sn4 Tm1 3.135980 1_555
Sn4 Tm0 3.135982 1_455
Sn4 Tm3 3.135997 1_545
Sn4 Tm2 3.136007 1_555
Sn4 Tm11 3.425379 1_445
Sn4 Tm9 3.425388 1_545
Sn4 Tm10 3.425390 1_555
Sn4 Tm8 3.425393 1_455
Sn4 Tm12 3.684939 1_555
Sn5 Tm5 3.135991 1_555
Sn5 Tm4 3.135992 1_655
Sn5 Tm6 3.136016 1_555
Sn5 Tm7 3.136016 1_565
Sn5 Tm9 3.425382 1_656
Sn5 Tm11 3.425383 1_556
Sn5 Tm10 3.425386 1_666
Sn5 Tm8 3.425390 1_566
Sn5 Tm13 3.684956 1_555
Sn6 Sn9 2.963386 1_555
Sn6 Sn8 2.963440 1_555
Sn6 Tm8 3.182031 1_556
Sn6 Tm15 3.231008 1_555
Sn6 Tm18 3.231012 1_556
Sn6 Tm17 3.231045 1_555
Sn6 Tm20 3.231064 1_556
Sn6 Tm12 3.476067 1_555
Sn6 Tm13 3.476075 1_556
Sn7 Sn8 2.963397 1_555
Sn7 Sn9 2.963428 1_555
Sn7 Tm9 3.182039 1_556
Sn7 Tm14 3.231008 1_555
Sn7 Tm19 3.231028 1_556
Sn7 Tm16 3.231041 1_555
Sn7 Tm21 3.231043 1_556
Sn7 Tm12 3.476068 1_555
Sn7 Tm13 3.476074 1_556
Sn8 Tm10 3.182047 1_556
Sn8 Tm14 3.231003 1_555
Sn8 Tm19 3.231022 1_556
Sn8 Tm17 3.231041 1_555
Sn8 Tm20 3.231057 1_556
Sn8 Tm12 3.476064 1_555
Sn8 Tm13 3.476073 1_556
Sn9 Tm11 3.182047 1_556
Sn9 Tm15 3.231011 1_555
Sn9 Tm18 3.231020 1_556
Sn9 Tm21 3.231047 1_556
Sn9 Tm16 3.231048 1_555
Sn9 Tm12 3.476062 1_555
Sn9 Tm13 3.476066 1_556
Sn10 Tm6 3.023033 1_555
Sn10 Tm7 3.023033 1_555
Sn10 Tm0 3.023071 1_555
Sn10 Tm1 3.023080 1_555
Sn10 Tm15 3.156759 1_555
Sn10 Tm20 3.156762 1_555
Sn10 Tm14 3.156767 1_655
Sn10 Tm21 3.156772 1_545
Sn11 Tm2 3.023044 1_555
Sn11 Tm3 3.023044 1_555
Sn11 Tm5 3.023067 1_555
Sn11 Tm4 3.023069 1_555
Sn11 Tm18 3.156760 1_455
Sn11 Tm19 3.156762 1_555
Sn11 Tm16 3.156762 1_555
Sn11 Tm17 3.156769 1_565
Sn12 Sn16 2.877498 1_455
Sn12 Tm14 3.026584 1_555
Sn12 Tm16 3.026587 1_555
Sn12 Sn7 3.202083 1_555
Sn12 Tm0 3.314328 1_455
Sn12 Tm2 3.314333 1_555
Sn12 Tm12 3.332169 1_555
Sn12 Tm4 3.416872 1_555
Sn12 Tm6 3.416875 1_455
Sn12 Tm9 3.541179 1_556
Sn13 Sn17 2.877484 1_545
Sn13 Tm15 3.026581 1_555
Sn13 Tm17 3.026592 1_555
Sn13 Sn6 3.202087 1_555
Sn13 Tm1 3.314325 1_555
Sn13 Tm3 3.314330 1_545
Sn13 Tm12 3.332177 1_555
Sn13 Tm7 3.416875 1_555
Sn13 Tm5 3.416882 1_545
Sn13 Tm8 3.541169 1_556
Sn14 Sn18 2.877491 1_555
Sn14 Tm15 3.026576 1_555
Sn14 Tm16 3.026587 1_555
Sn14 Sn9 3.202083 1_555
Sn14 Tm2 3.314331 1_555
Sn14 Tm1 3.314335 1_555
Sn14 Tm12 3.332177 1_555
Sn14 Tm5 3.416866 1_555
Sn14 Tm6 3.416881 1_555
Sn14 Tm11 3.541166 1_556
Sn15 Sn19 2.877494 1_445
Sn15 Tm17 3.026582 1_555
Sn15 Tm14 3.026584 1_555
Sn15 Sn8 3.202086 1_555
Sn15 Tm0 3.314329 1_455
Sn15 Tm3 3.314332 1_545
Sn15 Tm12 3.332169 1_555
Sn15 Tm7 3.416875 1_455
Sn15 Tm4 3.416883 1_545
Sn15 Tm10 3.541186 1_556
Sn16 Tm18 3.026582 1_555
Sn16 Tm20 3.026594 1_555
Sn16 Sn6 3.202097 1_554
Sn16 Tm4 3.314337 1_655
Sn16 Tm6 3.314343 1_555
Sn16 Tm13 3.332185 1_555
Sn16 Tm2 3.416871 1_655
Sn16 Tm0 3.416871 1_555
Sn16 Tm8 3.541158 1_555
Sn17 Tm19 3.026586 1_555
Sn17 Tm21 3.026606 1_555
Sn17 Sn7 3.202109 1_554
Sn17 Tm5 3.314344 1_555
Sn17 Tm7 3.314346 1_565
Sn17 Tm13 3.332194 1_555
Sn17 Tm3 3.416853 1_555
Sn17 Tm1 3.416866 1_565
Sn17 Tm9 3.541164 1_555
Sn18 Tm19 3.026587 1_555
Sn18 Tm20 3.026601 1_555
Sn18 Sn8 3.202112 1_554
Sn18 Tm5 3.314335 1_555
Sn18 Tm6 3.314347 1_555
Sn18 Tm13 3.332202 1_555
Sn18 Tm2 3.416853 1_555
Sn18 Tm1 3.416866 1_555
Sn18 Tm10 3.541157 1_555
Sn19 Tm21 3.026585 1_555
Sn19 Tm18 3.026591 1_555
Sn19 Sn9 3.202103 1_554
Sn19 Tm7 3.314341 1_565
Sn19 Tm4 3.314354 1_655
Sn19 Tm13 3.332185 1_555
Sn19 Tm0 3.416860 1_565
Sn19 Tm3 3.416869 1_655
Sn19 Tm11 3.541159 1_555
