# generated using pymatgen
data_NbTlWO6
_symmetry_space_group_name_H-M   'P 1'
_cell_length_a   7.44778923
_cell_length_b   7.44778923
_cell_length_c   7.44778923
_cell_angle_alpha   120.40560839
_cell_angle_beta   119.78728871
_cell_angle_gamma   89.83386376
_symmetry_Int_Tables_number   1
_chemical_formula_structural   NbTlWO6
_chemical_formula_sum   'Nb2 Tl2 W2 O12'
_cell_volume   291.68608421
_cell_formula_units_Z   2
loop_
 _symmetry_equiv_pos_site_id
 _symmetry_equiv_pos_as_xyz
  1  'x, y, z'
loop_
 _atom_site_type_symbol
 _atom_site_label
 _atom_site_symmetry_multiplicity
 _atom_site_fract_x
 _atom_site_fract_y
 _atom_site_fract_z
 _atom_site_occupancy
  Nb  Nb0  1  0.50000000  0.50000000  0.00000000  1
  Nb  Nb1  1  0.00000000  0.50000000  0.50000000  1
  Tl  Tl0  1  0.62365800  0.87365800  0.75000000  1
  Tl  Tl1  1  0.37634200  0.12634200  0.25000000  1
  W  W0  1  0.00000000  0.50000000  0.00000000  1
  W  W1  1  0.00000000  0.00000000  0.50000000  1
  O  O0  1  0.05923200  0.80923200  0.25000000  1
  O  O1  1  0.68530200  0.43530200  0.25000000  1
  O  O2  1  0.06043700  0.81819800  0.62396700  1
  O  O3  1  0.69423100  0.43647000  0.87603300  1
  O  O4  1  0.69423100  0.81819800  0.25776200  1
  O  O5  1  0.06043700  0.43647000  0.24223800  1
  O  O6  1  0.94076800  0.19076800  0.75000000  1
  O  O7  1  0.31469800  0.56469800  0.75000000  1
  O  O8  1  0.93956300  0.18180200  0.37603300  1
  O  O9  1  0.30576900  0.56353000  0.12396700  1
  O  O10  1  0.30576900  0.18180200  0.74223800  1
  O  O11  1  0.93956300  0.56353000  0.75776200  1
loop_
_geom_bond_atom_site_label_1
_geom_bond_atom_site_label_2
_geom_bond_distance
_geom_bond_site_symmetry_2
Nb0 O1 1.988689 1_555
Nb0 O7 1.988689 1_554
Nb0 O9 2.012409 1_555
Nb0 O3 2.012409 1_554
Nb0 O10 2.012409 1_554
Nb0 O4 2.012409 1_555
Nb1 O7 1.988689 1_555
Nb1 O1 1.988689 1_455
Nb1 O8 2.012409 1_455
Nb1 O2 2.012409 1_555
Nb1 O5 2.012416 1_555
Nb1 O11 2.012416 1_455
O0 W0 1.953145 1_555
O0 W1 1.953145 1_565
O2 W1 1.933242 1_565
O3 W0 1.933242 1_656
O4 W1 1.933242 1_665
O5 W0 1.933235 1_555
O6 W1 1.953145 1_655
O6 W0 1.953145 1_656
O8 W1 1.933242 1_655
O9 W0 1.933242 1_555
O10 W1 1.933242 1_555
O11 W0 1.933235 1_656
