# generated using pymatgen
data_CsC(OF)2
_symmetry_space_group_name_H-M   'P 1'
_cell_length_a   5.90963100
_cell_length_b   7.95133000
_cell_length_c   9.63013400
_cell_angle_alpha   90.00000000
_cell_angle_beta   90.00000000
_cell_angle_gamma   90.00000000
_symmetry_Int_Tables_number   1
_chemical_formula_structural   CsC(OF)2
_chemical_formula_sum   'Cs4 C4 O8 F8'
_cell_volume   452.51447146
_cell_formula_units_Z   4
loop_
 _symmetry_equiv_pos_site_id
 _symmetry_equiv_pos_as_xyz
  1  'x, y, z'
loop_
 _atom_site_type_symbol
 _atom_site_label
 _atom_site_symmetry_multiplicity
 _atom_site_fract_x
 _atom_site_fract_y
 _atom_site_fract_z
 _atom_site_occupancy
  Cs  Cs0  1  0.25000000  0.66330600  0.18200600  1
  Cs  Cs1  1  0.75000000  0.33669400  0.81799400  1
  Cs  Cs2  1  0.75000000  0.16330600  0.31799400  1
  Cs  Cs3  1  0.25000000  0.83669400  0.68200600  1
  C  C0  1  0.25000000  0.20187600  0.06501000  1
  C  C1  1  0.75000000  0.79812400  0.93499000  1
  C  C2  1  0.75000000  0.70187600  0.43499000  1
  C  C3  1  0.25000000  0.29812400  0.56501000  1
  O  O0  1  0.07085800  0.29738400  0.07936600  1
  O  O1  1  0.92914200  0.70261600  0.92063400  1
  O  O2  1  0.92914200  0.79738400  0.42063400  1
  O  O3  1  0.57085800  0.70261600  0.92063400  1
  O  O4  1  0.07085800  0.20261600  0.57936600  1
  O  O5  1  0.42914200  0.29738400  0.07936600  1
  O  O6  1  0.42914200  0.20261600  0.57936600  1
  O  O7  1  0.57085800  0.79738400  0.42063400  1
  F  F0  1  0.25000000  0.39035900  0.43482100  1
  F  F1  1  0.75000000  0.60964100  0.56517900  1
  F  F2  1  0.75000000  0.89035900  0.06517900  1
  F  F3  1  0.25000000  0.10964100  0.93482100  1
  F  F4  1  0.25000000  0.06118700  0.16397300  1
  F  F5  1  0.75000000  0.93881300  0.83602700  1
  F  F6  1  0.75000000  0.56118700  0.33602700  1
  F  F7  1  0.25000000  0.43881300  0.66397300  1
loop_
_geom_bond_atom_site_label_1
_geom_bond_atom_site_label_2
_geom_bond_distance
_geom_bond_site_symmetry_2
Cs0 O2 3.164309 1_455
Cs0 O7 3.164309 1_555
Cs0 O3 3.166800 1_554
Cs0 O1 3.166800 1_454
Cs0 F4 3.168446 1_565
Cs0 O5 3.250131 1_555
Cs0 O0 3.250131 1_555
Cs0 F0 3.261541 1_555
Cs0 F6 3.404447 1_455
Cs0 F6 3.404447 1_555
Cs1 O6 3.164309 1_555
Cs1 O4 3.164309 1_655
Cs1 O5 3.166800 1_556
Cs1 O0 3.166800 1_656
Cs1 F5 3.168446 1_545
Cs1 O1 3.250131 1_555
Cs1 O3 3.250131 1_555
Cs1 F1 3.261541 1_555
Cs1 F7 3.404447 1_655
Cs1 F7 3.404447 1_555
Cs2 O5 3.164309 1_555
Cs2 O0 3.164309 1_655
Cs2 O6 3.166800 1_555
Cs2 O4 3.166800 1_655
Cs2 F6 3.168446 1_555
Cs2 O2 3.250131 1_545
Cs2 O7 3.250131 1_545
Cs2 F2 3.261541 1_545
Cs2 F4 3.404447 1_555
Cs2 F4 3.404447 1_655
Cs3 O3 3.164309 1_555
Cs3 O1 3.164309 1_455
Cs3 O7 3.166800 1_555
Cs3 O2 3.166800 1_455
Cs3 F7 3.168446 1_555
Cs3 O4 3.250131 1_565
Cs3 O6 3.250131 1_565
Cs3 F3 3.261541 1_565
Cs3 F5 3.404447 1_455
Cs3 F5 3.404447 1_555
C0 O0 1.310188 1_555
C0 O5 1.310188 1_555
C0 F3 1.452488 1_554
C0 F4 1.469582 1_555
C1 O1 1.310188 1_555
C1 O3 1.310188 1_555
C1 F2 1.452488 1_556
C1 F5 1.469582 1_555
C2 O2 1.310188 1_555
C2 O7 1.310188 1_555
C2 F1 1.452488 1_555
C2 F6 1.469582 1_555
C3 O4 1.310188 1_555
C3 O6 1.310188 1_555
C3 F0 1.452488 1_555
C3 F7 1.469582 1_555
