# generated using pymatgen
data_Li5V3P8O29
_symmetry_space_group_name_H-M   'P 1'
_cell_length_a   9.74277400
_cell_length_b   9.76889451
_cell_length_c   14.11020921
_cell_angle_alpha   89.14657921
_cell_angle_beta   89.41674297
_cell_angle_gamma   60.17073109
_symmetry_Int_Tables_number   1
_chemical_formula_structural   Li5V3P8O29
_chemical_formula_sum   'Li10 V6 P16 O58'
_cell_volume   1164.89379232
_cell_formula_units_Z   2
loop_
 _symmetry_equiv_pos_site_id
 _symmetry_equiv_pos_as_xyz
  1  'x, y, z'
loop_
 _atom_site_type_symbol
 _atom_site_label
 _atom_site_symmetry_multiplicity
 _atom_site_fract_x
 _atom_site_fract_y
 _atom_site_fract_z
 _atom_site_occupancy
  Li  Li0  1  0.32818400  0.90611000  0.44030400  1
  Li  Li1  1  0.32804100  0.76408000  0.94085600  1
  Li  Li2  1  0.90663300  0.32847400  0.93610300  1
  Li  Li3  1  0.23518100  0.66337300  0.55497400  1
  Li  Li4  1  0.76366600  0.33817100  0.44211700  1
  Li  Li5  1  0.66998200  0.23114000  0.05932400  1
  Li  Li6  1  0.66964100  0.09527900  0.56370000  1
  Li  Li7  1  0.23742200  0.09666800  0.05660200  1
  Li  Li8  1  0.99505400  0.93603500  0.01357900  1
  Li  Li9  1  0.00359100  0.99041700  0.49941700  1
  V  V0  1  0.43524900  0.56281200  0.75132400  1
  V  V1  1  0.56624900  0.43377900  0.24515500  1
  V  V2  1  0.99915400  0.56774800  0.25159700  1
  V  V3  1  0.00454800  0.44048900  0.74610600  1
  V  V4  1  0.56558600  0.99567400  0.75102200  1
  V  V5  1  0.43709400  0.00048400  0.25381800  1
  P  P0  1  0.78109500  0.91514500  0.16527000  1
  P  P1  1  0.91891600  0.78279800  0.65785600  1
  P  P2  1  0.31130400  0.91118700  0.65628600  1
  P  P3  1  0.66450500  0.66363100  0.86722100  1
  P  P4  1  0.66783100  0.66119000  0.36820600  1
  P  P5  1  0.31440800  0.77744300  0.15700400  1
  P  P6  1  0.22529800  0.68526700  0.33862200  1
  P  P7  1  0.91688800  0.31530900  0.15410800  1
  P  P8  1  0.08329200  0.69284600  0.84395600  1
  P  P9  1  0.77734500  0.31576900  0.65986700  1
  P  P10  1  0.68785100  0.22205200  0.84179300  1
  P  P11  1  0.33713800  0.33409200  0.63288700  1
  P  P12  1  0.32978700  0.33348800  0.13178600  1
  P  P13  1  0.68710000  0.08887600  0.34663900  1
  P  P14  1  0.08104400  0.22077600  0.33969800  1
  P  P15  1  0.22353100  0.08661100  0.83842100  1
  O  O0  1  0.76615500  0.02242900  0.43944800  1
  O  O1  1  0.74854900  0.92269500  0.65937800  1
  O  O2  1  0.00794000  0.78740600  0.92942600  1
  O  O3  1  0.91972800  0.74265700  0.16722300  1
  O  O4  1  0.62096800  0.92210000  0.17119800  1
  O  O5  1  0.66617200  0.81012200  0.82140900  1
  O  O6  1  0.46704800  0.91265400  0.66627800  1
  O  O7  1  0.22838900  0.99618100  0.92756600  1
  O  O8  1  0.34387100  0.91891800  0.16322900  1
  O  O9  1  0.81114400  0.66888400  0.32009600  1
  O  O10  1  0.91603900  0.62632200  0.66867300  1
  O  O11  1  0.51193800  0.81079500  0.33112300  1
  O  O12  1  0.64595700  0.66624400  0.97205500  1
  O  O13  1  0.67220100  0.65492500  0.47358800  1
  O  O14  1  0.51006400  0.67160500  0.82273800  1
  O  O15  1  0.91261600  0.47231800  0.17215600  1
  O  O16  1  0.81246600  0.51362100  0.82884400  1
  O  O17  1  0.34079900  0.73773700  0.66369100  1
  O  O18  1  0.20411700  0.79600200  0.24726700  1
  O  O19  1  0.21867100  0.77598000  0.42631500  1
  O  O20  1  0.22827100  0.78795100  0.06754500  1
  O  O21  1  0.47116400  0.62023800  0.17069000  1
  O  O22  1  0.67664100  0.50970400  0.32621200  1
  O  O23  1  0.26041700  0.65616100  0.83760500  1
  O  O24  1  0.61629000  0.47079000  0.67506400  1
  O  O25  1  0.91267200  0.34989800  0.66035600  1
  O  O26  1  0.00218100  0.80039900  0.75167600  1
  O  O27  1  0.01128500  0.79292100  0.57483900  1
  O  O28  1  0.98755900  0.20409900  0.41942500  1
  O  O29  1  0.08186900  0.65838600  0.33530800  1
  O  O30  1  0.38016800  0.53036200  0.32704300  1
  O  O31  1  0.74790600  0.33740000  0.15544600  1
  O  O32  1  0.32871300  0.48732400  0.67719900  1
  O  O33  1  0.53009300  0.38177200  0.82610400  1
  O  O34  1  0.76774700  0.23041300  0.93081800  1
  O  O35  1  0.77129000  0.23202800  0.57218600  1
  O  O36  1  0.79740400  0.20650700  0.75160900  1
  O  O37  1  0.65891300  0.25965800  0.33362900  1
  O  O38  1  0.18749700  0.47882700  0.18296600  1
  O  O39  1  0.07904300  0.53865400  0.83361000  1
  O  O40  1  0.48743400  0.32532300  0.16630900  1
  O  O41  1  0.31982400  0.33874100  0.02660000  1
  O  O42  1  0.33600600  0.35191100  0.52794100  1
  O  O43  1  0.49017800  0.18536200  0.67003600  1
  O  O44  1  0.07515400  0.38131000  0.33039100  1
  O  O45  1  0.19275800  0.32886000  0.67848900  1
  O  O46  1  0.65712100  0.08513500  0.83875800  1
  O  O47  1  0.80342000  0.98968900  0.26213800  1
  O  O48  1  0.79943000  0.00622800  0.08432500  1
  O  O49  1  0.52928300  0.09045900  0.33097900  1
  O  O50  1  0.32349300  0.18759100  0.17400500  1
  O  O51  1  0.37690100  0.09351100  0.82544700  1
  O  O52  1  0.07795100  0.25290300  0.83758200  1
  O  O53  1  0.00194200  0.23575200  0.06383600  1
  O  O54  1  0.01016300  0.19848900  0.24091100  1
  O  O55  1  0.25439300  0.08228900  0.34221800  1
  O  O56  1  0.22279000  0.98091400  0.56579900  1
  O  O57  1  0.20273300  0.99796600  0.74759000  1
loop_
_geom_bond_atom_site_label_1
_geom_bond_atom_site_label_2
_geom_bond_distance
_geom_bond_site_symmetry_2
Li0 O56 1.994748 1_555
Li0 O55 2.028007 1_565
Li0 O19 2.038256 1_555
Li0 O11 2.184866 1_555
Li1 O7 1.979850 1_555
Li1 O20 1.986534 1_556
Li1 O23 2.103414 1_555
Li1 O14 2.264896 1_555
Li2 O52 2.005230 1_655
Li2 O34 2.011944 1_555
Li2 O53 2.019858 1_656
Li2 O16 2.167830 1_555
Li3 O27 1.921015 1_555
Li3 O19 2.074149 1_555
Li3 O17 2.179179 1_555
Li3 O32 2.268697 1_555
Li4 O28 1.931896 1_555
Li4 O35 2.078093 1_555
Li4 O22 2.175927 1_555
Li4 O37 2.195150 1_555
Li5 O48 1.942098 1_555
Li5 O34 2.038054 1_554
Li5 O31 2.083357 1_555
Li5 O40 2.155762 1_555
Li6 O0 1.949953 1_555
Li6 O1 1.979889 1_545
Li6 O35 2.025597 1_555
Li6 O43 2.130265 1_555
Li7 O53 2.004561 1_555
Li7 O7 2.104487 1_544
Li7 O8 2.125265 1_545
Li7 O50 2.247107 1_555
Li8 O2 1.844135 1_654
Li8 O48 1.944406 1_565
Li8 O20 2.137232 1_655
Li9 O27 2.158016 1_555
Li9 O28 2.294515 1_465
Li9 O56 2.299494 1_555
Li9 O0 2.340382 1_465
Li9 O19 2.344488 1_555
Li9 O35 2.541275 1_465
O0 P13 1.492431 1_555
O1 P1 1.538412 1_555
O1 V4 2.018469 1_555
O2 P8 1.478921 1_555
O3 P0 1.549058 1_555
O3 V2 1.891693 1_555
O4 P0 1.528898 1_555
O4 V5 1.942695 1_565
O5 P3 1.568881 1_555
O5 V4 1.852412 1_555
O6 P2 1.532504 1_555
O6 V4 1.958591 1_555
O7 P15 1.513721 1_565
O8 P5 1.548867 1_555
O8 V5 1.966631 1_565
O9 P4 1.581019 1_555
O9 V2 1.859460 1_555
O10 P1 1.547992 1_555
O10 V3 1.906756 1_655
O11 P4 1.581669 1_555
O11 V5 1.940896 1_565
O12 P3 1.487455 1_555
O13 P4 1.487481 1_555
O14 P3 1.601646 1_555
O14 V0 1.869154 1_555
O15 P7 1.538522 1_555
O15 V2 1.915390 1_555
O16 P3 1.557226 1_555
O16 V3 2.006444 1_655
O17 P2 1.573365 1_555
O17 V0 1.921383 1_555
O18 P5 1.610853 1_555
O18 P6 1.617468 1_555
O19 P6 1.514811 1_555
O20 P5 1.496725 1_555
O21 P5 1.546628 1_555
O21 V1 1.887899 1_555
O22 P4 1.564338 1_555
O22 V1 1.964411 1_555
O23 P8 1.580199 1_555
O23 V0 1.913301 1_555
O24 P9 1.562155 1_555
O24 V0 1.868122 1_555
O25 P9 1.512317 1_555
O25 V3 1.972418 1_655
O26 P8 1.605627 1_555
O26 P1 1.614797 1_455
O27 P1 1.501807 1_455
O28 P14 1.497647 1_655
O29 P6 1.546161 1_555
O29 V2 1.894467 1_455
O30 P6 1.524514 1_555
O30 V1 1.949408 1_555
O31 P7 1.550303 1_555
O31 V1 1.988276 1_555
O32 P11 1.594681 1_555
O32 V0 1.876608 1_555
O33 P10 1.567399 1_555
O33 V0 1.852972 1_555
O34 P10 1.508889 1_555
O35 P9 1.510960 1_555
O36 P10 1.611970 1_555
O36 P9 1.615447 1_555
O37 P13 1.558403 1_555
O37 V1 1.923227 1_555
O38 P12 1.584688 1_555
O38 V2 1.860824 1_455
O39 P8 1.536433 1_555
O39 V3 1.927897 1_555
O40 P12 1.579525 1_555
O40 V1 1.952373 1_555
O41 P12 1.486810 1_555
O42 P11 1.487940 1_555
O43 P11 1.564288 1_555
O43 V4 1.969518 1_545
O44 P14 1.544152 1_555
O44 V2 1.927772 1_455
O45 P11 1.564436 1_555
O45 V3 1.862244 1_555
O46 P10 1.510232 1_555
O46 V4 1.980332 1_545
O47 P13 1.599786 1_565
O47 P0 1.624530 1_555
O48 P0 1.500608 1_545
O49 P13 1.548019 1_555
O49 V5 1.896965 1_555
O50 P12 1.565534 1_555
O50 V5 1.945688 1_555
O51 P15 1.537888 1_555
O51 V4 1.907455 1_545
O52 P15 1.535709 1_555
O52 V3 2.044538 1_555
O53 P7 1.510118 1_455
O54 P7 1.605504 1_455
O54 P14 1.626495 1_555
O55 P14 1.552620 1_555
O55 V5 1.983002 1_555
O56 P2 1.499996 1_555
O57 P2 1.615557 1_555
O57 P15 1.626800 1_565
