# generated using pymatgen
data_Rb2Ba8Mg(Sb3O)2
_symmetry_space_group_name_H-M   'P 1'
_cell_length_a   9.86387811
_cell_length_b   9.37211160
_cell_length_c   11.30360143
_cell_angle_alpha   119.88675446
_cell_angle_beta   123.07623482
_cell_angle_gamma   82.67632129
_symmetry_Int_Tables_number   1
_chemical_formula_structural   Rb2Ba8Mg(Sb3O)2
_chemical_formula_sum   'Rb2 Ba8 Mg1 Sb6 O2'
_cell_volume   744.01517062
_cell_formula_units_Z   1
loop_
 _symmetry_equiv_pos_site_id
 _symmetry_equiv_pos_as_xyz
  1  'x, y, z'
loop_
 _atom_site_type_symbol
 _atom_site_label
 _atom_site_symmetry_multiplicity
 _atom_site_fract_x
 _atom_site_fract_y
 _atom_site_fract_z
 _atom_site_occupancy
  Rb  Rb0  1  0.00145500  0.99742300  0.99350700  1
  Rb  Rb1  1  0.49068100  0.51339000  0.01152000  1
  Ba  Ba0  1  0.47849500  0.69397200  0.73323300  1
  Ba  Ba1  1  0.18346100  0.00951000  0.71524400  1
  Ba  Ba2  1  0.85950400  0.01829800  0.26064900  1
  Ba  Ba3  1  0.98784300  0.47318200  0.69477200  1
  Ba  Ba4  1  0.51001800  0.30598200  0.26033300  1
  Ba  Ba5  1  0.67514900  0.20683100  0.73578000  1
  Ba  Ba6  1  0.98961700  0.50329200  0.30470200  1
  Ba  Ba7  1  0.29687600  0.80455700  0.34923500  1
  Mg  Mg0  1  0.60810600  0.98247600  0.34326300  1
  Sb  Sb0  1  0.88457400  0.61836800  0.99424900  1
  Sb  Sb1  1  0.64013000  0.14562500  0.98838500  1
  Sb  Sb2  1  0.10737700  0.38415000  0.00854100  1
  Sb  Sb3  1  0.35174400  0.86979400  0.01165400  1
  Sb  Sb4  1  0.24764200  0.26489100  0.52919400  1
  Sb  Sb5  1  0.73798000  0.77743600  0.49074100  1
  O  O0  1  0.74217100  0.20122300  0.44319400  1
  O  O1  1  0.23574900  0.75103000  0.51930500  1
loop_
_geom_bond_atom_site_label_1
_geom_bond_atom_site_label_2
_geom_bond_distance
_geom_bond_site_symmetry_2
Rb0 Sb3 3.439264 1_556
Rb0 Sb1 3.637026 1_465
Rb0 Sb2 3.796702 1_566
Rb0 Sb0 3.877406 1_455
Rb0 Sb5 4.107339 1_455
Rb1 Sb3 3.444652 1_555
Rb1 Sb1 3.514057 1_554
Rb1 Sb4 3.924138 1_554
Rb1 Sb2 4.092816 1_555
Rb1 Sb0 4.253900 1_554
Ba0 O1 2.551275 1_555
Ba0 Sb3 3.575536 1_556
Ba0 Sb1 3.648687 1_565
Ba0 Sb0 3.702920 1_555
Ba0 Sb4 3.746368 1_555
Ba1 O1 2.573176 1_545
Ba1 Sb3 3.666523 1_546
Ba1 Sb1 3.716212 1_555
Ba1 Sb2 3.784975 1_556
Ba1 Sb4 4.172288 1_555
Ba2 O0 2.666778 1_555
Ba2 Sb1 3.363113 1_554
Ba2 Sb4 3.434047 1_655
Ba2 Sb0 3.536407 1_544
Ba3 O0 2.699113 1_555
Ba3 Sb2 3.577661 1_656
Ba3 Sb0 3.628840 1_555
Ba3 Sb4 3.768220 1_655
Ba3 Sb3 3.953532 1_656
Ba4 O0 2.600582 1_555
Ba4 Sb3 3.526447 1_545
Ba4 Sb1 3.544807 1_554
Ba4 Sb2 3.661814 1_555
Ba5 Sb1 3.370570 1_555
Ba5 Sb0 3.448635 1_555
Ba5 Mg0 3.521199 1_545
Ba5 Sb2 3.577288 1_656
Ba5 Sb4 3.669367 1_555
Ba5 Sb5 3.792179 1_545
Ba6 O1 2.562323 1_655
Ba6 Sb1 3.667780 1_554
Ba6 Sb2 3.740527 1_655
Ba6 Sb0 3.750946 1_554
Ba6 Sb4 3.880747 1_655
Ba7 O1 2.571816 1_555
Ba7 Sb0 3.564382 1_454
Ba7 Sb2 3.570424 1_555
Ba7 Sb4 3.845131 1_565
Mg0 O0 1.995141 1_565
Mg0 Sb3 2.819561 1_555
Mg0 Sb5 2.889076 1_555
Sb0 Sb2 2.900083 1_656
