# generated using pymatgen
data_SrCaV2O6
_symmetry_space_group_name_H-M   'P 1'
_cell_length_a   5.41585033
_cell_length_b   7.89245141
_cell_length_c   5.46790004
_cell_angle_alpha   89.99950018
_cell_angle_beta   89.98550174
_cell_angle_gamma   89.96303242
_symmetry_Int_Tables_number   1
_chemical_formula_structural   SrCaV2O6
_chemical_formula_sum   'Sr2 Ca2 V4 O12'
_cell_volume   233.72169803
_cell_formula_units_Z   2
loop_
 _symmetry_equiv_pos_site_id
 _symmetry_equiv_pos_as_xyz
  1  'x, y, z'
loop_
 _atom_site_type_symbol
 _atom_site_label
 _atom_site_symmetry_multiplicity
 _atom_site_fract_x
 _atom_site_fract_y
 _atom_site_fract_z
 _atom_site_occupancy
  Sr  Sr0  1  0.01528100  0.25000600  0.49697000  1
  Sr  Sr1  1  0.51521400  0.25001000  0.00296800  1
  Ca  Ca0  1  0.97784000  0.75000900  0.49773000  1
  Ca  Ca1  1  0.47774200  0.74997100  0.00232300  1
  V  V0  1  0.99969800  0.50461900  0.00108600  1
  V  V1  1  0.49969000  0.50469500  0.49876800  1
  V  V2  1  0.49980700  0.99536800  0.49890300  1
  V  V3  1  0.99971600  0.99527100  0.00121300  1
  O  O0  1  0.99740800  0.24999300  0.95495100  1
  O  O1  1  0.49729200  0.24998600  0.54497800  1
  O  O2  1  0.00949100  0.74993800  0.06378800  1
  O  O3  1  0.50963300  0.75007100  0.43627100  1
  O  O4  1  0.76944300  0.01951900  0.28583900  1
  O  O5  1  0.26961100  0.48074600  0.21404100  1
  O  O6  1  0.76957600  0.48056800  0.28584400  1
  O  O7  1  0.26938000  0.01957000  0.21418700  1
  O  O8  1  0.23063200  0.53412800  0.71313300  1
  O  O9  1  0.73093100  0.96576100  0.78685200  1
  O  O10  1  0.23091100  0.96573300  0.71327500  1
  O  O11  1  0.73070500  0.53403700  0.78687700  1
loop_
_geom_bond_atom_site_label_1
_geom_bond_atom_site_label_2
_geom_bond_distance
_geom_bond_site_symmetry_2
Ca0 O2 2.378892 1_655
Ca0 O8 2.482421 1_655
Ca0 O10 2.484000 1_655
Ca0 O3 2.557994 1_555
Ca0 O4 2.671750 1_565
Ca0 O6 2.672175 1_555
Ca0 O9 2.680109 1_555
Ca0 O11 2.682983 1_555
Ca0 O3 2.899566 1_655
Ca1 O3 2.379106 1_555
Ca1 O11 2.483016 1_554
Ca1 O9 2.484175 1_554
Ca1 O2 2.558066 1_555
Ca1 O5 2.669852 1_555
Ca1 O7 2.671933 1_565
Ca1 O10 2.680092 1_554
Ca1 O8 2.682823 1_554
Ca1 O2 2.899502 1_655
O0 V0 2.025443 1_556
O0 V3 2.026261 1_546
O0 Sr0 2.506040 1_655
O0 Sr1 2.624589 1_556
O0 Sr1 2.816690 1_656
O0 Sr0 2.965311 1_656
O1 V2 2.025330 1_545
O1 V1 2.026143 1_555
O1 Sr1 2.506148 1_556
O1 Sr0 2.623730 1_555
O1 Sr0 2.817540 1_655
O1 Sr1 2.965221 1_555
O2 V3 1.966955 1_455
O2 V0 1.967043 1_455
O3 V2 1.966738 1_555
O3 V1 1.967303 1_555
O4 V2 1.877653 1_545
O4 V3 2.003185 1_545
O4 Sr0 2.533479 1_655
O4 Sr1 2.755928 1_555
O5 V0 1.878498 1_455
O5 V1 2.003379 1_555
O5 Sr1 2.532537 1_555
O5 Sr0 2.758458 1_555
O6 V1 1.878023 1_555
O6 V0 2.003239 1_555
O6 Sr0 2.532265 1_655
O6 Sr1 2.757842 1_555
O7 V3 1.878046 1_445
O7 V2 2.004539 1_545
O7 Sr1 2.533099 1_555
O7 Sr0 2.754646 1_555
O8 V1 1.884121 1_555
O8 V0 2.024085 1_456
O8 Sr0 2.791032 1_555
O8 Sr1 3.148338 1_556
O9 V3 1.883731 1_556
O9 V2 2.025099 1_555
O9 Sr1 2.791098 1_566
O9 Sr0 3.149590 1_665
O10 V2 1.883894 1_555
O10 V3 2.024738 1_456
O10 Sr0 2.791724 1_565
O10 Sr1 3.149538 1_566
O11 V0 1.883760 1_556
O11 V1 2.025363 1_555
O11 Sr1 2.790314 1_556
O11 Sr0 3.147659 1_655
