# generated using pymatgen
data_TmNi3Ge2
_symmetry_space_group_name_H-M   'P 1'
_cell_length_a   17.99570862
_cell_length_b   17.99570862
_cell_length_c   3.79342400
_cell_angle_alpha   90.00000000
_cell_angle_beta   90.00000000
_cell_angle_gamma   120.00000227
_symmetry_Int_Tables_number   1
_chemical_formula_structural   TmNi3Ge2
_chemical_formula_sum   'Tm12 Ni36 Ge24'
_cell_volume   1063.89780875
_cell_formula_units_Z   12
loop_
 _symmetry_equiv_pos_site_id
 _symmetry_equiv_pos_as_xyz
  1  'x, y, z'
loop_
 _atom_site_type_symbol
 _atom_site_label
 _atom_site_symmetry_multiplicity
 _atom_site_fract_x
 _atom_site_fract_y
 _atom_site_fract_z
 _atom_site_occupancy
  Tm  Tm0  1  0.66223400  0.90262800  0.50000000  1
  Tm  Tm1  1  0.24039400  0.33776600  0.50000000  1
  Tm  Tm2  1  0.09737200  0.75960600  0.50000000  1
  Tm  Tm3  1  0.42492800  0.99247100  0.50000000  1
  Tm  Tm4  1  0.56754300  0.57507200  0.50000000  1
  Tm  Tm5  1  0.00752900  0.43245700  0.50000000  1
  Tm  Tm6  1  0.66666700  0.33333300  0.00000000  1
  Tm  Tm7  1  0.83292400  0.66669800  0.50000000  1
  Tm  Tm8  1  0.83377400  0.16707600  0.50000000  1
  Tm  Tm9  1  0.33330200  0.16622600  0.50000000  1
  Tm  Tm10  1  0.33333300  0.66666700  0.50000000  1
  Tm  Tm11  1  0.00000000  0.00000000  0.00000000  1
  Ni  Ni0  1  0.49559000  0.78129100  0.00000000  1
  Ni  Ni1  1  0.28570100  0.50441000  0.00000000  1
  Ni  Ni2  1  0.21870900  0.71429900  0.00000000  1
  Ni  Ni3  1  0.82059900  0.53268000  0.00000000  1
  Ni  Ni4  1  0.71208100  0.17940100  0.00000000  1
  Ni  Ni5  1  0.46732000  0.28791900  0.00000000  1
  Ni  Ni6  1  0.67388200  0.52642100  0.00000000  1
  Ni  Ni7  1  0.85253800  0.32611800  0.00000000  1
  Ni  Ni8  1  0.47357900  0.14746200  0.00000000  1
  Ni  Ni9  1  0.84577700  0.91315000  0.50000000  1
  Ni  Ni10  1  0.06737300  0.15422300  0.50000000  1
  Ni  Ni11  1  0.08685000  0.93262700  0.50000000  1
  Ni  Ni12  1  0.61019900  0.73371200  0.00000000  1
  Ni  Ni13  1  0.12351400  0.38980100  0.00000000  1
  Ni  Ni14  1  0.26628800  0.87648600  0.00000000  1
  Ni  Ni15  1  0.54447300  0.94393100  0.00000000  1
  Ni  Ni16  1  0.39945800  0.45552700  0.00000000  1
  Ni  Ni17  1  0.05606900  0.60054200  0.00000000  1
  Ni  Ni18  1  0.72434500  0.75760400  0.50000000  1
  Ni  Ni19  1  0.03325800  0.27565500  0.50000000  1
  Ni  Ni20  1  0.24239600  0.96674200  0.50000000  1
  Ni  Ni21  1  0.38075200  0.82586900  0.00000000  1
  Ni  Ni22  1  0.44511700  0.61924800  0.00000000  1
  Ni  Ni23  1  0.17413100  0.55488300  0.00000000  1
  Ni  Ni24  1  0.99129900  0.80711300  0.00000000  1
  Ni  Ni25  1  0.81581300  0.00870100  0.00000000  1
  Ni  Ni26  1  0.19288700  0.18418700  0.00000000  1
  Ni  Ni27  1  0.84628100  0.80132700  0.00000000  1
  Ni  Ni28  1  0.95504600  0.15371900  0.00000000  1
  Ni  Ni29  1  0.19867300  0.04495400  0.00000000  1
  Ni  Ni30  1  0.94647100  0.57604600  0.50000000  1
  Ni  Ni31  1  0.62957500  0.05352900  0.50000000  1
  Ni  Ni32  1  0.42395400  0.37042500  0.50000000  1
  Ni  Ni33  1  0.82109900  0.42228800  0.50000000  1
  Ni  Ni34  1  0.60118900  0.17890100  0.50000000  1
  Ni  Ni35  1  0.57771200  0.39881100  0.50000000  1
  Ge  Ge0  1  0.95976000  0.66279200  0.00000000  1
  Ge  Ge1  1  0.70303300  0.04024000  0.00000000  1
  Ge  Ge2  1  0.33720800  0.29696700  0.00000000  1
  Ge  Ge3  1  0.93860000  0.85409300  0.50000000  1
  Ge  Ge4  1  0.91549200  0.06140000  0.50000000  1
  Ge  Ge5  1  0.14590700  0.08450800  0.50000000  1
  Ge  Ge6  1  0.91519800  0.47746400  0.00000000  1
  Ge  Ge7  1  0.56226700  0.08480200  0.00000000  1
  Ge  Ge8  1  0.52253600  0.43773300  0.00000000  1
  Ge  Ge9  1  0.72572300  0.47876400  0.50000000  1
  Ge  Ge10  1  0.75304100  0.27427700  0.50000000  1
  Ge  Ge11  1  0.52123600  0.24695900  0.50000000  1
  Ge  Ge12  1  0.75255900  0.85602900  0.00000000  1
  Ge  Ge13  1  0.10347000  0.24744100  0.00000000  1
  Ge  Ge14  1  0.14397100  0.89653000  0.00000000  1
  Ge  Ge15  1  0.47852600  0.85815600  0.50000000  1
  Ge  Ge16  1  0.37963000  0.52147400  0.50000000  1
  Ge  Ge17  1  0.14184400  0.62037000  0.50000000  1
  Ge  Ge18  1  0.52370200  0.71396300  0.50000000  1
  Ge  Ge19  1  0.19026100  0.47629800  0.50000000  1
  Ge  Ge20  1  0.28603700  0.80973900  0.50000000  1
  Ge  Ge21  1  0.70564100  0.67051400  0.00000000  1
  Ge  Ge22  1  0.96487300  0.29435900  0.00000000  1
  Ge  Ge23  1  0.32948600  0.03512700  0.00000000  1
loop_
_geom_bond_atom_site_label_1
_geom_bond_atom_site_label_2
_geom_bond_distance
_geom_bond_site_symmetry_2
Ni0 Ni21 2.563628 1_555
Ni0 Ni22 2.584541 1_555
Ni0 Ni12 2.598618 1_555
Ni0 Ni15 2.601048 1_555
Ni0 Tm10 3.217972 1_555
Ni0 Tm10 3.217972 1_554
Ni0 Tm0 3.287927 1_555
Ni0 Tm0 3.287927 1_554
Ni1 Ni22 2.563628 1_555
Ni1 Ni23 2.584541 1_555
Ni1 Ni13 2.598605 1_555
Ni1 Ni16 2.601048 1_555
Ni1 Tm10 3.217976 1_554
Ni1 Tm10 3.217976 1_555
Ni1 Tm1 3.287927 1_554
Ni1 Tm1 3.287927 1_555
Ni2 Ni23 2.563628 1_555
Ni2 Ni21 2.584541 1_555
Ni2 Tm10 3.217962 1_554
Ni2 Tm10 3.217962 1_555
Ni2 Tm2 3.287927 1_554
Ni2 Tm2 3.287927 1_555
Ni3 Ni6 2.585799 1_555
Ni3 Ni33 2.749906 1_555
Ni3 Ni33 2.749906 1_554
Ni3 Ni30 2.751316 1_555
Ni3 Ni30 2.751316 1_554
Ni3 Tm7 2.988030 1_555
Ni3 Tm7 2.988030 1_554
Ni3 Tm6 3.256597 1_555
Ni4 Ni7 2.585791 1_555
Ni4 Tm8 2.988030 1_555
Ni4 Tm8 2.988030 1_554
Ni4 Tm6 3.256585 1_555
Ni5 Ni8 2.585781 1_555
Ni5 Tm9 2.988030 1_554
Ni5 Tm9 2.988030 1_555
Ni5 Tm6 3.256602 1_555
Ni6 Tm4 3.114721 1_555
Ni6 Tm4 3.114721 1_554
Ni6 Tm7 3.307041 1_554
Ni6 Tm7 3.307041 1_555
Ni7 Tm5 3.114732 1_654
Ni7 Tm5 3.114732 1_655
Ni7 Tm8 3.307047 1_554
Ni7 Tm8 3.307047 1_555
Ni8 Tm3 3.114735 1_544
Ni8 Tm3 3.114735 1_545
Ni8 Tm9 3.307033 1_554
Ni8 Tm9 3.307033 1_555
Ni9 Tm11 3.066784 1_665
Ni9 Tm11 3.066784 1_666
Ni9 Tm0 3.212499 1_555
Ni10 Ni19 2.548298 1_555
Ni10 Ni28 2.768635 1_455
Ni10 Ni28 2.768635 1_456
Ni10 Tm11 3.066784 1_555
Ni10 Tm11 3.066784 1_556
Ni10 Tm1 3.212499 1_555
Ni11 Ni20 2.548280 1_555
Ni11 Ni29 2.768635 1_566
Ni11 Ni29 2.768635 1_565
Ni11 Tm11 3.066784 1_566
Ni11 Tm11 3.066784 1_565
Ni11 Tm2 3.212499 1_555
Ni12 Ni22 2.636118 1_555
Ni12 Ni18 2.668085 1_554
Ni12 Ni18 2.668085 1_555
Ni12 Tm4 3.185188 1_554
Ni12 Tm4 3.185188 1_555
Ni12 Tm0 3.296677 1_555
Ni12 Tm0 3.296677 1_554
Ni13 Ni23 2.636122 1_555
Ni13 Ni19 2.668093 1_555
Ni13 Ni19 2.668093 1_554
Ni13 Tm5 3.185202 1_554
Ni13 Tm5 3.185202 1_555
Ni13 Tm1 3.296663 1_554
Ni13 Tm1 3.296663 1_555
Ni14 Ni2 2.598601 1_555
Ni14 Ni21 2.636105 1_555
Ni14 Ni20 2.668110 1_555
Ni14 Ni20 2.668110 1_554
Ni14 Tm3 3.185192 1_555
Ni14 Tm3 3.185192 1_554
Ni14 Tm2 3.296674 1_555
Ni14 Tm2 3.296674 1_554
Ni15 Ni31 2.610048 1_565
Ni15 Ni31 2.610048 1_564
Ni15 Ni21 2.633404 1_555
Ni15 Tm0 3.196264 1_555
Ni15 Tm0 3.196264 1_554
Ni15 Tm3 3.296635 1_554
Ni15 Tm3 3.296635 1_555
Ni16 Ni32 2.610048 1_554
Ni16 Ni32 2.610048 1_555
Ni16 Ni22 2.633404 1_555
Ni16 Tm1 3.196264 1_554
Ni16 Tm1 3.196264 1_555
Ni16 Tm4 3.296635 1_555
Ni16 Tm4 3.296635 1_554
Ni17 Ni2 2.601048 1_555
Ni17 Ni30 2.610048 1_455
Ni17 Ni30 2.610048 1_454
Ni17 Ni23 2.633405 1_555
Ni17 Tm2 3.196264 1_554
Ni17 Tm2 3.196264 1_555
Ni17 Tm5 3.296635 1_554
Ni17 Tm5 3.296635 1_555
Ni18 Ni9 2.548285 1_555
Ni18 Ni27 2.702799 1_556
Ni18 Ni27 2.702799 1_555
Ni18 Tm4 3.079497 1_555
Ni18 Tm7 3.112986 1_555
Ni18 Tm0 3.313231 1_555
Ni19 Ni28 2.702797 1_455
Ni19 Ni28 2.702797 1_456
Ni19 Tm5 3.079486 1_555
Ni19 Tm8 3.112971 1_455
Ni19 Tm1 3.313248 1_555
Ni20 Ni29 2.702787 1_566
Ni20 Ni29 2.702787 1_565
Ni20 Tm3 3.079504 1_555
Ni20 Tm9 3.112970 1_565
Ni20 Tm2 3.313244 1_555
Ni21 Tm10 3.176300 1_554
Ni21 Tm10 3.176300 1_555
Ni21 Tm3 3.291625 1_554
Ni21 Tm3 3.291625 1_555
Ni22 Tm10 3.176314 1_554
Ni22 Tm10 3.176314 1_555
Ni22 Tm4 3.291625 1_554
Ni22 Tm4 3.291625 1_555
Ni23 Tm10 3.176303 1_554
Ni23 Tm10 3.176303 1_555
Ni23 Tm5 3.291625 1_554
Ni23 Tm5 3.291625 1_555
Ni24 Ni27 2.559229 1_555
Ni24 Tm2 3.099044 1_655
Ni24 Tm2 3.099044 1_654
Ni24 Tm7 3.302079 1_554
Ni24 Tm7 3.302079 1_555
Ni24 Tm11 3.395557 1_665
Ni25 Ni28 2.559238 1_555
Ni25 Tm0 3.099034 1_544
Ni25 Tm0 3.099034 1_545
Ni25 Tm8 3.302073 1_554
Ni25 Tm8 3.302073 1_555
Ni25 Tm11 3.395575 1_655
Ni26 Ni29 2.559247 1_555
Ni26 Tm1 3.099031 1_554
Ni26 Tm1 3.099031 1_555
Ni26 Tm9 3.302088 1_555
Ni26 Tm9 3.302088 1_554
Ni26 Tm11 3.395565 1_555
Ni27 Ni9 2.768635 1_555
Ni27 Ni9 2.768635 1_554
Ni27 Tm7 2.990423 1_554
Ni27 Tm7 2.990423 1_555
Ni27 Tm11 3.247249 1_665
Ni28 Tm8 2.990423 1_554
Ni28 Tm8 2.990423 1_555
Ni28 Tm11 3.247250 1_655
Ni29 Tm9 2.990423 1_554
Ni29 Tm9 2.990423 1_555
Ni29 Tm11 3.247250 1_555
Ni30 Ni33 2.550235 1_555
Ni30 Tm2 3.052170 1_655
Ni30 Tm7 3.189049 1_555
Ni30 Tm5 3.274682 1_655
Ni31 Ni34 2.550235 1_555
Ni31 Ni4 2.751316 1_555
Ni31 Ni4 2.751316 1_556
Ni31 Tm0 3.052170 1_545
Ni31 Tm8 3.189049 1_555
Ni31 Tm3 3.274682 1_545
Ni32 Ni35 2.550235 1_555
Ni32 Ni5 2.751317 1_555
Ni32 Ni5 2.751317 1_556
Ni32 Tm1 3.052170 1_555
Ni32 Tm9 3.189049 1_555
Ni32 Tm4 3.274682 1_555
Ni33 Ni7 2.809251 1_556
Ni33 Ni7 2.809251 1_555
Ni33 Tm6 3.071603 1_556
Ni33 Tm6 3.071603 1_555
Ni33 Tm5 3.267287 1_655
Ni34 Ni4 2.749906 1_555
Ni34 Ni4 2.749906 1_556
Ni34 Ni8 2.809264 1_555
Ni34 Ni8 2.809264 1_556
Ni34 Tm6 3.071602 1_556
Ni34 Tm6 3.071602 1_555
Ni34 Tm3 3.267287 1_545
Ni35 Ni5 2.749906 1_555
Ni35 Ni5 2.749906 1_556
Ni35 Ni6 2.809260 1_556
Ni35 Ni6 2.809260 1_555
Ni35 Tm6 3.071615 1_556
Ni35 Tm6 3.071615 1_555
Ni35 Tm4 3.267287 1_555
Ge0 Ni24 2.365017 1_555
Ge0 Ni30 2.391293 1_554
Ge0 Ni30 2.391293 1_555
Ge0 Ni3 2.426980 1_555
Ge0 Ni17 2.490031 1_655
Ge0 Tm2 2.907072 1_655
Ge0 Tm2 2.907072 1_654
Ge0 Tm7 2.995450 1_555
Ge0 Tm7 2.995450 1_554
Ge1 Ni25 2.364982 1_555
Ge1 Ni31 2.391304 1_554
Ge1 Ni31 2.391304 1_555
Ge1 Ni4 2.426988 1_555
Ge1 Ni15 2.490046 1_545
Ge1 Tm0 2.907069 1_544
Ge1 Tm0 2.907069 1_545
Ge1 Tm8 2.995443 1_555
Ge1 Tm8 2.995443 1_554
Ge2 Ni26 2.365006 1_555
Ge2 Ni32 2.391297 1_554
Ge2 Ni32 2.391297 1_555
Ge2 Ni5 2.426970 1_555
Ge2 Ni16 2.490048 1_555
Ge2 Tm1 2.907082 1_554
Ge2 Tm1 2.907082 1_555
Ge2 Tm9 2.995436 1_555
Ge2 Tm9 2.995436 1_554
Ge3 Ni11 2.311800 1_655
Ge3 Ni27 2.383632 1_556
Ge3 Ni27 2.383632 1_555
Ge3 Ni9 2.386430 1_555
Ge3 Ni24 2.452231 1_555
Ge3 Ni24 2.452231 1_556
Ge3 Tm7 2.928447 1_555
Ge3 Tm11 2.968412 1_666
Ge3 Tm11 2.968412 1_665
Ge4 Ni9 2.311800 1_545
Ge4 Ni28 2.383631 1_555
Ge4 Ni28 2.383631 1_556
Ge4 Ni10 2.386444 1_655
Ge4 Ni25 2.452231 1_556
Ge4 Ni25 2.452231 1_555
Ge4 Tm8 2.928432 1_555
Ge4 Tm11 2.968424 1_655
Ge4 Tm11 2.968424 1_656
Ge5 Ni10 2.311785 1_555
Ge5 Ni29 2.383641 1_556
Ge5 Ni29 2.383641 1_555
Ge5 Ni11 2.386446 1_545
Ge5 Ni26 2.452231 1_556
Ge5 Ni26 2.452231 1_555
Ge5 Tm9 2.928448 1_555
Ge5 Tm11 2.968413 1_556
Ge5 Tm11 2.968413 1_555
Ge6 Ni3 2.361566 1_555
Ge6 Ni7 2.370285 1_555
Ge6 Ni17 2.391108 1_655
Ge6 Ni33 2.401989 1_554
Ge6 Ni33 2.401989 1_555
Ge6 Ni30 2.462336 1_554
Ge6 Ni30 2.462336 1_555
Ge6 Tm5 2.891375 1_654
Ge6 Tm5 2.891375 1_655
Ge7 Ni4 2.361552 1_555
Ge7 Ni8 2.370317 1_555
Ge7 Ni15 2.391101 1_545
Ge7 Ni34 2.401990 1_555
Ge7 Ni34 2.401990 1_554
Ge7 Ni31 2.462325 1_555
Ge7 Ni31 2.462325 1_554
Ge7 Tm3 2.891385 1_545
Ge7 Tm3 2.891385 1_544
Ge8 Ni5 2.361549 1_555
Ge8 Ni6 2.370288 1_555
Ge8 Ni16 2.391119 1_555
Ge8 Ni35 2.401980 1_554
Ge8 Ni35 2.401980 1_555
Ge8 Ni32 2.462334 1_554
Ge8 Ni32 2.462334 1_555
Ge8 Tm4 2.891388 1_554
Ge8 Tm4 2.891388 1_555
Ge9 Ni35 2.309195 1_555
Ge9 Ni33 2.392318 1_555
Ge9 Ni3 2.407783 1_556
Ge9 Ni3 2.407783 1_555
Ge9 Ni6 2.450194 1_555
Ge9 Ni6 2.450194 1_556
Ge9 Tm7 2.938569 1_555
Ge9 Tm6 2.965634 1_556
Ge9 Tm6 2.965634 1_555
Ge10 Ni33 2.309195 1_555
Ge10 Ni34 2.392318 1_555
Ge10 Ni4 2.407783 1_556
Ge10 Ni4 2.407783 1_555
Ge10 Ni7 2.450184 1_556
Ge10 Ni7 2.450184 1_555
Ge10 Tm8 2.938569 1_555
Ge10 Tm6 2.965621 1_556
Ge10 Tm6 2.965621 1_555
Ge11 Ni34 2.309195 1_555
Ge11 Ni35 2.392318 1_555
Ge11 Ni5 2.407783 1_555
Ge11 Ni5 2.407783 1_556
Ge11 Ni8 2.450184 1_555
Ge11 Ni8 2.450184 1_556
Ge11 Tm9 2.938569 1_555
Ge11 Tm6 2.965632 1_556
Ge11 Tm6 2.965632 1_555
Ge12 Ni27 2.339643 1_555
Ge12 Ni25 2.390972 1_565
Ge12 Ni9 2.396637 1_555
Ge12 Ni9 2.396637 1_554
Ge12 Ni12 2.401923 1_555
Ge12 Ni18 2.468450 1_555
Ge12 Ni18 2.468450 1_554
Ge12 Tm0 2.882004 1_555
Ge12 Tm0 2.882004 1_554
Ge13 Ni28 2.339643 1_455
Ge13 Ni26 2.390955 1_555
Ge13 Ni10 2.396637 1_554
Ge13 Ni10 2.396637 1_555
Ge13 Ni13 2.401916 1_555
Ge13 Ni19 2.468461 1_555
Ge13 Ni19 2.468461 1_554
Ge13 Tm1 2.882004 1_554
Ge13 Tm1 2.882004 1_555
Ge14 Ni29 2.339643 1_565
Ge14 Ni24 2.390970 1_455
Ge14 Ni11 2.396637 1_555
Ge14 Ni11 2.396637 1_554
Ge14 Ni14 2.401934 1_555
Ge14 Ni20 2.468453 1_555
Ge14 Ni20 2.468453 1_554
Ge14 Tm2 2.882004 1_555
Ge14 Tm2 2.882004 1_554
Ge15 Ni15 2.357266 1_555
Ge15 Ni15 2.357266 1_556
Ge15 Ni21 2.451258 1_556
Ge15 Ni21 2.451258 1_555
Ge15 Ni0 2.455592 1_556
Ge15 Ni0 2.455592 1_555
Ge15 Tm0 2.987316 1_555
Ge15 Tm3 3.017290 1_555
Ge15 Tm10 3.114151 1_555
Ge16 Ni16 2.357266 1_555
Ge16 Ni16 2.357266 1_556
Ge16 Ni22 2.451258 1_556
Ge16 Ni22 2.451258 1_555
Ge16 Ni1 2.455592 1_555
Ge16 Ni1 2.455592 1_556
Ge16 Tm1 2.987316 1_555
Ge16 Tm4 3.017290 1_555
Ge16 Tm10 3.114163 1_555
Ge17 Ni17 2.357266 1_555
Ge17 Ni17 2.357266 1_556
Ge17 Ni23 2.451259 1_555
Ge17 Ni23 2.451259 1_556
Ge17 Ni2 2.455592 1_555
Ge17 Ni2 2.455592 1_556
Ge17 Tm2 2.987316 1_555
Ge17 Tm5 3.017289 1_555
Ge17 Tm10 3.114146 1_555
Ge18 Ni12 2.365068 1_556
Ge18 Ni12 2.365068 1_555
Ge18 Ni0 2.436064 1_556
Ge18 Ni0 2.436064 1_555
Ge18 Ni22 2.468241 1_555
Ge18 Ni22 2.468241 1_556
Ge18 Tm4 2.973481 1_555
Ge18 Tm0 3.045981 1_555
Ge18 Tm10 3.089480 1_555
Ge19 Ni13 2.365065 1_555
Ge19 Ni13 2.365065 1_556
Ge19 Ni1 2.436064 1_555
Ge19 Ni1 2.436064 1_556
Ge19 Ni23 2.468241 1_556
Ge19 Ni23 2.468241 1_555
Ge19 Tm5 2.973480 1_555
Ge19 Tm1 3.045981 1_555
Ge19 Tm10 3.089475 1_555
Ge20 Ni14 2.365057 1_556
Ge20 Ni14 2.365057 1_555
Ge20 Ni2 2.436064 1_556
Ge20 Ni2 2.436064 1_555
Ge20 Ni21 2.468241 1_555
Ge20 Ni21 2.468241 1_556
Ge20 Tm3 2.973480 1_555
Ge20 Tm2 3.045981 1_555
Ge20 Tm10 3.089462 1_555
Ge21 Ni6 2.359784 1_555
Ge21 Ni18 2.374773 1_555
Ge21 Ni18 2.374773 1_554
Ge21 Ni27 2.447291 1_555
Ge21 Ni12 2.489328 1_555
Ge21 Tm4 2.907776 1_555
Ge21 Tm4 2.907776 1_554
Ge21 Tm7 3.001023 1_554
Ge21 Tm7 3.001023 1_555
Ge22 Ni7 2.359802 1_555
Ge22 Ni19 2.374763 1_654
Ge22 Ni19 2.374763 1_655
Ge22 Ni28 2.447291 1_555
Ge22 Ni13 2.489342 1_655
Ge22 Tm5 2.907776 1_655
Ge22 Tm5 2.907776 1_654
Ge22 Tm8 3.001023 1_554
Ge22 Tm8 3.001023 1_555
Ge23 Ni8 2.359790 1_555
Ge23 Ni20 2.374770 1_545
Ge23 Ni20 2.374770 1_544
Ge23 Ni29 2.447291 1_555
Ge23 Ni14 2.489344 1_545
Ge23 Tm3 2.907776 1_544
Ge23 Tm3 2.907776 1_545
Ge23 Tm9 3.001023 1_554
Ge23 Tm9 3.001023 1_555
