# generated using pymatgen
data_MgTl3
_symmetry_space_group_name_H-M   'P 1'
_cell_length_a   6.01017104
_cell_length_b   6.01017104
_cell_length_c   6.01017104
_cell_angle_alpha   134.47722976
_cell_angle_beta   134.47722976
_cell_angle_gamma   66.34356061
_symmetry_Int_Tables_number   1
_chemical_formula_structural   MgTl3
_chemical_formula_sum   'Mg1 Tl3'
_cell_volume   108.80478048
_cell_formula_units_Z   1
loop_
 _symmetry_equiv_pos_site_id
 _symmetry_equiv_pos_as_xyz
  1  'x, y, z'
loop_
 _atom_site_type_symbol
 _atom_site_label
 _atom_site_symmetry_multiplicity
 _atom_site_fract_x
 _atom_site_fract_y
 _atom_site_fract_z
 _atom_site_occupancy
  Mg  Mg0  1  -0.00000000  0.00000000  -0.00000000  1
  Tl  Tl0  1  0.50000000  0.50000000  -0.00000000  1
  Tl  Tl1  1  0.75000000  0.25000000  0.50000000  1
  Tl  Tl2  1  0.25000000  0.75000000  0.50000000  1
loop_
_geom_bond_atom_site_label_1
_geom_bond_atom_site_label_2
_geom_bond_distance
_geom_bond_site_symmetry_2
Mg0 Tl0 3.288471 1_545
Mg0 Tl0 3.288471 1_455
Mg0 Tl0 3.288471 1_556
Mg0 Tl0 3.288471 1_444
Mg0 Tl2 3.425500 1_544
Mg0 Tl1 3.425500 1_454
Mg0 Tl2 3.425500 1_444
Mg0 Tl1 3.425500 1_455
Mg0 Tl1 3.425500 1_555
Mg0 Tl2 3.425500 1_555
Mg0 Tl1 3.425500 1_444
Mg0 Tl2 3.425500 1_545
Tl0 Tl2 3.425500 1_544
Tl0 Tl1 3.425500 1_454
Tl0 Tl1 3.425500 1_554
Tl0 Tl1 3.425500 1_555
Tl0 Tl2 3.425500 1_555
Tl0 Tl1 3.425500 1_565
Tl0 Tl2 3.425500 1_554
Tl0 Tl2 3.425500 1_655
Tl1 Tl2 3.288471 1_555
Tl1 Tl2 3.288471 1_544
Tl1 Tl2 3.288471 1_656
Tl1 Tl2 3.288471 1_645
