# generated using pymatgen
data_MgSi2
_symmetry_space_group_name_H-M   'P 1'
_cell_length_a   5.39746817
_cell_length_b   5.39746817
_cell_length_c   12.35445172
_cell_angle_alpha   72.21378364
_cell_angle_beta   72.21378364
_cell_angle_gamma   41.27954987
_symmetry_Int_Tables_number   1
_chemical_formula_structural   MgSi2
_chemical_formula_sum   'Mg4 Si8'
_cell_volume   224.44386066
_cell_formula_units_Z   4
loop_
 _symmetry_equiv_pos_site_id
 _symmetry_equiv_pos_as_xyz
  1  'x, y, z'
loop_
 _atom_site_type_symbol
 _atom_site_label
 _atom_site_symmetry_multiplicity
 _atom_site_fract_x
 _atom_site_fract_y
 _atom_site_fract_z
 _atom_site_occupancy
  Mg  Mg0  1  0.36956400  0.36956400  0.17043800  1
  Mg  Mg1  1  0.63043600  0.63043600  0.82956200  1
  Mg  Mg2  1  0.17906200  0.17906200  0.61161000  1
  Mg  Mg3  1  0.82093800  0.82093800  0.38839000  1
  Si  Si0  1  0.31995800  0.31995800  0.88144300  1
  Si  Si1  1  0.68004200  0.68004200  0.11855700  1
  Si  Si2  1  0.54499200  0.54499200  0.31581700  1
  Si  Si3  1  0.45500800  0.45500800  0.68418300  1
  Si  Si4  1  0.09291100  0.09291100  0.03869300  1
  Si  Si5  1  0.90708900  0.90708900  0.96130700  1
  Si  Si6  1  0.89620000  0.89620000  0.58726200  1
  Si  Si7  1  0.10380000  0.10380000  0.41273800  1
loop_
_geom_bond_atom_site_label_1
_geom_bond_atom_site_label_2
_geom_bond_distance
_geom_bond_site_symmetry_2
Mg0 Si2 2.905941 1_555
Mg0 Si1 2.915005 1_455
Mg0 Si1 2.915005 1_545
Mg0 Si1 2.989287 1_555
Mg0 Si4 2.993696 1_565
Mg0 Si4 2.993696 1_655
Mg0 Si5 3.130421 1_544
Mg0 Si5 3.130421 1_454
Mg0 Mg3 3.201256 1_545
Mg0 Mg3 3.201256 1_455
Mg0 Si7 3.304876 1_555
Mg1 Si3 2.905941 1_555
Mg1 Si0 2.915005 1_655
Mg1 Si0 2.915005 1_565
Mg1 Si0 2.989287 1_555
Mg1 Si5 2.993696 1_455
Mg1 Si5 2.993696 1_545
Mg1 Si4 3.130421 1_656
Mg1 Si4 3.130421 1_566
Mg1 Mg2 3.201256 1_565
Mg1 Mg2 3.201256 1_655
Mg1 Si6 3.304876 1_555
Mg2 Si7 2.798963 1_555
Mg2 Si6 2.844484 1_455
Mg2 Si6 2.844484 1_545
Mg2 Si3 2.867368 1_545
Mg2 Si3 2.867368 1_455
Mg2 Si6 2.969323 1_445
Mg3 Si6 2.798963 1_555
Mg3 Si7 2.844484 1_655
Mg3 Si7 2.844484 1_565
Mg3 Si2 2.867368 1_655
Mg3 Si2 2.867368 1_565
Mg3 Si7 2.969323 1_665
Si0 Si3 2.372736 1_555
Si0 Si5 2.436185 1_455
Si0 Si5 2.436185 1_545
Si0 Si4 2.475082 1_556
Si1 Si2 2.372736 1_555
Si1 Si4 2.436185 1_655
Si1 Si4 2.436185 1_565
Si1 Si5 2.475082 1_554
Si2 Si7 2.422984 1_565
Si2 Si7 2.422984 1_655
Si3 Si6 2.422984 1_455
Si3 Si6 2.422984 1_545
Si4 Si5 2.368444 1_444
Si6 Si7 2.468837 1_665
