# generated using pymatgen
data_NdHfF7
_symmetry_space_group_name_H-M   'P 1'
_cell_length_a   5.75358859
_cell_length_b   6.20856415
_cell_length_c   8.36035711
_cell_angle_alpha   102.09810824
_cell_angle_beta   90.00000000
_cell_angle_gamma   90.00000000
_symmetry_Int_Tables_number   1
_chemical_formula_structural   NdHfF7
_chemical_formula_sum   'Nd2 Hf2 F14'
_cell_volume   292.01184416
_cell_formula_units_Z   2
loop_
 _symmetry_equiv_pos_site_id
 _symmetry_equiv_pos_as_xyz
  1  'x, y, z'
loop_
 _atom_site_type_symbol
 _atom_site_label
 _atom_site_symmetry_multiplicity
 _atom_site_fract_x
 _atom_site_fract_y
 _atom_site_fract_z
 _atom_site_occupancy
  Nd  Nd0  1  0.70003506  0.66027837  0.68708545  1
  Nd  Nd1  1  0.20003506  0.33972163  0.31291455  1
  Hf  Hf0  1  0.71024515  0.80775377  0.22317076  1
  Hf  Hf1  1  0.21024515  0.19224623  0.77682924  1
  F  F0  1  0.87249810  0.43703971  0.46879463  1
  F  F1  1  0.37249810  0.56296029  0.53120537  1
  F  F2  1  0.43347060  0.94735980  0.77422681  1
  F  F3  1  0.93347060  0.05264020  0.22577319  1
  F  F4  1  0.95756562  0.96784119  0.76061536  1
  F  F5  1  0.45756562  0.03215881  0.23938464  1
  F  F6  1  0.99693218  0.44723352  0.78610541  1
  F  F7  1  0.49693218  0.55276648  0.21389459  1
  F  F8  1  0.70017539  0.75528062  0.98108590  1
  F  F9  1  0.20017539  0.24471938  0.01891410  1
  F  F10  1  0.71593790  0.85854905  0.46666116  1
  F  F11  1  0.21593790  0.14145095  0.53333884  1
  F  F12  1  0.48949999  0.38569299  0.78761886  1
  F  F13  1  0.98949999  0.61430701  0.21238114  1
loop_
_geom_bond_atom_site_label_1
_geom_bond_atom_site_label_2
_geom_bond_distance
_geom_bond_site_symmetry_2
F0 Nd0 2.275064 1_555
F0 Nd1 2.298860 1_655
F1 Nd1 2.275064 1_555
F1 Nd0 2.298860 1_555
F2 Hf1 1.986895 1_565
F2 Nd0 2.348515 1_555
F3 Hf0 1.986895 1_545
F3 Nd1 2.348515 1_655
F4 Hf1 1.998471 1_665
F4 Nd0 2.393249 1_555
F5 Hf0 1.998471 1_545
F5 Nd1 2.393249 1_555
F6 Hf1 1.991752 1_655
F6 Nd0 2.410785 1_555
F7 Hf0 1.991752 1_555
F7 Nd1 2.410785 1_555
F8 Hf0 1.982257 1_556
F8 Nd0 2.404518 1_555
F9 Hf1 1.982257 1_554
F9 Nd1 2.404518 1_555
F10 Hf0 1.993832 1_555
F10 Nd0 2.422925 1_555
F11 Hf1 1.993832 1_555
F11 Nd1 2.422925 1_555
F12 Hf1 1.996680 1_555
F12 Nd0 2.383412 1_555
F13 Hf0 1.996680 1_555
F13 Nd1 2.383412 1_655
