# generated using pymatgen
data_SrCa7TiMn7O20
_symmetry_space_group_name_H-M   'P 1'
_cell_length_a   11.07911992
_cell_length_b   15.56173586
_cell_length_c   11.22178449
_cell_angle_alpha   90.29127733
_cell_angle_beta   91.70901385
_cell_angle_gamma   90.27732750
_symmetry_Int_Tables_number   1
_chemical_formula_structural   SrCa7TiMn7O20
_chemical_formula_sum   'Sr4 Ca28 Ti4 Mn28 O80'
_cell_volume   1933.84193052
_cell_formula_units_Z   4
loop_
 _symmetry_equiv_pos_site_id
 _symmetry_equiv_pos_as_xyz
  1  'x, y, z'
loop_
 _atom_site_type_symbol
 _atom_site_label
 _atom_site_symmetry_multiplicity
 _atom_site_fract_x
 _atom_site_fract_y
 _atom_site_fract_z
 _atom_site_occupancy
  Sr  Sr0  1  0.99888621  0.11441214  0.51684937  1
  Sr  Sr1  1  0.51158926  0.37768832  0.00176594  1
  Sr  Sr2  1  0.24722147  0.38591135  0.24790799  1
  Sr  Sr3  1  0.22916117  0.12386836  0.24362041  1
  Ca  Ca0  1  0.98028611  0.12101477  0.02077601  1
  Ca  Ca1  1  0.99228448  0.61414905  0.51623778  1
  Ca  Ca2  1  0.98289335  0.61577211  0.02003351  1
  Ca  Ca3  1  0.53946613  0.12997729  0.47813091  1
  Ca  Ca4  1  0.54627938  0.12110306  0.98330164  1
  Ca  Ca5  1  0.54608812  0.62981998  0.48145587  1
  Ca  Ca6  1  0.54963366  0.62818376  0.97866722  1
  Ca  Ca7  1  0.51577955  0.37506688  0.48259917  1
  Ca  Ca8  1  0.52687463  0.87079015  0.98786991  1
  Ca  Ca9  1  0.51694500  0.87029244  0.47668800  1
  Ca  Ca10  1  0.96359342  0.38519225  0.00793133  1
  Ca  Ca11  1  0.95549705  0.38704660  0.50894800  1
  Ca  Ca12  1  0.95687247  0.87841935  0.00572058  1
  Ca  Ca13  1  0.95273962  0.88070506  0.51455068  1
  Ca  Ca14  1  0.23665252  0.39776303  0.74308939  1
  Ca  Ca15  1  0.23922707  0.88263338  0.28392341  1
  Ca  Ca16  1  0.23603465  0.89191612  0.75153856  1
  Ca  Ca17  1  0.76068418  0.38570910  0.25583771  1
  Ca  Ca18  1  0.77379932  0.37418913  0.76736151  1
  Ca  Ca19  1  0.74747221  0.86768941  0.25529022  1
  Ca  Ca20  1  0.74742256  0.86999136  0.75258390  1
  Ca  Ca21  1  0.22782838  0.11404926  0.73945665  1
  Ca  Ca22  1  0.22662273  0.61992360  0.24597780  1
  Ca  Ca23  1  0.22478837  0.61968973  0.74000887  1
  Ca  Ca24  1  0.76937419  0.11587870  0.25034975  1
  Ca  Ca25  1  0.77828471  0.12271969  0.75441249  1
  Ca  Ca26  1  0.77900797  0.62212613  0.25353451  1
  Ca  Ca27  1  0.78360880  0.62131141  0.75607771  1
  Ti  Ti0  1  0.98916489  0.99037620  0.26627512  1
  Ti  Ti1  1  0.24597258  0.97400264  0.02520726  1
  Ti  Ti2  1  0.25957028  0.24450133  0.94412412  1
  Ti  Ti3  1  0.98450001  0.25322893  0.27843068  1
  Mn  Mn0  1  0.99219780  0.99542862  0.75863424  1
  Mn  Mn1  1  0.99888756  0.49840463  0.25981524  1
  Mn  Mn2  1  0.99838711  0.49743807  0.75721097  1
  Mn  Mn3  1  0.50326888  0.99212547  0.22706733  1
  Mn  Mn4  1  0.50469628  0.98630453  0.72686854  1
  Mn  Mn5  1  0.50611962  0.50351985  0.23581345  1
  Mn  Mn6  1  0.50283922  0.48779931  0.73172428  1
  Mn  Mn7  1  0.24595746  0.99873329  0.51782947  1
  Mn  Mn8  1  0.23285880  0.51742189  0.01704008  1
  Mn  Mn9  1  0.24450846  0.50392312  0.51469796  1
  Mn  Mn10  1  0.74967959  0.99931417  0.99365105  1
  Mn  Mn11  1  0.73739322  0.00166412  0.49943232  1
  Mn  Mn12  1  0.74787169  0.50198532  0.99857942  1
  Mn  Mn13  1  0.74308532  0.50322432  0.50127972  1
  Mn  Mn14  1  0.27267368  0.24928028  0.46968300  1
  Mn  Mn15  1  0.27120009  0.73904340  0.94999793  1
  Mn  Mn16  1  0.27227667  0.73908940  0.46336382  1
  Mn  Mn17  1  0.75590838  0.24750891  0.00559938  1
  Mn  Mn18  1  0.74539530  0.24962560  0.50960827  1
  Mn  Mn19  1  0.75857667  0.74786858  0.00185355  1
  Mn  Mn20  1  0.75495426  0.74789293  0.50399562  1
  Mn  Mn21  1  0.99706652  0.25253927  0.76743871  1
  Mn  Mn22  1  0.99697286  0.75103659  0.26820726  1
  Mn  Mn23  1  0.99988075  0.75474590  0.76343873  1
  Mn  Mn24  1  0.52272724  0.25267267  0.25226735  1
  Mn  Mn25  1  0.50690891  0.25372223  0.75726187  1
  Mn  Mn26  1  0.50798513  0.74533268  0.24629774  1
  Mn  Mn27  1  0.50995841  0.74567904  0.74914297  1
  O  O0  1  0.59439853  0.24811328  0.09853597  1
  O  O1  1  0.56811637  0.25541696  0.59286270  1
  O  O2  1  0.59465075  0.75519552  0.09216268  1
  O  O3  1  0.58765347  0.75690241  0.59151578  1
  O  O4  1  0.40360290  0.20443721  0.35116679  1
  O  O5  1  0.39230047  0.18836066  0.87533424  1
  O  O6  1  0.39914039  0.67769281  0.35224943  1
  O  O7  1  0.40062609  0.67676763  0.85122417  1
  O  O8  1  0.90646013  0.23762725  0.41348906  1
  O  O9  1  0.90433878  0.23877347  0.92023108  1
  O  O10  1  0.90492079  0.73591283  0.42155331  1
  O  O11  1  0.90956301  0.73752235  0.91893435  1
  O  O12  1  0.14877649  0.25389691  0.32462344  1
  O  O13  1  0.17662110  0.25660800  0.79703594  1
  O  O14  1  0.16566473  0.75064451  0.31038719  1
  O  O15  1  0.17297620  0.75588344  0.79201917  1
  O  O16  1  0.65522935  0.21869383  0.34936777  1
  O  O17  1  0.65756418  0.22859246  0.85805208  1
  O  O18  1  0.65823247  0.72883035  0.35400215  1
  O  O19  1  0.66046042  0.72644329  0.85347928  1
  O  O20  1  0.86091053  0.26682268  0.15328275  1
  O  O21  1  0.86303432  0.26900416  0.65237807  1
  O  O22  1  0.86101197  0.77342482  0.15044848  1
  O  O23  1  0.85884868  0.77579448  0.65037051  1
  O  O24  1  0.35499478  0.51879464  0.14321649  1
  O  O25  1  0.35088413  0.51498647  0.66015926  1
  O  O26  1  0.36271602  0.03415316  0.11572578  1
  O  O27  1  0.34792215  0.00617821  0.66156910  1
  O  O28  1  0.85387578  0.48760524  0.13962928  1
  O  O29  1  0.84869940  0.48211965  0.64367127  1
  O  O30  1  0.86548229  0.97642668  0.15425885  1
  O  O31  1  0.83945726  0.98170297  0.64239330  1
  O  O32  1  0.15671924  0.00501521  0.36666262  1
  O  O33  1  0.19676970  0.00967978  0.87885325  1
  O  O34  1  0.16226977  0.50669874  0.36356486  1
  O  O35  1  0.16016822  0.50684219  0.86185974  1
  O  O36  1  0.63365086  0.02258559  0.34896366  1
  O  O37  1  0.62607403  0.02546297  0.83423052  1
  O  O38  1  0.63751673  0.52641511  0.35256713  1
  O  O39  1  0.62879691  0.51733391  0.84660522  1
  O  O40  1  0.88614203  0.00979480  0.39632852  1
  O  O41  1  0.89658940  0.01496466  0.89996748  1
  O  O42  1  0.88830438  0.51485380  0.39613632  1
  O  O43  1  0.88984460  0.51382534  0.89209399  1
  O  O44  1  0.09785055  0.47612338  0.12065456  1
  O  O45  1  0.09645975  0.47497149  0.61947263  1
  O  O46  1  0.11410194  0.96709468  0.12122537  1
  O  O47  1  0.09773951  0.97513201  0.62462596  1
  O  O48  1  0.60522851  0.50425330  0.09375916  1
  O  O49  1  0.58755911  0.49730490  0.58434611  1
  O  O50  1  0.60496741  0.98982278  0.08380596  1
  O  O51  1  0.58225811  0.99460563  0.57619885  1
  O  O52  1  0.98325169  0.37592636  0.29342995  1
  O  O53  1  0.99595657  0.37308661  0.79825561  1
  O  O54  1  0.00224038  0.87342878  0.30370764  1
  O  O55  1  0.00660308  0.87698008  0.80349503  1
  O  O56  1  0.48267926  0.37581920  0.26815623  1
  O  O57  1  0.44798770  0.37733858  0.78841241  1
  O  O58  1  0.45615805  0.87122880  0.27557805  1
  O  O59  1  0.47237120  0.87258640  0.78687989  1
  O  O60  1  0.99507363  0.12260788  0.23598983  1
  O  O61  1  0.00734041  0.12549587  0.73777591  1
  O  O62  1  0.99832603  0.62839612  0.22999383  1
  O  O63  1  0.99986726  0.63112841  0.72545578  1
  O  O64  1  0.17507589  0.17746180  0.04010257  1
  O  O65  1  0.23243431  0.13053101  0.53397055  1
  O  O66  1  0.19722063  0.64136544  0.03815948  1
  O  O67  1  0.20988775  0.63046119  0.53482431  1
  O  O68  1  0.75850326  0.12174603  0.03857454  1
  O  O69  1  0.74694127  0.12570650  0.54260585  1
  O  O70  1  0.76048422  0.62805604  0.03542776  1
  O  O71  1  0.75454631  0.62563415  0.54413255  1
  O  O72  1  0.29995202  0.37880271  0.49862003  1
  O  O73  1  0.28798963  0.34821677  0.01465765  1
  O  O74  1  0.29607990  0.87294017  0.49273540  1
  O  O75  1  0.30371365  0.86452943  0.00432191  1
  O  O76  1  0.73776516  0.37556302  0.46708594  1
  O  O77  1  0.74698546  0.37333304  0.97668295  1
  O  O78  1  0.73913401  0.87421273  0.46550781  1
  O  O79  1  0.74589412  0.87433604  0.96135564  1
loop_
_geom_bond_atom_site_label_1
_geom_bond_atom_site_label_2
_geom_bond_distance
_geom_bond_site_symmetry_2
Ca0 O41 2.304077 1_554
Ca0 O9 2.306195 1_554
Ca0 O64 2.329771 1_655
Ca0 O60 2.415747 1_555
Ca0 O68 2.471269 1_555
Ca0 O46 3.027879 1_645
Ca1 O42 2.323835 1_555
Ca1 O63 2.360243 1_555
Ca1 O10 2.373433 1_555
Ca1 O67 2.425633 1_655
Ca1 O71 2.668461 1_555
Ca1 O45 2.708325 1_655
Ca2 O43 2.348111 1_554
Ca2 O11 2.349176 1_554
Ca2 O62 2.364342 1_555
Ca2 O66 2.408264 1_655
Ca2 O70 2.483501 1_555
Ca2 O44 2.754225 1_655
Ca2 O28 2.817167 1_555
Ca3 O1 2.347979 1_555
Ca3 O4 2.354593 1_555
Ca3 O69 2.390487 1_555
Ca3 O16 2.398442 1_555
Ca3 O51 2.424009 1_545
Ca3 O36 2.462774 1_555
Ca4 O5 2.319606 1_555
Ca4 O0 2.405339 1_556
Ca4 O68 2.413698 1_556
Ca4 O50 2.420946 1_546
Ca4 O37 2.422954 1_555
Ca4 O17 2.530006 1_555
Ca4 O26 2.889506 1_556
Ca5 O6 2.278106 1_555
Ca5 O3 2.362389 1_555
Ca5 O71 2.395394 1_555
Ca5 O38 2.405603 1_555
Ca5 O49 2.408007 1_555
Ca5 O18 2.464386 1_555
Ca6 O7 2.285725 1_555
Ca6 O2 2.388406 1_556
Ca6 O48 2.399213 1_556
Ca6 O70 2.402935 1_556
Ca6 O19 2.434310 1_555
Ca6 O39 2.450986 1_555
Ca7 O1 2.307649 1_555
Ca7 O49 2.337458 1_555
Ca7 O72 2.404230 1_555
Ca7 O56 2.423475 1_555
Ca7 O76 2.470710 1_555
Ca8 O2 2.269693 1_556
Ca8 O50 2.290731 1_556
Ca8 O59 2.317782 1_555
Ca8 O79 2.453899 1_555
Ca8 O75 2.486273 1_556
Ca9 O3 2.316037 1_555
Ca9 O51 2.330085 1_555
Ca9 O58 2.335967 1_555
Ca9 O74 2.459487 1_555
Ca9 O78 2.469063 1_555
Ca10 O44 2.379953 1_655
Ca10 O53 2.397254 1_554
Ca10 O77 2.420960 1_554
Ca10 O28 2.510714 1_555
Ca10 O43 2.518593 1_554
Ca10 O9 2.552532 1_554
Ca10 O20 2.732901 1_555
Ca11 O45 2.386632 1_655
Ca11 O29 2.444482 1_555
Ca11 O76 2.449302 1_555
Ca11 O52 2.452396 1_555
Ca11 O42 2.469061 1_555
Ca11 O8 2.603281 1_555
Ca11 O21 2.669193 1_555
Ca12 O55 2.351195 1_654
Ca12 O79 2.375798 1_554
Ca12 O11 2.442831 1_554
Ca12 O30 2.493900 1_555
Ca12 O41 2.522229 1_564
Ca12 O46 2.538228 1_655
Ca12 O22 2.558975 1_555
Ca13 O78 2.415190 1_555
Ca13 O54 2.446832 1_655
Ca13 O47 2.471068 1_655
Ca13 O23 2.484726 1_555
Ca13 O31 2.491417 1_555
Ca13 O40 2.514563 1_565
Ca13 O10 2.525534 1_555
Ca14 O35 2.331117 1_555
Ca14 O13 2.378519 1_555
Ca14 O45 2.384719 1_555
Ca14 O57 2.404103 1_555
Ca14 O25 2.420875 1_555
Ca14 O53 2.780820 1_455
Ca14 O72 2.865931 1_555
Ca15 O14 2.230623 1_555
Ca15 O32 2.318232 1_565
Ca15 O74 2.413870 1_555
Ca15 O58 2.415369 1_555
Ca15 O46 2.621792 1_555
Ca15 O54 2.644817 1_555
Ca16 O15 2.278183 1_555
Ca16 O33 2.367918 1_565
Ca16 O27 2.406083 1_565
Ca16 O47 2.441453 1_555
Ca16 O55 2.634251 1_555
Ca16 O59 2.655314 1_555
Ca16 O75 2.946038 1_556
Ca16 O74 3.012101 1_555
Ca17 O28 2.316565 1_555
Ca17 O76 2.397579 1_555
Ca17 O20 2.460639 1_555
Ca17 O52 2.494755 1_555
Ca17 O38 2.815661 1_555
Ca17 O42 2.885205 1_555
Ca18 O21 2.322055 1_555
Ca18 O29 2.348436 1_555
Ca18 O77 2.376541 1_555
Ca18 O53 2.475498 1_555
Ca18 O17 2.810881 1_555
Ca18 O43 2.858099 1_555
Ca18 O39 2.904040 1_555
Ca19 O22 2.281883 1_555
Ca19 O78 2.365260 1_555
Ca19 O30 2.438167 1_555
Ca19 O18 2.634956 1_555
Ca19 O54 2.859351 1_655
Ca20 O23 2.252397 1_555
Ca20 O79 2.343992 1_555
Ca20 O31 2.381336 1_555
Ca20 O19 2.696343 1_555
Ca20 O55 2.912419 1_655
Ca21 O33 2.292560 1_555
Ca21 O65 2.323481 1_555
Ca21 O27 2.329857 1_555
Ca21 O13 2.383361 1_555
Ca21 O61 2.449677 1_555
Ca21 O5 2.603585 1_555
Ca21 O47 2.870862 1_545
Ca22 O14 2.268072 1_555
Ca22 O34 2.328446 1_555
Ca22 O66 2.370603 1_555
Ca22 O6 2.391677 1_555
Ca22 O24 2.435219 1_555
Ca22 O62 2.534454 1_455
Ca22 O44 2.972932 1_555
Ca23 O15 2.276235 1_555
Ca23 O67 2.310529 1_555
Ca23 O25 2.343351 1_555
Ca23 O35 2.353049 1_555
Ca23 O7 2.443092 1_555
Ca23 O63 2.499675 1_455
Ca24 O16 2.340773 1_555
Ca24 O68 2.378196 1_555
Ca24 O36 2.384932 1_555
Ca24 O60 2.512242 1_555
Ca24 O40 2.646545 1_555
Ca24 O30 2.659512 1_545
Ca24 O20 2.793098 1_555
Ca24 O8 3.003141 1_555
Ca25 O69 2.392531 1_555
Ca25 O17 2.439377 1_555
Ca25 O37 2.452732 1_555
Ca25 O61 2.550314 1_655
Ca25 O31 2.625330 1_545
Ca25 O41 2.668181 1_555
Ca25 O21 2.728514 1_555
Ca25 O9 2.908771 1_555
Ca26 O18 2.431315 1_555
Ca26 O38 2.451314 1_555
Ca26 O70 2.452272 1_555
Ca26 O62 2.453515 1_555
Ca26 O42 2.597103 1_555
Ca26 O28 2.599412 1_555
Ca26 O22 2.788699 1_555
Ca26 O10 2.902023 1_555
Ca27 O71 2.391894 1_555
Ca27 O19 2.413545 1_555
Ca27 O63 2.434772 1_555
Ca27 O43 2.539831 1_555
Ca27 O39 2.585688 1_555
Ca27 O29 2.616223 1_555
Ca27 O23 2.819559 1_555
Ca27 O11 2.889212 1_555
Mn0 O55 1.919379 1_655
Mn0 O41 1.956605 1_565
Mn0 O47 1.957582 1_655
Mn0 O61 2.045403 1_665
Mn0 O31 2.114902 1_555
Mn0 O33 2.610710 1_665
Mn1 O52 1.952704 1_555
Mn1 O44 1.965035 1_655
Mn1 O42 2.004390 1_555
Mn1 O62 2.052074 1_555
Mn1 O28 2.072257 1_555
Mn1 O34 2.125849 1_655
Mn2 O45 1.946868 1_655
Mn2 O43 1.977336 1_555
Mn2 O53 1.991702 1_555
Mn2 O29 2.073058 1_555
Mn2 O63 2.112605 1_555
Mn2 O35 2.117390 1_655
Mn3 O50 1.990775 1_555
Mn3 O36 2.012802 1_565
Mn3 O58 2.031293 1_555
Mn3 O26 2.077467 1_565
Mn4 O37 1.875954 1_565
Mn4 O27 1.892375 1_565
Mn4 O51 1.923972 1_555
Mn4 O59 1.932306 1_555
Mn5 O38 1.959399 1_555
Mn5 O24 1.960155 1_555
Mn5 O48 1.962512 1_555
Mn5 O56 2.038693 1_555
Mn6 O25 1.894181 1_555
Mn6 O39 1.923819 1_555
Mn6 O49 1.931796 1_555
Mn6 O57 1.937234 1_555
Mn7 O32 1.940947 1_565
Mn7 O27 1.944109 1_565
Mn7 O74 2.057658 1_555
Mn7 O65 2.064626 1_565
Mn7 O47 2.093744 1_555
Mn8 O35 1.902713 1_554
Mn8 O24 1.929111 1_555
Mn8 O66 1.985082 1_555
Mn8 O44 2.025922 1_555
Mn8 O73 2.706099 1_555
Mn9 O34 1.901931 1_555
Mn9 O25 1.990871 1_555
Mn9 O67 2.020804 1_555
Mn9 O72 2.053206 1_555
Mn9 O45 2.095012 1_555
Mn10 O50 1.926615 1_556
Mn10 O68 1.969562 1_566
Mn10 O79 1.976559 1_555
Mn10 O41 1.978523 1_565
Mn10 O30 2.212297 1_556
Mn10 O37 2.260106 1_565
Mn11 O51 1.948272 1_545
Mn11 O31 1.961918 1_545
Mn11 O69 1.989344 1_555
Mn11 O78 2.017961 1_545
Mn11 O36 2.042458 1_555
Mn11 O40 2.045435 1_555
Mn12 O48 1.934020 1_556
Mn12 O28 1.957036 1_556
Mn12 O70 2.006273 1_556
Mn12 O43 2.011850 1_555
Mn12 O77 2.015776 1_555
Mn12 O39 2.139839 1_555
Mn13 O71 1.964881 1_555
Mn13 O29 1.981868 1_555
Mn13 O49 1.985343 1_555
Mn13 O76 2.021678 1_555
Mn13 O42 2.031267 1_555
Mn13 O38 2.043764 1_555
Mn14 O65 2.039329 1_555
Mn14 O72 2.059368 1_555
Mn14 O12 2.099542 1_555
Mn14 O4 2.115513 1_555
Mn15 O66 2.003167 1_556
Mn15 O75 2.069475 1_556
Mn15 O15 2.070791 1_555
Mn15 O7 2.078764 1_555
Mn16 O67 2.003491 1_555
Mn16 O14 2.063661 1_555
Mn16 O74 2.121175 1_555
Mn16 O6 2.132741 1_555
Mn17 O9 1.932700 1_554
Mn17 O17 1.974749 1_554
Mn17 O77 1.988823 1_554
Mn17 O68 1.993797 1_555
Mn17 O20 2.016625 1_555
Mn17 O0 2.097866 1_555
Mn18 O69 1.965534 1_555
Mn18 O76 2.020986 1_555
Mn18 O21 2.055039 1_555
Mn18 O16 2.083863 1_555
Mn18 O8 2.120984 1_555
Mn18 O1 2.202032 1_555
Mn19 O70 1.904146 1_555
Mn19 O11 1.945232 1_554
Mn19 O19 1.986962 1_554
Mn19 O22 2.025516 1_555
Mn19 O79 2.026690 1_554
Mn19 O2 2.109282 1_555
Mn20 O10 1.934984 1_555
Mn20 O71 1.957388 1_555
Mn20 O18 1.988395 1_555
Mn20 O23 2.021557 1_555
Mn20 O78 2.022105 1_555
Mn20 O3 2.128279 1_555
Mn21 O53 1.905970 1_555
Mn21 O21 1.957191 1_555
Mn21 O61 2.007510 1_655
Mn21 O13 2.007690 1_655
Mn21 O9 2.036629 1_555
Mn22 O14 1.914277 1_655
Mn22 O54 1.944111 1_655
Mn22 O62 1.954180 1_555
Mn22 O22 2.006913 1_555
Mn22 O10 2.040387 1_555
Mn23 O15 1.934903 1_655
Mn23 O55 1.952898 1_655
Mn23 O63 1.968239 1_555
Mn23 O23 2.012357 1_555
Mn23 O11 2.055295 1_555
Mn24 O16 1.881467 1_555
Mn24 O4 1.903487 1_555
Mn24 O0 1.921634 1_555
Mn24 O56 1.977529 1_555
Mn25 O1 1.984684 1_555
Mn25 O17 2.028890 1_555
Mn25 O57 2.065873 1_555
Mn25 O5 2.122262 1_555
Mn26 O2 2.009377 1_555
Mn26 O6 2.015380 1_555
Mn26 O18 2.045717 1_555
Mn26 O58 2.071613 1_555
Mn27 O3 1.998208 1_555
Mn27 O7 2.003045 1_555
Mn27 O19 2.032914 1_555
Mn27 O59 2.064691 1_555
O0 Sr1 2.463257 1_555
O4 Sr3 2.566266 1_555
O5 Ti2 1.896026 1_555
O8 Ti3 1.784210 1_555
O8 Sr0 2.457899 1_555
O12 Ti3 1.877456 1_455
O12 Sr3 2.400186 1_555
O12 Sr2 2.490675 1_555
O13 Ti2 1.875867 1_555
O20 Ti3 1.945006 1_555
O21 Sr0 3.240420 1_555
O24 Sr2 2.677049 1_555
O26 Ti1 1.865786 1_545
O26 Sr3 2.514895 1_555
O30 Ti0 1.842970 1_555
O31 Sr0 3.084220 1_565
O32 Ti0 2.153038 1_445
O32 Sr3 2.459514 1_555
O32 Sr0 2.995305 1_455
O33 Ti1 1.805971 1_546
O34 Sr2 2.483673 1_555
O39 Sr1 3.096201 1_556
O40 Ti0 1.903227 1_545
O40 Sr0 2.428383 1_555
O44 Sr2 2.578881 1_555
O46 Ti1 1.844087 1_555
O46 Ti0 2.197717 1_455
O46 Sr3 3.048747 1_565
O47 Sr0 2.707519 1_465
O48 Sr1 2.432460 1_555
O52 Ti3 1.916090 1_555
O52 Sr2 2.987244 1_655
O54 Ti0 1.875149 1_455
O56 Sr2 2.617327 1_555
O57 Sr1 2.475478 1_556
O60 Ti0 2.088366 1_545
O60 Ti3 2.090016 1_555
O60 Sr3 2.592319 1_655
O60 Sr0 3.154005 1_555
O61 Sr0 2.483254 1_455
O64 Ti2 1.785174 1_554
O64 Sr3 2.492609 1_555
O65 Sr0 2.599731 1_455
O69 Sr0 2.821046 1_555
O72 Sr2 2.859146 1_555
O73 Ti2 1.815992 1_554
O73 Sr1 2.525722 1_555
O73 Sr2 2.730714 1_555
O75 Ti1 1.838977 1_555
O77 Sr1 2.632622 1_556
