# generated using pymatgen
data_Cs2YbH4
_symmetry_space_group_name_H-M   'P 1'
_cell_length_a   8.63559423
_cell_length_b   8.63559423
_cell_length_c   8.63559423
_cell_angle_alpha   150.79151305
_cell_angle_beta   150.79151305
_cell_angle_gamma   41.78077491
_symmetry_Int_Tables_number   1
_chemical_formula_structural   Cs2YbH4
_chemical_formula_sum   'Cs2 Yb1 H4'
_cell_volume   153.00071945
_cell_formula_units_Z   1
loop_
 _symmetry_equiv_pos_site_id
 _symmetry_equiv_pos_as_xyz
  1  'x, y, z'
loop_
 _atom_site_type_symbol
 _atom_site_label
 _atom_site_symmetry_multiplicity
 _atom_site_fract_x
 _atom_site_fract_y
 _atom_site_fract_z
 _atom_site_occupancy
  Cs  Cs0  1  0.34389846  0.34389846  0.00000000  1
  Cs  Cs1  1  0.65610154  0.65610154  0.00000000  1
  Yb  Yb0  1  0.00000000  0.00000000  0.00000000  1
  H  H0  1  0.13280231  0.13280231  0.00000000  1
  H  H1  1  0.86719769  0.86719769  0.00000000  1
  H  H2  1  0.50000000  0.00000000  0.50000000  1
  H  H3  1  0.00000000  0.50000000  0.50000000  1
loop_
_geom_bond_atom_site_label_1
_geom_bond_atom_site_label_2
_geom_bond_distance
_geom_bond_site_symmetry_2
Cs0 H1 3.102156 1_545
Cs0 H1 3.102156 1_556
Cs0 H1 3.102156 1_444
Cs0 H1 3.102156 1_455
Cs0 H3 3.329494 1_655
Cs0 H2 3.329494 1_554
Cs0 H2 3.329494 1_565
Cs0 H3 3.329494 1_554
Cs0 H0 3.406217 1_555
Cs1 H0 3.102156 1_565
Cs1 H0 3.102156 1_655
Cs1 H0 3.102156 1_554
Cs1 H0 3.102156 1_666
Cs1 H3 3.329494 1_554
Cs1 H2 3.329494 1_565
Cs1 H2 3.329494 1_554
Cs1 H3 3.329494 1_655
Cs1 H1 3.406217 1_555
H0 Yb0 2.142879 1_555
H1 Yb0 2.142879 1_665
H2 Yb0 2.177388 1_656
H2 Yb0 2.177388 1_555
H3 Yb0 2.177388 1_555
H3 Yb0 2.177388 1_566
