# generated using pymatgen
data_Li3Cr4P5O24
_symmetry_space_group_name_H-M   'P 1'
_cell_length_a   8.27263400
_cell_length_b   9.18604801
_cell_length_c   13.76238444
_cell_angle_alpha   93.10573311
_cell_angle_beta   107.49077725
_cell_angle_gamma   63.23819435
_symmetry_Int_Tables_number   1
_chemical_formula_structural   Li3Cr4P5O24
_chemical_formula_sum   'Li6 Cr8 P10 O48'
_cell_volume   886.59002533
_cell_formula_units_Z   2
loop_
 _symmetry_equiv_pos_site_id
 _symmetry_equiv_pos_as_xyz
  1  'x, y, z'
loop_
 _atom_site_type_symbol
 _atom_site_label
 _atom_site_symmetry_multiplicity
 _atom_site_fract_x
 _atom_site_fract_y
 _atom_site_fract_z
 _atom_site_occupancy
  Li  Li0  1  0.95581400  0.99395000  0.26841100  1
  Li  Li1  1  0.31864800  0.49395000  0.76841100  1
  Li  Li2  1  0.68194400  0.50497300  0.23763500  1
  Li  Li3  1  0.98499500  0.54129500  0.05144500  1
  Li  Li4  1  0.05071800  0.00497300  0.73763500  1
  Li  Li5  1  0.52515500  0.04129500  0.55144500  1
  Cr  Cr0  1  0.52955600  0.98893400  0.18065900  1
  Cr  Cr1  1  0.18468700  0.71691000  0.97816100  1
  Cr  Cr2  1  0.92494300  0.77995300  0.52119600  1
  Cr  Cr3  1  0.66217000  0.48893400  0.68065900  1
  Cr  Cr4  1  0.34369500  0.51123500  0.32098900  1
  Cr  Cr5  1  0.07656400  0.21691000  0.47816100  1
  Cr  Cr6  1  0.81630000  0.27995300  0.02119600  1
  Cr  Cr7  1  0.46605900  0.01123500  0.82098900  1
  P  P0  1  0.28903300  0.87488300  0.60688600  1
  P  P1  1  0.80232600  0.94401900  0.04079000  1
  P  P2  1  0.84584600  0.75241500  0.74902300  1
  P  P3  1  0.56021700  0.62371800  0.89580400  1
  P  P4  1  0.71031200  0.55398200  0.46103500  1
  P  P5  1  0.29444400  0.44401900  0.54079000  1
  P  P6  1  0.44297000  0.37488300  0.10688600  1
  P  P7  1  0.15076300  0.25241500  0.24902300  1
  P  P8  1  0.19674200  0.05398200  0.96103500  1
  P  P9  1  0.71186800  0.12371800  0.39580400  1
  O  O0  1  0.10652300  0.93689300  0.91718300  1
  O  O1  1  0.29220500  0.99097700  0.52887300  1
  O  O2  1  0.30204900  0.94594600  0.71388100  1
  O  O3  1  0.67413700  0.90141900  0.76757100  1
  O  O4  1  0.37522100  0.96280500  0.05277800  1
  O  O5  1  0.09168800  0.87911100  0.58333500  1
  O  O6  1  0.54938900  0.79208400  0.89388300  1
  O  O7  1  0.75354700  0.89575700  0.12968500  1
  O  O8  1  0.87375700  0.82165700  0.65852800  1
  O  O9  1  0.59890800  0.80989000  0.23348800  1
  O  O10  1  0.95795900  0.76200400  0.41120300  1
  O  O11  1  0.03279000  0.69101900  0.83900400  1
  O  O12  1  0.44864200  0.70659800  0.60903600  1
  O  O13  1  0.95106800  0.77888400  0.01637300  1
  O  O14  1  0.72634900  0.71339400  0.48870500  1
  O  O15  1  0.38719700  0.61889800  0.91614300  1
  O  O16  1  0.30502400  0.74183000  0.08776800  1
  O  O17  1  0.17863900  0.68949600  0.26708600  1
  O  O18  1  0.81083700  0.60127900  0.72721700  1
  O  O19  1  0.54352500  0.55061500  0.79001700  1
  O  O20  1  0.75208900  0.51147500  0.97886700  1
  O  O21  1  0.52402400  0.60286900  0.37190000  1
  O  O22  1  0.12783800  0.56022800  0.58248800  1
  O  O23  1  0.28470300  0.53451200  0.44722300  1
  O  O24  1  0.71475200  0.46280500  0.55277800  1
  O  O25  1  0.87376600  0.43689300  0.41718300  1
  O  O26  1  0.48038100  0.39575700  0.62968500  1
  O  O27  1  0.24569000  0.49097700  0.02887300  1
  O  O28  1  0.46588700  0.44594600  0.21388100  1
  O  O29  1  0.19201300  0.40141900  0.26757100  1
  O  O30  1  0.82469000  0.30989000  0.73348800  1
  O  O31  1  0.69124000  0.26200400  0.91120300  1
  O  O32  1  0.61253600  0.37911100  0.08333500  1
  O  O33  1  0.28642000  0.27888400  0.51637300  1
  O  O34  1  0.04896200  0.21339400  0.98870500  1
  O  O35  1  0.55241100  0.29208400  0.39388300  1
  O  O36  1  0.96311500  0.32165700  0.15852800  1
  O  O37  1  0.04091600  0.24183000  0.58776800  1
  O  O38  1  0.39895000  0.18949600  0.76708600  1
  O  O39  1  0.11519600  0.19101900  0.33900400  1
  O  O40  1  0.24500700  0.10286900  0.87190000  1
  O  O41  1  0.45379700  0.20659800  0.10903600  1
  O  O42  1  0.91004800  0.11889800  0.41614300  1
  O  O43  1  0.62800900  0.03451200  0.94722300  1
  O  O44  1  0.31510100  0.10127900  0.22721700  1
  O  O45  1  0.69587700  0.05061500  0.29001700  1
  O  O46  1  0.71530300  0.01147500  0.47886700  1
  O  O47  1  0.89442000  0.06022800  0.08248800  1
loop_
_geom_bond_atom_site_label_1
_geom_bond_atom_site_label_2
_geom_bond_distance
_geom_bond_site_symmetry_2
Li0 O45 2.083984 1_565
Li0 O42 2.326567 1_565
Li0 O47 2.506982 1_565
Li0 O7 2.551637 1_555
Li0 O17 2.567473 1_655
Li0 O39 2.673656 1_665
Li1 O19 2.083976 1_555
Li1 O15 2.326565 1_555
Li1 O22 2.506988 1_555
Li1 O26 2.551632 1_555
Li1 O38 2.567476 1_555
Li1 O11 2.673656 1_555
Li2 O28 2.024323 1_555
Li2 O32 2.403064 1_555
Li2 O25 2.435537 1_555
Li2 O21 2.478469 1_555
Li2 O9 2.565469 1_555
Li3 O20 2.018391 1_554
Li3 O27 2.109655 1_655
Li3 O13 2.134512 1_555
Li4 O2 2.024331 1_545
Li4 O5 2.403064 1_545
Li4 O0 2.435539 1_545
Li4 O40 2.478469 1_555
Li4 O30 2.565470 1_455
Li5 O46 2.018391 1_555
Li5 O1 2.109663 1_545
Li5 O33 2.134516 1_555
Cr0 O9 1.609932 1_555
Cr0 O44 1.893641 1_565
Cr0 O4 1.914326 1_555
Cr0 O45 1.960663 1_565
Cr0 O7 1.986540 1_555
Cr0 O41 2.018907 1_565
Cr1 O16 1.607486 1_556
Cr1 O15 1.939999 1_555
Cr1 O0 1.971480 1_555
Cr1 O13 1.980763 1_456
Cr1 O27 2.012757 1_556
Cr1 O11 2.019040 1_555
Cr2 O10 1.604432 1_555
Cr2 O14 1.925169 1_555
Cr2 O5 1.949834 1_655
Cr2 O22 1.971096 1_655
Cr2 O46 2.018796 1_565
Cr2 O8 2.038321 1_555
Cr3 O30 1.609930 1_555
Cr3 O18 1.893635 1_555
Cr3 O24 1.914322 1_555
Cr3 O19 1.960668 1_555
Cr3 O26 1.986547 1_555
Cr3 O12 2.018907 1_555
Cr4 O17 1.614112 1_555
Cr4 O29 1.907280 1_555
Cr4 O23 1.917664 1_555
Cr4 O28 1.951482 1_555
Cr4 O21 1.965600 1_555
Cr4 O35 2.021802 1_555
Cr5 O37 1.607479 1_555
Cr5 O42 1.939999 1_455
Cr5 O25 1.971482 1_455
Cr5 O33 1.980755 1_555
Cr5 O1 2.012754 1_545
Cr5 O39 2.019043 1_555
Cr6 O31 1.604432 1_554
Cr6 O34 1.925169 1_654
Cr6 O32 1.949834 1_555
Cr6 O47 1.971100 1_555
Cr6 O20 2.018795 1_554
Cr6 O36 2.038324 1_555
Cr7 O38 1.614110 1_555
Cr7 O3 1.907267 1_545
Cr7 O43 1.917668 1_555
Cr7 O2 1.951477 1_545
Cr7 O40 1.965600 1_555
Cr7 O6 2.021799 1_545
O0 P8 1.568435 1_565
O1 P0 1.567454 1_555
O2 P0 1.571572 1_555
O3 P2 1.544529 1_555
O4 P8 1.534930 1_564
O5 P0 1.548553 1_555
O6 P3 1.509634 1_555
O7 P1 1.540372 1_555
O8 P2 1.549171 1_555
O11 P2 1.543475 1_455
O12 P0 1.509074 1_555
O13 P1 1.562199 1_555
O14 P4 1.546333 1_555
O15 P3 1.558290 1_555
O18 P2 1.538229 1_555
O19 P3 1.564076 1_555
O20 P3 1.566049 1_555
O21 P4 1.543218 1_555
O22 P5 1.566065 1_555
O23 P5 1.532638 1_555
O24 P4 1.534934 1_555
O25 P4 1.568424 1_555
O26 P5 1.540378 1_555
O27 P6 1.567458 1_555
O28 P6 1.571572 1_555
O29 P7 1.544515 1_555
O32 P6 1.548552 1_555
O33 P5 1.562199 1_555
O34 P8 1.546337 1_555
O35 P9 1.509627 1_555
O36 P7 1.549171 1_655
O39 P7 1.543475 1_555
O40 P8 1.543212 1_555
O41 P6 1.509071 1_555
O42 P9 1.558298 1_555
O43 P1 1.532631 1_546
O44 P7 1.538225 1_555
O45 P9 1.564076 1_555
O46 P9 1.566045 1_555
O47 P1 1.566059 1_545
