# generated using pymatgen
data_Ba3Ta4TiO15
_symmetry_space_group_name_H-M   'P 1'
_cell_length_a   12.72887000
_cell_length_b   12.72887000
_cell_length_c   3.98802000
_cell_angle_alpha   90.00000000
_cell_angle_beta   90.00000000
_cell_angle_gamma   90.00000000
_symmetry_Int_Tables_number   1
_chemical_formula_structural   Ba3Ta4TiO15
_chemical_formula_sum   'Ba6 Ta8 Ti2 O30'
_cell_volume   646.15547681
_cell_formula_units_Z   2
loop_
 _symmetry_equiv_pos_site_id
 _symmetry_equiv_pos_as_xyz
  1  'x, y, z'
loop_
 _atom_site_type_symbol
 _atom_site_label
 _atom_site_symmetry_multiplicity
 _atom_site_fract_x
 _atom_site_fract_y
 _atom_site_fract_z
 _atom_site_occupancy
  Ba  Ba0  1  0.66562900  0.16562900  0.00000000  1
  Ba  Ba1  1  0.33437100  0.83437100  0.00000000  1
  Ba  Ba2  1  0.16562900  0.33437100  0.00000000  1
  Ba  Ba3  1  0.83437100  0.66562900  0.00000000  1
  Ba  Ba4  1  0.50000000  0.50000000  0.00000000  1
  Ba  Ba5  1  0.00000000  0.00000000  0.00000000  1
  Ta  Ta0  1  0.57295100  0.71699000  0.50000000  1
  Ta  Ta1  1  0.42704900  0.28301000  0.50000000  1
  Ta  Ta2  1  0.07295100  0.78301000  0.50000000  1
  Ta  Ta3  1  0.92704900  0.21699000  0.50000000  1
  Ta  Ta4  1  0.28301000  0.57295100  0.50000000  1
  Ta  Ta5  1  0.71699000  0.42704900  0.50000000  1
  Ta  Ta6  1  0.21699000  0.07295100  0.50000000  1
  Ta  Ta7  1  0.78301000  0.92704900  0.50000000  1
  Ti  Ti0  1  0.50000000  0.00000000  0.50000000  1
  Ti  Ti1  1  0.00000000  0.50000000  0.50000000  1
  O  O0  1  0.84467200  0.50648400  0.50000000  1
  O  O1  1  0.15532800  0.49351600  0.50000000  1
  O  O2  1  0.34467200  0.99351600  0.50000000  1
  O  O3  1  0.65532800  0.00648400  0.50000000  1
  O  O4  1  0.49351600  0.84467200  0.50000000  1
  O  O5  1  0.50648400  0.15532800  0.50000000  1
  O  O6  1  0.00648400  0.34467200  0.50000000  1
  O  O7  1  0.99351600  0.65532800  0.50000000  1
  O  O8  1  0.78358800  0.28358800  0.50000000  1
  O  O9  1  0.21641200  0.71641200  0.50000000  1
  O  O10  1  0.28358800  0.21641200  0.50000000  1
  O  O11  1  0.71641200  0.78358800  0.50000000  1
  O  O12  1  0.57769400  0.70662000  0.00000000  1
  O  O13  1  0.42230600  0.29338000  0.00000000  1
  O  O14  1  0.07769400  0.79338000  0.00000000  1
  O  O15  1  0.92230600  0.20662000  0.00000000  1
  O  O16  1  0.29338000  0.57769400  0.00000000  1
  O  O17  1  0.70662000  0.42230600  0.00000000  1
  O  O18  1  0.20662000  0.07769400  0.00000000  1
  O  O19  1  0.79338000  0.92230600  0.00000000  1
  O  O20  1  0.64165800  0.56785700  0.50000000  1
  O  O21  1  0.35834200  0.43214300  0.50000000  1
  O  O22  1  0.14165800  0.93214300  0.50000000  1
  O  O23  1  0.85834200  0.06785700  0.50000000  1
  O  O24  1  0.43214300  0.64165800  0.50000000  1
  O  O25  1  0.56785700  0.35834200  0.50000000  1
  O  O26  1  0.06785700  0.14165800  0.50000000  1
  O  O27  1  0.93214300  0.85834200  0.50000000  1
  O  O28  1  0.50000000  0.00000000  0.00000000  1
  O  O29  1  0.00000000  0.50000000  0.00000000  1
loop_
_geom_bond_atom_site_label_1
_geom_bond_atom_site_label_2
_geom_bond_distance
_geom_bond_site_symmetry_2
Ba0 O5 2.845501 1_555
Ba0 O5 2.845501 1_554
Ba0 O3 2.845501 1_555
Ba0 O3 2.845501 1_554
Ba0 O8 2.912900 1_555
Ba0 O8 2.912900 1_554
Ba0 O28 2.981544 1_555
Ba1 O4 2.845501 1_554
Ba1 O4 2.845501 1_555
Ba1 O2 2.845501 1_554
Ba1 O2 2.845501 1_555
Ba1 O9 2.912900 1_554
Ba1 O9 2.912900 1_555
Ba1 O28 2.981544 1_565
Ba2 O1 2.845501 1_554
Ba2 O1 2.845501 1_555
Ba2 O6 2.845501 1_555
Ba2 O6 2.845501 1_554
Ba2 O10 2.912900 1_555
Ba2 O10 2.912900 1_554
Ba2 O29 2.981544 1_555
Ba3 O7 2.845501 1_555
Ba3 O7 2.845501 1_554
Ba3 O0 2.845501 1_554
Ba3 O0 2.845501 1_555
Ba3 O11 2.912900 1_555
Ba3 O11 2.912900 1_554
Ba3 O29 2.981544 1_655
Ba4 O16 2.809829 1_555
Ba4 O12 2.809829 1_555
Ba4 O13 2.809829 1_555
Ba4 O17 2.809829 1_555
Ba4 O20 2.823732 1_555
Ba4 O20 2.823732 1_554
Ba4 O24 2.823732 1_554
Ba4 O24 2.823732 1_555
Ba4 O21 2.823732 1_555
Ba4 O21 2.823732 1_554
Ba4 O25 2.823732 1_554
Ba4 O25 2.823732 1_555
Ba5 O14 2.809829 1_545
Ba5 O19 2.809829 1_445
Ba5 O15 2.809829 1_455
Ba5 O18 2.809829 1_555
Ba5 O26 2.823732 1_555
Ba5 O26 2.823732 1_554
Ba5 O22 2.823732 1_544
Ba5 O22 2.823732 1_545
Ba5 O23 2.823732 1_455
Ba5 O23 2.823732 1_454
Ba5 O27 2.823732 1_445
Ba5 O27 2.823732 1_444
O0 Ta5 1.914103 1_555
O0 Ti1 1.978872 1_655
O1 Ta4 1.914103 1_555
O1 Ti1 1.978872 1_555
O2 Ta6 1.914103 1_565
O2 Ti0 1.978872 1_565
O3 Ta7 1.914103 1_545
O3 Ti0 1.978872 1_555
O4 Ta0 1.914103 1_555
O4 Ti0 1.978872 1_565
O5 Ta1 1.914103 1_555
O5 Ti0 1.978872 1_555
O6 Ta3 1.914103 1_455
O6 Ti1 1.978872 1_555
O7 Ta2 1.914103 1_655
O7 Ti1 1.978872 1_655
O8 Ta5 2.013269 1_555
O8 Ta3 2.013269 1_555
O9 Ta4 2.013269 1_555
O9 Ta2 2.013269 1_555
O10 Ta1 2.013269 1_555
O10 Ta6 2.013269 1_555
O11 Ta0 2.013269 1_555
O11 Ta7 2.013269 1_555
O12 Ta0 1.999286 1_554
O12 Ta0 1.999286 1_555
O13 Ta1 1.999286 1_555
O13 Ta1 1.999286 1_554
O14 Ta2 1.999286 1_554
O14 Ta2 1.999286 1_555
O15 Ta3 1.999286 1_555
O15 Ta3 1.999286 1_554
O16 Ta4 1.999286 1_555
O16 Ta4 1.999286 1_554
O17 Ta5 1.999286 1_554
O17 Ta5 1.999286 1_555
O18 Ta6 1.999286 1_555
O18 Ta6 1.999286 1_554
O19 Ta7 1.999286 1_555
O19 Ta7 1.999286 1_554
O20 Ta5 2.032709 1_555
O20 Ta0 2.090067 1_555
O21 Ta4 2.032709 1_555
O21 Ta1 2.090067 1_555
O22 Ta6 2.032709 1_565
O22 Ta2 2.090067 1_555
O23 Ta7 2.032709 1_545
O23 Ta3 2.090067 1_555
O24 Ta0 2.032709 1_555
O24 Ta4 2.090067 1_555
O25 Ta1 2.032709 1_555
O25 Ta5 2.090067 1_555
O26 Ta3 2.032709 1_455
O26 Ta6 2.090067 1_555
O27 Ta2 2.032709 1_655
O27 Ta7 2.090067 1_555
O28 Ti0 1.994010 1_554
O28 Ti0 1.994010 1_555
O29 Ti1 1.994010 1_554
O29 Ti1 1.994010 1_555
