# generated using pymatgen
data_LiMg2
_symmetry_space_group_name_H-M   'P 1'
_cell_length_a   11.86720259
_cell_length_b   11.86720259
_cell_length_c   14.67935260
_cell_angle_alpha   74.99179828
_cell_angle_beta   74.99179828
_cell_angle_gamma   31.05359094
_symmetry_Int_Tables_number   1
_chemical_formula_structural   LiMg2
_chemical_formula_sum   'Li16 Mg32'
_cell_volume   1027.15802528
_cell_formula_units_Z   16
loop_
 _symmetry_equiv_pos_site_id
 _symmetry_equiv_pos_as_xyz
  1  'x, y, z'
loop_
 _atom_site_type_symbol
 _atom_site_label
 _atom_site_symmetry_multiplicity
 _atom_site_fract_x
 _atom_site_fract_y
 _atom_site_fract_z
 _atom_site_occupancy
  Li  Li0_0  1  0.30665653  0.30665653  0.13681786  1
  Li  Li0_1  1  0.30665653  0.30665653  0.63681786  1
  Li  Li0_2  1  0.30665653  0.80665653  0.13681786  1
  Li  Li0_3  1  0.30665653  0.80665653  0.63681786  1
  Li  Li0_4  1  0.80665653  0.30665653  0.13681786  1
  Li  Li0_5  1  0.80665653  0.30665653  0.63681786  1
  Li  Li0_6  1  0.80665653  0.80665653  0.13681786  1
  Li  Li0_7  1  0.80665653  0.80665653  0.63681786  1
  Li  Li1_0  1  0.47331483  0.47331483  0.30333992  1
  Li  Li1_1  1  0.47331483  0.47331483  0.80333992  1
  Li  Li1_2  1  0.47331483  0.97331483  0.30333992  1
  Li  Li1_3  1  0.47331483  0.97331483  0.80333992  1
  Li  Li1_4  1  0.97331483  0.47331483  0.30333992  1
  Li  Li1_5  1  0.97331483  0.47331483  0.80333992  1
  Li  Li1_6  1  0.97331483  0.97331483  0.30333992  1
  Li  Li1_7  1  0.97331483  0.97331483  0.80333992  1
  Mg  Mg0_0  1  0.99948113  0.99948113  0.00335330  1
  Mg  Mg0_1  1  0.99948113  0.99948113  0.50335330  1
  Mg  Mg0_2  1  0.99948113  0.49948113  0.00335330  1
  Mg  Mg0_3  1  0.99948113  0.49948113  0.50335330  1
  Mg  Mg0_4  1  0.49948113  0.99948113  0.00335330  1
  Mg  Mg0_5  1  0.49948113  0.99948113  0.50335330  1
  Mg  Mg0_6  1  0.49948113  0.49948113  0.00335330  1
  Mg  Mg0_7  1  0.49948113  0.49948113  0.50335330  1
  Mg  Mg1_0  1  0.16518943  0.16518943  0.17004171  1
  Mg  Mg1_1  1  0.16518943  0.16518943  0.67004171  1
  Mg  Mg1_2  1  0.16518942  0.66518942  0.17004171  1
  Mg  Mg1_3  1  0.16518942  0.66518943  0.67004171  1
  Mg  Mg1_4  1  0.66518943  0.16518942  0.17004171  1
  Mg  Mg1_5  1  0.66518943  0.16518942  0.67004171  1
  Mg  Mg1_6  1  0.66518943  0.66518943  0.17004171  1
  Mg  Mg1_7  1  0.66518943  0.66518943  0.67004171  1
  Mg  Mg2_0  1  0.33132884  0.33132884  0.33393867  1
  Mg  Mg2_1  1  0.33132884  0.33132884  0.83393867  1
  Mg  Mg2_2  1  0.33132884  0.83132885  0.33393867  1
  Mg  Mg2_3  1  0.33132884  0.83132885  0.83393867  1
  Mg  Mg2_4  1  0.83132885  0.33132884  0.33393867  1
  Mg  Mg2_5  1  0.83132885  0.33132885  0.83393867  1
  Mg  Mg2_6  1  0.83132885  0.83132885  0.33393867  1
  Mg  Mg2_7  1  0.83132884  0.83132884  0.83393867  1
  Mg  Mg3_0  1  0.14069674  0.14069674  0.46917454  1
  Mg  Mg3_1  1  0.14069674  0.14069674  0.96917454  1
  Mg  Mg3_2  1  0.14069674  0.64069674  0.46917454  1
  Mg  Mg3_3  1  0.14069674  0.64069674  0.96917454  1
  Mg  Mg3_4  1  0.64069674  0.14069674  0.46917454  1
  Mg  Mg3_5  1  0.64069674  0.14069674  0.96917454  1
  Mg  Mg3_6  1  0.64069674  0.64069674  0.46917454  1
  Mg  Mg3_7  1  0.64069674  0.64069674  0.96917454  1
loop_
_geom_bond_atom_site_label_1
_geom_bond_atom_site_label_2
_geom_bond_distance
_geom_bond_site_symmetry_2
Li0_0 Mg0_4 3.073720 1_545
Li0_0 Mg0_2 3.073720 1_455
Li0_0 Mg2_0 3.093359 1_555
Li0_0 Mg1_2 3.093785 1_555
Li0_0 Mg1_4 3.093785 1_555
Li0_0 Li1_4 3.102623 1_455
Li0_0 Li1_2 3.102623 1_545
Li0_0 Mg3_5 3.119321 1_554
Li0_0 Mg3_3 3.119321 1_554
Li0_0 Mg1_0 3.139369 1_555
Li0_0 Li0_6 3.176720 1_455
Li0_0 Li0_6 3.176720 1_545
Li0_1 Mg0_5 3.073720 1_545
Li0_1 Mg0_3 3.073720 1_455
Li0_1 Mg2_1 3.093359 1_555
Li0_1 Mg1_3 3.093785 1_555
Li0_1 Mg1_5 3.093785 1_555
Li0_1 Li1_3 3.102623 1_545
Li0_1 Li1_5 3.102623 1_455
Li0_1 Mg3_2 3.119321 1_555
Li0_1 Mg3_4 3.119321 1_555
Li0_1 Mg1_1 3.139369 1_555
Li0_1 Li0_7 3.176720 1_455
Li0_1 Li0_7 3.176720 1_545
Li0_2 Mg0_0 3.073720 1_455
Li0_2 Mg0_6 3.073720 1_555
Li0_2 Mg2_2 3.093359 1_555
Li0_2 Mg1_0 3.093785 1_565
Li0_2 Mg1_6 3.093785 1_555
Li0_2 Li1_6 3.102623 1_455
Li0_2 Li1_0 3.102623 1_555
Li0_2 Mg3_1 3.119321 1_564
Li0_2 Mg3_7 3.119321 1_554
Li0_2 Mg1_2 3.139369 1_555
Li0_2 Li0_4 3.176720 1_465
Li0_2 Li0_4 3.176720 1_555
Li0_3 Mg0_1 3.073720 1_455
Li0_3 Mg0_7 3.073720 1_555
Li0_3 Mg2_3 3.093359 1_555
Li0_3 Mg1_7 3.093785 1_555
Li0_3 Mg1_1 3.093785 1_565
Li0_3 Li1_1 3.102623 1_555
Li0_3 Li1_7 3.102623 1_455
Li0_3 Mg3_0 3.119321 1_565
Li0_3 Mg3_6 3.119321 1_555
Li0_3 Mg1_3 3.139369 1_555
Li0_3 Li0_5 3.176720 1_555
Li0_3 Li0_5 3.176720 1_465
Li0_4 Mg0_0 3.073720 1_545
Li0_4 Mg0_6 3.073720 1_555
Li0_4 Mg2_4 3.093359 1_555
Li0_4 Mg1_0 3.093785 1_655
Li0_4 Mg1_6 3.093785 1_555
Li0_4 Li1_6 3.102623 1_545
Li0_4 Li1_0 3.102623 1_555
Li0_4 Mg3_1 3.119321 1_654
Li0_4 Mg3_7 3.119321 1_554
Li0_4 Mg1_4 3.139369 1_555
Li0_5 Mg0_1 3.073720 1_545
Li0_5 Mg0_7 3.073720 1_555
Li0_5 Mg2_5 3.093359 1_555
Li0_5 Mg1_7 3.093785 1_555
Li0_5 Mg1_1 3.093785 1_655
Li0_5 Li1_1 3.102623 1_555
Li0_5 Li1_7 3.102623 1_545
Li0_5 Mg3_6 3.119321 1_555
Li0_5 Mg3_0 3.119321 1_655
Li0_5 Mg1_5 3.139369 1_555
Li0_6 Mg0_4 3.073720 1_555
Li0_6 Mg0_2 3.073720 1_555
Li0_6 Mg2_6 3.093359 1_555
Li0_6 Mg1_2 3.093785 1_655
Li0_6 Mg1_4 3.093785 1_565
Li0_6 Li1_4 3.102623 1_555
Li0_6 Li1_2 3.102623 1_555
Li0_6 Mg3_5 3.119321 1_564
Li0_6 Mg3_3 3.119321 1_654
Li0_6 Mg1_6 3.139369 1_555
Li0_7 Mg0_5 3.073720 1_555
Li0_7 Mg0_3 3.073720 1_555
Li0_7 Mg2_7 3.093359 1_555
Li0_7 Mg1_3 3.093785 1_655
Li0_7 Mg1_5 3.093785 1_565
Li0_7 Li1_3 3.102623 1_555
Li0_7 Li1_5 3.102623 1_555
Li0_7 Mg3_4 3.119321 1_565
Li0_7 Mg3_2 3.119321 1_655
Li0_7 Mg1_7 3.139369 1_555
Li1_0 Mg2_2 3.069587 1_555
Li1_0 Mg2_4 3.069587 1_555
Li1_0 Mg1_4 3.084900 1_555
Li1_0 Mg1_2 3.084900 1_555
Li1_0 Mg3_4 3.089697 1_555
Li1_0 Mg3_2 3.089697 1_555
Li1_0 Mg0_7 3.150067 1_555
Li1_0 Mg2_0 3.156041 1_555
Li1_0 Li1_6 3.176720 1_545
Li1_0 Li1_6 3.176720 1_455
Li1_1 Mg2_3 3.069587 1_555
Li1_1 Mg2_5 3.069587 1_555
Li1_1 Mg1_5 3.084900 1_555
Li1_1 Mg1_3 3.084900 1_555
Li1_1 Mg3_5 3.089697 1_555
Li1_1 Mg3_3 3.089697 1_555
Li1_1 Mg0_6 3.150067 1_556
Li1_1 Mg2_1 3.156041 1_555
Li1_1 Li1_7 3.176720 1_455
Li1_1 Li1_7 3.176720 1_545
Li1_2 Mg2_0 3.069587 1_565
Li1_2 Mg2_6 3.069587 1_555
Li1_2 Mg1_6 3.084900 1_555
Li1_2 Mg1_0 3.084900 1_565
Li1_2 Mg3_0 3.089697 1_565
Li1_2 Mg3_6 3.089697 1_555
Li1_2 Mg0_5 3.150067 1_555
Li1_2 Mg2_2 3.156041 1_555
Li1_2 Li1_4 3.176720 1_465
Li1_2 Li1_4 3.176720 1_555
Li1_3 Mg2_7 3.069587 1_555
Li1_3 Mg2_1 3.069587 1_565
Li1_3 Mg1_1 3.084900 1_565
Li1_3 Mg1_7 3.084900 1_555
Li1_3 Mg3_1 3.089697 1_565
Li1_3 Mg3_7 3.089697 1_555
Li1_3 Mg0_4 3.150067 1_556
Li1_3 Mg2_3 3.156041 1_555
Li1_3 Li1_5 3.176720 1_465
Li1_3 Li1_5 3.176720 1_555
Li1_4 Mg2_0 3.069587 1_655
Li1_4 Mg2_6 3.069587 1_555
Li1_4 Mg1_6 3.084900 1_555
Li1_4 Mg1_0 3.084900 1_655
Li1_4 Mg3_6 3.089697 1_555
Li1_4 Mg3_0 3.089697 1_655
Li1_4 Mg0_3 3.150067 1_555
Li1_4 Mg2_4 3.156041 1_555
Li1_5 Mg2_1 3.069587 1_655
Li1_5 Mg2_7 3.069587 1_555
Li1_5 Mg1_1 3.084900 1_655
Li1_5 Mg1_7 3.084900 1_555
Li1_5 Mg3_1 3.089697 1_655
Li1_5 Mg3_7 3.089697 1_555
Li1_5 Mg0_2 3.150067 1_556
Li1_5 Mg2_5 3.156041 1_555
Li1_6 Mg2_4 3.069587 1_565
Li1_6 Mg2_2 3.069587 1_655
Li1_6 Mg1_4 3.084900 1_565
Li1_6 Mg1_2 3.084900 1_655
Li1_6 Mg3_4 3.089697 1_565
Li1_6 Mg3_2 3.089697 1_655
Li1_6 Mg0_1 3.150067 1_555
Li1_6 Mg2_6 3.156041 1_555
Li1_7 Mg2_3 3.069587 1_655
Li1_7 Mg2_5 3.069587 1_565
Li1_7 Mg1_5 3.084900 1_565
Li1_7 Mg1_3 3.084900 1_655
Li1_7 Mg3_3 3.089697 1_655
Li1_7 Mg3_5 3.089697 1_565
Li1_7 Mg0_0 3.150067 1_556
Li1_7 Mg2_7 3.156041 1_555
Mg0_0 Mg3_3 3.103902 1_654
Mg0_0 Mg3_5 3.103902 1_564
Mg0_0 Mg1_4 3.112944 1_565
Mg0_0 Mg1_2 3.112944 1_655
Mg0_0 Mg2_5 3.115890 1_564
Mg0_0 Mg2_3 3.115890 1_654
Mg0_0 Mg3_1 3.132012 1_664
Mg0_0 Mg0_6 3.176720 1_655
Mg0_0 Mg0_6 3.176720 1_565
Mg0_1 Mg3_4 3.103902 1_565
Mg0_1 Mg3_2 3.103902 1_655
Mg0_1 Mg1_5 3.112944 1_565
Mg0_1 Mg1_3 3.112944 1_655
Mg0_1 Mg2_2 3.115890 1_655
Mg0_1 Mg2_4 3.115890 1_565
Mg0_1 Mg3_0 3.132012 1_665
Mg0_1 Mg0_7 3.176720 1_565
Mg0_1 Mg0_7 3.176720 1_655
Mg0_2 Mg3_1 3.103902 1_654
Mg0_2 Mg3_7 3.103902 1_554
Mg0_2 Mg1_6 3.112944 1_555
Mg0_2 Mg1_0 3.112944 1_655
Mg0_2 Mg2_7 3.115890 1_554
Mg0_2 Mg2_1 3.115890 1_654
Mg0_2 Mg3_3 3.132012 1_654
Mg0_2 Mg0_4 3.176720 1_645
Mg0_2 Mg0_4 3.176720 1_555
Mg0_3 Mg3_6 3.103902 1_555
Mg0_3 Mg3_0 3.103902 1_655
Mg0_3 Mg1_1 3.112944 1_655
Mg0_3 Mg1_7 3.112944 1_555
Mg0_3 Mg2_0 3.115890 1_655
Mg0_3 Mg2_6 3.115890 1_555
Mg0_3 Mg3_2 3.132012 1_655
Mg0_3 Mg0_5 3.176720 1_555
Mg0_3 Mg0_5 3.176720 1_645
Mg0_4 Mg3_1 3.103902 1_564
Mg0_4 Mg3_7 3.103902 1_554
Mg0_4 Mg1_6 3.112944 1_555
Mg0_4 Mg1_0 3.112944 1_565
Mg0_4 Mg2_7 3.115890 1_554
Mg0_4 Mg2_1 3.115890 1_564
Mg0_4 Mg3_5 3.132012 1_564
Mg0_5 Mg3_6 3.103902 1_555
Mg0_5 Mg3_0 3.103902 1_565
Mg0_5 Mg1_1 3.112944 1_565
Mg0_5 Mg1_7 3.112944 1_555
Mg0_5 Mg2_0 3.115890 1_565
Mg0_5 Mg2_6 3.115890 1_555
Mg0_5 Mg3_4 3.132012 1_565
Mg0_6 Mg3_5 3.103902 1_554
Mg0_6 Mg3_3 3.103902 1_554
Mg0_6 Mg1_4 3.112944 1_555
Mg0_6 Mg1_2 3.112944 1_555
Mg0_6 Mg2_3 3.115890 1_554
Mg0_6 Mg2_5 3.115890 1_554
Mg0_6 Mg3_7 3.132012 1_554
Mg0_7 Mg3_4 3.103902 1_555
Mg0_7 Mg3_2 3.103902 1_555
Mg0_7 Mg1_5 3.112944 1_555
Mg0_7 Mg1_3 3.112944 1_555
Mg0_7 Mg2_2 3.115890 1_555
Mg0_7 Mg2_4 3.115890 1_555
Mg0_7 Mg3_6 3.132012 1_555
Mg1_0 Mg2_4 3.083645 1_455
Mg1_0 Mg2_2 3.083645 1_545
Mg1_0 Mg3_1 3.145744 1_554
Mg1_0 Mg1_6 3.176720 1_455
Mg1_0 Mg1_6 3.176720 1_545
Mg1_1 Mg2_5 3.083645 1_455
Mg1_1 Mg2_3 3.083645 1_545
Mg1_1 Mg3_0 3.145744 1_555
Mg1_1 Mg1_7 3.176720 1_455
Mg1_1 Mg1_7 3.176720 1_545
Mg1_2 Mg2_6 3.083645 1_455
Mg1_2 Mg2_0 3.083645 1_555
Mg1_2 Mg3_3 3.145744 1_554
Mg1_2 Mg1_4 3.176720 1_465
Mg1_2 Mg1_4 3.176720 1_555
Mg1_3 Mg2_1 3.083645 1_555
Mg1_3 Mg2_7 3.083645 1_455
Mg1_3 Mg3_2 3.145744 1_555
Mg1_3 Mg1_5 3.176720 1_465
Mg1_3 Mg1_5 3.176720 1_555
Mg1_4 Mg2_6 3.083645 1_545
Mg1_4 Mg2_0 3.083645 1_555
Mg1_4 Mg3_5 3.145744 1_554
Mg1_5 Mg2_1 3.083645 1_555
Mg1_5 Mg2_7 3.083645 1_545
Mg1_5 Mg3_4 3.145744 1_555
Mg1_6 Mg2_4 3.083645 1_555
Mg1_6 Mg2_2 3.083645 1_555
Mg1_6 Mg3_7 3.145744 1_554
Mg1_7 Mg2_5 3.083645 1_555
Mg1_7 Mg2_3 3.083645 1_555
Mg1_7 Mg3_6 3.145744 1_555
Mg2_0 Mg3_2 3.123414 1_555
Mg2_0 Mg3_4 3.123414 1_555
Mg2_0 Mg2_6 3.176720 1_545
Mg2_0 Mg2_6 3.176720 1_455
Mg2_1 Mg3_3 3.123414 1_555
Mg2_1 Mg3_5 3.123414 1_555
Mg2_1 Mg2_7 3.176720 1_455
Mg2_1 Mg2_7 3.176720 1_545
Mg2_2 Mg3_0 3.123414 1_565
Mg2_2 Mg3_6 3.123414 1_555
Mg2_2 Mg2_4 3.176720 1_465
Mg2_2 Mg2_4 3.176720 1_555
Mg2_3 Mg3_7 3.123414 1_555
Mg2_3 Mg3_1 3.123414 1_565
Mg2_3 Mg2_5 3.176720 1_465
Mg2_3 Mg2_5 3.176720 1_555
Mg2_4 Mg3_0 3.123414 1_655
Mg2_4 Mg3_6 3.123414 1_555
Mg2_5 Mg3_7 3.123414 1_555
Mg2_5 Mg3_1 3.123414 1_655
Mg2_6 Mg3_2 3.123414 1_655
Mg2_6 Mg3_4 3.123414 1_565
Mg2_7 Mg3_5 3.123414 1_565
Mg2_7 Mg3_3 3.123414 1_655
Mg3_0 Mg3_6 3.176720 1_455
Mg3_0 Mg3_6 3.176720 1_545
Mg3_1 Mg3_7 3.176720 1_545
Mg3_1 Mg3_7 3.176720 1_455
Mg3_2 Mg3_4 3.176720 1_465
Mg3_2 Mg3_4 3.176720 1_555
Mg3_3 Mg3_5 3.176720 1_555
Mg3_3 Mg3_5 3.176720 1_465
