# generated using pymatgen
data_Li5Mn3O8
_symmetry_space_group_name_H-M   'P 1'
_cell_length_a   2.96660600
_cell_length_b   5.11496987
_cell_length_c   9.87635617
_cell_angle_alpha   78.80724416
_cell_angle_beta   88.40806143
_cell_angle_gamma   88.20466312
_symmetry_Int_Tables_number   1
_chemical_formula_structural   Li5Mn3O8
_chemical_formula_sum   'Li5 Mn3 O8'
_cell_volume   146.90618885
_cell_formula_units_Z   1
loop_
 _symmetry_equiv_pos_site_id
 _symmetry_equiv_pos_as_xyz
  1  'x, y, z'
loop_
 _atom_site_type_symbol
 _atom_site_label
 _atom_site_symmetry_multiplicity
 _atom_site_fract_x
 _atom_site_fract_y
 _atom_site_fract_z
 _atom_site_occupancy
  Li  Li0  1  0.00548600  0.78146500  0.72262300  1
  Li  Li1  1  0.51555100  0.74822600  0.27235000  1
  Li  Li2  1  0.48444900  0.25177400  0.72765000  1
  Li  Li3  1  0.99451400  0.21853500  0.27737700  1
  Li  Li4  1  0.50000000  0.00000000  0.50000000  1
  Mn  Mn0  1  0.00000000  0.00000000  0.00000000  1
  Mn  Mn1  1  0.00000000  0.50000000  0.50000000  1
  Mn  Mn2  1  0.50000000  0.50000000  0.00000000  1
  O  O0  1  0.45663900  0.85603600  0.88640000  1
  O  O1  1  0.99931200  0.84491800  0.38148500  1
  O  O2  1  0.01492200  0.37267700  0.89288400  1
  O  O3  1  0.51145000  0.38752200  0.39002200  1
  O  O4  1  0.48855000  0.61247800  0.60997800  1
  O  O5  1  0.98507800  0.62732300  0.10711600  1
  O  O6  1  0.00068800  0.15508200  0.61851500  1
  O  O7  1  0.54336100  0.14396400  0.11360000  1
loop_
_geom_bond_atom_site_label_1
_geom_bond_atom_site_label_2
_geom_bond_distance
_geom_bond_site_symmetry_2
Li0 O6 1.986394 1_565
Li0 O4 2.060489 1_555
Li0 O4 2.210829 1_455
Li0 O0 2.223724 1_555
Li0 O0 2.338206 1_455
Li0 O2 2.415449 1_555
Li1 O1 1.950217 1_555
Li1 O1 1.954375 1_455
Li1 O3 1.980651 1_555
Li1 O5 2.279750 1_555
Li1 O7 2.309450 1_565
Li1 O5 2.473373 1_455
Li2 O6 1.950217 1_555
Li2 O6 1.954375 1_655
Li2 O4 1.980651 1_555
Li2 O2 2.279750 1_555
Li2 O0 2.309450 1_545
Li2 O2 2.473373 1_655
Li3 O1 1.986394 1_545
Li3 O3 2.060489 1_555
Li3 O3 2.210829 1_655
Li3 O7 2.223724 1_555
Li3 O7 2.338206 1_655
Li3 O5 2.415449 1_555
Li4 O4 2.067910 1_545
Li4 O3 2.067910 1_555
Li4 O6 2.093783 1_555
Li4 O1 2.093783 1_545
Li4 O6 2.176332 1_655
Li4 O1 2.176332 1_445
Mn0 O7 1.951906 1_455
Mn0 O0 1.951906 1_544
Mn0 O5 1.993653 1_445
Mn0 O2 1.993653 1_554
Mn0 O7 2.212457 1_555
Mn0 O0 2.212457 1_444
Mn1 O6 1.918552 1_555
Mn1 O1 1.918552 1_455
Mn1 O4 1.977178 1_455
Mn1 O3 1.977178 1_555
Mn1 O3 1.998418 1_455
Mn1 O4 1.998418 1_555
Mn2 O0 1.947282 1_554
Mn2 O7 1.947282 1_555
Mn2 O5 1.998033 1_455
Mn2 O2 1.998033 1_654
Mn2 O5 2.006221 1_555
Mn2 O2 2.006221 1_554
