# generated using pymatgen
data_Li4CrTe(WO6)2
_symmetry_space_group_name_H-M   'P 1'
_cell_length_a   5.18041233
_cell_length_b   7.54711934
_cell_length_c   11.00108442
_cell_angle_alpha   85.74578376
_cell_angle_beta   90.06378937
_cell_angle_gamma   90.19544609
_symmetry_Int_Tables_number   1
_chemical_formula_structural   Li4CrTe(WO6)2
_chemical_formula_sum   'Li8 Cr2 Te2 W4 O24'
_cell_volume   428.92376011
_cell_formula_units_Z   2
loop_
 _symmetry_equiv_pos_site_id
 _symmetry_equiv_pos_as_xyz
  1  'x, y, z'
loop_
 _atom_site_type_symbol
 _atom_site_label
 _atom_site_symmetry_multiplicity
 _atom_site_fract_x
 _atom_site_fract_y
 _atom_site_fract_z
 _atom_site_occupancy
  Li  Li0  1  0.00455500  0.26230800  0.28777000  1
  Li  Li1  1  0.00955600  0.27248500  0.79547100  1
  Li  Li2  1  0.49707600  0.79965000  0.52983800  1
  Li  Li3  1  0.49387200  0.80907900  0.02520700  1
  Li  Li4  1  0.98878400  0.81279400  0.29740000  1
  Li  Li5  1  0.00030000  0.80021900  0.79186700  1
  Li  Li6  1  0.50562200  0.21609100  0.97964300  1
  Li  Li7  1  0.50579800  0.20666100  0.47256500  1
  Cr  Cr0  1  0.00317600  0.99703000  0.00270700  1
  Cr  Cr1  1  0.00360800  0.99983800  0.50435800  1
  Te  Te0  1  0.48066500  0.51535000  0.25347300  1
  Te  Te1  1  0.49952100  0.50269800  0.75005500  1
  W  W0  1  0.99686000  0.50240200  0.50356000  1
  W  W1  1  0.50727800  0.00569100  0.24970700  1
  W  W2  1  0.98338800  0.50348600  0.00329100  1
  W  W3  1  0.50677900  0.00380800  0.74834700  1
  O  O0  1  0.30433800  0.42814900  0.40976800  1
  O  O1  1  0.30839500  0.42626200  0.89625600  1
  O  O2  1  0.12190300  0.73988700  0.50629000  1
  O  O3  1  0.12459300  0.73804400  0.98850700  1
  O  O4  1  0.32471600  0.04898400  0.59821300  1
  O  O5  1  0.31937000  0.05136500  0.09794700  1
  O  O6  1  0.19647500  0.43141600  0.65778900  1
  O  O7  1  0.14321300  0.43646900  0.15593700  1
  O  O8  1  0.80275900  0.94138500  0.65806000  1
  O  O9  1  0.79202700  0.92646000  0.15446700  1
  O  O10  1  0.37512000  0.74611700  0.74597900  1
  O  O11  1  0.34721900  0.75688900  0.25492800  1
  O  O12  1  0.62830500  0.25533100  0.74969900  1
  O  O13  1  0.64078000  0.23550300  0.25641800  1
  O  O14  1  0.20539300  0.04860900  0.84352100  1
  O  O15  1  0.20521500  0.05688700  0.34803600  1
  O  O16  1  0.82228300  0.55724100  0.82917800  1
  O  O17  1  0.82875800  0.57240400  0.35403100  1
  O  O18  1  0.69574100  0.94532900  0.89745400  1
  O  O19  1  0.69674900  0.93543800  0.40101900  1
  O  O20  1  0.88982000  0.25712700  0.98719400  1
  O  O21  1  0.88673100  0.25909000  0.49917000  1
  O  O22  1  0.67361800  0.57506400  0.06222800  1
  O  O23  1  0.67964900  0.56336600  0.59505000  1
loop_
_geom_bond_atom_site_label_1
_geom_bond_atom_site_label_2
_geom_bond_distance
_geom_bond_site_symmetry_2
Li0 O13 1.928094 1_455
Li0 O15 1.944384 1_555
Li0 O7 2.014966 1_555
Li0 O21 2.403410 1_455
Li0 O0 2.451723 1_555
Li1 O14 2.010340 1_555
Li1 O12 2.043722 1_455
Li1 O6 2.096744 1_555
Li1 O20 2.193831 1_455
Li1 O1 2.268858 1_555
Li1 O16 2.414649 1_455
Li2 O19 1.977135 1_555
Li2 O2 2.014489 1_555
Li2 O23 2.099865 1_555
Li2 O4 2.264293 1_565
Li2 O8 2.418468 1_555
Li2 O10 2.464816 1_555
Li3 O18 1.976802 1_554
Li3 O22 2.013909 1_555
Li3 O3 2.033089 1_554
Li3 O5 2.243027 1_565
Li3 O9 2.316299 1_555
Li4 O11 1.969953 1_655
Li4 O9 2.012365 1_555
Li4 O17 2.046969 1_555
Li4 O19 2.148222 1_555
Li4 O15 2.257845 1_665
Li4 O2 2.422946 1_655
Li5 O8 2.029916 1_455
Li5 O10 2.056701 1_555
Li5 O16 2.063814 1_455
Li5 O14 2.260330 1_565
Li5 O3 2.272180 1_555
Li5 O18 2.289651 1_455
Li6 O5 1.981139 1_556
Li6 O20 2.015780 1_555
Li6 O1 2.048049 1_555
Li6 O18 2.500631 1_545
Li6 O14 2.553705 1_555
Li7 O4 1.989470 1_555
Li7 O21 2.036436 1_555
Li7 O0 2.049305 1_555
Li7 O15 2.406695 1_555
Li7 O19 2.458174 1_545
Li7 O13 2.473135 1_555
Cr0 O5 2.001090 1_565
Cr0 O18 2.021921 1_454
Cr0 O9 2.033624 1_455
Cr0 O20 2.045778 1_464
Cr0 O14 2.053256 1_564
Cr0 O3 2.072292 1_554
Cr1 O4 2.004886 1_565
Cr1 O8 2.006598 1_455
Cr1 O15 2.030924 1_565
Cr1 O19 2.031828 1_455
Cr1 O21 2.046850 1_465
Cr1 O2 2.055957 1_555
O0 W0 2.002856 1_455
O0 Te0 2.013802 1_555
O1 Te1 1.939574 1_555
O1 W2 2.161911 1_456
O2 W0 1.906036 1_455
O3 W2 1.908926 1_456
O4 W3 1.910205 1_555
O5 W1 1.940879 1_555
O6 Te1 1.963669 1_555
O6 W0 2.024873 1_455
O7 W2 1.906577 1_455
O7 Te0 2.155281 1_555
O8 W3 1.907158 1_565
O9 W1 1.932281 1_565
O10 Te1 1.946303 1_555
O10 W3 2.060737 1_565
O11 Te0 1.952988 1_555
O11 W1 2.047000 1_565
O12 Te1 1.984955 1_555
O12 W3 1.999005 1_555
O13 W1 1.871540 1_555
O13 Te0 2.269692 1_555
O14 W3 1.925618 1_555
O15 W1 1.959071 1_555
O16 Te1 1.941148 1_555
O16 W2 2.100826 1_556
O17 W0 1.901170 1_555
O17 Te0 2.172991 1_555
O18 W3 1.932798 1_565
O19 W1 1.970885 1_565
O20 W2 1.940573 1_556
O21 W0 1.925041 1_555
O22 W2 1.829640 1_555
O22 Te0 2.342989 1_555
O23 Te1 1.967985 1_555
O23 W0 2.000661 1_555
