# generated using pymatgen
data_Zr6Co(SnH5)2
_symmetry_space_group_name_H-M   'P 1'
_cell_length_a   8.16168874
_cell_length_b   8.16168874
_cell_length_c   7.36152200
_cell_angle_alpha   90.00000000
_cell_angle_beta   90.00000000
_cell_angle_gamma   120.00000600
_symmetry_Int_Tables_number   1
_chemical_formula_structural   Zr6Co(SnH5)2
_chemical_formula_sum   'Zr12 Co2 Sn4 H20'
_cell_volume   424.67654566
_cell_formula_units_Z   2
loop_
 _symmetry_equiv_pos_site_id
 _symmetry_equiv_pos_as_xyz
  1  'x, y, z'
loop_
 _atom_site_type_symbol
 _atom_site_label
 _atom_site_symmetry_multiplicity
 _atom_site_fract_x
 _atom_site_fract_y
 _atom_site_fract_z
 _atom_site_occupancy
  Zr  Zr0  1  0.74467200  0.00000000  0.00000000  1
  Zr  Zr1  1  0.00000000  0.74467200  0.00000000  1
  Zr  Zr2  1  0.74467200  0.00000000  0.50000000  1
  Zr  Zr3  1  0.25532800  0.25532800  0.00000000  1
  Zr  Zr4  1  0.00000000  0.74467200  0.50000000  1
  Zr  Zr5  1  0.25532800  0.25532800  0.50000000  1
  Zr  Zr6  1  0.41822700  0.04656000  0.25000000  1
  Zr  Zr7  1  0.95344000  0.37166800  0.25000000  1
  Zr  Zr8  1  0.04656000  0.41822700  0.75000000  1
  Zr  Zr9  1  0.62833200  0.58177300  0.25000000  1
  Zr  Zr10  1  0.37166800  0.95344000  0.75000000  1
  Zr  Zr11  1  0.58177300  0.62833200  0.75000000  1
  Co  Co0  1  0.00000000  0.00000000  0.25000000  1
  Co  Co1  1  0.00000000  0.00000000  0.75000000  1
  Sn  Sn0  1  0.33333300  0.66666700  0.04128500  1
  Sn  Sn1  1  0.33333300  0.66666700  0.45871500  1
  Sn  Sn2  1  0.66666700  0.33333300  0.95871500  1
  Sn  Sn3  1  0.66666700  0.33333300  0.54128500  1
  H  H0  1  0.27754000  0.00000000  0.00000000  1
  H  H1  1  0.00000000  0.27754000  0.00000000  1
  H  H2  1  0.27754000  0.00000000  0.50000000  1
  H  H3  1  0.72246000  0.72246000  0.00000000  1
  H  H4  1  0.00000000  0.27754000  0.50000000  1
  H  H5  1  0.72246000  0.72246000  0.50000000  1
  H  H6  1  0.40168200  0.29332900  0.25000000  1
  H  H7  1  0.70667100  0.10835300  0.25000000  1
  H  H8  1  0.29332900  0.40168200  0.75000000  1
  H  H9  1  0.89164700  0.59831800  0.25000000  1
  H  H10  1  0.10835300  0.70667100  0.75000000  1
  H  H11  1  0.59831800  0.89164700  0.75000000  1
  H  H12  1  0.11692000  0.23462700  0.25000000  1
  H  H13  1  0.76537300  0.88229400  0.25000000  1
  H  H14  1  0.23462700  0.11692000  0.75000000  1
  H  H15  1  0.11770600  0.88308000  0.25000000  1
  H  H16  1  0.88229400  0.76537300  0.75000000  1
  H  H17  1  0.88308000  0.11770600  0.75000000  1
  H  H18  1  0.00000000  0.00000000  0.00000000  1
  H  H19  1  0.00000000  0.00000000  0.50000000  1
loop_
_geom_bond_atom_site_label_1
_geom_bond_atom_site_label_2
_geom_bond_distance
_geom_bond_site_symmetry_2
Co0 H15 1.658394 1_545
Co0 H13 1.658401 1_445
Co0 H12 1.658401 1_555
Co0 H18 1.840380 1_555
Co0 H19 1.840380 1_555
Co1 H17 1.658394 1_455
Co1 H16 1.658401 1_445
Co1 H14 1.658401 1_555
Co1 H18 1.840380 1_556
Co1 H19 1.840380 1_555
Sn0 Zr10 3.072750 1_554
Sn0 Zr8 3.072755 1_554
Sn0 Zr11 3.072762 1_554
Sn0 Sn1 3.072920 1_555
Sn0 Zr1 3.103416 1_555
Sn0 Zr0 3.103421 1_565
Sn0 Zr3 3.103424 1_555
Sn0 Zr7 3.210295 1_455
Sn0 Zr6 3.210296 1_565
Sn0 Zr9 3.210296 1_555
Sn1 Zr10 3.072750 1_555
Sn1 Zr8 3.072755 1_555
Sn1 Zr11 3.072762 1_555
Sn1 Zr4 3.103416 1_555
Sn1 Zr2 3.103421 1_565
Sn1 Zr5 3.103424 1_555
Sn1 Zr7 3.210295 1_455
Sn1 Zr6 3.210296 1_565
Sn1 Zr9 3.210296 1_555
Sn2 Zr7 3.072750 1_556
Sn2 Zr6 3.072755 1_556
Sn2 Zr9 3.072762 1_556
Sn2 Sn3 3.072920 1_555
Sn2 Zr0 3.103416 1_556
Sn2 Zr1 3.103421 1_656
Sn2 Zr3 3.103424 1_556
Sn2 Zr10 3.210295 1_545
Sn2 Zr8 3.210296 1_655
Sn2 Zr11 3.210296 1_555
Sn3 Zr7 3.072750 1_555
Sn3 Zr6 3.072755 1_555
Sn3 Zr9 3.072762 1_555
Sn3 Zr2 3.103416 1_555
Sn3 Zr4 3.103421 1_655
Sn3 Zr5 3.103424 1_555
Sn3 Zr10 3.210295 1_545
Sn3 Zr8 3.210296 1_655
Sn3 Zr11 3.210296 1_555
H0 Zr6 2.100840 1_555
H0 Zr10 2.100844 1_544
H0 Zr1 2.180211 1_545
H0 Zr3 2.180212 1_555
H1 Zr8 2.100840 1_554
H1 Zr7 2.100844 1_455
H1 Zr0 2.180211 1_455
H1 Zr3 2.180212 1_555
H2 Zr6 2.100840 1_555
H2 Zr10 2.100844 1_545
H2 Zr4 2.180211 1_545
H2 Zr5 2.180212 1_555
H3 Zr9 2.100841 1_555
H3 Zr11 2.100841 1_554
H3 Zr1 2.180212 1_655
H3 Zr0 2.180212 1_565
H4 Zr8 2.100840 1_555
H4 Zr7 2.100844 1_455
H4 Zr2 2.180211 1_455
H4 Zr5 2.180212 1_555
H5 Zr9 2.100841 1_555
H5 Zr11 2.100841 1_555
H5 Zr4 2.180212 1_655
H5 Zr2 2.180212 1_565
H6 Zr6 2.084852 1_555
H6 Zr3 2.130619 1_555
H6 Zr5 2.130619 1_555
H6 Zr9 2.146917 1_555
H7 Zr7 2.084856 1_555
H7 Zr0 2.130619 1_555
H7 Zr2 2.130619 1_555
H7 Zr6 2.146920 1_555
H8 Zr8 2.084852 1_555
H8 Zr5 2.130619 1_555
H8 Zr3 2.130619 1_556
H8 Zr11 2.146917 1_555
H9 Zr9 2.084860 1_555
H9 Zr1 2.130619 1_655
H9 Zr4 2.130619 1_655
H9 Zr7 2.146912 1_555
H10 Zr10 2.084856 1_555
H10 Zr4 2.130619 1_555
H10 Zr1 2.130619 1_556
H10 Zr8 2.146920 1_555
H11 Zr11 2.084860 1_555
H11 Zr0 2.130619 1_566
H11 Zr2 2.130619 1_565
H11 Zr10 2.146912 1_555
H12 Zr3 2.121504 1_555
H12 Zr5 2.121504 1_555
H12 Zr7 2.126890 1_455
H13 Zr2 2.121500 1_565
H13 Zr0 2.121500 1_565
H13 Zr9 2.126890 1_555
H14 Zr3 2.121504 1_556
H14 Zr5 2.121504 1_555
H14 Zr10 2.126890 1_545
H15 Zr1 2.121503 1_555
H15 Zr4 2.121503 1_555
H15 Zr6 2.126890 1_565
H16 Zr4 2.121500 1_655
H16 Zr1 2.121500 1_656
H16 Zr11 2.126890 1_555
H17 Zr2 2.121503 1_555
H17 Zr0 2.121503 1_556
H17 Zr8 2.126890 1_655
H18 Zr3 2.083907 1_555
H18 Zr0 2.083908 1_455
H18 Zr1 2.083908 1_545
H19 Zr5 2.083907 1_555
H19 Zr4 2.083908 1_545
H19 Zr2 2.083908 1_455
