# generated using pymatgen
data_U2(P2O7)3
_symmetry_space_group_name_H-M   'P 1'
_cell_length_a   7.04417498
_cell_length_b   7.04417498
_cell_length_c   19.24305244
_cell_angle_alpha   89.49446594
_cell_angle_beta   89.49446594
_cell_angle_gamma   97.13154893
_symmetry_Int_Tables_number   1
_chemical_formula_structural   U2(P2O7)3
_chemical_formula_sum   'U4 P12 O42'
_cell_volume   947.37680155
_cell_formula_units_Z   2
loop_
 _symmetry_equiv_pos_site_id
 _symmetry_equiv_pos_as_xyz
  1  'x, y, z'
loop_
 _atom_site_type_symbol
 _atom_site_label
 _atom_site_symmetry_multiplicity
 _atom_site_fract_x
 _atom_site_fract_y
 _atom_site_fract_z
 _atom_site_occupancy
  U  U0  1  0.82616100  0.23950500  0.50576100  1
  U  U1  1  0.23950500  0.82616100  0.00576100  1
  U  U2  1  0.64512700  0.77634200  0.78493500  1
  U  U3  1  0.77634200  0.64512700  0.28493500  1
  P  P0  1  0.76468900  0.96613900  0.01784600  1
  P  P1  1  0.37070500  0.19436900  0.31598200  1
  P  P2  1  0.96613900  0.76468900  0.51784600  1
  P  P3  1  0.12559800  0.99096600  0.76082000  1
  P  P4  1  0.40001700  0.45240200  0.19207700  1
  P  P5  1  0.99096600  0.12559800  0.26082000  1
  P  P6  1  0.11671100  0.54844900  0.14802300  1
  P  P7  1  0.45240200  0.40001700  0.69207700  1
  P  P8  1  0.30590800  0.34376200  0.96984300  1
  P  P9  1  0.19436900  0.37070500  0.81598200  1
  P  P10  1  0.54844900  0.11671100  0.64802300  1
  P  P11  1  0.34376200  0.30590800  0.46984300  1
  O  O0  1  0.17155700  0.80489500  0.48257400  1
  O  O1  1  0.14547800  0.24352400  0.50662600  1
  O  O2  1  0.92456600  0.67895500  0.36188000  1
  O  O3  1  0.76145800  0.21297200  0.60775000  1
  O  O4  1  0.27544500  0.84938800  0.91258700  1
  O  O5  1  0.01040700  0.24677600  0.19602000  1
  O  O6  1  0.53779100  0.71838300  0.34708900  1
  O  O7  1  0.62478100  0.01392000  0.71382500  1
  O  O8  1  0.36486700  0.74792200  0.35452600  1
  O  O9  1  0.57565800  0.62087000  0.20453300  1
  O  O10  1  0.21297200  0.76145800  0.10775000  1
  O  O11  1  0.45366000  0.29440900  0.14924200  1
  O  O12  1  0.05344400  0.19947700  0.78235000  1
  O  O13  1  0.91271500  0.83051100  0.00739300  1
  O  O14  1  0.41245400  0.51235000  0.46719800  1
  O  O15  1  0.39586400  0.35687400  0.77636200  1
  O  O16  1  0.93824500  0.85468400  0.75392700  1
  O  O17  1  0.51235000  0.41245400  0.96719800  1
  O  O18  1  0.85468400  0.93824500  0.25392700  1
  O  O19  1  0.35687400  0.39586400  0.27636200  1
  O  O20  1  0.80489500  0.17155700  0.98257400  1
  O  O21  1  0.24677600  0.01040700  0.69602000  1
  O  O22  1  0.19947700  0.05344400  0.28235000  1
  O  O23  1  0.28847400  0.22237000  0.39053100  1
  O  O24  1  0.71838300  0.53779100  0.84708900  1
  O  O25  1  0.13517200  0.56293600  0.80964900  1
  O  O26  1  0.82160300  0.14509800  0.06687800  1
  O  O27  1  0.56193600  0.86928100  0.02324500  1
  O  O28  1  0.67895500  0.92456600  0.86188000  1
  O  O29  1  0.84938800  0.27544500  0.41258700  1
  O  O30  1  0.83051100  0.91271500  0.50739300  1
  O  O31  1  0.24352400  0.14547800  0.00662600  1
  O  O32  1  0.74792200  0.36486700  0.85452600  1
  O  O33  1  0.62087000  0.57565800  0.70453300  1
  O  O34  1  0.50460900  0.18577100  0.49553000  1
  O  O35  1  0.22237000  0.28847400  0.89053100  1
  O  O36  1  0.18577100  0.50460900  0.99553000  1
  O  O37  1  0.56293600  0.13517200  0.30964900  1
  O  O38  1  0.29440900  0.45366000  0.64924200  1
  O  O39  1  0.14509800  0.82160300  0.56687800  1
  O  O40  1  0.86928000  0.56193600  0.52324500  1
  O  O41  1  0.01392000  0.62478100  0.21382500  1
loop_
_geom_bond_atom_site_label_1
_geom_bond_atom_site_label_2
_geom_bond_distance
_geom_bond_site_symmetry_2
O0 P2 1.585002 1_455
O1 P11 1.571522 1_555
O1 U0 2.246196 1_455
O2 U3 1.819625 1_555
O3 P10 1.740511 1_555
O3 U0 2.012704 1_555
O4 U1 1.811648 1_556
O5 P5 1.500483 1_455
O6 O8 1.268047 1_555
O6 U3 2.170538 1_555
O7 P10 1.584062 1_555
O7 U2 2.171712 1_545
O9 P4 1.625490 1_555
O9 U3 2.098729 1_555
O10 P6 1.740511 1_555
O10 U1 2.012704 1_555
O11 P4 1.475108 1_555
O12 P9 1.608395 1_555
O12 P3 1.667244 1_545
O13 P0 1.512460 1_555
O13 U1 2.305911 1_655
O14 P11 1.474791 1_555
O15 P9 1.619232 1_555
O15 P7 1.682672 1_555
O16 P3 1.540024 1_655
O16 U2 2.147883 1_555
O17 P8 1.474791 1_555
O18 P5 1.540024 1_565
O18 U3 2.147883 1_555
O19 P1 1.619232 1_555
O19 P4 1.682672 1_555
O20 P0 1.585002 1_546
O21 P3 1.500483 1_545
O22 P1 1.608395 1_555
O22 P5 1.667244 1_455
O23 P1 1.565589 1_555
O23 P11 1.672332 1_555
O24 O32 1.268047 1_555
O24 U2 2.170538 1_555
O25 P9 1.469875 1_555
O26 P0 1.594461 1_545
O27 P0 1.506757 1_555
O27 U1 2.282120 1_555
O28 U2 1.819625 1_555
O29 U0 1.811648 1_555
O30 P2 1.512460 1_555
O30 U0 2.305911 1_565
O31 P8 1.571522 1_554
O31 U1 2.246196 1_545
O33 P7 1.625490 1_555
O33 U2 2.098729 1_555
O34 P11 1.576338 1_555
O34 U0 2.260282 1_555
O35 P9 1.565589 1_555
O35 P8 1.672332 1_555
O36 P8 1.576338 1_555
O36 U1 2.260282 1_556
O37 P1 1.469875 1_555
O38 P7 1.475108 1_555
O39 P2 1.594461 1_455
O40 P2 1.506760 1_555
O40 U0 2.282120 1_555
O41 P6 1.584062 1_555
O41 U3 2.171712 1_455
