# generated using pymatgen
data_Ca2SnAu
_symmetry_space_group_name_H-M   'P 1'
_cell_length_a   12.34441684
_cell_length_b   12.34441684
_cell_length_c   12.34441684
_cell_angle_alpha   123.00132707
_cell_angle_beta   119.01166871
_cell_angle_gamma   88.30114936
_symmetry_Int_Tables_number   1
_chemical_formula_structural   Ca2SnAu
_chemical_formula_sum   'Ca2 Sn1 Au1'
_cell_volume   1307.21843722
_cell_formula_units_Z   1
loop_
 _symmetry_equiv_pos_site_id
 _symmetry_equiv_pos_as_xyz
  1  'x, y, z'
loop_
 _atom_site_type_symbol
 _atom_site_label
 _atom_site_symmetry_multiplicity
 _atom_site_fract_x
 _atom_site_fract_y
 _atom_site_fract_z
 _atom_site_occupancy
  Ca  Ca0  1  0.00000000  0.25417900  0.25417900  1
  Ca  Ca1  1  0.00000000  0.74582100  0.74582100  1
  Sn  Sn0  1  0.00000000  0.00000000  0.00000000  1
  Au  Au0  1  0.00000000  0.50000000  0.50000000  1
loop_
_geom_bond_atom_site_label_1
_geom_bond_atom_site_label_2
_geom_bond_distance
_geom_bond_site_symmetry_2
Ca0 Sn0 2.994290 1_555
Ca1 Sn0 2.994290 1_566
Au0 Ca1 2.895831 1_555
Au0 Ca0 2.895831 1_555
