# generated using pymatgen
data_K2ZnS2
_symmetry_space_group_name_H-M   'P 1'
_cell_length_a   7.79140348
_cell_length_b   7.79140348
_cell_length_c   7.79140348
_cell_angle_alpha   133.35777684
_cell_angle_beta   128.92571443
_cell_angle_gamma   71.64738665
_symmetry_Int_Tables_number   1
_chemical_formula_structural   K2ZnS2
_chemical_formula_sum   'K4 Zn2 S4'
_cell_volume   261.80290943
_cell_formula_units_Z   2
loop_
 _symmetry_equiv_pos_site_id
 _symmetry_equiv_pos_as_xyz
  1  'x, y, z'
loop_
 _atom_site_type_symbol
 _atom_site_label
 _atom_site_symmetry_multiplicity
 _atom_site_fract_x
 _atom_site_fract_y
 _atom_site_fract_z
 _atom_site_occupancy
  K  K0  1  0.81100410  0.64522687  0.16577622  1
  K  K1  1  0.18899590  0.35477313  0.83422378  1
  K  K2  1  0.47945065  0.14522687  0.33422378  1
  K  K3  1  0.52054935  0.85477313  0.66577622  1
  Zn  Zn0  1  -0.00000000  0.75000000  0.75000000  1
  Zn  Zn1  1  -0.00000000  0.25000000  0.25000000  1
  S  S0  1  0.70979133  0.39800038  0.31179095  1
  S  S1  1  0.29020867  0.60199962  0.68820905  1
  S  S2  1  0.08620843  0.89800038  0.18820905  1
  S  S3  1  0.91379157  0.10199962  0.81179095  1
loop_
_geom_bond_atom_site_label_1
_geom_bond_atom_site_label_2
_geom_bond_distance
_geom_bond_site_symmetry_2
K0 S2 3.197303 1_655
K0 S1 3.254311 1_554
K0 S0 3.274068 1_555
K0 S3 3.282456 1_554
K0 S3 3.282456 1_565
K0 Zn1 3.284271 1_655
K0 Zn0 3.284274 1_655
K0 S1 3.551783 1_655
K1 S3 3.197303 1_455
K1 S0 3.254311 1_556
K1 S1 3.274068 1_555
K1 S2 3.282456 1_556
K1 S2 3.282456 1_545
K1 Zn0 3.284271 1_555
K1 Zn1 3.284274 1_555
K1 S0 3.551783 1_455
K2 S0 3.197316 1_555
K2 S3 3.254309 1_555
K2 S2 3.274070 1_545
K2 S1 3.282456 1_555
K2 S1 3.282456 1_544
K2 Zn1 3.284272 1_555
K2 Zn0 3.284272 1_544
K2 S3 3.551781 1_454
K3 S1 3.197316 1_555
K3 S2 3.254309 1_555
K3 S3 3.274070 1_565
K3 S0 3.282456 1_555
K3 S0 3.282456 1_566
K3 Zn0 3.284272 1_655
K3 Zn1 3.284272 1_666
K3 S2 3.551781 1_656
S0 Zn1 2.374434 1_655
S0 Zn0 2.374434 1_655
S1 Zn0 2.374434 1_555
S1 Zn1 2.374434 1_555
S2 Zn1 2.374433 1_565
S2 Zn0 2.374437 1_554
S3 Zn0 2.374433 1_645
S3 Zn1 2.374437 1_656
