# generated using pymatgen
data_CaScTl2
_symmetry_space_group_name_H-M   'P 1'
_cell_length_a   13.12997329
_cell_length_b   13.12997329
_cell_length_c   13.12997329
_cell_angle_alpha   125.95253917
_cell_angle_beta   118.00103007
_cell_angle_gamma   86.75519061
_symmetry_Int_Tables_number   1
_chemical_formula_structural   CaScTl2
_chemical_formula_sum   'Ca1 Sc1 Tl2'
_cell_volume   1540.01428768
_cell_formula_units_Z   1
loop_
 _symmetry_equiv_pos_site_id
 _symmetry_equiv_pos_as_xyz
  1  'x, y, z'
loop_
 _atom_site_type_symbol
 _atom_site_label
 _atom_site_symmetry_multiplicity
 _atom_site_fract_x
 _atom_site_fract_y
 _atom_site_fract_z
 _atom_site_occupancy
  Ca  Ca0  1  0.00000000  0.00000000  0.00000000  1
  Sc  Sc0  1  0.00000000  0.50000000  0.50000000  1
  Tl  Tl0  1  0.00000000  0.26094300  0.26094300  1
  Tl  Tl1  1  0.00000000  0.73905700  0.73905700  1
loop_
_geom_bond_atom_site_label_1
_geom_bond_atom_site_label_2
_geom_bond_distance
_geom_bond_site_symmetry_2
Ca0 Tl0 3.113430 1_555
Ca0 Tl1 3.113430 1_544
Sc0 Tl1 2.852298 1_555
Sc0 Tl0 2.852298 1_555
