# generated using pymatgen
data_U2GaCo2
_symmetry_space_group_name_H-M   'P 1'
_cell_length_a   7.11263100
_cell_length_b   7.11263100
_cell_length_c   3.36581500
_cell_angle_alpha   90.00000000
_cell_angle_beta   90.00000000
_cell_angle_gamma   90.00000000
_symmetry_Int_Tables_number   1
_chemical_formula_structural   U2GaCo2
_chemical_formula_sum   'U4 Ga2 Co4'
_cell_volume   170.27496439
_cell_formula_units_Z   2
loop_
 _symmetry_equiv_pos_site_id
 _symmetry_equiv_pos_as_xyz
  1  'x, y, z'
loop_
 _atom_site_type_symbol
 _atom_site_label
 _atom_site_symmetry_multiplicity
 _atom_site_fract_x
 _atom_site_fract_y
 _atom_site_fract_z
 _atom_site_occupancy
  U  U0  1  0.67344100  0.17344100  0.50000000  1
  U  U1  1  0.32655900  0.82655900  0.50000000  1
  U  U2  1  0.17344100  0.32655900  0.50000000  1
  U  U3  1  0.82655900  0.67344100  0.50000000  1
  Ga  Ga0  1  0.00000000  0.00000000  0.00000000  1
  Ga  Ga1  1  0.50000000  0.50000000  0.00000000  1
  Co  Co0  1  0.13330200  0.63330200  0.00000000  1
  Co  Co1  1  0.86669800  0.36669800  0.00000000  1
  Co  Co2  1  0.63330200  0.86669800  0.00000000  1
  Co  Co3  1  0.36669800  0.13330200  0.00000000  1
loop_
_geom_bond_atom_site_label_1
_geom_bond_atom_site_label_2
_geom_bond_distance
_geom_bond_site_symmetry_2
Ga0 U2 3.122324 1_555
Ga0 U2 3.122324 1_554
Ga0 U1 3.122324 1_544
Ga0 U1 3.122324 1_545
Ga0 U3 3.122324 1_445
Ga0 U0 3.122324 1_455
Ga0 U0 3.122324 1_454
Ga0 U3 3.122324 1_444
Ga1 U2 3.122324 1_555
Ga1 U0 3.122324 1_554
Ga1 U2 3.122324 1_554
Ga1 U0 3.122324 1_555
Ga1 U1 3.122324 1_554
Ga1 U1 3.122324 1_555
Ga1 U3 3.122324 1_554
Ga1 U3 3.122324 1_555
Co0 U1 2.571194 1_555
Co0 U1 2.571194 1_554
Co0 Co1 2.681711 1_455
Co0 U3 2.770147 1_455
Co0 U3 2.770147 1_454
Co0 U2 2.770147 1_555
Co0 U2 2.770147 1_554
Co0 Ga0 2.775174 1_565
Co0 Ga1 2.775174 1_555
Co1 U0 2.571194 1_555
Co1 U0 2.571194 1_554
Co1 U3 2.770147 1_555
Co1 U3 2.770147 1_554
Co1 U2 2.770147 1_655
Co1 U2 2.770147 1_654
Co1 Ga1 2.775174 1_555
Co1 Ga0 2.775174 1_655
Co2 U3 2.571194 1_554
Co2 U3 2.571194 1_555
Co2 Co3 2.681711 1_565
Co2 U0 2.770147 1_565
Co2 U0 2.770147 1_564
Co2 U1 2.770147 1_555
Co2 U1 2.770147 1_554
Co2 Ga1 2.775174 1_555
Co2 Ga0 2.775174 1_665
Co3 U2 2.571194 1_555
Co3 U2 2.571194 1_554
Co3 U0 2.770147 1_555
Co3 U0 2.770147 1_554
Co3 U1 2.770147 1_545
Co3 U1 2.770147 1_544
Co3 Ga1 2.775174 1_555
Co3 Ga0 2.775174 1_555
