# generated using pymatgen
data_Sm2MoO6
_symmetry_space_group_name_H-M   'P 1'
_cell_length_a   10.04036930
_cell_length_b   10.04036930
_cell_length_c   5.46665005
_cell_angle_alpha   75.04624400
_cell_angle_beta   75.04624400
_cell_angle_gamma   68.33377537
_symmetry_Int_Tables_number   1
_chemical_formula_structural   Sm2MoO6
_chemical_formula_sum   'Sm8 Mo4 O24'
_cell_volume   486.61042794
_cell_formula_units_Z   4
loop_
 _symmetry_equiv_pos_site_id
 _symmetry_equiv_pos_as_xyz
  1  'x, y, z'
loop_
 _atom_site_type_symbol
 _atom_site_label
 _atom_site_symmetry_multiplicity
 _atom_site_fract_x
 _atom_site_fract_y
 _atom_site_fract_z
 _atom_site_occupancy
  Sm  Sm0  1  0.28695929  0.05364092  0.61858979  1
  Sm  Sm1  1  0.94635908  0.71304071  0.88141021  1
  Sm  Sm2  1  0.71304071  0.94635908  0.38141021  1
  Sm  Sm3  1  0.05364092  0.28695929  0.11858979  1
  Sm  Sm4  1  0.89019478  0.10980522  0.75000000  1
  Sm  Sm5  1  0.10980522  0.89019478  0.25000000  1
  Sm  Sm6  1  0.36620771  0.63379229  0.75000000  1
  Sm  Sm7  1  0.63379229  0.36620771  0.25000000  1
  Mo  Mo0  1  0.79619474  0.51136866  0.56097978  1
  Mo  Mo1  1  0.48863134  0.20380526  0.93902022  1
  Mo  Mo2  1  0.20380526  0.48863134  0.43902022  1
  Mo  Mo3  1  0.51136866  0.79619474  0.06097978  1
  O  O0  1  0.82659396  0.38574455  0.86126816  1
  O  O1  1  0.61425545  0.17340604  0.63873184  1
  O  O2  1  0.17340604  0.61425545  0.13873184  1
  O  O3  1  0.38574455  0.82659396  0.36126816  1
  O  O4  1  0.92981114  0.52566939  0.26658637  1
  O  O5  1  0.47433061  0.07018886  0.23341363  1
  O  O6  1  0.07018886  0.47433061  0.73341363  1
  O  O7  1  0.52566939  0.92981114  0.76658637  1
  O  O8  1  0.78639183  0.67815179  0.63858671  1
  O  O9  1  0.32184821  0.21360817  0.86141329  1
  O  O10  1  0.21360817  0.32184821  0.36141329  1
  O  O11  1  0.67815179  0.78639183  0.13858671  1
  O  O12  1  0.07531124  0.10943442  0.92072584  1
  O  O13  1  0.89056558  0.92468876  0.57927416  1
  O  O14  1  0.92468876  0.89056558  0.07927416  1
  O  O15  1  0.10943442  0.07531124  0.42072584  1
  O  O16  1  0.31177341  0.83654250  0.91468469  1
  O  O17  1  0.16345750  0.68822659  0.58531531  1
  O  O18  1  0.68822659  0.16345750  0.08531531  1
  O  O19  1  0.83654250  0.31177341  0.41468469  1
  O  O20  1  0.54650723  0.61517453  0.01790788  1
  O  O21  1  0.38482547  0.45349277  0.48209212  1
  O  O22  1  0.45349277  0.38482547  0.98209212  1
  O  O23  1  0.61517453  0.54650723  0.51790788  1
loop_
_geom_bond_atom_site_label_1
_geom_bond_atom_site_label_2
_geom_bond_distance
_geom_bond_site_symmetry_2
Mo0 O23 1.785429 1_555
Mo0 O8 1.793664 1_555
Mo0 O0 1.812340 1_555
Mo0 O4 1.821851 1_555
Mo0 O19 2.209121 1_555
Mo1 O22 1.785429 1_555
Mo1 O9 1.793664 1_555
Mo1 O1 1.812340 1_555
Mo1 O5 1.821851 1_556
Mo1 O18 2.209121 1_556
Mo2 O21 1.785429 1_555
Mo2 O10 1.793664 1_555
Mo2 O2 1.812340 1_555
Mo2 O6 1.821851 1_555
Mo2 O17 2.209121 1_555
Mo3 O20 1.785429 1_555
Mo3 O11 1.793664 1_555
Mo3 O3 1.812340 1_555
Mo3 O7 1.821851 1_554
Mo3 O16 2.209121 1_554
O0 Sm7 2.498790 1_556
O0 Sm3 2.724812 1_656
O0 Sm4 2.795799 1_555
O1 Sm7 2.498790 1_555
O1 Sm2 2.724812 1_545
O1 Sm4 2.795799 1_555
O2 Sm6 2.498790 1_554
O2 Sm1 2.724812 1_454
O2 Sm5 2.795799 1_555
O3 Sm6 2.498790 1_555
O3 Sm0 2.724812 1_565
O3 Sm5 2.795799 1_555
O4 Sm1 2.450794 1_554
O4 Sm3 2.495189 1_655
O5 Sm0 2.450794 1_555
O5 Sm2 2.495189 1_545
O6 Sm3 2.450794 1_556
O6 Sm1 2.495189 1_455
O7 Sm2 2.450794 1_555
O7 Sm0 2.495189 1_565
O8 Sm1 2.494022 1_555
O8 Sm2 2.624257 1_555
O9 Sm0 2.494022 1_555
O9 Sm3 2.624257 1_556
O10 Sm3 2.494022 1_555
O10 Sm0 2.624257 1_555
O11 Sm2 2.494022 1_555
O11 Sm1 2.624257 1_554
O12 Sm3 2.231922 1_556
O12 Sm4 2.283400 1_455
O12 Sm0 2.311862 1_555
O12 Sm5 2.432996 1_546
O13 Sm2 2.231922 1_555
O13 Sm4 2.283400 1_565
O13 Sm1 2.311862 1_555
O13 Sm5 2.432996 1_655
O14 Sm1 2.231922 1_554
O14 Sm5 2.283400 1_655
O14 Sm2 2.311862 1_555
O14 Sm4 2.432996 1_564
O15 Sm0 2.231922 1_555
O15 Sm5 2.283400 1_545
O15 Sm3 2.311862 1_555
O15 Sm4 2.432996 1_455
O16 Sm6 2.263529 1_555
O16 Sm0 2.328017 1_565
O16 Sm5 2.355216 1_556
O17 Sm6 2.263529 1_555
O17 Sm1 2.328017 1_455
O17 Sm5 2.355216 1_555
O18 Sm7 2.263529 1_555
O18 Sm2 2.328017 1_545
O18 Sm4 2.355216 1_554
O19 Sm7 2.263529 1_555
O19 Sm3 2.328017 1_655
O19 Sm4 2.355216 1_555
O20 Sm7 2.438412 1_555
O20 Sm6 2.536546 1_554
O21 Sm7 2.438412 1_555
O21 Sm6 2.536546 1_555
O22 Sm6 2.438412 1_555
O22 Sm7 2.536546 1_556
O23 Sm6 2.438412 1_555
O23 Sm7 2.536546 1_555
