# generated using pymatgen
data_Mg14CdBi
_symmetry_space_group_name_H-M   'P 1'
_cell_length_a   6.40899840
_cell_length_b   6.40899787
_cell_length_c   10.44476960
_cell_angle_alpha   90.00000000
_cell_angle_beta   90.00000000
_cell_angle_gamma   120.00000271
_symmetry_Int_Tables_number   1
_chemical_formula_structural   Mg14CdBi
_chemical_formula_sum   'Mg14 Cd1 Bi1'
_cell_volume   371.54359152
_cell_formula_units_Z   1
loop_
 _symmetry_equiv_pos_site_id
 _symmetry_equiv_pos_as_xyz
  1  'x, y, z'
loop_
 _atom_site_type_symbol
 _atom_site_label
 _atom_site_symmetry_multiplicity
 _atom_site_fract_x
 _atom_site_fract_y
 _atom_site_fract_z
 _atom_site_occupancy
  Mg  Mg0  1  0.16636593  0.83318247  0.12500000  1
  Mg  Mg1  1  0.16590159  0.83295029  0.62500000  1
  Mg  Mg2  1  0.66681753  0.33363407  0.12500000  1
  Mg  Mg3  1  0.66704971  0.33409841  0.62500000  1
  Mg  Mg4  1  0.66681753  0.83318247  0.12500000  1
  Mg  Mg5  1  0.66704971  0.83295029  0.62500000  1
  Mg  Mg6  1  0.33627739  0.16372261  0.36869841  1
  Mg  Mg7  1  0.33627739  0.16372261  0.88130159  1
  Mg  Mg8  1  0.33627739  0.67255578  0.36869841  1
  Mg  Mg9  1  0.33627739  0.67255578  0.88130159  1
  Mg  Mg10  1  0.82744422  0.16372261  0.36869841  1
  Mg  Mg11  1  0.82744422  0.16372261  0.88130159  1
  Mg  Mg12  1  0.83333300  0.66666700  0.37467968  1
  Mg  Mg13  1  0.83333300  0.66666700  0.87532032  1
  Cd  Cd0  1  0.16666700  0.33333300  0.12500000  1
  Bi  Bi0  1  0.16666700  0.33333300  0.62500000  1
loop_
_geom_bond_atom_site_label_1
_geom_bond_atom_site_label_2
_geom_bond_distance
_geom_bond_site_symmetry_2
Mg0 Mg9 3.137768 1_554
Mg0 Mg8 3.137768 1_555
Mg0 Mg7 3.137774 1_564
Mg0 Mg6 3.137774 1_565
Mg0 Mg13 3.196504 1_454
Mg0 Mg12 3.196504 1_455
Mg0 Mg2 3.201605 1_455
Mg0 Mg4 3.201605 1_455
Mg0 Mg2 3.207393 1_565
Mg0 Mg4 3.207394 1_555
Mg1 Mg3 3.197141 1_455
Mg1 Mg5 3.197141 1_455
Mg1 Mg12 3.200478 1_455
Mg1 Mg13 3.200478 1_455
Mg1 Mg3 3.211857 1_565
Mg1 Mg5 3.211857 1_555
Mg1 Mg8 3.246215 1_555
Mg1 Mg9 3.246215 1_555
Mg1 Mg7 3.246221 1_565
Mg1 Mg6 3.246221 1_565
Mg2 Mg7 3.137774 1_554
Mg2 Mg6 3.137774 1_555
Mg2 Mg4 3.201605 1_555
Mg2 Mg4 3.207393 1_545
Mg3 Mg5 3.197141 1_555
Mg3 Mg5 3.211857 1_545
Mg3 Mg6 3.246221 1_555
Mg3 Mg7 3.246221 1_555
Mg4 Mg8 3.137774 1_555
Mg4 Mg9 3.137774 1_554
Mg5 Mg9 3.246222 1_555
Mg5 Mg8 3.246222 1_555
Mg6 Mg8 3.147887 1_545
Mg6 Mg8 3.261111 1_555
Mg7 Mg9 3.147887 1_545
Mg7 Mg9 3.261111 1_555
Mg10 Mg2 3.137768 1_555
Mg10 Mg4 3.137774 1_545
Mg10 Mg8 3.147887 1_545
Mg10 Mg6 3.147887 1_555
Mg10 Mg12 3.205274 1_555
Mg10 Mg12 3.205275 1_545
Mg10 Mg3 3.246215 1_555
Mg10 Mg5 3.246222 1_545
Mg10 Mg8 3.261111 1_655
Mg10 Mg6 3.261111 1_655
Mg11 Mg2 3.137768 1_556
Mg11 Mg4 3.137774 1_546
Mg11 Mg9 3.147887 1_545
Mg11 Mg7 3.147887 1_555
Mg11 Mg13 3.205274 1_555
Mg11 Mg13 3.205275 1_545
Mg11 Mg3 3.246215 1_555
Mg11 Mg5 3.246222 1_545
Mg11 Mg9 3.261111 1_655
Mg11 Mg7 3.261111 1_655
Mg12 Mg4 3.196497 1_555
Mg12 Mg2 3.196504 1_555
Mg12 Mg5 3.200472 1_555
Mg12 Mg3 3.200478 1_555
Mg12 Mg6 3.205274 1_555
Mg12 Mg6 3.205275 1_665
Mg12 Mg8 3.205275 1_655
Mg12 Mg8 3.205275 1_555
Mg13 Mg4 3.196497 1_556
Mg13 Mg2 3.196504 1_556
Mg13 Mg5 3.200472 1_555
Mg13 Mg3 3.200478 1_555
Mg13 Mg7 3.205274 1_555
Mg13 Mg7 3.205275 1_665
Mg13 Mg9 3.205275 1_655
Mg13 Mg9 3.205275 1_555
Cd0 Mg6 3.166046 1_555
Cd0 Mg7 3.166046 1_554
Cd0 Mg8 3.166053 1_555
Cd0 Mg9 3.166053 1_554
Cd0 Mg11 3.166053 1_454
Cd0 Mg10 3.166053 1_455
Cd0 Mg0 3.204499 1_545
Cd0 Mg4 3.204499 1_445
Cd0 Mg4 3.204499 1_555
Cd0 Mg0 3.204499 1_555
Cd0 Mg2 3.204500 1_555
Cd0 Mg2 3.204500 1_455
Bi0 Mg1 3.204502 1_555
Bi0 Mg5 3.204502 1_445
Bi0 Mg5 3.204502 1_555
Bi0 Mg1 3.204502 1_545
Bi0 Mg3 3.204502 1_455
Bi0 Mg3 3.204502 1_555
Bi0 Mg6 3.272814 1_555
Bi0 Mg7 3.272814 1_555
Bi0 Mg9 3.272820 1_555
Bi0 Mg8 3.272820 1_555
Bi0 Mg10 3.272820 1_455
Bi0 Mg11 3.272820 1_455
