# generated using pymatgen
data_Ba3(NbN2)2
_symmetry_space_group_name_H-M   'P 1'
_cell_length_a   6.37642600
_cell_length_b   11.12783900
_cell_length_c   10.55657900
_cell_angle_alpha   90.00000000
_cell_angle_beta   90.00000000
_cell_angle_gamma   90.00000000
_symmetry_Int_Tables_number   1
_chemical_formula_structural   Ba3(NbN2)2
_chemical_formula_sum   'Ba12 Nb8 N16'
_cell_volume   749.05095078
_cell_formula_units_Z   4
loop_
 _symmetry_equiv_pos_site_id
 _symmetry_equiv_pos_as_xyz
  1  'x, y, z'
loop_
 _atom_site_type_symbol
 _atom_site_label
 _atom_site_symmetry_multiplicity
 _atom_site_fract_x
 _atom_site_fract_y
 _atom_site_fract_z
 _atom_site_occupancy
  Ba  Ba0  1  0.61909200  0.15866600  0.41972800  1
  Ba  Ba1  1  0.88090800  0.84133400  0.41972800  1
  Ba  Ba2  1  0.61909200  0.34133400  0.08027200  1
  Ba  Ba3  1  0.88090800  0.65866600  0.08027200  1
  Ba  Ba4  1  0.38090800  0.84133400  0.58027200  1
  Ba  Ba5  1  0.11909200  0.15866600  0.58027200  1
  Ba  Ba6  1  0.38090800  0.65866600  0.91972800  1
  Ba  Ba7  1  0.11909200  0.34133400  0.91972800  1
  Ba  Ba8  1  0.75000000  0.50000000  0.40273100  1
  Ba  Ba9  1  0.75000000  0.00000000  0.09726900  1
  Ba  Ba10  1  0.25000000  0.50000000  0.59726900  1
  Ba  Ba11  1  0.25000000  0.00000000  0.90273100  1
  Nb  Nb0  1  0.75000000  0.50000000  0.73639400  1
  Nb  Nb1  1  0.75000000  0.00000000  0.76360600  1
  Nb  Nb2  1  0.25000000  0.50000000  0.26360600  1
  Nb  Nb3  1  0.25000000  0.00000000  0.23639400  1
  Nb  Nb4  1  0.63699500  0.25000000  0.75000000  1
  Nb  Nb5  1  0.86300500  0.75000000  0.75000000  1
  Nb  Nb6  1  0.36300500  0.75000000  0.25000000  1
  Nb  Nb7  1  0.13699500  0.25000000  0.25000000  1
  N  N0  1  0.83501600  0.35057000  0.63763900  1
  N  N1  1  0.66498400  0.64943000  0.63763900  1
  N  N2  1  0.83501600  0.14943000  0.86236100  1
  N  N3  1  0.66498400  0.85057000  0.86236100  1
  N  N4  1  0.16498400  0.64943000  0.36236100  1
  N  N5  1  0.33501600  0.35057000  0.36236100  1
  N  N6  1  0.16498400  0.85057000  0.13763900  1
  N  N7  1  0.33501600  0.14943000  0.13763900  1
  N  N8  1  0.51920200  0.41433200  0.83139100  1
  N  N9  1  0.98079800  0.58566800  0.83139100  1
  N  N10  1  0.51920200  0.08566800  0.66860900  1
  N  N11  1  0.98079800  0.91433200  0.66860900  1
  N  N12  1  0.48079800  0.58566800  0.16860900  1
  N  N13  1  0.01920200  0.41433200  0.16860900  1
  N  N14  1  0.48079800  0.91433200  0.33139100  1
  N  N15  1  0.01920200  0.08566800  0.33139100  1
loop_
_geom_bond_atom_site_label_1
_geom_bond_atom_site_label_2
_geom_bond_distance
_geom_bond_site_symmetry_2
Ba0 N10 2.822838 1_555
Ba0 N15 2.835218 1_655
Ba0 N5 2.864986 1_555
Ba0 N14 3.006610 1_545
Ba1 N11 2.822838 1_555
Ba1 N14 2.835218 1_555
Ba1 N4 2.864986 1_655
Ba1 N15 3.006610 1_665
Ba2 N8 2.822838 1_554
Ba2 N13 2.835218 1_655
Ba2 N7 2.864986 1_555
Ba2 N12 3.006610 1_555
Ba3 N9 2.822838 1_554
Ba3 N12 2.835218 1_555
Ba3 N6 2.864986 1_655
Ba3 N13 3.006610 1_655
Ba4 N14 2.822838 1_555
Ba4 N11 2.835218 1_455
Ba4 N1 2.864986 1_555
Ba4 N10 3.006610 1_565
Ba5 N15 2.822838 1_555
Ba5 N10 2.835218 1_555
Ba5 N0 2.864986 1_455
Ba5 N11 3.006610 1_445
Ba6 N12 2.822838 1_556
Ba6 N9 2.835218 1_455
Ba6 N3 2.864986 1_555
Ba6 N8 3.006610 1_555
Ba7 N13 2.822838 1_556
Ba7 N8 2.835218 1_555
Ba7 N2 2.864986 1_455
Ba7 N9 3.006610 1_455
Ba8 N1 3.034537 1_555
Ba8 N0 3.034537 1_555
Ba8 N4 3.154133 1_655
Ba8 N5 3.154133 1_555
Ba8 N12 3.156542 1_555
Ba8 N13 3.156542 1_655
Ba9 N3 3.034537 1_544
Ba9 N2 3.034537 1_554
Ba9 N6 3.154133 1_645
Ba9 N7 3.154133 1_555
Ba9 N14 3.156542 1_545
Ba9 N15 3.156542 1_655
Ba10 N4 3.034537 1_555
Ba10 N5 3.034537 1_555
Ba10 N1 3.154133 1_555
Ba10 N0 3.154133 1_455
Ba10 N9 3.156542 1_455
Ba10 N8 3.156542 1_555
Ba11 N6 3.034537 1_546
Ba11 N7 3.034537 1_556
Ba11 N3 3.154133 1_545
Ba11 N2 3.154133 1_455
Ba11 N10 3.156542 1_555
Ba11 N11 3.156542 1_445
N0 Nb0 2.036104 1_555
N0 Nb4 2.062454 1_555
N1 Nb0 2.036104 1_555
N1 Nb5 2.062454 1_555
N2 Nb1 2.036104 1_555
N2 Nb4 2.062454 1_555
N3 Nb1 2.036104 1_565
N3 Nb5 2.062454 1_555
N4 Nb2 2.036104 1_555
N4 Nb6 2.062454 1_555
N5 Nb2 2.036104 1_555
N5 Nb7 2.062454 1_555
N6 Nb3 2.036104 1_565
N6 Nb6 2.062454 1_555
N7 Nb3 2.036104 1_555
N7 Nb7 2.062454 1_555
N8 Nb0 2.019970 1_555
N8 Nb4 2.155548 1_555
N9 Nb0 2.019970 1_555
N9 Nb5 2.155548 1_555
N10 Nb1 2.019970 1_555
N10 Nb4 2.155548 1_555
N11 Nb1 2.019970 1_565
N11 Nb5 2.155548 1_555
N12 Nb2 2.019970 1_555
N12 Nb6 2.155548 1_555
N13 Nb2 2.019970 1_555
N13 Nb7 2.155548 1_555
N14 Nb3 2.019970 1_565
N14 Nb6 2.155548 1_555
N15 Nb3 2.019970 1_555
N15 Nb7 2.155548 1_555
