# generated using pymatgen
data_NaTi2O4
_symmetry_space_group_name_H-M   'P 1'
_cell_length_a   6.76100747
_cell_length_b   6.76100747
_cell_length_c   6.76100747
_cell_angle_alpha   150.85659980
_cell_angle_beta   144.71441048
_cell_angle_gamma   46.39470334
_symmetry_Int_Tables_number   1
_chemical_formula_structural   NaTi2O4
_chemical_formula_sum   'Na1 Ti2 O4'
_cell_volume   86.64386240
_cell_formula_units_Z   1
loop_
 _symmetry_equiv_pos_site_id
 _symmetry_equiv_pos_as_xyz
  1  'x, y, z'
loop_
 _atom_site_type_symbol
 _atom_site_label
 _atom_site_symmetry_multiplicity
 _atom_site_fract_x
 _atom_site_fract_y
 _atom_site_fract_z
 _atom_site_occupancy
  Na  Na0  1  0.21963700  0.71963700  0.50000000  1
  Ti  Ti0  1  0.91086200  0.91086200  0.00000000  1
  Ti  Ti1  1  0.56715500  0.06715500  0.50000000  1
  O  O0  1  0.41431000  0.91431000  0.50000000  1
  O  O1  1  0.63365600  0.63365600  0.00000000  1
  O  O2  1  0.84391300  0.34391300  0.50000000  1
  O  O3  1  0.06726700  0.06726700  0.00000000  1
loop_
_geom_bond_atom_site_label_1
_geom_bond_atom_site_label_2
_geom_bond_distance
_geom_bond_site_symmetry_2
Na0 O1 2.311052 1_455
Na0 O1 2.311052 1_556
Na0 O0 2.419553 1_555
Na0 O3 2.545551 1_566
Na0 O3 2.545551 1_555
O0 Ti1 1.899681 1_565
O0 Ti0 2.049586 1_556
O0 Ti0 2.049586 1_455
O1 Ti1 1.891187 1_565
O1 Ti1 1.891187 1_554
O2 Ti0 1.893627 1_545
O2 Ti0 1.893627 1_556
O3 Ti0 1.943928 1_445
O3 Ti1 2.049138 1_454
O3 Ti1 2.049138 1_555
