# generated using pymatgen
data_Na2PdF6
_symmetry_space_group_name_H-M   'P 1'
_cell_length_a   9.18354305
_cell_length_b   9.18363865
_cell_length_c   5.09194938
_cell_angle_alpha   89.99801595
_cell_angle_beta   90.00124549
_cell_angle_gamma   120.00702188
_symmetry_Int_Tables_number   1
_chemical_formula_structural   Na2PdF6
_chemical_formula_sum   'Na6 Pd3 F18'
_cell_volume   371.88531478
_cell_formula_units_Z   3
loop_
 _symmetry_equiv_pos_site_id
 _symmetry_equiv_pos_as_xyz
  1  'x, y, z'
loop_
 _atom_site_type_symbol
 _atom_site_label
 _atom_site_symmetry_multiplicity
 _atom_site_fract_x
 _atom_site_fract_y
 _atom_site_fract_z
 _atom_site_occupancy
  Na  Na0  1  0.29745409  -0.00001129  0.50008536  1
  Na  Na1  1  0.00000795  0.29746941  0.49992648  1
  Na  Na2  1  0.70256214  0.70256115  0.50000454  1
  Na  Na3  1  0.63126811  -0.00011623  0.00000009  1
  Na  Na4  1  -0.00006173  0.63130179  -0.00000088  1
  Na  Na5  1  0.36863683  0.36864746  0.00000486  1
  Pd  Pd0  1  0.33331800  0.66664598  0.49373926  1
  Pd  Pd1  1  0.66665405  0.33331707  0.50626817  1
  Pd  Pd2  1  0.00004691  0.00009276  -0.00005614  1
  F  F0  1  0.46800083  0.24837934  0.29279447  1
  F  F1  1  0.75158456  0.21958816  0.29279207  1
  F  F2  1  0.24838181  0.46798704  0.70723969  1
  F  F3  1  0.78039370  0.53198102  0.29280087  1
  F  F4  1  0.21959357  0.75158341  0.70726064  1
  F  F5  1  0.53201213  0.78039035  0.70724169  1
  F  F6  1  0.10733229  0.20046005  0.20931402  1
  F  F7  1  0.79961207  0.90686839  0.20925278  1
  F  F8  1  0.20048459  0.10734093  0.79066286  1
  F  F9  1  0.09317189  0.89277080  0.20921704  1
  F  F10  1  0.90685547  0.79960319  0.79070778  1
  F  F11  1  0.89272798  0.09320468  0.79072820  1
  F  F12  1  0.13585973  0.54798247  0.27947883  1
  F  F13  1  0.45198340  0.58786723  0.27949710  1
  F  F14  1  0.54799959  0.13587441  0.72053947  1
  F  F15  1  0.41213136  0.86416094  0.27954302  1
  F  F16  1  0.58786896  0.45193908  0.72048454  1
  F  F17  1  0.86412072  0.41211139  0.72047318  1
loop_
_geom_bond_atom_site_label_1
_geom_bond_atom_site_label_2
_geom_bond_distance
_geom_bond_site_symmetry_2
F0 Pd1 1.922201 1_555
F0 Na0 2.279717 1_555
F0 Na5 2.298522 1_555
F1 Pd1 1.922424 1_555
F1 Na1 2.279620 1_655
F1 Na3 2.298895 1_555
F2 Pd0 1.922314 1_555
F2 Na1 2.279629 1_555
F2 Na5 2.298216 1_556
F3 Pd1 1.922235 1_555
F3 Na2 2.279965 1_555
F3 Na4 2.297939 1_655
F4 Pd0 1.922562 1_555
F4 Na0 2.279616 1_565
F4 Na4 2.298378 1_556
F5 Pd0 1.922536 1_555
F5 Na2 2.279782 1_555
F5 Na3 2.297541 1_566
F6 Pd2 1.918335 1_555
F6 Na1 2.198484 1_555
F6 Na5 2.360695 1_555
F7 Pd2 1.918556 1_665
F7 Na2 2.198613 1_555
F7 Na3 2.361324 1_565
F8 Pd2 1.918492 1_556
F8 Na0 2.198302 1_555
F8 Na5 2.360774 1_556
F9 Pd2 1.918674 1_565
F9 Na0 2.198866 1_565
F9 Na4 2.361713 1_555
F10 Pd2 1.918764 1_666
F10 Na2 2.198376 1_555
F10 Na4 2.361516 1_656
F11 Pd2 1.918407 1_656
F11 Na1 2.198536 1_655
F11 Na3 2.361609 1_556
F12 Pd0 1.920835 1_555
F12 Na4 2.263619 1_555
F12 Na1 2.288757 1_555
F13 Pd0 1.920883 1_555
F13 Na5 2.263454 1_555
F13 Na2 2.289383 1_555
F14 Pd1 1.920754 1_555
F14 Na3 2.263730 1_556
F14 Na0 2.289010 1_555
F15 Pd0 1.921051 1_555
F15 Na3 2.262909 1_565
F15 Na0 2.289175 1_565
F16 Pd1 1.920552 1_555
F16 Na5 2.263641 1_556
F16 Na2 2.289621 1_555
F17 Pd1 1.920761 1_555
F17 Na4 2.263288 1_656
F17 Na1 2.289368 1_655
