# generated using pymatgen
data_Mg3Si4
_symmetry_space_group_name_H-M   'P 1'
_cell_length_a   4.06486600
_cell_length_b   7.51260400
_cell_length_c   8.89221461
_cell_angle_alpha   76.19634214
_cell_angle_beta   90.00000000
_cell_angle_gamma   90.00000000
_symmetry_Int_Tables_number   1
_chemical_formula_structural   Mg3Si4
_chemical_formula_sum   'Mg6 Si8'
_cell_volume   263.70547076
_cell_formula_units_Z   2
loop_
 _symmetry_equiv_pos_site_id
 _symmetry_equiv_pos_as_xyz
  1  'x, y, z'
loop_
 _atom_site_type_symbol
 _atom_site_label
 _atom_site_symmetry_multiplicity
 _atom_site_fract_x
 _atom_site_fract_y
 _atom_site_fract_z
 _atom_site_occupancy
  Mg  Mg0  1  0.00000000  0.65938700  0.66186600  1
  Mg  Mg1  1  0.50000000  0.10642700  0.97067400  1
  Mg  Mg2  1  0.50000000  0.37608100  0.22063700  1
  Mg  Mg3  1  0.00000000  0.76172100  0.08435100  1
  Mg  Mg4  1  0.50000000  0.96016600  0.46829900  1
  Mg  Mg5  1  0.50000000  0.32279900  0.61700900  1
  Si  Si0  1  0.00000000  0.19614200  0.43524700  1
  Si  Si1  1  0.00000000  0.52066800  0.41467300  1
  Si  Si2  1  0.50000000  0.49404300  0.85162400  1
  Si  Si3  1  0.00000000  0.42900400  0.00206400  1
  Si  Si4  1  0.00000000  0.11813500  0.17476400  1
  Si  Si5  1  0.50000000  0.83695200  0.80919200  1
  Si  Si6  1  0.50000000  0.69354600  0.32154600  1
  Si  Si7  1  0.00000000  0.02505700  0.72132200  1
loop_
_geom_bond_atom_site_label_1
_geom_bond_atom_site_label_2
_geom_bond_distance
_geom_bond_site_symmetry_2
Mg0 Si1 2.647788 1_555
Mg0 Si2 2.742404 1_455
Mg0 Si2 2.742404 1_555
Mg0 Si5 2.908685 1_455
Mg0 Si5 2.908685 1_555
Mg0 Si7 2.918790 1_565
Mg0 Si3 3.106191 1_556
Mg1 Si4 2.740116 1_556
Mg1 Si4 2.740116 1_656
Mg1 Si5 2.747276 1_545
Mg1 Si2 2.851212 1_555
Mg1 Si7 3.172957 1_655
Mg1 Si7 3.172957 1_555
Mg1 Si3 3.225573 1_656
Mg1 Si3 3.225573 1_556
Mg2 Si6 2.741267 1_555
Mg2 Si3 2.774470 1_555
Mg2 Si3 2.774470 1_655
Mg2 Si0 2.892919 1_555
Mg2 Si0 2.892919 1_655
Mg2 Si4 2.903383 1_655
Mg2 Si4 2.903383 1_555
Mg2 Si1 3.030190 1_655
Mg2 Si1 3.030190 1_555
Mg3 Si3 2.766953 1_555
Mg3 Si6 2.885531 1_455
Mg3 Si6 2.885531 1_555
Mg3 Si4 2.973744 1_565
Mg3 Si1 3.060864 1_555
Mg3 Si5 3.126822 1_554
Mg3 Si5 3.126822 1_454
Mg4 Si6 2.638612 1_555
Mg4 Si0 2.666708 1_565
Mg4 Si0 2.666708 1_665
Mg4 Si5 2.950697 1_555
Mg4 Si7 3.155004 1_665
Mg4 Si7 3.155004 1_565
Mg5 Si2 2.699672 1_555
Mg5 Si1 2.881215 1_655
Mg5 Si1 2.881215 1_555
Mg5 Si0 2.895234 1_555
Mg5 Si0 2.895234 1_655
Mg5 Si7 3.000741 1_655
Mg5 Si7 3.000741 1_555
Si0 Si1 2.400967 1_555
Si0 Si4 2.521169 1_555
Si0 Si7 2.561814 1_555
Si1 Si6 2.447469 1_555
Si1 Si6 2.447469 1_455
Si2 Si3 2.418094 1_656
Si2 Si3 2.418094 1_556
Si2 Si5 2.512971 1_555
Si3 Si4 2.470050 1_555
Si5 Si7 2.492271 1_665
Si5 Si7 2.492271 1_565
