# generated using pymatgen
data_Li9Mn2Co5O16
_symmetry_space_group_name_H-M   'P 1'
_cell_length_a   5.79543400
_cell_length_b   6.58084118
_cell_length_c   7.74226282
_cell_angle_alpha   86.14461811
_cell_angle_beta   80.14535046
_cell_angle_gamma   77.42264150
_symmetry_Int_Tables_number   1
_chemical_formula_structural   Li9Mn2Co5O16
_chemical_formula_sum   'Li9 Mn2 Co5 O16'
_cell_volume   283.80474339
_cell_formula_units_Z   1
loop_
 _symmetry_equiv_pos_site_id
 _symmetry_equiv_pos_as_xyz
  1  'x, y, z'
loop_
 _atom_site_type_symbol
 _atom_site_label
 _atom_site_symmetry_multiplicity
 _atom_site_fract_x
 _atom_site_fract_y
 _atom_site_fract_z
 _atom_site_occupancy
  Li  Li0  1  0.81261400  0.61785500  0.12634400  1
  Li  Li1  1  0.93821600  0.87082900  0.38261800  1
  Li  Li2  1  0.68758200  0.37996700  0.87048500  1
  Li  Li3  1  0.55741700  0.13417700  0.61990900  1
  Li  Li4  1  0.43488700  0.87137400  0.38173600  1
  Li  Li5  1  0.31710100  0.61732100  0.13063200  1
  Li  Li6  1  0.18994100  0.38195500  0.86214800  1
  Li  Li7  1  0.06438600  0.13118800  0.62531700  1
  Li  Li8  1  0.25395600  0.49766400  0.49891600  1
  Mn  Mn0  1  0.99671700  0.00019400  0.00181600  1
  Mn  Mn1  1  0.12717600  0.25624600  0.25593400  1
  Co  Co0  1  0.37509100  0.73715500  0.74315000  1
  Co  Co1  1  0.49917000  0.00136000  0.99572000  1
  Co  Co2  1  0.62411000  0.25067500  0.25210900  1
  Co  Co3  1  0.74669700  0.49979700  0.50003300  1
  Co  Co4  1  0.88127300  0.74297100  0.74011800  1
  O  O0  1  0.71996200  0.95823400  0.17214500  1
  O  O1  1  0.85191200  0.19291000  0.41822200  1
  O  O2  1  0.59288100  0.70293800  0.92508500  1
  O  O3  1  0.47397800  0.44505900  0.68884700  1
  O  O4  1  0.35010100  0.18919900  0.41403900  1
  O  O5  1  0.20577900  0.95589100  0.17842200  1
  O  O6  1  0.08556500  0.71050600  0.93748600  1
  O  O7  1  0.95518900  0.44670200  0.68179300  1
  O  O8  1  0.90669900  0.29019600  0.07772400  1
  O  O9  1  0.03643600  0.53871400  0.30953100  1
  O  O10  1  0.78825800  0.05543200  0.82874000  1
  O  O11  1  0.65370900  0.80666100  0.56458800  1
  O  O12  1  0.55153300  0.53783400  0.31656200  1
  O  O13  1  0.40026300  0.30369300  0.08429700  1
  O  O14  1  0.26875900  0.06019400  0.83516100  1
  O  O15  1  0.15264400  0.81510700  0.58037600  1
loop_
_geom_bond_atom_site_label_1
_geom_bond_atom_site_label_2
_geom_bond_distance
_geom_bond_site_symmetry_2
Li0 O9 2.049765 1_655
Li0 O12 2.053188 1_555
Li0 O6 2.126146 1_654
Li0 O2 2.148144 1_554
Li0 O8 2.148340 1_555
Li0 O0 2.224723 1_555
Li1 O11 2.076045 1_555
Li1 O1 2.094845 1_565
Li1 O15 2.097702 1_655
Li1 O5 2.153395 1_655
Li1 O0 2.201996 1_555
Li1 O9 2.221549 1_655
Li2 O3 1.994381 1_555
Li2 O7 2.041373 1_555
Li2 O10 2.119371 1_555
Li2 O2 2.128546 1_555
Li2 O8 2.186152 1_556
Li2 O13 2.252485 1_556
Li3 O3 2.081324 1_555
Li3 O4 2.122176 1_555
Li3 O11 2.158429 1_545
Li3 O1 2.189638 1_555
Li3 O10 2.235673 1_555
Li3 O14 2.259265 1_555
Li4 O11 2.022880 1_555
Li4 O4 2.063804 1_565
Li4 O15 2.122266 1_555
Li4 O5 2.196870 1_555
Li4 O12 2.217086 1_555
Li4 O0 2.249077 1_555
Li5 O13 2.056204 1_555
Li5 O9 2.081039 1_555
Li5 O12 2.109600 1_555
Li5 O6 2.148946 1_554
Li5 O2 2.192131 1_554
Li5 O5 2.218235 1_555
Li6 O3 2.036957 1_555
Li6 O7 2.073667 1_455
Li6 O14 2.083632 1_555
Li6 O6 2.204587 1_555
Li6 O13 2.243714 1_556
Li6 O8 2.281064 1_456
Li7 O15 2.069411 1_545
Li7 O7 2.087583 1_455
Li7 O14 2.139231 1_555
Li7 O1 2.150008 1_455
Li7 O10 2.160803 1_455
Li7 O4 2.197154 1_555
Li8 O9 2.059907 1_555
Li8 O3 2.071054 1_555
Li8 O12 2.086212 1_555
Li8 O4 2.103445 1_555
Li8 O7 2.113080 1_455
Li8 O15 2.150077 1_555
Mn0 O10 1.919542 1_554
Mn0 O6 1.939049 1_644
Mn0 O5 1.944788 1_645
Mn0 O0 1.951347 1_545
Mn0 O14 1.952613 1_654
Mn0 O8 1.967748 1_555
Mn1 O9 1.872823 1_555
Mn1 O4 1.892788 1_555
Mn1 O13 1.951330 1_555
Mn1 O1 1.957141 1_455
Mn1 O8 2.005985 1_455
Mn1 O5 2.036751 1_545
Co0 O15 1.922109 1_555
Co0 O3 1.935620 1_555
Co0 O2 2.017445 1_555
Co0 O11 2.049455 1_555
Co0 O6 2.082912 1_555
Co0 O14 2.211196 1_565
Co1 O14 1.938194 1_555
Co1 O0 1.992896 1_546
Co1 O2 2.007251 1_545
Co1 O10 2.015259 1_555
Co1 O13 2.075968 1_556
Co1 O5 2.079163 1_546
Co2 O12 1.925064 1_555
Co2 O4 1.946100 1_555
Co2 O13 1.952329 1_555
Co2 O1 1.959176 1_555
Co2 O8 1.988482 1_555
Co2 O0 1.993115 1_545
Co3 O12 1.933534 1_555
Co3 O7 1.973430 1_555
Co3 O3 2.037421 1_555
Co3 O11 2.046427 1_555
Co3 O9 2.085499 1_655
Co3 O1 2.086909 1_555
Co4 O15 1.951607 1_655
Co4 O7 1.969057 1_555
Co4 O11 2.014456 1_555
Co4 O2 2.058006 1_555
Co4 O6 2.060979 1_655
Co4 O10 2.137741 1_565
