# generated using pymatgen
data_Ba3(OsN2)2
_symmetry_space_group_name_H-M   'P 1'
_cell_length_a   7.86137652
_cell_length_b   9.67330221
_cell_length_c   5.67287849
_cell_angle_alpha   89.99999804
_cell_angle_beta   95.27369270
_cell_angle_gamma   127.96952244
_symmetry_Int_Tables_number   1
_chemical_formula_structural   Ba3(OsN2)2
_chemical_formula_sum   'Ba6 Os4 N8'
_cell_volume   337.76708422
_cell_formula_units_Z   2
loop_
 _symmetry_equiv_pos_site_id
 _symmetry_equiv_pos_as_xyz
  1  'x, y, z'
loop_
 _atom_site_type_symbol
 _atom_site_label
 _atom_site_symmetry_multiplicity
 _atom_site_fract_x
 _atom_site_fract_y
 _atom_site_fract_z
 _atom_site_occupancy
  Ba  Ba0  1  0.25308000  0.99436900  0.03701600  1
  Ba  Ba1  1  0.74692000  0.74128900  0.46298400  1
  Ba  Ba2  1  0.74692000  0.00563100  0.96298400  1
  Ba  Ba3  1  0.25308000  0.25871100  0.53701600  1
  Ba  Ba4  1  0.00000000  0.59319200  0.75000000  1
  Ba  Ba5  1  0.00000000  0.40680800  0.25000000  1
  Os  Os0  1  0.57882500  0.15803100  0.56704300  1
  Os  Os1  1  0.42117500  0.57920800  0.93295700  1
  Os  Os2  1  0.42117500  0.84196900  0.43295700  1
  Os  Os3  1  0.57882500  0.42079200  0.06704300  1
  N  N0  1  0.26113100  0.92981700  0.54270400  1
  N  N1  1  0.73886900  0.66868600  0.95729600  1
  N  N2  1  0.73886900  0.07018300  0.45729600  1
  N  N3  1  0.26113100  0.33131400  0.04270400  1
  N  N4  1  0.63506000  0.27850800  0.88257200  1
  N  N5  1  0.36494000  0.64344800  0.61742800  1
  N  N6  1  0.36494000  0.72149200  0.11742800  1
  N  N7  1  0.63506000  0.35655200  0.38257200  1
loop_
_geom_bond_atom_site_label_1
_geom_bond_atom_site_label_2
_geom_bond_distance
_geom_bond_site_symmetry_2
Ba0 N4 2.768978 1_564
Ba0 N0 2.887656 1_554
Ba0 N0 2.939158 1_555
Ba0 N3 3.220921 1_565
Ba0 N1 3.234827 1_454
Ba0 N6 3.275892 1_555
Ba0 N7 3.332727 1_565
Ba1 N5 2.768978 1_555
Ba1 N1 2.887656 1_555
Ba1 N1 2.939158 1_554
Ba1 N2 3.220921 1_565
Ba1 N0 3.234827 1_655
Ba1 N7 3.275892 1_555
Ba1 N6 3.332727 1_555
Ba2 N6 2.768978 1_546
Ba2 N2 2.887656 1_556
Ba2 N2 2.939158 1_555
Ba2 N1 3.220921 1_545
Ba2 N3 3.234827 1_656
Ba2 N4 3.275892 1_555
Ba2 N5 3.332727 1_545
Ba3 N7 2.768978 1_555
Ba3 N3 2.887656 1_555
Ba3 N3 2.939158 1_556
Ba3 N0 3.220921 1_545
Ba3 N2 3.234827 1_455
Ba3 N5 3.275892 1_555
Ba3 N4 3.332727 1_555
Ba4 N5 2.777258 1_555
Ba4 N4 2.777258 1_455
Ba4 N1 2.901523 1_455
Ba4 N0 2.901523 1_555
Ba4 N6 2.938563 1_556
Ba4 N7 2.938564 1_455
Ba5 N7 2.777258 1_455
Ba5 N6 2.777258 1_555
Ba5 N3 2.901523 1_555
Ba5 N2 2.901523 1_455
Ba5 N4 2.938563 1_454
Ba5 N5 2.938564 1_555
N0 Os2 2.037719 1_555
N0 Os0 2.069403 1_565
N1 Os3 2.037735 1_556
N1 Os1 2.069409 1_555
N2 Os0 2.037719 1_555
N2 Os2 2.069403 1_545
N3 Os1 2.037735 1_554
N3 Os3 2.069409 1_555
N4 Os0 1.994529 1_555
N4 Os3 2.004662 1_556
N5 Os1 1.994520 1_555
N5 Os2 2.004678 1_555
N6 Os2 1.994529 1_555
N6 Os1 2.004662 1_554
N7 Os3 1.994520 1_555
N7 Os0 2.004678 1_555
