# generated using pymatgen
data_Zr6FeI14
_symmetry_space_group_name_H-M   'P 1'
_cell_length_a   11.09911838
_cell_length_b   11.09911838
_cell_length_c   13.36965300
_cell_angle_alpha   90.00000000
_cell_angle_beta   90.00000000
_cell_angle_gamma   94.69052952
_symmetry_Int_Tables_number   1
_chemical_formula_structural   Zr6FeI14
_chemical_formula_sum   'Zr12 Fe2 I28'
_cell_volume   1641.49730256
_cell_formula_units_Z   2
loop_
 _symmetry_equiv_pos_site_id
 _symmetry_equiv_pos_as_xyz
  1  'x, y, z'
loop_
 _atom_site_type_symbol
 _atom_site_label
 _atom_site_symmetry_multiplicity
 _atom_site_fract_x
 _atom_site_fract_y
 _atom_site_fract_z
 _atom_site_occupancy
  Zr  Zr0  1  0.95475200  0.17515700  0.11200600  1
  Zr  Zr1  1  0.04524800  0.82484300  0.88799400  1
  Zr  Zr2  1  0.54524800  0.32484300  0.61200600  1
  Zr  Zr3  1  0.67515700  0.45475200  0.38799400  1
  Zr  Zr4  1  0.45475200  0.67515700  0.38799400  1
  Zr  Zr5  1  0.32484300  0.54524800  0.61200600  1
  Zr  Zr6  1  0.82484300  0.04524800  0.88799400  1
  Zr  Zr7  1  0.17515700  0.95475200  0.11200600  1
  Zr  Zr8  1  0.36326800  0.36326800  0.39977300  1
  Zr  Zr9  1  0.63673200  0.63673200  0.60022700  1
  Zr  Zr10  1  0.13673200  0.13673200  0.89977300  1
  Zr  Zr11  1  0.86326800  0.86326800  0.10022700  1
  Fe  Fe0  1  0.00000000  0.00000000  0.00000000  1
  Fe  Fe1  1  0.50000000  0.50000000  0.50000000  1
  I  I0  1  0.28683900  0.53481000  0.25450000  1
  I  I1  1  0.71316100  0.46519000  0.74550000  1
  I  I2  1  0.21316100  0.96519000  0.75450000  1
  I  I3  1  0.03481000  0.78683900  0.24550000  1
  I  I4  1  0.78683900  0.03481000  0.24550000  1
  I  I5  1  0.96519000  0.21316100  0.75450000  1
  I  I6  1  0.46519000  0.71316100  0.74550000  1
  I  I7  1  0.53481000  0.28683900  0.25450000  1
  I  I8  1  0.11368100  0.36031800  0.00962400  1
  I  I9  1  0.88631900  0.63968200  0.99037600  1
  I  I10  1  0.38631900  0.13968200  0.50962400  1
  I  I11  1  0.86031800  0.61368100  0.49037600  1
  I  I12  1  0.61368100  0.86031800  0.49037600  1
  I  I13  1  0.13968200  0.38631900  0.50962400  1
  I  I14  1  0.63968200  0.88631900  0.99037600  1
  I  I15  1  0.36031800  0.11368100  0.00962400  1
  I  I16  1  0.89679700  0.39679700  0.25000000  1
  I  I17  1  0.10320300  0.60320300  0.75000000  1
  I  I18  1  0.60320300  0.10320300  0.75000000  1
  I  I19  1  0.39679700  0.89679700  0.25000000  1
  I  I20  1  0.74956800  0.25043200  0.00000000  1
  I  I21  1  0.25043200  0.74956800  0.00000000  1
  I  I22  1  0.75043200  0.24956800  0.50000000  1
  I  I23  1  0.24956800  0.75043200  0.50000000  1
  I  I24  1  0.14992900  0.14992900  0.26112200  1
  I  I25  1  0.85007100  0.85007100  0.73887800  1
  I  I26  1  0.35007100  0.35007100  0.76112200  1
  I  I27  1  0.64992900  0.64992900  0.23887800  1
loop_
_geom_bond_atom_site_label_1
_geom_bond_atom_site_label_2
_geom_bond_distance
_geom_bond_site_symmetry_2
Fe0 Zr10 2.454624 1_554
Fe0 Zr11 2.454624 1_445
Fe0 Zr7 2.536499 1_545
Fe0 Zr0 2.536499 1_455
Fe0 Zr6 2.536499 1_454
Fe0 Zr1 2.536499 1_544
Fe1 Zr9 2.454624 1_555
Fe1 Zr8 2.454624 1_555
Fe1 Zr2 2.536499 1_555
Fe1 Zr5 2.536499 1_555
Fe1 Zr3 2.536499 1_555
Fe1 Zr4 2.536499 1_555
I0 Zr8 2.895025 1_555
I0 Zr4 2.934356 1_555
I1 Zr9 2.895025 1_555
I1 Zr2 2.934356 1_555
I2 Zr10 2.895025 1_565
I2 Zr1 2.934356 1_555
I3 Zr11 2.895025 1_455
I3 Zr7 2.934356 1_555
I4 Zr11 2.895025 1_545
I4 Zr0 2.934356 1_555
I5 Zr10 2.895025 1_655
I5 Zr6 2.934356 1_555
I6 Zr9 2.895025 1_555
I6 Zr5 2.934356 1_555
I7 Zr8 2.895025 1_555
I7 Zr3 2.934356 1_555
I8 Zr10 2.912844 1_554
I8 Zr0 2.935283 1_455
I9 Zr11 2.912844 1_556
I9 Zr1 2.935283 1_655
I10 Zr8 2.912844 1_555
I10 Zr2 2.935283 1_555
I11 Zr9 2.912844 1_555
I11 Zr3 2.935283 1_555
I12 Zr9 2.912844 1_555
I12 Zr4 2.935283 1_555
I13 Zr8 2.912844 1_555
I13 Zr5 2.935283 1_555
I14 Zr11 2.912844 1_556
I14 Zr6 2.935283 1_565
I15 Zr10 2.912844 1_554
I15 Zr7 2.935283 1_545
I16 Zr0 3.182449 1_555
I16 Zr3 3.182449 1_555
I17 Zr1 3.182449 1_555
I17 Zr5 3.182449 1_555
I18 Zr6 3.182449 1_555
I18 Zr2 3.182449 1_555
I19 Zr7 3.182449 1_555
I19 Zr4 3.182449 1_555
I20 Zr0 2.904831 1_555
I20 Zr6 2.904831 1_554
I21 Zr7 2.904831 1_555
I21 Zr1 2.904831 1_554
I22 Zr2 2.904831 1_555
I22 Zr3 2.904831 1_555
I23 Zr5 2.904831 1_555
I23 Zr4 2.904831 1_555
I24 Zr7 2.974053 1_545
I24 Zr0 2.974053 1_455
I24 Zr8 3.705798 1_555
I25 Zr1 2.974053 1_655
I25 Zr6 2.974053 1_565
I25 Zr9 3.705798 1_555
I26 Zr5 2.974053 1_555
I26 Zr2 2.974053 1_555
I26 Zr10 3.705798 1_555
I27 Zr4 2.974053 1_555
I27 Zr3 2.974053 1_555
I27 Zr11 3.705798 1_555
