# generated using pymatgen
data_Li4Co3O7
_symmetry_space_group_name_H-M   'P 1'
_cell_length_a   14.52875085
_cell_length_b   14.52875085
_cell_length_c   5.91719072
_cell_angle_alpha   83.62483654
_cell_angle_beta   83.62483654
_cell_angle_gamma   11.64478697
_symmetry_Int_Tables_number   1
_chemical_formula_structural   Li4Co3O7
_chemical_formula_sum   'Li8 Co6 O14'
_cell_volume   250.53298191
_cell_formula_units_Z   2
loop_
 _symmetry_equiv_pos_site_id
 _symmetry_equiv_pos_as_xyz
  1  'x, y, z'
loop_
 _atom_site_type_symbol
 _atom_site_label
 _atom_site_symmetry_multiplicity
 _atom_site_fract_x
 _atom_site_fract_y
 _atom_site_fract_z
 _atom_site_occupancy
  Li  Li0  1  0.50000000  0.50000000  0.50000000  1
  Li  Li1  1  0.35857800  0.35857800  0.07195300  1
  Li  Li2  1  0.21490500  0.21490500  0.64198600  1
  Li  Li3  1  0.92995800  0.92995800  0.78926900  1
  Li  Li4  1  0.78509500  0.78509500  0.35801400  1
  Li  Li5  1  0.64142200  0.64142200  0.92804700  1
  Li  Li6  1  0.07004200  0.07004200  0.21073100  1
  Li  Li7  1  0.50000000  0.50000000  0.00000000  1
  Co  Co0  1  0.06750800  0.06750800  0.72487800  1
  Co  Co1  1  0.93249200  0.93249200  0.27512200  1
  Co  Co2  1  0.78599400  0.78599400  0.85421900  1
  Co  Co3  1  0.64035700  0.64035700  0.42710200  1
  Co  Co4  1  0.35964300  0.35964300  0.57289800  1
  Co  Co5  1  0.21400600  0.21400600  0.14578100  1
  O  O0  1  0.57163900  0.57163900  0.47630000  1
  O  O1  1  0.42875900  0.42875900  0.05310300  1
  O  O2  1  0.28759900  0.28759900  0.61918400  1
  O  O3  1  0.00749900  0.00749900  0.74625600  1
  O  O4  1  0.86416300  0.86416300  0.33433700  1
  O  O5  1  0.71524000  0.71524000  0.90924100  1
  O  O6  1  0.14405400  0.14405400  0.19912700  1
  O  O7  1  0.42836100  0.42836100  0.52370000  1
  O  O8  1  0.28476000  0.28476000  0.09075900  1
  O  O9  1  0.13583700  0.13583700  0.66566300  1
  O  O10  1  0.85594600  0.85594600  0.80087300  1
  O  O11  1  0.71240100  0.71240100  0.38081600  1
  O  O12  1  0.57124100  0.57124100  0.94689700  1
  O  O13  1  0.99250100  0.99250100  0.25374400  1
loop_
_geom_bond_atom_site_label_1
_geom_bond_atom_site_label_2
_geom_bond_distance
_geom_bond_site_symmetry_2
Li0 O0 2.059978 1_555
Li0 O7 2.059978 1_555
Li0 O3 2.100731 1_655
Li0 O3 2.100731 1_565
Li0 O13 2.100731 1_455
Li0 O13 2.100731 1_545
Li1 O1 2.019359 1_555
Li1 O8 2.124361 1_555
Li1 O4 2.159817 1_455
Li1 O4 2.159817 1_545
Li1 O10 2.185920 1_454
Li1 O10 2.185920 1_544
Li2 O2 2.090654 1_555
Li2 O11 2.142602 1_455
Li2 O11 2.142602 1_545
Li2 O5 2.162552 1_545
Li2 O5 2.162552 1_455
Li2 O9 2.274294 1_555
Li3 O10 2.132937 1_555
Li3 O1 2.144441 1_656
Li3 O1 2.144441 1_566
Li3 O7 2.158701 1_565
Li3 O7 2.158701 1_655
Li3 O3 2.227522 1_665
Li4 O11 2.090654 1_555
Li4 O2 2.142602 1_655
Li4 O2 2.142602 1_565
Li4 O8 2.162552 1_655
Li4 O8 2.162552 1_565
Li4 O4 2.274294 1_555
Li5 O12 2.019359 1_555
Li5 O5 2.124361 1_555
Li5 O9 2.159817 1_565
Li5 O9 2.159817 1_655
Li5 O6 2.185920 1_566
Li5 O6 2.185920 1_656
Li6 O6 2.132937 1_555
Li6 O12 2.144441 1_454
Li6 O12 2.144441 1_544
Li6 O0 2.158701 1_545
Li6 O0 2.158701 1_455
Li6 O13 2.227522 1_445
Li7 O12 2.048276 1_554
Li7 O1 2.048276 1_555
Li7 O3 2.097853 1_564
Li7 O13 2.097853 1_545
Li7 O13 2.097853 1_455
Li7 O3 2.097853 1_654
Co0 O3 1.725183 1_555
Co0 O9 1.967180 1_555
Co0 O12 1.985314 1_545
Co0 O12 1.985314 1_455
Co0 O0 2.076257 1_545
Co0 O0 2.076257 1_455
Co1 O13 1.725183 1_555
Co1 O4 1.967180 1_555
Co1 O1 1.985314 1_565
Co1 O1 1.985314 1_655
Co1 O7 2.076257 1_655
Co1 O7 2.076257 1_565
Co2 O10 2.011522 1_555
Co2 O2 2.023418 1_565
Co2 O2 2.023418 1_655
Co2 O8 2.030135 1_566
Co2 O8 2.030135 1_656
Co2 O5 2.034875 1_555
Co3 O0 1.975280 1_555
Co3 O6 1.992802 1_565
Co3 O6 1.992802 1_655
Co3 O9 2.034906 1_655
Co3 O9 2.034906 1_565
Co3 O11 2.070021 1_555
Co4 O7 1.975280 1_555
Co4 O10 1.992802 1_545
Co4 O10 1.992802 1_455
Co4 O4 2.034906 1_455
Co4 O4 2.034906 1_545
Co4 O2 2.070021 1_555
Co5 O6 2.011522 1_555
Co5 O11 2.023418 1_455
Co5 O11 2.023418 1_545
Co5 O5 2.030135 1_454
Co5 O5 2.030135 1_544
Co5 O8 2.034875 1_555
