# generated using pymatgen
data_Ac3Yb
_symmetry_space_group_name_H-M   'P 1'
_cell_length_a   6.88492328
_cell_length_b   6.88492328
_cell_length_c   6.88492328
_cell_angle_alpha   132.40138986
_cell_angle_beta   132.40138986
_cell_angle_gamma   69.59580927
_symmetry_Int_Tables_number   1
_chemical_formula_structural   Ac3Yb
_chemical_formula_sum   'Ac3 Yb1'
_cell_volume   174.56256578
_cell_formula_units_Z   1
loop_
 _symmetry_equiv_pos_site_id
 _symmetry_equiv_pos_as_xyz
  1  'x, y, z'
loop_
 _atom_site_type_symbol
 _atom_site_label
 _atom_site_symmetry_multiplicity
 _atom_site_fract_x
 _atom_site_fract_y
 _atom_site_fract_z
 _atom_site_occupancy
  Ac  Ac0  1  0.75000000  0.25000000  0.50000000  1
  Ac  Ac1  1  0.25000000  0.75000000  0.50000000  1
  Ac  Ac2  1  0.50000000  0.50000000  0.00000000  1
  Yb  Yb0  1  0.00000000  0.00000000  0.00000000  1
loop_
_geom_bond_atom_site_label_1
_geom_bond_atom_site_label_2
_geom_bond_distance
_geom_bond_site_symmetry_2
Ac0 Ac1 3.929112 1_656
Ac0 Ac1 3.929112 1_544
Ac0 Ac1 3.929112 1_645
Ac0 Ac1 3.929112 1_555
Ac0 Yb0 3.963587 1_666
Ac0 Ac2 3.963587 1_656
Ac0 Yb0 3.963587 1_555
Ac0 Ac2 3.963587 1_545
Ac0 Ac2 3.963587 1_555
Ac0 Ac2 3.963587 1_556
Ac0 Yb0 3.963587 1_656
Ac0 Yb0 3.963587 1_655
Ac1 Ac2 3.963587 1_455
Ac1 Ac2 3.963587 1_566
Ac1 Yb0 3.963587 1_666
Ac1 Yb0 3.963587 1_555
Ac1 Ac2 3.963587 1_555
Ac1 Yb0 3.963587 1_566
Ac1 Ac2 3.963587 1_556
Ac1 Yb0 3.963587 1_565
Ac2 Yb0 3.929112 1_666
Ac2 Yb0 3.929112 1_554
Ac2 Yb0 3.929112 1_565
Ac2 Yb0 3.929112 1_655
