# generated using pymatgen
data_Rb2MnF4
_symmetry_space_group_name_H-M   'P 1'
_cell_length_a   7.51925493
_cell_length_b   7.51925493
_cell_length_c   7.51925493
_cell_angle_alpha   147.35097192
_cell_angle_beta   147.35097192
_cell_angle_gamma   46.84439059
_symmetry_Int_Tables_number   1
_chemical_formula_structural   Rb2MnF4
_chemical_formula_sum   'Rb2 Mn1 F4'
_cell_volume   123.27920343
_cell_formula_units_Z   1
loop_
 _symmetry_equiv_pos_site_id
 _symmetry_equiv_pos_as_xyz
  1  'x, y, z'
loop_
 _atom_site_type_symbol
 _atom_site_label
 _atom_site_symmetry_multiplicity
 _atom_site_fract_x
 _atom_site_fract_y
 _atom_site_fract_z
 _atom_site_occupancy
  Rb  Rb0  1  0.35368921  0.35368921  0.00000000  1
  Rb  Rb1  1  0.64631079  0.64631079  -0.00000000  1
  Mn  Mn0  1  0.00000000  0.00000000  0.00000000  1
  F  F0  1  0.15274669  0.15274669  -0.00000000  1
  F  F1  1  0.84725331  0.84725331  0.00000000  1
  F  F2  1  0.50000000  0.00000000  0.50000000  1
  F  F3  1  0.00000000  0.50000000  0.50000000  1
loop_
_geom_bond_atom_site_label_1
_geom_bond_atom_site_label_2
_geom_bond_distance
_geom_bond_site_symmetry_2
F0 Mn0 2.107805 1_555
F0 Rb0 2.772876 1_555
F0 Rb1 2.990248 1_556
F0 Rb1 2.990248 1_444
F0 Rb1 2.990248 1_545
F0 Rb1 2.990248 1_455
F1 Mn0 2.107805 1_665
F1 Rb1 2.772876 1_555
F1 Rb0 2.990248 1_565
F1 Rb0 2.990248 1_655
F1 Rb0 2.990248 1_554
F1 Rb0 2.990248 1_666
F2 Mn0 2.113492 1_555
F2 Mn0 2.113492 1_656
F2 Rb1 2.922872 1_556
F2 Rb1 2.922872 1_545
F2 Rb0 2.922872 1_556
F2 Rb0 2.922872 1_545
F3 Mn0 2.113492 1_566
F3 Mn0 2.113492 1_555
F3 Rb1 2.922872 1_556
F3 Rb0 2.922872 1_455
F3 Rb1 2.922872 1_455
F3 Rb0 2.922872 1_556
