# generated using pymatgen
data_Ti2Ni
_symmetry_space_group_name_H-M   'P 1'
_cell_length_a   7.95037742
_cell_length_b   7.95040108
_cell_length_c   7.95035457
_cell_angle_alpha   60.00236957
_cell_angle_beta   60.00235198
_cell_angle_gamma   60.00253062
_symmetry_Int_Tables_number   1
_chemical_formula_structural   Ti2Ni
_chemical_formula_sum   'Ti16 Ni8'
_cell_volume   355.36290054
_cell_formula_units_Z   8
loop_
 _symmetry_equiv_pos_site_id
 _symmetry_equiv_pos_as_xyz
  1  'x, y, z'
loop_
 _atom_site_type_symbol
 _atom_site_label
 _atom_site_symmetry_multiplicity
 _atom_site_fract_x
 _atom_site_fract_y
 _atom_site_fract_z
 _atom_site_occupancy
  Ti  Ti0  1  0.12502449  0.62499412  0.62500016  1
  Ti  Ti1  1  0.62499111  0.12502494  0.62500526  1
  Ti  Ti2  1  0.62499307  0.62500268  0.12501913  1
  Ti  Ti3  1  0.62498720  0.62498789  0.62499621  1
  Ti  Ti4  1  0.81333498  0.81333372  0.18665773  1
  Ti  Ti5  1  0.18666696  0.18666651  0.81334227  1
  Ti  Ti6  1  0.81332915  0.18666302  0.81333977  1
  Ti  Ti7  1  0.18667334  0.81333393  0.18666464  1
  Ti  Ti8  1  0.18666135  0.81332988  0.81334227  1
  Ti  Ti9  1  0.81333822  0.18666989  0.18666076  1
  Ti  Ti10  1  0.43661280  0.43662543  0.06337394  1
  Ti  Ti11  1  0.06338361  0.06337185  0.43662248  1
  Ti  Ti12  1  0.43661644  0.06337319  0.43661757  1
  Ti  Ti13  1  0.06338091  0.43662713  0.06337522  1
  Ti  Ti14  1  0.06337556  0.43662566  0.43661492  1
  Ti  Ti15  1  0.43662410  0.06337266  0.06337826  1
  Ni  Ni0  1  0.77330948  0.40889518  0.40890112  1
  Ni  Ni1  1  0.40890054  0.77329408  0.40890316  1
  Ni  Ni2  1  0.40890145  0.40889729  0.77330227  1
  Ni  Ni3  1  0.40889809  0.40890093  0.40890453  1
  Ni  Ni4  1  0.47669662  0.84110658  0.84110194  1
  Ni  Ni5  1  0.84110332  0.47669480  0.84110261  1
  Ni  Ni6  1  0.84110615  0.84110984  0.47668348  1
  Ni  Ni7  1  0.84108903  0.84109579  0.84109032  1
loop_
_geom_bond_atom_site_label_1
_geom_bond_atom_site_label_2
_geom_bond_distance
_geom_bond_site_symmetry_2
Ti0 Ti8 2.904084 1_555
Ti0 Ti5 2.904297 1_555
Ti0 Ti7 2.904323 1_555
Ti0 Ti13 2.904600 1_556
Ti0 Ti11 2.904641 1_565
Ti0 Ti14 2.904667 1_555
Ti1 Ti6 2.904052 1_555
Ti1 Ti5 2.904265 1_555
Ti1 Ti9 2.904389 1_555
Ti1 Ti15 2.904573 1_556
Ti1 Ti11 2.904716 1_655
Ti1 Ti12 2.904739 1_555
Ti2 Ti4 2.904062 1_555
Ti2 Ti7 2.904233 1_555
Ti2 Ti9 2.904337 1_555
Ti3 Ti6 2.904308 1_555
Ti3 Ti8 2.904310 1_555
Ti3 Ti4 2.904374 1_555
Ti4 Ti8 2.968143 1_654
Ti4 Ti6 2.968170 1_564
Ti4 Ti9 2.968197 1_565
Ti4 Ti7 2.968209 1_655
Ti5 Ti9 2.968165 1_456
Ti5 Ti8 2.968198 1_545
Ti5 Ti6 2.968200 1_455
Ti5 Ti7 2.968201 1_546
Ti6 Ti9 2.968098 1_556
Ti6 Ti8 2.968254 1_645
Ti7 Ti8 2.968109 1_554
Ti7 Ti9 2.968276 1_465
Ti10 Ti3 2.904647 1_554
Ti10 Ti2 2.904674 1_555
Ti10 Ti13 2.967323 1_555
Ti10 Ti15 2.967447 1_555
Ti10 Ti14 2.967493 1_555
Ti10 Ti12 2.967568 1_555
Ti10 Ti8 2.985970 1_554
Ti10 Ti7 2.986014 1_555
Ti10 Ti6 2.986054 1_554
Ti10 Ti9 2.986104 1_555
Ti11 Ti12 2.967328 1_555
Ti11 Ti14 2.967455 1_555
Ti11 Ti15 2.967519 1_555
Ti11 Ti13 2.967595 1_555
Ti11 Ti7 2.985924 1_545
Ti11 Ti9 2.985972 1_455
Ti11 Ti8 2.986022 1_545
Ti11 Ti6 2.986059 1_455
Ti12 Ti3 2.904725 1_545
Ti12 Ti15 2.967357 1_555
Ti12 Ti14 2.967570 1_555
Ti12 Ti4 2.986071 1_545
Ti12 Ti8 2.986076 1_545
Ti12 Ti9 2.986113 1_555
Ti12 Ti5 2.986116 1_555
Ti13 Ti2 2.904700 1_455
Ti13 Ti14 2.967361 1_555
Ti13 Ti15 2.967587 1_555
Ti13 Ti5 2.985920 1_554
Ti13 Ti8 2.985929 1_554
Ti13 Ti9 2.985964 1_455
Ti13 Ti4 2.985969 1_455
Ti14 Ti3 2.904727 1_455
Ti14 Ti7 2.986034 1_555
Ti14 Ti4 2.986038 1_455
Ti14 Ti6 2.986118 1_455
Ti14 Ti5 2.986126 1_555
Ti15 Ti2 2.904592 1_545
Ti15 Ti5 2.985890 1_554
Ti15 Ti7 2.985893 1_545
Ti15 Ti6 2.985977 1_554
Ti15 Ti4 2.985978 1_545
Ni0 Ti3 2.488704 1_555
Ni0 Ti1 2.488747 1_555
Ni0 Ti2 2.488807 1_555
Ni0 Ti14 2.545675 1_655
Ni0 Ti13 2.545865 1_655
Ni0 Ti11 2.545878 1_655
Ni0 Ti9 2.888198 1_555
Ni0 Ti6 2.888265 1_555
Ni0 Ti4 2.888296 1_555
Ni0 Ni3 2.897172 1_555
Ni0 Ni2 2.897253 1_555
Ni0 Ni1 2.897264 1_555
Ni1 Ti3 2.488676 1_555
Ni1 Ti0 2.488695 1_555
Ni1 Ti2 2.488706 1_555
Ni1 Ti12 2.545719 1_565
Ni1 Ti11 2.545858 1_565
Ni1 Ti15 2.545887 1_565
Ni1 Ti7 2.888149 1_555
Ni1 Ti4 2.888300 1_555
Ni1 Ti8 2.888315 1_555
Ni1 Ni3 2.897076 1_555
Ni1 Ni2 2.897205 1_555
Ni2 Ti3 2.488659 1_555
Ni2 Ti1 2.488666 1_555
Ni2 Ti0 2.488714 1_555
Ni2 Ti10 2.545691 1_556
Ni2 Ti13 2.545848 1_556
Ni2 Ti15 2.545882 1_556
Ni2 Ti5 2.888152 1_555
Ni2 Ti6 2.888253 1_555
Ni2 Ti8 2.888302 1_555
Ni2 Ni3 2.897090 1_555
Ni3 Ti0 2.488777 1_555
Ni3 Ti1 2.488803 1_555
Ni3 Ti2 2.488829 1_555
Ni3 Ti14 2.545833 1_555
Ni3 Ti10 2.545875 1_555
Ni3 Ti12 2.545895 1_555
Ni3 Ti7 2.888314 1_555
Ni3 Ti5 2.888321 1_555
Ni3 Ti9 2.888368 1_555
Ni4 Ti2 2.488938 1_556
Ni4 Ti1 2.488942 1_565
Ni4 Ti3 2.488991 1_555
Ni4 Ti8 2.545859 1_555
Ni4 Ti7 2.545878 1_556
Ni4 Ti5 2.545903 1_565
Ni4 Ti15 2.888550 1_566
Ni4 Ti12 2.888753 1_565
Ni4 Ti10 2.888756 1_556
Ni4 Ni7 2.896968 1_555
Ni4 Ni5 2.897306 1_555
Ni4 Ni6 2.897328 1_555
Ni5 Ti3 2.488970 1_555
Ni5 Ti0 2.488979 1_655
Ni5 Ti2 2.488988 1_556
Ni5 Ti6 2.545840 1_555
Ni5 Ti9 2.545866 1_556
Ni5 Ti5 2.545913 1_655
Ni5 Ti13 2.888618 1_656
Ni5 Ti14 2.888743 1_655
Ni5 Ti10 2.888770 1_556
Ni5 Ni7 2.897028 1_555
Ni5 Ni6 2.897357 1_555
Ni6 Ti0 2.489044 1_655
Ni6 Ti1 2.489052 1_565
Ni6 Ti3 2.489057 1_555
Ni6 Ti4 2.545828 1_555
Ni6 Ti9 2.545873 1_565
Ni6 Ti7 2.545888 1_655
Ni6 Ti11 2.888577 1_665
Ni6 Ti14 2.888738 1_655
Ni6 Ti12 2.888760 1_565
Ni6 Ni7 2.897040 1_555
Ni7 Ti1 2.488845 1_565
Ni7 Ti2 2.488868 1_556
Ni7 Ti0 2.488898 1_655
Ni7 Ti4 2.545915 1_556
Ni7 Ti6 2.545949 1_565
Ni7 Ti8 2.545969 1_655
Ni7 Ti15 2.888725 1_566
Ni7 Ti11 2.888743 1_665
Ni7 Ti13 2.888778 1_656
