# generated using pymatgen
data_LuZn12
_symmetry_space_group_name_H-M   'P 1'
_cell_length_a   5.04608601
_cell_length_b   6.69222099
_cell_length_c   6.69222099
_cell_angle_alpha   81.82844530
_cell_angle_beta   67.85132126
_cell_angle_gamma   67.85132126
_symmetry_Int_Tables_number   1
_chemical_formula_structural   LuZn12
_chemical_formula_sum   'Lu1 Zn12'
_cell_volume   193.87100666
_cell_formula_units_Z   1
loop_
 _symmetry_equiv_pos_site_id
 _symmetry_equiv_pos_as_xyz
  1  'x, y, z'
loop_
 _atom_site_type_symbol
 _atom_site_label
 _atom_site_symmetry_multiplicity
 _atom_site_fract_x
 _atom_site_fract_y
 _atom_site_fract_z
 _atom_site_occupancy
  Lu  Lu0  1  0.00000000  -0.00000000  -0.00000000  1
  Zn  Zn0  1  0.00000000  -0.00000000  0.50000000  1
  Zn  Zn1  1  0.50000000  -0.00000000  0.50000000  1
  Zn  Zn2  1  0.50000000  0.50000000  -0.00000000  1
  Zn  Zn3  1  0.00000000  0.50000000  -0.00000000  1
  Zn  Zn4  1  0.00000000  0.35381633  0.64618367  1
  Zn  Zn5  1  -0.00000000  0.64618367  0.35381633  1
  Zn  Zn6  1  0.64618367  0.35381633  0.35381633  1
  Zn  Zn7  1  0.35381633  0.64618367  0.64618367  1
  Zn  Zn8  1  0.50000000  0.78489161  0.21510839  1
  Zn  Zn9  1  0.50000000  0.21510839  0.78489161  1
  Zn  Zn10  1  0.71510839  0.78489161  0.78489161  1
  Zn  Zn11  1  0.28489161  0.21510839  0.21510839  1
loop_
_geom_bond_atom_site_label_1
_geom_bond_atom_site_label_2
_geom_bond_distance
_geom_bond_site_symmetry_2
Lu0 Zn4 3.101501 1_554
Lu0 Zn7 3.101501 1_544
Lu0 Zn5 3.101501 1_545
Lu0 Zn6 3.101501 1_455
Lu0 Zn11 3.149804 1_555
Lu0 Zn10 3.149804 1_444
Lu0 Zn8 3.149804 1_445
Lu0 Zn8 3.149804 1_545
Lu0 Zn9 3.149804 1_554
Lu0 Zn9 3.149804 1_454
Lu0 Zn11 3.149804 1_455
Lu0 Zn10 3.149804 1_544
Lu0 Zn3 3.346110 1_555
Lu0 Zn3 3.346110 1_545
Lu0 Zn0 3.346110 1_555
Lu0 Zn0 3.346110 1_554
Lu0 Zn1 3.346110 1_554
Lu0 Zn2 3.346110 1_545
Lu0 Zn1 3.346110 1_455
Lu0 Zn2 3.346110 1_455
Zn0 Zn1 2.523043 1_555
Zn0 Zn1 2.523043 1_455
Zn0 Zn10 2.547056 1_445
Zn0 Zn11 2.547056 1_555
Zn0 Zn9 2.547056 1_455
Zn0 Zn8 2.547056 1_545
Zn0 Zn5 2.687400 1_545
Zn0 Zn4 2.687400 1_555
Zn0 Zn7 2.687400 1_545
Zn0 Zn6 2.687400 1_455
Zn1 Zn8 2.547056 1_545
Zn1 Zn9 2.547056 1_555
Zn1 Zn11 2.547056 1_555
Zn1 Zn10 2.547056 1_545
Zn1 Zn6 2.687400 1_555
Zn1 Zn7 2.687400 1_545
Zn1 Zn5 2.687400 1_645
Zn1 Zn4 2.687400 1_555
Zn2 Zn3 2.523043 1_555
Zn2 Zn3 2.523043 1_655
Zn2 Zn8 2.547056 1_555
Zn2 Zn9 2.547056 1_554
Zn2 Zn6 2.687400 1_555
Zn2 Zn7 2.687400 1_554
Zn2 Zn4 2.687400 1_654
Zn2 Zn5 2.687400 1_555
Zn3 Zn8 2.547056 1_455
Zn3 Zn9 2.547056 1_554
Zn3 Zn5 2.687400 1_555
Zn3 Zn4 2.687400 1_554
Zn3 Zn7 2.687400 1_554
Zn3 Zn6 2.687400 1_455
Zn4 Zn5 2.562849 1_555
Zn4 Zn9 2.800740 1_555
Zn4 Zn9 2.800740 1_455
Zn4 Zn7 3.106420 1_555
Zn4 Zn6 3.106420 1_455
Zn4 Zn6 3.106420 1_555
Zn4 Zn7 3.106420 1_455
Zn5 Zn8 2.800740 1_455
Zn5 Zn8 2.800740 1_555
Zn5 Zn7 3.106420 1_555
Zn5 Zn6 3.106420 1_455
Zn5 Zn6 3.106420 1_555
Zn5 Zn7 3.106420 1_455
Zn6 Zn7 2.562849 1_555
Zn6 Zn8 2.806892 1_555
Zn6 Zn9 2.806892 1_555
Zn7 Zn9 2.806892 1_555
Zn7 Zn8 2.806892 1_555
Zn10 Zn2 2.547056 1_556
Zn10 Zn3 2.547056 1_656
Zn10 Zn9 2.666653 1_565
Zn10 Zn8 2.666653 1_556
Zn10 Zn7 2.800740 1_555
Zn10 Zn7 2.800740 1_655
Zn10 Zn5 2.806892 1_655
Zn10 Zn4 2.806892 1_655
Zn11 Zn2 2.547056 1_555
Zn11 Zn3 2.547056 1_555
Zn11 Zn9 2.666653 1_554
Zn11 Zn8 2.666653 1_545
Zn11 Zn6 2.800740 1_555
Zn11 Zn6 2.800740 1_455
Zn11 Zn4 2.806892 1_555
Zn11 Zn5 2.806892 1_555
