# generated using pymatgen
data_Mg6CoB
_symmetry_space_group_name_H-M   'P 1'
_cell_length_a   6.35872400
_cell_length_b   18.76808000
_cell_length_c   20.31743200
_cell_angle_alpha   90.00000000
_cell_angle_beta   90.00000000
_cell_angle_gamma   90.00000000
_symmetry_Int_Tables_number   1
_chemical_formula_structural   Mg6CoB
_chemical_formula_sum   'Mg96 Co16 B16'
_cell_volume   2424.70347984
_cell_formula_units_Z   16
loop_
 _symmetry_equiv_pos_site_id
 _symmetry_equiv_pos_as_xyz
  1  'x, y, z'
loop_
 _atom_site_type_symbol
 _atom_site_label
 _atom_site_symmetry_multiplicity
 _atom_site_fract_x
 _atom_site_fract_y
 _atom_site_fract_z
 _atom_site_occupancy
  Mg  Mg0_0  1  0.00000000  0.33444600  0.06080350  1
  Mg  Mg0_1  1  0.00000000  0.33444600  0.56080350  1
  Mg  Mg0_2  1  0.00000000  0.83444600  0.06080350  1
  Mg  Mg0_3  1  0.00000000  0.83444600  0.56080350  1
  Mg  Mg0_4  1  0.50000000  0.33444600  0.06080350  1
  Mg  Mg0_5  1  0.50000000  0.33444600  0.56080350  1
  Mg  Mg0_6  1  0.50000000  0.83444600  0.06080350  1
  Mg  Mg0_7  1  0.50000000  0.83444600  0.56080350  1
  Mg  Mg1_0  1  0.00000000  0.16555400  0.06080350  1
  Mg  Mg1_1  1  0.00000000  0.16555400  0.56080350  1
  Mg  Mg1_2  1  0.00000000  0.66555400  0.06080350  1
  Mg  Mg1_3  1  0.00000000  0.66555400  0.56080350  1
  Mg  Mg1_4  1  0.50000000  0.16555400  0.06080350  1
  Mg  Mg1_5  1  0.50000000  0.16555400  0.56080350  1
  Mg  Mg1_6  1  0.50000000  0.66555400  0.06080350  1
  Mg  Mg1_7  1  0.50000000  0.66555400  0.56080350  1
  Mg  Mg2_0  1  0.00000000  0.25000000  0.42318100  1
  Mg  Mg2_1  1  0.00000000  0.25000000  0.92318100  1
  Mg  Mg2_2  1  0.00000000  0.75000000  0.42318100  1
  Mg  Mg2_3  1  0.00000000  0.75000000  0.92318100  1
  Mg  Mg2_4  1  0.50000000  0.25000000  0.42318100  1
  Mg  Mg2_5  1  0.50000000  0.25000000  0.92318100  1
  Mg  Mg2_6  1  0.50000000  0.75000000  0.42318100  1
  Mg  Mg2_7  1  0.50000000  0.75000000  0.92318100  1
  Mg  Mg3_0  1  0.25000000  0.38765300  0.43747500  1
  Mg  Mg3_1  1  0.25000000  0.38765300  0.93747500  1
  Mg  Mg3_2  1  0.25000000  0.88765300  0.43747500  1
  Mg  Mg3_3  1  0.25000000  0.88765300  0.93747500  1
  Mg  Mg3_4  1  0.75000000  0.38765300  0.43747500  1
  Mg  Mg3_5  1  0.75000000  0.38765300  0.93747500  1
  Mg  Mg3_6  1  0.75000000  0.88765300  0.43747500  1
  Mg  Mg3_7  1  0.75000000  0.88765300  0.93747500  1
  Mg  Mg4_0  1  0.25000000  0.11234700  0.43747500  1
  Mg  Mg4_1  1  0.25000000  0.11234700  0.93747500  1
  Mg  Mg4_2  1  0.25000000  0.61234700  0.43747500  1
  Mg  Mg4_3  1  0.25000000  0.61234700  0.93747500  1
  Mg  Mg4_4  1  0.75000000  0.11234700  0.43747500  1
  Mg  Mg4_5  1  0.75000000  0.11234700  0.93747500  1
  Mg  Mg4_6  1  0.75000000  0.61234700  0.43747500  1
  Mg  Mg4_7  1  0.75000000  0.61234700  0.93747500  1
  Mg  Mg5_0  1  0.25000000  0.25000000  0.29086950  1
  Mg  Mg5_1  1  0.25000000  0.25000000  0.79086950  1
  Mg  Mg5_2  1  0.25000000  0.75000000  0.29086950  1
  Mg  Mg5_3  1  0.25000000  0.75000000  0.79086950  1
  Mg  Mg5_4  1  0.75000000  0.25000000  0.29086950  1
  Mg  Mg5_5  1  0.75000000  0.25000000  0.79086950  1
  Mg  Mg5_6  1  0.75000000  0.75000000  0.29086950  1
  Mg  Mg5_7  1  0.75000000  0.75000000  0.79086950  1
  Mg  Mg6_0  1  0.00000000  0.08444600  0.31080350  1
  Mg  Mg6_1  1  0.00000000  0.08444600  0.81080350  1
  Mg  Mg6_2  1  0.00000000  0.58444600  0.31080350  1
  Mg  Mg6_3  1  0.00000000  0.58444600  0.81080350  1
  Mg  Mg6_4  1  0.50000000  0.08444600  0.31080350  1
  Mg  Mg6_5  1  0.50000000  0.08444600  0.81080350  1
  Mg  Mg6_6  1  0.50000000  0.58444600  0.31080350  1
  Mg  Mg6_7  1  0.50000000  0.58444600  0.81080350  1
  Mg  Mg7_0  1  0.00000000  0.41555400  0.31080350  1
  Mg  Mg7_1  1  0.00000000  0.41555400  0.81080350  1
  Mg  Mg7_2  1  0.00000000  0.91555400  0.31080350  1
  Mg  Mg7_3  1  0.00000000  0.91555400  0.81080350  1
  Mg  Mg7_4  1  0.50000000  0.41555400  0.31080350  1
  Mg  Mg7_5  1  0.50000000  0.41555400  0.81080350  1
  Mg  Mg7_6  1  0.50000000  0.91555400  0.31080350  1
  Mg  Mg7_7  1  0.50000000  0.91555400  0.81080350  1
  Mg  Mg8_0  1  0.00000000  0.00000000  0.17318100  1
  Mg  Mg8_1  1  0.00000000  0.00000000  0.67318100  1
  Mg  Mg8_2  1  0.00000000  0.50000000  0.17318100  1
  Mg  Mg8_3  1  0.00000000  0.50000000  0.67318100  1
  Mg  Mg8_4  1  0.50000000  0.00000000  0.17318100  1
  Mg  Mg8_5  1  0.50000000  0.00000000  0.67318100  1
  Mg  Mg8_6  1  0.50000000  0.50000000  0.17318100  1
  Mg  Mg8_7  1  0.50000000  0.50000000  0.67318100  1
  Mg  Mg9_0  1  0.25000000  0.13765300  0.18747500  1
  Mg  Mg9_1  1  0.25000000  0.13765300  0.68747500  1
  Mg  Mg9_2  1  0.25000000  0.63765300  0.18747500  1
  Mg  Mg9_3  1  0.25000000  0.63765300  0.68747500  1
  Mg  Mg9_4  1  0.75000000  0.13765300  0.18747500  1
  Mg  Mg9_5  1  0.75000000  0.13765300  0.68747500  1
  Mg  Mg9_6  1  0.75000000  0.63765300  0.18747500  1
  Mg  Mg9_7  1  0.75000000  0.63765300  0.68747500  1
  Mg  Mg10_0  1  0.25000000  0.36234700  0.18747500  1
  Mg  Mg10_1  1  0.25000000  0.36234700  0.68747500  1
  Mg  Mg10_2  1  0.25000000  0.86234700  0.18747500  1
  Mg  Mg10_3  1  0.25000000  0.86234700  0.68747500  1
  Mg  Mg10_4  1  0.75000000  0.36234700  0.18747500  1
  Mg  Mg10_5  1  0.75000000  0.36234700  0.68747500  1
  Mg  Mg10_6  1  0.75000000  0.86234700  0.18747500  1
  Mg  Mg10_7  1  0.75000000  0.86234700  0.68747500  1
  Mg  Mg11_0  1  0.25000000  0.00000000  0.04086950  1
  Mg  Mg11_1  1  0.25000000  0.00000000  0.54086950  1
  Mg  Mg11_2  1  0.25000000  0.50000000  0.04086950  1
  Mg  Mg11_3  1  0.25000000  0.50000000  0.54086950  1
  Mg  Mg11_4  1  0.75000000  0.00000000  0.04086950  1
  Mg  Mg11_5  1  0.75000000  0.00000000  0.54086950  1
  Mg  Mg11_6  1  0.75000000  0.50000000  0.04086950  1
  Mg  Mg11_7  1  0.75000000  0.50000000  0.54086950  1
  Co  Co0_0  1  0.00000000  0.25000000  0.16936050  1
  Co  Co0_1  1  0.00000000  0.25000000  0.66936050  1
  Co  Co0_2  1  0.00000000  0.75000000  0.16936050  1
  Co  Co0_3  1  0.00000000  0.75000000  0.66936050  1
  Co  Co0_4  1  0.50000000  0.25000000  0.16936050  1
  Co  Co0_5  1  0.50000000  0.25000000  0.66936050  1
  Co  Co0_6  1  0.50000000  0.75000000  0.16936050  1
  Co  Co0_7  1  0.50000000  0.75000000  0.66936050  1
  Co  Co1_0  1  0.00000000  0.00000000  0.41936050  1
  Co  Co1_1  1  0.00000000  0.00000000  0.91936050  1
  Co  Co1_2  1  0.00000000  0.50000000  0.41936050  1
  Co  Co1_3  1  0.00000000  0.50000000  0.91936050  1
  Co  Co1_4  1  0.50000000  0.00000000  0.41936050  1
  Co  Co1_5  1  0.50000000  0.00000000  0.91936050  1
  Co  Co1_6  1  0.50000000  0.50000000  0.41936050  1
  Co  Co1_7  1  0.50000000  0.50000000  0.91936050  1
  B  B0_0  1  0.25000000  0.25000000  0.12003250  1
  B  B0_1  1  0.25000000  0.25000000  0.62003250  1
  B  B0_2  1  0.25000000  0.75000000  0.12003250  1
  B  B0_3  1  0.25000000  0.75000000  0.62003250  1
  B  B0_4  1  0.75000000  0.25000000  0.12003250  1
  B  B0_5  1  0.75000000  0.25000000  0.62003250  1
  B  B0_6  1  0.75000000  0.75000000  0.12003250  1
  B  B0_7  1  0.75000000  0.75000000  0.62003250  1
  B  B1_0  1  0.25000000  0.00000000  0.37003250  1
  B  B1_1  1  0.25000000  0.00000000  0.87003250  1
  B  B1_2  1  0.25000000  0.50000000  0.37003250  1
  B  B1_3  1  0.25000000  0.50000000  0.87003250  1
  B  B1_4  1  0.75000000  0.00000000  0.37003250  1
  B  B1_5  1  0.75000000  0.00000000  0.87003250  1
  B  B1_6  1  0.75000000  0.50000000  0.37003250  1
  B  B1_7  1  0.75000000  0.50000000  0.87003250  1
loop_
_geom_bond_atom_site_label_1
_geom_bond_atom_site_label_2
_geom_bond_distance
_geom_bond_site_symmetry_2
Mg0_0 Mg2_1 3.214071 1_554
Mg0_1 Mg2_0 3.214071 1_555
Mg0_2 Mg2_3 3.214071 1_554
Mg0_3 Mg2_2 3.214071 1_555
Mg0_4 Mg2_5 3.214071 1_554
Mg0_5 Mg2_4 3.214071 1_555
Mg0_6 Mg2_7 3.214071 1_554
Mg0_7 Mg2_6 3.214071 1_555
Mg1_0 Mg2_1 3.214071 1_554
Mg1_1 Mg2_0 3.214071 1_555
Mg1_2 Mg2_3 3.214071 1_554
Mg1_3 Mg2_2 3.214071 1_555
Mg1_4 Mg2_5 3.214071 1_554
Mg1_5 Mg2_4 3.214071 1_555
Mg1_6 Mg2_7 3.214071 1_554
Mg1_7 Mg2_6 3.214071 1_555
Mg2_0 Mg4_4 3.047263 1_455
Mg2_0 Mg3_0 3.047263 1_555
Mg2_0 Mg4_0 3.047263 1_555
Mg2_0 Mg3_4 3.047263 1_455
Mg2_0 Mg5_0 3.123086 1_555
Mg2_0 Mg5_4 3.123086 1_455
Mg2_0 Mg2_4 3.179362 1_555
Mg2_0 Mg2_4 3.179362 1_455
Mg2_1 Mg3_5 3.047263 1_455
Mg2_1 Mg4_1 3.047263 1_555
Mg2_1 Mg4_5 3.047263 1_455
Mg2_1 Mg3_1 3.047263 1_555
Mg2_1 Mg5_5 3.123086 1_455
Mg2_1 Mg5_1 3.123086 1_555
Mg2_1 Mg2_5 3.179362 1_555
Mg2_1 Mg2_5 3.179362 1_455
Mg2_2 Mg4_2 3.047263 1_555
Mg2_2 Mg4_6 3.047263 1_455
Mg2_2 Mg3_2 3.047263 1_555
Mg2_2 Mg3_6 3.047263 1_455
Mg2_2 Mg5_2 3.123086 1_555
Mg2_2 Mg5_6 3.123086 1_455
Mg2_2 Mg2_6 3.179362 1_455
Mg2_2 Mg2_6 3.179362 1_555
Mg2_3 Mg4_7 3.047263 1_455
Mg2_3 Mg4_3 3.047263 1_555
Mg2_3 Mg3_7 3.047263 1_455
Mg2_3 Mg3_3 3.047263 1_555
Mg2_3 Mg5_7 3.123086 1_455
Mg2_3 Mg5_3 3.123086 1_555
Mg2_3 Mg2_7 3.179362 1_555
Mg2_3 Mg2_7 3.179362 1_455
Mg2_4 Mg4_4 3.047263 1_555
Mg2_4 Mg3_0 3.047263 1_555
Mg2_4 Mg4_0 3.047263 1_555
Mg2_4 Mg3_4 3.047263 1_555
Mg2_4 Mg5_0 3.123086 1_555
Mg2_4 Mg5_4 3.123086 1_555
Mg2_5 Mg4_1 3.047263 1_555
Mg2_5 Mg3_1 3.047263 1_555
Mg2_5 Mg4_5 3.047263 1_555
Mg2_5 Mg3_5 3.047263 1_555
Mg2_5 Mg5_1 3.123086 1_555
Mg2_5 Mg5_5 3.123086 1_555
Mg2_6 Mg4_2 3.047263 1_555
Mg2_6 Mg4_6 3.047263 1_555
Mg2_6 Mg3_2 3.047263 1_555
Mg2_6 Mg3_6 3.047263 1_555
Mg2_6 Mg5_2 3.123086 1_555
Mg2_6 Mg5_6 3.123086 1_555
Mg2_7 Mg4_3 3.047263 1_555
Mg2_7 Mg4_7 3.047263 1_555
Mg2_7 Mg3_3 3.047263 1_555
Mg2_7 Mg3_7 3.047263 1_555
Mg2_7 Mg5_3 3.123086 1_555
Mg2_7 Mg5_7 3.123086 1_555
Mg6_0 Mg8_0 3.214071 1_555
Mg6_1 Mg8_1 3.214071 1_555
Mg6_2 Mg8_2 3.214071 1_555
Mg6_3 Mg8_3 3.214071 1_555
Mg6_4 Mg8_4 3.214071 1_555
Mg6_5 Mg8_5 3.214071 1_555
Mg6_6 Mg8_6 3.214071 1_555
Mg6_7 Mg8_7 3.214071 1_555
Mg7_0 Mg8_2 3.214071 1_555
Mg7_1 Mg8_3 3.214071 1_555
Mg7_2 Mg8_0 3.214071 1_565
Mg7_3 Mg8_1 3.214071 1_565
Mg7_4 Mg8_6 3.214071 1_555
Mg7_5 Mg8_7 3.214071 1_555
Mg7_6 Mg8_4 3.214071 1_565
Mg7_7 Mg8_5 3.214071 1_565
Mg8_0 Mg9_4 3.047263 1_455
Mg8_0 Mg9_0 3.047263 1_555
Mg8_0 Mg8_4 3.179362 1_455
Mg8_0 Mg8_4 3.179362 1_555
Mg8_1 Mg9_5 3.047263 1_455
Mg8_1 Mg9_1 3.047263 1_555
Mg8_1 Mg8_5 3.179362 1_455
Mg8_1 Mg8_5 3.179362 1_555
Mg8_2 Mg9_6 3.047263 1_455
Mg8_2 Mg9_2 3.047263 1_555
Mg8_2 Mg8_6 3.179362 1_555
Mg8_2 Mg8_6 3.179362 1_455
Mg8_3 Mg9_7 3.047263 1_455
Mg8_3 Mg9_3 3.047263 1_555
Mg8_3 Mg8_7 3.179362 1_455
Mg8_3 Mg8_7 3.179362 1_555
Mg8_4 Mg9_0 3.047263 1_555
Mg8_4 Mg9_4 3.047263 1_555
Mg8_5 Mg9_1 3.047263 1_555
Mg8_5 Mg9_5 3.047263 1_555
Mg8_6 Mg9_2 3.047263 1_555
Mg8_6 Mg9_6 3.047263 1_555
Mg8_7 Mg9_3 3.047263 1_555
Mg8_7 Mg9_7 3.047263 1_555
Mg10_0 Mg8_6 3.047263 1_555
Mg10_0 Mg8_2 3.047263 1_555
Mg10_1 Mg8_7 3.047263 1_555
Mg10_1 Mg8_3 3.047263 1_555
Mg10_2 Mg8_0 3.047263 1_565
Mg10_2 Mg8_4 3.047263 1_565
Mg10_3 Mg8_1 3.047263 1_565
Mg10_3 Mg8_5 3.047263 1_565
Mg10_4 Mg8_2 3.047263 1_655
Mg10_4 Mg8_6 3.047263 1_555
Mg10_5 Mg8_3 3.047263 1_655
Mg10_5 Mg8_7 3.047263 1_555
Mg10_6 Mg8_0 3.047263 1_665
Mg10_6 Mg8_4 3.047263 1_565
Mg10_7 Mg8_1 3.047263 1_665
Mg10_7 Mg8_5 3.047263 1_565
Mg11_0 Mg8_0 3.123086 1_555
Mg11_0 Mg8_4 3.123086 1_555
Mg11_1 Mg8_5 3.123086 1_555
Mg11_1 Mg8_1 3.123086 1_555
Mg11_2 Mg8_2 3.123086 1_555
Mg11_2 Mg8_6 3.123086 1_555
Mg11_3 Mg8_3 3.123086 1_555
Mg11_3 Mg8_7 3.123086 1_555
Mg11_4 Mg8_0 3.123086 1_655
Mg11_4 Mg8_4 3.123086 1_555
Mg11_5 Mg8_1 3.123086 1_655
Mg11_5 Mg8_5 3.123086 1_555
Mg11_6 Mg8_2 3.123086 1_655
Mg11_6 Mg8_6 3.123086 1_555
Mg11_7 Mg8_3 3.123086 1_655
Mg11_7 Mg8_7 3.123086 1_555
Co0_0 Mg10_4 2.666171 1_455
Co0_0 Mg10_0 2.666171 1_555
Co0_0 Mg9_4 2.666171 1_455
Co0_0 Mg9_0 2.666171 1_555
Co0_0 Mg5_4 2.936293 1_455
Co0_0 Mg5_0 2.936293 1_555
Co0_1 Mg10_5 2.666171 1_455
Co0_1 Mg10_1 2.666171 1_555
Co0_1 Mg9_5 2.666171 1_455
Co0_1 Mg9_1 2.666171 1_555
Co0_1 Mg5_5 2.936293 1_455
Co0_1 Mg5_1 2.936293 1_555
Co0_2 Mg10_6 2.666171 1_455
Co0_2 Mg9_6 2.666171 1_455
Co0_2 Mg10_2 2.666171 1_555
Co0_2 Mg9_2 2.666171 1_555
Co0_2 Mg5_6 2.936293 1_455
Co0_2 Mg5_2 2.936293 1_555
Co0_3 Mg9_7 2.666171 1_455
Co0_3 Mg10_7 2.666171 1_455
Co0_3 Mg10_3 2.666171 1_555
Co0_3 Mg9_3 2.666171 1_555
Co0_3 Mg5_7 2.936293 1_455
Co0_3 Mg5_3 2.936293 1_555
Co0_4 Mg10_0 2.666171 1_555
Co0_4 Mg10_4 2.666171 1_555
Co0_4 Mg9_0 2.666171 1_555
Co0_4 Mg9_4 2.666171 1_555
Co0_4 Mg5_0 2.936293 1_555
Co0_4 Mg5_4 2.936293 1_555
Co0_5 Mg10_1 2.666171 1_555
Co0_5 Mg10_5 2.666171 1_555
Co0_5 Mg9_1 2.666171 1_555
Co0_5 Mg9_5 2.666171 1_555
Co0_5 Mg5_1 2.936293 1_555
Co0_5 Mg5_5 2.936293 1_555
Co0_6 Mg9_6 2.666171 1_555
Co0_6 Mg10_6 2.666171 1_555
Co0_6 Mg10_2 2.666171 1_555
Co0_6 Mg9_2 2.666171 1_555
Co0_6 Mg5_2 2.936293 1_555
Co0_6 Mg5_6 2.936293 1_555
Co0_7 Mg10_3 2.666171 1_555
Co0_7 Mg9_3 2.666171 1_555
Co0_7 Mg10_7 2.666171 1_555
Co0_7 Mg9_7 2.666171 1_555
Co0_7 Mg5_3 2.936293 1_555
Co0_7 Mg5_7 2.936293 1_555
Co1_0 Mg3_6 2.666171 1_445
Co1_0 Mg4_4 2.666171 1_455
Co1_0 Mg3_2 2.666171 1_545
Co1_0 Mg4_0 2.666171 1_555
Co1_0 Mg11_5 2.936293 1_455
Co1_0 Mg11_1 2.936293 1_555
Co1_1 Mg3_7 2.666171 1_445
Co1_1 Mg4_5 2.666171 1_455
Co1_1 Mg3_3 2.666171 1_545
Co1_1 Mg4_1 2.666171 1_555
Co1_1 Mg11_4 2.936293 1_456
Co1_1 Mg11_0 2.936293 1_556
Co1_2 Mg3_4 2.666171 1_455
Co1_2 Mg3_0 2.666171 1_555
Co1_2 Mg4_6 2.666171 1_455
Co1_2 Mg4_2 2.666171 1_555
Co1_2 Mg11_7 2.936293 1_455
Co1_2 Mg11_3 2.936293 1_555
Co1_3 Mg3_5 2.666171 1_455
Co1_3 Mg3_1 2.666171 1_555
Co1_3 Mg4_3 2.666171 1_555
Co1_3 Mg4_7 2.666171 1_455
Co1_3 Mg11_6 2.936293 1_456
Co1_3 Mg11_2 2.936293 1_556
Co1_4 Mg3_2 2.666171 1_545
Co1_4 Mg3_6 2.666171 1_545
Co1_4 Mg4_0 2.666171 1_555
Co1_4 Mg4_4 2.666171 1_555
Co1_4 Mg11_5 2.936293 1_555
Co1_4 Mg11_1 2.936293 1_555
Co1_5 Mg3_3 2.666171 1_545
Co1_5 Mg3_7 2.666171 1_545
Co1_5 Mg4_1 2.666171 1_555
Co1_5 Mg4_5 2.666171 1_555
Co1_5 Mg11_4 2.936293 1_556
Co1_5 Mg11_0 2.936293 1_556
Co1_6 Mg3_4 2.666171 1_555
Co1_6 Mg3_0 2.666171 1_555
Co1_6 Mg4_2 2.666171 1_555
Co1_6 Mg4_6 2.666171 1_555
Co1_6 Mg11_7 2.936293 1_555
Co1_6 Mg11_3 2.936293 1_555
Co1_7 Mg3_1 2.666171 1_555
Co1_7 Mg3_5 2.666171 1_555
Co1_7 Mg4_3 2.666171 1_555
Co1_7 Mg4_7 2.666171 1_555
Co1_7 Mg11_6 2.936293 1_556
Co1_7 Mg11_2 2.936293 1_556
B0_0 Co0_4 1.879236 1_555
B0_0 Co0_0 1.879236 1_555
B0_0 Mg10_0 2.514665 1_555
B0_0 Mg9_0 2.514665 1_555
B0_0 Mg1_0 2.546976 1_555
B0_0 Mg1_4 2.546976 1_555
B0_0 Mg0_0 2.546976 1_555
B0_0 Mg0_4 2.546976 1_555
B0_1 Co0_1 1.879236 1_555
B0_1 Co0_5 1.879236 1_555
B0_1 Mg10_1 2.514665 1_555
B0_1 Mg9_1 2.514665 1_555
B0_1 Mg1_1 2.546976 1_555
B0_1 Mg1_5 2.546976 1_555
B0_1 Mg0_5 2.546976 1_555
B0_1 Mg0_1 2.546976 1_555
B0_2 Co0_2 1.879236 1_555
B0_2 Co0_6 1.879236 1_555
B0_2 Mg10_2 2.514665 1_555
B0_2 Mg9_2 2.514665 1_555
B0_2 Mg0_2 2.546976 1_555
B0_2 Mg0_6 2.546976 1_555
B0_2 Mg1_2 2.546976 1_555
B0_2 Mg1_6 2.546976 1_555
B0_3 Co0_7 1.879236 1_555
B0_3 Co0_3 1.879236 1_555
B0_3 Mg10_3 2.514665 1_555
B0_3 Mg9_3 2.514665 1_555
B0_3 Mg0_3 2.546976 1_555
B0_3 Mg0_7 2.546976 1_555
B0_3 Mg1_3 2.546976 1_555
B0_3 Mg1_7 2.546976 1_555
B0_4 Co0_0 1.879236 1_655
B0_4 Co0_4 1.879236 1_555
B0_4 Mg10_4 2.514665 1_555
B0_4 Mg9_4 2.514665 1_555
B0_4 Mg1_0 2.546976 1_655
B0_4 Mg0_0 2.546976 1_655
B0_4 Mg1_4 2.546976 1_555
B0_4 Mg0_4 2.546976 1_555
B0_5 Co0_1 1.879236 1_655
B0_5 Co0_5 1.879236 1_555
B0_5 Mg10_5 2.514665 1_555
B0_5 Mg9_5 2.514665 1_555
B0_5 Mg1_1 2.546976 1_655
B0_5 Mg0_1 2.546976 1_655
B0_5 Mg1_5 2.546976 1_555
B0_5 Mg0_5 2.546976 1_555
B0_6 Co0_2 1.879236 1_655
B0_6 Co0_6 1.879236 1_555
B0_6 Mg10_6 2.514665 1_555
B0_6 Mg9_6 2.514665 1_555
B0_6 Mg1_2 2.546976 1_655
B0_6 Mg0_2 2.546976 1_655
B0_6 Mg1_6 2.546976 1_555
B0_6 Mg0_6 2.546976 1_555
B0_7 Co0_3 1.879236 1_655
B0_7 Co0_7 1.879236 1_555
B0_7 Mg10_7 2.514665 1_555
B0_7 Mg9_7 2.514665 1_555
B0_7 Mg0_3 2.546976 1_655
B0_7 Mg1_3 2.546976 1_655
B0_7 Mg1_7 2.546976 1_555
B0_7 Mg0_7 2.546976 1_555
B1_0 Co1_4 1.879236 1_555
B1_0 Co1_0 1.879236 1_555
B1_0 Mg3_2 2.514665 1_545
B1_0 Mg4_0 2.514665 1_555
B1_0 Mg6_0 2.546976 1_555
B1_0 Mg6_4 2.546976 1_555
B1_0 Mg7_2 2.546976 1_545
B1_0 Mg7_6 2.546976 1_545
B1_1 Co1_5 1.879236 1_555
B1_1 Co1_1 1.879236 1_555
B1_1 Mg3_3 2.514665 1_545
B1_1 Mg4_1 2.514665 1_555
B1_1 Mg6_1 2.546976 1_555
B1_1 Mg6_5 2.546976 1_555
B1_1 Mg7_7 2.546976 1_545
B1_1 Mg7_3 2.546976 1_545
B1_2 Co1_2 1.879236 1_555
B1_2 Co1_6 1.879236 1_555
B1_2 Mg3_0 2.514665 1_555
B1_2 Mg4_2 2.514665 1_555
B1_2 Mg7_4 2.546976 1_555
B1_2 Mg7_0 2.546976 1_555
B1_2 Mg6_2 2.546976 1_555
B1_2 Mg6_6 2.546976 1_555
B1_3 Co1_3 1.879236 1_555
B1_3 Co1_7 1.879236 1_555
B1_3 Mg3_1 2.514665 1_555
B1_3 Mg4_3 2.514665 1_555
B1_3 Mg6_7 2.546976 1_555
B1_3 Mg6_3 2.546976 1_555
B1_3 Mg7_1 2.546976 1_555
B1_3 Mg7_5 2.546976 1_555
B1_4 Co1_0 1.879236 1_655
B1_4 Co1_4 1.879236 1_555
B1_4 Mg3_6 2.514665 1_545
B1_4 Mg4_4 2.514665 1_555
B1_4 Mg6_0 2.546976 1_655
B1_4 Mg6_4 2.546976 1_555
B1_4 Mg7_2 2.546976 1_645
B1_4 Mg7_6 2.546976 1_545
B1_5 Co1_1 1.879236 1_655
B1_5 Co1_5 1.879236 1_555
B1_5 Mg3_7 2.514665 1_545
B1_5 Mg4_5 2.514665 1_555
B1_5 Mg6_1 2.546976 1_655
B1_5 Mg6_5 2.546976 1_555
B1_5 Mg7_3 2.546976 1_645
B1_5 Mg7_7 2.546976 1_545
B1_6 Co1_2 1.879236 1_655
B1_6 Co1_6 1.879236 1_555
B1_6 Mg3_4 2.514665 1_555
B1_6 Mg4_6 2.514665 1_555
B1_6 Mg6_2 2.546976 1_655
B1_6 Mg7_0 2.546976 1_655
B1_6 Mg7_4 2.546976 1_555
B1_6 Mg6_6 2.546976 1_555
B1_7 Co1_3 1.879236 1_655
B1_7 Co1_7 1.879236 1_555
B1_7 Mg3_5 2.514665 1_555
B1_7 Mg4_7 2.514665 1_555
B1_7 Mg7_1 2.546976 1_655
B1_7 Mg6_3 2.546976 1_655
B1_7 Mg6_7 2.546976 1_555
B1_7 Mg7_5 2.546976 1_555
