# generated using pymatgen
data_V9Ga2Sn
_symmetry_space_group_name_H-M   'P 1'
_cell_length_a   4.85548900
_cell_length_b   4.87625700
_cell_length_c   14.42743700
_cell_angle_alpha   90.00000000
_cell_angle_beta   90.00000000
_cell_angle_gamma   90.00000000
_symmetry_Int_Tables_number   1
_chemical_formula_structural   V9Ga2Sn
_chemical_formula_sum   'V18 Ga4 Sn2'
_cell_volume   341.59283124
_cell_formula_units_Z   2
loop_
 _symmetry_equiv_pos_site_id
 _symmetry_equiv_pos_as_xyz
  1  'x, y, z'
loop_
 _atom_site_type_symbol
 _atom_site_label
 _atom_site_symmetry_multiplicity
 _atom_site_fract_x
 _atom_site_fract_y
 _atom_site_fract_z
 _atom_site_occupancy
  V  V0  1  0.50000000  0.00000000  0.24159000  1
  V  V1  1  0.50000000  0.00000000  0.58046100  1
  V  V2  1  0.50000000  0.00000000  0.91921900  1
  V  V3  1  0.76202300  0.50000000  0.00000000  1
  V  V4  1  0.73944700  0.50000000  0.33270900  1
  V  V5  1  0.73944700  0.50000000  0.66729100  1
  V  V6  1  0.00000000  0.74081700  0.16028000  1
  V  V7  1  0.00000000  0.73928800  0.50000000  1
  V  V8  1  0.00000000  0.74081700  0.83972000  1
  V  V9  1  0.50000000  0.00000000  0.08078100  1
  V  V10  1  0.50000000  0.00000000  0.41953900  1
  V  V11  1  0.50000000  0.00000000  0.75841000  1
  V  V12  1  0.23797700  0.50000000  0.00000000  1
  V  V13  1  0.26055300  0.50000000  0.33270900  1
  V  V14  1  0.26055300  0.50000000  0.66729100  1
  V  V15  1  0.00000000  0.25918300  0.16028000  1
  V  V16  1  0.00000000  0.26071200  0.50000000  1
  V  V17  1  0.00000000  0.25918300  0.83972000  1
  Ga  Ga0  1  0.50000000  0.50000000  0.16580400  1
  Ga  Ga1  1  0.50000000  0.50000000  0.50000000  1
  Ga  Ga2  1  0.50000000  0.50000000  0.83419600  1
  Ga  Ga3  1  0.00000000  0.00000000  0.00000000  1
  Sn  Sn0  1  0.00000000  0.00000000  0.32996100  1
  Sn  Sn1  1  0.00000000  0.00000000  0.67003900  1
loop_
_geom_bond_atom_site_label_1
_geom_bond_atom_site_label_2
_geom_bond_distance
_geom_bond_site_symmetry_2
V0 V9 2.320062 1_555
V0 V10 2.567348 1_555
V1 V10 2.321692 1_555
V1 V11 2.567348 1_555
V2 V9 2.330926 1_556
V2 V3 2.986870 1_556
V2 V3 2.986870 1_546
V3 V8 2.839268 1_654
V3 V6 2.839268 1_655
V3 V9 2.986870 1_555
V3 V9 2.986870 1_565
V11 V2 2.320062 1_555
V12 V3 2.310989 1_455
V12 V3 2.544500 1_555
V12 V17 2.839268 1_554
V12 V8 2.839268 1_554
V12 V15 2.839268 1_555
V12 V6 2.839268 1_555
V12 V9 2.986870 1_555
V12 V2 2.986870 1_564
V12 V9 2.986870 1_565
V12 V2 2.986870 1_554
V13 V4 2.325265 1_555
V13 V4 2.530224 1_455
V14 V5 2.325265 1_555
V14 V5 2.530224 1_455
V15 V6 2.348571 1_555
V15 V6 2.527686 1_545
V15 V3 2.839268 1_455
V16 V7 2.333660 1_555
V16 V7 2.542597 1_545
V17 V8 2.348571 1_555
V17 V8 2.527686 1_545
V17 V3 2.839268 1_456
Ga0 V0 2.672076 1_565
Ga0 V0 2.672076 1_555
Ga0 V4 2.673992 1_555
Ga0 V13 2.673992 1_555
Ga0 V6 2.698007 1_655
Ga0 V6 2.698007 1_555
Ga0 V15 2.698007 1_555
Ga0 V15 2.698007 1_655
Ga0 V12 2.709408 1_555
Ga0 V3 2.709408 1_555
Ga0 V9 2.729318 1_555
Ga0 V9 2.729318 1_565
Ga1 V5 2.679008 1_555
Ga1 V14 2.679008 1_555
Ga1 V4 2.679008 1_555
Ga1 V13 2.679008 1_555
Ga1 V7 2.693591 1_655
Ga1 V7 2.693591 1_555
Ga1 V16 2.693591 1_555
Ga1 V16 2.693591 1_655
Ga1 V10 2.700377 1_555
Ga1 V1 2.700377 1_565
Ga1 V1 2.700377 1_555
Ga1 V10 2.700377 1_565
Ga2 V11 2.672076 1_555
Ga2 V11 2.672076 1_565
Ga2 V14 2.673992 1_555
Ga2 V5 2.673992 1_555
Ga2 V8 2.698007 1_555
Ga2 V8 2.698007 1_655
Ga2 V17 2.698007 1_555
Ga2 V17 2.698007 1_655
Ga2 V3 2.709408 1_556
Ga2 V12 2.709408 1_556
Ga2 V2 2.729318 1_565
Ga2 V2 2.729318 1_555
Ga3 V8 2.635267 1_544
Ga3 V17 2.635267 1_554
Ga3 V6 2.635267 1_545
Ga3 V15 2.635267 1_555
Ga3 V2 2.693000 1_554
Ga3 V9 2.693000 1_455
Ga3 V9 2.693000 1_555
Ga3 V2 2.693000 1_454
Ga3 V3 2.698081 1_445
Ga3 V12 2.698081 1_545
Ga3 V3 2.698081 1_455
Ga3 V12 2.698081 1_555
Sn0 V0 2.742168 1_555
Sn0 V0 2.742168 1_455
Sn0 V4 2.747099 1_455
Sn0 V13 2.747099 1_545
Sn0 V4 2.747099 1_445
Sn0 V13 2.747099 1_555
Sn0 V10 2.750308 1_555
Sn0 V10 2.750308 1_455
Sn0 V6 2.755051 1_545
Sn0 V15 2.755051 1_555
Sn0 V16 2.763064 1_555
Sn0 V7 2.763064 1_545
Sn1 V11 2.742168 1_555
Sn1 V11 2.742168 1_455
Sn1 V5 2.747099 1_445
Sn1 V14 2.747099 1_545
Sn1 V5 2.747099 1_455
Sn1 V14 2.747099 1_555
Sn1 V1 2.750308 1_555
Sn1 V1 2.750308 1_455
Sn1 V17 2.755051 1_555
Sn1 V8 2.755051 1_545
Sn1 V16 2.763064 1_555
Sn1 V7 2.763064 1_545
