# generated using pymatgen
data_LuB4Rh
_symmetry_space_group_name_H-M   'P 1'
_cell_length_a   3.50493681
_cell_length_b   5.89648705
_cell_length_c   11.43082674
_cell_angle_alpha   90.00000000
_cell_angle_beta   90.00000000
_cell_angle_gamma   90.00000000
_symmetry_Int_Tables_number   1
_chemical_formula_structural   LuB4Rh
_chemical_formula_sum   'Lu4 B16 Rh4'
_cell_volume   236.23877595
_cell_formula_units_Z   4
loop_
 _symmetry_equiv_pos_site_id
 _symmetry_equiv_pos_as_xyz
  1  'x, y, z'
loop_
 _atom_site_type_symbol
 _atom_site_label
 _atom_site_symmetry_multiplicity
 _atom_site_fract_x
 _atom_site_fract_y
 _atom_site_fract_z
 _atom_site_occupancy
  Lu  Lu0  1  0.50000000  0.36826826  0.14867764  1
  Lu  Lu1  1  0.50000000  0.63173174  0.85132236  1
  Lu  Lu2  1  0.50000000  0.13173174  0.64867764  1
  Lu  Lu3  1  0.50000000  0.86826826  0.35132236  1
  B  B0  1  -0.00000000  0.11319937  0.04764399  1
  B  B1  1  0.00000000  0.88680063  0.95235601  1
  B  B2  1  -0.00000000  0.38680063  0.54764399  1
  B  B3  1  -0.00000000  0.61319937  0.45235601  1
  B  B4  1  -0.00000000  0.13502570  0.46972949  1
  B  B5  1  -0.00000000  0.86497430  0.53027051  1
  B  B6  1  -0.00000000  0.36497430  0.96972949  1
  B  B7  1  -0.00000000  0.63502570  0.03027051  1
  B  B8  1  -0.00000000  0.02207807  0.19349684  1
  B  B9  1  -0.00000000  0.97792193  0.80650316  1
  B  B10  1  -0.00000000  0.47792193  0.69349684  1
  B  B11  1  -0.00000000  0.52207807  0.30650316  1
  B  B12  1  0.00000000  0.20719622  0.31277302  1
  B  B13  1  0.00000000  0.79280378  0.68722698  1
  B  B14  1  -0.00000000  0.29280378  0.81277302  1
  B  B15  1  -0.00000000  0.70719622  0.18722698  1
  Rh  Rh0  1  0.50000000  0.35707442  0.40475666  1
  Rh  Rh1  1  0.50000000  0.64292558  0.59524334  1
  Rh  Rh2  1  0.50000000  0.14292558  0.90475666  1
  Rh  Rh3  1  0.50000000  0.85707442  0.09524334  1
loop_
_geom_bond_atom_site_label_1
_geom_bond_atom_site_label_2
_geom_bond_distance
_geom_bond_site_symmetry_2
Lu0 Rh0 2.927939 1_555
Lu0 Rh3 2.946248 1_555
Lu0 Rh3 3.075510 1_545
Lu0 Rh2 3.088638 1_554
Lu1 Rh1 2.927939 1_555
Lu1 Rh2 2.946248 1_555
Lu1 Rh2 3.075510 1_565
Lu1 Rh3 3.088638 1_556
Lu2 Rh2 2.927939 1_555
Lu2 Rh1 2.946248 1_545
Lu2 Rh1 3.075510 1_555
Lu2 Rh0 3.088638 1_555
Lu3 Rh3 2.927939 1_555
Lu3 Rh0 2.946248 1_565
Lu3 Rh0 3.075510 1_555
Lu3 Rh1 3.088638 1_555
B0 B1 1.722937 1_544
B0 B6 1.731247 1_554
B0 B8 1.751658 1_555
B0 Rh3 2.376554 1_445
B0 Rh3 2.376554 1_545
B0 Rh2 2.402000 1_454
B0 Rh2 2.402000 1_554
B0 Lu0 2.582050 1_555
B0 Lu0 2.582050 1_455
B1 B7 1.731247 1_556
B1 B9 1.751658 1_555
B1 Rh2 2.376554 1_565
B1 Rh2 2.376554 1_465
B1 Rh3 2.402000 1_556
B1 Rh3 2.402000 1_456
B1 Lu1 2.582050 1_455
B1 Lu1 2.582050 1_555
B2 B3 1.722937 1_555
B2 B4 1.731247 1_555
B2 Rh1 2.376554 1_455
B2 Rh1 2.376554 1_555
B2 Rh0 2.402000 1_555
B2 Rh0 2.402000 1_455
B2 Lu2 2.582050 1_555
B2 Lu2 2.582050 1_455
B3 B5 1.731247 1_555
B3 Rh0 2.376554 1_555
B3 Rh0 2.376554 1_455
B3 Rh1 2.402000 1_455
B3 Rh1 2.402000 1_555
B3 Lu3 2.582050 1_455
B3 Lu3 2.582050 1_555
B4 B5 1.736233 1_545
B4 Rh0 2.310200 1_455
B4 Rh0 2.310200 1_555
B4 Lu2 2.693640 1_555
B4 Lu2 2.693640 1_455
B4 Lu3 2.716100 1_545
B4 Lu3 2.716100 1_445
B5 Rh1 2.310200 1_555
B5 Rh1 2.310200 1_455
B5 Lu3 2.693640 1_455
B5 Lu3 2.693640 1_555
B5 Lu2 2.716100 1_465
B5 Lu2 2.716100 1_565
B6 B7 1.736233 1_556
B6 Rh2 2.310200 1_455
B6 Rh2 2.310200 1_555
B6 Lu0 2.693640 1_556
B6 Lu0 2.693640 1_456
B6 Lu1 2.716100 1_455
B6 Lu1 2.716100 1_555
B7 Rh3 2.310200 1_555
B7 Rh3 2.310200 1_455
B7 Lu1 2.693640 1_454
B7 Lu1 2.693640 1_554
B7 Lu0 2.716100 1_455
B7 Lu0 2.716100 1_555
B8 Rh3 2.297642 1_545
B8 Rh3 2.297642 1_445
B8 Lu3 2.673644 1_545
B8 Lu3 2.673644 1_445
B8 Lu0 2.738713 1_455
B8 Lu0 2.738713 1_555
B9 Rh2 2.297642 1_565
B9 Rh2 2.297642 1_465
B9 Lu2 2.673644 1_565
B9 Lu2 2.673644 1_465
B9 Lu1 2.738713 1_555
B9 Lu1 2.738713 1_455
B10 B14 1.746540 1_555
B10 B2 1.751658 1_555
B10 B13 1.858079 1_555
B10 Rh1 2.297642 1_455
B10 Rh1 2.297642 1_555
B10 Lu1 2.673644 1_455
B10 Lu1 2.673644 1_555
B10 Lu2 2.738713 1_455
B10 Lu2 2.738713 1_555
B11 B15 1.746540 1_555
B11 B3 1.751658 1_555
B11 B12 1.858079 1_555
B11 Rh0 2.297642 1_555
B11 Rh0 2.297642 1_455
B11 Lu0 2.673644 1_455
B11 Lu0 2.673644 1_555
B11 Lu3 2.738713 1_555
B11 Lu3 2.738713 1_455
B12 B8 1.746540 1_555
B12 B4 1.843920 1_555
B12 Rh0 2.226592 1_555
B12 Rh0 2.226592 1_455
B12 Lu3 2.694301 1_545
B12 Lu3 2.694301 1_445
B12 Lu0 2.737081 1_555
B12 Lu0 2.737081 1_455
B13 B9 1.746540 1_555
B13 B5 1.843920 1_555
B13 Rh1 2.226592 1_555
B13 Rh1 2.226592 1_455
B13 Lu2 2.694301 1_465
B13 Lu2 2.694301 1_565
B13 Lu1 2.737081 1_555
B13 Lu1 2.737081 1_455
B14 B6 1.843920 1_555
B14 B9 1.858079 1_545
B14 Rh2 2.226592 1_555
B14 Rh2 2.226592 1_455
B14 Lu1 2.694301 1_455
B14 Lu1 2.694301 1_555
B14 Lu2 2.737081 1_455
B14 Lu2 2.737081 1_555
B15 B7 1.843920 1_555
B15 B8 1.858079 1_565
B15 Rh3 2.226592 1_555
B15 Rh3 2.226592 1_455
B15 Lu0 2.694301 1_455
B15 Lu0 2.694301 1_555
B15 Lu3 2.737081 1_455
B15 Lu3 2.737081 1_555
Rh0 Rh1 2.753567 1_555
Rh2 Rh3 2.753567 1_546
