# generated using pymatgen
data_Mg14MnCdO16
_symmetry_space_group_name_H-M   'P 1'
_cell_length_a   8.63578100
_cell_length_b   8.63578100
_cell_length_c   4.32599300
_cell_angle_alpha   90.00000000
_cell_angle_beta   90.00000000
_cell_angle_gamma   90.00000000
_symmetry_Int_Tables_number   1
_chemical_formula_structural   Mg14MnCdO16
_chemical_formula_sum   'Mg14 Mn1 Cd1 O16'
_cell_volume   322.61834048
_cell_formula_units_Z   1
loop_
 _symmetry_equiv_pos_site_id
 _symmetry_equiv_pos_as_xyz
  1  'x, y, z'
loop_
 _atom_site_type_symbol
 _atom_site_label
 _atom_site_symmetry_multiplicity
 _atom_site_fract_x
 _atom_site_fract_y
 _atom_site_fract_z
 _atom_site_occupancy
  Mg  Mg0  1  0.50000000  0.00000000  0.00000000  1
  Mg  Mg1  1  0.00000000  0.50000000  0.00000000  1
  Mg  Mg2  1  0.25150600  0.00000000  0.50000000  1
  Mg  Mg3  1  0.74849400  0.00000000  0.50000000  1
  Mg  Mg4  1  0.24522200  0.50000000  0.50000000  1
  Mg  Mg5  1  0.75477800  0.50000000  0.50000000  1
  Mg  Mg6  1  0.00000000  0.25150600  0.50000000  1
  Mg  Mg7  1  0.50000000  0.24522200  0.50000000  1
  Mg  Mg8  1  0.00000000  0.74849400  0.50000000  1
  Mg  Mg9  1  0.50000000  0.75477800  0.50000000  1
  Mg  Mg10  1  0.24861200  0.24861200  0.00000000  1
  Mg  Mg11  1  0.75138800  0.24861200  0.00000000  1
  Mg  Mg12  1  0.24861200  0.75138800  0.00000000  1
  Mg  Mg13  1  0.75138800  0.75138800  0.00000000  1
  Mn  Mn0  1  0.00000000  0.00000000  0.00000000  1
  Cd  Cd0  1  0.50000000  0.50000000  0.00000000  1
  O  O0  1  0.00000000  0.25477700  0.00000000  1
  O  O1  1  0.50000000  0.23557300  0.00000000  1
  O  O2  1  0.00000000  0.74522300  0.00000000  1
  O  O3  1  0.50000000  0.76442700  0.00000000  1
  O  O4  1  0.25039500  0.25039500  0.50000000  1
  O  O5  1  0.74960500  0.25039500  0.50000000  1
  O  O6  1  0.25039500  0.74960500  0.50000000  1
  O  O7  1  0.74960500  0.74960500  0.50000000  1
  O  O8  1  0.00000000  0.00000000  0.50000000  1
  O  O9  1  0.50000000  0.00000000  0.50000000  1
  O  O10  1  0.00000000  0.50000000  0.50000000  1
  O  O11  1  0.50000000  0.50000000  0.50000000  1
  O  O12  1  0.25477700  0.00000000  0.00000000  1
  O  O13  1  0.74522300  0.00000000  0.00000000  1
  O  O14  1  0.23557300  0.50000000  0.00000000  1
  O  O15  1  0.76442700  0.50000000  0.00000000  1
loop_
_geom_bond_atom_site_label_1
_geom_bond_atom_site_label_2
_geom_bond_distance
_geom_bond_site_symmetry_2
Mg0 O1 2.034357 1_555
Mg0 O3 2.034357 1_545
Mg0 O13 2.117692 1_555
Mg0 O12 2.117692 1_555
Mg0 O9 2.162997 1_554
Mg0 O9 2.162997 1_555
Mg1 O14 2.034357 1_555
Mg1 O15 2.034357 1_455
Mg1 O2 2.117692 1_555
Mg1 O0 2.117692 1_555
Mg1 O10 2.162997 1_555
Mg1 O10 2.162997 1_554
Mg2 O9 2.145940 1_555
Mg2 O4 2.162378 1_555
Mg2 O6 2.162378 1_545
Mg2 O12 2.163181 1_556
Mg2 O12 2.163181 1_555
Mg2 O8 2.171951 1_555
Mg3 O9 2.145940 1_555
Mg3 O5 2.162378 1_555
Mg3 O7 2.162378 1_545
Mg3 O13 2.163181 1_555
Mg3 O13 2.163181 1_556
Mg3 O8 2.171951 1_655
Mg4 O10 2.117683 1_555
Mg4 O6 2.155997 1_555
Mg4 O4 2.155997 1_555
Mg4 O14 2.164601 1_556
Mg4 O14 2.164601 1_555
Mg4 O11 2.200207 1_555
Mg5 O10 2.117683 1_655
Mg5 O7 2.155997 1_555
Mg5 O5 2.155997 1_555
Mg5 O15 2.164601 1_556
Mg5 O15 2.164601 1_555
Mg5 O11 2.200207 1_555
Mg6 O10 2.145940 1_555
Mg6 O4 2.162378 1_555
Mg6 O5 2.162378 1_455
Mg6 O0 2.163181 1_555
Mg6 O0 2.163181 1_556
Mg6 O8 2.171951 1_555
Mg7 O9 2.117683 1_555
Mg7 O5 2.155997 1_555
Mg7 O4 2.155997 1_555
Mg7 O1 2.164601 1_556
Mg7 O1 2.164601 1_555
Mg7 O11 2.200207 1_555
Mg8 O10 2.145940 1_555
Mg8 O6 2.162378 1_555
Mg8 O7 2.162378 1_455
Mg8 O2 2.163181 1_556
Mg8 O2 2.163181 1_555
Mg8 O8 2.171951 1_565
Mg9 O9 2.117683 1_565
Mg9 O7 2.155997 1_555
Mg9 O6 2.155997 1_555
Mg9 O3 2.164601 1_556
Mg9 O3 2.164601 1_555
Mg9 O11 2.200207 1_555
Mg10 O0 2.147619 1_555
Mg10 O12 2.147619 1_555
Mg10 O4 2.163106 1_554
Mg10 O4 2.163106 1_555
Mg10 O1 2.173850 1_555
Mg10 O14 2.173850 1_555
Mg11 O13 2.147619 1_555
Mg11 O0 2.147619 1_655
Mg11 O5 2.163106 1_555
Mg11 O5 2.163106 1_554
Mg11 O1 2.173850 1_555
Mg11 O15 2.173850 1_555
Mg12 O2 2.147619 1_555
Mg12 O12 2.147619 1_565
Mg12 O6 2.163106 1_555
Mg12 O6 2.163106 1_554
Mg12 O3 2.173850 1_555
Mg12 O14 2.173850 1_555
Mg13 O13 2.147619 1_565
Mg13 O2 2.147619 1_655
Mg13 O7 2.163106 1_555
Mg13 O7 2.163106 1_554
Mg13 O15 2.173850 1_555
Mg13 O3 2.173850 1_555
Mn0 O8 2.162997 1_555
Mn0 O8 2.162997 1_554
Mn0 O0 2.200198 1_555
Mn0 O12 2.200198 1_555
Mn0 O13 2.200198 1_455
Mn0 O2 2.200198 1_545
Cd0 O11 2.162997 1_555
Cd0 O11 2.162997 1_554
Cd0 O15 2.283534 1_555
Cd0 O3 2.283534 1_555
Cd0 O14 2.283534 1_555
Cd0 O1 2.283534 1_555
