# generated using pymatgen
data_Sr2AlTlCo2O7
_symmetry_space_group_name_H-M   'P 1'
_cell_length_a   3.68956500
_cell_length_b   3.68956500
_cell_length_c   12.54571100
_cell_angle_alpha   90.00000000
_cell_angle_beta   90.00000000
_cell_angle_gamma   90.00000000
_symmetry_Int_Tables_number   1
_chemical_formula_structural   Sr2AlTlCo2O7
_chemical_formula_sum   'Sr2 Al1 Tl1 Co2 O7'
_cell_volume   170.78338243
_cell_formula_units_Z   1
loop_
 _symmetry_equiv_pos_site_id
 _symmetry_equiv_pos_as_xyz
  1  'x, y, z'
loop_
 _atom_site_type_symbol
 _atom_site_label
 _atom_site_symmetry_multiplicity
 _atom_site_fract_x
 _atom_site_fract_y
 _atom_site_fract_z
 _atom_site_occupancy
  Sr  Sr0  1  0.50000000  0.50000000  0.79172400  1
  Sr  Sr1  1  0.50000000  0.50000000  0.20827600  1
  Al  Al0  1  0.50000000  0.50000000  0.50000000  1
  Tl  Tl0  1  0.00000000  0.00000000  0.00000000  1
  Co  Co0  1  0.00000000  0.00000000  0.63771200  1
  Co  Co1  1  0.00000000  0.00000000  0.36228800  1
  O  O0  1  0.50000000  0.00000000  0.59667300  1
  O  O1  1  0.00000000  0.50000000  0.59667300  1
  O  O2  1  0.50000000  0.00000000  0.40332700  1
  O  O3  1  0.00000000  0.50000000  0.40332700  1
  O  O4  1  0.00000000  0.00000000  0.79820500  1
  O  O5  1  0.00000000  0.00000000  0.20179500  1
  O  O6  1  0.50000000  0.50000000  0.00000000  1
loop_
_geom_bond_atom_site_label_1
_geom_bond_atom_site_label_2
_geom_bond_distance
_geom_bond_site_symmetry_2
Al0 O0 2.207755 1_565
Al0 O1 2.207755 1_655
Al0 O2 2.207755 1_555
Al0 O3 2.207755 1_555
Al0 O3 2.207755 1_655
Al0 O2 2.207755 1_565
Al0 O1 2.207755 1_555
Al0 O0 2.207755 1_555
Co0 O1 1.915282 1_555
Co0 O0 1.915282 1_555
Co0 O1 1.915282 1_545
Co0 O0 1.915282 1_455
Co0 O4 2.013499 1_555
Co1 O3 1.915282 1_545
Co1 O2 1.915282 1_455
Co1 O2 1.915282 1_555
Co1 O3 1.915282 1_555
Co1 O5 2.013499 1_555
O4 Tl0 2.531662 1_556
O4 Sr0 2.610183 1_455
O4 Sr0 2.610183 1_555
O4 Sr0 2.610183 1_445
O4 Sr0 2.610183 1_545
O5 Tl0 2.531662 1_555
O5 Sr1 2.610183 1_555
O5 Sr1 2.610183 1_455
O5 Sr1 2.610183 1_445
O5 Sr1 2.610183 1_545
O6 Tl0 2.608916 1_555
O6 Tl0 2.608916 1_565
O6 Tl0 2.608916 1_655
O6 Tl0 2.608916 1_665
O6 Sr1 2.612971 1_555
O6 Sr0 2.612971 1_554
