# generated using pymatgen
data_HfMg6BO7
_symmetry_space_group_name_H-M   'P 1'
_cell_length_a   8.89628863
_cell_length_b   4.29637838
_cell_length_c   4.29637838
_cell_angle_alpha   90.00000000
_cell_angle_beta   90.00000000
_cell_angle_gamma   90.00000000
_symmetry_Int_Tables_number   1
_chemical_formula_structural   HfMg6BO7
_chemical_formula_sum   'Hf1 Mg6 B1 O7'
_cell_volume   164.21541025
_cell_formula_units_Z   1
loop_
 _symmetry_equiv_pos_site_id
 _symmetry_equiv_pos_as_xyz
  1  'x, y, z'
loop_
 _atom_site_type_symbol
 _atom_site_label
 _atom_site_symmetry_multiplicity
 _atom_site_fract_x
 _atom_site_fract_y
 _atom_site_fract_z
 _atom_site_occupancy
  Hf  Hf0  1  0.49385441  0.00000000  -0.00000000  1
  Mg  Mg0  1  0.99678963  0.50000000  0.50000000  1
  Mg  Mg1  1  0.49462067  0.50000000  0.50000000  1
  Mg  Mg2  1  0.22552902  0.00000000  0.50000000  1
  Mg  Mg3  1  0.76941127  0.00000000  0.50000000  1
  Mg  Mg4  1  0.22552902  0.50000000  0.00000000  1
  Mg  Mg5  1  0.76941127  0.50000000  -0.00000000  1
  B  B0  1  0.04340452  0.00000000  -0.00000000  1
  O  O0  1  0.72961393  0.00000000  -0.00000000  1
  O  O1  1  0.24711313  0.50000000  0.50000000  1
  O  O2  1  0.75024799  0.50000000  0.50000000  1
  O  O3  1  0.99831167  0.00000000  0.50000000  1
  O  O4  1  0.50392590  0.00000000  0.50000000  1
  O  O5  1  0.99831167  0.50000000  0.00000000  1
  O  O6  1  0.50392590  0.50000000  0.00000000  1
loop_
_geom_bond_atom_site_label_1
_geom_bond_atom_site_label_2
_geom_bond_distance
_geom_bond_site_symmetry_2
Hf0 O0 2.097385 1_555
Hf0 O6 2.150057 1_555
Hf0 O4 2.150057 1_555
Hf0 O4 2.150057 1_554
Hf0 O6 2.150057 1_545
Mg0 O3 2.148232 1_555
Mg0 O3 2.148232 1_565
Mg0 O5 2.148232 1_556
Mg0 O5 2.148232 1_555
Mg0 O2 2.193306 1_555
Mg0 O1 2.226950 1_655
Mg1 O4 2.149784 1_555
Mg1 O4 2.149784 1_565
Mg1 O6 2.149784 1_556
Mg1 O6 2.149784 1_555
Mg1 O1 2.201899 1_555
Mg1 O2 2.274134 1_555
Mg2 O3 2.021391 1_455
Mg2 O1 2.156754 1_555
Mg2 O1 2.156754 1_545
Mg2 O4 2.476699 1_555
Mg3 O3 2.036364 1_555
Mg3 O2 2.154943 1_555
Mg3 O2 2.154943 1_545
Mg3 O0 2.177170 1_555
Mg3 O0 2.177170 1_556
Mg3 O4 2.361834 1_555
Mg4 O5 2.021391 1_455
Mg4 O1 2.156754 1_555
Mg4 O1 2.156754 1_554
Mg4 O6 2.476699 1_555
Mg5 O5 2.036364 1_555
Mg5 O2 2.154943 1_555
Mg5 O2 2.154943 1_554
Mg5 O0 2.177170 1_565
Mg5 O0 2.177170 1_555
Mg5 O6 2.361834 1_555
B0 O5 2.185325 1_455
B0 O5 2.185325 1_445
B0 O3 2.185325 1_454
B0 O3 2.185325 1_455
