# generated using pymatgen
data_Sr6Ca2Mn3(FeO4)5
_symmetry_space_group_name_H-M   'P 1'
_cell_length_a   11.14777223
_cell_length_b   11.30635639
_cell_length_c   17.68457499
_cell_angle_alpha   108.62772581
_cell_angle_beta   108.58478133
_cell_angle_gamma   89.78884918
_symmetry_Int_Tables_number   1
_chemical_formula_structural   Sr6Ca2Mn3(FeO4)5
_chemical_formula_sum   'Sr24 Ca8 Mn12 Fe20 O80'
_cell_volume   1990.08291905
_cell_formula_units_Z   4
loop_
 _symmetry_equiv_pos_site_id
 _symmetry_equiv_pos_as_xyz
  1  'x, y, z'
loop_
 _atom_site_type_symbol
 _atom_site_label
 _atom_site_symmetry_multiplicity
 _atom_site_fract_x
 _atom_site_fract_y
 _atom_site_fract_z
 _atom_site_occupancy
  Sr  Sr0  1  0.30773600  0.05900900  0.60832300  1
  Sr  Sr1  1  0.30794100  0.55919100  0.60892600  1
  Sr  Sr2  1  0.80795800  0.05973600  0.60914700  1
  Sr  Sr3  1  0.80861500  0.55869700  0.61001400  1
  Sr  Sr4  1  0.19566000  0.43536200  0.38915600  1
  Sr  Sr5  1  0.19974800  0.44179400  0.89336500  1
  Sr  Sr6  1  0.19749400  0.93788800  0.38900600  1
  Sr  Sr7  1  0.69738600  0.43815800  0.38970400  1
  Sr  Sr8  1  0.70057100  0.44214400  0.89342700  1
  Sr  Sr9  1  0.69763000  0.93930100  0.38921700  1
  Sr  Sr10  1  0.70053600  0.94090600  0.89364100  1
  Sr  Sr11  1  0.05655900  0.29399800  0.10976600  1
  Sr  Sr12  1  0.05798200  0.29944400  0.60860300  1
  Sr  Sr13  1  0.05852700  0.80094200  0.60993900  1
  Sr  Sr14  1  0.55750600  0.29949900  0.60817900  1
  Sr  Sr15  1  0.55702400  0.80017600  0.11021100  1
  Sr  Sr16  1  0.55791500  0.80029800  0.60842800  1
  Sr  Sr17  1  0.44572700  0.19879800  0.38777300  1
  Sr  Sr18  1  0.45003500  0.20222600  0.89351400  1
  Sr  Sr19  1  0.44397600  0.69912600  0.38685500  1
  Sr  Sr20  1  0.44943200  0.70201700  0.89360700  1
  Sr  Sr21  1  0.94616200  0.19772600  0.38606200  1
  Sr  Sr22  1  0.95000100  0.20139900  0.89322200  1
  Sr  Sr23  1  0.94557800  0.70154900  0.38817300  1
  Ca  Ca0  1  0.30177500  0.06320000  0.10411500  1
  Ca  Ca1  1  0.30039000  0.56397800  0.10547600  1
  Ca  Ca2  1  0.80454900  0.06164300  0.10577400  1
  Ca  Ca3  1  0.80060500  0.56672200  0.10456600  1
  Ca  Ca4  1  0.20283700  0.93957700  0.89810100  1
  Ca  Ca5  1  0.05659600  0.78867500  0.10394100  1
  Ca  Ca6  1  0.55379500  0.28832300  0.10397900  1
  Ca  Ca7  1  0.95359600  0.70913100  0.89786500  1
  Mn  Mn0  1  0.11384500  0.09516000  0.75374600  1
  Mn  Mn1  1  0.11071300  0.60232200  0.75352700  1
  Mn  Mn2  1  0.60688900  0.09547300  0.24678400  1
  Mn  Mn3  1  0.61334500  0.09657000  0.75202800  1
  Mn  Mn4  1  0.61597900  0.59827400  0.75179400  1
  Mn  Mn5  1  0.35903800  0.40128600  0.24629800  1
  Mn  Mn6  1  0.36336700  0.40540200  0.75217700  1
  Mn  Mn7  1  0.35220200  0.90427300  0.24471500  1
  Mn  Mn8  1  0.36016500  0.90507100  0.75332700  1
  Mn  Mn9  1  0.86418300  0.40871100  0.75358800  1
  Mn  Mn10  1  0.86104500  0.89946800  0.24684300  1
  Mn  Mn11  1  0.86631600  0.90003800  0.75221500  1
  Fe  Fe0  1  0.00759700  0.00017100  0.00310400  1
  Fe  Fe1  1  0.00328200  0.00014100  0.49926700  1
  Fe  Fe2  1  0.00550900  0.50257600  0.00292200  1
  Fe  Fe3  1  0.00300700  0.50016200  0.50007200  1
  Fe  Fe4  1  0.50523900  0.00177100  0.00298800  1
  Fe  Fe5  1  0.50274200  0.00025400  0.49922400  1
  Fe  Fe6  1  0.50761400  0.50284100  0.00635900  1
  Fe  Fe7  1  0.50312100  0.50078500  0.49937500  1
  Fe  Fe8  1  0.25614900  0.25190700  0.00312300  1
  Fe  Fe9  1  0.25380300  0.24993600  0.50020000  1
  Fe  Fe10  1  0.25431700  0.75215500  0.00229600  1
  Fe  Fe11  1  0.25265300  0.74993500  0.49997600  1
  Fe  Fe12  1  0.75670500  0.25260200  0.00537400  1
  Fe  Fe13  1  0.75284100  0.24972100  0.49926200  1
  Fe  Fe14  1  0.75763000  0.75256500  0.00341500  1
  Fe  Fe15  1  0.75382100  0.75005300  0.50017500  1
  Fe  Fe16  1  0.10677200  0.08257700  0.24396300  1
  Fe  Fe17  1  0.10398400  0.58834000  0.24570800  1
  Fe  Fe18  1  0.60471900  0.58431500  0.24446800  1
  Fe  Fe19  1  0.85096500  0.40700600  0.24428400  1
  O  O0  1  0.12444600  0.12365500  0.49334600  1
  O  O1  1  0.12778900  0.11761000  0.99036600  1
  O  O2  1  0.12285200  0.62190200  0.49205100  1
  O  O3  1  0.12139900  0.62553800  0.99135500  1
  O  O4  1  0.62483900  0.12386300  0.49511700  1
  O  O5  1  0.62691000  0.12661600  0.99840000  1
  O  O6  1  0.62431800  0.62350700  0.49272300  1
  O  O7  1  0.62739100  0.62226400  0.99425600  1
  O  O8  1  0.13657600  0.38334700  0.01280600  1
  O  O9  1  0.12943600  0.37586000  0.50384100  1
  O  O10  1  0.13417700  0.87895200  0.01153800  1
  O  O11  1  0.12928600  0.87573000  0.50353700  1
  O  O12  1  0.63658700  0.38108500  0.01705800  1
  O  O13  1  0.62960500  0.37706000  0.50420300  1
  O  O14  1  0.63618600  0.88127900  0.01056700  1
  O  O15  1  0.62840500  0.87531700  0.50226400  1
  O  O16  1  0.37405100  0.12143500  0.49345800  1
  O  O17  1  0.37509700  0.12089500  0.99482900  1
  O  O18  1  0.37346400  0.62183600  0.49316300  1
  O  O19  1  0.37494000  0.62086600  0.99731400  1
  O  O20  1  0.87511100  0.12190000  0.49498900  1
  O  O21  1  0.87622700  0.11951700  0.99533400  1
  O  O22  1  0.87340900  0.62000700  0.49128200  1
  O  O23  1  0.87950300  0.62461800  0.99566900  1
  O  O24  1  0.38780500  0.38415800  0.01652500  1
  O  O25  1  0.37982700  0.37829400  0.50414200  1
  O  O26  1  0.37944300  0.88528800  0.00974000  1
  O  O27  1  0.37981600  0.87782500  0.50429400  1
  O  O28  1  0.88236000  0.38724000  0.01460600  1
  O  O29  1  0.87896500  0.37738500  0.50255900  1
  O  O30  1  0.88797900  0.88256100  0.01389700  1
  O  O31  1  0.88004600  0.87825800  0.50469800  1
  O  O32  1  0.09670900  0.09515600  0.13873700  1
  O  O33  1  0.07875200  0.08040400  0.63777700  1
  O  O34  1  0.09132000  0.60359300  0.14028000  1
  O  O35  1  0.07056400  0.58322700  0.63596500  1
  O  O36  1  0.58007800  0.09156200  0.13559900  1
  O  O37  1  0.57525500  0.08276600  0.63626500  1
  O  O38  1  0.59298900  0.60088200  0.14027600  1
  O  O39  1  0.57560400  0.58454900  0.63579600  1
  O  O40  1  0.43850200  0.41943500  0.36156500  1
  O  O41  1  0.44101000  0.41516900  0.86734000  1
  O  O42  1  0.43346900  0.92134400  0.36033700  1
  O  O43  1  0.44439100  0.91681500  0.86736500  1
  O  O44  1  0.93549800  0.40734800  0.35551900  1
  O  O45  1  0.93999400  0.41246600  0.86715000  1
  O  O46  1  0.93929200  0.91951600  0.36308900  1
  O  O47  1  0.94489400  0.90660400  0.86654300  1
  O  O48  1  0.32714300  0.28870700  0.13601800  1
  O  O49  1  0.32526600  0.30307800  0.63629900  1
  O  O50  1  0.32484700  0.79085900  0.13537500  1
  O  O51  1  0.32083000  0.80350100  0.63686200  1
  O  O52  1  0.83523300  0.28108700  0.14110100  1
  O  O53  1  0.82904400  0.30813300  0.63763100  1
  O  O54  1  0.82866200  0.78953100  0.13549600  1
  O  O55  1  0.82560900  0.80132300  0.63525400  1
  O  O56  1  0.19033000  0.19505000  0.35557800  1
  O  O57  1  0.19212500  0.20534600  0.86689900  1
  O  O58  1  0.18538200  0.70092200  0.35663200  1
  O  O59  1  0.19353200  0.70919100  0.86710200  1
  O  O60  1  0.68259800  0.19511500  0.36237900  1
  O  O61  1  0.69016500  0.20102600  0.86757100  1
  O  O62  1  0.68822100  0.69776400  0.35520700  1
  O  O63  1  0.69726300  0.70087600  0.86659400  1
  O  O64  1  0.43021100  0.05875000  0.23898600  1
  O  O65  1  0.44098700  0.06135100  0.75141800  1
  O  O66  1  0.43028200  0.55645700  0.23893900  1
  O  O67  1  0.44470100  0.56408700  0.75226400  1
  O  O68  1  0.93421800  0.05655200  0.23904100  1
  O  O69  1  0.94229100  0.06209800  0.75212300  1
  O  O70  1  0.92499400  0.55902600  0.23852100  1
  O  O71  1  0.94099600  0.57547500  0.76020500  1
  O  O72  1  0.18189400  0.43635200  0.24814900  1
  O  O73  1  0.19169000  0.44311800  0.75202200  1
  O  O74  1  0.17424400  0.92225100  0.24054200  1
  O  O75  1  0.19040000  0.93360300  0.76000800  1
  O  O76  1  0.67331500  0.42446900  0.24008100  1
  O  O77  1  0.69151100  0.43639200  0.75092800  1
  O  O78  1  0.69080100  0.94085200  0.24855500  1
  O  O79  1  0.69524300  0.93866000  0.75202200  1
loop_
_geom_bond_atom_site_label_1
_geom_bond_atom_site_label_2
_geom_bond_distance
_geom_bond_site_symmetry_2
Ca0 O64 2.375028 1_555
Ca0 O48 2.425637 1_555
Ca0 O26 2.518924 1_545
Ca0 O10 2.531969 1_545
Ca0 O32 2.544822 1_555
Ca0 O1 2.545915 1_554
Ca0 O17 2.577815 1_554
Ca0 O36 2.971581 1_555
Ca1 O66 2.371397 1_555
Ca1 O50 2.445594 1_555
Ca1 O8 2.484599 1_555
Ca1 O24 2.545004 1_555
Ca1 O19 2.562489 1_554
Ca1 O34 2.596539 1_555
Ca1 O3 2.619007 1_554
Ca2 O52 2.354365 1_555
Ca2 O68 2.358334 1_555
Ca2 O14 2.517250 1_545
Ca2 O30 2.540150 1_545
Ca2 O5 2.559371 1_554
Ca2 O21 2.587706 1_554
Ca2 O36 2.715780 1_555
Ca3 O70 2.362034 1_555
Ca3 O54 2.399928 1_555
Ca3 O12 2.508588 1_555
Ca3 O7 2.510199 1_554
Ca3 O28 2.515505 1_555
Ca3 O38 2.583397 1_555
Ca3 O23 2.607681 1_554
Ca4 O75 2.380460 1_555
Ca4 O59 2.479901 1_555
Ca4 O1 2.484669 1_565
Ca4 O26 2.537379 1_556
Ca4 O17 2.551734 1_565
Ca4 O10 2.634597 1_556
Ca4 O47 2.751538 1_455
Ca4 O43 2.907110 1_555
Ca5 O74 2.345440 1_555
Ca5 O34 2.374106 1_555
Ca5 O23 2.520494 1_454
Ca5 O30 2.520517 1_455
Ca5 O10 2.536337 1_555
Ca5 O3 2.539516 1_554
Ca5 O54 2.769142 1_455
Ca5 O50 2.860821 1_555
Ca6 O76 2.354152 1_555
Ca6 O36 2.456232 1_555
Ca6 O24 2.494324 1_555
Ca6 O12 2.501207 1_555
Ca6 O5 2.504294 1_554
Ca6 O17 2.553479 1_554
Ca6 O48 2.759702 1_555
Ca6 O52 3.000091 1_555
Ca7 O71 2.379778 1_555
Ca7 O47 2.460773 1_555
Ca7 O3 2.477878 1_655
Ca7 O23 2.561078 1_555
Ca7 O10 2.600662 1_656
Ca7 O30 2.639391 1_556
Ca7 O63 2.727965 1_555
Ca7 O59 2.894486 1_655
Mn0 O57 1.902672 1_555
Mn0 O33 1.912434 1_555
Mn0 O69 1.939441 1_455
Mn0 O75 2.033377 1_545
Mn1 O59 1.903255 1_555
Mn1 O35 1.920978 1_555
Mn1 O71 1.963461 1_455
Mn1 O73 2.007086 1_555
Mn2 O36 1.878142 1_555
Mn2 O60 1.896437 1_555
Mn2 O64 1.966449 1_555
Mn2 O78 1.984053 1_545
Mn3 O37 1.907365 1_555
Mn3 O61 1.911491 1_555
Mn3 O65 1.959635 1_555
Mn3 O79 2.002265 1_545
Mn4 O63 1.902387 1_555
Mn4 O39 1.908776 1_555
Mn4 O67 1.952631 1_555
Mn4 O77 2.009517 1_555
Mn5 O48 1.877651 1_555
Mn5 O40 1.888176 1_555
Mn5 O66 1.986884 1_555
Mn5 O72 2.021159 1_555
Mn6 O41 1.908546 1_555
Mn6 O49 1.911164 1_555
Mn6 O73 1.958553 1_555
Mn6 O67 2.012561 1_555
Mn7 O50 1.875967 1_555
Mn7 O42 1.899292 1_555
Mn7 O74 1.973742 1_555
Mn7 O64 1.999357 1_565
Mn8 O43 1.894525 1_555
Mn8 O51 1.915773 1_555
Mn8 O75 1.952758 1_555
Mn8 O65 2.001070 1_565
Mn9 O45 1.900849 1_555
Mn9 O53 1.911361 1_555
Mn9 O77 1.937184 1_555
Mn9 O71 2.027090 1_555
Mn10 O54 1.881323 1_555
Mn10 O46 1.897147 1_555
Mn10 O78 1.960276 1_555
Mn10 O68 2.019341 1_565
Mn11 O47 1.906925 1_555
Mn11 O55 1.913262 1_555
Mn11 O79 1.954054 1_555
Mn11 O69 2.022104 1_565
Fe0 O10 1.968244 1_545
Fe0 O30 1.979960 1_445
Fe0 O21 1.989975 1_454
Fe0 O1 2.001415 1_554
Fe0 O32 2.176454 1_555
Fe0 O47 2.176554 1_444
Fe1 O20 1.981301 1_455
Fe1 O11 1.985721 1_545
Fe1 O31 1.994545 1_445
Fe1 O0 1.995756 1_555
Fe1 O46 2.155651 1_445
Fe1 O33 2.191652 1_555
Fe2 O23 1.969141 1_454
Fe2 O8 1.988927 1_555
Fe2 O28 1.998502 1_455
Fe2 O3 2.001763 1_554
Fe2 O45 2.159047 1_454
Fe2 O34 2.207870 1_555
Fe3 O22 1.981020 1_455
Fe3 O29 1.983168 1_455
Fe3 O9 1.987807 1_555
Fe3 O2 1.989644 1_555
Fe3 O35 2.152750 1_555
Fe3 O44 2.295285 1_455
Fe4 O17 1.978879 1_554
Fe4 O26 1.983967 1_545
Fe4 O14 1.995518 1_545
Fe4 O5 1.999043 1_554
Fe4 O36 2.112972 1_555
Fe4 O43 2.152043 1_544
Fe5 O16 1.981732 1_555
Fe5 O15 1.986610 1_545
Fe5 O4 1.988207 1_555
Fe5 O27 1.993381 1_545
Fe5 O37 2.170170 1_555
Fe5 O42 2.195726 1_545
Fe6 O24 1.984227 1_555
Fe6 O19 1.991183 1_554
Fe6 O12 1.994101 1_555
Fe6 O7 2.007964 1_554
Fe6 O38 2.153422 1_555
Fe6 O41 2.205245 1_554
Fe7 O13 1.984268 1_555
Fe7 O18 1.988633 1_555
Fe7 O25 1.994173 1_555
Fe7 O6 1.995974 1_555
Fe7 O39 2.161862 1_555
Fe7 O40 2.181340 1_555
Fe8 O17 1.986116 1_554
Fe8 O8 1.995740 1_555
Fe8 O1 1.998856 1_554
Fe8 O24 2.003531 1_555
Fe8 O48 2.124857 1_555
Fe8 O57 2.164887 1_554
Fe9 O16 1.974554 1_555
Fe9 O0 1.981396 1_555
Fe9 O9 1.984218 1_555
Fe9 O25 1.993162 1_555
Fe9 O49 2.155480 1_555
Fe9 O56 2.294072 1_555
Fe10 O10 1.962486 1_555
Fe10 O3 1.984525 1_554
Fe10 O19 1.999155 1_554
Fe10 O26 2.000156 1_555
Fe10 O50 2.124509 1_555
Fe10 O59 2.153860 1_554
Fe11 O11 1.975293 1_555
Fe11 O18 1.975743 1_555
Fe11 O2 1.991357 1_555
Fe11 O27 1.995438 1_555
Fe11 O51 2.167628 1_555
Fe11 O58 2.278042 1_555
Fe12 O12 1.978959 1_555
Fe12 O5 1.981679 1_554
Fe12 O28 2.004316 1_555
Fe12 O21 2.009057 1_554
Fe12 O61 2.184554 1_554
Fe12 O52 2.190951 1_555
Fe13 O20 1.983312 1_555
Fe13 O4 1.986982 1_555
Fe13 O13 1.987310 1_555
Fe13 O29 1.993145 1_555
Fe13 O60 2.166741 1_555
Fe13 O53 2.189140 1_555
Fe14 O23 1.983642 1_554
Fe14 O14 1.985887 1_555
Fe14 O30 1.994020 1_555
Fe14 O7 2.004497 1_554
Fe14 O54 2.111272 1_555
Fe14 O63 2.170396 1_554
Fe15 O6 1.980445 1_555
Fe15 O22 1.983780 1_555
Fe15 O15 1.986662 1_555
Fe15 O31 1.989163 1_555
Fe15 O55 2.140828 1_555
Fe15 O62 2.301466 1_555
Fe16 O32 1.879247 1_555
Fe16 O56 1.901093 1_555
Fe16 O68 1.917146 1_455
Fe16 O74 1.950435 1_545
Fe17 O34 1.887669 1_555
Fe17 O58 1.889563 1_555
Fe17 O72 1.929168 1_555
Fe17 O70 1.980832 1_455
Fe18 O38 1.874581 1_555
Fe18 O62 1.894489 1_555
Fe18 O66 1.937477 1_555
Fe18 O76 1.948096 1_555
Fe19 O52 1.877654 1_555
Fe19 O44 1.889778 1_555
Fe19 O70 1.954906 1_555
Fe19 O76 1.969560 1_555
O0 Sr21 2.617304 1_455
O0 Sr6 2.636036 1_545
O0 Sr12 2.649071 1_555
O0 Sr0 2.670914 1_555
O1 Sr22 2.575355 1_455
O1 Sr11 2.726403 1_556
O2 Sr23 2.611646 1_455
O2 Sr4 2.625876 1_555
O2 Sr13 2.684124 1_555
O2 Sr1 2.690564 1_555
O3 Sr5 2.594855 1_555
O4 Sr17 2.628163 1_555
O4 Sr14 2.629409 1_555
O4 Sr9 2.641944 1_545
O4 Sr2 2.656804 1_555
O5 Sr18 2.593933 1_555
O5 Sr10 2.643123 1_545
O6 Sr7 2.620793 1_555
O6 Sr19 2.624635 1_555
O6 Sr16 2.659328 1_555
O6 Sr3 2.702577 1_555
O7 Sr8 2.566617 1_555
O7 Sr20 2.584233 1_555
O7 Sr15 2.691693 1_556
O8 Sr11 2.616214 1_555
O8 Sr5 2.690275 1_554
O8 Sr22 2.734748 1_454
O9 Sr12 2.604165 1_555
O9 Sr1 2.631028 1_555
O9 Sr4 2.634527 1_555
O9 Sr21 2.684561 1_455
O11 Sr13 2.616369 1_555
O11 Sr0 2.629243 1_565
O11 Sr23 2.652257 1_455
O11 Sr6 2.658830 1_555
O12 Sr18 2.738631 1_554
O12 Sr8 2.779827 1_554
O13 Sr14 2.602582 1_555
O13 Sr3 2.626080 1_555
O13 Sr7 2.649698 1_555
O13 Sr17 2.681901 1_555
O14 Sr15 2.598904 1_555
O14 Sr10 2.661667 1_554
O14 Sr20 2.707134 1_554
O15 Sr16 2.612359 1_555
O15 Sr9 2.650860 1_555
O15 Sr2 2.651090 1_565
O15 Sr19 2.668157 1_555
O16 Sr6 2.618476 1_545
O16 Sr17 2.626422 1_555
O16 Sr0 2.654805 1_555
O16 Sr14 2.669835 1_555
O17 Sr18 2.601147 1_555
O18 Sr19 2.629168 1_555
O18 Sr4 2.643216 1_555
O18 Sr1 2.666386 1_555
O18 Sr16 2.680645 1_555
O19 Sr5 2.579877 1_555
O19 Sr20 2.635612 1_555
O19 Sr15 2.660417 1_556
O20 Sr9 2.622933 1_545
O20 Sr2 2.646466 1_555
O20 Sr12 2.658033 1_655
O20 Sr21 2.665644 1_555
O21 Sr10 2.571429 1_545
O21 Sr22 2.610487 1_555
O21 Sr11 2.629457 1_656
O22 Sr7 2.593867 1_555
O22 Sr23 2.614703 1_555
O22 Sr3 2.703951 1_555
O22 Sr13 2.715773 1_655
O23 Sr8 2.617794 1_555
O24 Sr18 2.745468 1_554
O24 Sr5 2.747655 1_554
O25 Sr1 2.602399 1_555
O25 Sr14 2.610212 1_555
O25 Sr4 2.633193 1_555
O25 Sr17 2.679188 1_555
O26 Sr15 2.614989 1_555
O26 Sr20 2.722352 1_554
O27 Sr0 2.597927 1_565
O27 Sr16 2.605644 1_555
O27 Sr6 2.642330 1_555
O27 Sr19 2.676306 1_555
O28 Sr11 2.598024 1_655
O28 Sr8 2.675261 1_554
O28 Sr22 2.780323 1_554
O29 Sr7 2.615998 1_555
O29 Sr3 2.622602 1_555
O29 Sr12 2.633117 1_655
O29 Sr21 2.689008 1_555
O30 Sr10 2.716196 1_554
O31 Sr2 2.603964 1_565
O31 Sr13 2.617810 1_655
O31 Sr9 2.650518 1_555
O31 Sr23 2.662805 1_555
O32 Sr11 2.469691 1_555
O33 Sr12 2.681222 1_555
O33 Sr0 2.758332 1_555
O33 Sr2 2.894682 1_455
O33 Sr13 3.036059 1_545
O35 Sr13 2.640286 1_555
O35 Sr3 2.808065 1_455
O35 Sr1 2.832534 1_555
O35 Sr12 3.084938 1_555
O36 Sr15 3.179497 1_545
O37 Sr14 2.646116 1_555
O37 Sr2 2.781273 1_555
O37 Sr0 2.862144 1_555
O37 Sr16 3.069013 1_545
O38 Sr15 2.478621 1_555
O39 Sr16 2.629321 1_555
O39 Sr3 2.775750 1_555
O39 Sr1 2.868246 1_555
O39 Sr14 3.098807 1_555
O40 Sr17 2.675382 1_555
O40 Sr7 2.764618 1_555
O40 Sr4 2.895065 1_555
O40 Sr19 3.047018 1_555
O41 Sr18 2.588711 1_555
O41 Sr8 2.782820 1_555
O41 Sr5 2.868897 1_555
O41 Sr20 3.123298 1_555
O42 Sr19 2.694755 1_555
O42 Sr9 2.820185 1_555
O42 Sr6 2.828071 1_555
O42 Sr17 3.013864 1_565
O43 Sr20 2.611305 1_555
O43 Sr10 2.742772 1_555
O43 Sr18 3.108168 1_565
O44 Sr21 2.588027 1_555
O44 Sr4 2.766264 1_655
O44 Sr7 2.900739 1_555
O44 Sr23 3.185109 1_555
O45 Sr22 2.566729 1_555
O45 Sr5 2.786218 1_655
O45 Sr8 2.852480 1_555
O46 Sr23 2.636725 1_555
O46 Sr6 2.764226 1_655
O46 Sr9 2.871257 1_555
O46 Sr21 3.038240 1_565
O47 Sr10 2.916516 1_555
O48 Sr11 2.905447 1_555
O49 Sr0 2.639724 1_555
O49 Sr14 2.785438 1_555
O49 Sr12 2.859639 1_555
O49 Sr1 3.080343 1_555
O50 Sr15 2.770261 1_555
O51 Sr1 2.642094 1_555
O51 Sr13 2.807535 1_555
O51 Sr16 2.841520 1_555
O51 Sr0 3.082682 1_565
O52 Sr11 2.709566 1_655
O53 Sr2 2.687397 1_555
O53 Sr12 2.754574 1_655
O53 Sr14 2.899748 1_555
O53 Sr3 3.020651 1_555
O54 Sr15 2.924513 1_555
O55 Sr3 2.632121 1_555
O55 Sr13 2.771637 1_655
O55 Sr16 2.867915 1_555
O55 Sr2 3.096427 1_565
O56 Sr4 2.585829 1_555
O56 Sr17 2.717388 1_555
O56 Sr21 2.936792 1_455
O56 Sr6 3.142616 1_545
O57 Sr5 2.559326 1_555
O57 Sr18 2.763401 1_555
O57 Sr22 2.884289 1_455
O58 Sr6 2.549062 1_555
O58 Sr19 2.760562 1_555
O58 Sr23 2.899208 1_455
O59 Sr20 2.744910 1_555
O59 Sr5 3.199335 1_555
O60 Sr7 2.629843 1_555
O60 Sr17 2.814109 1_555
O60 Sr21 2.831497 1_555
O60 Sr9 3.072715 1_545
O61 Sr8 2.612795 1_555
O61 Sr22 2.785205 1_555
O61 Sr18 2.855720 1_555
O61 Sr10 3.115314 1_545
O62 Sr9 2.596765 1_555
O62 Sr23 2.737055 1_555
O62 Sr19 2.948320 1_555
O62 Sr7 3.178050 1_555
O63 Sr10 2.599139 1_555
O63 Sr20 2.949289 1_555
O63 Sr8 3.107871 1_555
O64 Sr17 2.551638 1_555
O65 Sr18 2.478811 1_555
O65 Sr0 2.484448 1_555
O66 Sr19 2.553344 1_555
O67 Sr20 2.471655 1_555
O67 Sr1 2.490097 1_555
O68 Sr21 2.540708 1_555
O69 Sr22 2.463336 1_555
O69 Sr2 2.485972 1_555
O70 Sr23 2.558253 1_555
O71 Sr3 2.539729 1_555
O72 Sr11 2.419189 1_555
O72 Sr4 2.452724 1_555
O73 Sr5 2.477301 1_555
O73 Sr12 2.503880 1_555
O74 Sr6 2.502368 1_555
O75 Sr13 2.537823 1_555
O76 Sr7 2.526555 1_555
O77 Sr8 2.469437 1_555
O77 Sr14 2.473296 1_555
O78 Sr15 2.438309 1_555
O78 Sr9 2.470050 1_555
O79 Sr10 2.478244 1_555
O79 Sr16 2.498260 1_555
