# generated using pymatgen
data_SmTiFe11N
_symmetry_space_group_name_H-M   'P 1'
_cell_length_a   4.86834900
_cell_length_b   6.52541611
_cell_length_c   6.52541611
_cell_angle_alpha   97.60816408
_cell_angle_beta   111.90259786
_cell_angle_gamma   68.09740214
_symmetry_Int_Tables_number   1
_chemical_formula_structural   SmTiFe11N
_chemical_formula_sum   'Sm1 Ti1 Fe11 N1'
_cell_volume   178.44796618
_cell_formula_units_Z   1
loop_
 _symmetry_equiv_pos_site_id
 _symmetry_equiv_pos_as_xyz
  1  'x, y, z'
loop_
 _atom_site_type_symbol
 _atom_site_label
 _atom_site_symmetry_multiplicity
 _atom_site_fract_x
 _atom_site_fract_y
 _atom_site_fract_z
 _atom_site_occupancy
  Sm  Sm0  1  0.00687400  0.99312600  0.00687400  1
  Ti  Ti0  1  0.63401500  0.36598500  0.63401500  1
  Fe  Fe0  1  0.72635800  0.77364200  0.22635800  1
  Fe  Fe1  1  0.27665200  0.22334800  0.77665200  1
  Fe  Fe2  1  0.49710900  0.78005200  0.77427000  1
  Fe  Fe3  1  0.49710900  0.22573000  0.21994800  1
  Fe  Fe4  1  0.50001300  0.99719200  0.49836000  1
  Fe  Fe5  1  0.00115500  0.99719200  0.49836000  1
  Fe  Fe6  1  0.50001300  0.50164000  0.00280800  1
  Fe  Fe7  1  0.00115500  0.50164000  0.00280800  1
  Fe  Fe8  1  0.35847700  0.64152300  0.35847700  1
  Fe  Fe9  1  0.99991800  0.36020000  0.36003700  1
  Fe  Fe10  1  0.99991800  0.63996300  0.63980000  1
  N  N0  1  0.50123400  0.99876600  0.00123400  1
loop_
_geom_bond_atom_site_label_1
_geom_bond_atom_site_label_2
_geom_bond_distance
_geom_bond_site_symmetry_2
Sm0 Ti0 3.179955 1_464
Fe0 N0 1.919986 1_555
Fe0 Fe7 2.463107 1_655
Fe0 Fe5 2.463107 1_655
Fe0 Fe6 2.463107 1_555
Fe0 Fe4 2.463107 1_555
Fe0 Fe9 2.624690 1_555
Fe0 Fe10 2.624690 1_555
Fe1 N0 1.915364 1_546
Fe1 Fe7 2.494880 1_556
Fe1 Fe5 2.494880 1_545
Fe1 Fe6 2.494880 1_556
Fe1 Fe4 2.494880 1_545
Fe1 Fe9 2.648773 1_455
Fe1 Fe10 2.648773 1_455
Fe1 Ti0 2.721223 1_455
Fe1 Ti0 2.721223 1_555
Fe2 N0 1.915790 1_556
Fe2 Fe5 2.441080 1_555
Fe2 Fe4 2.441081 1_555
Fe2 Fe7 2.491448 1_656
Fe2 Fe6 2.491448 1_556
Fe2 Ti0 2.653144 1_555
Fe3 N0 1.915790 1_545
Fe3 Fe7 2.441080 1_555
Fe3 Fe6 2.441081 1_555
Fe3 Fe5 2.491448 1_645
Fe3 Fe4 2.491448 1_545
Fe3 Ti0 2.653144 1_555
Fe3 Fe9 2.705220 1_555
Fe3 Fe9 2.705224 1_455
Fe4 Fe5 2.428615 1_555
Fe4 Fe5 2.439734 1_655
Fe4 Fe8 2.618662 1_555
Fe4 Fe9 2.641464 1_465
Fe4 Ti0 2.678974 1_565
Fe4 Sm0 3.214161 1_555
Fe4 Sm0 3.311525 1_656
Fe5 Fe8 2.618662 1_555
Fe5 Fe9 2.641462 1_465
Fe5 Ti0 2.678974 1_465
Fe5 Sm0 3.214161 1_555
Fe5 Sm0 3.311525 1_556
Fe6 Fe7 2.428615 1_555
Fe6 Fe7 2.439734 1_655
Fe6 Fe8 2.618662 1_555
Fe6 Fe9 2.621081 1_555
Fe6 Ti0 2.678974 1_554
Fe6 Sm0 3.214161 1_555
Fe6 Sm0 3.311525 1_645
Fe7 Fe8 2.618662 1_555
Fe7 Fe9 2.621083 1_455
Fe7 Ti0 2.678974 1_454
Fe7 Sm0 3.214161 1_555
Fe7 Sm0 3.311525 1_545
Fe8 Ti0 2.349946 1_555
Fe8 Fe9 2.970870 1_555
Fe8 Fe9 2.970874 1_455
Fe9 Ti0 2.945991 1_555
Fe9 Ti0 2.945995 1_655
Fe9 Sm0 3.096055 1_645
Fe10 Fe9 2.404772 1_555
Fe10 Fe4 2.621081 1_555
Fe10 Fe5 2.621083 1_655
Fe10 Fe7 2.641462 1_656
Fe10 Fe6 2.641464 1_656
Fe10 Fe2 2.705220 1_555
Fe10 Fe2 2.705224 1_655
Fe10 Ti0 2.945991 1_555
Fe10 Ti0 2.945995 1_655
Fe10 Fe8 2.970870 1_555
Fe10 Fe8 2.970874 1_655
Fe10 Sm0 3.096055 1_656
N0 Sm0 2.434650 1_655
N0 Sm0 2.434650 1_555
