# generated using pymatgen
data_CsNaNbOF5
_symmetry_space_group_name_H-M   'P 1'
_cell_length_a   8.59556679
_cell_length_b   11.40861923
_cell_length_c   13.53601475
_cell_angle_alpha   90.00000000
_cell_angle_beta   90.00000000
_cell_angle_gamma   90.00000000
_symmetry_Int_Tables_number   1
_chemical_formula_structural   CsNaNbOF5
_chemical_formula_sum   'Cs8 Na8 Nb8 O8 F40'
_cell_volume   1327.38963992
_cell_formula_units_Z   8
loop_
 _symmetry_equiv_pos_site_id
 _symmetry_equiv_pos_as_xyz
  1  'x, y, z'
loop_
 _atom_site_type_symbol
 _atom_site_label
 _atom_site_symmetry_multiplicity
 _atom_site_fract_x
 _atom_site_fract_y
 _atom_site_fract_z
 _atom_site_occupancy
  Cs  Cs0  1  0.00000000  0.75000000  0.58088534  1
  Cs  Cs1  1  0.00000000  0.25000000  0.41911466  1
  Cs  Cs2  1  0.50000000  0.25000000  0.91911466  1
  Cs  Cs3  1  0.50000000  0.75000000  0.08088534  1
  Cs  Cs4  1  0.00000000  0.75000000  0.11711114  1
  Cs  Cs5  1  0.00000000  0.25000000  0.88288886  1
  Cs  Cs6  1  0.50000000  0.25000000  0.38288886  1
  Cs  Cs7  1  0.50000000  0.75000000  0.61711114  1
  Na  Na0  1  0.75382579  0.57665220  0.85271273  1
  Na  Na1  1  0.24617421  0.42334780  0.14728727  1
  Na  Na2  1  0.74617421  0.07665220  0.64728727  1
  Na  Na3  1  0.24617421  0.92334780  0.85271273  1
  Na  Na4  1  0.25382579  0.92334780  0.35271273  1
  Na  Na5  1  0.75382579  0.07665220  0.14728727  1
  Na  Na6  1  0.25382579  0.42334780  0.64728727  1
  Na  Na7  1  0.74617421  0.57665220  0.35271273  1
  Nb  Nb0  1  0.75473737  0.91462431  0.86724165  1
  Nb  Nb1  1  0.24526263  0.08537569  0.13275835  1
  Nb  Nb2  1  0.74526263  0.41462431  0.63275835  1
  Nb  Nb3  1  0.24526263  0.58537569  0.86724165  1
  Nb  Nb4  1  0.25473737  0.58537569  0.36724165  1
  Nb  Nb5  1  0.75473737  0.41462431  0.13275835  1
  Nb  Nb6  1  0.25473737  0.08537569  0.63275835  1
  Nb  Nb7  1  0.74526263  0.91462431  0.36724165  1
  O  O0  1  0.78027232  0.76865690  0.91112318  1
  O  O1  1  0.21972768  0.23134310  0.08887682  1
  O  O2  1  0.71972768  0.26865690  0.58887682  1
  O  O3  1  0.21972768  0.73134310  0.91112318  1
  O  O4  1  0.28027232  0.73134310  0.41112318  1
  O  O5  1  0.78027232  0.26865690  0.08887682  1
  O  O6  1  0.28027232  0.23134310  0.58887682  1
  O  O7  1  0.71972768  0.76865690  0.41112318  1
  F  F0  1  0.97611588  0.96274257  0.87714315  1
  F  F1  1  0.02388412  0.03725743  0.12285685  1
  F  F2  1  0.52388412  0.46274257  0.62285685  1
  F  F3  1  0.02388412  0.53725743  0.87714315  1
  F  F4  1  0.47611588  0.53725743  0.37714315  1
  F  F5  1  0.97611588  0.46274257  0.12285685  1
  F  F6  1  0.47611588  0.03725743  0.62285685  1
  F  F7  1  0.52388412  0.96274257  0.37714315  1
  F  F8  1  0.77253433  0.59095685  0.68605899  1
  F  F9  1  0.22746567  0.40904315  0.31394101  1
  F  F10  1  0.72746567  0.09095685  0.81394101  1
  F  F11  1  0.22746567  0.90904315  0.68605899  1
  F  F12  1  0.27253433  0.90904315  0.18605899  1
  F  F13  1  0.77253433  0.09095685  0.31394101  1
  F  F14  1  0.27253433  0.40904315  0.81394101  1
  F  F15  1  0.72746567  0.59095685  0.18605899  1
  F  F16  1  0.52592068  0.90226668  0.84818588  1
  F  F17  1  0.47407932  0.09773332  0.15181412  1
  F  F18  1  0.97407932  0.40226668  0.65181412  1
  F  F19  1  0.47407932  0.59773332  0.84818588  1
  F  F20  1  0.02592068  0.59773332  0.34818588  1
  F  F21  1  0.52592068  0.40226668  0.15181412  1
  F  F22  1  0.02592068  0.09773332  0.65181412  1
  F  F23  1  0.97407932  0.90226668  0.34818588  1
  F  F24  1  0.71197457  0.98707701  0.99792479  1
  F  F25  1  0.28802543  0.01292299  0.00207521  1
  F  F26  1  0.78802543  0.48707701  0.50207521  1
  F  F27  1  0.28802543  0.51292299  0.99792479  1
  F  F28  1  0.21197457  0.51292299  0.49792479  1
  F  F29  1  0.71197457  0.48707701  0.00207521  1
  F  F30  1  0.21197457  0.01292299  0.50207521  1
  F  F31  1  0.78802543  0.98707701  0.49792479  1
  F  F32  1  0.77848100  0.88335177  0.72237274  1
  F  F33  1  0.22151900  0.11664823  0.27762726  1
  F  F34  1  0.72151900  0.38335177  0.77762726  1
  F  F35  1  0.22151900  0.61664823  0.72237274  1
  F  F36  1  0.27848100  0.61664823  0.22237274  1
  F  F37  1  0.77848100  0.38335177  0.27762726  1
  F  F38  1  0.27848100  0.11664823  0.77762726  1
  F  F39  1  0.72151900  0.88335177  0.22237274  1
loop_
_geom_bond_atom_site_label_1
_geom_bond_atom_site_label_2
_geom_bond_distance
_geom_bond_site_symmetry_2
Cs0 F8 3.023540 1_455
Cs0 F11 3.023540 1_555
Cs0 F32 3.099671 1_455
Cs0 F35 3.099671 1_555
Cs0 O7 3.336079 1_455
Cs0 O4 3.336079 1_555
Cs0 F31 3.449113 1_455
Cs0 F28 3.449113 1_555
Cs0 F20 3.603988 1_555
Cs0 F23 3.603988 1_455
Cs0 F26 3.668157 1_455
Cs0 F30 3.668157 1_565
Cs1 F13 3.023540 1_455
Cs1 F9 3.023540 1_555
Cs1 F33 3.099671 1_555
Cs1 F37 3.099671 1_455
Cs1 O2 3.336079 1_455
Cs1 O6 3.336079 1_555
Cs1 F30 3.449113 1_555
Cs1 F26 3.449113 1_455
Cs1 F18 3.603988 1_455
Cs1 F22 3.603988 1_555
Cs1 F28 3.668157 1_555
Cs1 F31 3.668157 1_445
Cs2 F14 3.023540 1_555
Cs2 F10 3.023540 1_555
Cs2 F34 3.099671 1_555
Cs2 F38 3.099671 1_555
Cs2 O1 3.336079 1_556
Cs2 O5 3.336079 1_556
Cs2 F25 3.449113 1_556
Cs2 F29 3.449113 1_556
Cs2 F17 3.603988 1_556
Cs2 F21 3.603988 1_556
Cs2 F24 3.668157 1_545
Cs2 F27 3.668157 1_555
Cs3 F12 3.023540 1_555
Cs3 F15 3.023540 1_555
Cs3 F39 3.099671 1_555
Cs3 F36 3.099671 1_555
Cs3 O0 3.336079 1_554
Cs3 O3 3.336079 1_554
Cs3 F27 3.449113 1_554
Cs3 F24 3.449113 1_554
Cs3 F19 3.603988 1_554
Cs3 F16 3.603988 1_554
Cs3 F29 3.668157 1_555
Cs3 F25 3.668157 1_565
Cs4 F15 3.106606 1_455
Cs4 F12 3.106606 1_555
Cs4 F36 3.174030 1_555
Cs4 F39 3.174030 1_455
Cs4 F1 3.284556 1_565
Cs4 F5 3.284556 1_455
Cs4 O0 3.374434 1_454
Cs4 O3 3.374434 1_554
Cs4 F23 3.584783 1_455
Cs4 F20 3.584783 1_555
Cs5 F10 3.106606 1_455
Cs5 F14 3.106606 1_555
Cs5 F34 3.174030 1_455
Cs5 F38 3.174030 1_555
Cs5 F0 3.284556 1_445
Cs5 F3 3.284556 1_555
Cs5 O1 3.374434 1_556
Cs5 O5 3.374434 1_456
Cs5 F22 3.584783 1_555
Cs5 F18 3.584783 1_455
Cs6 F9 3.106606 1_555
Cs6 F13 3.106606 1_555
Cs6 F33 3.174030 1_555
Cs6 F37 3.174030 1_555
Cs6 F7 3.284556 1_545
Cs6 F4 3.284556 1_555
Cs6 O6 3.374434 1_555
Cs6 O2 3.374434 1_555
Cs6 F21 3.584783 1_555
Cs6 F17 3.584783 1_555
Cs7 F11 3.106606 1_555
Cs7 F8 3.106606 1_555
Cs7 F32 3.174030 1_555
Cs7 F35 3.174030 1_555
Cs7 F6 3.284556 1_565
Cs7 F2 3.284556 1_555
Cs7 O7 3.374434 1_555
Cs7 O4 3.374434 1_555
Cs7 F19 3.584783 1_555
Cs7 F16 3.584783 1_555
Na0 O0 2.339898 1_555
Na1 O1 2.339898 1_555
Na2 O2 2.339898 1_555
Na3 O3 2.339898 1_555
Na4 O4 2.339898 1_555
Na5 O5 2.339898 1_555
Na6 O6 2.339898 1_555
Na7 O7 2.339898 1_555
Nb0 O0 1.781619 1_555
Nb1 O1 1.781619 1_555
Nb2 O2 1.781619 1_555
Nb3 O3 1.781619 1_555
Nb4 O4 1.781619 1_555
Nb5 O5 1.781619 1_555
Nb6 O6 1.781619 1_555
Nb7 O7 1.781619 1_555
F0 Nb0 1.985007 1_555
F0 Na3 2.387427 1_655
F1 Nb1 1.985007 1_555
F1 Na5 2.387427 1_455
F2 Nb2 1.985007 1_555
F2 Na6 2.387427 1_555
F3 Nb3 1.985007 1_555
F3 Na0 2.387427 1_455
F4 Nb4 1.985007 1_555
F4 Na7 2.387427 1_555
F5 Nb5 1.985007 1_555
F5 Na1 2.387427 1_655
F6 Nb6 1.985007 1_555
F6 Na2 2.387427 1_555
F7 Nb7 1.985007 1_555
F7 Na4 2.387427 1_555
F8 Nb2 2.149991 1_555
F8 Na0 2.267433 1_555
F9 Nb4 2.149991 1_555
F9 Na1 2.267433 1_555
F10 Nb0 2.149991 1_545
F10 Na2 2.267433 1_555
F11 Nb6 2.149991 1_565
F11 Na3 2.267433 1_555
F12 Nb1 2.149991 1_565
F12 Na4 2.267433 1_555
F13 Nb7 2.149991 1_545
F13 Na5 2.267433 1_555
F14 Nb3 2.149991 1_555
F14 Na6 2.267433 1_555
F15 Nb5 2.149991 1_555
F15 Na7 2.267433 1_555
F16 Nb0 1.988655 1_555
F16 Na3 2.417354 1_555
F17 Nb1 1.988655 1_555
F17 Na5 2.417354 1_555
F18 Nb2 1.988655 1_555
F18 Na6 2.417354 1_655
F19 Nb3 1.988655 1_555
F19 Na0 2.417354 1_555
F20 Nb4 1.988655 1_555
F20 Na7 2.417354 1_455
F21 Nb5 1.988655 1_555
F21 Na1 2.417354 1_555
F22 Nb6 1.988655 1_555
F22 Na2 2.417354 1_455
F23 Nb7 1.988655 1_555
F23 Na4 2.417354 1_655
F24 Nb0 1.986822 1_555
F24 Na5 2.293755 1_566
F25 Nb1 1.986822 1_555
F25 Na3 2.293755 1_544
F26 Nb2 1.986822 1_555
F26 Na7 2.293755 1_555
F27 Nb3 1.986822 1_555
F27 Na1 2.293755 1_556
F28 Nb4 1.986822 1_555
F28 Na6 2.293755 1_555
F29 Nb5 1.986822 1_555
F29 Na0 2.293755 1_554
F30 Nb6 1.986822 1_555
F30 Na4 2.293755 1_545
F31 Nb7 1.986822 1_555
F31 Na2 2.293755 1_565
F32 Nb0 2.003561 1_555
F32 Na2 2.444055 1_565
F33 Nb1 2.003561 1_555
F33 Na4 2.444055 1_545
F34 Nb2 2.003561 1_555
F34 Na0 2.444055 1_555
F35 Nb3 2.003561 1_555
F35 Na6 2.444055 1_555
F36 Nb4 2.003561 1_555
F36 Na1 2.444055 1_555
F37 Nb5 2.003561 1_555
F37 Na7 2.444055 1_555
F38 Nb6 2.003561 1_555
F38 Na3 2.444055 1_545
F39 Nb7 2.003561 1_555
F39 Na5 2.444055 1_565
