# generated using pymatgen
data_KSm(NiO3)4
_symmetry_space_group_name_H-M   'P 1'
_cell_length_a   5.41913264
_cell_length_b   5.41913264
_cell_length_c   7.63481039
_cell_angle_alpha   90.00000000
_cell_angle_beta   90.00000000
_cell_angle_gamma   89.39742214
_symmetry_Int_Tables_number   1
_chemical_formula_structural   KSm(NiO3)4
_chemical_formula_sum   'K1 Sm1 Ni4 O12'
_cell_volume   224.19906643
_cell_formula_units_Z   1
loop_
 _symmetry_equiv_pos_site_id
 _symmetry_equiv_pos_as_xyz
  1  'x, y, z'
loop_
 _atom_site_type_symbol
 _atom_site_label
 _atom_site_symmetry_multiplicity
 _atom_site_fract_x
 _atom_site_fract_y
 _atom_site_fract_z
 _atom_site_occupancy
  K  K0  1  0.00960160  0.00960160  -0.00000000  1
  Sm  Sm0  1  0.48750376  0.48750376  0.50000000  1
  Ni  Ni0  1  0.50177409  0.99693115  0.75327928  1
  Ni  Ni1  1  0.50177409  0.99693115  0.24672072  1
  Ni  Ni2  1  0.99693115  0.50177409  0.24672072  1
  Ni  Ni3  1  0.99693115  0.50177409  0.75327928  1
  O  O0  1  0.73807116  0.26077118  0.72844154  1
  O  O1  1  0.26077118  0.73807116  0.72844154  1
  O  O2  1  0.26077118  0.73807116  0.27155846  1
  O  O3  1  0.73807116  0.26077118  0.27155846  1
  O  O4  1  0.72419132  0.72419132  0.71531069  1
  O  O5  1  0.27263219  0.27263219  0.74537414  1
  O  O6  1  0.27263219  0.27263219  0.25462586  1
  O  O7  1  0.72419132  0.72419132  0.28468931  1
  O  O8  1  0.51745599  0.98621309  -0.00000000  1
  O  O9  1  0.48560915  0.02697423  0.50000000  1
  O  O10  1  0.98621309  0.51745599  -0.00000000  1
  O  O11  1  0.02697423  0.48560915  0.50000000  1
loop_
_geom_bond_atom_site_label_1
_geom_bond_atom_site_label_2
_geom_bond_distance
_geom_bond_site_symmetry_2
K0 O10 2.671343 1_445
K0 O8 2.671343 1_445
K0 O8 2.753715 1_545
K0 O10 2.753715 1_455
K0 O5 2.808107 1_554
K0 O6 2.808107 1_555
K0 O3 2.876505 1_455
K0 O0 2.876505 1_454
K0 O2 2.876505 1_545
K0 O1 2.876505 1_544
K0 O7 3.091771 1_445
K0 O4 3.091771 1_444
Ni0 O8 1.886449 1_556
Ni0 O4 1.919337 1_555
Ni0 O5 1.933593 1_565
Ni0 O1 1.935985 1_555
Ni0 O0 1.938684 1_565
Ni0 O9 1.942480 1_565
Ni1 O8 1.886449 1_555
Ni1 O7 1.919337 1_555
Ni1 O6 1.933593 1_565
Ni1 O2 1.935985 1_555
Ni1 O3 1.938684 1_565
Ni1 O9 1.942480 1_565
Ni2 O10 1.886449 1_555
Ni2 O7 1.919337 1_555
Ni2 O6 1.933593 1_655
Ni2 O3 1.935985 1_555
Ni2 O2 1.938684 1_655
Ni2 O11 1.942480 1_655
Ni3 O10 1.886449 1_556
Ni3 O4 1.919337 1_555
Ni3 O5 1.933593 1_655
Ni3 O0 1.935985 1_555
Ni3 O1 1.938684 1_655
Ni3 O11 1.942480 1_655
O0 Sm0 2.521961 1_555
O1 Sm0 2.521961 1_555
O2 Sm0 2.521961 1_555
O3 Sm0 2.521961 1_555
O4 Sm0 2.455037 1_555
O5 Sm0 2.499965 1_555
O6 Sm0 2.499965 1_555
O7 Sm0 2.455037 1_555
O9 Sm0 2.495800 1_555
O11 Sm0 2.495800 1_555
