# generated using pymatgen
data_ErFeC2
_symmetry_space_group_name_H-M   'P 1'
_cell_length_a   3.54153105
_cell_length_b   3.72996328
_cell_length_c   3.72995710
_cell_angle_alpha   105.50339336
_cell_angle_beta   90.00000000
_cell_angle_gamma   90.00000000
_symmetry_Int_Tables_number   1
_chemical_formula_structural   ErFeC2
_chemical_formula_sum   'Er1 Fe1 C2'
_cell_volume   47.47913837
_cell_formula_units_Z   1
loop_
 _symmetry_equiv_pos_site_id
 _symmetry_equiv_pos_as_xyz
  1  'x, y, z'
loop_
 _atom_site_type_symbol
 _atom_site_label
 _atom_site_symmetry_multiplicity
 _atom_site_fract_x
 _atom_site_fract_y
 _atom_site_fract_z
 _atom_site_occupancy
  Er  Er0  1  -0.00000000  0.99215847  0.00784153  1
  Fe  Fe0  1  0.50000000  0.39135447  0.60864553  1
  C  C0  1  0.50000000  0.85654931  0.45506225  1
  C  C1  1  0.50000000  0.54493775  0.14345069  1
loop_
_geom_bond_atom_site_label_1
_geom_bond_atom_site_label_2
_geom_bond_distance
_geom_bond_site_symmetry_2
C0 C1 1.407010 1_555
C0 Fe0 1.922631 1_565
C0 Fe0 1.967316 1_555
C0 Er0 2.573933 1_555
C0 Er0 2.573933 1_655
C0 Er0 2.661790 1_656
C0 Er0 2.661790 1_556
C1 Fe0 1.922628 1_554
C1 Fe0 1.967313 1_555
C1 Er0 2.573935 1_655
C1 Er0 2.573935 1_555
C1 Er0 2.661792 1_645
C1 Er0 2.661792 1_545
