# generated using pymatgen
data_MgAl2SiO7
_symmetry_space_group_name_H-M   'P 1'
_cell_length_a   5.55762949
_cell_length_b   5.55762949
_cell_length_c   17.73898144
_cell_angle_alpha   80.47425720
_cell_angle_beta   80.47425720
_cell_angle_gamma   60.29433128
_symmetry_Int_Tables_number   1
_chemical_formula_structural   MgAl2SiO7
_chemical_formula_sum   'Mg4 Al8 Si4 O28'
_cell_volume   467.10725278
_cell_formula_units_Z   4
loop_
 _symmetry_equiv_pos_site_id
 _symmetry_equiv_pos_as_xyz
  1  'x, y, z'
loop_
 _atom_site_type_symbol
 _atom_site_label
 _atom_site_symmetry_multiplicity
 _atom_site_fract_x
 _atom_site_fract_y
 _atom_site_fract_z
 _atom_site_occupancy
  Mg  Mg0  1  0.66304800  0.17478800  0.00061100  1
  Mg  Mg1  1  0.33695200  0.82521200  0.99938900  1
  Mg  Mg2  1  0.82521200  0.33695200  0.49938900  1
  Mg  Mg3  1  0.17478800  0.66304800  0.50061100  1
  Al  Al0  1  0.40215200  0.09830600  0.75056500  1
  Al  Al1  1  0.59784800  0.90169400  0.24943500  1
  Al  Al2  1  0.90169400  0.59784800  0.74943500  1
  Al  Al3  1  0.09830600  0.40215200  0.25056500  1
  Al  Al4  1  0.50000000  0.00000000  0.50000000  1
  Al  Al5  1  0.00000000  0.50000000  0.00000000  1
  Al  Al6  1  0.90065600  0.09934400  0.75000000  1
  Al  Al7  1  0.09934400  0.90065600  0.25000000  1
  Si  Si0  1  0.43739000  0.63106000  0.65605200  1
  Si  Si1  1  0.56261000  0.36894000  0.34394800  1
  Si  Si2  1  0.36894000  0.56261000  0.84394800  1
  Si  Si3  1  0.63106000  0.43739000  0.15605200  1
  O  O0  1  0.54261200  0.24986400  0.81314700  1
  O  O1  1  0.45738800  0.75013600  0.18685300  1
  O  O2  1  0.75013600  0.45738800  0.68685300  1
  O  O3  1  0.24986400  0.54261200  0.31314700  1
  O  O4  1  0.54047900  0.73838400  0.81330800  1
  O  O5  1  0.45952100  0.26161600  0.18669200  1
  O  O6  1  0.26161600  0.45952100  0.68669200  1
  O  O7  1  0.73838400  0.54047900  0.31330800  1
  O  O8  1  0.75170300  0.94848200  0.70135800  1
  O  O9  1  0.24829700  0.05151800  0.29864200  1
  O  O10  1  0.05151800  0.24829700  0.79864200  1
  O  O11  1  0.94848200  0.75170300  0.20135800  1
  O  O12  1  0.47340600  0.66083400  0.56112500  1
  O  O13  1  0.52659400  0.33916600  0.43887500  1
  O  O14  1  0.33916600  0.52659400  0.93887500  1
  O  O15  1  0.66083400  0.47340600  0.06112500  1
  O  O16  1  0.79150600  0.97014700  0.54847700  1
  O  O17  1  0.20849400  0.02985300  0.45152300  1
  O  O18  1  0.02985300  0.20849400  0.95152300  1
  O  O19  1  0.97014700  0.79150600  0.04847700  1
  O  O20  1  0.72151300  0.82699600  0.95516500  1
  O  O21  1  0.27848700  0.17300400  0.04483500  1
  O  O22  1  0.17300400  0.27848700  0.54483500  1
  O  O23  1  0.82699600  0.72151300  0.45516500  1
  O  O24  1  0.26252800  0.94594000  0.68668000  1
  O  O25  1  0.73747200  0.05406000  0.31332000  1
  O  O26  1  0.05406000  0.73747200  0.81332000  1
  O  O27  1  0.94594000  0.26252800  0.18668000  1
loop_
_geom_bond_atom_site_label_1
_geom_bond_atom_site_label_2
_geom_bond_distance
_geom_bond_site_symmetry_2
Mg0 O20 2.073204 1_544
Mg0 O19 2.109320 1_545
Mg0 O15 2.114663 1_555
Mg0 O21 2.155652 1_555
Mg0 O18 2.164725 1_654
Mg0 O14 2.172076 1_554
Mg1 O21 2.073204 1_566
Mg1 O18 2.109320 1_565
Mg1 O14 2.114663 1_555
Mg1 O20 2.155652 1_555
Mg1 O19 2.164725 1_456
Mg1 O15 2.172076 1_556
Mg2 O22 2.073204 1_655
Mg2 O17 2.109320 1_655
Mg2 O13 2.114663 1_555
Mg2 O23 2.155652 1_555
Mg2 O16 2.164725 1_545
Mg2 O12 2.172076 1_555
Mg3 O23 2.073204 1_455
Mg3 O16 2.109320 1_455
Mg3 O12 2.114663 1_555
Mg3 O22 2.155652 1_555
Mg3 O17 2.164725 1_565
Mg3 O13 2.172076 1_555
Al0 O10 1.815189 1_555
Al0 O8 1.818067 1_545
Al0 O0 1.949166 1_555
Al0 O4 1.962974 1_545
Al0 O24 1.965550 1_545
Al0 O6 1.977360 1_555
Al1 O11 1.815189 1_555
Al1 O9 1.818067 1_565
Al1 O1 1.949166 1_555
Al1 O5 1.962974 1_565
Al1 O25 1.965550 1_565
Al1 O7 1.977360 1_555
Al2 O8 1.815189 1_555
Al2 O10 1.818067 1_655
Al2 O2 1.949166 1_555
Al2 O6 1.962974 1_655
Al2 O26 1.965550 1_655
Al2 O4 1.977360 1_555
Al3 O9 1.815189 1_555
Al3 O11 1.818067 1_455
Al3 O3 1.949166 1_555
Al3 O7 1.962974 1_455
Al3 O27 1.965550 1_455
Al3 O5 1.977360 1_555
Al4 O22 1.863342 1_555
Al4 O23 1.863342 1_545
Al4 O16 1.881268 1_545
Al4 O17 1.881268 1_555
Al4 O12 2.072970 1_545
Al4 O13 2.072970 1_555
Al5 O20 1.863342 1_454
Al5 O21 1.863342 1_555
Al5 O18 1.881268 1_554
Al5 O19 1.881268 1_455
Al5 O15 2.072970 1_455
Al5 O14 2.072970 1_554
Al6 O8 1.815642 1_545
Al6 O10 1.815642 1_655
Al6 O0 1.958773 1_555
Al6 O2 1.958773 1_555
Al6 O26 1.975642 1_645
Al6 O24 1.975642 1_645
Al7 O11 1.815642 1_455
Al7 O9 1.815642 1_565
Al7 O1 1.958773 1_555
Al7 O3 1.958773 1_555
Al7 O25 1.975642 1_465
Al7 O27 1.975642 1_465
O0 Si2 1.651760 1_555
O1 Si3 1.651760 1_555
O2 Si0 1.651760 1_555
O3 Si1 1.651760 1_555
O4 Si2 1.653595 1_555
O5 Si3 1.653595 1_555
O6 Si0 1.653595 1_555
O7 Si1 1.653595 1_555
O12 Si0 1.652887 1_555
O13 Si1 1.652887 1_555
O14 Si2 1.652887 1_555
O15 Si3 1.652887 1_555
O24 Si0 1.660268 1_555
O25 Si1 1.660268 1_555
O26 Si2 1.660268 1_555
O27 Si3 1.660268 1_555
