# generated using pymatgen
data_Ca11(PbN5)2
_symmetry_space_group_name_H-M   'P 1'
_cell_length_a   15.82120100
_cell_length_b   15.82120100
_cell_length_c   3.64679800
_cell_angle_alpha   90.00000000
_cell_angle_beta   90.00000000
_cell_angle_gamma   90.00000000
_symmetry_Int_Tables_number   1
_chemical_formula_structural   Ca11(PbN5)2
_chemical_formula_sum   'Ca22 Pb4 N20'
_cell_volume   912.83147005
_cell_formula_units_Z   2
loop_
 _symmetry_equiv_pos_site_id
 _symmetry_equiv_pos_as_xyz
  1  'x, y, z'
loop_
 _atom_site_type_symbol
 _atom_site_label
 _atom_site_symmetry_multiplicity
 _atom_site_fract_x
 _atom_site_fract_y
 _atom_site_fract_z
 _atom_site_occupancy
  Ca  Ca0  1  0.50000000  0.50000000  0.50000000  1
  Ca  Ca1  1  0.00000000  0.00000000  0.00000000  1
  Ca  Ca2  1  0.01858000  0.76900400  0.50000000  1
  Ca  Ca3  1  0.98142000  0.23099600  0.50000000  1
  Ca  Ca4  1  0.48142000  0.26900400  0.00000000  1
  Ca  Ca5  1  0.51858000  0.73099600  0.00000000  1
  Ca  Ca6  1  0.76900400  0.01858000  0.50000000  1
  Ca  Ca7  1  0.23099600  0.98142000  0.50000000  1
  Ca  Ca8  1  0.26900400  0.48142000  0.00000000  1
  Ca  Ca9  1  0.73099600  0.51858000  0.00000000  1
  Ca  Ca10  1  0.70943100  0.70943100  0.50000000  1
  Ca  Ca11  1  0.29056900  0.29056900  0.50000000  1
  Ca  Ca12  1  0.79056900  0.20943100  0.00000000  1
  Ca  Ca13  1  0.20943100  0.79056900  0.00000000  1
  Ca  Ca14  1  0.39835200  0.88016400  0.50000000  1
  Ca  Ca15  1  0.60164800  0.11983600  0.50000000  1
  Ca  Ca16  1  0.10164800  0.38016400  0.00000000  1
  Ca  Ca17  1  0.89835200  0.61983600  0.00000000  1
  Ca  Ca18  1  0.88016400  0.39835200  0.50000000  1
  Ca  Ca19  1  0.11983600  0.60164800  0.50000000  1
  Ca  Ca20  1  0.38016400  0.10164800  0.00000000  1
  Ca  Ca21  1  0.61983600  0.89835200  0.00000000  1
  Pb  Pb0  1  0.36213000  0.63787000  0.50000000  1
  Pb  Pb1  1  0.63787000  0.36213000  0.50000000  1
  Pb  Pb2  1  0.13787000  0.13787000  0.00000000  1
  Pb  Pb3  1  0.86213000  0.86213000  0.00000000  1
  N  N0  1  0.07438500  0.92561500  0.50000000  1
  N  N1  1  0.92561500  0.07438500  0.50000000  1
  N  N2  1  0.42561500  0.42561500  0.00000000  1
  N  N3  1  0.57438500  0.57438500  0.00000000  1
  N  N4  1  0.45328100  0.17224400  0.50000000  1
  N  N5  1  0.54671900  0.82775600  0.50000000  1
  N  N6  1  0.04671900  0.67224400  0.00000000  1
  N  N7  1  0.95328100  0.32775600  0.00000000  1
  N  N8  1  0.17224400  0.45328100  0.50000000  1
  N  N9  1  0.82775600  0.54671900  0.50000000  1
  N  N10  1  0.67224400  0.04671900  0.00000000  1
  N  N11  1  0.32775600  0.95328100  0.00000000  1
  N  N12  1  0.86818700  0.13181300  0.50000000  1
  N  N13  1  0.13181300  0.86818700  0.50000000  1
  N  N14  1  0.63181300  0.63181300  0.00000000  1
  N  N15  1  0.36818700  0.36818700  0.00000000  1
  N  N16  1  0.73184000  0.26816000  0.50000000  1
  N  N17  1  0.26816000  0.73184000  0.50000000  1
  N  N18  1  0.76816000  0.76816000  0.00000000  1
  N  N19  1  0.23184000  0.23184000  0.00000000  1
loop_
_geom_bond_atom_site_label_1
_geom_bond_atom_site_label_2
_geom_bond_distance
_geom_bond_site_symmetry_2
Ca0 N2 2.468761 1_555
Ca0 N2 2.468761 1_556
Ca0 N3 2.468761 1_556
Ca0 N3 2.468761 1_555
Ca0 Pb0 3.084780 1_555
Ca0 Pb1 3.084780 1_555
Ca1 N1 2.468761 1_455
Ca1 N0 2.468761 1_544
Ca1 N1 2.468761 1_454
Ca1 N0 2.468761 1_545
Ca1 Pb2 3.084780 1_555
Ca1 Pb3 3.084780 1_445
Ca2 N13 2.381550 1_555
Ca2 N6 2.422088 1_556
Ca2 N6 2.422088 1_555
Ca2 N0 2.630377 1_555
Ca2 Pb3 3.409155 1_455
Ca2 Pb3 3.409155 1_456
Ca3 N12 2.381550 1_555
Ca3 N7 2.422088 1_555
Ca3 N7 2.422088 1_556
Ca3 N1 2.630377 1_555
Ca3 Pb2 3.409155 1_656
Ca3 Pb2 3.409155 1_655
Ca4 N15 2.381550 1_555
Ca4 N4 2.422088 1_554
Ca4 N4 2.422088 1_555
Ca4 N2 2.630377 1_555
Ca4 Pb1 3.409155 1_554
Ca4 Pb1 3.409155 1_555
Ca5 N14 2.381550 1_555
Ca5 N5 2.422088 1_555
Ca5 N5 2.422088 1_554
Ca5 N3 2.630377 1_555
Ca5 Pb0 3.409155 1_555
Ca5 Pb0 3.409155 1_554
Ca6 N12 2.381550 1_555
Ca6 N10 2.422088 1_555
Ca6 N10 2.422088 1_556
Ca6 N1 2.630377 1_555
Ca6 Pb3 3.409155 1_546
Ca6 Pb3 3.409155 1_545
Ca7 N13 2.381550 1_555
Ca7 N11 2.422088 1_556
Ca7 N11 2.422088 1_555
Ca7 N0 2.630377 1_555
Ca7 Pb2 3.409155 1_566
Ca7 Pb2 3.409155 1_565
Ca8 N15 2.381550 1_555
Ca8 N8 2.422088 1_554
Ca8 N8 2.422088 1_555
Ca8 N2 2.630377 1_555
Ca8 Pb0 3.409155 1_555
Ca8 Pb0 3.409155 1_554
Ca9 N14 2.381550 1_555
Ca9 N9 2.422088 1_555
Ca9 N9 2.422088 1_554
Ca9 N3 2.630377 1_555
Ca9 Pb1 3.409155 1_555
Ca9 Pb1 3.409155 1_554
Ca10 N18 2.247548 1_555
Ca10 N18 2.247548 1_556
Ca10 N14 2.518095 1_556
Ca10 N14 2.518095 1_555
Ca11 N19 2.247548 1_555
Ca11 N19 2.247548 1_556
Ca11 N15 2.518095 1_555
Ca11 N15 2.518095 1_556
Ca12 N16 2.247548 1_555
Ca12 N16 2.247548 1_554
Ca12 N12 2.518095 1_554
Ca12 N12 2.518095 1_555
Ca13 N17 2.247548 1_554
Ca13 N17 2.247548 1_555
Ca13 N13 2.518095 1_555
Ca13 N13 2.518095 1_554
Ca14 N11 2.431144 1_556
Ca14 N11 2.431144 1_555
Ca14 N5 2.489483 1_555
Ca14 N17 3.122432 1_555
Ca15 N10 2.431144 1_555
Ca15 N10 2.431144 1_556
Ca15 N4 2.489483 1_555
Ca15 N16 3.122432 1_555
Ca16 N8 2.431144 1_554
Ca16 N8 2.431144 1_555
Ca16 N7 2.489483 1_455
Ca16 N19 3.122432 1_555
Ca17 N9 2.431144 1_555
Ca17 N9 2.431144 1_554
Ca17 N6 2.489483 1_655
Ca17 N18 3.122432 1_555
Ca18 N7 2.431144 1_555
Ca18 N7 2.431144 1_556
Ca18 N9 2.489483 1_555
Ca18 N16 3.122432 1_555
Ca19 N6 2.431144 1_556
Ca19 N6 2.431144 1_555
Ca19 N8 2.489483 1_555
Ca19 N17 3.122432 1_555
Ca20 N4 2.431144 1_555
Ca20 N4 2.431144 1_554
Ca20 N11 2.489483 1_545
Ca20 N19 3.122432 1_555
Ca21 N5 2.431144 1_555
Ca21 N5 2.431144 1_554
Ca21 N10 2.489483 1_565
Ca21 N18 3.122432 1_555
N0 N13 1.284926 1_555
N1 N12 1.284926 1_555
N14 N3 1.284926 1_555
N15 N2 1.284926 1_555
N16 Pb1 2.102537 1_555
N17 Pb0 2.102537 1_555
N18 Pb3 2.102537 1_555
N19 Pb2 2.102537 1_555
