# generated using pymatgen
data_Co3Ag2P3HO12
_symmetry_space_group_name_H-M   'P 1'
_cell_length_a   9.18726749
_cell_length_b   9.18726749
_cell_length_c   10.94178758
_cell_angle_alpha   53.50978594
_cell_angle_beta   53.50978594
_cell_angle_gamma   42.86786612
_symmetry_Int_Tables_number   1
_chemical_formula_structural   Co3Ag2P3HO12
_chemical_formula_sum   'Co6 Ag4 P6 H2 O24'
_cell_volume   483.36125529
_cell_formula_units_Z   2
loop_
 _symmetry_equiv_pos_site_id
 _symmetry_equiv_pos_as_xyz
  1  'x, y, z'
loop_
 _atom_site_type_symbol
 _atom_site_label
 _atom_site_symmetry_multiplicity
 _atom_site_fract_x
 _atom_site_fract_y
 _atom_site_fract_z
 _atom_site_occupancy
  Co  Co0  1  0.99918800  0.50171300  0.95787800  1
  Co  Co1  1  0.50171300  0.99918800  0.45787800  1
  Co  Co2  1  0.39598600  0.38171500  0.57064800  1
  Co  Co3  1  0.62380500  0.60585400  0.84172500  1
  Co  Co4  1  0.60585400  0.62380500  0.34172500  1
  Co  Co5  1  0.38171500  0.39598600  0.07064800  1
  Ag  Ag0  1  0.11818700  0.86309600  0.25599100  1
  Ag  Ag1  1  0.86309600  0.11818700  0.75599100  1
  Ag  Ag2  1  0.00238300  0.51088500  0.45698300  1
  Ag  Ag3  1  0.51088500  0.00238300  0.95698300  1
  P  P0  1  0.17059900  0.18702900  0.77961100  1
  P  P1  1  0.82923700  0.82229400  0.63367700  1
  P  P2  1  0.82229400  0.82923700  0.13367700  1
  P  P3  1  0.18702900  0.17059900  0.27961100  1
  P  P4  1  0.34664000  0.65593200  0.70468700  1
  P  P5  1  0.65593200  0.34664000  0.20468700  1
  H  H0  1  0.17386100  0.87899200  0.95523500  1
  H  H1  1  0.87899200  0.17386100  0.45523500  1
  O  O0  1  0.92571200  0.30109700  0.81470300  1
  O  O1  1  0.07919200  0.68658100  0.54491200  1
  O  O2  1  0.68658100  0.07919200  0.04491200  1
  O  O3  1  0.30109700  0.92571200  0.31470300  1
  O  O4  1  0.48988700  0.51588700  0.58759800  1
  O  O5  1  0.51588700  0.48988700  0.08759800  1
  O  O6  1  0.11970500  0.69111000  0.80079000  1
  O  O7  1  0.88578300  0.30491000  0.11266100  1
  O  O8  1  0.30491000  0.88578300  0.61266100  1
  O  O9  1  0.69111000  0.11970500  0.30079000  1
  O  O10  1  0.48977400  0.51286700  0.82011400  1
  O  O11  1  0.51286700  0.48977400  0.32011400  1
  O  O12  1  0.22851800  0.27355900  0.82029500  1
  O  O13  1  0.77557000  0.72237600  0.82100700  1
  O  O14  1  0.72237600  0.77557000  0.32100700  1
  O  O15  1  0.27355900  0.22851800  0.32029500  1
  O  O16  1  0.27857800  0.92722600  0.88259400  1
  O  O17  1  0.73068700  0.07107500  0.58355200  1
  O  O18  1  0.07107500  0.73068700  0.08355200  1
  O  O19  1  0.92722600  0.27857800  0.38259400  1
  O  O20  1  0.29586700  0.21129600  0.59897700  1
  O  O21  1  0.70677900  0.78796600  0.60481100  1
  O  O22  1  0.78796600  0.70677900  0.10481100  1
  O  O23  1  0.21129600  0.29586700  0.09897700  1
loop_
_geom_bond_atom_site_label_1
_geom_bond_atom_site_label_2
_geom_bond_distance
_geom_bond_site_symmetry_2
Co0 O6 2.052181 1_655
Co0 O7 2.060000 1_556
Co0 O22 2.105383 1_556
Co0 O23 2.112109 1_656
Co0 O13 2.125241 1_555
Co0 O12 2.146159 1_655
Co1 O9 2.052181 1_565
Co1 O8 2.060000 1_555
Co1 O21 2.105383 1_555
Co1 O20 2.112109 1_565
Co1 O14 2.125241 1_555
Co1 O15 2.146159 1_565
Co2 O4 2.078254 1_555
Co2 O11 2.116151 1_555
Co2 O1 2.117157 1_555
Co2 O20 2.142016 1_555
Co2 O17 2.189413 1_555
Co2 O12 2.197782 1_555
Co3 O0 2.060473 1_555
Co3 O5 2.079105 1_556
Co3 O10 2.104906 1_555
Co3 O21 2.112115 1_555
Co3 O13 2.159836 1_555
Co3 O16 2.265724 1_555
Co4 O3 2.060473 1_555
Co4 O4 2.079105 1_555
Co4 O11 2.104906 1_555
Co4 O22 2.112115 1_555
Co4 O14 2.159836 1_555
Co4 O19 2.265724 1_555
Co5 O5 2.078254 1_555
Co5 O10 2.116151 1_554
Co5 O2 2.117157 1_555
Co5 O23 2.142016 1_555
Co5 O18 2.189413 1_555
Co5 O15 2.197782 1_555
Ag0 O1 2.481775 1_555
Ag0 O3 2.589998 1_555
Ag0 O9 2.592487 1_465
Ag0 O7 2.683593 1_465
Ag0 O11 2.708789 1_555
Ag1 O2 2.481775 1_556
Ag1 O0 2.589998 1_555
Ag1 O6 2.592487 1_645
Ag1 O8 2.683593 1_645
Ag1 O10 2.708789 1_555
Ag2 O14 2.413291 1_455
Ag2 O15 2.425399 1_555
Ag2 O21 2.451667 1_455
Ag2 O20 2.505495 1_555
Ag3 O13 2.413291 1_545
Ag3 O12 2.425399 1_555
Ag3 O22 2.451667 1_546
Ag3 O23 2.505495 1_556
H0 O16 1.024802 1_555
H0 O18 1.659313 1_556
H1 O19 1.024802 1_555
H1 O17 1.659313 1_555
O0 P0 1.517385 1_655
O1 P1 1.536841 1_455
O2 P2 1.536841 1_545
O3 P3 1.517385 1_565
O4 P4 1.581733 1_555
O5 P5 1.581733 1_555
O6 P4 1.538178 1_555
O7 P5 1.537394 1_555
O8 P4 1.537394 1_555
O9 P5 1.538178 1_555
O10 P4 1.587231 1_555
O11 P5 1.587231 1_555
O12 P0 1.560774 1_555
O13 P1 1.584515 1_555
O14 P2 1.584515 1_555
O15 P3 1.560774 1_555
O16 P0 1.615776 1_565
O17 P1 1.552685 1_545
O18 P2 1.552685 1_455
O19 P3 1.615776 1_655
O20 P0 1.557953 1_555
O21 P1 1.589401 1_555
O22 P2 1.589401 1_555
O23 P3 1.557953 1_555
