# generated using pymatgen
data_TiCr2P3
_symmetry_space_group_name_H-M   'P 1'
_cell_length_a   3.12280200
_cell_length_b   5.52276865
_cell_length_c   18.35842943
_cell_angle_alpha   89.78354820
_cell_angle_beta   90.00000000
_cell_angle_gamma   90.00000000
_symmetry_Int_Tables_number   1
_chemical_formula_structural   TiCr2P3
_chemical_formula_sum   'Ti4 Cr8 P12'
_cell_volume   316.61663223
_cell_formula_units_Z   4
loop_
 _symmetry_equiv_pos_site_id
 _symmetry_equiv_pos_as_xyz
  1  'x, y, z'
loop_
 _atom_site_type_symbol
 _atom_site_label
 _atom_site_symmetry_multiplicity
 _atom_site_fract_x
 _atom_site_fract_y
 _atom_site_fract_z
 _atom_site_occupancy
  Ti  Ti0  1  0.75000000  0.49507800  0.23032400  1
  Ti  Ti1  1  0.75000000  0.49136200  0.56649400  1
  Ti  Ti2  1  0.75000000  0.49097900  0.89735100  1
  Ti  Ti3  1  0.75000000  0.99521600  0.26961800  1
  Cr  Cr0  1  0.75000000  0.00172100  0.60387200  1
  Cr  Cr1  1  0.75000000  0.00253500  0.93374900  1
  Cr  Cr2  1  0.25000000  0.51089900  0.09697900  1
  Cr  Cr3  1  0.25000000  0.50546800  0.44108900  1
  Cr  Cr4  1  0.25000000  0.50736100  0.76963600  1
  Cr  Cr5  1  0.25000000  0.00897700  0.06146000  1
  Cr  Cr6  1  0.25000000  0.00719800  0.40029600  1
  Cr  Cr7  1  0.25000000  0.00922800  0.73094500  1
  P  P0  1  0.75000000  0.29483000  0.02444000  1
  P  P1  1  0.75000000  0.30697900  0.36267300  1
  P  P2  1  0.75000000  0.29835500  0.69385100  1
  P  P3  1  0.75000000  0.80167300  0.13731000  1
  P  P4  1  0.75000000  0.81388100  0.47770800  1
  P  P5  1  0.75000000  0.81057500  0.80804900  1
  P  P6  1  0.25000000  0.68633500  0.32085600  1
  P  P7  1  0.25000000  0.71021700  0.64722300  1
  P  P8  1  0.25000000  0.71260700  0.97713100  1
  P  P9  1  0.25000000  0.19153800  0.17959700  1
  P  P10  1  0.25000000  0.17202400  0.51939800  1
  P  P11  1  0.25000000  0.17496600  0.84995300  1
loop_
_geom_bond_atom_site_label_1
_geom_bond_atom_site_label_2
_geom_bond_distance
_geom_bond_site_symmetry_2
Cr0 P2 2.330872 1_555
Cr0 P7 2.377706 1_545
Cr0 P7 2.377706 1_645
Cr0 P10 2.390939 1_655
Cr0 P10 2.390939 1_555
Cr0 P4 2.541457 1_545
Cr1 P0 2.323411 1_556
Cr1 P8 2.372022 1_645
Cr1 P8 2.372022 1_545
Cr1 P11 2.387537 1_555
Cr1 P11 2.387537 1_655
Cr1 P5 2.543162 1_545
Cr2 P9 2.321878 1_555
Cr2 P3 2.360935 1_555
Cr2 P3 2.360935 1_455
Cr2 P0 2.376420 1_555
Cr2 P0 2.376420 1_455
Cr2 P8 2.462401 1_554
Cr3 P10 2.331957 1_555
Cr3 P1 2.392489 1_555
Cr3 P1 2.392489 1_455
Cr3 P4 2.408273 1_455
Cr3 P4 2.408273 1_555
Cr3 P6 2.419347 1_555
Cr4 P11 2.350239 1_555
Cr4 P2 2.391275 1_555
Cr4 P2 2.391275 1_455
Cr4 P5 2.397588 1_555
Cr4 P5 2.397588 1_455
Cr4 P7 2.507292 1_555
Cr5 P8 2.257203 1_544
Cr5 P0 2.320357 1_555
Cr5 P0 2.320357 1_455
Cr5 P3 2.382378 1_445
Cr5 P3 2.382378 1_545
Cr5 P9 2.395164 1_555
Cr6 P6 2.299262 1_545
Cr6 P4 2.363489 1_545
Cr6 P4 2.363489 1_445
Cr6 P10 2.371618 1_555
Cr6 P1 2.376443 1_455
Cr6 P1 2.376443 1_555
Cr7 P7 2.260216 1_545
Cr7 P2 2.333069 1_455
Cr7 P2 2.333069 1_555
Cr7 P11 2.371981 1_555
Cr7 P5 2.373513 1_445
Cr7 P5 2.373513 1_545
P0 Ti2 2.568661 1_554
P1 Ti3 2.430070 1_545
P1 Ti0 2.638869 1_555
P2 Ti1 2.565926 1_555
P3 Ti0 2.400235 1_555
P3 Ti3 2.657448 1_555
P4 Ti1 2.409883 1_555
P5 Ti2 2.404440 1_555
P6 Ti3 2.494131 1_455
P6 Ti3 2.494131 1_555
P6 Ti0 2.515804 1_455
P6 Ti0 2.515804 1_555
P7 Ti1 2.471624 1_555
P7 Ti1 2.471624 1_455
P8 Ti2 2.468775 1_455
P8 Ti2 2.468775 1_555
P9 Ti0 2.475335 1_455
P9 Ti0 2.475335 1_555
P9 Ti3 2.516197 1_545
P9 Ti3 2.516197 1_445
P10 Ti1 2.511460 1_455
P10 Ti1 2.511460 1_555
P11 Ti2 2.500514 1_455
P11 Ti2 2.500514 1_555
