# generated using pymatgen
data_Ba2Gd2Co4O11
_symmetry_space_group_name_H-M   'P 1'
_cell_length_a   3.86049600
_cell_length_b   7.59108300
_cell_length_c   8.05539700
_cell_angle_alpha   90.00000000
_cell_angle_beta   90.00000000
_cell_angle_gamma   90.00000000
_symmetry_Int_Tables_number   1
_chemical_formula_structural   Ba2Gd2Co4O11
_chemical_formula_sum   'Ba2 Gd2 Co4 O11'
_cell_volume   236.06619269
_cell_formula_units_Z   1
loop_
 _symmetry_equiv_pos_site_id
 _symmetry_equiv_pos_as_xyz
  1  'x, y, z'
loop_
 _atom_site_type_symbol
 _atom_site_label
 _atom_site_symmetry_multiplicity
 _atom_site_fract_x
 _atom_site_fract_y
 _atom_site_fract_z
 _atom_site_occupancy
  Ba  Ba0  1  0.50000000  0.00000000  0.24351700  1
  Ba  Ba1  1  0.50000000  0.00000000  0.75648300  1
  Gd  Gd0  1  0.50000000  0.50000000  0.27380600  1
  Gd  Gd1  1  0.50000000  0.50000000  0.72619400  1
  Co  Co0  1  0.00000000  0.75042700  0.50000000  1
  Co  Co1  1  0.00000000  0.24957300  0.50000000  1
  Co  Co2  1  0.00000000  0.72867000  0.00000000  1
  Co  Co3  1  0.00000000  0.27133000  0.00000000  1
  O  O0  1  0.00000000  0.00000000  0.00000000  1
  O  O1  1  0.00000000  0.00000000  0.50000000  1
  O  O2  1  0.00000000  0.50000000  0.50000000  1
  O  O3  1  0.50000000  0.68354900  0.00000000  1
  O  O4  1  0.50000000  0.31645100  0.00000000  1
  O  O5  1  0.50000000  0.72607000  0.50000000  1
  O  O6  1  0.50000000  0.27393000  0.50000000  1
  O  O7  1  0.00000000  0.70441900  0.23723800  1
  O  O8  1  0.00000000  0.70441900  0.76276200  1
  O  O9  1  0.00000000  0.29558100  0.76276200  1
  O  O10  1  0.00000000  0.29558100  0.23723800  1
loop_
_geom_bond_atom_site_label_1
_geom_bond_atom_site_label_2
_geom_bond_distance
_geom_bond_site_symmetry_2
Ba0 O0 2.752060 1_555
Ba0 O0 2.752060 1_655
Ba0 O1 2.827457 1_555
Ba0 O1 2.827457 1_655
Ba0 O6 2.931325 1_555
Ba0 O5 2.931325 1_545
Ba0 O10 2.960230 1_655
Ba0 O10 2.960230 1_555
Ba0 O7 2.960230 1_545
Ba0 O7 2.960230 1_645
Ba0 O4 3.101382 1_555
Ba0 O3 3.101382 1_545
Ba1 O0 2.752060 1_556
Ba1 O0 2.752060 1_656
Ba1 O1 2.827457 1_555
Ba1 O1 2.827457 1_655
Ba1 O6 2.931325 1_555
Ba1 O5 2.931325 1_545
Ba1 O9 2.960230 1_555
Ba1 O8 2.960230 1_645
Ba1 O9 2.960230 1_655
Ba1 O8 2.960230 1_545
Ba1 O4 3.101382 1_556
Ba1 O3 3.101382 1_546
Gd0 O7 2.494112 1_555
Gd0 O10 2.494112 1_655
Gd0 O7 2.494112 1_655
Gd0 O10 2.494112 1_555
Gd0 O6 2.503006 1_555
Gd0 O5 2.503006 1_555
Gd0 O3 2.608855 1_555
Gd0 O4 2.608855 1_555
Gd0 O2 2.654400 1_655
Gd0 O2 2.654400 1_555
Gd1 O9 2.494112 1_655
Gd1 O8 2.494112 1_555
Gd1 O8 2.494112 1_655
Gd1 O9 2.494112 1_555
Gd1 O6 2.503006 1_555
Gd1 O5 2.503006 1_555
Gd1 O3 2.608855 1_556
Gd1 O4 2.608855 1_556
Gd1 O2 2.654400 1_655
Gd1 O2 2.654400 1_555
Co0 O1 1.894529 1_565
Co0 O2 1.901012 1_555
Co0 O5 1.939083 1_555
Co0 O5 1.939083 1_455
Co0 O7 2.145272 1_555
Co0 O8 2.145272 1_555
Co1 O1 1.894529 1_555
Co1 O2 1.901012 1_555
Co1 O6 1.939083 1_455
Co1 O6 1.939083 1_555
Co1 O10 2.145272 1_555
Co1 O9 2.145272 1_555
Co2 O8 1.919893 1_554
Co2 O7 1.919893 1_555
Co2 O3 1.960402 1_455
Co2 O3 1.960402 1_555
Co2 O0 2.059689 1_565
Co3 O9 1.919893 1_554
Co3 O10 1.919893 1_555
Co3 O4 1.960402 1_555
Co3 O4 1.960402 1_455
Co3 O0 2.059689 1_555
