# generated using pymatgen
data_TbSnRh
_symmetry_space_group_name_H-M   'P 1'
_cell_length_a   7.58380556
_cell_length_b   7.58380556
_cell_length_c   3.79485380
_cell_angle_alpha   90.00000000
_cell_angle_beta   90.00000000
_cell_angle_gamma   120.00000317
_symmetry_Int_Tables_number   1
_chemical_formula_structural   TbSnRh
_chemical_formula_sum   'Tb3 Sn3 Rh3'
_cell_volume   189.01664336
_cell_formula_units_Z   3
loop_
 _symmetry_equiv_pos_site_id
 _symmetry_equiv_pos_as_xyz
  1  'x, y, z'
loop_
 _atom_site_type_symbol
 _atom_site_label
 _atom_site_symmetry_multiplicity
 _atom_site_fract_x
 _atom_site_fract_y
 _atom_site_fract_z
 _atom_site_occupancy
  Tb  Tb0  1  0.40690298  -0.00000000  0.50000000  1
  Tb  Tb1  1  -0.00000000  0.40690298  0.50000000  1
  Tb  Tb2  1  0.59309702  0.59309702  0.50000000  1
  Sn  Sn0  1  0.73783330  0.00000000  -0.00000000  1
  Sn  Sn1  1  0.00000000  0.73783330  -0.00000000  1
  Sn  Sn2  1  0.26216670  0.26216670  0.00000000  1
  Rh  Rh0  1  0.33333300  0.66666700  0.00000000  1
  Rh  Rh1  1  0.66666700  0.33333300  -0.00000000  1
  Rh  Rh2  1  -0.00000000  0.00000000  0.50000000  1
loop_
_geom_bond_atom_site_label_1
_geom_bond_atom_site_label_2
_geom_bond_distance
_geom_bond_site_symmetry_2
Sn0 Tb0 3.146248 1_554
Sn0 Tb0 3.146248 1_555
Sn0 Tb1 3.307638 1_655
Sn0 Tb1 3.307638 1_654
Sn0 Tb2 3.307638 1_545
Sn0 Tb2 3.307638 1_544
Sn1 Tb1 3.146248 1_554
Sn1 Tb1 3.146248 1_555
Sn1 Tb0 3.307638 1_565
Sn1 Tb0 3.307638 1_564
Sn1 Tb2 3.307638 1_455
Sn1 Tb2 3.307638 1_454
Sn2 Tb2 3.146248 1_554
Sn2 Tb2 3.146248 1_555
Sn2 Tb0 3.307638 1_555
Sn2 Tb0 3.307638 1_554
Sn2 Tb1 3.307638 1_554
Sn2 Tb1 3.307638 1_555
Rh0 Sn1 2.836562 1_555
Rh0 Sn0 2.836567 1_565
Rh0 Sn2 2.836570 1_555
Rh0 Tb0 2.981868 1_564
Rh0 Tb0 2.981868 1_565
Rh0 Tb1 2.981869 1_555
Rh0 Tb1 2.981869 1_554
Rh0 Tb2 2.981873 1_555
Rh0 Tb2 2.981873 1_554
Rh1 Sn0 2.836562 1_555
Rh1 Sn1 2.836567 1_655
Rh1 Sn2 2.836570 1_555
Rh1 Tb1 2.981868 1_655
Rh1 Tb1 2.981868 1_654
Rh1 Tb0 2.981869 1_555
Rh1 Tb0 2.981869 1_554
Rh1 Tb2 2.981873 1_555
Rh1 Tb2 2.981873 1_554
Rh2 Sn2 2.748318 1_556
Rh2 Sn2 2.748318 1_555
Rh2 Sn0 2.748318 1_456
Rh2 Sn1 2.748318 1_546
Rh2 Sn1 2.748318 1_545
Rh2 Sn0 2.748318 1_455
Rh2 Tb2 3.085873 1_445
Rh2 Tb0 3.085873 1_555
Rh2 Tb1 3.085873 1_555
