# generated using pymatgen
data_Cu3Mo(HO2)4
_symmetry_space_group_name_H-M   'P 1'
_cell_length_a   6.18221200
_cell_length_b   8.58146500
_cell_length_c   12.83316800
_cell_angle_alpha   90.00000000
_cell_angle_beta   90.00000000
_cell_angle_gamma   90.00000000
_symmetry_Int_Tables_number   1
_chemical_formula_structural   Cu3Mo(HO2)4
_chemical_formula_sum   'Cu12 Mo4 H16 O32'
_cell_volume   680.83082272
_cell_formula_units_Z   4
loop_
 _symmetry_equiv_pos_site_id
 _symmetry_equiv_pos_as_xyz
  1  'x, y, z'
loop_
 _atom_site_type_symbol
 _atom_site_label
 _atom_site_symmetry_multiplicity
 _atom_site_fract_x
 _atom_site_fract_y
 _atom_site_fract_z
 _atom_site_occupancy
  Cu  Cu0  1  0.24946100  0.72813200  0.13065900  1
  Cu  Cu1  1  0.24946100  0.27186800  0.86934100  1
  Cu  Cu2  1  0.25053900  0.77186800  0.63065900  1
  Cu  Cu3  1  0.25053900  0.22813200  0.36934100  1
  Cu  Cu4  1  0.75053900  0.27186800  0.86934100  1
  Cu  Cu5  1  0.75053900  0.72813200  0.13065900  1
  Cu  Cu6  1  0.74946100  0.22813200  0.36934100  1
  Cu  Cu7  1  0.74946100  0.77186800  0.63065900  1
  Cu  Cu8  1  0.00000000  0.00000000  0.00000000  1
  Cu  Cu9  1  0.50000000  0.50000000  0.50000000  1
  Cu  Cu10  1  0.50000000  0.00000000  0.00000000  1
  Cu  Cu11  1  0.00000000  0.50000000  0.50000000  1
  Mo  Mo0  1  0.50000000  0.87686400  0.36855700  1
  Mo  Mo1  1  0.50000000  0.12313600  0.63144300  1
  Mo  Mo2  1  0.00000000  0.62313600  0.86855700  1
  Mo  Mo3  1  0.00000000  0.37686400  0.13144300  1
  H  H0  1  0.50000000  0.63209000  0.99445500  1
  H  H1  1  0.50000000  0.36791000  0.00554500  1
  H  H2  1  0.00000000  0.86791000  0.49445500  1
  H  H3  1  0.00000000  0.13209000  0.50554500  1
  H  H4  1  0.00000000  0.85019300  0.25223900  1
  H  H5  1  0.00000000  0.14980700  0.74776100  1
  H  H6  1  0.50000000  0.64980700  0.75223900  1
  H  H7  1  0.50000000  0.35019300  0.24776100  1
  H  H8  1  0.24181900  0.03303200  0.16212100  1
  H  H9  1  0.24181900  0.96696700  0.83787900  1
  H  H10  1  0.25818100  0.46696800  0.66212100  1
  H  H11  1  0.25818100  0.53303300  0.33787900  1
  H  H12  1  0.75818100  0.96696700  0.83787900  1
  H  H13  1  0.75818100  0.03303200  0.16212100  1
  H  H14  1  0.74181900  0.53303300  0.33787900  1
  H  H15  1  0.74181900  0.46696800  0.66212100  1
  O  O0  1  0.50000000  0.72467300  0.03875900  1
  O  O1  1  0.50000000  0.27532700  0.96124100  1
  O  O2  1  0.00000000  0.77532700  0.53875900  1
  O  O3  1  0.00000000  0.22467300  0.46124100  1
  O  O4  1  0.00000000  0.74500300  0.22202900  1
  O  O5  1  0.00000000  0.25499700  0.77797100  1
  O  O6  1  0.50000000  0.75499700  0.72202900  1
  O  O7  1  0.50000000  0.24500300  0.27797100  1
  O  O8  1  0.24967500  0.96746700  0.09942600  1
  O  O9  1  0.24967500  0.03253300  0.90057400  1
  O  O10  1  0.25032500  0.53253300  0.59942600  1
  O  O11  1  0.25032500  0.46746700  0.40057400  1
  O  O12  1  0.75032500  0.03253300  0.90057400  1
  O  O13  1  0.75032500  0.96746700  0.09942600  1
  O  O14  1  0.74967500  0.46746700  0.40057400  1
  O  O15  1  0.74967500  0.53253300  0.59942600  1
  O  O16  1  0.50000000  0.73192600  0.26829900  1
  O  O17  1  0.50000000  0.26807400  0.73170100  1
  O  O18  1  0.00000000  0.76807400  0.76829900  1
  O  O19  1  0.00000000  0.23192600  0.23170100  1
  O  O20  1  0.25846700  0.99409500  0.35667400  1
  O  O21  1  0.25846700  0.00590500  0.64332600  1
  O  O22  1  0.24153300  0.50590500  0.85667400  1
  O  O23  1  0.24153300  0.49409500  0.14332600  1
  O  O24  1  0.74153300  0.00590500  0.64332600  1
  O  O25  1  0.74153300  0.99409500  0.35667400  1
  O  O26  1  0.75846700  0.49409500  0.14332600  1
  O  O27  1  0.75846700  0.50590500  0.85667400  1
  O  O28  1  0.50000000  0.77740100  0.49200000  1
  O  O29  1  0.50000000  0.22259900  0.50800000  1
  O  O30  1  0.00000000  0.72259900  0.99200000  1
  O  O31  1  0.00000000  0.27740100  0.00800000  1
loop_
_geom_bond_atom_site_label_1
_geom_bond_atom_site_label_2
_geom_bond_distance
_geom_bond_site_symmetry_2
Cu0 O4 1.942760 1_555
Cu0 O0 1.947007 1_555
Cu0 O23 2.015544 1_555
Cu0 O8 2.092591 1_555
Cu0 O16 2.349494 1_555
Cu0 O30 2.355225 1_554
Cu1 O5 1.942760 1_555
Cu1 O1 1.947007 1_555
Cu1 O22 2.015544 1_555
Cu1 O9 2.092591 1_555
Cu1 O17 2.349494 1_555
Cu1 O31 2.355225 1_556
Cu2 O6 1.942760 1_555
Cu2 O2 1.947007 1_555
Cu2 O21 2.015544 1_565
Cu2 O10 2.092591 1_555
Cu2 O18 2.349494 1_555
Cu2 O28 2.355225 1_555
Cu3 O7 1.942760 1_555
Cu3 O3 1.947007 1_555
Cu3 O20 2.015544 1_545
Cu3 O11 2.092591 1_555
Cu3 O19 2.349494 1_555
Cu3 O29 2.355225 1_555
Cu4 O5 1.942760 1_655
Cu4 O1 1.947007 1_555
Cu4 O27 2.015544 1_555
Cu4 O12 2.092591 1_555
Cu4 O17 2.349494 1_555
Cu4 O31 2.355225 1_656
Cu5 O4 1.942760 1_655
Cu5 O0 1.947007 1_555
Cu5 O26 2.015544 1_555
Cu5 O13 2.092591 1_555
Cu5 O16 2.349494 1_555
Cu5 O30 2.355225 1_654
Cu6 O7 1.942760 1_555
Cu6 O3 1.947007 1_655
Cu6 O25 2.015544 1_545
Cu6 O14 2.092591 1_555
Cu6 O19 2.349494 1_655
Cu6 O29 2.355225 1_555
Cu7 O6 1.942760 1_555
Cu7 O2 1.947007 1_655
Cu7 O24 2.015544 1_565
Cu7 O15 2.092591 1_555
Cu7 O18 2.349494 1_655
Cu7 O28 2.355225 1_555
Cu8 O9 2.022009 1_554
Cu8 O8 2.022009 1_545
Cu8 O13 2.022009 1_445
Cu8 O12 2.022009 1_454
Cu8 O31 2.382720 1_555
Cu8 O30 2.382720 1_544
Cu9 O15 2.022009 1_555
Cu9 O14 2.022009 1_555
Cu9 O10 2.022009 1_555
Cu9 O11 2.022009 1_555
Cu9 O29 2.382720 1_555
Cu9 O28 2.382720 1_555
Cu10 O13 2.025078 1_545
Cu10 O12 2.025078 1_554
Cu10 O8 2.025078 1_545
Cu10 O9 2.025078 1_554
Cu10 O0 2.414498 1_545
Cu10 O1 2.414498 1_554
Cu11 O10 2.025078 1_555
Cu11 O11 2.025078 1_555
Cu11 O15 2.025078 1_455
Cu11 O14 2.025078 1_455
Cu11 O2 2.414498 1_555
Cu11 O3 2.414498 1_555
Mo0 O16 1.789525 1_555
Mo0 O28 1.799474 1_555
Mo0 O20 1.806928 1_555
Mo0 O25 1.806928 1_555
Mo1 O17 1.789525 1_555
Mo1 O29 1.799474 1_555
Mo1 O21 1.806928 1_555
Mo1 O24 1.806928 1_555
Mo2 O18 1.789525 1_555
Mo2 O30 1.799474 1_555
Mo2 O22 1.806928 1_555
Mo2 O27 1.806928 1_455
Mo3 O19 1.789525 1_555
Mo3 O31 1.799474 1_555
Mo3 O26 1.806928 1_455
Mo3 O23 1.806928 1_555
H0 O0 0.976979 1_556
H1 O1 0.976979 1_554
H2 O2 0.976979 1_555
H3 O3 0.976979 1_555
H4 O4 0.982417 1_555
H5 O5 0.982417 1_555
H6 O6 0.982417 1_555
H7 O7 0.982417 1_555
H8 O8 0.982990 1_545
H9 O9 0.982994 1_565
H10 O10 0.982990 1_555
H11 O11 0.982994 1_555
H12 O12 0.982994 1_565
H13 O13 0.982990 1_545
H14 O14 0.982994 1_555
H15 O15 0.982990 1_555
