# generated using pymatgen
data_Na2AsP(H4O5)2
_symmetry_space_group_name_H-M   'P 1'
_cell_length_a   10.28631100
_cell_length_b   5.26762500
_cell_length_c   8.40390058
_cell_angle_alpha   89.54022577
_cell_angle_beta   90.00000000
_cell_angle_gamma   90.00000000
_symmetry_Int_Tables_number   1
_chemical_formula_structural   Na2AsP(H4O5)2
_chemical_formula_sum   'Na4 As2 P2 H16 O20'
_cell_volume   455.34589292
_cell_formula_units_Z   2
loop_
 _symmetry_equiv_pos_site_id
 _symmetry_equiv_pos_as_xyz
  1  'x, y, z'
loop_
 _atom_site_type_symbol
 _atom_site_label
 _atom_site_symmetry_multiplicity
 _atom_site_fract_x
 _atom_site_fract_y
 _atom_site_fract_z
 _atom_site_occupancy
  Na  Na0  1  0.60017200  0.66335200  0.41467400  1
  Na  Na1  1  0.10017200  0.33664800  0.58532600  1
  Na  Na2  1  0.40299700  0.17406300  0.08808400  1
  Na  Na3  1  0.90299700  0.82593700  0.91191600  1
  As  As0  1  0.34283200  0.83114100  0.69177800  1
  As  As1  1  0.84283200  0.16885900  0.30822200  1
  P  P0  1  0.65915500  0.33721700  0.80685800  1
  P  P1  1  0.15915500  0.66278300  0.19314200  1
  H  H0  1  0.40139000  0.43483900  0.75804500  1
  H  H1  1  0.90139000  0.56516100  0.24195500  1
  H  H2  1  0.60435900  0.95917700  0.73982200  1
  H  H3  1  0.10435900  0.04082300  0.26017800  1
  H  H4  1  0.20331500  0.79961000  0.48046400  1
  H  H5  1  0.70331500  0.20039000  0.51953600  1
  H  H6  1  0.78976800  0.29327600  0.00973100  1
  H  H7  1  0.28976800  0.70672400  0.99026900  1
  H  H8  1  0.54901500  0.69955600  0.05553900  1
  H  H9  1  0.04901500  0.30044400  0.94446100  1
  H  H10  1  0.45261800  0.20053200  0.44216900  1
  H  H11  1  0.95261800  0.79946800  0.55783100  1
  H  H12  1  0.64393500  0.90578600  0.12231000  1
  H  H13  1  0.14393500  0.09421400  0.87769000  1
  H  H14  1  0.35531500  0.40547800  0.37491200  1
  H  H15  1  0.85531500  0.59452200  0.62508800  1
  O  O0  1  0.30539600  0.93407600  0.87686600  1
  O  O1  1  0.80539600  0.06592400  0.12313400  1
  O  O2  1  0.68750900  0.43339400  0.63810600  1
  O  O3  1  0.18750900  0.56660600  0.36189400  1
  O  O4  1  0.32563400  0.49660400  0.68916000  1
  O  O5  1  0.82563400  0.50339600  0.31084000  1
  O  O6  1  0.67440100  0.03401400  0.81155200  1
  O  O7  1  0.17440100  0.96598600  0.18844800  1
  O  O8  1  0.55706700  0.82807100  0.13926500  1
  O  O9  1  0.05706700  0.17192900  0.86073500  1
  O  O10  1  0.44243000  0.33153700  0.35815800  1
  O  O11  1  0.94243000  0.66846300  0.64184200  1
  O  O12  1  0.48595200  0.92632400  0.61247900  1
  O  O13  1  0.98595200  0.07367600  0.38752100  1
  O  O14  1  0.52761200  0.41648600  0.87547900  1
  O  O15  1  0.02761200  0.58351400  0.12452100  1
  O  O16  1  0.21499500  0.93127200  0.56820700  1
  O  O17  1  0.71499500  0.06872800  0.43179300  1
  O  O18  1  0.77413300  0.42662600  0.91995500  1
  O  O19  1  0.27413300  0.57337400  0.08004500  1
loop_
_geom_bond_atom_site_label_1
_geom_bond_atom_site_label_2
_geom_bond_distance
_geom_bond_site_symmetry_2
Na0 O2 2.400762 1_555
Na0 O10 2.434493 1_555
Na0 O17 2.445493 1_565
Na0 O12 2.469735 1_555
Na0 O8 2.504833 1_555
Na0 O5 2.619497 1_555
Na1 O3 2.400762 1_555
Na1 O11 2.434493 1_455
Na1 O16 2.445493 1_545
Na1 O13 2.469735 1_455
Na1 O9 2.504833 1_555
Na1 O4 2.619497 1_555
Na2 O0 2.406837 1_544
Na2 O8 2.450666 1_545
Na2 O10 2.456473 1_555
Na2 O19 2.486706 1_555
Na2 O14 2.535649 1_554
Na2 O7 2.725265 1_545
Na3 O1 2.406837 1_566
Na3 O9 2.450666 1_665
Na3 O11 2.456473 1_555
Na3 O18 2.486706 1_555
Na3 O15 2.535649 1_656
Na3 O6 2.725265 1_565
As0 O12 1.690399 1_555
As0 O0 1.695667 1_555
As0 O16 1.754139 1_555
As0 O4 1.771385 1_555
As1 O13 1.690399 1_555
As1 O1 1.695667 1_555
As1 O17 1.754139 1_555
As1 O5 1.771385 1_555
H0 O4 1.022346 1_555
H0 O14 1.633257 1_555
H1 O5 1.022346 1_555
H1 O15 1.633257 1_655
H2 O6 1.020628 1_565
H2 O12 1.631458 1_555
H3 O7 1.020628 1_545
H3 O13 1.631458 1_455
H4 O16 1.023417 1_555
H4 O3 1.595441 1_555
H5 O17 1.023417 1_555
H5 O2 1.595441 1_555
H6 O18 1.039231 1_554
H6 O1 1.532985 1_555
H7 O19 1.039231 1_556
H7 O0 1.532985 1_555
H8 O8 0.983809 1_555
H9 O9 0.983809 1_555
H10 O10 0.988860 1_555
H11 O11 0.988860 1_555
H12 O8 0.992667 1_555
H13 O9 0.992667 1_555
H14 O10 0.987619 1_555
H15 O11 0.987619 1_555
O2 P0 1.530171 1_555
O3 P1 1.530171 1_555
O6 P0 1.605010 1_555
O7 P1 1.605010 1_555
O14 P0 1.530243 1_555
O15 P1 1.530243 1_555
O18 P0 1.590957 1_555
O19 P1 1.590957 1_555
