# generated using pymatgen
data_Li2TiMn2NiO8
_symmetry_space_group_name_H-M   'P 1'
_cell_length_a   5.85477414
_cell_length_b   10.20400791
_cell_length_c   5.96298593
_cell_angle_alpha   106.83090871
_cell_angle_beta   60.59893865
_cell_angle_gamma   90.00015606
_symmetry_Int_Tables_number   1
_chemical_formula_structural   Li2TiMn2NiO8
_chemical_formula_sum   'Li4 Ti2 Mn4 Ni2 O16'
_cell_volume   292.71714428
_cell_formula_units_Z   2
loop_
 _symmetry_equiv_pos_site_id
 _symmetry_equiv_pos_as_xyz
  1  'x, y, z'
loop_
 _atom_site_type_symbol
 _atom_site_label
 _atom_site_symmetry_multiplicity
 _atom_site_fract_x
 _atom_site_fract_y
 _atom_site_fract_z
 _atom_site_occupancy
  Li  Li0  1  0.63323900  0.12596700  0.73351500  1
  Li  Li1  1  0.13323400  0.62599100  0.73353100  1
  Li  Li2  1  0.99177800  0.99900500  0.01644200  1
  Li  Li3  1  0.49175900  0.49903100  0.01647500  1
  Ti  Ti0  1  0.31251100  0.06251300  0.37498300  1
  Ti  Ti1  1  0.81253100  0.56248600  0.37494200  1
  Mn  Mn0  1  0.06251200  0.81250000  0.37499800  1
  Mn  Mn1  1  0.56251700  0.81249400  0.37498700  1
  Mn  Mn2  1  0.56254300  0.31247200  0.37497400  1
  Mn  Mn3  1  0.06237400  0.31254700  0.37517600  1
  Ni  Ni0  1  0.06252500  0.31249900  0.87498300  1
  Ni  Ni1  1  0.56248900  0.81250600  0.87501500  1
  O  O0  1  0.20556000  0.92864600  0.58888300  1
  O  O1  1  0.70553100  0.42866300  0.58892200  1
  O  O2  1  0.41942800  0.19634700  0.16112600  1
  O  O3  1  0.91945300  0.69634700  0.16108900  1
  O  O4  1  0.42138000  0.70831400  0.15723800  1
  O  O5  1  0.92137400  0.20831200  0.15725300  1
  O  O6  1  0.70363600  0.91668300  0.59273800  1
  O  O7  1  0.20362900  0.41669100  0.59275700  1
  O  O8  1  0.65187000  0.93346900  0.15819700  1
  O  O9  1  0.15184800  0.43348300  0.15823000  1
  O  O10  1  0.18992400  0.93347000  0.15820300  1
  O  O11  1  0.68992100  0.43348100  0.15820900  1
  O  O12  1  0.47314500  0.69152800  0.59178000  1
  O  O13  1  0.97311000  0.19151800  0.59180000  1
  O  O14  1  0.43510100  0.19151400  0.59177300  1
  O  O15  1  0.93507700  0.69152500  0.59178100  1
loop_
_geom_bond_atom_site_label_1
_geom_bond_atom_site_label_2
_geom_bond_distance
_geom_bond_site_symmetry_2
Li0 O13 1.948694 1_555
Li0 O14 1.948717 1_555
Li0 O6 2.014257 1_545
Li0 O2 2.095251 1_556
Li1 O15 1.948784 1_455
Li1 O12 1.948823 1_555
Li1 O7 2.014411 1_555
Li1 O3 2.094993 1_456
Li2 O10 1.948790 1_655
Li2 O8 1.948805 1_555
Li2 O5 2.014480 1_565
Li2 O0 2.094998 1_654
Li3 O11 1.948805 1_555
Li3 O9 1.948876 1_555
Li3 O4 2.014247 1_555
Li3 O1 2.094968 1_554
Mn0 O10 1.930958 1_555
Mn0 O15 1.930960 1_455
Mn0 O4 1.937208 1_555
Mn0 O6 1.937235 1_455
Mn0 O0 1.976380 1_555
Mn0 O3 1.976555 1_455
Mn1 O12 1.930918 1_555
Mn1 O8 1.930988 1_555
Mn1 O6 1.937212 1_555
Mn1 O4 1.937250 1_555
Mn1 O3 1.976411 1_555
Mn1 O0 1.976523 1_555
Mn2 O14 1.930882 1_555
Mn2 O11 1.931159 1_555
Mn2 O5 1.936955 1_555
Mn2 O7 1.937528 1_555
Mn2 O2 1.976432 1_555
Mn2 O1 1.976565 1_555
Mn3 O13 1.930763 1_455
Mn3 O9 1.931287 1_555
Mn3 O7 1.936920 1_555
Mn3 O5 1.937591 1_455
Mn3 O1 1.975920 1_455
Mn3 O2 1.977103 1_555
Ni0 O9 2.076058 1_556
Ni0 O14 2.076076 1_555
Ni0 O13 2.076106 1_455
Ni0 O11 2.076184 1_456
Ni0 O7 2.077522 1_555
Ni0 O5 2.077684 1_456
Ni1 O8 2.075906 1_556
Ni1 O10 2.075941 1_556
Ni1 O12 2.076062 1_555
Ni1 O15 2.076125 1_555
Ni1 O4 2.077508 1_556
Ni1 O6 2.077639 1_555
O0 Ti0 2.027221 1_565
O1 Ti1 2.027158 1_555
O2 Ti0 2.026761 1_555
O3 Ti1 2.026980 1_555
O8 Ti0 1.960893 1_565
O9 Ti1 1.960537 1_455
O10 Ti0 1.960905 1_565
O11 Ti1 1.960631 1_555
O12 Ti1 1.960982 1_555
O13 Ti0 1.960866 1_655
O14 Ti0 1.960750 1_555
O15 Ti1 1.960947 1_555
