# generated using pymatgen
data_Na2Al2As3
_symmetry_space_group_name_H-M   'P 1'
_cell_length_a   6.72210718
_cell_length_b   13.10571944
_cell_length_c   14.39449922
_cell_angle_alpha   89.74368474
_cell_angle_beta   90.00000000
_cell_angle_gamma   90.00000000
_symmetry_Int_Tables_number   1
_chemical_formula_structural   Na2Al2As3
_chemical_formula_sum   'Na16 Al16 As24'
_cell_volume   1268.11463384
_cell_formula_units_Z   8
loop_
 _symmetry_equiv_pos_site_id
 _symmetry_equiv_pos_as_xyz
  1  'x, y, z'
loop_
 _atom_site_type_symbol
 _atom_site_label
 _atom_site_symmetry_multiplicity
 _atom_site_fract_x
 _atom_site_fract_y
 _atom_site_fract_z
 _atom_site_occupancy
  Na  Na0  1  0.05592852  0.86087484  0.00859477  1
  Na  Na1  1  0.55592852  0.13912516  0.49140523  1
  Na  Na2  1  0.94407148  0.13912516  0.99140523  1
  Na  Na3  1  0.44407148  0.86087484  0.50859477  1
  Na  Na4  1  0.41089778  0.34988689  0.98052280  1
  Na  Na5  1  0.91089778  0.65011311  0.51947720  1
  Na  Na6  1  0.58910222  0.65011311  0.01947720  1
  Na  Na7  1  0.08910222  0.34988689  0.48052280  1
  Na  Na8  1  0.45385876  0.08602871  0.89282360  1
  Na  Na9  1  0.95385876  0.91397129  0.60717640  1
  Na  Na10  1  0.54614124  0.91397129  0.10717640  1
  Na  Na11  1  0.04614124  0.08602871  0.39282360  1
  Na  Na12  1  0.09904472  0.56616288  0.08525711  1
  Na  Na13  1  0.59904472  0.43383712  0.41474289  1
  Na  Na14  1  0.90095528  0.43383712  0.91474289  1
  Na  Na15  1  0.40095528  0.56616288  0.58525711  1
  Al  Al0  1  0.71349732  0.31578100  0.16513720  1
  Al  Al1  1  0.21349732  0.68421900  0.33486280  1
  Al  Al2  1  0.28650268  0.68421900  0.83486280  1
  Al  Al3  1  0.78650268  0.31578100  0.66513720  1
  Al  Al4  1  0.20378994  0.90628224  0.26997005  1
  Al  Al5  1  0.70378994  0.09371776  0.23002995  1
  Al  Al6  1  0.79621006  0.09371776  0.73002995  1
  Al  Al7  1  0.29621006  0.90628224  0.76997005  1
  Al  Al8  1  0.23681859  0.18924944  0.17249884  1
  Al  Al9  1  0.73681859  0.81075056  0.32750116  1
  Al  Al10  1  0.76318141  0.81075056  0.82750116  1
  Al  Al11  1  0.26318141  0.18924944  0.67249884  1
  Al  Al12  1  0.23604681  0.41071425  0.24063030  1
  Al  Al13  1  0.73604681  0.58928575  0.25936970  1
  Al  Al14  1  0.76395319  0.58928575  0.75936970  1
  Al  Al15  1  0.26395319  0.41071425  0.74063030  1
  As  As0  1  0.03051860  0.03426528  0.17427059  1
  As  As1  1  0.53051860  0.96573472  0.32572941  1
  As  As2  1  0.96948140  0.96573472  0.82572941  1
  As  As3  1  0.46948140  0.03426528  0.67427059  1
  As  As4  1  0.54632991  0.16189052  0.08655551  1
  As  As5  1  0.04632991  0.83810948  0.41344449  1
  As  As6  1  0.45367009  0.83810948  0.91344449  1
  As  As7  1  0.95367009  0.16189052  0.58655551  1
  As  As8  1  0.04992879  0.33912035  0.10440457  1
  As  As9  1  0.54992879  0.66087965  0.39559543  1
  As  As10  1  0.95007121  0.66087965  0.89559543  1
  As  As11  1  0.45007121  0.33912035  0.60440457  1
  As  As12  1  0.16225543  0.25330500  0.83004910  1
  As  As13  1  0.66225543  0.74669500  0.66995090  1
  As  As14  1  0.83774457  0.74669500  0.16995090  1
  As  As15  1  0.33774457  0.25330500  0.33004910  1
  As  As16  1  0.53083653  0.47914420  0.15774855  1
  As  As17  1  0.03083653  0.52085580  0.34225145  1
  As  As18  1  0.46916347  0.52085580  0.84225145  1
  As  As19  1  0.96916347  0.47914420  0.65774855  1
  As  As20  1  0.78853157  0.24999152  0.82574656  1
  As  As21  1  0.28853157  0.75000848  0.67425344  1
  As  As22  1  0.21146843  0.75000848  0.17425344  1
  As  As23  1  0.71146843  0.24999152  0.32574656  1
loop_
_geom_bond_atom_site_label_1
_geom_bond_atom_site_label_2
_geom_bond_distance
_geom_bond_site_symmetry_2
Al0 As8 2.443345 1_655
Al0 As23 2.463861 1_555
Al0 As16 2.469975 1_555
Al0 As4 2.574938 1_555
Al1 As9 2.443345 1_555
Al1 As22 2.463861 1_555
Al1 As17 2.469975 1_555
Al1 As5 2.574938 1_555
Al2 As10 2.443345 1_455
Al2 As21 2.463861 1_555
Al2 As18 2.469975 1_555
Al2 As6 2.574938 1_555
Al3 As11 2.443345 1_555
Al3 As20 2.463861 1_555
Al3 As19 2.469975 1_555
Al3 As7 2.574938 1_555
Al4 As0 2.459058 1_565
Al4 As1 2.465900 1_555
Al4 As22 2.474036 1_555
Al4 As5 2.483409 1_555
Al4 Na11 3.136391 1_565
Al4 Na10 3.285626 1_555
Al5 As1 2.459058 1_545
Al5 As0 2.465900 1_655
Al5 As23 2.474036 1_555
Al5 As4 2.483409 1_555
Al5 Na10 3.136391 1_545
Al5 Na11 3.285626 1_655
Al6 As2 2.459058 1_545
Al6 As3 2.465900 1_555
Al6 As20 2.474036 1_555
Al6 As7 2.483409 1_555
Al6 Na9 3.136391 1_545
Al6 Na8 3.285626 1_555
Al7 As3 2.459058 1_565
Al7 As2 2.465900 1_455
Al7 As21 2.474036 1_555
Al7 As6 2.483409 1_555
Al7 Na8 3.136391 1_565
Al7 Na9 3.285626 1_455
Al8 As4 2.447803 1_555
Al8 As0 2.459473 1_555
Al8 As15 2.515002 1_555
Al8 As8 2.525818 1_555
Al9 As5 2.447803 1_655
Al9 As1 2.459473 1_555
Al9 As14 2.515002 1_555
Al9 As9 2.525818 1_555
Al10 As6 2.447803 1_555
Al10 As2 2.459473 1_555
Al10 As13 2.515002 1_555
Al10 As10 2.525818 1_555
Al11 As7 2.447803 1_455
Al11 As3 2.459473 1_555
Al11 As12 2.515002 1_555
Al11 As11 2.525818 1_555
Al12 As16 2.478878 1_555
Al12 As17 2.478941 1_555
Al12 As8 2.511423 1_555
Al12 As15 2.521135 1_555
Al12 Na12 3.155922 1_555
Al13 As17 2.478878 1_655
Al13 As16 2.478941 1_555
Al13 As9 2.511423 1_555
Al13 As14 2.521135 1_555
Al13 Na13 3.155922 1_555
Al14 As18 2.478878 1_555
Al14 As19 2.478941 1_555
Al14 As10 2.511423 1_555
Al14 As13 2.521135 1_555
Al14 Na14 3.155922 1_555
Al15 As19 2.478878 1_455
Al15 As18 2.478941 1_555
Al15 As11 2.511423 1_555
Al15 As12 2.521135 1_555
Al15 Na15 3.155922 1_555
As0 Na2 3.020379 1_454
As0 Na11 3.222952 1_555
As0 Na0 3.305883 1_545
As1 Na3 3.020379 1_555
As1 Na10 3.222952 1_555
As1 Na1 3.305883 1_565
As2 Na0 3.020379 1_656
As2 Na9 3.222952 1_555
As2 Na2 3.305883 1_565
As3 Na1 3.020379 1_555
As3 Na8 3.222952 1_555
As3 Na3 3.305883 1_545
As4 Na2 3.019446 1_554
As4 Na8 3.029253 1_554
As4 Na4 3.032353 1_554
As4 Na10 3.261368 1_545
As5 Na3 3.019446 1_555
As5 Na9 3.029253 1_455
As5 Na5 3.032353 1_455
As5 Na11 3.261368 1_565
As6 Na0 3.019446 1_556
As6 Na10 3.029253 1_556
As6 Na6 3.032353 1_556
As6 Na8 3.261368 1_565
As7 Na1 3.019446 1_555
As7 Na11 3.029253 1_655
As7 Na7 3.032353 1_655
As7 Na9 3.261368 1_545
As8 Na12 3.005257 1_555
As8 Na4 3.014181 1_554
As8 Na14 3.157021 1_454
As8 Na2 3.171796 1_454
As9 Na13 3.005257 1_555
As9 Na5 3.014181 1_555
As9 Na15 3.157021 1_555
As9 Na3 3.171796 1_555
As10 Na14 3.005257 1_555
As10 Na6 3.014181 1_556
As10 Na12 3.157021 1_656
As10 Na0 3.171796 1_656
As11 Na15 3.005257 1_555
As11 Na7 3.014181 1_555
As11 Na13 3.157021 1_555
As11 Na1 3.171796 1_555
As12 As20 2.513355 1_455
As12 Na4 3.018580 1_555
As12 Na8 3.073629 1_555
As12 Na2 3.123121 1_455
As12 Na14 3.193007 1_455
As13 As21 2.513355 1_555
As13 Na5 3.018580 1_555
As13 Na9 3.073629 1_555
As13 Na3 3.123121 1_555
As13 Na15 3.193007 1_555
As14 As22 2.513355 1_655
As14 Na6 3.018580 1_555
As14 Na10 3.073629 1_555
As14 Na0 3.123121 1_655
As14 Na12 3.193007 1_655
As15 As23 2.513355 1_555
As15 Na7 3.018580 1_555
As15 Na11 3.073629 1_555
As15 Na1 3.123121 1_555
As15 Na13 3.193007 1_555
As16 Na6 3.015889 1_555
As16 Na4 3.172751 1_554
As16 Na12 3.286884 1_555
As17 Na7 3.015889 1_555
As17 Na5 3.172751 1_455
As17 Na13 3.286884 1_455
As18 Na4 3.015889 1_555
As18 Na6 3.172751 1_556
As18 Na14 3.286884 1_555
As19 Na5 3.015889 1_555
As19 Na7 3.172751 1_655
As19 Na15 3.286884 1_655
As20 Na14 2.836405 1_555
As20 Na2 2.976498 1_555
As20 Na8 3.254603 1_555
As21 Na15 2.836405 1_555
As21 Na3 2.976498 1_555
As21 Na9 3.254603 1_455
As22 Na12 2.836405 1_555
As22 Na0 2.976498 1_555
As22 Na10 3.254603 1_555
As23 Na13 2.836405 1_555
As23 Na1 2.976498 1_555
As23 Na11 3.254603 1_655
