# generated using pymatgen
data_Gd3AlZnS7
_symmetry_space_group_name_H-M   'P 1'
_cell_length_a   9.76494710
_cell_length_b   9.76494710
_cell_length_c   6.20964400
_cell_angle_alpha   90.00000000
_cell_angle_beta   90.00000000
_cell_angle_gamma   119.99999393
_symmetry_Int_Tables_number   1
_chemical_formula_structural   Gd3AlZnS7
_chemical_formula_sum   'Gd6 Al2 Zn2 S14'
_cell_volume   512.78717071
_cell_formula_units_Z   2
loop_
 _symmetry_equiv_pos_site_id
 _symmetry_equiv_pos_as_xyz
  1  'x, y, z'
loop_
 _atom_site_type_symbol
 _atom_site_label
 _atom_site_symmetry_multiplicity
 _atom_site_fract_x
 _atom_site_fract_y
 _atom_site_fract_z
 _atom_site_occupancy
  Gd  Gd0  1  0.76766200  0.14473100  0.23442000  1
  Gd  Gd1  1  0.37706900  0.23233800  0.23442000  1
  Gd  Gd2  1  0.85526900  0.62293100  0.23442000  1
  Gd  Gd3  1  0.23233800  0.85526900  0.73442000  1
  Gd  Gd4  1  0.62293100  0.76766200  0.73442000  1
  Gd  Gd5  1  0.14473100  0.37706900  0.73442000  1
  Al  Al0  1  0.66666700  0.33333300  0.66198400  1
  Al  Al1  1  0.33333300  0.66666700  0.16198400  1
  Zn  Zn0  1  0.00000000  0.00000000  0.00325300  1
  Zn  Zn1  1  0.00000000  0.00000000  0.50325300  1
  S  S0  1  0.85579100  0.09948600  0.81874600  1
  S  S1  1  0.24369500  0.14420900  0.81874600  1
  S  S2  1  0.90051400  0.75630500  0.81874600  1
  S  S3  1  0.14420900  0.90051400  0.31874600  1
  S  S4  1  0.75630500  0.85579100  0.31874600  1
  S  S5  1  0.09948600  0.24369500  0.31874600  1
  S  S6  1  0.90475300  0.42307700  0.50491500  1
  S  S7  1  0.51832300  0.09524700  0.50491500  1
  S  S8  1  0.57692300  0.48167700  0.50491500  1
  S  S9  1  0.09524700  0.57692300  0.00491500  1
  S  S10  1  0.48167700  0.90475300  0.00491500  1
  S  S11  1  0.42307700  0.51832300  0.00491500  1
  S  S12  1  0.66666700  0.33333300  0.02448800  1
  S  S13  1  0.33333300  0.66666700  0.52448800  1
loop_
_geom_bond_atom_site_label_1
_geom_bond_atom_site_label_2
_geom_bond_distance
_geom_bond_site_symmetry_2
Gd0 S7 2.794005 1_555
Gd0 S12 2.807152 1_555
Gd0 S4 2.816799 1_545
Gd0 S0 2.824630 1_554
Gd0 S6 2.891801 1_555
Gd0 S5 2.928474 1_655
Gd0 S10 2.962606 1_545
Gd1 S8 2.794003 1_555
Gd1 S12 2.807160 1_555
Gd1 S5 2.816799 1_555
Gd1 S1 2.824630 1_554
Gd1 S7 2.891794 1_555
Gd1 S3 2.928474 1_545
Gd1 S11 2.962603 1_555
Gd2 S6 2.793997 1_555
Gd2 S12 2.807159 1_555
Gd2 S3 2.816800 1_655
Gd2 S2 2.824630 1_554
Gd2 S8 2.891801 1_555
Gd2 S4 2.928474 1_555
Gd2 S9 2.962612 1_655
Gd3 S10 2.794005 1_556
Gd3 S13 2.807152 1_555
Gd3 S1 2.816799 1_565
Gd3 S3 2.824630 1_555
Gd3 S9 2.891801 1_556
Gd3 S2 2.928474 1_455
Gd3 S7 2.962606 1_565
Gd4 S11 2.794003 1_556
Gd4 S13 2.807160 1_555
Gd4 S2 2.816799 1_555
Gd4 S4 2.824630 1_555
Gd4 S10 2.891794 1_556
Gd4 S0 2.928474 1_565
Gd4 S8 2.962603 1_555
Gd5 S9 2.793997 1_556
Gd5 S13 2.807159 1_555
Gd5 S0 2.816800 1_455
Gd5 S5 2.824630 1_555
Gd5 S11 2.891801 1_556
Gd5 S1 2.928474 1_555
Gd5 S6 2.962612 1_455
Al0 S12 2.251021 1_556
Al0 S6 2.255440 1_555
Al0 S7 2.255442 1_555
Al0 S8 2.255456 1_555
Al1 S13 2.251021 1_555
Al1 S9 2.255440 1_555
Al1 S10 2.255442 1_555
Al1 S11 2.255456 1_555
S0 Zn0 2.368012 1_656
S0 Zn1 2.851818 1_655
S1 Zn0 2.368012 1_556
S1 Zn1 2.851818 1_555
S2 Zn0 2.368012 1_666
S2 Zn1 2.851818 1_665
S3 Zn1 2.368012 1_565
S3 Zn0 2.851818 1_565
S4 Zn1 2.368012 1_665
S4 Zn0 2.851818 1_665
S5 Zn1 2.368012 1_555
S5 Zn0 2.851818 1_555
