# generated using pymatgen
data_Mg6MnNi
_symmetry_space_group_name_H-M   'P 1'
_cell_length_a   4.78878200
_cell_length_b   6.04740800
_cell_length_c   10.41813100
_cell_angle_alpha   90.00000000
_cell_angle_beta   90.00000000
_cell_angle_gamma   90.00000000
_symmetry_Int_Tables_number   1
_chemical_formula_structural   Mg6MnNi
_chemical_formula_sum   'Mg12 Mn2 Ni2'
_cell_volume   301.70614186
_cell_formula_units_Z   2
loop_
 _symmetry_equiv_pos_site_id
 _symmetry_equiv_pos_as_xyz
  1  'x, y, z'
loop_
 _atom_site_type_symbol
 _atom_site_label
 _atom_site_symmetry_multiplicity
 _atom_site_fract_x
 _atom_site_fract_y
 _atom_site_fract_z
 _atom_site_occupancy
  Mg  Mg0  1  0.50000000  0.74863200  0.08351800  1
  Mg  Mg1  1  0.50000000  0.25136800  0.08351800  1
  Mg  Mg2  1  0.00000000  0.74516700  0.91085700  1
  Mg  Mg3  1  0.00000000  0.25483300  0.91085700  1
  Mg  Mg4  1  0.00000000  0.50000000  0.17111100  1
  Mg  Mg5  1  0.00000000  0.50000000  0.67432300  1
  Mg  Mg6  1  0.50000000  0.24863200  0.58351800  1
  Mg  Mg7  1  0.50000000  0.75136800  0.58351800  1
  Mg  Mg8  1  0.00000000  0.24516700  0.41085700  1
  Mg  Mg9  1  0.00000000  0.75483300  0.41085700  1
  Mg  Mg10  1  0.00000000  0.00000000  0.67111100  1
  Mg  Mg11  1  0.00000000  0.00000000  0.17432300  1
  Mn  Mn0  1  0.50000000  0.50000000  0.33278200  1
  Mn  Mn1  1  0.50000000  0.00000000  0.83278200  1
  Ni  Ni0  1  0.50000000  0.50000000  0.83303800  1
  Ni  Ni1  1  0.50000000  0.00000000  0.33303800  1
loop_
_geom_bond_atom_site_label_1
_geom_bond_atom_site_label_2
_geom_bond_distance
_geom_bond_site_symmetry_2
Mg0 Mg4 2.970962 1_655
Mg0 Mg4 2.970962 1_555
Mg0 Mg11 2.989789 1_665
Mg0 Mg11 2.989789 1_565
Mg0 Mg2 2.994870 1_654
Mg0 Mg2 2.994870 1_554
Mg0 Mn0 3.000743 1_555
Mg0 Mg1 3.007158 1_555
Mg0 Ni1 3.011370 1_565
Mg0 Ni0 3.011713 1_554
Mg0 Mn1 3.022312 1_564
Mg0 Mg1 3.040250 1_565
Mg1 Mg4 2.970962 1_655
Mg1 Mg4 2.970962 1_555
Mg1 Mg11 2.989789 1_655
Mg1 Mg11 2.989789 1_555
Mg1 Mg3 2.994870 1_654
Mg1 Mg3 2.994870 1_554
Mg1 Mn0 3.000743 1_555
Mg1 Ni1 3.011370 1_555
Mg1 Ni0 3.011713 1_554
Mg1 Mn1 3.022312 1_554
Mg2 Mg5 2.875877 1_555
Mg2 Ni0 2.930625 1_555
Mg2 Ni0 2.930625 1_455
Mg2 Mn1 2.961359 1_565
Mg2 Mn1 2.961359 1_465
Mg2 Mg3 2.965250 1_555
Mg2 Mg3 3.082158 1_565
Mg2 Mg4 3.090251 1_556
Mg3 Mg5 2.875877 1_555
Mg3 Ni0 2.930625 1_555
Mg3 Ni0 2.930625 1_455
Mg3 Mn1 2.961359 1_455
Mg3 Mn1 2.961359 1_555
Mg3 Mg4 3.090251 1_556
Mg4 Mn0 2.927457 1_455
Mg4 Mn0 2.927457 1_555
Mg4 Mg8 2.934869 1_555
Mg4 Mg9 2.934869 1_555
Mg5 Ni0 2.909848 1_455
Mg5 Ni0 2.909848 1_555
Mg5 Mg6 2.989789 1_555
Mg5 Mg7 2.989789 1_455
Mg5 Mg7 2.989789 1_555
Mg5 Mg6 2.989789 1_455
Mg5 Mg9 3.147853 1_555
Mg5 Mg8 3.147853 1_555
Mg6 Mg8 2.994870 1_555
Mg6 Mg8 2.994870 1_655
Mg6 Mn1 3.000743 1_555
Mg6 Mg7 3.007158 1_545
Mg6 Ni0 3.011370 1_555
Mg6 Ni1 3.011713 1_555
Mg6 Mn0 3.022312 1_555
Mg6 Mg7 3.040250 1_555
Mg7 Mg9 2.994870 1_655
Mg7 Mg9 2.994870 1_555
Mg7 Mn1 3.000743 1_565
Mg7 Ni0 3.011370 1_555
Mg7 Ni1 3.011713 1_565
Mg7 Mn0 3.022312 1_555
Mg8 Ni1 2.930625 1_555
Mg8 Ni1 2.930625 1_455
Mg8 Mn0 2.961359 1_455
Mg8 Mn0 2.961359 1_555
Mg8 Mg9 2.965250 1_545
Mg8 Mg9 3.082158 1_555
Mg9 Ni1 2.930625 1_465
Mg9 Ni1 2.930625 1_565
Mg9 Mn0 2.961359 1_455
Mg9 Mn0 2.961359 1_555
Mg10 Mn1 2.927457 1_455
Mg10 Mn1 2.927457 1_555
Mg10 Mg3 2.934869 1_555
Mg10 Mg2 2.934869 1_545
Mg10 Mg6 2.970962 1_555
Mg10 Mg7 2.970962 1_445
Mg10 Mg7 2.970962 1_545
Mg10 Mg6 2.970962 1_455
Mg10 Mg5 3.023889 1_545
Mg10 Mg5 3.023889 1_555
Mg10 Mg9 3.090251 1_545
Mg10 Mg8 3.090251 1_555
Mg11 Mg9 2.875877 1_545
Mg11 Mg8 2.875877 1_555
Mg11 Ni1 2.909848 1_555
Mg11 Ni1 2.909848 1_455
Mg11 Mg4 3.023889 1_545
Mg11 Mg4 3.023889 1_555
Mg11 Mg2 3.147853 1_544
Mg11 Mg3 3.147853 1_554
Mn0 Ni1 3.023705 1_565
Mn0 Ni1 3.023705 1_555
Mn1 Ni0 3.023705 1_555
Mn1 Ni0 3.023705 1_545
