# generated using pymatgen
data_Ba2Cr2F11
_symmetry_space_group_name_H-M   'P 1'
_cell_length_a   7.77360353
_cell_length_b   7.77360353
_cell_length_c   14.27526500
_cell_angle_alpha   90.00000000
_cell_angle_beta   90.00000000
_cell_angle_gamma   119.99999600
_symmetry_Int_Tables_number   1
_chemical_formula_structural   Ba2Cr2F11
_chemical_formula_sum   'Ba6 Cr6 F33'
_cell_volume   747.06708473
_cell_formula_units_Z   3
loop_
 _symmetry_equiv_pos_site_id
 _symmetry_equiv_pos_as_xyz
  1  'x, y, z'
loop_
 _atom_site_type_symbol
 _atom_site_label
 _atom_site_symmetry_multiplicity
 _atom_site_fract_x
 _atom_site_fract_y
 _atom_site_fract_z
 _atom_site_occupancy
  Ba  Ba0  1  0.57270300  0.17872200  0.66298000  1
  Ba  Ba1  1  0.16575600  0.45878900  0.80692200  1
  Ba  Ba2  1  0.60601900  0.42729700  0.99631300  1
  Ba  Ba3  1  0.54121100  0.70696800  0.47358800  1
  Ba  Ba4  1  0.29303200  0.83424400  0.14025500  1
  Ba  Ba5  1  0.82127800  0.39398100  0.32964700  1
  Cr  Cr0  1  0.64371700  0.98131300  0.88560700  1
  Cr  Cr1  1  0.84897000  0.77640400  0.72588900  1
  Cr  Cr2  1  0.22359600  0.07256600  0.39255500  1
  Cr  Cr3  1  0.33759500  0.35628300  0.21894000  1
  Cr  Cr4  1  0.92743400  0.15103000  0.05922200  1
  Cr  Cr5  1  0.01868700  0.66240500  0.55227300  1
  F  F0  1  0.65711100  0.06175700  0.02272400  1
  F  F1  1  0.52791800  0.72011800  0.93680000  1
  F  F2  1  0.40464700  0.34288900  0.35605700  1
  F  F3  1  0.10373100  0.50081100  0.49176600  1
  F  F4  1  0.51873400  0.26487400  0.18339600  1
  F  F5  1  0.94454800  0.59057800  0.17657900  1
  F  F6  1  0.49918900  0.60292100  0.15843200  1
  F  F7  1  0.40942200  0.35397000  0.84324600  1
  F  F8  1  0.74614000  0.48126600  0.51673000  1
  F  F9  1  0.20454800  0.27992000  0.09528600  1
  F  F10  1  0.39707900  0.89626900  0.82509900  1
  F  F11  1  0.93824300  0.59535300  0.68939000  1
  F  F12  1  0.33432300  0.05752500  0.00949100  1
  F  F13  1  0.99456400  0.40273400  0.01593600  1
  F  F14  1  0.72320200  0.66567700  0.34282400  1
  F  F15  1  0.27988200  0.80780000  0.60346600  1
  F  F16  1  0.93600200  0.09782000  0.92460400  1
  F  F17  1  0.07537300  0.79545200  0.42861900  1
  F  F18  1  0.01081000  0.10019100  0.40511900  1
  F  F19  1  0.94247500  0.27679800  0.67615800  1
  F  F20  1  0.08938100  0.98919000  0.73845200  1
  F  F21  1  0.59726600  0.59182900  0.68260200  1
  F  F22  1  0.40817100  0.00543600  0.34926900  1
  F  F23  1  0.16181800  0.06399800  0.25793700  1
  F  F24  1  0.72008000  0.92462700  0.76195300  1
  F  F25  1  0.73512600  0.25386000  0.85006300  1
  F  F26  1  0.19220000  0.47208200  0.27013300  1
  F  F27  1  0.83382900  0.68762900  0.84297300  1
  F  F28  1  0.85380000  0.16617100  0.17630600  1
  F  F29  1  0.89980900  0.91061900  0.07178600  1
  F  F30  1  0.64603000  0.05545200  0.50991300  1
  F  F31  1  0.90218000  0.83818200  0.59127100  1
  F  F32  1  0.31237100  0.14620000  0.50963900  1
loop_
_geom_bond_atom_site_label_1
_geom_bond_atom_site_label_2
_geom_bond_distance
_geom_bond_site_symmetry_2
Ba0 F30 2.562015 1_555
Ba0 F19 2.586054 1_555
Ba0 F15 2.766550 1_545
Ba0 F25 2.886225 1_555
Ba0 F32 2.905060 1_555
Ba0 F8 2.921788 1_555
Ba0 F10 3.007191 1_545
Ba0 F24 3.077853 1_545
Ba0 F11 3.082680 1_555
Ba0 F21 3.132791 1_555
Ba1 F19 2.458271 1_455
Ba1 F7 2.462533 1_555
Ba1 F10 2.958202 1_555
Ba1 F25 2.964851 1_455
Ba1 F16 2.978968 1_455
Ba1 F11 2.991230 1_455
Ba1 F1 3.125872 1_555
Ba1 F13 3.206807 1_456
Ba2 F7 2.562015 1_555
Ba2 F12 2.586054 1_556
Ba2 F1 2.766545 1_555
Ba2 F4 2.886225 1_556
Ba2 F27 2.905049 1_555
Ba2 F25 2.921788 1_555
Ba2 F6 3.007194 1_556
Ba2 F9 3.077847 1_556
Ba2 F0 3.082686 1_556
Ba2 F13 3.132800 1_556
Ba3 F14 2.458274 1_555
Ba3 F30 2.462529 1_565
Ba3 F3 2.958203 1_555
Ba3 F8 2.964861 1_555
Ba3 F31 2.978977 1_555
Ba3 F2 2.991234 1_555
Ba3 F15 3.125867 1_555
Ba3 F21 3.206812 1_555
Ba4 F12 2.458269 1_565
Ba4 F5 2.462528 1_455
Ba4 F6 2.958202 1_555
Ba4 F4 2.964851 1_565
Ba4 F23 2.978962 1_565
Ba4 F0 2.991233 1_565
Ba4 F26 3.125873 1_555
Ba4 F22 3.206808 1_565
Ba5 F5 2.562027 1_555
Ba5 F14 2.586053 1_555
Ba5 F26 2.766550 1_655
Ba5 F8 2.886225 1_555
Ba5 F28 2.905060 1_555
Ba5 F4 2.921798 1_555
Ba5 F3 3.007190 1_655
Ba5 F17 3.077841 1_655
Ba5 F2 3.082676 1_555
Ba5 F22 3.132795 1_555
Cr0 F10 1.895139 1_555
Cr0 F1 1.907686 1_555
Cr0 F25 1.935373 1_565
Cr0 F24 1.980920 1_555
Cr0 F0 2.041598 1_566
Cr0 F16 2.057871 1_565
Cr1 F20 1.780333 1_655
Cr1 F27 1.789543 1_555
Cr1 F21 1.860531 1_555
Cr1 F11 1.926295 1_555
Cr1 F24 1.936754 1_555
Cr1 F31 1.973839 1_555
Cr2 F18 1.780334 1_555
Cr2 F32 1.789543 1_555
Cr2 F22 1.860531 1_555
Cr2 F2 1.926285 1_555
Cr2 F17 1.936760 1_545
Cr2 F23 1.973839 1_555
Cr3 F6 1.895139 1_555
Cr3 F26 1.907680 1_555
Cr3 F4 1.935380 1_555
Cr3 F9 1.980914 1_555
Cr3 F2 2.041602 1_555
Cr3 F23 2.057870 1_555
Cr4 F29 1.780335 1_545
Cr4 F28 1.789543 1_555
Cr4 F13 1.860524 1_555
Cr4 F0 1.926284 1_555
Cr4 F9 1.936760 1_655
Cr4 F16 1.973839 1_554
Cr5 F3 1.895133 1_555
Cr5 F15 1.907686 1_555
Cr5 F8 1.935370 1_455
Cr5 F17 1.980914 1_555
Cr5 F11 2.041600 1_455
Cr5 F31 2.057868 1_455
