# generated using pymatgen
data_Y6FeBi2
_symmetry_space_group_name_H-M   'P 1'
_cell_length_a   8.36832832
_cell_length_b   8.36832832
_cell_length_c   4.21960500
_cell_angle_alpha   90.00000000
_cell_angle_beta   90.00000000
_cell_angle_gamma   120.00000250
_symmetry_Int_Tables_number   1
_chemical_formula_structural   Y6FeBi2
_chemical_formula_sum   'Y6 Fe1 Bi2'
_cell_volume   255.90562979
_cell_formula_units_Z   1
loop_
 _symmetry_equiv_pos_site_id
 _symmetry_equiv_pos_as_xyz
  1  'x, y, z'
loop_
 _atom_site_type_symbol
 _atom_site_label
 _atom_site_symmetry_multiplicity
 _atom_site_fract_x
 _atom_site_fract_y
 _atom_site_fract_z
 _atom_site_occupancy
  Y  Y0  1  0.23283200  0.00000000  0.50000000  1
  Y  Y1  1  0.00000000  0.23283200  0.50000000  1
  Y  Y2  1  0.76716800  0.76716800  0.50000000  1
  Y  Y3  1  0.60405000  0.00000000  0.00000000  1
  Y  Y4  1  0.00000000  0.60405000  0.00000000  1
  Y  Y5  1  0.39595000  0.39595000  0.00000000  1
  Fe  Fe0  1  0.00000000  0.00000000  0.00000000  1
  Bi  Bi0  1  0.33333300  0.66666700  0.50000000  1
  Bi  Bi1  1  0.66666700  0.33333300  0.50000000  1
loop_
_geom_bond_atom_site_label_1
_geom_bond_atom_site_label_2
_geom_bond_distance
_geom_bond_site_symmetry_2
Fe0 Y2 2.871861 1_444
Fe0 Y2 2.871861 1_445
Fe0 Y0 2.871861 1_555
Fe0 Y1 2.871861 1_554
Fe0 Y0 2.871861 1_554
Fe0 Y1 2.871861 1_555
Fe0 Y5 3.313439 1_555
Fe0 Y3 3.313440 1_455
Fe0 Y4 3.313440 1_545
Bi0 Y0 3.291548 1_565
Bi0 Y1 3.291554 1_555
Bi0 Y2 3.291556 1_555
Bi0 Y4 3.323425 1_556
Bi0 Y4 3.323425 1_555
Bi0 Y3 3.323427 1_566
Bi0 Y3 3.323427 1_565
Bi0 Y5 3.323431 1_556
Bi0 Y5 3.323431 1_555
Bi1 Y1 3.291548 1_655
Bi1 Y0 3.291554 1_555
Bi1 Y2 3.291556 1_555
Bi1 Y3 3.323425 1_555
Bi1 Y3 3.323425 1_556
Bi1 Y4 3.323427 1_656
Bi1 Y4 3.323427 1_655
Bi1 Y5 3.323431 1_556
Bi1 Y5 3.323431 1_555
