# generated using pymatgen
data_In4Pb
_symmetry_space_group_name_H-M   'P 1'
_cell_length_a   6.72174490
_cell_length_b   6.72174490
_cell_length_c   27.35573350
_cell_angle_alpha   88.38345240
_cell_angle_beta   88.38345240
_cell_angle_gamma   62.81342513
_symmetry_Int_Tables_number   1
_chemical_formula_structural   In4Pb
_chemical_formula_sum   'In32 Pb8'
_cell_volume   1098.83493393
_cell_formula_units_Z   8
loop_
 _symmetry_equiv_pos_site_id
 _symmetry_equiv_pos_as_xyz
  1  'x, y, z'
loop_
 _atom_site_type_symbol
 _atom_site_label
 _atom_site_symmetry_multiplicity
 _atom_site_fract_x
 _atom_site_fract_y
 _atom_site_fract_z
 _atom_site_occupancy
  In  In0_0  1  0.21677964  0.21677964  0.39538122  1
  In  In0_1  1  0.21677965  0.21677964  0.89538122  1
  In  In0_2  1  0.21677964  0.71677965  0.39538122  1
  In  In0_3  1  0.21677964  0.71677965  0.89538122  1
  In  In0_4  1  0.71677965  0.21677964  0.39538122  1
  In  In0_5  1  0.71677965  0.21677964  0.89538122  1
  In  In0_6  1  0.71677965  0.71677965  0.39538122  1
  In  In0_7  1  0.71677965  0.71677965  0.89538122  1
  In  In1_0  1  0.39445452  0.39445452  0.29837746  1
  In  In1_1  1  0.39445452  0.39445452  0.79837746  1
  In  In1_2  1  0.39445452  0.89445452  0.29837746  1
  In  In1_3  1  0.39445452  0.89445452  0.79837746  1
  In  In1_4  1  0.89445452  0.39445452  0.29837746  1
  In  In1_5  1  0.89445452  0.39445452  0.79837746  1
  In  In1_6  1  0.89445452  0.89445452  0.29837746  1
  In  In1_7  1  0.89445452  0.89445452  0.79837746  1
  In  In2_0  1  0.10554548  0.10554548  0.20162255  1
  In  In2_1  1  0.10554548  0.10554548  0.70162254  1
  In  In2_2  1  0.10554548  0.60554548  0.20162255  1
  In  In2_3  1  0.10554548  0.60554548  0.70162255  1
  In  In2_4  1  0.60554548  0.10554548  0.20162255  1
  In  In2_5  1  0.60554548  0.10554548  0.70162255  1
  In  In2_6  1  0.60554548  0.60554548  0.20162255  1
  In  In2_7  1  0.60554548  0.60554548  0.70162255  1
  In  In3_0  1  0.28322036  0.28322036  0.10461879  1
  In  In3_1  1  0.28322035  0.28322035  0.60461878  1
  In  In3_2  1  0.28322036  0.78322035  0.10461879  1
  In  In3_3  1  0.28322036  0.78322036  0.60461879  1
  In  In3_4  1  0.78322035  0.28322036  0.10461879  1
  In  In3_5  1  0.78322036  0.28322036  0.60461879  1
  In  In3_6  1  0.78322036  0.78322036  0.10461879  1
  In  In3_7  1  0.78322036  0.78322036  0.60461879  1
  Pb  Pb0_0  1  0.00000000  0.00000000  0.00000000  1
  Pb  Pb0_1  1  0.00000000  0.00000000  0.50000000  1
  Pb  Pb0_2  1  0.00000000  0.50000000  0.00000000  1
  Pb  Pb0_3  1  0.00000000  0.50000000  0.50000000  1
  Pb  Pb0_4  1  0.50000000  0.00000000  0.00000000  1
  Pb  Pb0_5  1  0.50000000  0.00000000  0.50000000  1
  Pb  Pb0_6  1  0.50000000  0.50000000  0.00000000  1
  Pb  Pb0_7  1  0.50000000  0.50000000  0.50000000  1
loop_
_geom_bond_atom_site_label_1
_geom_bond_atom_site_label_2
_geom_bond_distance
_geom_bond_site_symmetry_2
In0_0 In1_0 3.292416 1_555
In0_0 In1_2 3.308052 1_545
In0_0 In1_4 3.308052 1_455
In0_0 Pb0_3 3.387529 1_555
In0_0 Pb0_5 3.387529 1_555
In0_1 In1_1 3.292416 1_555
In0_1 In1_3 3.308052 1_545
In0_1 In1_5 3.308052 1_455
In0_1 Pb0_4 3.387529 1_556
In0_1 Pb0_2 3.387529 1_556
In0_2 In1_2 3.292416 1_555
In0_2 In1_0 3.308052 1_555
In0_2 In1_6 3.308052 1_455
In0_2 Pb0_7 3.387529 1_555
In0_2 Pb0_1 3.387529 1_565
In0_3 In1_3 3.292416 1_555
In0_3 In1_7 3.308052 1_455
In0_3 In1_1 3.308052 1_555
In0_3 Pb0_0 3.387529 1_566
In0_3 Pb0_6 3.387529 1_556
In0_4 In1_4 3.292416 1_555
In0_4 In1_0 3.308052 1_555
In0_4 In1_6 3.308052 1_545
In0_4 Pb0_7 3.387529 1_555
In0_4 Pb0_1 3.387529 1_655
In0_5 In1_5 3.292416 1_555
In0_5 In1_7 3.308052 1_545
In0_5 In1_1 3.308052 1_555
In0_5 Pb0_0 3.387529 1_656
In0_5 Pb0_6 3.387529 1_556
In0_6 In1_6 3.292416 1_555
In0_6 In1_2 3.308052 1_555
In0_6 In1_4 3.308052 1_555
In0_6 Pb0_5 3.387529 1_565
In0_6 Pb0_3 3.387529 1_655
In0_7 In1_7 3.292416 1_555
In0_7 In1_3 3.308052 1_555
In0_7 In1_5 3.308052 1_555
In0_7 Pb0_4 3.387529 1_566
In0_7 Pb0_2 3.387529 1_656
In1_0 In2_4 3.217191 1_555
In1_0 In2_2 3.217191 1_555
In1_0 In1_2 3.360872 1_545
In1_0 In1_4 3.360872 1_455
In1_0 In1_2 3.360872 1_555
In1_0 In1_4 3.360872 1_555
In1_0 In1_6 3.502766 1_545
In1_0 In1_6 3.502766 1_455
In1_0 In2_6 3.528175 1_555
In1_1 In2_3 3.217191 1_555
In1_1 In2_5 3.217191 1_555
In1_1 In1_5 3.360872 1_555
In1_1 In1_3 3.360872 1_545
In1_1 In1_3 3.360872 1_555
In1_1 In1_5 3.360872 1_455
In1_1 In1_7 3.502766 1_455
In1_1 In1_7 3.502766 1_545
In1_1 In2_7 3.528175 1_555
In1_2 In2_6 3.217191 1_555
In1_2 In2_0 3.217191 1_565
In1_2 In1_6 3.360872 1_555
In1_2 In1_6 3.360872 1_455
In1_2 In1_4 3.502766 1_465
In1_2 In1_4 3.502766 1_555
In1_2 In2_4 3.528175 1_565
In1_3 In2_7 3.217191 1_555
In1_3 In2_1 3.217191 1_565
In1_3 In1_7 3.360872 1_555
In1_3 In1_7 3.360872 1_455
In1_3 In1_5 3.502766 1_555
In1_3 In1_5 3.502766 1_465
In1_3 In2_5 3.528175 1_565
In1_4 In2_6 3.217191 1_555
In1_4 In2_0 3.217191 1_655
In1_4 In1_6 3.360872 1_555
In1_4 In1_6 3.360872 1_545
In1_4 In2_2 3.528175 1_655
In1_5 In2_7 3.217191 1_555
In1_5 In2_1 3.217191 1_655
In1_5 In1_7 3.360872 1_555
In1_5 In1_7 3.360872 1_545
In1_5 In2_3 3.528175 1_655
In1_6 In2_4 3.217191 1_565
In1_6 In2_2 3.217191 1_655
In1_6 In2_0 3.528175 1_665
In1_7 In2_5 3.217191 1_565
In1_7 In2_3 3.217191 1_655
In1_7 In2_1 3.528175 1_665
In2_0 In3_0 3.292416 1_555
In2_0 In3_2 3.308052 1_545
In2_0 In3_4 3.308052 1_455
In2_0 In2_4 3.360872 1_555
In2_0 In2_2 3.360872 1_545
In2_0 In2_4 3.360872 1_455
In2_0 In2_2 3.360872 1_555
In2_0 In2_6 3.502766 1_455
In2_0 In2_6 3.502766 1_545
In2_1 In3_1 3.292416 1_555
In2_1 In3_3 3.308052 1_545
In2_1 In3_5 3.308052 1_455
In2_1 In2_5 3.360872 1_555
In2_1 In2_3 3.360872 1_555
In2_1 In2_3 3.360872 1_545
In2_1 In2_5 3.360872 1_455
In2_1 In2_7 3.502766 1_545
In2_1 In2_7 3.502766 1_455
In2_2 In3_2 3.292416 1_555
In2_2 In3_0 3.308052 1_555
In2_2 In3_6 3.308052 1_455
In2_2 In2_6 3.360872 1_555
In2_2 In2_6 3.360872 1_455
In2_2 In2_4 3.502766 1_555
In2_2 In2_4 3.502766 1_465
In2_3 In3_3 3.292416 1_555
In2_3 In3_7 3.308052 1_455
In2_3 In3_1 3.308052 1_555
In2_3 In2_7 3.360872 1_455
In2_3 In2_7 3.360872 1_555
In2_3 In2_5 3.502766 1_555
In2_3 In2_5 3.502766 1_465
In2_4 In3_4 3.292416 1_555
In2_4 In3_0 3.308052 1_555
In2_4 In3_6 3.308052 1_545
In2_4 In2_6 3.360872 1_555
In2_4 In2_6 3.360872 1_545
In2_5 In3_5 3.292416 1_555
In2_5 In3_7 3.308052 1_545
In2_5 In3_1 3.308052 1_555
In2_5 In2_7 3.360872 1_545
In2_5 In2_7 3.360872 1_555
In2_6 In3_6 3.292416 1_555
In2_6 In3_2 3.308052 1_555
In2_6 In3_4 3.308052 1_555
In2_7 In3_7 3.292416 1_555
In2_7 In3_3 3.308052 1_555
In2_7 In3_5 3.308052 1_555
In3_0 Pb0_4 3.387529 1_555
In3_0 Pb0_2 3.387529 1_555
In3_1 Pb0_3 3.387529 1_555
In3_1 Pb0_5 3.387529 1_555
In3_2 Pb0_6 3.387529 1_555
In3_2 Pb0_0 3.387529 1_565
In3_3 Pb0_1 3.387529 1_565
In3_3 Pb0_7 3.387529 1_555
In3_4 Pb0_6 3.387529 1_555
In3_4 Pb0_0 3.387529 1_655
In3_5 Pb0_1 3.387529 1_655
In3_5 Pb0_7 3.387529 1_555
In3_6 Pb0_4 3.387529 1_565
In3_6 Pb0_2 3.387529 1_655
In3_7 Pb0_5 3.387529 1_565
In3_7 Pb0_3 3.387529 1_655
