# generated using pymatgen
data_CaV(SiO3)2
_symmetry_space_group_name_H-M   'P 1'
_cell_length_a   5.30973147
_cell_length_b   6.79926209
_cell_length_c   6.79926453
_cell_angle_alpha   84.67961364
_cell_angle_beta   78.86880455
_cell_angle_gamma   78.86831095
_symmetry_Int_Tables_number   1
_chemical_formula_structural   CaV(SiO3)2
_chemical_formula_sum   'Ca2 V2 Si4 O12'
_cell_volume   235.92724960
_cell_formula_units_Z   2
loop_
 _symmetry_equiv_pos_site_id
 _symmetry_equiv_pos_as_xyz
  1  'x, y, z'
loop_
 _atom_site_type_symbol
 _atom_site_label
 _atom_site_symmetry_multiplicity
 _atom_site_fract_x
 _atom_site_fract_y
 _atom_site_fract_z
 _atom_site_occupancy
  Ca  Ca0  1  0.75000200  0.29766000  0.70234000  1
  Ca  Ca1  1  0.25000000  0.70234600  0.29765000  1
  V  V0  1  0.74997800  0.91031900  0.08969500  1
  V  V1  1  0.25000700  0.08961800  0.91038600  1
  Si  Si0  1  0.26419600  0.19655500  0.38182500  1
  Si  Si1  1  0.23580800  0.61817600  0.80344700  1
  Si  Si2  1  0.76419800  0.38182800  0.19653600  1
  Si  Si3  1  0.73580300  0.80346200  0.61817200  1
  O  O0  1  0.50276400  0.33118700  0.36808700  1
  O  O1  1  0.99723900  0.63191200  0.66881100  1
  O  O2  1  0.49723400  0.66882300  0.63189700  1
  O  O3  1  0.00277100  0.36810500  0.33117300  1
  O  O4  1  0.17365800  0.11967600  0.60978000  1
  O  O5  1  0.32634500  0.39021900  0.88032500  1
  O  O6  1  0.82634600  0.88033000  0.39021100  1
  O  O7  1  0.67365500  0.60978600  0.11966600  1
  O  O8  1  0.84655700  0.21380200  0.02992700  1
  O  O9  1  0.65344500  0.97007400  0.78619500  1
  O  O10  1  0.34656100  0.02993100  0.21380900  1
  O  O11  1  0.15342800  0.78619300  0.97006700  1
loop_
_geom_bond_atom_site_label_1
_geom_bond_atom_site_label_2
_geom_bond_distance
_geom_bond_site_symmetry_2
Ca0 O4 2.337580 1_655
Ca0 O5 2.337591 1_555
Ca0 O9 2.375194 1_545
Ca0 O8 2.375195 1_556
Ca0 O2 2.667519 1_555
Ca0 O3 2.667559 1_655
Ca0 O1 2.807259 1_555
Ca0 O0 2.807260 1_555
Ca1 O6 2.337573 1_455
Ca1 O7 2.337581 1_555
Ca1 O10 2.375185 1_565
Ca1 O11 2.375192 1_554
Ca1 O0 2.667481 1_555
Ca1 O1 2.667496 1_455
Ca1 O3 2.807169 1_555
Ca1 O2 2.807213 1_555
O0 Si0 1.684484 1_555
O0 Si2 1.700276 1_555
O1 Si1 1.684503 1_655
O1 Si3 1.700265 1_555
O2 Si3 1.684534 1_555
O2 Si1 1.700254 1_555
O3 Si2 1.684538 1_455
O3 Si0 1.700249 1_555
O4 Si0 1.601781 1_555
O4 V1 2.143387 1_555
O5 Si1 1.601784 1_555
O5 V1 2.143335 1_555
O6 Si3 1.601800 1_555
O6 V0 2.142836 1_555
O7 Si2 1.601780 1_555
O7 V0 2.142871 1_555
O8 Si2 1.623433 1_555
O8 V1 2.172371 1_654
O8 V0 2.204223 1_545
O9 Si3 1.623433 1_555
O9 V1 2.172333 1_565
O9 V0 2.204234 1_556
O10 Si0 1.623457 1_555
O10 V0 2.172220 1_545
O10 V1 2.203747 1_554
O11 Si1 1.623442 1_555
O11 V0 2.172409 1_456
O11 V1 2.203812 1_565
