# generated using pymatgen
data_ThV2O6
_symmetry_space_group_name_H-M   'P 1'
_cell_length_a   4.81158700
_cell_length_b   4.81158700
_cell_length_c   9.71492200
_cell_angle_alpha   90.00000000
_cell_angle_beta   90.00000000
_cell_angle_gamma   90.00000000
_symmetry_Int_Tables_number   1
_chemical_formula_structural   ThV2O6
_chemical_formula_sum   'Th2 V4 O12'
_cell_volume   224.91374848
_cell_formula_units_Z   2
loop_
 _symmetry_equiv_pos_site_id
 _symmetry_equiv_pos_as_xyz
  1  'x, y, z'
loop_
 _atom_site_type_symbol
 _atom_site_label
 _atom_site_symmetry_multiplicity
 _atom_site_fract_x
 _atom_site_fract_y
 _atom_site_fract_z
 _atom_site_occupancy
  Th  Th0  1  0.00000000  0.00000000  0.00000000  1
  Th  Th1  1  0.50000000  0.50000000  0.50000000  1
  V  V0  1  0.00000000  0.00000000  0.33828500  1
  V  V1  1  0.00000000  0.00000000  0.66171500  1
  V  V2  1  0.50000000  0.50000000  0.83828500  1
  V  V3  1  0.50000000  0.50000000  0.16171500  1
  O  O0  1  0.32566700  0.32566700  0.00000000  1
  O  O1  1  0.67433300  0.67433300  0.00000000  1
  O  O2  1  0.17433300  0.82566700  0.50000000  1
  O  O3  1  0.82566700  0.17433300  0.50000000  1
  O  O4  1  0.27437800  0.27437800  0.31561100  1
  O  O5  1  0.72562200  0.72562200  0.68438900  1
  O  O6  1  0.72562200  0.72562200  0.31561100  1
  O  O7  1  0.22562200  0.77437800  0.81561100  1
  O  O8  1  0.22562200  0.77437800  0.18438900  1
  O  O9  1  0.27437800  0.27437800  0.68438900  1
  O  O10  1  0.77437800  0.22562200  0.18438900  1
  O  O11  1  0.77437800  0.22562200  0.81561100  1
loop_
_geom_bond_atom_site_label_1
_geom_bond_atom_site_label_2
_geom_bond_distance
_geom_bond_site_symmetry_2
O0 V3 1.968610 1_555
O0 V2 1.968610 1_554
O0 Th0 2.216037 1_555
O1 V3 1.968610 1_555
O1 V2 1.968610 1_554
O1 Th0 2.216037 1_665
O2 V0 1.968610 1_565
O2 V1 1.968610 1_565
O2 Th1 2.216037 1_555
O3 V0 1.968610 1_655
O3 V1 1.968610 1_655
O3 Th1 2.216037 1_555
O4 V0 1.879985 1_555
O4 V3 2.142975 1_555
O4 Th1 2.359216 1_555
O5 V1 1.879985 1_665
O5 V2 2.142975 1_555
O5 Th1 2.359216 1_555
O6 V0 1.879985 1_665
O6 V3 2.142975 1_555
O6 Th1 2.359216 1_555
O7 V2 1.879985 1_555
O7 V1 2.142975 1_565
O7 Th0 2.359216 1_566
O8 V3 1.879985 1_555
O8 V0 2.142975 1_565
O8 Th0 2.359216 1_565
O9 V1 1.879985 1_555
O9 V2 2.142975 1_555
O9 Th1 2.359216 1_555
O10 V3 1.879985 1_555
O10 V0 2.142975 1_655
O10 Th0 2.359216 1_655
O11 V2 1.879985 1_555
O11 V1 2.142975 1_655
O11 Th0 2.359216 1_656
