# generated using pymatgen
data_Mg2NbN3
_symmetry_space_group_name_H-M   'P 1'
_cell_length_a   5.67328869
_cell_length_b   5.67329005
_cell_length_c   5.72336368
_cell_angle_alpha   66.90042200
_cell_angle_beta   66.90042430
_cell_angle_gamma   65.91108806
_symmetry_Int_Tables_number   1
_chemical_formula_structural   Mg2NbN3
_chemical_formula_sum   'Mg4 Nb2 N6'
_cell_volume   148.65609132
_cell_formula_units_Z   2
loop_
 _symmetry_equiv_pos_site_id
 _symmetry_equiv_pos_as_xyz
  1  'x, y, z'
loop_
 _atom_site_type_symbol
 _atom_site_label
 _atom_site_symmetry_multiplicity
 _atom_site_fract_x
 _atom_site_fract_y
 _atom_site_fract_z
 _atom_site_occupancy
  Mg  Mg0  1  0.75482129  0.91592778  0.07714211  1
  Mg  Mg1  1  0.08407222  0.24517871  0.42285789  1
  Mg  Mg2  1  0.24517871  0.08407222  0.92285789  1
  Mg  Mg3  1  0.91592778  0.75482129  0.57714211  1
  Nb  Nb0  1  0.41060889  0.58939111  0.75000000  1
  Nb  Nb1  1  0.58939111  0.41060889  0.25000000  1
  N  N0  1  0.09744927  0.90255073  0.75000000  1
  N  N1  1  0.90255073  0.09744927  0.25000000  1
  N  N2  1  0.72826895  0.58743028  0.42533856  1
  N  N3  1  0.41256972  0.27173105  0.07466144  1
  N  N4  1  0.27173105  0.41256972  0.57466144  1
  N  N5  1  0.58743028  0.72826895  0.92533856  1
loop_
_geom_bond_atom_site_label_1
_geom_bond_atom_site_label_2
_geom_bond_distance
_geom_bond_site_symmetry_2
Mg0 N0 2.103618 1_654
Mg0 N2 2.132317 1_555
Mg0 N3 2.155152 1_565
Mg0 N1 2.212771 1_565
Mg0 N5 2.233544 1_554
Mg1 N0 2.103618 1_545
Mg1 N3 2.132317 1_555
Mg1 N2 2.155152 1_455
Mg1 N1 2.212771 1_455
Mg1 N4 2.233544 1_555
Mg2 N1 2.103618 1_456
Mg2 N4 2.132317 1_555
Mg2 N5 2.155152 1_545
Mg2 N0 2.212771 1_545
Mg2 N3 2.233544 1_556
Mg3 N1 2.103618 1_565
Mg3 N5 2.132317 1_555
Mg3 N4 2.155152 1_655
Mg3 N0 2.212771 1_655
Mg3 N2 2.233544 1_555
N0 Nb0 1.932948 1_555
N1 Nb1 1.932948 1_555
N2 Nb0 2.018155 1_555
N2 Nb1 2.165569 1_555
N3 Nb0 2.018155 1_554
N3 Nb1 2.165569 1_555
N4 Nb1 2.018155 1_555
N4 Nb0 2.165569 1_555
N5 Nb1 2.018155 1_556
N5 Nb0 2.165569 1_555
