# generated using pymatgen
data_Li4Mn3O7
_symmetry_space_group_name_H-M   'P 1'
_cell_length_a   5.31891800
_cell_length_b   5.99562722
_cell_length_c   8.69189138
_cell_angle_alpha   91.67064002
_cell_angle_beta   93.90562590
_cell_angle_gamma   110.29926805
_symmetry_Int_Tables_number   1
_chemical_formula_structural   Li4Mn3O7
_chemical_formula_sum   'Li8 Mn6 O14'
_cell_volume   258.95469943
_cell_formula_units_Z   2
loop_
 _symmetry_equiv_pos_site_id
 _symmetry_equiv_pos_as_xyz
  1  'x, y, z'
loop_
 _atom_site_type_symbol
 _atom_site_label
 _atom_site_symmetry_multiplicity
 _atom_site_fract_x
 _atom_site_fract_y
 _atom_site_fract_z
 _atom_site_occupancy
  Li  Li0  1  0.42186900  0.85116500  0.36167500  1
  Li  Li1  1  0.28558800  0.57068500  0.07456500  1
  Li  Li2  1  0.85490000  0.71449300  0.21531100  1
  Li  Li3  1  0.71441200  0.42931500  0.92543500  1
  Li  Li4  1  0.14510000  0.28550700  0.78468900  1
  Li  Li5  1  0.57813100  0.14883500  0.63832500  1
  Li  Li6  1  0.00000000  0.00000000  0.50000000  1
  Li  Li7  1  0.00000000  0.50000000  0.50000000  1
  Mn  Mn0  1  0.57066700  0.64182000  0.64141500  1
  Mn  Mn1  1  0.42933300  0.35818000  0.35858500  1
  Mn  Mn2  1  0.28556200  0.07052700  0.07211800  1
  Mn  Mn3  1  0.14115300  0.78172300  0.78257700  1
  Mn  Mn4  1  0.85884700  0.21827700  0.21742300  1
  Mn  Mn5  1  0.71443800  0.92947300  0.92788200  1
  O  O0  1  0.68568200  0.66523200  0.43450200  1
  O  O1  1  0.54883300  0.38275800  0.15064400  1
  O  O2  1  0.15740800  0.50251000  0.28997600  1
  O  O3  1  0.97487300  0.23705300  0.00269700  1
  O  O4  1  0.40251500  0.09420500  0.86375000  1
  O  O5  1  0.83444200  0.95228800  0.71479100  1
  O  O6  1  0.30687200  0.80056600  0.58911500  1
  O  O7  1  0.16555800  0.04771200  0.28520900  1
  O  O8  1  0.02512700  0.76294700  0.99730300  1
  O  O9  1  0.59748500  0.90579500  0.13625000  1
  O  O10  1  0.45116700  0.61724200  0.84935600  1
  O  O11  1  0.84259200  0.49749000  0.71002400  1
  O  O12  1  0.31431800  0.33476800  0.56549800  1
  O  O13  1  0.69312800  0.19943400  0.41088500  1
loop_
_geom_bond_atom_site_label_1
_geom_bond_atom_site_label_2
_geom_bond_distance
_geom_bond_site_symmetry_2
Li0 O13 2.097202 1_565
Li0 O6 2.108358 1_555
Li0 O2 2.121607 1_555
Li0 O0 2.148934 1_555
Li0 O7 2.173919 1_565
Li0 O9 2.212101 1_555
Li1 O2 2.040264 1_555
Li1 O9 2.140040 1_555
Li1 O3 2.148390 1_455
Li1 O1 2.163163 1_555
Li1 O8 2.173815 1_554
Li1 O10 2.186656 1_554
Li2 O1 2.117933 1_555
Li2 O8 2.139662 1_654
Li2 O7 2.143082 1_665
Li2 O0 2.146863 1_555
Li2 O9 2.160975 1_555
Li2 O2 2.439312 1_655
Li3 O11 2.040264 1_555
Li3 O4 2.140040 1_555
Li3 O8 2.148390 1_655
Li3 O10 2.163163 1_555
Li3 O3 2.173815 1_556
Li3 O1 2.186656 1_556
Li4 O10 2.117933 1_555
Li4 O3 2.139662 1_456
Li4 O5 2.143082 1_445
Li4 O12 2.146863 1_555
Li4 O4 2.160975 1_555
Li4 O11 2.439312 1_455
Li5 O6 2.097202 1_545
Li5 O13 2.108358 1_555
Li5 O11 2.121607 1_555
Li5 O12 2.148934 1_555
Li5 O5 2.173919 1_545
Li5 O4 2.212101 1_555
Li6 O7 2.103105 1_555
Li6 O5 2.103105 1_445
Li6 O12 2.150160 1_555
Li6 O0 2.150160 1_445
Li6 O6 2.435133 1_545
Li6 O13 2.435133 1_455
Li7 O6 2.053565 1_555
Li7 O13 2.053565 1_455
Li7 O11 2.057847 1_455
Li7 O2 2.057847 1_555
Li7 O0 2.270011 1_455
Li7 O12 2.270011 1_555
Mn0 O0 1.932212 1_555
Mn0 O12 1.936143 1_555
Mn0 O10 1.949218 1_555
Mn0 O5 1.958821 1_555
Mn0 O6 1.986498 1_555
Mn0 O11 1.994337 1_555
Mn1 O12 1.932212 1_555
Mn1 O0 1.936143 1_555
Mn1 O1 1.949218 1_555
Mn1 O7 1.958821 1_555
Mn1 O13 1.986498 1_555
Mn1 O2 1.994337 1_555
Mn2 O8 1.943570 1_544
Mn2 O4 1.947932 1_554
Mn2 O1 1.976775 1_555
Mn2 O7 1.992958 1_555
Mn2 O9 2.254305 1_545
Mn2 O3 2.266251 1_455
Mn3 O11 1.935676 1_455
Mn3 O6 1.939386 1_555
Mn3 O4 1.980563 1_565
Mn3 O8 1.999459 1_555
Mn3 O10 2.249380 1_555
Mn3 O5 2.261871 1_455
Mn4 O2 1.935676 1_655
Mn4 O13 1.939386 1_555
Mn4 O9 1.980563 1_545
Mn4 O3 1.999459 1_555
Mn4 O1 2.249380 1_555
Mn4 O7 2.261871 1_655
Mn5 O3 1.943570 1_566
Mn5 O9 1.947932 1_556
Mn5 O10 1.976775 1_555
Mn5 O5 1.992958 1_555
Mn5 O4 2.254305 1_565
Mn5 O8 2.266251 1_655
