# generated using pymatgen
data_Gd8Sb3O8
_symmetry_space_group_name_H-M   'P 1'
_cell_length_a   3.80440770
_cell_length_b   7.08035748
_cell_length_c   14.94880691
_cell_angle_alpha   83.63189624
_cell_angle_beta   82.68941581
_cell_angle_gamma   105.58449856
_symmetry_Int_Tables_number   1
_chemical_formula_structural   Gd8Sb3O8
_chemical_formula_sum   'Gd8 Sb3 O8'
_cell_volume   380.24975750
_cell_formula_units_Z   1
loop_
 _symmetry_equiv_pos_site_id
 _symmetry_equiv_pos_as_xyz
  1  'x, y, z'
loop_
 _atom_site_type_symbol
 _atom_site_label
 _atom_site_symmetry_multiplicity
 _atom_site_fract_x
 _atom_site_fract_y
 _atom_site_fract_z
 _atom_site_occupancy
  Gd  Gd0  1  0.36796356  0.64901727  0.91099768  1
  Gd  Gd1  1  0.62994397  0.35098273  0.08900232  1
  Gd  Gd2  1  0.71441799  0.25855026  0.83032928  1
  Gd  Gd3  1  0.28619700  0.74144974  0.16967072  1
  Gd  Gd4  1  0.78744291  0.14450942  0.56966718  1
  Gd  Gd5  1  0.21260067  0.85549058  0.43033282  1
  Gd  Gd6  1  0.46983815  0.59247457  0.65265157  1
  Gd  Gd7  1  0.53001515  0.40752543  0.34734843  1
  Sb  Sb0  1  0.09605053  0.92353135  0.73365214  1
  Sb  Sb1  1  0.90617132  0.07646865  0.26634786  1
  Sb  Sb2  1  0.95545946  1.00000000  0.00000000  1
  O  O0  1  0.31720058  0.43628648  0.79847130  1
  O  O1  1  0.67938541  0.56371352  0.20152870  1
  O  O2  1  0.89756799  0.42725007  0.63223841  1
  O  O3  1  0.10255633  0.57274993  0.36776159  1
  O  O4  1  0.34914964  0.18327854  0.48543174  1
  O  O5  1  0.65130284  0.81672146  0.51456826  1
  O  O6  1  0.76550291  0.47186390  0.93429457  1
  O  O7  1  0.22793358  0.52813610  0.06570543  1
loop_
_geom_bond_atom_site_label_1
_geom_bond_atom_site_label_2
_geom_bond_distance
_geom_bond_site_symmetry_2
Gd0 O6 2.244634 1_555
Gd0 O6 2.259003 1_455
Gd0 O7 2.316736 1_556
Gd0 O0 2.371490 1_555
Gd0 Sb2 3.383366 1_556
Gd0 Sb0 3.537164 1_555
Gd0 Sb0 3.545980 1_655
Gd0 Sb2 3.564575 1_456
Gd1 O7 2.244635 1_655
Gd1 O7 2.259003 1_555
Gd1 O6 2.316736 1_554
Gd1 O1 2.371490 1_555
Gd1 Sb2 3.383366 1_545
Gd1 Sb1 3.537165 1_455
Gd1 Sb1 3.545980 1_555
Gd1 Sb2 3.564575 1_445
Gd2 O0 2.260054 1_655
Gd2 O0 2.272918 1_555
Gd2 O6 2.274675 1_555
Gd2 O2 2.987329 1_555
Gd2 Sb2 3.330055 1_546
Gd2 Sb0 3.446294 1_545
Gd2 Sb0 3.449666 1_645
Gd2 Sb2 3.519586 1_446
Gd3 O1 2.260054 1_555
Gd3 O1 2.272918 1_455
Gd3 O7 2.274675 1_555
Gd3 O3 2.987329 1_555
Gd3 Sb2 3.330055 1_555
Gd3 Sb1 3.446293 1_465
Gd3 Sb1 3.449666 1_565
Gd3 Sb2 3.519586 1_455
Gd4 O2 2.263297 1_555
Gd4 O4 2.268255 1_555
Gd4 O4 2.269559 1_655
Gd4 O5 2.493950 1_545
Gd4 Sb0 3.266930 1_545
Gd4 Sb0 3.271751 1_645
Gd5 O3 2.263297 1_555
Gd5 O5 2.268255 1_455
Gd5 O5 2.269559 1_555
Gd5 O4 2.493950 1_565
Gd5 Sb1 3.266929 1_465
Gd5 Sb1 3.271751 1_565
Gd6 O2 2.254195 1_455
Gd6 O2 2.255064 1_555
Gd6 O0 2.260502 1_555
Gd6 O5 2.362144 1_555
Gd6 Sb0 3.311366 1_555
Gd6 Sb0 3.316539 1_655
Gd7 O3 2.254195 1_555
Gd7 O3 2.255065 1_655
Gd7 O1 2.260502 1_555
Gd7 O4 2.362144 1_555
Gd7 Sb1 3.311367 1_455
Gd7 Sb1 3.316539 1_555
