# generated using pymatgen
data_Mg6Si5
_symmetry_space_group_name_H-M   'P 1'
_cell_length_a   4.06602200
_cell_length_b   7.17209237
_cell_length_c   15.24825080
_cell_angle_alpha   81.74947038
_cell_angle_beta   85.09146420
_cell_angle_gamma   87.26036182
_symmetry_Int_Tables_number   1
_chemical_formula_structural   Mg6Si5
_chemical_formula_sum   'Mg12 Si10'
_cell_volume   438.16698279
_cell_formula_units_Z   2
loop_
 _symmetry_equiv_pos_site_id
 _symmetry_equiv_pos_as_xyz
  1  'x, y, z'
loop_
 _atom_site_type_symbol
 _atom_site_label
 _atom_site_symmetry_multiplicity
 _atom_site_fract_x
 _atom_site_fract_y
 _atom_site_fract_z
 _atom_site_occupancy
  Mg  Mg0  1  0.79638700  0.99076500  0.93212000  1
  Mg  Mg1  1  0.63080700  0.53823800  0.49038800  1
  Mg  Mg2  1  0.05002300  0.65234800  0.63963500  1
  Mg  Mg3  1  0.18017800  0.39367700  0.35076600  1
  Mg  Mg4  1  0.73635900  0.44746200  0.17018000  1
  Mg  Mg5  1  0.83571200  0.53327900  0.92218700  1
  Mg  Mg6  1  0.12698100  0.21362900  0.57271700  1
  Mg  Mg7  1  0.14418300  0.87122500  0.42371600  1
  Mg  Mg8  1  0.27927900  0.70486700  0.03861200  1
  Mg  Mg9  1  0.29538300  0.25779600  0.83384100  1
  Mg  Mg10  1  0.28311200  0.25743800  0.03588500  1
  Mg  Mg11  1  0.73885700  0.94999500  0.13316300  1
  Si  Si0  1  0.65573100  0.17348000  0.44916300  1
  Si  Si1  1  0.58362800  0.89124200  0.55194700  1
  Si  Si2  1  0.85584900  0.08657100  0.74742300  1
  Si  Si3  1  0.19686200  0.14128200  0.21801400  1
  Si  Si4  1  0.68950800  0.70898300  0.31490300  1
  Si  Si5  1  0.59822200  0.37615900  0.66722000  1
  Si  Si6  1  0.51134500  0.60214400  0.77313200  1
  Si  Si7  1  0.21944700  0.72128100  0.21863000  1
  Si  Si8  1  0.67006900  0.06398100  0.30819100  1
  Si  Si9  1  0.42200600  0.92045900  0.70454700  1
loop_
_geom_bond_atom_site_label_1
_geom_bond_atom_site_label_2
_geom_bond_distance
_geom_bond_site_symmetry_2
Mg0 Si2 2.793947 1_565
Mg1 Si0 2.772186 1_555
Mg1 Si5 2.773679 1_555
Mg1 Si4 2.773970 1_555
Mg1 Si1 2.816489 1_555
Mg2 Si5 2.729815 1_455
Mg2 Si1 2.790248 1_455
Mg2 Si9 2.836442 1_555
Mg2 Si6 2.858359 1_555
Mg2 Si6 2.858785 1_455
Mg2 Si5 2.927171 1_555
Mg2 Si1 2.938066 1_555
Mg3 Si0 2.829946 1_555
Mg3 Si7 2.868422 1_555
Mg3 Si0 2.895995 1_455
Mg3 Si3 2.897478 1_555
Mg3 Si4 2.965435 1_455
Mg3 Si4 3.098513 1_555
Mg3 Si8 3.122427 1_555
Mg4 Si3 2.870733 1_655
Mg4 Si7 2.928495 1_555
Mg4 Si7 3.048651 1_655
Mg4 Si4 3.083190 1_555
Mg4 Si3 3.145330 1_555
Mg4 Si8 3.221550 1_555
Mg5 Si6 2.697716 1_555
Mg6 Si0 2.767271 1_555
Mg6 Si5 2.787457 1_455
Mg6 Si2 2.835345 1_455
Mg6 Si0 2.851317 1_455
Mg6 Si5 2.876590 1_555
Mg6 Si1 2.931404 1_545
Mg6 Si9 2.976470 1_545
Mg7 Si1 2.781978 1_555
Mg7 Si1 2.885362 1_455
Mg7 Si8 2.891014 1_465
Mg7 Si0 2.914156 1_465
Mg7 Si8 2.919848 1_565
Mg7 Si4 2.949795 1_555
Mg7 Si4 2.968066 1_455
Mg7 Si0 3.160180 1_565
Mg8 Si7 2.753829 1_555
Mg9 Si6 2.671976 1_555
Mg9 Si2 2.741468 1_455
Mg9 Si5 2.763595 1_555
Mg9 Si2 2.849690 1_555
Mg10 Si3 2.779715 1_555
Mg11 Si7 2.779113 1_655
Mg11 Si7 2.845355 1_555
Mg11 Si3 2.853985 1_565
Mg11 Si3 2.861852 1_665
Mg11 Si8 2.888950 1_565
Mg11 Si4 3.044834 1_555
Si0 Si8 2.387365 1_555
Si0 Si1 2.389019 1_545
Si1 Si9 2.399010 1_555
Si2 Si9 2.362278 1_545
Si2 Si5 2.487749 1_555
Si2 Si9 2.617222 1_645
Si3 Si8 2.456043 1_555
Si3 Si8 2.485311 1_455
Si4 Si7 2.498529 1_555
Si4 Si7 2.499080 1_655
Si4 Si8 2.531126 1_565
Si5 Si6 2.441054 1_555
Si6 Si9 2.395448 1_555
