# generated using pymatgen
data_Yb6Al43W4
_symmetry_space_group_name_H-M   'P 1'
_cell_length_a   11.08596721
_cell_length_b   11.08596721
_cell_length_c   17.64930000
_cell_angle_alpha   90.00000000
_cell_angle_beta   90.00000000
_cell_angle_gamma   119.99999528
_symmetry_Int_Tables_number   1
_chemical_formula_structural   Yb6Al43W4
_chemical_formula_sum   'Yb12 Al86 W8'
_cell_volume   1878.47455605
_cell_formula_units_Z   2
loop_
 _symmetry_equiv_pos_site_id
 _symmetry_equiv_pos_as_xyz
  1  'x, y, z'
loop_
 _atom_site_type_symbol
 _atom_site_label
 _atom_site_symmetry_multiplicity
 _atom_site_fract_x
 _atom_site_fract_y
 _atom_site_fract_z
 _atom_site_occupancy
  Yb  Yb0  1  0.46705500  0.46705500  0.90562000  1
  Yb  Yb1  1  0.53294500  0.00000000  0.90562000  1
  Yb  Yb2  1  0.00000000  0.53294500  0.90562000  1
  Yb  Yb3  1  0.53294500  0.53294500  0.09438000  1
  Yb  Yb4  1  0.46705500  0.00000000  0.09438000  1
  Yb  Yb5  1  0.00000000  0.46705500  0.09438000  1
  Yb  Yb6  1  0.53294500  0.53294500  0.40562000  1
  Yb  Yb7  1  0.46705500  0.00000000  0.40562000  1
  Yb  Yb8  1  0.00000000  0.46705500  0.40562000  1
  Yb  Yb9  1  0.46705500  0.46705500  0.59438000  1
  Yb  Yb10  1  0.53294500  0.00000000  0.59438000  1
  Yb  Yb11  1  0.00000000  0.53294500  0.59438000  1
  Al  Al0  1  0.84337100  0.23627000  0.83561100  1
  Al  Al1  1  0.76373000  0.60710100  0.83561100  1
  Al  Al2  1  0.39289900  0.15662900  0.83561100  1
  Al  Al3  1  0.23627000  0.84337100  0.83561100  1
  Al  Al4  1  0.60710100  0.76373000  0.83561100  1
  Al  Al5  1  0.15662900  0.39289900  0.83561100  1
  Al  Al6  1  0.15662900  0.76373000  0.16438900  1
  Al  Al7  1  0.23627000  0.39289900  0.16438900  1
  Al  Al8  1  0.60710100  0.84337100  0.16438900  1
  Al  Al9  1  0.76373000  0.15662900  0.16438900  1
  Al  Al10  1  0.39289900  0.23627000  0.16438900  1
  Al  Al11  1  0.84337100  0.60710100  0.16438900  1
  Al  Al12  1  0.15662900  0.76373000  0.33561100  1
  Al  Al13  1  0.23627000  0.39289900  0.33561100  1
  Al  Al14  1  0.60710100  0.84337100  0.33561100  1
  Al  Al15  1  0.76373000  0.15662900  0.33561100  1
  Al  Al16  1  0.39289900  0.23627000  0.33561100  1
  Al  Al17  1  0.84337100  0.60710100  0.33561100  1
  Al  Al18  1  0.84337100  0.23627000  0.66438900  1
  Al  Al19  1  0.76373000  0.60710100  0.66438900  1
  Al  Al20  1  0.39289900  0.15662900  0.66438900  1
  Al  Al21  1  0.23627000  0.84337100  0.66438900  1
  Al  Al22  1  0.60710100  0.76373000  0.66438900  1
  Al  Al23  1  0.15662900  0.39289900  0.66438900  1
  Al  Al24  1  0.84043700  0.84043700  0.38515700  1
  Al  Al25  1  0.15956300  0.00000000  0.38515700  1
  Al  Al26  1  0.00000000  0.15956300  0.38515700  1
  Al  Al27  1  0.15956300  0.15956300  0.61484300  1
  Al  Al28  1  0.84043700  0.00000000  0.61484300  1
  Al  Al29  1  0.00000000  0.84043700  0.61484300  1
  Al  Al30  1  0.15956300  0.15956300  0.88515700  1
  Al  Al31  1  0.84043700  0.00000000  0.88515700  1
  Al  Al32  1  0.00000000  0.84043700  0.88515700  1
  Al  Al33  1  0.84043700  0.84043700  0.11484300  1
  Al  Al34  1  0.15956300  0.00000000  0.11484300  1
  Al  Al35  1  0.00000000  0.15956300  0.11484300  1
  Al  Al36  1  0.74719900  0.74719900  0.96864400  1
  Al  Al37  1  0.25280100  0.00000000  0.96864400  1
  Al  Al38  1  0.00000000  0.25280100  0.96864400  1
  Al  Al39  1  0.25280100  0.25280100  0.03135600  1
  Al  Al40  1  0.74719900  0.00000000  0.03135600  1
  Al  Al41  1  0.00000000  0.74719900  0.03135600  1
  Al  Al42  1  0.25280100  0.25280100  0.46864400  1
  Al  Al43  1  0.74719900  0.00000000  0.46864400  1
  Al  Al44  1  0.00000000  0.74719900  0.46864400  1
  Al  Al45  1  0.74719900  0.74719900  0.53135600  1
  Al  Al46  1  0.25280100  0.00000000  0.53135600  1
  Al  Al47  1  0.00000000  0.25280100  0.53135600  1
  Al  Al48  1  0.85160200  0.44956000  0.75000000  1
  Al  Al49  1  0.55044000  0.40204200  0.75000000  1
  Al  Al50  1  0.59795800  0.14839800  0.75000000  1
  Al  Al51  1  0.44956000  0.85160200  0.75000000  1
  Al  Al52  1  0.40204200  0.55044000  0.75000000  1
  Al  Al53  1  0.14839800  0.59795800  0.75000000  1
  Al  Al54  1  0.14839800  0.55044000  0.25000000  1
  Al  Al55  1  0.44956000  0.59795800  0.25000000  1
  Al  Al56  1  0.40204200  0.85160200  0.25000000  1
  Al  Al57  1  0.55044000  0.14839800  0.25000000  1
  Al  Al58  1  0.59795800  0.44956000  0.25000000  1
  Al  Al59  1  0.85160200  0.40204200  0.25000000  1
  Al  Al60  1  0.75277600  0.24722400  0.00000000  1
  Al  Al61  1  0.75277600  0.50555200  0.00000000  1
  Al  Al62  1  0.49444800  0.24722400  0.00000000  1
  Al  Al63  1  0.24722400  0.75277600  0.00000000  1
  Al  Al64  1  0.50555200  0.75277600  0.00000000  1
  Al  Al65  1  0.24722400  0.49444800  0.00000000  1
  Al  Al66  1  0.24722400  0.75277600  0.50000000  1
  Al  Al67  1  0.24722400  0.49444800  0.50000000  1
  Al  Al68  1  0.50555200  0.75277600  0.50000000  1
  Al  Al69  1  0.75277600  0.24722400  0.50000000  1
  Al  Al70  1  0.49444800  0.24722400  0.50000000  1
  Al  Al71  1  0.75277600  0.50555200  0.50000000  1
  Al  Al72  1  0.66666700  0.33333300  0.87336800  1
  Al  Al73  1  0.33333300  0.66666700  0.87336800  1
  Al  Al74  1  0.33333300  0.66666700  0.12663200  1
  Al  Al75  1  0.66666700  0.33333300  0.12663200  1
  Al  Al76  1  0.33333300  0.66666700  0.37336800  1
  Al  Al77  1  0.66666700  0.33333300  0.37336800  1
  Al  Al78  1  0.66666700  0.33333300  0.62663200  1
  Al  Al79  1  0.33333300  0.66666700  0.62663200  1
  Al  Al80  1  0.85213100  0.85213100  0.75000000  1
  Al  Al81  1  0.14786900  0.00000000  0.75000000  1
  Al  Al82  1  0.00000000  0.14786900  0.75000000  1
  Al  Al83  1  0.14786900  0.14786900  0.25000000  1
  Al  Al84  1  0.85213100  0.00000000  0.25000000  1
  Al  Al85  1  0.00000000  0.85213100  0.25000000  1
  W  W0  1  0.27038300  0.27038300  0.75000000  1
  W  W1  1  0.72961700  0.00000000  0.75000000  1
  W  W2  1  0.00000000  0.72961700  0.75000000  1
  W  W3  1  0.72961700  0.72961700  0.25000000  1
  W  W4  1  0.27038300  0.00000000  0.25000000  1
  W  W5  1  0.00000000  0.27038300  0.25000000  1
  W  W6  1  0.00000000  0.00000000  0.00000000  1
  W  W7  1  0.00000000  0.00000000  0.50000000  1
loop_
_geom_bond_atom_site_label_1
_geom_bond_atom_site_label_2
_geom_bond_distance
_geom_bond_site_symmetry_2
Yb0 Yb3 3.410621 1_556
Yb1 Yb4 3.410621 1_556
Yb2 Yb5 3.410621 1_556
Yb6 Yb9 3.410621 1_555
Yb10 Yb7 3.410621 1_555
Yb11 Yb8 3.410621 1_555
Al0 W1 2.725964 1_555
Al0 Al72 2.747223 1_555
Al0 Al38 2.871101 1_655
Al0 Al60 3.092447 1_556
Al0 Yb2 3.106119 1_655
Al0 Yb1 3.349103 1_555
Al1 W2 2.725964 1_655
Al1 Al72 2.747234 1_555
Al1 Al36 2.871101 1_555
Al1 Al61 3.092447 1_556
Al1 Yb0 3.106119 1_555
Al1 Yb2 3.349103 1_655
Al2 W0 2.725964 1_555
Al2 Al72 2.747232 1_555
Al2 Al37 2.871101 1_555
Al2 Al62 3.092447 1_556
Al2 Yb1 3.106119 1_555
Al2 Yb0 3.349103 1_555
Al3 W2 2.725964 1_555
Al3 Al73 2.747223 1_555
Al3 Al37 2.871101 1_565
Al3 Al63 3.092447 1_556
Al3 Yb1 3.106119 1_565
Al3 Yb2 3.349103 1_555
Al4 W1 2.725964 1_565
Al4 Al73 2.747234 1_555
Al4 Al64 3.092447 1_556
Al4 Yb0 3.106119 1_555
Al4 Yb1 3.349103 1_565
Al5 W0 2.725964 1_555
Al5 Al73 2.747232 1_555
Al5 Al65 3.092447 1_556
Al5 Yb2 3.106119 1_555
Al5 Yb0 3.349103 1_555
Al6 W4 2.725964 1_565
Al6 Al74 2.747223 1_555
Al6 Al63 3.092447 1_555
Al6 Yb5 3.106119 1_555
Al6 Yb4 3.349103 1_565
Al7 W5 2.725964 1_555
Al7 Al74 2.747234 1_555
Al7 Yb3 3.106119 1_555
Al7 Yb5 3.349103 1_555
Al8 W3 2.725964 1_555
Al8 Yb4 3.106119 1_565
Al8 Yb3 3.349103 1_555
Al9 W5 2.725964 1_655
Al9 Yb4 3.106119 1_555
Al9 Yb5 3.349103 1_655
Al10 W4 2.725964 1_555
Al10 Al75 2.747234 1_555
Al10 Al39 2.871101 1_555
Al10 Al62 3.092447 1_555
Al10 Yb3 3.106119 1_555
Al10 Yb4 3.349103 1_555
Al11 W3 2.725964 1_555
Al11 Al75 2.747232 1_555
Al11 Al41 2.871101 1_655
Al11 Al61 3.092447 1_555
Al11 Yb5 3.106119 1_655
Al11 Yb3 3.349103 1_555
Al12 W4 2.725964 1_565
Al12 Al76 2.747223 1_555
Al12 Al44 2.871101 1_555
Al12 Al66 3.092447 1_555
Al12 Yb8 3.106119 1_555
Al12 Yb7 3.349103 1_565
Al13 W5 2.725964 1_555
Al13 Al76 2.747234 1_555
Al13 Al42 2.871101 1_555
Al13 Al67 3.092447 1_555
Al13 Yb6 3.106119 1_555
Al13 Yb8 3.349103 1_555
Al14 W3 2.725964 1_555
Al14 Al76 2.747232 1_555
Al14 Al43 2.871101 1_565
Al14 Al68 3.092447 1_555
Al14 Yb7 3.106119 1_565
Al14 Yb6 3.349103 1_555
Al15 W5 2.725964 1_655
Al15 Al77 2.747223 1_555
Al15 Al43 2.871101 1_555
Al15 Al69 3.092447 1_555
Al15 Yb7 3.106119 1_555
Al15 Yb8 3.349103 1_655
Al16 W4 2.725964 1_555
Al16 Al77 2.747234 1_555
Al16 Al42 2.871101 1_555
Al16 Al70 3.092447 1_555
Al16 Yb6 3.106119 1_555
Al16 Yb7 3.349103 1_555
Al17 W3 2.725964 1_555
Al17 Al77 2.747232 1_555
Al17 Al44 2.871101 1_655
Al17 Al71 3.092447 1_555
Al17 Yb8 3.106119 1_655
Al17 Yb6 3.349103 1_555
Al18 W1 2.725964 1_555
Al18 Al78 2.747223 1_555
Al18 Al47 2.871101 1_655
Al18 Al69 3.092447 1_555
Al18 Yb11 3.106119 1_655
Al18 Yb10 3.349103 1_555
Al19 W2 2.725964 1_655
Al19 Al78 2.747234 1_555
Al19 Al45 2.871101 1_555
Al19 Al71 3.092447 1_555
Al19 Yb9 3.106119 1_555
Al19 Yb11 3.349103 1_655
Al20 W0 2.725964 1_555
Al20 Al78 2.747232 1_555
Al20 Al46 2.871101 1_555
Al20 Al70 3.092447 1_555
Al20 Yb10 3.106119 1_555
Al20 Yb9 3.349103 1_555
Al21 W2 2.725964 1_555
Al21 Al79 2.747223 1_555
Al21 Al46 2.871101 1_565
Al21 Al66 3.092447 1_555
Al21 Yb10 3.106119 1_565
Al21 Yb11 3.349103 1_555
Al22 W1 2.725964 1_565
Al22 Al79 2.747234 1_555
Al22 Al45 2.871101 1_555
Al22 Al68 3.092447 1_555
Al22 Yb9 3.106119 1_555
Al22 Yb10 3.349103 1_565
Al23 W0 2.725964 1_555
Al23 Al79 2.747232 1_555
Al23 Al47 2.871101 1_555
Al23 Al67 3.092447 1_555
Al23 Yb11 3.106119 1_555
Al23 Yb9 3.349103 1_555
Al24 W3 2.683205 1_555
Al24 W7 2.690234 1_665
Al24 Al45 2.779640 1_555
Al24 Al43 2.863042 1_565
Al24 Al44 2.863042 1_655
Al24 Yb6 3.427925 1_555
Al25 W4 2.683205 1_555
Al25 W7 2.690234 1_555
Al25 Al46 2.779640 1_555
Al25 Al42 2.863042 1_555
Al25 Al44 2.863042 1_545
Al25 Yb7 3.427925 1_555
Al26 W5 2.683205 1_555
Al26 W7 2.690234 1_555
Al26 Al47 2.779640 1_555
Al26 Al42 2.863042 1_555
Al26 Al43 2.863042 1_455
Al26 Yb8 3.427925 1_555
Al27 W0 2.683205 1_555
Al27 W7 2.690234 1_555
Al27 Al42 2.779640 1_555
Al27 Al46 2.863042 1_555
Al27 Al47 2.863042 1_555
Al27 Yb9 3.427925 1_555
Al28 W1 2.683205 1_555
Al28 W7 2.690234 1_655
Al28 Al43 2.779640 1_555
Al28 Al45 2.863042 1_545
Al28 Al47 2.863042 1_655
Al28 Yb10 3.427925 1_555
Al29 W2 2.683205 1_555
Al29 W7 2.690234 1_565
Al29 Al44 2.779640 1_555
Al29 Al45 2.863042 1_455
Al29 Al46 2.863042 1_565
Al29 Yb11 3.427925 1_555
Al30 W0 2.683205 1_555
Al30 W6 2.690234 1_556
Al30 Al39 2.779640 1_556
Al30 Al37 2.863042 1_555
Al30 Al38 2.863042 1_555
Al30 Yb0 3.427925 1_555
Al31 W1 2.683205 1_555
Al31 W6 2.690234 1_656
Al31 Al40 2.779640 1_556
Al31 Al36 2.863042 1_545
Al31 Al38 2.863042 1_655
Al31 Yb1 3.427925 1_555
Al32 W2 2.683205 1_555
Al32 W6 2.690234 1_566
Al32 Al41 2.779640 1_556
Al32 Al36 2.863042 1_455
Al32 Al37 2.863042 1_565
Al32 Yb2 3.427925 1_555
Al33 W3 2.683205 1_555
Al33 W6 2.690234 1_665
Al33 Al36 2.779640 1_554
Al33 Al41 2.863042 1_655
Al33 Al40 2.863042 1_565
Al33 Yb3 3.427925 1_555
Al34 W4 2.683205 1_555
Al34 W6 2.690234 1_555
Al34 Al37 2.779640 1_554
Al34 Al39 2.863042 1_555
Al34 Al41 2.863042 1_545
Al34 Yb4 3.427925 1_555
Al35 W5 2.683205 1_555
Al35 W6 2.690234 1_555
Al35 Al38 2.779640 1_554
Al35 Al39 2.863042 1_555
Al35 Al40 2.863042 1_455
Al35 Yb5 3.427925 1_555
Al36 Al64 2.766255 1_556
Al36 Al61 2.766255 1_556
Al36 W6 2.856662 1_666
Al36 Al4 2.871101 1_555
Al36 Al41 3.013189 1_656
Al36 Al40 3.013189 1_566
Al36 Yb3 3.250581 1_556
Al36 Yb0 3.298855 1_555
Al37 Al63 2.766255 1_546
Al37 Al62 2.766256 1_556
Al37 W6 2.856661 1_556
Al37 Al39 3.013189 1_556
Al37 Al41 3.013189 1_546
Al37 Yb4 3.250580 1_556
Al37 Yb1 3.298855 1_555
Al38 Al60 2.766255 1_456
Al38 Al65 2.766256 1_556
Al38 W6 2.856661 1_556
Al38 Al5 2.871101 1_555
Al38 Al39 3.013189 1_556
Al38 Al40 3.013189 1_456
Al38 Yb5 3.250580 1_556
Al38 Yb2 3.298855 1_555
Al39 Al62 2.766255 1_555
Al39 Al65 2.766255 1_555
Al39 W6 2.856662 1_555
Al39 Al7 2.871101 1_555
Al39 Yb0 3.250581 1_554
Al39 Yb3 3.298855 1_555
Al40 Al60 2.766255 1_555
Al40 Al64 2.766256 1_545
Al40 W6 2.856661 1_655
Al40 Al9 2.871101 1_555
Al40 Al8 2.871101 1_545
Al40 Yb1 3.250580 1_554
Al40 Yb4 3.298855 1_555
Al41 Al63 2.766255 1_555
Al41 Al61 2.766256 1_455
Al41 W6 2.856661 1_565
Al41 Al6 2.871101 1_555
Al41 Yb2 3.250580 1_554
Al41 Yb5 3.298855 1_555
Al42 Al67 2.766255 1_555
Al42 Al70 2.766255 1_555
Al42 W7 2.856662 1_555
Al42 Al47 3.013189 1_555
Al42 Al46 3.013189 1_555
Al42 Yb9 3.250581 1_555
Al42 Yb6 3.298855 1_555
Al43 Al69 2.766255 1_555
Al43 Al68 2.766256 1_545
Al43 W7 2.856661 1_655
Al43 Al45 3.013189 1_545
Al43 Al47 3.013189 1_655
Al43 Yb10 3.250580 1_555
Al43 Yb7 3.298855 1_555
Al44 Al66 2.766255 1_555
Al44 Al71 2.766256 1_455
Al44 W7 2.856661 1_565
Al44 Al45 3.013189 1_455
Al44 Al46 3.013189 1_565
Al44 Yb11 3.250580 1_555
Al44 Yb8 3.298855 1_555
Al45 Al71 2.766255 1_555
Al45 Al68 2.766255 1_555
Al45 W7 2.856662 1_665
Al45 Yb6 3.250581 1_555
Al45 Yb9 3.298855 1_555
Al46 Al66 2.766255 1_545
Al46 Al70 2.766256 1_555
Al46 W7 2.856661 1_555
Al46 Yb7 3.250580 1_555
Al46 Yb10 3.298855 1_555
Al47 Al69 2.766255 1_455
Al47 Al67 2.766256 1_555
Al47 W7 2.856661 1_555
Al47 Yb8 3.250580 1_555
Al47 Yb11 3.298855 1_555
Al48 W2 2.690352 1_655
Al48 Al78 2.821827 1_555
Al48 Al72 2.821827 1_555
Al48 Yb11 3.095795 1_655
Al48 Yb2 3.095795 1_655
Al49 W0 2.690352 1_555
Al49 Al78 2.821833 1_555
Al49 Al72 2.821833 1_555
Al49 Yb0 3.095795 1_555
Al49 Yb9 3.095795 1_555
Al50 W1 2.690352 1_555
Al50 Al78 2.821826 1_555
Al50 Al72 2.821826 1_555
Al50 Yb1 3.095795 1_555
Al50 Yb10 3.095795 1_555
Al51 W1 2.690352 1_565
Al51 Al73 2.821827 1_555
Al51 Al79 2.821827 1_555
Al51 Yb1 3.095795 1_565
Al51 Yb10 3.095795 1_565
Al52 W0 2.690352 1_555
Al52 Al73 2.821833 1_555
Al52 Al79 2.821833 1_555
Al52 Yb0 3.095795 1_555
Al52 Yb9 3.095795 1_555
Al53 W2 2.690352 1_555
Al53 Al79 2.821826 1_555
Al53 Al73 2.821826 1_555
Al53 Yb2 3.095795 1_555
Al53 Yb11 3.095795 1_555
Al54 W5 2.690352 1_555
Al54 Al76 2.821827 1_555
Al54 Al74 2.821827 1_555
Al54 Yb8 3.095795 1_555
Al54 Yb5 3.095795 1_555
Al55 W3 2.690352 1_555
Al55 Al76 2.821833 1_555
Al55 Al74 2.821833 1_555
Al55 Yb6 3.095795 1_555
Al55 Yb3 3.095795 1_555
Al56 W4 2.690352 1_565
Al56 Al76 2.821826 1_555
Al56 Al74 2.821826 1_555
Al56 Yb7 3.095795 1_565
Al56 Yb4 3.095795 1_565
Al57 W4 2.690352 1_555
Al57 Al77 2.821827 1_555
Al57 Al75 2.821827 1_555
Al57 Yb7 3.095795 1_555
Al57 Yb4 3.095795 1_555
Al58 W3 2.690352 1_555
Al58 Al77 2.821833 1_555
Al58 Al75 2.821833 1_555
Al58 Yb6 3.095795 1_555
Al58 Yb3 3.095795 1_555
Al59 W5 2.690352 1_655
Al59 Al77 2.821826 1_555
Al59 Al75 2.821826 1_555
Al59 Yb5 3.095795 1_655
Al59 Yb8 3.095795 1_655
Al60 Al72 2.780084 1_554
Al60 Al75 2.780084 1_555
Al60 Al62 2.863816 1_555
Al60 Al61 2.863816 1_555
Al60 Yb5 3.089684 1_655
Al60 Yb1 3.089684 1_554
Al60 Al9 3.092447 1_555
Al60 Yb2 3.411457 1_654
Al60 Yb4 3.411457 1_555
Al61 Al72 2.780090 1_554
Al61 Al75 2.780090 1_555
Al61 Al62 2.863816 1_555
Al61 Yb3 3.089684 1_555
Al61 Yb2 3.089684 1_654
Al61 Yb5 3.411456 1_655
Al61 Yb0 3.411456 1_554
Al62 Al72 2.780090 1_554
Al62 Al75 2.780090 1_555
Al62 Yb0 3.089684 1_554
Al62 Yb4 3.089684 1_555
Al62 Yb1 3.411456 1_554
Al62 Yb3 3.411456 1_555
Al63 Al73 2.780084 1_554
Al63 Al74 2.780084 1_555
Al63 Al64 2.863816 1_555
Al63 Al65 2.863816 1_555
Al63 Yb2 3.089684 1_554
Al63 Yb4 3.089684 1_565
Al63 Yb1 3.411457 1_564
Al63 Yb5 3.411457 1_555
Al64 Al73 2.780090 1_554
Al64 Al74 2.780090 1_555
Al64 Al65 2.863816 1_555
Al64 Yb3 3.089684 1_555
Al64 Yb1 3.089684 1_564
Al64 Al8 3.092447 1_555
Al64 Yb4 3.411456 1_565
Al64 Yb0 3.411456 1_554
Al65 Al73 2.780090 1_554
Al65 Al74 2.780090 1_555
Al65 Yb0 3.089684 1_554
Al65 Yb5 3.089684 1_555
Al65 Al7 3.092447 1_555
Al65 Yb2 3.411456 1_554
Al65 Yb3 3.411456 1_555
Al66 Al79 2.780084 1_555
Al66 Al76 2.780084 1_555
Al66 Al68 2.863816 1_555
Al66 Al67 2.863816 1_555
Al66 Yb7 3.089684 1_565
Al66 Yb11 3.089684 1_555
Al66 Yb10 3.411457 1_565
Al66 Yb8 3.411457 1_555
Al67 Al79 2.780090 1_555
Al67 Al76 2.780090 1_555
Al67 Al68 2.863816 1_555
Al67 Yb9 3.089684 1_555
Al67 Yb8 3.089684 1_555
Al67 Yb11 3.411456 1_555
Al67 Yb6 3.411456 1_555
Al68 Al79 2.780090 1_555
Al68 Al76 2.780090 1_555
Al68 Yb6 3.089684 1_555
Al68 Yb10 3.089684 1_565
Al68 Yb7 3.411456 1_565
Al68 Yb9 3.411456 1_555
Al69 Al78 2.780084 1_555
Al69 Al77 2.780084 1_555
Al69 Al71 2.863816 1_555
Al69 Al70 2.863816 1_555
Al69 Yb8 3.089684 1_655
Al69 Yb10 3.089684 1_555
Al69 Yb11 3.411457 1_655
Al69 Yb7 3.411457 1_555
Al70 Al78 2.780090 1_555
Al70 Al77 2.780090 1_555
Al70 Al71 2.863816 1_555
Al70 Yb9 3.089684 1_555
Al70 Yb7 3.089684 1_555
Al70 Yb10 3.411456 1_555
Al70 Yb6 3.411456 1_555
Al71 Al78 2.780090 1_555
Al71 Al77 2.780090 1_555
Al71 Yb6 3.089684 1_555
Al71 Yb11 3.089684 1_655
Al71 Yb8 3.411456 1_655
Al71 Yb9 3.411456 1_555
Al72 Yb1 3.270923 1_555
Al72 Yb2 3.270925 1_655
Al72 Yb0 3.270933 1_555
Al73 Yb2 3.270923 1_555
Al73 Yb1 3.270925 1_565
Al73 Yb0 3.270933 1_555
Al74 Al8 2.747232 1_555
Al74 Yb4 3.270923 1_565
Al74 Yb5 3.270925 1_555
Al74 Yb3 3.270933 1_555
Al75 Al9 2.747223 1_555
Al75 Yb5 3.270923 1_655
Al75 Yb4 3.270925 1_555
Al75 Yb3 3.270933 1_555
Al76 Yb7 3.270923 1_565
Al76 Yb8 3.270925 1_555
Al76 Yb6 3.270933 1_555
Al77 Yb8 3.270923 1_655
Al77 Yb7 3.270925 1_555
Al77 Yb6 3.270933 1_555
Al78 Yb10 3.270923 1_555
Al78 Yb11 3.270925 1_655
Al78 Yb9 3.270933 1_555
Al79 Yb11 3.270923 1_555
Al79 Yb10 3.270925 1_565
Al79 Yb9 3.270933 1_555
Al80 W1 2.599676 1_565
Al80 W2 2.599676 1_655
Al81 W0 2.599676 1_555
Al81 W2 2.599676 1_545
Al82 W0 2.599676 1_555
Al82 W1 2.599676 1_455
Al83 W5 2.599676 1_555
Al83 W4 2.599676 1_555
Al84 W3 2.599676 1_545
Al84 W5 2.599676 1_655
Al85 W3 2.599676 1_455
Al85 W4 2.599676 1_565
W0 Yb9 3.506769 1_555
W0 Yb0 3.506769 1_555
W1 Yb1 3.506769 1_555
W1 Yb10 3.506769 1_555
W2 Yb11 3.506769 1_555
W2 Yb2 3.506769 1_555
W3 Yb3 3.506769 1_555
W3 Yb6 3.506769 1_555
W4 Yb7 3.506769 1_555
W4 Yb4 3.506769 1_555
W5 Yb8 3.506769 1_555
W5 Yb5 3.506769 1_555
