# generated using pymatgen
data_Rb2LiNd(BO3)2
_symmetry_space_group_name_H-M   'P 1'
_cell_length_a   7.09884529
_cell_length_b   9.70677857
_cell_length_c   10.12349857
_cell_angle_alpha   90.00000000
_cell_angle_beta   90.00000000
_cell_angle_gamma   90.00000000
_symmetry_Int_Tables_number   1
_chemical_formula_structural   Rb2LiNd(BO3)2
_chemical_formula_sum   'Rb8 Li4 Nd4 B8 O24'
_cell_volume   697.57909933
_cell_formula_units_Z   4
loop_
 _symmetry_equiv_pos_site_id
 _symmetry_equiv_pos_as_xyz
  1  'x, y, z'
loop_
 _atom_site_type_symbol
 _atom_site_label
 _atom_site_symmetry_multiplicity
 _atom_site_fract_x
 _atom_site_fract_y
 _atom_site_fract_z
 _atom_site_occupancy
  Rb  Rb0  1  0.27874476  0.41600183  0.94403002  1
  Rb  Rb1  1  0.72125524  0.58399817  0.44403002  1
  Rb  Rb2  1  0.27874476  0.08399817  0.05596998  1
  Rb  Rb3  1  0.72125524  0.91600183  0.55596998  1
  Rb  Rb4  1  0.72125524  0.58399817  0.05596998  1
  Rb  Rb5  1  0.27874476  0.41600183  0.55596998  1
  Rb  Rb6  1  0.72125524  0.91600183  0.94403002  1
  Rb  Rb7  1  0.27874476  0.08399817  0.44403002  1
  Li  Li0  1  0.44926369  0.15127398  0.75000000  1
  Li  Li1  1  0.55073631  0.84872602  0.25000000  1
  Li  Li2  1  0.44926369  0.34872602  0.25000000  1
  Li  Li3  1  0.55073631  0.65127398  0.75000000  1
  Nd  Nd0  1  0.86125849  0.26313418  0.75000000  1
  Nd  Nd1  1  0.13874151  0.73686582  0.25000000  1
  Nd  Nd2  1  0.86125849  0.23686582  0.25000000  1
  Nd  Nd3  1  0.13874151  0.76313418  0.75000000  1
  B  B0  1  0.68952255  0.25000000  -0.00000000  1
  B  B1  1  0.31047745  0.75000000  0.50000000  1
  B  B2  1  0.31047745  0.75000000  -0.00000000  1
  B  B3  1  0.68952255  0.25000000  0.50000000  1
  B  B4  1  0.84103125  0.56121902  0.75000000  1
  B  B5  1  0.15896875  0.43878098  0.25000000  1
  B  B6  1  0.84103125  0.93878098  0.25000000  1
  B  B7  1  0.15896875  0.06121902  0.75000000  1
  O  O0  1  0.02033096  0.50594709  0.75000000  1
  O  O1  1  0.97966904  0.49405291  0.25000000  1
  O  O2  1  0.02033096  0.99405291  0.25000000  1
  O  O3  1  0.97966904  0.00594709  0.75000000  1
  O  O4  1  0.88684995  0.25000000  -0.00000000  1
  O  O5  1  0.11315005  0.75000000  0.50000000  1
  O  O6  1  0.11315005  0.75000000  -0.00000000  1
  O  O7  1  0.88684995  0.25000000  0.50000000  1
  O  O8  1  0.18644302  0.20268749  0.75000000  1
  O  O9  1  0.81355698  0.79731251  0.25000000  1
  O  O10  1  0.18644302  0.29731251  0.25000000  1
  O  O11  1  0.81355698  0.70268749  0.75000000  1
  O  O12  1  0.68599869  0.47587017  0.75000000  1
  O  O13  1  0.31400131  0.52412983  0.25000000  1
  O  O14  1  0.68599869  0.02412983  0.25000000  1
  O  O15  1  0.31400131  0.97587017  0.75000000  1
  O  O16  1  0.59856318  0.19532861  0.60726178  1
  O  O17  1  0.40143682  0.80467139  0.10726178  1
  O  O18  1  0.59856318  0.30467139  0.39273822  1
  O  O19  1  0.40143682  0.69532861  0.89273822  1
  O  O20  1  0.40143682  0.80467139  0.39273822  1
  O  O21  1  0.59856318  0.19532861  0.89273822  1
  O  O22  1  0.40143682  0.69532861  0.60726178  1
  O  O23  1  0.59856318  0.30467139  0.10726178  1
loop_
_geom_bond_atom_site_label_1
_geom_bond_atom_site_label_2
_geom_bond_distance
_geom_bond_site_symmetry_2
Li0 O16 1.842338 1_555
Li0 O21 1.842338 1_555
Li0 O8 1.931317 1_555
Li0 O15 1.954703 1_545
Li1 O17 1.842338 1_555
Li1 O20 1.842338 1_555
Li1 O9 1.931317 1_555
Li1 O14 1.954703 1_565
Li2 O23 1.842338 1_555
Li2 O18 1.842338 1_555
Li2 O10 1.931317 1_555
Li2 O13 1.954703 1_555
Li3 O19 1.842338 1_555
Li3 O22 1.842338 1_555
Li3 O11 1.931317 1_555
Li3 O12 1.954703 1_555
Nd0 O8 2.381835 1_655
Nd0 O12 2.410817 1_555
Nd0 O16 2.449255 1_555
Nd0 O21 2.449255 1_555
Nd0 O7 2.540587 1_555
Nd0 O4 2.540587 1_556
Nd0 O0 2.613482 1_655
Nd0 O3 2.634174 1_555
Nd1 O9 2.381835 1_455
Nd1 O13 2.410817 1_555
Nd1 O17 2.449255 1_555
Nd1 O20 2.449255 1_555
Nd1 O6 2.540587 1_555
Nd1 O5 2.540587 1_555
Nd1 O1 2.613482 1_455
Nd1 O2 2.634174 1_555
Nd2 O10 2.381835 1_655
Nd2 O14 2.410817 1_555
Nd2 O23 2.449255 1_555
Nd2 O18 2.449255 1_555
Nd2 O7 2.540587 1_555
Nd2 O4 2.540587 1_555
Nd2 O2 2.613482 1_645
Nd2 O1 2.634174 1_555
Nd3 O11 2.381835 1_455
Nd3 O15 2.410817 1_555
Nd3 O19 2.449255 1_555
Nd3 O22 2.449255 1_555
Nd3 O6 2.540587 1_556
Nd3 O5 2.540587 1_555
Nd3 O3 2.613482 1_465
Nd3 O0 2.634174 1_555
B0 O21 1.370278 1_554
B0 O23 1.370278 1_555
B0 O4 1.400797 1_555
B1 O20 1.370278 1_555
B1 O22 1.370278 1_555
B1 O5 1.400797 1_555
B2 O19 1.370278 1_554
B2 O17 1.370278 1_555
B2 O6 1.400797 1_555
B3 O18 1.370278 1_555
B3 O16 1.370278 1_555
B3 O7 1.400797 1_555
B4 O12 1.377521 1_555
B4 O0 1.381274 1_655
B4 O11 1.386984 1_555
B5 O13 1.377521 1_555
B5 O1 1.381274 1_455
B5 O10 1.386984 1_555
B6 O14 1.377521 1_565
B6 O2 1.381274 1_655
B6 O9 1.386984 1_555
B7 O15 1.377521 1_545
B7 O3 1.381274 1_455
B7 O8 1.386984 1_555
O0 Rb0 2.825909 1_555
O0 Rb5 2.825909 1_555
O1 Rb4 2.825909 1_555
O1 Rb1 2.825909 1_555
O2 Rb2 2.825909 1_565
O2 Rb7 2.825909 1_565
O3 Rb3 2.825909 1_545
O3 Rb6 2.825909 1_545
O4 Rb2 3.264507 1_655
O4 Rb0 3.264507 1_654
O5 Rb3 3.264507 1_455
O5 Rb1 3.264507 1_455
O6 Rb6 3.264507 1_454
O6 Rb4 3.264507 1_455
O7 Rb7 3.264507 1_655
O7 Rb5 3.264507 1_655
O8 Rb5 2.928314 1_555
O8 Rb0 2.928314 1_555
O9 Rb4 2.928314 1_555
O9 Rb1 2.928314 1_555
O10 Rb2 2.928314 1_555
O10 Rb7 2.928314 1_555
O11 Rb6 2.928314 1_555
O11 Rb3 2.928314 1_555
O16 Rb3 2.894772 1_545
O16 Rb7 3.008813 1_555
O16 Rb5 3.164230 1_555
O17 Rb2 2.894772 1_565
O17 Rb6 3.008813 1_554
O17 Rb4 3.164230 1_555
O18 Rb1 2.894772 1_555
O18 Rb5 3.008813 1_555
O18 Rb7 3.164230 1_555
O19 Rb0 2.894772 1_555
O19 Rb4 3.008813 1_556
O19 Rb6 3.164230 1_555
O20 Rb7 2.894772 1_565
O20 Rb3 3.008813 1_555
O20 Rb1 3.164230 1_555
O21 Rb6 2.894772 1_545
O21 Rb2 3.008813 1_556
O21 Rb0 3.164230 1_555
O22 Rb5 2.894772 1_555
O22 Rb1 3.008813 1_555
O22 Rb3 3.164230 1_555
O23 Rb4 2.894772 1_555
O23 Rb0 3.008813 1_554
O23 Rb2 3.164230 1_555
