# generated using pymatgen
data_Mg2Si3
_symmetry_space_group_name_H-M   'P 1'
_cell_length_a   3.76916400
_cell_length_b   6.15921997
_cell_length_c   17.40786021
_cell_angle_alpha   83.28809049
_cell_angle_beta   83.92262449
_cell_angle_gamma   72.80973697
_symmetry_Int_Tables_number   1
_chemical_formula_structural   Mg2Si3
_chemical_formula_sum   'Mg8 Si12'
_cell_volume   382.34146026
_cell_formula_units_Z   4
loop_
 _symmetry_equiv_pos_site_id
 _symmetry_equiv_pos_as_xyz
  1  'x, y, z'
loop_
 _atom_site_type_symbol
 _atom_site_label
 _atom_site_symmetry_multiplicity
 _atom_site_fract_x
 _atom_site_fract_y
 _atom_site_fract_z
 _atom_site_occupancy
  Mg  Mg0  1  0.29259000  0.99307000  0.24138900  1
  Mg  Mg1  1  0.04299600  0.92442600  0.75679800  1
  Mg  Mg2  1  0.39274400  0.93874500  0.05793700  1
  Mg  Mg3  1  0.86514900  0.16245700  0.91169800  1
  Mg  Mg4  1  0.77955900  0.46629800  0.74511200  1
  Mg  Mg5  1  0.57058500  0.43472500  0.24936800  1
  Mg  Mg6  1  0.92003400  0.39105500  0.56609700  1
  Mg  Mg7  1  0.42892200  0.52138100  0.41947300  1
  Si  Si0  1  0.72138600  0.36729200  0.04572600  1
  Si  Si1  1  0.04127300  0.65640200  0.98582500  1
  Si  Si2  1  0.18423700  0.35977600  0.13338600  1
  Si  Si3  1  0.55037600  0.80434900  0.88667300  1
  Si  Si4  1  0.45699600  0.20355600  0.67038100  1
  Si  Si5  1  0.89618300  0.70352800  0.31435900  1
  Si  Si6  1  0.22764400  0.78948200  0.54311900  1
  Si  Si7  1  0.12216100  0.11232800  0.44741000  1
  Si  Si8  1  0.66681800  0.82703100  0.62831700  1
  Si  Si9  1  0.68214300  0.07609800  0.36444800  1
  Si  Si10  1  0.95077300  0.74399800  0.17104000  1
  Si  Si11  1  0.20729300  0.52398000  0.86138300  1
loop_
_geom_bond_atom_site_label_1
_geom_bond_atom_site_label_2
_geom_bond_distance
_geom_bond_site_symmetry_2
Mg0 Si2 2.725376 1_565
Mg0 Si10 2.730297 1_455
Mg0 Si10 2.748420 1_555
Mg0 Si5 2.766569 1_555
Mg0 Si5 2.769456 1_455
Mg0 Si9 2.893492 1_565
Mg0 Si9 2.943034 1_465
Mg1 Si4 2.819873 1_465
Mg1 Si11 2.840358 1_555
Mg1 Si4 2.852690 1_565
Mg1 Si3 2.939041 1_455
Mg1 Si8 2.976637 1_455
Mg1 Si3 3.000715 1_555
Mg1 Si8 3.042543 1_555
Mg2 Si1 2.814789 1_654
Mg2 Si10 2.832831 1_455
Mg2 Si2 2.905240 1_565
Mg2 Si10 2.927918 1_555
Mg2 Si1 2.929009 1_554
Mg2 Si0 3.074114 1_465
Mg2 Si3 3.136511 1_554
Mg3 Si0 2.710192 1_556
Mg3 Si3 2.888461 1_545
Mg3 Si3 2.888663 1_645
Mg3 Si11 2.896669 1_655
Mg3 Si11 2.934963 1_555
Mg3 Si1 3.136728 1_645
Mg4 Si11 2.768776 1_555
Mg4 Si4 2.789147 1_555
Mg4 Si8 2.796380 1_555
Mg4 Si11 2.831908 1_655
Mg4 Si4 2.859587 1_655
Mg5 Si5 2.731292 1_555
Mg5 Si2 2.765457 1_555
Mg5 Si9 2.768407 1_555
Mg5 Si5 2.797100 1_455
Mg5 Si10 2.851990 1_555
Mg5 Si2 2.870044 1_655
Mg5 Si10 2.895235 1_455
Mg6 Si7 2.742090 1_655
Mg6 Si4 2.762558 1_655
Mg6 Si4 2.775896 1_555
Mg6 Si8 2.870684 1_555
Mg6 Si6 2.980024 1_655
Mg6 Si6 3.032965 1_555
Mg7 Si5 2.757785 1_455
Mg7 Si6 2.771240 1_555
Mg7 Si5 2.777457 1_555
Mg7 Si9 2.867670 1_555
Mg7 Si7 3.039311 1_555
Mg7 Si7 3.082686 1_655
Si0 Si2 2.411320 1_555
Si0 Si2 2.423566 1_655
Si0 Si1 2.506139 1_654
Si0 Si1 2.874594 1_554
Si1 Si11 2.360894 1_555
Si1 Si3 2.558317 1_455
Si1 Si3 2.730617 1_555
Si4 Si8 2.393759 1_545
Si5 Si9 2.429291 1_565
Si6 Si7 2.405515 1_565
Si6 Si8 2.412364 1_555
Si6 Si8 2.418437 1_455
Si7 Si9 2.384819 1_455
Si7 Si9 2.396223 1_555
Si10 Si2 2.411202 1_655
Si10 Si5 2.470857 1_555
Si11 Si3 2.542880 1_555
Si11 Si3 2.593473 1_455
