# generated using pymatgen
data_Nd2WO6
_symmetry_space_group_name_H-M   'P 1'
_cell_length_a   10.38730939
_cell_length_b   10.38730939
_cell_length_c   5.70467595
_cell_angle_alpha   74.99441483
_cell_angle_beta   74.99441483
_cell_angle_gamma   68.91594509
_symmetry_Int_Tables_number   1
_chemical_formula_structural   Nd2WO6
_chemical_formula_sum   'Nd8 W4 O24'
_cell_volume   545.25815231
_cell_formula_units_Z   4
loop_
 _symmetry_equiv_pos_site_id
 _symmetry_equiv_pos_as_xyz
  1  'x, y, z'
loop_
 _atom_site_type_symbol
 _atom_site_label
 _atom_site_symmetry_multiplicity
 _atom_site_fract_x
 _atom_site_fract_y
 _atom_site_fract_z
 _atom_site_occupancy
  Nd  Nd0  1  0.10829200  0.89170800  0.75000000  1
  Nd  Nd1  1  0.89170800  0.10829200  0.25000000  1
  Nd  Nd2  1  0.06358900  0.29090200  0.61780900  1
  Nd  Nd3  1  0.70909800  0.93641100  0.88219100  1
  Nd  Nd4  1  0.93641100  0.70909800  0.38219100  1
  Nd  Nd5  1  0.29090200  0.06358900  0.11780900  1
  Nd  Nd6  1  0.62982000  0.37018000  0.75000000  1
  Nd  Nd7  1  0.37018000  0.62982000  0.25000000  1
  W  W0  1  0.50268600  0.79799400  0.55595700  1
  W  W1  1  0.20200600  0.49731400  0.94404300  1
  W  W2  1  0.49731400  0.20200600  0.44404300  1
  W  W3  1  0.79799400  0.50268600  0.05595700  1
  O  O0  1  0.61248300  0.17604900  0.14147400  1
  O  O1  1  0.82395100  0.38751700  0.35852600  1
  O  O2  1  0.38751700  0.82395100  0.85852600  1
  O  O3  1  0.17604900  0.61248300  0.64147400  1
  O  O4  1  0.47440300  0.06952300  0.73176400  1
  O  O5  1  0.93047700  0.52559700  0.76823600  1
  O  O6  1  0.52559700  0.93047700  0.26823600  1
  O  O7  1  0.06952300  0.47440300  0.23176400  1
  O  O8  1  0.32858900  0.21512700  0.37370300  1
  O  O9  1  0.78487300  0.67141100  0.12629700  1
  O  O10  1  0.67141100  0.78487300  0.62629700  1
  O  O11  1  0.21512700  0.32858900  0.87370300  1
  O  O12  1  0.89108400  0.92189800  0.07314400  1
  O  O13  1  0.07810200  0.10891600  0.42685600  1
  O  O14  1  0.10891600  0.07810200  0.92685600  1
  O  O15  1  0.92189800  0.89108400  0.57314400  1
  O  O16  1  0.16306400  0.68079800  0.07892900  1
  O  O17  1  0.31920200  0.83693600  0.42107100  1
  O  O18  1  0.83693600  0.31920200  0.92107100  1
  O  O19  1  0.68079800  0.16306400  0.57892900  1
  O  O20  1  0.38229700  0.45777300  0.98279700  1
  O  O21  1  0.54222700  0.61770300  0.51720300  1
  O  O22  1  0.61770300  0.54222700  0.01720300  1
  O  O23  1  0.45777300  0.38229700  0.48279700  1
loop_
_geom_bond_atom_site_label_1
_geom_bond_atom_site_label_2
_geom_bond_distance
_geom_bond_site_symmetry_2
Nd0 O14 2.406339 1_565
Nd0 O15 2.406339 1_455
Nd0 O16 2.484265 1_556
Nd0 O17 2.484265 1_555
Nd0 O12 2.494719 1_456
Nd0 O13 2.494719 1_565
Nd0 O2 2.920010 1_555
Nd0 O3 2.920010 1_555
Nd1 O13 2.406339 1_655
Nd1 O12 2.406339 1_545
Nd1 O19 2.484265 1_555
Nd1 O18 2.484265 1_554
Nd1 O15 2.494719 1_545
Nd1 O14 2.494719 1_654
Nd1 O1 2.920010 1_555
Nd1 O0 2.920010 1_555
Nd2 O13 2.357753 1_555
Nd2 O14 2.424652 1_555
Nd2 O18 2.505686 1_455
Nd2 O7 2.515445 1_555
Nd2 O5 2.575852 1_455
Nd2 O11 2.586710 1_555
Nd2 O8 2.675736 1_555
Nd2 O1 2.954933 1_455
Nd3 O12 2.357753 1_556
Nd3 O15 2.424652 1_555
Nd3 O19 2.505686 1_565
Nd3 O6 2.515445 1_556
Nd3 O4 2.575852 1_565
Nd3 O10 2.586710 1_555
Nd3 O9 2.675736 1_556
Nd3 O0 2.954933 1_566
Nd4 O15 2.357753 1_555
Nd4 O12 2.424652 1_555
Nd4 O16 2.505686 1_655
Nd4 O5 2.515445 1_555
Nd4 O7 2.575852 1_655
Nd4 O9 2.586710 1_555
Nd4 O10 2.675736 1_555
Nd4 O3 2.954933 1_655
Nd5 O14 2.357753 1_554
Nd5 O13 2.424652 1_555
Nd5 O17 2.505686 1_545
Nd5 O4 2.515445 1_554
Nd5 O6 2.575852 1_545
Nd5 O8 2.586710 1_555
Nd5 O11 2.675736 1_554
Nd5 O2 2.954933 1_544
Nd6 O18 2.420989 1_555
Nd6 O19 2.420989 1_555
Nd6 O20 2.525182 1_555
Nd6 O21 2.525182 1_555
Nd6 O23 2.585059 1_555
Nd6 O22 2.585059 1_556
Nd6 O1 2.609043 1_555
Nd6 O0 2.609043 1_556
Nd7 O17 2.420989 1_555
Nd7 O16 2.420989 1_555
Nd7 O22 2.525182 1_555
Nd7 O23 2.525182 1_555
Nd7 O21 2.585059 1_555
Nd7 O20 2.585059 1_554
Nd7 O2 2.609043 1_554
Nd7 O3 2.609043 1_555
O0 W2 1.850074 1_555
O1 W3 1.850074 1_555
O2 W0 1.850074 1_555
O3 W1 1.850074 1_555
O4 W2 1.873011 1_555
O5 W3 1.873011 1_556
O6 W0 1.873011 1_555
O7 W1 1.873011 1_554
O8 W2 1.848021 1_555
O9 W3 1.848021 1_555
O10 W0 1.848021 1_555
O11 W1 1.848021 1_555
O16 W1 2.105177 1_554
O17 W0 2.105177 1_555
O18 W3 2.105177 1_556
O19 W2 2.105177 1_555
O20 W1 1.827207 1_555
O21 W0 1.827207 1_555
O22 W3 1.827207 1_555
O23 W2 1.827207 1_555
