# generated using pymatgen
data_Fe6O5F7
_symmetry_space_group_name_H-M   'P 1'
_cell_length_a   4.77148132
_cell_length_b   4.77148132
_cell_length_c   9.32644770
_cell_angle_alpha   89.78737626
_cell_angle_beta   89.78737626
_cell_angle_gamma   92.25594364
_symmetry_Int_Tables_number   1
_chemical_formula_structural   Fe6O5F7
_chemical_formula_sum   'Fe6 O5 F7'
_cell_volume   212.16794164
_cell_formula_units_Z   1
loop_
 _symmetry_equiv_pos_site_id
 _symmetry_equiv_pos_as_xyz
  1  'x, y, z'
loop_
 _atom_site_type_symbol
 _atom_site_label
 _atom_site_symmetry_multiplicity
 _atom_site_fract_x
 _atom_site_fract_y
 _atom_site_fract_z
 _atom_site_occupancy
  Fe  Fe0  1  0.99884900  0.00115100  0.00000000  1
  Fe  Fe1  1  0.04118600  0.02035400  0.34050400  1
  Fe  Fe2  1  0.97964600  0.95881400  0.65949600  1
  Fe  Fe3  1  0.49207900  0.48373700  0.15514400  1
  Fe  Fe4  1  0.51626300  0.50792100  0.84485600  1
  Fe  Fe5  1  0.47227200  0.52772800  0.50000000  1
  O  O0  1  0.18905600  0.81094400  0.50000000  1
  O  O1  1  0.69840000  0.69179600  0.00474100  1
  O  O2  1  0.68087400  0.68143400  0.66499400  1
  O  O3  1  0.30820400  0.30160000  0.99525900  1
  O  O4  1  0.31856600  0.31912600  0.33500600  1
  F  F0  1  0.20681000  0.80099900  0.18050200  1
  F  F1  1  0.19900100  0.79319000  0.81949800  1
  F  F2  1  0.70783600  0.71416600  0.33431100  1
  F  F3  1  0.28583400  0.29216400  0.66568900  1
  F  F4  1  0.80644000  0.20140800  0.18533500  1
  F  F5  1  0.79859200  0.19356000  0.81466500  1
  F  F6  1  0.80009300  0.19990700  0.50000000  1
loop_
_geom_bond_atom_site_label_1
_geom_bond_atom_site_label_2
_geom_bond_distance
_geom_bond_site_symmetry_2
Fe0 O3 2.017026 1_654
Fe0 O1 2.017026 1_545
Fe1 O4 1.907098 1_555
Fe1 O0 1.939385 1_545
Fe2 O2 1.907098 1_555
Fe2 O0 1.939385 1_655
Fe3 O3 1.925586 1_554
Fe3 O1 1.955715 1_555
Fe3 O4 2.011217 1_555
Fe4 O1 1.925586 1_556
Fe4 O3 1.955715 1_555
Fe4 O2 2.011217 1_555
Fe5 O0 1.948362 1_555
Fe5 O2 1.964380 1_555
Fe5 O4 1.964380 1_555
F0 Fe1 2.003689 1_565
F0 Fe3 2.088728 1_555
F0 Fe0 2.192200 1_465
F1 Fe2 2.003689 1_455
F1 Fe4 2.088728 1_555
F1 Fe0 2.192200 1_466
F2 Fe5 2.083464 1_555
F2 Fe1 2.118032 1_665
F2 Fe3 2.235667 1_555
F3 Fe5 2.083464 1_555
F3 Fe2 2.118032 1_445
F3 Fe4 2.235667 1_555
F4 Fe1 2.043075 1_655
F4 Fe3 2.074449 1_555
F4 Fe0 2.193901 1_555
F5 Fe2 2.043075 1_545
F5 Fe4 2.074449 1_555
F5 Fe0 2.193901 1_556
F6 Fe1 2.084333 1_655
F6 Fe2 2.084333 1_545
F6 Fe5 2.255219 1_555
