# generated using pymatgen
data_LiV3O4
_symmetry_space_group_name_H-M   'P 1'
_cell_length_a   6.04623503
_cell_length_b   6.14709215
_cell_length_c   6.05845510
_cell_angle_alpha   89.36871728
_cell_angle_beta   60.10216073
_cell_angle_gamma   119.47601495
_symmetry_Int_Tables_number   1
_chemical_formula_structural   LiV3O4
_chemical_formula_sum   'Li2 V6 O8'
_cell_volume   159.84033226
_cell_formula_units_Z   2
loop_
 _symmetry_equiv_pos_site_id
 _symmetry_equiv_pos_as_xyz
  1  'x, y, z'
loop_
 _atom_site_type_symbol
 _atom_site_label
 _atom_site_symmetry_multiplicity
 _atom_site_fract_x
 _atom_site_fract_y
 _atom_site_fract_z
 _atom_site_occupancy
  Li  Li0  1  0.99997500  0.50002500  0.00001000  1
  Li  Li1  1  0.49998000  0.50002700  0.00001300  1
  V  V0  1  0.49995600  0.00000100  0.00002800  1
  V  V1  1  0.99998200  0.00002800  0.99999400  1
  V  V2  1  0.49996500  0.50001600  0.50001000  1
  V  V3  1  0.49995300  0.00000300  0.50000900  1
  V  V4  1  0.99995700  0.00000400  0.50001100  1
  V  V5  1  0.99996000  0.50001900  0.50002900  1
  O  O0  1  0.01950900  0.76194100  0.74202200  1
  O  O1  1  0.49905400  0.75938200  0.74054900  1
  O  O2  1  0.50088200  0.24066400  0.25947300  1
  O  O3  1  0.98044000  0.23811500  0.25798900  1
  O  O4  1  0.00006600  0.75798900  0.24319700  1
  O  O5  1  0.51415100  0.76043600  0.24601000  1
  O  O6  1  0.48581300  0.23963300  0.75403300  1
  O  O7  1  0.99986000  0.24205900  0.75683600  1
loop_
_geom_bond_atom_site_label_1
_geom_bond_atom_site_label_2
_geom_bond_distance
_geom_bond_site_symmetry_2
Li0 O1 2.144747 1_654
Li0 O2 2.144806 1_555
Li0 O3 2.149931 1_555
Li0 O0 2.149999 1_654
Li0 O7 2.176346 1_554
Li0 O4 2.176394 1_655
Li1 O6 2.198915 1_554
Li1 O5 2.199055 1_555
Li1 O2 2.230414 1_555
Li1 O1 2.230498 1_554
Li1 O0 2.230516 1_654
Li1 O3 2.230563 1_455
O0 V3 2.062246 1_565
O0 V4 2.145004 1_465
O0 V1 2.152925 1_465
O0 V5 2.189339 1_455
O1 V3 2.061127 1_565
O1 V4 2.151258 1_565
O1 V0 2.170472 1_566
O1 V2 2.171985 1_555
O2 V3 2.061156 1_555
O2 V4 2.151352 1_455
O2 V0 2.170511 1_555
O2 V2 2.171914 1_555
O3 V3 2.062432 1_555
O3 V4 2.145103 1_555
O3 V1 2.153026 1_554
O3 V5 2.189456 1_555
O4 V1 2.082750 1_464
O4 V0 2.146272 1_565
O4 V2 2.148299 1_455
O4 V4 2.164481 1_465
O4 V5 2.208945 1_455
O5 V1 2.085343 1_564
O5 V3 2.141664 1_565
O5 V0 2.144864 1_565
O5 V2 2.148735 1_555
O5 V5 2.207853 1_455
O6 V1 2.085342 1_455
O6 V3 2.142041 1_555
O6 V0 2.144979 1_556
O6 V2 2.148808 1_555
O6 V5 2.207662 1_555
O7 V1 2.082687 1_555
O7 V0 2.146328 1_556
O7 V2 2.148313 1_655
O7 V4 2.164702 1_555
O7 V5 2.208821 1_555
