# generated using pymatgen
data_Ba9Ca3(MoN4)4
_symmetry_space_group_name_H-M   'P 1'
_cell_length_a   10.12469635
_cell_length_b   10.59423700
_cell_length_c   12.17125360
_cell_angle_alpha   90.00000000
_cell_angle_beta   89.94102496
_cell_angle_gamma   90.00000000
_symmetry_Int_Tables_number   1
_chemical_formula_structural   Ba9Ca3(MoN4)4
_chemical_formula_sum   'Ba18 Ca6 Mo8 N32'
_cell_volume   1305.52974973
_cell_formula_units_Z   2
loop_
 _symmetry_equiv_pos_site_id
 _symmetry_equiv_pos_as_xyz
  1  'x, y, z'
loop_
 _atom_site_type_symbol
 _atom_site_label
 _atom_site_symmetry_multiplicity
 _atom_site_fract_x
 _atom_site_fract_y
 _atom_site_fract_z
 _atom_site_occupancy
  Ba  Ba0  1  0.62211900  0.02855900  0.64534300  1
  Ba  Ba1  1  0.87788100  0.52855900  0.35465800  1
  Ba  Ba2  1  0.11979200  0.96081100  0.86037100  1
  Ba  Ba3  1  0.38020800  0.46081100  0.13962900  1
  Ba  Ba4  1  0.37741200  0.97213600  0.35450100  1
  Ba  Ba5  1  0.12258800  0.47213600  0.64549900  1
  Ba  Ba6  1  0.88047100  0.03732100  0.14546300  1
  Ba  Ba7  1  0.61952900  0.53732100  0.85453700  1
  Ba  Ba8  1  0.30247000  0.76915300  0.61782600  1
  Ba  Ba9  1  0.19753000  0.26915300  0.38217400  1
  Ba  Ba10  1  0.79483700  0.22959500  0.88507800  1
  Ba  Ba11  1  0.70516300  0.72959500  0.11492200  1
  Ba  Ba12  1  0.69498300  0.23222600  0.37870500  1
  Ba  Ba13  1  0.80501700  0.73222600  0.62129500  1
  Ba  Ba14  1  0.19517500  0.76633800  0.11660400  1
  Ba  Ba15  1  0.30482500  0.26633800  0.88339600  1
  Ba  Ba16  1  0.96420000  0.12445400  0.60938700  1
  Ba  Ba17  1  0.53580000  0.62445400  0.39061300  1
  Ca  Ca0  1  0.46747600  0.88181800  0.89952900  1
  Ca  Ca1  1  0.03252400  0.38181800  0.10047100  1
  Ca  Ca2  1  0.03304200  0.87912400  0.39352400  1
  Ca  Ca3  1  0.46695800  0.37912400  0.60647600  1
  Ca  Ca4  1  0.53015400  0.11459500  0.10140900  1
  Ca  Ca5  1  0.96984600  0.61459500  0.89859100  1
  Mo  Mo0  1  0.29883800  0.09367800  0.61953600  1
  Mo  Mo1  1  0.20116200  0.59367800  0.38046400  1
  Mo  Mo2  1  0.78227200  0.90049100  0.88701600  1
  Mo  Mo3  1  0.71772800  0.40049100  0.11298400  1
  Mo  Mo4  1  0.71268200  0.91070100  0.37573600  1
  Mo  Mo5  1  0.78731800  0.41070100  0.62426400  1
  Mo  Mo6  1  0.21470500  0.09423900  0.12039400  1
  Mo  Mo7  1  0.28529500  0.59423900  0.87960600  1
  N  N0  1  0.18833700  0.99044200  0.53054700  1
  N  N1  1  0.31166300  0.49044200  0.46945300  1
  N  N2  1  0.66876300  0.00017100  0.97465800  1
  N  N3  1  0.83123700  0.50017100  0.02534200  1
  N  N4  1  0.83399500  0.01265000  0.45054400  1
  N  N5  1  0.66600500  0.51265000  0.54945600  1
  N  N6  1  0.32541700  0.99304700  0.03065400  1
  N  N7  1  0.17458300  0.49304700  0.96934600  1
  N  N8  1  0.42811200  0.16903900  0.52847900  1
  N  N9  1  0.07188800  0.66903900  0.47152100  1
  N  N10  1  0.91398000  0.82299000  0.97622900  1
  N  N11  1  0.58602000  0.32299000  0.02377100  1
  N  N12  1  0.58505200  0.85074200  0.47670000  1
  N  N13  1  0.91494800  0.35074200  0.52330000  1
  N  N14  1  0.08567900  0.17077900  0.02963100  1
  N  N15  1  0.41432100  0.67077900  0.97036900  1
  N  N16  1  0.37681800  0.98684000  0.72623800  1
  N  N17  1  0.12318200  0.48684000  0.27376200  1
  N  N18  1  0.86790300  0.00797200  0.78777100  1
  N  N19  1  0.63209700  0.50797200  0.21222900  1
  N  N20  1  0.62719900  0.01315400  0.27025300  1
  N  N21  1  0.87280100  0.51315400  0.72974700  1
  N  N22  1  0.12899700  0.98873600  0.22439800  1
  N  N23  1  0.37100300  0.48873600  0.77560200  1
  N  N24  1  0.19590700  0.21742200  0.68930200  1
  N  N25  1  0.30409300  0.71742200  0.31069800  1
  N  N26  1  0.67150100  0.78840800  0.81062800  1
  N  N27  1  0.82849900  0.28840800  0.18937200  1
  N  N28  1  0.81306400  0.78222500  0.30985900  1
  N  N29  1  0.68693600  0.28222500  0.69014100  1
  N  N30  1  0.32659500  0.21014100  0.19189500  1
  N  N31  1  0.17340500  0.71014100  0.80810500  1
loop_
_geom_bond_atom_site_label_1
_geom_bond_atom_site_label_2
_geom_bond_distance
_geom_bond_site_symmetry_2
Ba0 N16 2.707027 1_545
Ba0 N12 2.811480 1_545
Ba0 N29 2.819717 1_555
Ba0 N8 2.846440 1_555
Ba0 N18 3.042062 1_555
Ba0 N4 3.200176 1_555
Ba0 N26 3.282092 1_545
Ba1 N17 2.707032 1_655
Ba1 N13 2.811471 1_555
Ba1 N28 2.819720 1_555
Ba1 N9 2.846433 1_655
Ba1 N19 3.042069 1_555
Ba1 N5 3.200167 1_555
Ba1 N27 3.282099 1_555
Ba2 N18 2.745744 1_465
Ba2 N31 2.784085 1_555
Ba2 N10 2.908008 1_455
Ba2 N6 2.958932 1_556
Ba2 N14 3.051237 1_566
Ba2 N16 3.082951 1_555
Ba3 N19 2.745744 1_555
Ba3 N30 2.784085 1_555
Ba3 N11 2.908008 1_555
Ba3 N7 2.958932 1_554
Ba3 N15 3.051237 1_554
Ba3 N17 3.082951 1_555
Ba4 N20 2.762405 1_565
Ba4 N25 2.849213 1_555
Ba4 N0 2.878364 1_555
Ba4 N12 2.879612 1_555
Ba4 N22 2.978676 1_555
Ba4 N8 3.016823 1_565
Ba4 N30 3.246782 1_565
Ba5 N21 2.762405 1_455
Ba5 N24 2.849213 1_555
Ba5 N1 2.878364 1_555
Ba5 N13 2.879612 1_455
Ba5 N23 2.978676 1_555
Ba5 N9 3.016823 1_555
Ba5 N31 3.246782 1_555
Ba6 N22 2.743073 1_645
Ba6 N27 2.763679 1_555
Ba6 N14 2.880511 1_655
Ba6 N20 2.989998 1_555
Ba6 N2 3.013378 1_554
Ba6 N10 3.084211 1_544
Ba6 N28 3.430794 1_545
Ba7 N23 2.743073 1_555
Ba7 N26 2.763679 1_555
Ba7 N15 2.880511 1_555
Ba7 N21 2.989998 1_555
Ba7 N3 3.013378 1_556
Ba7 N11 3.084211 1_556
Ba7 N29 3.430794 1_555
Ba8 N31 2.730524 1_555
Ba8 N16 2.761969 1_555
Ba8 N0 2.821786 1_555
Ba8 N9 3.123247 1_555
Ba8 N12 3.445736 1_555
Ba8 N1 3.462392 1_555
Ba9 N30 2.730524 1_555
Ba9 N17 2.761969 1_555
Ba9 N1 2.821786 1_555
Ba9 N8 3.123247 1_555
Ba9 N13 3.445736 1_455
Ba9 N0 3.462392 1_545
Ba10 N29 2.671903 1_555
Ba10 N18 2.731464 1_555
Ba10 N11 2.879429 1_556
Ba10 N2 2.953460 1_555
Ba10 N3 3.356888 1_556
Ba10 N14 3.487918 1_656
Ba11 N28 2.671903 1_555
Ba11 N19 2.731464 1_555
Ba11 N10 2.879429 1_554
Ba11 N3 2.953460 1_555
Ba11 N2 3.356888 1_564
Ba11 N15 3.487918 1_554
Ba12 N27 2.735982 1_555
Ba12 N20 2.757142 1_555
Ba12 N4 2.856463 1_555
Ba12 N13 3.105109 1_555
Ba12 N8 3.325931 1_555
Ba13 N26 2.735982 1_555
Ba13 N21 2.757142 1_555
Ba13 N5 2.856463 1_555
Ba13 N12 3.105109 1_555
Ba13 N9 3.325931 1_655
Ba14 N25 2.659095 1_555
Ba14 N22 2.778458 1_555
Ba14 N6 2.932418 1_555
Ba14 N15 3.017897 1_554
Ba14 N10 3.375623 1_454
Ba14 N7 3.411663 1_554
Ba15 N24 2.659095 1_555
Ba15 N23 2.778458 1_555
Ba15 N7 2.932418 1_555
Ba15 N14 3.017897 1_556
Ba15 N11 3.375623 1_556
Ba15 N6 3.411663 1_546
Ba16 N4 2.623706 1_555
Ba16 N13 2.663621 1_555
Ba16 N18 2.680111 1_555
Ba16 N24 2.724774 1_655
Ba16 N0 2.842855 1_645
Ba17 N5 2.623706 1_555
Ba17 N12 2.663621 1_555
Ba17 N19 2.680111 1_555
Ba17 N25 2.724774 1_555
Ba17 N1 2.842855 1_555
Ca0 N6 2.449421 1_556
Ca0 N15 2.455785 1_555
Ca0 N26 2.532312 1_555
Ca0 N16 2.555980 1_555
Ca0 N2 2.562318 1_565
Ca1 N7 2.449421 1_554
Ca1 N14 2.455785 1_555
Ca1 N27 2.532312 1_455
Ca1 N17 2.555980 1_555
Ca1 N3 2.562318 1_455
Ca2 N9 2.451605 1_555
Ca2 N22 2.554518 1_555
Ca2 N4 2.557591 1_465
Ca2 N0 2.578711 1_555
Ca2 N28 2.656301 1_455
Ca3 N8 2.451605 1_555
Ca3 N23 2.554518 1_555
Ca3 N5 2.557591 1_555
Ca3 N1 2.578711 1_555
Ca3 N29 2.656301 1_555
Ca4 N2 2.411327 1_554
Ca4 N11 2.466999 1_555
Ca4 N20 2.519469 1_555
Ca4 N30 2.545680 1_555
Ca4 N6 2.588515 1_545
Ca5 N3 2.411327 1_556
Ca5 N10 2.466999 1_555
Ca5 N21 2.519469 1_555
Ca5 N31 2.545680 1_655
Ca5 N7 2.588515 1_655
Mo0 N24 1.877214 1_555
Mo0 N8 1.890989 1_555
Mo0 N16 1.895573 1_545
Mo0 N0 1.903549 1_545
Mo1 N25 1.877214 1_555
Mo1 N9 1.890989 1_555
Mo1 N17 1.895573 1_555
Mo1 N1 1.903549 1_555
Mo2 N18 1.872221 1_565
Mo2 N26 1.879992 1_555
Mo2 N2 1.889794 1_565
Mo2 N10 1.906409 1_555
Mo3 N19 1.872221 1_555
Mo3 N27 1.879992 1_555
Mo3 N3 1.889794 1_555
Mo3 N11 1.906409 1_555
Mo4 N4 1.872564 1_565
Mo4 N28 1.877968 1_555
Mo4 N20 1.891501 1_565
Mo4 N12 1.892128 1_555
Mo5 N5 1.872564 1_555
Mo5 N29 1.877968 1_555
Mo5 N21 1.891501 1_555
Mo5 N13 1.892128 1_555
Mo6 N30 1.884264 1_555
Mo6 N14 1.894046 1_555
Mo6 N6 1.896379 1_545
Mo6 N22 1.898016 1_545
Mo7 N31 1.884264 1_555
Mo7 N15 1.894046 1_555
Mo7 N7 1.896379 1_555
Mo7 N23 1.898016 1_555
