# generated using pymatgen
data_Tl5Se3
_symmetry_space_group_name_H-M   'P 1'
_cell_length_a   8.60038749
_cell_length_b   8.60038749
_cell_length_c   12.61084109
_cell_angle_alpha   90.00000000
_cell_angle_beta   90.00000000
_cell_angle_gamma   90.00000000
_symmetry_Int_Tables_number   1
_chemical_formula_structural   Tl5Se3
_chemical_formula_sum   'Tl20 Se12'
_cell_volume   932.78185800
_cell_formula_units_Z   4
loop_
 _symmetry_equiv_pos_site_id
 _symmetry_equiv_pos_as_xyz
  1  'x, y, z'
loop_
 _atom_site_type_symbol
 _atom_site_label
 _atom_site_symmetry_multiplicity
 _atom_site_fract_x
 _atom_site_fract_y
 _atom_site_fract_z
 _atom_site_occupancy
  Tl  Tl0  1  0.37399487  0.57690369  0.59710636  1
  Tl  Tl1  1  0.87399487  0.42309631  0.90289364  1
  Tl  Tl2  1  0.57690369  0.12600513  0.59710636  1
  Tl  Tl3  1  0.92309631  0.37399487  0.59710636  1
  Tl  Tl4  1  0.25000000  0.25000000  0.28573549  1
  Tl  Tl5  1  0.75000000  0.75000000  0.21426451  1
  Tl  Tl6  1  0.75000000  0.75000000  0.71426451  1
  Tl  Tl7  1  0.25000000  0.25000000  0.78573549  1
  Tl  Tl8  1  0.12600513  0.92309631  0.59710636  1
  Tl  Tl9  1  0.07690469  0.87399487  0.90289364  1
  Tl  Tl10  1  0.42309631  0.62600513  0.90289364  1
  Tl  Tl11  1  0.62600513  0.07690469  0.90289364  1
  Tl  Tl12  1  0.07690469  0.62600513  0.40289364  1
  Tl  Tl13  1  0.42309631  0.87399487  0.40289364  1
  Tl  Tl14  1  0.12600513  0.57690369  0.09710636  1
  Tl  Tl15  1  0.62600513  0.42309631  0.40289364  1
  Tl  Tl16  1  0.87399487  0.07690469  0.40289364  1
  Tl  Tl17  1  0.92309631  0.12600513  0.09710636  1
  Tl  Tl18  1  0.57690369  0.37399487  0.09710636  1
  Tl  Tl19  1  0.37399487  0.92309631  0.09710636  1
  Se  Se0  1  0.25000000  0.25000000  0.52219610  1
  Se  Se1  1  0.75000000  0.75000000  0.97780390  1
  Se  Se2  1  0.75000000  0.75000000  0.47780390  1
  Se  Se3  1  0.25000000  0.25000000  0.02219610  1
  Se  Se4  1  0.08823775  0.58823775  0.75000000  1
  Se  Se5  1  0.91176225  0.08823775  0.75000000  1
  Se  Se6  1  0.58823775  0.41176225  0.75000000  1
  Se  Se7  1  0.41176225  0.91176225  0.75000000  1
  Se  Se8  1  0.91176225  0.41176225  0.25000000  1
  Se  Se9  1  0.08823775  0.91176225  0.25000000  1
  Se  Se10  1  0.41176225  0.58823775  0.25000000  1
  Se  Se11  1  0.58823775  0.08823775  0.25000000  1
loop_
_geom_bond_atom_site_label_1
_geom_bond_atom_site_label_2
_geom_bond_distance
_geom_bond_site_symmetry_2
Se0 Tl4 2.981967 1_555
Se0 Tl2 3.151851 1_555
Se0 Tl0 3.151851 1_555
Se0 Tl3 3.151851 1_455
Se0 Tl8 3.151851 1_545
Se0 Tl7 3.323453 1_555
Se1 Tl5 2.981967 1_556
Se1 Tl10 3.151851 1_555
Se1 Tl1 3.151851 1_555
Se1 Tl11 3.151858 1_565
Se1 Tl9 3.151858 1_655
Se1 Tl6 3.323453 1_555
Se2 Tl6 2.981967 1_555
Se2 Tl13 3.151851 1_555
Se2 Tl15 3.151851 1_555
Se2 Tl16 3.151858 1_565
Se2 Tl12 3.151858 1_655
Se2 Tl5 3.323453 1_555
Se3 Tl7 2.981967 1_554
Se3 Tl18 3.151851 1_555
Se3 Tl14 3.151851 1_555
Se3 Tl17 3.151851 1_455
Se3 Tl19 3.151851 1_545
Se3 Tl4 3.323453 1_555
Se4 Tl3 3.021573 1_455
Se4 Tl1 3.021573 1_455
Se4 Tl9 3.125227 1_555
Se4 Tl0 3.125227 1_555
Se4 Tl6 3.255874 1_455
Se4 Tl7 3.255874 1_555
Se5 Tl8 3.021573 1_645
Se5 Tl9 3.021577 1_645
Se5 Tl11 3.125227 1_555
Se5 Tl3 3.125227 1_555
Se5 Tl7 3.255874 1_655
Se5 Tl6 3.255874 1_545
Se6 Tl0 3.021573 1_555
Se6 Tl10 3.021573 1_555
Se6 Tl2 3.125227 1_555
Se6 Tl1 3.125227 1_555
Se6 Tl7 3.255874 1_555
Se6 Tl6 3.255874 1_555
Se7 Tl2 3.021573 1_565
Se7 Tl11 3.021577 1_565
Se7 Tl8 3.125227 1_555
Se7 Tl10 3.125227 1_555
Se7 Tl6 3.255874 1_555
Se7 Tl7 3.255874 1_565
Se8 Tl14 3.021573 1_655
Se8 Tl12 3.021577 1_655
Se8 Tl17 3.125227 1_555
Se8 Tl15 3.125227 1_555
Se8 Tl4 3.255874 1_655
Se8 Tl5 3.255874 1_555
Se9 Tl17 3.021573 1_465
Se9 Tl16 3.021577 1_465
Se9 Tl12 3.125227 1_555
Se9 Tl19 3.125227 1_555
Se9 Tl5 3.255874 1_455
Se9 Tl4 3.255874 1_565
Se10 Tl18 3.021573 1_555
Se10 Tl15 3.021573 1_555
Se10 Tl14 3.125227 1_555
Se10 Tl13 3.125227 1_555
Se10 Tl5 3.255874 1_555
Se10 Tl4 3.255874 1_555
Se11 Tl19 3.021573 1_545
Se11 Tl13 3.021573 1_545
Se11 Tl16 3.125227 1_555
Se11 Tl18 3.125227 1_555
Se11 Tl4 3.255874 1_555
Se11 Tl5 3.255874 1_545
